data_POSCAR
  _audit_creation_date              2014-09-24
  _audit_creation_method            'ToBaCCo'
  _symmetry_space_group_name_H-M    'P1'
  _symmetry_Int_Tables_number       1
  _symmetry_cell_setting            triclinic
  loop_
  _symmetry_equiv_pos_as_xyz
 x,y,z
_cell_length_a 38.9423
_cell_length_b 38.7818
_cell_length_c 40.1454
_cell_angle_alpha 91.278200
_cell_angle_beta 89.881800
_cell_angle_gamma 91.598400
loop_
  _atom_site_label
  _atom_site_type_symbol
  _atom_site_fract_x
  _atom_site_fract_y
  _atom_site_fract_z
C1 C 0.74177 0.59223 1.03033
 C2 C 0.76580 0.61348 1.01402
 C3 C 0.79776 0.62097 1.02879
 C4 C 0.80592 0.60737 1.06001
 C5 C 0.78099 0.58633 1.07614
 C6 C 0.74842 0.57909 1.06194
 C7 C 0.75540 0.63016 0.98297
 C8 C 0.72451 0.64790 0.98287
 C9 C 0.71118 0.66066 0.95336
 C10 C 0.73045 0.65731 0.92392
 C11 C 0.76167 0.63999 0.92357
 C12 C 0.77403 0.62621 0.95320
 H13 H 0.71720 0.58769 1.01840
 H14 H 0.81590 0.63757 1.01586
 H15 H 0.71060 0.65096 1.00606
 H16 H 0.79756 0.61195 0.95298
 H17 H 0.78636 0.57661 1.10045
 H18 H 0.72034 0.66639 0.90072
 C19 C 0.73867 0.38914 0.45475
 C20 C 0.75101 0.38210 0.48683
 C21 C 0.78565 0.37370 0.49094
 C22 C 0.80739 0.37097 0.46320
 C23 C 0.79478 0.37818 0.43158
 C24 C 0.76061 0.38725 0.42696
 C25 C 0.72722 0.38036 0.51563
 C26 C 0.69777 0.35863 0.51381
 C27 C 0.67632 0.35430 0.54168
 C28 C 0.68396 0.37327 0.57110
 C29 C 0.71307 0.39538 0.57332
 C30 C 0.73494 0.39840 0.54557
 H31 H 0.71193 0.39524 0.45141
 H32 H 0.79508 0.36740 0.51538
 H33 H 0.69230 0.34439 0.49085
 H34 H 0.75770 0.41506 0.54700
 H35 H 0.81202 0.37715 0.41041
 H36 H 0.66816 0.36960 0.59296
 C37 C 0.25640 -0.11154 -0.04127
 C38 C 0.26413 -0.13341 -0.01523
 C39 C 0.29314 -0.15392 -0.01757
 C40 C 0.31497 -0.15285 -0.04556
 C41 C 0.30690 -0.13028 -0.07136
 C42 C 0.27794 -0.10945 -0.06927
 C43 C 0.24274 -0.13430 0.01525
 C44 C 0.20701 -0.13978 0.01338
 C45 C 0.18693 -0.14299 0.04260
 C46 C 0.20356 -0.13823 0.07378
 C47 C 0.23922 -0.13280 0.07563
 C48 C 0.25861 -0.13125 0.04644
 H49 H 0.23431 -0.09527 -0.03908
 H50 H 0.29773 -0.17119 0.00256
 H51 H 0.19571 -0.14322 -0.01105
 H52 H 0.28622 -0.12710 0.04800
 H53 H 0.32303 -0.12866 -0.09320
 H54 H 0.18936 -0.13948 0.09690
 C55 C 0.23004 0.11469 0.55204
 C56 C 0.25026 0.11753 0.52328
 C57 C 0.28594 0.11452 0.52561
 C58 C 0.30158 0.10953 0.55661
 C59 C 0.28082 0.10596 0.58518
 C60 C 0.24502 0.10868 0.58299
 C61 C 0.23402 0.12571 0.49127
 C62 C 0.21159 0.15335 0.48994
 C63 C 0.19477 0.16107 0.46024
 C64 C 0.20015 0.13994 0.43188
 C65 C 0.22246 0.11218 0.43284
 C66 C 0.23996 0.10562 0.46245
 H67 H 0.20242 0.11673 0.55014
 H68 H 0.30148 0.11825 0.50352
 H69 H 0.20739 0.16858 0.51238
 H70 H 0.25694 0.08400 0.46350
 H71 H 0.29254 0.10209 0.60921
 H72 H 0.18751 0.14524 0.40867
 C73 C 0.11178 0.57578 0.24338
 C74 C 0.12331 0.54270 0.24968
 C75 C 0.14414 0.53737 0.27730
 C76 C 0.15399 0.56501 0.29858
 C77 C 0.14142 0.59801 0.29260
 C78 C 0.11995 0.60385 0.26514
 C79 C 0.11349 0.51354 0.22724
 C80 C 0.12312 0.51403 0.19360
 C81 C 0.11486 0.48590 0.17228
 C82 C 0.09530 0.45797 0.18457
 C83 C 0.08507 0.45748 0.21809
 C84 C 0.09488 0.48507 0.23950
 H85 H 0.09528 0.57881 0.22208
 H86 H 0.15273 0.51159 0.28186
 H87 H 0.13843 0.53565 0.18460
 H88 H 0.08724 0.48495 0.26547
 H89 H 0.14958 0.61931 0.30871
 H90 H 0.08853 0.43631 0.16815
 C91 C -0.12298 -0.03507 0.23247
 C92 C -0.12566 -0.00283 0.24856
 C93 C -0.14420 -0.00001 0.27842
 C94 C -0.15943 -0.02927 0.29313
 C95 C -0.15638 -0.06150 0.27653
 C96 C -0.13823 -0.06463 0.24640
 C97 C -0.10700 0.02777 0.23572
 C98 C -0.11253 0.03886 0.20327
 C99 C -0.09517 0.06853 0.19133
 C100 C -0.07205 0.08684 0.21275
 C101 C -0.06701 0.07624 0.24558
 C102 C -0.08430 0.04651 0.25665
 H103 H -0.10836 -0.03715 0.20956
 H104 H -0.14519 0.02510 0.29054
 H105 H -0.13023 0.02403 0.18745
 H106 H -0.08091 0.03826 0.28201
 H107 H -0.16763 -0.08451 0.28716
 H108 H -0.05905 0.11023 0.20469
 C109 C 0.38696 0.43641 0.73877
 C110 C 0.37861 0.47025 0.74757
 C111 C 0.35936 0.47672 0.77649
 C112 C 0.34811 0.44939 0.79680
 C113 C 0.35707 0.41546 0.78747
 C114 C 0.37613 0.40887 0.75847
 C115 C 0.38892 0.49856 0.72544
 C116 C 0.37904 0.49694 0.69184
 C117 C 0.38908 0.52321 0.67016
 C118 C 0.41032 0.55054 0.68215
 C119 C 0.42060 0.55230 0.71563
 C120 C 0.40918 0.52661 0.73742
 H121 H 0.40130 0.43155 0.71606
 H122 H 0.35342 0.50315 0.78280
 H123 H 0.36256 0.47571 0.68305
 H124 H 0.41721 0.52760 0.76327
 H125 H 0.34859 0.39376 0.80209
 H126 H 0.41863 0.57070 0.66547
 C127 C 0.61957 1.04607 0.76411
 C128 C 0.63608 1.01559 0.77098
 C129 C 0.65495 1.01292 0.80040
 C130 C 0.65812 1.04116 0.82313
 C131 C 0.64096 1.07179 0.81562
 C132 C 0.62162 1.07440 0.78629
 C133 C 0.63400 0.98701 0.74634
 C134 C 0.64939 0.99114 0.71506
 C135 C 0.64498 0.96574 0.68992
 C136 C 0.62430 0.93638 0.69636
 C137 C 0.60860 0.93208 0.72754
 C138 C 0.61406 0.95728 0.75274
 H139 H 0.60473 1.04718 0.74143
 H140 H 0.66740 0.98889 0.80469
 H141 H 0.66492 1.01418 0.71069
 H142 H 0.60150 0.95471 0.77671
 H143 H 0.64298 1.09406 0.83207
 H144 H 0.62031 0.91680 0.67705
 C145 C -0.06129 0.25465 -0.11482
 C146 C -0.02996 0.26236 -0.13071
 C147 C -0.02601 0.29310 -0.14840
 C148 C -0.05318 0.31627 -0.15082
 C149 C -0.08410 0.30819 -0.13389
 C150 C -0.08853 0.27756 -0.11612
 C151 C -0.00125 0.23809 -0.12933
 C152 C -0.00587 0.20369 -0.14076
 C153 C 0.02164 0.18070 -0.14078
 C154 C 0.05341 0.19291 -0.12766
 C155 C 0.05872 0.22734 -0.11697
 C156 C 0.03114 0.24980 -0.11783
 H157 H -0.06429 0.23076 -0.10153
 H158 H -0.00178 0.29798 -0.16079
 H159 H -0.03091 0.19550 -0.15000
 H160 H 0.03477 0.27650 -0.10984
 H161 H -0.10496 0.32585 -0.13398
 H162 H 0.07464 0.17587 -0.12607
 C163 C 0.52045 0.21506 0.12393
 C164 C 0.49737 0.23873 0.13748
 C165 C 0.50978 0.26606 0.15797
 C166 C 0.54474 0.26892 0.16600
 C167 C 0.56770 0.24530 0.15216
 C168 C 0.55583 0.21858 0.13056
 C169 C 0.46017 0.23470 0.13066
 C170 C 0.44252 0.20372 0.13787
 C171 C 0.40699 0.20004 0.13232
 C172 C 0.38941 0.22774 0.11886
 C173 C 0.40677 0.25884 0.11127
 C174 C 0.44222 0.26209 0.11747
 H175 H 0.51079 0.19456 0.10744
 H176 H 0.49200 0.28416 0.16888
 H177 H 0.45653 0.18270 0.14815
 H178 H 0.45630 0.28559 0.11147
 H179 H 0.59475 0.24775 0.15830
 H180 H 0.36193 0.22563 0.11533
 C181 C 1.05197 0.72367 0.62227
 C182 C 1.03231 0.74942 0.63738
 C183 C 1.04869 0.77624 0.65606
 C184 C 1.08453 0.77619 0.66123
 C185 C 1.10365 0.75016 0.64536
 C186 C 1.08766 0.72426 0.62560
 C187 C 0.99458 0.74749 0.63339
 C188 C 0.97663 0.71645 0.63979
 C189 C 0.94167 0.71245 0.63213
 C190 C 0.92448 0.74018 0.61854
 C191 C 0.94193 0.77160 0.61213
 C192 C 0.97708 0.77509 0.61998
 H193 H 1.03936 0.70377 0.60694
 H194 H 1.03320 0.79576 0.66794
 H195 H 0.99033 0.69496 0.64957
 H196 H 0.99146 0.79846 0.61413
 H197 H 1.13131 0.75018 0.64755
 H198 H 0.89736 0.73727 0.61315
 C199 C 0.46823 0.76407 0.39422
 C200 C 0.49693 0.77276 0.37480
 C201 C 0.49809 0.80407 0.35784
 C202 C 0.47037 0.82672 0.35996
 C203 C 0.44246 0.81809 0.38091
 C204 C 0.44120 0.78689 0.39788
 C205 C 0.52590 0.74904 0.37322
 C206 C 0.52177 0.71653 0.35744
 C207 C 0.54803 0.69241 0.35852
 C208 C 0.57812 0.70104 0.37653
 C209 C 0.58244 0.73336 0.39262
 C210 C 0.55645 0.75757 0.39027
 H211 H 0.46757 0.73996 0.40740
 H212 H 0.52043 0.81018 0.34284
 H213 H 0.49810 0.71038 0.34422
 H214 H 0.55911 0.78234 0.40318
 H215 H 0.42094 0.83494 0.38342
 H216 H 0.59825 0.68250 0.37827
 C217 C 0.38065 -0.03210 0.30771
 H218 H 0.36052 -0.02227 0.32349
 C219 C 0.40478 -0.05373 0.32123
 H220 H 0.40329 -0.05947 0.34746
 C221 C 0.40565 -0.03847 0.25418
 H222 H 0.40480 -0.03380 0.22774
 C223 C 0.43042 -0.06017 0.26674
 H224 H 0.44866 -0.07162 0.24972
 N225 N 0.38098 -0.02545 0.27457
 C226 C 0.32803 0.05555 0.22252
 H227 H 0.30273 0.04961 0.23228
 C228 C 0.33272 0.08359 0.20182
 H229 H 0.31079 0.09872 0.19555
 C230 C 0.38738 0.04394 0.22025
 H231 H 0.40860 0.02844 0.22750
 C232 C 0.39337 0.07242 0.19984
 H233 H 0.41919 0.07845 0.19128
 Zn234 Zn 0.34238 -0.00370 0.25587
 N235 N 0.35485 0.03558 0.23042
 C236 C 0.32609 0.03732 0.31129
 N237 N 0.31328 0.01211 0.29034
 C238 C 0.28019 0.00030 0.29279
 C239 C 0.25831 0.01456 0.31670
 C240 C 0.30527 0.05191 0.33585
 C241 C 0.32778 -0.07029 0.22854
 C242 C 0.31413 -0.09453 0.20562
 C243 C 0.27974 -0.05007 0.18271
 C244 C 0.29406 -0.02666 0.20610
 N245 N 0.31849 -0.03675 0.22777
 H246 H 0.35242 0.04645 0.30848
 H247 H 0.27056 -0.01968 0.27578
 H248 H 0.23193 0.00516 0.31807
 H249 H 0.31576 0.07244 0.35181
 H250 H 0.34635 -0.07830 0.24653
 H251 H 0.32253 -0.12085 0.20644
 H252 H 0.26155 -0.04093 0.16483
 H253 H 0.28628 -0.00023 0.20605
 C254 C 0.36558 0.09203 0.18977
 C255 C 0.42951 -0.06886 0.30052
 C256 C 0.29056 -0.08431 0.18160
 C257 C 0.27076 0.04091 0.33840
 C258 C 0.07207 1.02736 0.76898
 H259 H 0.07056 1.01820 0.74337
 C260 C 0.04784 1.05053 0.78125
 H261 H 0.02768 1.05873 0.76496
 C262 C 0.10224 1.03074 0.82018
 H263 H 0.12412 1.02413 0.83498
 C264 C 0.07882 1.05395 0.83330
 H265 H 0.08266 1.06426 0.85834
 N266 N 0.09919 1.01876 0.78819
 C267 C 0.15447 0.93295 0.74435
 H268 H 0.17958 0.94313 0.75134
 C269 C 0.15146 0.89962 0.73129
 H270 H 0.17474 0.88560 0.72719
 C271 C 0.09425 0.93927 0.74211
 H272 H 0.07203 0.95472 0.74685
 C273 C 0.08999 0.90548 0.72896
 H274 H 0.06440 0.89525 0.72360
 Zn275 Zn 0.13763 0.99618 0.76908
 N276 N 0.12632 0.95231 0.74929
 C277 C 0.15991 0.96283 0.82519
 N278 N 0.16969 0.98704 0.80286
 C279 C 0.20223 1.00066 0.80253
 C280 C 0.22685 0.98877 0.82449
 C281 C 0.18361 0.95027 0.84756
 C282 C 0.14710 1.05803 0.73359
 C283 C 0.16009 1.07935 0.70869
 C284 C 0.19742 1.03384 0.69099
 C285 C 0.18369 1.01336 0.71620
 N286 N 0.15843 1.02535 0.73652
 H287 H 0.13394 0.95216 0.82457
 H288 H 0.20944 1.01983 0.78447
 H289 H 0.25273 0.99953 0.82339
 H290 H 0.17540 0.93001 0.86410
 H291 H 0.12778 1.06767 0.75044
 H292 H 0.15039 1.10510 0.70684
 H293 H 0.21669 1.02321 0.67457
 H294 H 0.19298 0.98770 0.71898
 C295 C 0.11897 0.88513 0.72369
 C296 C 0.05192 1.06512 0.81338
 C297 C 0.18514 1.06709 0.68654
 C298 C 0.21785 0.96261 0.84685
 C299 C 0.57047 0.51922 0.27926
 H300 H 0.55639 0.49547 0.27330
 C301 C 0.55347 0.54713 0.29382
 H302 H 0.52636 0.54425 0.29930
 C303 C 0.62300 0.55153 0.27943
 H304 H 0.65009 0.55305 0.27343
 C305 C 0.60712 0.57994 0.29393
 H306 H 0.62239 0.60322 0.29877
 N307 N 0.60464 0.52196 0.27249
 C308 C 0.59463 0.43769 0.20763
 H309 H 0.60248 0.45451 0.18782
 C310 C 0.58150 0.40470 0.19953
 H311 H 0.57908 0.39681 0.17358
 C312 C 0.59131 0.42595 0.26524
 H313 H 0.59644 0.43400 0.29077
 C314 C 0.57901 0.39241 0.25821
 H315 H 0.57411 0.37497 0.27847
 Zn316 Zn 0.62896 0.48601 0.25160
 N317 N 0.60010 0.44737 0.24004
 C318 C 0.67895 0.44087 0.27002
 N319 N 0.66182 0.46888 0.28116
 C320 C 0.66466 0.48043 0.31332
 C321 C 0.68531 0.46330 0.33577
 C322 C 0.69969 0.42298 0.29153
 C323 C 0.62892 0.51814 0.19036
 C324 C 0.64173 0.52972 0.16002
 C325 C 0.69857 0.51418 0.17712
 C326 C 0.68454 0.50236 0.20707
 N327 N 0.65011 0.50384 0.21274
 H328 H 0.67536 0.43160 0.24461
 H329 H 0.65004 0.50216 0.32195
 H330 H 0.68705 0.47276 0.36128
 H331 H 0.71200 0.40016 0.28200
 H332 H 0.60178 0.51972 0.19581
 H333 H 0.62424 0.54052 0.14239
 H334 H 0.72586 0.51213 0.17260
 H335 H 0.70109 0.49161 0.22549
 C336 C 0.57501 0.38120 0.22497
 C337 C 0.57184 0.57809 0.30131
 C338 C 0.67688 0.52735 0.15289
 C339 C 0.70292 0.43390 0.32502
 C340 C 0.86578 0.45050 0.77464
 H341 H 0.83807 0.45110 0.77621
 C342 C 0.88316 0.42371 0.78907
 H343 H 0.86822 0.40383 0.80136
 C344 C 0.91810 0.47566 0.75556
 H345 H 0.93146 0.49600 0.74233
 C346 C 0.93665 0.44928 0.76983
 H347 H 0.96433 0.44996 0.76759
 N348 N 0.88331 0.47579 0.75837
 C349 C 0.87264 0.53991 0.67807
 H350 H 0.85627 0.51977 0.66732
 C351 C 0.88301 0.56736 0.65830
 H352 H 0.87524 0.56710 0.63243
 C353 C 0.90102 0.56551 0.72490
 H354 H 0.90660 0.56532 0.75129
 C355 C 0.91183 0.59373 0.70596
 H356 H 0.92609 0.61486 0.71798
 Zn357 Zn 0.85584 0.50965 0.73939
 N358 N 0.88078 0.53990 0.71100
 C359 C 0.82006 0.56622 0.76366
 N360 N 0.83681 0.53792 0.77351
 C361 C 0.84220 0.53204 0.80636
 C362 C 0.83036 0.55514 0.83079
 C363 C 0.80799 0.59000 0.78717
 C364 C 0.83061 0.46194 0.69140
 C365 C 0.80663 0.44625 0.66968
 C366 C 0.76238 0.47957 0.69623
 C367 C 0.78725 0.49477 0.71733
 N368 N 0.82077 0.48635 0.71406
 H369 H 0.81659 0.57060 0.73737
 H370 H 0.85625 0.50983 0.81372
 H371 H 0.83525 0.55025 0.85677
 H372 H 0.79451 0.61210 0.77853
 H373 H 0.85739 0.45545 0.68954
 H374 H 0.81517 0.42729 0.65153
 H375 H 0.73608 0.48755 0.69866
 H376 H 0.77980 0.51386 0.73575
 C377 C 0.90153 0.59549 0.67252
 C378 C 0.91916 0.42272 0.78689
 C379 C 0.77203 0.45537 0.67162
 C380 C 0.81331 0.58480 0.82127
 C381 C 0.23228 0.42081 -0.06383
 H382 H 0.20519 0.42326 -0.05860
 C383 C 0.24711 0.43785 -0.09083
 H384 H 0.23138 0.45356 -0.10633
 C385 C 0.28554 0.39614 -0.05095
 H386 H 0.30031 0.37934 -0.03577
 C387 C 0.30110 0.41185 -0.07821
 H388 H 0.32793 0.40746 -0.08350
 N389 N 0.25171 0.40083 -0.04426
 C390 C 0.18963 0.38960 0.04562
 H391 H 0.19072 0.36194 0.04819
 C392 C 0.17174 0.40927 0.06898
 H393 H 0.15901 0.39611 0.08919
 C394 C 0.20578 0.43971 0.01616
 H395 H 0.21985 0.45162 -0.00394
 C396 C 0.18830 0.46045 0.03908
 H397 H 0.18902 0.48801 0.03570
 Zn398 Zn 0.23075 0.37578 -0.00940
 N399 N 0.20589 0.40492 0.01967
 C400 C 0.28636 0.37889 0.03325
 N401 N 0.26547 0.35593 0.01644
 C402 C 0.27004 0.32138 0.01820
 C403 C 0.29736 0.30886 0.03663
 C404 C 0.31376 0.36756 0.05202
 C405 C 0.16671 0.34110 -0.02407
 C406 C 0.14532 0.31712 -0.04107
 C407 C 0.19517 0.29551 -0.06967
 C408 C 0.21556 0.31979 -0.05208
 N409 N 0.20120 0.34182 -0.02964
 H410 H 0.28189 0.40622 0.03169
 H411 H 0.25286 0.30350 0.00503
 H412 H 0.30093 0.28133 0.03707
 H413 H 0.32972 0.38664 0.06508
 H414 H 0.15554 0.35947 -0.00692
 H415 H 0.11802 0.31697 -0.03604
 H416 H 0.20744 0.27882 -0.08772
 H417 H 0.24294 0.32148 -0.05668
 C418 C 0.17100 0.44532 0.06610
 C419 C 0.28181 0.43299 -0.09845
 C420 C 0.15946 0.29388 -0.06431
 C421 C 0.31999 0.33212 0.05356
 C422 C 0.82467 0.11283 1.03313
 H423 H 0.83021 0.11655 1.00703
 C424 C 0.85070 0.10258 1.05439
 H425 H 0.87613 0.09811 1.04453
 C426 C 0.78568 0.11652 1.07839
 H427 H 0.76083 0.12325 1.08808
 C428 C 0.81056 0.10521 1.10024
 H429 H 0.80445 0.10323 1.12647
 N430 N 0.79317 0.12063 1.04556
 C431 C 0.71410 0.11900 0.96960
 H432 H 0.70022 0.14082 0.97926
 C433 C 0.70063 0.09972 0.94283
 H434 H 0.67633 0.10693 0.93243
 C435 C 0.76219 0.08310 0.97214
 H436 H 0.78626 0.07685 0.98354
 C437 C 0.74957 0.06297 0.94521
 H438 H 0.76437 0.04157 0.93597
 Zn439 Zn 0.76059 0.14167 1.01768
 N440 N 0.74462 0.11090 0.98337
 C441 C 0.76524 0.19457 0.97067
 N442 N 0.78166 0.18070 0.99686
 C443 C 0.81433 0.19114 1.00496
 C444 C 0.83271 0.21403 0.98472
 C445 C 0.78252 0.21782 0.95001
 C446 C 0.70157 0.12656 1.05361
 C447 C 0.67057 0.13207 1.07000
 C448 C 0.68064 0.19346 1.06487
 C449 C 0.71162 0.18674 1.04841
 N450 N 0.72128 0.15364 1.04298
 H451 H 0.73923 0.18635 0.96472
 H452 H 0.82675 0.18083 1.02643
 H453 H 0.85907 0.22102 0.99093
 H454 H 0.76938 0.22705 0.92838
 H455 H 0.70977 0.10050 1.04876
 H456 H 0.65553 0.10996 1.07816
 H457 H 0.67296 0.21990 1.06834
 H458 H 0.72757 0.20784 1.03942
 C459 C 0.71865 0.07162 0.92987
 C460 C 0.84376 0.09909 1.08842
 C461 C 0.65942 0.16582 1.07543
 C462 C 0.81711 0.22688 0.95627
 C463 C 0.29267 0.56949 0.52281
 H464 H 0.27068 0.55965 0.50882
 C465 C 0.31001 0.54764 0.54381
 H466 H 0.30090 0.52117 0.54585
 C467 C 0.32976 0.61648 0.53854
 H468 H 0.33707 0.64343 0.53686
 C469 C 0.34778 0.59560 0.55982
 H470 H 0.36908 0.60680 0.57399
 N471 N 0.30241 0.60336 0.52099
 C472 C 0.27236 0.58625 0.44159
 H473 H 0.29797 0.57950 0.44898
 C474 C 0.25740 0.57083 0.41314
 H475 H 0.27186 0.55232 0.39874
 C476 C 0.22319 0.61991 0.45065
 H477 H 0.21015 0.63943 0.46509
 C478 C 0.20733 0.60519 0.42253
 H479 H 0.18187 0.61326 0.41606
 Zn480 Zn 0.27524 0.63369 0.49673
 N481 N 0.25515 0.61039 0.45956
 C482 C 0.31413 0.67001 0.44941
 N483 N 0.30303 0.67130 0.48156
 C484 C 0.31299 0.69775 0.50257
 C485 C 0.33458 0.72446 0.49127
 C486 C 0.33635 0.69566 0.43736
 C487 C 0.22001 0.62237 0.53904
 C488 C 0.19089 0.62973 0.55783
 C489 C 0.20078 0.69020 0.54701
 C490 C 0.22967 0.68164 0.52813
 N491 N 0.23873 0.64812 0.52458
 H492 H 0.30632 0.64872 0.43312
 H493 H 0.30450 0.69794 0.52824
 H494 H 0.34246 0.74522 0.50830
 H495 H 0.34510 0.69402 0.41177
 H496 H 0.22726 0.59589 0.53538
 H497 H 0.17647 0.60873 0.56903
 H498 H 0.19355 0.71691 0.54899
 H499 H 0.24400 0.70165 0.51546
 C500 C 0.22456 0.58056 0.40314
 C501 C 0.33748 0.56088 0.56322
 C502 C 0.18079 0.66397 0.56180
 C503 C 0.34678 0.72328 0.45839
 C504 C 0.75689 0.93696 0.45405
 H505 H 0.73737 0.94691 0.47053
 C506 C 0.76687 0.95559 0.42609
 H507 H 0.75512 0.97999 0.42149
 C508 C 0.79455 0.89221 0.43895
 H509 H 0.80498 0.86733 0.44412
 C510 C 0.80505 0.90979 0.41066
 H511 H 0.82410 0.89842 0.39447
 N512 N 0.77097 0.90598 0.45996
 C513 C 0.70420 0.89161 0.54229
 H514 H 0.69396 0.86675 0.53406
 C515 C 0.68795 0.90927 0.56824
 H516 H 0.66520 0.89780 0.57947
 C517 C 0.74619 0.93667 0.53804
 H518 H 0.76880 0.94741 0.52609
 C519 C 0.73059 0.95534 0.56373
 H520 H 0.74195 0.97991 0.57176
 Zn521 Zn 0.75729 0.87850 0.49597
 N522 N 0.73323 0.90511 0.52819
 C523 C 0.81959 0.88594 0.53017
 N524 N 0.79775 0.86186 0.51608
 C525 C 0.80492 0.82773 0.51661
 C526 C 0.83412 0.81672 0.53314
 C527 C 0.84893 0.87612 0.54697
 C528 C 0.71915 0.81429 0.49750
 C529 C 0.69611 0.78892 0.48497
 C530 C 0.69048 0.82191 0.43507
 C531 C 0.71408 0.84625 0.44823
 N532 N 0.72789 0.84218 0.47896
 H533 H 0.81421 0.91296 0.52861
 H534 H 0.78818 0.80893 0.50418
 H535 H 0.83913 0.78943 0.53330
 H536 H 0.86506 0.89599 0.55868
 H537 H 0.72961 0.81201 0.52227
 H538 H 0.68924 0.76706 0.50015
 H539 H 0.67971 0.82576 0.41064
 H540 H 0.72072 0.86882 0.43405
 C541 C 0.70149 0.94130 0.57960
 C542 C 0.79109 0.94187 0.40390
 C543 C 0.68128 0.79282 0.45349
 C544 C 0.85640 0.84105 0.54902
 C545 C -0.01948 0.32507 0.41589
 H546 H 0.00560 0.33778 0.41534
 C547 C -0.04532 0.33836 0.43627
 H548 H -0.04007 0.36146 0.45125
 C549 C -0.05726 0.28036 0.39583
 H550 H -0.06195 0.25807 0.37969
 C551 C -0.08398 0.29321 0.41523
 H552 H -0.10906 0.28047 0.41404
 N553 N -0.02578 0.29642 0.39643
 C554 C 0.07433 0.25444 0.37476
 H555 H 0.07223 0.25174 0.34795
 C556 C 0.10237 0.24107 0.39110
 H557 H 0.12213 0.22855 0.37662
 C558 C 0.05019 0.27278 0.42622
 H559 H 0.02918 0.28385 0.43994
 C560 C 0.07805 0.26014 0.44356
 H561 H 0.07826 0.26195 0.47050
 Zn562 Zn 0.00941 0.28045 0.36794
 N563 N 0.04879 0.26957 0.39243
 C564 C 0.05162 0.33018 0.33522
 N565 N 0.01970 0.31514 0.33692
 C566 C -0.00596 0.32454 0.31638
 C567 C 0.00050 0.34854 0.29161
 C568 C 0.05904 0.35481 0.31119
 C569 C -0.00933 0.21095 0.36515
 C570 C -0.01635 0.17842 0.35087
 C571 C -0.01426 0.20383 0.29649
 C572 C -0.00676 0.23589 0.31181
 N573 N -0.00458 0.23886 0.34560
 H574 H 0.07144 0.32288 0.35226
 H575 H -0.03129 0.31266 0.31878
 H576 H -0.02007 0.35522 0.27506
 H577 H 0.08476 0.36600 0.30966
 H578 H -0.00697 0.21395 0.39191
 H579 H -0.02005 0.15661 0.36696
 H580 H -0.01555 0.20180 0.26958
 H581 H -0.00190 0.25807 0.29656
 C582 C 0.10419 0.24344 0.42596
 C583 C -0.07815 0.32261 0.43567
 C584 C -0.01868 0.17455 0.31611
 C585 C 0.03344 0.36371 0.28863
 C586 C 1.02038 0.77281 0.07649
 H587 H 1.00245 0.75444 0.06495
 C588 C 1.04585 0.78916 0.05727
 H589 H 1.04732 0.78304 0.03089
 C590 C 1.04152 0.80160 0.12528
 H591 H 1.03992 0.80587 0.15196
 C592 C 1.06719 0.81838 0.10716
 H593 H 1.08489 0.83596 0.12014
 N594 N 1.01895 0.77918 0.10990
 C595 C 0.96604 0.68690 0.12716
 H596 H 0.98634 0.68055 0.14393
 C597 C 0.94279 0.66090 0.11696
 H598 H 0.94658 0.63496 0.12532
 C599 C 0.93579 0.72831 0.09730
 H600 H 0.93267 0.75492 0.09063
 C601 C 0.91153 0.70298 0.08677
 H602 H 0.88991 0.71045 0.07193
 Zn603 Zn 0.98911 0.75560 0.13921
 N604 N 0.96193 0.72004 0.11784
 C605 C 0.93461 0.77417 0.18097
 N606 N 0.95879 0.78695 0.15975
 C607 C 0.96040 0.82104 0.15242
 C608 C 0.93771 0.84392 0.16742
 C609 C 0.91125 0.79611 0.19636
 C610 C 1.04273 0.71516 0.15877
 C611 C 1.06358 0.69727 0.18017
 C612 C 1.03510 0.72449 0.22695
 C613 C 1.01427 0.74147 0.20457
 N614 N 1.01785 0.73577 0.17118
 H615 H 0.93358 0.74687 0.18600
 H616 H 0.97913 0.83062 0.13479
 H617 H 0.93945 0.87093 0.16123
 H618 H 0.89268 0.78542 0.21364
 H619 H 1.04551 0.71172 0.13209
 H620 H 1.08256 0.68020 0.16979
 H621 H 1.03130 0.72838 0.25348
 H622 H 0.99493 0.75863 0.21391
 C623 C 0.91432 0.66891 0.09757
 C624 C 1.07003 0.81185 0.07278
 C625 C 1.05950 0.70143 0.21470
 C626 C 0.91275 0.83153 0.18976
 C627 C 0.52884 0.28235 0.61488
 H628 H 0.51156 0.29799 0.62930
 C629 C 0.55340 0.29856 0.59469
 H630 H 0.55486 0.32646 0.59419
 C631 C 0.54775 0.22740 0.59734
 H632 H 0.54522 0.19966 0.59794
 C633 C 0.57229 0.24253 0.57641
 H634 H 0.58902 0.22610 0.56199
 N635 N 0.52703 0.24731 0.61666
 C636 C 0.44631 0.17160 0.64216
 H637 H 0.44794 0.17276 0.66906
 C638 C 0.42180 0.14983 0.62655
 H639 H 0.40466 0.13408 0.64154
 C640 C 0.46562 0.19196 0.58993
 H641 H 0.48189 0.20928 0.57579
 C642 C 0.44202 0.17000 0.57328
 H643 H 0.44045 0.17064 0.54639
 Zn644 Zn 0.49579 0.22529 0.64695
 N645 N 0.46701 0.19271 0.62379
 C646 C 0.43300 0.25539 0.66610
 N647 N 0.46781 0.25861 0.66859
 C648 C 0.48287 0.28442 0.68746
 C649 C 0.46277 0.30788 0.70509
 C650 C 0.41197 0.27775 0.68394
 C651 C 0.54162 0.17585 0.66994
 C652 C 0.56014 0.15788 0.69333
 C653 C 0.53428 0.19214 0.73701
 C654 C 0.51634 0.20953 0.71275
 N655 N 0.52060 0.20155 0.67982
 H656 H 0.42133 0.23524 0.65060
 H657 H 0.51057 0.28636 0.68931
 H658 H 0.47513 0.32800 0.72030
 H659 H 0.38434 0.27456 0.68194
 H660 H 0.54376 0.16881 0.64391
 H661 H 0.57693 0.13787 0.68457
 H662 H 0.52996 0.19881 0.76294
 H663 H 0.49857 0.22897 0.72052
 C664 C 0.41923 0.14921 0.59171
 C665 C 0.57579 0.27857 0.57544
 C666 C 0.55667 0.16595 0.72745
 C667 C 0.42688 0.30423 0.70382
 C668 C 0.47629 0.76315 0.90978
 H669 H 0.49978 0.75587 0.92161
 C670 C 0.44965 0.77579 0.92935
 H671 H 0.45302 0.77779 0.95608
 C672 C 0.44421 0.77124 0.86062
 H673 H 0.44249 0.76952 0.83374
 C674 C 0.41697 0.78433 0.87927
 H675 H 0.39411 0.79222 0.86654
 N676 N 0.47292 0.76051 0.87610
 C677 C 0.57846 0.74471 0.87285
 H678 H 0.58349 0.76409 0.85444
 C679 C 0.60539 0.73344 0.89241
 H680 H 0.63092 0.74467 0.88923
 C681 C 0.53954 0.70545 0.89862
 H682 H 0.51386 0.69424 0.90036
 C683 C 0.56551 0.69388 0.91902
 H684 H 0.55963 0.67353 0.93633
 Zn685 Zn 0.50930 0.74380 0.84956
 N686 N 0.54623 0.73083 0.87652
 C687 C 0.53568 0.80967 0.83363
 N688 N 0.52322 0.77924 0.82049
 C689 C 0.51995 0.77424 0.78700
 C690 C 0.53077 0.79984 0.76525
 C691 C 0.54683 0.83607 0.81273
 C692 C 0.52059 0.68991 0.80515
 C693 C 0.51274 0.66244 0.78330
 C694 C 0.45410 0.66270 0.80312
 C695 C 0.46301 0.69058 0.82438
 N696 N 0.49562 0.70412 0.82428
 H697 H 0.53733 0.81323 0.86039
 H698 H 0.50895 0.75039 0.77695
 H699 H 0.52869 0.79463 0.73876
 H700 H 0.55688 0.85998 0.82372
 H701 H 0.54645 0.70084 0.80607
 H702 H 0.53283 0.65211 0.76764
 H703 H 0.42780 0.65291 0.80259
 H704 H 0.44374 0.70178 0.84036
 C705 C 0.59892 0.70789 0.91599
 C706 C 0.41943 0.78639 0.91415
 C707 C 0.47901 0.64897 0.78163
 C708 C 0.54471 0.83118 0.77799
 N709 N 0.48146 -0.10607 0.29948
 N710 N 0.49219 -0.13345 0.31512
 C711 C 0.46957 -0.14161 0.33947
 C712 C 0.44357 -0.11776 0.33929
 C713 C 0.45184 -0.09589 0.31349
 H714 H 0.42050 -0.11742 0.35426
 H715 H 0.49403 -0.09518 0.27909
 H716 H 0.51406 -0.14675 0.30809
 N717 N 0.97081 0.38624 0.79545
 N718 N 0.97840 0.35656 0.81276
 C719 C 0.94998 0.34640 0.82976
 C720 C 0.92417 0.36969 0.82361
 C721 C 0.93792 0.39394 0.80196
 H722 H 0.89823 0.36900 0.83308
 H723 H 0.98784 0.39882 0.77937
 H724 H 1.00219 0.34493 0.81157
 N725 N -0.00053 1.10168 0.81441
 N726 N -0.00890 1.13410 0.82751
 C727 C 0.01836 1.14679 0.84522
 C728 C 0.04383 1.12216 0.84432
 C729 C 0.03134 1.09476 0.82478
 H730 H 0.06939 1.12416 0.85466
 H731 H -0.01614 1.08654 0.79845
 H732 H -0.03160 1.14640 0.82200
 N733 N 0.52036 0.61290 0.31706
 N734 N 0.51414 0.64291 0.33184
 C735 C 0.54422 0.65824 0.34121
 C736 C 0.57067 0.63686 0.33182
 C737 C 0.55458 0.60834 0.31653
 H738 H 0.59791 0.64157 0.33543
 H739 H 0.50126 0.59627 0.30718
 H740 H 0.48953 0.65230 0.33558
 N741 N 0.58277 0.31845 0.23335
 N742 N 0.57606 0.28905 0.21710
 C743 C 0.55702 0.29554 0.19014
 C744 C 0.55147 0.33061 0.18896
 C745 C 0.56846 0.34429 0.21681
 H746 H 0.53809 0.34428 0.16993
 H747 H 0.59817 0.32079 0.25459
 H748 H 0.58457 0.26504 0.22433
 N749 N 0.14182 0.82640 0.71357
 N750 N 0.13265 0.79661 0.69550
 C751 C 0.10141 0.80103 0.68203
 C752 C 0.08994 0.83365 0.69161
 C753 C 0.11638 0.84899 0.71064
 H754 H 0.06651 0.84557 0.68400
 H755 H 0.16462 0.82954 0.72703
 H756 H 0.14748 0.77461 0.69461
 N757 N 0.88696 0.63638 0.62768
 N758 N 0.89688 0.66725 0.61763
 C759 C 0.92351 0.67881 0.63653
 C760 C 0.93087 0.65400 0.65971
 C761 C 0.90700 0.62742 0.65330
 H762 H 0.95045 0.65538 0.67882
 H763 H 0.86609 0.62234 0.61753
 H764 H 0.88559 0.67987 0.59791
 N765 N 0.34584 0.13021 0.14487
 N766 N 0.35662 0.15835 0.12969
 C767 C 0.38796 0.16789 0.14149
 C768 C 0.39770 0.14417 0.16497
 C769 C 0.37005 0.12094 0.16660
 H770 H 0.42064 0.14479 0.18015
 H771 H 0.32216 0.11772 0.14032
 H772 H 0.34241 0.17060 0.11162
 N773 N 0.29136 0.48012 -0.13918
 N774 N 0.31065 0.48491 -0.16814
 C775 C 0.32761 0.45554 -0.17472
 C776 C 0.32001 0.43212 -0.14976
 C777 C 0.29749 0.44836 -0.12827
 H778 H 0.32926 0.40628 -0.14725
 H779 H 0.27531 0.49833 -0.12828
 H780 H 0.30963 0.50687 -0.18260
 N781 N 0.80166 0.99520 0.37105
 N782 N 0.81589 1.00324 0.34017
 C783 C 0.82409 0.97336 0.32444
 C784 C 0.81515 0.94607 0.34498
 C785 C 0.80173 0.96069 0.37382
 H786 H 0.81896 0.91888 0.34036
 H787 H 0.79410 1.01333 0.38902
 H788 H 0.81870 1.02835 0.33158
 N789 N 0.90211 0.10949 1.11226
 N790 N 0.91863 0.10231 1.14202
 C791 C 0.89805 0.08035 1.15913
 C792 C 0.86828 0.07334 1.14076
 C793 C 0.87156 0.09240 1.11208
 H794 H 0.84573 0.05856 1.14832
 H795 H 0.91087 0.12754 1.09506
 H796 H 0.94276 0.11243 1.14889
 N797 N 0.35144 0.50487 0.58977
 N798 N 0.36497 0.49494 0.61805
 C799 C 0.37601 0.52314 0.63561
 C800 C 0.36947 0.55218 0.61753
 C801 C 0.35357 0.53961 0.58874
 H802 H 0.37324 0.57884 0.62550
 H803 H 0.34052 0.48795 0.57192
 H804 H 0.36604 0.46927 0.62519
 N805 N 0.21806 0.53715 0.35602
 N806 N 0.19943 0.53306 0.32865
 C807 C 0.17786 0.55957 0.32662
 C808 C 0.18300 0.58132 0.35408
 C809 C 0.20873 0.56631 0.37210
 H810 H 0.17029 0.60516 0.35984
 H811 H 0.23679 0.52011 0.36326
 H812 H 0.20235 0.51278 0.31143
 N813 N 0.71363 0.02009 0.89099
 N814 N 0.69651 0.01163 0.86126
 C815 C 0.67832 0.03921 0.85235
 C816 C 0.68352 0.06530 0.87639
 C817 C 0.70553 0.05250 0.89994
 H818 H 0.67337 0.09093 0.87677
 H819 H 0.72937 0.00351 0.90375
 H820 H 0.69854 -0.01213 0.84886
 N821 N 0.68947 0.99309 0.61588
 N822 N 0.67469 0.99952 0.64494
 C823 C 0.66198 0.96960 0.65711
 C824 C 0.66880 0.94313 0.63455
 C825 C 0.68635 0.95901 0.60885
 H826 H 0.66337 0.91583 0.63717
 H827 H 0.70137 1.01192 0.60129
 H828 H 0.67340 1.02410 0.65590
 N829 N 0.15163 0.50157 0.09168
 N830 N 0.13682 0.51221 0.11958
 C831 C 0.12861 0.48455 0.13797
 C832 C 0.13858 0.45507 0.12101
 C833 C 0.15344 0.46682 0.09177
 H834 H 0.13695 0.42899 0.12994
 H835 H 0.16078 0.51827 0.07347
 H836 H 0.13285 0.53806 0.12588
 N837 N -0.10452 0.35581 0.48331
 N838 N -0.13500 0.36815 0.49086
 C839 C -0.15713 0.35899 0.46625
 C840 C -0.14021 0.33947 0.44246
 C841 C -0.10694 0.33814 0.45404
 H842 H -0.15031 0.32904 0.41912
 H843 H -0.08247 0.35989 0.49778
 H844 H -0.14005 0.38370 0.51177
 N845 N 0.38515 0.79055 0.96660
 N846 N 0.35593 0.80724 0.97772
 C847 C 0.34414 0.82620 0.95248
 C848 C 0.36565 0.82162 0.92495
 C849 C 0.39078 0.79927 0.93477
 H850 H 0.36361 0.83288 0.90068
 H851 H 0.39918 0.77368 0.98080
 H852 H 0.34659 0.80542 1.00198
 N853 N 1.10036 0.83071 0.02072
 N854 N 1.13307 0.84347 0.01241
 C855 C 1.15158 0.84742 0.04081
 C856 C 1.13074 0.83771 0.06745
 C857 C 1.09927 0.82718 0.05397
 H858 H 1.13795 0.83612 0.09332
 H859 H 1.08081 0.82481 0.00361
 H860 H 1.14077 0.84837 -0.01196
 N861 N 0.61894 0.28073 0.52897
 N862 N 0.64519 0.30080 0.51998
 C863 C 0.64739 0.32845 0.54097
 C864 C 0.62084 0.32589 0.56403
 C865 C 0.60363 0.29515 0.55578
 H866 H 0.61579 0.34286 0.58511
 H867 H 0.61228 0.25720 0.51723
 H868 H 0.66212 0.29450 0.50073
 N869 N 0.39262 0.11682 0.54325
 N870 N 0.36150 0.10606 0.53404
 C871 C 0.33950 0.11160 0.55948
 C872 C 0.35770 0.12594 0.58627
 C873 C 0.39118 0.12931 0.57479
 H874 H 0.34742 0.13609 0.60945
 H875 H 0.41412 0.11666 0.52766
 H876 H 0.35548 0.09629 0.51025
 N877 N 0.88078 0.61544 0.11173
 N878 N 0.85028 0.59875 0.10179
 C879 C 0.83768 0.61566 0.07564
 C880 C 0.86018 0.64321 0.06837
 C881 C 0.88649 0.64247 0.09175
 H882 H 0.85696 0.66258 0.04975
 H883 H 0.89474 0.60893 0.13272
 H884 H 0.84029 0.57661 0.11298
 N885 N 0.62247 0.68088 0.96666
 N886 N 0.65198 0.66872 0.97658
 C887 C 0.67603 0.67463 0.95293
 C888 C 0.66092 0.69176 0.92696
 C889 C 0.62694 0.69489 0.93654
 H890 H 0.67232 0.69919 0.90352
 H891 H 0.59961 0.67886 0.98020
 H892 H 0.65472 0.65520 0.99855
 N893 N 0.14385 0.23649 0.47426
 N894 N 0.16758 0.21488 0.48330
 C895 C 0.17132 0.19066 0.45892
 C896 C 0.14906 0.19766 0.43315
 C897 C 0.13211 0.22677 0.44387
 H898 H 0.14459 0.18300 0.41028
 H899 H 0.13610 0.25758 0.48876
 H900 H 0.18080 0.21717 0.50585
 N901 N 0.57901 0.15582 0.78518
 N902 N 0.59606 0.13187 0.80059
 C903 C 0.60372 0.10657 0.77841
 C904 C 0.59100 0.11512 0.74752
 C905 C 0.57538 0.14642 0.75278
 H906 H 0.59244 0.10036 0.72444
 H907 H 0.57015 0.17811 0.79700
 H908 H 0.60152 0.13281 0.82604
 N909 N 1.08985 0.69068 0.26826
 N910 N 1.10724 0.66344 0.28207
 C911 C 1.10668 0.63684 0.25965
 C912 C 1.08955 0.64701 0.23122
 C913 C 1.07954 0.68051 0.23755
 H914 H 1.08439 0.63210 0.20862
 H915 H 1.08595 0.71450 0.28009
 H916 H 1.11679 0.66396 0.30634
 N917 N 0.85852 0.84603 0.22019
 N918 N 0.84502 0.87334 0.23484
 C919 C 0.86644 0.90086 0.23076
 C920 C 0.89470 0.89054 0.21242
 C921 C 0.88888 0.85549 0.20647
 H922 H 0.91728 0.90594 0.20610
 H923 H 0.84692 0.82143 0.21983
 H924 H 0.82156 0.87282 0.24748
 N925 N 0.37470 0.31846 0.73718
 N926 N 0.36169 0.34584 0.75216
 C927 C 0.38334 0.37311 0.74780
 C928 C 0.41155 0.36250 0.72957
 C929 C 0.40501 0.32771 0.72328
 H930 H 0.43332 0.37804 0.72130
 H931 H 0.36288 0.29395 0.73657
 H932 H 0.33788 0.34588 0.76417
 N933 N 0.48508 0.61940 0.72620
 N934 N 0.46941 0.59445 0.70868
 C935 C 0.44396 0.58060 0.72728
 C936 C 0.44327 0.59758 0.75802
 C937 C 0.46975 0.62216 0.75625
 H938 H 0.42562 0.59312 0.77842
 H939 H 0.50530 0.63481 0.71716
 H940 H 0.47624 0.58711 0.68443
 N941 N -0.01751 0.11011 0.31473
 N942 N -0.02972 0.08427 0.29591
 C943 C -0.04569 0.09715 0.26934
 C944 C -0.04312 0.13290 0.27118
 C945 C -0.02547 0.14008 0.30063
 H946 H -0.05480 0.15105 0.25487
 H947 H -0.00433 0.10702 0.33704
 H948 H -0.02757 0.05830 0.30169
 N949 N 0.02629 0.38611 0.23123
 N950 N 0.04027 0.41032 0.21251
 C951 C 0.06416 0.42818 0.23058
 C952 C 0.06558 0.41459 0.26216
 C953 C 0.04121 0.38786 0.26152
 H954 H 0.08224 0.42278 0.28256
 H955 H 0.00738 0.36831 0.22299
 H956 H 0.03324 0.41459 0.18788
 N957 N 0.55015 0.85896 0.72231
 N958 N 0.56719 0.88519 0.70910
 C959 C 0.58569 0.90178 0.73315
 C960 C 0.58001 0.88547 0.76308
 C961 C 0.55749 0.85816 0.75512
 H962 H 0.59174 0.89187 0.78690
 H963 H 0.53366 0.84227 0.70878
 H964 H 0.56568 0.89165 0.68404
 N965 N 0.67146 0.53685 0.09199
 N966 N 0.69141 0.55095 0.06662
 C967 C 0.72229 0.56088 0.07957
 C968 C 0.72254 0.55247 0.11330
 C969 C 0.69025 0.53809 0.12006
 H970 H 0.74258 0.55791 0.13142
 H971 H 0.64634 0.52715 0.08901
 H972 H 0.68276 0.55267 0.04218
 N973 N 0.17862 1.11350 0.64483
 N974 N 0.19420 1.12422 0.61756
 C975 C 0.22291 1.10614 0.61282
 C976 C 0.22581 1.08292 0.63832
 C977 C 0.19691 1.08814 0.65804
 H978 H 0.24526 1.06380 0.64100
 H979 H 0.15503 1.12256 0.65312
 H980 H 0.18482 1.14317 0.60219
 N981 N 0.27831 0.94814 0.86163
 N982 N 0.29401 0.92878 0.88324
 C983 C 0.27036 0.91470 0.90380
 C984 C 0.23820 0.92579 0.89491
 C985 C 0.24424 0.94682 0.86786
 H986 H 0.21379 0.91861 0.90603
 H987 H 0.29093 0.96102 0.84240
 H988 H 0.32051 0.92543 0.88365
 N989 N 0.74751 0.39111 0.33862
 N990 N 0.76210 0.37865 0.36522
 C991 C 0.74849 0.39348 0.39272
 C992 C 0.72382 0.41638 0.38307
 C993 C 0.72409 0.41427 0.34837
 H994 H 0.70851 0.43271 0.39907
 H995 H 0.75432 0.38407 0.31431
 H996 H 0.78112 0.36019 0.36425
 N997 N 0.71211 0.43871 0.65354
 N998 N 0.69675 0.42319 0.62779
 C999 C 0.72068 0.41435 0.60506
 C1000 C 0.75280 0.42480 0.61703
 C1001 C 0.74628 0.44006 0.64799
 H1002 H 0.77741 0.42141 0.60503
 H1003 H 0.69914 0.44759 0.67469
 H1004 H 0.67020 0.41904 0.62596
 N1005 N 0.29808 -0.13551 0.14355
 N1006 N 0.28460 -0.14817 0.11556
 C1007 C 0.25699 -0.12985 0.10792
 C1008 C 0.25265 -0.10427 0.13203
 C1009 C 0.27958 -0.10845 0.15418
 H1010 H 0.23416 -0.08397 0.13185
 H1011 H 0.32086 -0.14409 0.15375
 H1012 H 0.29511 -0.16806 0.10121
 N1013 N 0.21361 0.06197 0.35700
 N1014 N 0.20108 0.08121 0.38146
 C1015 C 0.22658 0.08975 0.40299
 C1016 C 0.25674 0.07535 0.39171
 C1017 C 0.24745 0.05809 0.36227
 H1018 H 0.28198 0.07801 0.40283
 H1019 H 0.19929 0.05280 0.33654
 H1020 H 0.17548 0.08841 0.38315
 N1021 N 0.79337 0.64306 0.83985
 N1022 N 0.78025 0.65762 0.86685
 C1023 C 0.77957 0.63459 0.89148
 C1024 C 0.79310 0.60396 0.87964
 C1025 C 0.80111 0.61022 0.84650
 H1026 H 0.79430 0.57982 0.89254
 H1027 H 0.79639 0.65556 0.81723
 H1028 H 0.77122 0.68273 0.86804
 N1029 N 0.12196 0.64983 0.58388
 N1030 N 0.09740 0.66570 0.60041
 C1031 C 0.10834 0.69820 0.60793
 C1032 C 0.14128 0.70326 0.59550
 C1033 C 0.14899 0.67198 0.58031
 H1034 H 0.15713 0.72661 0.59681
 H1035 H 0.11964 0.62451 0.57460
 H1036 H 0.07368 0.65423 0.60641
 N1037 N 0.59911 0.14810 1.09066
 N1038 N 0.57202 0.16187 1.10497
 C1039 C 0.58020 0.19452 1.11475
 C1040 C 0.61417 0.20183 1.10617
 C1041 C 0.62528 0.17167 1.09081
 H1042 H 0.62847 0.22591 1.10996
 H1043 H 0.59905 0.12320 1.08025
 H1044 H 0.54840 0.14887 1.10788
 N1045 N 0.82317 0.26976 0.91068
 N1046 N 0.84778 0.28273 0.89160
 C1047 C 0.87808 0.26963 0.90053
 C1048 C 0.87228 0.24736 0.92671
 C1049 C 0.83708 0.24814 0.93238
 H1050 H 0.89087 0.23211 0.93936
 H1051 H 0.79730 0.27572 0.90854
 H1052 H 0.84335 0.29955 0.87223
 N1053 N 0.37004 0.78395 0.45499
 N1054 N 0.39451 0.80077 0.43859
 C1055 C 0.41153 0.77802 0.41931
 C1056 C 0.39706 0.74539 0.42335
 C1057 C 0.37076 0.75027 0.44610
 H1058 H 0.40460 0.72147 0.41142
 H1059 H 0.35292 0.79555 0.47156
 H1060 H 0.39966 0.82728 0.44104
 N1061 N 0.65603 0.73303 0.44659
 N1062 N 0.63043 0.71739 0.43018
 C1063 C 0.61341 0.74107 0.41306
 C1064 C 0.62907 0.77319 0.41869
 C1065 C 0.65606 0.76695 0.44003
 H1066 H 0.62174 0.79764 0.40880
 H1067 H 0.67331 0.72044 0.46166
 H1068 H 0.62450 0.69102 0.43134
 N1069 N 0.14912 0.24116 -0.10069
 N1070 N 0.12290 0.22395 -0.11445
 C1071 C 0.09352 0.23957 -0.10597
 C1072 C 0.10167 0.26830 -0.08593
 C1073 C 0.13730 0.26840 -0.08310
 H1074 H 0.08410 0.28647 -0.07500
 H1075 H 0.17456 0.23381 -0.10336
 H1076 H 0.12562 0.20217 -0.12989
 N1077 N 0.37653 0.34027 0.08330
 N1078 N 0.39916 0.32118 0.09826
 C1079 C 0.38793 0.28798 0.09720
 C1080 C 0.35652 0.28604 0.08076
 C1081 C 0.35012 0.31982 0.07228
 H1082 H 0.34078 0.26318 0.07546
 H1083 H 0.37980 0.36683 0.08048
 H1084 H 0.42171 0.33116 0.10921
 N1085 N 0.91299 0.85115 0.57838
 N1086 N 0.93517 0.83308 0.59512
 C1087 C 0.92378 0.79995 0.59590
 C1088 C 0.89289 0.79700 0.57870
 C1089 C 0.88684 0.83003 0.56797
 H1090 H 0.87697 0.77404 0.57456
 H1091 H 0.91623 0.87749 0.57415
 H1092 H 0.95746 0.84371 0.60604
   
