data_POSCAR
  _audit_creation_date              2014-09-24
  _audit_creation_method            'ToBaCCo'
  _symmetry_space_group_name_H-M    'P1'
  _symmetry_Int_Tables_number       1
  _symmetry_cell_setting            triclinic
  loop_
  _symmetry_equiv_pos_as_xyz
 x,y,z
_cell_length_a 30.2572
_cell_length_b 20.1439
_cell_length_c 20.3684
_cell_angle_alpha 89.834700
_cell_angle_beta 90.104500
_cell_angle_gamma 89.900500
loop_
  _atom_site_label
  _atom_site_type_symbol
  _atom_site_fract_x
  _atom_site_fract_y
  _atom_site_fract_z
O1 O 0.06204 0.11189 0.12354
 O2 O 0.11062 0.05390 0.05915
 C3 C 0.10182 0.09518 0.10610
 O4 O -0.06119 -0.12593 0.11155
 O5 O -0.11009 -0.05995 0.05517
 C6 C -0.10107 -0.10806 0.09545
 O7 O 0.06247 -0.11888 0.11870
 O8 O 0.11076 -0.05760 0.05713
 C9 C 0.10238 -0.10167 0.10206
 O10 O -0.06156 0.11980 0.11649
 O11 O -0.11026 0.05704 0.05692
 C12 C -0.10138 0.10313 0.09924
 Zr13 Zr 0.00020 0.08170 0.08502
 O14 O -0.00427 0.07923 0.18870
 O15 O 0.00543 0.18649 0.08624
 Zr16 Zr 0.00042 -0.08507 0.08324
 O17 O -0.00114 -0.07573 0.18650
 O18 O 0.00162 -0.18975 0.09158
 O19 O 0.04002 -0.00204 0.09666
 O20 O -0.03856 -0.00200 0.09615
 O21 O -0.06201 0.12324 -0.11098
 O22 O -0.11048 0.05854 -0.05297
 C23 C -0.10174 0.10585 -0.09420
 O24 O 0.06172 -0.11385 -0.12111
 O25 O 0.11044 -0.05535 -0.05748
 C26 C 0.10153 -0.09688 -0.10413
 O27 O -0.06183 -0.12084 -0.11397
 O28 O -0.11041 -0.05790 -0.05442
 C29 C -0.10161 -0.10401 -0.09672
 O30 O 0.06162 0.11599 -0.11849
 O31 O 0.11044 0.05574 -0.05607
 C32 C 0.10147 0.09854 -0.10187
 Zr33 Zr -0.00010 0.08444 -0.08063
 O34 O -0.00570 0.08613 -0.18425
 O35 O 0.00523 0.18921 -0.07866
 Zr36 Zr -0.00001 -0.08298 -0.08270
 O37 O -0.00548 -0.08099 -0.18634
 O38 O 0.00467 -0.18786 -0.08361
 Zr39 Zr 0.06624 -0.00068 0.00085
 Zr40 Zr -0.06603 -0.00053 0.00122
 O41 O -0.03865 0.00093 -0.09365
 O42 O 0.03938 0.00086 -0.09475
 O43 O -0.03943 0.09618 0.00241
 O44 O 0.03871 -0.09644 -0.00008
 O45 O 0.03862 0.09524 0.00227
 O46 O -0.03905 -0.09718 0.00017
 H47 H -0.05874 -0.00273 0.13442
 H48 H 0.05883 -0.13527 -0.00095
 H49 H -0.05876 0.00153 -0.13210
 H50 H 0.05868 0.13406 0.00274
 H51 H 0.01017 -0.20745 0.04827
 H52 H -0.01941 -0.20530 -0.05563
 H53 H 0.01924 -0.05399 -0.20345
 H54 H 0.01870 0.05894 -0.20212
 H55 H -0.01969 0.20643 -0.05233
 H56 H -0.01909 0.20455 0.05942
 H57 H 0.01818 0.04726 0.20474
 H58 H -0.00184 -0.12160 0.20413
 O59 O 0.56195 0.61567 0.61953
 O60 O 0.61034 0.55538 0.55689
 C61 C 0.60169 0.59835 0.60241
 O62 O 0.43728 0.38015 0.61401
 O63 O 0.38870 0.44374 0.55423
 C64 C 0.39748 0.39772 0.59700
 O65 O 0.56176 0.38577 0.62020
 O66 O 0.61029 0.44540 0.55699
 C67 C 0.60154 0.40271 0.60292
 O68 O 0.43789 0.62237 0.61392
 O69 O 0.38936 0.55880 0.55489
 C70 C 0.39813 0.60493 0.59717
 Zr71 Zr 0.49975 0.58468 0.58246
 O72 O 0.49497 0.58477 0.68615
 O73 O 0.50480 0.68951 0.58152
 Zr74 Zr 0.49955 0.41695 0.58281
 O75 O 0.49469 0.41617 0.68648
 O76 O 0.50446 0.31208 0.58238
 O77 O 0.53904 0.50064 0.59573
 O78 O 0.46126 0.50094 0.59464
 O79 O 0.43771 0.62320 0.38532
 O80 O 0.38936 0.55927 0.44427
 C81 C 0.39799 0.60591 0.40226
 O82 O 0.56190 0.38540 0.38053
 O83 O 0.61031 0.44547 0.44336
 C84 C 0.60165 0.40250 0.39785
 O85 O 0.43785 0.37926 0.38580
 O86 O 0.38932 0.44317 0.44451
 C87 C 0.39809 0.39685 0.40241
 O88 O 0.56133 0.61628 0.37906
 O89 O 0.60962 0.55646 0.44267
 C90 C 0.60103 0.59909 0.39660
 Zr91 Zr 0.49953 0.58475 0.41660
 O92 O 0.49435 0.58403 0.31293
 O93 O 0.50467 0.68956 0.41669
 Zr94 Zr 0.49969 0.41704 0.41706
 O95 O 0.49473 0.41798 0.31335
 O96 O 0.50464 0.31220 0.41703
 Zr97 Zr 0.56536 0.50057 0.49998
 Zr98 Zr 0.43365 0.50099 0.49971
 O99 O 0.46110 0.50098 0.40482
 O100 O 0.53907 0.50079 0.40405
 O101 O 0.46013 0.59780 0.49950
 O102 O 0.53802 0.40463 0.50012
 O103 O 0.53808 0.59671 0.49957
 O104 O 0.46012 0.40405 0.49988
 H105 H 0.44139 0.50094 0.63326
 H106 H 0.55805 0.36567 0.50031
 H107 H 0.44107 0.50110 0.36628
 H108 H 0.55812 0.63556 0.49955
 H109 H 0.47902 0.29480 0.55715
 H110 H 0.48053 0.29487 0.44493
 H111 H 0.52010 0.44356 0.29619
 H112 H 0.51912 0.55706 0.29587
 H113 H 0.48021 0.70704 0.44378
 H114 H 0.47957 0.70700 0.55580
 H115 H 0.51957 0.55744 0.70345
 H116 H 0.51888 0.44410 0.70375
 C117 C 0.18322 0.10793 0.12588
 C118 C 0.21872 0.13625 0.15957
 C119 C 0.21146 0.18277 0.20957
 C120 C 0.16768 0.19921 0.22638
 C121 C 0.13216 0.17087 0.19272
 C122 C 0.13949 0.12516 0.14185
 C123 C 0.25028 0.21163 0.24362
 C124 C 0.24928 0.26997 0.27527
 C125 C 0.28822 0.29982 0.30816
 C126 C 0.28108 0.34814 0.35649
 C127 C 0.31666 0.37908 0.38760
 C128 C 0.36037 0.36273 0.37066
 C129 C 0.36758 0.31447 0.32211
 C130 C 0.33197 0.28352 0.29100
 H131 H 0.19013 0.07252 0.08731
 H132 H 0.25206 0.12220 0.14607
 H133 H 0.16047 0.23293 0.26615
 H134 H 0.09891 0.18466 0.20686
 H135 H 0.28084 0.18387 0.24096
 H136 H 0.21869 0.29770 0.27777
 H137 H 0.24777 0.36202 0.37032
 H138 H 0.30982 0.41612 0.42468
 H139 H 0.40080 0.30111 0.30741
 H140 H 0.33909 0.24824 0.25255
 C141 C 0.81765 0.87069 0.10631
 C142 C 0.78210 0.83693 0.13445
 C143 C 0.78921 0.78767 0.18215
 C144 C 0.83294 0.77146 0.19986
 C145 C 0.86854 0.80517 0.17163
 C146 C 0.86132 0.85550 0.12486
 C147 C 0.75026 0.75392 0.21105
 C148 C 0.75080 0.72383 0.26992
 C149 C 0.71161 0.69166 0.29984
 C150 C 0.71837 0.64384 0.34907
 C151 C 0.68255 0.61339 0.37999
 C152 C 0.63896 0.63052 0.36274
 C153 C 0.63211 0.67865 0.31365
 C154 C 0.66799 0.70909 0.28267
 H155 H 0.81081 0.90877 0.07004
 H156 H 0.74882 0.84992 0.11940
 H157 H 0.84003 0.73222 0.23464
 H158 H 0.90175 0.79170 0.18651
 H159 H 0.71993 0.75567 0.18293
 H160 H 0.78115 0.72212 0.29802
 H161 H 0.75157 0.62987 0.36363
 H162 H 0.68912 0.57663 0.41769
 H163 H 0.59900 0.69346 0.29957
 H164 H 0.66119 0.74725 0.24661
 C165 C 0.81685 0.12601 0.89314
 C166 C 0.78130 0.15987 0.86466
 C167 C 0.78848 0.20999 0.81793
 C168 C 0.83222 0.22685 0.80147
 C169 C 0.86780 0.19303 0.82996
 C170 C 0.86055 0.14195 0.87584
 C171 C 0.74961 0.24409 0.78877
 C172 C 0.75052 0.27529 0.73048
 C173 C 0.71153 0.30819 0.70034
 C174 C 0.71861 0.35664 0.65188
 C175 C 0.68298 0.38781 0.62076
 C176 C 0.63930 0.37077 0.63706
 C177 C 0.63216 0.32205 0.68542
 C178 C 0.66782 0.29089 0.71657
 H179 H 0.81000 0.08729 0.92868
 H180 H 0.74798 0.14636 0.87874
 H181 H 0.83936 0.26677 0.76755
 H182 H 0.90102 0.20715 0.81611
 H183 H 0.71910 0.24180 0.81624
 H184 H 0.78105 0.27743 0.70303
 H185 H 0.75190 0.37055 0.63806
 H186 H 0.68976 0.42501 0.58364
 H187 H 0.59896 0.30728 0.69876
 H188 H 0.66077 0.25230 0.75198
 C189 C 0.18285 0.89089 0.87564
 C190 C 0.21833 0.86299 0.84162
 C191 C 0.21107 0.81653 0.79159
 C192 C 0.16730 0.79964 0.77512
 C193 C 0.13180 0.82756 0.80911
 C194 C 0.13914 0.87328 0.85996
 C195 C 0.24989 0.78825 0.75714
 C196 C 0.24913 0.73002 0.72532
 C197 C 0.28811 0.70076 0.69209
 C198 C 0.28106 0.65269 0.64349
 C199 C 0.31669 0.62222 0.61211
 C200 C 0.36037 0.63879 0.62905
 C201 C 0.36750 0.68684 0.67782
 C202 C 0.33183 0.71733 0.70920
 H203 H 0.18977 0.92631 0.91419
 H204 H 0.25165 0.87738 0.85488
 H205 H 0.16009 0.76591 0.73535
 H206 H 0.09855 0.81350 0.79521
 H207 H 0.28027 0.81634 0.75963
 H208 H 0.21874 0.70194 0.72292
 H209 H 0.24778 0.63863 0.62969
 H210 H 0.30992 0.58532 0.57487
 H211 H 0.40070 0.70034 0.69251
 H212 H 0.33888 0.75243 0.74785
 C213 C 0.18280 0.11117 0.87770
 C214 C 0.21816 0.13957 0.84375
 C215 C 0.21076 0.18698 0.79429
 C216 C 0.16691 0.20448 0.77854
 C217 C 0.13152 0.17607 0.81249
 C218 C 0.13902 0.12922 0.86260
 C219 C 0.24953 0.21537 0.75959
 C220 C 0.24866 0.27337 0.72694
 C221 C 0.28759 0.30244 0.69324
 C222 C 0.28044 0.35051 0.64433
 C223 C 0.31600 0.38079 0.61250
 C224 C 0.35974 0.36403 0.62927
 C225 C 0.36697 0.31596 0.67833
 C226 C 0.33137 0.28568 0.71015
 H227 H 0.18985 0.07491 0.91567
 H228 H 0.25152 0.12469 0.85651
 H229 H 0.15950 0.23900 0.73931
 H230 H 0.09823 0.19056 0.79903
 H231 H 0.27998 0.18733 0.76238
 H232 H 0.21820 0.30141 0.72411
 H233 H 0.24712 0.36475 0.63063
 H234 H 0.30914 0.41771 0.57508
 H235 H 0.40020 0.30229 0.69292
 H236 H 0.33856 0.25057 0.74897
 C237 C 0.81699 0.87606 0.89021
 C238 C 0.78152 0.84242 0.86159
 C239 C 0.78879 0.79286 0.81451
 C240 C 0.83260 0.77657 0.79766
 C241 C 0.86809 0.81020 0.82628
 C242 C 0.86073 0.86052 0.87271
 C243 C 0.74993 0.75863 0.78567
 C244 C 0.75081 0.72649 0.72801
 C245 C 0.71179 0.69333 0.69846
 C246 C 0.71884 0.64440 0.65066
 C247 C 0.68320 0.61304 0.62005
 C248 C 0.63951 0.63031 0.63619
 C249 C 0.63239 0.67944 0.68393
 C250 C 0.66806 0.71079 0.71456
 H251 H 0.81004 0.91420 0.92612
 H252 H 0.74819 0.85556 0.87597
 H253 H 0.83989 0.73718 0.76341
 H254 H 0.90135 0.79639 0.81222
 H255 H 0.71940 0.76142 0.81304
 H256 H 0.78134 0.72369 0.70064
 H257 H 0.75213 0.63031 0.63693
 H258 H 0.68998 0.57554 0.58341
 H259 H 0.59920 0.69442 0.69715
 H260 H 0.66098 0.74969 0.74946
 C261 C 0.18101 0.88494 0.11593
 C262 C 0.21669 0.85351 0.14666
 C263 C 0.20984 0.80515 0.19518
 C264 C 0.16620 0.78809 0.21186
 C265 C 0.13035 0.81938 0.18119
 C266 C 0.13702 0.86841 0.13248
 C267 C 0.24903 0.77232 0.22505
 C268 C 0.24845 0.74104 0.28335
 C269 C 0.28760 0.70753 0.31260
 C270 C 0.28074 0.65816 0.36023
 C271 C 0.31648 0.62515 0.38921
 C272 C 0.36011 0.64116 0.37158
 C273 C 0.36707 0.69138 0.32466
 C274 C 0.33129 0.72436 0.29563
 H275 H 0.18826 0.92208 0.07892
 H276 H 0.24994 0.86730 0.13250
 H277 H 0.15930 0.74959 0.24744
 H278 H 0.09739 0.80432 0.19557
 H279 H 0.27949 0.77481 0.19747
 H280 H 0.21800 0.73844 0.31094
 H281 H 0.24751 0.64463 0.37472
 H282 H 0.30981 0.58705 0.42547
 H283 H 0.40022 0.70550 0.31044
 H284 H 0.33823 0.76366 0.26093
 C285 C 0.81725 0.12362 0.11179
 C286 C 0.78178 0.15743 0.14020
 C287 C 0.78902 0.20677 0.18751
 C288 C 0.83282 0.22262 0.20485
 C289 C 0.86833 0.18881 0.17642
 C290 C 0.86098 0.13874 0.12972
 C291 C 0.75014 0.24124 0.21602
 C292 C 0.75092 0.27328 0.27373
 C293 C 0.71186 0.30670 0.30290
 C294 C 0.71885 0.35560 0.35073
 C295 C 0.68317 0.38721 0.38098
 C296 C 0.63949 0.37024 0.36442
 C297 C 0.63243 0.32113 0.31664
 C298 C 0.66814 0.28952 0.28638
 H299 H 0.81030 0.08569 0.07565
 H300 H 0.74845 0.14462 0.12545
 H301 H 0.84010 0.26182 0.23932
 H302 H 0.90158 0.20229 0.19083
 H303 H 0.71966 0.23873 0.18835
 H304 H 0.78139 0.27584 0.30142
 H305 H 0.75212 0.36947 0.36478
 H306 H 0.68991 0.42469 0.41766
 H307 H 0.59925 0.30638 0.30312
 H308 H 0.66111 0.25066 0.25143
   
