data_POSCAR
  _audit_creation_date              2014-09-24
  _audit_creation_method            'ToBaCCo'
  _symmetry_space_group_name_H-M    'P1'
  _symmetry_Int_Tables_number       1
  _symmetry_cell_setting            triclinic
  loop_
  _symmetry_equiv_pos_as_xyz
 x,y,z
_cell_length_a 38.2254
_cell_length_b 37.7509
_cell_length_c 38.4354
_cell_angle_alpha 89.755900
_cell_angle_beta 89.937000
_cell_angle_gamma 90.078100
loop_
  _atom_site_label
  _atom_site_type_symbol
  _atom_site_fract_x
  _atom_site_fract_y
  _atom_site_fract_z
C1 C 0.17110 0.16763 0.21323
 C2 C 0.20133 0.15281 0.19793
 C3 C 0.21643 0.16705 0.16738
 C4 C 0.20058 0.19701 0.15220
 C5 C 0.17103 0.21275 0.16724
 C6 C 0.15657 0.19813 0.19765
 H7 H 0.21309 0.12975 0.20978
 H8 H 0.21169 0.20910 0.12912
 H9 H 0.13314 0.21005 0.20820
 C10 C -0.16893 0.83380 0.21894
 C11 C -0.19870 0.84846 0.20267
 C12 C -0.21343 0.83310 0.17289
 C13 C -0.19830 0.80248 0.15899
 C14 C -0.16873 0.78720 0.17455
 C15 C -0.15459 0.80258 0.20469
 H16 H -0.21163 0.87126 0.21377
 H17 H -0.20927 0.79080 0.13571
 H18 H -0.13083 0.79141 0.21534
 C19 C -0.16888 0.16605 -0.21550
 C20 C -0.19874 0.15094 -0.19980
 C21 C -0.21467 0.16589 -0.17020
 C22 C -0.20049 0.19751 -0.15680
 C23 C -0.17051 0.21292 -0.17164
 C24 C -0.15530 0.19749 -0.20119
 H25 H -0.21117 0.12860 -0.21220
 H26 H -0.21085 0.20883 -0.13311
 H27 H -0.13170 0.20924 -0.21172
 C28 C 0.17432 0.83102 -0.21741
 C29 C 0.15663 0.80155 -0.20373
 C30 C 0.16859 0.78477 -0.17341
 C31 C 0.19855 0.79776 -0.15662
 C32 C 0.21689 0.82750 -0.16969
 C33 C 0.20453 0.84349 -0.20062
 H34 H 0.13307 0.79204 -0.21630
 H35 H 0.20754 0.78414 -0.13348
 H36 H 0.21714 0.86693 -0.21099
 C37 C 0.17044 1.16737 0.78749
 C38 C 0.15319 1.19588 0.80335
 C39 C 0.16668 1.21146 0.83364
 C40 C 0.19748 1.19784 0.84838
 C41 C 0.21490 1.16918 0.83298
 C42 C 0.20143 1.15434 0.80234
 H43 H 0.12963 1.20650 0.79166
 H44 H 0.20781 1.20941 0.87200
 H45 H 0.21442 1.13179 0.79073
 C46 C 0.82923 0.83327 0.78188
 C47 C 0.84555 0.80315 0.79654
 C48 C 0.83084 0.78463 0.82501
 C49 C 0.79912 0.79717 0.83899
 C50 C 0.78281 0.82752 0.82555
 C51 C 0.79750 0.84490 0.79670
 H52 H 0.86848 0.79239 0.78399
 H53 H 0.78774 0.78461 0.86170
 H54 H 0.78531 0.86910 0.78769
 C55 C 0.16726 0.83121 1.21643
 C56 C 0.15217 0.80198 1.19932
 C57 C 0.16767 0.78707 1.16974
 C58 C 0.19918 0.80111 1.15711
 C59 C 0.21477 0.83037 1.17335
 C60 C 0.19908 0.84482 1.20323
 H61 H 0.12870 0.78963 1.20948
 H62 H 0.21053 0.79048 1.13351
 H63 H 0.21094 0.86796 1.21484
 C64 C 0.83196 1.16445 1.21455
 C65 C 0.80125 1.14979 1.20018
 C66 C 0.78643 1.16391 1.16985
 C67 C 0.80130 1.19406 1.15446
 C68 C 0.83169 1.20980 1.16816
 C69 C 0.84699 1.19427 1.19793
 H70 H 0.79004 1.12578 1.21093
 H71 H 0.78972 1.20414 1.13073
 H72 H 0.86902 1.20731 1.20998
 O73 O 0.45285 1.06052 1.06244
 O74 O 0.41364 1.02919 1.02945
 C75 C 0.42119 1.05248 1.05301
 O76 O 0.55074 1.06034 0.93775
 O77 O 0.58815 1.02546 0.96945
 C78 C 0.58189 1.04963 0.94627
 O79 O 0.45264 1.06474 0.94071
 O80 O 0.41358 1.03049 0.97126
 C81 C 0.42101 1.05559 0.94927
 O82 O 0.55122 1.05525 1.06493
 O83 O 0.58831 1.02372 1.02992
 C84 C 0.58233 1.04572 1.05500
 Zr85 Zr 0.50152 1.04058 1.04484
 O86 O 0.50664 1.09643 1.04570
 O87 O 0.49792 1.03931 1.09979
 Zr88 Zr 0.50124 1.04359 0.95684
 O89 O 0.50605 1.09942 0.95876
 O90 O 0.49745 1.04540 0.90191
 O91 O 0.47031 1.04969 1.00119
 O92 O 0.53185 1.04795 1.00086
 O93 O 0.54891 0.93310 1.06144
 O94 O 0.58720 0.96591 1.02849
 C95 C 0.58039 0.94266 1.05241
 O96 O 0.44945 0.93561 0.93778
 O97 O 0.41201 0.96891 0.97100
 C98 C 0.41829 0.94487 0.94780
 O99 O 0.54821 0.93688 0.93392
 O100 O 0.58688 0.96667 0.96875
 C101 C 0.57979 0.94488 0.94377
 O102 O 0.44990 0.93182 1.05879
 O103 O 0.41249 0.96814 1.02868
 C104 C 0.41870 0.94269 1.05055
 Zr105 Zr 0.49962 0.95084 1.04221
 O106 O 0.50239 0.89490 1.03952
 O107 O 0.49600 0.94812 1.09711
 Zr108 Zr 0.49925 0.95392 0.95426
 O109 O 0.50194 0.89795 0.95279
 O110 O 0.49511 0.95588 0.89936
 Zr111 Zr 0.44849 0.99841 0.99984
 Zr112 Zr 0.55210 0.99625 0.99919
 O113 O 0.52965 0.94535 0.99791
 O114 O 0.46806 0.94621 0.99825
 O115 O 0.53162 0.99487 1.05013
 O116 O 0.46989 0.99956 0.94937
 O117 O 0.47034 0.99616 1.05005
 O118 O 0.53133 0.99835 0.94849
 H119 H 0.54827 1.06827 1.00141
 H120 H 0.45393 1.00038 0.92908
 H121 H 0.54519 0.92438 0.99740
 H122 H 0.45470 0.99590 1.07062
 H123 H 0.51677 1.03094 0.89243
 H124 H 0.51488 0.97029 0.89058
 H125 H 0.48245 0.88867 0.96712
 H126 H 0.48142 0.88658 1.02688
 H127 H 0.51489 0.96312 1.10666
 H128 H 0.51651 1.02335 1.10840
 H129 H 0.48652 1.10647 1.03288
 H130 H 0.48653 1.10845 0.97310
 O131 O 0.05606 0.54951 -0.06501
 O132 O 0.02463 0.58840 -0.03165
 C133 C 0.04689 0.58139 -0.05616
 O134 O -0.06793 0.44868 -0.05736
 O135 O -0.03324 0.41081 -0.02588
 C136 C -0.05795 0.41709 -0.04814
 O137 O -0.06554 0.54856 -0.06234
 O138 O -0.03293 0.58796 -0.03061
 C139 C -0.05594 0.58056 -0.05425
 O140 O 0.05975 0.44966 -0.06044
 O141 O 0.02711 0.41141 -0.02715
 C142 C 0.05066 0.41795 -0.05056
 Zr143 Zr 0.04011 0.49972 -0.04437
 O144 O 0.03848 0.49510 -0.09923
 O145 O 0.09532 0.50402 -0.04587
 Zr146 Zr -0.04854 0.49902 -0.04200
 O147 O -0.05057 0.49439 -0.09682
 O148 O -0.10377 0.50254 -0.03972
 O149 O -0.00458 0.53076 -0.05059
 O150 O -0.00413 0.46861 -0.04899
 O151 O 0.06300 0.45202 0.06023
 O152 O 0.02831 0.41230 0.03125
 C153 C 0.05350 0.41993 0.05256
 O154 O -0.06213 0.54986 0.06545
 O155 O -0.03303 0.58872 0.02969
 C156 C -0.05417 0.58169 0.05529
 O157 O -0.06538 0.45066 0.06329
 O158 O -0.03133 0.41166 0.03272
 C159 C -0.05570 0.41881 0.05509
 O160 O 0.05919 0.55162 0.06143
 O161 O 0.02570 0.58936 0.02858
 C162 C 0.04925 0.58316 0.05203
 Zr163 Zr 0.04228 0.50126 0.04358
 O164 O 0.04310 0.49819 0.09859
 O165 O 0.09748 0.50568 0.04242
 Zr166 Zr -0.04619 0.50028 0.04576
 O167 O -0.04521 0.49681 0.10074
 O168 O -0.10144 0.50412 0.04669
 Zr169 Zr -0.00348 0.55264 -0.00021
 Zr170 Zr -0.00264 0.44744 0.00174
 O171 O -0.00154 0.47018 0.05164
 O172 O -0.00206 0.53243 0.05096
 O173 O 0.04829 0.46894 0.00005
 O174 O -0.05397 0.53043 0.00148
 O175 O 0.04732 0.53127 -0.00116
 O176 O -0.05393 0.46791 0.00264
 H177 H -0.00447 0.45231 -0.06913
 H178 H -0.07450 0.54642 0.00166
 H179 H -0.00095 0.45453 0.07239
 H180 H 0.06772 0.54748 -0.00195
 H181 H -0.11238 0.48181 -0.02640
 H182 H -0.11085 0.48400 0.03320
 H183 H -0.02961 0.51582 0.10921
 H184 H 0.03013 0.51888 0.10761
 H185 H 0.10643 0.48636 0.02760
 H186 H 0.10495 0.48438 -0.03172
 H187 H 0.02447 0.51513 -0.10827
 H188 H -0.03533 0.51310 -0.10667
 O189 O 1.06725 -0.05923 0.54839
 O190 O 1.03444 -0.02679 0.58675
 C191 C 1.05867 -0.04964 0.57973
 O192 O 1.06319 0.06749 0.45031
 O193 O 1.03106 0.03313 0.41305
 C194 C 1.05391 0.05763 0.41926
 O195 O 1.06777 0.06333 0.54837
 O196 O 1.03364 0.03202 0.58682
 C197 C 1.05846 0.05439 0.57975
 O198 O 1.06303 -0.06152 0.45018
 O199 O 1.03008 -0.02767 0.41289
 C200 C 1.05304 -0.05209 0.41916
 Zr201 Zr 1.04686 -0.04241 0.49957
 O202 O 1.10205 -0.04302 0.49509
 O203 O 1.04596 -0.09838 0.50321
 Zr204 Zr 1.04715 0.04735 0.49967
 O205 O 1.10233 0.04763 0.49495
 O206 O 1.04688 0.10326 0.50378
 O207 O 1.05424 0.00227 0.53048
 O208 O 1.05299 0.00265 0.46945
 O209 O 0.94110 -0.06157 0.45165
 O210 O 0.97196 -0.02649 0.41364
 C211 C 0.94949 -0.05129 0.42040
 O212 O 0.93991 0.06405 0.55056
 O213 O 0.97329 0.03060 0.58779
 C214 C 0.94919 0.05385 0.58156
 O215 O 0.94086 0.06724 0.45257
 O216 O 0.97284 0.03428 0.41392
 C217 C 0.94975 0.05828 0.42118
 O218 O 0.93816 -0.05806 0.54951
 O219 O 0.97388 -0.02836 0.58742
 C220 C 0.94827 -0.04986 0.58070
 Zr221 Zr 0.95842 -0.04222 0.50060
 O222 O 0.90320 -0.04365 0.49717
 O223 O 0.95972 -0.09816 0.50473
 Zr224 Zr 0.95866 0.04758 0.50115
 O225 O 0.90335 0.04811 0.49846
 O226 O 0.95965 0.10351 0.50490
 Zr227 Zr 1.00339 0.00216 0.55185
 Zr228 Zr 1.00203 0.00302 0.44876
 O229 O 0.95169 0.00296 0.47094
 O230 O 0.95205 0.00241 0.53187
 O231 O 1.00222 -0.04896 0.46902
 O232 O 1.00335 0.05365 0.53064
 O233 O 1.00296 -0.04900 0.53035
 O234 O 1.00248 0.05465 0.46939
 H235 H 1.07333 0.00269 0.45345
 H236 H 1.00357 0.07424 0.54653
 H237 H 0.93087 0.00308 0.45560
 H238 H 1.00310 -0.06973 0.54626
 H239 H 1.03287 0.11263 0.48418
 H240 H 0.97263 0.11270 0.48449
 H241 H 0.89442 0.03366 0.51808
 H242 H 0.89404 -0.02641 0.51418
 H243 H 0.97197 -0.10728 0.48393
 H244 H 1.03231 -0.10732 0.48323
 H245 H 1.11151 -0.02800 0.51388
 H246 H 1.11174 0.03242 0.51374
 C247 C 1.12267 0.12020 0.30088
 C248 C 1.14139 0.09918 0.27745
 C249 C 1.15767 0.11483 0.24884
 C250 C 1.15534 0.15167 0.24294
 C251 C 1.13637 0.17174 0.26754
 N252 N 1.12109 0.15578 0.29553
 C253 C 1.10442 0.10415 0.33095
 N254 N 1.10387 0.12124 0.36211
 C255 C 1.08799 0.10710 0.39074
 C256 C 1.07100 0.07416 0.38869
 C257 C 1.07073 0.05660 0.35657
 C258 C 1.08746 0.07138 0.32781
 H259 H 1.17059 0.09744 0.23061
 H260 H 1.13457 0.20024 0.26537
 H261 H 1.08850 0.12164 0.41495
 H262 H 1.05796 0.03114 0.35372
 H263 H 1.14350 0.07082 0.28118
 H264 H 1.08677 0.05746 0.30325
 C265 C 0.87966 -0.11595 0.30444
 C266 C 0.86054 -0.09575 0.28050
 C267 C 0.84411 -0.11235 0.25266
 C268 C 0.84673 -0.14932 0.24803
 C269 C 0.86600 -0.16853 0.27315
 N270 N 0.88142 -0.15166 0.30036
 C271 C 0.89797 -0.09905 0.33385
 N272 N 0.89949 -0.11591 0.36521
 C273 C 0.91564 -0.10128 0.39328
 C274 C 0.93194 -0.06803 0.39040
 C275 C 0.93120 -0.05063 0.35807
 C276 C 0.91418 -0.06593 0.32987
 H277 H 0.83081 -0.09561 0.23400
 H278 H 0.86801 -0.19706 0.27202
 H279 H 0.91594 -0.11573 0.41766
 H280 H 0.94348 -0.02497 0.35462
 H281 H 0.85819 -0.06732 0.28327
 H282 H 0.91413 -0.05217 0.30510
 C283 C 0.88042 0.11628 0.69918
 C284 C 0.86192 0.09582 0.72345
 C285 C 0.84549 0.11225 0.75137
 C286 C 0.84743 0.14932 0.75570
 C287 C 0.86640 0.16875 0.73047
 N288 N 0.88178 0.15204 0.70315
 C289 C 0.89821 0.09969 0.66932
 N290 N 0.89910 0.11688 0.63811
 C291 C 0.91482 0.10268 0.60962
 C292 C 0.93138 0.06958 0.61187
 C293 C 0.93117 0.05173 0.64396
 C294 C 0.91453 0.06658 0.67263
 H295 H 0.83256 0.09538 0.77024
 H296 H 0.86801 0.19732 0.73150
 H297 H 0.91475 0.11745 0.58542
 H298 H 0.94368 0.02615 0.64686
 H299 H 0.85991 0.06735 0.72080
 H300 H 0.91495 0.05255 0.69725
 C301 C 1.12944 -0.11412 0.69586
 C302 C 1.14228 -0.09481 0.72427
 C303 C 1.15741 -0.11268 0.75225
 C304 C 1.15992 -0.14975 0.75207
 C305 C 1.14748 -0.16805 0.72284
 N306 N 1.13284 -0.15003 0.69581
 C307 C 1.11186 -0.09643 0.66626
 N308 N 1.11338 -0.11134 0.63408
 C309 C 1.09714 -0.09674 0.60597
 C310 C 1.07744 -0.06559 0.60957
 C311 C 1.07536 -0.05000 0.64260
 C312 C 1.09250 -0.06524 0.67088
 H313 H 1.16648 -0.09756 0.77437
 H314 H 1.14936 -0.19662 0.72153
 H315 H 1.09921 -0.10977 0.58103
 H316 H 1.06042 -0.02600 0.64665
 H317 H 1.14084 -0.06620 0.72493
 H318 H 1.08981 -0.05311 0.69620
 C319 C 0.30574 1.12021 1.12167
 C320 C 0.30126 1.11859 1.15781
 C321 C 0.27181 1.13392 1.17292
 C322 C 0.24665 1.15148 1.15230
 C323 C 0.25259 1.15261 1.11603
 N324 N 0.28120 1.13681 1.10192
 C325 C 0.33603 1.10345 1.10453
 N326 N 0.33173 1.08812 1.07282
 C327 C 0.35843 1.07173 1.05592
 C328 C 0.39197 1.07062 1.07075
 C329 C 0.39708 1.08690 1.10311
 C330 C 0.36919 1.10314 1.12014
 H331 H 0.26973 1.13302 1.20098
 H332 H 0.23383 1.16451 1.09851
 H333 H 0.35344 1.05976 1.03088
 H334 H 0.42252 1.08671 1.11548
 H335 H 0.32004 1.10515 1.17426
 H336 H 0.37367 1.11571 1.14500
 C337 C 0.30197 0.87387 0.88384
 C338 C 0.27658 0.85498 0.90257
 C339 C 0.24897 0.83890 0.88490
 C340 C 0.24602 0.84188 0.84839
 C341 C 0.27273 0.86063 0.83075
 N342 N 0.29958 0.87561 0.84860
 C343 C 0.33142 0.89180 0.90136
 N344 N 0.36285 0.89404 0.88480
 C345 C 0.39092 0.91057 0.89918
 C346 C 0.38803 0.92677 0.93186
 C347 C 0.35571 0.92524 0.94917
 C348 C 0.32744 0.90762 0.93412
 H349 H 0.22914 0.82576 0.90037
 H350 H 0.27308 0.86265 0.80269
 H351 H 0.41531 0.91141 0.88486
 H352 H 0.35238 0.93737 0.97445
 H353 H 0.27802 0.85252 0.93060
 H354 H 0.30260 0.90707 0.94766
 C355 C 0.69892 0.88170 1.12275
 C356 C 0.72678 0.90273 1.13453
 C357 C 0.75521 0.88683 1.15092
 C358 C 0.75608 0.85001 1.15575
 C359 C 0.72751 0.82990 1.14403
 N360 N 0.69993 0.84604 1.12818
 C361 C 0.66874 0.89760 1.10443
 N362 N 0.63635 0.88281 1.10779
 C363 C 0.60766 0.89658 1.09167
 C364 C 0.61085 0.92675 1.07038
 C365 C 0.64416 0.94194 1.06624
 C366 C 0.67300 0.92753 1.08312
 H367 H 0.77675 0.90330 1.15946
 H368 H 0.72699 0.80146 1.14773
 H369 H 0.58253 0.88387 1.09535
 H370 H 0.64804 0.96515 1.05001
 H371 H 0.72655 0.93124 1.13146
 H372 H 0.69844 0.93945 1.07900
 C373 C 0.70002 1.11462 0.87893
 C374 C 0.72458 1.09463 0.86052
 C375 C 0.75251 1.11156 0.84420
 C376 C 0.75655 1.14868 0.84611
 C377 C 0.73107 1.16763 0.86504
 N378 N 0.70373 1.15042 0.88034
 C379 C 0.67008 1.09745 0.89648
 N380 N 0.63856 1.11418 0.89733
 C381 C 0.60994 1.09935 0.91268
 C382 C 0.61236 1.06600 0.92882
 C383 C 0.64477 1.04862 0.92867
 C384 C 0.67358 1.06415 0.91246
 H385 H 0.77161 1.09502 0.83135
 H386 H 0.73191 1.19620 0.86670
 H387 H 0.58550 1.11380 0.91260
 H388 H 0.64784 1.02291 0.94092
 H389 H 0.72216 1.06614 0.85846
 H390 H 0.69845 1.05047 0.91292
 C391 C 0.12462 0.30359 0.11906
 C392 C 0.16098 0.30259 0.12423
 C393 C 0.17609 0.27302 0.14005
 C394 C 0.15513 0.24449 0.15085
 C395 C 0.11893 0.24646 0.14515
 N396 N 0.10481 0.27543 0.12941
 C397 C 0.10732 0.33409 0.10199
 N398 N 0.07717 0.32864 0.08395
 C399 C 0.05977 0.35542 0.06773
 C400 C 0.07241 0.39033 0.06954
 C401 C 0.10327 0.39656 0.08832
 C402 C 0.12078 0.36860 0.10450
 H403 H 0.20413 0.27249 0.14400
 H404 H 0.10196 0.22476 0.15268
 H405 H 0.03597 0.34939 0.05373
 H406 H 0.11393 0.42304 0.09058
 H407 H 0.17774 0.32401 0.11558
 H408 H 0.14416 0.37420 0.11935
 C409 C -0.12097 0.29881 -0.11856
 C410 C -0.10079 0.27031 -0.13056
 C411 C -0.11692 0.24267 -0.14835
 C412 C -0.15311 0.24323 -0.15428
 C413 C -0.17233 0.27242 -0.14231
 N414 N -0.15598 0.29922 -0.12516
 C415 C -0.10490 0.32852 -0.09930
 N416 N -0.11871 0.36162 -0.10239
 C417 C -0.10461 0.39015 -0.08599
 C418 C -0.07492 0.38618 -0.06479
 C419 C -0.06092 0.35207 -0.06055
 C420 C -0.07574 0.32330 -0.07772
 H421 H -0.10118 0.22051 -0.15690
 H422 H -0.20026 0.27394 -0.14666
 H423 H -0.11648 0.41589 -0.08975
 H424 H -0.03822 0.34760 -0.04429
 H425 H -0.07278 0.26944 -0.12660
 H426 H -0.06462 0.29724 -0.07381
 C427 C 0.11260 0.69870 -0.12681
 C428 C 0.09437 0.72908 -0.13761
 C429 C 0.11256 0.75688 -0.15341
 C430 C 0.14885 0.75463 -0.15825
 C431 C 0.16602 0.72359 -0.14762
 N432 N 0.14770 0.69669 -0.13252
 C433 C 0.09461 0.66902 -0.10906
 N434 N 0.10626 0.63532 -0.11388
 C435 C 0.09123 0.60696 -0.09776
 C436 C 0.06310 0.61178 -0.07469
 C437 C 0.05114 0.64643 -0.06899
 C438 C 0.06659 0.67498 -0.08624
 H439 H 0.09841 0.78045 -0.16122
 H440 H 0.19395 0.72074 -0.15133
 H441 H 0.10159 0.58079 -0.10268
 H442 H 0.03001 0.65159 -0.05096
 H443 H 0.06636 0.73128 -0.13411
 H444 H 0.05729 0.70150 -0.08099
 C445 C -0.11877 0.69796 0.12747
 C446 C -0.12365 0.69858 0.16372
 C447 C -0.14001 0.72761 0.17908
 C448 C -0.15161 0.75601 0.15851
 C449 C -0.14591 0.75455 0.12243
 N450 N -0.12974 0.72607 0.10806
 C451 C -0.10187 0.66767 0.10986
 N452 N -0.08437 0.67321 0.07940
 C453 C -0.06865 0.64644 0.06166
 C454 C -0.07050 0.61150 0.07425
 C455 C -0.08870 0.60525 0.10545
 C456 C -0.10434 0.63313 0.12326
 H457 H -0.14383 0.72776 0.20700
 H458 H -0.15386 0.77623 0.10573
 H459 H -0.05508 0.65245 0.03762
 H460 H -0.09096 0.57877 0.11616
 H461 H -0.11450 0.67722 0.18019
 H462 H -0.11883 0.62742 0.14682
 C463 C 1.12736 0.11951 0.69631
 C464 C 1.16345 0.12637 0.69790
 C465 C 1.17755 0.14196 0.72763
 C466 C 1.15583 0.15087 0.75570
 C467 C 1.11995 0.14339 0.75314
 N468 N 1.10686 0.12794 0.72405
 C469 C 1.11094 0.10267 0.66569
 N470 N 1.08105 0.08356 0.67026
 C471 C 1.06414 0.06771 0.64341
 C472 C 1.07699 0.07105 0.60929
 C473 C 1.10762 0.09090 0.60393
 C474 C 1.12468 0.10667 0.63199
 H475 H 1.20537 0.14732 0.72859
 H476 H 1.10241 0.14934 0.77445
 H477 H 1.04049 0.05285 0.64878
 H478 H 1.11840 0.09431 0.57806
 H479 H 1.18078 0.11925 0.67679
 H480 H 1.14785 0.12242 0.62711
 C481 C 0.87583 -0.11380 0.69624
 C482 C 0.83946 -0.11249 0.70062
 C483 C 0.82404 -0.12953 0.72906
 C484 C 0.84461 -0.14848 0.75325
 C485 C 0.88119 -0.14852 0.74783
 N486 N 0.89552 -0.13129 0.72016
 C487 C 0.89336 -0.09667 0.66628
 N488 N 0.92620 -0.08324 0.67030
 C489 C 0.94407 -0.06783 0.64359
 C490 C 0.92916 -0.06600 0.61026
 C491 C 0.89547 -0.08000 0.60552
 C492 C 0.87746 -0.09516 0.63343
 H493 H 0.79581 -0.12895 0.73099
 H494 H 0.89876 -0.16108 0.76612
 H495 H 0.97007 -0.05753 0.64831
 H496 H 0.88296 -0.07913 0.58027
 H497 H 0.82301 -0.09828 0.68241
 H498 H 0.85175 -0.10632 0.62907
 C499 C 1.11641 -0.12044 0.30168
 C500 C 1.09662 -0.13812 0.27654
 C501 C 1.11339 -0.15431 0.24866
 C502 C 1.15015 -0.15291 0.24524
 C503 C 1.16891 -0.13483 0.27138
 N504 N 1.15185 -0.11968 0.29860
 C505 C 1.09949 -0.10286 0.33150
 N506 N 1.11572 -0.10282 0.36301
 C507 C 1.10127 -0.08724 0.39146
 C508 C 1.06888 -0.06994 0.38888
 C509 C 1.05200 -0.06927 0.35649
 C510 C 1.06710 -0.08579 0.32785
 H511 H 1.09705 -0.16650 0.22912
 H512 H 1.19717 -0.13373 0.27110
 H513 H 1.11531 -0.08799 0.41589
 H514 H 1.02702 -0.05613 0.35331
 H515 H 1.06840 -0.13969 0.27844
 H516 H 1.05385 -0.08464 0.30299
 C517 C 0.87891 0.12079 0.30454
 C518 C 0.84267 0.11783 0.30001
 C519 C 0.82714 0.13189 0.27018
 C520 C 0.84745 0.14957 0.24481
 C521 C 0.88386 0.15176 0.25067
 N522 N 0.89837 0.13721 0.27964
 C523 C 0.89661 0.10558 0.33522
 N524 N 0.92912 0.09142 0.33144
 C525 C 0.94668 0.07649 0.35850
 C526 C 0.93169 0.07574 0.39185
 C527 C 0.89856 0.09097 0.39647
 C528 C 0.88086 0.10572 0.36821
 H529 H 0.79899 0.12997 0.26794
 H530 H 0.90123 0.16363 0.23169
 H531 H 0.97234 0.06530 0.35392
 H532 H 0.88606 0.09092 0.42177
 H533 H 0.82649 0.10436 0.31906
 H534 H 0.85535 0.11743 0.37222
 C535 C 0.11455 0.29839 -0.11777
 C536 C 0.09497 0.26924 -0.12943
 C537 C 0.11195 0.24101 -0.14547
 C538 C 0.14836 0.24163 -0.14988
 C539 C 0.16694 0.27144 -0.13828
 N540 N 0.14979 0.29877 -0.12289
 C541 C 0.09771 0.32866 -0.10018
 N542 N 0.11166 0.36172 -0.10374
 C543 C 0.09729 0.39063 -0.08825
 C544 C 0.06730 0.38703 -0.06737
 C545 C 0.05297 0.35303 -0.06291
 C546 C 0.06798 0.32393 -0.07924
 H547 H 0.09669 0.21849 -0.15403
 H548 H 0.19500 0.27313 -0.14171
 H549 H 0.10936 0.41629 -0.09216
 H550 H 0.02997 0.34886 -0.04693
 H551 H 0.06682 0.26836 -0.12659
 H552 H 0.05671 0.29795 -0.07499
 C553 C -0.12376 0.30063 0.12104
 C554 C -0.15991 0.29508 0.11894
 C555 C -0.17462 0.26507 0.13430
 C556 C -0.15357 0.24043 0.15235
 C557 C -0.11729 0.24737 0.15381
 N558 N -0.10357 0.27653 0.13802
 C559 C -0.10698 0.33157 0.10444
 N560 N -0.07455 0.32796 0.09026
 C561 C -0.05777 0.35532 0.07428
 C562 C -0.07352 0.38885 0.07243
 C563 C -0.10669 0.39328 0.08744
 C564 C -0.12357 0.36469 0.10328
 H565 H -0.20274 0.26215 0.13300
 H566 H -0.09943 0.22900 0.16609
 H567 H -0.03206 0.35090 0.06332
 H568 H -0.11973 0.41872 0.08663
 H569 H -0.17666 0.31347 0.10514
 H570 H -0.14905 0.36863 0.11495
 C571 C -0.11847 0.69729 -0.12782
 C572 C -0.09855 0.72315 -0.14502
 C573 C -0.11525 0.75153 -0.16126
 C574 C -0.15201 0.75480 -0.16016
 C575 C -0.17088 0.72760 -0.14306
 N576 N -0.15391 0.69997 -0.12783
 C577 C -0.10169 0.66754 -0.10922
 N578 N -0.11720 0.63504 -0.10911
 C579 C -0.10307 0.60680 -0.09208
 C580 C -0.07188 0.61069 -0.07317
 C581 C -0.05593 0.64419 -0.07250
 C582 C -0.07055 0.67252 -0.09064
 H583 H -0.09893 0.77172 -0.17304
 H584 H -0.19916 0.72754 -0.14251
 H585 H -0.11641 0.58151 -0.09299
 H586 H -0.03207 0.64853 -0.05804
 H587 H -0.07029 0.72152 -0.14589
 H588 H -0.05801 0.69822 -0.08947
 C589 C 0.11523 0.70264 0.11737
 C590 C 0.09625 0.73242 0.12822
 C591 C 0.11349 0.75995 0.14505
 C592 C 0.14959 0.75801 0.15120
 C593 C 0.16771 0.72787 0.13990
 N594 N 0.15026 0.70115 0.12374
 C595 C 0.09783 0.67253 0.10003
 N596 N 0.11104 0.63930 0.10421
 C597 C 0.09598 0.61040 0.08940
 C598 C 0.06593 0.61412 0.06869
 C599 C 0.05224 0.64825 0.06366
 C600 C 0.06806 0.67741 0.07921
 H601 H 0.09860 0.78286 0.15321
 H602 H 0.19553 0.72528 0.14448
 H603 H 0.10763 0.58463 0.09367
 H604 H 0.02925 0.65248 0.04774
 H605 H 0.06826 0.73424 0.12447
 H606 H 0.05733 0.70349 0.07447
 C607 C 0.30572 1.12434 0.88064
 C608 C 0.30581 1.13139 0.84471
 C609 C 0.27623 1.14614 0.82916
 C610 C 0.24670 1.15414 0.84929
 C611 C 0.24766 1.14676 0.88510
 N612 N 0.27662 1.13197 0.89962
 C613 C 0.33600 1.10776 0.89814
 N614 N 0.33042 1.08628 0.92615
 C615 C 0.35701 1.06962 0.94306
 C616 C 0.39176 1.07443 0.93206
 C617 C 0.39809 1.09712 0.90369
 C618 C 0.37038 1.11373 0.88667
 H619 H 0.27645 1.15143 0.80144
 H620 H 0.22517 1.15208 0.90139
 H621 H 0.35090 1.05253 0.96491
 H622 H 0.42444 1.10179 0.89434
 H623 H 0.32810 1.12486 0.82861
 H624 H 0.37592 1.13133 0.86506
 C625 C 0.30153 0.88020 1.12245
 C626 C 0.27410 0.90099 1.13552
 C627 C 0.24626 0.88476 1.15279
 C628 C 0.24556 0.84787 1.15716
 C629 C 0.27384 0.82806 1.14437
 N630 N 0.30081 0.84450 1.12769
 C631 C 0.33106 0.89631 1.10313
 N632 N 0.36340 0.88135 1.10514
 C633 C 0.39167 0.89530 1.08838
 C634 C 0.38816 0.92600 1.06787
 C635 C 0.35481 0.94124 1.06479
 C636 C 0.32633 0.92657 1.08233
 H637 H 0.22486 0.90100 1.16199
 H638 H 0.27441 0.79956 1.14755
 H639 H 0.41682 0.88248 1.09122
 H640 H 0.35071 0.96480 1.04914
 H641 H 0.27415 0.92952 1.13262
 H642 H 0.30085 0.93863 1.07925
 C643 C 0.70111 1.11103 1.12042
 C644 C 0.73016 1.12183 1.10066
 C645 C 0.75782 1.13916 1.11685
 C646 C 0.75674 1.14582 1.15269
 C647 C 0.72721 1.13477 1.17158
 N648 N 0.70033 1.11810 1.15514
 C649 C 0.67115 1.09285 1.10404
 N650 N 0.63828 1.09812 1.11670
 C651 C 0.60957 1.08309 1.10190
 C652 C 0.61313 1.06122 1.07262
 C653 C 0.64695 1.05473 1.05985
 C654 C 0.67589 1.07041 1.07544
 H655 H 0.78026 1.14708 1.10141
 H656 H 0.72535 1.13973 1.19923
 H657 H 0.58404 1.08850 1.11285
 H658 H 0.65112 1.03781 1.03755
 H659 H 0.73134 1.11751 1.07287
 H660 H 0.70169 1.06477 1.06527
 C661 C 0.69608 0.87555 0.87755
 C662 C 0.72439 0.86253 0.89699
 C663 C 0.75229 0.84637 0.88001
 C664 C 0.75215 0.84296 0.84369
 C665 C 0.72304 0.85566 0.82521
 N666 N 0.69602 0.87132 0.84237
 C667 C 0.66660 0.89398 0.89462
 N668 N 0.63377 0.89130 0.88112
 C669 C 0.60564 0.90733 0.89609
 C670 C 0.60986 0.92774 0.92629
 C671 C 0.64368 0.93140 0.94006
 C672 C 0.67197 0.91464 0.92439
 H673 H 0.77433 0.83721 0.89524
 H674 H 0.72182 0.85319 0.79719
 H675 H 0.58010 0.90409 0.88440
 H676 H 0.64837 0.94703 0.96316
 H677 H 0.72500 0.86464 0.92505
 H678 H 0.69781 0.91827 0.93529
   
