data_POSCAR
  _audit_creation_date              2014-09-24
  _audit_creation_method            'ToBaCCo'
  _symmetry_space_group_name_H-M    'P1'
  _symmetry_Int_Tables_number       1
  _symmetry_cell_setting            triclinic
  loop_
  _symmetry_equiv_pos_as_xyz
 x,y,z
_cell_length_a 29.6763
_cell_length_b 29.5783
_cell_length_c 38.0510
_cell_angle_alpha 88.943400
_cell_angle_beta 90.878200
_cell_angle_gamma 89.731600
loop_
  _atom_site_label
  _atom_site_type_symbol
  _atom_site_fract_x
  _atom_site_fract_y
  _atom_site_fract_z
O1 O -0.03828 0.45452 1.03257
 O2 O -0.03732 0.54275 0.96388
 O3 O -0.03391 0.45455 0.96438
 O4 O -0.03712 0.54269 1.03211
 O5 O 0.03717 0.54179 1.03477
 O6 O 0.04035 0.45657 0.96624
 O7 O 0.03685 0.54487 0.96653
 O8 O 0.03602 0.45362 1.03449
 Cu9 Cu -0.04406 0.49854 0.99799
 Cu10 Cu 0.04501 0.49923 1.00070
 C11 C -0.00158 0.43855 1.04512
 C12 C -0.00040 0.55963 0.95369
 C13 C 0.00404 0.44047 0.95381
 C14 C -0.00025 0.55734 1.04494
 O15 O 0.45561 0.03971 0.53160
 O16 O 0.54181 0.03859 0.46368
 O17 O 0.45386 0.03538 0.46340
 O18 O 0.54355 0.03887 0.53192
 O19 O 0.54363 -0.03567 0.53484
 O20 O 0.45656 -0.03914 0.46566
 O21 O 0.54451 -0.03584 0.46665
 O22 O 0.45576 -0.03484 0.53384
 Cu23 Cu 0.49854 0.04558 0.49738
 Cu24 Cu 0.50022 -0.04381 0.50048
 C25 C 0.44052 0.00285 0.54416
 C26 C 0.55860 0.00145 0.45379
 C27 C 0.43983 -0.00273 0.45292
 C28 C 0.55899 0.00193 0.54500
 C29 C -0.06267 0.00410 0.26793
 C30 C -0.02143 0.01281 0.25178
 C31 C -0.01359 0.05534 0.23635
 C32 C -0.04692 0.08920 0.23651
 C33 C -0.08794 0.08024 0.25328
 C34 C -0.09603 0.03784 0.26925
 C35 C 0.01342 -0.02279 0.25066
 C36 C 0.00395 -0.06399 0.23464
 C37 C 0.03708 -0.09792 0.23302
 C38 C 0.07963 -0.09047 0.24862
 C39 C 0.08935 -0.04947 0.26524
 C40 C 0.05609 -0.01556 0.26570
 H41 H -0.06861 -0.02901 0.27958
 H42 H 0.01797 0.06138 0.22313
 H43 H -0.02923 -0.06942 0.22324
 H44 H 0.06275 0.01602 0.27875
 H45 H -0.11319 0.10669 0.25459
 H46 H 0.10562 -0.11615 0.24705
 C47 C -0.00632 -0.05507 0.76655
 C48 C -0.01377 -0.01256 0.75063
 C49 C -0.05563 -0.00254 0.73478
 C50 C -0.09000 -0.03499 0.73416
 C51 C -0.08229 -0.07735 0.75061
 C52 C -0.04064 -0.08760 0.76712
 C53 C 0.02230 0.02152 0.75043
 C54 C 0.06344 0.01211 0.73450
 C55 C 0.09768 0.04470 0.73337
 C56 C 0.09064 0.08654 0.74945
 C57 C 0.04970 0.09617 0.76600
 C58 C 0.01548 0.06352 0.76594
 H59 H 0.02583 -0.06216 0.77943
 H60 H -0.06118 0.03051 0.72267
 H61 H 0.06850 -0.02056 0.72270
 H62 H -0.01610 0.07012 0.77887
 H63 H -0.10832 -0.10287 0.74977
 H64 H 0.11655 0.11217 0.74824
 C65 C 0.00134 -0.33377 0.11802
 C66 C -0.03966 -0.34807 0.10340
 C67 C -0.04057 -0.38433 0.08023
 C68 C -0.00036 -0.40648 0.07133
 C69 C 0.04048 -0.39236 0.08679
 C70 C 0.04126 -0.35630 0.10992
 C71 C 0.00328 -0.29461 0.13986
 C72 C 0.00652 -0.26124 0.15743
 C73 C 0.01193 -0.22080 0.17750
 C74 C -0.00423 -0.17945 0.16390
 C75 C 0.00348 -0.13961 0.18217
 C76 C 0.02757 -0.14057 0.21433
 C77 C 0.04321 -0.18240 0.22801
 C78 C 0.03545 -0.22224 0.20967
 H79 H -0.07077 -0.33073 0.10940
 H80 H -0.07251 -0.39434 0.06873
 H81 H 0.07203 -0.40870 0.08058
 H82 H 0.07319 -0.34544 0.12101
 H83 H -0.02211 -0.17789 0.13886
 H84 H -0.00842 -0.10790 0.17069
 H85 H 0.06139 -0.18429 0.25289
 H86 H 0.04825 -0.25406 0.22037
 C87 C -0.00804 0.32790 0.11952
 C88 C 0.03385 0.34237 0.10725
 C89 C 0.03632 0.37909 0.08357
 C90 C -0.00319 0.40154 0.07182
 C91 C -0.04496 0.38716 0.08488
 C92 C -0.04731 0.35065 0.10852
 C93 C -0.01158 0.28847 0.14201
 C94 C -0.01648 0.25497 0.16006
 C95 C -0.02424 0.21450 0.18060
 C96 C 0.01047 0.19486 0.20108
 C97 C 0.00297 0.15450 0.21981
 C98 C -0.03938 0.13327 0.21822
 C99 C -0.07416 0.15367 0.19793
 C100 C -0.06660 0.19397 0.17927
 H101 H 0.06447 0.32485 0.11552
 H102 H 0.06896 0.38931 0.07397
 H103 H -0.07602 0.40372 0.07648
 H104 H -0.07991 0.33968 0.11776
 H105 H 0.04338 0.21050 0.20234
 H106 H 0.03026 0.13990 0.23552
 H107 H -0.10690 0.13787 0.19574
 H108 H -0.09365 0.20878 0.16338
 C109 C 0.33210 0.00823 0.61746
 C110 C 0.34764 -0.03366 0.60593
 C111 C 0.38363 -0.03569 0.58262
 C112 C 0.40431 0.00425 0.57048
 C113 C 0.38890 0.04607 0.58279
 C114 C 0.35307 0.04799 0.60607
 C115 C 0.29331 0.01100 0.63957
 C116 C 0.26018 0.01463 0.65727
 C117 C 0.21991 0.02018 0.67737
 C118 C 0.17851 0.00580 0.66366
 C119 C 0.13888 0.01335 0.68206
 C120 C 0.14010 0.03548 0.71449
 C121 C 0.18197 0.04942 0.72826
 C122 C 0.22161 0.04182 0.70977
 H123 H 0.33150 -0.06466 0.61449
 H124 H 0.39466 -0.06838 0.57360
 H125 H 0.40409 0.07745 0.57404
 H126 H 0.34124 0.08059 0.61475
 H127 H 0.17675 -0.01062 0.63846
 H128 H 0.10715 0.00284 0.67049
 H129 H 0.18405 0.06608 0.75333
 H130 H 0.25349 0.05322 0.72057
 C131 C -0.33004 0.00087 0.61875
 C132 C -0.35226 -0.03929 0.61069
 C133 C -0.38901 -0.03867 0.58735
 C134 C -0.40413 0.00222 0.57165
 C135 C -0.38228 0.04266 0.58054
 C136 C -0.34535 0.04193 0.60392
 C137 C -0.29017 -0.00089 0.64075
 C138 C -0.25618 -0.00398 0.65841
 C139 C -0.21499 -0.00926 0.67854
 C140 C -0.21505 -0.03163 0.71128
 C141 C -0.17451 -0.03948 0.72968
 C142 C -0.13336 -0.02510 0.71549
 C143 C -0.13378 -0.00209 0.68277
 C144 C -0.17432 0.00572 0.66445
 H145 H -0.34063 -0.07126 0.62194
 H146 H -0.40509 -0.07040 0.58115
 H147 H -0.39306 0.07465 0.56886
 H148 H -0.32826 0.07321 0.60989
 H149 H -0.24635 -0.04351 0.72237
 H150 H -0.17533 -0.05680 0.75498
 H151 H -0.10264 0.00882 0.67089
 H152 H -0.17383 0.02269 0.63898
 C153 C -0.00449 -0.32957 0.88199
 C154 C -0.04422 -0.35124 0.89176
 C155 C -0.04271 -0.38842 0.91484
 C156 C -0.00123 -0.40468 0.92874
 C157 C 0.03878 -0.38327 0.91798
 C158 C 0.03708 -0.34586 0.89485
 C159 C -0.00721 -0.28936 0.86016
 C160 C -0.01157 -0.25518 0.84266
 C161 C -0.01886 -0.21392 0.82270
 C162 C -0.06034 -0.19149 0.82464
 C163 C -0.06757 -0.15075 0.80623
 C164 C -0.03332 -0.13179 0.78557
 C165 C 0.00818 -0.15481 0.78350
 C166 C 0.01534 -0.19563 0.80197
 H167 H -0.07658 -0.33887 0.88200
 H168 H -0.07430 -0.40386 0.92221
 H169 H 0.07134 -0.39471 0.92796
 H170 H 0.06807 -0.32922 0.88748
 H171 H -0.08698 -0.20527 0.84072
 H172 H -0.09962 -0.13357 0.80879
 H173 H 0.03501 -0.14134 0.76749
 H174 H 0.04756 -0.21275 0.80024
 C175 C 0.01270 0.33211 0.88060
 C176 C -0.02949 0.34609 0.89247
 C177 C -0.03264 0.38212 0.91571
 C178 C 0.00646 0.40438 0.92742
 C179 C 0.04855 0.39055 0.91474
 C180 C 0.05159 0.35470 0.89154
 C181 C 0.01680 0.29330 0.85858
 C182 C 0.02175 0.26026 0.84093
 C183 C 0.02906 0.22025 0.82079
 C184 C -0.00572 0.20248 0.80007
 C185 C 0.00115 0.16252 0.78174
 C186 C 0.04293 0.13980 0.78396
 C187 C 0.07784 0.15834 0.80446
 C188 C 0.07090 0.19825 0.82274
 H189 H -0.05981 0.32871 0.88424
 H190 H -0.06551 0.39191 0.92503
 H191 H 0.07931 0.40697 0.92316
 H192 H 0.08441 0.34409 0.88260
 H193 H -0.03822 0.21927 0.79833
 H194 H -0.02620 0.14941 0.76582
 H195 H 0.11016 0.14136 0.80709
 H196 H 0.09800 0.21162 0.83882
 C197 C -0.33309 0.00434 0.38300
 C198 C -0.34902 -0.03714 0.39587
 C199 C -0.38558 -0.03840 0.41871
 C200 C -0.40655 0.00200 0.42915
 C201 C -0.39069 0.04343 0.41527
 C202 C -0.35430 0.04449 0.39247
 C203 C -0.29370 0.00634 0.36144
 C204 C -0.26014 0.00944 0.34412
 C205 C -0.21946 0.01451 0.32434
 C206 C -0.17859 -0.00204 0.33827
 C207 C -0.13856 0.00512 0.32017
 C208 C -0.13885 0.02905 0.28785
 C209 C -0.18020 0.04513 0.27385
 C210 C -0.22023 0.03791 0.29202
 H211 H -0.33274 -0.06845 0.38874
 H212 H -0.39672 -0.07094 0.42868
 H213 H -0.40583 0.07529 0.42243
 H214 H -0.34220 0.07679 0.38269
 H215 H -0.17755 -0.01986 0.36341
 H216 H -0.10722 -0.00712 0.33188
 H217 H -0.18158 0.06318 0.24884
 H218 H -0.25168 0.05100 0.28105
 C219 C 0.32939 -0.01152 0.37915
 C220 C 0.35267 -0.05053 0.39032
 C221 C 0.38920 -0.04745 0.41369
 C222 C 0.40304 -0.00520 0.42629
 C223 C 0.38009 0.03403 0.41431
 C224 C 0.34338 0.03083 0.39092
 C225 C 0.28986 -0.01567 0.35708
 C226 C 0.25623 -0.02070 0.33943
 C227 C 0.21552 -0.02818 0.31937
 C228 C 0.19457 -0.07044 0.32114
 C229 C 0.15398 -0.07757 0.30305
 C230 C 0.13369 -0.04245 0.28292
 C231 C 0.15536 -0.00025 0.28087
 C232 C 0.19600 0.00682 0.29902
 H233 H 0.34206 -0.08348 0.38146
 H234 H 0.40615 -0.07830 0.42230
 H235 H 0.38986 0.06701 0.42357
 H236 H 0.32546 0.06124 0.38252
 H237 H 0.20929 -0.09771 0.33696
 H238 H 0.13787 -0.11022 0.30556
 H239 H 0.14086 0.02729 0.26525
 H240 H 0.21195 0.03965 0.29744
   
