data_POSCAR
  _audit_creation_date              2014-09-24
  _audit_creation_method            'ToBaCCo'
  _symmetry_space_group_name_H-M    'P1'
  _symmetry_Int_Tables_number       1
  _symmetry_cell_setting            triclinic
  loop_
  _symmetry_equiv_pos_as_xyz
 x,y,z
_cell_length_a 30.8156
_cell_length_b 30.9240
_cell_length_c 30.7114
_cell_angle_alpha 89.983200
_cell_angle_beta 90.015600
_cell_angle_gamma 89.917500
loop_
  _atom_site_label
  _atom_site_type_symbol
  _atom_site_fract_x
  _atom_site_fract_y
  _atom_site_fract_z
C1 C 0.19992 0.14504 0.19786
 C2 C 0.17769 0.12480 0.23215
 C3 C 0.14035 0.14384 0.25069
 C4 C 0.12459 0.18282 0.23278
 C5 C 0.14616 0.20298 0.19807
 C6 C 0.18467 0.18474 0.18136
 C7 C 0.23706 0.12597 0.17970
 C8 C 0.26034 0.14670 0.14610
 C9 C 0.24568 0.18731 0.13106
 C10 C 0.20756 0.20592 0.14773
 C11 C 0.19114 0.24470 0.13037
 C12 C 0.15148 0.26148 0.14525
 C13 C 0.12945 0.24084 0.17937
 H14 H 0.19014 0.09449 0.24480
 H15 H 0.09540 0.19766 0.24566
 H16 H 0.24800 0.09505 0.19226
 H17 H 0.26282 0.20379 0.10509
 H18 H 0.20799 0.26064 0.10387
 H19 H 0.09907 0.25421 0.19112
 C20 C -0.20032 0.85405 0.20530
 C21 C -0.18357 0.87073 0.24428
 C22 C -0.14739 0.85141 0.26472
 C23 C -0.12962 0.81348 0.24638
 C24 C -0.14562 0.79689 0.20702
 C25 C -0.18047 0.81784 0.18587
 C26 C -0.23624 0.87354 0.18516
 C27 C -0.25177 0.85850 0.14470
 C28 C -0.23023 0.82352 0.12455
 C29 C -0.19522 0.80279 0.14512
 C30 C -0.17472 0.76716 0.12562
 C31 C -0.14081 0.74553 0.14709
 C32 C -0.12666 0.76023 0.18791
 H33 H -0.19852 0.89930 0.25824
 H34 H -0.10222 0.79758 0.26174
 H35 H -0.25157 0.90100 0.20086
 H36 H -0.24130 0.81146 0.09333
 H37 H -0.18566 0.75565 0.09413
 H38 H -0.10002 0.74386 0.20410
 C39 C -0.20670 0.14701 -0.20300
 C40 C -0.18606 0.12903 -0.23948
 C41 C -0.14594 0.14514 -0.25365
 C42 C -0.12644 0.17965 -0.23141
 C43 C -0.14752 0.19909 -0.19597
 C44 C -0.18791 0.18282 -0.18176
 C45 C -0.24530 0.12914 -0.18694
 C46 C -0.26566 0.14650 -0.14969
 C47 C -0.24792 0.18397 -0.13038
 C48 C -0.20926 0.20210 -0.14607
 C49 C -0.19102 0.23862 -0.12600
 C50 C -0.15078 0.25468 -0.13993
 C51 C -0.12890 0.23448 -0.17446
 H52 H -0.20060 0.10181 -0.25626
 H53 H -0.09537 0.19195 -0.24239
 H54 H -0.25873 0.10095 -0.20298
 H55 H -0.26337 0.19852 -0.10225
 H56 H -0.20742 0.25384 -0.09877
 H57 H -0.09777 0.24693 -0.18509
 C58 C 0.20034 0.85545 -0.19877
 C59 C 0.18169 0.87744 -0.23416
 C60 C 0.14584 0.85989 -0.25661
 C61 C 0.12770 0.82079 -0.24151
 C62 C 0.14542 0.79907 -0.20564
 C63 C 0.18270 0.81567 -0.18499
 C64 C 0.23627 0.87266 -0.17676
 C65 C 0.25569 0.84981 -0.14236
 C66 C 0.23898 0.80957 -0.12966
 C67 C 0.20196 0.79274 -0.15015
 C68 C 0.18310 0.75404 -0.13564
 C69 C 0.14453 0.73897 -0.15457
 C70 C 0.12607 0.76125 -0.18973
 H71 H 0.19584 0.90778 -0.24467
 H72 H 0.09943 0.80715 -0.25738
 H73 H 0.24952 0.90361 -0.18663
 H74 H 0.25382 0.79226 -0.10279
 H75 H 0.19718 0.73670 -0.10837
 H76 H 0.09653 0.74911 -0.20451
 C77 C 0.14923 1.20406 0.79634
 C78 C 0.13336 1.18688 0.75714
 C79 C 0.14939 1.14735 0.74068
 C80 C 0.18269 1.12590 0.76372
 C81 C 0.19976 1.14343 0.80216
 C82 C 0.18273 1.18245 0.81876
 C83 C 0.13143 1.24207 0.81388
 C84 C 0.14569 1.25816 0.85443
 C85 C 0.18015 1.23690 0.87582
 C86 C 0.19912 1.19973 0.85795
 C87 C 0.23407 1.17932 0.87884
 C88 C 0.25146 1.14093 0.86200
 C89 C 0.23368 1.12255 0.82429
 H90 H 0.10754 1.20384 0.74026
 H91 H 0.19584 1.09566 0.75165
 H92 H 0.10524 1.25805 0.79660
 H93 H 0.19247 1.24920 0.90648
 H94 H 0.24751 1.19295 0.90845
 H95 H 0.24717 1.09270 0.81158
 C96 C 0.85798 0.80142 0.79975
 C97 C 0.87971 0.82359 0.76633
 C98 C 0.86198 0.86159 0.74802
 C99 C 0.82291 0.87802 0.76527
 C100 C 0.80117 0.85638 0.79886
 C101 C 0.81806 0.81729 0.81537
 C102 C 0.87573 0.76370 0.81788
 C103 C 0.85345 0.74052 0.85054
 C104 C 0.81257 0.75578 0.86452
 C105 C 0.79524 0.79441 0.84788
 C106 C 0.75611 0.81129 0.86415
 C107 C 0.74057 0.85139 0.84935
 C108 C 0.76295 0.87353 0.81650
 H109 H 0.91010 0.81066 0.75420
 H110 H 0.80903 0.90769 0.75255
 H111 H 0.90686 0.75227 0.80608
 H112 H 0.79487 0.73869 0.88969
 H113 H 0.73883 0.79436 0.88974
 H114 H 0.75056 0.90426 0.80480
 C115 C 0.14158 0.79921 1.19702
 C116 C 0.12033 0.81987 1.23172
 C117 C 0.14043 0.85412 1.25384
 C118 C 0.18098 0.86921 1.23988
 C119 C 0.20186 0.84992 1.20430
 C120 C 0.18282 0.81384 1.18367
 C121 C 0.12226 0.76420 1.17551
 C122 C 0.14421 0.74229 1.14173
 C123 C 0.18588 0.75668 1.12935
 C124 C 0.20481 0.79282 1.14937
 C125 C 0.24478 0.80911 1.13479
 C126 C 0.26212 0.84682 1.15328
 C127 C 0.24101 0.86662 1.18846
 H128 H 0.08878 0.80857 1.24239
 H129 H 0.19592 0.89639 1.25638
 H130 H 0.09039 0.75356 1.18589
 H131 H 0.20316 0.74074 1.10313
 H132 H 0.26122 0.79395 1.10755
 H133 H 0.25483 0.89545 1.20301
 C134 C 0.85013 1.20618 1.20502
 C135 C 0.86791 1.18780 1.24283
 C136 C 0.85379 1.14705 1.25791
 C137 C 0.82042 1.12563 1.23506
 C138 C 0.80118 1.14446 1.19831
 C139 C 0.81633 1.18465 1.18291
 C140 C 0.86645 1.24513 1.18819
 C141 C 0.85027 1.26187 1.14891
 C142 C 0.81565 1.24117 1.12784
 C143 C 0.79798 1.20308 1.14504
 C144 C 0.76277 1.18267 1.12467
 C145 C 0.74710 1.14314 1.14056
 C146 C 0.76700 1.12365 1.17665
 H147 H 0.89384 1.20468 1.25953
 H148 H 0.80870 1.09449 1.24620
 H149 H 0.89320 1.26127 1.20435
 H150 H 0.80283 1.25456 1.09784
 H151 H 0.74789 1.19712 1.09615
 H152 H 0.75497 1.09289 1.18854
 O153 O 0.55857 0.91765 0.92341
 O154 O 0.60708 0.96109 0.95952
 C155 C 0.59765 0.93091 0.93187
 O156 O 0.43460 1.07401 0.92835
 O157 O 0.38927 1.03105 0.96887
 C158 C 0.39636 1.06141 0.94073
 O159 O 0.55608 1.07149 0.91861
 O160 O 0.60600 1.03321 0.95875
 C161 C 0.59553 1.06105 0.92900
 O162 O 0.43690 0.91323 0.93240
 O163 O 0.39043 0.95728 0.97054
 C164 C 0.39830 0.92600 0.94360
 Zr165 Zr 0.49815 0.94053 0.94763
 O166 O 0.49090 0.94446 0.87912
 O167 O 0.50021 0.87243 0.94230
 Zr168 Zr 0.49671 1.04977 0.94561
 O169 O 0.48886 1.04675 0.87718
 O170 O 0.50069 1.11804 0.94267
 O171 O 0.53588 0.99535 0.93636
 O172 O 0.45933 0.99458 0.94035
 O173 O 0.44306 0.91722 1.08072
 O174 O 0.39356 0.95925 1.04417
 C175 C 0.40366 0.92905 1.07158
 O176 O 0.56362 1.07465 1.07560
 O177 O 0.60974 1.03302 1.03436
 C178 C 0.60211 1.06241 1.06342
 O179 O 0.44123 1.07779 1.07652
 O180 O 0.39253 1.03317 1.04209
 C181 C 0.40208 1.06481 1.06799
 O182 O 0.56504 0.92408 1.08100
 O183 O 0.61026 0.96140 1.03498
 C184 C 0.60320 0.93477 1.06674
 Zr185 Zr 0.50284 0.94263 1.05781
 O186 O 0.50041 0.94406 1.12667
 O187 O 0.50877 0.87441 1.05904
 Zr188 Zr 0.50166 1.05200 1.05563
 O189 O 0.49967 1.05076 1.12456
 O190 O 0.50583 1.12027 1.05682
 Zr191 Zr 0.56428 0.99677 0.99881
 Zr192 Zr 0.43543 0.99560 1.00455
 O193 O 0.46492 0.99717 1.06636
 O194 O 0.54128 0.99786 1.06349
 O195 O 0.46208 0.93268 1.00458
 O196 O 0.53664 1.05909 0.99881
 O197 O 0.53817 0.93395 1.00135
 O198 O 0.46051 1.05899 1.00214
 H199 H 0.43838 0.99385 0.91589
 H200 H 0.55569 1.08484 0.99753
 H201 H 0.44624 0.99761 1.09261
 H202 H 0.55811 0.90880 1.00146
 H203 H 0.47842 1.12983 0.96258
 H204 H 0.48437 1.13143 1.03568
 H205 H 0.52739 1.03826 1.13490
 H206 H 0.52361 0.96375 1.13668
 H207 H 0.48415 0.86240 1.04228
 H208 H 0.50664 0.86107 0.97164
 H209 H 0.51883 0.95441 0.86681
 H210 H 0.51378 1.03036 0.86531
 O211 O -0.07435 0.44137 0.08078
 O212 O -0.03708 0.39297 0.03802
 C213 C -0.06476 0.40235 0.06837
 O214 O -0.08242 0.55898 -0.07766
 O215 O -0.03880 0.60735 -0.04152
 C216 C -0.06932 0.59792 -0.06891
 O217 O -0.08565 0.43739 -0.07019
 O218 O -0.03946 0.39131 -0.03421
 C219 C -0.07195 0.39898 -0.05983
 O220 O -0.07009 0.56325 0.08137
 O221 O -0.03579 0.60926 0.03387
 C222 C -0.06088 0.60161 0.06682
 Zr223 Zr -0.05209 0.50171 0.05645
 O224 O -0.12056 0.50673 0.05967
 O225 O -0.04852 0.49880 0.12520
 Zr226 Zr -0.05954 0.49875 -0.05346
 O227 O -0.12796 0.50341 -0.04954
 O228 O -0.06317 0.49217 -0.12198
 O229 O -0.06412 0.46171 0.00313
 O230 O -0.06384 0.53774 0.00095
 O231 O 0.07983 0.56332 0.06966
 O232 O 0.03603 0.60955 0.03076
 C233 C 0.06647 0.60167 0.05878
 O234 O 0.07269 0.43727 -0.08181
 O235 O 0.03550 0.39097 -0.03672
 C236 C 0.06297 0.39896 -0.06764
 O237 O 0.07087 0.55853 -0.08700
 O238 O 0.03243 0.60706 -0.04549
 C239 C 0.05979 0.59757 -0.07611
 O240 O 0.08428 0.44160 0.06903
 O241 O 0.03834 0.39343 0.03580
 C242 C 0.07087 0.40264 0.06085
 Zr243 Zr 0.05748 0.50175 0.04905
 O244 O 0.12588 0.50660 0.04545
 O245 O 0.06065 0.49873 0.11787
 Zr246 Zr 0.05014 0.49860 -0.06082
 O247 O 0.11855 0.50240 -0.06587
 O248 O 0.04432 0.49290 -0.12928
 Zr249 Zr -0.00077 0.43603 -0.00040
 Zr250 Zr -0.00124 0.56435 -0.00415
 O251 O 0.06154 0.53766 -0.00742
 O252 O 0.06240 0.46164 -0.00534
 O253 O 0.00313 0.54049 0.06007
 O254 O -0.00509 0.46100 -0.06401
 O255 O 0.00331 0.46442 0.06174
 O256 O -0.00533 0.53695 -0.06682
 H257 H -0.08923 0.55740 0.00207
 H258 H -0.00664 0.44074 -0.08894
 H259 H 0.08697 0.55712 -0.00935
 H260 H 0.00494 0.44549 0.08773
 H261 H -0.04707 0.51664 -0.13494
 H262 H 0.02781 0.51830 -0.13980
 H263 H 0.13092 0.47858 -0.04829
 H264 H 0.13608 0.48373 0.02541
 H265 H 0.04636 0.52498 0.12946
 H266 H -0.02758 0.52111 0.13463
 H267 H -0.13284 0.48064 0.04573
 H268 H -0.13785 0.48118 -0.02865
 O269 O 0.92251 0.07802 0.56277
 O270 O 0.96894 0.04296 0.60946
 C271 C 0.93686 0.06889 0.60147
 O272 O 0.92472 -0.07857 0.44488
 O273 O 0.96002 -0.03678 0.39424
 C274 C 0.93344 -0.06732 0.40515
 O275 O 0.92623 -0.07086 0.56693
 O276 O 0.97011 -0.03049 0.61163
 C277 C 0.93987 -0.05874 0.60498
 O278 O 0.92382 0.08150 0.44005
 O279 O 0.95986 0.03742 0.39186
 C280 C 0.93298 0.06834 0.40098
 Zr281 Zr 0.94584 0.05775 0.50105
 O282 O 0.87722 0.05717 0.49808
 O283 O 0.94511 0.12607 0.50526
 Zr284 Zr 0.94724 -0.05152 0.50413
 O285 O 0.87854 -0.05101 0.50215
 O286 O 0.94733 -0.11963 0.51093
 O287 O 0.93983 0.00405 0.54182
 O288 O 0.93689 0.00201 0.46517
 O289 O 1.07302 0.08182 0.43344
 O290 O 1.03252 0.03809 0.38868
 C291 C 1.06051 0.06859 0.39534
 O292 O 1.08331 -0.07027 0.55977
 O293 O 1.04439 -0.02886 0.60813
 C294 C 1.07338 -0.05775 0.59888
 O295 O 1.07602 -0.07516 0.43749
 O296 O 1.03215 -0.03709 0.39061
 C297 C 1.06190 -0.06560 0.39879
 O298 O 1.08171 0.08209 0.55580
 O299 O 1.04374 0.04236 0.60625
 C300 C 1.07246 0.07093 0.59551
 Zr301 Zr 1.05546 0.05899 0.49618
 O302 O 1.12375 0.05901 0.48867
 O303 O 1.05472 0.12740 0.49884
 Zr304 Zr 1.05711 -0.05030 0.49905
 O305 O 1.12544 -0.04858 0.49203
 O306 O 1.05858 -0.11852 0.50473
 Zr307 Zr 1.00436 0.00543 0.56472
 Zr308 Zr 0.99844 0.00176 0.43548
 O309 O 1.06241 0.00339 0.45949
 O310 O 1.06652 0.00545 0.53605
 O311 O 0.99884 0.06565 0.45959
 O312 O 1.00396 -0.05781 0.53935
 O313 O 1.00218 0.06729 0.53618
 O314 O 1.00055 -0.06058 0.46315
 H315 H 0.91064 0.00138 0.44654
 H316 H 1.00507 -0.08287 0.55943
 H317 H 1.08699 0.00313 0.43870
 H318 H 1.00254 0.09314 0.55523
 H319 H 0.96661 -0.13141 0.48809
 H320 H 1.04035 -0.13047 0.48113
 H321 H 1.13724 -0.03171 0.51669
 H322 H 1.13619 0.04277 0.51347
 H323 H 1.03606 0.13779 0.47481
 H324 H 0.96247 0.13732 0.48068
 H325 H 0.86681 0.03850 0.52203
 H326 H 0.86816 -0.03512 0.52808
 N327 N 1.13325 0.08580 0.30255
 C328 C 1.11951 0.12454 0.28665
 N329 N 1.08569 0.14451 0.30695
 N330 N 1.06676 0.12677 0.34163
 C331 C 1.08075 0.08818 0.35721
 N332 N 1.11416 0.06791 0.33702
 N333 N 0.85765 -0.09017 0.31624
 C334 C 0.87161 -0.12934 0.30168
 N335 N 0.90564 -0.14837 0.32253
 N336 N 0.92489 -0.12904 0.35616
 C337 C 0.91100 -0.08981 0.37006
 N338 N 0.87708 -0.07069 0.34960
 N339 N 0.85320 0.11769 0.67131
 C340 C 0.87571 0.12567 0.70846
 N341 N 0.91847 0.11520 0.71014
 N342 N 0.93791 0.09696 0.67602
 C343 C 0.91548 0.08926 0.63878
 N344 N 0.87283 0.10010 0.63695
 N345 N 1.09700 -0.13877 0.68236
 C346 C 1.12834 -0.11927 0.70655
 N347 N 1.14225 -0.07936 0.69408
 N348 N 1.12521 -0.05974 0.65938
 C349 C 1.09418 -0.07965 0.63537
 N350 N 1.08033 -0.11941 0.64745
 N351 N 0.32329 1.14846 1.09938
 C352 C 0.29691 1.12662 1.12729
 N353 N 0.30618 1.08444 1.13588
 N354 N 0.33980 1.06485 1.11704
 C355 C 0.36602 1.08688 1.08946
 N356 N 0.35738 1.12907 1.08107
 N357 N 0.29025 0.91010 0.89595
 C358 C 0.29260 0.86885 0.88110
 N359 N 0.32961 0.84588 0.88780
 N360 N 0.36336 0.86384 0.90806
 C361 C 0.36089 0.90508 0.92307
 N362 N 0.32368 0.92778 0.91681
 N363 N 0.70014 0.86777 1.08348
 C364 C 0.71179 0.87796 1.12496
 N365 N 0.68705 0.90713 1.14704
 N366 N 0.65218 0.92499 1.12868
 C367 C 0.64098 0.91480 1.08727
 N368 N 0.66564 0.88609 1.06488
 N369 N 0.68207 1.08851 0.85174
 C370 C 0.69800 1.12588 0.86887
 N371 N 0.67910 1.14181 0.90554
 N372 N 0.64611 1.12126 0.92434
 C373 C 0.63069 1.08394 0.90725
 N374 N 0.64906 1.06791 0.87056
 N375 N 0.15408 0.33505 0.11412
 C376 C 0.13117 0.29865 0.12329
 N377 N 0.08878 0.29668 0.11155
 N378 N 0.06995 0.32975 0.09123
 C379 C 0.09260 0.36629 0.08242
 N380 N 0.13499 0.36849 0.09437
 N381 N -0.15408 0.32883 -0.11087
 C382 C -0.13097 0.29206 -0.11802
 N383 N -0.08878 0.29057 -0.10548
 N384 N -0.07039 0.32451 -0.08629
 C385 C -0.09328 0.36144 -0.07956
 N386 N -0.13545 0.36309 -0.09229
 N387 N 0.14272 0.66299 -0.13125
 C388 C 0.12203 0.70148 -0.13598
 N389 N 0.08045 0.70534 -0.12193
 N390 N 0.06038 0.67205 -0.10324
 C391 C 0.08095 0.63349 -0.09869
 N392 N 0.12238 0.62947 -0.11321
 N393 N -0.11130 0.67155 0.14970
 C394 C -0.11970 0.70802 0.12648
 N395 N -0.10834 0.70937 0.08382
 N396 N -0.08907 0.67559 0.06509
 C397 C -0.08104 0.63899 0.08815
 N398 N -0.09266 0.63747 0.13076
 N399 N 1.14273 0.08825 0.69010
 C400 C 1.13175 0.12903 0.70260
 N401 N 1.10231 0.15108 0.67807
 N402 N 1.08450 0.13310 0.64294
 C403 C 1.09531 0.09228 0.63105
 N404 N 1.12457 0.07007 0.65528
 N405 N 0.86365 -0.08270 0.69325
 C406 C 0.88238 -0.11759 0.71273
 N407 N 0.92068 -0.13244 0.69648
 N408 N 0.93926 -0.11339 0.66234
 C409 C 0.92014 -0.07887 0.64299
 N410 N 0.88209 -0.06377 0.65900
 N411 N 1.14222 -0.11966 0.32913
 C412 C 1.11945 -0.12597 0.29183
 N413 N 1.07738 -0.11302 0.29007
 N414 N 1.05893 -0.09387 0.32426
 C415 C 1.08168 -0.08776 0.36163
 N416 N 1.12357 -0.10117 0.36354
 N417 N 0.86502 0.08554 0.30458
 C418 C 0.87308 0.12765 0.29463
 N419 N 0.90069 0.15020 0.32068
 N420 N 0.91920 0.13156 0.35515
 C421 C 0.91127 0.08947 0.36452
 N422 N 0.88404 0.06671 0.33859
 N423 N 0.09590 0.31826 -0.14873
 C424 C 0.12533 0.29415 -0.12626
 N425 N 0.13385 0.30511 -0.08420
 N426 N 0.11367 0.33831 -0.06539
 C427 C 0.08457 0.36224 -0.08808
 N428 N 0.07619 0.35188 -0.13013
 N429 N -0.12023 0.33585 0.15080
 C430 C -0.12847 0.29907 0.12813
 N431 N -0.11559 0.29646 0.08597
 N432 N -0.09498 0.32932 0.06715
 C433 C -0.08704 0.36624 0.08963
 N434 N -0.10025 0.36906 0.13172
 N435 N -0.08531 0.69355 -0.13769
 C436 C -0.12770 0.70354 -0.13037
 N437 N -0.15092 0.67759 -0.10322
 N438 N -0.13264 0.64327 -0.08436
 C439 C -0.09023 0.63393 -0.09144
 N440 N -0.06683 0.65969 -0.11829
 N441 N 0.08209 0.69746 0.12722
 C442 C 0.12469 0.70689 0.12061
 N443 N 0.14786 0.68124 0.09308
 N444 N 0.12941 0.64752 0.07346
 C445 C 0.08686 0.63860 0.08001
 N446 N 0.06345 0.66419 0.10707
 N447 N 0.28665 1.07887 0.89714
 C448 C 0.28882 1.12048 0.88328
 N449 N 0.32638 1.14272 0.88863
 N450 N 0.36078 1.12387 0.90687
 C451 C 0.35854 1.08236 0.92101
 N452 N 0.32083 1.06025 0.91602
 N453 N 0.29769 0.91044 1.12252
 C454 C 0.29992 0.86798 1.13345
 N455 N 0.33675 0.84555 1.12438
 N456 N 0.37032 0.86511 1.10535
 C457 C 0.36781 0.90752 1.09404
 N458 N 0.33089 0.92976 1.10287
 N459 N 0.67173 1.14431 1.11481
 C460 C 0.70958 1.12235 1.11987
 N461 N 0.71187 1.08059 1.10649
 N462 N 0.67763 1.06160 1.08821
 C463 C 0.63967 1.08343 1.08349
 N464 N 0.63726 1.12508 1.09721
 N465 N 0.66588 0.84907 0.87797
 C466 C 0.70269 0.87182 0.86997
 N467 N 0.70446 0.91403 0.88191
 N468 N 0.67085 0.93276 0.90154
 C469 C 0.63395 0.91019 0.90927
 N470 N 0.63193 0.86805 0.89700
   
