data_POSCAR
  _audit_creation_date              2014-09-24
  _audit_creation_method            'ToBaCCo'
  _symmetry_space_group_name_H-M    'P1'
  _symmetry_Int_Tables_number       1
  _symmetry_cell_setting            triclinic
  loop_
  _symmetry_equiv_pos_as_xyz
 x,y,z
_cell_length_a 20.9308
_cell_length_b 21.0229
_cell_length_c 35.9033
_cell_angle_alpha 89.492100
_cell_angle_beta 89.099700
_cell_angle_gamma 88.116200
loop_
  _atom_site_label
  _atom_site_type_symbol
  _atom_site_fract_x
  _atom_site_fract_y
  _atom_site_fract_z
O1 O -0.05147 0.56299 0.96510
 O2 O -0.04948 0.43885 1.03805
 O3 O -0.04963 0.56326 1.03753
 O4 O -0.04978 0.43918 0.96566
 O5 O 0.05596 0.43660 0.96421
 O6 O 0.05608 0.56047 1.03604
 O7 O 0.05623 0.43603 1.03659
 O8 O 0.05426 0.56043 0.96358
 Cu9 Cu -0.06075 0.50137 1.00182
 Cu10 Cu 0.06630 0.49815 1.00004
 C11 C 0.00101 0.58266 0.95202
 C12 C 0.00365 0.41603 1.04940
 C13 C 0.00330 0.58314 1.04871
 C14 C 0.00312 0.41691 0.95285
 O15 O 0.56119 0.05231 0.46207
 O16 O 0.43388 0.05356 0.53400
 O17 O 0.55808 0.05323 0.53454
 O18 O 0.43627 0.05135 0.46161
 O19 O 0.44005 -0.05389 0.46290
 O20 O 0.56174 -0.05203 0.53581
 O21 O 0.43751 -0.05170 0.53533
 O22 O 0.56500 -0.05292 0.46333
 Cu23 Cu 0.49702 0.06322 0.49783
 Cu24 Cu 0.50147 -0.06326 0.49937
 C25 C 0.58495 -0.00046 0.45075
 C26 C 0.41421 0.00118 0.54681
 C27 C 0.58037 0.00088 0.54753
 C28 C 0.41719 -0.00162 0.45018
 Si29 Si 0.00385 -0.00153 0.24896
 Si30 Si -0.00293 0.00300 0.75260
 C31 C -0.04444 -0.12920 0.16796
 C32 C 0.00478 -0.17584 0.16933
 C33 C 0.05437 -0.17008 0.19471
 C34 C 0.05456 -0.11806 0.21873
 C35 C 0.00351 -0.36690 0.07568
 C36 C -0.04425 -0.07723 0.19195
 C37 C 0.00470 -0.22904 0.14436
 C38 C 0.00439 -0.27312 0.12311
 C39 C 0.00389 -0.32408 0.09778
 C40 C 0.00488 -0.07164 0.21771
 H41 H -0.08286 -0.13293 0.14830
 H42 H 0.09297 -0.20563 0.19581
 H43 H 0.09365 -0.11423 0.23782
 H44 H -0.08257 -0.04143 0.19048
 C45 C 0.05317 0.12878 0.16738
 C46 C 0.00376 0.17522 0.16937
 C47 C -0.04621 0.16853 0.19537
 C48 C -0.04662 0.11579 0.21939
 C49 C 0.00415 0.36837 0.07517
 C50 C 0.05275 0.07608 0.19138
 C51 C 0.00390 0.22906 0.14432
 C52 C 0.00410 0.27366 0.12298
 C53 C 0.00425 0.32516 0.09748
 C54 C 0.00320 0.06955 0.21775
 H55 H 0.09187 0.13322 0.14723
 H56 H -0.08497 0.20390 0.19694
 H57 H -0.08604 0.11126 0.23894
 H58 H 0.09120 0.04044 0.18943
 C59 C 0.18185 0.00200 0.70969
 C60 C 0.17268 0.00530 0.67115
 C61 C 0.11063 0.00907 0.65715
 C62 C 0.05793 0.00883 0.68149
 C63 C 0.36416 0.00183 0.57455
 C64 C 0.12905 0.00181 0.73407
 C65 C 0.22655 0.00450 0.64575
 C66 C 0.27074 0.00366 0.62382
 C67 C 0.32150 0.00262 0.59749
 C68 C 0.06683 0.00435 0.72006
 H69 H 0.22966 -0.00064 0.72084
 H70 H 0.10298 0.01206 0.62740
 H71 H 0.01053 0.01220 0.66998
 H72 H 0.13671 -0.00086 0.76382
 C73 C -0.14672 -0.04679 0.67709
 C74 C -0.19074 0.00479 0.67547
 C75 C -0.18529 0.05859 0.69802
 C76 C -0.13507 0.06571 0.72269
 C77 C -0.37205 0.00151 0.57581
 C78 C -0.09455 -0.04610 0.70054
 C79 C -0.24175 0.00344 0.64909
 C80 C -0.28356 0.00266 0.62642
 C81 C -0.33161 0.00200 0.59932
 C82 C -0.08527 0.01066 0.72386
 H83 H -0.15242 -0.08770 0.65945
 H84 H -0.22085 0.09705 0.69615
 H85 H -0.09972 0.04136 0.72865
 H86 H -0.06052 -0.08602 0.70088
 C87 C -0.05560 -0.13405 0.82911
 C88 C -0.00600 -0.18019 0.82651
 C89 C 0.04324 -0.17300 0.80009
 C90 C 0.04369 -0.11909 0.77698
 C91 C -0.00001 -0.36843 0.92392
 C92 C -0.05517 -0.08021 0.80603
 C93 C -0.00437 -0.23335 0.85202
 C94 C -0.00290 -0.27684 0.87412
 C95 C -0.00122 -0.32666 0.90071
 C96 C -0.00486 -0.07181 0.78040
 H97 H -0.09398 -0.13914 0.84941
 H98 H 0.08175 -0.20852 0.79776
 H99 H 0.08239 -0.11422 0.75698
 H100 H -0.09327 -0.04436 0.80880
 C101 C -0.00480 0.18688 0.79273
 C102 C 0.00464 0.17799 0.83099
 C103 C 0.01348 0.11639 0.84553
 C104 C 0.01208 0.06385 0.82207
 C105 C 0.00326 0.36780 0.92538
 C106 C -0.00615 0.13424 0.76922
 C107 C 0.00449 0.23161 0.85561
 C108 C 0.00413 0.27550 0.87699
 C109 C 0.00361 0.32575 0.90279
 C110 C 0.00148 0.07244 0.78385
 H111 H -0.01149 0.23436 0.78116
 H112 H 0.02117 0.10898 0.87505
 H113 H 0.01932 0.01676 0.83394
 H114 H -0.01380 0.14170 0.73971
 C115 C -0.12881 0.04825 0.33118
 C116 C -0.17283 -0.00041 0.32996
 C117 C -0.16392 -0.04960 0.30418
 C118 C -0.11134 -0.05011 0.27967
 C119 C -0.36663 -0.00073 0.42513
 C120 C -0.07621 0.04774 0.30668
 C121 C -0.22651 -0.00041 0.35553
 C122 C -0.27117 -0.00055 0.37716
 C123 C -0.32296 -0.00072 0.40282
 C124 C -0.06744 -0.00112 0.28056
 H125 H -0.13498 0.08636 0.35116
 H126 H -0.19739 -0.08777 0.30319
 H127 H -0.10501 -0.08909 0.26040
 H128 H -0.04233 0.08547 0.30810
 C129 C 0.13498 -0.05320 0.32976
 C130 C 0.17870 -0.00420 0.32814
 C131 C 0.17022 0.04561 0.30237
 C132 C 0.11831 0.04647 0.27832
 C133 C 0.36785 -0.00243 0.42291
 C134 C 0.08304 -0.05235 0.30571
 C135 C 0.23135 -0.00420 0.35346
 C136 C 0.27502 -0.00384 0.37496
 C137 C 0.32549 -0.00313 0.40057
 C138 C 0.07463 -0.00276 0.27967
 H139 H 0.14079 -0.09178 0.34975
 H140 H 0.20343 0.08406 0.30108
 H141 H 0.11223 0.08598 0.25910
 H142 H 0.04931 -0.09028 0.30749
   
