data_POSCAR
  _audit_creation_date              2014-09-24
  _audit_creation_method            'ToBaCCo'
  _symmetry_space_group_name_H-M    'P1'
  _symmetry_Int_Tables_number       1
  _symmetry_cell_setting            triclinic
  loop_
  _symmetry_equiv_pos_as_xyz
 x,y,z
_cell_length_a 29.7701
_cell_length_b 29.7642
_cell_length_c 21.0154
_cell_angle_alpha 90.070700
_cell_angle_beta 89.132300
_cell_angle_gamma 90.056300
loop_
  _atom_site_label
  _atom_site_type_symbol
  _atom_site_fract_x
  _atom_site_fract_y
  _atom_site_fract_z
C1 C 1.28438 0.20213 0.27797
 C2 C 1.24970 0.22472 0.24717
 C3 C 1.21391 0.20037 0.22200
 C4 C 1.21170 0.15362 0.22836
 C5 C 1.24774 0.13128 0.25754
 C6 C 1.28498 0.15487 0.28252
 C7 C 1.24989 0.27431 0.24384
 C8 C 1.28914 0.29775 0.22793
 C9 C 1.29012 0.34516 0.22524
 C10 C 1.25051 0.36848 0.24465
 C11 C 1.21110 0.34499 0.26293
 C12 C 1.21100 0.29803 0.25932
 H13 H 1.30968 0.22248 0.30027
 H14 H 1.18811 0.21822 0.19662
 H15 H 1.31905 0.27830 0.21845
 H16 H 1.18080 0.27940 0.27121
 H17 H 1.24657 0.09522 0.25976
 H18 H 1.24972 0.40464 0.24563
 C19 C 0.78574 -0.29773 0.28500
 C20 C 0.74908 -0.27411 0.26139
 C21 C 0.71460 -0.29726 0.23165
 C22 C 0.71771 -0.34350 0.22004
 C23 C 0.75568 -0.36685 0.24214
 C24 C 0.79024 -0.34453 0.27575
 C25 C 0.74941 -0.22456 0.25976
 C26 C 0.78753 -0.20240 0.23599
 C27 C 0.78697 -0.15616 0.22395
 C28 C 0.74712 -0.13207 0.23724
 C29 C 0.70908 -0.15333 0.26498
 C30 C 0.71078 -0.19992 0.27553
 H31 H 0.81002 -0.27851 0.31120
 H32 H 0.68588 -0.27845 0.21540
 H33 H 0.81745 -0.22177 0.22526
 H34 H 0.68252 -0.21748 0.29679
 H35 H 0.75932 -0.40182 0.23051
 H36 H 0.74553 -0.09674 0.22567
 C37 C 0.78979 0.20347 -0.23960
 C38 C 0.75322 0.22604 -0.26534
 C39 C 0.71549 0.20181 -0.28413
 C40 C 0.71252 0.15523 -0.27380
 C41 C 0.74889 0.13339 -0.24413
 C42 C 0.78822 0.15720 -0.22791
 C43 C 0.75308 0.27557 -0.26538
 C44 C 0.79135 0.29929 -0.28478
 C45 C 0.79632 0.34559 -0.27176
 C46 C 0.76004 0.36731 -0.23950
 C47 C 0.71986 0.34434 -0.22406
 C48 C 0.71691 0.29845 -0.23789
 H49 H 0.81919 0.22265 -0.22687
 H50 H 0.68883 0.21992 -0.30714
 H51 H 0.81674 0.28020 -0.30983
 H52 H 0.68690 0.27981 -0.22493
 H53 H 0.74621 0.09810 -0.23279
 H54 H 0.76343 0.40137 -0.22374
 C55 C 1.28327 -0.29758 -0.21011
 C56 C 1.24713 -0.27405 -0.23524
 C57 C 1.21250 -0.29746 -0.26432
 C58 C 1.21519 -0.34398 -0.27434
 C59 C 1.25294 -0.36716 -0.25105
 C60 C 1.28751 -0.34449 -0.21788
 C61 C 1.24816 -0.22452 -0.23863
 C62 C 1.28743 -0.20306 -0.26000
 C63 C 1.28802 -0.15688 -0.27242
 C64 C 1.24810 -0.13222 -0.26291
 C65 C 1.20892 -0.15265 -0.23753
 C66 C 1.20946 -0.19913 -0.22598
 H67 H 1.30742 -0.27819 -0.18394
 H68 H 1.18400 -0.27863 -0.28111
 H69 H 1.31744 -0.22283 -0.26826
 H70 H 1.18027 -0.21594 -0.20605
 H71 H 1.25641 -0.40234 -0.26129
 H72 H 1.24744 -0.09698 -0.27519
 C73 C 0.20433 0.28601 0.72568
 C74 C 0.22547 0.24945 0.75404
 C75 C 0.19987 0.21307 0.77554
 C76 C 0.15299 0.21156 0.76768
 C77 C 0.13246 0.24849 0.73702
 C78 C 0.15774 0.28603 0.71606
 C79 C 0.27469 0.24871 0.76163
 C80 C 0.29718 0.28598 0.78635
 C81 C 0.34406 0.28555 0.79471
 C82 C 0.36753 0.24562 0.77846
 C83 C 0.34558 0.20835 0.75108
 C84 C 0.29900 0.21053 0.74321
 H85 H 0.22459 0.31450 0.71106
 H86 H 0.21725 0.18715 0.80130
 H87 H 0.27768 0.31563 0.79748
 H88 H 0.28128 0.18323 0.72059
 H89 H 0.09718 0.24708 0.72737
 H90 H 0.40296 0.24274 0.78785
 C91 C 0.70316 0.78297 0.71048
 C92 C 0.72538 0.74701 0.73813
 C93 C 0.70098 0.70975 0.75972
 C94 C 0.65402 0.70666 0.75222
 C95 C 0.63237 0.74357 0.72273
 C96 C 0.65635 0.78258 0.70317
 C97 C 0.77460 0.74845 0.74553
 C98 C 0.79556 0.78659 0.77010
 C99 C 0.84220 0.78766 0.77889
 C100 C 0.86754 0.74892 0.76316
 C101 C 0.84723 0.71099 0.73496
 C102 C 0.80051 0.71167 0.72641
 H103 H 0.72289 0.81192 0.69643
 H104 H 0.71956 0.68436 0.78468
 H105 H 0.77520 0.81555 0.78193
 H106 H 0.78352 0.68440 0.70287
 H107 H 0.59717 0.74117 0.71215
 H108 H 0.90304 0.74824 0.77285
 C109 C 0.70259 0.28882 0.23055
 C110 C 0.72326 0.25097 0.25656
 C111 C 0.69688 0.21451 0.27622
 C112 C 0.65021 0.21444 0.26781
 C113 C 0.63000 0.25256 0.24032
 C114 C 0.65591 0.29039 0.22257
 C115 C 0.77271 0.24913 0.26183
 C116 C 0.79660 0.28656 0.28245
 C117 C 0.84361 0.28590 0.28589
 C118 C 0.86690 0.24729 0.26376
 C119 C 0.84322 0.20906 0.24155
 C120 C 0.79600 0.21029 0.24399
 H121 H 0.72314 0.31719 0.21627
 H122 H 0.71301 0.18666 0.29970
 H123 H 0.77813 0.31636 0.29645
 H124 H 0.77668 0.18127 0.23042
 H125 H 0.59421 0.25254 0.23226
 H126 H 0.90311 0.24720 0.26423
 C127 C 0.20580 0.78294 0.20563
 C128 C 0.22868 0.74778 0.23498
 C129 C 0.20491 0.71080 0.25888
 C130 C 0.15802 0.70731 0.25289
 C131 C 0.13576 0.74346 0.22296
 C132 C 0.15865 0.78222 0.20007
 C133 C 0.27791 0.74970 0.24251
 C134 C 0.29826 0.78806 0.26767
 C135 C 0.34458 0.78899 0.27924
 C136 C 0.37035 0.75031 0.26487
 C137 C 0.35066 0.71199 0.23697
 C138 C 0.30423 0.71242 0.22609
 H139 H 0.22587 0.80991 0.18605
 H140 H 0.22383 0.68599 0.28452
 H141 H 0.27767 0.81709 0.27862
 H142 H 0.28809 0.68423 0.20331
 H143 H 0.10018 0.74146 0.21785
 H144 H 0.40571 0.74979 0.27581
 O145 O 1.07705 0.02221 0.07380
 O146 O 0.92405 -0.02413 0.07866
 O147 O 0.97463 0.07279 0.08676
 O148 O 1.02281 -0.08012 0.06292
 O149 O 0.91237 0.05202 0.05041
 O150 O 1.08472 -0.05198 0.03034
 O151 O 0.94671 -0.08502 0.03656
 O152 O 1.04964 0.08585 0.04973
 C153 C 1.07436 0.06276 0.08470
 C154 C 0.92626 -0.06534 0.08109
 C155 C 0.93362 0.07141 0.09326
 C156 C 1.06394 -0.07809 0.06711
 O157 O 1.07496 -0.01648 -0.08790
 O158 O 0.92102 0.02741 -0.07470
 O159 O 1.01884 0.08442 -0.07224
 O160 O 0.97153 -0.06768 -0.08926
 O161 O 0.91053 -0.04859 -0.04509
 O162 O 1.08199 0.05761 -0.04581
 O163 O 1.04804 -0.08025 -0.06199
 O164 O 0.94420 0.08886 -0.03591
 Co165 Co 1.07141 0.00284 -0.00677
 Co166 Co 0.92527 0.00179 0.00184
 Co167 Co 0.99676 0.07505 0.00655
 Co168 Co 0.99707 -0.07023 -0.01236
 O169 O 0.99793 0.00232 -0.00256
 C170 C 1.07195 -0.05700 -0.09884
 C171 C 0.92321 0.06852 -0.07850
 C172 C 1.05943 0.08124 -0.08282
 C173 C 0.93036 -0.06773 -0.09027
 O174 O 1.08261 0.52683 0.56709
 O175 O 0.92965 0.48112 0.58503
 O176 O 0.98278 0.58196 0.57351
 O177 O 1.03069 0.42940 0.57662
 O178 O 0.91935 0.55592 0.54691
 O179 O 1.09133 0.45106 0.53303
 O180 O 0.95407 0.41846 0.55112
 O181 O 1.05708 0.58863 0.53271
 C182 C 1.07999 0.56787 0.57257
 C183 C 0.93287 0.44027 0.59273
 C184 C 0.94216 0.57920 0.58414
 C185 C 1.07194 0.42994 0.57687
 O186 O 1.07646 0.47872 0.41069
 O187 O 0.92278 0.52359 0.42530
 O188 O 1.02438 0.57766 0.41216
 O189 O 0.97736 0.42447 0.42448
 O190 O 0.91641 0.44887 0.46466
 O191 O 1.08771 0.55434 0.44260
 O192 O 1.05353 0.41723 0.45028
 O193 O 0.94979 0.58676 0.45275
 Co194 Co 1.07632 0.50276 0.48925
 Co195 Co 0.93020 0.50241 0.50458
 Co196 Co 1.00351 0.57581 0.49316
 Co197 Co 1.00390 0.43030 0.50035
 O198 O 1.00342 0.50285 0.49673
 C199 C 1.07386 0.43763 0.40655
 C200 C 0.92568 0.56431 0.41603
 C201 C 1.06522 0.57544 0.40271
 C202 C 0.93620 0.42626 0.42260
 O203 O 0.57834 0.02388 0.57435
 O204 O 0.42767 -0.02520 0.59010
 O205 O 0.47735 0.07671 0.58781
 O206 O 0.52573 -0.07600 0.57398
 O207 O 0.41398 0.05115 0.56057
 O208 O 0.58652 -0.05037 0.53501
 O209 O 0.44988 -0.08601 0.54794
 O210 O 0.55141 0.08696 0.54729
 C211 C 0.57551 0.06447 0.58399
 C212 C 0.42997 -0.06635 0.59281
 C213 C 0.43671 0.07420 0.59825
 C214 C 0.56681 -0.07407 0.57592
 O215 O 0.57236 -0.01813 0.41496
 O216 O 0.41732 0.02447 0.43626
 O217 O 0.51744 0.08135 0.42645
 O218 O 0.47307 -0.07203 0.42230
 O219 O 0.41194 -0.05136 0.46621
 O220 O 0.58144 0.05668 0.45239
 O221 O 0.55002 -0.08185 0.44753
 O222 O 0.44314 0.08705 0.46814
 Co223 Co 0.57147 0.00296 0.49513
 Co224 Co 0.42585 -0.00014 0.51258
 Co225 Co 0.49747 0.07492 0.50688
 Co226 Co 0.49957 -0.07090 0.49833
 O227 O 0.49857 0.00177 0.50297
 C228 C 0.57161 -0.05909 0.40736
 C229 C 0.41919 0.06545 0.43020
 C230 C 0.55804 0.07968 0.41561
 C231 C 0.43181 -0.07100 0.42117
 O232 O 0.58199 0.52853 0.06605
 O233 O 0.43089 0.47791 0.08825
 O234 O 0.48486 0.58248 0.07640
 O235 O 0.52741 0.42847 0.08087
 O236 O 0.42088 0.55358 0.05615
 O237 O 0.58877 0.45258 0.04058
 O238 O 0.45162 0.41595 0.04947
 O239 O 0.55822 0.58948 0.02818
 C240 C 0.58092 0.56961 0.06887
 C241 C 0.43137 0.43680 0.09255
 C242 C 0.44474 0.57816 0.09069
 C243 C 0.56856 0.43138 0.08390
 O244 O 0.57397 0.47431 -0.08626
 O245 O 0.42115 0.52460 -0.06859
 O246 O 0.52075 0.57749 -0.08760
 O247 O 0.47822 0.42351 -0.07359
 O248 O 0.41656 0.44973 -0.03613
 O249 O 0.58447 0.55105 -0.06202
 O250 O 0.55463 0.41406 -0.04136
 O251 O 0.44721 0.58738 -0.03950
 Co252 Co 0.57466 0.50165 -0.00963
 Co253 Co 0.43004 0.50147 0.00913
 Co254 Co 0.50276 0.57583 -0.00520
 Co255 Co 0.50298 0.42905 0.00331
 O256 O 0.50255 0.50212 -0.00082
 C257 C 0.57501 0.43310 -0.08598
 C258 C 0.42322 0.56537 -0.07657
 C259 C 0.56125 0.57372 -0.09974
 C260 C 0.43698 0.42640 -0.07714
 C261 C 1.17705 0.08311 0.18427
 C262 C 1.17252 0.12805 0.20297
 C263 C 1.12991 0.14817 0.19371
 C264 C 1.09656 0.12628 0.15783
 C265 C 1.10464 0.08343 0.13164
 C266 C 1.14427 0.06159 0.14914
 C267 C 1.17884 0.03839 0.10860
 C268 C 1.21445 0.06099 0.14813
 H269 H 1.12287 0.18166 0.21118
 H270 H 1.06555 0.14376 0.14796
 H271 H 1.17942 0.05077 0.05878
 H272 H 1.17811 0.00135 0.11442
 H273 H 1.23554 0.08528 0.12074
 H274 H 1.23339 0.03695 0.17798
 C275 C 1.16345 0.58970 0.70328
 C276 C 1.17872 0.63334 0.68918
 C277 C 1.15467 0.65727 0.64228
 C278 C 1.11975 0.63709 0.60825
 C279 C 1.10849 0.59179 0.61829
 C280 C 1.12935 0.56961 0.66868
 C281 C 1.14996 0.52411 0.67216
 C282 C 1.18776 0.54584 0.70895
 H283 H 1.16427 0.69100 0.62868
 H284 H 1.10416 0.65600 0.57052
 H285 H 1.16100 0.51098 0.62489
 H286 H 1.12932 0.50053 0.70134
 H287 H 1.22011 0.54497 0.68187
 H288 H 1.18944 0.53411 0.75905
 C289 C 0.67441 0.08355 0.69131
 C290 C 0.67213 0.12967 0.70451
 C291 C 0.63084 0.15120 0.69076
 C292 C 0.59793 0.12956 0.65394
 C293 C 0.60464 0.08538 0.63214
 C294 C 0.64165 0.06209 0.65610
 C295 C 0.67553 0.03297 0.62296
 C296 C 0.71124 0.05606 0.66205
 H297 H 0.62466 0.18564 0.70464
 H298 H 0.56872 0.14825 0.63954
 H299 H 0.67915 0.04079 0.57153
 H300 H 0.67113 -0.00318 0.63480
 H301 H 0.73516 0.07649 0.63298
 H302 H 0.72704 0.03324 0.69703
 C303 C 0.66477 0.59139 0.19870
 C304 C 0.68130 0.63427 0.18325
 C305 C 0.65817 0.65823 0.13549
 C306 C 0.62290 0.63847 0.10158
 C307 C 0.61030 0.59370 0.11317
 C308 C 0.63028 0.57178 0.16452
 C309 C 0.64955 0.52576 0.16986
 C310 C 0.68780 0.54702 0.20627
 H311 H 0.66869 0.69165 0.12158
 H312 H 0.60791 0.65716 0.06315
 H313 H 0.66042 0.51148 0.12319
 H314 H 0.62809 0.50329 0.19966
 H315 H 0.72022 0.54471 0.17956
 H316 H 0.68890 0.53616 0.25681
 C317 C 0.86002 -0.15786 0.16085
 C318 C 0.82802 -0.13385 0.19709
 C319 C 0.83720 -0.08789 0.20762
 C320 C 0.87230 -0.06613 0.17398
 C321 C 0.89930 -0.08985 0.12938
 C322 C 0.89489 -0.13663 0.12832
 C323 C 0.89341 -0.16937 0.07451
 C324 C 0.85469 -0.19225 0.10966
 H325 H 0.81601 -0.06804 0.23906
 H326 H 0.87583 -0.03010 0.17925
 H327 H 0.92410 -0.19051 0.07165
 H328 H 0.88362 -0.15394 0.02886
 H329 H 0.86322 -0.22666 0.12603
 H330 H 0.82209 -0.18925 0.08489
 C331 C 0.84028 0.41620 0.71283
 C332 C 0.83638 0.36906 0.70948
 C333 C 0.87494 0.34665 0.68375
 C334 C 0.90865 0.37021 0.64989
 C335 C 0.90655 0.41712 0.64333
 C336 C 0.87456 0.43937 0.68141
 C337 C 0.84550 0.47900 0.66940
 C338 C 0.80769 0.45365 0.70246
 H339 H 0.87904 0.31073 0.68574
 H340 H 0.93421 0.35114 0.62467
 H341 H 0.83900 0.48487 0.61836
 H342 H 0.85672 0.50857 0.69717
 H343 H 0.78011 0.44411 0.66995
 H344 H 0.79677 0.47006 0.74765
 C345 C 0.36352 -0.15903 0.67078
 C346 C 0.33031 -0.13496 0.70460
 C347 C 0.33924 -0.08906 0.71607
 C348 C 0.37518 -0.06721 0.68449
 C349 C 0.40318 -0.09087 0.64114
 C350 C 0.39919 -0.13769 0.64028
 C351 C 0.39984 -0.17080 0.58687
 C352 C 0.36020 -0.19381 0.61973
 H353 H 0.31710 -0.06923 0.74619
 H354 H 0.37836 -0.03115 0.68973
 H355 H 0.43088 -0.19153 0.58652
 H356 H 0.39146 -0.15575 0.54034
 H357 H 0.36844 -0.22802 0.63714
 H358 H 0.32845 -0.19125 0.59274
 C359 C 0.36489 0.34440 0.17151
 C360 C 0.32992 0.36770 0.20361
 C361 C 0.33702 0.41460 0.21173
 C362 C 0.37282 0.43696 0.18023
 C363 C 0.40283 0.41327 0.14000
 C364 C 0.40017 0.36646 0.14104
 C365 C 0.40295 0.33302 0.08829
 C366 C 0.36391 0.30901 0.12053
 H367 H 0.31450 0.43503 0.24018
 H368 H 0.37477 0.47323 0.18357
 H369 H 0.43476 0.31351 0.08921
 H370 H 0.39443 0.34718 0.04119
 H371 H 0.37350 0.27523 0.13824
 H372 H 0.33253 0.30996 0.09249
 C373 C 0.85865 0.15943 -0.16182
 C374 C 0.82763 0.13489 -0.19798
 C375 C 0.83661 0.08862 -0.20598
 C376 C 0.87046 0.06744 -0.17064
 C377 C 0.89645 0.09201 -0.12680
 C378 C 0.89226 0.13871 -0.12765
 C379 C 0.88924 0.17223 -0.07497
 C380 C 0.85197 0.19475 -0.11191
 H381 H 0.81638 0.06819 -0.23708
 H382 H 0.87401 0.03131 -0.17445
 H383 H 0.92012 0.19310 -0.07192
 H384 H 0.87755 0.15747 -0.02926
 H385 H 0.86145 0.22881 -0.12912
 H386 H 0.81850 0.19245 -0.08791
 C387 C 0.82955 0.58473 0.30378
 C388 C 0.82848 0.63196 0.29892
 C389 C 0.86763 0.65465 0.32034
 C390 C 0.90057 0.63228 0.35567
 C391 C 0.89691 0.58615 0.36842
 C392 C 0.86273 0.56262 0.33760
 C393 C 0.83070 0.52806 0.36247
 C394 C 0.79440 0.55192 0.32559
 H395 H 0.87294 0.69009 0.31263
 H396 H 0.92723 0.65183 0.37651
 H397 H 0.82526 0.53032 0.41474
 H398 H 0.83849 0.49391 0.34393
 H399 H 0.76818 0.56764 0.35659
 H400 H 0.78137 0.53120 0.28587
 C401 C 0.31926 0.08562 0.32573
 C402 C 0.32152 0.13183 0.31150
 C403 C 0.36270 0.15354 0.32727
 C404 C 0.39552 0.13188 0.36405
 C405 C 0.38918 0.08746 0.38448
 C406 C 0.35206 0.06433 0.36095
 C407 C 0.31881 0.03549 0.39542
 C408 C 0.28280 0.05836 0.35711
 H409 H 0.37013 0.18758 0.31306
 H410 H 0.42498 0.15042 0.37831
 H411 H 0.31616 0.04358 0.44695
 H412 H 0.32305 -0.00068 0.38361
 H413 H 0.25943 0.07916 0.38656
 H414 H 0.26630 0.03485 0.32357
 C415 C 0.32662 0.58516 -0.18793
 C416 C 0.32562 0.63230 -0.19381
 C417 C 0.36483 0.65521 -0.17286
 C418 C 0.39779 0.63320 -0.13710
 C419 C 0.39400 0.58723 -0.12346
 C420 C 0.35982 0.56342 -0.15382
 C421 C 0.32791 0.52903 -0.12827
 C422 C 0.29150 0.55257 -0.16533
 H423 H 0.37027 0.69052 -0.18152
 H424 H 0.42477 0.65280 -0.11710
 H425 H 0.32267 0.53160 -0.07597
 H426 H 0.33572 0.49480 -0.14650
 H427 H 0.26540 0.56859 -0.13445
 H428 H 0.27834 0.53149 -0.20459
 C429 C 1.17452 -0.07982 -0.20145
 C430 C 1.16900 -0.12489 -0.21886
 C431 C 1.12552 -0.14354 -0.20971
 C432 C 1.09222 -0.12037 -0.17403
 C433 C 1.10133 -0.07775 -0.14804
 C434 C 1.14182 -0.05707 -0.16635
 C435 C 1.17652 -0.03486 -0.12628
 C436 C 1.21201 -0.05849 -0.16601
 H437 H 1.11796 -0.17715 -0.22598
 H438 H 1.06062 -0.13699 -0.16332
 H439 H 1.17603 -0.04736 -0.07652
 H440 H 1.17726 0.00215 -0.13208
 H441 H 1.23206 -0.08309 -0.13856
 H442 H 1.23204 -0.03512 -0.19640
 C443 C 1.14114 0.34514 0.33124
 C444 C 1.17026 0.36801 0.28916
 C445 C 1.15934 0.41312 0.27516
 C446 C 1.12491 0.43549 0.30969
 C447 C 1.10047 0.41304 0.35826
 C448 C 1.10715 0.36688 0.36454
 C449 C 1.11408 0.33924 0.42288
 C450 C 1.15138 0.31533 0.38642
 H451 H 1.17869 0.43194 0.24032
 H452 H 1.11979 0.47104 0.30159
 H453 H 1.08478 0.31724 0.43378
 H454 H 1.12643 0.35930 0.46374
 H455 H 1.14347 0.27950 0.37668
 H456 H 1.18531 0.32159 0.40603
 C457 C 0.67372 -0.08121 0.30274
 C458 C 0.66898 -0.12652 0.28615
 C459 C 0.62616 -0.14616 0.29770
 C460 C 0.59295 -0.12344 0.33423
 C461 C 0.60132 -0.08022 0.35871
 C462 C 0.64110 -0.05889 0.33868
 C463 C 0.67611 -0.03576 0.37719
 C464 C 0.71138 -0.05883 0.33642
 H465 H 0.61901 -0.18005 0.28225
 H466 H 0.56191 -0.14065 0.34631
 H467 H 0.67685 -0.04810 0.42702
 H468 H 0.67591 0.00127 0.37112
 H469 H 0.73251 -0.08279 0.36336
 H470 H 0.73029 -0.03520 0.30501
 C471 C 0.66462 0.40865 -0.21096
 C472 C 0.68088 0.36663 -0.19172
 C473 C 0.65502 0.34332 -0.14524
 C474 C 0.61777 0.36356 -0.11488
 C475 C 0.60557 0.40806 -0.12918
 C476 C 0.62799 0.42870 -0.18050
 C477 C 0.64708 0.47469 -0.18773
 C478 C 0.68740 0.45302 -0.22047
 H479 H 0.66492 0.31021 -0.12955
 H480 H 0.60088 0.34552 -0.07670
 H481 H 0.65551 0.49019 -0.14134
 H482 H 0.62694 0.49596 -0.22002
 H483 H 0.71835 0.45705 -0.19216
 H484 H 0.69082 0.46212 -0.27160
 C485 C 1.08088 0.17726 -0.19691
 C486 C 1.12752 0.17447 -0.20851
 C487 C 1.14796 0.13298 -0.19169
 C488 C 1.12513 0.10121 -0.15360
 C489 C 1.08074 0.10891 -0.13313
 C490 C 1.05827 0.14537 -0.16017
 C491 C 1.02824 0.17958 -0.12994
 C492 C 1.05276 0.21456 -0.16986
 H493 H 1.18222 0.12515 -0.20521
 H494 H 1.14310 0.07202 -0.13718
 H495 H 1.03406 0.18353 -0.07813
 H496 H 0.99259 0.17498 -0.14350
 H497 H 1.07257 0.23870 -0.14114
 H498 H 1.03092 0.23014 -0.20614
 C499 C 1.08669 0.66925 0.28487
 C500 C 1.13389 0.66938 0.27786
 C501 C 1.15573 0.62952 0.29883
 C502 C 1.13279 0.59697 0.33584
 C503 C 1.08703 0.60226 0.35156
 C504 C 1.06416 0.63677 0.32060
 C505 C 1.03030 0.66948 0.34523
 C506 C 1.05453 0.70504 0.30652
 H507 H 1.19092 0.62340 0.28945
 H508 H 1.15158 0.56916 0.35527
 H509 H 1.03289 0.67574 0.39698
 H510 H 0.99620 0.66208 0.32746
 H511 H 1.07077 0.73123 0.33618
 H512 H 1.03366 0.71805 0.26718
 C513 C 0.57851 0.18170 0.31268
 C514 C 0.62275 0.17559 0.29091
 C515 C 0.64137 0.13209 0.29844
 C516 C 0.61950 0.09953 0.33663
 C517 C 0.57803 0.10923 0.36642
 C518 C 0.55677 0.14942 0.34959
 C519 C 0.53528 0.18443 0.39100
 C520 C 0.55847 0.21957 0.34996
 H521 H 0.67411 0.12399 0.27860
 H522 H 0.63608 0.06791 0.34556
 H523 H 0.54814 0.18404 0.44036
 H524 H 0.49815 0.18489 0.38690
 H525 H 0.58402 0.23949 0.37586
 H526 H 0.53467 0.23967 0.32136
 C527 C 0.58236 0.66775 -0.21851
 C528 C 0.62960 0.66826 -0.22478
 C529 C 0.65138 0.62836 -0.20389
 C530 C 0.62852 0.59589 -0.16676
 C531 C 0.58262 0.60063 -0.15156
 C532 C 0.55972 0.63499 -0.18313
 C533 C 0.52505 0.66744 -0.16001
 C534 C 0.54958 0.70325 -0.19821
 H535 H 0.68661 0.62226 -0.21290
 H536 H 0.64774 0.56888 -0.14629
 H537 H 0.52648 0.67380 -0.10816
 H538 H 0.49135 0.65954 -0.17894
 H539 H 0.56508 0.72966 -0.16814
 H540 H 0.52940 0.71597 -0.23845
 C541 C 0.83929 -0.13777 -0.16286
 C542 C 0.86385 -0.17037 -0.19711
 C543 C 0.90956 -0.16029 -0.20982
 C544 C 0.93067 -0.12378 -0.17955
 C545 C 0.90649 -0.09609 -0.13648
 C546 C 0.85984 -0.10147 -0.13396
 C547 C 0.82701 -0.10132 -0.07960
 C548 C 0.80493 -0.14176 -0.11053
 H549 H 0.92981 -0.18165 -0.24043
 H550 H 0.96660 -0.11961 -0.18599
 H551 H 0.80547 -0.07084 -0.07968
 H552 H 0.84244 -0.10894 -0.03323
 H553 H 0.77037 -0.13450 -0.12691
 H554 H 0.80856 -0.17327 -0.08269
 C555 C 0.84414 0.35458 0.35603
 C556 C 0.86689 0.32598 0.31309
 C557 C 0.91162 0.33776 0.29691
 C558 C 0.93371 0.37284 0.32939
 C559 C 0.91143 0.39724 0.37822
 C560 C 0.86562 0.38926 0.38736
 C561 C 0.83925 0.38176 0.44740
 C562 C 0.81567 0.34367 0.41319
 H563 H 0.93029 0.31894 0.26130
 H564 H 0.96893 0.37896 0.31894
 H565 H 0.81672 0.41050 0.45883
 H566 H 0.86042 0.37018 0.48735
 H567 H 0.77947 0.35052 0.40534
 H568 H 0.82318 0.30996 0.43316
 C569 C 0.34073 -0.13892 0.34333
 C570 C 0.36553 -0.16955 0.30591
 C571 C 0.41110 -0.15868 0.29411
 C572 C 0.43198 -0.12354 0.32767
 C573 C 0.40775 -0.09813 0.37352
 C574 C 0.36113 -0.10403 0.37590
 C575 C 0.32877 -0.10745 0.43061
 C576 C 0.30675 -0.14613 0.39536
 H577 H 0.43143 -0.17862 0.26166
 H578 H 0.46783 -0.11874 0.32124
 H579 H 0.30688 -0.07733 0.43471
 H580 H 0.34478 -0.11776 0.47553
 H581 H 0.27207 -0.13823 0.38007
 H582 H 0.31074 -0.17912 0.41940
 C583 C 0.34339 0.35973 -0.15126
 C584 C 0.36661 0.32453 -0.18253
 C585 C 0.41351 0.33116 -0.19163
 C586 C 0.43604 0.36697 -0.16190
 C587 C 0.41259 0.39742 -0.12215
 C588 C 0.36570 0.39497 -0.12195
 C589 C 0.33233 0.39764 -0.06848
 C590 C 0.30807 0.35873 -0.09969
 H591 H 0.43361 0.30846 -0.22033
 H592 H 0.47228 0.36875 -0.16650
 H593 H 0.31289 0.42949 -0.06925
 H594 H 0.34666 0.38896 -0.02165
 H595 H 0.27436 0.36838 -0.11712
 H596 H 0.30889 0.32725 -0.07127
 C597 C 1.08850 -0.18373 0.15983
 C598 C 1.13468 -0.18075 0.17327
 C599 C 1.15505 -0.13824 0.16017
 C600 C 1.13193 -0.10398 0.12770
 C601 C 1.08734 -0.11023 0.10877
 C602 C 1.06582 -0.14962 0.12865
 C603 C 1.03871 -0.18177 0.09075
 C604 C 1.06287 -0.21913 0.12473
 H605 H 1.18907 -0.13065 0.17343
 H606 H 1.14949 -0.07328 0.11554
 H607 H 1.04731 -0.18081 0.03916
 H608 H 1.00235 -0.17987 0.10307
 H609 H 1.08472 -0.23970 0.09270
 H610 H 1.03987 -0.23869 0.15635
 C611 C 1.09492 0.34324 0.70364
 C612 C 1.13675 0.32564 0.68428
 C613 C 1.16064 0.35015 0.63680
 C614 C 1.14113 0.38710 0.60579
 C615 C 1.09681 0.40040 0.62048
 C616 C 1.07573 0.37960 0.67276
 C617 C 1.02922 0.36206 0.68170
 C618 C 1.04987 0.32194 0.71476
 H619 H 1.19348 0.33923 0.62041
 H620 H 1.15943 0.40268 0.56672
 H621 H 1.01331 0.35299 0.63599
 H622 H 1.00861 0.38356 0.71407
 H623 H 1.04481 0.29055 0.68713
 H624 H 1.04074 0.31993 0.76616
 C625 C 0.65863 -0.14613 0.64284
 C626 C 0.63464 -0.17887 0.67815
 C627 C 0.58857 -0.16974 0.69002
 C628 C 0.56723 -0.13303 0.66101
 C629 C 0.59102 -0.10449 0.61878
 C630 C 0.63741 -0.11022 0.61380
 C631 C 0.66709 -0.11230 0.55611
 C632 C 0.69041 -0.15166 0.58736
 H633 H 0.56840 -0.19093 0.72093
 H634 H 0.53139 -0.12887 0.66850
 H635 H 0.68879 -0.08203 0.55144
 H636 H 0.64871 -0.12180 0.51240
 H637 H 0.72574 -0.14396 0.59987
 H638 H 0.68556 -0.18402 0.56185
 C639 C 0.65923 0.36000 0.15425
 C640 C 0.63503 0.33170 0.19581
 C641 C 0.59065 0.34481 0.21172
 C642 C 0.56982 0.38046 0.17925
 C643 C 0.59301 0.40405 0.13056
 C644 C 0.63885 0.39520 0.12255
 C645 C 0.66603 0.38724 0.06331
 C646 C 0.68838 0.34871 0.09800
 H647 H 0.57116 0.32628 0.24677
 H648 H 0.53463 0.38721 0.18895
 H649 H 0.68927 0.41560 0.05267
 H650 H 0.64530 0.37602 0.02269
 H651 H 0.72453 0.35493 0.10715
 H652 H 0.68057 0.31517 0.07754
 C653 C 0.84250 0.13591 0.17887
 C654 C 0.86633 0.16813 0.21433
 C655 C 0.91282 0.15962 0.22159
 C656 C 0.93467 0.12530 0.18619
 C657 C 0.91054 0.09805 0.14346
 C658 C 0.86381 0.10170 0.14537
 C659 C 0.83056 0.10256 0.09308
 C660 C 0.80746 0.14058 0.12879
 H661 H 0.93320 0.18061 0.25160
 H662 H 0.97086 0.12247 0.18879
 H663 H 0.81016 0.07129 0.09164
 H664 H 0.84536 0.11298 0.04670
 H665 H 0.77333 0.13101 0.14616
 H666 H 0.80953 0.17332 0.10346
 C667 C 0.92070 0.67561 0.69783
 C668 C 0.87447 0.67184 0.71124
 C669 C 0.85412 0.63036 0.69475
 C670 C 0.87650 0.59939 0.65483
 C671 C 0.92097 0.60705 0.63443
 C672 C 0.94340 0.64386 0.66090
 C673 C 0.97199 0.67886 0.62944
 C674 C 0.94745 0.71348 0.66999
 H675 H 0.81982 0.62271 0.70824
 H676 H 0.85790 0.57121 0.63633
 H677 H 0.96491 0.68259 0.57800
 H678 H 1.00806 0.67530 0.64143
 H679 H 0.92665 0.73701 0.64184
 H680 H 0.96948 0.72968 0.70558
 C681 C 0.41643 0.17419 0.70610
 C682 C 0.37172 0.16888 0.72624
 C683 C 0.35176 0.12633 0.71470
 C684 C 0.37347 0.09406 0.67542
 C685 C 0.41596 0.10316 0.64800
 C686 C 0.43774 0.14249 0.66763
 C687 C 0.45991 0.17837 0.62848
 C688 C 0.43776 0.21268 0.67173
 H689 H 0.31836 0.11874 0.73256
 H690 H 0.35606 0.06321 0.66389
 H691 H 0.44661 0.18006 0.57945
 H692 H 0.49702 0.17807 0.63217
 H693 H 0.41299 0.23425 0.64710
 H694 H 0.46210 0.23104 0.70182
 C695 C 0.42388 0.67769 0.19872
 C696 C 0.37849 0.67260 0.21602
 C697 C 0.35945 0.62949 0.20590
 C698 C 0.38211 0.59695 0.16847
 C699 C 0.42484 0.60622 0.14198
 C700 C 0.44637 0.64544 0.16259
 C701 C 0.47170 0.68031 0.12565
 C702 C 0.44754 0.71547 0.16568
 H703 H 0.32583 0.62172 0.22274
 H704 H 0.36497 0.56597 0.15679
 H705 H 0.46182 0.68162 0.07497
 H706 H 0.50844 0.67891 0.13414
 H707 H 0.42443 0.73694 0.13787
 H708 H 0.47034 0.73400 0.19791
   
