data_POSCAR
  _audit_creation_date              2014-09-24
  _audit_creation_method            'ToBaCCo'
  _symmetry_space_group_name_H-M    'P1'
  _symmetry_Int_Tables_number       1
  _symmetry_cell_setting            triclinic
  loop_
  _symmetry_equiv_pos_as_xyz
 x,y,z
_cell_length_a 43.4585
_cell_length_b 40.1055
_cell_length_c 42.9240
_cell_angle_alpha 85.105400
_cell_angle_beta 94.411800
_cell_angle_gamma 94.167100
loop_
  _atom_site_label
  _atom_site_type_symbol
  _atom_site_fract_x
  _atom_site_fract_y
  _atom_site_fract_z
C1 C 0.28897 0.31369 0.23964
 H2 H 0.29248 0.31355 0.26488
 C3 C 0.30871 0.33386 0.22063
 H4 H 0.32721 0.34955 0.23133
 C5 C 0.26111 0.29266 0.19502
 H6 H 0.24326 0.27584 0.18505
 C7 C 0.28003 0.31278 0.17513
 H8 H 0.27632 0.31139 0.15003
 N9 N 0.26575 0.29358 0.22667
 C10 C 0.20024 0.27208 0.29931
 H11 H 0.19965 0.24498 0.30195
 C12 C 0.18239 0.28919 0.31759
 H13 H 0.16846 0.27500 0.33461
 C14 C 0.21966 0.32335 0.27418
 H15 H 0.23392 0.33655 0.25696
 C16 C 0.20210 0.34146 0.29188
 H17 H 0.20299 0.36853 0.28792
 Zn18 Zn 0.24248 0.26454 0.25467
 N19 N 0.21872 0.28931 0.27845
 C20 C 0.27317 0.23998 0.31274
 N21 N 0.27157 0.24033 0.28093
 C22 C 0.29167 0.22380 0.26613
 C23 C 0.31404 0.20532 0.28336
 C24 C 0.29521 0.22168 0.33095
 C25 C 0.19338 0.24638 0.21094
 C26 C 0.17479 0.22460 0.19254
 C27 C 0.19962 0.17801 0.22077
 C28 C 0.21795 0.20065 0.23829
 N29 N 0.21523 0.23421 0.23248
 H30 H 0.25749 0.25393 0.32407
 H31 H 0.29006 0.22478 0.24079
 H32 H 0.32935 0.19175 0.27107
 H33 H 0.29625 0.22170 0.35623
 H34 H 0.19117 0.27315 0.20726
 H35 H 0.15869 0.23498 0.17441
 H36 H 0.20238 0.15143 0.22573
 H37 H 0.23455 0.19129 0.25634
 C38 C 0.18328 0.32440 0.31411
 C39 C 0.30435 0.33346 0.18793
 C40 C 0.17825 0.18989 0.19689
 C41 C 0.31597 0.20398 0.31624
 C42 C 0.80098 0.81796 0.23731
 H43 H 0.80388 0.81937 0.26244
 C44 C 0.82000 0.83843 0.21778
 H45 H 0.83776 0.85466 0.22883
 C46 C 0.77558 0.79268 0.19375
 H47 H 0.75857 0.77452 0.18440
 C48 C 0.79407 0.81258 0.17332
 H49 H 0.78945 0.80994 0.14853
 N50 N 0.77913 0.79584 0.22509
 C51 C 0.71205 0.77667 0.29632
 H52 H 0.71137 0.74958 0.29950
 C53 C 0.69345 0.79427 0.31337
 H54 H 0.67877 0.78053 0.33001
 C55 C 0.73229 0.82740 0.27087
 H56 H 0.74702 0.84021 0.25388
 C57 C 0.71412 0.84600 0.28746
 H58 H 0.71513 0.87303 0.28303
 Zn59 Zn 0.75552 0.76773 0.25346
 N60 N 0.73125 0.79340 0.27586
 C61 C 0.78479 0.74465 0.31267
 N62 N 0.78400 0.74403 0.28097
 C63 C 0.80421 0.72652 0.26731
 C64 C 0.82574 0.70785 0.28566
 C65 C 0.80597 0.72624 0.33197
 C66 C 0.70667 0.74903 0.20995
 C67 C 0.68754 0.72707 0.19225
 C68 C 0.71193 0.68061 0.22125
 C69 C 0.73074 0.70343 0.23814
 N70 N 0.72839 0.73698 0.23170
 H71 H 0.76902 0.75933 0.32307
 H72 H 0.80324 0.72672 0.24203
 H73 H 0.84104 0.69338 0.27427
 H74 H 0.80630 0.72698 0.35714
 H75 H 0.70485 0.77582 0.20572
 H76 H 0.67138 0.73728 0.17409
 H77 H 0.71431 0.65404 0.22675
 H78 H 0.74730 0.69422 0.25630
 C79 C 0.69446 0.82944 0.30914
 C80 C 0.81704 0.83602 0.18501
 C81 C 0.69042 0.69231 0.19744
 C82 C 0.82671 0.70737 0.31847
 C83 C 0.77726 0.29491 0.73793
 H84 H 0.78078 0.29738 0.76288
 C85 C 0.79693 0.31315 0.71742
 H86 H 0.81560 0.32952 0.72686
 C87 C 0.74987 0.26883 0.69570
 H88 H 0.73215 0.25091 0.68724
 C89 C 0.76877 0.28672 0.67439
 H90 H 0.76460 0.28292 0.64971
 N91 N 0.75437 0.27313 0.72685
 C92 C 0.68732 0.25452 0.79829
 H93 H 0.68660 0.22742 0.80117
 C94 C 0.66873 0.27186 0.81555
 H95 H 0.65409 0.25784 0.83205
 C96 C 0.70789 0.30552 0.77362
 H97 H 0.72296 0.31849 0.75701
 C98 C 0.68960 0.32389 0.79036
 H99 H 0.69073 0.35095 0.78631
 Zn100 Zn 0.73125 0.24573 0.75622
 N101 N 0.70671 0.27149 0.77817
 C102 C 0.76004 0.22392 0.81583
 N103 N 0.76013 0.22324 0.78428
 C104 C 0.78166 0.20696 0.77137
 C105 C 0.80396 0.18996 0.79031
 C106 C 0.78169 0.20694 0.83579
 C107 C 0.68181 0.22555 0.71438
 C108 C 0.66314 0.20330 0.69663
 C109 C 0.68978 0.15750 0.72410
 C110 C 0.70816 0.18066 0.74105
 N111 N 0.70447 0.21405 0.73532
 H112 H 0.74337 0.23789 0.82570
 H113 H 0.78124 0.20688 0.74614
 H114 H 0.81931 0.17611 0.77847
 H115 H 0.78110 0.20952 0.86057
 H116 H 0.67904 0.25222 0.71066
 H117 H 0.64636 0.21323 0.67896
 H118 H 0.69328 0.13105 0.72892
 H119 H 0.72561 0.17188 0.75849
 C120 C 0.66981 0.30705 0.81182
 C121 C 0.79304 0.30886 0.68516
 C122 C 0.66739 0.16875 0.70095
 C123 C 0.80449 0.18925 0.82344
 C124 C 0.28902 0.80013 0.73818
 H125 H 0.29241 0.80122 0.76331
 C126 C 0.30773 0.82075 0.71846
 H127 H 0.32564 0.83748 0.72871
 C128 C 0.26259 0.77553 0.69459
 H129 H 0.24553 0.75738 0.68533
 C130 C 0.28063 0.79582 0.67402
 H131 H 0.27655 0.79354 0.64907
 N132 N 0.26693 0.77815 0.72603
 C133 C 0.20198 0.75679 0.79892
 H134 H 0.20232 0.72977 0.80232
 C135 C 0.18312 0.77368 0.81630
 H136 H 0.16931 0.75947 0.83342
 C137 C 0.21990 0.80803 0.77256
 H138 H 0.23386 0.82126 0.75511
 C139 C 0.20136 0.82592 0.78941
 H140 H 0.20126 0.85287 0.78467
 Zn141 Zn 0.24451 0.74933 0.75481
 N142 N 0.22010 0.77411 0.77780
 C143 C 0.27645 0.72895 0.81326
 N144 N 0.27419 0.72675 0.78171
 C145 C 0.29426 0.70934 0.76776
 C146 C 0.31737 0.69260 0.78572
 C147 C 0.29931 0.71260 0.83216
 C148 C 0.19525 0.72986 0.71245
 C149 C 0.17607 0.70782 0.69494
 C150 C 0.20185 0.66158 0.72271
 C151 C 0.22073 0.68453 0.73942
 N152 N 0.21767 0.71802 0.73349
 H153 H 0.26081 0.74365 0.82383
 H154 H 0.29217 0.70838 0.74257
 H155 H 0.33267 0.67831 0.77415
 H156 H 0.30098 0.71489 0.85719
 H157 H 0.19290 0.75660 0.70863
 H158 H 0.15936 0.71796 0.67731
 H159 H 0.20475 0.63505 0.72782
 H160 H 0.23789 0.67548 0.75704
 C161 C 0.18269 0.80875 0.81169
 C162 C 0.30376 0.81865 0.68588
 C163 C 0.17954 0.67313 0.69962
 C164 C 0.32016 0.69410 0.81840
 C165 C 0.03664 -0.02300 -0.03338
 C166 C 0.05428 -0.00230 -0.00840
 C167 C 0.03605 0.01584 0.00727
 C168 C 0.00146 0.01125 -0.00327
 C169 C 0.01241 -0.04465 -0.01499
 C170 C -0.00615 -0.02685 0.00056
 C171 C 0.01807 0.00224 -0.05439
 C172 C -0.00039 0.02020 -0.03889
 H173 H 0.07909 -0.00212 -0.00353
 H174 H -0.01353 0.02573 0.00954
 H175 H 0.01157 -0.07176 -0.01229
 H176 H 0.01862 0.00444 -0.07966
 C177 C 0.01874 0.46086 0.47809
 C178 C 0.03890 0.48105 0.50183
 C179 C 0.02285 0.50044 0.51856
 C180 C -0.01226 0.49747 0.51030
 C181 C -0.00499 0.44064 0.49830
 C182 C -0.02136 0.45971 0.51505
 C183 C 0.00018 0.48692 0.45808
 C184 C -0.01610 0.50605 0.47473
 H185 H 0.06378 0.48011 0.50492
 H186 H -0.02552 0.51311 0.52379
 H187 H -0.00671 0.41356 0.50153
 H188 H -0.00066 0.48916 0.43271
 C189 C 0.52203 -0.03512 0.46511
 C190 C 0.54050 -0.01548 0.49043
 C191 C 0.52278 0.00132 0.50789
 C192 C 0.48794 -0.00343 0.49868
 C193 C 0.49888 -0.05809 0.48375
 C194 C 0.48084 -0.04163 0.50111
 C195 C 0.50242 -0.00930 0.44607
 C196 C 0.48452 0.00728 0.46344
 H197 H 0.56536 -0.01528 0.49456
 H198 H 0.47340 0.01011 0.51283
 H199 H 0.49835 -0.08518 0.48486
 H200 H 0.50208 -0.00543 0.42077
 C201 C 0.53527 0.47294 -0.02053
 C202 C 0.55455 0.49527 0.00210
 C203 C 0.53747 0.51317 0.01922
 C204 C 0.50235 0.50686 0.01236
 C205 C 0.51395 0.45095 0.00098
 C206 C 0.49660 0.46860 0.01796
 C207 C 0.51399 0.49665 -0.04019
 C208 C 0.49685 0.51469 -0.02328
 H209 H 0.57954 0.49636 0.00470
 H210 H 0.48853 0.52091 0.02680
 H211 H 0.51365 0.42386 0.00387
 H212 H 0.51239 0.49828 -0.06556
 C213 C 0.13288 -0.18590 -0.16366
 C214 C 0.11426 -0.16850 -0.14640
 C215 C 0.12512 -0.13771 -0.13530
 C216 C 0.15498 -0.12435 -0.14167
 C217 C 0.17365 -0.14172 -0.15891
 C218 C 0.16282 -0.17272 -0.17009
 N219 N 0.10548 -0.12071 -0.11750
 N220 N 0.11369 -0.09240 -0.10709
 C221 C 0.09406 -0.07561 -0.08910
 C222 C 0.10434 -0.04433 -0.07879
 C223 C 0.08586 -0.02745 -0.06093
 C224 C 0.05692 -0.04197 -0.05228
 C225 C 0.04620 -0.07287 -0.06393
 C226 C 0.06470 -0.08968 -0.08182
 H227 H 0.12370 -0.20946 -0.17231
 H228 H 0.09126 -0.17901 -0.14170
 H229 H 0.16394 -0.10063 -0.13323
 H230 H 0.19674 -0.13113 -0.16310
 H231 H 0.12668 -0.03290 -0.08478
 H232 H 0.09423 -0.00287 -0.05411
 H233 H 0.02335 -0.08404 -0.05976
 H234 H 0.05593 -0.11354 -0.09011
 C235 C 0.17714 0.37364 0.34510
 C236 C 0.15995 0.39125 0.36363
 C237 C 0.13033 0.37884 0.37123
 C238 C 0.11787 0.34851 0.35987
 C239 C 0.13499 0.33091 0.34122
 C240 C 0.16487 0.34323 0.33366
 N241 N 0.11351 0.39745 0.39050
 N242 N 0.08710 0.38687 0.39961
 C243 C 0.07041 0.40561 0.41890
 C244 C 0.04227 0.39171 0.42944
 C245 C 0.02553 0.40917 0.44853
 C246 C 0.03692 0.44087 0.45796
 C247 C 0.06465 0.45525 0.44610
 C248 C 0.08142 0.43768 0.42714
 H249 H 0.20023 0.38359 0.34014
 H250 H 0.16984 0.41454 0.37232
 H251 H 0.09493 0.33847 0.36530
 H252 H 0.12466 0.30785 0.33243
 H253 H 0.03321 0.36729 0.42271
 H254 H 0.00344 0.39788 0.45527
 H255 H 0.07339 0.48025 0.45137
 H256 H 0.10282 0.44930 0.41876
 C257 C 0.68732 -0.12120 0.33948
 C258 C 0.66929 -0.10322 0.35685
 C259 C 0.63889 -0.11481 0.36227
 C260 C 0.62654 -0.14472 0.34999
 C261 C 0.64456 -0.16278 0.33266
 C262 C 0.67518 -0.15124 0.32726
 N263 N 0.62127 -0.09607 0.38066
 N264 N 0.59344 -0.10511 0.38629
 C265 C 0.57597 -0.08670 0.40511
 C266 C 0.54558 -0.09828 0.41046
 C267 C 0.52819 -0.08153 0.42948
 C268 C 0.54116 -0.05319 0.44429
 C269 C 0.57125 -0.04067 0.43740
 C270 C 0.58861 -0.05747 0.41835
 H271 H 0.71093 -0.11189 0.33606
 H272 H 0.67910 -0.08027 0.36630
 H273 H 0.60306 -0.15419 0.35383
 H274 H 0.63443 -0.18559 0.32322
 H275 H 0.53535 -0.12040 0.39985
 H276 H 0.50452 -0.09084 0.43249
 H277 H 0.58148 -0.01774 0.44643
 H278 H 0.61185 -0.04756 0.41397
 C279 C 0.62048 0.31373 -0.16301
 C280 C 0.60293 0.33095 -0.14451
 C281 C 0.61507 0.36072 -0.13223
 C282 C 0.64508 0.37336 -0.13887
 C283 C 0.66272 0.35611 -0.15730
 C284 C 0.65069 0.32599 -0.16946
 N285 N 0.59672 0.37727 -0.11271
 N286 N 0.60595 0.40503 -0.10170
 C287 C 0.58788 0.42135 -0.08176
 C288 C 0.59868 0.45277 -0.07216
 C289 C 0.58180 0.46930 -0.05249
 C290 C 0.55406 0.45423 -0.04116
 C291 C 0.54276 0.42310 -0.05194
 C292 C 0.55962 0.40669 -0.07176
 H293 H 0.61034 0.29090 -0.17240
 H294 H 0.57980 0.32102 -0.13963
 H295 H 0.65504 0.39628 -0.12954
 H296 H 0.68603 0.36599 -0.16144
 H297 H 0.62015 0.46464 -0.08019
 H298 H 0.59042 0.49409 -0.04649
 H299 H 0.52065 0.41149 -0.04555
 H300 H 0.55048 0.38264 -0.07934
 C301 C -0.17902 0.16195 -0.12561
 C302 C -0.15757 0.14357 -0.10662
 C303 C -0.13037 0.13517 -0.11838
 C304 C -0.12464 0.14552 -0.14951
 C305 C -0.14607 0.16355 -0.16874
 C306 C -0.17409 0.17216 -0.15746
 N307 N -0.10936 0.11535 -0.09866
 N308 N -0.08313 0.10938 -0.10742
 C309 C -0.06223 0.08856 -0.08874
 C310 C -0.03316 0.08507 -0.09945
 C311 C -0.01277 0.06349 -0.08289
 C312 C -0.02125 0.04474 -0.05530
 C313 C -0.05025 0.04880 -0.04421
 C314 C -0.07060 0.07057 -0.06077
 H315 H -0.20017 0.16607 -0.11529
 H316 H -0.16242 0.13543 -0.08268
 H317 H -0.10358 0.13958 -0.15913
 H318 H -0.13945 0.17181 -0.19203
 H319 H -0.02643 0.09887 -0.12093
 H320 H 0.00960 0.06143 -0.09178
 H321 H -0.05770 0.03438 -0.02333
 H322 H -0.09306 0.07274 -0.05212
 C323 C -0.12085 0.68470 0.32939
 C324 C -0.10052 0.66381 0.34700
 C325 C -0.10990 0.64466 0.37380
 C326 C -0.13984 0.64715 0.38329
 C327 C -0.16023 0.66808 0.36569
 C328 C -0.15108 0.68679 0.33832
 N329 N -0.08898 0.62210 0.39016
 N330 N -0.09578 0.60374 0.41467
 C331 C -0.07494 0.58046 0.43007
 C332 C -0.08348 0.56132 0.45724
 C333 C -0.06418 0.53742 0.47204
 C334 C -0.03604 0.53218 0.45973
 C335 C -0.02734 0.55173 0.43266
 C336 C -0.04657 0.57568 0.41798
 H337 H -0.11294 0.69917 0.30872
 H338 H -0.07748 0.66217 0.33951
 H339 H -0.14764 0.63251 0.40391
 H340 H -0.18345 0.66886 0.37299
 H341 H -0.10533 0.56466 0.46672
 H342 H -0.07169 0.52245 0.49261
 H343 H -0.00559 0.54860 0.42290
 H344 H -0.03940 0.59018 0.39703
 C345 C 0.36942 0.18360 0.32499
 C346 C 0.39095 0.16330 0.34150
 C347 C 0.38290 0.14294 0.36811
 C348 C 0.35309 0.14359 0.37853
 C349 C 0.33151 0.16396 0.36206
 C350 C 0.33934 0.18388 0.33487
 N351 N 0.40508 0.12113 0.38336
 N352 N 0.39933 0.10139 0.40734
 C353 C 0.42146 0.07898 0.42173
 C354 C 0.41374 0.05779 0.44798
 C355 C 0.43437 0.03473 0.46179
 C356 C 0.46309 0.03245 0.44943
 C357 C 0.47095 0.05404 0.42328
 C358 C 0.45035 0.07712 0.40956
 H359 H 0.37630 0.19904 0.30442
 H360 H 0.41388 0.16308 0.33330
 H361 H 0.34631 0.12800 0.39905
 H362 H 0.30844 0.16339 0.37007
 H363 H 0.39150 0.05887 0.45750
 H364 H 0.42745 0.01811 0.48161
 H365 H 0.49309 0.05321 0.41351
 H366 H 0.45691 0.09328 0.38931
 C367 C 0.37426 0.67539 -0.17298
 C368 C 0.39687 0.65740 -0.15542
 C369 C 0.39043 0.64017 -0.12671
 C370 C 0.36109 0.64153 -0.11538
 C371 C 0.33839 0.65947 -0.13297
 C372 C 0.34463 0.67634 -0.16214
 N373 N 0.41365 0.62050 -0.11025
 N374 N 0.40982 0.60474 -0.08367
 C375 C 0.43277 0.58404 -0.06812
 C376 C 0.42752 0.56790 -0.03865
 C377 C 0.44864 0.54601 -0.02369
 C378 C 0.47529 0.53953 -0.03818
 C379 C 0.48091 0.55666 -0.06743
 C380 C 0.45987 0.57864 -0.08227
 H381 H 0.38000 0.68857 -0.19507
 H382 H 0.41942 0.65658 -0.16435
 H383 H 0.35552 0.62827 -0.09328
 H384 H 0.31571 0.65940 -0.12413
 H385 H 0.40675 0.57192 -0.02744
 H386 H 0.44352 0.53365 -0.00119
 H387 H 0.50160 0.55317 -0.07894
 H388 H 0.46461 0.59102 -0.10497
 C389 C -0.14828 -0.11336 0.17333
 C390 C -0.12846 -0.09432 0.15349
 C391 C -0.12294 -0.10525 0.12453
 C392 C -0.13775 -0.13548 0.11540
 C393 C -0.15757 -0.15459 0.13509
 C394 C -0.16324 -0.14409 0.16465
 N395 N -0.10178 -0.08573 0.10512
 N396 N -0.09601 -0.09477 0.07858
 C397 C -0.07445 -0.07631 0.05897
 C398 C -0.06913 -0.08879 0.03058
 C399 C -0.04727 -0.07245 0.01141
 C400 C -0.03030 -0.04318 0.02033
 C401 C -0.03611 -0.03023 0.04857
 C402 C -0.05798 -0.04671 0.06783
 H403 H -0.15243 -0.10307 0.19498
 H404 H -0.11734 -0.07090 0.16073
 H405 H -0.13364 -0.14469 0.09320
 H406 H -0.16711 -0.17836 0.12734
 H407 H -0.08175 -0.11151 0.02348
 H408 H -0.04365 -0.08273 -0.01045
 H409 H -0.02315 -0.00795 0.05622
 H410 H -0.06169 -0.03663 0.08974
 C411 C -0.17612 0.30937 0.63798
 C412 C -0.15561 0.32528 0.61710
 C413 C -0.14343 0.35802 0.62083
 C414 C -0.15216 0.37497 0.64577
 C415 C -0.17291 0.35914 0.66663
 C416 C -0.18515 0.32612 0.66297
 N417 N -0.12226 0.37321 0.59899
 N418 N -0.10821 0.40186 0.60192
 C419 C -0.08712 0.41634 0.57963
 C420 C -0.06978 0.44617 0.58560
 C421 C -0.04846 0.46039 0.56462
 C422 C -0.04432 0.44503 0.53711
 C423 C -0.06212 0.41529 0.53100
 C424 C -0.08324 0.40102 0.55206
 H425 H -0.18451 0.28372 0.63480
 H426 H -0.14892 0.31192 0.59807
 H427 H -0.14311 0.40040 0.64903
 H428 H -0.17962 0.37289 0.68538
 H429 H -0.07247 0.45817 0.60680
 H430 H -0.03479 0.48295 0.57039
 H431 H -0.05991 0.40313 0.50979
 H432 H -0.09653 0.37806 0.54676
 C433 C 0.33435 -0.12754 0.67037
 C434 C 0.35422 -0.10856 0.65055
 C435 C 0.36419 -0.12221 0.62444
 C436 C 0.35403 -0.15523 0.61831
 C437 C 0.33436 -0.17429 0.63818
 C438 C 0.32426 -0.16071 0.66448
 N439 N 0.38500 -0.10242 0.60486
 N440 N 0.39295 -0.11278 0.57964
 C441 C 0.41429 -0.09389 0.56008
 C442 C 0.42009 -0.10622 0.53176
 C443 C 0.44142 -0.08907 0.51244
 C444 C 0.45756 -0.05927 0.52127
 C445 C 0.45150 -0.04677 0.54965
 C446 C 0.43000 -0.06390 0.56891
 H447 H 0.32671 -0.11617 0.69017
 H448 H 0.36186 -0.08313 0.65551
 H449 H 0.36160 -0.16647 0.59841
 H450 H 0.32756 -0.19992 0.63326
 H451 H 0.40807 -0.12927 0.52469
 H452 H 0.44514 -0.09909 0.49050
 H453 H 0.46389 -0.02423 0.55742
 H454 H 0.42602 -0.05401 0.59083
 C455 C 0.31422 0.37225 0.14027
 C456 C 0.33450 0.39018 0.12020
 C457 C 0.36652 0.38921 0.12644
 C458 C 0.37815 0.37070 0.15352
 C459 C 0.35790 0.35315 0.17385
 C460 C 0.32574 0.35348 0.16724
 N461 N 0.38663 0.40675 0.10472
 N462 N 0.41550 0.40268 0.10629
 C463 C 0.43562 0.42008 0.08450
 C464 C 0.46587 0.41035 0.08423
 C465 C 0.48576 0.42610 0.06258
 C466 C 0.47577 0.45225 0.04116
 C467 C 0.44563 0.46239 0.04182
 C468 C 0.42559 0.44633 0.06318
 H469 H 0.28953 0.37310 0.13480
 H470 H 0.32526 0.40443 0.09945
 H471 H 0.40283 0.36967 0.15890
 H472 H 0.36736 0.33865 0.19435
 H473 H 0.47389 0.39022 0.10058
 H474 H 0.50903 0.41804 0.06269
 H475 H 0.43729 0.48210 0.02530
 H476 H 0.40232 0.45433 0.06296
 C477 C 0.17518 0.13862 0.16684
 C478 C 0.15940 0.11672 0.14662
 C479 C 0.12920 0.12211 0.13467
 C480 C 0.11458 0.14959 0.14355
 C481 C 0.13027 0.17145 0.16408
 C482 C 0.16085 0.16629 0.17589
 N483 N 0.11436 0.09950 0.11327
 N484 N 0.08813 0.10402 0.09880
 C485 C 0.07442 0.08090 0.07720
 C486 C 0.04770 0.08896 0.05857
 C487 C 0.03490 0.06762 0.03611
 C488 C 0.04861 0.03772 0.03207
 C489 C 0.07493 0.02928 0.05147
 C490 C 0.08777 0.05068 0.07371
 H491 H 0.19887 0.13421 0.17484
 H492 H 0.17094 0.09572 0.13979
 H493 H 0.09114 0.15414 0.13468
 H494 H 0.11840 0.19223 0.17084
 H495 H 0.03719 0.11218 0.06099
 H496 H 0.01486 0.07507 0.02132
 H497 H 0.08566 0.00609 0.04954
 H498 H 0.10825 0.04365 0.08803
 C499 C 0.17417 0.62116 0.67034
 C500 C 0.15707 0.59919 0.65105
 C501 C 0.12653 0.60493 0.64058
 C502 C 0.11290 0.63275 0.65009
 C503 C 0.12989 0.65465 0.66967
 C504 C 0.16084 0.64925 0.67987
 N505 N 0.11023 0.58243 0.61992
 N506 N 0.08360 0.58768 0.60670
 C507 C 0.06803 0.56492 0.58578
 C508 C 0.04070 0.57387 0.56874
 C509 C 0.02582 0.55281 0.54708
 C510 C 0.03798 0.52224 0.54231
 C511 C 0.06505 0.51300 0.56004
 C512 C 0.08000 0.53415 0.58147
 H513 H 0.19807 0.61651 0.67719
 H514 H 0.16785 0.57789 0.64376
 H515 H 0.08921 0.63757 0.64242
 H516 H 0.11874 0.67569 0.67692
 H517 H 0.03128 0.59755 0.57178
 H518 H 0.00529 0.56095 0.53353
 H519 H 0.07469 0.48933 0.55749
 H520 H 0.10095 0.52649 0.59457
 C521 C 0.66415 0.11761 0.67063
 C522 C 0.64823 0.09596 0.65024
 C523 C 0.61779 0.10116 0.63897
 C524 C 0.60300 0.12798 0.64892
 C525 C 0.61882 0.14955 0.66960
 C526 C 0.64972 0.14482 0.68047
 N527 N 0.60290 0.07934 0.61686
 N528 N 0.57653 0.08431 0.60290
 C529 C 0.56257 0.06239 0.58036
 C530 C 0.53538 0.07105 0.56289
 C531 C 0.52220 0.05103 0.53956
 C532 C 0.53600 0.02184 0.53346
 C533 C 0.56288 0.01278 0.55163
 C534 C 0.57610 0.03290 0.57476
 H535 H 0.68806 0.11351 0.67797
 H536 H 0.65989 0.07544 0.64261
 H537 H 0.57936 0.13236 0.64063
 H538 H 0.60683 0.16990 0.67705
 H539 H 0.52476 0.09376 0.56691
 H540 H 0.50174 0.05896 0.52575
 H541 H 0.57373 -0.00992 0.54806
 H542 H 0.59699 0.02546 0.58813
 C543 C 0.68553 0.64015 0.16859
 C544 C 0.66870 0.61786 0.14945
 C545 C 0.63823 0.62338 0.13855
 C546 C 0.62445 0.65149 0.14729
 C547 C 0.64122 0.67378 0.16667
 C548 C 0.67203 0.66841 0.17749
 N549 N 0.62220 0.60022 0.11839
 N550 N 0.59527 0.60434 0.10539
 C551 C 0.58033 0.58060 0.08503
 C552 C 0.55224 0.58774 0.06847
 C553 C 0.53800 0.56563 0.04735
 C554 C 0.55169 0.53594 0.04259
 C555 C 0.57949 0.52848 0.05989
 C556 C 0.59371 0.55059 0.08081
 H557 H 0.70934 0.63555 0.17590
 H558 H 0.67960 0.59636 0.14273
 H559 H 0.60083 0.65617 0.13920
 H560 H 0.63000 0.69505 0.17337
 H561 H 0.54168 0.61078 0.07148
 H562 H 0.51678 0.57227 0.03416
 H563 H 0.59028 0.50546 0.05736
 H564 H 0.61526 0.54427 0.09354
   
