data_POSCAR
  _audit_creation_date              2014-09-24
  _audit_creation_method            'ToBaCCo'
  _symmetry_space_group_name_H-M    'P1'
  _symmetry_Int_Tables_number       1
  _symmetry_cell_setting            triclinic
  loop_
  _symmetry_equiv_pos_as_xyz
 x,y,z
_cell_length_a 23.7914
_cell_length_b 23.4594
_cell_length_c 23.3068
_cell_angle_alpha 66.436500
_cell_angle_beta 113.807200
_cell_angle_gamma 61.046900
loop_
  _atom_site_label
  _atom_site_type_symbol
  _atom_site_fract_x
  _atom_site_fract_y
  _atom_site_fract_z
O1 O 0.64108 0.42421 0.12050
 O2 O 0.41883 0.51519 0.03179
 O3 O 0.58225 0.35359 0.12418
 O4 O 0.47348 0.58899 0.02005
 O5 O 0.41919 0.64078 -0.11187
 O6 O 0.53092 0.40386 -0.00643
 O7 O 0.36539 0.56684 -0.09980
 O8 O 0.58849 0.47624 -0.01098
 Cu9 Cu 0.53448 0.46529 0.08734
 Cu10 Cu 0.47119 0.52641 -0.07016
 C11 C 0.65144 0.43743 0.06905
 C12 C 0.35503 0.55478 -0.04826
 C13 C 0.57197 0.34019 0.07498
 C14 C 0.42932 0.65415 -0.06274
 O15 O -0.01141 0.60204 0.46916
 O16 O -0.11551 0.53379 0.40815
 O17 O -0.11668 0.60057 0.47554
 O18 O -0.00369 0.52771 0.40883
 O19 O 0.12477 0.37746 0.55352
 O20 O 0.01385 0.45078 0.62055
 O21 O 0.01374 0.38351 0.55274
 O22 O 0.11957 0.45133 0.61304
 Cu23 Cu -0.07463 0.58086 0.42601
 Cu24 Cu 0.08070 0.40092 0.59968
 C25 C 0.07134 0.53871 0.55178
 C26 C -0.06799 0.44685 0.46904
 C27 C -0.06899 0.53802 0.56051
 C28 C 0.07864 0.43964 0.46933
 O29 O 0.43325 0.11982 0.47362
 O30 O 0.45787 0.03245 0.37462
 O31 O 0.33391 0.11579 0.37421
 O32 O 0.54637 0.04748 0.46186
 O33 O 0.64098 -0.10149 0.59234
 O34 O 0.42758 -0.02978 0.50832
 O35 O 0.54643 -0.11278 0.50503
 O36 O 0.52817 -0.02746 0.60640
 Cu37 Cu 0.43281 0.09383 0.40784
 Cu38 Cu 0.54470 -0.08201 0.56644
 C39 C 0.47726 0.06053 0.55748
 C40 C 0.50778 -0.05539 0.42361
 C41 C 0.34467 0.05459 0.42660
 C42 C 0.62967 -0.03946 0.53993
 C43 C 0.50147 -0.02775 0.01774
 C44 C 0.50873 0.02549 -0.02231
 C45 C 0.49981 0.04462 -0.09630
 C46 C 0.52744 0.06599 0.00608
 C47 C 0.51479 -0.05329 0.09557
 C48 C 0.47657 -0.06178 -0.01627
 C49 C 0.56167 -0.03234 -0.07935
 C50 C 0.55241 -0.01331 -0.14956
 C51 C 0.48154 0.08313 -0.23795
 C52 C 0.42068 0.15991 -0.25400
 C53 C 0.43002 0.14078 -0.18377
 C54 C 0.59982 0.05208 0.02595
 C55 C 0.62189 0.08517 0.05728
 C56 C 0.57349 0.13049 0.07128
 C57 C 0.49957 0.14688 0.04930
 C58 C 0.47484 0.11732 0.01440
 C59 C 0.44805 -0.04063 0.09029
 C60 C 0.45769 -0.06276 0.16119
 C61 C 0.53312 -0.09619 0.23776
 C62 C 0.60110 -0.11082 0.24477
 C63 C 0.59338 -0.09182 0.17529
 C64 C 0.39074 0.00431 -0.11003
 C65 C 0.36480 -0.02828 -0.13897
 C66 C 0.42363 -0.12719 -0.07417
 C67 C 0.51002 -0.19318 0.01940
 C68 C 0.53607 -0.16069 0.04798
 H69 H 0.61724 -0.10713 -0.01162
 H70 H 0.60144 -0.07432 -0.13408
 H71 H 0.36446 0.23503 -0.32125
 H72 H 0.38173 0.20117 -0.19812
 H73 H 0.64047 0.01401 0.01881
 H74 H 0.67834 0.07321 0.07291
 H75 H 0.41634 0.13225 -0.00380
 H76 H 0.38744 -0.01224 0.03041
 H77 H 0.40480 -0.05128 0.15512
 H78 H 0.65993 -0.13681 0.30382
 H79 H 0.64750 -0.10518 0.18281
 H80 H 0.34306 0.08121 -0.16019
 H81 H 0.29762 0.02422 -0.21127
 H82 H 0.55808 -0.27021 0.07085
 H83 H 0.60246 -0.21269 0.12066
 H84 H 0.46023 0.18373 0.05797
 C85 C -0.02492 0.50013 0.98855
 C86 C 0.03190 0.50110 1.03505
 C87 C 0.06777 0.52731 1.00578
 C88 C 0.06375 0.47268 1.12002
 C89 C -0.06709 0.48159 1.01391
 C90 C -0.04721 0.51697 0.91028
 C91 C 0.16626 0.46516 1.07205
 C92 C 0.20207 0.48658 1.04556
 C93 C 0.13973 0.57106 0.95210
 C94 C 0.04067 0.63564 0.88682
 C95 C 0.00476 0.61431 0.91330
 C96 C 0.12142 0.37829 1.20026
 C97 C 0.14597 0.35345 1.27817
 C98 C 0.11311 0.42298 1.27685
 C99 C 0.05812 0.51662 1.19733
 C100 C 0.03440 0.54098 1.11981
 C101 C -0.11372 0.53019 1.02752
 C102 C -0.14830 0.50843 1.05595
 C103 C -0.14166 0.44162 1.06644
 C104 C -0.10075 0.39741 1.04731
 C105 C -0.06257 0.41620 1.02251
 C106 C -0.14327 0.59101 0.82283
 C107 C -0.16607 0.60989 0.74747
 C108 C -0.09273 0.55371 0.75881
 C109 C 0.00380 0.47772 0.84744
 C110 C 0.02633 0.45939 0.92253
 H111 H 0.21580 0.39884 1.14405
 H112 H 0.27881 0.43548 1.09752
 H113 H -0.00888 0.70294 0.81559
 H114 H -0.07197 0.66534 0.86167
 H115 H 0.14595 0.32471 1.20150
 H116 H 0.18792 0.28089 1.33784
 H117 H -0.00963 0.61404 1.05837
 H118 H -0.12309 0.58475 1.01658
 H119 H -0.18183 0.54508 1.06821
 H120 H -0.09574 0.34617 1.05438
 H121 H -0.02832 0.37868 1.01118
 H122 H -0.20037 0.63471 0.81315
 H123 H -0.24106 0.66788 0.68077
 H124 H 0.06218 0.43333 0.85866
 H125 H 0.10107 0.40073 0.99005
 H126 H 0.03289 0.57127 1.19474
 C127 C 0.01909 -0.02077 0.48544
 C128 C -0.04007 0.03150 0.48610
 C129 C -0.08134 0.00796 0.50649
 C130 C -0.06042 0.10903 0.47292
 C131 C 0.05648 0.00484 0.45911
 C132 C 0.04645 -0.10430 0.50838
 C133 C -0.17593 0.06309 0.43331
 C134 C -0.21372 0.03883 0.45264
 C135 C -0.15623 -0.04284 0.54514
 C136 C -0.06103 -0.09887 0.61815
 C137 C -0.02418 -0.07297 0.59906
 C138 C -0.15524 0.20442 0.40086
 C139 C -0.17414 0.27753 0.38748
 C140 C -0.09865 0.25704 0.44598
 C141 C -0.00360 0.16089 0.51920
 C142 C 0.01519 0.08775 0.53252
 C143 C 0.15580 -0.06432 0.52094
 C144 C 0.19135 -0.03988 0.49715
 C145 C 0.12820 0.05428 0.41075
 C146 C 0.02852 0.12300 0.34835
 C147 C -0.00696 0.09838 0.37220
 C148 C 0.13069 -0.19886 0.60050
 C149 C 0.15614 -0.27762 0.62248
 C150 C 0.09678 -0.26322 0.55302
 C151 C 0.01263 -0.16789 0.46036
 C152 C -0.01210 -0.08929 0.43831
 H153 H -0.21988 0.12381 0.36126
 H154 H -0.28689 0.08218 0.39524
 H155 H -0.01565 -0.16182 0.69007
 H156 H 0.04932 -0.11674 0.65619
 H157 H -0.21490 0.22316 0.35363
 H158 H -0.24824 0.34999 0.33128
 H159 H 0.08896 0.01446 0.58911
 H160 H 0.20617 -0.13687 0.58842
 H161 H 0.26844 -0.09528 0.54670
 H162 H -0.02248 0.19616 0.28148
 H163 H -0.08401 0.15247 0.32301
 H164 H 0.17627 -0.21154 0.65565
 H165 H 0.22163 -0.34920 0.69441
 H166 H -0.03444 -0.15353 0.40454
 H167 H -0.07737 -0.01654 0.36674
 H168 H 0.05664 0.14202 0.56555
 N169 N -0.15381 0.39378 1.17319
 N170 N -0.20678 0.39012 1.17516
 C171 C -0.26576 0.41354 1.10048
 C172 C -0.24799 0.43087 1.04975
 C173 C -0.17691 0.41815 1.09808
 H174 H -0.28727 0.45780 0.98278
 H175 H -0.10518 0.38306 1.22074
 H176 H -0.20633 0.37755 1.22378
 N177 N 0.14316 0.62740 0.83890
 N178 N 0.20378 0.62279 0.83885
 C179 C 0.27473 0.58161 0.92175
 C180 C 0.26054 0.56052 0.97546
 C181 C 0.17798 0.58955 0.92148
 H182 H 0.30719 0.52386 1.04662
 H183 H 0.08794 0.64634 0.78806
 H184 H 0.19660 0.64333 0.78528
 N185 N 0.20372 -0.44091 0.66224
 N186 N 0.19578 -0.49581 0.66140
 C187 C 0.10844 -0.43407 0.57638
 C188 C 0.05938 -0.33966 0.52129
 C189 C 0.12067 -0.34637 0.57766
 H190 H -0.01383 -0.27420 0.45099
 H191 H 0.26392 -0.47042 0.72025
 H192 H 0.24798 -0.57091 0.71855
 N193 N -0.20196 0.43217 0.34802
 N194 N -0.19419 0.48177 0.35471
 C195 C -0.10669 0.41882 0.44042
 C196 C -0.05640 0.32473 0.49064
 C197 C -0.11923 0.33600 0.42935
 H198 H 0.01694 0.25781 0.56044
 H199 H -0.26198 0.46443 0.28690
 H200 H -0.24702 0.55744 0.30009
 N201 N 0.42147 0.18969 -0.39106
 N202 N 0.42034 0.18290 -0.44824
 C203 C 0.46824 0.09279 -0.40437
 C204 C 0.50163 0.04021 -0.31893
 C205 C 0.46991 0.10356 -0.31349
 H206 H 0.53987 -0.03319 -0.26948
 H207 H 0.38922 0.25185 -0.40777
 H208 H 0.38563 0.23954 -0.51422
 N209 N 0.56167 -0.18484 0.37115
 N210 N 0.55391 -0.17345 0.41968
 C211 C 0.52321 -0.09162 0.38647
 C212 C 0.51218 -0.04975 0.31471
 C213 C 0.53767 -0.11137 0.30764
 H214 H 0.48873 0.01619 0.27337
 H215 H 0.58332 -0.24203 0.38168
 H216 H 0.56903 -0.22072 0.47416
 N217 N 0.34217 -0.12173 -0.18978
 N218 N 0.34301 -0.17963 -0.18699
 C219 C 0.39587 -0.25693 -0.09895
 C220 C 0.42975 -0.24799 -0.04360
 C221 C 0.39570 -0.16222 -0.10313
 H222 H 0.47839 -0.30062 0.03123
 H223 H 0.31008 -0.05889 -0.24883
 H224 H 0.31183 -0.16843 -0.24329
 N225 N 0.61582 0.14331 0.17822
 N226 N 0.61805 0.19751 0.18058
 C227 C 0.60048 0.25370 0.10952
 C228 C 0.58857 0.23283 0.06101
 C229 C 0.59797 0.16322 0.10637
 H230 H 0.56546 0.27062 -0.00414
 H231 H 0.62137 0.09742 0.22196
 H232 H 0.62363 0.20153 0.22528
 N233 N -0.14340 -0.16296 0.63116
 N234 N -0.19856 -0.16252 0.63253
 C235 C -0.28644 -0.06939 0.56719
 C236 C -0.28739 -0.00793 0.52220
 C237 C -0.19465 -0.07050 0.56591
 H238 H -0.34732 0.07091 0.46505
 H239 H -0.07343 -0.22537 0.67093
 H240 H -0.17719 -0.22489 0.67473
 N241 N 0.11421 0.16068 0.30035
 N242 N 0.17120 0.16090 0.30454
 C243 C 0.26067 0.08098 0.39345
 C244 C 0.26098 0.02750 0.44819
 C245 C 0.16648 0.08047 0.38668
 H246 H 0.32185 -0.03995 0.52269
 H247 H 0.04138 0.21406 0.23868
 H248 H 0.14904 0.21403 0.24697
 N249 N 0.20430 0.30828 1.44413
 N250 N 0.19629 0.31330 1.49521
 C251 C 0.11913 0.40741 1.44092
 C252 C 0.07676 0.46504 1.35163
 C253 C 0.13293 0.39926 1.35641
 H254 H 0.01053 0.54300 1.29043
 H255 H 0.25645 0.24308 1.46897
 H256 H 0.24036 0.25277 1.56482
 N257 N -0.19942 0.66236 0.58746
 N258 N -0.19364 0.65794 0.53500
 C259 C -0.10754 0.56764 0.59136
 C260 C -0.05627 0.51210 0.68361
 C261 C -0.11671 0.57492 0.67847
 H262 H 0.01652 0.43770 0.74565
 H263 H -0.25732 0.72578 0.56106
 H264 H -0.24633 0.71695 0.46227
   
