data_POSCAR
  _audit_creation_date              2014-09-24
  _audit_creation_method            'ToBaCCo'
  _symmetry_space_group_name_H-M    'P1'
  _symmetry_Int_Tables_number       1
  _symmetry_cell_setting            triclinic
  loop_
  _symmetry_equiv_pos_as_xyz
 x,y,z
_cell_length_a 69.1856
_cell_length_b 69.2115
_cell_length_c 21.0661
_cell_angle_alpha 89.891800
_cell_angle_beta 90.061400
_cell_angle_gamma 120.035300
loop_
  _atom_site_label
  _atom_site_type_symbol
  _atom_site_fract_x
  _atom_site_fract_y
  _atom_site_fract_z
C1 C 0.24522 0.49090 0.52729
 C2 C 0.24494 0.49103 0.46254
 C3 C 0.22583 0.48972 0.42658
 C4 C 0.26362 0.49227 0.42457
 C5 C 0.26292 0.48942 0.56324
 C6 C 0.22773 0.49201 0.56531
 C7 C 0.20395 0.47219 0.43726
 C8 C 0.18602 0.47149 0.40459
 C9 C 0.18980 0.48819 0.36035
 C10 C 0.21166 0.50541 0.34842
 C11 C 0.22958 0.50611 0.38118
 C12 C 0.25927 0.47594 0.37852
 C13 C 0.27680 0.47638 0.34437
 C14 C 0.29882 0.49326 0.35553
 C15 C 0.30322 0.50993 0.40020
 C16 C 0.28570 0.50952 0.43433
 C17 C 0.27546 0.50559 0.60915
 C18 C 0.29254 0.50469 0.64210
 C19 C 0.29710 0.48749 0.62988
 C20 C 0.28434 0.47103 0.58515
 C21 C 0.26724 0.47191 0.55222
 C22 C 0.22297 0.50933 0.55604
 C23 C 0.20590 0.50969 0.59049
 C24 C 0.19359 0.49291 0.63501
 C25 C 0.19863 0.47594 0.64559
 C26 C 0.21568 0.47554 0.61113
 H27 H 0.20078 0.45916 0.47121
 H28 H 0.16924 0.45799 0.41419
 H29 H 0.21491 0.51843 0.31425
 H30 H 0.24634 0.51966 0.37201
 H31 H 0.24235 0.46258 0.37007
 H32 H 0.27320 0.46342 0.30987
 H33 H 0.28936 0.52249 0.46881
 H34 H 0.27228 0.51913 0.61859
 H35 H 0.30228 0.51747 0.67672
 H36 H 0.28766 0.45759 0.57555
 H37 H 0.25747 0.45903 0.51789
 H38 H 0.23235 0.52241 0.52176
 H39 H 0.20218 0.52294 0.58209
 H40 H 0.18923 0.46289 0.67997
 H41 H 0.21917 0.46213 0.61920
 H42 H 0.32020 0.52311 0.40905
 C43 C 0.50942 -0.24573 0.53397
 C44 C 0.50957 -0.24585 0.46921
 C45 C 0.51105 -0.26346 0.43297
 C46 C 0.50847 -0.22827 0.43146
 C47 C 0.51070 -0.22673 0.57020
 C48 C 0.50816 -0.26450 0.57164
 C49 C 0.52854 -0.26785 0.44391
 C50 C 0.52941 -0.28485 0.41065
 C51 C 0.51296 -0.29746 0.36569
 C52 C 0.49579 -0.29284 0.35356
 C53 C 0.49488 -0.27586 0.38683
 C54 C 0.52497 -0.21610 0.38586
 C55 C 0.52456 -0.19899 0.35163
 C56 C 0.50756 -0.19401 0.36224
 C57 C 0.49075 -0.20644 0.40654
 C58 C 0.49112 -0.22357 0.44076
 C59 C 0.49425 -0.23060 0.61545
 C60 C 0.49489 -0.21276 0.64827
 C61 C 0.51207 -0.19091 0.63659
 C62 C 0.52882 -0.18699 0.59264
 C63 C 0.52822 -0.20482 0.55983
 C64 C 0.49090 -0.28655 0.56153
 C65 C 0.49046 -0.30417 0.59537
 C66 C 0.50712 -0.29989 0.64017
 C67 C 0.52401 -0.27789 0.65166
 C68 C 0.52447 -0.26028 0.61777
 H69 H 0.54141 -0.25818 0.47842
 H70 H 0.54283 -0.28823 0.42019
 H71 H 0.48301 -0.30246 0.31877
 H72 H 0.48136 -0.27263 0.37745
 H73 H 0.53840 -0.21955 0.37777
 H74 H 0.53763 -0.18950 0.31742
 H75 H 0.47802 -0.23305 0.47487
 H76 H 0.48070 -0.24738 0.62437
 H77 H 0.48187 -0.21598 0.68229
 H78 H 0.54225 -0.17016 0.58345
 H79 H 0.54130 -0.20154 0.52601
 H80 H 0.47794 -0.29011 0.52698
 H81 H 0.47724 -0.32109 0.58615
 H82 H 0.53699 -0.27432 0.68623
 H83 H 0.53783 -0.24339 0.62647
 H84 H 0.47747 -0.20277 0.41496
 C85 C 1.24535 0.75542 0.53434
 C86 C 1.24537 0.75545 0.46958
 C87 C 1.26428 0.77309 0.43264
 C88 C 1.22640 0.73794 0.43257
 C89 C 1.22773 0.73648 0.57126
 C90 C 1.26282 0.77441 0.57133
 C91 C 1.26024 0.78532 0.38654
 C92 C 1.27796 0.80246 0.35301
 C93 C 1.29991 0.80744 0.36484
 C94 C 1.30401 0.79494 0.40970
 C95 C 1.28628 0.77777 0.44319
 C96 C 1.20448 0.73352 0.44282
 C97 C 1.18670 0.71662 0.40888
 C98 C 1.19067 0.70414 0.36389
 C99 C 1.21252 0.70881 0.35244
 C100 C 1.23031 0.72569 0.38640
 C101 C 1.22311 0.71451 0.56082
 C102 C 1.20590 0.69674 0.59406
 C103 C 1.19329 0.70076 0.63859
 C104 C 1.19822 0.72268 0.65039
 C105 C 1.21541 0.74045 0.61710
 C106 C 1.27513 0.77056 0.61760
 C107 C 1.29203 0.78838 0.65143
 C108 C 1.29667 0.81023 0.63973
 C109 C 1.28410 0.81412 0.59464
 C110 C 1.26718 0.79630 0.56086
 H111 H 1.24339 0.78187 0.37748
 H112 H 1.27454 0.81196 0.31837
 H113 H 1.32090 0.79853 0.41918
 H114 H 1.28970 0.76824 0.47770
 H115 H 1.20116 0.74308 0.47733
 H116 H 1.16986 0.71321 0.41791
 H117 H 1.24710 0.72895 0.37753
 H118 H 1.23270 0.71115 0.52651
 H119 H 1.20233 0.67988 0.58461
 H120 H 1.18864 0.72605 0.68477
 H121 H 1.21881 0.75727 0.62606
 H122 H 1.27192 0.75379 0.62663
 H123 H 1.30158 0.78510 0.68628
 H124 H 1.28742 0.83092 0.58528
 H125 H 1.25757 0.79957 0.52626
 H126 H 1.21578 0.69928 0.31764
 C127 C 0.75473 0.50934 0.53360
 C128 C 0.75492 0.50946 0.46885
 C129 C 0.77400 0.51101 0.43233
 C130 C 0.73614 0.50827 0.43139
 C131 C 0.73711 0.51073 0.57010
 C132 C 0.77227 0.50804 0.57100
 C133 C 0.79588 0.52855 0.44308
 C134 C 0.81377 0.52951 0.40959
 C135 C 0.80995 0.51311 0.36457
 C136 C 0.78815 0.49589 0.35264
 C137 C 0.77024 0.49489 0.38615
 C138 C 0.74035 0.52466 0.38550
 C139 C 0.72274 0.52415 0.35150
 C140 C 0.70077 0.50714 0.36262
 C141 C 0.69649 0.49044 0.40723
 C142 C 0.71410 0.49092 0.44123
 C143 C 0.72459 0.49439 0.61576
 C144 C 0.70750 0.49516 0.64897
 C145 C 0.70289 0.51238 0.63725
 C146 C 0.71568 0.52902 0.59280
 C147 C 0.73278 0.52827 0.55964
 C148 C 0.77701 0.49077 0.56070
 C149 C 0.79418 0.49026 0.59435
 C150 C 0.80662 0.50686 0.63913
 C151 C 0.80157 0.52377 0.65079
 C152 C 0.78443 0.52430 0.61710
 H153 H 0.79908 0.54138 0.47762
 H154 H 0.83057 0.54296 0.41898
 H155 H 0.78500 0.48314 0.31781
 H156 H 0.75349 0.48134 0.37691
 H157 H 0.75723 0.53809 0.37699
 H158 H 0.72624 0.53713 0.31703
 H159 H 0.71054 0.47789 0.47556
 H160 H 0.72778 0.48082 0.62476
 H161 H 0.69778 0.48220 0.68332
 H162 H 0.71238 0.54251 0.58344
 H163 H 0.74254 0.54127 0.52550
 H164 H 0.76755 0.47784 0.52619
 H165 H 0.79783 0.47702 0.58499
 H166 H 0.81103 0.53671 0.68535
 H167 H 0.78095 0.53767 0.62595
 H168 H 0.67956 0.47716 0.41605
 C169 C 0.48997 0.24475 0.53606
 C170 C 0.49001 0.24486 0.47130
 C171 C 0.48856 0.26243 0.43451
 C172 C 0.49131 0.22732 0.43413
 C173 C 0.48850 0.22572 0.57282
 C174 C 0.49119 0.26356 0.57322
 C175 C 0.47100 0.26675 0.44483
 C176 C 0.47016 0.28374 0.41120
 C177 C 0.48670 0.29640 0.36646
 C178 C 0.50393 0.29183 0.35491
 C179 C 0.50481 0.27486 0.38857
 C180 C 0.47504 0.21515 0.38803
 C181 C 0.47563 0.19808 0.35435
 C182 C 0.49262 0.19313 0.36600
 C183 C 0.50921 0.20555 0.41081
 C184 C 0.50864 0.22265 0.44449
 C185 C 0.50472 0.22954 0.61888
 C186 C 0.50387 0.21169 0.65241
 C187 C 0.48668 0.18984 0.64062
 C188 C 0.47015 0.18598 0.59577
 C189 C 0.47099 0.20383 0.56228
 C190 C 0.50851 0.28559 0.56303
 C191 C 0.50898 0.30323 0.59655
 C192 C 0.49229 0.29902 0.64110
 C193 C 0.47532 0.27704 0.65262
 C194 C 0.47483 0.25940 0.61905
 H195 H 0.45807 0.25706 0.47918
 H196 H 0.45669 0.28708 0.42029
 H197 H 0.51678 0.30149 0.32030
 H198 H 0.51838 0.27167 0.37966
 H199 H 0.46162 0.21858 0.37912
 H200 H 0.46273 0.18860 0.31972
 H201 H 0.52159 0.23212 0.47899
 H202 H 0.51826 0.24632 0.62794
 H203 H 0.51674 0.21494 0.68707
 H204 H 0.45670 0.16918 0.58634
 H205 H 0.45809 0.20059 0.52783
 H206 H 0.52152 0.28910 0.52872
 H207 H 0.52227 0.32014 0.58730
 H208 H 0.46231 0.27352 0.68700
 H209 H 0.46142 0.24253 0.62783
 H210 H 0.52247 0.20192 0.42003
 C211 C 0.75527 0.24556 0.53406
 C212 C 0.75527 0.24548 0.46930
 C213 C 0.73776 0.22645 0.43254
 C214 C 0.77290 0.26433 0.43211
 C215 C 0.77429 0.26309 0.57084
 C216 C 0.73635 0.22799 0.57119
 C217 C 0.73339 0.20457 0.44326
 C218 C 0.71644 0.18672 0.40964
 C219 C 0.70388 0.19058 0.36452
 C220 C 0.70851 0.21240 0.35257
 C221 C 0.72543 0.23026 0.38621
 C222 C 0.78511 0.26022 0.38625
 C223 C 0.80225 0.27789 0.35252
 C224 C 0.80722 0.29983 0.36390
 C225 C 0.79476 0.30401 0.40848
 C226 C 0.77760 0.28634 0.44219
 C227 C 0.77046 0.27551 0.61663
 C228 C 0.78831 0.29250 0.65016
 C229 C 0.81016 0.29711 0.63862
 C230 C 0.81402 0.28442 0.59403
 C231 C 0.79617 0.26742 0.56056
 C232 C 0.71436 0.22330 0.56057
 C233 C 0.69662 0.20614 0.59407
 C234 C 0.70071 0.19367 0.63897
 C235 C 0.72264 0.19864 0.65092
 C236 C 0.74038 0.21578 0.61741
 H237 H 0.74300 0.20133 0.47791
 H238 H 0.71307 0.16992 0.41905
 H239 H 0.69891 0.21557 0.31767
 H240 H 0.72865 0.24702 0.37699
 H241 H 0.78167 0.24336 0.37755
 H242 H 0.81176 0.27447 0.31807
 H243 H 0.76810 0.28982 0.47650
 H244 H 0.75369 0.27232 0.62550
 H245 H 0.78506 0.30214 0.68462
 H246 H 0.83082 0.28772 0.58480
 H247 H 0.79941 0.25774 0.52631
 H248 H 0.71094 0.23280 0.52596
 H249 H 0.67972 0.20248 0.58461
 H250 H 0.72599 0.18912 0.68562
 H251 H 0.75722 0.21922 0.62653
 H252 H 0.79842 0.32091 0.41748
 N253 N 1.02397 0.47838 0.06756
 N254 N 1.04043 0.47427 0.07729
 N255 N 0.97708 0.46849 0.11168
 N256 N 0.96035 0.45773 0.15170
 N257 N 0.97700 0.45485 0.06827
 N258 N 0.96019 0.43441 0.07753
 N259 N 1.02406 0.49201 0.11099
 N260 N 1.04059 0.49757 0.15153
 C261 C 1.05062 0.48643 0.12960
 C262 C 0.95003 0.43656 0.12964
 N263 N 0.97692 0.52328 0.06504
 N264 N 0.96045 0.52742 0.07409
 N265 N 1.02400 0.53363 0.10898
 N266 N 1.04050 0.54494 0.14929
 N267 N 1.02388 0.54684 0.06430
 N268 N 1.04030 0.56751 0.07295
 N269 N 0.97704 0.51010 0.10976
 N270 N 0.96066 0.50488 0.15051
 Mn271 Mn 1.00055 0.50106 0.11108
 C272 C 0.95050 0.51576 0.12737
 C273 C 1.05049 0.56595 0.12592
 N274 N 0.97677 0.45417 -0.06850
 N275 N 0.96030 0.43352 -0.07699
 N276 N 1.02361 0.49096 -0.11390
 N277 N 1.04035 0.49671 -0.15369
 N278 N 1.02376 0.47777 -0.06921
 N279 N 1.04062 0.47418 -0.07734
 N280 N 0.97664 0.46736 -0.11321
 N281 N 0.96009 0.45606 -0.15339
 Mn282 Mn 1.00037 0.46607 -0.00046
 C283 C 0.95008 0.43506 -0.12991
 C284 C 1.05074 0.48612 -0.13013
 N285 N 1.02361 0.54615 -0.07247
 N286 N 1.04046 0.56657 -0.08156
 N287 N 0.97654 0.50893 -0.11513
 N288 N 0.95962 0.50280 -0.15457
 N289 N 0.97660 0.52256 -0.07173
 N290 N 0.95971 0.52610 -0.08043
 N291 N 1.02352 0.53251 -0.11590
 N292 N 1.04031 0.54327 -0.15578
 Mn293 Mn 1.00025 0.53494 -0.00376
 Mn294 Mn 1.00007 0.49994 -0.11527
 Cl295 Cl 1.00031 0.50050 -0.00209
 C296 C 1.05064 0.56442 -0.13361
 C297 C 0.94934 0.51365 -0.13217
 N298 N 0.47719 0.45358 0.06610
 N299 N 0.47297 0.43296 0.07558
 N300 N 0.46724 0.49057 0.10958
 N301 N 0.45630 0.49653 0.14886
 N302 N 0.45383 0.47717 0.06542
 N303 N 0.43338 0.47364 0.07340
 N304 N 0.49057 0.46697 0.11030
 N305 N 0.49584 0.45584 0.15112
 C306 C 0.48479 0.43473 0.12856
 C307 C 0.43527 0.48584 0.12554
 N308 N 0.52249 0.54558 0.06617
 N309 N 0.52675 0.56620 0.07563
 N310 N 0.53230 0.50854 0.11060
 N311 N 0.54314 0.50261 0.15052
 N312 N 0.54585 0.52199 0.06670
 N313 N 0.56630 0.52560 0.07551
 N314 N 0.50897 0.53213 0.11011
 N315 N 0.50365 0.54322 0.15074
 Mn316 Mn 0.49977 0.49955 0.11087
 C317 C 0.51481 0.56437 0.12832
 C318 C 0.56425 0.51338 0.12786
 N319 N 0.45406 0.47718 -0.07137
 N320 N 0.43348 0.47306 -0.08108
 N321 N 0.49102 0.46713 -0.11460
 N322 N 0.49696 0.45622 -0.15401
 N323 N 0.47749 0.45367 -0.07068
 N324 N 0.47384 0.43320 -0.07897
 N325 N 0.46757 0.49062 -0.11533
 N326 N 0.45657 0.49603 -0.15622
 Mn327 Mn 0.46542 0.46517 -0.00264
 C328 C 0.43541 0.48499 -0.13396
 C329 C 0.48611 0.43514 -0.13103
 N330 N 0.54608 0.52216 -0.07009
 N331 N 0.56668 0.52626 -0.07905
 N332 N 0.50925 0.53225 -0.11481
 N333 N 0.50335 0.54319 -0.15444
 N334 N 0.52263 0.54566 -0.07063
 N335 N 0.52621 0.56612 -0.07895
 N336 N 0.53271 0.50877 -0.11430
 N337 N 0.54384 0.50338 -0.15463
 Mn338 Mn 0.53449 0.53407 -0.00197
 Mn339 Mn 0.50014 0.49969 -0.11550
 Cl340 Cl 0.49995 0.49962 -0.00231
 C341 C 0.56492 0.51437 -0.13175
 C342 C 0.51407 0.56423 -0.13133
 N343 N 0.45414 -0.02359 0.07230
 N344 N 0.43370 -0.04040 0.08153
 N345 N 0.49139 0.02340 0.11522
 N346 N 0.49748 0.04020 0.15495
 N347 N 0.47771 0.02340 0.07193
 N348 N 0.47411 0.04021 0.08098
 N349 N 0.46782 -0.02356 0.11563
 N350 N 0.45709 -0.04035 0.15557
 C351 C 0.43590 -0.05063 0.13353
 C352 C 0.48658 0.05047 0.13282
 N353 N 0.54615 0.02327 0.06822
 N354 N 0.56681 0.03972 0.07675
 N355 N 0.50939 -0.02363 0.11333
 N356 N 0.50367 -0.04044 0.15295
 N357 N 0.52255 -0.02371 0.06855
 N358 N 0.52616 -0.04058 0.07645
 N359 N 0.53298 0.02331 0.11300
 N360 N 0.54430 0.03979 0.15329
 Mn361 Mn 0.50040 -0.00012 0.11502
 C362 C 0.56529 0.04985 0.12980
 C363 C 0.51425 -0.05079 0.12920
 N364 N 0.47690 0.02329 -0.06484
 N365 N 0.47280 0.03981 -0.07356
 N366 N 0.46652 -0.02370 -0.10926
 N367 N 0.45520 -0.04017 -0.14956
 N368 N 0.45335 -0.02365 -0.06447
 N369 N 0.43268 -0.04010 -0.07304
 N370 N 0.49006 0.02325 -0.10966
 N371 N 0.49530 0.03973 -0.15014
 Mn372 Mn 0.46530 -0.00014 0.00376
 C373 C 0.48446 0.04987 -0.12675
 C374 C 0.43420 -0.05023 -0.12609
 N375 N 0.52184 -0.02371 -0.06821
 N376 N 0.52589 -0.04019 -0.07804
 N377 N 0.53169 0.02323 -0.11187
 N378 N 0.54242 0.04005 -0.15171
 N379 N 0.54537 0.02325 -0.06854
 N380 N 0.56580 0.04009 -0.07769
 N381 N 0.50817 -0.02374 -0.11156
 N382 N 0.50252 -0.04024 -0.15213
 Mn383 Mn 0.53421 -0.00023 -0.00001
 Mn384 Mn 0.49911 -0.00024 -0.11132
 Cl385 Cl 0.49975 -0.00018 0.00185
 C386 C 0.51367 -0.05031 -0.13032
 C387 C 0.56361 0.05034 -0.12963
 C388 C 1.13898 0.48752 0.27283
 N389 N 1.11966 0.46804 0.26351
 N390 N 1.10240 0.46792 0.23498
 C391 C 1.10393 0.48728 0.21495
 N392 N 1.12325 0.50676 0.22426
 N393 N 1.14051 0.50687 0.25279
 C394 C 1.15747 0.48768 0.30420
 C395 C 1.17299 0.48787 0.33095
 C396 C 1.08527 0.48714 0.18469
 C397 C 1.06951 0.48690 0.15946
 C398 C 0.51405 0.65137 0.27323
 N399 N 0.53303 0.65021 0.27071
 N400 N 0.53316 0.63319 0.24161
 C401 C 0.51432 0.61682 0.21417
 N402 N 0.49534 0.61799 0.21666
 N403 N 0.49521 0.63500 0.24576
 C404 C 0.51382 0.66951 0.30532
 C405 C 0.51351 0.68464 0.33264
 C406 C 0.51441 0.59837 0.18353
 C407 C 0.51454 0.58285 0.15814
 C408 C 0.35058 -0.14125 0.27495
 N409 N 0.37194 -0.13344 0.29418
 N410 N 0.38870 -0.11583 0.26564
 C411 C 0.38462 -0.10549 0.21704
 N412 N 0.36327 -0.11331 0.19777
 N413 N 0.34650 -0.13092 0.22631
 C414 C 0.33249 -0.15987 0.30666
 C415 C 0.31722 -0.17532 0.33375
 C416 C 0.40263 -0.08628 0.18712
 C417 C 0.41779 -0.07004 0.16243
 C418 C 0.86234 0.51451 0.27173
 N419 N 0.86016 0.49557 0.24596
 N420 N 0.87738 0.49582 0.21687
 C421 C 0.89730 0.51501 0.21270
 N422 N 0.89948 0.53395 0.23844
 N423 N 0.88226 0.53370 0.26753
 C424 C 0.84390 0.51415 0.30389
 C425 C 0.82842 0.51375 0.33132
 C426 C 0.91593 0.51522 0.18219
 C427 C 0.93167 0.51543 0.15695
 C428 C 0.48564 0.34762 0.27352
 N429 N 0.46659 0.34863 0.27032
 N430 N 0.46644 0.36567 0.24122
 C431 C 0.48534 0.38221 0.21446
 N432 N 0.50440 0.38120 0.21763
 N433 N 0.50454 0.36416 0.24674
 C434 C 0.48589 0.32945 0.30569
 C435 C 0.48619 0.31431 0.33315
 C436 C 0.48523 0.40069 0.18382
 C437 C 0.48507 0.41623 0.15842
 C438 C 0.65270 0.13823 0.27199
 N439 N 0.63535 0.14005 0.24914
 N440 N 0.61829 0.12280 0.22038
 C441 C 0.61807 0.10321 0.21363
 N442 N 0.63543 0.10139 0.23645
 N443 N 0.65249 0.11864 0.26521
 C444 C 0.67087 0.15668 0.30395
 C445 C 0.68600 0.17214 0.33128
 C446 C 0.59954 0.08452 0.18360
 C447 C 0.58392 0.06874 0.15880
 C448 C 0.48586 0.13847 -0.26928
 N449 N 0.50415 0.13609 -0.27084
 N450 N 0.50395 0.11882 -0.24211
 C451 C 0.48545 0.10341 -0.21096
 N452 N 0.46715 0.10580 -0.20936
 N453 N 0.46735 0.12307 -0.23810
 C454 C 0.48601 0.15691 -0.30099
 C455 C 0.48625 0.17238 -0.32815
 C456 C 0.48514 0.08465 -0.18082
 C457 C 0.48485 0.06882 -0.15592
 C458 C 0.65227 0.51317 -0.27338
 N459 N 0.63359 0.49374 -0.25835
 N460 N 0.61647 0.49390 -0.22993
 C461 C 0.61752 0.51351 -0.21570
 N462 N 0.63621 0.53294 -0.23070
 N463 N 0.65333 0.53278 -0.25912
 C464 C 0.67056 0.51299 -0.30486
 C465 C 0.68581 0.51276 -0.33179
 C466 C 0.59899 0.51370 -0.18581
 C467 C 0.58343 0.51395 -0.16100
 C468 C 0.86157 0.34750 -0.27123
 N469 N 0.88127 0.34788 -0.26503
 N470 N 0.89855 0.36499 -0.23650
 C471 C 0.89665 0.38224 -0.21335
 N472 N 0.87694 0.38185 -0.21952
 N473 N 0.85967 0.36474 -0.24804
 C474 C 0.84310 0.32928 -0.30295
 C475 C 0.82762 0.31410 -0.33012
 C476 C 0.91536 0.40080 -0.18350
 C477 C 0.93116 0.41644 -0.15884
 C478 C 0.51236 -0.13862 -0.27349
 N479 N 0.52727 -0.12731 -0.22675
 N480 N 0.52735 -0.11009 -0.19824
 C481 C 0.51252 -0.10368 -0.21562
 N482 N 0.49760 -0.11499 -0.26234
 N483 N 0.49752 -0.13221 -0.29084
 C484 C 0.51237 -0.15704 -0.30459
 C485 C 0.51230 -0.17249 -0.33113
 C486 C 0.51276 -0.08499 -0.18540
 C487 C 0.51309 -0.06921 -0.16019
 C488 C 0.34849 0.48632 -0.27861
 N489 N 0.34854 0.46689 -0.27091
 N490 N 0.36558 0.46667 -0.24201
 C491 C 0.38308 0.48589 -0.21996
 N492 N 0.38303 0.50532 -0.22763
 N493 N 0.36599 0.50553 -0.25653
 C494 C 0.33028 0.48660 -0.31038
 C495 C 0.31509 0.48693 -0.33741
 C496 C 0.40151 0.48567 -0.18939
 C497 C 0.41700 0.48542 -0.16396
 C498 C 1.14170 0.64992 -0.27289
 N499 N 1.13364 0.62867 -0.29326
 N500 N 1.11592 0.61185 -0.26523
 C501 C 1.10573 0.61578 -0.21604
 N502 N 1.11381 0.63703 -0.19564
 N503 N 1.13152 0.65385 -0.22366
 C504 C 1.16042 0.66809 -0.30405
 C505 C 1.17597 0.68340 -0.33072
 C506 C 1.08643 0.59771 -0.18662
 C507 C 1.07012 0.58253 -0.16225
 C508 C 0.85816 0.50781 -0.27137
 N509 N 0.86544 0.49370 -0.28893
 N510 N 0.88315 0.49465 -0.26075
 C511 C 0.89413 0.50976 -0.21418
 N512 N 0.88683 0.52386 -0.19657
 N513 N 0.86912 0.52291 -0.22476
 C514 C 0.83944 0.50718 -0.30284
 C515 C 0.82392 0.50689 -0.32982
 C516 C 0.91346 0.51107 -0.18474
 C517 C 0.92980 0.51224 -0.16049
 C518 C 0.49137 0.34954 -0.26955
 N519 N 0.50657 0.37099 -0.28400
 N520 N 0.50570 0.38778 -0.25588
 C521 C 0.48960 0.38361 -0.21249
 N522 N 0.47441 0.36215 -0.19800
 N523 N 0.47528 0.34537 -0.22612
 C524 C 0.49197 0.33147 -0.30096
 C525 C 0.49225 0.31625 -0.32790
 C526 C 0.48840 0.40168 -0.18319
 C527 C 0.48735 0.41692 -0.15910
 C528 C 0.64899 0.14123 -0.26998
 N529 N 0.62768 0.13323 -0.28998
 N530 N 0.61090 0.11556 -0.26169
 C531 C 0.61491 0.10535 -0.21259
 N532 N 0.63622 0.11337 -0.19255
 N533 N 0.65300 0.13104 -0.22083
 C534 C 0.66712 0.15992 -0.30142
 C535 C 0.68240 0.17542 -0.32832
 C536 C 0.59687 0.08608 -0.18291
 C537 C 0.58171 0.06980 -0.15839
 C538 C 1.14141 0.49163 -0.27120
 N539 N 1.12833 0.47425 -0.23248
 N540 N 1.11073 0.47328 -0.20363
 C541 C 1.10568 0.48966 -0.21266
 N542 N 1.11877 0.50705 -0.25134
 N543 N 1.13637 0.50802 -0.28018
 C544 C 1.16001 0.49237 -0.30353
 C545 C 1.17544 0.49276 -0.33126
 C546 C 1.08644 0.48838 -0.18279
 C547 C 1.07018 0.48731 -0.15837
 C548 C 0.50830 0.64968 -0.27007
 N549 N 0.52450 0.65391 -0.22689
 N550 N 0.52549 0.63716 -0.19872
 C551 C 0.51032 0.61569 -0.21293
 N552 N 0.49411 0.61147 -0.25607
 N553 N 0.49312 0.62821 -0.28423
 C554 C 0.50759 0.66772 -0.30159
 C555 C 0.50724 0.68290 -0.32865
 C556 C 0.51164 0.59765 -0.18358
 C557 C 0.51276 0.58244 -0.15945
 C558 C 0.34683 -0.13847 -0.26900
 N559 N 0.36369 -0.14061 -0.24368
 N560 N 0.38074 -0.12339 -0.21476
 C561 C 0.38143 -0.10351 -0.21030
 N562 N 0.36455 -0.10137 -0.23559
 N563 N 0.34751 -0.11860 -0.26451
 C564 C 0.32869 -0.15690 -0.30114
 C565 C 0.31358 -0.17235 -0.32865
 C566 C 0.39995 -0.08485 -0.18009
 C567 C 0.41556 -0.06910 -0.15519
 C568 C 0.50880 -0.14167 0.26917
 N569 N 0.49251 -0.13654 0.27875
 N570 N 0.49346 -0.11889 0.25013
 C571 C 0.51074 -0.10584 0.21108
 N572 N 0.52702 -0.11099 0.20145
 N573 N 0.52607 -0.12863 0.23008
 C574 C 0.50808 -0.16032 0.30124
 C575 C 0.50769 -0.17580 0.32875
 C576 C 0.51201 -0.08656 0.18143
 C577 C 0.51306 -0.07027 0.15721
 C578 C 0.34999 0.49190 0.26361
 N579 N 0.34568 0.47518 0.22238
 N580 N 0.36237 0.47413 0.19424
 C581 C 0.38388 0.48976 0.20650
 N582 N 0.38818 0.50649 0.24768
 N583 N 0.37149 0.50754 0.27583
 C584 C 0.33203 0.49268 0.29521
 C585 C 0.31692 0.49310 0.32236
 C586 C 0.40187 0.48838 0.17728
 C587 C 0.41706 0.48720 0.15334
 C588 C 1.13854 0.65317 0.26998
 N589 N 1.14061 0.63615 0.24577
 N590 N 1.12344 0.61916 0.21655
 C591 C 1.10368 0.61867 0.21065
 N592 N 1.10161 0.63569 0.23482
 N593 N 1.11878 0.65269 0.26404
 C594 C 1.15690 0.67126 0.30245
 C595 C 1.17230 0.68633 0.33020
 C596 C 1.08506 0.60018 0.18021
 C597 C 1.06934 0.58458 0.15515
 C598 C 0.49193 0.14098 0.27406
 N599 N 0.50588 0.13352 0.29211
 N600 N 0.50503 0.11594 0.26355
 C601 C 0.49019 0.10528 0.21610
 N602 N 0.47625 0.11275 0.19801
 N603 N 0.47710 0.13033 0.22657
 C604 C 0.49247 0.15956 0.30583
 C605 C 0.49269 0.17498 0.33300
 C606 C 0.48898 0.08609 0.18622
 C607 C 0.48790 0.06987 0.16159
 C608 C 0.64946 0.50803 0.26973
 N609 N 0.62796 0.49322 0.28497
 N610 N 0.61126 0.49411 0.25618
 C611 C 0.61556 0.50984 0.21131
 N612 N 0.63705 0.52464 0.19603
 N613 N 0.65376 0.52375 0.22482
 C614 C 0.66745 0.50743 0.30182
 C615 C 0.68261 0.50715 0.32927
 C616 C 0.59758 0.51106 0.18126
 C617 C 0.58241 0.51213 0.15658
 C618 C 0.85950 0.35132 0.27168
 N619 N 0.87028 0.34713 0.22467
 N620 N 0.88787 0.36387 0.19598
 C621 C 0.89523 0.38529 0.21347
 N622 N 0.88444 0.38947 0.26045
 N623 N 0.86684 0.37274 0.28914
 C624 C 0.84088 0.33327 0.30357
 C625 C 0.82542 0.31806 0.33082
 C626 C 0.91443 0.40329 0.18341
 C627 C 0.93064 0.41845 0.15862
   
