data_POSCAR
  _audit_creation_date              2014-09-24
  _audit_creation_method            'ToBaCCo'
  _symmetry_space_group_name_H-M    'P1'
  _symmetry_Int_Tables_number       1
  _symmetry_cell_setting            triclinic
  loop_
  _symmetry_equiv_pos_as_xyz
 x,y,z
_cell_length_a 26.3588
_cell_length_b 9.8231
_cell_length_c 9.1569
_cell_angle_alpha 91.113300
_cell_angle_beta 90.450500
_cell_angle_gamma 95.499700
loop_
  _atom_site_label
  _atom_site_type_symbol
  _atom_site_fract_x
  _atom_site_fract_y
  _atom_site_fract_z
C1 C 0.84377 0.12967 0.35966
 C2 C 0.86439 0.08835 0.48969
 C3 C 0.84394 0.11388 0.62621
 C4 C 0.79603 0.16629 0.63314
 C5 C 0.77226 0.20198 0.50026
 C6 C 0.79590 0.18179 0.36237
 C7 C 0.77237 0.22032 0.23377
 C8 C 0.72603 0.27696 0.23868
 C9 C 0.70290 0.30161 0.37263
 C10 C 0.72634 0.26553 0.50571
 C11 C 0.77269 0.19117 0.76713
 C12 C 0.72662 0.24979 0.77214
 C13 C 0.70323 0.28933 0.64370
 C14 C 0.65631 0.34745 0.64680
 C15 C 0.63570 0.38646 0.51423
 C16 C 0.65640 0.35980 0.37824
 H17 H 0.78966 0.20651 0.12852
 H18 H 0.70892 0.30431 0.13701
 H19 H 0.78980 0.16479 0.86907
 H20 H 0.70964 0.26559 0.87747
 H21 H 0.90023 0.04212 0.48522
 H22 H 0.59988 0.43147 0.51470
 C23 C 0.16050 0.86564 0.65023
 C24 C 0.14085 0.91301 0.52018
 C25 C 0.15999 0.88302 0.38275
 C26 C 0.20531 0.81886 0.37473
 C27 C 0.22810 0.77637 0.50624
 C28 C 0.20530 0.79829 0.64451
 C29 C 0.22772 0.75223 0.77158
 C30 C 0.27290 0.68902 0.76480
 C31 C 0.29606 0.66574 0.63009
 C32 C 0.27295 0.70829 0.49882
 C33 C 0.22813 0.79543 0.23997
 C34 C 0.27357 0.73431 0.23328
 C35 C 0.29622 0.68986 0.36060
 C36 C 0.34208 0.62862 0.35509
 C37 C 0.36204 0.58013 0.48241
 C38 C 0.34299 0.60743 0.62052
 H39 H 0.21089 0.76745 0.87734
 H40 H 0.28936 0.65764 0.86575
 H41 H 0.21161 0.82756 0.13931
 H42 H 0.29068 0.72073 0.12763
 H43 H 0.10607 0.96279 0.52337
 H44 H 0.39702 0.53032 0.47485
 C45 C 0.14329 0.29483 -0.36106
 C46 C 0.12101 0.33370 -0.49377
 C47 C 0.14295 0.30988 -0.63141
 C48 C 0.19557 0.29006 -0.63313
 C49 C 0.22204 0.27197 -0.49971
 C50 C 0.19596 0.27390 -0.36359
 C51 C 0.22380 0.25853 -0.23441
 C52 C 0.27466 0.23327 -0.23773
 C53 C 0.30106 0.22933 -0.36973
 C54 C 0.27453 0.24750 -0.50289
 C55 C 0.22277 0.29121 -0.76441
 C56 C 0.27369 0.26626 -0.76757
 C57 C 0.30089 0.24604 -0.63855
 C58 C 0.35326 0.22108 -0.63977
 C59 C 0.37425 0.17692 -0.50868
 C60 C 0.35313 0.20527 -0.37287
 H61 H 0.20734 0.26958 -0.12800
 H62 H 0.29249 0.21253 -0.13510
 H63 H 0.20525 0.31446 -0.86680
 H64 H 0.29047 0.25840 -0.87388
 H65 H 0.08198 0.35899 -0.49216
 H66 H 0.41246 0.14535 -0.50897
 C67 C -0.14349 0.72564 -0.63464
 C68 C -0.12209 0.68556 -0.50236
 C69 C -0.14419 0.71176 -0.36733
 C70 C -0.19689 0.73017 -0.36668
 C71 C -0.22347 0.74226 -0.50149
 C72 C -0.19652 0.74255 -0.63601
 C73 C -0.22375 0.75525 -0.76677
 C74 C -0.27548 0.77208 -0.76662
 C75 C -0.30317 0.77166 -0.63630
 C76 C -0.27666 0.75920 -0.50124
 C77 C -0.22400 0.73298 -0.23589
 C78 C -0.27568 0.75007 -0.23543
 C79 C -0.30329 0.76001 -0.36616
 C80 C -0.35625 0.77653 -0.36587
 C81 C -0.37850 0.81301 -0.49958
 C82 C -0.35611 0.78915 -0.63661
 H83 H -0.20607 0.74773 -0.87192
 H84 H -0.29313 0.78955 -0.87044
 H85 H -0.20599 0.71761 -0.13209
 H86 H -0.29314 0.75971 -0.13018
 H87 H -0.08325 0.65863 -0.50149
 H88 H -0.41768 0.83682 -0.49890
 O89 O -0.06089 0.75621 0.28071
 O90 O -0.12273 0.84445 0.14661
 C91 C -0.10826 0.77375 0.25567
 O92 O 0.06102 1.29127 0.26714
 O93 O 0.12371 1.19448 0.14265
 C94 C 0.10870 1.27120 0.24889
 O95 O -0.07713 1.19376 0.27323
 O96 O -0.13239 1.05561 0.12833
 C97 C -0.12228 1.13417 0.24252
 O98 O 0.07877 0.82902 0.28495
 O99 O 0.13284 0.97747 0.15401
 C100 C 0.12314 0.89293 0.26066
 Zr101 Zr 0.00644 0.85518 0.19725
 O102 O 0.00722 0.88801 0.42532
 O103 O 0.01161 0.64382 0.22526
 Zr104 Zr -0.00655 1.19681 0.16574
 O105 O -0.01096 1.29866 0.37034
 O106 O -0.01576 1.39307 0.08604
 O107 O -0.04381 1.00471 0.21084
 O108 O 0.04235 1.05011 0.21321
 O109 O 0.08130 0.80005 -0.24777
 O110 O 0.13423 0.96054 -0.12027
 C111 C 0.12533 0.86838 -0.22391
 O112 O -0.07630 1.17061 -0.28670
 O113 O -0.13135 1.03761 -0.14377
 C114 C -0.12101 1.11088 -0.25841
 O115 O 0.06171 1.27145 -0.26530
 O116 O 0.12395 1.17576 -0.13965
 C117 C 0.10908 1.25040 -0.24585
 O118 O -0.05939 0.74307 -0.26840
 O119 O -0.12245 0.82830 -0.13518
 C120 C -0.10731 0.75708 -0.24478
 Zr121 Zr 0.00859 0.82061 -0.15702
 O122 O 0.01438 0.72568 -0.36454
 O123 O 0.01437 0.62119 -0.08131
 Zr124 Zr -0.00510 1.16188 -0.18823
 O125 O -0.00714 1.13480 -0.41724
 O126 O -0.01776 1.36977 -0.20544
 Zr127 Zr -0.07633 0.96762 0.00118
 Zr128 Zr 0.07833 1.05018 0.00780
 O129 O 0.04431 1.01282 -0.19967
 O130 O -0.04159 0.96560 -0.20558
 O131 O 0.05609 0.83804 0.02430
 O132 O -0.05348 1.17780 -0.01461
 O133 O -0.03827 0.78953 0.01876
 O134 O 0.04089 1.23039 -0.01111
 H135 H 0.06107 1.06259 0.30719
 H136 H -0.08141 1.23830 -0.02172
 H137 H 0.06396 1.02080 -0.29000
 H138 H -0.05998 0.70134 0.02119
 H139 H -0.04867 1.41886 0.12419
 H140 H -0.01912 1.38830 -0.31133
 H141 H 0.02763 1.13013 -0.45533
 H142 H 0.01496 0.62594 -0.35082
 H143 H 0.04926 0.59819 -0.10400
 H144 H 0.04332 0.61945 0.17833
 H145 H -0.02634 0.91605 0.45452
 H146 H -0.01587 1.39603 0.35412
 O147 O 0.43588 0.24390 0.27398
 O148 O 0.37519 0.33756 0.14082
 C149 C 0.38885 0.26568 0.24981
 O150 O 0.56225 0.77503 0.25939
 O151 O 0.62427 0.67343 0.13675
 C152 C 0.60976 0.75177 0.24246
 O153 O 0.42251 0.69173 0.26057
 O154 O 0.36737 0.54667 0.12172
 C155 C 0.37755 0.63023 0.23161
 O156 O 0.57583 0.30878 0.27710
 O157 O 0.63119 0.45566 0.14836
 C158 C 0.62056 0.37085 0.25421
 Zr159 Zr 0.50385 0.34211 0.19301
 O160 O 0.50362 0.38605 0.41935
 O161 O 0.50681 0.13203 0.23462
 Zr162 Zr 0.49389 0.68413 0.15821
 O163 O 0.48988 0.78503 0.36330
 O164 O 0.48716 0.88088 0.07746
 O165 O 0.45490 0.49453 0.20465
 O166 O 0.54159 0.53478 0.20691
 O167 O 0.57801 0.28811 -0.25934
 O168 O 0.63311 0.43675 -0.12522
 C169 C 0.62305 0.34972 -0.23328
 O170 O 0.42399 0.65601 -0.29604
 O171 O 0.36798 0.52996 -0.14972
 C172 C 0.37870 0.60088 -0.26577
 O173 O 0.56238 0.75503 -0.26997
 O174 O 0.62405 0.65539 -0.14589
 C175 C 0.60953 0.73184 -0.25107
 O176 O 0.43850 0.23690 -0.27869
 O177 O 0.37600 0.31831 -0.14043
 C178 C 0.39065 0.24915 -0.25214
 Zr179 Zr 0.50629 0.30409 -0.16108
 O180 O 0.50532 0.16322 -0.34021
 O181 O 0.51351 0.10977 -0.07500
 Zr182 Zr 0.49505 0.64666 -0.19549
 O183 O 0.49303 0.62144 -0.42450
 O184 O 0.48345 0.85542 -0.21295
 Zr185 Zr 0.42258 0.45697 -0.00525
 Zr186 Zr 0.57763 0.53125 0.00139
 O187 O 0.54340 0.49476 -0.20703
 O188 O 0.45740 0.45170 -0.21200
 O189 O 0.55340 0.32017 0.02063
 O190 O 0.44694 0.66619 -0.02232
 O191 O 0.45922 0.27707 0.01440
 O192 O 0.54150 0.71366 -0.01874
 H193 H 0.56063 0.54635 0.30039
 H194 H 0.41964 0.72856 -0.03021
 H195 H 0.56278 0.50495 -0.29770
 H196 H 0.43699 0.18970 0.01645
 H197 H 0.45436 0.90905 0.11391
 H198 H 0.48260 0.87441 -0.31881
 H199 H 0.52791 0.61895 -0.46250
 H200 H 0.51685 0.21054 -0.42962
 H201 H 0.54747 0.08400 -0.10444
 H202 H 0.53686 0.10092 0.18426
 H203 H 0.46865 0.40162 0.44927
 H204 H 0.48638 0.88321 0.34730
   
