data_POSCAR
  _audit_creation_date              2014-09-24
  _audit_creation_method            'ToBaCCo'
  _symmetry_space_group_name_H-M    'P1'
  _symmetry_Int_Tables_number       1
  _symmetry_cell_setting            triclinic
  loop_
  _symmetry_equiv_pos_as_xyz
 x,y,z
_cell_length_a 33.3787
_cell_length_b 33.3253
_cell_length_c 45.2369
_cell_angle_alpha 90.154600
_cell_angle_beta 89.456900
_cell_angle_gamma 89.922900
loop_
  _atom_site_label
  _atom_site_type_symbol
  _atom_site_fract_x
  _atom_site_fract_y
  _atom_site_fract_z
C1 C -0.00039 0.50156 0.98599
 C2 C 0.00032 0.50161 1.01612
 C3 C -0.00172 0.53952 1.03345
 C4 C 0.00316 0.46376 1.03327
 C5 C -0.00318 0.46365 0.96875
 C6 C 0.00162 0.53938 0.96871
 C7 C 0.02770 0.54780 1.05458
 C8 C 0.02639 0.58349 1.07084
 C9 C -0.00456 0.61121 1.06631
 C10 C -0.03440 0.60282 1.04558
 C11 C -0.03309 0.56707 1.02935
 C12 C 0.03432 0.43619 1.02788
 C13 C 0.03631 0.40047 1.04394
 C14 C 0.00744 0.39214 1.06572
 C15 C -0.02324 0.41982 1.07154
 C16 C -0.02529 0.45551 1.05549
 C17 C -0.03434 0.43617 0.97405
 C18 C -0.03636 0.40046 0.95784
 C19 C -0.00751 0.39207 0.93600
 C20 C 0.02318 0.41964 0.93029
 C21 C 0.02526 0.45532 0.94649
 C22 C -0.02776 0.54759 0.94755
 C23 C -0.02636 0.58313 0.93127
 C24 C 0.00458 0.61072 0.93582
 C25 C 0.03433 0.60248 0.95656
 C26 C 0.03299 0.56689 0.97284
 H27 H 0.05197 0.52682 1.05819
 H28 H 0.04965 0.58942 1.08684
 H29 H -0.05869 0.62381 1.04190
 H30 H -0.05650 0.56086 1.01357
 H31 H 0.05701 0.44236 1.01124
 H32 H 0.06030 0.37935 1.03936
 H33 H -0.04939 0.47648 1.06010
 H34 H -0.05702 0.44240 0.99072
 H35 H -0.06036 0.37942 0.96233
 H36 H 0.04558 0.41349 0.91338
 H37 H 0.04935 0.47622 0.94195
 H38 H -0.05203 0.52666 0.94391
 H39 H -0.04947 0.58916 0.91521
 H40 H 0.05852 0.62353 0.96014
 H41 H 0.05638 0.56076 0.98864
 H42 H -0.04567 0.41372 1.08840
 C43 C 0.50016 -0.00202 0.48466
 C44 C 0.49991 -0.00199 0.51481
 C45 C 0.46196 -0.00434 0.53216
 C46 C 0.53758 0.00051 0.53196
 C47 C 0.53811 -0.00441 0.46730
 C48 C 0.46248 0.00044 0.46751
 C49 C 0.45353 0.02469 0.55391
 C50 C 0.41778 0.02308 0.57017
 C51 C 0.39021 -0.00771 0.56502
 C52 C 0.39870 -0.03715 0.54371
 C53 C 0.43449 -0.03561 0.52745
 C54 C 0.56500 0.03188 0.52721
 C55 C 0.60048 0.03366 0.54335
 C56 C 0.60868 0.00435 0.56458
 C57 C 0.58117 -0.02657 0.56976
 C58 C 0.54574 -0.02840 0.55362
 C59 C 0.56566 -0.03567 0.47193
 C60 C 0.60146 -0.03726 0.45566
 C61 C 0.60987 -0.00787 0.43443
 C62 C 0.58222 0.02292 0.42937
 C63 C 0.54647 0.02456 0.44563
 C64 C 0.45440 -0.02851 0.44577
 C65 C 0.41896 -0.02671 0.42964
 C66 C 0.39137 0.00423 0.43491
 C67 C 0.39950 0.03358 0.45622
 C68 C 0.43498 0.03183 0.47236
 H69 H 0.47442 0.04888 0.55799
 H70 H 0.41156 0.04595 0.58666
 H71 H 0.37766 -0.06123 0.53967
 H72 H 0.44079 -0.05872 0.51118
 H73 H 0.55890 0.05492 0.51101
 H74 H 0.62146 0.05783 0.53928
 H75 H 0.52487 -0.05266 0.55775
 H76 H 0.55943 -0.05875 0.48813
 H77 H 0.62256 -0.06133 0.45964
 H78 H 0.58839 0.04575 0.41294
 H79 H 0.52551 0.04875 0.44162
 H80 H 0.47533 -0.05278 0.44158
 H81 H 0.41301 -0.04950 0.41314
 H82 H 0.37845 0.05777 0.46035
 H83 H 0.44102 0.05490 0.48861
 H84 H 0.58718 -0.04932 0.58620
 C85 C 0.08545 0.00447 0.25996
 H86 H 0.08706 0.00546 0.23607
 C87 C 0.12054 0.00592 0.27649
 H88 H 0.14934 0.00787 0.26534
 C89 C 0.04595 0.00111 0.30375
 H90 H 0.01684 -0.00018 0.31432
 C91 C 0.08032 0.00251 0.32112
 H92 H 0.07760 0.00186 0.34500
 N93 N 0.04914 0.00160 0.27373
 C94 C -0.02928 -0.05339 0.20850
 H95 H -0.05327 -0.03154 0.20799
 C96 C -0.03155 -0.08811 0.19123
 H97 H -0.05727 -0.09303 0.17725
 C98 C 0.03328 -0.07414 0.22770
 H99 H 0.05815 -0.06899 0.24231
 C100 C 0.03218 -0.10925 0.21081
 H101 H 0.05641 -0.13080 0.21223
 Zn102 Zn 0.00320 0.00028 0.24951
 N103 N 0.00299 -0.04686 0.22604
 C104 C 0.00464 0.04389 0.19538
 N105 N 0.00482 0.04663 0.22542
 C106 C 0.00754 0.08279 0.23930
 C107 C 0.00912 0.11818 0.22289
 C108 C 0.00618 0.07858 0.17813
 C109 C -0.05091 -0.03277 0.29036
 C110 C -0.08576 -0.03522 0.30761
 C111 C -0.10658 0.02888 0.28813
 C112 C -0.07136 0.03015 0.27125
 N113 N -0.04417 -0.00023 0.27289
 H114 H 0.00345 0.01489 0.18473
 H115 H 0.00828 0.08405 0.26319
 H116 H 0.01093 0.14686 0.23413
 H117 H 0.00576 0.07621 0.15424
 H118 H -0.02912 -0.05683 0.29084
 H119 H -0.09083 -0.06115 0.32154
 H120 H -0.12805 0.05320 0.28675
 H121 H -0.06603 0.05525 0.25670
 C122 C -0.00049 -0.11624 0.19238
 C123 C 0.11793 0.00478 0.30734
 C124 C -0.11378 -0.00406 0.30650
 C125 C 0.00828 0.11604 0.19204
 C126 C -0.00765 0.08336 0.76049
 H127 H -0.00836 0.08463 0.73660
 C128 C -0.00930 0.11874 0.77706
 H129 H -0.01113 0.14744 0.76594
 C130 C -0.00475 0.04442 0.80424
 H131 H -0.00354 0.01542 0.81478
 C132 C -0.00636 0.07910 0.82165
 H133 H -0.00597 0.07671 0.84552
 N134 N -0.00489 0.04719 0.77422
 C135 C 0.05106 -0.03232 0.70902
 H136 H 0.02934 -0.05637 0.70846
 C137 C 0.08591 -0.03480 0.69176
 H138 H 0.09106 -0.06075 0.67775
 C139 C 0.07134 0.03064 0.72831
 H140 H 0.06594 0.05576 0.74293
 C141 C 0.10657 0.02934 0.71143
 H142 H 0.12797 0.05366 0.71288
 Zn143 Zn -0.00313 0.00081 0.74997
 N144 N 0.04423 0.00025 0.72658
 C145 C -0.04590 0.00152 0.69574
 N146 N -0.04909 0.00207 0.72576
 C147 C -0.08540 0.00498 0.73955
 C148 C -0.12050 0.00638 0.72302
 C149 C -0.08028 0.00288 0.67838
 C150 C 0.02953 -0.05272 0.79083
 C151 C 0.03185 -0.08729 0.80812
 C152 C -0.03190 -0.10847 0.78860
 C153 C -0.03305 -0.07351 0.77168
 N154 N -0.00278 -0.04627 0.77332
 H155 H -0.01680 0.00021 0.68516
 H156 H -0.08702 0.00602 0.76343
 H157 H -0.14930 0.00836 0.73418
 H158 H -0.07756 0.00218 0.65450
 H159 H 0.05349 -0.03090 0.79131
 H160 H 0.05758 -0.09213 0.82209
 H161 H -0.05613 -0.12997 0.78723
 H162 H -0.05796 -0.06841 0.75711
 C163 C 0.11385 -0.00363 0.69296
 C164 C -0.00849 0.11657 0.80790
 C165 C 0.00079 -0.11536 0.80702
 C166 C -0.11789 0.00517 0.69217
 C167 C -0.03145 -0.22738 0.11645
 C168 C 0.00490 -0.24555 0.09953
 C169 C -0.00559 -0.28693 0.11232
 C170 C -0.04195 -0.26937 0.12896
 C171 C -0.00444 -0.21997 0.14322
 C172 C -0.01492 -0.26136 0.15600
 C173 C 0.03191 -0.23755 0.12657
 C174 C 0.02142 -0.27949 0.13909
 C175 C -0.00577 -0.32433 0.09525
 C176 C -0.00542 -0.35522 0.08132
 C177 C -0.00342 -0.18282 0.16057
 C178 C -0.00224 -0.15239 0.17499
 H179 H -0.05318 -0.20552 0.10733
 H180 H 0.01304 -0.23947 0.07612
 H181 H -0.07232 -0.28287 0.12974
 H182 H -0.02306 -0.26744 0.17941
 H183 H 0.06229 -0.22407 0.12578
 H184 H 0.04315 -0.30133 0.14822
 C185 C 0.04147 0.23045 0.11932
 C186 C 0.00709 0.24472 0.09907
 C187 C 0.01033 0.28686 0.11269
 C188 C 0.04470 0.27320 0.13266
 C189 C 0.01032 0.21984 0.14326
 C190 C 0.01355 0.26199 0.15686
 C191 C -0.02404 0.23352 0.12328
 C192 C -0.02081 0.27622 0.13663
 C193 C 0.00989 0.32430 0.09580
 C194 C 0.00904 0.35519 0.08203
 C195 C 0.00996 0.18265 0.16044
 C196 C 0.00934 0.15221 0.17475
 H197 H 0.06707 0.21120 0.11239
 H198 H 0.00444 0.23804 0.07512
 H199 H 0.07296 0.28994 0.13633
 H200 H 0.01620 0.26868 0.18082
 H201 H -0.05231 0.21680 0.11961
 H202 H -0.04641 0.29546 0.14357
 C203 C 0.25764 -0.02508 0.65475
 C204 C 0.26358 -0.04664 0.62462
 C205 C 0.28484 -0.00910 0.61266
 C206 C 0.27947 0.01244 0.64252
 C207 C 0.21779 -0.00790 0.64367
 C208 C 0.23907 0.02962 0.63170
 C209 C 0.22312 -0.02944 0.61382
 C210 C 0.24499 0.00809 0.60159
 C211 C 0.32229 -0.00926 0.59553
 C212 C 0.35321 -0.00886 0.58156
 C213 C 0.18058 -0.00682 0.66108
 C214 C 0.15009 -0.00555 0.67554
 H215 H 0.26243 -0.03871 0.67680
 H216 H 0.27408 -0.07800 0.62151
 H217 H 0.30306 0.02965 0.65413
 H218 H 0.22859 0.06099 0.63481
 H219 H 0.19952 -0.04665 0.60222
 H220 H 0.24020 0.02172 0.57954
 C221 C -0.25544 0.03672 0.64762
 C222 C -0.25770 0.04242 0.61368
 C223 C -0.28703 0.00702 0.61205
 C224 C -0.28535 0.00131 0.64571
 C225 C -0.22070 0.00701 0.64297
 C226 C -0.25005 -0.02838 0.64132
 C227 C -0.22236 0.01271 0.60931
 C228 C -0.25228 -0.02269 0.60741
 C229 C -0.32409 0.00661 0.59497
 C230 C -0.35469 0.00583 0.58106
 C231 C -0.18388 0.00668 0.66033
 C232 C -0.15373 0.00613 0.67477
 H233 H -0.25633 0.06114 0.66435
 H234 H -0.26128 0.07153 0.60212
 H235 H -0.31166 -0.00337 0.66049
 H236 H -0.24650 -0.05750 0.65287
 H237 H -0.19604 0.01739 0.59454
 H238 H -0.25140 -0.04712 0.59068
 C239 C 0.00553 -0.21978 0.89054
 C240 C -0.02719 -0.25269 0.88999
 C241 C 0.00581 -0.28479 0.88785
 C242 C 0.03855 -0.25246 0.88868
 C243 C 0.00469 -0.21836 0.85661
 C244 C 0.03769 -0.25044 0.85446
 C245 C -0.02803 -0.25071 0.85581
 C246 C 0.00496 -0.28335 0.85392
 C247 C 0.00597 -0.32191 0.90511
 C248 C 0.00561 -0.35256 0.91918
 C249 C 0.00369 -0.18149 0.83908
 C250 C 0.00253 -0.15128 0.82453
 H251 H 0.00575 -0.19322 0.90540
 H252 H -0.05387 -0.25403 0.90480
 H253 H 0.06593 -0.25361 0.90239
 H254 H 0.06436 -0.24910 0.83965
 H255 H -0.05542 -0.24959 0.84210
 H256 H 0.00474 -0.30991 0.83905
 C257 C 0.00749 0.26004 0.84661
 C258 C -0.03044 0.28222 0.85805
 C259 C -0.01057 0.28704 0.88834
 C260 C 0.02736 0.26542 0.87716
 C261 C -0.01059 0.22020 0.85729
 C262 C 0.00928 0.22502 0.88758
 C263 C -0.04854 0.24179 0.86846
 C264 C -0.02865 0.24721 0.89904
 C265 C -0.01009 0.32437 0.90550
 C266 C -0.00919 0.35518 0.91947
 C267 C -0.01023 0.18311 0.83985
 C268 C -0.00960 0.15271 0.82536
 H269 H 0.02235 0.26491 0.82486
 H270 H -0.04677 0.30615 0.84610
 H271 H 0.05857 0.27555 0.88092
 H272 H 0.02562 0.20109 0.89953
 H273 H -0.07974 0.23165 0.86469
 H274 H -0.04351 0.24236 0.92079
 C275 C -0.22455 -0.03375 0.38360
 C276 C -0.24386 0.00313 0.39908
 C277 C -0.28475 -0.00936 0.38678
 C278 C -0.26605 -0.04626 0.37157
 C279 C -0.21771 -0.00823 0.35578
 C280 C -0.25860 -0.02072 0.34348
 C281 C -0.23643 0.02865 0.37100
 C282 C -0.27787 0.01615 0.35896
 C283 C -0.32221 -0.00949 0.40391
 C284 C -0.35312 -0.00905 0.41788
 C285 C -0.18050 -0.00718 0.33837
 C286 C -0.15002 -0.00594 0.32392
 H287 H -0.20220 -0.05426 0.39353
 H288 H -0.23823 0.01293 0.42214
 H289 H -0.27866 -0.07706 0.37200
 H290 H -0.26424 -0.03051 0.32042
 H291 H -0.22385 0.05946 0.37057
 H292 H -0.30021 0.03667 0.34901
 C293 C 0.22295 -0.00356 0.38958
 C294 C 0.26017 -0.03006 0.38302
 C295 C 0.28707 0.00680 0.38745
 C296 C 0.25043 0.03331 0.39428
 C297 C 0.22073 0.00673 0.35655
 C298 C 0.24762 0.04360 0.36097
 C299 C 0.25738 -0.01978 0.34974
 C300 C 0.28484 0.01708 0.35442
 C301 C 0.32414 0.00643 0.40453
 C302 C 0.35473 0.00567 0.41844
 C303 C 0.18391 0.00636 0.33918
 C304 C 0.15376 0.00577 0.32475
 H305 H 0.19709 -0.01205 0.40383
 H306 H 0.26574 -0.06036 0.39228
 H307 H 0.24801 0.05514 0.41279
 H308 H 0.24203 0.07389 0.35171
 H309 H 0.25983 -0.04162 0.33123
 H310 H 0.31069 0.02557 0.34016
   
