data_POSCAR
  _audit_creation_date              2014-09-24
  _audit_creation_method            'ToBaCCo'
  _symmetry_space_group_name_H-M    'P1'
  _symmetry_Int_Tables_number       1
  _symmetry_cell_setting            triclinic
  loop_
  _symmetry_equiv_pos_as_xyz
 x,y,z
_cell_length_a 26.2738
_cell_length_b 26.0119
_cell_length_c 25.9241
_cell_angle_alpha 89.778400
_cell_angle_beta 89.977500
_cell_angle_gamma 89.855300
loop_
  _atom_site_label
  _atom_site_type_symbol
  _atom_site_fract_x
  _atom_site_fract_y
  _atom_site_fract_z
N1 N 0.16163 1.26703 0.12519
 N2 N 0.12710 1.26739 0.16193
 C3 C 0.09470 1.30678 0.15355
 C4 C 0.10946 1.33211 0.10903
 C5 C 0.15241 1.30599 0.09216
 H6 H 0.06174 1.31547 0.17698
 H7 H 0.17437 1.31336 0.05768
 Cu8 Cu 0.12583 1.21420 0.21518
 Cu9 Cu 0.21273 1.21296 0.12003
 Cu10 Cu 0.21416 1.12074 0.21590
 N11 N 0.12786 1.16212 0.26951
 N12 N 0.16311 1.12612 0.27002
 C13 C 0.15425 1.09363 0.30951
 C14 C 0.11079 1.11003 0.33506
 C15 C 0.09536 1.15377 0.30887
 H16 H 0.17671 1.05966 0.31748
 H17 H 0.06181 1.17658 0.31685
 N18 N 0.26758 1.12543 0.16268
 N19 N 0.26688 1.16059 0.12580
 C20 C 0.30633 1.15222 0.09368
 C21 C 0.33295 1.10957 0.11114
 C22 C 0.30752 1.09382 0.15501
 H23 H 0.31410 1.17459 0.05939
 H24 H 0.31658 1.06056 0.17844
 H25 H 0.17290 1.15640 0.15835
 H26 H 0.21512 1.19824 0.19810
 N27 N 0.83474 0.72765 0.13348
 N28 N 0.87044 0.72859 0.16901
 C29 C 0.90256 0.68891 0.16125
 C30 C 0.88625 0.66189 0.11858
 C31 C 0.84294 0.68749 0.10195
 H32 H 0.93643 0.68117 0.18368
 H33 H 0.82030 0.67908 0.06824
 Cu34 Cu 0.87351 0.78360 0.21986
 Cu35 Cu 0.78413 0.78205 0.12723
 Cu36 Cu 0.78677 0.87879 0.21766
 N37 N 0.87270 0.83733 0.27215
 N38 N 0.83815 0.87402 0.27151
 C39 C 0.84759 0.90723 0.30999
 C40 C 0.89068 0.89056 0.33610
 C41 C 0.90532 0.84595 0.31125
 H42 H 0.82564 0.94168 0.31703
 H43 H 0.93829 0.82256 0.32011
 N44 N 0.73230 0.87286 0.16575
 N45 N 0.73116 0.83570 0.13122
 C46 C 0.69118 0.84341 0.09960
 C47 C 0.66618 0.88759 0.11472
 C48 C 0.69310 0.90520 0.15699
 H49 H 0.68183 0.81979 0.06673
 H50 H 0.68575 0.93975 0.17876
 H51 H 0.82596 0.83961 0.16121
 H52 H 0.78408 0.80076 0.20458
 N53 N 0.83616 1.26788 -0.12625
 N54 N 0.87107 1.26781 -0.16263
 C55 C 0.90324 1.30722 -0.15458
 C56 C 0.88786 1.33307 -0.11079
 C57 C 0.84497 1.30715 -0.09383
 H58 H 0.93656 1.31553 -0.17762
 H59 H 0.82292 1.31488 -0.05952
 Cu60 Cu 0.87324 1.21404 -0.21483
 Cu61 Cu 0.78551 1.21367 -0.12055
 Cu62 Cu 0.78666 1.11929 -0.21358
 N63 N 0.87207 1.16137 -0.26816
 N64 N 0.83756 1.12482 -0.26787
 C65 C 0.84683 1.09217 -0.30692
 C66 C 0.88979 1.10906 -0.33302
 C67 C 0.90450 1.15322 -0.30759
 H68 H 0.82495 1.05786 -0.31429
 H69 H 0.93747 1.17654 -0.31620
 N70 N 0.73280 1.12437 -0.16083
 N71 N 0.73226 1.16060 -0.12529
 C72 C 0.69252 1.15253 -0.09346
 C73 C 0.66708 1.10906 -0.10948
 C74 C 0.69347 1.09228 -0.15250
 H75 H 0.68360 1.17543 -0.05992
 H76 H 0.68561 1.05846 -0.17517
 H77 H 0.82672 1.15681 -0.15677
 H78 H 0.78411 1.19700 -0.19831
 N79 N 0.16763 0.72713 -0.12962
 N80 N 0.13151 0.72893 -0.16470
 C81 C 0.09793 0.69093 -0.15542
 C82 C 0.11393 0.66403 -0.11212
 C83 C 0.15827 0.68798 -0.09691
 H84 H 0.06367 0.68449 -0.17749
 H85 H 0.18095 0.67871 -0.06332
 Cu86 Cu 0.13043 0.78290 -0.21685
 Cu87 Cu 0.22149 0.77842 -0.12578
 Cu88 Cu 0.21374 0.87985 -0.21259
 N89 N 0.13064 0.83651 -0.26950
 N90 N 0.16380 0.87423 -0.26773
 C91 C 0.15409 0.90773 -0.30618
 C92 C 0.11222 0.89014 -0.33344
 C93 C 0.09861 0.84472 -0.30928
 H94 H 0.17496 0.94296 -0.31238
 H95 H 0.06657 0.82057 -0.31896
 N96 N 0.26853 0.87348 -0.16109
 N97 N 0.27166 0.83471 -0.12820
 C98 C 0.31141 0.84260 -0.09641
 C99 C 0.33435 0.88853 -0.11008
 C100 C 0.30643 0.90682 -0.15133
 H101 H 0.32189 0.81752 -0.06482
 H102 H 0.31246 0.94271 -0.17158
 H103 H 0.17762 0.83596 -0.15590
 H104 H 0.21981 0.80157 -0.20240
 C105 C 0.50029 0.99829 0.00151
 C106 C -0.00047 0.49930 1.00091
 C107 C 1.00078 0.00045 0.50128
 C108 C 0.08328 0.37280 1.08551
 C109 C 0.09747 0.39341 1.04017
 C110 C 0.06746 0.43246 1.01182
 C111 C 0.03319 0.46417 1.03348
 H112 H 0.13049 0.37863 1.02015
 H113 H 0.07399 0.43495 0.97062
 H114 H 0.04893 0.38606 1.10430
 H115 H 0.02717 0.46294 1.07478
 C116 C -0.08644 0.61884 1.09396
 C117 C -0.10324 0.59636 1.05073
 C118 C -0.07503 0.55699 1.02104
 C119 C -0.03171 0.53387 1.03629
 H120 H -0.13882 0.60898 1.03390
 H121 H -0.09082 0.54765 0.98369
 H122 H -0.05076 0.60754 1.11129
 H123 H -0.01513 0.54347 1.07314
 C124 C -0.08455 0.37560 0.91409
 C125 C -0.09865 0.39510 0.95973
 C126 C -0.06894 0.43364 0.98861
 C127 C -0.03379 0.46477 0.96765
 H128 H -0.13167 0.37974 0.97929
 H129 H -0.07646 0.43624 1.02960
 H130 H -0.05024 0.38876 0.89522
 H131 H -0.02627 0.46334 0.92665
 C132 C 0.08819 0.62201 0.91585
 C133 C 0.04357 0.60240 0.90047
 C134 C 0.01411 0.56368 0.92982
 C135 C 0.03295 0.53423 0.96804
 H136 H 0.02554 0.61735 0.86602
 H137 H -0.02546 0.55958 0.91905
 H138 H 0.10596 0.60898 0.95115
 H139 H 0.07261 0.53755 0.97863
 C140 C 1.08462 0.08651 0.37577
 C141 C 1.09953 0.04179 0.39706
 C142 C 1.06960 0.01309 0.43584
 C143 C 1.03392 0.03386 0.46654
 H144 H 1.13324 0.02247 0.38299
 H145 H 1.07746 -0.02771 0.43898
 H146 H 1.04971 0.10467 0.38837
 H147 H 1.02640 0.07473 0.46476
 C148 C 1.08586 -0.08625 0.62598
 C149 C 1.09903 -0.04028 0.60644
 C150 C 1.06885 -0.01173 0.56761
 C151 C 1.03406 -0.03277 0.53620
 H152 H 1.13147 -0.01999 0.62187
 H153 H 1.07568 0.02926 0.56512
 H154 H 1.05228 -0.10563 0.61192
 H155 H 1.02754 -0.07380 0.53723
 C156 C 0.91701 -0.08574 0.37637
 C157 C 0.90272 -0.04047 0.39657
 C158 C 0.93265 -0.01184 0.43517
 C159 C 0.96785 -0.03279 0.46646
 H160 H 0.86945 -0.02076 0.38181
 H161 H 0.92516 0.02905 0.43772
 H162 H 0.95148 -0.10435 0.38966
 H163 H 0.97494 -0.07375 0.46534
 C164 C 0.91610 0.08576 0.62635
 C165 C 0.90187 0.04079 0.60565
 C166 C 0.93202 0.01240 0.56689
 C167 C 0.96729 0.03352 0.53590
 H168 H 0.86861 0.02105 0.62017
 H169 H 0.92474 -0.02847 0.56408
 H170 H 0.95055 0.10439 0.61328
 H171 H 0.97421 0.07447 0.53732
 C172 C 0.37598 1.08242 0.08675
 C173 C 0.39501 1.09639 0.04082
 C174 C 0.43378 1.06653 0.01237
 C175 C 0.46570 1.03228 0.03403
 H176 H 0.37891 1.12905 0.02061
 H177 H 0.43564 1.07291 -0.02891
 H178 H 0.38986 1.04831 0.10617
 H179 H 0.46508 1.02624 0.07535
 C180 C 0.62422 1.08437 -0.08232
 C181 C 0.60537 1.03872 -0.09655
 C182 C 0.56680 1.00994 -0.06672
 C183 C 0.53463 1.03112 -0.03253
 H184 H 0.62151 1.01899 -0.12937
 H185 H 0.56530 0.96883 -0.07308
 H186 H 0.61032 1.10326 -0.04799
 H187 H 0.53491 1.07227 -0.02652
 C188 C 0.37646 0.91581 -0.08454
 C189 C 0.39686 0.89974 -0.03991
 C190 C 0.43484 0.92947 -0.01053
 C191 C 0.46644 0.96425 -0.03154
 H192 H 0.38234 0.86545 -0.02138
 H193 H 0.43655 0.92237 0.03064
 H194 H 0.38842 0.95177 -0.10173
 H195 H 0.46587 0.97078 -0.07281
 C196 C 0.62335 0.91215 0.08723
 C197 C 0.60456 0.95814 0.10076
 C198 C 0.56608 0.98680 0.07051
 C199 C 0.53438 0.96554 0.03604
 H200 H 0.62065 0.97820 0.13334
 H201 H 0.56432 1.02793 0.07670
 H202 H 0.60942 0.89278 0.05324
 H203 H 0.53493 0.92438 0.03012
   
