data_POSCAR
  _audit_creation_date              2014-09-24
  _audit_creation_method            'ToBaCCo'
  _symmetry_space_group_name_H-M    'P1'
  _symmetry_Int_Tables_number       1
  _symmetry_cell_setting            triclinic
  loop_
  _symmetry_equiv_pos_as_xyz
 x,y,z
_cell_length_a 37.5948
_cell_length_b 36.0696
_cell_length_c 36.1681
_cell_angle_alpha 90.591700
_cell_angle_beta 90.112100
_cell_angle_gamma 89.249100
loop_
  _atom_site_label
  _atom_site_type_symbol
  _atom_site_fract_x
  _atom_site_fract_y
  _atom_site_fract_z
C1 C 0.29379 0.36714 1.37501
 N2 N 0.31733 0.34173 1.38864
 C3 C 0.34929 0.33598 1.37188
 N4 N 0.35758 0.35587 1.34170
 C5 C 0.33424 0.38084 1.32738
 N6 N 0.30223 0.38641 1.34404
 C7 C 1.18259 0.63344 0.85700
 N8 N 1.17170 0.66408 0.87620
 C9 C 1.14507 0.68605 0.86293
 N10 N 1.12943 0.67733 0.83005
 C11 C 1.14014 0.64666 0.81084
 N12 N 1.16668 0.62492 0.82446
 C13 C 0.69398 -0.14451 0.10125
 N14 N 0.67487 -0.12496 0.12699
 C15 C 0.64410 -0.13888 0.14060
 N16 N 0.63263 -0.17241 0.12845
 C17 C 0.65153 -0.19216 0.10285
 N18 N 0.68212 -0.17801 0.08938
 C19 C -0.17325 1.10997 -0.36592
 N20 N -0.16155 1.09633 -0.33327
 C21 C -0.13500 1.11333 -0.31433
 N22 N -0.11995 1.14442 -0.32835
 C23 C -0.13151 1.15805 -0.36137
 N24 N -0.15803 1.14065 -0.37981
 C25 C 0.67368 0.66984 0.65357
 N26 N 0.66402 0.65560 0.68654
 C27 C 0.63332 0.66638 0.70308
 N28 N 0.61196 0.69202 0.68662
 C29 C 0.62136 0.70678 0.65366
 N30 N 0.65228 0.69548 0.63714
 C31 C 0.79488 0.34715 0.14872
 N32 N 0.81762 0.32788 0.12630
 C33 C 0.85146 0.31417 0.13969
 N34 N 0.85869 0.32297 0.17773
 C35 C 0.83538 0.34240 0.19889
 N36 N 0.80388 0.35413 0.18450
 C37 C 0.32198 0.11842 0.84783
 N38 N 0.34334 0.14195 0.86682
 C39 C 0.37443 0.15338 0.85207
 N40 N 0.38477 0.14038 0.81818
 C41 C 0.36369 0.11621 0.79924
 N42 N 0.33223 0.10583 0.81401
 C43 C 0.19260 0.85067 0.38653
 N44 N 0.17489 0.86870 0.35896
 C45 C 0.14337 0.85548 0.34607
 N46 N 0.12969 0.82430 0.36085
 C47 C 0.14729 0.80610 0.38814
 N48 N 0.17865 0.81939 0.40078
 Zn49 Zn 0.05940 0.98121 0.02135
 Zn50 Zn 0.02945 1.05513 0.00229
 Zn51 Zn -0.01520 0.98802 -0.00859
 Zn52 Zn 0.00267 1.01466 0.06828
 O53 O 0.01895 1.00968 0.02080
 O54 O 0.09750 1.00468 0.00418
 O55 O 0.00557 1.06545 -0.03891
 O56 O 0.00020 0.94485 -0.02849
 O57 O 0.07533 1.05994 -0.00957
 O58 O 0.05510 0.94040 -0.00633
 O59 O -0.02843 1.01649 -0.04746
 O60 O -0.04100 0.99625 0.07356
 O61 O 0.01855 1.09199 0.03358
 O62 O -0.05510 0.97763 0.01683
 O63 O -0.00092 1.06218 0.08266
 O64 O 0.03046 0.99191 0.10208
 O65 O 0.07205 0.96636 0.06659
 C66 C 0.10130 1.03721 -0.00793
 C67 C -0.01758 1.04810 -0.05745
 C68 C 0.02986 0.92780 -0.02594
 C69 C -0.06278 0.98191 0.05087
 C70 C 0.00575 1.09205 0.06599
 C71 C 0.05873 0.97260 0.09824
 Zn72 Zn 0.55965 -0.00530 0.45727
 Zn73 Zn 0.48737 -0.01248 0.49176
 Zn74 Zn 0.52058 0.06197 0.48172
 Zn75 Zn 0.49595 0.01978 0.41561
 O76 O 0.51569 0.01582 0.46168
 O77 O 0.56263 -0.04870 0.47977
 O78 O 0.47412 0.01193 0.53396
 O79 O 0.56574 0.07460 0.49043
 O80 O 0.50989 -0.05459 0.50628
 O81 O 0.59431 0.02240 0.47639
 O82 O 0.49946 0.06624 0.52532
 O83 O 0.48131 0.06619 0.40558
 O84 O 0.44716 -0.02722 0.46823
 O85 O 0.50044 0.09739 0.45457
 O86 O 0.45659 -0.00682 0.41143
 O87 O 0.52522 0.00474 0.37863
 O88 O 0.57233 -0.01396 0.41048
 C89 C 0.54109 -0.06679 0.49927
 C90 C 0.48120 0.04470 0.54485
 C91 C 0.59417 0.05541 0.48876
 C92 C 0.48379 0.09612 0.42409
 C93 C 0.43778 -0.02402 0.43453
 C94 C 0.55655 -0.00888 0.37994
 Zn95 Zn 0.97254 0.44803 0.49028
 Zn96 Zn 1.01765 0.51260 0.51137
 Zn97 Zn 0.94401 0.52562 0.48361
 Zn98 Zn 0.95543 0.49232 0.55795
 O99 O 0.97243 0.49461 0.51079
 O100 O 1.01533 0.43470 0.47203
 O101 O 1.02169 0.55479 0.48627
 O102 O 0.92265 0.50224 0.44617
 O103 O 1.04921 0.48122 0.49047
 O104 O 0.94172 0.44425 0.45256
 O105 O 0.96737 0.56392 0.46433
 O106 O 0.91599 0.52000 0.56492
 O107 O 1.03321 0.52297 0.55707
 O108 O 0.90851 0.54568 0.51009
 O109 O 0.98675 0.50831 0.59127
 O110 O 0.94565 0.44616 0.57201
 O111 O 0.96068 0.41267 0.52272
 C112 C 1.04538 0.45026 0.47400
 C113 C 0.99952 0.57368 0.46757
 C114 C 0.92264 0.46843 0.43628
 C115 C 0.89898 0.54142 0.54333
 C116 C 1.01809 0.52036 0.58825
 C117 C 0.94970 0.41502 0.55588
 Zn118 Zn 0.49878 0.43509 1.01245
 Zn119 Zn 0.46450 0.50828 1.03190
 Zn120 Zn 0.53235 0.50596 0.98960
 Zn121 Zn 0.46538 0.48090 0.95359
 O122 O 0.49025 0.48252 0.99694
 O123 O 0.47791 0.42591 1.05592
 O124 O 0.48695 0.54846 1.04974
 O125 O 0.57024 0.47715 0.99939
 O126 O 0.45375 0.48044 1.07070
 O127 O 0.54524 0.42571 1.01915
 O128 O 0.53726 0.54624 1.01822
 O129 O 0.48686 0.50490 0.91709
 O130 O 0.42266 0.52475 1.01471
 O131 O 0.53699 0.52269 0.94361
 O132 O 0.42253 0.50245 0.95745
 O133 O 0.45859 0.43474 0.93665
 O134 O 0.48347 0.40026 0.98013
 C135 C 0.46007 0.44661 1.07782
 C136 C 0.51706 0.56177 1.04193
 C137 C 0.57264 0.44478 1.01262
 C138 C 0.51625 0.52162 0.91593
 C139 C 0.40762 0.52048 0.98360
 C140 C 0.46731 0.40327 0.94938
 C141 C 1.26181 0.37369 0.39365
 C142 C 1.23498 0.39711 0.38023
 C143 C 1.20288 0.40653 0.40209
 C144 C 1.17018 0.41169 0.38402
 C145 C 1.13980 0.42222 0.40401
 C146 C 1.14189 0.42869 0.44235
 C147 C 1.17471 0.42402 0.46033
 C148 C 1.20488 0.41259 0.44049
 C149 C 1.11094 0.44291 0.46353
 C150 C 1.07615 0.43238 0.45572
 H151 H 1.23685 0.40799 0.35249
 H152 H 1.16818 0.40764 0.35437
 H153 H 1.11501 0.42654 0.38928
 H154 H 1.17701 0.42938 0.48975
 H155 H 1.22997 0.40971 0.45499
 H156 H 1.11582 0.46173 0.48649
 H157 H 1.25770 0.35974 0.41967
 H158 H 1.07129 0.41063 0.43553
 C159 C 0.21045 0.61104 0.86937
 C160 C 0.22893 0.61777 0.90221
 C161 C 0.26065 0.59570 0.91286
 C162 C 0.26978 0.59283 0.95033
 C163 C 0.30006 0.57273 0.96108
 C164 C 0.32210 0.55560 0.93430
 C165 C 0.31284 0.55849 0.89687
 C166 C 0.28264 0.57849 0.88618
 C167 C 0.35510 0.53499 0.94375
 C168 C 0.37251 0.53775 0.97773
 H169 H 0.21966 0.63936 0.92104
 H170 H 0.25328 0.60596 0.97135
 H171 H 0.30574 0.57061 0.99027
 H172 H 0.32944 0.54578 0.87567
 H173 H 0.27719 0.58111 0.85694
 H174 H 0.36761 0.51870 0.92190
 H175 H 0.21797 0.58744 0.85222
 H176 H 0.36155 0.55453 0.99996
 C177 C -0.27424 0.86881 0.08679
 C178 C -0.25921 0.90254 0.09755
 C179 C -0.22488 0.91596 0.08274
 C180 C -0.20585 0.94241 0.10319
 C181 C -0.17312 0.95528 0.09059
 C182 C -0.15861 0.94194 0.05704
 C183 C -0.17822 0.91644 0.03600
 C184 C -0.21095 0.90356 0.04861
 C185 C -0.12371 0.95437 0.04280
 C186 C -0.09756 0.97029 0.06515
 H187 H -0.27207 0.91898 0.11907
 H188 H -0.21623 0.95298 0.12921
 H189 H -0.15966 0.97597 0.10707
 H190 H -0.16807 0.90622 0.00974
 H191 H -0.22529 0.88431 0.03122
 H192 H -0.11778 0.94930 0.01386
 H193 H -0.26047 0.85128 0.06687
 H194 H -0.10205 0.97382 0.09450
 C195 C 0.79728 0.09193 0.61435
 C196 C 0.78210 0.10750 0.58273
 C197 C 0.75085 0.09201 0.56342
 C198 C 0.72960 0.11574 0.54193
 C199 C 0.69941 0.10249 0.52382
 C200 C 0.69004 0.06504 0.52669
 C201 C 0.71203 0.04099 0.54701
 C202 C 0.74209 0.05430 0.56538
 C203 C 0.65775 0.05021 0.50880
 C204 C 0.62736 0.07183 0.50231
 H205 H 0.79207 0.13369 0.57298
 H206 H 0.73615 0.14478 0.53948
 H207 H 0.68374 0.12156 0.50738
 H208 H 0.70563 0.01189 0.54913
 H209 H 0.75850 0.03493 0.58065
 H210 H 0.65674 0.02059 0.50361
 H211 H 0.78639 0.06708 0.62612
 H212 H 0.62677 0.10086 0.51017
 C213 C 0.37366 0.30946 0.38414
 C214 C 0.36565 0.28233 0.40981
 C215 C 0.39135 0.25201 0.41678
 C216 C 0.38001 0.21519 0.41527
 C217 C 0.40463 0.18605 0.41870
 C218 C 0.44085 0.19343 0.42459
 C219 C 0.45192 0.23029 0.42761
 C220 C 0.42745 0.25941 0.42319
 C221 C 0.46687 0.16308 0.43018
 C222 C 0.46482 0.12938 0.41111
 H223 H 0.33887 0.28020 0.42055
 H224 H 0.35225 0.20900 0.41047
 H225 H 0.39525 0.15781 0.41740
 H226 H 0.47960 0.23650 0.43284
 H227 H 0.43666 0.28771 0.42489
 H228 H 0.48765 0.16711 0.45058
 H229 H 0.39936 0.30810 0.37058
 H230 H 0.44625 0.12644 0.38836
 C231 C 0.88288 0.18947 0.62259
 C232 C 0.90858 0.21197 0.63887
 C233 C 0.92112 0.24550 0.61968
 C234 C 0.92867 0.27774 0.64007
 C235 C 0.93766 0.31050 0.62200
 C236 C 0.93959 0.31142 0.58310
 C237 C 0.93392 0.27859 0.56297
 C238 C 0.92470 0.24603 0.58097
 C239 C 0.94776 0.34569 0.56258
 C240 C 0.94161 0.38132 0.57679
 H241 H 0.91725 0.20688 0.66698
 H242 H 0.92668 0.27784 0.66994
 H243 H 0.94319 0.33485 0.63862
 H244 H 0.93594 0.27830 0.53309
 H245 H 0.92029 0.22128 0.56450
 H246 H 0.95730 0.34271 0.53443
 H247 H 0.87222 0.19739 0.59591
 H248 H 0.93046 0.38499 0.60415
 C249 C 0.13464 0.71737 -0.11681
 C250 C 0.10717 0.74126 -0.12795
 C251 C 0.09717 0.77512 -0.10679
 C252 C 0.06256 0.78974 -0.11016
 C253 C 0.05232 0.82175 -0.09052
 C254 C 0.07680 0.83998 -0.06734
 C255 C 0.11154 0.82554 -0.06449
 C256 C 0.12170 0.79363 -0.08405
 C257 C 0.06797 0.87414 -0.04598
 C258 C 0.03521 0.89287 -0.04668
 H259 H 0.09154 0.73435 -0.15220
 H260 H 0.04328 0.77615 -0.12780
 H261 H 0.02534 0.83178 -0.09378
 H262 H 0.13108 0.83919 -0.04722
 H263 H 0.14900 0.78408 -0.08174
 H264 H 0.08899 0.88565 -0.02901
 H265 H 0.14843 0.72274 -0.09105
 H266 H 0.01331 0.88277 -0.06312
 C267 C 0.64036 0.77309 1.09042
 C268 C 0.60936 0.75631 1.10312
 C269 C 0.59749 0.71917 1.09049
 C270 C 0.56168 0.70965 1.09509
 C271 C 0.54931 0.67508 1.08319
 C272 C 0.57273 0.64904 1.06673
 C273 C 0.60863 0.65838 1.06266
 C274 C 0.62098 0.69288 1.07458
 C275 C 0.56084 0.61271 1.05196
 C276 C 0.52829 0.59642 1.06023
 H277 H 0.59225 0.77147 1.12222
 H278 H 0.54303 0.72930 1.10741
 H279 H 0.52132 0.66941 1.08625
 H280 H 0.62729 0.63884 1.05020
 H281 H 0.64900 0.69846 1.07158
 H282 H 0.57885 0.59796 1.03346
 H283 H 0.65659 0.75910 1.06979
 H284 H 0.51030 0.60927 1.07997
 C285 C 0.34342 0.40073 1.29336
 C286 C 0.37638 0.39446 1.27634
 C287 C 0.38769 0.40985 1.24053
 C288 C 0.41917 0.39566 1.22470
 C289 C 0.43131 0.40868 1.19092
 C290 C 0.41212 0.43628 1.17201
 C291 C 0.38101 0.45112 1.18810
 C292 C 0.36874 0.43797 1.22199
 C293 C 0.42459 0.45096 1.13634
 C294 C 0.44681 0.43083 1.11235
 H295 H 0.39503 0.37557 1.28947
 H296 H 0.43455 0.37432 1.23857
 H297 H 0.45608 0.39749 1.18017
 H298 H 0.36606 0.47282 1.17428
 H299 H 0.34475 0.45016 1.23349
 H300 H 0.41510 0.47819 1.12821
 H301 H 0.32367 0.41900 1.28130
 H302 H 0.45427 0.40247 1.11844
 C303 C 0.62298 -0.11863 0.16873
 C304 C 0.63460 -0.08629 0.18621
 C305 C 0.61461 -0.06808 0.21686
 C306 C 0.63334 -0.04775 0.24364
 C307 C 0.61564 -0.03201 0.27408
 C308 C 0.57868 -0.03606 0.27819
 C309 C 0.55967 -0.05469 0.25040
 C310 C 0.57742 -0.07071 0.22010
 C311 C 0.55948 -0.02163 0.31123
 C312 C 0.57567 -0.01960 0.34592
 H313 H 0.66061 -0.07575 0.17938
 H314 H 0.66189 -0.04473 0.24144
 H315 H 0.63099 -0.01667 0.29427
 H316 H 0.53111 -0.05761 0.25259
 H317 H 0.56190 -0.08499 0.19930
 H318 H 0.53123 -0.01576 0.30894
 H319 H 0.59830 -0.13101 0.17728
 H320 H 0.60311 -0.02857 0.34897
 C321 C -0.12324 1.09710 -0.27906
 C322 C -0.09826 1.11332 -0.25560
 C323 C -0.08738 1.09644 -0.21995
 C324 C -0.07444 1.11933 -0.19153
 C325 C -0.06411 1.10440 -0.15753
 C326 C -0.06585 1.06593 -0.15141
 C327 C -0.07883 1.04306 -0.17987
 C328 C -0.08927 1.05802 -0.21382
 C329 C -0.05441 1.04872 -0.11604
 C330 C -0.03121 1.06585 -0.09123
 H331 H -0.08777 1.14019 -0.26257
 H332 H -0.07277 1.14899 -0.19546
 H333 H -0.05530 1.12330 -0.13613
 H334 H -0.08039 1.01338 -0.17603
 H335 H -0.09813 1.03923 -0.23532
 H336 H -0.06280 1.02071 -0.11043
 H337 H -0.13595 1.07173 -0.27090
 H338 H -0.02073 1.09284 -0.09746
 C339 C 1.12340 0.63723 0.77530
 C340 C 1.12921 0.60262 0.75872
 C341 C 1.11286 0.59150 0.72337
 C342 C 1.10470 0.55408 0.71762
 C343 C 1.08910 0.54246 0.68456
 C344 C 1.08205 0.56804 0.65639
 C345 C 1.09145 0.60522 0.66150
 C346 C 1.10643 0.61703 0.69495
 C347 C 1.06473 0.55629 0.62175
 C348 C 1.03692 0.53122 0.62201
 H349 H 1.14457 0.58179 0.77338
 H350 H 1.10996 0.53389 0.73899
 H351 H 1.08284 0.51343 0.68089
 H352 H 1.08656 0.62523 0.63988
 H353 H 1.11343 0.64588 0.69832
 H354 H 1.07173 0.56989 0.59625
 H355 H 1.10545 0.65719 0.76275
 H356 H 1.02704 0.52113 0.64812
 C357 C 0.70680 0.65696 0.63554
 C358 C 0.72891 0.63064 0.65250
 C359 C 0.76149 0.61392 0.63604
 C360 C 0.77734 0.62724 0.60367
 C361 C 0.80799 0.61000 0.58936
 C362 C 0.82330 0.57905 0.60706
 C363 C 0.80784 0.56639 0.63973
 C364 C 0.77730 0.58356 0.65400
 C365 C 0.85553 0.55960 0.59295
 C366 C 0.86741 0.56199 0.55657
 H367 H 0.72125 0.62046 0.67938
 H368 H 0.76664 0.65110 0.58944
 H369 H 0.81977 0.62149 0.56484
 H370 H 0.81924 0.54286 0.65413
 H371 H 0.76585 0.57286 0.67914
 H372 H 0.86963 0.54126 0.61166
 H373 H 0.71289 0.66761 0.60851
 H374 H 0.85302 0.57867 0.53673
 C375 C 0.76184 0.35927 1.13568
 C376 C 0.75125 0.35470 1.09886
 C377 C 0.71569 0.36624 1.08553
 C378 C 0.71175 0.37827 1.04898
 C379 C 0.67843 0.38951 1.03568
 C380 C 0.64835 0.38828 1.05863
 C381 C 0.65208 0.37496 1.09474
 C382 C 0.68548 0.36430 1.10823
 C383 C 0.61285 0.40048 1.04571
 C384 C 0.60814 0.42969 1.02116
 H385 H 0.77009 0.34401 1.07863
 H386 H 0.73460 0.37938 1.03083
 H387 H 0.67619 0.39868 1.00736
 H388 H 0.62915 0.37333 1.11273
 H389 H 0.68749 0.35401 1.13618
 H390 H 0.58972 0.38875 1.05879
 H391 H 0.74402 0.37317 1.15498
 H392 H 0.63104 0.44417 1.01075
 C393 C 0.28938 1.10761 -0.13779
 C394 C 0.27839 1.11701 -0.10200
 C395 C 0.24322 1.10665 -0.08771
 C396 C 0.23983 1.09660 -0.05055
 C397 C 0.20674 1.08665 -0.03645
 C398 C 0.17638 1.08751 -0.05916
 C399 C 0.17958 1.09874 -0.09599
 C400 C 0.21280 1.10783 -0.11032
 C401 C 0.14110 1.07750 -0.04489
 C402 C 0.13668 1.04842 -0.02034
 H403 H 0.29668 1.13049 -0.08313
 H404 H 0.26290 1.09602 -0.03256
 H405 H 0.20482 1.07890 -0.00769
 H406 H 0.15640 1.09998 -0.11380
 H407 H 0.21457 1.11642 -0.13885
 H408 H 0.11782 1.09119 -0.05640
 H409 H 0.27229 1.09068 -0.15501
 H410 H 0.15949 1.03184 -0.01200
 C411 C 0.22487 -0.13664 0.40071
 C412 C 0.24164 -0.10466 0.38848
 C413 C 0.27620 -0.09164 0.40350
 C414 C 0.29599 -0.06662 0.38271
 C415 C 0.32887 -0.05399 0.39544
 C416 C 0.34288 -0.06623 0.42943
 C417 C 0.32257 -0.09028 0.45082
 C418 C 0.28962 -0.10288 0.43810
 C419 C 0.37785 -0.05361 0.44375
 C420 C 0.40423 -0.03970 0.42083
 H421 H 0.22981 -0.08927 0.36589
 H422 H 0.28604 -0.05689 0.35635
 H423 H 0.34277 -0.03421 0.37872
 H424 H 0.33231 -0.09952 0.47743
 H425 H 0.27474 -0.12094 0.45581
 H426 H 0.38318 -0.05588 0.47310
 H427 H 0.23738 -0.15317 0.42198
 H428 H 0.40003 -0.03909 0.39126
 C429 C 0.59932 -0.26631 0.63771
 C430 C 0.60701 -0.24993 0.60384
 C431 C 0.58578 -0.21924 0.58750
 C432 C 0.59104 -0.21100 0.55011
 C433 C 0.57385 -0.18063 0.53405
 C434 C 0.55127 -0.15744 0.55523
 C435 C 0.54480 -0.16643 0.59221
 C436 C 0.56209 -0.19685 0.60837
 C437 C 0.53549 -0.12312 0.53971
 C438 C 0.55371 -0.10257 0.51359
 H439 H 0.62979 -0.26005 0.58823
 H440 H 0.60889 -0.22789 0.53331
 H441 H 0.57851 -0.17525 0.50509
 H442 H 0.52743 -0.14903 0.60904
 H443 H 0.55768 -0.20171 0.63742
 H444 H 0.51102 -0.11205 0.55145
 H445 H 0.57546 -0.25822 0.65253
 H446 H 0.57976 -0.11197 0.50448
 C447 C 1.13331 0.77178 0.40390
 C448 C 1.10093 0.75666 0.39289
 C449 C 1.08710 0.72167 0.40804
 C450 C 1.05039 0.71523 0.40684
 C451 C 1.03638 0.68261 0.42112
 C452 C 1.05902 0.65542 0.43651
 C453 C 1.09578 0.66172 0.43719
 C454 C 1.10973 0.69432 0.42300
 C455 C 1.04577 0.62067 0.45290
 C456 C 1.01098 0.60787 0.44941
 H457 H 1.08438 0.77172 0.37345
 H458 H 1.03240 0.73579 0.39529
 H459 H 1.00788 0.67936 0.42045
 H460 H 1.11388 0.64123 0.44867
 H461 H 1.13827 0.69760 0.42336
 H462 H 1.06469 0.60404 0.46842
 H463 H 1.14901 0.75852 0.42522
 H464 H 0.99148 0.62283 0.43321
 C465 C -0.12133 1.29025 0.11527
 C466 C -0.08960 1.27791 0.13097
 C467 C -0.06596 1.25078 0.11231
 C468 C -0.04052 1.23164 0.13347
 C469 C -0.02042 1.20278 0.11777
 C470 C -0.02524 1.19288 0.08047
 C471 C -0.04899 1.21357 0.05868
 C472 C -0.06949 1.24212 0.07451
 C473 C -0.00752 1.15990 0.06427
 C474 C -0.00296 1.12739 0.08438
 H475 H -0.08363 1.28541 0.15941
 H476 H -0.03709 1.23812 0.16256
 H477 H -0.00156 1.18787 0.13493
 H478 H -0.05283 1.20653 0.02976
 H479 H -0.08859 1.25677 0.05742
 H480 H -0.00317 1.15924 0.03465
 H481 H -0.13563 1.30245 0.12701
 H482 H -0.01052 1.12676 0.11324
 C483 C 0.39549 0.18045 0.87322
 C484 C 0.41935 0.20463 0.85694
 C485 C 0.43407 0.23669 0.87770
 C486 C 0.44088 0.26969 0.85893
 C487 C 0.45175 0.30140 0.87831
 C488 C 0.45634 0.30060 0.91696
 C489 C 0.45145 0.26701 0.93538
 C490 C 0.44031 0.23541 0.91605
 C491 C 0.46632 0.33402 0.93875
 C492 C 0.45824 0.37006 0.92739
 H493 H 0.42360 0.20291 0.82735
 H494 H 0.43682 0.27125 0.82932
 H495 H 0.45660 0.32636 0.86290
 H496 H 0.45549 0.26541 0.96499
 H497 H 0.43651 0.21008 0.93124
 H498 H 0.47844 0.33004 0.96564
 H499 H 0.38833 0.18457 0.90195
 H500 H 0.44407 0.37441 0.90170
 C501 C 0.62391 0.64956 0.73838
 C502 C 0.59023 0.65294 0.75408
 C503 C 0.58072 0.63218 0.78754
 C504 C 0.54576 0.61993 0.79184
 C505 C 0.53667 0.59813 0.82202
 C506 C 0.56248 0.58843 0.84860
 C507 C 0.59701 0.60217 0.84513
 C508 C 0.60611 0.62378 0.81490
 C509 C 0.55421 0.56530 0.88087
 C510 C 0.52561 0.54112 0.88196
 H511 H 0.56951 0.66809 0.73957
 H512 H 0.52563 0.62662 0.77140
 H513 H 0.50940 0.58935 0.82453
 H514 H 0.61713 0.59581 0.86568
 H515 H 0.63300 0.63397 0.81313
 H516 H 0.57174 0.56708 0.90464
 H517 H 0.64368 0.63158 0.75097
 H518 H 0.50860 0.53751 0.85807
 C519 C 0.37407 0.10038 0.76305
 C520 C 0.40789 0.10406 0.74781
 C521 C 0.41874 0.08637 0.71219
 C522 C 0.44859 0.09993 0.69378
 C523 C 0.45950 0.08449 0.65997
 C524 C 0.44067 0.05502 0.64363
 C525 C 0.41167 0.04045 0.66270
 C526 C 0.40074 0.05591 0.69657
 C527 C 0.45100 0.03881 0.60718
 C528 C 0.46876 0.05942 0.58073
 H529 H 0.42697 0.12134 0.76211
 H530 H 0.46346 0.12276 0.70549
 H531 H 0.48297 0.09551 0.64706
 H532 H 0.39717 0.01729 0.65116
 H533 H 0.37850 0.04349 0.71044
 H534 H 0.44327 0.01069 0.60050
 H535 H 0.35413 0.08456 0.74849
 H536 H 0.47431 0.08828 0.58641
 C537 C 0.12360 0.87407 0.31614
 C538 C 0.13841 0.90120 0.29390
 C539 C 0.11908 0.91730 0.26194
 C540 C 0.13847 0.92931 0.23130
 C541 C 0.12096 0.94343 0.20019
 C542 C 0.08359 0.94622 0.19928
 C543 C 0.06429 0.93560 0.23051
 C544 C 0.08177 0.92108 0.26146
 C545 C 0.06419 0.96087 0.16667
 C546 C 0.07733 0.95734 0.13071
 H547 H 0.16598 0.90858 0.29808
 H548 H 0.16724 0.92725 0.23122
 H549 H 0.13681 0.95257 0.17715
 H550 H 0.03554 0.93811 0.23078
 H551 H 0.06603 0.91324 0.28507
 H552 H 0.03806 0.97320 0.17092
 H553 H 0.09720 0.86409 0.30998
 H554 H 0.10211 0.94247 0.12586
 C555 C 0.84528 0.35021 0.23738
 C556 C 0.82603 0.37397 0.26068
 C557 C 0.84000 0.38446 0.29750
 C558 C 0.83342 0.42029 0.31141
 C559 C 0.84984 0.43226 0.34405
 C560 C 0.87312 0.40841 0.36338
 C561 C 0.87762 0.37177 0.35075
 C562 C 0.86122 0.35985 0.31819
 C563 C 0.89367 0.42054 0.39620
 C564 C 0.89993 0.45760 0.40503
 H565 H 0.80262 0.38825 0.25021
 H566 H 0.81655 0.43946 0.29631
 H567 H 0.84435 0.46021 0.35366
 H568 H 0.89467 0.35256 0.36558
 H569 H 0.86561 0.33149 0.30906
 H570 H 0.90631 0.39928 0.41285
 H571 H 0.87034 0.33852 0.24678
 H572 H 0.88834 0.47961 0.38871
   
