data_POSCAR
  _audit_creation_date              2014-09-24
  _audit_creation_method            'ToBaCCo'
  _symmetry_space_group_name_H-M    'P1'
  _symmetry_Int_Tables_number       1
  _symmetry_cell_setting            triclinic
  loop_
  _symmetry_equiv_pos_as_xyz
 x,y,z
_cell_length_a 23.8510
_cell_length_b 23.7780
_cell_length_c 23.6680
_cell_angle_alpha 103.631200
_cell_angle_beta 94.791000
_cell_angle_gamma 96.120700
loop_
  _atom_site_label
  _atom_site_type_symbol
  _atom_site_fract_x
  _atom_site_fract_y
  _atom_site_fract_z
C1 C 0.52048 0.47778 -0.00379
 C2 C 0.49182 0.52485 0.00226
 C3 C 0.43292 0.52326 0.01828
 C4 C 0.51798 0.58233 -0.00393
 C5 C 0.58034 0.48045 -0.01612
 C6 C 0.49366 0.42002 0.00034
 C7 C 0.38671 0.49232 -0.02137
 C8 C 0.33104 0.49795 -0.00845
 C9 C 0.32034 0.53688 0.04335
 C10 C 0.36720 0.56681 0.08338
 C11 C 0.42260 0.55985 0.07102
 C12 C 0.49295 0.60712 -0.04643
 C13 C 0.51016 0.66514 -0.04671
 C14 C 0.55287 0.69956 -0.00446
 C15 C 0.57915 0.67411 0.03697
 C16 C 0.56139 0.61626 0.03765
 C17 C 0.62422 0.49500 0.03014
 C18 C 0.68043 0.49030 0.01913
 C19 C 0.69344 0.46914 -0.03823
 C20 C 0.64941 0.45504 -0.08455
 C21 C 0.59330 0.46084 -0.07357
 C22 C 0.50625 0.39999 0.05059
 C23 C 0.48724 0.34244 0.05150
 C24 C 0.45467 0.30442 0.00244
 C25 C 0.44137 0.32492 -0.04740
 C26 C 0.46171 0.38183 -0.04883
 H27 H 0.39343 0.46609 -0.06358
 H28 H 0.29677 0.47449 -0.04105
 H29 H 0.36172 0.59580 0.12461
 H30 H 0.45771 0.58455 0.10202
 H31 H 0.45862 0.58204 -0.07822
 H32 H 0.48925 0.68337 -0.07933
 H33 H 0.57942 0.59917 0.07255
 H34 H 0.61472 0.50832 0.07493
 H35 H 0.71333 0.50069 0.05574
 H36 H 0.65824 0.43897 -0.12922
 H37 H 0.55975 0.44836 -0.10964
 H38 H 0.53209 0.42844 0.08843
 H39 H 0.49831 0.32748 0.09029
 H40 H 0.41756 0.29611 -0.08631
 H41 H 0.45401 0.39552 -0.08898
 H42 H 0.61130 0.69970 0.07091
 C43 C 0.00102 0.52291 0.51843
 C44 C 0.00017 0.46874 0.48215
 C45 C -0.00130 0.41528 0.50465
 C46 C -0.00004 0.45950 0.41735
 C47 C -0.00202 0.57531 0.49497
 C48 C 0.00409 0.53353 0.58348
 C49 C 0.03614 0.37484 0.48572
 C50 C 0.03368 0.32284 0.50340
 C51 C -0.00555 0.31074 0.54126
 C52 C -0.04249 0.35132 0.56116
 C53 C -0.04121 0.40273 0.54200
 C54 C 0.03937 0.49246 0.39289
 C55 C 0.03784 0.48331 0.33211
 C56 C -0.00148 0.43937 0.29469
 C57 C -0.03958 0.40519 0.31899
 C58 C -0.03921 0.41549 0.37964
 C59 C -0.04664 0.57787 0.45333
 C60 C -0.04926 0.62816 0.43284
 C61 C -0.00812 0.67706 0.45480
 C62 C 0.03623 0.67444 0.49663
 C63 C 0.03929 0.62400 0.51643
 C64 C -0.03333 0.56839 0.61351
 C65 C -0.03042 0.58086 0.67440
 C66 C 0.00949 0.55814 0.70674
 C67 C 0.04696 0.52310 0.67702
 C68 C 0.04499 0.51177 0.61598
 H69 H 0.06704 0.38336 0.45671
 H70 H 0.06262 0.29206 0.48764
 H71 H -0.07364 0.34225 0.58970
 H72 H -0.07170 0.43236 0.55580
 H73 H 0.07133 0.52527 0.42078
 H74 H 0.06824 0.50962 0.31432
 H75 H -0.06975 0.38914 0.39724
 H76 H -0.07964 0.54118 0.43720
 H77 H -0.08444 0.62942 0.40136
 H78 H 0.06864 0.71144 0.51408
 H79 H 0.07389 0.62292 0.54870
 H80 H -0.06509 0.58593 0.58966
 H81 H -0.06021 0.60746 0.69608
 H82 H 0.07851 0.50556 0.70110
 H83 H 0.07544 0.48621 0.59419
 H84 H -0.07041 0.37116 0.29103
 C85 C 0.50921 -0.00583 0.47999
 C86 C 0.47439 0.00448 0.52288
 C87 C 0.49458 0.01094 0.58547
 C88 C 0.41423 0.01095 0.50833
 C89 C 0.48781 -0.00799 0.41900
 C90 C 0.56879 -0.01726 0.49104
 C91 C 0.46655 -0.02355 0.61759
 C92 C 0.48593 -0.01905 0.67584
 C93 C 0.53418 0.02025 0.70401
 C94 C 0.56213 0.05507 0.67147
 C95 C 0.54213 0.05088 0.61315
 C96 C 0.37198 -0.03691 0.49993
 C97 C 0.31521 -0.03069 0.48677
 C98 C 0.30020 0.02284 0.47951
 C99 C 0.34269 0.07017 0.48575
 C100 C 0.39937 0.06446 0.50088
 C101 C 0.49553 0.04211 0.39757
 C102 C 0.47763 0.03935 0.33923
 C103 C 0.45023 -0.01313 0.30211
 C104 C 0.44034 -0.06262 0.32437
 C105 C 0.45954 -0.06018 0.38241
 C106 C 0.61264 0.01204 0.46881
 C107 C 0.66877 0.00267 0.47986
 C108 C 0.68292 -0.03571 0.51443
 C109 C 0.63853 -0.06621 0.53543
 C110 C 0.58216 -0.05787 0.52292
 H111 H 0.43020 -0.05518 0.59754
 H112 H 0.46313 -0.04767 0.69787
 H113 H 0.59878 0.08661 0.69069
 H114 H 0.56400 0.07864 0.58943
 H115 H 0.38295 -0.07909 0.50336
 H116 H 0.28308 -0.06797 0.48115
 H117 H 0.43173 0.10152 0.50642
 H118 H 0.51617 0.08304 0.42584
 H119 H 0.48514 0.07816 0.32306
 H120 H 0.41964 -0.10366 0.29641
 H121 H 0.45282 -0.09899 0.39874
 H122 H 0.60396 0.04336 0.44380
 H123 H 0.70093 0.02757 0.46286
 H124 H 0.64660 -0.09766 0.56047
 H125 H 0.54894 -0.08291 0.53859
 H126 H 0.33186 0.11178 0.48022
 O127 O 0.48742 -0.01707 -0.09042
 O128 O 0.43022 -0.02735 0.04633
 O129 O 0.43100 0.04784 -0.01863
 O130 O 0.48875 -0.09119 -0.02449
 O131 O 0.56894 -0.04223 0.02457
 O132 O 0.51095 0.09662 0.03123
 O133 O 0.51008 0.02159 0.09626
 O134 O 0.56736 0.03248 -0.04124
 Cu135 Cu 0.45136 -0.02686 -0.02677
 Cu136 Cu 0.54740 0.03183 0.03286
 C137 C 0.53630 0.01041 -0.08927
 C138 C 0.46070 -0.00521 0.09458
 C139 C 0.46153 0.09586 0.00631
 C140 C 0.53858 -0.09030 -0.00038
 O141 O -0.07533 0.52504 1.00979
 O142 O 0.07870 0.56557 1.04885
 O143 O 0.00555 0.57386 0.96286
 O144 O -0.00153 0.51558 1.09370
 O145 O 0.01154 0.42912 1.04079
 O146 O 0.02142 0.48814 0.91066
 O147 O 0.09405 0.48012 0.99577
 O148 O -0.06048 0.43994 0.95536
 Cu149 Cu 0.00046 0.55371 1.03389
 Cu150 Cu 0.01822 0.45057 0.97070
 C151 C -0.09410 0.47582 0.97539
 C152 C 0.11264 0.52987 1.02944
 C153 C 0.01424 0.54096 0.91451
 C154 C 0.00367 0.46220 1.08932
 O155 O -0.02598 -0.08276 0.42425
 O156 O -0.02385 0.07531 0.47940
 O157 O 0.04897 0.00956 0.43608
 O158 O -0.09816 -0.01551 0.46971
 O159 O -0.06721 -0.02499 0.55723
 O160 O 0.07968 0.00393 0.52505
 O161 O 0.00388 0.06913 0.56896
 O162 O 0.00677 -0.08838 0.51263
 Cu163 Cu -0.02787 -0.00285 0.44333
 Cu164 Cu 0.00920 -0.01047 0.54997
 C165 C -0.01019 -0.11250 0.45927
 C166 C -0.01015 0.09902 0.53338
 C167 C 0.08934 0.01146 0.47523
 C168 C -0.10767 -0.02514 0.51884
 N169 N -0.17889 0.41649 0.91216
 N170 N -0.23460 0.41562 0.90769
 C171 C -0.24787 0.45879 0.95067
 C172 C -0.19815 0.48869 0.98375
 C173 C -0.15548 0.46045 0.95777
 H174 H -0.19360 0.52556 1.02144
 H175 H -0.15745 0.38749 0.88422
 H176 H -0.26285 0.38495 0.87645
 N177 N 0.19319 0.59405 1.08710
 N178 N 0.25194 0.59513 1.09261
 C179 C 0.26458 0.54795 1.05368
 C180 C 0.21403 0.51546 1.02378
 C181 C 0.17074 0.54574 1.04594
 H182 H 0.20891 0.47517 0.98997
 H183 H 0.17144 0.62555 1.11143
 H184 H 0.27987 0.62954 1.11964
 N185 N -0.03805 -0.20808 0.38624
 N186 N -0.03823 -0.26395 0.38525
 C187 C -0.01287 -0.26810 0.43695
 C188 C 0.00412 -0.21262 0.47221
 C189 C -0.01293 -0.17595 0.43867
 H190 H 0.02335 -0.20056 0.51718
 H191 H -0.05640 -0.19255 0.35225
 H192 H -0.05600 -0.29829 0.34994
 N193 N -0.01642 0.19057 0.60909
 N194 N -0.01649 0.24660 0.61086
 C195 C -0.00941 0.25441 0.55719
 C196 C -0.00544 0.20130 0.51959
 C197 C -0.01018 0.16206 0.55408
 H198 H -0.00010 0.19241 0.47348
 H199 H -0.02132 0.17232 0.64472
 H200 H -0.02054 0.27878 0.64831
 N201 N 0.60280 0.05288 -0.14877
 N202 N 0.60132 0.05688 -0.20679
 C203 C 0.55294 0.02492 -0.23663
 C204 C 0.52355 -0.00012 -0.19832
 C205 C 0.55550 0.01875 -0.14436
 H206 H 0.48214 -0.02579 -0.20678
 H207 H 0.63371 0.07555 -0.11486
 H208 H 0.63281 0.08118 -0.22235
 N209 N 0.39249 -0.04883 0.15137
 N210 N 0.38995 -0.05166 0.20621
 C211 C 0.43488 -0.01702 0.23963
 C212 C 0.46740 0.00898 0.20465
 C213 C 0.43933 -0.01278 0.14897
 H214 H 0.50777 0.03656 0.21729
 H215 H 0.36383 -0.07309 0.11608
 H216 H 0.35859 -0.07784 0.22000
 N217 N 0.61266 -0.14945 0.02536
 N218 N 0.61652 -0.20470 0.02451
 C219 C 0.56715 -0.23736 -0.00109
 C220 C 0.53045 -0.20099 -0.01760
 C221 C 0.56079 -0.14562 0.00044
 H222 H 0.48659 -0.21251 -0.03641
 H223 H 0.64455 -0.11489 0.04432
 H224 H 0.65221 -0.21923 0.04216
 N225 N 0.39140 0.15507 -0.02700
 N226 N 0.38975 0.21007 -0.02858
 C227 C 0.43751 0.24253 0.00147
 C228 C 0.47092 0.20651 0.02339
 C229 C 0.44040 0.15126 0.00373
 H230 H 0.51348 0.21801 0.04595
 H231 H 0.36064 0.12051 -0.04904
 H232 H 0.35715 0.22456 -0.05144
 N233 N -0.18197 -0.06327 0.57292
 N234 N -0.24094 -0.06757 0.57060
 C235 C -0.25993 -0.04265 0.52811
 C236 C -0.21368 -0.02322 0.50223
 C237 C -0.16631 -0.03687 0.53131
 H238 H -0.21369 -0.00201 0.46652
 H239 H -0.15553 -0.07854 0.60181
 H240 H -0.26429 -0.08440 0.59963
 N241 N 0.16481 0.05220 0.42379
 N242 N 0.22071 0.05645 0.42588
 C243 C 0.24023 0.02910 0.46584
 C244 C 0.19507 0.00713 0.49079
 C245 C 0.14812 0.02287 0.46301
 H246 H 0.19625 -0.01670 0.52451
 H247 H 0.13883 0.06982 0.39654
 H248 H 0.24476 0.07700 0.39979
 N249 N -0.01055 0.38119 1.13914
 N250 N -0.01271 0.37524 1.19308
 C251 C -0.00253 0.42853 1.23048
 C252 C 0.00600 0.47032 1.19885
 C253 C 0.00029 0.43840 1.14108
 H254 H 0.01441 0.51724 1.21540
 H255 H -0.01718 0.34660 1.10173
 H256 H -0.02050 0.33521 1.20389
 N257 N 0.00018 0.61673 0.85969
 N258 N -0.00168 0.62105 0.80494
 C259 C 0.01147 0.57113 0.77122
 C260 C 0.02235 0.53338 0.80623
 C261 C 0.01420 0.56387 0.86195
 H262 H 0.03172 0.48896 0.79263
 H263 H -0.00969 0.64890 0.89443
 H264 H -0.01242 0.65749 0.79110
   
