data_POSCAR
  _audit_creation_date              2014-09-24
  _audit_creation_method            'ToBaCCo'
  _symmetry_space_group_name_H-M    'P1'
  _symmetry_Int_Tables_number       1
  _symmetry_cell_setting            triclinic
  loop_
  _symmetry_equiv_pos_as_xyz
 x,y,z
_cell_length_a 38.3459
_cell_length_b 38.3194
_cell_length_c 43.6286
_cell_angle_alpha 90.067900
_cell_angle_beta 89.966200
_cell_angle_gamma 120.068500
loop_
  _atom_site_label
  _atom_site_type_symbol
  _atom_site_fract_x
  _atom_site_fract_y
  _atom_site_fract_z
O1 O 0.03845 0.54818 1.27979
 O2 O -0.03950 0.50961 1.21970
 O3 O -0.03986 0.50926 1.27928
 O4 O 0.03897 0.54884 1.22008
 O5 O 0.03849 0.49105 1.21952
 O6 O -0.03979 0.45174 1.27924
 O7 O -0.03975 0.45200 1.21943
 O8 O 0.03862 0.49071 1.27919
 Cu9 Cu -0.00044 0.53476 1.24973
 Cu10 Cu -0.00065 0.46558 1.24933
 C11 C 0.05187 0.52603 1.28982
 C12 C -0.05303 0.47417 1.20916
 C13 C -0.05321 0.47379 1.28951
 C14 C 0.05212 0.52669 1.20955
 O15 O 0.45132 0.49105 1.28075
 O16 O 0.48989 0.45171 1.22051
 O17 O 0.49014 0.45158 1.28012
 O18 O 0.45063 0.49090 1.22097
 O19 O 0.50845 0.54825 1.22044
 O20 O 0.54756 0.50934 1.28034
 O21 O 0.54759 0.50918 1.22052
 O22 O 0.50860 0.54880 1.28014
 Cu23 Cu 0.46471 0.46557 1.25059
 Cu24 Cu 0.53382 0.53465 1.25037
 C25 C 0.47332 0.52672 1.29084
 C26 C 0.52537 0.47371 1.21019
 C27 C 0.52554 0.47376 1.29047
 C28 C 0.47282 0.52621 1.21044
 O29 O 0.50909 0.96089 1.28122
 O30 O 0.54860 1.03877 1.22101
 O31 O 0.54871 1.03931 1.28061
 O32 O 0.50923 0.96025 1.22145
 O33 O 0.45203 0.96086 1.22084
 O34 O 0.49109 1.03895 1.28089
 O35 O 0.49130 1.03920 1.22104
 O36 O 0.45143 0.96045 1.28054
 Cu37 Cu 0.53463 0.99976 1.25109
 Cu38 Cu 0.46573 0.99990 1.25083
 C39 C 0.47344 0.94724 1.29127
 C40 C 0.52671 1.05233 1.21070
 C41 C 0.52666 1.05262 1.29109
 C42 C 0.47397 0.94717 1.21085
 O43 O 0.96144 0.50899 0.71967
 O44 O 1.03962 0.54796 0.77955
 O45 O 1.03992 0.54852 0.71984
 O46 O 0.96134 0.50877 0.77950
 O47 O 0.96158 0.45134 0.77937
 O48 O 1.03945 0.49080 0.71910
 O49 O 1.04009 0.49065 0.77888
 O50 O 0.96109 0.45126 0.71974
 Cu51 Cu 1.00056 0.53430 0.74965
 Cu52 Cu 1.00058 0.46528 0.74925
 C53 C 0.94785 0.47342 0.70945
 C54 C 1.05324 0.52596 0.78949
 C55 C 1.05311 0.52647 0.70907
 C56 C 0.94813 0.47332 0.78978
 O57 O 0.49115 0.45185 0.72019
 O58 O 0.45229 0.49114 0.78006
 O59 O 0.45176 0.49082 0.72037
 O60 O 0.49138 0.45201 0.77999
 O61 O 0.54883 0.50974 0.77990
 O62 O 0.50949 0.54826 0.71981
 O63 O 0.50964 0.54896 0.77953
 O64 O 0.54885 0.50934 0.72030
 Cu65 Cu 0.46588 0.46566 0.75016
 Cu66 Cu 0.53496 0.53486 0.74988
 C67 C 0.52667 0.47388 0.70998
 C68 C 0.47433 0.52679 0.79006
 C69 C 0.47388 0.52613 0.70977
 C70 C 0.52683 0.47428 0.79026
 O71 O 0.54781 0.03864 0.71970
 O72 O 0.50876 -0.03947 0.77958
 O73 O 0.50890 -0.03985 0.71989
 O74 O 0.54784 0.03884 0.77951
 O75 O 0.49013 0.03843 0.77952
 O76 O 0.45160 -0.03955 0.71930
 O77 O 0.45094 -0.04009 0.77905
 O78 O 0.49038 0.03881 0.71992
 Cu79 Cu 0.53411 -0.00042 0.74966
 Cu80 Cu 0.46498 -0.00065 0.74944
 C81 C 0.52578 0.05212 0.70956
 C82 C 0.47314 -0.05314 0.78958
 C83 C 0.47362 -0.05313 0.70920
 C84 C 0.52560 0.05198 0.78985
 O85 O 0.39236 0.66882 0.96489
 O86 O 0.39415 0.73680 0.97442
 C87 C 0.36906 0.74220 0.95906
 O88 O 0.33165 0.72369 0.96484
 O89 O 0.26367 0.65746 0.97426
 C90 C 0.25825 0.62689 0.95889
 O91 O 0.27671 0.60799 0.96471
 O92 O 0.34284 0.60626 0.97437
 C93 C 0.37343 0.63140 0.95907
 O94 O 0.39397 0.65754 1.02584
 O95 O 0.39225 0.72375 1.03537
 C96 C 0.37334 0.74223 1.04117
 O97 O 0.34282 0.73678 1.02580
 O98 O 0.27661 0.66876 1.03522
 C99 C 0.25806 0.63133 1.04097
 O100 O 0.26351 0.60621 1.02562
 O101 O 0.33141 0.60801 1.03528
 C102 C 0.36880 0.62696 1.04114
 Cr103 Cr 0.39098 0.69563 1.00013
 Cr104 Cr 0.30479 0.69557 1.00003
 Cr105 Cr 0.30472 0.60932 1.00000
 O106 O 0.33350 0.66684 1.00006
 O107 O 0.60629 0.34237 0.97437
 O108 O 0.60788 0.27598 0.96526
 C109 C 0.62697 0.25774 0.95923
 O110 O 0.65784 0.26357 0.97429
 O111 O 0.72425 0.33161 0.96517
 C112 C 0.74250 0.36897 0.95913
 O113 O 0.73671 0.39408 0.97420
 O114 O 0.66871 0.39234 0.96518
 C115 C 0.63134 0.37321 0.95924
 O116 O 0.60805 0.33172 1.03542
 O117 O 0.60627 0.26363 1.02632
 C118 C 0.63132 0.25785 1.04139
 O119 O 0.66866 0.27608 1.03536
 O120 O 0.73668 0.34246 1.02625
 C121 C 0.74257 0.37342 1.04128
 O122 O 0.72441 0.39258 1.03526
 O123 O 0.65805 0.39417 1.02627
 C124 C 0.62717 0.36912 1.04138
 Cr125 Cr 0.60940 0.30456 1.00034
 Cr126 Cr 0.69573 0.30457 1.00027
 Cr127 Cr 0.69583 0.39102 1.00023
 O128 O 0.66699 0.33338 1.00029
 O129 O 0.66835 0.39185 0.53503
 O130 O 0.73630 0.39368 0.52551
 C131 C 0.74179 0.36858 0.54078
 O132 O 0.72329 0.33116 0.53493
 O133 O 0.65708 0.26316 0.52540
 C134 C 0.62643 0.25759 0.54065
 O135 O 0.60744 0.27596 0.53480
 O136 O 0.60583 0.34225 0.52550
 C137 C 0.63096 0.37285 0.54085
 O138 O 0.65720 0.39372 0.47411
 O139 O 0.72334 0.39194 0.46458
 C140 C 0.74172 0.37295 0.45870
 O141 O 0.73621 0.34234 0.47397
 O142 O 0.66825 0.27602 0.46448
 C143 C 0.63087 0.25762 0.45858
 O144 O 0.60577 0.26321 0.47380
 O145 O 0.60762 0.33121 0.46451
 C146 C 0.62660 0.36865 0.45877
 Cr147 Cr 0.69519 0.39058 0.49980
 Cr148 Cr 0.69510 0.30428 0.49969
 Cr149 Cr 0.60888 0.30426 0.49966
 O150 O 0.66639 0.33303 0.49971
 O151 O 0.33159 0.60765 0.53486
 O152 O 0.26358 0.60595 0.52609
 C153 C 0.25767 0.63098 0.54112
 O154 O 0.27579 0.66834 0.53508
 O155 O 0.34220 0.73640 0.52616
 C156 C 0.37322 0.74237 0.54107
 O157 O 0.39244 0.72431 0.53490
 O158 O 0.39396 0.65786 0.52586
 C159 C 0.36894 0.62689 0.54088
 O160 O 0.34199 0.60597 0.47373
 O161 O 0.27564 0.60760 0.46496
 C162 C 0.25756 0.62684 0.45895
 O163 O 0.26354 0.65782 0.47399
 O164 O 0.33157 0.72431 0.46506
 C165 C 0.36889 0.74241 0.45892
 O166 O 0.39393 0.73643 0.47382
 O167 O 0.39221 0.66838 0.46480
 C168 C 0.37296 0.63102 0.45872
 Cr169 Cr 0.30435 0.60909 0.49991
 Cr170 Cr 0.30442 0.69557 0.50007
 Cr171 Cr 0.39084 0.69560 0.49985
 O172 O 0.33320 0.66676 0.49994
 C173 C 0.43016 0.57130 0.36089
 C174 C 0.46835 0.59656 0.34818
 C175 C 0.48254 0.58165 0.32485
 C176 C 0.45874 0.54171 0.31399
 C177 C 0.42021 0.51698 0.32697
 C178 C 0.40592 0.53157 0.35048
 C179 C 0.41534 0.58671 0.38573
 C180 C 0.37735 0.56128 0.39872
 C181 C 0.36360 0.57591 0.42257
 C182 C 0.38747 0.61578 0.43333
 C183 C 0.42540 0.64095 0.41978
 C184 C 0.43954 0.62649 0.39608
 C185 C 0.36793 0.50712 0.36391
 C186 C 0.35392 0.52170 0.38765
 C187 C 0.49168 0.63623 0.35913
 C188 C 0.47749 0.65096 0.38263
 H189 H 0.34891 0.47639 0.35608
 H190 H 0.32452 0.50179 0.39744
 H191 H 0.52119 0.65606 0.34949
 H192 H 0.49647 0.68172 0.39041
 H193 H 0.51215 0.60126 0.31522
 H194 H 0.40137 0.48623 0.31907
 H195 H 0.33429 0.55630 0.43265
 H196 H 0.44413 0.67162 0.42785
 C197 C 0.42872 0.85944 0.36124
 C198 C 0.40354 0.87241 0.34853
 C199 C 0.41849 0.90153 0.32522
 C200 C 0.45840 0.91765 0.31439
 C201 C 0.48305 0.90381 0.32737
 C202 C 0.46841 0.87491 0.35084
 C203 C 0.41327 0.82919 0.38604
 C204 C 0.43862 0.81659 0.39902
 C205 C 0.42395 0.78819 0.42282
 C206 C 0.38413 0.77220 0.43357
 C207 C 0.35903 0.78501 0.42004
 C208 C 0.37352 0.81363 0.39637
 C209 C 0.49278 0.86133 0.36426
 C210 C 0.47817 0.83272 0.38797
 C211 C 0.36391 0.85610 0.35946
 C212 C 0.34914 0.82716 0.38293
 H213 H 0.52349 0.87303 0.35646
 H214 H 0.49802 0.82319 0.39775
 H215 H 0.34414 0.86581 0.34982
 H216 H 0.31841 0.81539 0.39070
 H217 H 0.39894 0.91156 0.31560
 H218 H 0.51377 0.91570 0.31949
 H219 H 0.44352 0.77846 0.43288
 H220 H 0.32839 0.77306 0.42810
 C221 C 0.14082 0.56980 0.36109
 C222 C 0.12366 0.59302 0.35197
 C223 C 0.09483 0.57874 0.32845
 C224 C 0.08295 0.54138 0.31421
 C225 C 0.10061 0.51855 0.32365
 C226 C 0.12961 0.53266 0.34704
 C227 C 0.17096 0.58456 0.38594
 C228 C 0.18814 0.56136 0.39505
 C229 C 0.21663 0.57542 0.41880
 C230 C 0.22780 0.61233 0.43358
 C231 C 0.21023 0.63522 0.42403
 C232 C 0.18187 0.62150 0.40020
 C233 C 0.14753 0.51033 0.35674
 C234 C 0.17634 0.52446 0.38032
 C235 C 0.13552 0.62996 0.36667
 C236 C 0.16409 0.64394 0.39040
 H237 H 0.13918 0.48165 0.34606
 H238 H 0.18938 0.50626 0.38713
 H239 H 0.12250 0.64816 0.35984
 H240 H 0.17229 0.67252 0.40119
 H241 H 0.08143 0.59654 0.32146
 H242 H 0.09182 0.48982 0.31284
 H243 H 0.22983 0.55747 0.42590
 H244 H 0.21864 0.66372 0.43507
 C245 C 0.56964 0.42852 0.36125
 C246 C 0.59268 0.46907 0.35233
 C247 C 0.57833 0.48366 0.32894
 C248 C 0.54108 0.45805 0.31465
 C249 C 0.51845 0.41741 0.32387
 C250 C 0.53263 0.40248 0.34712
 C251 C 0.58443 0.41310 0.38599
 C252 C 0.56138 0.37255 0.39490
 C253 C 0.57544 0.35809 0.41857
 C254 C 0.61216 0.38394 0.43347
 C255 C 0.63492 0.42454 0.42412
 C256 C 0.62122 0.43925 0.40036
 C257 C 0.51045 0.36206 0.35661
 C258 C 0.52461 0.34734 0.38007
 C259 C 0.62949 0.49426 0.36712
 C260 C 0.64350 0.47961 0.39075
 H261 H 0.48187 0.34165 0.34585
 H262 H 0.50655 0.31599 0.38673
 H263 H 0.64756 0.52560 0.36045
 H264 H 0.67197 0.50007 0.40163
 H265 H 0.59596 0.51499 0.32210
 H266 H 0.48981 0.39738 0.31301
 H267 H 0.55760 0.32682 0.42552
 H268 H 0.66331 0.44472 0.43526
 C269 C 0.57123 0.14067 0.36087
 C270 C 0.59642 0.12763 0.34824
 C271 C 0.58150 0.09845 0.32498
 C272 C 0.54162 0.08233 0.31412
 C273 C 0.51696 0.09624 0.32698
 C274 C 0.53156 0.12521 0.35043
 C275 C 0.58663 0.17094 0.38566
 C276 C 0.56126 0.18358 0.39861
 C277 C 0.57588 0.21198 0.42244
 C278 C 0.61567 0.22790 0.43322
 C279 C 0.64079 0.21509 0.41972
 C280 C 0.62635 0.18648 0.39604
 C281 C 0.50717 0.13884 0.36379
 C282 C 0.52175 0.16748 0.38751
 C283 C 0.63602 0.14393 0.35920
 C284 C 0.65076 0.17292 0.38266
 H285 H 0.47649 0.12714 0.35594
 H286 H 0.50190 0.17705 0.39726
 H287 H 0.65578 0.13415 0.34960
 H288 H 0.68147 0.18467 0.39047
 H289 H 0.60106 0.08836 0.31542
 H290 H 0.48626 0.08432 0.31905
 H291 H 0.55633 0.22175 0.43250
 H292 H 0.67141 0.22701 0.42783
 C293 C 0.85782 0.42974 0.36060
 C294 C 0.86883 0.46678 0.34655
 C295 C 0.89778 0.48093 0.32317
 C296 C 0.91560 0.45824 0.31375
 C297 C 0.90390 0.42093 0.32793
 C298 C 0.87512 0.40662 0.35146
 C299 C 0.82781 0.41500 0.38551
 C300 C 0.81714 0.37819 0.39981
 C301 C 0.78892 0.36453 0.42372
 C302 C 0.77130 0.38737 0.43329
 C303 C 0.78220 0.42413 0.41847
 C304 C 0.81053 0.43814 0.39465
 C305 C 0.86347 0.36978 0.36618
 C306 C 0.83500 0.35582 0.38997
 C307 C 0.85080 0.48904 0.35627
 C308 C 0.82210 0.47493 0.37989
 H309 H 0.87660 0.35166 0.35933
 H310 H 0.82697 0.32733 0.40079
 H311 H 0.85901 0.51765 0.34557
 H312 H 0.80897 0.49304 0.38673
 H313 H 0.90645 0.50961 0.31238
 H314 H 0.91746 0.40326 0.32093
 H315 H 0.78068 0.33612 0.43480
 H316 H 0.76892 0.44202 0.42560
 C317 C 0.56956 0.42869 1.13904
 C318 C 0.53235 0.40267 1.15291
 C319 C 0.51808 0.41750 1.17625
 C320 C 0.54083 0.45803 1.18582
 C321 C 0.57826 0.48360 1.17174
 C322 C 0.59270 0.46911 1.14827
 C323 C 0.58449 0.41336 1.11424
 C324 C 0.62150 0.43949 1.10014
 C325 C 0.63537 0.42488 1.07636
 C326 C 0.61257 0.38437 1.06671
 C327 C 0.57560 0.35854 1.08134
 C328 C 0.56138 0.37293 1.10503
 C329 C 0.62970 0.49428 1.13374
 C330 C 0.64383 0.47974 1.11006
 C331 C 0.51011 0.36237 1.14310
 C332 C 0.52440 0.34774 1.11959
 H333 H 0.64784 0.52554 1.14065
 H334 H 0.67246 0.50020 1.09940
 H335 H 0.48138 0.34196 1.15364
 H336 H 0.50627 0.31647 1.11270
 H337 H 0.48930 0.39750 1.18693
 H338 H 0.59601 0.51484 1.17883
 H339 H 0.66391 0.44504 1.06544
 H340 H 0.55770 0.32735 1.07417
 C341 C 0.85938 0.43091 1.13907
 C342 C 0.87454 0.40655 1.14968
 C343 C 0.90336 0.42088 1.17320
 C344 C 0.91744 0.45957 1.18601
 C345 C 0.90165 0.48351 1.17496
 C346 C 0.87259 0.46928 1.15162
 C347 C 0.82921 0.41604 1.11423
 C348 C 0.81393 0.44035 1.10369
 C349 C 0.78537 0.42615 1.08000
 C350 C 0.77234 0.38805 1.06662
 C351 C 0.78804 0.36407 1.07755
 C352 C 0.81637 0.37788 1.10140
 C353 C 0.85657 0.49273 1.14048
 C354 C 0.82769 0.47848 1.11697
 C355 C 0.86074 0.36839 1.13642
 C356 C 0.83221 0.35433 1.11266
 H357 H 0.86648 0.52237 1.15000
 H358 H 0.81614 0.49754 1.10905
 H359 H 0.87221 0.34929 1.14439
 H360 H 0.82250 0.32480 1.10300
 H361 H 0.91502 0.40194 1.18125
 H362 H 0.91187 0.51325 1.18446
 H363 H 0.77364 0.44495 1.07178
 H364 H 0.77811 0.33462 1.06761
 C365 C 0.57180 0.14126 1.13939
 C366 C 0.59773 0.13002 1.15327
 C367 C 0.58288 0.10103 1.17668
 C368 C 0.54244 0.08343 1.18632
 C369 C 0.51697 0.09536 1.17224
 C370 C 0.53147 0.12416 1.14870
 C371 C 0.58713 0.17136 1.11450
 C372 C 0.56109 0.18228 1.10040
 C373 C 0.57569 0.21060 1.07653
 C374 C 0.61610 0.22812 1.06680
 C375 C 0.64185 0.21694 1.08143
 C376 C 0.62747 0.18849 1.10521
 C377 C 0.50638 0.13603 1.13416
 C378 C 0.52093 0.16456 1.11039
 C379 C 0.63794 0.14788 1.14338
 C380 C 0.65257 0.17666 1.11979
 H381 H 0.47520 0.12306 1.14112
 H382 H 0.50054 0.17277 1.09973
 H383 H 0.65827 0.13951 1.15392
 H384 H 0.68377 0.18965 1.11283
 H385 H 0.60281 0.09221 1.18735
 H386 H 0.48579 0.08200 1.17937
 H387 H 0.55559 0.21902 1.06561
 H388 H 0.67297 0.23010 1.07419
 C389 C 0.42795 0.57012 1.13925
 C390 C 0.40182 0.53314 1.15339
 C391 C 0.41659 0.51900 1.17679
 C392 C 0.45717 0.54165 1.18614
 C393 C 0.48285 0.57888 1.17185
 C394 C 0.46842 0.59318 1.14831
 C395 C 0.41271 0.58485 1.11434
 C396 C 0.43895 0.62161 1.09997
 C397 C 0.42443 0.63528 1.07607
 C398 C 0.38391 0.61252 1.06657
 C399 C 0.35796 0.57581 1.08146
 C400 C 0.37225 0.56179 1.10528
 C401 C 0.49371 0.62995 1.13352
 C402 C 0.47923 0.64391 1.10974
 C403 C 0.36149 0.51095 1.14374
 C404 C 0.34694 0.52506 1.12011
 H405 H 0.52499 0.64802 1.14031
 H406 H 0.49977 0.67235 1.09886
 H407 H 0.34101 0.48239 1.15449
 H408 H 0.31565 0.50699 1.11333
 H409 H 0.39652 0.49038 1.18765
 H410 H 0.51413 0.59654 1.17878
 H411 H 0.44468 0.66364 1.06494
 H412 H 0.32675 0.55797 1.07438
 C413 C 0.14134 0.57180 1.13864
 C414 C 0.13043 0.59789 1.15276
 C415 C 0.10136 0.58303 1.17606
 C416 C 0.08333 0.54242 1.18533
 C417 C 0.09492 0.51678 1.17106
 C418 C 0.12382 0.53129 1.14762
 C419 C 0.17152 0.58714 1.11385
 C420 C 0.18210 0.56094 1.09950
 C421 C 0.21047 0.57556 1.07570
 C422 C 0.22834 0.61612 1.06629
 C423 C 0.21753 0.64203 1.08115
 C424 C 0.18903 0.62765 1.10486
 C425 C 0.13537 0.50605 1.13286
 C426 C 0.16399 0.52062 1.10917
 C427 C 0.14870 0.63827 1.14319
 C428 C 0.17755 0.65292 1.11967
 H429 H 0.12207 0.47473 1.13958
 H430 H 0.17195 0.50012 1.09831
 H431 H 0.14057 0.65871 1.15394
 H432 H 0.19086 0.68424 1.11295
 H433 H 0.09276 0.60307 1.18692
 H434 H 0.08121 0.48546 1.17794
 H435 H 0.21865 0.55535 1.06458
 H436 H 0.23099 0.67328 1.07414
 C437 C 0.43008 0.85834 1.13949
 C438 C 0.40712 0.87585 1.14850
 C439 C 0.42140 0.90459 1.17210
 C440 C 0.45851 0.91604 1.18651
 C441 C 0.48105 0.89801 1.17721
 C442 C 0.46694 0.86909 1.15374
 C443 C 0.41537 0.82835 1.11451
 C444 C 0.43834 0.81085 1.10550
 C445 C 0.42434 0.78253 1.08163
 C446 C 0.38776 0.77185 1.06663
 C447 C 0.36509 0.78972 1.07607
 C448 C 0.37873 0.81793 1.10002
 C449 C 0.48903 0.85085 1.14414
 C450 C 0.47495 0.82218 1.12045
 C451 C 0.37047 0.86446 1.13359
 C452 C 0.35653 0.83601 1.10974
 H453 H 0.51750 0.85886 1.15499
 H454 H 0.49294 0.80888 1.11372
 H455 H 0.35247 0.87775 1.14033
 H456 H 0.32818 0.82817 1.09878
 H457 H 0.40383 0.91830 1.17900
 H458 H 0.50959 0.90648 1.18816
 H459 H 0.44211 0.76908 1.07461
 H460 H 0.33682 0.78165 1.06485
 C461 C 0.57159 0.42974 0.63890
 C462 C 0.59767 0.46680 0.65300
 C463 C 0.58285 0.48098 0.67637
 C464 C 0.54229 0.45831 0.68573
 C465 C 0.51665 0.42100 0.67149
 C466 C 0.53112 0.40665 0.64798
 C467 C 0.58688 0.41497 0.61402
 C468 C 0.56069 0.37814 0.59967
 C469 C 0.57527 0.36445 0.57578
 C470 C 0.61578 0.38727 0.56627
 C471 C 0.64167 0.42404 0.58115
 C472 C 0.62734 0.43808 0.60495
 C473 C 0.50590 0.36980 0.63321
 C474 C 0.52042 0.35580 0.60944
 C475 C 0.63799 0.48903 0.64335
 C476 C 0.65259 0.47488 0.61976
 H477 H 0.47462 0.35170 0.64000
 H478 H 0.49993 0.32730 0.59858
 H479 H 0.65842 0.51765 0.65409
 H480 H 0.68388 0.49298 0.61297
 H481 H 0.60290 0.50966 0.68720
 H482 H 0.48538 0.40334 0.67844
 H483 H 0.55507 0.33603 0.56466
 H484 H 0.67288 0.44192 0.57407
 C485 C 0.56970 0.14121 0.63856
 C486 C 0.59283 0.12391 0.64760
 C487 C 0.57854 0.09507 0.67108
 C488 C 0.54127 0.08332 0.68533
 C489 C 0.51857 0.10114 0.67600
 C490 C 0.53267 0.13014 0.65266
 C491 C 0.58441 0.17129 0.61370
 C492 C 0.56127 0.18857 0.60466
 C493 C 0.57526 0.21698 0.58089
 C494 C 0.61200 0.22794 0.56603
 C495 C 0.63485 0.21031 0.57551
 C496 C 0.62121 0.18202 0.59936
 C497 C 0.51041 0.14817 0.64304
 C498 C 0.52450 0.17694 0.61947
 C499 C 0.62965 0.13562 0.63284
 C500 C 0.64358 0.16416 0.60910
 H501 H 0.48182 0.13992 0.65377
 H502 H 0.50638 0.19007 0.61270
 H503 H 0.64777 0.12250 0.63960
 H504 H 0.67206 0.17224 0.59824
 H505 H 0.59623 0.08152 0.67801
 H506 H 0.48991 0.09243 0.68684
 H507 H 0.55737 0.23026 0.57383
 H508 H 0.66325 0.21860 0.56440
 C509 C 0.85853 0.42827 0.63854
 C510 C 0.86949 0.40222 0.65258
 C511 C 0.89858 0.41711 0.67588
 C512 C 0.91659 0.45773 0.68524
 C513 C 0.90494 0.48334 0.67104
 C514 C 0.87602 0.46878 0.64759
 C515 C 0.82834 0.41289 0.61373
 C516 C 0.81771 0.43905 0.59944
 C517 C 0.78933 0.42439 0.57563
 C518 C 0.77150 0.38382 0.56614
 C519 C 0.78236 0.35796 0.58096
 C520 C 0.81086 0.37238 0.60468
 C521 C 0.86441 0.49398 0.63288
 C522 C 0.83578 0.47937 0.60919
 C523 C 0.85126 0.36184 0.64295
 C524 C 0.82239 0.34716 0.61943
 H525 H 0.87768 0.52530 0.63966
 H526 H 0.82779 0.49985 0.59838
 H527 H 0.85942 0.34143 0.65364
 H528 H 0.80912 0.31584 0.61266
 H529 H 0.90719 0.39709 0.68667
 H530 H 0.91864 0.51465 0.67798
 H531 H 0.78113 0.44457 0.56456
 H532 H 0.76894 0.32672 0.57390
 C533 C 0.42869 0.56989 0.63861
 C534 C 0.40272 0.53277 0.65263
 C535 C 0.41761 0.51866 0.67599
 C536 C 0.45815 0.54147 0.68542
 C537 C 0.48367 0.57882 0.67121
 C538 C 0.46912 0.59309 0.64772
 C539 C 0.41330 0.58465 0.61379
 C540 C 0.43938 0.62157 0.59955
 C541 C 0.42472 0.63527 0.57576
 C542 C 0.38421 0.61240 0.56621
 C543 C 0.35843 0.57551 0.58097
 C544 C 0.37287 0.56146 0.60468
 C545 C 0.49424 0.63001 0.63305
 C546 C 0.47964 0.64398 0.60936
 C547 C 0.36241 0.51045 0.64293
 C548 C 0.34772 0.52457 0.61939
 H549 H 0.52550 0.64820 0.63987
 H550 H 0.50005 0.67255 0.59859
 H551 H 0.34204 0.48178 0.65359
 H552 H 0.31646 0.50639 0.61259
 H553 H 0.39764 0.48995 0.68677
 H554 H 0.51492 0.59661 0.67820
 H555 H 0.44485 0.66376 0.56474
 H556 H 0.32724 0.55757 0.57388
 C557 C 0.43047 0.85917 0.63905
 C558 C 0.40622 0.87455 0.64953
 C559 C 0.42050 0.90340 0.67307
 C560 C 0.45904 0.91729 0.68603
 C561 C 0.48285 0.90126 0.67512
 C562 C 0.46867 0.87219 0.65174
 C563 C 0.41566 0.82899 0.61417
 C564 C 0.43987 0.81352 0.60374
 C565 C 0.42573 0.78496 0.57999
 C566 C 0.38779 0.77212 0.56648
 C567 C 0.36391 0.78800 0.57731
 C568 C 0.37766 0.81635 0.60120
 C569 C 0.49202 0.85597 0.64071
 C570 C 0.47783 0.82708 0.61716
 C571 C 0.36822 0.86094 0.63613
 C572 C 0.35422 0.83238 0.61235
 H573 H 0.52154 0.86572 0.65034
 H574 H 0.49682 0.81539 0.60933
 H575 H 0.34920 0.87257 0.64401
 H576 H 0.32481 0.82282 0.60258
 H577 H 0.40166 0.91524 0.68102
 H578 H 0.51247 0.91133 0.68472
 H579 H 0.44446 0.77309 0.57186
 H580 H 0.33459 0.77824 0.56727
 C581 C 0.14080 0.57115 0.63898
 C582 C 0.12531 0.53143 0.64933
 C583 C 0.09645 0.51680 0.67284
 C584 C 0.08266 0.54149 0.68590
 C585 C 0.09879 0.58143 0.67511
 C586 C 0.12787 0.59637 0.65177
 C587 C 0.17100 0.58659 0.61414
 C588 C 0.18658 0.62637 0.60385
 C589 C 0.21516 0.64085 0.58014
 C590 C 0.22791 0.61572 0.56651
 C591 C 0.21191 0.57586 0.57721
 C592 C 0.18355 0.56120 0.60107
 C593 C 0.14421 0.63604 0.64088
 C594 C 0.17311 0.65080 0.61737
 C595 C 0.13883 0.50701 0.63583
 C596 C 0.16740 0.52162 0.61208
 H597 H 0.13454 0.65584 0.65058
 H598 H 0.18489 0.68156 0.60964
 H599 H 0.12712 0.47628 0.64359
 H600 H 0.17688 0.50173 0.60223
 H601 H 0.08454 0.48606 0.68069
 H602 H 0.08881 0.60102 0.68479
 H603 H 0.22711 0.67153 0.57212
 H604 H 0.22159 0.55627 0.56709
 C605 C 0.43039 0.57190 0.86115
 C606 C 0.40734 0.53138 0.85211
 C607 C 0.42166 0.51687 0.82862
 C608 C 0.45890 0.54252 0.81433
 C609 C 0.48154 0.58314 0.82366
 C610 C 0.46739 0.59799 0.84703
 C611 C 0.41563 0.58723 0.88601
 C612 C 0.43868 0.62774 0.89505
 C613 C 0.42463 0.64212 0.91883
 C614 C 0.38791 0.61620 0.93369
 C615 C 0.36515 0.57563 0.92422
 C616 C 0.37885 0.56102 0.90037
 C617 C 0.48957 0.63837 0.85665
 C618 C 0.47543 0.65301 0.88024
 C619 C 0.37055 0.50613 0.86688
 C620 C 0.35657 0.52069 0.89063
 H621 H 0.51814 0.65882 0.84591
 H622 H 0.49349 0.68434 0.88700
 H623 H 0.35249 0.47481 0.86012
 H624 H 0.32811 0.50019 0.90149
 H625 H 0.40401 0.48555 0.82169
 H626 H 0.51017 0.60318 0.81280
 H627 H 0.44246 0.67336 0.92588
 H628 H 0.33677 0.55542 0.93534
 C629 C 0.14213 0.56995 0.86071
 C630 C 0.12470 0.59297 0.85171
 C631 C 0.09594 0.57864 0.82816
 C632 C 0.08438 0.54143 0.81379
 C633 C 0.10233 0.51883 0.82309
 C634 C 0.13127 0.53299 0.84650
 C635 C 0.17214 0.58471 0.88564
 C636 C 0.18956 0.56170 0.89465
 C637 C 0.21791 0.57574 0.91849
 C638 C 0.22866 0.61243 0.93345
 C639 C 0.21088 0.63515 0.92400
 C640 C 0.18266 0.62145 0.90008
 C641 C 0.14944 0.51084 0.85610
 C642 C 0.17814 0.52498 0.87974
 C643 C 0.13619 0.62972 0.86657
 C644 C 0.16465 0.64370 0.89037
 H645 H 0.14136 0.48230 0.84530
 H646 H 0.19138 0.50695 0.88648
 H647 H 0.12296 0.64776 0.85983
 H648 H 0.17257 0.67213 0.90130
 H649 H 0.08229 0.59626 0.82127
 H650 H 0.09377 0.49022 0.81217
 H651 H 0.23129 0.55793 0.92552
 H652 H 0.21900 0.66350 0.93518
 C653 C 0.42829 0.85814 0.86086
 C654 C 0.40215 0.86884 0.84665
 C655 C 0.41691 0.89772 0.82320
 C656 C 0.45750 0.91576 0.81389
 C657 C 0.48320 0.90437 0.82825
 C658 C 0.46877 0.87567 0.85183
 C659 C 0.41305 0.82820 0.88581
 C660 C 0.43931 0.81783 0.90026
 C661 C 0.42478 0.78966 0.92419
 C662 C 0.38424 0.77178 0.93365
 C663 C 0.35829 0.78240 0.91869
 C664 C 0.37258 0.81069 0.89484
 C665 C 0.49407 0.86433 0.86669
 C666 C 0.47960 0.83593 0.89052
 C667 C 0.36180 0.85059 0.85626
 C668 C 0.34725 0.82195 0.87993
 H669 H 0.52537 0.87764 0.85993
 H670 H 0.50014 0.82813 0.90146
 H671 H 0.34132 0.85855 0.84545
 H672 H 0.31595 0.80864 0.88669
 H673 H 0.39683 0.90616 0.81229
 H674 H 0.51449 0.91810 0.82134
 H675 H 0.44501 0.78163 0.93538
 H676 H 0.32706 0.76894 0.92572
 C677 C 0.57185 0.43038 0.86146
 C678 C 0.59783 0.46757 0.84755
 C679 C 0.58300 0.48174 0.82418
 C680 C 0.54252 0.45890 0.81463
 C681 C 0.51698 0.42147 0.82873
 C682 C 0.53146 0.40714 0.85223
 C683 C 0.58716 0.41557 0.88629
 C684 C 0.56107 0.37857 0.90043
 C685 C 0.57567 0.36482 0.92424
 C686 C 0.61612 0.38773 0.93389
 C687 C 0.64192 0.42468 0.91923
 C688 C 0.62755 0.43878 0.89551
 C689 C 0.50633 0.37015 0.86680
 C690 C 0.52087 0.35613 0.89051
 C691 C 0.63808 0.48992 0.85736
 C692 C 0.65270 0.47575 0.88090
 H693 H 0.47511 0.35193 0.85989
 H694 H 0.50044 0.32751 0.90120
 H695 H 0.65846 0.51865 0.84679
 H696 H 0.68393 0.49395 0.88780
 H697 H 0.60297 0.51051 0.81348
 H698 H 0.48577 0.40365 0.82165
 H699 H 0.55553 0.33628 0.93519
 H700 H 0.67307 0.44265 0.92641
 C701 C 0.85921 0.42834 0.86115
 C702 C 0.87637 0.46870 0.85185
 C703 C 0.90517 0.48316 0.82831
 C704 C 0.91705 0.45762 0.81420
 C705 C 0.89940 0.41715 0.82383
 C706 C 0.87041 0.40235 0.84725
 C707 C 0.82908 0.41305 0.88603
 C708 C 0.81189 0.37268 0.89531
 C709 C 0.78341 0.35834 0.91908
 C710 C 0.77226 0.38415 0.93373
 C711 C 0.78984 0.42459 0.92401
 C712 C 0.81820 0.43916 0.90015
 C713 C 0.85248 0.36211 0.85713
 C714 C 0.82369 0.34752 0.88071
 C715 C 0.86452 0.49385 0.86642
 C716 C 0.83597 0.47934 0.89017
 H717 H 0.86082 0.34172 0.84657
 H718 H 0.81065 0.31630 0.88765
 H719 H 0.87754 0.52506 0.85946
 H720 H 0.82779 0.49979 0.90084
 H721 H 0.91856 0.51436 0.82119
 H722 H 0.90819 0.39718 0.81313
 H723 H 0.77021 0.32720 0.92630
 H724 H 0.78145 0.44475 0.93494
 C725 C 0.56960 0.14098 0.86121
 C726 C 0.59282 0.12389 0.85187
 C727 C 0.57846 0.09506 0.82831
 C728 C 0.54101 0.08309 0.81426
 C729 C 0.51819 0.10068 0.82393
 C730 C 0.53239 0.12969 0.84735
 C731 C 0.58445 0.17112 0.88611
 C732 C 0.56125 0.18823 0.89544
 C733 C 0.57540 0.21673 0.91923
 C734 C 0.61238 0.22796 0.93383
 C735 C 0.63526 0.21045 0.92407
 C736 C 0.62146 0.18208 0.90019
 C737 C 0.51006 0.14755 0.85728
 C738 C 0.52427 0.17636 0.88089
 C739 C 0.62983 0.13581 0.86639
 C740 C 0.64389 0.16438 0.89016
 H741 H 0.48132 0.13914 0.84675
 H742 H 0.50609 0.18935 0.88787
 H743 H 0.64803 0.12284 0.85939
 H744 H 0.67252 0.17263 0.90081
 H745 H 0.59626 0.08171 0.82115
 H746 H 0.48940 0.09182 0.81326
 H747 H 0.55746 0.22988 0.92649
 H748 H 0.66382 0.21891 0.93496
   
