data_POSCAR
  _audit_creation_date              2014-09-24
  _audit_creation_method            'ToBaCCo'
  _symmetry_space_group_name_H-M    'P1'
  _symmetry_Int_Tables_number       1
  _symmetry_cell_setting            triclinic
  loop_
  _symmetry_equiv_pos_as_xyz
 x,y,z
_cell_length_a 20.6856
_cell_length_b 20.6856
_cell_length_c 20.8007
_cell_angle_alpha 91.590300
_cell_angle_beta 91.096800
_cell_angle_gamma 90.525100
loop_
  _atom_site_label
  _atom_site_type_symbol
  _atom_site_fract_x
  _atom_site_fract_y
  _atom_site_fract_z
C1 C -0.00490 0.44361 0.21077
 C2 C 0.05997 0.44694 0.24653
 C3 C 0.06812 0.50012 0.28570
 C4 C 0.00918 0.54613 0.28605
 C5 C -0.05543 0.44862 0.26279
 C6 C -0.04919 0.50217 0.30188
 C7 C -0.00946 0.50750 0.17482
 C8 C -0.00216 0.56144 0.21433
 H9 H 0.09750 0.41103 0.23976
 H10 H 0.01531 0.58932 0.31860
 H11 H -0.09705 0.41618 0.26410
 H12 H -0.01799 0.50986 0.12325
 C13 C 0.01162 0.43688 0.79482
 C14 C -0.04485 0.43543 0.75260
 C15 C -0.04537 0.48588 0.70747
 C16 C 0.01186 0.52829 0.71234
 C17 C 0.06669 0.43415 0.75291
 C18 C 0.06709 0.48451 0.70741
 C19 C 0.01334 0.50122 0.82562
 C20 C 0.01370 0.55196 0.77939
 H21 H -0.08747 0.40552 0.76066
 H22 H 0.01204 0.56696 0.67615
 H23 H 0.10744 0.40192 0.75979
 H24 H 0.01160 0.51020 0.87729
 C25 C 0.21409 -0.00312 0.42696
 C26 C 0.26015 0.05456 0.43460
 C27 C 0.29401 0.05700 0.49127
 C28 C 0.27890 0.00008 0.53580
 C29 C 0.25588 -0.06238 0.43662
 C30 C 0.28927 -0.06156 0.49359
 C31 C 0.17070 0.00058 0.48606
 C32 C 0.20478 0.00203 0.54317
 H33 H 0.26260 0.09277 0.39982
 H34 H 0.30699 0.00146 0.58188
 H35 H 0.25465 -0.10420 0.40373
 H36 H 0.11821 -0.00052 0.48311
 C37 C 0.78079 -0.01311 0.42174
 C38 C 0.72416 -0.05421 0.42160
 C39 C 0.68631 -0.04636 0.47771
 C40 C 0.71067 0.00403 0.52254
 C41 C 0.75575 0.05566 0.42916
 C42 C 0.71901 0.06481 0.48193
 C43 C 0.81793 -0.02556 0.48499
 C44 C 0.78056 -0.01619 0.53803
 H45 H 0.71890 -0.09659 0.38956
 H46 H 0.68005 0.01182 0.56539
 H47 H 0.76731 0.09414 0.39657
 H48 H 0.86889 -0.03763 0.48772
 C49 C 0.43332 0.21177 0.99924
 C50 C 0.43836 0.24727 1.06019
 C51 C 0.49347 0.28919 1.06569
 C52 C 0.53370 0.28794 1.00740
 C53 C 0.43333 0.26030 0.95023
 C54 C 0.48887 0.30209 0.95337
 C55 C 0.49416 0.17720 0.99255
 C56 C 0.54995 0.21938 0.99693
 H57 H 0.40640 0.23916 1.10026
 H58 H 0.57629 0.32116 1.01114
 H59 H 0.40005 0.25882 0.90897
 H60 H 0.49738 0.12514 0.98479
 C61 C 0.43014 0.78049 1.01606
 C62 C 0.43648 0.73495 0.95781
 C63 C 0.49307 0.70208 0.95707
 C64 C 0.53776 0.71674 1.01587
 C65 C 0.43848 0.73782 1.07405
 C66 C 0.49487 0.70459 1.07424
 C67 C 0.48727 0.82235 1.01613
 C68 C 0.54659 0.78663 1.01614
 H69 H 0.40305 0.73495 0.91677
 H70 H 0.58329 0.68853 1.01597
 H71 H 0.40517 0.73765 1.11388
 H72 H 0.48539 0.87465 1.01308
 B73 B 0.98930 1.06526 0.02841
 B74 B 0.98752 1.06500 -0.05365
 B75 B 1.05703 1.03821 -0.01306
 B76 B 1.03053 0.99760 0.05324
 B77 B 0.94766 0.99744 0.05294
 B78 B 0.92052 1.03844 -0.01314
 B79 B 0.98718 0.92947 -0.05759
 B80 B 0.98804 0.92951 0.02603
 B81 B 0.92023 0.95525 -0.01527
 B82 B 0.94513 0.99696 -0.08122
 B83 B 1.02854 0.99725 -0.08202
 B84 B 1.05550 0.95487 -0.01362
 B85 B 0.58016 0.50657 0.47492
 B86 B 0.57546 0.51040 0.55723
 B87 B 0.54703 0.57407 0.51271
 B88 B 0.51132 0.54127 0.44309
 B89 B 0.51651 0.45814 0.44540
 B90 B 0.55597 0.43930 0.51616
 B91 B 0.44033 0.50056 0.54760
 B92 B 0.44524 0.49648 0.46495
 B93 B 0.47289 0.43266 0.51037
 B94 B 0.50926 0.46546 0.58021
 B95 B 0.50449 0.54791 0.57741
 B96 B 0.46454 0.56756 0.50709
 C97 C 0.98292 1.26689 0.11691
 C98 C 0.93741 1.22061 0.13427
 C99 C 0.93926 1.15768 0.10753
 C100 C 0.98769 1.38343 0.17224
 C101 C 1.03051 1.18782 0.04571
 C102 C 1.02923 1.25028 0.07223
 C103 C 0.98385 1.33096 0.14567
 C104 C 0.98804 1.13793 0.06466
 H105 H 0.90011 1.23317 0.16815
 H106 H 0.90140 1.12572 0.12073
 H107 H 1.06185 1.18104 0.00550
 H108 H 1.06337 1.28617 0.05615
 C109 C 0.98967 0.74108 0.13423
 C110 C 0.97597 0.79934 0.16656
 C111 C 0.97543 0.85784 0.13346
 C112 C 0.99442 0.62662 0.18992
 C113 C 1.00196 0.80038 0.03634
 C114 C 1.00249 0.74225 0.06892
 C115 C 0.99179 0.67973 0.16661
 C116 C 0.98872 0.86071 0.06670
 H117 H 0.96680 0.79995 0.21767
 H118 H 0.96905 0.90060 0.16255
 H119 H 1.01176 0.79546 -0.01302
 H120 H 1.01314 0.69775 0.04262
 C121 C 0.99916 1.26922 -0.11937
 C122 C 1.03264 1.22089 -0.15177
 C123 C 1.02339 1.15660 -0.13626
 C124 C 1.00991 1.38501 -0.16515
 C125 C 0.94439 1.18811 -0.05978
 C126 C 0.95244 1.25264 -0.07574
 C127 C 1.00573 1.33406 -0.13959
 C128 C 0.98403 1.13803 -0.08550
 H129 H 1.06361 1.23252 -0.19138
 H130 H 1.03980 1.12265 -0.17057
 H131 H 0.91158 1.18062 -0.02147
 H132 H 0.92333 1.28956 -0.05270
 C133 C 0.99702 0.73816 -0.16523
 C134 C 1.04750 0.78292 -0.16883
 C135 C 1.04245 0.84405 -0.13876
 C136 C 1.00932 0.61591 -0.20341
 C137 C 0.93575 0.81704 -0.10486
 C138 C 0.94043 0.75621 -0.13490
 C139 C 1.00448 0.67211 -0.18735
 C140 C 0.98739 0.86239 -0.10328
 H141 H 1.09205 0.76969 -0.19213
 H142 H 1.08483 0.87483 -0.13916
 H143 H 0.89208 0.82533 -0.08065
 H144 H 0.90054 0.72214 -0.13194
 C145 C 1.13070 0.99454 0.24682
 C146 C 1.12247 0.93740 0.21049
 C147 C 1.09453 0.93885 0.14887
 C148 C 1.18063 0.99486 0.36437
 C149 C 1.08651 1.05427 0.15863
 C150 C 1.11453 1.05311 0.21999
 C151 C 1.15691 0.99388 0.31111
 C152 C 1.07175 0.99701 0.12238
 H153 H 1.13772 0.89167 0.22960
 H154 H 1.09314 0.89387 0.12176
 H155 H 1.06944 1.10038 0.14456
 H156 H 1.12141 1.09805 0.24741
 C157 C 1.11830 0.99799 -0.28122
 C158 C 1.14262 1.03837 -0.23197
 C159 C 1.11399 1.03947 -0.17174
 C160 C 1.17352 0.99994 -0.39529
 C161 C 1.03551 0.96158 -0.20916
 C162 C 1.06366 0.96037 -0.27003
 C163 C 1.14775 0.99840 -0.34366
 C164 C 1.06201 0.99813 -0.15572
 H165 H 1.18226 1.07140 -0.24076
 H166 H 1.12860 1.07955 -0.14108
 H167 H 0.99290 0.93219 -0.20519
 H168 H 1.04226 0.93033 -0.30843
 C169 C 0.86717 0.97644 0.24904
 C170 C 0.83367 0.94867 0.19638
 C171 C 0.85538 0.95879 0.13428
 C172 C 0.81671 0.97796 0.36313
 C173 C 0.94003 1.02699 0.17767
 C174 C 0.91943 1.01688 0.23949
 C175 C 0.84122 0.97442 0.31166
 C176 C 0.91214 0.99514 0.12309
 H177 H 0.78924 0.92171 0.20301
 H178 H 0.82327 0.94356 0.09646
 H179 H 0.97504 1.06374 0.17368
 H180 H 0.94265 1.04314 0.27960
 C181 C 0.85075 0.98507 -0.27761
 C182 C 0.84072 0.93570 -0.23456
 C183 C 0.86730 0.94077 -0.17217
 C184 C 0.80534 0.98077 -0.39709
 C185 C 0.91202 1.04444 -0.19552
 C186 C 0.88569 1.03979 -0.25753
 C187 C 0.82560 0.98090 -0.34245
 C188 C 0.90465 0.99507 -0.15059
 H189 H 0.81296 0.89296 -0.24925
 H190 H 0.85802 0.90134 -0.14185
 H191 H 0.93800 1.08747 -0.18450
 H192 H 0.89340 1.07896 -0.29017
 C193 C 1.26315 1.11703 -0.00671
 C194 C 1.21846 1.14038 0.03685
 C195 C 1.15538 1.11598 0.03566
 C196 C 1.37799 1.17328 -0.00466
 C197 C 1.18187 1.04313 -0.04995
 C198 C 1.24523 1.06712 -0.04944
 C199 C 1.32687 1.14496 -0.00655
 C200 C 1.13207 1.07071 -0.01175
 H201 H 1.23255 1.17707 0.07279
 H202 H 1.12725 1.13321 0.07398
 H203 H 1.17321 0.99984 -0.07894
 H204 H 1.28034 1.04557 -0.08132
 C205 C 0.72782 1.14191 -0.01357
 C206 C 0.75148 1.11340 0.04176
 C207 C 0.81095 1.08199 0.04190
 C208 C 0.61169 1.19613 -0.00855
 C209 C 0.82449 1.10662 -0.06885
 C210 C 0.76458 1.13829 -0.06922
 C211 C 0.66510 1.17277 -0.01233
 C212 C 0.85040 1.07788 -0.01282
 H213 H 0.72360 1.11507 0.08537
 H214 H 0.82424 1.06210 0.08638
 H215 H 0.85095 1.10683 -0.11244
 H216 H 0.74711 1.15991 -0.11301
 C217 C 1.25004 0.85894 0.01104
 C218 C 1.23749 0.91722 0.04184
 C219 C 1.17641 0.94376 0.03677
 C220 C 1.36773 0.81242 0.01517
 C221 C 1.13825 0.85202 -0.02497
 C222 C 1.19989 0.82490 -0.02051
 C223 C 1.31419 0.83409 0.01336
 C224 C 1.12540 0.91546 -0.00203
 H225 H 1.27521 0.94306 0.06915
 H226 H 1.17209 0.98900 0.06236
 H227 H 1.10234 0.82080 -0.04509
 H228 H 1.20816 0.77717 -0.04137
 C229 C 0.72350 0.86281 -0.00424
 C230 C 0.73255 0.91841 -0.03915
 C231 C 0.79435 0.94472 -0.04512
 C232 C 0.60601 0.81449 0.00962
 C233 C 0.83895 0.85878 0.01686
 C234 C 0.77697 0.83217 0.02256
 C235 C 0.65941 0.83694 0.00342
 C236 C 0.84951 0.91743 -0.01551
 H237 H 0.69172 0.94169 -0.06193
 H238 H 0.79794 0.98587 -0.07491
 H239 H 0.87725 0.83319 0.03941
 H240 H 0.77075 0.78814 0.04888
 C241 C 0.78269 0.52541 0.39715
 C242 C 0.77130 0.49074 0.45231
 C243 C 0.70831 0.48291 0.47435
 C244 C 0.89649 0.51937 0.34130
 C245 C 0.66729 0.54248 0.38568
 C246 C 0.73019 0.55031 0.36331
 C247 C 0.84604 0.52543 0.36909
 C248 C 0.65392 0.51083 0.44364
 H249 H 0.81091 0.46768 0.47733
 H250 H 0.70322 0.45239 0.51465
 H251 H 0.62992 0.55833 0.35452
 H252 H 0.73747 0.57383 0.31807
 C253 C 0.24928 0.50545 0.36775
 C254 C 0.29424 0.55519 0.36102
 C255 C 0.35714 0.54945 0.38622
 C256 C 0.12991 0.51014 0.31867
 C257 C 0.33237 0.44307 0.42124
 C258 C 0.26932 0.44850 0.39619
 C259 C 0.18391 0.51065 0.34225
 C260 C 0.37773 0.49446 0.42002
 H261 H 0.28061 0.59897 0.33698
 H262 H 0.38844 0.58961 0.37985
 H263 H 0.34382 0.39821 0.44166
 H264 H 0.23595 0.40811 0.39963
 C265 C 0.77450 0.51193 0.64511
 C266 C 0.75079 0.56714 0.61746
 C267 C 0.68703 0.56853 0.59533
 C268 C 0.89637 0.50152 0.68143
 C269 C 0.66878 0.46141 0.63216
 C270 C 0.73297 0.45960 0.65444
 C271 C 0.84143 0.50855 0.66346
 C272 C 0.64415 0.51518 0.59935
 H273 H 0.78204 0.60877 0.61128
 H274 H 0.67376 0.61208 0.57437
 H275 H 0.63988 0.41935 0.63925
 H276 H 0.75058 0.41658 0.67733
 C277 C 0.23864 0.50042 0.62592
 C278 C 0.28819 0.46929 0.65883
 C279 C 0.35088 0.46918 0.63504
 C280 C 0.12238 0.49603 0.67516
 C281 C 0.31449 0.53123 0.54579
 C282 C 0.25188 0.53126 0.56926
 C283 C 0.17448 0.50028 0.65090
 C284 C 0.36655 0.50012 0.57749
 H285 H 0.27861 0.44558 0.70352
 H286 H 0.38680 0.44747 0.66420
 H287 H 0.32117 0.55890 0.50380
 H288 H 0.21402 0.55619 0.54342
 C289 C 0.52442 0.61957 0.24435
 C290 C 0.49230 0.56160 0.25453
 C291 C 0.48560 0.53965 0.31670
 C292 C 0.51398 0.67115 0.13076
 C293 C 0.54166 0.63398 0.35906
 C294 C 0.54802 0.65645 0.29680
 C295 C 0.52237 0.64633 0.18167
 C296 C 0.51251 0.57341 0.37117
 H297 H 0.47016 0.53429 0.21454
 H298 H 0.45647 0.49703 0.32101
 H299 H 0.55663 0.66654 0.39683
 H300 H 0.56947 0.70369 0.28989
 C301 C 0.51571 0.63151 0.77738
 C302 C 0.45893 0.60209 0.75444
 C303 C 0.45302 0.58187 0.69036
 C304 C 0.51246 0.67337 0.89725
 C305 C 0.55866 0.62398 0.67061
 C306 C 0.56493 0.64470 0.73497
 C307 C 0.51886 0.65319 0.84319
 C308 C 0.50361 0.58895 0.64668
 H309 H 0.41887 0.59435 0.78630
 H310 H 0.40829 0.56051 0.67707
 H311 H 0.59811 0.63501 0.64078
 H312 H 0.60828 0.67035 0.75154
 C313 C 0.51749 0.36091 0.24728
 C314 C 0.57189 0.39394 0.27142
 C315 C 0.57333 0.41965 0.33441
 C316 C 0.50849 0.31698 0.12522
 C317 C 0.46745 0.37726 0.35200
 C318 C 0.46564 0.35133 0.28855
 C319 C 0.51455 0.33778 0.18036
 C320 C 0.52075 0.41431 0.37671
 H321 H 0.61321 0.40116 0.24108
 H322 H 0.61652 0.44414 0.34792
 H323 H 0.42564 0.36967 0.38039
 H324 H 0.42295 0.32501 0.27132
 C325 C 0.51142 0.38238 0.78113
 C326 C 0.54472 0.43921 0.76858
 C327 C 0.54420 0.46376 0.70648
 C328 C 0.50412 0.33362 0.89815
 C329 C 0.47735 0.37522 0.66822
 C330 C 0.47790 0.35032 0.73043
 C331 C 0.51010 0.35728 0.84577
 C332 C 0.50980 0.43361 0.65375
 H333 H 0.57155 0.46479 0.80679
 H334 H 0.57309 0.50621 0.70086
 H335 H 0.45270 0.34695 0.63176
 H336 H 0.45207 0.30564 0.73882
 C337 C 0.61813 0.77995 0.51379
 C338 C 0.56398 0.76354 0.54797
 C339 C 0.54424 0.69925 0.54948
 C340 C 0.65672 0.89914 0.49727
 C341 C 0.63361 0.66735 0.48435
 C342 C 0.65383 0.73180 0.48302
 C343 C 0.63671 0.84607 0.50794
 C344 C 0.57647 0.64888 0.51558
 H345 H 0.53661 0.80038 0.57326
 H346 H 0.50364 0.69041 0.57895
 H347 H 0.66414 0.63287 0.46190
 H348 H 0.69717 0.74409 0.45735
 C349 C 0.65386 0.24741 0.51127
 C350 C 0.62083 0.26736 0.56550
 C351 C 0.59437 0.32888 0.56881
 C352 C 0.69438 0.12773 0.49735
 C353 C 0.63646 0.35216 0.46551
 C354 C 0.66311 0.29037 0.46174
 C355 C 0.67582 0.18214 0.50526
 C356 C 0.59943 0.37296 0.51844
 H357 H 0.61395 0.23478 0.60478
 H358 H 0.56975 0.33979 0.61139
 H359 H 0.64451 0.38242 0.42587
 H360 H 0.68952 0.27566 0.41938
 C361 C 0.36926 0.76249 0.51796
 C362 C 0.40001 0.74179 0.46239
 C363 C 0.42510 0.67968 0.45727
 C364 C 0.32006 0.87969 0.51329
 C365 C 0.38677 0.65670 0.56203
 C366 C 0.36118 0.71922 0.56746
 C367 C 0.34301 0.82683 0.52017
 C368 C 0.42124 0.63507 0.50716
 H369 H 0.40515 0.77405 0.42256
 H370 H 0.44778 0.66878 0.41355
 H371 H 0.38039 0.62656 0.60216
 H372 H 0.33587 0.73381 0.61051
 C373 C 0.38899 0.23006 0.51639
 C374 C 0.35485 0.28244 0.54146
 C375 C 0.37947 0.34542 0.53756
 C376 C 0.33184 0.11458 0.50785
 C377 C 0.47155 0.30492 0.48166
 C378 C 0.44711 0.24173 0.48554
 C379 C 0.35974 0.16613 0.51437
 C380 C 0.43989 0.35897 0.50968
 H381 H 0.30793 0.27495 0.56246
 H382 H 0.34839 0.38281 0.55357
 H383 H 0.51466 0.31054 0.45441
 H384 H 0.47291 0.20216 0.46285
   
