data_POSCAR
  _audit_creation_date              2014-09-24
  _audit_creation_method            'ToBaCCo'
  _symmetry_space_group_name_H-M    'P1'
  _symmetry_Int_Tables_number       1
  _symmetry_cell_setting            triclinic
  loop_
  _symmetry_equiv_pos_as_xyz
 x,y,z
_cell_length_a 35.8445
_cell_length_b 37.8637
_cell_length_c 37.5114
_cell_angle_alpha 88.438200
_cell_angle_beta 95.424300
_cell_angle_gamma 86.330300
loop_
  _atom_site_label
  _atom_site_type_symbol
  _atom_site_fract_x
  _atom_site_fract_y
  _atom_site_fract_z
N1 N 0.32802 0.20508 0.21363
 N2 N 0.31313 0.23358 0.19564
 C3 C 0.32923 0.23688 0.16489
 C4 C 0.35581 0.20887 0.16367
 C5 C 0.35424 0.18915 0.19497
 H6 H 0.32209 0.25810 0.14507
 H7 H 0.37133 0.16537 0.20380
 Cu8 Cu 0.27481 0.26403 0.21445
 Cu9 Cu 0.31335 0.19241 0.26064
 Cu10 Cu 0.22745 0.23196 0.28008
 N11 N 0.22701 0.28594 0.22447
 N12 N 0.20848 0.27405 0.25043
 C13 C 0.17668 0.29498 0.25153
 C14 C 0.17541 0.32094 0.22447
 C15 C 0.20762 0.31421 0.20784
 H16 H 0.15600 0.29138 0.27028
 H17 H 0.21645 0.32906 0.18543
 N18 N 0.25245 0.18938 0.30665
 N19 N 0.28561 0.17543 0.29970
 C20 C 0.29557 0.14728 0.32195
 C21 C 0.26742 0.14296 0.34390
 C22 C 0.24038 0.17013 0.33361
 H23 H 0.32108 0.13046 0.32162
 H24 H 0.21396 0.17540 0.34480
 H25 H 0.25909 0.20902 0.24224
 H26 H 0.28278 0.23774 0.27562
 N27 N 0.72255 -0.19931 0.22359
 N28 N 0.73756 -0.22530 0.20597
 C29 C 0.71464 -0.23054 0.17622
 C30 C 0.68392 -0.20613 0.17518
 C31 C 0.69004 -0.18673 0.20550
 H32 H 0.72011 -0.25030 0.15678
 H33 H 0.67187 -0.16528 0.21397
 Cu34 Cu 0.78561 -0.24949 0.22395
 Cu35 Cu 0.74543 -0.18382 0.26899
 Cu36 Cu 0.83445 -0.22055 0.29725
 N37 N 0.83375 -0.27287 0.24296
 N38 N 0.85203 -0.26181 0.27218
 C39 C 0.88325 -0.28312 0.28064
 C40 C 0.88485 -0.30887 0.25538
 C41 C 0.85300 -0.30157 0.23165
 H42 H 0.90319 -0.28032 0.30375
 H43 H 0.84395 -0.31651 0.20862
 N44 N 0.80782 -0.18466 0.32431
 N45 N 0.77341 -0.17146 0.31403
 C46 C 0.76278 -0.14790 0.33797
 C47 C 0.79201 -0.14614 0.36455
 C48 C 0.82010 -0.16969 0.35504
 H49 H 0.73627 -0.13234 0.33560
 H50 H 0.84758 -0.17519 0.36935
 H51 H 0.79866 -0.19551 0.25573
 H52 H 0.77895 -0.22970 0.28420
 N53 N 0.71409 0.23168 0.82119
 N54 N 0.73194 0.25833 0.83442
 C55 C 0.71382 0.27162 0.86145
 C56 C 0.68326 0.25189 0.86549
 C57 C 0.68432 0.22669 0.83951
 H58 H 0.72216 0.29399 0.87694
 H59 H 0.66457 0.20673 0.83364
 Cu60 Cu 0.77707 0.27276 0.81491
 Cu61 Cu 0.73029 0.20601 0.78078
 Cu62 Cu 0.79027 0.25036 0.73045
 N63 N 0.81123 0.29692 0.78726
 N64 N 0.81518 0.28934 0.75376
 C65 C 0.83872 0.31161 0.74053
 C66 C 0.85015 0.33420 0.76743
 C67 C 0.83227 0.32394 0.79666
 H68 H 0.84696 0.31113 0.71355
 H69 H 0.83374 0.33588 0.82259
 N70 N 0.76254 0.20973 0.71263
 N71 N 0.73987 0.19309 0.73209
 C72 C 0.72479 0.16706 0.71307
 C73 C 0.73901 0.16679 0.68025
 C74 C 0.76295 0.19416 0.68072
 H75 H 0.70505 0.14936 0.72248
 H76 H 0.77921 0.20221 0.65942
 H77 H 0.78478 0.22194 0.77613
 H78 H 0.74433 0.25354 0.75997
 N79 N 0.27926 -0.23461 0.81162
 N80 N 0.26347 -0.26154 0.82531
 C81 C 0.28406 -0.27341 0.85565
 C82 C 0.31398 -0.25234 0.86150
 C83 C 0.31009 -0.22792 0.83303
 H84 H 0.27773 -0.29562 0.87228
 H85 H 0.32868 -0.20742 0.82769
 Cu86 Cu 0.21713 -0.27768 0.80238
 Cu87 Cu 0.25894 -0.21088 0.76674
 Cu88 Cu 0.19262 -0.25614 0.71535
 N89 N 0.18027 -0.30306 0.77417
 N90 N 0.17084 -0.29516 0.74001
 C91 C 0.14540 -0.31760 0.72717
 C92 C 0.13880 -0.34071 0.75501
 C93 C 0.16141 -0.33060 0.78428
 H94 H 0.13287 -0.31709 0.69978
 H95 H 0.16419 -0.34271 0.81094
 N96 N 0.21814 -0.21561 0.69620
 N97 N 0.24354 -0.19899 0.71596
 C98 C 0.25662 -0.17352 0.69580
 C99 C 0.23826 -0.17349 0.66188
 C100 C 0.21392 -0.20047 0.66290
 H101 H 0.27781 -0.15596 0.70516
 H102 H 0.19491 -0.20862 0.64101
 H103 H 0.20405 -0.22721 0.75933
 H104 H 0.24282 -0.25873 0.74798
 N105 N 0.67780 -0.23805 0.79341
 N106 N 0.69359 -0.27029 0.79904
 C107 C 0.67843 -0.28599 0.82647
 C108 C 0.65208 -0.26223 0.83880
 C109 C 0.65238 -0.23208 0.81712
 H110 H 0.68613 -0.31261 0.83698
 H111 H 0.63531 -0.20763 0.81827
 Cu112 Cu 0.73275 -0.28853 0.77030
 Cu113 Cu 0.69117 -0.20587 0.75600
 Cu114 Cu 0.75677 -0.23869 0.70154
 N115 N 0.76875 -0.30650 0.73805
 N116 N 0.77638 -0.28724 0.71032
 C117 C 0.80123 -0.30557 0.69210
 C118 C 0.81037 -0.33784 0.70958
 C119 C 0.78918 -0.33776 0.73875
 H120 H 0.81299 -0.29567 0.66856
 H121 H 0.78869 -0.35863 0.75890
 N122 N 0.73424 -0.19012 0.69649
 N123 N 0.70861 -0.17751 0.71667
 C124 C 0.69819 -0.14374 0.70581
 C125 C 0.71875 -0.13475 0.67794
 C126 C 0.74120 -0.16479 0.67269
 H127 H 0.67728 -0.12686 0.71726
 H128 H 0.76053 -0.16819 0.65244
 H129 H 0.70642 -0.24590 0.72335
 H130 H 0.74477 -0.22788 0.75353
 N131 N 0.28549 0.19551 0.77934
 N132 N 0.27735 0.22611 0.79346
 C133 C 0.30309 0.23125 0.82096
 C134 C 0.32876 0.20218 0.82445
 C135 C 0.31663 0.17992 0.79773
 H136 H 0.30277 0.25424 0.83742
 H137 H 0.32957 0.15433 0.79211
 Cu138 Cu 0.23380 0.25645 0.77527
 Cu139 Cu 0.25473 0.17857 0.73831
 Cu140 Cu 0.17787 0.23410 0.70420
 N141 N 0.19992 0.29138 0.74796
 N142 N 0.17825 0.28270 0.71977
 C143 C 0.15561 0.31109 0.70765
 C144 C 0.16363 0.33901 0.72960
 C145 C 0.19183 0.32555 0.75484
 H146 H 0.13354 0.31074 0.68595
 H147 H 0.20424 0.33920 0.77751
 N148 N 0.19008 0.18745 0.68476
 N149 N 0.21967 0.16660 0.69715
 C150 C 0.22088 0.13738 0.67747
 C151 C 0.19057 0.14008 0.65149
 C152 C 0.17166 0.17205 0.65699
 H153 H 0.24224 0.11584 0.68173
 H154 H 0.14673 0.18353 0.64134
 H155 H 0.23474 0.22849 0.71780
 H156 H 0.20547 0.20495 0.74803
 N157 N 0.31924 -0.24808 0.20779
 N158 N 0.30749 -0.27937 0.19985
 C159 C 0.32722 -0.29295 0.17396
 C160 C 0.35257 -0.26891 0.16515
 C161 C 0.34676 -0.24069 0.18721
 H162 H 0.32324 -0.31826 0.16198
 H163 H 0.36116 -0.21647 0.18813
 Cu164 Cu 0.26702 -0.29905 0.22362
 Cu165 Cu 0.29747 -0.21882 0.24367
 Cu166 Cu 0.22398 -0.25230 0.28462
 N167 N 0.22520 -0.31709 0.24666
 N168 N 0.20909 -0.29875 0.27094
 C169 C 0.18151 -0.31692 0.28292
 C170 C 0.17987 -0.34813 0.26501
 C171 C 0.20800 -0.34752 0.24210
 H172 H 0.16339 -0.30784 0.30275
 H173 H 0.21532 -0.36761 0.22356
 N174 N 0.24278 -0.20581 0.29524
 N175 N 0.27149 -0.19331 0.28054
 C176 C 0.27901 -0.16209 0.29518
 C177 C 0.25353 -0.15454 0.31983
 C178 C 0.23102 -0.18281 0.31919
 H179 H 0.30170 -0.14621 0.28890
 H180 H 0.20876 -0.18702 0.33604
 H181 H 0.27942 -0.25979 0.27331
 H182 H 0.24537 -0.23892 0.23684
 N183 N 0.70738 0.25507 0.21513
 N184 N 0.71839 0.28552 0.20375
 C185 C 0.69774 0.29581 0.17295
 C186 C 0.67275 0.27041 0.16439
 C187 C 0.67955 0.24484 0.19175
 H188 H 0.70060 0.31995 0.15766
 H189 H 0.66517 0.22085 0.19469
 Cu190 Cu 0.75890 0.30864 0.22996
 Cu191 Cu 0.72982 0.23119 0.25955
 Cu192 Cu 0.80103 0.27294 0.30732
 N193 N 0.79852 0.33190 0.25745
 N194 N 0.81406 0.31812 0.28826
 C195 C 0.84101 0.33864 0.30144
 C196 C 0.84289 0.36646 0.27741
 C197 C 0.81546 0.36154 0.24975
 H198 H 0.85920 0.33288 0.32586
 H199 H 0.80892 0.37783 0.22557
 N200 N 0.78415 0.22717 0.32251
 N201 N 0.75635 0.21156 0.30506
 C202 C 0.75117 0.18110 0.32287
 C203 C 0.77732 0.17748 0.35256
 C204 C 0.79778 0.20690 0.35138
 H205 H 0.73048 0.16267 0.31457
 H206 H 0.82074 0.21312 0.37049
 H207 H 0.74594 0.27646 0.28402
 H208 H 0.78147 0.25191 0.25898
 O209 O 0.23696 0.01757 0.46214
 O210 O 0.23171 -0.06085 0.52236
 O211 O 0.23312 -0.05013 0.45321
 O212 O 0.24317 0.00540 0.53131
 O213 O 0.18162 0.01595 0.52860
 O214 O 0.17140 -0.04130 0.45009
 O215 O 0.17007 -0.05089 0.51886
 O216 O 0.17526 0.02671 0.45933
 Cu217 Cu 0.24233 -0.02298 0.49248
 Cu218 Cu 0.16847 -0.01142 0.48891
 C219 C 0.20674 0.03548 0.45054
 C220 C 0.19972 -0.06902 0.53092
 C221 C 0.20081 -0.05541 0.43834
 C222 C 0.21448 0.02023 0.54329
 O223 O 0.72954 0.05670 0.54616
 O224 O 0.71673 -0.01636 0.48360
 O225 O 0.72728 -0.01188 0.55315
 O226 O 0.71357 0.05210 0.47701
 O227 O 0.77460 0.04799 0.47207
 O228 O 0.78832 -0.01638 0.54833
 O229 O 0.77788 -0.02046 0.47934
 O230 O 0.79047 0.05238 0.54075
 Cu231 Cu 0.71568 0.02060 0.51561
 Cu232 Cu 0.78894 0.01553 0.50976
 C233 C 0.76235 0.06700 0.55393
 C234 C 0.74534 -0.03071 0.47071
 C235 C 0.75997 -0.02534 0.56349
 C236 C 0.74163 0.06081 0.46142
 O237 O 0.46785 0.26592 0.02623
 O238 O 0.54085 0.25255 -0.03551
 O239 O 0.46777 0.26363 -0.04274
 O240 O 0.54040 0.25472 0.03357
 O241 O 0.53500 0.19696 0.03636
 O242 O 0.46154 0.20598 -0.03994
 O243 O 0.53447 0.19492 -0.03324
 O244 O 0.46254 0.20814 0.02971
 Cu245 Cu 0.50484 0.26499 -0.00502
 Cu246 Cu 0.49780 0.19567 -0.00159
 C247 C 0.45307 0.23928 0.03878
 C248 C 0.55013 0.22147 -0.04484
 C249 C 0.45206 0.23648 -0.05417
 C250 C 0.55000 0.22439 0.04810
 O251 O 0.54938 0.73864 0.03828
 O252 O 0.46483 0.75251 -0.02524
 O253 O 0.53698 0.74817 -0.03093
 O254 O 0.47684 0.74625 0.04439
 O255 O 0.47943 0.80416 0.04821
 O256 O 0.53889 0.80605 -0.02599
 O257 O 0.46723 0.81044 -0.02142
 O258 O 0.55135 0.79650 0.04320
 Cu259 Cu 0.50676 0.74056 0.00629
 Cu260 Cu 0.50945 0.81003 0.01155
 C261 C 0.56484 0.76516 0.05150
 C262 C 0.45182 0.78374 -0.03445
 C263 C 0.54799 0.77774 -0.04125
 C264 C 0.46783 0.77517 0.05894
 O265 O 0.04498 0.46272 0.26691
 O266 O -0.01476 0.54454 0.24824
 O267 O -0.02690 0.47790 0.25470
 O268 O 0.05722 0.52919 0.25435
 O269 O 0.05769 0.52133 0.19627
 O270 O -0.02597 0.47058 0.19656
 O271 O -0.01503 0.53726 0.19001
 O272 O 0.04613 0.45488 0.20889
 Cu273 Cu 0.01520 0.50431 0.26185
 Cu274 Cu 0.01595 0.49528 0.19214
 C275 C 0.05566 0.44473 0.24132
 C276 C -0.02549 0.55477 0.21621
 C277 C -0.04079 0.46565 0.22547
 C278 C 0.07158 0.53416 0.22501
 O279 O 0.00598 0.54149 0.67503
 O280 O -0.05427 0.46658 0.67816
 O281 O -0.06319 0.53397 0.68969
 O282 O 0.01518 0.47275 0.66763
 O283 O 0.03322 0.46521 0.72541
 O284 O -0.04549 0.52458 0.74736
 O285 O -0.03643 0.45765 0.73587
 O286 O 0.02338 0.53343 0.73287
 Cu287 Cu -0.02576 0.50482 0.67184
 Cu288 Cu -0.00440 0.49449 0.74113
 C289 C 0.02491 0.55031 0.70329
 C290 C -0.05552 0.44925 0.70738
 C291 C -0.06795 0.53918 0.72238
 C292 C 0.03721 0.45811 0.69307
 C293 C 0.38145 0.20159 0.13596
 C294 C 0.38700 0.22592 0.11091
 C295 C 0.41402 0.21871 0.08449
 C296 C 0.42480 0.24505 0.06426
 H297 H 0.37254 0.25195 0.11055
 H298 H 0.42608 0.19192 0.08240
 H299 H 0.39721 0.17611 0.13710
 H300 H 0.41371 0.27197 0.06755
 C301 C 0.65276 0.79895 0.14987
 C302 C 0.64573 0.77739 0.12277
 C303 C 0.61192 0.78434 0.09750
 C304 C 0.59892 0.75905 0.07653
 H305 H 0.66405 0.75402 0.11968
 H306 H 0.59688 0.81017 0.09681
 H307 H 0.63283 0.82114 0.15319
 H308 H 0.61304 0.73277 0.07850
 C309 C 0.65515 0.25781 -0.10874
 C310 C 0.62987 0.23432 -0.10318
 C311 C 0.60140 0.24106 -0.07803
 C312 C 0.57922 0.21571 -0.06953
 H313 H 0.63016 0.20964 -0.11712
 H314 H 0.59871 0.26684 -0.06627
 H315 H 0.65552 0.28191 -0.09380
 H316 H 0.58287 0.18967 -0.08056
 C317 C 0.34416 0.74331 -0.10895
 C318 C 0.36742 0.76871 -0.10080
 C319 C 0.39852 0.76282 -0.07232
 C320 C 0.41897 0.78940 -0.06108
 H321 H 0.36372 0.79403 -0.11530
 H322 H 0.40504 0.73632 -0.06078
 H323 H 0.34706 0.71860 -0.09334
 H324 H 0.41167 0.81603 -0.07197
 C325 C 0.14700 0.35022 0.21433
 C326 C 0.12251 0.36259 0.23638
 C327 C 0.09715 0.39411 0.22576
 C328 C 0.07936 0.41184 0.25013
 H329 H 0.12254 0.35068 0.26299
 H330 H 0.09436 0.40378 0.19810
 H331 H 0.14799 0.36353 0.18851
 H332 H 0.08341 0.40269 0.27796
 C333 C 0.11523 0.63126 0.75529
 C334 C 0.09377 0.62145 0.72658
 C335 C 0.06997 0.59127 0.72952
 C336 C 0.04875 0.58052 0.70116
 H337 H 0.09372 0.63536 0.70095
 H338 H 0.06995 0.57758 0.75529
 H339 H 0.11464 0.61666 0.78050
 H340 H 0.04891 0.59421 0.67541
 C341 C -0.08760 0.66322 0.25617
 C342 C -0.08575 0.63927 0.23066
 C343 C -0.05765 0.60895 0.23572
 C344 C -0.05107 0.58684 0.20945
 H345 H -0.10514 0.64139 0.20661
 H346 H -0.04247 0.60423 0.26201
 H347 H -0.06672 0.66095 0.27916
 H348 H -0.06516 0.59201 0.18279
 C349 C -0.12603 0.36196 0.76659
 C350 C -0.11180 0.37313 0.73689
 C351 C -0.08742 0.40306 0.73785
 C352 C -0.07933 0.41899 0.70758
 H353 H -0.11878 0.36098 0.71152
 H354 H -0.07671 0.41264 0.76356
 H355 H -0.11962 0.37554 0.79129
 H356 H -0.09125 0.41008 0.68200
 C357 C 0.26741 0.11416 0.37116
 C358 C 0.23727 0.10717 0.38779
 C359 C 0.23852 0.07654 0.41314
 C360 C 0.20735 0.06681 0.42648
 H361 H 0.21123 0.12330 0.38187
 H362 H 0.26495 0.06126 0.42016
 H363 H 0.29297 0.09721 0.37667
 H364 H 0.18093 0.08188 0.41879
 C365 C 0.72993 0.14173 0.65190
 C366 C 0.75141 0.13587 0.62522
 C367 C 0.74280 0.10834 0.59926
 C368 C 0.76865 0.09613 0.57848
 H369 H 0.77653 0.15006 0.62356
 H370 H 0.71581 0.09683 0.59836
 H371 H 0.70595 0.12608 0.65434
 H372 H 0.79611 0.10679 0.58066
 C373 C 0.24432 -0.14891 0.63216
 C374 C 0.21915 -0.14197 0.60388
 C375 C 0.22501 -0.11415 0.57704
 C376 C 0.19617 -0.09952 0.55530
 H377 H 0.19307 -0.15509 0.60174
 H378 H 0.25258 -0.10397 0.57668
 H379 H 0.26930 -0.13412 0.63500
 H380 H 0.16833 -0.10862 0.55717
 C381 C 0.79475 -0.12237 0.39498
 C382 C 0.76513 -0.10310 0.40489
 C383 C 0.76993 -0.07727 0.43329
 C384 C 0.74047 -0.05902 0.44485
 H385 H 0.73736 -0.10565 0.39149
 H386 H 0.79819 -0.07241 0.44418
 H387 H 0.82221 -0.12030 0.40929
 H388 H 0.71220 -0.06437 0.43449
 C389 C 0.62914 0.73173 -0.13114
 C390 C 0.60918 0.75818 -0.11737
 C391 C 0.58660 0.75248 -0.08707
 C392 C 0.57117 0.78039 -0.07144
 H393 H 0.60991 0.78493 -0.12815
 H394 H 0.58290 0.72580 -0.07744
 H395 H 0.62941 0.70515 -0.11962
 H396 H 0.57607 0.80685 -0.08096
 C397 C 0.36137 0.19544 -0.14859
 C398 C 0.37500 0.22121 -0.12853
 C399 C 0.40652 0.21429 -0.10053
 C400 C 0.42203 0.24128 -0.08381
 H401 H 0.36275 0.24808 -0.13271
 H402 H 0.41669 0.18722 -0.09331
 H403 H 0.37456 0.16883 -0.14541
 H404 H 0.41212 0.26821 -0.09198
 C405 C 0.37896 0.72694 0.13731
 C406 C 0.40046 0.75269 0.12824
 C407 C 0.42551 0.74862 0.09933
 C408 C 0.44365 0.77618 0.08860
 H409 H 0.39907 0.77761 0.14170
 H410 H 0.42837 0.72352 0.08630
 H411 H 0.38004 0.70225 0.12337
 H412 H 0.43974 0.80128 0.10146
 C413 C 0.64480 0.27196 0.13288
 C414 C 0.62467 0.24471 0.12305
 C415 C 0.59689 0.24832 0.09139
 C416 C 0.57854 0.22076 0.07918
 H417 H 0.62872 0.21974 0.13814
 H418 H 0.59135 0.27407 0.07789
 H419 H 0.64108 0.29645 0.11691
 H420 H 0.58449 0.19490 0.09236
 C421 C -0.16307 0.63673 0.69951
 C422 C -0.15066 0.60800 0.71969
 C423 C -0.12045 0.58392 0.70836
 C424 C -0.09975 0.56219 0.73212
 H425 H -0.16103 0.60317 0.74547
 H426 H -0.11390 0.58525 0.68073
 H427 H -0.15068 0.64168 0.67470
 H428 H -0.10539 0.56220 0.76001
 C429 C -0.12882 0.39295 0.28004
 C430 C -0.12032 0.41137 0.25145
 C431 C -0.08854 0.43413 0.25403
 C432 C -0.07434 0.44529 0.22443
 H433 H -0.13520 0.40786 0.22540
 H434 H -0.07550 0.44022 0.28022
 H435 H -0.11252 0.39525 0.30563
 H436 H -0.08682 0.43798 0.19843
 C437 C 0.14279 0.37364 0.73083
 C438 C 0.11696 0.38619 0.70480
 C439 C 0.09241 0.41773 0.71059
 C440 C 0.06658 0.43133 0.68502
 H441 H 0.11234 0.37211 0.68018
 H442 H 0.09390 0.42859 0.73711
 H443 H 0.14772 0.38854 0.75492
 H444 H 0.06548 0.42105 0.65829
 C445 C 0.15244 0.62519 0.26952
 C446 C 0.14641 0.59955 0.24638
 C447 C 0.11606 0.57574 0.25034
 C448 C 0.10434 0.55543 0.22356
 H449 H 0.16242 0.59728 0.22336
 H450 H 0.10181 0.57632 0.27459
 H451 H 0.13517 0.62803 0.29162
 H452 H 0.11781 0.55600 0.19887
 C453 C 0.71556 -0.10118 0.65674
 C454 C 0.74244 -0.09247 0.63636
 C455 C 0.73737 -0.06149 0.61149
 C456 C 0.76530 -0.05262 0.59248
 H457 H 0.76822 -0.10915 0.63698
 H458 H 0.71013 -0.04702 0.60738
 H459 H 0.69044 -0.08378 0.65738
 H460 H 0.79262 -0.06686 0.59726
 C461 C 0.25347 -0.12471 0.34427
 C462 C 0.22440 -0.11629 0.36304
 C463 C 0.22703 -0.08943 0.39064
 C464 C 0.19729 -0.07890 0.40770
 H465 H 0.19886 -0.13010 0.35897
 H466 H 0.25412 -0.07910 0.39803
 H467 H 0.27836 -0.10984 0.34748
 H468 H 0.16998 -0.08838 0.39959
 C469 C 0.78346 0.14891 0.38014
 C470 C 0.75680 0.12749 0.38721
 C471 C 0.76378 0.10102 0.41686
 C472 C 0.73542 0.08607 0.43067
 H473 H 0.72929 0.13062 0.37235
 H474 H 0.79239 0.09480 0.42848
 H475 H 0.81011 0.14687 0.39659
 H476 H 0.70675 0.09341 0.41990
 C477 C 0.18044 0.11548 0.62286
 C478 C 0.20343 0.08803 0.61555
 C479 C 0.19408 0.06518 0.58524
 C480 C 0.22045 0.04241 0.57460
 H481 H 0.23036 0.08307 0.63113
 H482 H 0.16631 0.06793 0.57085
 H483 H 0.15405 0.12100 0.60647
 H484 H 0.24847 0.04102 0.58852
   
