data_POSCAR
  _audit_creation_date              2014-09-24
  _audit_creation_method            'ToBaCCo'
  _symmetry_space_group_name_H-M    'P1'
  _symmetry_Int_Tables_number       1
  _symmetry_cell_setting            triclinic
  loop_
  _symmetry_equiv_pos_as_xyz
 x,y,z
_cell_length_a 59.1887
_cell_length_b 57.4559
_cell_length_c 56.3178
_cell_angle_alpha 90.295700
_cell_angle_beta 90.066400
_cell_angle_gamma 89.717200
loop_
  _atom_site_label
  _atom_site_type_symbol
  _atom_site_fract_x
  _atom_site_fract_y
  _atom_site_fract_z
N1 N 0.18414 1.23330 0.16767
 N2 N 0.16800 1.23191 0.18356
 C3 C 0.15271 1.24886 0.17956
 C4 C 0.15964 1.26180 0.16011
 C5 C 0.17980 1.25130 0.15314
 H6 H 0.13768 1.25148 0.19010
 H7 H 0.19037 1.25594 0.13829
 Cu8 Cu 0.16837 1.20796 0.20787
 Cu9 Cu 0.20893 1.21091 0.16622
 Cu10 Cu 0.20919 1.16704 0.20829
 N11 N 0.16867 1.18310 0.23120
 N12 N 0.18460 1.16712 0.23122
 C13 C 0.18065 1.15198 0.24887
 C14 C 0.16110 1.15879 0.26074
 C15 C 0.15403 1.17870 0.24887
 H16 H 0.19133 1.13716 0.25265
 H17 H 0.13927 1.18920 0.25260
 N18 N 0.23261 1.16994 0.18365
 N19 N 0.23251 1.18662 0.16763
 C20 C 0.25024 1.18349 0.15296
 C21 C 0.26215 1.16392 0.16009
 C22 C 0.25045 1.15583 0.17964
 H23 H 0.25414 1.19459 0.13810
 H24 H 0.25431 1.14044 0.18984
 H25 H 0.19142 1.18378 0.18164
 H26 H 0.20885 1.20235 0.20181
 N27 N 0.81589 0.77704 0.15563
 N28 N 0.83511 0.78325 0.16544
 C29 C 0.85131 0.76793 0.15914
 C30 C 0.84171 0.75110 0.14468
 C31 C 0.81917 0.75745 0.14286
 H32 H 0.86867 0.76870 0.16510
 H33 H 0.80619 0.74865 0.13277
 Cu34 Cu 0.83728 0.81007 0.18643
 Cu35 Cu 0.78838 0.79537 0.15954
 Cu36 Cu 0.78923 0.83659 0.20423
 N37 N 0.83617 0.82950 0.21472
 N38 N 0.81721 0.83888 0.22229
 C39 C 0.82119 0.85049 0.24267
 C40 C 0.84402 0.84848 0.24818
 C41 C 0.85293 0.83500 0.22986
 H42 H 0.80841 0.86011 0.25234
 H43 H 0.87018 0.82907 0.22780
 N44 N 0.76279 0.83165 0.18358
 N45 N 0.76249 0.81597 0.16642
 C46 C 0.74304 0.81808 0.15419
 C47 C 0.73041 0.83609 0.16406
 C48 C 0.74354 0.84418 0.18274
 H49 H 0.73892 0.80791 0.13862
 H50 H 0.73988 0.85878 0.19429
 H51 H 0.80221 0.82650 0.17148
 H52 H 0.79776 0.80300 0.19412
 N53 N 0.81522 1.22591 -0.16172
 N54 N 0.83228 1.22303 -0.17636
 C55 C 0.84718 1.24035 -0.17304
 C56 C 0.83912 1.25496 -0.15525
 C57 C 0.81873 1.24516 -0.14853
 H58 H 0.86276 1.24199 -0.18284
 H59 H 0.80729 1.25139 -0.13495
 Cu60 Cu 0.83389 1.19678 -0.19813
 Cu61 Cu 0.79004 1.20420 -0.16067
 Cu62 Cu 0.78881 1.16194 -0.20468
 N63 N 0.83103 1.17577 -0.22506
 N64 N 0.81339 1.16225 -0.22765
 C65 C 0.81605 1.14916 -0.24734
 C66 C 0.83661 1.15470 -0.25779
 C67 C 0.84555 1.17181 -0.24301
 H68 H 0.80398 1.13634 -0.25325
 H69 H 0.86150 1.18067 -0.24486
 N70 N 0.76562 1.16449 -0.17972
 N71 N 0.76612 1.18050 -0.16286
 C72 C 0.74857 1.17714 -0.14808
 C73 C 0.73640 1.15803 -0.15596
 C74 C 0.74777 1.15053 -0.17612
 H75 H 0.74525 1.18753 -0.13241
 H76 H 0.74358 1.13580 -0.18723
 H77 H 0.80575 1.17543 -0.17548
 H78 H 0.79291 1.19692 -0.19648
 N79 N 0.18746 0.76856 -0.16247
 N80 N 0.16971 0.77156 -0.17620
 C81 C 0.15413 0.75541 -0.17089
 C82 C 0.16265 0.74142 -0.15306
 C83 C 0.18388 0.75022 -0.14819
 H84 H 0.13788 0.75373 -0.17949
 H85 H 0.19559 0.74411 -0.13483
 Cu86 Cu 0.16899 0.79586 -0.20009
 Cu87 Cu 0.21322 0.78952 -0.16319
 Cu88 Cu 0.21189 0.83351 -0.20518
 N89 N 0.16862 0.82028 -0.22388
 N90 N 0.18552 0.83485 -0.22589
 C91 C 0.18120 0.84965 -0.24378
 C92 C 0.16038 0.84411 -0.25373
 C93 C 0.15296 0.82530 -0.24046
 H94 H 0.19253 0.86335 -0.24907
 H95 H 0.13742 0.81578 -0.24269
 N96 N 0.23706 0.82929 -0.18261
 N97 N 0.23755 0.81256 -0.16664
 C98 C 0.25615 0.81507 -0.15309
 C99 C 0.26800 0.83429 -0.16088
 C100 C 0.25540 0.84280 -0.17969
 H101 H 0.26050 0.80400 -0.13831
 H102 H 0.25885 0.85827 -0.18986
 H103 H 0.19606 0.81802 -0.17663
 H104 H 0.21008 0.79827 -0.19857
 C105 C 0.53384 1.03120 -0.00287
 H106 H 0.53384 1.03057 0.01633
 C107 C 0.55002 1.04438 -0.01471
 H108 H 0.56251 1.05379 -0.00446
 C109 C 0.51822 1.01861 -0.03948
 H110 H 0.50606 1.00821 -0.04907
 C111 C 0.53411 1.03154 -0.05204
 H112 H 0.53372 1.03130 -0.07126
 N113 N 0.51838 1.01866 -0.01533
 C114 C 0.46199 1.00620 0.03249
 H115 H 0.46129 0.98741 0.03150
 C116 C 0.44547 1.01850 0.04506
 H117 H 0.43227 1.00901 0.05406
 C118 C 0.47985 1.04135 0.02146
 H119 H 0.49291 1.05021 0.01172
 C120 C 0.46371 1.05435 0.03394
 H121 H 0.46457 1.07317 0.03371
 Zn122 Zn 0.49853 0.99953 0.00210
 N123 N 0.47868 1.01771 0.02096
 C124 C 0.51422 0.97951 0.04528
 N125 N 0.51661 0.97992 0.02127
 C126 C 0.53304 0.96732 0.01022
 C127 C 0.54792 0.95356 0.02338
 C128 C 0.52872 0.96594 0.05915
 C129 C 0.46455 0.99352 -0.03156
 C130 C 0.44886 0.98150 -0.04541
 C131 C 0.46580 0.94533 -0.03260
 C132 C 0.48112 0.95806 -0.01887
 N133 N 0.48016 0.98172 -0.01854
 H134 H 0.50130 0.98994 0.05378
 H135 H 0.53480 0.96829 -0.00887
 H136 H 0.56122 0.94413 0.01425
 H137 H 0.52650 0.96576 0.07823
 H138 H 0.46399 1.01233 -0.03072
 H139 H 0.43644 0.99121 -0.05550
 H140 H 0.46640 0.92650 -0.03216
 H141 H 0.49330 0.94898 -0.00800
 C142 C 0.44608 1.04291 0.04571
 C143 C 0.55042 1.04451 -0.03964
 C144 C 0.44920 0.95707 -0.04582
 C145 C 0.54596 0.95285 0.04823
 C146 C -0.00697 0.53437 1.03173
 H147 H 0.01118 0.53285 1.03345
 C148 C -0.01857 0.55166 1.04428
 H149 H -0.00921 0.56296 1.05612
 C150 C -0.04098 0.52163 1.01378
 H151 H -0.04953 0.51036 1.00129
 C152 C -0.05323 0.53890 1.02576
 H153 H -0.07114 0.54064 1.02229
 N154 N -0.01825 0.51979 1.01685
 C155 C 0.02963 0.46319 1.00430
 H156 H 0.02941 0.46321 0.98509
 C157 C 0.04216 0.44640 1.01640
 H158 H 0.05182 0.43366 1.00640
 C159 C 0.01689 0.47959 1.04063
 H160 H 0.00651 0.49212 1.04999
 C161 C 0.02940 0.46322 1.05348
 H162 H 0.02864 0.46340 1.07269
 Zn163 Zn -0.00076 0.49940 0.99782
 N164 N 0.01726 0.47927 1.01647
 C165 C 0.04032 0.51943 0.98218
 N166 N 0.01759 0.51857 0.97880
 C167 C 0.00699 0.53335 0.96362
 C168 C 0.01931 0.54986 0.95109
 C169 C 0.05327 0.53597 0.97030
 C170 C -0.03333 0.46539 0.99107
 C171 C -0.04659 0.44933 0.97879
 C172 C -0.03131 0.46378 0.94196
 C173 C -0.01830 0.47959 0.95498
 N174 N -0.01957 0.48011 0.97909
 H175 H 0.04831 0.50798 0.99487
 H176 H -0.01117 0.53260 0.96164
 H177 H 0.01046 0.56127 0.93897
 H178 H 0.07117 0.53698 0.97408
 H179 H -0.03364 0.46587 1.01027
 H180 H -0.05697 0.43738 0.98873
 H181 H -0.03010 0.46361 0.92279
 H182 H -0.00685 0.49101 0.94580
 C183 C 0.04202 0.44619 1.04132
 C184 C -0.04198 0.55443 1.04105
 C185 C -0.04557 0.44825 0.95389
 C186 C 0.04275 0.55172 0.95471
 C187 C 1.03047 -0.00707 0.53759
 H188 H 1.02994 0.01175 0.53753
 C189 C 1.04330 -0.01872 0.55462
 H190 H 1.05254 -0.00869 0.56771
 C191 C 1.01810 -0.04288 0.52121
 H192 H 1.00786 -0.05223 0.50850
 C193 C 1.03067 -0.05526 0.53799
 H194 H 1.03039 -0.07410 0.53765
 N195 N 1.01837 -0.01920 0.52120
 C196 C 1.00832 0.03131 0.46468
 H197 H 0.99008 0.03115 0.46349
 C198 C 1.02086 0.04452 0.44873
 H199 H 1.01208 0.05439 0.43521
 C200 C 1.04184 0.01741 0.48290
 H201 H 1.04998 0.00639 0.49584
 C202 C 1.05504 0.03042 0.46734
 H203 H 1.07326 0.02967 0.46892
 Zn204 Zn 1.00054 -0.00135 0.50007
 N205 N 1.01891 0.01807 0.48128
 C206 C 0.98112 0.04001 0.51987
 N207 N 0.98060 0.01635 0.51918
 C208 C 0.96687 0.00410 0.53380
 C209 C 0.95303 0.01561 0.55012
 C210 C 0.96752 0.05226 0.53598
 C211 C 0.99595 -0.03551 0.46472
 C212 C 0.98489 -0.04856 0.44731
 C213 C 0.94985 -0.02983 0.45850
 C214 C 0.96152 -0.01746 0.47601
 N215 N 0.98417 -0.02046 0.47875
 H216 H 0.99254 0.04937 0.50846
 H217 H 0.96700 -0.01472 0.53302
 H218 H 0.94224 0.00550 0.56160
 H219 H 0.96861 0.07105 0.53679
 H220 H 1.01405 -0.03718 0.46691
 H221 H 0.99463 -0.06071 0.43667
 H222 H 0.93200 -0.02643 0.45609
 H223 H 0.95259 -0.00482 0.48679
 C224 C 1.04457 0.04402 0.44978
 C225 C 1.04350 -0.04315 0.55501
 C226 C 0.96154 -0.04559 0.44372
 C227 C 0.95345 0.04001 0.55160
 C228 C 0.12554 0.31853 1.12756
 C229 C 0.14713 0.31175 1.11984
 C230 C 0.15840 0.29311 1.13057
 C231 C 0.14846 0.28089 1.14951
 C232 C 0.12692 0.28812 1.15742
 C233 C 0.11559 0.30658 1.14648
 C234 C 0.11323 0.33770 1.11561
 C235 C 0.09039 0.33507 1.10938
 C236 C 0.07883 0.35288 1.09764
 C237 C 0.08981 0.37378 1.09211
 C238 C 0.11257 0.37655 1.09860
 C239 C 0.12422 0.35860 1.11010
 C240 C 0.07762 0.39243 1.07921
 C241 C 0.07913 0.41575 1.08667
 C242 C 0.06746 0.43325 1.07449
 C243 C 0.05434 0.42777 1.05443
 C244 C 0.05294 0.40445 1.04695
 C245 C 0.06437 0.38696 1.05928
 H246 H 0.15512 0.32059 1.10516
 H247 H 0.17493 0.28850 1.12386
 H248 H 0.11843 0.27947 1.17184
 H249 H 0.09903 0.31162 1.15292
 H250 H 0.08158 0.31905 1.11324
 H251 H 0.06125 0.35037 1.09298
 H252 H 0.12145 0.39242 1.09437
 H253 H 0.14177 0.36112 1.11486
 H254 H 0.08913 0.42038 1.10209
 H255 H 0.06890 0.45109 1.08055
 H256 H 0.04276 0.39972 1.03170
 H257 H 0.06307 0.36915 1.05305
 C258 C -0.12509 0.69175 1.11322
 C259 C -0.14847 0.69147 1.11736
 C260 C -0.15932 0.71084 1.12736
 C261 C -0.14692 0.73071 1.13375
 C262 C -0.12351 0.73091 1.12972
 C263 C -0.11273 0.71169 1.11940
 C264 C -0.11353 0.67134 1.10252
 C265 C -0.09814 0.67430 1.08387
 C266 C -0.08690 0.65515 1.07401
 C267 C -0.09056 0.63259 1.08279
 C268 C -0.10611 0.62967 1.10141
 C269 C -0.11757 0.64883 1.11108
 C270 C -0.07805 0.61232 1.07266
 C271 C -0.08852 0.59052 1.07008
 C272 C -0.07676 0.57164 1.06020
 C273 C -0.05431 0.57414 1.05251
 C274 C -0.04385 0.59592 1.05523
 C275 C -0.05550 0.61469 1.06530
 H276 H -0.15838 0.67635 1.11260
 H277 H -0.17736 0.71010 1.13040
 H278 H -0.11352 0.74602 1.13427
 H279 H -0.09465 0.71227 1.11653
 H280 H -0.09499 0.69146 1.07674
 H281 H -0.07547 0.65802 1.05933
 H282 H -0.10910 0.61263 1.10886
 H283 H -0.12921 0.64614 1.12562
 H284 H -0.10593 0.58811 1.07533
 H285 H -0.08528 0.55508 1.05864
 H286 H -0.02672 0.59865 1.04917
 H287 H -0.04675 0.63107 1.06737
 C288 C -0.12806 0.31546 0.87448
 C289 C -0.14927 0.30840 0.88291
 C290 C -0.15999 0.28892 0.87319
 C291 C -0.14978 0.27602 0.85476
 C292 C -0.12866 0.28332 0.84617
 C293 C -0.11795 0.30276 0.85592
 C294 C -0.11634 0.33574 0.88522
 C295 C -0.09297 0.33484 0.88960
 C296 C -0.08189 0.35378 0.89988
 C297 C -0.09389 0.37411 0.90602
 C298 C -0.11726 0.37504 0.90160
 C299 C -0.12837 0.35605 0.89133
 C300 C -0.08207 0.39402 0.91738
 C301 C -0.09215 0.40638 0.93622
 C302 C -0.08052 0.42431 0.94773
 C303 C -0.05855 0.43030 0.94065
 C304 C -0.04868 0.41832 0.92144
 C305 C -0.06030 0.40040 0.90994
 H306 H -0.15738 0.31768 0.89737
 H307 H -0.17619 0.28395 0.88034
 H308 H -0.12022 0.27406 0.83195
 H309 H -0.10177 0.30797 0.84880
 H310 H -0.08331 0.31929 0.88548
 H311 H -0.06396 0.35232 0.90348
 H312 H -0.12693 0.39055 0.90585
 H313 H -0.14633 0.35737 0.88789
 H314 H -0.10882 0.40178 0.94250
 H315 H -0.08869 0.43340 0.96228
 H316 H -0.03170 0.42235 0.91570
 H317 H -0.05219 0.39143 0.89527
 C318 C 0.12939 0.68404 0.88051
 C319 C 0.15303 0.68433 0.87865
 C320 C 0.16391 0.70314 0.86799
 C321 C 0.15128 0.72168 0.85854
 C322 C 0.12761 0.72122 0.86022
 C323 C 0.11678 0.70268 0.87130
 C324 C 0.11777 0.66437 0.89200
 C325 C 0.10162 0.66857 0.90973
 C326 C 0.09007 0.65012 0.92012
 C327 C 0.09408 0.62703 0.91268
 C328 C 0.11046 0.62289 0.89503
 C329 C 0.12230 0.64137 0.88493
 C330 C 0.08095 0.60751 0.92306
 C331 C 0.09093 0.58552 0.92664
 C332 C 0.07850 0.56732 0.93650
 C333 C 0.05585 0.57071 0.94330
 C334 C 0.04591 0.59269 0.93967
 C335 C 0.05821 0.61074 0.92951
 H336 H 0.16307 0.67015 0.88572
 H337 H 0.18217 0.70300 0.86679
 H338 H 0.11747 0.73536 0.85325
 H339 H 0.09851 0.70273 0.87245
 H340 H 0.09808 0.68618 0.91566
 H341 H 0.07806 0.65399 0.93408
 H342 H 0.11378 0.60543 0.88858
 H343 H 0.13458 0.63777 0.87112
 H344 H 0.10846 0.58242 0.92214
 H345 H 0.08667 0.55058 0.93873
 H346 H 0.02867 0.59617 0.94504
 H347 H 0.04978 0.62725 0.92664
 C348 C 1.12941 0.12573 0.31915
 C349 C 1.14903 0.11620 0.30899
 C350 C 1.15957 0.12713 0.28988
 C351 C 1.15066 0.14787 0.28027
 C352 C 1.13095 0.15735 0.29065
 C353 C 1.12054 0.14645 0.30984
 C354 C 1.11803 0.11397 0.33922
 C355 C 1.10963 0.12693 0.35853
 C356 C 1.09848 0.11588 0.37717
 C357 C 1.09541 0.09163 0.37688
 C358 C 1.10395 0.07868 0.35760
 C359 C 1.11518 0.08971 0.33901
 C360 C 1.08296 0.07992 0.39632
 C361 C 1.09006 0.05806 0.40468
 C362 C 1.07783 0.04662 0.42229
 C363 C 1.05823 0.05678 0.43199
 C364 C 1.05138 0.07884 0.42396
 C365 C 1.06359 0.09027 0.40632
 H366 H 1.15639 0.10036 0.31598
 H367 H 1.17464 0.11906 0.28273
 H368 H 1.12333 0.17320 0.28412
 H369 H 1.10526 0.15406 0.31714
 H370 H 1.11187 0.14561 0.35931
 H371 H 1.09243 0.12632 0.39194
 H372 H 1.10151 0.06003 0.35660
 H373 H 1.12118 0.07932 0.32419
 H374 H 1.10507 0.04976 0.39758
 H375 H 1.08344 0.02954 0.42787
 H376 H 1.03651 0.08726 0.43127
 H377 H 1.05754 0.10698 0.40012
 C378 C 1.12716 -0.12331 0.68822
 C379 C 1.14827 -0.11536 0.69609
 C380 C 1.15922 -0.12604 0.71518
 C381 C 1.14933 -0.14502 0.72701
 C382 C 1.12807 -0.15287 0.71900
 C383 C 1.11719 -0.14217 0.69989
 C384 C 1.11548 -0.11190 0.66801
 C385 C 1.10413 -0.12526 0.65080
 C386 C 1.09291 -0.11449 0.63194
 C387 C 1.09278 -0.09013 0.62986
 C388 C 1.10424 -0.07678 0.64700
 C389 C 1.11547 -0.08755 0.66586
 C390 C 1.08052 -0.07862 0.61008
 C391 C 1.08986 -0.05926 0.59860
 C392 C 1.07800 -0.04798 0.58051
 C393 C 1.05653 -0.05579 0.57348
 C394 C 1.04733 -0.07536 0.58472
 C395 C 1.05920 -0.08665 0.60282
 H396 H 1.15651 -0.10102 0.68727
 H397 H 1.17549 -0.11928 0.72044
 H398 H 1.11958 -0.16726 0.72738
 H399 H 1.10076 -0.14849 0.69444
 H400 H 1.10415 -0.14408 0.65176
 H401 H 1.08453 -0.12526 0.61882
 H402 H 1.10414 -0.05796 0.64611
 H403 H 1.12377 -0.07677 0.67903
 H404 H 1.10642 -0.05291 0.60351
 H405 H 1.08568 -0.03318 0.57192
 H406 H 1.03068 -0.08158 0.57997
 H407 H 1.05142 -0.10131 0.61155
 C408 C 0.87882 -0.12220 0.30696
 C409 C 0.85516 -0.12176 0.30611
 C410 C 0.84366 -0.13125 0.28668
 C411 C 0.85557 -0.14190 0.26782
 C412 C 0.87938 -0.14258 0.26906
 C413 C 0.89082 -0.13263 0.28826
 C414 C 0.89100 -0.11156 0.32718
 C415 C 0.90822 -0.09540 0.32312
 C416 C 0.91961 -0.08510 0.34217
 C417 C 0.91434 -0.09109 0.36574
 C418 C 0.89716 -0.10750 0.36967
 C419 C 0.88548 -0.11745 0.35059
 C420 C 0.92659 -0.08013 0.38603
 C421 C 0.91549 -0.07540 0.40762
 C422 C 0.92691 -0.06470 0.42645
 C423 C 0.94964 -0.05806 0.42410
 C424 C 0.96075 -0.06290 0.40256
 C425 C 0.94947 -0.07396 0.38390
 H426 H 0.84557 -0.11370 0.32035
 H427 H 0.82541 -0.13043 0.28680
 H428 H 0.88940 -0.15034 0.25504
 H429 H 0.90912 -0.13323 0.28862
 H430 H 0.91256 -0.09041 0.30518
 H431 H 0.93230 -0.07216 0.33836
 H432 H 0.89290 -0.11293 0.38747
 H433 H 0.87237 -0.13006 0.35409
 H434 H 0.89783 -0.07959 0.40991
 H435 H 0.91784 -0.06164 0.44286
 H436 H 0.97812 -0.05775 0.39984
 H437 H 0.95877 -0.07768 0.36777
 C438 C 0.86714 0.12336 0.68162
 C439 C 0.84554 0.11657 0.68904
 C440 C 0.83535 0.12707 0.70878
 C441 C 0.84652 0.14467 0.72173
 C442 C 0.86804 0.15170 0.71387
 C443 C 0.87818 0.14117 0.69414
 C444 C 0.87845 0.11142 0.66136
 C445 C 0.89137 0.12406 0.64497
 C446 C 0.90282 0.11262 0.62657
 C447 C 0.90164 0.08830 0.62417
 C448 C 0.88838 0.07573 0.64029
 C449 C 0.87694 0.08715 0.65867
 C450 C 0.91470 0.07596 0.60538
 C451 C 0.92584 0.05492 0.61049
 C452 C 0.93832 0.04331 0.59303
 C453 C 0.93998 0.05244 0.56999
 C454 C 0.92892 0.07353 0.56486
 C455 C 0.91640 0.08516 0.58237
 H456 H 0.83643 0.10313 0.67953
 H457 H 0.81874 0.12109 0.71378
 H458 H 0.87743 0.16512 0.72301
 H459 H 0.89497 0.14661 0.68904
 H460 H 0.89266 0.14280 0.64641
 H461 H 0.91303 0.12278 0.61455
 H462 H 0.88690 0.05701 0.63874
 H463 H 0.86732 0.07688 0.67112
 H464 H 0.92526 0.04761 0.62817
 H465 H 0.94703 0.02736 0.59771
 H466 H 0.92970 0.08087 0.54721
 H467 H 0.90780 0.10121 0.57781
 C468 C 0.31995 1.13192 0.12644
 C469 C 0.31398 1.12606 0.14978
 C470 C 0.29537 1.13659 0.16077
 C471 C 0.28235 1.15332 0.14871
 C472 C 0.28858 1.15946 0.12549
 C473 C 0.30713 1.14885 0.11448
 C474 C 0.33907 1.11993 0.11441
 C475 C 0.33701 1.11253 0.09068
 C476 C 0.35463 1.10046 0.07956
 C477 C 0.37476 1.09560 0.09187
 C478 C 0.37699 1.10332 0.11547
 C479 C 0.35930 1.11530 0.12665
 C480 C 0.39314 1.08212 0.08022
 C481 C 0.41584 1.08874 0.08287
 C482 C 0.43306 1.07604 0.07170
 C483 C 0.42794 1.05635 0.05783
 C484 C 0.40525 1.04968 0.05531
 C485 C 0.38805 1.06244 0.06634
 H486 H 0.32340 1.11292 0.15938
 H487 H 0.29123 1.13156 0.17872
 H488 H 0.27894 1.17218 0.11559
 H489 H 0.31148 1.15391 0.09656
 H490 H 0.32156 1.11565 0.08086
 H491 H 0.35253 1.09495 0.06128
 H492 H 0.39225 1.09968 0.12544
 H493 H 0.36146 1.12098 0.14487
 H494 H 0.42024 1.10392 0.09333
 H495 H 0.45041 1.08148 0.07407
 H496 H 0.40076 1.03475 0.04452
 H497 H 0.37074 1.05678 0.06419
 C498 C 0.67875 1.12608 -0.12264
 C499 C 0.68668 1.14777 -0.11468
 C500 C 0.70524 1.15823 -0.12557
 C501 C 0.71630 1.14727 -0.14473
 C502 C 0.70812 1.12570 -0.15285
 C503 C 0.68960 1.11525 -0.14195
 C504 C 0.65947 1.11456 -0.11068
 C505 C 0.65992 1.09045 -0.10662
 C506 C 0.64184 1.07950 -0.09545
 C507 C 0.62285 1.09239 -0.08804
 C508 C 0.62241 1.11653 -0.09199
 C509 C 0.64053 1.12750 -0.10319
 C510 C 0.60369 1.08061 -0.07615
 C511 C 0.59298 1.09086 -0.05642
 C512 C 0.57550 1.07931 -0.04473
 C513 C 0.56830 1.05729 -0.05259
 C514 C 0.57879 1.04722 -0.07255
 C515 C 0.59627 1.05874 -0.08418
 H516 H 0.67880 1.15646 -0.09970
 H517 H 0.71088 1.17488 -0.11886
 H518 H 0.71608 1.11662 -0.16750
 H519 H 0.68369 1.09870 -0.14874
 H520 H 0.67445 1.08007 -0.11177
 H521 H 0.64289 1.06096 -0.09225
 H522 H 0.60790 1.12687 -0.08674
 H523 H 0.63955 1.14605 -0.10634
 H524 H 0.59843 1.10761 -0.04969
 H525 H 0.56761 1.08761 -0.02954
 H526 H 0.57381 1.03018 -0.07889
 H527 H 0.60400 1.05051 -0.09951
 C528 C 0.32597 0.86670 -0.12858
 C529 C 0.31984 0.87198 -0.15206
 C530 C 0.30126 0.86117 -0.16269
 C531 C 0.28849 0.84476 -0.15012
 C532 C 0.29504 0.83902 -0.12687
 C533 C 0.31353 0.84993 -0.11620
 C534 C 0.34468 0.87931 -0.11670
 C535 C 0.34207 0.88749 -0.09331
 C536 C 0.35931 0.90001 -0.08223
 C537 C 0.37959 0.90454 -0.09424
 C538 C 0.38235 0.89611 -0.11753
 C539 C 0.36501 0.88371 -0.12870
 C540 C 0.39762 0.91827 -0.08249
 C541 C 0.42037 0.91128 -0.08397
 C542 C 0.43719 0.92393 -0.07221
 C543 C 0.43160 0.94394 -0.05896
 C544 C 0.40889 0.95108 -0.05780
 C545 C 0.39209 0.93837 -0.06938
 H546 H 0.32904 0.88495 -0.16198
 H547 H 0.29686 0.86583 -0.18071
 H548 H 0.28561 0.82654 -0.11659
 H549 H 0.31803 0.84531 -0.09818
 H550 H 0.32651 0.88459 -0.08371
 H551 H 0.35680 0.90608 -0.06418
 H552 H 0.39776 0.89948 -0.12725
 H553 H 0.36753 0.87746 -0.14668
 H554 H 0.42508 0.89577 -0.09383
 H555 H 0.45457 0.91811 -0.07353
 H556 H 0.40403 0.96626 -0.04750
 H557 H 0.37474 0.94430 -0.06815
 C558 C 0.66965 0.86728 0.13577
 C559 C 0.67875 0.84701 0.12545
 C560 C 0.69812 0.83657 0.13494
 C561 C 0.70888 0.84616 0.15499
 C562 C 0.69929 0.86604 0.16574
 C563 C 0.67995 0.87648 0.15622
 C564 C 0.65011 0.87935 0.12466
 C565 C 0.64988 0.90373 0.12278
 C566 C 0.63206 0.91516 0.11142
 C567 C 0.61399 0.90249 0.10168
 C568 C 0.61406 0.87812 0.10384
 C569 C 0.63193 0.86667 0.11518
 C570 C 0.59556 0.91469 0.08874
 C571 C 0.58676 0.90536 0.06757
 C572 C 0.57036 0.91750 0.05466
 C573 C 0.56238 0.93926 0.06263
 C574 C 0.57083 0.94835 0.08408
 C575 C 0.58721 0.93620 0.09698
 H576 H 0.67131 0.83960 0.10956
 H577 H 0.70478 0.82123 0.12618
 H578 H 0.70682 0.87389 0.18130
 H579 H 0.67310 0.89187 0.16481
 H580 H 0.66383 0.91396 0.12952
 H581 H 0.63274 0.93390 0.10968
 H582 H 0.60023 0.86790 0.09682
 H583 H 0.63150 0.84790 0.11664
 H584 H 0.59299 0.88894 0.06062
 H585 H 0.56400 0.90989 0.03836
 H586 H 0.56522 0.96517 0.09060
 H587 H 0.59344 0.94373 0.11338
   
