data_POSCAR
  _audit_creation_date              2014-09-24
  _audit_creation_method            'ToBaCCo'
  _symmetry_space_group_name_H-M    'P1'
  _symmetry_Int_Tables_number       1
  _symmetry_cell_setting            triclinic
  loop_
  _symmetry_equiv_pos_as_xyz
 x,y,z
_cell_length_a 34.1867
_cell_length_b 31.1497
_cell_length_c 17.5639
_cell_angle_alpha 84.626700
_cell_angle_beta 87.444400
_cell_angle_gamma 90.043400
loop_
  _atom_site_label
  _atom_site_type_symbol
  _atom_site_fract_x
  _atom_site_fract_y
  _atom_site_fract_z
N1 N 0.30100 0.33037 0.10357
 N2 N 0.27432 0.36041 0.09226
 C3 C 0.29124 0.39571 0.05408
 C4 C 0.33060 0.38717 0.04174
 C5 C 0.33577 0.34557 0.07383
 H6 H 0.27623 0.42546 0.03763
 H7 H 0.36282 0.32759 0.07468
 Cu8 Cu 0.22048 0.35136 0.13157
 Cu9 Cu 0.28886 0.27330 0.15355
 Cu10 Cu 0.19753 0.26045 0.24424
 N11 N 0.17285 0.34664 0.19678
 N12 N 0.16402 0.31098 0.24029
 C13 C 0.12998 0.31643 0.27957
 C14 C 0.11681 0.35771 0.25970
 C15 C 0.14466 0.37606 0.20696
 H16 H 0.11601 0.29225 0.32001
 H17 H 0.14452 0.40840 0.17856
 N18 N 0.23561 0.21320 0.24162
 N19 N 0.27054 0.21802 0.20670
 C20 C 0.29030 0.18067 0.21733
 C21 C 0.26668 0.15117 0.26151
 C22 C 0.23231 0.17278 0.27590
 H23 H 0.32013 0.17577 0.19699
 H24 H 0.20726 0.16024 0.31079
 H25 H 0.22926 0.27336 0.14031
 H26 H 0.24745 0.29863 0.22504
 N27 N 0.70688 -0.30361 0.11656
 N28 N 0.73117 -0.33633 0.12185
 C29 C 0.71251 -0.37231 0.10697
 C30 C 0.67411 -0.36184 0.09278
 C31 C 0.67146 -0.31785 0.09859
 H32 H 0.72554 -0.40402 0.11048
 H33 H 0.64559 -0.29805 0.09277
 Cu34 Cu 0.78346 -0.33130 0.15814
 Cu35 Cu 0.72380 -0.24642 0.14030
 Cu36 Cu 0.78870 -0.25915 0.28676
 N37 N 0.82599 -0.33187 0.22684
 N38 N 0.82742 -0.30469 0.27956
 C39 C 0.85776 -0.31506 0.32407
 C40 C 0.87620 -0.35055 0.29693
 C41 C 0.85540 -0.36020 0.23509
 H42 H 0.86542 -0.29834 0.37263
 H43 H 0.86041 -0.38675 0.20033
 N44 N 0.75787 -0.20624 0.26368
 N45 N 0.73574 -0.19983 0.20390
 C46 C 0.72336 -0.15861 0.19781
 C47 C 0.73793 -0.13870 0.25774
 C48 C 0.75933 -0.16969 0.29849
 H49 H 0.70492 -0.14444 0.15380
 H50 H 0.77633 -0.16522 0.34766
 H51 H 0.78321 -0.25425 0.17096
 H52 H 0.74315 -0.28328 0.23064
 N53 N 0.69671 0.31635 0.79767
 N54 N 0.72062 0.34941 0.78249
 C55 C 0.70341 0.38514 0.80508
 C56 C 0.66646 0.37398 0.83505
 C57 C 0.66294 0.33017 0.82932
 H58 H 0.71663 0.41689 0.79934
 H59 H 0.63786 0.30994 0.84723
 Cu60 Cu 0.77168 0.34320 0.73415
 Cu61 Cu 0.71168 0.25828 0.77448
 Cu62 Cu 0.80521 0.24738 0.69139
 N63 N 0.82697 0.33307 0.71853
 N64 N 0.84059 0.29551 0.70169
 C65 C 0.87999 0.29791 0.69362
 C66 C 0.89120 0.33925 0.70694
 C67 C 0.85687 0.36056 0.72252
 H68 H 0.89884 0.27161 0.67976
 H69 H 0.85383 0.39360 0.73609
 N70 N 0.76765 0.19910 0.71102
 N71 N 0.73274 0.20272 0.74531
 C72 C 0.71384 0.16460 0.74773
 C73 C 0.73787 0.13596 0.71271
 C74 C 0.77165 0.15881 0.69012
 H75 H 0.68386 0.15889 0.76844
 H76 H 0.79665 0.14736 0.65806
 H77 H 0.77162 0.26743 0.78051
 H78 H 0.75019 0.27623 0.68474
 N79 N 0.30871 -0.33072 0.85750
 N80 N 0.28513 -0.36435 0.86503
 C81 C 0.30345 -0.39790 0.90185
 C82 C 0.34066 -0.38449 0.91692
 C83 C 0.34316 -0.34185 0.88765
 H84 H 0.29081 -0.42963 0.91607
 H85 H 0.36775 -0.32022 0.88997
 Cu86 Cu 0.23343 -0.36142 0.82300
 Cu87 Cu 0.29230 -0.27478 0.81157
 Cu88 Cu 0.19134 -0.26386 0.81109
 N89 N 0.17856 -0.35413 0.80078
 N90 N 0.16180 -0.31614 0.80035
 C91 C 0.12322 -0.32051 0.79102
 C92 C 0.11559 -0.36354 0.78372
 C93 C 0.15138 -0.38395 0.78967
 H94 H 0.10250 -0.29425 0.78883
 H95 H 0.15694 -0.41809 0.78867
 N96 N 0.22788 -0.21456 0.79426
 N97 N 0.26627 -0.21867 0.79654
 C98 C 0.28311 -0.17958 0.78124
 C99 C 0.25393 -0.14973 0.76692
 C100 C 0.21935 -0.17289 0.77469
 H101 H 0.31434 -0.17364 0.77615
 H102 H 0.19030 -0.16053 0.76453
 H103 H 0.24030 -0.28970 0.86592
 H104 H 0.23978 -0.28838 0.75942
 N105 N 0.70359 -0.33918 0.80141
 N106 N 0.71438 -0.37322 0.76681
 C107 C 0.68529 -0.40270 0.77516
 C108 C 0.65501 -0.38634 0.81844
 C109 C 0.66776 -0.34633 0.83505
 H110 H 0.68622 -0.43372 0.75216
 H111 H 0.65153 -0.32338 0.86649
 Cu112 Cu 0.76600 -0.37569 0.71639
 Cu113 Cu 0.73519 -0.28647 0.79215
 Cu114 Cu 0.80178 -0.28148 0.63694
 N115 N 0.81928 -0.37083 0.67266
 N116 N 0.83259 -0.33432 0.63719
 C117 C 0.87025 -0.33935 0.61387
 C118 C 0.88134 -0.38095 0.63831
 C119 C 0.84822 -0.40010 0.67499
 H120 H 0.88883 -0.31371 0.58664
 H121 H 0.84576 -0.43234 0.70368
 N122 N 0.77896 -0.23003 0.67765
 N123 N 0.75685 -0.23171 0.74150
 C124 C 0.74718 -0.19122 0.75602
 C125 C 0.76348 -0.16312 0.69758
 C126 C 0.78320 -0.18871 0.64876
 H127 H 0.72727 -0.18310 0.80203
 H128 H 0.79902 -0.17808 0.59562
 H129 H 0.74620 -0.30138 0.68367
 H130 H 0.78911 -0.30506 0.74591
 N131 N 0.31448 0.31664 0.73980
 N132 N 0.29983 0.34577 0.78246
 C133 C 0.32842 0.37292 0.79771
 C134 C 0.36255 0.36073 0.76087
 C135 C 0.35277 0.32509 0.72425
 H136 H 0.32467 0.39956 0.83265
 H137 H 0.37238 0.30546 0.69223
 Cu138 Cu 0.24440 0.34635 0.80995
 Cu139 Cu 0.28321 0.26755 0.71557
 Cu140 Cu 0.20160 0.24956 0.83952
 N141 N 0.18923 0.34060 0.83949
 N142 N 0.17273 0.30242 0.85459
 C143 C 0.13400 0.30745 0.86801
 C144 C 0.12585 0.35105 0.85849
 C145 C 0.16150 0.37117 0.84050
 H146 H 0.11297 0.28127 0.87642
 H147 H 0.16652 0.40519 0.82467
 N148 N 0.22663 0.20396 0.78445
 N149 N 0.25591 0.21152 0.73328
 C150 C 0.26388 0.17513 0.69995
 C151 C 0.23850 0.14325 0.73206
 C152 C 0.21533 0.16251 0.78551
 H153 H 0.28639 0.17210 0.65553
 H154 H 0.19099 0.14805 0.82022
 H155 H 0.22533 0.28404 0.74542
 H156 H 0.26012 0.26988 0.82263
 N157 N 0.31846 -0.32727 0.24456
 N158 N 0.30336 -0.36297 0.28011
 C159 C 0.32958 -0.39503 0.27656
 C160 C 0.36255 -0.37855 0.23550
 C161 C 0.35439 -0.33569 0.21527
 H162 H 0.32475 -0.42795 0.30061
 H163 H 0.37355 -0.31210 0.18347
 Cu164 Cu 0.25004 -0.36464 0.32351
 Cu165 Cu 0.29111 -0.27209 0.24269
 Cu166 Cu 0.21216 -0.27207 0.37208
 N167 N 0.19388 -0.35914 0.34493
 N168 N 0.17915 -0.32229 0.36317
 C169 C 0.13987 -0.32486 0.36567
 C170 C 0.12939 -0.36553 0.34837
 C171 C 0.16434 -0.38673 0.33614
 H172 H 0.12039 -0.29834 0.37519
 H173 H 0.16798 -0.41839 0.31631
 N174 N 0.24134 -0.21975 0.33537
 N175 N 0.26909 -0.21870 0.28047
 C176 C 0.28163 -0.17758 0.26458
 C177 C 0.26106 -0.15224 0.31308
 C178 C 0.23607 -0.17999 0.35739
 H179 H 0.30534 -0.16731 0.22412
 H180 H 0.21532 -0.17180 0.40200
 H181 H 0.27039 -0.29262 0.34911
 H182 H 0.23422 -0.29123 0.27244
 N183 N 0.67260 0.34304 0.17315
 N184 N 0.68750 0.37659 0.20216
 C185 C 0.66216 0.40980 0.19340
 C186 C 0.63025 0.39605 0.15594
 C187 C 0.63811 0.35388 0.14333
 H188 H 0.66729 0.44187 0.20979
 H189 H 0.61994 0.33250 0.11476
 Cu190 Cu 0.74034 0.37405 0.24108
 Cu191 Cu 0.69807 0.28721 0.17631
 Cu192 Cu 0.77886 0.27666 0.28630
 N193 N 0.79646 0.36695 0.25784
 N194 N 0.81127 0.32823 0.27235
 C195 C 0.85034 0.33122 0.27554
 C196 C 0.86074 0.37414 0.26334
 C197 C 0.82589 0.39619 0.25278
 H198 H 0.86979 0.30408 0.28541
 H199 H 0.82245 0.43052 0.23900
 N200 N 0.74877 0.22710 0.26089
 N201 N 0.71854 0.23072 0.21666
 C202 C 0.70255 0.19132 0.21392
 C203 C 0.72397 0.16182 0.25871
 C204 C 0.75309 0.18559 0.28723
 H205 H 0.67592 0.18507 0.18573
 H206 H 0.77465 0.17384 0.32727
 H207 H 0.72060 0.29939 0.27685
 H208 H 0.75551 0.30496 0.19133
 C209 C 0.25494 -0.02352 0.58469
 C210 C 0.25175 0.02177 0.57832
 C211 C 0.25716 0.04453 0.50599
 C212 C 0.26444 0.02334 0.43963
 C213 C 0.26338 -0.02247 0.44473
 C214 C 0.25908 -0.04490 0.51815
 H215 H 0.26038 -0.07981 0.52444
 H216 H 0.25635 0.07950 0.50134
 C217 C 0.73064 0.01853 0.55464
 C218 C 0.73814 -0.02611 0.55308
 C219 C 0.73856 -0.04330 0.48160
 C220 C 0.73174 -0.01813 0.41260
 C221 C 0.72489 0.02651 0.41546
 C222 C 0.72534 0.04405 0.48595
 H223 H 0.71951 0.07821 0.48788
 H224 H 0.74455 -0.07730 0.47943
 C225 C 0.52484 0.43932 -0.00933
 C226 C 0.54066 0.42987 -0.08147
 C227 C 0.51576 0.42202 -0.13963
 C228 C 0.47487 0.42346 -0.12839
 C229 C 0.45909 0.43577 -0.05750
 C230 C 0.48416 0.44359 0.00107
 H231 H 0.47169 0.45052 0.05643
 H232 H 0.52891 0.41314 -0.19299
 C233 C 0.46708 0.57672 0.01761
 C234 C 0.47898 0.58017 0.09275
 C235 C 0.51889 0.58336 0.10632
 C236 C 0.54703 0.58347 0.04590
 C237 C 0.53526 0.57980 -0.02936
 C238 C 0.49528 0.57646 -0.04276
 H239 H 0.48600 0.57400 -0.10042
 H240 H 0.52806 0.58594 0.16402
 C241 C 0.01526 0.46425 0.29951
 C242 C -0.02584 0.46641 0.29107
 C243 C -0.04498 0.50524 0.30194
 C244 C -0.02432 0.54220 0.31671
 C245 C 0.01720 0.54155 0.31488
 C246 C 0.03628 0.50206 0.30843
 H247 H 0.06788 0.50054 0.31112
 H248 H -0.07659 0.50679 0.29924
 C249 C 0.02419 0.44954 0.76877
 C250 C -0.00996 0.44509 0.72751
 C251 C -0.02839 0.48208 0.69495
 C252 C -0.01309 0.52334 0.70000
 C253 C 0.02135 0.52799 0.74080
 C254 C 0.03997 0.49080 0.77287
 H255 H 0.06597 0.49413 0.80510
 H256 H -0.05465 0.47865 0.66349
 C257 C 0.36118 0.41520 0.00236
 C258 C 0.35462 0.45201 -0.04528
 C259 C 0.39090 0.46558 -0.07350
 C260 C 0.41663 0.43633 -0.03986
 O261 O 0.39873 0.40564 0.00569
 H262 H 0.32677 0.46637 -0.05960
 H263 H 0.39781 0.49293 -0.11456
 C264 C 0.64415 0.60963 0.08033
 C265 C 0.64955 0.56618 0.07341
 C266 C 0.61348 0.55052 0.06138
 C267 C 0.58872 0.58524 0.06290
 O268 O 0.60716 0.62135 0.07385
 H269 H 0.67655 0.54811 0.07534
 H270 H 0.60630 0.51798 0.05093
 C271 C 0.63705 0.40280 -0.13443
 C272 C 0.64517 0.44295 -0.11175
 C273 C 0.61000 0.45838 -0.08744
 C274 C 0.58317 0.42665 -0.09775
 O275 O 0.59945 0.39288 -0.12643
 H276 H 0.67332 0.45893 -0.11250
 H277 H 0.60443 0.48916 -0.06572
 C278 C 0.37096 0.59073 -0.04215
 C279 C 0.36398 0.55431 0.00746
 C280 C 0.39949 0.54340 0.03578
 C281 C 0.42533 0.57394 0.00091
 O282 O 0.40812 0.60277 -0.04622
 H283 H 0.33624 0.53828 0.02249
 H284 H 0.40580 0.51672 0.07737
 C285 C 0.08089 0.37780 0.28875
 C286 C 0.05401 0.35726 0.34082
 C287 C 0.02554 0.38693 0.35159
 C288 C 0.03697 0.42318 0.30468
 O289 O 0.07083 0.41796 0.26725
 H290 H 0.05506 0.32465 0.36787
 H291 H -0.00041 0.38280 0.38918
 C292 C 0.07956 0.61724 0.77408
 C293 C 0.04384 0.63755 0.77951
 C294 C 0.01677 0.60679 0.76893
 C295 C 0.03802 0.57039 0.75494
 O296 O 0.07610 0.57650 0.75997
 H297 H 0.03803 0.67033 0.79222
 H298 H -0.01469 0.61045 0.77249
 C299 C -0.09180 0.62662 0.32526
 C300 C -0.07161 0.63516 0.38859
 C301 C -0.04299 0.60454 0.39443
 C302 C -0.04776 0.58016 0.33372
 O303 O -0.07760 0.59314 0.29256
 H304 H -0.07719 0.66030 0.42616
 H305 H -0.02132 0.60038 0.43752
 C306 C -0.07149 0.35711 0.70627
 C307 C -0.03673 0.33655 0.69038
 C308 C -0.00820 0.36669 0.69649
 C309 C -0.02783 0.40301 0.71658
 O310 O -0.06610 0.39732 0.72149
 H311 H -0.03265 0.30385 0.67559
 H312 H 0.02303 0.36282 0.68682
 C313 C 0.27699 0.10782 0.29475
 C314 C 0.31154 0.08676 0.27957
 C315 C 0.31043 0.05015 0.32897
 C316 C 0.27496 0.05135 0.36943
 O317 O 0.25501 0.08663 0.34953
 H318 H 0.33538 0.09768 0.23986
 H319 H 0.33340 0.02650 0.33723
 C320 C 0.72742 0.09323 0.69072
 C321 C 0.69524 0.06920 0.71938
 C322 C 0.69397 0.03521 0.67570
 C323 C 0.72576 0.04091 0.62448
 O324 O 0.74569 0.07637 0.63291
 H325 H 0.67421 0.07670 0.76402
 H326 H 0.67139 0.01072 0.67773
 C327 C 0.25931 -0.10472 0.73617
 C328 C 0.28494 -0.07637 0.76361
 C329 C 0.28423 -0.04024 0.71342
 C330 C 0.25854 -0.04960 0.65872
 O331 O 0.24355 -0.08885 0.67233
 H332 H 0.30298 -0.08205 0.81259
 H333 H 0.30223 -0.01167 0.71370
 C334 C 0.73359 -0.09392 0.27545
 C335 C 0.73733 -0.05826 0.22325
 C336 C 0.73744 -0.02388 0.26631
 C337 C 0.73241 -0.04120 0.34177
 O338 O 0.73087 -0.08379 0.34657
 H339 H 0.74215 -0.05760 0.16184
 H340 H 0.74288 0.00921 0.24433
 C341 C 0.61691 0.59382 -0.15797
 C342 C 0.59895 0.56183 -0.19323
 C343 C 0.56447 0.55346 -0.15197
 C344 C 0.56457 0.58045 -0.09399
 O345 O 0.59611 0.60523 -0.09823
 H346 H 0.60978 0.54635 -0.24258
 H347 H 0.54283 0.52926 -0.16080
 C348 C 0.40156 0.37937 -0.23410
 C349 C 0.43107 0.37932 -0.28981
 C350 C 0.46227 0.39803 -0.25997
 C351 C 0.44962 0.40755 -0.18731
 O352 O 0.41257 0.39627 -0.17235
 H353 H 0.42999 0.36696 -0.34525
 H354 H 0.49088 0.40309 -0.28812
 C355 C 0.39866 0.59860 0.21623
 C356 C 0.41245 0.56232 0.25749
 C357 C 0.44613 0.55179 0.21888
 C358 C 0.44985 0.58215 0.15666
 O359 O 0.42119 0.61061 0.15495
 H360 H 0.39937 0.54548 0.30910
 H361 H 0.46477 0.52430 0.23232
 C362 C 0.59633 0.42053 0.12758
 C363 C 0.57767 0.45353 0.16158
 C364 C 0.54703 0.46487 0.11608
 C365 C 0.55015 0.43854 0.05710
 O366 O 0.57952 0.41125 0.06507
 H367 H 0.58519 0.46724 0.21339
 H368 H 0.52569 0.48987 0.12388
 C369 C -0.08122 0.60139 0.63548
 C370 C -0.04850 0.62115 0.59864
 C371 C -0.01820 0.59386 0.61553
 C372 C -0.03463 0.56006 0.66271
 O373 O -0.07291 0.56413 0.67344
 H374 H -0.04676 0.65191 0.56449
 H375 H 0.01231 0.59853 0.59746
 C376 C -0.09907 0.39131 0.25666
 C377 C -0.06840 0.37158 0.22059
 C378 C -0.03668 0.39718 0.22718
 C379 C -0.04997 0.42994 0.26953
 O380 O -0.08823 0.42684 0.28581
 H381 H -0.06933 0.34256 0.19131
 H382 H -0.00760 0.39264 0.20253
 C383 C 0.08714 0.37089 0.85153
 C384 C 0.05256 0.35207 0.88112
 C385 C 0.02393 0.37958 0.85578
 C386 C 0.04324 0.41257 0.81113
 O387 O 0.08165 0.40774 0.80976
 H388 H 0.04871 0.32179 0.91623
 H389 H -0.00728 0.37573 0.86747
 C390 C 0.08994 0.62038 0.33159
 C391 C 0.06217 0.64784 0.30043
 C392 C 0.03121 0.62220 0.28891
 C393 C 0.04169 0.58096 0.31667
 O394 O 0.07795 0.57976 0.34072
 H395 H 0.06488 0.68218 0.28478
 H396 H 0.00475 0.63253 0.26124
 C397 C 0.75652 -0.11676 0.68282
 C398 C 0.75648 -0.08743 0.73652
 C399 C 0.75056 -0.04836 0.69649
 C400 C 0.74607 -0.05699 0.62123
 O401 O 0.75043 -0.09863 0.61364
 H402 H 0.76161 -0.09359 0.79690
 H403 H 0.75085 -0.01786 0.72071
 C404 C 0.26608 -0.10636 0.32255
 C405 C 0.26701 -0.07349 0.26462
 C406 C 0.26598 -0.03642 0.30082
 C407 C 0.26586 -0.04953 0.37857
 O408 O 0.26516 -0.09211 0.39082
 H409 H 0.26589 -0.07622 0.20379
 H410 H 0.26347 -0.00440 0.27246
 C411 C 0.71493 0.11635 0.28286
 C412 C 0.68388 0.09314 0.25991
 C413 C 0.68446 0.05449 0.30387
 C414 C 0.71625 0.05698 0.34909
 O415 O 0.73427 0.09463 0.33709
 H416 H 0.66242 0.10380 0.21887
 H417 H 0.66337 0.02847 0.30530
 C418 C 0.23522 0.09920 0.70959
 C419 C 0.21185 0.06720 0.74734
 C420 C 0.21589 0.03290 0.70482
 C421 C 0.24164 0.04650 0.64448
 O422 O 0.25313 0.08687 0.64716
 H423 H 0.19335 0.06900 0.79855
 H424 H 0.20060 0.00234 0.71499
   
