data_POSCAR
  _audit_creation_date              2014-09-24
  _audit_creation_method            'ToBaCCo'
  _symmetry_space_group_name_H-M    'P1'
  _symmetry_Int_Tables_number       1
  _symmetry_cell_setting            triclinic
  loop_
  _symmetry_equiv_pos_as_xyz
 x,y,z
_cell_length_a 44.7208
_cell_length_b 24.6581
_cell_length_c 14.8234
_cell_angle_alpha 91.649300
_cell_angle_beta 89.602300
_cell_angle_gamma 90.959800
loop_
  _atom_site_label
  _atom_site_type_symbol
  _atom_site_fract_x
  _atom_site_fract_y
  _atom_site_fract_z
C1 C 0.75284 0.23332 0.45312
 C2 C 0.75883 0.24611 0.54154
 C3 C 0.73610 0.27272 0.60059
 C4 C 0.78746 0.23220 0.58483
 C5 C 0.77388 0.20236 0.39354
 C6 C 0.72471 0.25113 0.41126
 C7 C 0.74274 0.32228 0.64505
 C8 C 0.72096 0.34857 0.69753
 C9 C 0.69194 0.32597 0.70676
 C10 C 0.68597 0.27472 0.66445
 C11 C 0.70786 0.24854 0.61265
 C12 C 0.81520 0.24730 0.54740
 C13 C 0.84178 0.22959 0.58516
 C14 C 0.84112 0.19700 0.66138
 C15 C 0.81331 0.18497 0.70198
 C16 C 0.78681 0.20225 0.66381
 C17 C 0.78735 0.15461 0.42185
 C18 C 0.80877 0.12872 0.36750
 C19 C 0.81600 0.14867 0.28220
 C20 C 0.80108 0.19393 0.25118
 C21 C 0.78047 0.22095 0.30675
 C22 C 0.70368 0.21249 0.37931
 C23 C 0.67654 0.22898 0.34370
 C24 C 0.67036 0.28434 0.33722
 C25 C 0.69165 0.32303 0.36848
 C26 C 0.71860 0.30651 0.40510
 H27 H 0.76461 0.34119 0.63750
 H28 H 0.72679 0.38739 0.72948
 H29 H 0.66477 0.25364 0.67033
 H30 H 0.70266 0.20937 0.58109
 H31 H 0.81622 0.27158 0.48770
 H32 H 0.86289 0.24038 0.55358
 H33 H 0.76568 0.19103 0.69480
 H34 H 0.78171 0.13790 0.48663
 H35 H 0.81949 0.09287 0.39157
 H36 H 0.80613 0.20941 0.18504
 H37 H 0.77009 0.25710 0.28259
 H38 H 0.70806 0.16958 0.38384
 H39 H 0.66042 0.19850 0.32053
 H40 H 0.68728 0.36602 0.36655
 H41 H 0.73462 0.33684 0.42948
 H42 H 0.81173 0.16225 0.76314
 C43 C 0.25007 0.72081 0.44639
 C44 C 0.25672 0.73475 0.53357
 C45 C 0.23494 0.76350 0.59270
 C46 C 0.28535 0.71903 0.57482
 C47 C 0.27042 0.68660 0.39116
 C48 C 0.22248 0.73940 0.40279
 C49 C 0.24266 0.81361 0.63395
 C50 C 0.22177 0.84163 0.68731
 C51 C 0.19288 0.81993 0.70044
 C52 C 0.18573 0.76840 0.66209
 C53 C 0.20656 0.74063 0.60855
 C54 C 0.31292 0.73474 0.53704
 C55 C 0.33966 0.71629 0.57250
 C56 C 0.33936 0.68214 0.64670
 C57 C 0.31169 0.66878 0.68723
 C58 C 0.28499 0.68698 0.65135
 C59 C 0.27502 0.63237 0.41290
 C60 C 0.29676 0.60207 0.36699
 C61 C 0.31462 0.62603 0.30042
 C62 C 0.30914 0.67970 0.27635
 C63 C 0.28697 0.70959 0.32092
 C64 C 0.20111 0.70140 0.37080
 C65 C 0.17440 0.71873 0.33345
 C66 C 0.16898 0.77426 0.32526
 C67 C 0.19063 0.81230 0.35653
 C68 C 0.21713 0.79496 0.39497
 H69 H 0.26465 0.83148 0.62330
 H70 H 0.22800 0.88079 0.71713
 H71 H 0.16427 0.74895 0.67380
 H72 H 0.20056 0.70119 0.57938
 H73 H 0.31371 0.76069 0.47936
 H74 H 0.36062 0.72807 0.54100
 H75 H 0.26395 0.67515 0.68230
 H76 H 0.26226 0.61410 0.46684
 H77 H 0.30042 0.56056 0.38570
 H78 H 0.32210 0.69861 0.22352
 H79 H 0.28356 0.75135 0.30331
 H80 H 0.20485 0.65836 0.37667
 H81 H 0.15799 0.68873 0.31043
 H82 H 0.18683 0.85544 0.35334
 H83 H 0.23341 0.82483 0.41937
 H84 H 0.31039 0.64458 0.74679
 C85 C 0.23776 0.29423 -0.44843
 C86 C 0.23729 0.30005 -0.53976
 C87 C 0.26384 0.32204 -0.58896
 C88 C 0.21075 0.28305 -0.59436
 C89 C 0.21415 0.26366 -0.39846
 C90 C 0.26260 0.31732 -0.39274
 C91 C 0.26072 0.36505 -0.64770
 C92 C 0.28570 0.38684 -0.69193
 C93 C 0.31451 0.36624 -0.67861
 C94 C 0.31737 0.32201 -0.62095
 C95 C 0.29229 0.30004 -0.57751
 C96 C 0.18198 0.30041 -0.57032
 C97 C 0.15689 0.27947 -0.61599
 C98 C 0.15987 0.24094 -0.68740
 C99 C 0.18910 0.22618 -0.71459
 C100 C 0.21412 0.24715 -0.66858
 C101 C 0.20420 0.21197 -0.42855
 C102 C 0.18335 0.18258 -0.37808
 C103 C 0.17283 0.20339 -0.29415
 C104 C 0.18365 0.25434 -0.26309
 C105 C 0.20363 0.28442 -0.31515
 C106 C 0.27813 0.28363 -0.33530
 C107 C 0.30062 0.30501 -0.27950
 C108 C 0.30805 0.36066 -0.28033
 C109 C 0.29209 0.39451 -0.33663
 C110 C 0.26956 0.37303 -0.39259
 H111 H 0.23896 0.38235 -0.65824
 H112 H 0.28244 0.42044 -0.73619
 H113 H 0.33858 0.30326 -0.60944
 H114 H 0.29510 0.26574 -0.53451
 H115 H 0.17889 0.32904 -0.51437
 H116 H 0.13497 0.29256 -0.59365
 H117 H 0.23616 0.23366 -0.68888
 H118 H 0.21302 0.19372 -0.49022
 H119 H 0.17684 0.14262 -0.40351
 H120 H 0.17627 0.27151 -0.19874
 H121 H 0.21124 0.32384 -0.28961
 H122 H 0.27270 0.24069 -0.33348
 H123 H 0.31170 0.27798 -0.23479
 H124 H 0.29722 0.43758 -0.33770
 H125 H 0.25734 0.39985 -0.43506
 H126 H 0.19325 0.19777 -0.76974
 C127 C -0.26253 0.79039 -0.45183
 C128 C -0.26285 0.79601 -0.54320
 C129 C -0.23619 0.81777 -0.59206
 C130 C -0.28939 0.77937 -0.59822
 C131 C -0.28590 0.75878 -0.40259
 C132 C -0.23821 0.81512 -0.39573
 C133 C -0.23921 0.86017 -0.65203
 C134 C -0.21419 0.88126 -0.69689
 C135 C -0.18545 0.86049 -0.68310
 C136 C -0.18268 0.81698 -0.62394
 C137 C -0.20780 0.79576 -0.57972
 C138 C -0.31816 0.79659 -0.57387
 C139 C -0.34318 0.77692 -0.62126
 C140 C -0.34015 0.73995 -0.69487
 C141 C -0.31092 0.72513 -0.72190
 C142 C -0.28596 0.74475 -0.67410
 C143 C -0.29543 0.70708 -0.43397
 C144 C -0.31635 0.67695 -0.38495
 C145 C -0.32740 0.69705 -0.30122
 C146 C -0.31697 0.74798 -0.26875
 C147 C -0.29688 0.77876 -0.31933
 C148 C -0.22225 0.78277 -0.33719
 C149 C -0.20008 0.80576 -0.28175
 C150 C -0.19346 0.86171 -0.28391
 C151 C -0.20994 0.89422 -0.34103
 C152 C -0.23209 0.87112 -0.39675
 H153 H -0.26094 0.87745 -0.66326
 H154 H -0.21738 0.91436 -0.74221
 H155 H -0.16150 0.79831 -0.61160
 H156 H -0.20507 0.76195 -0.53562
 H157 H -0.32130 0.82431 -0.51671
 H158 H -0.36511 0.78995 -0.59883
 H159 H -0.26392 0.73139 -0.69465
 H160 H -0.28628 0.68945 -0.49570
 H161 H -0.32255 0.63708 -0.41143
 H162 H -0.32475 0.76461 -0.20447
 H163 H -0.28963 0.81817 -0.29281
 H164 H -0.22703 0.73963 -0.33442
 H165 H -0.18854 0.77976 -0.23640
 H166 H -0.20545 0.93747 -0.34315
 H167 H -0.24465 0.89691 -0.44009
 H168 H -0.30674 0.69765 -0.77832
 O169 O -0.02908 0.89931 0.18631
 O170 O -0.06597 0.94087 0.10792
 C171 C -0.05697 0.91037 0.17176
 O172 O 0.05121 1.09615 0.12287
 O173 O 0.08103 1.04170 0.03332
 C174 C 0.07707 1.08214 0.08963
 O175 O -0.03129 1.08422 0.17068
 O176 O -0.06689 1.03039 0.10008
 C177 C -0.05873 1.06763 0.15875
 O178 O 0.05450 0.89916 0.14470
 O179 O 0.08257 0.94860 0.04480
 C180 C 0.07988 0.91435 0.10914
 Zr181 Zr 0.01028 0.92359 0.11536
 O182 O 0.01531 0.92703 0.25747
 O183 O 0.01045 0.83790 0.11282
 Zr184 Zr 0.00815 1.06039 0.10083
 O185 O 0.01681 1.07151 0.24029
 O186 O 0.00447 1.14471 0.08284
 O187 O -0.01632 0.99135 0.13617
 O188 O 0.03569 0.99471 0.11382
 O189 O 0.04054 0.87959 -0.16585
 O190 O 0.07580 0.93835 -0.10534
 C191 C 0.06787 0.89676 -0.15582
 O192 O -0.04606 1.06785 -0.15884
 O193 O -0.07409 1.02091 -0.05572
 C194 C -0.07143 1.05300 -0.12308
 O195 O 0.03727 1.07613 -0.18961
 O196 O 0.07452 1.03277 -0.11507
 C197 C 0.06513 1.06532 -0.17572
 O198 O -0.04213 0.87893 -0.14133
 O199 O -0.07218 0.93162 -0.04992
 C200 C -0.06805 0.89365 -0.11094
 Zr201 Zr 0.00073 0.91064 -0.10926
 O202 O -0.00199 0.90209 -0.25151
 O203 O -0.00061 0.82534 -0.09631
 Zr204 Zr -0.00179 1.04724 -0.12400
 O205 O -0.00521 1.03980 -0.26621
 O206 O -0.00543 1.13258 -0.12905
 Zr207 Zr -0.03987 0.98269 0.01371
 Zr208 Zr 0.04850 0.98852 -0.02269
 O209 O 0.02446 0.97958 -0.14381
 O210 O -0.02764 0.97617 -0.12360
 O211 O 0.03229 0.90860 -0.00678
 O212 O -0.02292 1.06200 -0.00145
 O213 O -0.02037 0.90571 0.01478
 O214 O 0.02952 1.06604 -0.02380
 H215 H 0.05151 0.99925 0.15992
 H216 H -0.03698 1.09266 0.00160
 H217 H 0.03548 0.97694 -0.20194
 H218 H -0.03343 0.87339 0.02341
 H219 H 0.00698 1.16205 0.14350
 H220 H 0.01159 1.14879 -0.09486
 H221 H -0.02234 1.01513 -0.28006
 H222 H -0.01922 0.92340 -0.27089
 H223 H 0.01648 0.81569 -0.05820
 H224 H 0.01279 0.82736 0.17635
 H225 H 0.03131 0.95384 0.27260
 H226 H 0.00752 1.04012 0.27055
 O227 O 0.47113 0.40686 0.19511
 O228 O 0.43429 0.44360 0.11005
 C229 C 0.44322 0.41644 0.17809
 O230 O 0.55111 0.60056 0.10694
 O231 O 0.58111 0.54264 0.02466
 C232 C 0.57703 0.58520 0.07619
 O233 O 0.46820 0.59350 0.14865
 O234 O 0.43323 0.53346 0.09014
 C235 C 0.44095 0.57529 0.14005
 O236 O 0.55479 0.40566 0.15462
 O237 O 0.58289 0.45142 0.05008
 C238 C 0.58018 0.41984 0.11808
 Zr239 Zr 0.51063 0.42895 0.12251
 O240 O 0.51932 0.44314 0.26146
 O241 O 0.51058 0.34391 0.13640
 Zr242 Zr 0.50808 0.56405 0.08807
 O243 O 0.51698 0.58026 0.22639
 O244 O 0.50333 0.64791 0.06594
 O245 O 0.48363 0.49710 0.13349
 O246 O 0.53571 0.49968 0.11098
 O247 O 0.54148 0.36997 -0.14954
 O248 O 0.57641 0.43264 -0.09928
 C249 C 0.56875 0.38809 -0.14259
 O250 O 0.45416 0.55679 -0.17351
 O251 O 0.42626 0.51540 -0.06364
 C252 C 0.42882 0.54364 -0.13563
 O253 O 0.53778 0.56457 -0.20403
 O254 O 0.57498 0.52632 -0.12183
 C255 C 0.56567 0.55551 -0.18716
 O256 O 0.45856 0.37098 -0.12910
 O257 O 0.42838 0.42778 -0.04537
 C258 C 0.43258 0.38729 -0.10155
 Zr259 Zr 0.50144 0.40410 -0.10027
 O260 O 0.49926 0.38842 -0.24128
 O261 O 0.50006 0.31992 -0.07597
 Zr262 Zr 0.49858 0.53878 -0.13529
 O263 O 0.49550 0.52323 -0.27616
 O264 O 0.49413 0.62306 -0.15404
 Zr265 Zr 0.46050 0.48169 0.01171
 Zr266 Zr 0.54885 0.48655 -0.02445
 O267 O 0.52510 0.47089 -0.14462
 O268 O 0.47291 0.46808 -0.12441
 O269 O 0.53282 0.40787 0.00297
 O270 O 0.47736 0.55976 -0.01545
 O271 O 0.48025 0.40548 0.02391
 O272 O 0.52960 0.56338 -0.03719
 H273 H 0.55116 0.50624 0.15777
 H274 H 0.46333 0.59036 -0.01784
 H275 H 0.53635 0.46530 -0.20187
 H276 H 0.46732 0.37351 0.03647
 H277 H 0.51872 0.65854 0.02129
 H278 H 0.51255 0.64130 -0.13117
 H279 H 0.47807 0.49872 -0.28669
 H280 H 0.48193 0.40814 -0.26415
 H281 H 0.51592 0.31288 -0.03179
 H282 H 0.51355 0.33778 0.20149
 H283 H 0.50382 0.46800 0.28520
 H284 H 0.50229 0.55904 0.26165
 C285 C 0.33887 0.39016 0.27508
 C286 C 0.36782 0.37772 0.28490
 C287 C 0.39104 0.40370 0.22872
 C288 C 0.42019 0.39363 0.23873
 H289 H 0.37488 0.34854 0.33301
 H290 H 0.38400 0.43073 0.17678
 H291 H 0.33380 0.42145 0.22772
 H292 H 0.42726 0.36715 0.29136
 C293 C -0.16108 0.88377 0.26987
 C294 C -0.13220 0.87055 0.27852
 C295 C -0.10901 0.89690 0.22273
 C296 C -0.07992 0.88584 0.23077
 H297 H -0.12517 0.84068 0.32547
 H298 H -0.11605 0.92547 0.17314
 H299 H -0.16608 0.91527 0.22283
 H300 H -0.07283 0.85769 0.28090
 C301 C 0.63357 0.71829 0.26448
 C302 C 0.63279 0.68137 0.19608
 C303 C 0.60423 0.65664 0.16497
 C304 C 0.60414 0.61635 0.10259
 H305 H 0.65302 0.66686 0.16421
 H306 H 0.58345 0.66943 0.19642
 H307 H 0.61227 0.73111 0.29264
 H308 H 0.62518 0.60342 0.07295
 C309 C 0.13356 1.21784 0.27416
 C310 C 0.13279 1.17890 0.20893
 C311 C 0.10425 1.15351 0.17905
 C312 C 0.10423 1.11259 0.11781
 H313 H 0.15303 1.16346 0.17845
 H314 H 0.08342 1.16697 0.20934
 H315 H 0.11227 1.23131 0.30145
 H316 H 0.12530 1.09946 0.08867
 C317 C 0.67122 0.35442 -0.24535
 C318 C 0.64105 0.33919 -0.23596
 C319 C 0.62086 0.37194 -0.18853
 C320 C 0.59062 0.35709 -0.18566
 H321 H 0.63229 0.30240 -0.26769
 H322 H 0.62858 0.40941 -0.15565
 H323 H 0.67805 0.39290 -0.21374
 H324 H 0.58342 0.31980 -0.22030
 C325 C 0.17099 0.85167 -0.24513
 C326 C 0.14141 0.84454 -0.25336
 C327 C 0.12009 0.87696 -0.19939
 C328 C 0.09079 0.86659 -0.20681
 H329 H 0.13244 0.81502 -0.30183
 H330 H 0.12829 0.90880 -0.15358
 H331 H 0.17945 0.88331 -0.19935
 H332 H 0.08310 0.83403 -0.25211
 C333 C 0.36825 0.66217 -0.31961
 C334 C 0.37047 0.61864 -0.26837
 C335 C 0.39960 0.60071 -0.23562
 C336 C 0.40076 0.56177 -0.17501
 H337 H 0.35074 0.59543 -0.24994
 H338 H 0.41997 0.62045 -0.25882
 H339 H 0.38857 0.68334 -0.33975
 H340 H 0.38009 0.54383 -0.15009
 C341 C -0.13032 1.17659 -0.30335
 C342 C -0.12877 1.13324 -0.25131
 C343 C -0.09997 1.11381 -0.21855
 C344 C -0.09933 1.07369 -0.15986
 H345 H -0.14882 1.11086 -0.23311
 H346 H -0.07935 1.13289 -0.24125
 H347 H -0.10972 1.19678 -0.32365
 H348 H -0.12020 1.05605 -0.13588
 C349 C 0.65219 0.66793 -0.24768
 C350 C 0.63529 0.62596 -0.27780
 C351 C 0.61407 0.59910 -0.21683
 C352 C 0.58795 0.57963 -0.24755
 H353 H 0.63513 0.61350 -0.34837
 H354 H 0.61905 0.59816 -0.14537
 H355 H 0.64869 0.68219 -0.17848
 H356 H 0.58192 0.58507 -0.31739
 C357 C 0.15260 1.17489 -0.23913
 C358 C 0.13516 1.13345 -0.26825
 C359 C 0.11405 1.10711 -0.20637
 C360 C 0.08718 1.09062 -0.23547
 H361 H 0.13438 1.12122 -0.33889
 H362 H 0.11988 1.10377 -0.13586
 H363 H 0.14965 1.18932 -0.16978
 H364 H 0.08054 1.09860 -0.30397
 C365 C 0.33199 0.38461 -0.22277
 C366 C 0.35553 0.35635 -0.19682
 C367 C 0.38004 0.38285 -0.14607
 C368 C 0.40638 0.35862 -0.13945
 H369 H 0.35784 0.31422 -0.21797
 H370 H 0.37722 0.42390 -0.11946
 H371 H 0.33123 0.42770 -0.20618
 H372 H 0.40955 0.31884 -0.17084
 C373 C -0.16972 0.88721 -0.22721
 C374 C -0.14540 0.86050 -0.20326
 C375 C -0.12097 0.88803 -0.15336
 C376 C -0.09415 0.86524 -0.15010
 H377 H -0.14244 0.81869 -0.22550
 H378 H -0.12436 0.92830 -0.12411
 H379 H -0.17128 0.93013 -0.21004
 H380 H -0.09058 0.82638 -0.18426
 C381 C 0.33886 0.59457 0.25723
 C382 C 0.36548 0.61714 0.23826
 C383 C 0.38931 0.58516 0.19494
 C384 C 0.41722 0.60510 0.18835
 H385 H 0.36987 0.65951 0.25578
 H386 H 0.38383 0.54499 0.16751
 H387 H 0.33532 0.55132 0.24550
 H388 H 0.42276 0.64451 0.21859
 C389 C -0.16111 1.12265 0.22452
 C390 C -0.13396 1.11205 0.25585
 C391 C -0.11099 1.08821 0.19613
 C392 C -0.08195 1.09238 0.21663
 H393 H -0.12835 1.12273 0.32526
 H394 H -0.11796 1.06791 0.13369
 H395 H -0.16587 1.11612 0.15338
 H396 H -0.07501 1.11515 0.27675
 C397 C 0.64133 0.30062 0.29991
 C398 C 0.63845 0.34558 0.25271
 C399 C 0.60941 0.36121 0.21595
 C400 C 0.60823 0.40069 0.15633
 H401 H 0.65793 0.37080 0.23890
 H402 H 0.58914 0.34035 0.23722
 H403 H 0.62216 0.27364 0.30800
 H404 H 0.62887 0.41973 0.13356
 C405 C 0.14025 0.79139 0.28693
 C406 C 0.13788 0.83630 0.23920
 C407 C 0.10894 0.85308 0.20308
 C408 C 0.10792 0.89332 0.14475
 H409 H 0.15762 0.86080 0.22521
 H410 H 0.08853 0.83279 0.22459
 H411 H 0.12077 0.76522 0.29535
 H412 H 0.12865 0.91206 0.12206
   
