data_POSCAR
  _audit_creation_date              2014-09-24
  _audit_creation_method            'ToBaCCo'
  _symmetry_space_group_name_H-M    'P1'
  _symmetry_Int_Tables_number       1
  _symmetry_cell_setting            triclinic
  loop_
  _symmetry_equiv_pos_as_xyz
 x,y,z
_cell_length_a 36.7112
_cell_length_b 36.7899
_cell_length_c 36.6880
_cell_angle_alpha 90.062700
_cell_angle_beta 89.868300
_cell_angle_gamma 90.022100
loop_
  _atom_site_label
  _atom_site_type_symbol
  _atom_site_fract_x
  _atom_site_fract_y
  _atom_site_fract_z
N1 N 0.13482 0.15638 0.23247
 N2 N 0.16388 0.13625 0.23785
 C3 C 0.15958 0.11745 0.26907
 C4 C 0.12604 0.12647 0.28419
 C5 C 0.11101 0.15107 0.25985
 H6 H 0.17949 0.09900 0.28040
 H7 H 0.08495 0.16459 0.26168
 Cu8 Cu 0.20455 0.13775 0.20356
 Cu9 Cu 0.12992 0.18834 0.19051
 Cu10 Cu 0.21092 0.20800 0.14601
 N11 N 0.24186 0.13886 0.16560
 N12 N 0.24414 0.16672 0.14330
 C13 C 0.27300 0.16229 0.12114
 C14 C 0.28971 0.12951 0.12956
 C15 C 0.26927 0.11556 0.15822
 H16 H 0.28150 0.18215 0.10120
 H17 H 0.27452 0.09069 0.17300
 N18 N 0.16688 0.23819 0.14124
 N19 N 0.13583 0.23009 0.15748
 C20 C 0.11112 0.25591 0.14966
 C21 C 0.12733 0.28160 0.12728
 C22 C 0.16264 0.26926 0.12233
 H23 H 0.08366 0.25617 0.16028
 H24 H 0.18380 0.28238 0.10656
 H25 H 0.17215 0.17090 0.15603
 H26 H 0.18363 0.20033 0.19583
 N27 N -0.14675 0.83287 0.24282
 N28 N -0.16959 0.86010 0.23914
 C29 C -0.16321 0.88470 0.26558
 C30 C -0.13488 0.87204 0.28707
 C31 C -0.12513 0.83910 0.27169
 H32 H -0.17854 0.90950 0.26918
 H33 H -0.10433 0.82067 0.28133
 Cu34 Cu -0.20698 0.85906 0.20158
 Cu35 Cu -0.14858 0.79022 0.21150
 Cu36 Cu -0.19438 0.80380 0.12993
 N37 N -0.24102 0.85843 0.16103
 N38 N -0.23605 0.83658 0.13309
 C39 C -0.26313 0.84150 0.10892
 C40 C -0.28663 0.86781 0.12257
 C41 C -0.27154 0.87796 0.15567
 H42 H -0.26529 0.82677 0.08353
 H43 H -0.28228 0.89797 0.17445
 N44 N -0.16001 0.76333 0.13787
 N45 N -0.14319 0.75796 0.16914
 C46 C -0.12260 0.72784 0.16658
 C47 C -0.12654 0.71345 0.13195
 C48 C -0.15080 0.73646 0.11463
 H49 H -0.10650 0.71690 0.18861
 H50 H -0.16142 0.73340 0.08733
 H51 H -0.15961 0.82469 0.17010
 H52 H -0.19870 0.79545 0.18422
 N53 N -0.13268 0.15797 -0.23270
 N54 N -0.15796 0.13276 -0.23118
 C55 C -0.15518 0.11119 -0.26069
 C56 C -0.12636 0.12344 -0.28187
 C57 C -0.11272 0.15318 -0.26315
 H58 H -0.17277 0.08825 -0.26596
 H59 H -0.08983 0.16995 -0.27109
 Cu60 Cu -0.19151 0.12993 -0.19034
 Cu61 Cu -0.12719 0.19407 -0.19424
 Cu62 Cu -0.20158 0.20284 -0.13594
 N63 N -0.23360 0.13527 -0.15887
 N64 N -0.23773 0.16378 -0.13765
 C65 C -0.26921 0.16033 -0.11899
 C66 C -0.28596 0.12814 -0.12951
 C67 C -0.26224 0.11286 -0.15470
 H68 H -0.27927 0.17972 -0.09921
 H69 H -0.26514 0.08724 -0.16880
 N70 N -0.16164 0.23896 -0.13846
 N71 N -0.13338 0.23529 -0.16048
 C72 C -0.11091 0.26385 -0.15606
 C73 C -0.12557 0.28673 -0.12988
 C74 C -0.15768 0.26998 -0.11926
 H75 H -0.08576 0.26749 -0.17091
 H76 H -0.17667 0.27986 -0.09897
 H77 H -0.15772 0.17246 -0.15128
 H78 H -0.18283 0.19535 -0.18886
 N79 N 0.13823 0.83510 -0.23842
 N80 N 0.16299 0.86094 -0.23860
 C81 C 0.15783 0.88206 -0.26816
 C82 C 0.12824 0.86877 -0.28743
 C83 C 0.11656 0.83890 -0.26764
 H84 H 0.17445 0.90522 -0.27548
 H85 H 0.09416 0.82095 -0.27393
 Cu86 Cu 0.20006 0.86291 -0.20068
 Cu87 Cu 0.13547 0.79805 -0.20054
 Cu88 Cu 0.19268 0.81016 -0.12655
 N89 N 0.23611 0.86513 -0.16173
 N90 N 0.23274 0.84408 -0.13301
 C91 C 0.26086 0.84974 -0.11038
 C92 C 0.28368 0.87557 -0.12578
 C93 C 0.26683 0.88499 -0.15831
 H94 H 0.26412 0.83576 -0.08474
 H95 H 0.27663 0.90445 -0.17811
 N96 N 0.15827 0.76939 -0.13046
 N97 N 0.13688 0.76432 -0.15885
 C98 C 0.11791 0.73336 -0.15395
 C99 C 0.12815 0.71801 -0.12112
 C100 C 0.15377 0.74169 -0.10694
 H101 H 0.09838 0.72233 -0.17301
 H102 H 0.16855 0.73887 -0.08169
 H103 H 0.15457 0.83298 -0.16251
 H104 H 0.18888 0.80072 -0.18199
 N105 N 0.16493 1.13535 0.76510
 N106 N 0.13865 1.15958 0.76430
 C107 C 0.11759 1.15325 0.73495
 C108 C 0.13145 1.12348 0.71644
 C109 C 0.16153 1.11283 0.73643
 H110 H 0.09424 1.16932 0.72710
 H111 H 0.18000 1.09076 0.73051
 Cu112 Cu 0.13641 1.19779 0.80091
 Cu113 Cu 0.20238 1.13503 0.80259
 Cu114 Cu 0.19240 1.19751 0.87285
 N115 N 0.13416 1.23598 0.83755
 N116 N 0.15646 1.23569 0.86552
 C117 C 0.15009 1.26508 0.88638
 C118 C 0.12235 1.28501 0.87067
 C119 C 0.11286 1.26572 0.83963
 H120 H 0.16480 1.27178 0.91101
 H121 H 0.09241 1.27292 0.81980
 N122 N 0.23311 1.16276 0.87013
 N123 N 0.23696 1.13916 0.84328
 C124 C 0.26771 1.12005 0.84861
 C125 C 0.28417 1.13231 0.88012
 C126 C 0.26147 1.15945 0.89311
 H127 H 0.27787 1.09899 0.83071
 H128 H 0.26538 1.17592 0.91717
 H129 H 0.16885 1.15652 0.84142
 H130 H 0.19958 1.18949 0.81780
 N131 N 0.84119 0.86152 0.76100
 N132 N 0.86570 0.83557 0.76281
 C133 C 0.88884 0.83884 0.73445
 C134 C 0.87819 0.86847 0.71378
 C135 C 0.84789 0.88217 0.73151
 H136 H 0.91123 0.82060 0.72897
 H137 H 0.83160 0.90513 0.72305
 Cu138 Cu 0.86402 0.79925 0.80125
 Cu139 Cu 0.80147 0.86577 0.79594
 Cu140 Cu 0.79773 0.80125 0.86460
 N141 N 0.86163 0.76332 0.84002
 N142 N 0.83560 0.76433 0.86465
 C143 C 0.83951 0.73610 0.88755
 C144 C 0.86964 0.71619 0.87670
 C145 C 0.88301 0.73431 0.84647
 H146 H 0.82132 0.73035 0.90999
 H147 H 0.90627 0.72640 0.83017
 N148 N 0.76195 0.84076 0.85992
 N149 N 0.76342 0.86540 0.83385
 C150 C 0.73485 0.88808 0.83744
 C151 C 0.71439 0.87716 0.86721
 C152 C 0.73239 0.84711 0.88075
 H153 H 0.72909 0.91039 0.81926
 H154 H 0.72404 0.83085 0.90384
 H155 H 0.82812 0.84078 0.83862
 H156 H 0.79914 0.81119 0.80915
 N157 N 0.15383 0.87382 1.22281
 N158 N 0.13040 0.84700 1.22555
 C159 C 0.11195 0.85044 1.25714
 C160 C 0.12464 0.88108 1.27511
 C161 C 0.15113 0.89532 1.25231
 H162 H 0.09091 0.83207 1.26649
 H163 H 0.16739 0.91943 1.25652
 Cu164 Cu 0.12609 0.81079 1.18712
 Cu165 Cu 0.18578 0.87909 1.18108
 Cu166 Cu 0.19707 0.80103 1.12914
 N167 N 0.13111 0.76835 1.15609
 N168 N 0.15894 0.76433 1.13384
 C169 C 0.15538 0.73257 1.11592
 C170 C 0.12374 0.71570 1.12768
 C171 C 0.10903 0.73931 1.15321
 H172 H 0.17425 0.72245 1.09563
 H173 H 0.08414 0.73588 1.16857
 N174 N 0.23188 0.84204 1.12836
 N175 N 0.22670 0.87196 1.14752
 C176 C 0.25490 0.89462 1.14227
 C177 C 0.27929 0.87832 1.11859
 C178 C 0.26364 0.84510 1.11007
 H179 H 0.25759 0.92070 1.15551
 H180 H 0.27506 0.82448 1.09240
 H181 H 0.16405 0.84305 1.14218
 H182 H 0.19065 0.82332 1.18064
 N183 N 0.84593 1.13174 1.23292
 N184 N 0.86637 1.16075 1.23722
 C185 C 0.88612 1.15699 1.26789
 C186 C 0.87740 1.12389 1.28369
 C187 C 0.85196 1.10853 1.26048
 H188 H 0.90485 1.17706 1.27850
 H189 H 0.83817 1.08277 1.26340
 Cu190 Cu 0.86394 1.20069 1.20261
 Cu191 Cu 0.81232 1.12612 1.19244
 Cu192 Cu 0.79243 1.20580 1.14648
 N193 N 0.86196 1.23684 1.16397
 N194 N 0.83372 1.23851 1.14208
 C195 C 0.83767 1.26681 1.11933
 C196 C 0.87038 1.28380 1.12712
 C197 C 0.88499 1.26415 1.15577
 H198 H 0.81751 1.27492 1.09954
 H199 H 0.91001 1.27002 1.17013
 N200 N 0.76192 1.16212 1.14342
 N201 N 0.76986 1.13152 1.16031
 C202 C 0.74366 1.10691 1.15329
 C203 C 0.71807 1.12282 1.13068
 C204 C 0.73071 1.15774 1.12483
 H205 H 0.74318 1.07971 1.16435
 H206 H 0.71780 1.17850 1.10849
 H207 H 0.82973 1.16708 1.15669
 H208 H 0.80103 1.17990 1.19679
 N209 N 0.54083 1.03660 1.06466
 N210 N 0.56960 1.03863 1.08600
 N211 N 0.46479 1.06472 1.04157
 N212 N 0.43654 1.08646 1.04557
 N213 N 0.46403 1.03865 1.06597
 N214 N 0.43519 1.04214 1.08738
 N215 N 0.54138 1.06266 1.04025
 N216 N 0.57043 1.08337 1.04455
 C217 C 0.58778 1.06795 1.07317
 C218 C 0.41834 1.07221 1.07430
 N219 N 0.46166 1.04290 0.93758
 N220 N 0.43243 1.04782 0.91733
 N221 N 0.53999 1.06535 0.96156
 N222 N 0.56898 1.08628 0.95752
 N223 N 0.53825 1.04120 0.93524
 N224 N 0.56602 1.04496 0.91268
 N225 N 0.46330 1.06743 0.96354
 N226 N 0.43514 1.08962 0.96176
 Mn227 Mn 0.50249 1.06550 1.00175
 C228 C 0.41623 1.07714 0.93270
 C229 C 0.58491 1.07325 0.92682
 N230 N 0.46248 0.96033 1.06311
 N231 N 0.43324 0.95762 1.08387
 N232 N 0.53873 0.93467 1.03555
 N233 N 0.56715 0.91283 1.03770
 N234 N 0.53922 0.95868 1.06204
 N235 N 0.56801 0.95377 1.08298
 N236 N 0.46200 0.93562 1.03728
 N237 N 0.43242 0.91534 1.03987
 Mn238 Mn 0.50158 0.99854 1.06444
 C239 C 0.41484 0.92931 1.06917
 C240 C 0.58515 0.92503 1.06748
 N241 N 0.53647 0.96329 0.93256
 N242 N 0.56484 0.96072 0.91061
 N243 N 0.46050 0.93834 0.95918
 N244 N 0.43201 0.91688 0.95564
 N245 N 0.45973 0.96445 0.93484
 N246 N 0.43059 0.96130 0.91393
 N247 N 0.53707 0.93736 0.95710
 N248 N 0.56584 0.91633 0.95240
 Mn249 Mn 0.49891 1.00298 0.93457
 Mn250 Mn 0.49965 0.93604 0.99726
 Cl251 Cl 0.50066 1.00078 0.99950
 C252 C 0.58280 0.93120 0.92318
 C253 C 0.41359 0.93140 0.92730
 N254 N 0.03847 0.45874 0.06470
 N255 N 0.04146 0.42960 0.08536
 N256 N 0.06501 0.53576 0.04253
 N257 N 0.08593 0.56471 0.04647
 N258 N 0.03937 0.53527 0.06753
 N259 N 0.04210 0.56387 0.08907
 N260 N 0.06402 0.45916 0.03962
 N261 N 0.08530 0.43036 0.04275
 C262 C 0.07078 0.41213 0.07141
 C263 C 0.07141 0.58187 0.07576
 N264 N 0.03989 0.54038 -0.06100
 N265 N 0.04398 0.56971 -0.08128
 N266 N 0.06411 0.46231 -0.03904
 N267 N 0.08455 0.43313 -0.04359
 N268 N 0.03903 0.46408 -0.06444
 N269 N 0.04174 0.43623 -0.08693
 N270 N 0.06516 0.53889 -0.03577
 N271 N 0.08699 0.56732 -0.03806
 Mn272 Mn 0.06510 0.49897 0.00182
 C273 C 0.07350 0.58623 -0.06665
 C274 C 0.07036 0.41727 -0.07373
 N275 N -0.03901 0.53601 0.06742
 N276 N -0.04205 0.56417 0.08952
 N277 N -0.06469 0.46050 0.03922
 N278 N -0.08644 0.43208 0.04182
 N279 N -0.03964 0.45958 0.06466
 N280 N -0.04367 0.43051 0.08533
 N281 N -0.06431 0.53699 0.04221
 N282 N -0.08520 0.56590 0.04644
 Mn283 Mn -0.00018 0.49742 0.06653
 C284 C -0.07109 0.58248 0.07619
 C285 C -0.07301 0.41367 0.07076
 N286 N -0.03917 0.46454 -0.06444
 N287 N -0.04221 0.43647 -0.08664
 N288 N -0.06412 0.53986 -0.03591
 N289 N -0.08617 0.56798 -0.03872
 N290 N -0.03869 0.54110 -0.06108
 N291 N -0.04281 0.57013 -0.08180
 N292 N -0.06453 0.46345 -0.03918
 N293 N -0.08561 0.43469 -0.04363
 Mn294 Mn 0.00028 0.50261 -0.06321
 Mn295 Mn -0.06487 0.50016 0.00159
 Cl296 Cl 0.00010 0.49979 0.00167
 C297 C -0.07141 0.41818 -0.07346
 C298 C -0.07259 0.58659 -0.06748
 N299 N 1.06681 0.03996 0.46142
 N300 N 1.08741 0.04399 0.43216
 N301 N 1.04229 0.06237 0.53929
 N302 N 1.04634 0.08292 0.56852
 N303 N 1.06754 0.03713 0.53806
 N304 N 1.08944 0.03981 0.56638
 N305 N 1.04125 0.06491 0.46246
 N306 N 1.04370 0.08646 0.43381
 C307 C 1.07273 0.07318 0.41524
 C308 C 1.07595 0.06856 0.58508
 N309 N 0.93887 0.03653 0.54011
 N310 N 0.91702 0.03946 0.56853
 N311 N 0.96278 0.06469 0.46379
 N312 N 0.95948 0.08585 0.43490
 N313 N 0.93773 0.03922 0.46357
 N314 N 0.91688 0.04223 0.43457
 N315 N 0.96384 0.06207 0.54065
 N316 N 0.95965 0.08308 0.56960
 Mn317 Mn 1.00256 0.06404 0.50156
 C318 C 0.93025 0.06863 0.58668
 C319 C 0.93058 0.07152 0.41703
 N320 N 1.06780 -0.04111 0.53517
 N321 N 1.08879 -0.04526 0.56408
 N322 N 1.04169 -0.06334 0.45747
 N323 N 1.04490 -0.08328 0.42770
 N324 N 1.06699 -0.03811 0.45842
 N325 N 1.08802 -0.04015 0.42930
 N326 N 1.04265 -0.06648 0.53416
 N327 N 1.04579 -0.08846 0.56234
 Mn328 Mn 1.06776 -0.00054 0.49831
 C329 C 1.07479 -0.07504 0.58068
 C330 C 1.07402 -0.06855 0.41048
 N331 N 0.93787 -0.03857 0.46049
 N332 N 0.91508 -0.04155 0.43293
 N333 N 0.96449 -0.06682 0.53541
 N334 N 0.96188 -0.08907 0.56348
 N335 N 0.93923 -0.04163 0.53710
 N336 N 0.91865 -0.04613 0.56629
 N337 N 0.96314 -0.06373 0.45870
 N338 N 0.95809 -0.08468 0.42988
 Mn339 Mn 0.93801 -0.00110 0.50038
 Mn340 Mn 1.00302 -0.06557 0.49635
 Cl341 Cl 1.00284 -0.00078 0.49916
 C342 C 0.92799 -0.07040 0.41404
 C343 C 0.93306 -0.07591 0.58239
 C344 C 1.11131 0.11335 0.31796
 C345 C 1.13718 0.11899 0.35045
 C346 C 1.12422 0.10566 0.38258
 C347 C 1.08645 0.08804 0.37960
 C348 C 1.06218 0.11748 0.36259
 C349 C 1.07506 0.13076 0.33045
 C350 C 1.10351 0.07226 0.31749
 C351 C 1.09047 0.05906 0.34966
 H352 H 1.16339 0.13255 0.34846
 H353 H 1.13936 0.10777 0.40788
 H354 H 1.03693 0.12715 0.37463
 H355 H 1.06054 0.15183 0.31589
 H356 H 1.10764 0.05503 0.29379
 H357 H 1.08354 0.03061 0.35339
 C358 C 0.88133 -0.11143 0.32102
 C359 C 0.87921 -0.13698 0.35411
 C360 C 0.89470 -0.12322 0.38485
 C361 C 0.91082 -0.08506 0.37991
 C362 C 0.93743 -0.08856 0.34776
 C363 C 0.92203 -0.10240 0.31697
 C364 C 0.86377 -0.07576 0.33426
 C365 C 0.87919 -0.06201 0.36504
 H366 H 0.86642 -0.16358 0.35347
 H367 H 0.89519 -0.13806 0.41040
 H368 H 0.96586 -0.08063 0.34901
 H369 H 0.93735 -0.10627 0.29192
 H370 H 0.84130 -0.06217 0.32088
 H371 H 0.86973 -0.03691 0.37741
 C372 C 0.88810 0.10803 0.68279
 C373 C 0.88777 0.13562 0.65134
 C374 C 0.90163 0.12246 0.61947
 C375 C 0.91462 0.08287 0.62182
 C376 C 0.94179 0.08230 0.65355
 C377 C 0.92796 0.09548 0.68542
 C378 C 0.86749 0.07476 0.66778
 C379 C 0.88136 0.06164 0.63597
 H380 H 0.87733 0.16312 0.65388
 H381 H 0.90302 0.13869 0.59481
 H382 H 0.96938 0.07202 0.65126
 H383 H 0.94384 0.09656 0.71032
 H384 H 0.84402 0.06231 0.68065
 H385 H 0.86959 0.03826 0.62229
 C386 C 1.11318 -0.11657 0.67721
 C387 C 1.10174 -0.07641 0.67944
 C388 C 1.08894 -0.06269 0.64743
 C389 C 1.08870 -0.09033 0.61600
 C390 C 1.12800 -0.10440 0.61368
 C391 C 1.14079 -0.11812 0.64567
 C392 C 1.07921 -0.13634 0.66255
 C393 C 1.06649 -0.12265 0.63063
 H394 H 1.10344 -0.06020 0.70412
 H395 H 1.07975 -0.03477 0.64478
 H396 H 1.14432 -0.10374 0.58898
 H397 H 1.16806 -0.12921 0.64825
 H398 H 1.06568 -0.15883 0.67597
 H399 H 1.04250 -0.13369 0.61738
 C400 C 0.32268 1.11470 1.11462
 C401 C 0.33621 1.13299 1.07928
 C402 C 0.36778 1.11888 1.06608
 C403 C 0.38324 1.08753 1.08903
 C404 C 0.38665 1.10312 1.12768
 C405 C 0.35505 1.11731 1.14106
 C406 C 0.32024 1.07404 1.10471
 C407 C 0.35194 1.05986 1.09137
 H408 H 0.32175 1.15403 1.06458
 H409 H 0.37976 1.12844 1.04077
 H410 H 0.41179 1.10302 1.14320
 H411 H 0.35331 1.12937 1.16803
 H412 H 0.29569 1.05784 1.10770
 H413 H 0.35442 1.03163 1.08308
 C414 C 0.31732 0.88956 0.88829
 C415 C 0.33231 0.86963 0.92209
 C416 C 0.36400 0.88361 0.93492
 C417 C 0.37834 0.91623 0.91299
 C418 C 0.38078 0.90241 0.87356
 C419 C 0.34894 0.88837 0.86064
 C420 C 0.31485 0.92966 0.90002
 C421 C 0.34673 0.94354 0.91300
 H422 H 0.32007 0.84600 0.93475
 H423 H 0.37769 0.87202 0.95838
 H424 H 0.40550 0.90332 0.85728
 H425 H 0.34661 0.87725 0.83332
 H426 H 0.29007 0.94569 0.89857
 H427 H 0.34914 0.97130 0.92265
 C428 C 0.68040 0.88184 1.10716
 C429 C 0.66827 0.86498 1.07060
 C430 C 0.63678 0.87924 1.05729
 C431 C 0.62007 0.90905 1.08155
 C432 C 0.61584 0.89132 1.11915
 C433 C 0.64728 0.87702 1.13250
 C434 C 0.68218 0.92296 1.09963
 C435 C 0.65067 0.93715 1.08623
 H436 H 0.68278 0.84381 1.05604
 H437 H 0.62509 0.87018 1.03170
 H438 H 0.59021 0.88985 1.13389
 H439 H 0.64837 0.86329 1.15867
 H440 H 0.70626 0.93949 1.10418
 H441 H 0.64786 0.96573 1.07943
 C442 C 0.68049 1.11355 0.88425
 C443 C 0.68370 1.09968 0.92365
 C444 C 0.65205 1.08616 0.93756
 C445 C 0.61983 1.08781 0.91101
 C446 C 0.61746 1.12784 0.89942
 C447 C 0.64909 1.14130 0.88535
 C448 C 0.66475 1.08108 0.86270
 C449 C 0.63320 1.06766 0.87677
 H450 H 0.70885 1.10005 0.93917
 H451 H 0.65024 1.07487 0.96480
 H452 H 0.59289 1.14409 0.90172
 H453 H 0.65139 1.16907 0.87560
 H454 H 0.67637 1.07002 0.83788
 H455 H 0.61884 1.04516 0.86412
 C456 C 0.11132 0.31644 0.11251
 C457 C 0.10858 0.31699 0.07069
 C458 C 0.09496 0.34860 0.05695
 C459 C 0.08544 0.37696 0.08624
 C460 C 0.05910 0.35714 0.11215
 C461 C 0.07257 0.32558 0.12588
 C462 C 0.13402 0.35025 0.12215
 C463 C 0.12055 0.38183 0.10832
 H464 H 0.11651 0.29437 0.05339
 H465 H 0.09136 0.35299 0.02795
 H466 H 0.03198 0.36679 0.11893
 H467 H 0.05672 0.30899 0.14444
 H468 H 0.15859 0.34942 0.13854
 H469 H 0.13361 0.40792 0.11285
 C470 C -0.11033 0.32206 -0.11535
 C471 C -0.10071 0.32033 -0.07462
 C472 C -0.08765 0.35217 -0.06083
 C473 C -0.08543 0.38301 -0.08895
 C474 C -0.06225 0.36739 -0.12022
 C475 C -0.07521 0.33561 -0.13404
 C476 C -0.13703 0.35410 -0.11856
 C477 C -0.12403 0.38593 -0.10470
 H478 H -0.10379 0.29608 -0.05807
 H479 H -0.07961 0.35510 -0.03251
 H480 H -0.03768 0.38008 -0.13072
 H481 H -0.06152 0.32188 -0.15632
 H482 H -0.16383 0.35195 -0.13081
 H483 H -0.13972 0.41093 -0.10508
 C484 C 0.11433 0.68268 -0.10544
 C485 C 0.13301 0.66968 -0.07019
 C486 C 0.11963 0.63772 -0.05710
 C487 C 0.08878 0.62155 -0.08034
 C488 C 0.06025 0.65196 -0.08268
 C489 C 0.07357 0.68389 -0.09589
 C490 C 0.11826 0.65054 -0.13199
 C491 C 0.10481 0.61863 -0.11889
 H492 H 0.15489 0.68397 -0.05651
 H493 H 0.13005 0.62530 -0.03240
 H494 H 0.03208 0.64876 -0.07432
 H495 H 0.05673 0.70795 -0.09885
 H496 H 0.13078 0.65266 -0.15874
 H497 H 0.10582 0.59353 -0.13444
 C498 C -0.11081 0.67851 0.11724
 C499 C -0.07793 0.66357 0.13852
 C500 C -0.06464 0.63173 0.12509
 C501 C -0.08528 0.61761 0.09149
 C502 C -0.12525 0.61545 0.10363
 C503 C -0.13861 0.64730 0.11704
 C504 C -0.09721 0.68110 0.07763
 C505 C -0.08393 0.64921 0.06415
 H506 H -0.06525 0.67721 0.16143
 H507 H -0.04108 0.61842 0.13690
 H508 H -0.14165 0.59096 0.10188
 H509 H -0.16644 0.65001 0.12675
 H510 H -0.09773 0.70590 0.06165
 H511 H -0.07320 0.64677 0.03665
 C512 C 1.11723 0.10777 0.68126
 C513 C 1.13778 0.07426 0.66659
 C514 C 1.12422 0.06111 0.63471
 C515 C 1.09133 0.08254 0.62026
 C516 C 1.06375 0.08224 0.65179
 C517 C 1.07728 0.09545 0.68371
 C518 C 1.11814 0.13521 0.64973
 C519 C 1.10458 0.12203 0.61785
 H520 H 1.16068 0.06141 0.67995
 H521 H 1.13575 0.03741 0.62134
 H522 H 1.03611 0.07214 0.64931
 H523 H 1.06112 0.09667 0.70850
 H524 H 1.12874 0.16265 0.65223
 H525 H 1.10359 0.13819 0.59313
 C526 C 0.89409 -0.11746 0.67861
 C527 C 0.86684 -0.11913 0.64689
 C528 C 0.88000 -0.10551 0.61501
 C529 C 0.91926 -0.09146 0.61759
 C530 C 0.91874 -0.06373 0.64891
 C531 C 0.90558 -0.07733 0.68083
 C532 C 0.92818 -0.13738 0.66433
 C533 C 0.94131 -0.12377 0.63240
 H534 H 0.83957 -0.13030 0.64927
 H535 H 0.86400 -0.10503 0.59017
 H536 H 0.92810 -0.03585 0.64627
 H537 H 0.90372 -0.06106 0.70547
 H538 H 0.94132 -0.15992 0.67800
 H539 H 0.96538 -0.13485 0.61924
 C540 C 1.11180 -0.10466 0.31149
 C541 C 1.07170 -0.09268 0.31117
 C542 C 1.05936 -0.08047 0.34400
 C543 C 1.08813 -0.08145 0.37429
 C544 C 1.10175 -0.12089 0.37496
 C545 C 1.11418 -0.13302 0.34213
 C546 C 1.13270 -0.07144 0.32630
 C547 C 1.12029 -0.05934 0.35910
 H548 H 1.05462 -0.09330 0.28706
 H549 H 1.03181 -0.07054 0.34792
 H550 H 1.10184 -0.13776 0.39922
 H551 H 1.12490 -0.16026 0.33837
 H552 H 1.15542 -0.05840 0.31268
 H553 H 1.13240 -0.03615 0.37281
 C554 C 0.89148 0.10920 0.31936
 C555 C 0.87404 0.07322 0.33191
 C556 C 0.88705 0.06078 0.36418
 C557 C 0.91640 0.08525 0.38125
 C558 C 0.94571 0.08898 0.35151
 C559 C 0.93267 0.10160 0.31913
 C560 C 0.88559 0.13544 0.35151
 C561 C 0.89870 0.12293 0.38385
 H562 H 0.85327 0.05843 0.31713
 H563 H 0.87727 0.03566 0.37621
 H564 H 0.97422 0.08227 0.35553
 H565 H 0.95003 0.10562 0.29549
 H566 H 0.87218 0.16161 0.34905
 H567 H 0.89654 0.13839 0.40898
 C568 C 0.10741 0.32054 -0.11536
 C569 C 0.07594 0.33715 -0.13749
 C570 C 0.06352 0.36928 -0.12387
 C571 C 0.08362 0.38197 -0.08934
 C572 C 0.08008 0.35006 -0.06266
 C573 C 0.09252 0.31792 -0.07624
 C574 C 0.13643 0.35063 -0.11383
 C575 C 0.12399 0.38275 -0.10024
 H576 H 0.06402 0.32492 -0.16155
 H577 H 0.04131 0.38406 -0.13651
 H578 H 0.06818 0.35242 -0.03566
 H579 H 0.09139 0.29283 -0.06073
 H580 H 0.16436 0.34702 -0.12293
 H581 H 0.14126 0.40658 -0.09773
 C582 C -0.11472 0.31839 0.11101
 C583 C -0.07437 0.31596 0.09992
 C584 C -0.06060 0.34759 0.08635
 C585 C -0.08843 0.37875 0.08505
 C586 C -0.12049 0.36347 0.06291
 C587 C -0.13422 0.33189 0.07642
 C588 C -0.11666 0.35049 0.13775
 C589 C -0.10294 0.38206 0.12417
 H590 H -0.05811 0.29145 0.10235
 H591 H -0.03256 0.35012 0.07722
 H592 H -0.13100 0.37578 0.03821
 H593 H -0.15609 0.31755 0.06278
 H594 H -0.12803 0.34858 0.16503
 H595 H -0.10255 0.40712 0.13982
 C596 C -0.11555 0.68148 -0.10737
 C597 C -0.07572 0.68475 -0.09492
 C598 C -0.06160 0.65328 -0.08150
 C599 C -0.08850 0.62132 -0.08175
 C600 C -0.12183 0.63525 -0.06044
 C601 C -0.13599 0.66668 -0.07379
 C602 C -0.11565 0.64983 -0.13477
 C603 C -0.10148 0.61840 -0.12138
 H604 H -0.06012 0.70979 -0.09614
 H605 H -0.03401 0.65144 -0.07115
 H606 H -0.13325 0.62186 -0.03666
 H607 H -0.15931 0.67961 -0.06111
 H608 H -0.12616 0.65193 -0.16232
 H609 H -0.09984 0.59367 -0.13747
 C610 C 0.10893 0.67974 0.11449
 C611 C 0.13615 0.64825 0.11859
 C612 C 0.12359 0.61580 0.10583
 C613 C 0.08490 0.61765 0.09018
 C614 C 0.06160 0.63388 0.12106
 C615 C 0.07412 0.66629 0.13378
 C616 C 0.09911 0.68004 0.07378
 C617 C 0.08650 0.64760 0.06108
 H618 H 0.16295 0.65120 0.13068
 H619 H 0.13966 0.59106 0.10697
 H620 H 0.03732 0.62110 0.13212
 H621 H 0.06034 0.68054 0.15568
 H622 H 0.10171 0.70380 0.05645
 H623 H 0.07839 0.64365 0.03290
 C624 C 0.31958 1.11860 0.89548
 C625 C 0.31782 1.07830 0.90631
 C626 C 0.34988 1.06484 0.91899
 C627 C 0.38092 1.09279 0.91963
 C628 C 0.38317 1.10747 0.88057
 C629 C 0.35113 1.12103 0.86796
 C630 C 0.33381 1.13817 0.92977
 C631 C 0.36595 1.12466 0.94237
 H632 H 0.29329 1.06188 0.90463
 H633 H 0.35276 1.03699 0.92821
 H634 H 0.40793 1.10753 0.86434
 H635 H 0.34853 1.13269 0.84092
 H636 H 0.32018 1.16068 0.94313
 H637 H 0.37933 1.13573 0.96628
 C638 C 0.31566 0.89261 1.10572
 C639 C 0.31665 0.90090 1.06468
 C640 C 0.34951 0.91327 1.05257
 C641 C 0.37854 0.91607 1.08258
 C642 C 0.36117 0.94030 1.11200
 C643 C 0.32839 0.92810 1.12412
 C644 C 0.34719 0.86580 1.11187
 C645 C 0.38005 0.87804 1.09966
 H646 H 0.29344 0.89748 1.04672
 H647 H 0.35437 0.92039 1.02425
 H648 H 0.37346 0.96499 1.12257
 H649 H 0.31349 0.94254 1.14513
 H650 H 0.34398 0.83947 1.12482
 H651 H 0.40485 0.86220 1.10214
 C652 C 0.68331 1.10695 1.11580
 C653 C 0.67320 1.06874 1.12966
 C654 C 0.64156 1.05563 1.11555
 C655 C 0.62284 1.08181 1.08881
 C656 C 0.61814 1.11733 1.11022
 C657 C 0.64973 1.13043 1.12445
 C658 C 0.68362 1.10341 1.07406
 C659 C 0.65201 1.09017 1.05994
 H660 H 0.68919 1.05310 1.14885
 H661 H 0.63108 1.02898 1.12269
 H662 H 0.59215 1.13087 1.11414
 H663 H 0.65068 1.15516 1.14060
 H664 H 0.70681 1.11047 1.05707
 H665 H 0.64816 1.08600 1.03094
 C666 C 0.67917 0.89270 0.88153
 C667 C 0.66530 0.92715 0.86220
 C668 C 0.63334 0.94005 0.87588
 C669 C 0.61805 0.91744 0.90770
 C670 C 0.61541 0.87856 0.89276
 C671 C 0.64736 0.86562 0.87907
 C672 C 0.68102 0.90333 0.92203
 C673 C 0.64904 0.91626 0.93572
 H674 H 0.67929 0.94077 0.84005
 H675 H 0.62051 0.96437 0.86520
 H676 H 0.59050 0.86264 0.89278
 H677 H 0.64974 0.83861 0.86736
 H678 H 0.70545 0.90103 0.93849
 H679 H 0.64612 0.92496 0.96387
   
