data_POSCAR
  _audit_creation_date              2014-09-24
  _audit_creation_method            'ToBaCCo'
  _symmetry_space_group_name_H-M    'P1'
  _symmetry_Int_Tables_number       1
  _symmetry_cell_setting            triclinic
  loop_
  _symmetry_equiv_pos_as_xyz
 x,y,z
_cell_length_a 33.6613
_cell_length_b 33.6852
_cell_length_c 33.7190
_cell_angle_alpha 90.389300
_cell_angle_beta 89.342400
_cell_angle_gamma 89.660400
loop_
  _atom_site_label
  _atom_site_type_symbol
  _atom_site_fract_x
  _atom_site_fract_y
  _atom_site_fract_z
C1 C 0.57312 0.39883 0.01578
 C2 C 0.60191 0.42750 0.01580
 C3 C 0.58314 0.46309 0.00685
 N4 N 0.54398 0.45696 0.00113
 C5 C 0.53770 0.41781 0.00685
 C6 C 0.60258 0.49979 0.00151
 C7 C 0.58249 0.53625 -0.00467
 C8 C 0.60060 0.57102 -0.01712
 C9 C 0.57170 0.60001 -0.01719
 C10 C 0.53659 0.58228 -0.00478
 N11 N 0.54355 0.54349 0.00301
 C12 C 0.50003 0.60258 0.00123
 C13 C 0.46317 0.58331 0.00651
 C14 C 0.42738 0.60227 0.01531
 C15 C 0.39868 0.57352 0.01529
 C16 C 0.41783 0.53791 0.00651
 N17 N 0.45713 0.54405 0.00087
 C18 C 0.39861 0.50114 0.00132
 C19 C 0.41878 0.46462 -0.00457
 C20 C 0.40089 0.42962 -0.01663
 C21 C 0.42981 0.40062 -0.01654
 C22 C 0.46463 0.41865 -0.00442
 N23 N 0.45754 0.45758 0.00307
 C24 C 0.50100 0.39853 0.00160
 H25 H 0.57781 0.36754 0.02126
 H26 H 0.63318 0.42262 0.02128
 H27 H 0.47676 0.47706 0.01696
 H28 H 0.63156 0.57518 -0.02498
 H29 H 0.57612 0.63077 -0.02511
 H30 H 0.42242 0.63364 0.02069
 H31 H 0.36726 0.57835 0.02068
 H32 H 0.42558 0.36968 -0.02420
 H33 H 0.52404 0.52433 0.01712
 H34 H 0.37008 0.42531 -0.02437
 C35 C 0.00081 0.57458 0.60277
 C36 C -0.00133 0.60331 0.57428
 C37 C -0.00155 0.58378 0.53788
 N38 N 0.00032 0.54413 0.54342
 C39 C 0.00172 0.53834 0.58298
 C40 C -0.00206 0.60283 0.50061
 C41 C -0.00097 0.58289 0.46340
 C42 C 0.00475 0.60165 0.42723
 C43 C 0.00447 0.57268 0.39845
 C44 C -0.00141 0.53680 0.41757
 N45 N -0.00535 0.54339 0.45710
 C46 C -0.00302 0.49959 0.39785
 C47 C -0.00274 0.46229 0.41675
 C48 C -0.00296 0.42599 0.39708
 C49 C -0.00081 0.39729 0.42561
 C50 C 0.00055 0.41693 0.46186
 N51 N -0.00062 0.45659 0.45627
 C52 C 0.00167 0.39794 0.49907
 C53 C 0.00138 0.41774 0.53628
 C54 C -0.00320 0.39877 0.57243
 C55 C -0.00295 0.42770 0.60128
 C56 C 0.00178 0.46375 0.58215
 N57 N 0.00510 0.45731 0.54256
 C58 C 0.00262 0.50101 0.60186
 H59 H 0.00137 0.57985 0.63446
 H60 H -0.00234 0.63501 0.57976
 H61 H 0.01227 0.47830 0.52144
 H62 H 0.00915 0.63301 0.42207
 H63 H 0.00861 0.57754 0.36697
 H64 H -0.00424 0.42066 0.36542
 H65 H -0.00050 0.36557 0.42023
 H66 H -0.00646 0.42269 0.63280
 H67 H -0.01368 0.52264 0.47808
 H68 H -0.00694 0.36732 0.57757
 C69 C 0.39836 0.01433 0.57328
 C70 C 0.42689 0.01448 0.60202
 C71 C 0.46278 0.00588 0.58307
 N72 N 0.45696 0.00024 0.54383
 C73 C 0.41769 0.00567 0.53770
 C74 C 0.49956 0.00085 0.60233
 C75 C 0.53620 -0.00501 0.58199
 C76 C 0.57123 -0.01719 0.59968
 C77 C 0.60025 -0.01709 0.57068
 C78 C 0.58229 -0.00485 0.53591
 N79 N 0.54333 0.00267 0.54319
 C80 C 0.60255 0.00129 0.49943
 C81 C 0.58333 0.00650 0.46273
 C82 C 0.60233 0.01537 0.42714
 C83 C 0.57370 0.01526 0.39850
 C84 C 0.53813 0.00637 0.41746
 N85 N 0.54417 0.00074 0.45661
 C86 C 0.50149 0.00111 0.39821
 C87 C 0.46500 -0.00497 0.41838
 C88 C 0.43019 -0.01708 0.40040
 C89 C 0.40116 -0.01731 0.42942
 C90 C 0.41897 -0.00532 0.46440
 N91 N 0.45779 0.00240 0.45732
 C92 C 0.39867 0.00044 0.50095
 H93 H 0.36691 0.01955 0.57811
 H94 H 0.42175 0.01982 0.63336
 H95 H 0.47699 0.01624 0.47681
 H96 H 0.57553 -0.02500 0.63043
 H97 H 0.63119 -0.02479 0.57481
 H98 H 0.63366 0.02084 0.42225
 H99 H 0.57861 0.02066 0.36722
 H100 H 0.37034 -0.02507 0.42515
 H101 H 0.52391 0.01660 0.52400
 H102 H 0.42604 -0.02465 0.36948
 O103 O 0.46754 -0.00057 -0.05509
 O104 O 0.46797 -0.00027 0.05428
 O105 O 0.46773 0.05425 -0.00020
 O106 O 0.46780 -0.05514 -0.00060
 O107 O 0.53350 -0.05550 -0.00161
 O108 O 0.53343 0.05391 -0.00120
 O109 O 0.53366 -0.00063 0.05328
 O110 O 0.53323 -0.00093 -0.05610
 Cu111 Cu 0.46115 -0.00041 -0.00031
 Cu112 Cu 0.54007 -0.00083 -0.00152
 C113 C 0.50031 -0.00077 -0.07407
 C114 C 0.50088 -0.00040 0.07225
 C115 C 0.50057 0.07255 -0.00062
 C116 C 0.50066 -0.07379 -0.00113
 O117 O -0.05548 0.53305 1.00019
 O118 O 0.05394 0.53318 1.00007
 O119 O -0.00019 0.53316 0.94557
 O120 O -0.00133 0.53304 1.05467
 O121 O -0.00086 0.46737 1.05414
 O122 O 0.00028 0.46749 0.94504
 O123 O 0.05440 0.46752 0.99955
 O124 O -0.05501 0.46739 0.99966
 Cu125 Cu -0.00082 0.53975 1.00017
 Cu126 Cu -0.00025 0.46080 0.99954
 C127 C -0.07371 0.50020 0.99996
 C128 C 0.07263 0.50037 0.99981
 C129 C 0.00025 0.50035 0.92691
 C130 C -0.00127 0.50018 1.07281
 O131 O -0.00018 -0.05567 0.46718
 O132 O -0.00008 0.05361 0.46703
 O133 O 0.05459 -0.00138 0.46719
 O134 O -0.05484 -0.00067 0.46708
 O135 O -0.05566 -0.00013 0.53268
 O136 O 0.05376 -0.00084 0.53278
 O137 O -0.00090 0.05416 0.53263
 O138 O -0.00100 -0.05513 0.53278
 Cu139 Cu -0.00004 -0.00109 0.46050
 Cu140 Cu -0.00103 -0.00043 0.53934
 C141 C -0.00062 -0.07384 0.50000
 C142 C -0.00046 0.07232 0.49980
 C143 C 0.07265 -0.00121 0.50001
 C144 C -0.07372 -0.00029 0.49987
 C145 C -0.35668 0.49991 1.00120
 C146 C -0.32086 0.49998 1.00095
 C147 C -0.27814 0.50002 1.00068
 C148 C -0.25752 0.53602 0.99969
 C149 C -0.21597 0.53605 0.99950
 C150 C -0.19487 0.50009 1.00030
 C151 C -0.21550 0.46409 1.00126
 C152 C -0.25705 0.46406 1.00146
 C153 C -0.15212 0.50012 1.00015
 C154 C -0.11631 0.50015 1.00005
 H155 H -0.27356 0.56399 0.99908
 H156 H -0.20032 0.56406 0.99876
 H157 H -0.19948 0.43611 1.00188
 H158 H -0.27272 0.43606 1.00222
 C159 C 0.35557 0.50096 1.00094
 C160 C 0.31976 0.50081 1.00068
 C161 C 0.27703 0.50065 1.00042
 C162 C 0.25650 0.52037 0.97041
 C163 C 0.21496 0.52029 0.97022
 C164 C 0.19378 0.50048 1.00005
 C165 C 0.21431 0.48075 1.03006
 C166 C 0.25586 0.48083 1.03024
 C167 C 0.15104 0.50045 0.99991
 C168 C 0.11523 0.50042 0.99984
 H169 H 0.27260 0.53579 0.94721
 H170 H 0.19937 0.53564 0.94688
 H171 H 0.19823 0.46535 1.05327
 H172 H 0.27144 0.46548 1.05359
 C173 C -0.00188 -0.35645 0.50046
 C174 C -0.00172 -0.32066 0.50037
 C175 C -0.00149 -0.27800 0.50029
 C176 C -0.00261 -0.25687 0.53622
 C177 C -0.00239 -0.21536 0.53615
 C178 C -0.00105 -0.19484 0.50016
 C179 C 0.00008 -0.21599 0.46423
 C180 C -0.00014 -0.25750 0.46430
 C181 C -0.00086 -0.15215 0.50010
 C182 C -0.00073 -0.11639 0.50005
 H183 H -0.00366 -0.27246 0.56421
 H184 H -0.00327 -0.19929 0.56409
 H185 H 0.00113 -0.20041 0.43624
 H186 H 0.00074 -0.27358 0.43636
 C187 C 0.00128 0.35491 0.49920
 C188 C 0.00096 0.31915 0.49929
 C189 C 0.00060 0.27648 0.49939
 C190 C 0.00046 0.25599 0.53540
 C191 C 0.00017 0.21448 0.53550
 C192 C 0.00001 0.19333 0.49958
 C193 C 0.00013 0.21383 0.46356
 C194 C 0.00042 0.25534 0.46347
 C195 C -0.00020 0.15064 0.49967
 C196 C -0.00034 0.11487 0.49973
 H197 H 0.00059 0.27208 0.56333
 H198 H 0.00007 0.19891 0.56350
 H199 H 0.00000 0.19775 0.43563
 H200 H 0.00052 0.27093 0.43546
 C201 C 0.49959 0.00052 -0.35695
 C202 C 0.49964 0.00025 -0.32115
 C203 C 0.49973 -0.00005 -0.27843
 C204 C 0.53579 0.00016 -0.25806
 C205 C 0.53589 -0.00007 -0.21656
 C206 C 0.49993 -0.00051 -0.19520
 C207 C 0.46386 -0.00074 -0.21558
 C208 C 0.46377 -0.00050 -0.25708
 C209 C 0.50004 -0.00066 -0.15246
 C210 C 0.50015 -0.00074 -0.11667
 H211 H 0.56378 0.00051 -0.27425
 H212 H 0.56395 0.00012 -0.20114
 H213 H 0.43588 -0.00108 -0.19940
 H214 H 0.43571 -0.00067 -0.27251
 C215 C 0.50144 0.00081 0.35516
 C216 C 0.50139 0.00060 0.31936
 C217 C 0.50133 0.00039 0.27663
 C218 C 0.51833 -0.03151 0.25547
 C219 C 0.51828 -0.03169 0.21396
 C220 C 0.50124 0.00004 0.19339
 C221 C 0.48426 0.03195 0.21455
 C222 C 0.48430 0.03212 0.25606
 C223 C 0.50115 -0.00014 0.15064
 C224 C 0.50104 -0.00027 0.11485
 H225 H 0.53159 -0.05621 0.27105
 H226 H 0.53151 -0.05652 0.19793
 H227 H 0.47100 0.05665 0.19899
 H228 H 0.47107 0.05695 0.27209
 C229 C 0.50023 -0.35670 0.00079
 C230 C 0.50035 -0.32089 0.00042
 C231 C 0.50044 -0.27817 0.00001
 C232 C 0.46621 -0.25689 0.01131
 C233 C 0.46628 -0.21536 0.01096
 C234 C 0.50059 -0.19494 -0.00069
 C235 C 0.53482 -0.21623 -0.01200
 C236 C 0.53474 -0.25776 -0.01165
 C237 C 0.50067 -0.15219 -0.00096
 C238 C 0.50069 -0.11639 -0.00110
 H239 H 0.43952 -0.27237 0.02039
 H240 H 0.43966 -0.19920 0.01978
 H241 H 0.56151 -0.20076 -0.02105
 H242 H 0.56137 -0.27394 -0.02043
 C243 C 0.50080 0.35548 0.00123
 C244 C 0.50070 0.31968 0.00094
 C245 C 0.50064 0.27695 0.00063
 C246 C 0.52969 0.25588 0.02136
 C247 C 0.52963 0.21434 0.02107
 C248 C 0.50054 0.19370 0.00003
 C249 C 0.47148 0.21478 -0.02071
 C250 C 0.47153 0.25632 -0.02041
 C251 C 0.50051 0.15095 -0.00025
 C252 C 0.50053 0.11515 -0.00044
 H253 H 0.55234 0.27153 0.03773
 H254 H 0.55223 0.19835 0.03722
 H255 H 0.44884 0.19913 -0.03708
 H256 H 0.44893 0.27232 -0.03654
 C257 C -0.35671 0.00107 0.49952
 C258 C -0.32089 0.00089 0.49958
 C259 C -0.27816 0.00068 0.49964
 C260 C -0.25687 0.00805 0.46454
 C261 C -0.21531 0.00787 0.46459
 C262 C -0.19489 0.00032 0.49975
 C263 C -0.21620 -0.00705 0.53486
 C264 C -0.25775 -0.00687 0.53480
 C265 C -0.15214 0.00012 0.49980
 C266 C -0.11633 -0.00006 0.49983
 H267 H -0.27237 0.01393 0.43719
 H268 H -0.19913 0.01361 0.43729
 H269 H -0.20071 -0.01292 0.56221
 H270 H -0.27394 -0.01260 0.56210
 C271 C 0.35562 -0.00010 0.50081
 C272 C 0.31981 -0.00048 0.50070
 C273 C 0.27708 -0.00086 0.50059
 C274 C 0.25686 -0.01164 0.46610
 C275 C 0.21531 -0.01185 0.46596
 C276 C 0.19382 -0.00129 0.50031
 C277 C 0.21405 0.00946 0.53481
 C278 C 0.25560 0.00967 0.53495
 C279 C 0.15107 -0.00137 0.50015
 C280 C 0.11525 -0.00134 0.50006
 H281 H 0.27319 -0.01982 0.43937
 H282 H 0.19996 -0.02020 0.43912
 H283 H 0.19773 0.01769 0.56153
 H284 H 0.27095 0.01806 0.56177
 C285 C -0.00303 0.49971 1.35490
 C286 C -0.00298 0.49979 1.31919
 C287 C -0.00284 0.49987 1.27660
 C288 C -0.00045 0.46395 1.25551
 C289 C -0.00020 0.46403 1.21405
 C290 C -0.00233 0.50001 1.19359
 C291 C -0.00475 0.53593 1.21469
 C292 C -0.00500 0.53585 1.25615
 C293 C -0.00199 0.50008 1.15098
 C294 C -0.00167 0.50013 1.11527
 H295 H 0.00124 0.43598 1.27109
 H296 H 0.00168 0.43610 1.19799
 H297 H -0.00641 0.56391 1.19912
 H298 H -0.00684 0.56378 1.27223
 C299 C 0.00254 0.50087 0.64481
 C300 C 0.00242 0.50078 0.68052
 C301 C 0.00220 0.50069 0.72311
 C302 C 0.00299 0.46465 0.74356
 C303 C 0.00265 0.46457 0.78502
 C304 C 0.00153 0.50053 0.80612
 C305 C 0.00076 0.53657 0.78566
 C306 C 0.00109 0.53665 0.74420
 C307 C 0.00110 0.50045 0.84873
 C308 C 0.00072 0.50040 0.88444
 H309 H 0.00383 0.43669 0.72748
 H310 H 0.00325 0.43654 0.80059
 H311 H -0.00013 0.56453 0.80172
 H312 H 0.00046 0.56467 0.72862
   
