data_POSCAR
  _audit_creation_date              2014-09-24
  _audit_creation_method            'ToBaCCo'
  _symmetry_space_group_name_H-M    'P1'
  _symmetry_Int_Tables_number       1
  _symmetry_cell_setting            triclinic
  loop_
  _symmetry_equiv_pos_as_xyz
 x,y,z
_cell_length_a 12.0405
_cell_length_b 11.6948
_cell_length_c 14.2297
_cell_angle_alpha 90.026700
_cell_angle_beta 89.760700
_cell_angle_gamma 90.926200
loop_
  _atom_site_label
  _atom_site_type_symbol
  _atom_site_fract_x
  _atom_site_fract_y
  _atom_site_fract_z
O1 O 0.18970 0.07772 0.11671
 O2 O -0.22592 -0.15090 0.01683
 O3 O -0.14975 0.17468 0.12434
 O4 O 0.11342 -0.23195 -0.01581
 O5 O -0.20909 0.00443 0.11868
 O6 O 0.16851 -0.11885 0.09027
 O7 O -0.07388 -0.23851 0.03805
 O8 O 0.03287 0.11881 0.17779
 C9 C 0.13122 0.09329 0.18819
 C10 C -0.17346 -0.22951 0.05559
 C11 C -0.20364 0.09522 0.16209
 C12 C 0.15314 -0.21769 0.06389
 O13 O 0.19834 -0.08317 -0.09946
 O14 O -0.21456 0.15442 -0.03234
 O15 O 0.12310 0.22847 0.02711
 O16 O -0.14332 -0.17319 -0.13214
 O17 O -0.19296 -0.00163 -0.13390
 O18 O 0.18421 0.11325 -0.07414
 O19 O 0.04659 -0.12058 -0.17143
 O20 O -0.05679 0.23917 -0.04022
 Co21 Co 0.16695 -0.00261 0.00771
 Co22 Co -0.19226 0.00142 -0.00702
 Co23 Co -0.01285 0.17103 0.06542
 Co24 Co -0.01415 -0.17172 -0.06347
 O25 O -0.01322 -0.00047 0.00079
 C26 C 0.14707 -0.09855 -0.17470
 C27 C -0.15321 0.23039 -0.06798
 C28 C 0.17167 0.21277 -0.04929
 C29 C -0.18629 -0.09326 -0.17555
 O30 O 0.34515 0.26274 0.52982
 O31 O 0.60596 0.66893 0.36808
 O32 O 0.26478 0.57084 0.40122
 O33 O 0.68142 0.34269 0.46384
 O34 O 0.41605 0.61393 0.32834
 O35 O 0.52482 0.25535 0.45726
 O36 O 0.65618 0.49804 0.36491
 O37 O 0.28103 0.37557 0.42895
 C38 C 0.29581 0.27686 0.45429
 C39 C 0.64811 0.58933 0.32355
 C40 C 0.31562 0.59017 0.32576
 C41 C 0.62116 0.26580 0.42839
 O42 O 0.61837 0.32043 0.62035
 O43 O 0.34698 0.72262 0.48326
 O44 O 0.27699 0.41366 0.62009
 O45 O 0.68763 0.64771 0.51679
 O46 O 0.53413 0.73284 0.53828
 O47 O 0.43557 0.37264 0.67786
 O48 O 0.67315 0.49186 0.61694
 O49 O 0.29400 0.61043 0.59087
 Co50 Co 0.48091 0.32201 0.56441
 Co51 Co 0.47618 0.66534 0.43639
 Co52 Co 0.29744 0.49280 0.50949
 Co53 Co 0.65641 0.49497 0.49144
 O54 O 0.47774 0.49376 0.50054
 C55 C 0.66860 0.40079 0.65947
 C56 C 0.30785 0.70903 0.56331
 C57 C 0.33663 0.39559 0.69023
 C58 C 0.63359 0.72498 0.55640
 C59 C 0.18315 0.10259 0.28014
 C60 C 0.25046 0.02138 0.31945
 C61 C 0.29597 0.07316 0.39666
 C62 C 0.25439 0.18228 0.39666
 O63 O 0.18608 0.20016 0.32620
 H64 H 0.26809 -0.06302 0.29255
 H65 H 0.35837 0.03895 0.44262
 C66 C 0.77188 0.68266 0.11331
 C67 C 0.79549 0.56817 0.10512
 C68 C 0.74653 0.51723 0.18071
 C69 C 0.69797 0.60481 0.23019
 O70 O 0.71283 0.70567 0.18941
 H71 H 0.84682 0.52775 0.05262
 H72 H 0.75050 0.42790 0.20009
 C73 C 0.80603 0.31480 0.86470
 C74 C 0.85202 0.42305 0.85695
 C75 C 0.80240 0.47067 0.78135
 C76 C 0.73121 0.38713 0.74712
 O77 O 0.73269 0.29197 0.79775
 H78 H 0.91689 0.46102 0.89974
 H79 H 0.81942 0.55464 0.75215
 C80 C 0.20742 0.88762 0.73762
 C81 C 0.28647 0.96294 0.70266
 C82 C 0.33031 0.90885 0.62627
 C83 C 0.27561 0.80446 0.62253
 O84 O 0.20135 0.79141 0.68993
 H85 H 0.31156 1.04503 0.73139
 H86 H 0.39922 0.93799 0.58315
 C87 C 0.21156 0.29818 0.89755
 C88 C 0.19515 0.41339 0.91273
 C89 C 0.24238 0.46732 0.83679
 C90 C 0.28583 0.38088 0.78278
 O91 O 0.26676 0.27867 0.81886
 H92 H 0.14982 0.45261 0.96951
 H93 H 0.24309 0.55802 0.82160
 C94 C 0.76110 0.89094 0.73215
 C95 C 0.70913 0.97787 0.68492
 C96 C 0.65967 0.92694 0.60979
 C97 C 0.68627 0.81300 0.61567
 O98 O 0.74774 0.79034 0.69021
 H99 H 0.70362 1.06677 0.70539
 H100 H 0.60656 0.96705 0.55885
 C101 C 0.18461 0.68726 0.12407
 C102 C 0.12610 0.58541 0.13178
 C103 C 0.17076 0.53154 0.20758
 C104 C 0.25396 0.60430 0.23873
 O105 O 0.26177 0.69910 0.18899
 H106 H 0.05456 0.55789 0.09146
 H107 H 0.14341 0.45142 0.23869
 C108 C 0.73904 0.10820 0.24256
 C109 C 0.67203 0.02291 0.28090
 C110 C 0.62231 0.07106 0.35660
 C111 C 0.66369 0.18142 0.36086
 O112 O 0.73491 0.20490 0.29162
 H113 H 0.65786 -0.06306 0.25476
 H114 H 0.56081 0.03145 0.40214
   
