data_POSCAR
  _audit_creation_date              2014-09-24
  _audit_creation_method            'ToBaCCo'
  _symmetry_space_group_name_H-M    'P1'
  _symmetry_Int_Tables_number       1
  _symmetry_cell_setting            triclinic
  loop_
  _symmetry_equiv_pos_as_xyz
 x,y,z
_cell_length_a 35.3621
_cell_length_b 40.8384
_cell_length_c 22.6512
_cell_angle_alpha 90.056300
_cell_angle_beta 90.043300
_cell_angle_gamma 89.743600
loop_
  _atom_site_label
  _atom_site_type_symbol
  _atom_site_fract_x
  _atom_site_fract_y
  _atom_site_fract_z
C1 C 0.71532 0.33495 0.50348
 C2 C 0.72587 0.32172 0.55838
 C3 C 0.74324 0.29062 0.55903
 C4 C 0.74755 0.27176 0.50697
 C5 C 0.73515 0.28559 0.45308
 C6 C 0.72016 0.31743 0.45085
 C7 C 0.76452 0.23782 0.50936
 C8 C 0.78009 0.22273 0.45843
 C9 C 0.79477 0.19049 0.46001
 C10 C 0.79646 0.17462 0.51510
 C11 C 0.78248 0.18927 0.56645
 C12 C 0.76536 0.22013 0.56296
 H13 H 0.70032 0.35808 0.50148
 H14 H 0.75452 0.28184 0.60038
 H15 H 0.73674 0.27191 0.41238
 H16 H 0.77992 0.23567 0.41707
 H17 H 0.81127 0.15149 0.51936
 H18 H 0.75281 0.22986 0.60274
 C19 C 0.20436 0.82557 0.48792
 C20 C 0.20649 0.80957 0.54289
 C21 C 0.22090 0.77722 0.54399
 C22 C 0.23570 0.76216 0.49253
 C23 C 0.23459 0.77998 0.43911
 C24 C 0.21769 0.81092 0.43614
 C25 C 0.25206 0.72803 0.49386
 C26 C 0.25403 0.70922 0.44157
 C27 C 0.27178 0.67856 0.44066
 C28 C 0.28448 0.66497 0.49377
 C29 C 0.28116 0.68186 0.54776
 C30 C 0.26638 0.71407 0.54662
 H31 H 0.18965 0.84877 0.48413
 H32 H 0.22143 0.76413 0.58522
 H33 H 0.24674 0.77021 0.39903
 H34 H 0.24214 0.71814 0.40068
 H35 H 0.29979 0.64199 0.49203
 H36 H 0.26526 0.72787 0.58714
 C37 C 0.29715 0.32463 -0.50396
 C38 C 0.28506 0.31145 -0.55769
 C39 C 0.26647 0.28122 -0.55788
 C40 C 0.26222 0.26271 -0.50549
 C41 C 0.27553 0.27650 -0.45200
 C42 C 0.29172 0.30785 -0.45079
 C43 C 0.24441 0.22923 -0.50722
 C44 C 0.22880 0.21473 -0.45594
 C45 C 0.21310 0.18295 -0.45721
 C46 C 0.21055 0.16702 -0.51223
 C47 C 0.22466 0.18113 -0.56384
 C48 C 0.24275 0.21144 -0.56068
 H49 H 0.31220 0.34768 -0.50363
 H50 H 0.25535 0.27266 -0.59949
 H51 H 0.27361 0.26327 -0.41091
 H52 H 0.22969 0.22774 -0.41462
 H53 H 0.19497 0.14438 -0.51621
 H54 H 0.25538 0.22067 -0.60068
 C55 C -0.21041 0.83289 -0.48728
 C56 C -0.21316 0.81709 -0.54239
 C57 C -0.22897 0.78536 -0.54381
 C58 C -0.24446 0.77077 -0.49255
 C59 C -0.24254 0.78841 -0.43892
 C60 C -0.22437 0.81869 -0.43566
 C61 C -0.26237 0.73733 -0.49451
 C62 C -0.26653 0.71870 -0.44225
 C63 C -0.28518 0.68850 -0.44257
 C64 C -0.29741 0.67545 -0.49633
 C65 C -0.29206 0.69233 -0.54941
 C66 C -0.27584 0.72368 -0.54805
 H67 H -0.19476 0.85551 -0.48327
 H68 H -0.23006 0.77247 -0.58523
 H69 H -0.25504 0.77910 -0.39888
 H70 H -0.25529 0.72713 -0.40064
 H71 H -0.31249 0.65241 -0.49675
 H72 H -0.27399 0.73699 -0.58905
 N73 N 0.04547 1.03416 0.09912
 N74 N 0.07350 1.03894 0.13637
 N75 N -0.03517 1.05928 0.06924
 N76 N -0.05919 1.08243 0.08592
 N77 N -0.03391 1.03569 0.10854
 N78 N -0.05731 1.04186 0.15240
 N79 N 0.04393 1.05777 0.05989
 N80 N 0.07068 1.07960 0.07015
 C81 C 0.08929 1.06713 0.11756
 C82 C -0.07321 1.07088 0.13756
 N83 N -0.04388 1.03585 -0.09777
 N84 N -0.07174 1.04167 -0.13495
 N85 N 0.03765 1.05804 -0.06769
 N86 N 0.06259 1.08028 -0.08411
 N87 N 0.03551 1.03455 -0.10716
 N88 N 0.05922 1.03989 -0.15089
 N89 N -0.04146 1.05935 -0.05836
 N90 N -0.06739 1.08213 -0.06843
 Mn91 Mn 0.00124 1.05903 0.00077
 C92 C -0.08646 1.07039 -0.11591
 C93 C 0.07622 1.06828 -0.13578
 N94 N -0.03524 0.96542 0.10828
 N95 N -0.05905 0.96015 0.15188
 N96 N 0.04172 0.94060 0.05960
 N97 N 0.06756 0.91776 0.06991
 N98 N 0.04415 0.96413 0.09893
 N99 N 0.07190 0.95829 0.13627
 N100 N -0.03739 0.94195 0.06878
 N101 N -0.06247 0.91978 0.08504
 Mn102 Mn 0.00511 0.99985 0.10413
 C103 C -0.07614 0.93182 0.13665
 C104 C 0.08658 0.92951 0.11744
 N105 N 0.03421 0.96425 -0.10735
 N106 N 0.05781 0.95813 -0.15099
 N107 N -0.04363 0.94217 -0.05881
 N108 N -0.07025 0.92023 -0.06930
 N109 N -0.04519 0.96579 -0.09802
 N110 N -0.07309 0.96092 -0.13546
 N111 N 0.03547 0.94070 -0.06798
 N112 N 0.05969 0.91764 -0.08434
 Mn113 Mn -0.00483 1.00011 -0.10300
 Mn114 Mn -0.00097 0.94094 0.00040
 Cl115 Cl 0.00014 0.99998 0.00057
 C116 C 0.07381 0.92919 -0.13589
 C117 C -0.08879 0.93265 -0.11681
 N118 N 0.53886 0.53648 0.10258
 N119 N 0.56397 0.54334 0.14370
 N120 N 0.45801 0.55757 0.06373
 N121 N 0.43053 0.57859 0.07585
 N122 N 0.45922 0.53422 0.10350
 N123 N 0.43238 0.53840 0.14312
 N124 N 0.53725 0.56000 0.06315
 N125 N 0.56087 0.58381 0.07714
 C126 C 0.57783 0.57271 0.12700
 C127 C 0.41449 0.56599 0.12519
 N128 N 0.45791 0.53395 -0.10340
 N129 N 0.43247 0.53931 -0.14477
 N130 N 0.53678 0.55957 -0.06482
 N131 N 0.56240 0.58203 -0.07734
 N132 N 0.53748 0.53604 -0.10433
 N133 N 0.56378 0.54152 -0.14416
 N134 N 0.45747 0.55764 -0.06418
 N135 N 0.43196 0.58007 -0.07855
 Mn136 Mn 0.49736 0.55911 -0.00052
 C137 C 0.41612 0.56790 -0.12848
 C138 C 0.57936 0.57010 -0.12667
 N139 N 0.46219 0.46413 0.10371
 N140 N 0.43597 0.45856 0.14365
 N141 N 0.54214 0.44258 0.06331
 N142 N 0.56750 0.42002 0.07737
 N143 N 0.54183 0.46617 0.10276
 N144 N 0.56736 0.46059 0.14402
 N145 N 0.46290 0.44061 0.06416
 N146 N 0.43738 0.41808 0.07679
 Mn147 Mn 0.50056 0.50025 0.10360
 C148 C 0.42046 0.42995 0.12620
 C149 C 0.58349 0.43197 0.12728
 N150 N 0.54035 0.46604 -0.10417
 N151 N 0.56699 0.46198 -0.14405
 N152 N 0.46240 0.44022 -0.06378
 N153 N 0.43868 0.41646 -0.07765
 N154 N 0.46078 0.46375 -0.10318
 N155 N 0.43557 0.45694 -0.14419
 N156 N 0.54171 0.44262 -0.06458
 N157 N 0.56923 0.42166 -0.07709
 Mn158 Mn 0.49909 0.49994 -0.10418
 Mn159 Mn 0.50230 0.44110 -0.00022
 Cl160 Cl 0.49983 0.50010 -0.00031
 C161 C 0.58505 0.43442 -0.12656
 C162 C 0.42167 0.42761 -0.12742
 C163 C 0.32644 0.36168 0.29034
 C164 C 0.32706 0.32730 0.29116
 C165 C 0.31087 0.31076 0.33916
 C166 C 0.29473 0.32845 0.38640
 C167 C 0.29247 0.36285 0.38304
 C168 C 0.30871 0.37961 0.33555
 C169 C 0.34689 0.37927 0.24341
 C170 C 0.34844 0.41361 0.24510
 C171 C 0.37095 0.43008 0.20402
 C172 C 0.39199 0.41251 0.16172
 C173 C 0.38860 0.37823 0.15846
 C174 C 0.36643 0.36140 0.19991
 C175 C 0.30935 0.41398 0.33401
 C176 C 0.32896 0.43071 0.28958
 C177 C 0.34564 0.31026 0.24562
 C178 C 0.36493 0.32701 0.20070
 H179 H 0.29560 0.42806 0.36849
 H180 H 0.32977 0.45722 0.29102
 H181 H 0.34617 0.28373 0.24557
 H182 H 0.37973 0.31291 0.16733
 H183 H 0.31307 0.28431 0.34161
 H184 H 0.27966 0.37660 0.41884
 H185 H 0.37329 0.45652 0.20646
 H186 H 0.40491 0.36459 0.12616
 C187 C -0.16571 0.86541 0.30971
 C188 C -0.18174 0.88375 0.35566
 C189 C -0.19875 0.86751 0.40289
 C190 C -0.19919 0.83285 0.40605
 C191 C -0.18427 0.81490 0.35768
 C192 C -0.16724 0.83108 0.30982
 C193 C -0.14569 0.88249 0.26171
 C194 C -0.12843 0.86419 0.21654
 C195 C -0.10734 0.88055 0.17307
 C196 C -0.10288 0.91478 0.17587
 C197 C -0.12144 0.93275 0.22031
 C198 C -0.14285 0.91677 0.26333
 C199 C -0.15047 0.81362 0.26303
 C200 C -0.13145 0.82988 0.21718
 C201 C -0.17960 0.91809 0.35446
 C202 C -0.16035 0.93433 0.30916
 H203 H -0.15147 0.78711 0.26236
 H204 H -0.11835 0.81543 0.18260
 H205 H -0.19211 0.93251 0.38963
 H206 H -0.15852 0.96080 0.31063
 H207 H -0.21194 0.88221 0.43703
 H208 H -0.18337 0.78842 0.35850
 H209 H -0.09291 0.86660 0.13908
 H210 H -0.11828 0.95913 0.22242
 C211 C 0.66455 0.64412 0.29701
 C212 C 0.68661 0.62656 0.33775
 C213 C 0.70249 0.64308 0.38578
 C214 C 0.69561 0.67676 0.39450
 C215 C 0.67461 0.69434 0.35203
 C216 C 0.65886 0.67803 0.30316
 C217 C 0.64547 0.62633 0.24882
 C218 C 0.62223 0.64360 0.20915
 C219 C 0.60198 0.62615 0.16601
 C220 C 0.60406 0.59172 0.16408
 C221 C 0.62840 0.57497 0.20290
 C222 C 0.64925 0.59213 0.24528
 C223 C 0.63629 0.69462 0.26160
 C224 C 0.61840 0.67772 0.21530
 C225 C 0.69107 0.59257 0.33112
 C226 C 0.67255 0.57561 0.28578
 H227 H 0.63179 0.72079 0.26559
 H228 H 0.60063 0.69136 0.18499
 H229 H 0.70815 0.57882 0.36224
 H230 H 0.67585 0.54925 0.28321
 H231 H 0.71919 0.62949 0.41767
 H232 H 0.66898 0.72020 0.35850
 H233 H 0.58294 0.63908 0.13652
 H234 H 0.63013 0.54846 0.20136
 C235 C 0.18609 1.13335 0.28010
 C236 C 0.20418 1.11487 0.32422
 C237 C 0.21995 1.13098 0.37290
 C238 C 0.21681 1.16523 0.37851
 C239 C 0.20065 1.18358 0.33215
 C240 C 0.18487 1.16769 0.28302
 C241 C 0.16551 1.11633 0.23253
 C242 C 0.14522 1.13471 0.19059
 C243 C 0.12242 1.11837 0.14923
 C244 C 0.11914 1.08405 0.15118
 C245 C 0.14117 1.06598 0.19149
 C246 C 0.16426 1.08197 0.23249
 C247 C 0.16579 1.18529 0.23869
 C248 C 0.14635 1.16908 0.19320
 C249 C 0.20404 1.08053 0.32070
 C250 C 0.18434 1.06434 0.27562
 H251 H 0.16483 1.21180 0.24025
 H252 H 0.13100 1.18357 0.16101
 H253 H 0.21808 1.06603 0.35429
 H254 H 0.18378 1.03781 0.27570
 H255 H 0.23267 1.11678 0.40820
 H256 H 0.19780 1.20991 0.33640
 H257 H 0.10532 1.13238 0.11849
 H258 H 0.13888 1.03952 0.19289
 C259 C 0.68383 0.37123 -0.29163
 C260 C 0.68874 0.33715 -0.28934
 C261 C 0.70575 0.32094 -0.33729
 C262 C 0.71640 0.33847 -0.38861
 C263 C 0.71346 0.37303 -0.38771
 C264 C 0.69690 0.38940 -0.33992
 C265 C 0.66248 0.38799 -0.24441
 C266 C 0.65589 0.42182 -0.24867
 C267 C 0.63245 0.43710 -0.20719
 C268 C 0.61506 0.41878 -0.16222
 C269 C 0.62352 0.38521 -0.15644
 C270 C 0.64703 0.36957 -0.19799
 C271 C 0.69143 0.42348 -0.34098
 C272 C 0.67124 0.43944 -0.29608
 C273 C 0.67442 0.31975 -0.24074
 C274 C 0.65388 0.33566 -0.19591
 H275 H 0.70172 0.43780 -0.37783
 H276 H 0.66657 0.46561 -0.29951
 H277 H 0.67809 0.29343 -0.23825
 H278 H 0.64235 0.32116 -0.16023
 H279 H 0.70717 0.29444 -0.33647
 H280 H 0.72339 0.38739 -0.42474
 H281 H 0.62633 0.46303 -0.21158
 H282 H 0.61017 0.37098 -0.12194
 C283 C 0.16097 0.85954 -0.30895
 C284 C 0.16113 0.82519 -0.30925
 C285 C 0.17756 0.80839 -0.35715
 C286 C 0.19321 0.82580 -0.40539
 C287 C 0.19420 0.86044 -0.40200
 C288 C 0.17780 0.87729 -0.35474
 C289 C 0.14156 0.87735 -0.26096
 C290 C 0.14007 0.91171 -0.26243
 C291 C 0.11921 0.92847 -0.21944
 C292 C 0.09990 0.91119 -0.17514
 C293 C 0.10300 0.87682 -0.17249
 C294 C 0.12350 0.85970 -0.21595
 C295 C 0.17702 0.91169 -0.35338
 C296 C 0.15834 0.92862 -0.30808
 C297 C 0.14360 0.80835 -0.26261
 C298 C 0.12517 0.82530 -0.21674
 H299 H 0.19016 0.92564 -0.38841
 H300 H 0.15756 0.95514 -0.30944
 H301 H 0.14355 0.78182 -0.26207
 H302 H 0.11145 0.81133 -0.18228
 H303 H 0.17559 0.78197 -0.35813
 H304 H 0.20803 0.87466 -0.43601
 H305 H 0.11709 0.95494 -0.22143
 H306 H 0.08799 0.86340 -0.13862
 C307 C 0.32591 0.63466 -0.30089
 C308 C 0.30886 0.61613 -0.34557
 C309 C 0.29264 0.63214 -0.39389
 C310 C 0.29389 0.66667 -0.39929
 C311 C 0.30949 0.68495 -0.35199
 C312 C 0.32596 0.66900 -0.30318
 C313 C 0.34558 0.61767 -0.25220
 C314 C 0.36427 0.63606 -0.20870
 C315 C 0.38547 0.61966 -0.16514
 C316 C 0.38858 0.58526 -0.16623
 C317 C 0.36835 0.56727 -0.20866
 C318 C 0.34693 0.58330 -0.25183
 C319 C 0.34389 0.68661 -0.25776
 C320 C 0.36270 0.67044 -0.21137
 C321 C 0.30939 0.58178 -0.34221
 C322 C 0.32821 0.56563 -0.29617
 H323 H 0.34411 0.71314 -0.25876
 H324 H 0.37688 0.68498 -0.17807
 H325 H 0.29603 0.56725 -0.37634
 H326 H 0.32887 0.53910 -0.29607
 H327 H 0.27889 0.61739 -0.42733
 H328 H 0.31154 0.71134 -0.35459
 H329 H 0.40120 0.63363 -0.13273
 H330 H 0.37049 0.54077 -0.20947
 C331 C -0.18105 1.14018 -0.27758
 C332 C -0.19990 1.12239 -0.32171
 C333 C -0.21507 1.13908 -0.37030
 C334 C -0.21055 1.17318 -0.37581
 C335 C -0.19370 1.19092 -0.32940
 C336 C -0.17851 1.17446 -0.28037
 C337 C -0.16103 1.12239 -0.23020
 C338 C -0.13995 1.14000 -0.18829
 C339 C -0.11770 1.12281 -0.14715
 C340 C -0.11571 1.08840 -0.14931
 C341 C -0.13850 1.07117 -0.18960
 C342 C -0.16107 1.08801 -0.23037
 C343 C -0.15868 1.19132 -0.23603
 C344 C -0.13979 1.17439 -0.19071
 C345 C -0.20107 1.08807 -0.31836
 C346 C -0.18191 1.07115 -0.27347
 H347 H -0.15669 1.21778 -0.23747
 H348 H -0.12382 1.18829 -0.15853
 H349 H -0.21572 1.07411 -0.35197
 H350 H -0.18235 1.04462 -0.27370
 H351 H -0.22832 1.12536 -0.40566
 H352 H -0.18981 1.21713 -0.33361
 H353 H -0.10001 1.13617 -0.11643
 H354 H -0.13721 1.04464 -0.19117
 C355 C 0.67356 0.63820 -0.29065
 C356 C 0.67310 0.67258 -0.29131
 C357 C 0.68925 0.68913 -0.33931
 C358 C 0.70520 0.67145 -0.38672
 C359 C 0.70732 0.63704 -0.38354
 C360 C 0.69111 0.62027 -0.33603
 C361 C 0.65311 0.62062 -0.24372
 C362 C 0.65137 0.58630 -0.24557
 C363 C 0.62884 0.56985 -0.20451
 C364 C 0.60793 0.58745 -0.16209
 C365 C 0.61152 0.62171 -0.15864
 C366 C 0.63373 0.63851 -0.20007
 C367 C 0.69030 0.58590 -0.33465
 C368 C 0.67069 0.56918 -0.29022
 C369 C 0.65469 0.68963 -0.24560
 C370 C 0.63541 0.67289 -0.20069
 H371 H 0.70391 0.57182 -0.36927
 H372 H 0.66974 0.54267 -0.29179
 H373 H 0.65429 0.71616 -0.24544
 H374 H 0.62073 0.68699 -0.16720
 H375 H 0.68716 0.71559 -0.34163
 H376 H 0.71998 0.62330 -0.41947
 H377 H 0.62634 0.54343 -0.20709
 H378 H 0.59531 0.63536 -0.12625
 C379 C 0.16552 1.13474 -0.30922
 C380 C 0.18168 1.11637 -0.35503
 C381 C 0.19871 1.13259 -0.40228
 C382 C 0.19906 1.16724 -0.40562
 C383 C 0.18400 1.18523 -0.35738
 C384 C 0.16695 1.16907 -0.30950
 C385 C 0.14553 1.11767 -0.26117
 C386 C 0.12817 1.13598 -0.21610
 C387 C 0.10714 1.11962 -0.17255
 C388 C 0.10284 1.08537 -0.17514
 C389 C 0.12147 1.06740 -0.21952
 C390 C 0.14283 1.08338 -0.26262
 C391 C 0.15006 1.18656 -0.26283
 C392 C 0.13106 1.17031 -0.21693
 C393 C 0.17965 1.08203 -0.35367
 C394 C 0.16042 1.06580 -0.30833
 H395 H 0.15097 1.21307 -0.26228
 H396 H 0.11789 1.18478 -0.18244
 H397 H 0.19226 1.06759 -0.38873
 H398 H 0.15871 1.03932 -0.30967
 H399 H 0.21201 1.11785 -0.43628
 H400 H 0.18303 1.21171 -0.35833
 H401 H 0.09266 1.13358 -0.13863
 H402 H 0.11844 1.04101 -0.22149
 C403 C 0.33491 0.35620 -0.29727
 C404 C 0.34052 0.32227 -0.30323
 C405 C 0.32484 0.30594 -0.35210
 C406 C 0.30398 0.32350 -0.39476
 C407 C 0.29717 0.35720 -0.38623
 C408 C 0.31299 0.37375 -0.33819
 C409 C 0.35395 0.37401 -0.24908
 C410 C 0.35028 0.40822 -0.24573
 C411 C 0.37113 0.42539 -0.20338
 C412 C 0.39537 0.40864 -0.16441
 C413 C 0.39732 0.37420 -0.16613
 C414 C 0.37707 0.35674 -0.20924
 C415 C 0.30863 0.40776 -0.33175
 C416 C 0.32711 0.42475 -0.28641
 C417 C 0.36295 0.30568 -0.26149
 C418 C 0.38080 0.32261 -0.21519
 H419 H 0.29165 0.42151 -0.36302
 H420 H 0.32391 0.45112 -0.28398
 H421 H 0.36738 0.27950 -0.26534
 H422 H 0.39848 0.30897 -0.18474
 H423 H 0.33042 0.28006 -0.35843
 H424 H 0.28057 0.37078 -0.41827
 H425 H 0.36951 0.45191 -0.20199
 H426 H 0.41627 0.36126 -0.13652
 C427 C -0.18542 0.86634 -0.27966
 C428 C -0.18410 0.83200 -0.28275
 C429 C -0.19999 0.81614 -0.33183
 C430 C -0.21636 0.83451 -0.37798
 C431 C -0.21957 0.86875 -0.37221
 C432 C -0.20369 0.88484 -0.32357
 C433 C -0.16480 0.88335 -0.23210
 C434 C -0.16369 0.91771 -0.23188
 C435 C -0.14064 0.93372 -0.19084
 C436 C -0.11851 0.91566 -0.15063
 C437 C -0.12162 0.88132 -0.14891
 C438 C -0.14437 0.86496 -0.19033
 C439 C -0.20365 0.91917 -0.31989
 C440 C -0.18392 0.93535 -0.27484
 C441 C -0.16485 0.81440 -0.23860
 C442 C -0.14538 0.83060 -0.19312
 H443 H -0.21784 0.93368 -0.35333
 H444 H -0.18346 0.96188 -0.27478
 H445 H -0.16380 0.78789 -0.24028
 H446 H -0.12991 0.81610 -0.16107
 H447 H -0.19709 0.78982 -0.33622
 H448 H -0.23244 0.88297 -0.40734
 H449 H -0.13847 0.96019 -0.19208
 H450 H -0.10444 0.86732 -0.11826
 C451 C 0.31474 0.63011 0.28753
 C452 C 0.29780 0.61150 0.33233
 C453 C 0.28049 0.62761 0.37988
 C454 C 0.28125 0.66205 0.38396
 C455 C 0.29646 0.68034 0.33691
 C456 C 0.31347 0.66447 0.28873
 C457 C 0.33655 0.61335 0.24085
 C458 C 0.35528 0.63201 0.19783
 C459 C 0.37883 0.61611 0.15680
 C460 C 0.38452 0.58204 0.16016
 C461 C 0.36432 0.56360 0.20196
 C462 C 0.34032 0.57913 0.24250
 C463 C 0.33125 0.68225 0.24356
 C464 C 0.35170 0.66629 0.19876
 C465 C 0.30050 0.57719 0.33057
 C466 C 0.32152 0.56126 0.28649
 H467 H 0.33030 0.70877 0.24380
 H468 H 0.36586 0.68096 0.16573
 H469 H 0.28739 0.56257 0.36474
 H470 H 0.32400 0.53481 0.28788
 H471 H 0.26835 0.61334 0.41541
 H472 H 0.29757 0.70682 0.33979
 H473 H 0.39450 0.63041 0.12490
 H474 H 0.36846 0.53731 0.20444
 C475 C -0.15926 1.14052 0.31206
 C476 C -0.17593 1.12275 0.35797
 C477 C -0.19229 1.13958 0.40531
 C478 C -0.19151 1.17423 0.40859
 C479 C -0.17583 1.19164 0.36035
 C480 C -0.15944 1.17487 0.31239
 C481 C -0.14008 1.12273 0.26380
 C482 C -0.12224 1.14041 0.21860
 C483 C -0.10202 1.12331 0.17479
 C484 C -0.09901 1.08892 0.17723
 C485 C -0.11811 1.07164 0.22176
 C486 C -0.13865 1.08838 0.26513
 C487 C -0.14208 1.19173 0.26562
 C488 C -0.12385 1.17481 0.21953
 C489 C -0.17515 1.08835 0.35653
 C490 C -0.15670 1.07145 0.31098
 H491 H -0.14203 1.21826 0.26512
 H492 H -0.11028 1.18880 0.18495
 H493 H -0.18817 1.07438 0.39166
 H494 H -0.15596 1.04492 0.31224
 H495 H -0.20606 1.12533 0.43932
 H496 H -0.17392 1.21807 0.36127
 H497 H -0.08717 1.13673 0.14076
 H498 H -0.11606 1.04515 0.22362
 C499 C 0.67446 0.36384 0.29684
 C500 C 0.69624 0.38208 0.33678
 C501 C 0.71319 0.36616 0.38471
 C502 C 0.70737 0.33245 0.39438
 C503 C 0.68658 0.31425 0.35264
 C504 C 0.67003 0.32989 0.30371
 C505 C 0.65426 0.38093 0.24883
 C506 C 0.63146 0.36290 0.20986
 C507 C 0.61023 0.37960 0.16685
 C508 C 0.61075 0.41404 0.16448
 C509 C 0.63454 0.43163 0.20272
 C510 C 0.65653 0.41519 0.24482
 C511 C 0.64781 0.31256 0.26287
 C512 C 0.62901 0.32876 0.21657
 C513 C 0.69926 0.41613 0.32958
 C514 C 0.67954 0.43244 0.28456
 H515 H 0.64430 0.28634 0.26742
 H516 H 0.61157 0.31456 0.18680
 H517 H 0.71609 0.43041 0.36010
 H518 H 0.68170 0.45885 0.28161
 H519 H 0.72974 0.38027 0.41590
 H520 H 0.68162 0.28839 0.35977
 H521 H 0.59160 0.36603 0.13783
 H522 H 0.63501 0.45816 0.20082
 C523 C 0.18061 0.85993 0.28023
 C524 C 0.19945 0.87779 0.32427
 C525 C 0.21466 0.86117 0.37293
 C526 C 0.21023 0.82706 0.37856
 C527 C 0.19328 0.80927 0.33228
 C528 C 0.17805 0.82566 0.28320
 C529 C 0.16070 0.87763 0.23264
 C530 C 0.13967 0.85996 0.19074
 C531 C 0.11756 0.87709 0.14932
 C532 C 0.11568 0.91151 0.15115
 C533 C 0.13843 0.92879 0.19145
 C534 C 0.16083 0.91201 0.23251
 C535 C 0.15824 0.80872 0.23893
 C536 C 0.13943 0.82558 0.19343
 C537 C 0.20067 0.91210 0.32069
 C538 C 0.18162 0.92894 0.27560
 H539 H 0.15623 0.78227 0.24053
 H540 H 0.12350 0.81162 0.16128
 H541 H 0.21531 0.92611 0.35423
 H542 H 0.18212 0.95547 0.27561
 H543 H 0.22799 0.87494 0.40815
 H544 H 0.18944 0.78306 0.33655
 H545 H 0.09991 0.86368 0.11860
 H546 H 0.13722 0.95532 0.19277
   
