data_POSCAR
  _audit_creation_date              2014-09-24
  _audit_creation_method            'ToBaCCo'
  _symmetry_space_group_name_H-M    'P1'
  _symmetry_Int_Tables_number       1
  _symmetry_cell_setting            triclinic
  loop_
  _symmetry_equiv_pos_as_xyz
 x,y,z
_cell_length_a 21.0577
_cell_length_b 22.4587
_cell_length_c 24.8466
_cell_angle_alpha 85.212500
_cell_angle_beta 89.934300
_cell_angle_gamma 88.403500
loop_
  _atom_site_label
  _atom_site_type_symbol
  _atom_site_fract_x
  _atom_site_fract_y
  _atom_site_fract_z
N1 N 0.64143 0.62433 0.63918
 N2 N 0.86071 0.37702 0.15112
 N3 N 0.36949 0.12253 -0.15604
 N4 N 0.13489 0.88493 0.36139
 N5 N 0.04724 0.21090 0.06681
 N6 N 0.04755 0.19917 0.11963
 C7 C 0.00649 0.23711 0.14193
 C8 C -0.02139 0.27334 0.10036
 C9 C 0.00489 0.25563 0.05329
 H10 H -0.00475 0.23599 0.18450
 H11 H -0.00663 0.27308 0.01248
 Cu12 Cu 0.09588 0.13063 0.15380
 Cu13 Cu 0.10169 0.16577 0.02091
 Cu14 Cu 0.13182 0.02321 0.06500
 N15 N 0.11548 0.04613 0.17745
 N16 N 0.12295 0.00427 0.14338
 C17 C 0.12760 -0.04967 0.17146
 C18 C 0.12419 -0.04053 0.22551
 C19 C 0.11648 0.02032 0.22831
 H20 H 0.13393 -0.09192 0.15392
 H21 H 0.10914 0.04367 0.26426
 N22 N 0.17028 0.05917 -0.00127
 N23 N 0.16147 0.11639 -0.01647
 C24 C 0.20063 0.13187 -0.05781
 C25 C 0.23461 0.08109 -0.06949
 C26 C 0.21427 0.03563 -0.03342
 H27 H 0.20543 0.17673 -0.07657
 H28 H 0.23335 -0.00971 -0.02819
 H29 H 0.06743 0.08920 0.08941
 H30 H 0.15442 0.10188 0.09263
 N31 N 0.49216 0.84056 0.57715
 N32 N 0.49311 0.83542 0.63032
 C33 C 0.53386 0.79073 0.64779
 C34 C 0.56043 0.76783 0.60279
 C35 C 0.53368 0.80036 0.55868
 H36 H 0.54160 0.77482 0.68963
 H37 H 0.53992 0.79228 0.51666
 Cu38 Cu 0.43837 0.88576 0.67124
 Cu39 Cu 0.42874 0.89177 0.53709
 Cu40 Cu 0.29744 0.92394 0.61497
 N41 N 0.38120 0.94243 0.70265
 N42 N 0.32408 0.95499 0.68255
 C43 C 0.29465 0.99548 0.71186
 C44 C 0.33654 1.00942 0.75123
 C45 C 0.39103 0.97536 0.74448
 H46 H 0.24829 1.01587 0.70298
 H47 H 0.43478 0.97547 0.76724
 N48 N 0.29310 0.92012 0.53617
 N49 N 0.34449 0.91450 0.50614
 C50 C 0.32723 0.91599 0.45389
 C51 C 0.26205 0.92150 0.45150
 C52 C 0.24137 0.92368 0.50408
 H53 H 0.35911 0.90837 0.42084
 H54 H 0.19278 0.92664 0.51800
 H55 H 0.38739 0.94335 0.59451
 H56 H 0.36999 0.86223 0.59731
 N57 N 0.97430 0.68452 0.42959
 N58 N 0.99035 0.67707 0.37933
 C59 C 1.02879 0.72133 0.36105
 C60 C 1.03737 0.75730 0.40279
 C61 C 1.00304 0.73273 0.44577
 H62 H 1.05023 0.72588 0.32140
 H63 H 0.99872 0.74880 0.48550
 Cu64 Cu 0.96353 0.60694 0.34524
 Cu65 Cu 0.91671 0.63135 0.46979
 Cu66 Cu 0.82734 0.54588 0.38923
 N67 N 0.92744 0.54109 0.31077
 N68 N 0.87245 0.51914 0.32652
 C69 C 0.85572 0.47769 0.29338
 C70 C 0.90377 0.47305 0.25600
 C71 C 0.94870 0.51326 0.26801
 H72 H 0.81268 0.45246 0.29680
 H73 H 0.99245 0.52257 0.24651
 N74 N 0.80284 0.56135 0.46370
 N75 N 0.83706 0.59431 0.49376
 C76 C 0.80634 0.60131 0.54035
 C77 C 0.75112 0.57000 0.53991
 C78 C 0.74992 0.54485 0.49117
 H79 H 0.82192 0.62867 0.57136
 H80 H 0.71210 0.51944 0.47575
 H81 H 0.91240 0.55637 0.42421
 H82 H 0.87000 0.62733 0.39911
 N83 N 0.54162 0.29260 -0.07264
 N84 N 0.54079 0.30480 -0.12542
 C85 C 0.50129 0.26740 -0.14758
 C86 C 0.47552 0.23124 -0.10591
 C87 C 0.50147 0.24829 -0.05898
 H88 H 0.49004 0.26849 -0.19013
 H89 H 0.49174 0.23020 -0.01819
 Cu90 Cu 0.58644 0.37264 -0.15967
 Cu91 Cu 0.59514 0.33592 -0.02690
 Cu92 Cu 0.61921 0.47808 -0.06963
 N93 N 0.60364 0.45689 -0.18270
 N94 N 0.60999 0.49790 -0.14797
 C95 C 0.61543 0.55181 -0.17534
 C96 C 0.61362 0.54369 -0.22957
 C97 C 0.60620 0.48332 -0.23338
 H98 H 0.62259 0.59323 -0.15718
 H99 H 0.60153 0.46068 -0.26986
 N100 N 0.65887 0.44102 -0.00347
 N101 N 0.65318 0.38363 0.01083
 C102 C 0.69266 0.36731 0.05233
 C103 C 0.72329 0.41779 0.06519
 C104 C 0.70080 0.46391 0.02961
 H105 H 0.69942 0.32225 0.07083
 H106 H 0.71704 0.50934 0.02543
 H107 H 0.55719 0.41381 -0.09460
 H108 H 0.64464 0.39947 -0.09853
 N109 N -0.08649 0.33788 0.14807
 N110 N -0.07293 0.31542 0.10402
 N111 N 0.60506 0.67726 0.64220
 N112 N 0.59864 0.71457 0.60104
 N113 N 1.09397 0.83683 0.35987
 N114 N 1.07674 0.80789 0.40334
 N115 N 0.41803 0.16356 -0.15291
 N116 N 0.42768 0.18798 -0.10941
 N117 N 0.13985 -0.07315 0.31656
 N118 N 0.12357 -0.08548 0.26960
 N119 N 0.63794 0.57821 -0.31928
 N120 N 0.61889 0.58953 -0.27254
 N121 N 0.37595 1.07860 0.80719
 N122 N 0.32791 1.05517 0.78735
 N123 N 0.85695 0.41624 0.19218
 N124 N 0.90707 0.43471 0.21303
 N125 N 0.31717 0.12460 -0.12099
 N126 N 0.28752 0.07777 -0.10520
 N127 N 0.68641 0.62061 0.59785
 N128 N 0.70111 0.57139 0.57860
 N129 N 0.81046 0.37498 0.11435
 N130 N 0.77463 0.42063 0.10226
 N131 N 0.17053 0.89150 0.40809
 N132 N 0.22447 0.91556 0.40464
   
