data_POSCAR
  _audit_creation_date              2014-09-24
  _audit_creation_method            'ToBaCCo'
  _symmetry_space_group_name_H-M    'P1'
  _symmetry_Int_Tables_number       1
  _symmetry_cell_setting            triclinic
  loop_
  _symmetry_equiv_pos_as_xyz
 x,y,z
_cell_length_a 21.5829
_cell_length_b 21.6493
_cell_length_c 21.5676
_cell_angle_alpha 97.280800
_cell_angle_beta 81.223900
_cell_angle_gamma 96.746700
loop_
  _atom_site_label
  _atom_site_type_symbol
  _atom_site_fract_x
  _atom_site_fract_y
  _atom_site_fract_z
O1 O 0.56685 0.51780 0.06296
 O2 O 0.40189 0.50424 0.03313
 O3 O 0.47692 0.42897 0.06228
 O4 O 0.49278 0.59487 0.03504
 O5 O 0.52321 0.56783 -0.06618
 O6 O 0.50873 0.40225 -0.03879
 O7 O 0.43325 0.47705 -0.06782
 O8 O 0.59858 0.49224 -0.03831
 Cu9 Cu 0.48138 0.51431 0.05843
 Cu10 Cu 0.51887 0.48237 -0.06297
 C11 C 0.61062 0.50575 0.01795
 C12 C 0.38934 0.48870 -0.02278
 C13 C 0.49182 0.38759 0.01690
 C14 C 0.50992 0.60955 -0.02061
 O15 O -0.06564 0.57467 0.52436
 O16 O -0.04075 0.40846 0.51290
 O17 O -0.03597 0.50095 0.60042
 O18 O -0.06647 0.48282 0.43536
 O19 O 0.03463 0.50727 0.40369
 O20 O 0.06520 0.52446 0.56817
 O21 O 0.06032 0.43211 0.48036
 O22 O 0.03545 0.59935 0.49340
 Cu23 Cu -0.06237 0.48950 0.52138
 Cu24 Cu 0.05902 0.51821 0.48316
 C25 C -0.02006 0.61537 0.50983
 C26 C 0.01444 0.39209 0.49624
 C27 C 0.02030 0.51418 0.61216
 C28 C -0.02130 0.49311 0.39150
 O29 O 0.50201 0.03491 0.59890
 O30 O 0.51786 0.06326 0.43216
 O31 O 0.42775 0.06589 0.52511
 O32 O 0.59406 0.03754 0.50699
 O33 O 0.56786 -0.06308 0.48112
 O34 O 0.40136 -0.03422 0.49675
 O35 O 0.49340 -0.03728 0.40438
 O36 O 0.47465 -0.06509 0.57136
 Cu37 Cu 0.51309 0.06046 0.51845
 Cu38 Cu 0.48175 -0.06001 0.48563
 C39 C 0.48648 -0.02045 0.61350
 C40 C 0.50697 0.01825 0.39002
 C41 C 0.38642 0.02123 0.51248
 C42 C 0.60913 -0.01793 0.49295
 C43 C 0.49655 -0.06313 -0.13804
 C44 C 0.49966 -0.12404 -0.12364
 C45 C 0.50586 -0.13802 -0.06311
 C46 C 0.50226 -0.08845 -0.01278
 C47 C 0.50378 -0.02572 -0.02633
 C48 C 0.50463 -0.01297 -0.08957
 C49 C 0.51469 0.04967 -0.10247
 C50 C 0.51617 0.09848 -0.05434
 C51 C 0.50780 0.08729 0.00926
 C52 C 0.50482 0.02462 0.02345
 C53 C 0.49730 -0.09950 0.05071
 C54 C 0.49911 -0.05063 0.09901
 C55 C 0.50324 0.01219 0.08701
 C56 C 0.50738 0.06289 0.13614
 C57 C 0.51281 0.12397 0.11901
 C58 C 0.50555 0.13715 0.05879
 H59 H 0.52279 0.06230 -0.15004
 H60 H 0.52541 0.14520 -0.06829
 H61 H 0.49145 -0.14617 0.06463
 H62 H 0.49786 -0.06367 0.14579
 H63 H 0.49738 -0.16157 -0.16072
 H64 H 0.52516 0.16291 0.15206
 C65 C 0.06532 0.50156 0.86183
 C66 C 0.12622 0.49669 0.87508
 C67 C 0.13980 0.49235 0.93598
 C68 C 0.08963 0.49790 0.98707
 C69 C 0.02653 0.49681 0.97480
 C70 C 0.01426 0.49617 0.91188
 C71 C -0.04884 0.49067 0.90106
 C72 C -0.09820 0.49189 0.95043
 C73 C -0.08769 0.49602 1.01361
 C74 C -0.02445 0.49722 1.02579
 C75 C 0.10064 0.50593 1.05023
 C76 C 0.05135 0.50673 1.09967
 C77 C -0.01180 0.49969 1.08882
 C78 C -0.06243 0.49821 1.13938
 C79 C -0.12269 0.50531 1.12633
 C80 C -0.13810 0.50062 1.06484
 H81 H -0.06169 0.48531 0.85416
 H82 H -0.14461 0.49034 0.93737
 H83 H 0.14757 0.51328 1.06295
 H84 H 0.06420 0.51462 1.14663
 H85 H 0.16415 0.49670 0.83705
 H86 H -0.15722 0.51741 1.16561
 C87 C -0.06103 -0.13624 0.49808
 C88 C -0.12070 -0.12293 0.48869
 C89 C -0.13728 -0.06187 0.49142
 C90 C -0.08819 -0.01175 0.49204
 C91 C -0.02566 -0.02387 0.49593
 C92 C -0.01184 -0.08632 0.49737
 C93 C 0.05139 -0.09742 0.49401
 C94 C 0.09908 -0.04868 0.49489
 C95 C 0.08629 0.01406 0.49956
 C96 C 0.02354 0.02653 0.49725
 C97 C -0.09905 0.04971 0.48548
 C98 C -0.05129 0.09852 0.48650
 C99 C 0.01003 0.08891 0.49478
 C100 C 0.05887 0.13924 0.49725
 C101 C 0.12058 0.12426 0.49575
 C102 C 0.13501 0.06426 0.50265
 H103 H 0.06573 -0.14410 0.48843
 H104 H 0.14637 -0.06184 0.48982
 H105 H -0.14425 0.06129 0.47761
 H106 H -0.06340 0.14358 0.47876
 H107 H -0.15420 -0.16136 0.47611
 H108 H 0.15881 0.15950 0.48563
 C109 C -0.32303 0.50491 1.03175
 C110 C -0.27712 0.55977 1.00956
 C111 C -0.21736 0.55853 1.02224
 C112 C -0.20769 0.50185 1.05519
 C113 C -0.25858 0.50429 1.11463
 C114 C -0.31805 0.50645 1.10215
 C115 C -0.29245 0.44582 1.00091
 C116 C -0.23293 0.44383 1.01379
 H117 H -0.29069 0.59712 0.98688
 H118 H -0.18007 0.59508 1.01033
 H119 H -0.25223 0.49752 1.16195
 H120 H -0.35836 0.50416 1.13896
 H121 H -0.31596 0.40817 0.97220
 H122 H -0.20635 0.40403 0.99669
 C123 C 0.32573 0.48697 0.96504
 C124 C 0.27850 0.44125 1.00191
 C125 C 0.21778 0.44085 0.99082
 C126 C 0.20881 0.48764 0.94521
 C127 C 0.23937 0.55116 0.97196
 C128 C 0.29972 0.55079 0.98244
 C129 C 0.31571 0.46801 0.89579
 C130 C 0.25501 0.46752 0.88552
 H131 H 0.29198 0.40975 1.03175
 H132 H 0.17997 0.40850 1.01086
 H133 H 0.21515 0.59328 0.98195
 H134 H 0.32655 0.59250 1.00151
 H135 H 0.35149 0.45021 0.85903
 H136 H 0.24127 0.44605 0.84085
 C137 C -0.03154 -0.32097 0.50912
 C138 C -0.00706 -0.29643 0.44523
 C139 C -0.01747 -0.23625 0.44271
 C140 C -0.05116 -0.20456 0.50431
 C141 C -0.11178 -0.24885 0.52038
 C142 C -0.10158 -0.30926 0.52202
 C143 C -0.00069 -0.27411 0.55787
 C144 C -0.01180 -0.21353 0.55613
 H145 H 0.01779 -0.32361 0.40552
 H146 H -0.00213 -0.21272 0.40063
 H147 H -0.15819 -0.23379 0.53695
 H148 H -0.13980 -0.34384 0.53691
 H149 H 0.02508 -0.28761 0.59267
 H150 H 0.00408 -0.17578 0.58998
 C151 C 0.02613 0.32503 0.49734
 C152 C 0.09112 0.31827 0.51470
 C153 C 0.10231 0.25806 0.51621
 C154 C 0.04764 0.20868 0.49888
 C155 C -0.00831 0.22971 0.54729
 C156 C -0.02014 0.28994 0.54581
 C157 C 0.02295 0.28467 0.43406
 C158 C 0.03430 0.22426 0.43479
 H159 H 0.12317 0.35754 0.53059
 H160 H 0.14273 0.24858 0.53643
 H161 H -0.03483 0.20049 0.58155
 H162 H -0.05696 0.31144 0.57851
 H163 H 0.01291 0.30220 0.39204
 H164 H 0.03397 0.19029 0.39322
 C165 C 0.48603 -0.03274 -0.32289
 C166 C 0.55182 -0.01949 -0.30258
 C167 C 0.55379 -0.03024 -0.24234
 C168 C 0.48989 -0.05316 -0.20637
 C169 C 0.44461 -0.00478 -0.21276
 C170 C 0.44342 0.00660 -0.27340
 C171 C 0.46421 -0.10068 -0.30973
 C172 C 0.46538 -0.11121 -0.24911
 H173 H 0.59378 -0.00365 -0.33338
 H174 H 0.59740 -0.02340 -0.22192
 H175 H 0.41415 0.01679 -0.17320
 H176 H 0.41255 0.03822 -0.28513
 H177 H 0.44331 -0.13598 -0.34293
 H178 H 0.44231 -0.15446 -0.23252
 C179 C 0.50748 0.03120 0.32289
 C180 C 0.56406 0.00929 0.27697
 C181 C 0.56404 0.02125 0.21646
 C182 C 0.50688 0.05338 0.20622
 C183 C 0.44851 0.01211 0.23354
 C184 C 0.44920 -0.00006 0.29386
 C185 C 0.50809 0.10079 0.31543
 C186 C 0.50708 0.11258 0.25529
 H187 H 0.60154 -0.01284 0.29102
 H188 H 0.60173 0.00926 0.17897
 H189 H 0.40929 -0.00515 0.20789
 H190 H 0.41096 -0.02821 0.31906
 H191 H 0.50359 0.13741 0.35472
 H192 H 0.49855 0.15901 0.24748
 C193 C 0.51159 -0.32330 -0.03294
 C194 C 0.52829 -0.31254 -0.10279
 C195 C 0.52879 -0.25199 -0.11349
 C196 C 0.51073 -0.20670 -0.05334
 C197 C 0.44742 -0.23676 -0.02233
 C198 C 0.44794 -0.29706 -0.01156
 C199 C 0.55924 -0.27755 0.00039
 C200 C 0.55962 -0.21686 -0.01111
 H201 H 0.54493 -0.34786 -0.13999
 H202 H 0.54948 -0.23786 -0.15918
 H203 H 0.40551 -0.21214 -0.00936
 H204 H 0.40668 -0.32350 0.01096
 H205 H 0.59193 -0.29202 0.02802
 H206 H 0.59324 -0.17989 0.00627
 C207 C 0.49294 0.32098 0.02935
 C208 C 0.55832 0.29794 0.00903
 C209 C 0.56151 0.23792 0.01933
 C210 C 0.49903 0.20520 0.04890
 C211 C 0.47823 0.24909 0.10922
 C212 C 0.47583 0.30937 0.09898
 C213 C 0.44786 0.27344 -0.00528
 C214 C 0.45019 0.21313 0.00573
 H215 H 0.59894 0.32658 -0.01169
 H216 H 0.60488 0.21552 0.00748
 H217 H 0.46026 0.23372 0.15509
 H218 H 0.45839 0.34405 0.13646
 H219 H 0.41480 0.28637 -0.03343
 H220 H 0.41844 0.17490 -0.01263
 C221 C -0.32386 -0.03051 0.49274
 C222 C -0.29135 0.01041 0.54453
 C223 C -0.23089 -0.00133 0.54509
 C224 C -0.20711 -0.05196 0.49286
 C225 C -0.25642 -0.10894 0.50501
 C226 C -0.31688 -0.09771 0.50420
 C227 C -0.28098 -0.02004 0.43079
 C228 C -0.22035 -0.03161 0.43066
 H229 H -0.31468 0.04384 0.57954
 H230 H -0.20314 0.02187 0.58088
 H231 H -0.24730 -0.15184 0.52136
 H232 H -0.35637 -0.13184 0.51682
 H233 H -0.29714 -0.00552 0.39012
 H234 H -0.18473 -0.02697 0.38970
 C235 C 0.31963 0.03431 0.51255
 C236 C 0.27131 0.00148 0.56071
 C237 C 0.21078 0.01317 0.55951
 C238 C 0.20344 0.05489 0.50853
 C239 C 0.24759 0.11455 0.52545
 C240 C 0.30813 0.10373 0.52677
 C241 C 0.29713 0.01329 0.44843
 C242 C 0.23695 0.02415 0.44629
 H243 H 0.28388 -0.02592 0.59489
 H244 H 0.17193 -0.00392 0.59324
 H245 H 0.23226 0.16030 0.54267
 H246 H 0.34286 0.14066 0.54210
 H247 H 0.32637 -0.00798 0.40775
 H248 H 0.21497 0.01215 0.40372
 C249 C -0.03400 0.49182 1.32467
 C250 C 0.00044 0.44381 1.27731
 C251 C -0.01046 0.44411 1.21667
 C252 C -0.05341 0.49384 1.20817
 C253 C -0.11370 0.47718 1.25457
 C254 C -0.10351 0.47694 1.31523
 C255 C -0.01351 0.55495 1.29881
 C256 C -0.02388 0.55611 1.23856
 H257 H 0.02852 0.41053 1.29069
 H258 H 0.00803 0.41056 1.17860
 H259 H -0.15939 0.45983 1.24083
 H260 H -0.14084 0.46213 1.35162
 H261 H 0.00784 0.59546 1.32557
 H262 H -0.01173 0.59778 1.21429
 C263 C 0.03402 0.51372 0.67834
 C264 C 0.10374 0.52916 0.68685
 C265 C 0.11520 0.52725 0.74683
 C266 C 0.05582 0.50850 0.79358
 C267 C 0.01174 0.55815 0.78762
 C268 C -0.00049 0.56001 0.72770
 C269 C 0.01523 0.44941 0.70200
 C270 C 0.02676 0.44664 0.76160
 H271 H 0.14010 0.54626 0.65073
 H272 H 0.16074 0.54614 0.75983
 H273 H -0.00649 0.59059 0.82690
 H274 H -0.02948 0.59347 0.71613
 H275 H -0.00469 0.40895 0.67373
 H276 H 0.01657 0.40378 0.78412
   
