data_POSCAR
  _audit_creation_date              2014-09-24
  _audit_creation_method            'ToBaCCo'
  _symmetry_space_group_name_H-M    'P1'
  _symmetry_Int_Tables_number       1
  _symmetry_cell_setting            triclinic
  loop_
  _symmetry_equiv_pos_as_xyz
 x,y,z
_cell_length_a 35.2558
_cell_length_b 30.6836
_cell_length_c 26.3830
_cell_angle_alpha 90.083700
_cell_angle_beta 89.728600
_cell_angle_gamma 89.998100
loop_
  _atom_site_label
  _atom_site_type_symbol
  _atom_site_fract_x
  _atom_site_fract_y
  _atom_site_fract_z
C1 C 1.24586 0.24771 0.25160
 C2 C 0.75186 -0.25185 0.25211
 C3 C 0.75393 0.25075 -0.24783
 C4 C 1.24783 -0.25065 -0.25558
 C5 C 0.24508 0.25050 0.74873
 C6 C 0.75171 0.74898 0.74766
 C7 C 0.75358 0.25212 0.24824
 C8 C 0.24813 0.75303 0.25511
 O9 O 1.05299 0.07380 0.09144
 O10 O 1.09514 0.03344 0.04414
 C11 C 1.08702 0.06257 0.07799
 O12 O 0.94681 -0.08539 0.08401
 O13 O 0.90484 -0.04172 0.04129
 C14 C 0.91286 -0.07365 0.07141
 O15 O 1.05243 -0.08068 0.09081
 O16 O 1.09486 -0.04051 0.04391
 C17 C 1.08656 -0.06966 0.07762
 O18 O 0.94733 0.07967 0.08478
 O19 O 0.90508 0.03659 0.04163
 C20 C 0.91328 0.06838 0.07199
 Zr21 Zr 0.99990 0.05127 0.06499
 O22 O 0.99480 0.04508 0.14472
 O23 O 1.00327 0.11956 0.07403
 Zr24 Zr 0.99957 -0.05754 0.06433
 O25 O 0.99452 -0.05193 0.14413
 O26 O 1.00252 -0.12595 0.07216
 O27 O 1.03408 -0.00330 0.07458
 O28 O 0.96592 -0.00300 0.07364
 O29 O 0.94808 0.07849 -0.08611
 O30 O 0.90550 0.03650 -0.04174
 C31 C 0.91396 0.06765 -0.07283
 O32 O 1.05342 -0.07957 -0.09141
 O33 O 1.09530 -0.04015 -0.04314
 C34 C 1.08735 -0.06882 -0.07751
 O35 O 0.94757 -0.08325 -0.08715
 O36 O 0.90526 -0.04124 -0.04219
 C37 C 0.91352 -0.07220 -0.07373
 O38 O 1.05387 0.07404 -0.09037
 O39 O 1.09553 0.03393 -0.04270
 C40 C 1.08775 0.06300 -0.07662
 Zr41 Zr 1.00064 0.05188 -0.06364
 O42 O 0.99680 0.04869 -0.14368
 O43 O 1.00481 0.12064 -0.06683
 Zr44 Zr 1.00031 -0.05734 -0.06427
 O45 O 0.99644 -0.05388 -0.14426
 O46 O 1.00415 -0.12612 -0.06808
 Zr47 Zr 1.05685 -0.00316 0.00043
 Zr48 Zr 0.94318 -0.00267 0.00003
 O49 O 0.96705 -0.00255 -0.07323
 O50 O 1.03478 -0.00283 -0.07374
 O51 O 0.96689 0.06052 0.00055
 O52 O 1.03256 -0.06587 0.00008
 O53 O 1.03291 0.05974 0.00082
 O54 O 0.96646 -0.06607 -0.00021
 H55 H 0.94780 -0.00296 0.10249
 H56 H 1.04900 -0.09206 -0.00007
 H57 H 0.94967 -0.00238 -0.10265
 H58 H 1.04946 0.08583 0.00093
 H59 H 0.99654 -0.13835 0.03858
 H60 H 0.98485 -0.13820 -0.04468
 H61 H 1.02006 -0.04033 -0.15711
 H62 H 1.02061 0.03566 -0.15668
 H63 H 0.98601 0.13268 -0.04264
 H64 H 0.99796 0.13236 0.04049
 H65 H 1.01968 0.03554 0.15792
 H66 H 1.01933 -0.04229 0.15745
 O67 O 0.93246 0.43988 0.40813
 O68 O 0.96664 0.39057 0.45491
 C69 C 0.94116 0.40060 0.42142
 O70 O 1.07327 0.55887 0.41469
 O71 O 1.03607 0.60909 0.45636
 C72 C 1.06409 0.59843 0.42653
 O73 O 1.06786 0.43873 0.40907
 O74 O 1.03247 0.39000 0.45553
 C75 C 1.05845 0.39961 0.42230
 O76 O 0.92882 0.56001 0.41367
 O77 O 0.96598 0.60966 0.45585
 C78 C 0.93832 0.59939 0.42568
 Zr79 Zr 0.95337 0.50018 0.43395
 O80 O 0.95992 0.50472 0.35424
 O81 O 0.89396 0.49791 0.42405
 Zr82 Zr 1.04753 0.49947 0.43464
 O83 O 1.04238 0.50426 0.35484
 O84 O 1.10704 0.49596 0.42572
 O85 O 1.00029 0.45988 0.42480
 O86 O 1.00074 0.53889 0.42481
 O87 O 0.92919 0.56139 0.58423
 O88 O 0.96551 0.61028 0.53933
 C89 C 0.93824 0.60051 0.57067
 O90 O 1.06637 0.44028 0.59081
 O91 O 1.03195 0.39085 0.54434
 C92 C 1.05737 0.40096 0.57794
 O93 O 1.06988 0.56045 0.58531
 O94 O 1.03476 0.60980 0.53984
 C95 C 1.06140 0.59968 0.57158
 O96 O 0.93157 0.44119 0.58990
 O97 O 0.96608 0.39128 0.54381
 C98 C 0.94038 0.40175 0.57717
 Zr99 Zr 0.95218 0.50101 0.56221
 O100 O 0.95485 0.50650 0.64220
 O101 O 0.89224 0.49735 0.56516
 Zr102 Zr 1.04671 0.50033 0.56292
 O103 O 1.04272 0.50570 0.64285
 O104 O 1.10655 0.49592 0.56690
 Zr105 Zr 0.99955 0.43423 0.49913
 Zr106 Zr 1.00033 0.56614 0.49801
 O107 O 0.99959 0.53950 0.57142
 O108 O 0.99914 0.46108 0.57283
 O109 O 0.94527 0.53910 0.49779
 O110 O 1.05415 0.46215 0.49916
 O111 O 0.94529 0.46296 0.49837
 O112 O 1.05507 0.53829 0.49861
 H113 H 1.00111 0.55944 0.39585
 H114 H 1.07692 0.44325 0.49963
 H115 H 0.99945 0.55989 0.60059
 H116 H 0.92232 0.44439 0.49857
 H117 H 1.11788 0.49622 0.46015
 H118 H 1.11716 0.51653 0.54176
 H119 H 1.03147 0.47838 0.65596
 H120 H 0.96547 0.47900 0.65559
 H121 H 0.88223 0.51812 0.53988
 H122 H 0.88258 0.49755 0.45831
 H123 H 0.96698 0.47552 0.34129
 H124 H 1.03497 0.47526 0.34175
 O125 O 0.55420 0.07991 0.59101
 O126 O 0.59672 0.03949 0.54427
 C127 C 0.58834 0.06887 0.57792
 O128 O 0.44880 -0.08003 0.58495
 O129 O 0.40633 -0.03707 0.54207
 C130 C 0.41471 -0.06876 0.57252
 O131 O 0.55394 -0.07513 0.59114
 O132 O 0.59646 -0.03494 0.54437
 C133 C 0.58806 -0.06426 0.57799
 O134 O 0.44869 0.08499 0.58500
 O135 O 0.40629 0.04181 0.54209
 C136 C 0.41459 0.07359 0.57261
 Zr137 Zr 0.50124 0.05687 0.56480
 O138 O 0.49644 0.05086 0.64458
 O139 O 0.50396 0.12526 0.57342
 Zr140 Zr 0.50124 -0.05188 0.56475
 O141 O 0.49644 -0.04558 0.64452
 O142 O 0.50401 -0.12023 0.57339
 O143 O 0.53566 0.00251 0.57462
 O144 O 0.46739 0.00248 0.57384
 O145 O 0.44912 0.08284 0.41325
 O146 O 0.40657 0.04118 0.45818
 C147 C 0.41501 0.07202 0.42654
 O148 O 0.55497 -0.07441 0.40918
 O149 O 0.59712 -0.03444 0.45657
 C150 C 0.58899 -0.06357 0.42261
 O151 O 0.44932 -0.07860 0.41319
 O152 O 0.40663 -0.03702 0.45816
 C153 C 0.41515 -0.06794 0.42645
 O154 O 0.55454 0.07936 0.40888
 O155 O 0.59670 0.03970 0.45633
 C156 C 0.58856 0.06866 0.42229
 Zr157 Zr 0.50171 0.05690 0.43634
 O158 O 0.49783 0.05382 0.35630
 O159 O 0.50550 0.12573 0.43365
 Zr160 Zr 0.50185 -0.05232 0.43627
 O161 O 0.49794 -0.04932 0.35624
 O162 O 0.50586 -0.12112 0.43324
 Zr163 Zr 0.55841 0.00242 0.50044
 Zr164 Zr 0.44445 0.00230 0.50034
 O165 O 0.46834 0.00223 0.42711
 O166 O 0.53608 0.00232 0.42641
 O167 O 0.46794 0.06562 0.50048
 O168 O 0.53426 -0.06036 0.50052
 O169 O 0.53420 0.06517 0.50055
 O170 O 0.46805 -0.06094 0.50040
 H171 H 0.44934 0.00250 0.60275
 H172 H 0.55079 -0.08646 0.50038
 H173 H 0.45100 0.00216 0.39765
 H174 H 0.55073 0.09127 0.50043
 H175 H 0.50098 -0.13283 0.53920
 H176 H 0.48653 -0.13304 0.45672
 H177 H 0.52154 -0.03585 0.34323
 H178 H 0.52123 0.03980 0.34335
 H179 H 0.48595 0.13758 0.45690
 H180 H 0.50132 0.13774 0.53916
 H181 H 0.52142 0.04162 0.65773
 H182 H 0.52138 -0.03615 0.65765
 O183 O 0.55058 0.57759 0.09254
 O184 O 0.59288 0.53731 0.04525
 C185 C 0.58469 0.56614 0.07968
 O186 O 0.44452 0.42009 0.08808
 O187 O 0.40222 0.46240 0.04399
 C188 C 0.41040 0.43152 0.07572
 O189 O 0.55017 0.42419 0.09316
 O190 O 0.59268 0.46312 0.04491
 C191 C 0.58436 0.43480 0.07975
 O192 O 0.44498 0.58252 0.08795
 O193 O 0.40243 0.54076 0.04344
 C194 C 0.41079 0.57160 0.07535
 Zr195 Zr 0.49761 0.55599 0.06464
 O196 O 0.49297 0.55361 0.14471
 O197 O 0.50177 0.62478 0.06623
 Zr198 Zr 0.49728 0.44676 0.06585
 O199 O 0.49265 0.45244 0.14571
 O200 O 0.50049 0.37825 0.07271
 O201 O 0.53170 0.50127 0.07494
 O202 O 0.46390 0.50156 0.07445
 O203 O 0.44515 0.57980 -0.08803
 O204 O 0.40252 0.53930 -0.04174
 C205 C 0.41096 0.56907 -0.07484
 O206 O 0.55052 0.42338 -0.09065
 O207 O 0.59288 0.46318 -0.04351
 C208 C 0.58467 0.43435 -0.07782
 O209 O 0.44455 0.42059 -0.08652
 O210 O 0.40222 0.46223 -0.04098
 C211 C 0.41041 0.43177 -0.07347
 O212 O 0.55085 0.57613 -0.09230
 O213 O 0.59299 0.53733 -0.04384
 C214 C 0.58493 0.56540 -0.07898
 Zr215 Zr 0.49791 0.55498 -0.06340
 O216 O 0.49391 0.55337 -0.14345
 O217 O 0.50247 0.62382 -0.06412
 Zr218 Zr 0.49753 0.44538 -0.06237
 O219 O 0.49357 0.44592 -0.14245
 O220 O 0.50138 0.37647 -0.06226
 Zr221 Zr 0.55461 0.50044 0.00087
 Zr222 Zr 0.44050 0.50100 0.00125
 O223 O 0.46451 0.50025 -0.07196
 O224 O 0.53186 0.49994 -0.07295
 O225 O 0.46391 0.56430 0.00057
 O226 O 0.53027 0.43774 0.00168
 O227 O 0.53079 0.56337 0.00048
 O228 O 0.46360 0.43750 0.00186
 H229 H 0.44627 0.50180 0.10381
 H230 H 0.54692 0.41173 0.00173
 H231 H 0.44748 0.50007 -0.10172
 H232 H 0.54776 0.58910 0.00028
 H233 H 0.49035 0.36597 0.04091
 H234 H 0.47933 0.36502 -0.04316
 H235 H 0.51580 0.46196 -0.15580
 H236 H 0.51575 0.53643 -0.15649
 H237 H 0.48034 0.63584 -0.04564
 H238 H 0.48343 0.63623 0.04129
 H239 H 0.51606 0.53931 0.15791
 H240 H 0.51714 0.46343 0.15868
 C241 C 1.22742 0.21740 0.21686
 C242 C 1.21049 0.19162 0.19112
 C243 C 1.18860 0.16137 0.16398
 C244 C 1.16801 0.13615 0.14275
 C245 C 1.14174 0.10813 0.11961
 C246 C 1.11755 0.08604 0.10056
 C247 C 1.21877 0.72857 0.71309
 C248 C 1.19346 0.71313 0.68828
 C249 C 1.16307 0.69539 0.66047
 C250 C 1.13721 0.67885 0.63781
 C251 C 1.10793 0.65630 0.61271
 C252 C 1.08488 0.63302 0.59279
 C253 C 0.72972 0.22319 0.72045
 C254 C 0.71018 0.19888 0.69584
 C255 C 0.68721 0.16945 0.66860
 C256 C 0.66689 0.14431 0.64645
 C257 C 0.64169 0.11572 0.62162
 C258 C 0.61846 0.09293 0.60123
 C259 C 0.72884 0.71504 0.22620
 C260 C 0.70946 0.68883 0.20394
 C261 C 0.68599 0.65938 0.17716
 C262 C 0.66499 0.63547 0.15412
 C263 C 0.63892 0.60910 0.12732
 C264 C 0.61514 0.58832 0.10503
 C265 C 0.77130 -0.22474 0.21474
 C266 C 0.78877 -0.20121 0.18670
 C267 C 0.81103 -0.17295 0.15714
 C268 C 0.83179 -0.14878 0.13442
 C269 C 0.85812 -0.12113 0.11056
 C270 C 0.88230 -0.09860 0.09197
 C271 C 0.78330 0.27155 0.72088
 C272 C 0.80886 0.28728 0.69640
 C273 C 0.83951 0.30555 0.66901
 C274 C 0.86547 0.32248 0.64651
 C275 C 0.89472 0.34526 0.62110
 C276 C 0.91753 0.36854 0.60032
 C277 C 0.27296 -0.22444 0.71240
 C278 C 0.29292 -0.20089 0.68737
 C279 C 0.31606 -0.17194 0.65973
 C280 C 0.33638 -0.14682 0.63752
 C281 C 0.36149 -0.11783 0.61319
 C282 C 0.38467 -0.09429 0.59381
 C283 C 0.26778 0.28024 0.22296
 C284 C 0.28655 0.30611 0.19912
 C285 C 0.30957 0.33538 0.17122
 C286 C 0.33034 0.35938 0.14776
 C287 C 0.35626 0.38621 0.12107
 C288 C 0.37997 0.40779 0.09946
 C289 C 0.77306 0.22248 -0.21146
 C290 C 0.79047 0.19803 -0.18457
 C291 C 0.81276 0.16883 -0.15643
 C292 C 0.83350 0.14400 -0.13481
 C293 C 0.85971 0.11574 -0.11187
 C294 C 0.88370 0.09283 -0.09363
 C295 C 0.78084 0.72794 0.28407
 C296 C 0.80609 0.71273 0.30915
 C297 C 0.83646 0.69505 0.33708
 C298 C 0.86233 0.67850 0.35973
 C299 C 0.89165 0.65596 0.38477
 C300 C 0.91476 0.63272 0.40460
 C301 C 0.27097 0.22238 0.28433
 C302 C 0.29119 0.19966 0.30978
 C303 C 0.31490 0.17174 0.33776
 C304 C 0.33577 0.14754 0.36020
 C305 C 0.36145 0.11959 0.38485
 C306 C 0.38492 0.09684 0.40460
 C307 C 0.26975 0.71686 -0.22716
 C308 C 0.28837 0.69122 -0.20304
 C309 C 0.31114 0.66244 -0.17439
 C310 C 0.33164 0.63899 -0.15007
 C311 C 0.35725 0.61291 -0.12223
 C312 C 0.38073 0.59201 -0.09964
 C313 C 1.22862 -0.22115 -0.22044
 C314 C 1.21132 -0.19600 -0.19408
 C315 C 1.18921 -0.16640 -0.16606
 C316 C 1.16851 -0.14162 -0.14407
 C317 C 1.14218 -0.11400 -0.12010
 C318 C 1.11796 -0.09214 -0.10046
 C319 C 1.21609 0.26850 0.28211
 C320 C 1.19023 0.28412 0.30608
 C321 C 1.15929 0.30222 0.33292
 C322 C 1.13313 0.31911 0.35497
 C323 C 1.10379 0.34211 0.37981
 C324 C 1.08103 0.36579 0.40001
 C325 C 0.72777 -0.22324 0.28291
 C326 C 0.70868 -0.19787 0.30687
 C327 C 0.68645 -0.16714 0.33342
 C328 C 0.66677 -0.14093 0.35507
 C329 C 0.64216 -0.11126 0.37943
 C330 C 0.61916 -0.08785 0.39953
 C331 C 0.73084 0.28353 -0.22100
 C332 C 0.71116 0.30964 -0.19872
 C333 C 0.68715 0.33918 -0.17251
 C334 C 0.66568 0.36334 -0.15025
 C335 C 0.63917 0.39019 -0.12440
 C336 C 0.61517 0.41147 -0.10278
 C337 C 1.22676 0.21994 -0.21647
 C338 C 1.21010 0.19386 -0.19061
 C339 C 1.18862 0.16319 -0.16319
 C340 C 1.16840 0.13757 -0.14168
 C341 C 1.14249 0.10906 -0.11824
 C342 C 1.11844 0.08663 -0.09906
 C343 C 1.22125 0.73210 0.28534
 C344 C 1.19646 0.71524 0.31041
 C345 C 1.16650 0.69585 0.33827
 C346 C 1.14088 0.67821 0.36083
 C347 C 1.11161 0.65491 0.38577
 C348 C 1.08830 0.63153 0.40551
 C349 C 0.72943 0.22435 0.27999
 C350 C 0.71004 0.19977 0.30458
 C351 C 0.68727 0.16996 0.33175
 C352 C 0.66711 0.14451 0.35382
 C353 C 0.64203 0.11562 0.37859
 C354 C 0.61879 0.09270 0.39896
 C355 C 0.72890 0.71584 -0.22577
 C356 C 0.70962 0.68953 -0.20325
 C357 C 0.68620 0.65982 -0.17643
 C358 C 0.66523 0.63563 -0.15346
 C359 C 0.63920 0.60886 -0.12672
 C360 C 0.61544 0.58779 -0.10444
 C361 C 0.77138 -0.22352 -0.21563
 C362 C 0.78910 -0.19970 -0.18831
 C363 C 0.81167 -0.17120 -0.15956
 C364 C 0.83259 -0.14693 -0.13736
 C365 C 0.85898 -0.11928 -0.11375
 C366 C 0.88310 -0.09685 -0.09499
 C367 C 0.78310 0.27254 0.27932
 C368 C 0.80881 0.28778 0.30365
 C369 C 0.83967 0.30537 0.33089
 C370 C 0.86582 0.32176 0.35325
 C371 C 0.89529 0.34410 0.37844
 C372 C 0.91826 0.36722 0.39891
 C373 C 0.27192 -0.22171 0.28515
 C374 C 0.29214 -0.19821 0.31000
 C375 C 0.31575 -0.16955 0.33755
 C376 C 0.33643 -0.14483 0.35984
 C377 C 0.36186 -0.11630 0.38453
 C378 C 0.38512 -0.09312 0.40438
 C379 C 0.26714 0.28290 -0.22257
 C380 C 0.28607 0.30848 -0.19858
 C381 C 0.30930 0.33733 -0.17042
 C382 C 0.33021 0.36094 -0.14672
 C383 C 0.35623 0.38732 -0.11966
 C384 C 0.37996 0.40849 -0.09767
 C385 C 1.22898 -0.21939 0.22236
 C386 C 1.21101 -0.19482 0.19613
 C387 C 1.18829 -0.16600 0.16795
 C388 C 1.16735 -0.14184 0.14559
 C389 C 1.14100 -0.11471 0.12100
 C390 C 1.11694 -0.09305 0.10089
 C391 C 1.21515 0.27137 0.71879
 C392 C 1.18920 0.28694 0.69520
 C393 C 1.15820 0.30492 0.66862
 C394 C 1.13203 0.32162 0.64663
 C395 C 1.10265 0.34424 0.62160
 C396 C 1.07989 0.36753 0.60099
 C397 C 0.72731 -0.22272 0.71723
 C398 C 0.70796 -0.19767 0.69347
 C399 C 0.68547 -0.16732 0.66701
 C400 C 0.66564 -0.14140 0.64539
 C401 C 0.64098 -0.11198 0.62103
 C402 C 0.61806 -0.08865 0.60096
 C403 C 0.73047 0.28508 0.22217
 C404 C 0.71075 0.31117 0.20026
 C405 C 0.68670 0.34054 0.17427
 C406 C 0.66523 0.36448 0.15205
 C407 C 0.63873 0.39103 0.12621
 C408 C 0.61477 0.41208 0.10460
 C409 C 0.77252 0.22405 0.21120
 C410 C 0.78977 0.19965 0.18379
 C411 C 0.81192 0.17040 0.15518
 C412 C 0.83259 0.14546 0.13332
 C413 C 0.85881 0.11699 0.11033
 C414 C 0.88288 0.09387 0.09228
 C415 C 0.78060 0.72872 0.71507
 C416 C 0.80583 0.71358 0.68943
 C417 C 0.83620 0.69607 0.66081
 C418 C 0.86209 0.67970 0.63759
 C419 C 0.89150 0.65731 0.61197
 C420 C 0.91468 0.63408 0.59181
 C421 C 0.27020 0.22527 0.71537
 C422 C 0.29049 0.20256 0.68957
 C423 C 0.31429 0.17458 0.66126
 C424 C 0.33520 0.15024 0.63862
 C425 C 0.36090 0.12200 0.61386
 C426 C 0.38438 0.09890 0.59419
 C427 C 0.26936 0.72278 0.22731
 C428 C 0.28826 0.69729 0.20272
 C429 C 0.31119 0.66834 0.17380
 C430 C 0.33169 0.64446 0.14946
 C431 C 0.35720 0.61753 0.12177
 C432 C 0.38054 0.59571 0.09949
   
