data_POSCAR
  _audit_creation_date              2014-09-24
  _audit_creation_method            'ToBaCCo'
  _symmetry_space_group_name_H-M    'P1'
  _symmetry_Int_Tables_number       1
  _symmetry_cell_setting            triclinic
  loop_
  _symmetry_equiv_pos_as_xyz
 x,y,z
_cell_length_a 25.8599
_cell_length_b 25.8828
_cell_length_c 25.7945
_cell_angle_alpha 80.787800
_cell_angle_beta 107.811900
_cell_angle_gamma 77.747400
loop_
  _atom_site_label
  _atom_site_type_symbol
  _atom_site_fract_x
  _atom_site_fract_y
  _atom_site_fract_z
O1 O 0.59590 0.48850 0.04644
 O2 O 0.45204 0.49731 0.04728
 O3 O 0.53540 0.42001 0.04864
 O4 O 0.51469 0.56549 0.04650
 O5 O 0.47996 0.58667 -0.04616
 O6 O 0.50162 0.44097 -0.04398
 O7 O 0.41845 0.51840 -0.04522
 O8 O 0.56219 0.50861 -0.04618
 Cu9 Cu 0.52749 0.49091 0.05654
 Cu10 Cu 0.48699 0.51594 -0.05466
 C11 C 0.60352 0.49709 -0.00020
 C12 C 0.41070 0.50840 0.00125
 C13 C 0.52227 0.40560 0.00261
 C14 C 0.49504 0.60070 -0.00007
 O15 O -0.04929 0.58092 0.47698
 O16 O -0.05308 0.44002 0.47706
 O17 O -0.05111 0.49952 0.54916
 O18 O -0.04561 0.51800 0.40636
 O19 O 0.04762 0.49465 0.44242
 O20 O 0.04199 0.46926 0.58442
 O21 O 0.04021 0.41257 0.50875
 O22 O 0.04366 0.55326 0.51563
 Cu23 Cu -0.05912 0.51275 0.47369
 Cu24 Cu 0.05271 0.47984 0.51637
 C25 C -0.00243 0.59118 0.49786
 C26 C -0.00735 0.40243 0.49164
 C27 C -0.00532 0.48083 0.59124
 C28 C 0.00217 0.50853 0.40020
 O29 O 0.49451 0.05071 0.56210
 O30 O 0.46581 0.05173 0.41308
 O31 O 0.40705 0.05128 0.47913
 O32 O 0.55446 0.04774 0.49615
 O33 O 0.57916 -0.04207 0.52170
 O34 O 0.43055 -0.03853 0.49664
 O35 O 0.49264 -0.03819 0.43526
 O36 O 0.51334 -0.03883 0.58311
 Cu37 Cu 0.47840 0.05937 0.48575
 Cu38 Cu 0.50695 -0.04849 0.51178
 C39 C 0.50607 0.00606 0.59769
 C40 C 0.47486 0.00690 0.39875
 C41 C 0.39358 0.00678 0.48447
 C42 C 0.59179 0.00223 0.51085
 C43 C 0.49871 -0.01415 0.02086
 C44 C 0.50461 0.02449 -0.01773
 C45 C 0.50821 0.01471 -0.07215
 C46 C 0.50782 0.07908 -0.00837
 C47 C 0.49333 -0.00481 0.07458
 C48 C 0.49696 -0.06883 0.01157
 C49 C 0.55060 0.02879 -0.09018
 C50 C 0.55145 0.02528 -0.14341
 C51 C 0.51060 0.00658 -0.17910
 C52 C 0.46902 -0.00880 -0.16085
 C53 C 0.46714 -0.00375 -0.10828
 C54 C 0.54964 0.08499 0.03826
 C55 C 0.55573 0.13676 0.04269
 C56 C 0.52071 0.18324 0.00012
 C57 C 0.47785 0.17719 -0.04550
 C58 C 0.47157 0.12568 -0.04970
 C59 C 0.45110 0.03873 0.07583
 C60 C 0.44335 0.04322 0.12651
 C61 C 0.47692 0.00364 0.17645
 C62 C 0.51994 -0.03903 0.17518
 C63 C 0.52803 -0.04317 0.12484
 C64 C 0.44679 -0.08415 0.00415
 C65 C 0.44508 -0.13648 -0.00178
 C66 C 0.49401 -0.17474 0.00149
 C67 C 0.54434 -0.15950 0.00913
 C68 C 0.54566 -0.10662 0.01358
 H69 H 0.58238 0.04369 -0.06342
 H70 H 0.58366 0.03760 -0.15699
 H71 H 0.43651 -0.02236 -0.18836
 H72 H 0.43255 -0.01259 -0.09670
 H73 H 0.57868 0.04948 0.07016
 H74 H 0.58920 0.14026 0.07824
 H75 H 0.43900 0.12199 -0.08596
 H76 H 0.42307 0.06820 0.03744
 H77 H 0.40978 0.07644 0.12637
 H78 H 0.54718 -0.06951 0.21315
 H79 H 0.56093 -0.07703 0.12495
 H80 H 0.40902 -0.05547 0.00300
 H81 H 0.40605 -0.14768 -0.00716
 H82 H 0.58250 -0.18856 0.01170
 H83 H 0.58482 -0.09548 0.01992
 H84 H 0.44944 0.21229 -0.07834
 C85 C -0.01858 0.51118 0.97102
 C86 C 0.02522 0.51339 1.01573
 C87 C 0.08159 0.51363 1.01212
 C88 C 0.02039 0.51262 1.07185
 C89 C -0.07475 0.50991 0.97479
 C90 C -0.01183 0.50517 0.91691
 C91 C 0.13024 0.47576 1.05224
 C92 C 0.18363 0.47488 1.05005
 C93 C 0.18975 0.51181 1.00756
 C94 C 0.14108 0.55032 0.96775
 C95 C 0.08751 0.55149 0.97028
 C96 C 0.00263 0.47157 1.09838
 C97 C -0.00148 0.47136 1.15113
 C98 C 0.01415 0.51094 1.17922
 C99 C 0.03325 0.55116 1.15337
 C100 C 0.03609 0.55212 1.10002
 C101 C -0.10444 0.54836 0.99587
 C102 C -0.15554 0.54406 1.00175
 C103 C -0.17868 0.50241 0.98484
 C104 C -0.15016 0.46550 0.96167
 C105 C -0.09864 0.46899 0.95705
 C106 C -0.05088 0.54060 0.86664
 C107 C -0.04924 0.53211 0.81502
 C108 C -0.00857 0.48781 0.81264
 C109 C 0.03138 0.45303 0.86306
 C110 C 0.02941 0.46131 0.91475
 H111 H 0.12680 0.44625 1.08500
 H112 H 0.22014 0.44446 1.08109
 H113 H 0.14445 0.57994 0.93508
 H114 H 0.05072 0.58193 0.93966
 H115 H -0.00792 0.43963 1.07830
 H116 H -0.01544 0.43943 1.17070
 H117 H 0.05052 0.58375 1.08059
 H118 H -0.08767 0.58114 1.00849
 H119 H -0.17726 0.57352 1.01895
 H120 H -0.16708 0.43299 0.94841
 H121 H -0.07681 0.43896 0.94048
 H122 H -0.08328 0.57442 0.86746
 H123 H -0.07995 0.56016 0.77695
 H124 H 0.06295 0.41837 0.86247
 H125 H 0.05902 0.43262 0.95298
 H126 H 0.04552 0.58207 1.17429
 C127 C 0.01952 -0.02748 0.50492
 C128 C -0.02209 0.01518 0.50434
 C129 C -0.07749 0.00879 0.50562
 C130 C -0.01613 0.07151 0.50030
 C131 C 0.07379 -0.02085 0.50036
 C132 C 0.01217 -0.08305 0.50695
 C133 C -0.12708 0.04251 0.46320
 C134 C -0.17987 0.03967 0.46442
 C135 C -0.18443 0.00301 0.50821
 C136 C -0.13468 -0.03108 0.55071
 C137 C -0.08158 -0.02796 0.54961
 C138 C -0.00116 0.09774 0.45722
 C139 C 0.00189 0.15146 0.45329
 C140 C -0.01221 0.18041 0.49091
 C141 C -0.02785 0.15455 0.53341
 C142 C -0.02940 0.10050 0.53829
 C143 C 0.10811 0.00338 0.53672
 C144 C 0.15766 0.01112 0.52951
 C145 C 0.17438 -0.00667 0.48689
 C146 C 0.14095 -0.03248 0.45190
 C147 C 0.09112 -0.03929 0.45843
 C148 C 0.05170 -0.12696 0.54955
 C149 C 0.04792 -0.18004 0.55042
 C150 C 0.00467 -0.19043 0.50840
 C151 C -0.03493 -0.14626 0.46558
 C152 C -0.03105 -0.09306 0.46475
 H153 H -0.12485 0.07122 0.42898
 H154 H -0.21728 0.06602 0.43071
 H155 H -0.13680 -0.05922 0.58538
 H156 H -0.04378 -0.05356 0.58338
 H157 H 0.00744 0.07693 0.42628
 H158 H 0.01333 0.17107 0.41975
 H159 H -0.04159 0.08133 0.57147
 H160 H 0.09625 0.01674 0.57020
 H161 H 0.18330 0.03024 0.55769
 H162 H 0.15290 -0.04653 0.41873
 H163 H 0.06548 -0.05828 0.43005
 H164 H 0.08568 -0.12005 0.58214
 H165 H 0.07881 -0.21300 0.58421
 H166 H -0.06808 -0.15286 0.43195
 H167 H -0.06107 -0.05982 0.43065
 H168 H -0.03888 0.17628 0.56281
 C169 C -0.32518 0.48345 0.95242
 C170 C -0.33899 0.49319 0.99902
 C171 C -0.29571 0.49842 1.04528
 C172 C -0.24293 0.50065 1.04138
 C173 C -0.23211 0.49656 0.99157
 C174 C -0.27291 0.48441 0.94911
 C175 C -0.29773 0.51011 0.88766
 C176 C -0.35516 0.50924 0.89128
 H177 H -0.30361 0.50388 1.08320
 H178 H -0.21133 0.50712 1.07657
 H179 H -0.28381 0.48244 0.86273
 H180 H -0.29319 0.55192 0.87729
 H181 H -0.37433 0.48118 0.86830
 H182 H -0.38389 0.55061 0.88307
 C183 C 0.34792 0.49282 1.05241
 C184 C 0.35677 0.50763 1.00180
 C185 C 0.30993 0.51799 0.95166
 C186 C 0.25570 0.51873 0.95317
 C187 C 0.24682 0.50891 1.00478
 C188 C 0.29468 0.49318 1.05379
 C189 C 0.30504 0.51379 1.10581
 C190 C 0.36342 0.51350 1.10428
 H191 H 0.31460 0.52703 0.91113
 H192 H 0.22070 0.52785 0.91392
 H193 H 0.30627 0.48329 1.14211
 H194 H 0.27718 0.55536 1.09865
 H195 H 0.39819 0.48289 1.13975
 H196 H 0.36946 0.55493 1.09619
 C197 C 0.04910 -0.34372 0.52805
 C198 C -0.00173 -0.35586 0.50315
 C199 C -0.05223 -0.31324 0.48687
 C200 C -0.05059 -0.25970 0.49007
 C201 C 0.00151 -0.24726 0.50954
 C202 C 0.05061 -0.29106 0.53123
 C203 C 0.10472 -0.29794 0.52012
 C204 C 0.10306 -0.35566 0.51656
 H205 H -0.09308 -0.32064 0.47004
 H206 H -0.09010 -0.22798 0.47595
 H207 H 0.14012 -0.29647 0.55693
 H208 H 0.09966 -0.27124 0.47954
 H209 H 0.13752 -0.38735 0.55129
 H210 H 0.09702 -0.36251 0.47387
 C211 C 0.03532 0.30881 0.48348
 C212 C -0.01016 0.34698 0.48682
 C213 C -0.06036 0.33167 0.48181
 C214 C -0.06172 0.27771 0.48120
 C215 C -0.01333 0.23831 0.48427
 C216 C 0.03356 0.25585 0.48164
 C217 C 0.09442 0.23261 0.51756
 C218 C 0.09635 0.29059 0.51973
 H219 H -0.09765 0.36047 0.48144
 H220 H -0.09980 0.26628 0.48055
 H221 H 0.12015 0.21402 0.49428
 H222 H 0.10064 0.20646 0.55886
 H223 H 0.12332 0.30530 0.49781
 H224 H 0.10361 0.29811 0.56230
 C225 C 0.50904 -0.04026 -0.31078
 C226 C 0.50760 0.00668 -0.34761
 C227 C 0.50141 0.05563 -0.32939
 C228 C 0.50251 0.05558 -0.27446
 C229 C 0.50850 0.00696 -0.23688
 C230 C 0.50858 -0.03995 -0.25715
 C231 C 0.54872 -0.09565 -0.23289
 C232 C 0.54935 -0.09596 -0.29159
 H233 H 0.49738 0.09377 -0.35681
 H234 H 0.49943 0.09335 -0.26109
 H235 H 0.52858 -0.12568 -0.21736
 H236 H 0.59002 -0.09570 -0.20271
 H237 H 0.52968 -0.12627 -0.30978
 H238 H 0.59100 -0.09607 -0.29557
 C239 C 0.45280 0.05538 0.29875
 C240 C 0.46512 0.00706 0.33922
 C241 C 0.46989 -0.04186 0.32128
 C242 C 0.47037 -0.04261 0.26699
 C243 C 0.46613 0.00552 0.22943
 C244 C 0.45305 0.05464 0.24508
 C245 C 0.47886 0.10092 0.24237
 C246 C 0.47870 0.10172 0.30115
 H247 H 0.47672 -0.08007 0.35012
 H248 H 0.47714 -0.08132 0.25558
 H249 H 0.44950 0.13786 0.21004
 H250 H 0.52206 0.08877 0.24054
 H251 H 0.44930 0.13917 0.30262
 H252 H 0.52183 0.08999 0.33347
 C253 C 0.52931 -0.32746 0.04247
 C254 C 0.49180 -0.34185 -0.00045
 C255 C 0.45281 -0.29825 -0.04515
 C256 C 0.45277 -0.24332 -0.04476
 C257 C 0.49294 -0.23104 -0.00061
 C258 C 0.53055 -0.27524 0.04189
 C259 C 0.57945 -0.29086 0.09564
 C260 C 0.57851 -0.35025 0.09596
 H261 H 0.42238 -0.30644 -0.08003
 H262 H 0.42216 -0.21076 -0.07918
 H263 H 0.56767 -0.27602 0.12972
 H264 H 0.61769 -0.28166 0.08987
 H265 H 0.56664 -0.36988 0.13051
 H266 H 0.61595 -0.37508 0.08987
 C267 C 0.54584 0.30748 0.05290
 C268 C 0.53099 0.34723 0.00310
 C269 C 0.52344 0.32949 -0.04694
 C270 C 0.52311 0.27528 -0.04750
 C271 C 0.53012 0.23760 0.00192
 C272 C 0.54559 0.25396 0.05233
 C273 C 0.52273 0.24837 0.09888
 C274 C 0.52292 0.30700 0.09948
 H275 H 0.51469 0.35804 -0.08621
 H276 H 0.51464 0.26368 -0.08713
 H277 H 0.55366 0.21842 0.13751
 H278 H 0.47956 0.24271 0.08529
 H279 H 0.55391 0.31074 0.13850
 H280 H 0.47984 0.33540 0.08622
 C281 C -0.33973 0.04834 0.48846
 C282 C -0.35063 0.00101 0.51165
 C283 C -0.30698 -0.04817 0.52866
 C284 C -0.25277 -0.04812 0.52744
 C285 C -0.24125 0.00105 0.50865
 C286 C -0.28669 0.04832 0.48693
 C287 C -0.29108 0.10305 0.49951
 C288 C -0.34929 0.10306 0.50131
 H289 H -0.31428 -0.08645 0.54393
 H290 H -0.21996 -0.08637 0.54165
 H291 H -0.29252 0.13429 0.46370
 H292 H -0.25989 0.10152 0.54087
 H293 H -0.38418 0.13434 0.46657
 H294 H -0.35194 0.10149 0.54374
 C295 C 0.31511 -0.03776 0.46655
 C296 C 0.33455 0.00744 0.47677
 C297 C 0.29595 0.05282 0.48085
 C298 C 0.24271 0.04930 0.48244
 C299 C 0.22680 0.00073 0.47885
 C300 C 0.26240 -0.04072 0.46686
 C301 C 0.28330 -0.10040 0.49332
 C302 C 0.34129 -0.09719 0.49321
 H303 H 0.30822 0.08957 0.48666
 H304 H 0.21512 0.08363 0.48873
 H305 H 0.26427 -0.12451 0.46461
 H306 H 0.28142 -0.11038 0.53616
 H307 H 0.35571 -0.11962 0.46457
 H308 H 0.37300 -0.10530 0.53607
 C309 C -0.03737 0.50008 1.30173
 C310 C 0.00549 0.51016 1.34397
 C311 C 0.05510 0.51396 1.33335
 C312 C 0.05830 0.51388 1.27983
 C313 C 0.01245 0.50875 1.23622
 C314 C -0.03377 0.49894 1.24934
 C315 C -0.09537 0.52636 1.21985
 C316 C -0.09932 0.52782 1.27726
 H317 H 0.09074 0.51865 1.36580
 H318 H 0.09621 0.51861 1.27234
 H319 H -0.11816 0.49908 1.19916
 H320 H -0.10374 0.56742 1.19276
 H321 H -0.12456 0.50150 1.28951
 H322 H -0.10989 0.56975 1.28356
 C323 C 0.04293 0.45616 0.69577
 C324 C -0.00693 0.47319 0.64865
 C325 C -0.05859 0.48501 0.65817
 C326 C -0.05938 0.48703 0.71219
 C327 C -0.00852 0.47722 0.75783
 C328 C 0.04212 0.45786 0.74901
 C329 C 0.09518 0.47515 0.76502
 C330 C 0.09607 0.47343 0.70665
 H331 H -0.09843 0.49601 0.62350
 H332 H -0.09980 0.49889 0.71755
 H333 H 0.13054 0.44348 0.79891
 H334 H 0.08820 0.51689 0.77226
 H335 H 0.13201 0.44084 0.70699
 H336 H 0.08956 0.51421 0.67998
   
