data_POSCAR
  _audit_creation_date              2014-09-24
  _audit_creation_method            'ToBaCCo'
  _symmetry_space_group_name_H-M    'P1'
  _symmetry_Int_Tables_number       1
  _symmetry_cell_setting            triclinic
  loop_
  _symmetry_equiv_pos_as_xyz
 x,y,z
_cell_length_a 54.8061
_cell_length_b 55.7598
_cell_length_c 19.4560
_cell_angle_alpha 89.796100
_cell_angle_beta 90.414400
_cell_angle_gamma 119.488600
loop_
  _atom_site_label
  _atom_site_type_symbol
  _atom_site_fract_x
  _atom_site_fract_y
  _atom_site_fract_z
O1 O 0.26591 0.48706 0.56249
 O2 O 0.22148 0.48741 0.41791
 O3 O 0.26848 0.48617 0.42950
 O4 O 0.21647 0.48250 0.55130
 O5 O 0.23734 0.52792 0.55615
 O6 O 0.29046 0.53162 0.43315
 O7 O 0.24336 0.53284 0.42278
 O8 O 0.28682 0.53251 0.56587
 Cu9 Cu 0.24091 0.48128 0.48971
 Cu10 Cu 0.26653 0.53573 0.49460
 C11 C 0.28405 0.50999 0.58844
 C12 C 0.22494 0.51046 0.39604
 C13 C 0.28862 0.50927 0.41143
 C14 C 0.21797 0.50429 0.57496
 O15 O 0.52408 -0.25065 0.43477
 O16 O 0.51101 -0.21255 0.57062
 O17 O 0.52406 -0.25162 0.56733
 O18 O 0.51206 -0.21092 0.43607
 O19 O 0.46690 -0.24140 0.43401
 O20 O 0.47911 -0.28275 0.56359
 O21 O 0.46599 -0.24345 0.56871
 O22 O 0.47892 -0.28115 0.43150
 Cu23 Cu 0.52227 -0.22819 0.50250
 Cu24 Cu 0.46814 -0.26513 0.49943
 C25 C 0.50378 -0.27266 0.41075
 C26 C 0.48630 -0.22161 0.59316
 C27 C 0.50379 -0.27454 0.58637
 C28 C 0.48755 -0.21927 0.41225
 O29 O 1.27851 0.78592 0.46367
 O30 O 1.22861 0.73266 0.58216
 O31 O 1.27795 0.77588 0.59500
 O32 O 1.22829 0.74348 0.45262
 O33 O 1.24772 0.71789 0.42945
 O34 O 1.29662 0.74937 0.57548
 O35 O 1.24703 0.70631 0.55766
 O36 O 1.29848 0.76046 0.44522
 Cu37 Cu 1.25153 0.76219 0.52549
 Cu38 Cu 1.27448 0.73100 0.49950
 C39 C 1.29730 0.78236 0.43525
 C40 C 1.22896 0.71012 0.58879
 C41 C 1.29562 0.76817 0.60992
 C42 C 1.22913 0.72477 0.41769
 O43 O 0.72628 0.50126 0.56429
 O44 O 0.77408 0.50127 0.43098
 O45 O 0.72684 0.50174 0.43002
 O46 O 0.77385 0.50153 0.56514
 O47 O 0.75105 0.45603 0.56518
 O48 O 0.70393 0.45624 0.42950
 O49 O 0.75123 0.45577 0.43131
 O50 O 0.70340 0.45579 0.56340
 Cu51 Cu 0.75254 0.50600 0.49760
 Cu52 Cu 0.72511 0.45139 0.49731
 C53 C 0.70668 0.47845 0.58667
 C54 C 0.77072 0.47845 0.40845
 C55 C 0.70742 0.47906 0.40661
 C56 C 0.77044 0.47878 0.58836
 O57 O 0.45612 0.25370 0.44685
 O58 O 0.46815 0.21255 0.57875
 O59 O 0.46281 0.25608 0.57912
 O60 O 0.45572 0.20653 0.44811
 O61 O 0.50141 0.22926 0.43053
 O62 O 0.50830 0.28089 0.55983
 O63 O 0.51369 0.23698 0.56029
 O64 O 0.50160 0.27675 0.42689
 Cu65 Cu 0.45619 0.22981 0.51472
 Cu66 Cu 0.51079 0.25838 0.49205
 C67 C 0.47702 0.27258 0.41514
 C68 C 0.49315 0.21799 0.59223
 C69 C 0.48641 0.27690 0.59169
 C70 C 0.47720 0.20885 0.41833
 O71 O 0.75490 0.20502 0.42737
 O72 O 0.80207 0.25304 0.55853
 O73 O 0.75612 0.20543 0.55989
 O74 O 0.80159 0.25160 0.42490
 O75 O 0.77771 0.27400 0.42299
 O76 O 0.73116 0.22813 0.55836
 O77 O 0.77833 0.27551 0.55681
 O78 O 0.73059 0.22696 0.42553
 Cu79 Cu 0.78110 0.22678 0.49286
 Cu80 Cu 0.75219 0.25341 0.49083
 C81 C 0.73446 0.20749 0.40490
 C82 C 0.79856 0.27265 0.57953
 C83 C 0.73426 0.20728 0.58360
 C84 C 0.79762 0.27063 0.40121
 O85 O 1.04537 0.56129 0.12665
 O86 O 1.07369 0.54986 0.05794
 C87 C 1.07128 0.56495 0.10964
 O88 O 0.95508 0.44130 0.10887
 O89 O 0.92789 0.45510 0.04918
 C90 C 0.93104 0.43890 0.09177
 O91 O 1.03275 0.47213 0.11750
 O92 O 1.06708 0.50747 0.05503
 C93 C 1.05872 0.48821 0.10133
 O94 O 0.96801 0.53416 0.11894
 O95 O 0.93397 0.49914 0.05420
 C96 C 0.94206 0.51811 0.10112
 Zr97 Zr 1.00502 0.53513 0.08434
 O98 O 1.00246 0.53431 0.19287
 O99 O 1.01172 0.57579 0.07899
 Zr100 Zr 0.99605 0.47066 0.07827
 O101 O 0.99265 0.46798 0.18673
 O102 O 0.99341 0.43151 0.07325
 O103 O 1.02534 0.51202 0.09552
 O104 O 0.97638 0.49367 0.09353
 O105 O 0.96886 0.53792 -0.12160
 O106 O 0.93456 0.50094 -0.06327
 C107 C 0.94285 0.52129 -0.10620
 O108 O 1.03367 0.47737 -0.13782
 O109 O 1.06737 0.51020 -0.06801
 C110 C 1.05955 0.49329 -0.11952
 O111 O 0.95548 0.44496 -0.12995
 O112 O 0.92789 0.45673 -0.06623
 C113 C 0.93128 0.44185 -0.11223
 O114 O 1.04639 0.56470 -0.12577
 O115 O 1.07370 0.55271 -0.06005
 C116 C 1.07044 0.56749 -0.10691
 Zr117 Zr 1.00562 0.53769 -0.08822
 O118 O 1.00314 0.53887 -0.19675
 O119 O 1.01402 0.57896 -0.08116
 Zr120 Zr 0.99643 0.47303 -0.09442
 O121 O 0.99299 0.47113 -0.20280
 O122 O 0.99446 0.43411 -0.09301
 Zr123 Zr 1.04234 0.51958 -0.00411
 Zr124 Zr 0.95921 0.48859 -0.00600
 O125 O 0.97702 0.49658 -0.10473
 O126 O 1.02572 0.51479 -0.10447
 O127 O 0.98097 0.53197 -0.00200
 O128 O 1.02002 0.47630 -0.00821
 O129 O 1.03040 0.55007 -0.00066
 O130 O 0.97058 0.45755 -0.00907
 H131 H 0.96392 0.48840 0.13403
 H132 H 1.03078 0.46632 -0.01010
 H133 H 0.96473 0.49250 -0.14564
 H134 H 1.04523 0.56966 0.00155
 H135 H 0.97691 0.41950 0.04448
 H136 H 0.97606 0.42059 -0.07388
 H137 H 1.00623 0.48965 -0.22057
 H138 H 1.01690 0.53407 -0.21558
 H139 H 0.99975 0.57908 -0.05046
 H140 H 1.01269 0.58194 0.12714
 H141 H 1.01397 0.52639 0.21026
 H142 H 1.00971 0.48378 0.20609
 O143 O 0.44038 0.47657 0.11799
 O144 O 0.44098 0.50960 0.04616
 C145 C 0.43063 0.49238 0.09659
 O146 O 0.56664 0.53720 0.11719
 O147 O 0.56544 0.50108 0.05805
 C148 C 0.57656 0.52096 0.10243
 O149 O 0.51597 0.56369 0.11615
 O150 O 0.47629 0.55120 0.04482
 C151 C 0.49379 0.56707 0.09643
 O152 O 0.48633 0.44391 0.11807
 O153 O 0.52696 0.45634 0.05898
 C154 C 0.50773 0.44096 0.10265
 Zr155 Zr 0.47491 0.47286 0.08149
 O156 O 0.47646 0.47302 0.19023
 O157 O 0.43811 0.43385 0.08254
 Zr158 Zr 0.53054 0.53749 0.07840
 O159 O 0.53362 0.54231 0.18644
 O160 O 0.56439 0.57780 0.06467
 O161 O 0.48723 0.51453 0.09084
 O162 O 0.51782 0.49630 0.09524
 O163 O 0.48904 0.44262 -0.12199
 O164 O 0.52873 0.45614 -0.05692
 C165 C 0.51060 0.44049 -0.10250
 O166 O 0.51685 0.56169 -0.13733
 O167 O 0.47728 0.54994 -0.07445
 C168 C 0.49509 0.56404 -0.12181
 O169 O 0.56785 0.53519 -0.12412
 O170 O 0.56591 0.49984 -0.05899
 C171 C 0.57746 0.51904 -0.10518
 O172 O 0.44178 0.47279 -0.13691
 O173 O 0.44115 0.50722 -0.07420
 C174 C 0.43130 0.48843 -0.12170
 Zr175 Zr 0.47572 0.47070 -0.09145
 O176 O 0.47600 0.46620 -0.19926
 O177 O 0.43931 0.43148 -0.08428
 Zr178 Zr 0.53105 0.53568 -0.09390
 O179 O 0.53389 0.53410 -0.20211
 O180 O 0.56382 0.57714 -0.09277
 Zr181 Zr 0.47689 0.51927 -0.01101
 Zr182 Zr 0.52918 0.48880 -0.00203
 O183 O 0.51858 0.49429 -0.10294
 O184 O 0.48788 0.51203 -0.10922
 O185 O 0.48675 0.45760 -0.00219
 O186 O 0.51923 0.55016 -0.01005
 O187 O 0.45596 0.47600 -0.00755
 O188 O 0.55080 0.53224 -0.00531
 H189 H 0.52538 0.49182 0.13671
 H190 H 0.52373 0.56969 -0.01133
 H191 H 0.52649 0.48944 -0.14271
 H192 H 0.43519 0.46588 -0.00823
 H193 H 0.57026 0.58565 0.11138
 H194 H 0.57875 0.57813 -0.06204
 H195 H 0.51530 0.52915 -0.22171
 H196 H 0.48149 0.48441 -0.21960
 H197 H 0.44489 0.41862 -0.06373
 H198 H 0.44178 0.42126 0.05431
 H199 H 0.47683 0.49006 0.20597
 H200 H 0.52325 0.52371 0.20673
 O201 O 0.47381 0.03935 0.12742
 O202 O 0.50713 0.07009 0.05371
 C203 C 0.49055 0.06421 0.10556
 O204 O 0.53033 -0.02990 0.11617
 O205 O 0.49154 -0.06355 0.06042
 C206 C 0.51263 -0.05548 0.10241
 O207 O 0.55968 0.04681 0.11663
 O208 O 0.54864 0.07403 0.04900
 C209 C 0.56332 0.07066 0.09679
 O210 O 0.43782 -0.03824 0.12905
 O211 O 0.44692 -0.06745 0.06498
 C212 C 0.43315 -0.06263 0.11176
 Zr213 Zr 0.46734 0.00078 0.08947
 O214 O 0.46755 -0.00019 0.19829
 O215 O 0.42769 -0.00152 0.08680
 Zr216 Zr 0.53179 0.00662 0.07982
 O217 O 0.53762 0.00700 0.18735
 O218 O 0.57294 0.01311 0.06656
 O219 O 0.51020 0.02815 0.09600
 O220 O 0.48983 -0.01989 0.09970
 O221 O 0.43060 -0.04263 -0.10915
 O222 O 0.44447 -0.06967 -0.05011
 C223 C 0.42767 -0.06634 -0.09135
 O224 O 0.55403 0.04286 -0.13646
 O225 O 0.54520 0.07186 -0.07093
 C226 C 0.55813 0.06715 -0.11990
 O227 O 0.52444 -0.03358 -0.12327
 O228 O 0.48844 -0.06547 -0.05706
 C229 C 0.50759 -0.05865 -0.10372
 O230 O 0.46498 0.03369 -0.12495
 O231 O 0.50263 0.06743 -0.06626
 C232 C 0.48241 0.05925 -0.11106
 Zr233 Zr 0.46237 -0.00242 -0.08316
 O234 O 0.45773 -0.00754 -0.19111
 O235 O 0.42336 -0.00342 -0.07594
 Zr236 Zr 0.52692 0.00381 -0.09224
 O237 O 0.52412 -0.00055 -0.20048
 O238 O 0.56783 0.00909 -0.09010
 Zr239 Zr 0.51428 0.04302 -0.00561
 Zr240 Zr 0.47974 -0.03888 0.00239
 O241 O 0.48426 -0.02331 -0.09819
 O242 O 0.50448 0.02482 -0.10388
 O243 O 0.44962 -0.02586 0.00634
 O244 O 0.54415 0.02978 -0.00903
 O245 O 0.47035 0.02278 0.00146
 O246 O 0.52377 -0.01906 -0.00458
 H247 H 0.48567 -0.03145 0.14144
 H248 H 0.56425 0.04387 -0.01184
 H249 H 0.47794 -0.03624 -0.13759
 H250 H 0.46086 0.03399 0.00254
 H251 H 0.57143 -0.00305 0.04183
 H252 H 0.57321 0.00930 -0.13872
 H253 H 0.51765 0.01199 -0.21841
 H254 H 0.47441 0.00797 -0.21227
 H255 H 0.41237 -0.01704 -0.04004
 H256 H 0.42273 -0.00080 0.13533
 H257 H 0.48545 0.01557 0.21416
 H258 H 0.52110 0.00661 0.20842
 C259 C 1.20848 0.51192 0.34295
 C260 C 1.18679 0.48884 0.31068
 C261 C 1.16772 0.49101 0.25948
 C262 C 1.14067 0.46855 0.25048
 C263 C 1.12138 0.47054 0.20676
 C264 C 1.12876 0.49518 0.17102
 C265 C 1.15633 0.51704 0.17678
 C266 C 1.17565 0.51503 0.22042
 C267 C 1.10826 0.49889 0.12837
 C268 C 1.07942 0.48364 0.13919
 H269 H 1.18205 0.46847 0.32771
 H270 H 1.13420 0.44958 0.27863
 H271 H 1.10078 0.45271 0.20137
 H272 H 1.16279 0.53599 0.14857
 H273 H 1.19668 0.53237 0.22329
 H274 H 1.11616 0.51544 0.09100
 H275 H 1.21230 0.53225 0.32870
 H276 H 1.07129 0.46814 0.17909
 C277 C 0.50933 0.71218 0.36273
 C278 C 0.48831 0.68727 0.33561
 C279 C 0.49414 0.66868 0.29314
 C280 C 0.47275 0.64908 0.25106
 C281 C 0.47695 0.63012 0.21334
 C282 C 0.50262 0.63021 0.21775
 C283 C 0.52402 0.64982 0.25966
 C284 C 0.51987 0.66885 0.29706
 C285 C 0.50747 0.60977 0.18102
 C286 C 0.48797 0.59073 0.13553
 H287 H 0.46657 0.68082 0.34642
 H288 H 0.45265 0.64834 0.24771
 H289 H 0.45994 0.61519 0.18164
 H290 H 0.54392 0.65018 0.26426
 H291 H 0.53657 0.68300 0.33054
 H292 H 0.52696 0.60962 0.19009
 H293 H 0.53091 0.71984 0.34788
 H294 H 0.49100 0.57906 0.11643
 C295 C 0.31878 -0.19590 0.39229
 C296 C 0.31434 -0.17635 0.35834
 C297 C 0.33720 -0.15336 0.32075
 C298 C 0.33272 -0.14716 0.25353
 C299 C 0.35438 -0.12529 0.21778
 C300 C 0.38046 -0.10878 0.24981
 C301 C 0.38465 -0.11458 0.31764
 C302 C 0.36335 -0.13700 0.35248
 C303 C 0.40307 -0.08484 0.21423
 C304 C 0.41061 -0.08656 0.14699
 H305 H 0.29355 -0.17861 0.35673
 H306 H 0.31261 -0.15944 0.22848
 H307 H 0.35060 -0.12088 0.16578
 H308 H 0.40455 -0.10192 0.34334
 H309 H 0.36706 -0.14123 0.40473
 H310 H 0.41545 -0.06608 0.24328
 H311 H 0.33866 -0.19543 0.38646
 H312 H 0.40065 -0.10627 0.12084
 C313 C 0.78943 0.47779 0.35535
 C314 C 0.81065 0.50168 0.32504
 C315 C 0.83067 0.50172 0.27379
 C316 C 0.85566 0.52639 0.26149
 C317 C 0.87561 0.52715 0.21569
 C318 C 0.87096 0.50315 0.18094
 C319 C 0.84543 0.47881 0.19078
 C320 C 0.82549 0.47803 0.23661
 C321 C 0.89215 0.50253 0.13488
 C322 C 0.92079 0.52140 0.13942
 H323 H 0.81369 0.52143 0.34227
 H324 H 0.85993 0.54512 0.28805
 H325 H 0.89452 0.54660 0.20772
 H326 H 0.84109 0.46014 0.16378
 H327 H 0.80608 0.45885 0.24207
 H328 H 0.88524 0.48523 0.10008
 H329 H 0.78657 0.45782 0.34144
 H330 H 0.92835 0.53776 0.17705
 C331 C 0.47258 0.29028 0.36591
 C332 C 0.49513 0.31311 0.33519
 C333 C 0.49281 0.33418 0.29283
 C334 C 0.51701 0.35464 0.26046
 C335 C 0.51646 0.37590 0.22324
 C336 C 0.49152 0.37715 0.21732
 C337 C 0.46728 0.35663 0.24937
 C338 C 0.46783 0.33538 0.28663
 C339 C 0.48995 0.39984 0.18085
 C340 C 0.51058 0.41879 0.13683
 H341 H 0.51603 0.31627 0.34437
 H342 H 0.53663 0.35443 0.26480
 H343 H 0.53580 0.39150 0.20083
 H344 H 0.44781 0.35716 0.24614
 H345 H 0.44875 0.32047 0.31139
 H346 H 0.47118 0.40136 0.18826
 H347 H 0.45127 0.28576 0.35672
 H348 H 0.52900 0.41720 0.12536
 C349 C 0.71490 0.18679 0.35595
 C350 C 0.68979 0.18542 0.33521
 C351 C 0.66811 0.16224 0.29412
 C352 C 0.64802 0.16590 0.25747
 C353 C 0.62677 0.14414 0.21997
 C354 C 0.62513 0.11814 0.21880
 C355 C 0.64498 0.11443 0.25632
 C356 C 0.66619 0.13613 0.29357
 C357 C 0.60265 0.09405 0.18192
 C358 C 0.58540 0.09560 0.13084
 H359 H 0.68574 0.20184 0.35002
 H360 H 0.64871 0.18565 0.25807
 H361 H 0.61146 0.14772 0.19346
 H362 H 0.64398 0.09453 0.25728
 H363 H 0.68049 0.13202 0.32319
 H364 H 0.60005 0.07399 0.19467
 H365 H 0.72009 0.17149 0.33827
 H366 H 0.58818 0.11533 0.11442
 C367 C 0.49862 0.20307 -0.35827
 C368 C 0.47754 0.18179 -0.32002
 C369 C 0.48267 0.16416 -0.27124
 C370 C 0.45971 0.13921 -0.25013
 C371 C 0.46352 0.12117 -0.20729
 C372 C 0.49053 0.12764 -0.18468
 C373 C 0.51334 0.15318 -0.20273
 C374 C 0.50953 0.17130 -0.24563
 C375 C 0.49538 0.10804 -0.14308
 C376 C 0.47806 0.07964 -0.14918
 H377 H 0.45597 0.17667 -0.32907
 H378 H 0.43872 0.13341 -0.26777
 H379 H 0.44524 0.10219 -0.19200
 H380 H 0.53427 0.15887 -0.18486
 H381 H 0.52773 0.19072 -0.25825
 H382 H 0.51395 0.11598 -0.11088
 H383 H 0.52021 0.20809 -0.35140
 H384 H 0.46080 0.07163 -0.18553
 C385 C 0.68835 0.47776 -0.36281
 C386 C 0.69055 0.50159 -0.33300
 C387 C 0.67089 0.50154 -0.28053
 C388 C 0.67146 0.52646 -0.26581
 C389 C 0.65278 0.52739 -0.21872
 C390 C 0.63290 0.50329 -0.18520
 C391 C 0.63310 0.47861 -0.19760
 C392 C 0.65183 0.47766 -0.24464
 C393 C 0.61142 0.50294 -0.13835
 C394 C 0.60245 0.52244 -0.14156
 H395 H 0.70694 0.52145 -0.35075
 H396 H 0.68626 0.54530 -0.29147
 H397 H 0.65413 0.54707 -0.20878
 H398 H 0.61835 0.45981 -0.17168
 H399 H 0.65118 0.45818 -0.25217
 H400 H 0.60029 0.48520 -0.10516
 H401 H 0.67172 0.45772 -0.34741
 H402 H 0.61201 0.53932 -0.17765
 C403 C 0.81786 0.29133 -0.37352
 C404 C 0.81719 0.31470 -0.35003
 C405 C 0.84017 0.33654 -0.30830
 C406 C 0.83495 0.35471 -0.26946
 C407 C 0.85650 0.37613 -0.23162
 C408 C 0.88385 0.37987 -0.23232
 C409 C 0.88902 0.36182 -0.27169
 C410 C 0.86758 0.34051 -0.30932
 C411 C 0.90786 0.40250 -0.19509
 C412 C 0.90600 0.42010 -0.14690
 H413 H 0.79938 0.31732 -0.36308
 H414 H 0.81413 0.35240 -0.26856
 H415 H 0.85161 0.38979 -0.20308
 H416 H 0.90992 0.36435 -0.27394
 H417 H 0.87289 0.32776 -0.34050
 H418 H 0.92842 0.40512 -0.20565
 H419 H 0.83456 0.28762 -0.35649
 H420 H 0.88592 0.41788 -0.13313
 C421 C 0.48082 -0.20665 -0.35223
 C422 C 0.50245 -0.18293 -0.32198
 C423 C 0.49853 -0.16557 -0.27028
 C424 C 0.52255 -0.14328 -0.24168
 C425 C 0.52030 -0.12505 -0.19653
 C426 C 0.49388 -0.12859 -0.17915
 C427 C 0.46978 -0.15155 -0.20505
 C428 C 0.47200 -0.16978 -0.25057
 C429 C 0.49102 -0.10818 -0.13632
 C430 C 0.51090 -0.08022 -0.13854
 H431 H 0.52373 -0.17631 -0.33805
 H432 H 0.54325 -0.13967 -0.25508
 H433 H 0.53933 -0.10815 -0.17560
 H434 H 0.44920 -0.15487 -0.19184
 H435 H 0.45287 -0.18660 -0.27101
 H436 H 0.47171 -0.11474 -0.10842
 H437 H 0.45934 -0.21465 -0.33648
 H438 H 0.52885 -0.07336 -0.17186
 C439 C 0.30275 0.51125 -0.35549
 C440 C 0.30283 0.48804 -0.32884
 C441 C 0.32418 0.48998 -0.27849
 C442 C 0.33034 0.46839 -0.27473
 C443 C 0.35179 0.47036 -0.23171
 C444 C 0.36762 0.49410 -0.19148
 C445 C 0.36037 0.51496 -0.19223
 C446 C 0.33888 0.51297 -0.23516
 C447 C 0.39175 0.49784 -0.14869
 C448 C 0.40664 0.48405 -0.16191
 H449 H 0.28836 0.46801 -0.35009
 H450 H 0.31893 0.45019 -0.30634
 H451 H 0.35577 0.45321 -0.23031
 H452 H 0.37176 0.53314 -0.16051
 H453 H 0.33396 0.52951 -0.23409
 H454 H 0.39906 0.51313 -0.10812
 H455 H 0.31815 0.53157 -0.33796
 H456 H 0.40055 0.46973 -0.20434
 C457 C 1.20896 0.68876 -0.37141
 C458 C 1.18956 0.69151 -0.33106
 C459 C 1.16626 0.66740 -0.29776
 C460 C 1.15959 0.66901 -0.22914
 C461 C 1.13703 0.64643 -0.19782
 C462 C 1.12028 0.62229 -0.23557
 C463 C 1.12667 0.62089 -0.30455
 C464 C 1.14978 0.64310 -0.33515
 C465 C 1.09530 0.59905 -0.20483
 C466 C 1.09585 0.58937 -0.13911
 H467 H 1.19176 0.71166 -0.32225
 H468 H 1.17194 0.68768 -0.19976
 H469 H 1.13214 0.64811 -0.14481
 H470 H 1.11383 0.60255 -0.33462
 H471 H 1.15432 0.64162 -0.38856
 H472 H 1.07645 0.58845 -0.23591
 H473 H 1.20829 0.66900 -0.37272
 H474 H 1.11554 0.59765 -0.11126
 C475 C 0.78909 0.47853 -0.35738
 C476 C 0.81007 0.50287 -0.32796
 C477 C 0.83038 0.50379 -0.27598
 C478 C 0.85542 0.52866 -0.26587
 C479 C 0.87574 0.53018 -0.21953
 C480 C 0.87135 0.50674 -0.18224
 C481 C 0.84574 0.48226 -0.18988
 C482 C 0.82543 0.48072 -0.23621
 C483 C 0.89296 0.50671 -0.13623
 C484 C 0.92156 0.52534 -0.14254
 H485 H 0.81273 0.52234 -0.34661
 H486 H 0.85951 0.54690 -0.29479
 H487 H 0.89473 0.54973 -0.21331
 H488 H 0.84165 0.46405 -0.16089
 H489 H 0.80597 0.46146 -0.24030
 H490 H 0.88637 0.48967 -0.10059
 H491 H 0.78655 0.45878 -0.34212
 H492 H 0.92892 0.54180 -0.17988
 C493 C 0.48729 0.29650 -0.35727
 C494 C 0.51022 0.32263 -0.34726
 C495 C 0.50747 0.34342 -0.30628
 C496 C 0.53055 0.36365 -0.26971
 C497 C 0.52788 0.38322 -0.23038
 C498 C 0.50204 0.38291 -0.22781
 C499 C 0.47932 0.36316 -0.26606
 C500 C 0.48195 0.34369 -0.30493
 C501 C 0.49797 0.40335 -0.18900
 C502 C 0.51541 0.41960 -0.13587
 H503 H 0.53020 0.32804 -0.37040
 H504 H 0.55056 0.36416 -0.27119
 H505 H 0.54614 0.39871 -0.20336
 H506 H 0.45937 0.36281 -0.26602
 H507 H 0.46404 0.32916 -0.33486
 H508 H 0.47977 0.40528 -0.20236
 H509 H 0.46807 0.29060 -0.32960
 H510 H 0.53311 0.41747 -0.11905
 C511 C 0.71172 0.18381 -0.36023
 C512 C 0.68698 0.18306 -0.34164
 C513 C 0.66517 0.15978 -0.30214
 C514 C 0.64029 0.15979 -0.28587
 C515 C 0.61855 0.13727 -0.25236
 C516 C 0.62138 0.11428 -0.23446
 C517 C 0.64624 0.11427 -0.25074
 C518 C 0.66803 0.13684 -0.28381
 C519 C 0.59870 0.08983 -0.20028
 C520 C 0.57909 0.09123 -0.15781
 H521 H 0.68264 0.19888 -0.36079
 H522 H 0.63747 0.17707 -0.30012
 H523 H 0.59939 0.13769 -0.24223
 H524 H 0.64884 0.09675 -0.23769
 H525 H 0.68687 0.13605 -0.29593
 H526 H 0.59869 0.07046 -0.20479
 H527 H 0.72237 0.19567 -0.38776
 H528 H 0.58025 0.11086 -0.14797
 C529 C 1.19666 0.50130 -0.37529
 C530 C 1.19499 0.52351 -0.34780
 C531 C 1.17283 0.51986 -0.29870
 C532 C 1.17702 0.54202 -0.25683
 C533 C 1.15645 0.53919 -0.21015
 C534 C 1.13114 0.51423 -0.20488
 C535 C 1.12702 0.49197 -0.24651
 C536 C 1.14743 0.49485 -0.29339
 C537 C 1.10950 0.51228 -0.15637
 C538 C 1.08117 0.49242 -0.16187
 H539 H 1.21091 0.54426 -0.36113
 H540 H 1.19630 0.56155 -0.26006
 H541 H 1.16021 0.55667 -0.17861
 H542 H 1.10820 0.47216 -0.24320
 H543 H 1.14282 0.47743 -0.32589
 H544 H 1.11576 0.52840 -0.11818
 H545 H 1.18204 0.48052 -0.35935
 H546 H 1.07399 0.47719 -0.20235
 C547 C 0.50922 0.70901 -0.36908
 C548 C 0.48859 0.68243 -0.35083
 C549 C 0.49435 0.66264 -0.31283
 C550 C 0.47159 0.63872 -0.28636
 C551 C 0.47575 0.61890 -0.25247
 C552 C 0.50293 0.62265 -0.24397
 C553 C 0.52567 0.64628 -0.27160
 C554 C 0.52150 0.66611 -0.30565
 C555 C 0.50816 0.60215 -0.20796
 C556 C 0.48983 0.58400 -0.15912
 H557 H 0.46709 0.67538 -0.36650
 H558 H 0.45042 0.63523 -0.29236
 H559 H 0.45752 0.60049 -0.23436
 H560 H 0.54676 0.64944 -0.26670
 H561 H 0.53959 0.68370 -0.32723
 H562 H 0.52770 0.60234 -0.21756
 H563 H 0.53054 0.71702 -0.35107
 H564 H 0.47124 0.58494 -0.14527
 C565 C 0.31569 -0.21831 -0.33344
 C566 C 0.31411 -0.19862 -0.29241
 C567 C 0.33585 -0.18033 -0.24254
 C568 C 0.33043 -0.16242 -0.20328
 C569 C 0.35121 -0.14245 -0.16148
 C570 C 0.37800 -0.13988 -0.15822
 C571 C 0.38305 -0.15874 -0.19408
 C572 C 0.36227 -0.17870 -0.23642
 C573 C 0.40117 -0.11677 -0.12094
 C574 C 0.40361 -0.09067 -0.12108
 H575 H 0.29630 -0.19541 -0.29959
 H576 H 0.31024 -0.16335 -0.20639
 H577 H 0.34643 -0.12872 -0.13265
 H578 H 0.40352 -0.15720 -0.19185
 H579 H 0.36748 -0.19195 -0.26573
 H580 H 0.41800 -0.11949 -0.09982
 H581 H 0.33214 -0.22344 -0.32600
 H582 H 0.38827 -0.08738 -0.14865
 C583 C 0.48278 -0.20324 0.35888
 C584 C 0.50498 -0.17961 0.33030
 C585 C 0.50195 -0.16174 0.27816
 C586 C 0.52643 -0.13932 0.25220
 C587 C 0.52494 -0.12091 0.20584
 C588 C 0.49882 -0.12440 0.18467
 C589 C 0.47431 -0.14736 0.20835
 C590 C 0.47578 -0.16578 0.25495
 C591 C 0.49647 -0.10419 0.13958
 C592 C 0.51671 -0.07632 0.13908
 H593 H 0.52606 -0.17360 0.34772
 H594 H 0.54688 -0.13583 0.26840
 H595 H 0.54430 -0.10402 0.18676
 H596 H 0.45393 -0.15063 0.19226
 H597 H 0.45632 -0.18269 0.27311
 H598 H 0.47705 -0.11085 0.11141
 H599 H 0.46144 -0.21061 0.34211
 H600 H 0.53520 -0.06897 0.17124
 C601 C 0.31038 0.51008 0.36604
 C602 C 0.31105 0.48594 0.35034
 C603 C 0.33320 0.48489 0.30955
 C604 C 0.33611 0.46128 0.31424
 C605 C 0.35659 0.45921 0.27644
 C606 C 0.37426 0.48051 0.23217
 C607 C 0.37147 0.50427 0.22762
 C608 C 0.35106 0.50638 0.26563
 C609 C 0.39587 0.47781 0.19313
 C610 C 0.40667 0.49172 0.13155
 H611 H 0.29513 0.46670 0.37225
 H612 H 0.32259 0.44440 0.34766
 H613 H 0.35845 0.44082 0.28131
 H614 H 0.38525 0.52151 0.19563
 H615 H 0.34926 0.52473 0.25972
 H616 H 0.40326 0.46433 0.21311
 H617 H 0.32676 0.52995 0.34878
 H618 H 0.39812 0.50380 0.10902
 C619 C 1.20723 0.71019 0.36565
 C620 C 1.20270 0.68552 0.33647
 C621 C 1.17689 0.66673 0.29791
 C622 C 1.17710 0.64651 0.25568
 C623 C 1.15272 0.62728 0.22181
 C624 C 1.12746 0.62774 0.23010
 C625 C 1.12721 0.64792 0.27238
 C626 C 1.15162 0.66720 0.30611
 C627 C 1.10120 0.60737 0.19598
 C628 C 1.10068 0.58801 0.15066
 H629 H 1.21822 0.67909 0.34453
 H630 H 1.19618 0.64548 0.24921
 H631 H 1.15366 0.61192 0.18977
 H632 H 1.10799 0.64859 0.27996
 H633 H 1.15026 0.68181 0.34001
 H634 H 1.08199 0.60788 0.20575
 H635 H 1.19288 0.71785 0.35522
 H636 H 1.08560 0.57687 0.13179
 C637 C 0.47336 0.18677 0.37126
 C638 C 0.49545 0.18299 0.35015
 C639 C 0.49087 0.15796 0.31310
 C640 C 0.51240 0.15923 0.27220
 C641 C 0.50878 0.13595 0.23675
 C642 C 0.48347 0.11082 0.24178
 C643 C 0.46236 0.10925 0.28480
 C644 C 0.46593 0.13257 0.32004
 C645 C 0.47894 0.08597 0.20400
 C646 C 0.49185 0.08791 0.14133
 H647 H 0.51678 0.19878 0.36140
 H648 H 0.53204 0.17834 0.26737
 H649 H 0.52600 0.13763 0.20636
 H650 H 0.44296 0.08999 0.29066
 H651 H 0.44931 0.13042 0.35353
 H652 H 0.46469 0.06586 0.22505
 H653 H 0.45205 0.17184 0.35729
 H654 H 0.50460 0.10796 0.11820
 C655 C 0.68853 0.47895 0.35253
 C656 C 0.69166 0.50334 0.32421
 C657 C 0.67209 0.50422 0.27279
 C658 C 0.67100 0.52870 0.26503
 C659 C 0.65200 0.53010 0.21923
 C660 C 0.63366 0.50692 0.18005
 C661 C 0.63566 0.48284 0.18550
 C662 C 0.65464 0.48144 0.23134
 C663 C 0.61202 0.50680 0.13393
 C664 C 0.60140 0.52487 0.14099
 H665 H 0.70830 0.52282 0.34352
 H666 H 0.68461 0.54672 0.29538
 H667 H 0.65188 0.54937 0.21477
 H668 H 0.62212 0.46485 0.15501
 H669 H 0.65558 0.46254 0.23371
 H670 H 0.60223 0.49017 0.09694
 H671 H 0.67139 0.45920 0.33675
 H672 H 0.60983 0.54093 0.17945
 C673 C 0.81711 0.28918 0.34937
 C674 C 0.81727 0.31315 0.32784
 C675 C 0.83994 0.33425 0.28502
 C676 C 0.83515 0.35316 0.24777
 C677 C 0.85663 0.37400 0.20911
 C678 C 0.88340 0.37632 0.20747
 C679 C 0.88814 0.35754 0.24527
 C680 C 0.86679 0.33683 0.28376
 C681 C 0.90741 0.39849 0.17025
 C682 C 0.90567 0.41664 0.12352
 H683 H 0.80049 0.31683 0.34383
 H684 H 0.81479 0.35189 0.24890
 H685 H 0.85219 0.38838 0.18203
 H686 H 0.90864 0.35910 0.24577
 H687 H 0.87180 0.32350 0.31390
 H688 H 0.92786 0.40064 0.18058
 H689 H 0.83261 0.28427 0.33027
 H690 H 0.88567 0.41471 0.10944
   
