data_POSCAR
  _audit_creation_date              2014-09-24
  _audit_creation_method            'ToBaCCo'
  _symmetry_space_group_name_H-M    'P1'
  _symmetry_Int_Tables_number       1
  _symmetry_cell_setting            triclinic
  loop_
  _symmetry_equiv_pos_as_xyz
 x,y,z
_cell_length_a 28.1641
_cell_length_b 30.1650
_cell_length_c 24.2885
_cell_angle_alpha 89.283300
_cell_angle_beta 90.935300
_cell_angle_gamma 86.443100
loop_
  _atom_site_label
  _atom_site_type_symbol
  _atom_site_fract_x
  _atom_site_fract_y
  _atom_site_fract_z
C1 C 0.28861 0.27720 0.23024
 C2 C 0.24735 0.26926 0.25939
 C3 C 0.22044 0.30492 0.28228
 C4 C 0.23471 0.34854 0.27641
 C5 C 0.27564 0.35602 0.24606
 C6 C 0.30255 0.32062 0.22234
 C7 C 0.23084 0.22386 0.26223
 C8 C 0.25981 0.18921 0.28647
 C9 C 0.24599 0.14527 0.28492
 C10 C 0.20325 0.13638 0.25780
 C11 C 0.17420 0.17074 0.23283
 C12 C 0.18780 0.21459 0.23633
 H13 H 0.30862 0.24957 0.21169
 H14 H 0.18838 0.29843 0.30418
 H15 H 0.29334 0.19665 0.30556
 H16 H 0.16620 0.24137 0.21647
 H17 H 0.28656 0.38957 0.24108
 H18 H 0.19274 0.10252 0.25612
 C19 C 0.77915 0.77591 0.22464
 C20 C 0.74096 0.76759 0.25851
 C21 C 0.71641 0.80266 0.28511
 C22 C 0.73007 0.84649 0.27844
 C23 C 0.76874 0.85433 0.24421
 C24 C 0.79315 0.81933 0.21639
 C25 C 0.72514 0.72217 0.26296
 C26 C 0.75503 0.68842 0.28727
 C27 C 0.74238 0.64413 0.28663
 C28 C 0.69969 0.63397 0.26007
 C29 C 0.66959 0.66771 0.23515
 C30 C 0.68220 0.71190 0.23795
 H31 H 0.79706 0.74828 0.20363
 H32 H 0.68654 0.79528 0.31036
 H33 H 0.78854 0.69693 0.30547
 H34 H 0.65998 0.73821 0.21802
 H35 H 0.77904 0.88799 0.23849
 H36 H 0.69013 0.59980 0.25862
 C37 C 0.81221 0.28671 0.73491
 C38 C 0.76882 0.27567 0.75720
 C39 C 0.73979 0.30827 0.78324
 C40 C 0.75409 0.35206 0.78768
 C41 C 0.79707 0.36281 0.76325
 C42 C 0.82598 0.33049 0.73653
 C43 C 0.75303 0.23033 0.75056
 C44 C 0.77993 0.19396 0.77380
 C45 C 0.76800 0.15023 0.76300
 C46 C 0.72827 0.14373 0.72873
 C47 C 0.70041 0.18003 0.70620
 C48 C 0.71309 0.22328 0.71746
 H49 H 0.83406 0.26158 0.71391
 H50 H 0.70653 0.29893 0.80030
 H51 H 0.81102 0.20020 0.79862
 H52 H 0.69269 0.25158 0.69930
 H53 H 0.80842 0.39643 0.76517
 H54 H 0.71917 0.11029 0.71935
 C55 C 0.31392 0.80319 0.74166
 C56 C 0.27254 0.78669 0.76363
 C57 C 0.24633 0.81161 0.80254
 C58 C 0.26304 0.85154 0.82216
 C59 C 0.30679 0.86529 0.80362
 C60 C 0.33158 0.84250 0.76188
 C61 C 0.25940 0.74159 0.74946
 C62 C 0.28863 0.70496 0.76818
 C63 C 0.27804 0.66170 0.75417
 C64 C 0.23783 0.65531 0.72116
 C65 C 0.20768 0.69157 0.70269
 C66 C 0.21875 0.73484 0.71713
 H67 H 0.33346 0.78416 0.71091
 H68 H 0.21383 0.79927 0.81826
 H69 H 0.32004 0.71037 0.79296
 H70 H 0.19624 0.76324 0.70286
 H71 H 0.31995 0.89588 0.81899
 H72 H 0.23034 0.62185 0.70984
 C73 C 0.00489 0.07970 0.03916
 H74 H -0.01811 0.09130 0.00533
 C75 C 0.02525 0.11060 0.07322
 H76 H 0.01711 0.14570 0.06561
 C77 C 0.04588 0.02029 0.08827
 H78 H 0.05411 -0.01505 0.09338
 C79 C 0.06707 0.04998 0.12317
 H80 H 0.09103 0.03696 0.15550
 N81 N 0.01526 0.03543 0.04744
 C82 C 0.05777 -0.07999 -0.03120
 H83 H 0.03516 -0.10214 -0.01031
 C84 C 0.10024 -0.09717 -0.05405
 H85 H 0.10985 -0.13243 -0.05106
 C86 C 0.07472 -0.00693 -0.05831
 H87 H 0.06464 0.02827 -0.05932
 C88 C 0.11789 -0.02250 -0.08024
 H89 H 0.14097 0.00079 -0.09855
 Zn90 Zn -0.00808 -0.00801 0.00009
 N91 N 0.04587 -0.03553 -0.03388
 C92 C -0.04561 0.00796 -0.10771
 N93 N -0.05080 0.01799 -0.05357
 C94 C -0.08842 0.04433 -0.03618
 C95 C -0.12168 0.06328 -0.07415
 C96 C -0.07909 0.02495 -0.14684
 C97 C -0.05738 -0.08503 0.01354
 C98 C -0.08261 -0.11641 0.04151
 C99 C -0.07750 -0.07253 0.12372
 C100 C -0.05142 -0.04249 0.09451
 N101 N -0.04149 -0.04947 0.04056
 H102 H -0.01614 -0.01402 -0.12039
 H103 H -0.09250 0.05063 0.00729
 H104 H -0.15136 0.08445 -0.06005
 H105 H -0.07522 0.01644 -0.18977
 H106 H -0.05029 -0.08902 -0.02982
 H107 H -0.09478 -0.14478 0.01971
 H108 H -0.08502 -0.06669 0.16667
 H109 H -0.03981 -0.01330 0.11480
 C110 C 0.13108 -0.06804 -0.07807
 C111 C 0.05719 0.09589 0.11553
 C112 C -0.09311 -0.11012 0.09717
 C113 C -0.11724 0.05327 -0.13002
 C114 C 0.04049 0.59565 0.51279
 H115 H 0.02813 0.60120 0.47077
 C116 C 0.06470 0.62855 0.53941
 H117 H 0.07108 0.65904 0.51752
 C118 C 0.04812 0.54916 0.59212
 H119 H 0.04191 0.51814 0.61258
 C120 C 0.07313 0.58087 0.61995
 H121 H 0.08546 0.57399 0.66179
 N122 N 0.03296 0.55664 0.53914
 C123 C 0.05994 0.43762 0.45245
 H124 H 0.04024 0.41620 0.47829
 C125 C 0.09464 0.41885 0.41761
 H126 H 0.10169 0.38322 0.41824
 C127 C 0.07369 0.50971 0.41923
 H128 H 0.06505 0.54504 0.41930
 C129 C 0.10855 0.49246 0.38400
 H130 H 0.12659 0.51499 0.35767
 Zn131 Zn 0.00449 0.51025 0.50016
 N132 N 0.05068 0.48246 0.45330
 C133 C -0.06309 0.50451 0.41672
 N134 N -0.04695 0.53287 0.45482
 C135 C -0.06908 0.57370 0.46208
 C136 C -0.10880 0.58758 0.42959
 C137 C -0.10287 0.51686 0.38380
 C138 C 0.00889 0.43888 0.57993
 C139 C -0.01063 0.40849 0.61583
 C140 C -0.08876 0.44187 0.59323
 C141 C -0.06793 0.47101 0.55725
 N142 N -0.01995 0.46893 0.55080
 H143 H -0.04534 0.47191 0.41255
 H144 H -0.05686 0.59507 0.49401
 H145 H -0.12636 0.61988 0.43659
 H146 H -0.11532 0.49378 0.35384
 H147 H 0.04702 0.43825 0.57496
 H148 H 0.01257 0.38435 0.63819
 H149 H -0.12705 0.44378 0.59682
 H150 H -0.09035 0.49544 0.53456
 C151 C 0.11977 0.44651 0.38301
 C152 C 0.08223 0.62093 0.59326
 C153 C -0.06007 0.40990 0.62283
 C154 C -0.12623 0.55888 0.38992
 C155 C 0.53944 0.08268 0.51222
 H156 H 0.53142 0.08574 0.46873
 C157 C 0.56391 0.11574 0.53804
 H158 H 0.57537 0.14343 0.51394
 C159 C 0.53377 0.04381 0.59685
 H160 H 0.52129 0.01647 0.62030
 C161 C 0.55907 0.07562 0.62407
 H162 H 0.56610 0.07203 0.66789
 N163 N 0.52599 0.04681 0.54138
 C164 C 0.56276 -0.06930 0.46137
 H165 H 0.54905 -0.08995 0.49325
 C166 C 0.59852 -0.08695 0.42729
 H167 H 0.61242 -0.12085 0.43401
 C168 C 0.56148 -0.00028 0.41364
 H169 H 0.54603 0.03301 0.40726
 C170 C 0.59748 -0.01636 0.37916
 H171 H 0.61000 0.00506 0.34713
 Zn172 Zn 0.49896 -0.00054 0.50208
 N173 N 0.54563 -0.02633 0.45470
 C174 C 0.43040 -0.00469 0.41827
 N175 N 0.44697 0.02217 0.45779
 C176 C 0.42694 0.06382 0.46520
 C177 C 0.38881 0.08008 0.43168
 C178 C 0.39211 0.01005 0.38424
 C179 C 0.50884 -0.06400 0.58982
 C180 C 0.49226 -0.09024 0.63234
 C181 C 0.41313 -0.07990 0.59273
 C182 C 0.43089 -0.05267 0.55201
 N183 N 0.47780 -0.04414 0.55214
 H184 H 0.44696 -0.03771 0.41338
 H185 H 0.44015 0.08435 0.49748
 H186 H 0.37304 0.11309 0.43864
 H187 H 0.37932 -0.01179 0.35302
 H188 H 0.54609 -0.05718 0.58887
 H189 H 0.51657 -0.10312 0.66451
 H190 H 0.37529 -0.08426 0.59403
 H191 H 0.40662 -0.03673 0.52195
 C192 C 0.61668 -0.06008 0.38599
 C193 C 0.57527 0.11162 0.59427
 C194 C 0.44375 -0.09763 0.63455
 C195 C 0.37096 0.05301 0.39052
 C196 C 0.51334 0.57809 0.02898
 H197 H 0.49609 0.58983 -0.00895
 C198 C 0.53134 0.60861 0.06536
 H199 H 0.52725 0.64373 0.05539
 C200 C 0.54217 0.51816 0.08686
 H201 H 0.54646 0.48273 0.09461
 C202 C 0.56127 0.54748 0.12397
 H203 H 0.57982 0.53441 0.16059
 N204 N 0.51894 0.53379 0.04037
 C205 C 0.54996 0.42823 -0.07696
 H206 H 0.51684 0.41210 -0.08084
 C207 C 0.58972 0.41220 -0.10627
 H208 H 0.58682 0.38369 -0.13241
 C209 C 0.59324 0.48636 -0.04058
 H210 H 0.59449 0.51579 -0.01588
 C211 C 0.63347 0.47178 -0.06943
 H212 H 0.66539 0.48985 -0.06592
 Zn213 Zn 0.49787 0.49085 -0.00901
 N214 N 0.55232 0.46487 -0.04502
 C215 C 0.45933 0.50779 -0.11660
 N216 N 0.45449 0.51807 -0.06246
 C217 C 0.41926 0.54774 -0.04604
 C218 C 0.38774 0.56867 -0.08460
 C219 C 0.42785 0.52712 -0.15630
 C220 C 0.48330 0.40523 0.03831
 C221 C 0.45979 0.37544 0.07120
 C222 C 0.40323 0.43527 0.09487
 C223 C 0.42772 0.46378 0.06155
 N224 N 0.46664 0.44845 0.03354
 H225 H 0.48745 0.48449 -0.12933
 H226 H 0.41614 0.55603 -0.00308
 H227 H 0.36003 0.59221 -0.07081
 H228 H 0.43199 0.51841 -0.19914
 H229 H 0.51519 0.39379 0.01740
 H230 H 0.47352 0.34117 0.07436
 H231 H 0.37238 0.44872 0.11626
 H232 H 0.41587 0.49843 0.05867
 C233 C 0.63203 0.43448 -0.10311
 C234 C 0.55620 0.59335 0.11314
 C235 C 0.41905 0.39028 0.09997
 C236 C 0.39181 0.55821 -0.14046
 N237 N 0.21491 -0.06044 -0.09470
 N238 N 0.25084 -0.08120 -0.12006
 C239 C 0.23498 -0.11917 -0.14024
 C240 C 0.18773 -0.12110 -0.12590
 N241 N 0.17671 -0.08372 -0.09779
 H242 H 0.16303 -0.14554 -0.13761
 N243 N 0.18483 0.45424 0.31925
 N244 N 0.21577 0.42955 0.29060
 C245 C 0.20713 0.38676 0.30063
 C246 C 0.16960 0.38615 0.33671
 N247 N 0.15670 0.42898 0.34738
 H248 H 0.15356 0.35743 0.35356
 N249 N 0.68357 -0.05053 0.32543
 N250 N 0.71470 -0.07471 0.29638
 C251 C 0.70524 -0.11768 0.30397
 C252 C 0.66709 -0.11887 0.33917
 N253 N 0.65472 -0.07637 0.35149
 H254 H 0.64939 -0.14747 0.35369
 N255 N 0.70701 0.44768 -0.14716
 N256 N 0.74015 0.42666 -0.17676
 C257 C 0.72682 0.38488 -0.18404
 C258 C 0.68383 0.38119 -0.15771
 N259 N 0.67284 0.42109 -0.13524
 H260 H 0.66304 0.35237 -0.15420
 N261 N -0.17583 0.04599 -0.20367
 N262 N -0.20788 0.07118 -0.23227
 C263 C -0.20428 0.11344 -0.21555
 C264 C -0.16896 0.11311 -0.17518
 N265 N -0.15229 0.07059 -0.16921
 H266 H -0.15685 0.14059 -0.15162
 N267 N -0.19413 0.54316 0.33091
 N268 N -0.22965 0.56457 0.30326
 C269 C -0.22565 0.60831 0.31164
 C270 C -0.18647 0.61291 0.34565
 N271 N -0.16780 0.57156 0.35675
 H272 H -0.17253 0.64329 0.36030
 N273 N 0.30420 0.04157 0.32810
 N274 N 0.27049 0.06487 0.29976
 C275 C 0.27635 0.10813 0.30959
 C276 C 0.31487 0.11050 0.34521
 N277 N 0.33120 0.06827 0.35583
 H278 H 0.32972 0.13996 0.36143
 N279 N 0.34520 0.55812 -0.22599
 N280 N 0.31454 0.58454 -0.25490
 C281 C 0.30922 0.62303 -0.22732
 C282 C 0.33745 0.61924 -0.18028
 N283 N 0.35921 0.57824 -0.18095
 H284 H 0.34171 0.64378 -0.14873
 N285 N -0.11918 -0.18443 0.11533
 N286 N -0.14926 -0.20437 0.14725
 C287 C -0.17042 -0.17283 0.17924
 C288 C -0.15171 -0.13276 0.16598
 N289 N -0.12008 -0.14150 0.12607
 H290 H -0.16091 -0.10017 0.18216
 N291 N -0.06292 0.33740 0.66852
 N292 N -0.09248 0.31493 0.69849
 C293 C -0.13070 0.34282 0.70803
 C294 C -0.12367 0.38300 0.68273
 N295 N -0.08112 0.37828 0.65833
 H296 H -0.14790 0.41228 0.68085
 N297 N 0.42976 -0.09656 0.73214
 N298 N 0.39852 -0.11066 0.76739
 C299 C 0.37240 -0.13982 0.74046
 C300 C 0.38893 -0.14321 0.68722
 N301 N 0.42447 -0.11541 0.68373
 H302 H 0.37346 -0.16027 0.65299
 N303 N 0.40578 0.31658 0.13791
 N304 N 0.37576 0.29689 0.17025
 C305 C 0.34399 0.32878 0.18761
 C306 C 0.35557 0.36869 0.16456
 N307 N 0.39429 0.35977 0.13373
 H308 H 0.33673 0.40072 0.16882
 N309 N 0.06781 0.17052 0.15026
 N310 N 0.09807 0.19160 0.18129
 C311 C 0.13124 0.16079 0.20047
 C312 C 0.12023 0.12012 0.18001
 N313 N 0.08046 0.12751 0.14890
 H314 H 0.14076 0.08878 0.18468
 N315 N 0.10920 0.69576 0.60703
 N316 N 0.14206 0.71573 0.63562
 C317 C 0.16565 0.68417 0.66718
 C318 C 0.14572 0.64424 0.65722
 N319 N 0.11073 0.65282 0.61955
 H320 H 0.15653 0.61180 0.67422
 N321 N 0.60699 0.18478 0.60420
 N322 N 0.63996 0.20405 0.63333
 C323 C 0.65954 0.17306 0.66884
 C324 C 0.63703 0.13419 0.66080
 N325 N 0.60457 0.14288 0.62024
 H326 H 0.64452 0.10227 0.68093
 N327 N 0.56460 0.66722 0.15061
 N328 N 0.59388 0.68807 0.18309
 C329 C 0.62677 0.65724 0.20290
 C330 C 0.61649 0.61666 0.18148
 N331 N 0.57755 0.62432 0.14902
 H332 H 0.63721 0.58536 0.18582
   
