data_POSCAR
  _audit_creation_date              2014-09-24
  _audit_creation_method            'ToBaCCo'
  _symmetry_space_group_name_H-M    'P1'
  _symmetry_Int_Tables_number       1
  _symmetry_cell_setting            triclinic
  loop_
  _symmetry_equiv_pos_as_xyz
 x,y,z
_cell_length_a 22.2777
_cell_length_b 22.2513
_cell_length_c 11.7823
_cell_angle_alpha 90.122000
_cell_angle_beta 90.119900
_cell_angle_gamma 117.752000
loop_
  _atom_site_label
  _atom_site_type_symbol
  _atom_site_fract_x
  _atom_site_fract_y
  _atom_site_fract_z
C1 C 0.57792 0.93074 0.55192
 C2 C 0.59038 0.93533 0.43351
 C3 C 0.62859 0.99899 0.38313
 C4 C 0.65830 1.05960 0.44720
 C5 C 0.65030 1.05444 0.56739
 C6 C 0.60739 0.99116 0.61603
 H7 H 0.60122 0.98893 0.70728
 H8 H 0.63520 1.00061 0.29192
 C9 C 0.05449 0.65972 0.55992
 C10 C 0.05723 0.65940 0.44004
 C11 C -0.00262 0.62423 0.37722
 C12 C -0.06573 0.58948 0.43057
 C13 C -0.06835 0.58563 0.55086
 C14 C -0.00847 0.62239 0.61386
 H15 H -0.01016 0.61878 0.70559
 H16 H 0.00016 0.62570 0.28528
 C17 C 0.34599 0.41439 0.56144
 C18 C 0.35711 0.41975 0.44269
 C19 C 0.40122 0.39803 0.39455
 C20 C 0.43101 0.36578 0.45914
 C21 C 0.41400 0.35350 0.57592
 C22 C 0.37238 0.37843 0.62481
 H23 H 0.36135 0.37040 0.71474
 H24 H 0.40951 0.40352 0.30376
 O25 O 0.35247 0.57055 -0.09935
 O26 O 0.43194 0.69834 -0.14566
 C27 C 0.44242 0.75838 -0.16595
 O28 O 0.42078 0.79028 -0.10196
 O29 O 0.29114 0.74909 -0.13006
 C30 C 0.23165 0.70219 -0.14910
 O31 O 0.20445 0.64802 -0.09096
 O32 O 0.25143 0.56334 -0.13638
 C33 C 0.29849 0.54841 -0.15813
 O34 O 0.37302 0.59933 0.12273
 O35 O 0.45936 0.72570 0.07851
 C36 C 0.45107 0.76854 0.13931
 O37 O 0.40183 0.78137 0.12511
 O38 O 0.27327 0.74514 0.09791
 C39 C 0.23207 0.69391 0.15477
 O40 O 0.22019 0.63361 0.13203
 O41 O 0.26151 0.54356 0.08904
 C42 C 0.31414 0.55203 0.14428
 Cr43 Cr 0.40168 0.64946 -0.01069
 Cr44 Cr 0.34606 0.76312 -0.00226
 Cr45 Cr 0.23769 0.59960 -0.00151
 O46 O 0.32836 0.67081 -0.00384
 O47 O 0.54155 0.26036 -0.08038
 O48 O 0.62956 0.21454 -0.11841
 C49 C 0.68875 0.22143 -0.13483
 O50 O 0.74017 0.26158 -0.07629
 O51 O 0.78131 0.38758 -0.12920
 C52 C 0.76870 0.43473 -0.16137
 O53 O 0.72913 0.45182 -0.10826
 O54 O 0.60091 0.36711 -0.13747
 C55 C 0.55023 0.30898 -0.14621
 O56 O 0.56887 0.26254 0.14345
 O57 O 0.64823 0.20782 0.10414
 C58 C 0.70072 0.23715 0.16621
 O59 O 0.74705 0.29664 0.14645
 O60 O 0.79533 0.42464 0.09103
 C61 C 0.76663 0.45455 0.14268
 O62 O 0.70732 0.44448 0.11922
 O63 O 0.57909 0.36360 0.09239
 C64 C 0.55913 0.31355 0.16121
 Cr65 Cr 0.59941 0.23947 0.01169
 Cr66 Cr 0.76297 0.34221 0.00800
 Cr67 Cr 0.65470 0.40416 -0.00831
 O68 O 0.67257 0.32891 0.00317
 N69 N 0.48615 0.76091 -0.35655
 N70 N 0.52101 0.80605 -0.43552
 C71 C 0.53854 0.86833 -0.39202
 C72 C 0.51244 0.85924 -0.28297
 N73 N 0.48058 0.79204 -0.26450
 H74 H 0.51457 0.89714 -0.22310
 N75 N 0.21716 0.76171 -0.31217
 N76 N 0.17140 0.75204 -0.39187
 C77 C 0.11671 0.69215 -0.36944
 C78 C 0.13029 0.66561 -0.27286
 N79 N 0.19338 0.71030 -0.24014
 H80 H 0.09845 0.61736 -0.23282
 N81 N 0.26226 0.50736 -0.35016
 N82 N 0.27555 0.47286 -0.42927
 C83 C 0.31431 0.44785 -0.38092
 C84 C 0.32425 0.46867 -0.26849
 N85 N 0.29145 0.50568 -0.25327
 H86 H 0.35695 0.46282 -0.20624
 N87 N 0.75659 0.19785 -0.27227
 N88 N 0.74775 0.15448 -0.35579
 C89 C 0.68093 0.11004 -0.35861
 C90 C 0.64947 0.12627 -0.27201
 N91 N 0.69807 0.18193 -0.22192
 H92 H 0.59614 0.10154 -0.25019
 N93 N 0.78904 0.43240 -0.36061
 N94 N 0.83239 0.47056 -0.43860
 C95 C 0.87118 0.53205 -0.39137
 C96 C 0.85030 0.52988 -0.27997
 N97 N 0.79826 0.46717 -0.26550
 H98 H 0.87319 0.56807 -0.21437
 N99 N 0.43309 0.25775 -0.20714
 N100 N 0.39448 0.26860 -0.28120
 C101 C 0.43621 0.31733 -0.35292
 C102 C 0.50231 0.33750 -0.31780
 N103 N 0.49793 0.29895 -0.22662
 H104 H 0.54807 0.38049 -0.34763
 N105 N 0.77037 0.51543 0.31530
 N106 N 0.81398 0.55098 0.39597
 C107 C 0.87532 0.55885 0.36358
 C108 C 0.86798 0.52764 0.25912
 N109 N 0.80165 0.50039 0.23327
 H110 H 0.90582 0.52099 0.21093
 N111 N 0.73788 0.23077 0.35746
 N112 N 0.72626 0.18421 0.43595
 C113 C 0.68736 0.12263 0.38888
 C114 C 0.67531 0.13372 0.27723
 N115 N 0.70731 0.20133 0.26179
 H116 H 0.64251 0.09705 0.21533
 N117 N 0.50655 0.26773 0.34367
 N118 N 0.47411 0.28087 0.42646
 C119 C 0.47094 0.33795 0.39748
 C120 C 0.50262 0.35917 0.29318
 N121 N 0.52364 0.31387 0.26256
 H122 H 0.50869 0.40243 0.24330
 N123 N 0.20757 0.76463 0.28642
 N124 N 0.16239 0.75743 0.36546
 C125 C 0.12140 0.69015 0.37634
 C126 C 0.14206 0.65644 0.30042
 N127 N 0.19604 0.70450 0.24653
 H128 H 0.11804 0.60251 0.28223
 N129 N 0.55163 0.79306 0.25284
 N130 N 0.58967 0.83613 0.33270
 C131 C 0.56075 0.87601 0.35705
 C132 C 0.50440 0.85685 0.28894
 N133 N 0.50029 0.80473 0.22553
 H134 H 0.47087 0.87966 0.28391
 N135 N 0.24744 0.45607 0.26713
 N136 N 0.25680 0.41991 0.34793
 C137 C 0.32433 0.44761 0.36524
 C138 C 0.35625 0.50113 0.29153
 N139 N 0.30648 0.50503 0.23254
 H140 H 0.41018 0.53333 0.28081
   
