data_POSCAR
  _audit_creation_date              2014-09-24
  _audit_creation_method            'ToBaCCo'
  _symmetry_space_group_name_H-M    'P1'
  _symmetry_Int_Tables_number       1
  _symmetry_cell_setting            triclinic
  loop_
  _symmetry_equiv_pos_as_xyz
 x,y,z
_cell_length_a 54.6755
_cell_length_b 54.6755
_cell_length_c 53.6991
_cell_angle_alpha 89.975100
_cell_angle_beta 89.975300
_cell_angle_gamma 90.010500
loop_
  _atom_site_label
  _atom_site_type_symbol
  _atom_site_fract_x
  _atom_site_fract_y
  _atom_site_fract_z
O1 O -0.02488 0.27325 0.02465
 O2 O 0.02308 0.27368 -0.02352
 O3 O -0.02457 0.27353 -0.02379
 O4 O 0.02276 0.27337 0.02495
 O5 O 0.02286 0.23303 0.02470
 O6 O -0.02443 0.23319 -0.02403
 O7 O 0.02319 0.23339 -0.02375
 O8 O -0.02476 0.23292 0.02440
 Cu9 Cu -0.00091 0.27750 0.00060
 Cu10 Cu -0.00077 0.22909 0.00030
 C11 C -0.03307 0.25300 0.03275
 C12 C 0.03142 0.25361 -0.03192
 C13 C -0.03265 0.25338 -0.03223
 C14 C 0.03093 0.25317 0.03316
 O15 O 0.47713 0.77327 0.52465
 O16 O 0.52491 0.77337 0.47630
 O17 O 0.47726 0.77345 0.47615
 O18 O 0.52478 0.77310 0.52478
 O19 O 0.52465 0.73276 0.52459
 O20 O 0.47716 0.73312 0.47599
 O21 O 0.52479 0.73303 0.47613
 O22 O 0.47702 0.73293 0.52448
 Cu23 Cu 0.50102 0.77734 0.50049
 Cu24 Cu 0.50089 0.72892 0.50028
 C25 C 0.46888 0.75308 0.53285
 C26 C 0.53306 0.75322 0.46795
 C27 C 0.46906 0.75334 0.46774
 C28 C 0.53287 0.75286 0.53300
 O29 O 1.02564 0.72774 0.02473
 O30 O 0.97794 0.72736 -0.02368
 O31 O 1.02557 0.72747 -0.02376
 O32 O 0.97801 0.72775 0.02483
 O33 O 0.97800 0.76808 0.02452
 O34 O 1.02553 0.76776 -0.02404
 O35 O 0.97791 0.76769 -0.02398
 O36 O 1.02562 0.76803 0.02444
 Cu37 Cu 1.00179 0.72355 0.00056
 Cu38 Cu 1.00176 0.77192 0.00020
 C39 C 1.03386 0.74795 0.03293
 C40 C 0.96976 0.74746 -0.03214
 C41 C 1.03375 0.74758 -0.03228
 C42 C 0.96986 0.74797 0.03301
 O43 O 0.52259 0.22915 0.52524
 O44 O 0.47490 0.22873 0.47691
 O45 O 0.52249 0.22879 0.47674
 O46 O 0.47499 0.22923 0.52539
 O47 O 0.47502 0.26957 0.52500
 O48 O 0.52251 0.26912 0.47637
 O49 O 0.47491 0.26907 0.47652
 O50 O 0.52262 0.26948 0.52488
 Cu51 Cu 0.49875 0.22493 0.50111
 Cu52 Cu 0.49877 0.27335 0.50065
 C53 C 0.53076 0.24938 0.53337
 C54 C 0.46674 0.24883 0.46842
 C55 C 0.53062 0.24888 0.46820
 C56 C 0.46687 0.24948 0.53354
 O57 O 0.72862 0.02240 -0.02465
 O58 O 0.72828 -0.02554 0.02352
 O59 O 0.72838 0.02207 0.02387
 O60 O 0.72857 -0.02521 -0.02492
 O61 O 0.76891 -0.02525 -0.02469
 O62 O 0.76871 0.02201 0.02408
 O63 O 0.76858 -0.02560 0.02374
 O64 O 0.76895 0.02235 -0.02443
 Cu65 Cu 0.72442 -0.00155 -0.00056
 Cu66 Cu 0.77283 -0.00161 -0.00030
 C67 C 0.74884 0.03057 -0.03282
 C68 C 0.74837 -0.03386 0.03192
 C69 C 0.74852 0.03012 0.03235
 C70 C 0.74878 -0.03335 -0.03315
 O71 O 0.22649 0.52433 0.47527
 O72 O 0.22591 0.47654 0.52361
 O73 O 0.22628 0.52419 0.52378
 O74 O 0.22620 0.47669 0.47513
 O75 O 0.26654 0.47643 0.47534
 O76 O 0.26662 0.52391 0.52395
 O77 O 0.26625 0.47627 0.52380
 O78 O 0.26683 0.52406 0.47546
 Cu79 Cu 0.22218 0.50047 0.49943
 Cu80 Cu 0.27060 0.50015 0.49966
 C81 C 0.24676 0.53239 0.46708
 C82 C 0.24599 0.46820 0.53197
 C83 C 0.24647 0.53219 0.53220
 C84 C 0.24636 0.46840 0.46692
 O85 O 0.27210 1.02517 0.02360
 O86 O 0.27217 0.97748 -0.02482
 O87 O 0.27169 1.02511 -0.02491
 O88 O 0.27247 0.97754 0.02367
 O89 O 0.23213 0.97722 0.02397
 O90 O 0.23140 1.02475 -0.02458
 O91 O 0.23184 0.97713 -0.02451
 O92 O 0.23181 1.02484 0.02392
 Cu93 Cu 0.27614 1.00137 -0.00065
 Cu94 Cu 0.22777 1.00096 -0.00027
 C95 C 0.25195 1.03322 0.03212
 C96 C 0.25202 0.96912 -0.03296
 C97 C 0.25141 1.03313 -0.03313
 C98 C 0.25242 0.96922 0.03214
 O99 O 0.77322 0.52267 0.52310
 O100 O 0.77277 0.47493 0.47481
 O101 O 0.77273 0.52255 0.47459
 O102 O 0.77313 0.47504 0.52324
 O103 O 0.73279 0.47508 0.52360
 O104 O 0.73239 0.52256 0.47499
 O105 O 0.73243 0.47494 0.47518
 O106 O 0.73288 0.52269 0.52348
 Cu107 Cu 0.77701 0.49881 0.49889
 Cu108 Cu 0.72858 0.49884 0.49935
 C109 C 0.75313 0.53085 0.53158
 C110 C 0.75252 0.46671 0.46675
 C111 C 0.75248 0.53069 0.46645
 C112 C 0.75302 0.46689 0.53172
 C113 C 0.24979 0.23143 0.23119
 C114 C 0.23070 0.24890 0.23204
 C115 C 0.23048 0.26646 0.25108
 C116 C 0.24905 0.26730 0.26907
 C117 C 0.26813 0.24981 0.26825
 C118 C 0.26836 0.23227 0.24919
 H119 H 0.28275 0.21862 0.24883
 H120 H 0.21610 0.28011 0.25144
 C121 C 0.75063 0.76798 0.23100
 C122 C 0.76909 0.74983 0.23121
 C123 C 0.76869 0.73168 0.24968
 C124 C 0.75050 0.73133 0.26810
 C125 C 0.73235 0.74979 0.26822
 C126 C 0.73259 0.76778 0.24958
 H127 H 0.71857 0.78181 0.24955
 H128 H 0.78271 0.71765 0.24971
 C129 C 0.76653 0.24812 0.23131
 C130 C 0.74840 0.22964 0.23152
 C131 C 0.73017 0.23006 0.24992
 C132 C 0.72972 0.24832 0.26826
 C133 C 0.74816 0.26651 0.26834
 C134 C 0.76622 0.26623 0.24980
 H135 H 0.78023 0.28028 0.24976
 H136 H 0.71617 0.21601 0.24996
 C137 C 0.23230 0.75153 0.23174
 C138 C 0.25138 0.76904 0.23098
 C139 C 0.26992 0.76822 0.24901
 C140 C 0.26969 0.75065 0.26807
 C141 C 0.25061 0.73315 0.26884
 C142 C 0.23207 0.73397 0.25079
 H143 H 0.21771 0.72029 0.25112
 H144 H 0.28428 0.78190 0.24868
 C145 C 0.73101 0.24965 0.73180
 C146 C 0.74955 0.26772 0.73154
 C147 C 0.76765 0.26742 0.75003
 C148 C 0.76789 0.24938 0.76860
 C149 C 0.74969 0.23096 0.76853
 C150 C 0.73142 0.23143 0.75021
 H151 H 0.71734 0.21746 0.75027
 H152 H 0.78172 0.28140 0.74996
 C153 C 0.26806 0.75061 0.73105
 C154 C 0.25058 0.73151 0.73190
 C155 C 0.23307 0.73129 0.75101
 C156 C 0.23227 0.74987 0.76901
 C157 C 0.24972 0.76899 0.76813
 C158 C 0.26724 0.76920 0.74904
 H159 H 0.28089 0.78359 0.74863
 H160 H 0.21942 0.71690 0.75141
 C161 C 0.24819 0.26938 0.73219
 C162 C 0.26672 0.25130 0.73239
 C163 C 0.26641 0.23317 0.75088
 C164 C 0.24824 0.23277 0.76934
 C165 C 0.23002 0.25117 0.76946
 C166 C 0.23018 0.26914 0.75080
 H167 H 0.21611 0.28312 0.75077
 H168 H 0.28048 0.21919 0.75091
 C169 C 0.75191 0.73001 0.73117
 C170 C 0.73440 0.74908 0.73038
 C171 C 0.73525 0.76764 0.74838
 C172 C 0.75284 0.76744 0.76739
 C173 C 0.77035 0.74838 0.76819
 C174 C 0.76950 0.72981 0.75019
 H175 H 0.78317 0.71544 0.75053
 H176 H 0.72158 0.78200 0.74806
 C177 C 0.27404 0.07896 0.07843
 C178 C 0.25191 0.08783 0.08786
 C179 C 0.22979 0.07859 0.07878
 C180 C 0.22975 0.06054 0.06034
 C181 C 0.25194 0.05140 0.05065
 C182 C 0.27411 0.06091 0.05999
 C183 C 0.25189 0.10643 0.10684
 C184 C 0.25184 0.12201 0.12273
 C185 C 0.25172 0.14028 0.14130
 C186 C 0.25155 0.15592 0.15714
 C187 C 0.25126 0.17463 0.17600
 C188 C 0.23066 0.17757 0.19120
 C189 C 0.23023 0.19590 0.20933
 C190 C 0.25036 0.21163 0.21232
 C191 C 0.27110 0.20837 0.19723
 C192 C 0.27151 0.19001 0.17911
 H193 H 0.29128 0.08599 0.08533
 H194 H 0.21254 0.08535 0.08595
 H195 H 0.21230 0.05379 0.05372
 H196 H 0.29157 0.05444 0.05310
 H197 H 0.21492 0.16572 0.18902
 H198 H 0.21421 0.19786 0.22102
 H199 H 0.28681 0.22028 0.19926
 H200 H 0.28756 0.18788 0.16747
 C201 C 0.73145 0.57744 0.57899
 C202 C 0.75369 0.58649 0.58801
 C203 C 0.77574 0.57737 0.57861
 C204 C 0.77559 0.55926 0.56024
 C205 C 0.75332 0.55003 0.55104
 C206 C 0.73125 0.55932 0.56063
 C207 C 0.75386 0.60517 0.60688
 C208 C 0.75396 0.62084 0.62265
 C209 C 0.75402 0.63921 0.64108
 C210 C 0.75400 0.65495 0.65679
 C211 C 0.75386 0.67378 0.67549
 C212 C 0.75493 0.69842 0.66844
 C213 C 0.75452 0.71675 0.68656
 C214 C 0.75284 0.71061 0.71192
 C215 C 0.75210 0.68586 0.71889
 C216 C 0.75254 0.66754 0.70074
 H217 H 0.71427 0.58438 0.58615
 H218 H 0.79306 0.58426 0.58546
 H219 H 0.79290 0.55250 0.55326
 H220 H 0.71380 0.55262 0.55395
 H221 H 0.75605 0.70344 0.64896
 H222 H 0.75547 0.73571 0.68083
 H223 H 0.75083 0.68077 0.73834
 H224 H 0.75173 0.64853 0.70639
 C225 C 0.77015 0.91999 0.07794
 C226 C 0.74796 0.91083 0.08694
 C227 C 0.72590 0.92005 0.07770
 C228 C 0.72598 0.93835 0.05952
 C229 C 0.74823 0.94776 0.05025
 C230 C 0.77034 0.93829 0.05976
 C231 C 0.74784 0.89199 0.10568
 C232 C 0.74779 0.87624 0.12138
 C233 C 0.74781 0.85783 0.13981
 C234 C 0.74791 0.84214 0.15559
 C235 C 0.74816 0.82348 0.17450
 C236 C 0.74810 0.79874 0.16775
 C237 C 0.74866 0.78063 0.18612
 C238 C 0.74947 0.78709 0.21143
 C239 C 0.74921 0.81193 0.21808
 C240 C 0.74862 0.83003 0.19969
 H241 H 0.78735 0.91297 0.08498
 H242 H 0.70860 0.91308 0.08456
 H243 H 0.70857 0.94508 0.05275
 H244 H 0.78784 0.94497 0.05319
 H245 H 0.74766 0.79347 0.14831
 H246 H 0.74851 0.76157 0.18062
 H247 H 0.74982 0.81728 0.23749
 H248 H 0.74866 0.84911 0.20512
 C249 C 0.22331 0.42143 0.57880
 C250 C 0.24535 0.41211 0.58802
 C251 C 0.26760 0.42114 0.57897
 C252 C 0.26783 0.43941 0.56075
 C253 C 0.24576 0.44890 0.55133
 C254 C 0.22349 0.43971 0.56058
 C255 C 0.24517 0.39330 0.60678
 C256 C 0.24509 0.37756 0.62251
 C257 C 0.24510 0.35916 0.64095
 C258 C 0.24522 0.34349 0.65674
 C259 C 0.24550 0.32484 0.67566
 C260 C 0.24597 0.33140 0.70085
 C261 C 0.24662 0.31332 0.71925
 C262 C 0.24694 0.28848 0.71262
 C263 C 0.24610 0.28199 0.68731
 C264 C 0.24548 0.30010 0.66893
 H265 H 0.20599 0.41458 0.58569
 H266 H 0.28477 0.41405 0.58598
 H267 H 0.28528 0.44607 0.55403
 H268 H 0.20619 0.44661 0.55373
 H269 H 0.24597 0.35049 0.70626
 H270 H 0.24725 0.31869 0.73865
 H271 H 0.24600 0.26294 0.68182
 H272 H 0.24504 0.29481 0.64949
 C273 C 0.91962 0.27467 0.07947
 C274 C 0.91042 0.25243 0.08836
 C275 C 0.91973 0.23039 0.07914
 C276 C 0.93816 0.23055 0.06108
 C277 C 0.94752 0.25281 0.05199
 C278 C 0.93805 0.27489 0.06141
 C279 C 0.89142 0.25222 0.10692
 C280 C 0.87553 0.25199 0.12248
 C281 C 0.85696 0.25166 0.14074
 C282 C 0.84115 0.25131 0.15639
 C283 C 0.82236 0.25082 0.17516
 C284 C 0.79767 0.25071 0.16825
 C285 C 0.77944 0.25002 0.18650
 C286 C 0.78575 0.24926 0.21186
 C287 C 0.81055 0.24964 0.21866
 C288 C 0.82876 0.25035 0.20040
 H289 H 0.91254 0.29185 0.08649
 H290 H 0.91274 0.21307 0.08589
 H291 H 0.94504 0.21324 0.05422
 H292 H 0.94485 0.29233 0.05482
 H293 H 0.79252 0.25115 0.14877
 H294 H 0.76042 0.25008 0.18087
 H295 H 0.81579 0.24907 0.23810
 H296 H 0.84781 0.25045 0.20595
 C297 C 0.42207 0.73083 0.57983
 C298 C 0.41296 0.75294 0.58909
 C299 C 0.42215 0.77511 0.58000
 C300 C 0.44036 0.77518 0.56172
 C301 C 0.44964 0.75304 0.55227
 C302 C 0.44029 0.73084 0.56155
 C303 C 0.39416 0.75288 0.60785
 C304 C 0.37839 0.75278 0.62355
 C305 C 0.35990 0.75261 0.64190
 C306 C 0.34409 0.75240 0.65754
 C307 C 0.32518 0.75206 0.67619
 C308 C 0.32210 0.73143 0.69134
 C309 C 0.30362 0.73100 0.70933
 C310 C 0.28791 0.75114 0.71223
 C311 C 0.29128 0.77189 0.69717
 C312 C 0.30978 0.77231 0.67920
 H313 H 0.41508 0.71356 0.58673
 H314 H 0.41522 0.79234 0.58704
 H315 H 0.44716 0.79258 0.55498
 H316 H 0.44702 0.71349 0.55468
 H317 H 0.33397 0.71570 0.68923
 H318 H 0.30157 0.71497 0.72100
 H319 H 0.27938 0.78760 0.69914
 H320 H 0.31203 0.78837 0.66760
 C321 C 0.07959 0.77040 0.07906
 C322 C 0.08871 0.74834 0.08843
 C323 C 0.07961 0.72615 0.07938
 C324 C 0.06147 0.72597 0.06104
 C325 C 0.05210 0.74808 0.05140
 C326 C 0.06145 0.77032 0.06072
 C327 C 0.10743 0.74848 0.10728
 C328 C 0.12312 0.74861 0.12305
 C329 C 0.14152 0.74881 0.14149
 C330 C 0.15727 0.74902 0.15720
 C331 C 0.17611 0.74935 0.17593
 C332 C 0.16984 0.75065 0.20118
 C333 C 0.18814 0.75119 0.21936
 C334 C 0.21292 0.75057 0.21244
 C335 C 0.21907 0.74894 0.18708
 C336 C 0.20076 0.74842 0.16893
 H337 H 0.08652 0.78769 0.08594
 H338 H 0.08655 0.70895 0.08650
 H339 H 0.05483 0.70846 0.05444
 H340 H 0.05480 0.78773 0.05387
 H341 H 0.15082 0.75134 0.20681
 H342 H 0.18302 0.75242 0.23880
 H343 H 0.23805 0.74807 0.18136
 H344 H 0.20582 0.74732 0.14945
 C345 C 0.57705 0.22753 0.58100
 C346 C 0.58614 0.24973 0.59007
 C347 C 0.57716 0.27182 0.58061
 C348 C 0.55914 0.27174 0.56214
 C349 C 0.54988 0.24951 0.55289
 C350 C 0.55904 0.22740 0.56253
 C351 C 0.60472 0.24982 0.60904
 C352 C 0.62032 0.24983 0.62488
 C353 C 0.63865 0.24979 0.64336
 C354 C 0.65438 0.24970 0.65907
 C355 C 0.67328 0.24956 0.67770
 C356 C 0.67727 0.27027 0.69247
 C357 C 0.69589 0.27025 0.71031
 C358 C 0.71082 0.24955 0.71339
 C359 C 0.70650 0.22871 0.69875
 C360 C 0.68786 0.22875 0.68095
 H361 H 0.58389 0.21033 0.58819
 H362 H 0.58408 0.28911 0.58750
 H363 H 0.55248 0.28907 0.55512
 H364 H 0.55230 0.20998 0.55582
 H365 H 0.66604 0.28644 0.69017
 H366 H 0.69871 0.28638 0.72164
 H367 H 0.71781 0.21258 0.70086
 H368 H 0.68492 0.21262 0.66962
 C369 C 0.72700 0.07709 0.91972
 C370 C 0.74920 0.08616 0.91060
 C371 C 0.77129 0.07710 0.91998
 C372 C 0.77120 0.05902 0.93841
 C373 C 0.74897 0.04977 0.94771
 C374 C 0.72686 0.05902 0.93815
 C375 C 0.74931 0.10479 0.89165
 C376 C 0.74936 0.12042 0.87581
 C377 C 0.74939 0.13877 0.85731
 C378 C 0.74938 0.15450 0.84158
 C379 C 0.74934 0.17339 0.82291
 C380 C 0.77006 0.17723 0.80807
 C381 C 0.77013 0.19580 0.79017
 C382 C 0.74951 0.21084 0.78706
 C383 C 0.72867 0.20669 0.80177
 C384 C 0.72862 0.18809 0.81964
 H385 H 0.70980 0.08399 0.91259
 H386 H 0.78858 0.08400 0.91306
 H387 H 0.78853 0.05230 0.94536
 H388 H 0.70944 0.05229 0.94489
 H389 H 0.78616 0.16591 0.81039
 H390 H 0.78626 0.19849 0.77879
 H391 H 0.71261 0.21808 0.79964
 H392 H 0.71248 0.18527 0.83101
 C393 C 0.22519 0.57929 0.41989
 C394 C 0.24744 0.58827 0.41082
 C395 C 0.26947 0.57897 0.42010
 C396 C 0.26927 0.56077 0.43840
 C397 C 0.24699 0.55162 0.44766
 C398 C 0.22493 0.56109 0.43818
 C399 C 0.24768 0.60706 0.39203
 C400 C 0.24792 0.62282 0.37633
 C401 C 0.24823 0.64130 0.35797
 C402 C 0.24854 0.65710 0.34232
 C403 C 0.24896 0.67602 0.32368
 C404 C 0.26963 0.67908 0.30860
 C405 C 0.27014 0.69756 0.29061
 C406 C 0.25002 0.71329 0.28765
 C407 C 0.22923 0.70994 0.30264
 C408 C 0.22874 0.69143 0.32061
 H409 H 0.20802 0.58637 0.41283
 H410 H 0.28680 0.58580 0.41321
 H411 H 0.28656 0.55389 0.44528
 H412 H 0.20748 0.55445 0.44491
 H413 H 0.28535 0.66720 0.31075
 H414 H 0.28621 0.69960 0.27899
 H415 H 0.21352 0.72185 0.30062
 H416 H 0.21264 0.68920 0.33216
 C417 C 0.27423 0.92260 0.91975
 C418 C 0.25211 0.91325 0.91076
 C419 C 0.22995 0.92218 0.92013
 C420 C 0.22990 0.94038 0.93842
 C421 C 0.25205 0.94989 0.94761
 C422 C 0.27423 0.94080 0.93804
 C423 C 0.25213 0.89445 0.89199
 C424 C 0.25212 0.87869 0.87629
 C425 C 0.25205 0.86020 0.85794
 C426 C 0.25195 0.84438 0.84230
 C427 C 0.25173 0.82545 0.82367
 C428 C 0.25282 0.80084 0.83079
 C429 C 0.25237 0.78243 0.81273
 C430 C 0.25064 0.78847 0.78734
 C431 C 0.24988 0.81320 0.78030
 C432 C 0.25035 0.83159 0.79839
 H433 H 0.29149 0.91582 0.91263
 H434 H 0.21271 0.91507 0.91331
 H435 H 0.21251 0.94697 0.94538
 H436 H 0.29159 0.94772 0.94470
 H437 H 0.25398 0.79587 0.85028
 H438 H 0.25335 0.76349 0.81853
 H439 H 0.24858 0.81823 0.76084
 H440 H 0.24953 0.85058 0.79267
 C441 C 0.77425 0.41961 0.41991
 C442 C 0.75203 0.41036 0.41107
 C443 C 0.72996 0.41959 0.42035
 C444 C 0.73010 0.43797 0.43844
 C445 C 0.75235 0.44737 0.44748
 C446 C 0.77444 0.43799 0.43799
 C447 C 0.75185 0.39140 0.39251
 C448 C 0.75168 0.37553 0.37695
 C449 C 0.75142 0.35698 0.35871
 C450 C 0.75115 0.34117 0.34308
 C451 C 0.75073 0.32238 0.32435
 C452 C 0.75081 0.29770 0.33131
 C453 C 0.75018 0.27945 0.31310
 C454 C 0.74928 0.28574 0.28774
 C455 C 0.74949 0.31053 0.28088
 C456 C 0.75015 0.32876 0.29911
 H457 H 0.79144 0.41259 0.41284
 H458 H 0.71266 0.41256 0.41363
 H459 H 0.71278 0.44478 0.44535
 H460 H 0.79188 0.44482 0.44456
 H461 H 0.75134 0.29257 0.35080
 H462 H 0.75036 0.26044 0.31876
 H463 H 0.74882 0.31574 0.26143
 H464 H 0.75011 0.34780 0.29353
 C465 C 0.07755 0.27613 0.92235
 C466 C 0.08681 0.25407 0.91314
 C467 C 0.07766 0.23187 0.92212
 C468 C 0.05932 0.23167 0.94027
 C469 C 0.04981 0.25377 0.94976
 C470 C 0.05921 0.27603 0.94051
 C471 C 0.10570 0.25420 0.89446
 C472 C 0.12151 0.25423 0.87880
 C473 C 0.13997 0.25417 0.86043
 C474 C 0.15570 0.25402 0.84469
 C475 C 0.17441 0.25372 0.82583
 C476 C 0.19913 0.25385 0.83263
 C477 C 0.21728 0.25325 0.81430
 C478 C 0.21087 0.25233 0.78898
 C479 C 0.18604 0.25251 0.78228
 C480 C 0.16791 0.25314 0.80062
 H481 H 0.08452 0.29343 0.91552
 H482 H 0.08470 0.21468 0.91510
 H483 H 0.05265 0.21416 0.94682
 H484 H 0.05245 0.29343 0.94726
 H485 H 0.20436 0.25438 0.85208
 H486 H 0.23633 0.25346 0.81984
 H487 H 0.18073 0.25181 0.76286
 H488 H 0.14884 0.25304 0.79516
 C489 C 0.57997 0.73116 0.42102
 C490 C 0.58921 0.75331 0.41196
 C491 C 0.58007 0.77544 0.42115
 C492 C 0.56177 0.77544 0.43935
 C493 C 0.55237 0.75326 0.44860
 C494 C 0.56167 0.73110 0.43921
 C495 C 0.60807 0.75332 0.39325
 C496 C 0.62385 0.75327 0.37756
 C497 C 0.64229 0.75312 0.35917
 C498 C 0.65801 0.75291 0.34343
 C499 C 0.67672 0.75253 0.32457
 C500 C 0.67023 0.75199 0.29936
 C501 C 0.68837 0.75130 0.28102
 C502 C 0.71319 0.75102 0.28773
 C503 C 0.71960 0.75191 0.31306
 C504 C 0.70144 0.75257 0.33138
 H505 H 0.58692 0.71392 0.41402
 H506 H 0.58709 0.79270 0.41427
 H507 H 0.55501 0.79280 0.44618
 H508 H 0.55485 0.71371 0.44593
 H509 H 0.65116 0.75197 0.29389
 H510 H 0.68306 0.75063 0.26160
 H511 H 0.73864 0.75204 0.31861
 H512 H 0.70667 0.75307 0.35083
 C513 C 0.92329 0.76923 0.92031
 C514 C 0.91422 0.74701 0.91123
 C515 C 0.92330 0.72495 0.92067
 C516 C 0.94136 0.72506 0.93910
 C517 C 0.95060 0.74730 0.94835
 C518 C 0.94135 0.76940 0.93874
 C519 C 0.89561 0.74688 0.89227
 C520 C 0.88000 0.74681 0.87641
 C521 C 0.86171 0.74681 0.85786
 C522 C 0.84605 0.74689 0.84205
 C523 C 0.82731 0.74710 0.82322
 C524 C 0.81198 0.72680 0.82016
 C525 C 0.79357 0.72715 0.80209
 C526 C 0.79022 0.74787 0.78699
 C527 C 0.80590 0.76804 0.78992
 C528 C 0.82428 0.76768 0.80801
 H529 H 0.91639 0.78642 0.91314
 H530 H 0.91641 0.70764 0.91378
 H531 H 0.94808 0.70774 0.94608
 H532 H 0.94806 0.78682 0.94545
 H533 H 0.81418 0.71077 0.83181
 H534 H 0.78170 0.71140 0.80010
 H535 H 0.80386 0.78405 0.77823
 H536 H 0.83609 0.78345 0.81015
 C537 C 0.42035 0.22622 0.42126
 C538 C 0.41125 0.24827 0.41182
 C539 C 0.42027 0.27050 0.42088
 C540 C 0.43832 0.27072 0.43931
 C541 C 0.44759 0.24864 0.44893
 C542 C 0.43840 0.22638 0.43969
 C543 C 0.39265 0.24808 0.39288
 C544 C 0.37705 0.24794 0.37704
 C545 C 0.35874 0.24783 0.35854
 C546 C 0.34306 0.24781 0.34278
 C547 C 0.32427 0.24789 0.32404
 C548 C 0.33056 0.24925 0.29880
 C549 C 0.31227 0.24966 0.28061
 C550 C 0.28750 0.24886 0.28753
 C551 C 0.28133 0.24713 0.31288
 C552 C 0.29962 0.24674 0.33103
 H553 H 0.41349 0.20890 0.41438
 H554 H 0.41334 0.28768 0.41370
 H555 H 0.44500 0.28816 0.44601
 H556 H 0.44515 0.20907 0.44669
 H557 H 0.34957 0.25012 0.29319
 H558 H 0.31739 0.25097 0.26117
 H559 H 0.26235 0.24613 0.31858
 H560 H 0.29456 0.24559 0.35051
 C561 C 0.77120 0.92021 0.91967
 C562 C 0.74911 0.91114 0.91030
 C563 C 0.72691 0.92026 0.91934
 C564 C 0.72677 0.93836 0.93772
 C565 C 0.74888 0.94757 0.94730
 C566 C 0.77111 0.93830 0.93805
 C567 C 0.74925 0.89244 0.89147
 C568 C 0.74943 0.87674 0.87573
 C569 C 0.74971 0.85832 0.85735
 C570 C 0.75002 0.84255 0.84169
 C571 C 0.75046 0.82369 0.82303
 C572 C 0.74950 0.79906 0.83009
 C573 C 0.75011 0.78072 0.81199
 C574 C 0.75187 0.78684 0.78663
 C575 C 0.75254 0.81159 0.77965
 C576 C 0.75191 0.82993 0.79778
 H577 H 0.78849 0.91326 0.91280
 H578 H 0.70970 0.91336 0.91221
 H579 H 0.70935 0.94510 0.94444
 H580 H 0.78845 0.94499 0.94502
 H581 H 0.74829 0.79405 0.84957
 H582 H 0.74920 0.76175 0.81774
 H583 H 0.75386 0.81668 0.76020
 H584 H 0.75263 0.84893 0.79211
 C585 C 0.26854 0.42162 0.41990
 C586 C 0.24641 0.41256 0.41062
 C587 C 0.22426 0.42180 0.41967
 C588 C 0.22421 0.44000 0.43796
 C589 C 0.24636 0.44922 0.44744
 C590 C 0.26854 0.43983 0.43818
 C591 C 0.24646 0.39372 0.39189
 C592 C 0.24659 0.37792 0.37624
 C593 C 0.24681 0.35938 0.35795
 C594 C 0.24708 0.34351 0.34236
 C595 C 0.24748 0.32454 0.32379
 C596 C 0.22725 0.30911 0.32079
 C597 C 0.22772 0.29056 0.30288
 C598 C 0.24850 0.28718 0.28787
 C599 C 0.26862 0.30292 0.29076
 C600 C 0.26814 0.32144 0.30870
 H601 H 0.28580 0.41460 0.41303
 H602 H 0.20702 0.41490 0.41263
 H603 H 0.20683 0.44683 0.44468
 H604 H 0.28591 0.44651 0.44507
 H605 H 0.21117 0.31137 0.33235
 H606 H 0.21201 0.27864 0.30091
 H607 H 0.28467 0.30086 0.27913
 H608 H 0.28386 0.33333 0.31079
 C609 C 0.22849 0.07845 0.92056
 C610 C 0.25046 0.08773 0.91112
 C611 C 0.27275 0.07887 0.92017
 C612 C 0.27312 0.06080 0.93860
 C613 C 0.25110 0.05128 0.94831
 C614 C 0.22876 0.06038 0.93899
 C615 C 0.25013 0.10639 0.89222
 C616 C 0.24986 0.12207 0.87643
 C617 C 0.24956 0.14049 0.85801
 C618 C 0.24934 0.15628 0.84235
 C619 C 0.24913 0.17524 0.82374
 C620 C 0.26977 0.19003 0.82033
 C621 C 0.26952 0.20864 0.80247
 C622 C 0.24856 0.21272 0.78793
 C623 C 0.22802 0.19760 0.79122
 C624 C 0.22828 0.17901 0.80911
 H625 H 0.21113 0.08520 0.91368
 H626 H 0.28987 0.08594 0.91299
 H627 H 0.29069 0.05435 0.94521
 H628 H 0.21142 0.05361 0.94590
 H629 H 0.28601 0.18725 0.83154
 H630 H 0.28554 0.22008 0.80021
 H631 H 0.21180 0.20023 0.77996
 H632 H 0.21224 0.16762 0.81154
 C633 C 0.72986 0.57707 0.41925
 C634 C 0.75190 0.58615 0.40975
 C635 C 0.77414 0.57708 0.41874
 C636 C 0.77436 0.55901 0.43718
 C637 C 0.75229 0.54978 0.44688
 C638 C 0.73002 0.55901 0.43768
 C639 C 0.75169 0.60483 0.39085
 C640 C 0.75152 0.62051 0.37508
 C641 C 0.75133 0.63895 0.35667
 C642 C 0.75120 0.65476 0.34103
 C643 C 0.75109 0.67373 0.32244
 C644 C 0.77179 0.68845 0.31907
 C645 C 0.77164 0.70707 0.30124
 C646 C 0.75072 0.71126 0.28668
 C647 C 0.73011 0.69622 0.28992
 C648 C 0.73028 0.67761 0.30778
 H649 H 0.71254 0.58398 0.41242
 H650 H 0.79131 0.58399 0.41152
 H651 H 0.79181 0.55231 0.44385
 H652 H 0.71272 0.55230 0.44474
 H653 H 0.78800 0.68559 0.33030
 H654 H 0.78771 0.71846 0.29901
 H655 H 0.71391 0.69893 0.27864
 H656 H 0.71419 0.66628 0.31018
 C657 C 0.07926 0.76954 0.92110
 C658 C 0.08837 0.74738 0.91199
 C659 C 0.07934 0.72528 0.92136
 C660 C 0.06127 0.72529 0.93979
 C661 C 0.05191 0.74750 0.94917
 C662 C 0.06119 0.76964 0.93953
 C663 C 0.10701 0.74736 0.89306
 C664 C 0.12264 0.74742 0.87722
 C665 C 0.14096 0.74760 0.85871
 C666 C 0.15665 0.74784 0.84293
 C667 C 0.17542 0.74822 0.82414
 C668 C 0.19089 0.72804 0.82108
 C669 C 0.20929 0.72852 0.80300
 C670 C 0.21249 0.74926 0.78790
 C671 C 0.19669 0.76933 0.79084
 C672 C 0.17831 0.76884 0.80894
 H673 H 0.08613 0.78676 0.91397
 H674 H 0.08629 0.70801 0.91443
 H675 H 0.05468 0.70785 0.94665
 H676 H 0.05454 0.78713 0.94618
 H677 H 0.18879 0.71199 0.83272
 H678 H 0.22126 0.71286 0.80099
 H679 H 0.19861 0.78535 0.77914
 H680 H 0.16639 0.78452 0.81109
 C681 C 0.57669 0.22638 0.42061
 C682 C 0.58569 0.24845 0.41111
 C683 C 0.57673 0.27066 0.42028
 C684 C 0.55882 0.27083 0.43887
 C685 C 0.54964 0.24873 0.44855
 C686 C 0.55878 0.22649 0.43921
 C687 C 0.60416 0.24832 0.39199
 C688 C 0.61966 0.24823 0.37602
 C689 C 0.63787 0.24814 0.35739
 C690 C 0.65350 0.24806 0.34155
 C691 C 0.67228 0.24798 0.32276
 C692 C 0.67605 0.26868 0.30788
 C693 C 0.69456 0.26874 0.28992
 C694 C 0.70962 0.24813 0.28679
 C695 C 0.70551 0.22730 0.30153
 C696 C 0.68698 0.22726 0.31947
 H697 H 0.58351 0.20908 0.41364
 H698 H 0.58358 0.28786 0.41306
 H699 H 0.55218 0.28825 0.44565
 H700 H 0.55211 0.20917 0.44624
 H701 H 0.66474 0.28478 0.31022
 H702 H 0.69722 0.28486 0.27851
 H703 H 0.71691 0.21124 0.29940
 H704 H 0.68421 0.21114 0.33087
 C705 C 0.92047 0.27555 0.92090
 C706 C 0.91140 0.25341 0.91168
 C707 C 0.92069 0.23126 0.92069
 C708 C 0.93895 0.23124 0.93889
 C709 C 0.94817 0.25341 0.94833
 C710 C 0.93874 0.27558 0.93911
 C711 C 0.89252 0.25337 0.89303
 C712 C 0.87670 0.25324 0.87741
 C713 C 0.85821 0.25297 0.85912
 C714 C 0.84244 0.25266 0.84346
 C715 C 0.82368 0.25216 0.82470
 C716 C 0.79898 0.25219 0.83162
 C717 C 0.78077 0.25147 0.81338
 C718 C 0.78710 0.25054 0.78803
 C719 C 0.81190 0.25079 0.78121
 C720 C 0.83010 0.25154 0.79946
 H721 H 0.91339 0.29280 0.91405
 H722 H 0.91379 0.21402 0.91367
 H723 H 0.94581 0.21386 0.94559
 H724 H 0.94543 0.29295 0.94599
 H725 H 0.79382 0.25274 0.85109
 H726 H 0.76175 0.25162 0.81900
 H727 H 0.81715 0.25010 0.76177
 H728 H 0.84915 0.25153 0.79391
 C729 C 0.42248 0.73142 0.42040
 C730 C 0.41340 0.75360 0.41125
 C731 C 0.42255 0.77570 0.42051
 C732 C 0.44068 0.77565 0.43887
 C733 C 0.44991 0.75344 0.44823
 C734 C 0.44060 0.73132 0.43876
 C735 C 0.39467 0.75365 0.39240
 C736 C 0.37896 0.75360 0.37665
 C737 C 0.36053 0.75346 0.35824
 C738 C 0.34477 0.75326 0.34254
 C739 C 0.32592 0.75291 0.32383
 C740 C 0.33217 0.75159 0.29858
 C741 C 0.31385 0.75101 0.28042
 C742 C 0.28908 0.75161 0.28736
 C743 C 0.28294 0.75327 0.31272
 C744 C 0.30127 0.75382 0.33085
 H745 H 0.41552 0.71420 0.41337
 H746 H 0.41565 0.79298 0.41356
 H747 H 0.44744 0.79300 0.44575
 H748 H 0.44730 0.71391 0.44555
 H749 H 0.35118 0.75090 0.29293
 H750 H 0.31897 0.74977 0.26097
 H751 H 0.26397 0.75413 0.31845
 H752 H 0.29622 0.75494 0.35033
 C753 C 0.27517 0.92282 0.07929
 C754 C 0.25313 0.91358 0.08866
 C755 C 0.23088 0.92255 0.07959
 C756 C 0.23063 0.94067 0.06122
 C757 C 0.25268 0.95007 0.05165
 C758 C 0.27497 0.94095 0.06091
 C759 C 0.25333 0.89487 0.10752
 C760 C 0.25338 0.87918 0.12328
 C761 C 0.25333 0.86077 0.14171
 C762 C 0.25318 0.84501 0.15742
 C763 C 0.25287 0.82616 0.17613
 C764 C 0.27312 0.81077 0.17916
 C765 C 0.27269 0.79228 0.19715
 C766 C 0.25193 0.78892 0.21219
 C767 C 0.23180 0.80463 0.20927
 C768 C 0.23224 0.82309 0.19127
 H769 H 0.29250 0.91601 0.08618
 H770 H 0.21372 0.91552 0.08671
 H771 H 0.21317 0.94728 0.05450
 H772 H 0.29226 0.94779 0.05395
 H773 H 0.28918 0.81301 0.16756
 H774 H 0.28841 0.78038 0.19913
 H775 H 0.21576 0.80258 0.22093
 H776 H 0.21650 0.83495 0.18914
 C777 C 0.73112 0.42007 0.57884
 C778 C 0.75330 0.41085 0.58782
 C779 C 0.77541 0.42001 0.57855
 C780 C 0.77535 0.43829 0.56032
 C781 C 0.75314 0.44765 0.55114
 C782 C 0.73101 0.43834 0.56062
 C783 C 0.75335 0.39200 0.60653
 C784 C 0.75328 0.37622 0.62221
 C785 C 0.75308 0.35776 0.64058
 C786 C 0.75281 0.34204 0.65632
 C787 C 0.75236 0.32333 0.67517
 C788 C 0.75194 0.32983 0.70038
 C789 C 0.75120 0.31170 0.71872
 C790 C 0.75074 0.28687 0.71202
 C791 C 0.75148 0.28046 0.68669
 C792 C 0.75219 0.29861 0.66836
 H793 H 0.71391 0.41311 0.58590
 H794 H 0.79269 0.41301 0.58538
 H795 H 0.79269 0.44505 0.55342
 H796 H 0.71360 0.44513 0.55396
 H797 H 0.75208 0.34890 0.70585
 H798 H 0.75066 0.31701 0.73815
 H799 H 0.75148 0.26142 0.68114
 H800 H 0.75258 0.29338 0.64891
 C801 C 0.77052 0.07609 0.08022
 C802 C 0.74835 0.08512 0.08944
 C803 C 0.72623 0.07617 0.08003
 C804 C 0.72625 0.05827 0.06144
 C805 C 0.74845 0.04908 0.05203
 C806 C 0.77060 0.05819 0.06164
 C807 C 0.74830 0.10361 0.10849
 C808 C 0.74827 0.11916 0.12439
 C809 C 0.74823 0.13744 0.14292
 C810 C 0.74818 0.15314 0.15866
 C811 C 0.74810 0.17200 0.17733
 C812 C 0.72736 0.18667 0.18058
 C813 C 0.72740 0.20528 0.19841
 C814 C 0.74824 0.20949 0.21307
 C815 C 0.76887 0.19447 0.20998
 C816 C 0.76882 0.17588 0.19212
 H817 H 0.78775 0.08290 0.08738
 H818 H 0.70897 0.08305 0.08703
 H819 H 0.70890 0.05165 0.05446
 H820 H 0.78799 0.05151 0.05481
 H821 H 0.71123 0.18382 0.16924
 H822 H 0.71132 0.21666 0.20053
 H823 H 0.78501 0.19720 0.22133
 H824 H 0.78494 0.16458 0.18980
 C825 C 0.22453 0.57887 0.57946
 C826 C 0.24672 0.58780 0.58874
 C827 C 0.26881 0.57853 0.57958
 C828 C 0.26875 0.56042 0.56120
 C829 C 0.24654 0.55133 0.55173
 C830 C 0.22442 0.56075 0.56108
 C831 C 0.24683 0.60652 0.60760
 C832 C 0.24701 0.62222 0.62336
 C833 C 0.24730 0.64063 0.64178
 C834 C 0.24762 0.65639 0.65748
 C835 C 0.24809 0.67525 0.67617
 C836 C 0.24721 0.69990 0.66914
 C837 C 0.24785 0.71823 0.68727
 C838 C 0.24957 0.71210 0.71263
 C839 C 0.25016 0.68734 0.71958
 C840 C 0.24949 0.66901 0.70143
 H841 H 0.20731 0.58592 0.58642
 H842 H 0.28609 0.58532 0.58662
 H843 H 0.28610 0.55357 0.55441
 H844 H 0.20701 0.55415 0.55420
 H845 H 0.24603 0.70494 0.64967
 H846 H 0.24700 0.73721 0.68153
 H847 H 0.25145 0.68223 0.73902
 H848 H 0.25015 0.65000 0.70708
 C849 C 0.92344 0.77049 0.08023
 C850 C 0.91438 0.74843 0.08968
 C851 C 0.92346 0.72621 0.08065
 C852 C 0.94152 0.72603 0.06221
 C853 C 0.95075 0.74812 0.05256
 C854 C 0.94151 0.77036 0.06179
 C855 C 0.89570 0.74859 0.10858
 C856 C 0.88001 0.74874 0.12436
 C857 C 0.86158 0.74891 0.14276
 C858 C 0.84577 0.74904 0.15840
 C859 C 0.82679 0.74915 0.17698
 C860 C 0.81207 0.72845 0.18036
 C861 C 0.79342 0.72863 0.19816
 C862 C 0.78921 0.74957 0.21269
 C863 C 0.80426 0.77017 0.20945
 C864 C 0.82290 0.76998 0.19162
 H865 H 0.91653 0.78780 0.08708
 H866 H 0.91656 0.70902 0.08784
 H867 H 0.94824 0.70860 0.05552
 H868 H 0.94821 0.78768 0.05477
 H869 H 0.81493 0.71223 0.16915
 H870 H 0.78202 0.71257 0.20039
 H871 H 0.80154 0.78638 0.22070
 H872 H 0.83423 0.78606 0.18921
 C873 C 0.42057 0.22783 0.58133
 C874 C 0.41152 0.25007 0.59035
 C875 C 0.42056 0.27211 0.58081
 C876 C 0.43857 0.27194 0.56233
 C877 C 0.44779 0.24968 0.55312
 C878 C 0.43858 0.22761 0.56284
 C879 C 0.39291 0.25027 0.60931
 C880 C 0.37728 0.25042 0.62515
 C881 C 0.35892 0.25058 0.64363
 C882 C 0.34317 0.25068 0.65934
 C883 C 0.32426 0.25074 0.67799
 C884 C 0.32035 0.27157 0.69262
 C885 C 0.30177 0.27172 0.71052
 C886 C 0.28680 0.25108 0.71383
 C887 C 0.29102 0.23014 0.69931
 C888 C 0.30962 0.23000 0.68144
 H889 H 0.41369 0.21066 0.58858
 H890 H 0.41367 0.28943 0.58765
 H891 H 0.44526 0.28925 0.55525
 H892 H 0.44529 0.21016 0.55617
 H893 H 0.33162 0.28770 0.69017
 H894 H 0.29903 0.28793 0.72176
 H895 H 0.27969 0.21404 0.70158
 H896 H 0.31250 0.21378 0.67023
 C897 C 0.07743 0.27504 0.08056
 C898 C 0.08659 0.25284 0.08957
 C899 C 0.07750 0.23076 0.08022
 C900 C 0.05935 0.23084 0.06190
 C901 C 0.05004 0.25307 0.05268
 C902 C 0.05927 0.27518 0.06224
 C903 C 0.10536 0.25269 0.10832
 C904 C 0.12113 0.25249 0.12399
 C905 C 0.13961 0.25217 0.14230
 C906 C 0.15543 0.25183 0.15791
 C907 C 0.17433 0.25134 0.17653
 C908 C 0.16815 0.24981 0.20178
 C909 C 0.18652 0.24914 0.21987
 C910 C 0.21126 0.24987 0.21283
 C911 C 0.21733 0.25170 0.18747
 C912 C 0.19895 0.25234 0.16941
 H913 H 0.08435 0.29225 0.08768
 H914 H 0.08447 0.21346 0.08706
 H915 H 0.05264 0.21351 0.05494
 H916 H 0.05251 0.29260 0.05554
 H917 H 0.14916 0.24905 0.20749
 H918 H 0.18148 0.24776 0.23933
 H919 H 0.23629 0.25265 0.18169
 H920 H 0.20392 0.25362 0.14992
 C921 C 0.57952 0.73026 0.57995
 C922 C 0.58881 0.75231 0.58920
 C923 C 0.57976 0.77454 0.58016
 C924 C 0.56151 0.77476 0.56191
 C925 C 0.55208 0.75268 0.55245
 C926 C 0.56128 0.73042 0.56170
 C927 C 0.60769 0.75209 0.60788
 C928 C 0.62354 0.75185 0.62348
 C929 C 0.64214 0.75151 0.64171
 C930 C 0.65804 0.75117 0.65725
 C931 C 0.67708 0.75071 0.67577
 C932 C 0.69252 0.77093 0.67876
 C933 C 0.71110 0.77043 0.69663
 C934 C 0.71452 0.74964 0.71160
 C935 C 0.69877 0.72952 0.70870
 C936 C 0.68021 0.73003 0.69081
 H937 H 0.58640 0.71294 0.58681
 H938 H 0.58682 0.79172 0.58718
 H939 H 0.55484 0.79220 0.55519
 H940 H 0.55442 0.71311 0.55483
 H941 H 0.69024 0.78704 0.66724
 H942 H 0.72302 0.78614 0.69860
 H943 H 0.70085 0.71345 0.72031
 H944 H 0.66831 0.71432 0.68872
   
