data_POSCAR
  _audit_creation_date              2014-09-24
  _audit_creation_method            'ToBaCCo'
  _symmetry_space_group_name_H-M    'P1'
  _symmetry_Int_Tables_number       1
  _symmetry_cell_setting            triclinic
  loop_
  _symmetry_equiv_pos_as_xyz
 x,y,z
_cell_length_a 38.1680
_cell_length_b 38.2012
_cell_length_c 38.1048
_cell_angle_alpha 89.927000
_cell_angle_beta 89.948400
_cell_angle_gamma 89.956800
loop_
  _atom_site_label
  _atom_site_type_symbol
  _atom_site_fract_x
  _atom_site_fract_y
  _atom_site_fract_z
N1 N 0.13922 0.16437 0.23497
 N2 N 0.16383 0.14021 0.23518
 C3 C 0.15837 0.11847 0.26257
 C4 C 0.12891 0.12985 0.28019
 C5 C 0.11730 0.15889 0.26215
 H6 H 0.17444 0.09608 0.26915
 H7 H 0.09463 0.17477 0.26827
 Cu8 Cu 0.20050 0.13972 0.19952
 Cu9 Cu 0.13729 0.20109 0.19949
 Cu10 Cu 0.20178 0.20014 0.13529
 N11 N 0.23631 0.13911 0.16298
 N12 N 0.23662 0.16291 0.13798
 C13 C 0.26376 0.15669 0.11624
 C14 C 0.28124 0.12753 0.12839
 C15 C 0.26332 0.11686 0.15798
 H16 H 0.27024 0.17216 0.09334
 H17 H 0.26946 0.09461 0.17445
 N18 N 0.16432 0.23570 0.13698
 N19 N 0.13975 0.23605 0.16143
 C20 C 0.11802 0.26324 0.15542
 C21 C 0.12957 0.28062 0.12591
 C22 C 0.15884 0.26267 0.11478
 H23 H 0.09541 0.26990 0.17118
 H24 H 0.17479 0.26878 0.09213
 H25 H 0.16228 0.17292 0.16046
 H26 H 0.19027 0.20179 0.18825
 N27 N -0.13760 0.83683 0.23625
 N28 N -0.16215 0.86102 0.23645
 C29 C -0.15631 0.88306 0.26344
 C30 C -0.12668 0.87185 0.28085
 C31 C -0.11538 0.84257 0.26306
 H32 H -0.17221 0.90559 0.26993
 H33 H -0.09270 0.82671 0.26914
 Cu34 Cu -0.19914 0.86132 0.20123
 Cu35 Cu -0.13604 0.79981 0.20121
 Cu36 Cu -0.20103 0.80044 0.13762
 N37 N -0.23523 0.86173 0.16509
 N38 N -0.23579 0.83780 0.14027
 C39 C -0.26317 0.84392 0.11883
 C40 C -0.28051 0.87318 0.13097
 C41 C -0.26226 0.88399 0.16024
 H42 H -0.26996 0.82830 0.09619
 H43 H -0.26822 0.90633 0.17661
 N44 N -0.16361 0.76477 0.13933
 N45 N -0.13889 0.76455 0.16359
 C46 C -0.11731 0.73722 0.15776
 C47 C -0.12910 0.71959 0.12858
 C48 C -0.15837 0.73756 0.11742
 H49 H -0.09460 0.73064 0.17339
 H50 H -0.17445 0.73130 0.09495
 H51 H -0.16118 0.82775 0.16224
 H52 H -0.18900 0.79913 0.19055
 N53 N -0.14067 0.16249 -0.23514
 N54 N -0.16444 0.13757 -0.23447
 C55 C -0.15879 0.11566 -0.26163
 C56 C -0.13006 0.12763 -0.28001
 C57 C -0.11910 0.15728 -0.26264
 H58 H -0.17426 0.09273 -0.26760
 H59 H -0.09703 0.17370 -0.26941
 Cu60 Cu -0.20039 0.13622 -0.19815
 Cu61 Cu -0.13929 0.19969 -0.20024
 Cu62 Cu -0.20378 0.19873 -0.13608
 N63 N -0.23692 0.13645 -0.16238
 N64 N -0.23811 0.16102 -0.13821
 C65 C -0.26561 0.15505 -0.11683
 C66 C -0.28240 0.12527 -0.12836
 C67 C -0.26370 0.11399 -0.15721
 H68 H -0.27272 0.17102 -0.09451
 H69 H -0.26915 0.09117 -0.17305
 N70 N -0.16680 0.23474 -0.13828
 N71 N -0.14224 0.23508 -0.16274
 C72 C -0.12080 0.26253 -0.15707
 C73 C -0.13253 0.28010 -0.12778
 C74 C -0.16161 0.26197 -0.11641
 H75 H -0.09821 0.26919 -0.17285
 H76 H -0.17758 0.26811 -0.09379
 H77 H -0.16334 0.17202 -0.16027
 H78 H -0.19232 0.19891 -0.18913
 N79 N 0.14103 0.83891 -0.23561
 N80 N 0.16576 0.86287 -0.23446
 C81 C 0.16107 0.88552 -0.26124
 C82 C 0.13197 0.87500 -0.27988
 C83 C 0.11982 0.84547 -0.26306
 H84 H 0.17738 0.90800 -0.26675
 H85 H 0.09718 0.83002 -0.27016
 Cu86 Cu 0.20146 0.86196 -0.19793
 Cu87 Cu 0.13792 0.80115 -0.20134
 Cu88 Cu 0.20115 0.79910 -0.13606
 N89 N 0.23689 0.86054 -0.16115
 N90 N 0.23661 0.83584 -0.13703
 C91 C 0.26364 0.84082 -0.11487
 C92 C 0.28165 0.87012 -0.12582
 C93 C 0.26418 0.88214 -0.15513
 H94 H 0.26963 0.82446 -0.09248
 H95 H 0.27080 0.90487 -0.17072
 N96 N 0.16318 0.76424 -0.13948
 N97 N 0.13912 0.76501 -0.16438
 C98 C 0.11683 0.73807 -0.15954
 C99 C 0.12749 0.71966 -0.13035
 C100 C 0.15681 0.73676 -0.11817
 H101 H 0.09440 0.73231 -0.17585
 H102 H 0.17217 0.72976 -0.09538
 H103 H 0.16229 0.82759 -0.16085
 H104 H 0.19067 0.79965 -0.18924
 N105 N 0.16558 1.13900 0.76510
 N106 N 0.14141 1.16358 0.76492
 C107 C 0.11985 1.15832 0.73743
 C108 C 0.13131 1.12902 0.71975
 C109 C 0.16024 1.11728 0.73784
 H110 H 0.09748 1.17441 0.73078
 H111 H 0.17610 1.09462 0.73170
 Cu112 Cu 0.14055 1.19985 0.80072
 Cu113 Cu 0.20206 1.13678 0.80063
 Cu114 Cu 0.20122 1.20117 0.86462
 N115 N 0.14038 1.23579 0.83687
 N116 N 0.16427 1.23611 0.86174
 C117 C 0.15824 1.26333 0.88330
 C118 C 0.12914 1.28087 0.87118
 C119 C 0.11829 1.26290 0.84179
 H120 H 0.17370 1.26977 0.90616
 H121 H 0.09597 1.26907 0.82544
 N122 N 0.23644 1.16359 0.86309
 N123 N 0.23674 1.13901 0.83873
 C124 C 0.26375 1.11713 0.84489
 C125 C 0.28101 1.12866 0.87437
 C126 C 0.26325 1.15800 0.88538
 H127 H 0.27035 1.09446 0.82926
 H128 H 0.26938 1.17393 0.90799
 H129 H 0.17380 1.16172 0.83969
 H130 H 0.20258 1.18978 0.81163
 N131 N 0.83675 0.86311 0.76365
 N132 N 0.86099 0.83860 0.76361
 C133 C 0.88306 0.84430 0.73657
 C134 C 0.87184 0.87381 0.71902
 C135 C 0.84253 0.88520 0.73672
 H136 H 0.90561 0.82837 0.73017
 H137 H 0.82673 0.90790 0.73055
 Cu138 Cu 0.86127 0.80191 0.79907
 Cu139 Cu 0.79970 0.86485 0.79861
 Cu140 Cu 0.79966 0.79990 0.86222
 N141 N 0.86089 0.76556 0.83485
 N142 N 0.83673 0.76499 0.85950
 C143 C 0.84250 0.73747 0.88083
 C144 C 0.87170 0.72003 0.86876
 C145 C 0.88287 0.73836 0.83967
 H146 H 0.82675 0.73071 0.90345
 H147 H 0.90534 0.73234 0.82344
 N148 N 0.76437 0.83752 0.86044
 N149 N 0.76440 0.86220 0.83612
 C150 C 0.73722 0.88396 0.84186
 C151 C 0.71947 0.87230 0.87103
 C152 C 0.73715 0.84295 0.88232
 H153 H 0.73081 0.90666 0.82614
 H154 H 0.73067 0.82691 0.90480
 H155 H 0.82734 0.83959 0.83791
 H156 H 0.79904 0.81174 0.80934
 N157 N 0.16217 0.85992 1.23535
 N158 N 0.13790 0.83547 1.23535
 C159 C 0.11600 0.84091 1.26255
 C160 C 0.12737 0.87014 1.28033
 C161 C 0.15658 0.88169 1.26254
 H162 H 0.09357 0.82488 1.26899
 H163 H 0.17248 0.90426 1.26886
 Cu164 Cu 0.13754 0.79917 1.19968
 Cu165 Cu 0.19924 0.86170 1.20026
 Cu166 Cu 0.19865 0.79705 1.13631
 N167 N 0.13712 0.76322 1.16366
 N168 N 0.16120 0.76257 1.13894
 C169 C 0.15503 0.73534 1.11743
 C170 C 0.12563 0.71822 1.12943
 C171 C 0.11475 0.73643 1.15865
 H172 H 0.17063 0.72859 1.09469
 H173 H 0.09229 0.73059 1.17492
 N174 N 0.23427 0.83427 1.13824
 N175 N 0.23445 0.85892 1.16254
 C176 C 0.26190 0.88033 1.15683
 C177 C 0.27963 0.86841 1.12774
 C178 C 0.26163 0.83935 1.11645
 H179 H 0.26857 0.90289 1.17257
 H180 H 0.26805 0.82319 1.09406
 H181 H 0.17161 0.83687 1.16085
 H182 H 0.19988 0.80872 1.18918
 N183 N 0.83823 1.14005 1.23539
 N184 N 0.86141 1.16551 1.23475
 C185 C 0.88413 1.16101 1.26142
 C186 C 0.87445 1.13127 1.27948
 C187 C 0.84535 1.11852 1.26244
 H188 H 0.90604 1.17795 1.26731
 H189 H 0.83054 1.09534 1.26918
 Cu190 Cu 0.85977 1.20192 1.19908
 Cu191 Cu 0.80048 1.13675 1.20137
 Cu192 Cu 0.79787 1.19996 1.13617
 N193 N 0.85849 1.23638 1.16152
 N194 N 0.83431 1.23543 1.13695
 C195 C 0.83957 1.26202 1.11433
 C196 C 0.86851 1.28040 1.12546
 C197 C 0.88001 1.26364 1.15534
 H198 H 0.82367 1.26750 1.09150
 H199 H 0.90236 1.27075 1.17121
 N200 N 0.76331 1.16195 1.13981
 N201 N 0.76431 1.13782 1.16466
 C202 C 0.73736 1.11555 1.16007
 C203 C 0.71876 1.12634 1.13109
 C204 C 0.73570 1.15567 1.11875
 H205 H 0.73169 1.09310 1.17642
 H206 H 0.72847 1.17110 1.09608
 H207 H 0.82728 1.16205 1.16142
 H208 H 0.79788 1.18953 1.18940
 O209 O 0.45072 0.93448 0.94049
 O210 O 0.41229 0.96762 0.97284
 C211 C 0.41935 0.94367 0.94988
 O212 O 0.54955 0.93749 1.06628
 O213 O 0.58774 0.96946 1.03241
 C214 C 0.58086 0.94688 1.05684
 O215 O 0.45088 0.93388 1.06297
 O216 O 0.41234 0.96760 1.03120
 C217 C 0.41951 0.94327 1.05376
 O218 O 0.54918 0.93825 0.93711
 O219 O 0.58758 0.96934 0.97146
 C220 C 0.58051 0.94717 0.94680
 Zr221 Zr 0.49998 0.95364 0.95786
 O222 O 0.50426 0.89842 0.96065
 O223 O 0.49643 0.95065 0.90259
 Zr224 Zr 0.50012 0.95380 1.04645
 O225 O 0.50431 0.89855 1.04637
 O226 O 0.49616 0.95387 1.10186
 O227 O 0.46874 0.94689 1.00219
 O228 O 0.53061 0.94750 1.00208
 O229 O 0.54898 1.05936 0.93779
 O230 O 0.58746 1.02739 0.97127
 C231 C 0.58037 1.05007 0.94702
 O232 O 0.45040 1.06181 1.06336
 O233 O 0.41213 1.02786 1.03175
 C234 C 0.41907 1.05217 1.05435
 O235 O 0.54893 1.05900 1.06607
 O236 O 0.58746 1.02748 1.03213
 C237 C 0.58029 1.04993 1.05653
 O238 O 0.45044 1.06207 0.94105
 O239 O 0.41212 1.02828 0.97296
 C240 C 0.41915 1.05257 0.95034
 Zr241 Zr 0.49973 1.04245 0.95755
 O242 O 0.50346 1.09773 0.95754
 O243 O 0.49566 1.04226 0.90213
 Zr244 Zr 0.49973 1.04242 1.04634
 O245 O 0.50339 1.09771 1.04578
 O246 O 0.49593 1.04253 1.10177
 Zr247 Zr 0.44781 0.99802 1.00204
 Zr248 Zr 0.55191 0.99829 1.00190
 O249 O 0.53011 1.04890 1.00190
 O250 O 0.46845 1.04922 1.00199
 O251 O 0.53095 0.99815 0.95069
 O252 O 0.46956 0.99800 1.05281
 O253 O 0.46956 0.99800 0.95125
 O254 O 0.53113 0.99822 1.05320
 H255 H 0.54675 0.92717 1.00205
 H256 H 0.45377 0.99787 1.07346
 H257 H 0.54595 1.06944 1.00185
 H258 H 0.45379 0.99802 0.93062
 H259 H 0.51571 0.96816 1.11100
 H260 H 0.51530 1.02795 1.11092
 H261 H 0.48322 1.10675 1.03223
 H262 H 0.48405 1.10681 0.97214
 H263 H 0.51637 1.02982 0.89274
 H264 H 0.50945 0.97091 0.89315
 H265 H 0.48241 0.88933 0.97125
 H266 H 0.48502 0.88937 1.03172
 O267 O 0.05953 0.54924 -0.06570
 O268 O 0.02759 0.58754 -0.03196
 C269 C 0.05032 0.58055 -0.05622
 O270 O -0.06565 0.45068 -0.06270
 O271 O -0.03204 0.41227 -0.03072
 C272 C -0.05632 0.41933 -0.05336
 O273 O -0.06240 0.54927 -0.06595
 O274 O -0.03061 0.58757 -0.03214
 C275 C -0.05316 0.58056 -0.05650
 O276 O 0.06242 0.45086 -0.06292
 O277 O 0.02831 0.41246 -0.03149
 C278 C 0.05276 0.41955 -0.05395
 Zr279 Zr 0.04272 0.49998 -0.04605
 O280 O 0.04269 0.49630 -0.10147
 O281 O 0.09806 0.50374 -0.04572
 Zr282 Zr -0.04590 0.49996 -0.04619
 O283 O -0.04559 0.49605 -0.10160
 O284 O -0.10121 0.50396 -0.04623
 O285 O -0.00158 0.53121 -0.05293
 O286 O -0.00158 0.46961 -0.05249
 O287 O 0.06232 0.45051 0.05938
 O288 O 0.02877 0.41219 0.02740
 C289 C 0.05301 0.41920 0.05008
 O290 O -0.06317 0.54905 0.06219
 O291 O -0.03156 0.58740 0.02821
 C292 C -0.05414 0.58037 0.05259
 O293 O -0.06601 0.45062 0.05904
 O294 O -0.03201 0.41228 0.02741
 C295 C -0.05646 0.41933 0.04988
 O296 O 0.05891 0.54895 0.06270
 O297 O 0.02719 0.58742 0.02890
 C298 C 0.04966 0.58028 0.05331
 Zr299 Zr 0.04250 0.49978 0.04282
 O300 O 0.04210 0.49567 0.09823
 O301 O 0.09781 0.50377 0.04295
 Zr302 Zr -0.04618 0.49986 0.04259
 O303 O -0.04583 0.49591 0.09802
 O304 O -0.10150 0.50372 0.04267
 Zr305 Zr -0.00169 0.55191 -0.00164
 Zr306 Zr -0.00165 0.44788 -0.00169
 O307 O -0.00184 0.46943 0.04911
 O308 O -0.00188 0.53103 0.04962
 O309 O 0.04951 0.46867 -0.00163
 O310 O -0.05240 0.53026 -0.00183
 O311 O 0.04902 0.53024 -0.00156
 O312 O -0.05285 0.46873 -0.00181
 H313 H -0.00164 0.45384 -0.07311
 H314 H -0.07301 0.54604 -0.00194
 H315 H -0.00187 0.45350 0.06965
 H316 H 0.06953 0.54611 -0.00148
 H317 H -0.11043 0.48435 -0.03201
 H318 H -0.11061 0.48452 0.02790
 H319 H -0.03223 0.51593 0.10717
 H320 H 0.02780 0.51525 0.10736
 H321 H 0.10703 0.48440 0.02843
 H322 H 0.10713 0.48396 -0.03161
 H323 H 0.02843 0.51592 -0.11058
 H324 H -0.03148 0.51575 -0.11076
 O325 O 1.06255 -0.06215 0.45067
 O326 O 1.03088 -0.02844 0.41206
 C327 C 1.05332 -0.05284 0.41925
 O328 O 0.93783 -0.05855 0.54924
 O329 O 0.97187 -0.02709 0.58758
 C330 C 0.94749 -0.04955 0.58058
 O331 O 0.94069 -0.06155 0.45066
 O332 O 0.97272 -0.02819 0.41206
 C333 C 0.94995 -0.05227 0.41921
 O334 O 1.06591 -0.05847 0.54942
 O335 O 1.03224 -0.02647 0.58777
 C336 C 1.05655 -0.04909 0.58080
 Zr337 Zr 1.04610 -0.04217 0.49995
 O338 O 1.04563 -0.09742 0.50423
 O339 O 1.10141 -0.04254 0.49588
 Zr340 Zr 0.95743 -0.04179 0.49991
 O341 O 0.95719 -0.09706 0.50387
 O342 O 0.90209 -0.04106 0.49617
 O343 O 1.00176 -0.04893 0.46869
 O344 O 1.00175 -0.04826 0.53038
 O345 O 1.06605 0.06319 0.54878
 O346 O 1.03220 0.03166 0.58739
 C347 C 1.05653 0.05415 0.58021
 O348 O 0.94137 0.06651 0.45016
 O349 O 0.97303 0.03250 0.41182
 C350 C 0.95060 0.05696 0.41880
 O351 O 0.93787 0.06342 0.54896
 O352 O 0.97144 0.03158 0.58753
 C353 C 0.94715 0.05416 0.58040
 O354 O 1.06331 0.06580 0.45008
 O355 O 1.03126 0.03225 0.41181
 C356 C 1.05406 0.05636 0.41872
 Zr357 Zr 1.04642 0.04636 0.49953
 O358 O 1.04646 0.10166 0.50309
 O359 O 1.10175 0.04583 0.49573
 Zr360 Zr 0.95770 0.04676 0.49961
 O361 O 0.95790 0.10204 0.50338
 O362 O 0.90237 0.04677 0.49559
 Zr363 Zr 1.00194 0.00214 0.44761
 Zr364 Zr 1.00186 0.00247 0.55191
 O365 O 1.00204 0.05306 0.52998
 O366 O 1.00210 0.05332 0.46827
 O367 O 1.05306 0.00218 0.53102
 O368 O 0.95121 0.00244 0.46930
 O369 O 1.05265 0.00196 0.46926
 O370 O 0.95069 0.00258 0.53108
 H371 H 1.00181 -0.06878 0.54630
 H372 H 0.93070 0.00250 0.45338
 H373 H 1.00203 0.07362 0.54581
 H374 H 1.07319 0.00179 0.45334
 H375 H 0.89309 -0.02724 0.51618
 H376 H 0.89313 0.03272 0.51535
 H377 H 0.97249 0.11108 0.48393
 H378 H 1.03238 0.11075 0.48330
 H379 H 1.11075 0.03182 0.51561
 H380 H 1.11066 -0.02800 0.51521
 H381 H 1.03155 -0.10657 0.48451
 H382 H 0.97164 -0.10627 0.48440
 C383 C 1.11398 0.11522 0.30916
 C384 C 1.10050 0.10225 0.33471
 C385 C 1.08449 0.08685 0.36440
 C386 C 1.07066 0.07327 0.38943
 C387 C 0.88944 -0.11235 0.31100
 C388 C 0.90317 -0.09906 0.33616
 C389 C 0.91941 -0.08326 0.36542
 C390 C 0.93334 -0.06940 0.39015
 C391 C 0.88568 0.11209 0.68945
 C392 C 0.89916 0.09902 0.66400
 C393 C 0.91535 0.08360 0.63444
 C394 C 0.92959 0.07028 0.60954
 C395 C 1.11690 -0.10842 0.68977
 C396 C 1.10384 -0.09469 0.66443
 C397 C 1.08798 -0.07879 0.63494
 C398 C 1.07394 -0.06524 0.61002
 C399 C 0.31002 1.11227 1.11380
 C400 C 0.33542 1.09882 1.10057
 C401 C 0.36495 1.08297 1.08473
 C402 C 0.38986 1.06916 1.07097
 C403 C 0.31044 0.88454 0.88952
 C404 C 0.33583 0.89749 0.90320
 C405 C 0.36533 0.91298 0.91936
 C406 C 0.39021 0.92666 0.93324
 C407 C 0.69050 0.88837 1.11673
 C408 C 0.66492 0.90175 1.10379
 C409 C 0.63519 0.91739 1.08812
 C410 C 0.61014 0.93079 1.07420
 C411 C 0.68894 1.10980 0.88626
 C412 C 0.66367 1.09613 0.89951
 C413 C 0.63428 1.08013 0.91548
 C414 C 0.60947 1.06645 0.92957
 C415 C 0.11390 0.31084 0.10973
 C416 C 0.10051 0.33604 0.09612
 C417 C 0.08446 0.36534 0.08013
 C418 C 0.07037 0.39011 0.06644
 C419 C -0.11708 0.31054 -0.11193
 C420 C -0.10381 0.33592 -0.09864
 C421 C -0.08784 0.36539 -0.08300
 C422 C -0.07375 0.39024 -0.06955
 C423 C 0.11100 0.68931 -0.11529
 C424 C 0.09711 0.66399 -0.10244
 C425 C 0.08082 0.63455 -0.08699
 C426 C 0.06690 0.60969 -0.07330
 C427 C -0.11354 0.68918 0.11270
 C428 C -0.10023 0.66382 0.09936
 C429 C -0.08440 0.63434 0.08354
 C430 C -0.07070 0.60947 0.06969
 C431 C 1.11593 0.11346 0.68917
 C432 C 1.10292 0.10016 0.66368
 C433 C 1.08737 0.08435 0.63414
 C434 C 1.07363 0.07064 0.60926
 C435 C 0.88770 -0.11013 0.68890
 C436 C 0.90100 -0.09640 0.66374
 C437 C 0.91673 -0.08013 0.63447
 C438 C 0.93050 -0.06616 0.60970
 C439 C 1.11162 -0.11421 0.31069
 C440 C 1.09838 -0.10079 0.33602
 C441 C 1.08285 -0.08463 0.36542
 C442 C 1.06943 -0.07040 0.39022
 C443 C 0.89117 0.11647 0.30978
 C444 C 0.90498 0.10366 0.33515
 C445 C 0.92092 0.08812 0.36467
 C446 C 0.93446 0.07425 0.38961
 C447 C 0.11306 0.31115 -0.11339
 C448 C 0.09963 0.33641 -0.10010
 C449 C 0.08375 0.36575 -0.08424
 C450 C 0.06987 0.39053 -0.07050
 C451 C -0.11626 0.31065 0.10919
 C452 C -0.10324 0.33597 0.09559
 C453 C -0.08761 0.36541 0.07972
 C454 C -0.07373 0.39027 0.06614
 C455 C -0.11235 0.68951 -0.11615
 C456 C -0.09891 0.66405 -0.10320
 C457 C -0.08308 0.63453 -0.08761
 C458 C -0.06947 0.60965 -0.07376
 C459 C 0.10922 0.68816 0.11407
 C460 C 0.09550 0.66306 0.10084
 C461 C 0.07953 0.63389 0.08488
 C462 C 0.06587 0.60923 0.07076
 C463 C 0.31106 1.11299 0.89059
 C464 C 0.33618 1.09967 0.90426
 C465 C 0.36539 1.08377 0.92029
 C466 C 0.39011 1.06979 0.93401
 C467 C 0.31031 0.88350 1.11213
 C468 C 0.33590 0.89643 1.09896
 C469 C 0.36555 0.91204 1.08343
 C470 C 0.39049 0.92592 1.06999
 C471 C 0.68845 1.10995 1.11619
 C472 C 0.66320 1.09620 1.10330
 C473 C 0.63393 1.08009 1.08768
 C474 C 0.60923 1.06632 1.07378
 C475 C 0.68910 0.88795 0.88670
 C476 C 0.66376 0.90136 0.89989
 C477 C 0.63437 0.91727 0.91559
 C478 C 0.60955 0.93093 0.92947
   
