data_POSCAR
  _audit_creation_date              2014-09-24
  _audit_creation_method            'ToBaCCo'
  _symmetry_space_group_name_H-M    'P1'
  _symmetry_Int_Tables_number       1
  _symmetry_cell_setting            triclinic
  loop_
  _symmetry_equiv_pos_as_xyz
 x,y,z
_cell_length_a 49.0432
_cell_length_b 28.3568
_cell_length_c 20.2492
_cell_angle_alpha 90.042100
_cell_angle_beta 89.883100
_cell_angle_gamma 90.048700
loop_
  _atom_site_label
  _atom_site_type_symbol
  _atom_site_fract_x
  _atom_site_fract_y
  _atom_site_fract_z
O1 O 0.78280 0.25855 0.43695
 O2 O 0.73617 0.30296 0.56544
 O3 O 0.78281 0.25861 0.56503
 O4 O 0.73620 0.30293 0.43691
 O5 O 0.71442 0.23461 0.43698
 O6 O 0.76104 0.19028 0.56512
 O7 O 0.71440 0.23465 0.56553
 O8 O 0.76103 0.19021 0.43702
 Cu9 Cu 0.76165 0.28769 0.50109
 Cu10 Cu 0.73549 0.20558 0.50118
 C11 C 0.77995 0.21674 0.41575
 C12 C 0.71734 0.27638 0.58698
 C13 C 0.77996 0.21681 0.58623
 C14 C 0.71738 0.27632 0.41548
 O15 O 0.23620 0.80310 0.56512
 O16 O 0.28286 0.75812 0.43700
 O17 O 0.23636 0.80282 0.43659
 O18 O 0.28274 0.75846 0.56508
 O19 O 0.26083 0.69025 0.56532
 O20 O 0.21444 0.73464 0.43680
 O21 O 0.26094 0.68992 0.43722
 O22 O 0.21428 0.73493 0.56536
 Cu23 Cu 0.26171 0.78754 0.50094
 Cu24 Cu 0.23537 0.70559 0.50121
 C25 C 0.21728 0.77669 0.58668
 C26 C 0.27993 0.71628 0.41592
 C27 C 0.21752 0.77628 0.41516
 C28 C 0.27978 0.71671 0.58640
 O29 O 0.26126 0.31033 -0.56761
 O30 O 0.21471 0.26596 -0.43890
 O31 O 0.26131 0.31043 -0.43955
 O32 O 0.21459 0.26580 -0.56748
 O33 O 0.23635 0.19754 -0.56759
 O34 O 0.28306 0.24214 -0.43968
 O35 O 0.23647 0.19768 -0.43903
 O36 O 0.28301 0.24205 -0.56772
 Cu37 Cu 0.23573 0.29498 -0.50341
 Cu38 Cu 0.26188 0.21293 -0.50356
 C39 C 0.28019 0.28386 -0.58886
 C40 C 0.21769 0.22429 -0.41735
 C41 C 0.28022 0.28396 -0.41845
 C42 C 0.21750 0.22405 -0.58891
 O43 O -0.28508 0.76627 -0.43760
 O44 O -0.23830 0.81114 -0.56562
 O45 O -0.28493 0.76651 -0.56617
 O46 O -0.23850 0.81089 -0.43755
 O47 O -0.21669 0.74265 -0.43782
 O48 O -0.26311 0.69830 -0.56641
 O49 O -0.21649 0.74291 -0.56586
 O50 O -0.26325 0.69806 -0.43787
 Cu51 Cu -0.26395 0.79555 -0.50174
 Cu52 Cu -0.23773 0.71356 -0.50205
 C53 C -0.28211 0.72454 -0.41627
 C54 C -0.21932 0.78477 -0.58684
 C55 C -0.28194 0.72483 -0.58778
 C56 C -0.21961 0.78440 -0.41643
 O57 O -0.03723 0.91951 0.12276
 O58 O -0.06747 0.96076 0.05846
 C59 C -0.06171 0.93144 0.10540
 O60 O 0.03886 1.08572 0.11632
 O61 O 0.06904 1.04124 0.05578
 C62 C 0.06333 1.07332 0.09924
 O63 O -0.03735 1.08158 0.12210
 O64 O -0.06751 1.03950 0.05846
 C65 C -0.06180 1.06924 0.10497
 O66 O 0.03884 0.91454 0.11545
 O67 O 0.06903 0.95927 0.05522
 C68 C 0.06330 0.92707 0.09847
 Zr69 Zr 0.00074 0.94017 0.08205
 O70 O 0.00158 0.93256 0.18591
 O71 O -0.00033 0.86619 0.06990
 Zr72 Zr 0.00074 1.05956 0.08345
 O73 O 0.00333 1.05995 0.18780
 O74 O -0.00225 1.13405 0.08173
 O75 O -0.02345 0.99981 0.09599
 O76 O 0.02438 0.99989 0.09503
 O77 O 0.03890 0.91456 -0.11623
 O78 O 0.06905 0.95956 -0.05646
 C79 C 0.06336 0.92725 -0.09959
 O80 O -0.03726 1.08204 -0.12144
 O81 O -0.06746 1.03977 -0.05794
 C82 C -0.06173 1.06966 -0.10427
 O83 O 0.03898 1.08639 -0.11542
 O84 O 0.06912 1.04150 -0.05574
 C85 C 0.06343 1.07383 -0.09871
 O86 O -0.03730 0.91892 -0.12231
 O87 O -0.06748 0.96093 -0.05845
 C88 C -0.06175 0.93124 -0.10505
 Zr89 Zr 0.00076 0.94089 -0.08363
 O90 O 0.00380 0.94011 -0.18793
 O91 O -0.00199 0.86638 -0.08153
 Zr92 Zr 0.00079 1.06017 -0.08277
 O93 O 0.00387 1.06213 -0.18701
 O94 O -0.00235 1.13462 -0.07916
 Zr95 Zr -0.04014 1.00021 -0.00001
 Zr96 Zr 0.04157 1.00039 -0.00025
 O97 O 0.02442 1.00059 -0.09549
 O98 O -0.02351 1.00054 -0.09620
 O99 O 0.02532 0.93153 -0.00084
 O100 O -0.02313 1.06838 0.00047
 O101 O -0.02331 0.93197 -0.00061
 O102 O 0.02525 1.06918 0.00033
 H103 H 0.03656 0.99988 0.13399
 H104 H -0.03554 1.09594 0.00064
 H105 H 0.03655 1.00068 -0.13467
 H106 H -0.03584 0.90453 -0.00057
 H107 H 0.01379 1.14631 0.05752
 H108 H 0.01397 1.14677 -0.05608
 H109 H -0.01016 1.04058 -0.20483
 H110 H -0.01065 0.96096 -0.20532
 H111 H 0.01286 0.85470 -0.05286
 H112 H -0.00090 0.85276 0.11503
 H113 H 0.00524 0.96411 0.20456
 H114 H -0.01126 1.03907 0.20479
 O115 O 0.46245 0.41859 0.12182
 O116 O 0.43223 0.45985 0.05745
 C117 C 0.43797 0.43050 0.10436
 O118 O 0.53850 0.58498 0.11559
 O119 O 0.56871 0.54049 0.05518
 C120 C 0.56297 0.57261 0.09853
 O121 O 0.46230 0.58069 0.12135
 O122 O 0.43218 0.53859 0.05765
 C123 C 0.43786 0.56833 0.10420
 O124 O 0.53853 0.41379 0.11493
 O125 O 0.56875 0.45850 0.05472
 C126 C 0.56301 0.42634 0.09802
 Zr127 Zr 0.50044 0.43934 0.08134
 O128 O 0.50111 0.43176 0.18522
 O129 O 0.49944 0.36536 0.06917
 Zr130 Zr 0.50041 0.55873 0.08271
 O131 O 0.50295 0.55905 0.18708
 O132 O 0.49739 0.63322 0.08105
 O133 O 0.47622 0.49896 0.09519
 O134 O 0.52407 0.49908 0.09436
 O135 O 0.53868 0.41370 -0.11677
 O136 O 0.56880 0.45876 -0.05697
 C137 C 0.56313 0.42641 -0.10005
 O138 O 0.46249 0.58124 -0.12216
 O139 O 0.43227 0.53894 -0.05874
 C140 C 0.43803 0.56886 -0.10500
 O141 O 0.53874 0.58558 -0.11606
 O142 O 0.56887 0.54070 -0.05633
 C143 C 0.56319 0.57302 -0.09932
 O144 O 0.46250 0.41813 -0.12327
 O145 O 0.43228 0.46009 -0.05946
 C146 C 0.43804 0.43043 -0.10612
 Zr147 Zr 0.50053 0.44005 -0.08435
 O148 O 0.50366 0.43923 -0.18863
 O149 O 0.49776 0.36554 -0.08223
 Zr150 Zr 0.50054 0.55933 -0.08352
 O151 O 0.50365 0.56120 -0.18777
 O152 O 0.49739 0.63378 -0.08001
 Zr153 Zr 0.45958 0.49935 -0.00085
 Zr154 Zr 0.54129 0.49958 -0.00087
 O155 O 0.52419 0.49977 -0.09616
 O156 O 0.47626 0.49970 -0.09700
 O157 O 0.52505 0.43071 -0.00149
 O158 O 0.47658 0.56753 -0.00032
 O159 O 0.47642 0.43113 -0.00140
 O160 O 0.52495 0.56836 -0.00034
 H161 H 0.53623 0.49913 0.13333
 H162 H 0.46416 0.59508 -0.00014
 H163 H 0.53635 0.49986 -0.13528
 H164 H 0.46391 0.40367 -0.00144
 H165 H 0.51340 0.64549 0.05673
 H166 H 0.51369 0.64593 -0.05685
 H167 H 0.48952 0.53984 -0.20560
 H168 H 0.48930 0.46023 -0.20609
 H169 H 0.51262 0.35385 -0.05361
 H170 H 0.49887 0.35193 0.11429
 H171 H 0.50531 0.46310 0.20388
 H172 H 0.48844 0.53797 0.20399
 C173 C 0.33514 0.33590 0.28478
 N174 N 0.33555 0.38272 0.27117
 N175 N 0.35526 0.40095 0.23366
 C176 C 0.37518 0.37293 0.20870
 N177 N 0.37473 0.32610 0.22218
 N178 N 0.35502 0.30786 0.25970
 C179 C 0.31483 0.31677 0.32826
 C180 C 0.29827 0.30106 0.36642
 C181 C 0.39705 0.39291 0.17081
 C182 C 0.41566 0.40993 0.13999
 C183 C -0.16434 0.83708 0.28698
 N184 N -0.16365 0.88403 0.27431
 N185 N -0.14399 0.90224 0.23660
 C186 C -0.12440 0.87407 0.21047
 N187 N -0.12512 0.82711 0.22301
 N188 N -0.14478 0.80890 0.26073
 C189 C -0.18463 0.81789 0.33050
 C190 C -0.20120 0.80211 0.36860
 C191 C -0.10258 0.89399 0.17227
 C192 C -0.08401 0.91095 0.14124
 C193 C 0.66367 0.67226 0.27937
 N194 N 0.66593 0.62710 0.25795
 N195 N 0.64687 0.60844 0.21904
 C196 C 0.62499 0.63438 0.20033
 N197 N 0.62277 0.67958 0.22161
 N198 N 0.64183 0.69824 0.26053
 C199 C 0.68331 0.69138 0.32450
 C200 C 0.69940 0.70694 0.36384
 C201 C 0.60359 0.61330 0.16213
 C202 C 0.58523 0.59504 0.13198
 C203 C 0.16397 1.17244 0.28103
 N204 N 0.14224 1.19857 0.26183
 N205 N 0.12320 1.18000 0.22276
 C206 C 0.12533 1.13474 0.20165
 N207 N 0.14710 1.10865 0.22071
 N208 N 0.16614 1.12722 0.25978
 C209 C 0.18363 1.19152 0.32621
 C210 C 0.19975 1.20706 0.36552
 C211 C 0.10395 1.11379 0.16320
 C212 C 0.08560 1.09563 0.13285
 C213 C 0.66389 0.32766 -0.28223
 N214 N 0.64212 0.30146 -0.26306
 N215 N 0.62307 0.31993 -0.22380
 C216 C 0.62522 0.36513 -0.20248
 N217 N 0.64703 0.39128 -0.22151
 N218 N 0.66608 0.37282 -0.26077
 C219 C 0.68353 0.30872 -0.32765
 C220 C 0.69963 0.29328 -0.36720
 C221 C 0.60381 0.38600 -0.16397
 C222 C 0.58543 0.40411 -0.13362
 C223 C 0.16390 0.82844 -0.28262
 N224 N 0.16599 0.87377 -0.26180
 N225 N 0.14700 0.89229 -0.22242
 C226 C 0.12535 0.86603 -0.20262
 N227 N 0.12330 0.82066 -0.22331
 N228 N 0.14229 0.80214 -0.26269
 C229 C 0.18351 0.80937 -0.32808
 C230 C 0.19958 0.79378 -0.36759
 C231 C 0.10399 0.88691 -0.16389
 C232 C 0.08564 0.90500 -0.13335
 C233 C 0.33548 0.66383 -0.28458
 N234 N 0.33556 0.61715 -0.27005
 N235 N 0.35518 0.59891 -0.23252
 C236 C 0.37534 0.62679 -0.20846
 N237 N 0.37523 0.67348 -0.22287
 N238 N 0.35560 0.69173 -0.26040
 C239 C 0.31526 0.68292 -0.32809
 C240 C 0.29877 0.69858 -0.36624
 C241 C 0.39715 0.60674 -0.17072
 C242 C 0.41573 0.58962 -0.14016
 C243 C -0.16424 1.16411 -0.28471
 N244 N -0.16410 1.11743 -0.27014
 N245 N -0.14449 1.09930 -0.23245
 C246 C -0.12442 1.12728 -0.20824
 N247 N -0.12459 1.17398 -0.22269
 N248 N -0.14420 1.19211 -0.26038
 C249 C -0.18448 1.18311 -0.32830
 C250 C -0.20100 1.19872 -0.36646
 C251 C -0.10261 1.10736 -0.17028
 C252 C -0.08404 1.09033 -0.13956
 C253 C 0.66360 0.67202 -0.28259
 N254 N 0.66581 0.62683 -0.26136
 N255 N 0.64686 0.60833 -0.22184
 C256 C 0.62514 0.63447 -0.20227
 N257 N 0.62297 0.67970 -0.22335
 N258 N 0.64193 0.69820 -0.26288
 C259 C 0.68316 0.69105 -0.32820
 C260 C 0.69921 0.70658 -0.36779
 C261 C 0.60381 0.61355 -0.16348
 C262 C 0.58548 0.59539 -0.13295
 C263 C 0.16367 1.17242 -0.28267
 N264 N 0.14199 1.19863 -0.26312
 N265 N 0.12308 1.18026 -0.22336
 C266 C 0.12531 1.13513 -0.20189
 N267 N 0.14703 1.10897 -0.22130
 N268 N 0.16594 1.12734 -0.26107
 C269 C 0.18315 1.19124 -0.32860
 C270 C 0.19912 1.20657 -0.36851
 C271 C 0.10401 1.11430 -0.16296
 C272 C 0.08569 1.09617 -0.13237
 C273 C 0.33585 0.33667 -0.28876
 N274 N 0.35546 0.30842 -0.26314
 N275 N 0.37499 0.32646 -0.22502
 C276 C 0.37550 0.37328 -0.21140
 N277 N 0.35586 0.40151 -0.23689
 N278 N 0.33633 0.38348 -0.27502
 C279 C 0.31570 0.31770 -0.33268
 C280 C 0.29923 0.30209 -0.37103
 C281 C 0.39723 0.39306 -0.17294
 C282 C 0.41575 0.40994 -0.14182
 C283 C -0.16409 0.83707 -0.28657
 N284 N -0.14430 0.80895 -0.26150
 N285 N -0.12475 0.82706 -0.22354
 C286 C -0.12438 0.87383 -0.20956
 N287 N -0.14420 0.90193 -0.23450
 N288 N -0.16376 0.88383 -0.27246
 C289 C -0.18423 0.81809 -0.33045
 C290 C -0.20067 0.80248 -0.36886
 C291 C -0.10261 0.89370 -0.17139
 C292 C -0.08406 0.91067 -0.14051
 C293 C 0.33555 0.66300 0.28624
 N294 N 0.33599 0.61612 0.27298
 N295 N 0.35553 0.59787 0.23494
 C296 C 0.37522 0.62595 0.20904
 N297 N 0.37475 0.67285 0.22217
 N298 N 0.35521 0.69109 0.26021
 C299 C 0.31541 0.68220 0.33013
 C300 C 0.29894 0.69798 0.36848
 C301 C 0.39698 0.60596 0.17072
 C302 C 0.41553 0.58892 0.13973
 C303 C -0.16432 1.16389 0.28613
 N304 N -0.16414 1.11717 0.27178
 N305 N -0.14454 1.09897 0.23392
 C306 C -0.12451 1.12693 0.20932
 N307 N -0.12472 1.17368 0.22353
 N308 N -0.14433 1.19188 0.26139
 C309 C -0.18453 1.18297 0.32992
 C310 C -0.20103 1.19862 0.36826
 C311 C -0.10270 1.10695 0.17124
 C312 C -0.08412 1.08990 0.14041
 C313 C 0.66319 0.32832 0.28181
 N314 N 0.64157 0.30198 0.26219
 N315 N 0.62267 0.32031 0.22261
 C316 C 0.62482 0.36552 0.20138
 N317 N 0.64647 0.39182 0.22086
 N318 N 0.66538 0.37349 0.26044
 C319 C 0.68271 0.30948 0.32742
 C320 C 0.69873 0.29410 0.36701
 C321 C 0.60354 0.38624 0.16248
 C322 C 0.58525 0.40422 0.13184
 C323 C 0.16351 0.82845 0.28133
 N324 N 0.14186 0.80220 0.26166
 N325 N 0.12296 0.82066 0.22222
 C326 C 0.12514 0.86591 0.20119
 N327 N 0.14682 0.89212 0.22071
 N328 N 0.16573 0.87366 0.26016
 C329 C 0.18299 0.80951 0.32692
 C330 C 0.19896 0.79408 0.36656
 C331 C 0.10385 0.88677 0.16252
 C332 C 0.08555 0.90486 0.13208
   
