data_POSCAR
  _audit_creation_date              2014-09-24
  _audit_creation_method            'ToBaCCo'
  _symmetry_space_group_name_H-M    'P1'
  _symmetry_Int_Tables_number       1
  _symmetry_cell_setting            triclinic
  loop_
  _symmetry_equiv_pos_as_xyz
 x,y,z
_cell_length_a 48.8420
_cell_length_b 49.2105
_cell_length_c 19.1329
_cell_angle_alpha 89.622800
_cell_angle_beta 90.199700
_cell_angle_gamma 120.290600
loop_
  _atom_site_label
  _atom_site_type_symbol
  _atom_site_fract_x
  _atom_site_fract_y
  _atom_site_fract_z
C1 C 0.25970 0.52483 0.52950
 C2 C 0.26209 0.52540 0.45822
 C3 C 0.23895 0.52837 0.41239
 C4 C 0.28676 0.52101 0.42314
 C5 C 0.28528 0.52649 0.57510
 C6 C 0.23067 0.52050 0.56496
 C7 C 0.22393 0.50697 0.35790
 C8 C 0.20016 0.50763 0.31837
 C9 C 0.19067 0.52990 0.33245
 C10 C 0.20688 0.55213 0.38554
 C11 C 0.23088 0.55156 0.42445
 C12 C 0.29201 0.49654 0.44399
 C13 C 0.31612 0.49337 0.41349
 C14 C 0.33426 0.51346 0.35902
 C15 C 0.32819 0.53704 0.33568
 C16 C 0.30470 0.54089 0.36785
 C17 C 0.31697 0.55042 0.56612
 C18 C 0.34113 0.55000 0.60466
 C19 C 0.33412 0.52595 0.65363
 C20 C 0.30216 0.50255 0.66407
 C21 C 0.27805 0.50302 0.62556
 C22 C 0.23327 0.53931 0.62236
 C23 C 0.20607 0.53542 0.65560
 C24 C 0.17587 0.51285 0.63138
 C25 C 0.17323 0.49387 0.57462
 C26 C 0.20037 0.49709 0.54284
 H27 H 0.22984 0.48892 0.34745
 H28 H 0.18901 0.48979 0.27884
 H29 H 0.20078 0.56990 0.39786
 H30 H 0.24261 0.56877 0.46533
 H31 H 0.27765 0.48006 0.48449
 H32 H 0.32029 0.47486 0.43163
 H33 H 0.30081 0.55965 0.35030
 H34 H 0.32304 0.56896 0.52797
 H35 H 0.36547 0.56827 0.59542
 H36 H 0.29555 0.48311 0.69974
 H37 H 0.25378 0.48425 0.63305
 H38 H 0.25635 0.55726 0.64084
 H39 H 0.20860 0.55052 0.69902
 H40 H 0.15012 0.47620 0.55563
 H41 H 0.19769 0.48144 0.50050
 H42 H 0.34212 0.55292 0.29386
 C43 C 0.49174 -0.25739 0.53390
 C44 C 0.49810 -0.25481 0.46412
 C45 C 0.50375 -0.27783 0.42586
 C46 C 0.50147 -0.22726 0.42486
 C47 C 0.48982 -0.23219 0.57147
 C48 C 0.48807 -0.28424 0.57692
 C49 C 0.52517 -0.28660 0.45188
 C50 C 0.52824 -0.31030 0.41949
 C51 C 0.51110 -0.32469 0.35861
 C52 C 0.49095 -0.31479 0.33026
 C53 C 0.48728 -0.29161 0.36371
 C54 C 0.53021 -0.19860 0.42750
 C55 C 0.53243 -0.17135 0.39906
 C56 C 0.50626 -0.17261 0.36545
 C57 C 0.47771 -0.20152 0.36101
 C58 C 0.47521 -0.22860 0.39145
 C59 C 0.46044 -0.23430 0.58217
 C60 C 0.45869 -0.21085 0.61943
 C61 C 0.48621 -0.18539 0.64767
 C62 C 0.51569 -0.18310 0.63550
 C63 C 0.51744 -0.20629 0.59759
 C64 C 0.46630 -0.31546 0.55876
 C65 C 0.46477 -0.34042 0.59745
 C66 C 0.48474 -0.33475 0.65555
 C67 C 0.50560 -0.30320 0.67499
 C68 C 0.50715 -0.27843 0.63612
 H69 H 0.53900 -0.27563 0.49835
 H70 H 0.54401 -0.31745 0.44206
 H71 H 0.47709 -0.32580 0.28386
 H72 H 0.47077 -0.28523 0.34212
 H73 H 0.55056 -0.19716 0.45385
 H74 H 0.55458 -0.14925 0.40323
 H75 H 0.45265 -0.25039 0.39052
 H76 H 0.43896 -0.25410 0.56180
 H77 H 0.43579 -0.21285 0.62734
 H78 H 0.53747 -0.16322 0.65440
 H79 H 0.54034 -0.20417 0.58889
 H80 H 0.45093 -0.32049 0.51388
 H81 H 0.44820 -0.36426 0.58109
 H82 H 0.52142 -0.29684 0.71908
 H83 H 0.52411 -0.25461 0.65145
 H84 H 0.45707 -0.20289 0.33630
 C85 C 1.25691 0.75134 0.52897
 C86 C 1.26039 0.74998 0.45859
 C87 C 1.28693 0.77620 0.42009
 C88 C 1.23696 0.72332 0.41566
 C89 C 1.22744 0.72810 0.56661
 C90 C 1.28281 0.77628 0.57157
 C91 C 1.28714 0.80445 0.40866
 C92 C 1.31091 0.82839 0.36800
 C93 C 1.33545 0.82473 0.33916
 C94 C 1.33549 0.79660 0.35299
 C95 C 1.31108 0.77232 0.39160
 C96 C 1.22233 0.72915 0.35905
 C97 C 1.19842 0.70428 0.32144
 C98 C 1.18898 0.67288 0.33898
 C99 C 1.20444 0.66721 0.39439
 C100 C 1.22832 0.69218 0.43222
 C101 C 1.22955 0.71470 0.62996
 C102 C 1.20217 0.69251 0.66517
 C103 C 1.17184 0.68276 0.63707
 C104 C 1.16990 0.69654 0.57401
 C105 C 1.19725 0.71953 0.54037
 C106 C 1.31343 0.78054 0.56983
 C107 C 1.33773 0.80398 0.60976
 C108 C 1.33193 0.82331 0.65384
 C109 C 1.30083 0.81844 0.65649
 C110 C 1.27663 0.79514 0.61577
 H111 H 1.26853 0.80770 0.43033
 H112 H 1.31021 0.84985 0.36123
 H113 H 1.35401 0.79297 0.33220
 H114 H 1.31112 0.75053 0.39975
 H115 H 1.22854 0.75301 0.34564
 H116 H 1.18692 0.71006 0.28052
 H117 H 1.23960 0.68723 0.47534
 H118 H 1.25251 0.72102 0.65168
 H119 H 1.20522 0.68224 0.71254
 H120 H 1.14706 0.68993 0.55110
 H121 H 1.19476 0.73042 0.49331
 H122 H 1.31851 0.76557 0.53777
 H123 H 1.36116 0.80675 0.60648
 H124 H 1.29476 0.83260 0.68853
 H125 H 1.25305 0.79202 0.61821
 H126 H 1.19768 0.64334 0.40916
 C127 C 0.73656 0.47308 0.53850
 C128 C 0.73902 0.47825 0.46805
 C129 C 0.76566 0.47954 0.42773
 C130 C 0.71608 0.48407 0.42883
 C131 C 0.70943 0.47011 0.58005
 C132 C 0.76303 0.47415 0.57865
 C133 C 0.78548 0.50620 0.38729
 C134 C 0.81118 0.50803 0.35095
 C135 C 0.81732 0.48297 0.35381
 C136 C 0.79718 0.45620 0.39376
 C137 C 0.77145 0.45435 0.42979
 C138 C 0.70851 0.50654 0.45199
 C139 C 0.68500 0.50995 0.41837
 C140 C 0.66970 0.49207 0.35908
 C141 C 0.67841 0.47076 0.33356
 C142 C 0.70140 0.46677 0.36832
 C143 C 0.67788 0.44898 0.56119
 C144 C 0.65283 0.44863 0.59740
 C145 C 0.65865 0.46904 0.65402
 C146 C 0.69050 0.48918 0.67447
 C147 C 0.71537 0.48961 0.63795
 C148 C 0.76008 0.44668 0.60804
 C149 C 0.78474 0.44805 0.64806
 C150 C 0.81219 0.47711 0.66220
 C151 C 0.81493 0.50466 0.63201
 C152 C 0.79070 0.50304 0.59011
 H153 H 0.78147 0.52592 0.38515
 H154 H 0.82653 0.52943 0.32239
 H155 H 0.80134 0.43658 0.39697
 H156 H 0.75608 0.43329 0.45954
 H157 H 0.72027 0.52092 0.49717
 H158 H 0.67877 0.52663 0.43862
 H159 H 0.70709 0.44954 0.34916
 H160 H 0.67266 0.43328 0.51739
 H161 H 0.62879 0.43258 0.58028
 H162 H 0.69706 0.50543 0.71728
 H163 H 0.73946 0.50610 0.65377
 H164 H 0.73876 0.42420 0.59960
 H165 H 0.78191 0.42638 0.66974
 H166 H 0.83595 0.52746 0.63856
 H167 H 0.79326 0.52444 0.56745
 H168 H 0.66667 0.45639 0.28837
 C169 C 0.48759 0.24405 0.53845
 C170 C 0.49039 0.24285 0.46791
 C171 C 0.49375 0.26913 0.42333
 C172 C 0.48987 0.21581 0.43187
 C173 C 0.48446 0.21907 0.58702
 C174 C 0.48949 0.27194 0.57195
 C175 C 0.46759 0.26586 0.38583
 C176 C 0.46986 0.29120 0.34742
 C177 C 0.49855 0.32025 0.34557
 C178 C 0.52479 0.32319 0.38256
 C179 C 0.52251 0.29778 0.42064
 C180 C 0.46691 0.18446 0.44757
 C181 C 0.46760 0.15953 0.41457
 C182 C 0.49036 0.16539 0.36311
 C183 C 0.51271 0.19669 0.34574
 C184 C 0.51249 0.22160 0.37991
 C185 C 0.50853 0.21164 0.59271
 C186 C 0.50618 0.18934 0.64175
 C187 C 0.47954 0.17402 0.68667
 C188 C 0.45556 0.18172 0.68013
 C189 C 0.45804 0.20400 0.63122
 C190 C 0.51898 0.29683 0.59293
 C191 C 0.52098 0.32256 0.62790
 C192 C 0.49339 0.32325 0.64551
 C193 C 0.46375 0.29824 0.62311
 C194 C 0.46196 0.27302 0.58601
 H195 H 0.44517 0.24391 0.38786
 H196 H 0.44883 0.28816 0.32135
 H197 H 0.54709 0.34527 0.38229
 H198 H 0.54301 0.30058 0.44889
 H199 H 0.44842 0.17919 0.48536
 H200 H 0.45005 0.13558 0.42853
 H201 H 0.53039 0.24548 0.36648
 H202 H 0.52932 0.22338 0.55963
 H203 H 0.52549 0.18467 0.64344
 H204 H 0.43470 0.17053 0.71320
 H205 H 0.43915 0.20938 0.62780
 H206 H 0.54043 0.29620 0.58253
 H207 H 0.54416 0.34144 0.64356
 H208 H 0.44190 0.29815 0.63242
 H209 H 0.43906 0.25412 0.56910
 H210 H 0.53088 0.20193 0.30709
 C211 C 0.74699 0.25546 0.53982
 C212 C 0.75065 0.25438 0.46943
 C213 C 0.72567 0.22875 0.42642
 C214 C 0.77945 0.27876 0.43236
 C215 C 0.76975 0.28248 0.58317
 C216 C 0.72099 0.22851 0.57772
 C217 C 0.73320 0.21046 0.38340
 C218 C 0.70961 0.18590 0.34395
 C219 C 0.67805 0.17945 0.34635
 C220 C 0.67080 0.19817 0.38873
 C221 C 0.69437 0.22271 0.42789
 C222 C 0.80997 0.28774 0.45716
 C223 C 0.83673 0.31243 0.42532
 C224 C 0.83356 0.32763 0.36628
 C225 C 0.80315 0.31774 0.33942
 C226 C 0.77632 0.29354 0.37232
 C227 C 0.77818 0.31349 0.56587
 C228 C 0.80146 0.33873 0.60423
 C229 C 0.81659 0.33359 0.66140
 C230 C 0.80681 0.30215 0.68031
 C231 C 0.78371 0.27706 0.64164
 C232 C 0.69775 0.23211 0.61219
 C233 C 0.67348 0.20687 0.64895
 C234 C 0.67277 0.17806 0.65378
 C235 C 0.69621 0.17454 0.61951
 C236 C 0.72006 0.19958 0.58143
 H237 H 0.75725 0.21482 0.38150
 H238 H 0.71617 0.17171 0.31326
 H239 H 0.64675 0.19378 0.39161
 H240 H 0.68817 0.23696 0.45960
 H241 H 0.81306 0.27607 0.50212
 H242 H 0.85997 0.31961 0.44660
 H243 H 0.75305 0.28691 0.35204
 H244 H 0.76720 0.31818 0.52172
 H245 H 0.80796 0.36242 0.58833
 H246 H 0.81702 0.29621 0.72364
 H247 H 0.77741 0.25330 0.65623
 H248 H 0.69826 0.25436 0.60989
 H249 H 0.65549 0.20995 0.67453
 H250 H 0.69580 0.15234 0.62113
 H251 H 0.73798 0.19654 0.55533
 H252 H 0.80002 0.32939 0.29448
 N253 N 0.96843 0.53570 0.07553
 N254 N 0.94440 0.54035 0.08583
 N255 N 1.03590 0.55138 0.12114
 N256 N 1.06093 0.56697 0.16170
 N257 N 1.03514 0.56993 0.07253
 N258 N 1.05963 0.59870 0.07874
 N259 N 0.96915 0.51706 0.12412
 N260 N 0.94556 0.50851 0.16873
 C261 C 0.93034 0.52323 0.14404
 C262 C 1.07542 0.59646 0.13462
 N263 N 1.03706 0.47480 0.07287
 N264 N 1.06161 0.47069 0.07992
 N265 N 0.97059 0.45907 0.12460
 N266 N 0.94680 0.44331 0.16840
 N267 N 0.97034 0.44044 0.07546
 N268 N 0.94618 0.41161 0.08390
 N269 N 1.03738 0.49374 0.12127
 N270 N 1.06234 0.50324 0.16239
 Mn271 Mn 1.00323 0.50531 0.12370
 C272 C 1.07717 0.48857 0.13583
 C273 C 0.93187 0.41374 0.14227
 N274 N 1.03395 0.56950 -0.07780
 N275 N 1.05881 0.59801 -0.08543
 N276 N 0.96672 0.51618 -0.12307
 N277 N 0.94322 0.50826 -0.16748
 N278 N 0.96712 0.53551 -0.07557
 N279 N 0.94400 0.54155 -0.08692
 N280 N 1.03332 0.55076 -0.12714
 N281 N 1.05746 0.56615 -0.17033
 Mn282 Mn 1.00114 0.55300 -0.00130
 C283 C 1.07303 0.59562 -0.14373
 C284 C 0.92916 0.52411 -0.14402
 N285 N 0.96902 0.43998 -0.07448
 N286 N 0.94540 0.41085 -0.08188
 N287 N 1.03444 0.49274 -0.12657
 N288 N 1.05865 0.50254 -0.16972
 N289 N 1.03578 0.47471 -0.07740
 N290 N 1.06113 0.47199 -0.08534
 N291 N 0.96780 0.45838 -0.12285
 N292 N 0.94325 0.44226 -0.16451
 Mn293 Mn 1.00307 0.45717 -0.00089
 Mn294 Mn 1.00053 0.50449 -0.12571
 Cl295 Cl 1.00196 0.50500 -0.00102
 C296 C 0.92954 0.41265 -0.13810
 C297 C 1.07498 0.48930 -0.14342
 N298 N 0.53263 0.56062 0.07168
 N299 N 0.53883 0.58984 0.07924
 N300 N 0.54281 0.50568 0.11894
 N301 N 0.55755 0.49608 0.16161
 N302 N 0.56202 0.52375 0.06937
 N303 N 0.59024 0.52658 0.07636
 N304 N 0.51379 0.54251 0.12170
 N305 N 0.50695 0.55900 0.16513
 C306 C 0.52284 0.58850 0.13798
 C307 C 0.58710 0.50932 0.13423
 N308 N 0.46076 0.43120 0.07271
 N309 N 0.45280 0.40151 0.08217
 N310 N 0.45231 0.48618 0.12327
 N311 N 0.43922 0.49758 0.16526
 N312 N 0.43217 0.46864 0.07468
 N313 N 0.40491 0.46787 0.08192
 N314 N 0.48121 0.44914 0.12045
 N315 N 0.48774 0.43213 0.16365
 Mn316 Mn 0.49754 0.49582 0.12196
 C317 C 0.46987 0.40247 0.13891
 C318 C 0.40963 0.48580 0.13893
 N319 N 0.56077 0.52406 -0.08059
 N320 N 0.58889 0.52706 -0.08985
 N321 N 0.51152 0.54257 -0.12682
 N322 N 0.50351 0.55889 -0.16847
 N323 N 0.53153 0.56074 -0.07880
 N324 N 0.53784 0.59001 -0.08663
 N325 N 0.54074 0.50567 -0.12839
 N326 N 0.55475 0.49559 -0.17157
 Mn327 Mn 0.54706 0.54263 -0.00457
 C328 C 0.58481 0.50921 -0.14661
 C329 C 0.52019 0.58844 -0.14276
 N330 N 0.43075 0.46863 -0.07563
 N331 N 0.40265 0.46603 -0.08295
 N332 N 0.47908 0.44958 -0.12663
 N333 N 0.48304 0.43268 -0.17443
 N334 N 0.45920 0.43132 -0.07817
 N335 N 0.44887 0.40143 -0.09208
 N336 N 0.45016 0.48666 -0.12494
 N337 N 0.43582 0.49693 -0.16709
 Mn338 Mn 0.44538 0.44964 -0.00147
 Mn339 Mn 0.49541 0.49611 -0.12754
 Cl340 Cl 0.49636 0.49602 -0.00292
 C341 C 0.40618 0.48382 -0.14011
 C342 C 0.46426 0.40274 -0.15180
 N343 N 0.44247 -0.02477 0.07339
 N344 N 0.41233 -0.04542 0.08603
 N345 N 0.49926 0.03941 0.11472
 N346 N 0.50695 0.06249 0.15948
 N347 N 0.48219 0.04099 0.06329
 N348 N 0.47817 0.06538 0.07123
 N349 N 0.46060 -0.02630 0.12232
 N350 N 0.44342 -0.04807 0.16911
 C351 C 0.41339 -0.05986 0.14569
 C352 C 0.49384 0.07862 0.13125
 N353 N 0.57272 0.02987 0.07300
 N354 N 0.60277 0.05170 0.08198
 N355 N 0.51609 -0.03288 0.12806
 N356 N 0.50420 -0.05690 0.17226
 N357 N 0.53361 -0.03617 0.08073
 N358 N 0.53361 -0.06272 0.09047
 N359 N 0.55475 0.03293 0.11951
 N360 N 0.57197 0.05686 0.16114
 Mn361 Mn 0.50768 0.00326 0.12194
 C362 C 0.60186 0.06838 0.13710
 C363 C 0.51551 -0.07519 0.14808
 N364 N 0.48160 0.03669 -0.08796
 N365 N 0.48057 0.06239 -0.10406
 N366 N 0.45948 -0.03316 -0.12277
 N367 N 0.44169 -0.05670 -0.16493
 N368 N 0.44185 -0.02908 -0.07718
 N369 N 0.41154 -0.04975 -0.08715
 N370 N 0.49911 0.03235 -0.13336
 N371 N 0.51078 0.05492 -0.18067
 Mn372 Mn 0.46173 0.00608 -0.00714
 C373 C 0.49901 0.07338 -0.16216
 C374 C 0.41187 -0.06690 -0.14180
 N375 N 0.53348 -0.04013 -0.06869
 N376 N 0.53808 -0.06415 -0.07735
 N377 N 0.55379 0.02580 -0.12782
 N378 N 0.57037 0.04809 -0.17402
 N379 N 0.57223 0.02566 -0.07795
 N380 N 0.60203 0.04768 -0.08933
 N381 N 0.51468 -0.03989 -0.11751
 N382 N 0.50595 -0.06366 -0.16070
 Mn383 Mn 0.55339 -0.00513 0.00194
 Mn384 Mn 0.50667 -0.00386 -0.12592
 Cl385 Cl 0.50735 0.00011 -0.00224
 C386 C 0.52049 -0.07875 -0.13455
 C387 C 0.60038 0.06149 -0.14946
 C388 C 1.16636 0.53037 0.29904
 C389 C 1.14854 0.51046 0.24415
 C390 C 1.12183 0.51042 0.21782
 C391 C 1.10492 0.49098 0.16203
 H392 H 1.15497 0.49456 0.22070
 H393 H 1.11402 0.52536 0.24130
 H394 H 1.15972 0.54726 0.31622
 H395 H 1.11357 0.47697 0.13735
 C396 C 0.51314 0.64878 0.32845
 C397 C 0.51234 0.64375 0.25968
 C398 C 0.51362 0.61644 0.23256
 C399 C 0.52192 0.61573 0.16645
 H400 H 0.51136 0.66015 0.22309
 H401 H 0.50821 0.59692 0.26748
 H402 H 0.51654 0.63351 0.36412
 H403 H 0.52901 0.63596 0.13265
 C404 C 0.36022 -0.15186 0.29844
 C405 C 0.35984 -0.12733 0.26838
 C406 C 0.38762 -0.10351 0.22915
 C407 C 0.38524 -0.08461 0.18207
 H408 H 0.33904 -0.12492 0.27035
 H409 H 0.41044 -0.10158 0.23874
 H410 H 0.38062 -0.15450 0.28836
 H411 H 0.36226 -0.08753 0.16943
 C412 C 0.84501 0.48428 0.31852
 C413 C 0.86010 0.50306 0.26395
 C414 C 0.88786 0.50358 0.23226
 C415 C 0.90219 0.52153 0.17626
 H416 H 0.85192 0.51797 0.24158
 H417 H 0.89677 0.48933 0.25518
 H418 H 0.85288 0.46852 0.33748
 H419 H 0.89308 0.53556 0.15314
 C420 C 0.50156 0.34835 0.30912
 C421 C 0.48274 0.34689 0.25647
 C422 C 0.48613 0.37578 0.22454
 C423 C 0.46811 0.37426 0.17032
 H424 H 0.46474 0.32436 0.23624
 H425 H 0.50321 0.39844 0.24616
 H426 H 0.52042 0.37125 0.32583
 H427 H 0.45128 0.35160 0.14837
 C428 C 0.65172 0.15287 0.30834
 C429 C 0.65544 0.13760 0.25485
 C430 C 0.62747 0.11105 0.22201
 C431 C 0.63004 0.09538 0.16798
 H432 H 0.67874 0.14452 0.23471
 H433 H 0.60421 0.10400 0.24306
 H434 H 0.62779 0.14578 0.32489
 H435 H 0.65314 0.10228 0.14638
 C436 C 0.47545 0.15115 -0.26293
 C437 C 0.49605 0.14125 -0.25078
 C438 C 0.48867 0.11530 -0.20137
 C439 C 0.50641 0.10178 -0.20214
 H440 H 0.51813 0.15098 -0.27902
 H441 H 0.46791 0.10604 -0.16812
 H442 H 0.45372 0.14027 -0.23253
 H443 H 0.52615 0.11039 -0.23832
 C444 C 0.63261 0.46904 -0.31379
 C445 C 0.63485 0.48711 -0.25927
 C446 C 0.60704 0.48762 -0.23108
 C447 C 0.61067 0.50603 -0.17665
 H448 H 0.65730 0.50238 -0.23441
 H449 H 0.58398 0.47356 -0.25522
 H450 H 0.60917 0.45373 -0.33522
 H451 H 0.63385 0.51978 -0.15280
 C452 C 0.84131 0.36000 -0.30449
 C453 C 0.85790 0.35865 -0.24982
 C454 C 0.88501 0.38730 -0.22088
 C455 C 0.90129 0.38523 -0.16688
 H456 H 0.85244 0.33654 -0.22602
 H457 H 0.89210 0.40997 -0.24461
 H458 H 0.84787 0.38315 -0.32479
 H459 H 0.89393 0.36251 -0.14312
 C460 C 0.48375 -0.16110 -0.31227
 C461 C 0.50331 -0.14548 -0.25937
 C462 C 0.50144 -0.12022 -0.22303
 C463 C 0.51974 -0.10599 -0.16758
 H464 H 0.52107 -0.15118 -0.24277
 H465 H 0.48558 -0.11260 -0.24305
 H466 H 0.46483 -0.15655 -0.32553
 H467 H 0.53523 -0.11392 -0.14696
 C468 C 0.36078 0.52505 -0.31095
 C469 C 0.35742 0.50780 -0.25378
 C470 C 0.38441 0.50594 -0.22458
 C471 C 0.38045 0.48774 -0.16898
 H472 H 0.33467 0.49455 -0.22816
 H473 H 0.40741 0.51890 -0.24964
 H474 H 0.38424 0.53906 -0.33346
 H475 H 0.35741 0.47487 -0.14406
 C476 C 1.14351 0.65923 -0.33192
 C477 C 1.14090 0.64902 -0.26575
 C478 C 1.11044 0.62334 -0.23916
 C479 C 1.10293 0.62150 -0.17159
 H480 H 1.16055 0.66016 -0.22959
 H481 H 1.09368 0.60615 -0.27559
 H482 H 1.12199 0.64940 -0.36298
 H483 H 1.11863 0.63994 -0.13612
 C484 C 0.83599 0.47743 -0.29551
 C485 C 0.85934 0.50323 -0.26490
 C486 C 0.88428 0.50170 -0.22487
 C487 C 0.90243 0.52413 -0.17929
 H488 H 0.86007 0.52555 -0.26741
 H489 H 0.88805 0.48206 -0.23343
 H490 H 0.83471 0.45512 -0.28478
 H491 H 0.89773 0.54295 -0.16794
 C492 C 0.49662 0.34887 -0.31558
 C493 C 0.47294 0.34907 -0.28085
 C494 C 0.47879 0.37697 -0.24113
 C495 C 0.45925 0.37483 -0.19002
 H496 H 0.44952 0.32843 -0.27832
 H497 H 0.49961 0.39947 -0.25328
 H498 H 0.52024 0.36921 -0.31008
 H499 H 0.43930 0.35213 -0.17549
 C500 C 0.64669 0.15173 -0.30754
 C501 C 0.65078 0.13118 -0.26940
 C502 C 0.62374 0.10503 -0.23316
 C503 C 0.62778 0.08804 -0.18378
 H504 H 0.67412 0.13386 -0.26415
 H505 H 0.60000 0.09976 -0.24691
 H506 H 0.62366 0.15002 -0.30817
 H507 H 0.65143 0.09397 -0.16756
 C508 C 1.14684 0.50927 -0.33677
 C509 C 1.14308 0.50881 -0.26766
 C510 C 1.11340 0.50439 -0.23809
 C511 C 1.10472 0.49388 -0.17287
 H512 H 1.16148 0.51059 -0.23287
 H513 H 1.09799 0.50894 -0.27095
 H514 H 1.12730 0.50488 -0.37102
 H515 H 1.11921 0.48768 -0.14116
 C516 C 0.48357 0.63929 -0.30973
 C517 C 0.50171 0.64132 -0.25486
 C518 C 0.50064 0.61316 -0.22517
 C519 C 0.51948 0.61573 -0.17176
 H520 H 0.51824 0.66359 -0.23154
 H521 H 0.48486 0.59034 -0.24793
 H522 H 0.46732 0.61598 -0.32977
 H523 H 0.53510 0.63854 -0.14884
 C524 C 0.35761 -0.15321 -0.30785
 C525 C 0.35568 -0.13445 -0.25995
 C526 C 0.38457 -0.10986 -0.22556
 C527 C 0.38307 -0.09249 -0.17400
 H528 H 0.33327 -0.13677 -0.24517
 H529 H 0.40746 -0.10569 -0.24324
 H530 H 0.38089 -0.15016 -0.31757
 H531 H 0.36026 -0.09688 -0.15535
 C532 C 0.50892 -0.14334 0.33781
 C533 C 0.49825 -0.14186 0.27440
 C534 C 0.50336 -0.11180 0.24611
 C535 C 0.50810 -0.10569 0.17785
 H536 H 0.48764 -0.16248 0.24126
 H537 H 0.50531 -0.09383 0.28169
 H538 H 0.52220 -0.12197 0.36793
 H539 H 0.50884 -0.12270 0.14337
 C540 C 0.35979 0.50975 0.32850
 C541 C 0.36367 0.50954 0.25958
 C542 C 0.38820 0.50380 0.23125
 C543 C 0.38572 0.49247 0.16696
 H544 H 0.34771 0.51203 0.22408
 H545 H 0.40786 0.50768 0.26452
 H546 H 0.37409 0.50454 0.36348
 H547 H 0.36518 0.48692 0.13508
 C548 C 1.16207 0.64555 0.30404
 C549 C 1.14847 0.64761 0.24494
 C550 C 1.11996 0.62008 0.21695
 C551 C 1.10485 0.62304 0.16173
 H552 H 1.15770 0.66966 0.21702
 H553 H 1.11075 0.59747 0.24289
 H554 H 1.15259 0.62270 0.32905
 H555 H 1.11398 0.64571 0.13617
 C556 C 0.49104 0.13861 0.33020
 C557 C 0.49806 0.13857 0.26268
 C558 C 0.49827 0.11132 0.23180
 C559 C 0.49499 0.10632 0.16294
 H560 H 0.50262 0.15828 0.22926
 H561 H 0.49995 0.09455 0.26600
 H562 H 0.48403 0.11771 0.36168
 H563 H 0.49116 0.12191 0.12933
 C564 C 0.64368 0.49491 0.32725
 C565 C 0.63883 0.49372 0.25832
 C566 C 0.61257 0.49681 0.22950
 C567 C 0.61286 0.50549 0.16316
 H568 H 0.65485 0.49148 0.22290
 H569 H 0.59323 0.49291 0.26367
 H570 H 0.62896 0.49964 0.36158
 H571 H 0.63304 0.51117 0.13007
 C572 C 0.86213 0.35455 0.33557
 C573 C 0.86578 0.35973 0.26672
 C574 C 0.89463 0.38681 0.23821
 C575 C 0.90307 0.38711 0.17187
 H576 H 0.84784 0.34337 0.23097
 H577 H 0.90954 0.40630 0.27231
 H578 H 0.88133 0.36967 0.37043
 H579 H 0.88914 0.36684 0.13898
   
