data_POSCAR
  _audit_creation_date              2014-09-24
  _audit_creation_method            'ToBaCCo'
  _symmetry_space_group_name_H-M    'P1'
  _symmetry_Int_Tables_number       1
  _symmetry_cell_setting            triclinic
  loop_
  _symmetry_equiv_pos_as_xyz
 x,y,z
_cell_length_a 64.9397
_cell_length_b 36.9612
_cell_length_c 20.9605
_cell_angle_alpha 90.020600
_cell_angle_beta 90.011600
_cell_angle_gamma 89.985100
loop_
  _atom_site_label
  _atom_site_type_symbol
  _atom_site_fract_x
  _atom_site_fract_y
  _atom_site_fract_z
C1 C 0.73166 0.26083 0.53493
 C2 C 0.73043 0.25545 0.46790
 C3 C 0.74661 0.23823 0.43579
 C4 C 0.76467 0.22716 0.46744
 C5 C 0.76588 0.23172 0.53512
 C6 C 0.74966 0.24968 0.56682
 H7 H 0.75008 0.25153 0.61840
 H8 H 0.74577 0.23653 0.38421
 C9 C 0.23420 0.76752 0.53498
 C10 C 0.23470 0.76963 0.46769
 C11 C 0.25178 0.75597 0.43480
 C12 C 0.26860 0.74080 0.46723
 C13 C 0.26859 0.73976 0.53525
 C14 C 0.25104 0.75270 0.56772
 H15 H 0.25061 0.75248 0.61941
 H16 H 0.25186 0.75674 0.38307
 C17 C 0.26496 0.26947 -0.53399
 C18 C 0.26607 0.26533 -0.46716
 C19 C 0.24996 0.24808 -0.43483
 C20 C 0.23220 0.23572 -0.46698
 C21 C 0.23131 0.23919 -0.53505
 C22 C 0.24756 0.25701 -0.56672
 H23 H 0.24758 0.25882 -0.61835
 H24 H 0.25070 0.24689 -0.38320
 C25 C -0.23262 0.76212 -0.53306
 C26 C -0.23156 0.75826 -0.46618
 C27 C -0.24796 0.74204 -0.43359
 C28 C -0.26564 0.72939 -0.46577
 C29 C -0.26621 0.73154 -0.53405
 C30 C -0.24979 0.74879 -0.56592
 H31 H -0.24977 0.75052 -0.61755
 H32 H -0.24722 0.74098 -0.38196
 N33 N 0.02120 1.06521 -0.06881
 N34 N 0.03675 1.08769 -0.07709
 N35 N -0.02200 1.03915 -0.11277
 N36 N -0.03794 1.04266 -0.15134
 N37 N -0.02215 1.06458 -0.06903
 N38 N -0.03819 1.08608 -0.07667
 N39 N 0.02136 1.03980 -0.11258
 N40 N 0.03704 1.04431 -0.15184
 C41 C 0.04651 1.07433 -0.12912
 C42 C -0.04789 1.07211 -0.12834
 N43 N -0.02154 0.93637 -0.06671
 N44 N -0.03685 0.91337 -0.07526
 N45 N 0.02169 0.96187 -0.11111
 N46 N 0.03723 0.95710 -0.15077
 N47 N 0.02179 0.93698 -0.06645
 N48 N 0.03741 0.91458 -0.07455
 N49 N -0.02162 0.96124 -0.11141
 N50 N -0.03697 0.95584 -0.15157
 Mn51 Mn -0.00014 1.00052 -0.11275
 C52 C -0.04637 0.92589 -0.12839
 C53 C 0.04692 0.92749 -0.12738
 N54 N -0.02221 1.06549 0.06829
 N55 N -0.03807 1.08745 0.07559
 N56 N 0.02121 1.04112 0.11314
 N57 N 0.03714 1.04534 0.15146
 N58 N 0.02117 1.06601 0.06851
 N59 N 0.03710 1.08788 0.07527
 N60 N -0.02212 1.04060 0.11293
 N61 N -0.03790 1.04494 0.15182
 Mn62 Mn -0.00050 1.06578 -0.00027
 C63 C -0.04772 1.07431 0.12799
 C64 C 0.04690 1.07467 0.12738
 N65 N 0.02173 0.93788 0.07104
 N66 N 0.03763 0.91612 0.07937
 N67 N -0.02176 0.96280 0.11442
 N68 N -0.03753 0.95873 0.15338
 N69 N -0.02167 0.93732 0.07078
 N70 N -0.03742 0.91519 0.07891
 N71 N 0.02154 0.96334 0.11470
 N72 N 0.03729 0.95961 0.15391
 Mn73 Mn 0.00008 0.93667 0.00219
 Mn74 Mn -0.00028 1.00197 0.11454
 Cl75 Cl -0.00021 1.00122 0.00090
 C76 C 0.04720 0.93001 0.13137
 C77 C -0.04717 0.92889 0.13075
 N78 N 0.47796 0.43680 -0.06919
 N79 N 0.46221 0.41476 -0.07771
 N80 N 0.52146 0.46125 -0.11314
 N81 N 0.53726 0.45696 -0.15200
 N82 N 0.52130 0.43586 -0.06938
 N83 N 0.53699 0.41360 -0.07728
 N84 N 0.47811 0.46215 -0.11303
 N85 N 0.46246 0.45805 -0.15257
 C86 C 0.45266 0.42836 -0.12994
 C87 C 0.54681 0.42707 -0.12912
 N88 N 0.52216 0.56407 -0.06716
 N89 N 0.53790 0.58620 -0.07500
 N90 N 0.47865 0.54007 -0.11164
 N91 N 0.46307 0.54521 -0.15104
 N92 N 0.47883 0.56498 -0.06698
 N93 N 0.46337 0.58775 -0.07480
 N94 N 0.52198 0.53918 -0.11183
 N95 N 0.53760 0.54370 -0.15130
 Mn96 Mn 0.50005 0.50066 -0.11320
 C97 C 0.54741 0.57316 -0.12772
 C98 C 0.45366 0.57507 -0.12749
 N99 N 0.52136 0.43508 0.06794
 N100 N 0.53694 0.41252 0.07530
 N101 N 0.47826 0.46103 0.11284
 N102 N 0.46245 0.45713 0.15171
 N103 N 0.47799 0.43611 0.06822
 N104 N 0.46195 0.41454 0.07557
 N105 N 0.52157 0.46001 0.11255
 N106 N 0.53729 0.45510 0.15148
 Mn107 Mn 0.49964 0.43550 -0.00061
 C108 C 0.54675 0.42534 0.12769
 C109 C 0.45241 0.42798 0.12797
 N110 N 0.47890 0.56419 0.07044
 N111 N 0.46312 0.58628 0.07825
 N112 N 0.52213 0.53783 0.11387
 N113 N 0.53814 0.54111 0.15219
 N114 N 0.52229 0.56326 0.07018
 N115 N 0.53845 0.58454 0.07761
 N116 N 0.47881 0.53881 0.11421
 N117 N 0.46297 0.54292 0.15296
 Mn118 Mn 0.50054 0.56459 0.00165
 Mn119 Mn 0.50020 0.49942 0.11413
 Cl120 Cl 0.50011 0.50005 0.00046
 C121 C 0.45333 0.57269 0.13005
 C122 C 0.54817 0.57043 0.12911
 C123 C 0.29569 0.32800 0.35206
 C124 C 0.31546 0.31338 0.35898
 C125 C 0.31865 0.28408 0.40012
 C126 C 0.30219 0.26961 0.43454
 C127 C 0.28236 0.28448 0.42859
 C128 C 0.27919 0.31355 0.38654
 C129 C 0.33259 0.32863 0.32472
 C130 C 0.34715 0.34129 0.29696
 C131 C 0.36443 0.35607 0.26560
 C132 C 0.37938 0.36874 0.23987
 C133 C 0.39742 0.38401 0.21053
 C134 C 0.40664 0.41473 0.23712
 C135 C 0.42449 0.42915 0.20997
 C136 C 0.43336 0.41296 0.15584
 C137 C 0.42392 0.38228 0.12903
 C138 C 0.40605 0.36787 0.15631
 H139 H 0.29306 0.35067 0.32034
 H140 H 0.33387 0.27250 0.40572
 H141 H 0.30490 0.24683 0.46592
 H142 H 0.26401 0.32532 0.38118
 H143 H 0.40010 0.42741 0.27910
 H144 H 0.43139 0.45286 0.23153
 H145 H 0.43040 0.36931 0.08726
 H146 H 0.39905 0.34405 0.13539
 C147 C -0.18957 0.77605 0.34774
 C148 C -0.18330 0.81136 0.36210
 C149 C -0.19351 0.83097 0.40973
 C150 C -0.20979 0.81521 0.44332
 C151 C -0.21591 0.77955 0.42989
 C152 C -0.20583 0.76024 0.38134
 C153 C -0.16612 0.82713 0.32890
 C154 C -0.15156 0.84015 0.30163
 C155 C -0.13434 0.85527 0.27047
 C156 C -0.11948 0.86819 0.24464
 C157 C -0.10158 0.88374 0.21492
 C158 C -0.09276 0.91513 0.24038
 C159 C -0.07510 0.92991 0.21270
 C160 C -0.06602 0.91343 0.15919
 C161 C -0.07504 0.88206 0.13355
 C162 C -0.09273 0.86729 0.16135
 H163 H -0.18177 0.76062 0.31103
 H164 H -0.18879 0.85833 0.42117
 H165 H -0.21753 0.83067 0.48010
 H166 H -0.21032 0.73271 0.37034
 H167 H -0.09948 0.92806 0.28184
 H168 H -0.06851 0.95415 0.23337
 H169 H -0.06838 0.86886 0.09229
 H170 H -0.09942 0.84296 0.14131
 C171 C 0.69475 0.66429 0.40917
 C172 C 0.68654 0.68230 0.35633
 C173 C 0.69459 0.71581 0.33806
 C174 C 0.71045 0.73172 0.37337
 C175 C 0.71834 0.71460 0.42842
 C176 C 0.71060 0.68010 0.44461
 C177 C 0.66939 0.66697 0.32228
 C178 C 0.65473 0.65437 0.29486
 C179 C 0.63728 0.63981 0.26403
 C180 C 0.62216 0.62744 0.23878
 C181 C 0.60388 0.61267 0.20996
 C182 C 0.59504 0.62943 0.15669
 C183 C 0.57693 0.61559 0.13000
 C184 C 0.56746 0.58486 0.15646
 C185 C 0.57654 0.56804 0.20964
 C186 C 0.59463 0.58190 0.23621
 H187 H 0.68879 0.63812 0.42333
 H188 H 0.68832 0.73000 0.29720
 H189 H 0.71577 0.75830 0.35926
 H190 H 0.71689 0.66512 0.48449
 H191 H 0.60206 0.65330 0.13605
 H192 H 0.57029 0.62903 0.08895
 H193 H 0.56962 0.54428 0.23091
 H194 H 0.60133 0.56875 0.27749
 C195 C 0.19262 1.17200 0.40581
 C196 C 0.18419 1.19060 0.35396
 C197 C 0.19192 1.22459 0.33720
 C198 C 0.20771 1.24033 0.37302
 C199 C 0.21584 1.22255 0.42708
 C200 C 0.20839 1.18764 0.44175
 C201 C 0.16715 1.17528 0.31939
 C202 C 0.15261 1.16252 0.29168
 C203 C 0.13529 1.14759 0.26072
 C204 C 0.12029 1.13476 0.23556
 C205 C 0.10216 1.11928 0.20710
 C206 C 0.09320 1.13527 0.15327
 C207 C 0.07523 1.12067 0.12694
 C208 C 0.06603 1.08995 0.15433
 C209 C 0.07522 1.07392 0.20808
 C210 C 0.09317 1.08854 0.23428
 H211 H 0.18690 1.14546 0.41877
 H212 H 0.18549 1.23924 0.29710
 H213 H 0.21284 1.26723 0.36007
 H214 H 0.21488 1.17217 0.48074
 H215 H 0.10002 1.15911 0.13192
 H216 H 0.06849 1.13350 0.08544
 H217 H 0.06850 1.05019 0.23006
 H218 H 0.09996 1.07598 0.27598
 C219 C 0.67821 0.28122 -0.40824
 C220 C 0.68217 0.30535 -0.35840
 C221 C 0.70250 0.31393 -0.34253
 C222 C 0.71884 0.29891 -0.37707
 C223 C 0.71510 0.27537 -0.42893
 C224 C 0.69447 0.26617 -0.44285
 C225 C 0.66528 0.32156 -0.32433
 C226 C 0.65090 0.33513 -0.29694
 C227 C 0.63381 0.35100 -0.26612
 C228 C 0.61904 0.36454 -0.24077
 C229 C 0.60119 0.38069 -0.21163
 C230 C 0.59224 0.36485 -0.15770
 C231 C 0.57457 0.38006 -0.13051
 C232 C 0.56565 0.41127 -0.15709
 C233 C 0.57484 0.42717 -0.21095
 C234 C 0.59249 0.41193 -0.23805
 H235 H 0.66253 0.27393 -0.42032
 H236 H 0.70574 0.33259 -0.30393
 H237 H 0.73436 0.30701 -0.36474
 H238 H 0.69082 0.24655 -0.47945
 H239 H 0.59883 0.34064 -0.13690
 H240 H 0.56784 0.36729 -0.08894
 H241 H 0.56833 0.45126 -0.23234
 H242 H 0.59928 0.42439 -0.27983
 C243 C 0.17952 0.78033 -0.40580
 C244 C 0.18226 0.80729 -0.35962
 C245 C 0.20204 0.82049 -0.34675
 C246 C 0.21898 0.80712 -0.38044
 C247 C 0.21629 0.78054 -0.42762
 C248 C 0.19646 0.76690 -0.43947
 C249 C 0.16475 0.82202 -0.32653
 C250 C 0.15006 0.83474 -0.29944
 C251 C 0.13284 0.85004 -0.26848
 C252 C 0.11809 0.86341 -0.24275
 C253 C 0.10040 0.87970 -0.21299
 C254 C 0.09157 0.91078 -0.23958
 C255 C 0.07421 0.92645 -0.21147
 C256 C 0.06546 0.91118 -0.15638
 C257 C 0.07448 0.88009 -0.12967
 C258 C 0.09186 0.86444 -0.15789
 H259 H 0.16429 0.76989 -0.41608
 H260 H 0.20433 0.84137 -0.31117
 H261 H 0.23415 0.81798 -0.37065
 H262 H 0.19410 0.74610 -0.47514
 H263 H 0.09806 0.92282 -0.28219
 H264 H 0.06761 0.95043 -0.23300
 H265 H 0.06808 0.86780 -0.08719
 H266 H 0.09858 0.84039 -0.13690
 C267 C 0.32271 0.72097 -0.41242
 C268 C 0.31933 0.69938 -0.35871
 C269 C 0.29920 0.69226 -0.33873
 C270 C 0.28249 0.70606 -0.37302
 C271 C 0.28560 0.72686 -0.42873
 C272 C 0.30605 0.73480 -0.44683
 C273 C 0.33653 0.68394 -0.32500
 C274 C 0.35101 0.67065 -0.29769
 C275 C 0.36807 0.65475 -0.26674
 C276 C 0.38271 0.64090 -0.24119
 C277 C 0.40031 0.62410 -0.21174
 C278 C 0.40885 0.59285 -0.23865
 C279 C 0.42617 0.57677 -0.21099
 C280 C 0.43517 0.59180 -0.15604
 C281 C 0.42642 0.62305 -0.12899
 C282 C 0.40909 0.63911 -0.15676
 H283 H 0.33825 0.72711 -0.42780
 H284 H 0.29641 0.67555 -0.29715
 H285 H 0.26712 0.69892 -0.35740
 H286 H 0.30927 0.75245 -0.48676
 H287 H 0.40219 0.58101 -0.28120
 H288 H 0.43255 0.55268 -0.23277
 H289 H 0.43301 0.63515 -0.08660
 H290 H 0.40260 0.66329 -0.13554
 C291 C -0.19471 1.16581 -0.40577
 C292 C -0.18612 1.18502 -0.35488
 C293 C -0.19395 1.21904 -0.33866
 C294 C -0.21003 1.23419 -0.37410
 C295 C -0.21835 1.21576 -0.42723
 C296 C -0.21076 1.18085 -0.44132
 C297 C -0.16885 1.17019 -0.32071
 C298 C -0.15413 1.15772 -0.29340
 C299 C -0.13666 1.14306 -0.26286
 C300 C -0.12155 1.13049 -0.23787
 C301 C -0.10331 1.11542 -0.20929
 C302 C -0.09448 1.13180 -0.15565
 C303 C -0.07645 1.11762 -0.12899
 C304 C -0.06706 1.08689 -0.15584
 C305 C -0.07612 1.07046 -0.20943
 C306 C -0.09413 1.08468 -0.23599
 H307 H -0.18891 1.13925 -0.41829
 H308 H -0.18740 1.23415 -0.29930
 H309 H -0.21525 1.26112 -0.36165
 H310 H -0.21735 1.16490 -0.47953
 H311 H -0.10144 1.15564 -0.13466
 H312 H -0.06983 1.13076 -0.08762
 H313 H -0.06925 1.04673 -0.23100
 H314 H -0.10083 1.07181 -0.27755
 C315 C 0.68018 0.71528 -0.41005
 C316 C 0.68329 0.69284 -0.35727
 C317 C 0.70332 0.68384 -0.33863
 C318 C 0.72019 0.69650 -0.37353
 C319 C 0.71729 0.71795 -0.42856
 C320 C 0.69699 0.72798 -0.44508
 C321 C 0.66590 0.67810 -0.32361
 C322 C 0.65124 0.66530 -0.29650
 C323 C 0.63399 0.64989 -0.26591
 C324 C 0.61917 0.63648 -0.24066
 C325 C 0.60137 0.62026 -0.21148
 C326 C 0.59276 0.63546 -0.15642
 C327 C 0.57524 0.62001 -0.12885
 C328 C 0.56611 0.58918 -0.15617
 C329 C 0.57493 0.57393 -0.21121
 C330 C 0.59245 0.58942 -0.23869
 H331 H 0.66473 0.72278 -0.42446
 H332 H 0.70590 0.66646 -0.29778
 H333 H 0.73544 0.68790 -0.35916
 H334 H 0.69406 0.74590 -0.48491
 H335 H 0.59954 0.65932 -0.13497
 H336 H 0.56879 0.63227 -0.08638
 H337 H 0.56825 0.55015 -0.23319
 H338 H 0.59898 0.57743 -0.28130
 C339 C 0.20183 1.18786 -0.34089
 C340 C 0.18169 1.19681 -0.35844
 C341 C 0.17829 1.21998 -0.41006
 C342 C 0.19491 1.23345 -0.44505
 C343 C 0.21531 1.22350 -0.42970
 C344 C 0.21851 1.20130 -0.37576
 C345 C 0.16447 1.18138 -0.32484
 C346 C 0.14993 1.16810 -0.29782
 C347 C 0.13279 1.15224 -0.26733
 C348 C 0.11804 1.13852 -0.24214
 C349 C 0.10031 1.12204 -0.21293
 C350 C 0.09172 1.09073 -0.23946
 C351 C 0.07425 1.07504 -0.21199
 C352 C 0.06515 1.09056 -0.15762
 C353 C 0.07395 1.12187 -0.13098
 C354 C 0.09142 1.13752 -0.15854
 H355 H 0.20464 1.16995 -0.30092
 H356 H 0.16275 1.22746 -0.42360
 H357 H 0.19174 1.25192 -0.48392
 H358 H 0.23386 1.19277 -0.36227
 H359 H 0.09847 1.07853 -0.28157
 H360 H 0.06783 1.05089 -0.23344
 H361 H 0.06729 1.13436 -0.08904
 H362 H 0.09794 1.16176 -0.13762
 C363 C 0.30499 0.33205 -0.40160
 C364 C 0.31660 0.30995 -0.36103
 C365 C 0.31138 0.27340 -0.35393
 C366 C 0.29475 0.25892 -0.38785
 C367 C 0.28329 0.28084 -0.42951
 C368 C 0.28838 0.31764 -0.43545
 C369 C 0.33404 0.32477 -0.32770
 C370 C 0.34873 0.33755 -0.30070
 C371 C 0.36601 0.35284 -0.27004
 C372 C 0.38085 0.36609 -0.24460
 C373 C 0.39868 0.38205 -0.21503
 C374 C 0.40731 0.36633 -0.16049
 C375 C 0.42484 0.38152 -0.13249
 C376 C 0.43395 0.41261 -0.15886
 C377 C 0.42511 0.42838 -0.21339
 C378 C 0.40758 0.41316 -0.24130
 H379 H 0.30885 0.36039 -0.40732
 H380 H 0.32026 0.25605 -0.32263
 H381 H 0.29105 0.23051 -0.38254
 H382 H 0.27954 0.33514 -0.46659
 H383 H 0.40054 0.34225 -0.13977
 H384 H 0.43131 0.36885 -0.09044
 H385 H 0.43178 0.45237 -0.23463
 H386 H 0.40102 0.42555 -0.28351
 C387 C -0.19970 0.81129 -0.34722
 C388 C -0.17976 0.79948 -0.36178
 C389 C -0.17679 0.77327 -0.40916
 C390 C -0.19367 0.75926 -0.44243
 C391 C -0.21368 0.77157 -0.42893
 C392 C -0.21658 0.79734 -0.38050
 C393 C -0.16234 0.81494 -0.32916
 C394 C -0.14780 0.82834 -0.30232
 C395 C -0.13079 0.84447 -0.27147
 C396 C -0.11626 0.85855 -0.24567
 C397 C -0.09887 0.87565 -0.21557
 C398 C -0.09028 0.86086 -0.16013
 C399 C -0.07323 0.87731 -0.13143
 C400 C -0.06457 0.90876 -0.15797
 C401 C -0.07337 0.92356 -0.21342
 C402 C -0.09041 0.90708 -0.24202
 H403 H -0.20217 0.83158 -0.31070
 H404 H -0.16143 0.76391 -0.42077
 H405 H -0.19114 0.73912 -0.47914
 H406 H -0.23188 0.80721 -0.36946
 H407 H -0.09672 0.83656 -0.13922
 H408 H -0.06679 0.86536 -0.08869
 H409 H -0.06705 0.94779 -0.23484
 H410 H -0.09694 0.91878 -0.28488
 C411 C 0.31143 0.72737 0.34680
 C412 C 0.31678 0.69119 0.35765
 C413 C 0.30588 0.67082 0.40269
 C414 C 0.28991 0.68673 0.43753
 C415 C 0.28484 0.72331 0.42809
 C416 C 0.29548 0.74333 0.38164
 C417 C 0.33387 0.67530 0.32411
 C418 C 0.34841 0.66210 0.29699
 C419 C 0.36567 0.64672 0.26634
 C420 C 0.38058 0.63361 0.24111
 C421 C 0.39858 0.61792 0.21212
 C422 C 0.40739 0.58673 0.23832
 C423 C 0.42518 0.57190 0.21137
 C424 C 0.43438 0.58815 0.15787
 C425 C 0.42535 0.61933 0.13150
 C426 C 0.40755 0.63413 0.15856
 H427 H 0.31978 0.74337 0.31207
 H428 H 0.30987 0.64279 0.41139
 H429 H 0.28170 0.67072 0.47252
 H430 H 0.29176 0.77153 0.37357
 H431 H 0.40059 0.57398 0.27980
 H432 H 0.43177 0.54781 0.23258
 H433 H 0.43209 0.63236 0.09022
 H434 H 0.40087 0.65831 0.13794
 C435 C -0.20468 1.18016 0.34083
 C436 C -0.18465 1.19052 0.35707
 C437 C -0.18143 1.21412 0.40821
 C438 C -0.19812 1.22671 0.44393
 C439 C -0.21840 1.21547 0.42977
 C440 C -0.22143 1.19272 0.37644
 C441 C -0.16731 1.17615 0.32261
 C442 C -0.15264 1.16375 0.29500
 C443 C -0.13529 1.14889 0.26407
 C444 C -0.12034 1.13592 0.23878
 C445 C -0.10234 1.12014 0.20994
 C446 C -0.09335 1.08936 0.23709
 C447 C -0.07561 1.07432 0.21019
 C448 C -0.06664 1.08995 0.15576
 C449 C -0.07584 1.12071 0.12844
 C450 C -0.09359 1.13573 0.15546
 H451 H -0.20734 1.16186 0.30128
 H452 H -0.16599 1.22266 0.42076
 H453 H -0.19511 1.24562 0.48229
 H454 H -0.23667 1.18316 0.36390
 H455 H -0.09999 1.07708 0.27927
 H456 H -0.06889 1.05058 0.23215
 H457 H -0.06927 1.13325 0.08642
 H458 H -0.10042 1.15956 0.13407
 C459 C 0.69356 0.32421 0.39744
 C460 C 0.68177 0.30249 0.35670
 C461 C 0.68629 0.26559 0.35074
 C462 C 0.70235 0.25035 0.38617
 C463 C 0.71390 0.27184 0.42832
 C464 C 0.70961 0.30903 0.43283
 C465 C 0.66470 0.31799 0.32250
 C466 C 0.65025 0.33124 0.29502
 C467 C 0.63316 0.34703 0.26414
 C468 C 0.61843 0.36073 0.23884
 C469 C 0.60069 0.37731 0.20988
 C470 C 0.59174 0.36204 0.15539
 C471 C 0.57422 0.37779 0.12829
 C472 C 0.56544 0.40896 0.15552
 C473 C 0.57463 0.42427 0.20994
 C474 C 0.59214 0.40850 0.23694
 H475 H 0.69022 0.35280 0.40230
 H476 H 0.67726 0.24856 0.31933
 H477 H 0.70548 0.22167 0.38186
 H478 H 0.71854 0.32616 0.46433
 H479 H 0.59824 0.33789 0.13409
 H480 H 0.56748 0.36548 0.08628
 H481 H 0.56823 0.44832 0.23183
 H482 H 0.59894 0.42052 0.27912
 C483 C 0.19473 0.83663 0.40907
 C484 C 0.18451 0.81615 0.36264
 C485 C 0.19103 0.78081 0.34949
 C486 C 0.20756 0.76586 0.38313
 C487 C 0.21766 0.78605 0.43053
 C488 C 0.21128 0.82173 0.44269
 C489 C 0.16708 0.83114 0.32942
 C490 C 0.15235 0.84364 0.30224
 C491 C 0.13494 0.85828 0.27124
 C492 C 0.11995 0.87085 0.24553
 C493 C 0.10191 0.88600 0.21587
 C494 C 0.09322 0.86942 0.16217
 C495 C 0.07543 0.88382 0.13430
 C496 C 0.06614 0.91495 0.15999
 C497 C 0.07506 0.93155 0.21366
 C498 C 0.09283 0.91713 0.24141
 H499 H 0.18984 0.86402 0.41955
 H500 H 0.18322 0.76472 0.31369
 H501 H 0.21225 0.73832 0.37307
 H502 H 0.21903 0.83789 0.47848
 H503 H 0.10012 0.84530 0.14204
 H504 H 0.06891 0.87053 0.09292
 H505 H 0.06827 0.95561 0.23437
 H506 H 0.09942 0.93018 0.28296
   
