data_POSCAR
  _audit_creation_date              2014-09-24
  _audit_creation_method            'ToBaCCo'
  _symmetry_space_group_name_H-M    'P1'
  _symmetry_Int_Tables_number       1
  _symmetry_cell_setting            triclinic
  loop_
  _symmetry_equiv_pos_as_xyz
 x,y,z
_cell_length_a 26.8633
_cell_length_b 26.8333
_cell_length_c 27.6096
_cell_angle_alpha 89.932700
_cell_angle_beta 89.920500
_cell_angle_gamma 91.860900
loop_
  _atom_site_label
  _atom_site_type_symbol
  _atom_site_fract_x
  _atom_site_fract_y
  _atom_site_fract_z
O1 O -0.05213 0.29648 0.04679
 O2 O 0.04421 0.29299 -0.04831
 O3 O -0.05306 0.29640 -0.04853
 O4 O 0.04421 0.29281 0.04501
 O5 O 0.03752 0.21045 0.04616
 O6 O -0.05834 0.21400 -0.04877
 O7 O 0.03803 0.21117 -0.04824
 O8 O -0.05857 0.21431 0.04583
 Cu9 Cu -0.00403 0.30300 -0.00144
 Cu10 Cu -0.01111 0.20424 -0.00136
 C11 C -0.07066 0.25583 0.06352
 C12 C 0.05858 0.25141 -0.06399
 C13 C -0.07162 0.25576 -0.06496
 C14 C 0.05733 0.25104 0.06144
 O15 O 0.46099 0.78540 0.56421
 O16 O 0.55464 0.79661 0.46760
 O17 O 0.45846 0.79509 0.47054
 O18 O 0.55806 0.78643 0.56121
 O19 O 0.55438 0.70416 0.55610
 O20 O 0.45743 0.71334 0.46254
 O21 O 0.55538 0.71482 0.46239
 O22 O 0.45816 0.70334 0.55624
 Cu23 Cu 0.50824 0.79909 0.51675
 Cu24 Cu 0.50619 0.70064 0.50819
 C25 C 0.44346 0.74271 0.57636
 C26 C 0.57208 0.75762 0.44919
 C27 C 0.44052 0.75554 0.45132
 C28 C 0.57288 0.74400 0.57429
 O29 O 0.95652 0.71124 -0.03675
 O30 O 1.05384 0.70727 0.05690
 O31 O 0.95601 0.71003 0.05694
 O32 O 1.05240 0.70704 -0.03748
 O33 O 1.05747 0.78887 -0.03755
 O34 O 0.96174 0.79235 0.05779
 O35 O 1.05912 0.78955 0.05725
 O36 O 0.96219 0.79305 -0.03660
 Cu37 Cu 1.00428 0.70063 0.01036
 Cu38 Cu 1.01084 0.79920 0.01070
 C39 C 0.94358 0.75289 -0.05398
 C40 C 1.07351 0.74779 0.07253
 C41 C 0.94176 0.75163 0.07265
 C42 C 1.07011 0.74757 -0.05536
 O43 O 0.53781 0.18910 0.54568
 O44 O 0.44440 0.18815 0.44904
 O45 O 0.54118 0.19711 0.45158
 O46 O 0.44073 0.18851 0.54282
 O47 O 0.44189 0.27078 0.54792
 O48 O 0.53710 0.27928 0.45209
 O49 O 0.44024 0.26994 0.45410
 O50 O 0.53955 0.27124 0.54620
 Cu51 Cu 0.49132 0.18254 0.49706
 Cu52 Cu 0.48968 0.28108 0.50046
 C53 C 0.55591 0.23010 0.56149
 C54 C 0.42501 0.22850 0.43624
 C55 C 0.55567 0.23977 0.43595
 C56 C 0.42422 0.22838 0.56067
 O57 O 0.71099 -0.04494 0.05291
 O58 O 0.71070 0.04691 -0.04647
 O59 O 0.70859 -0.05007 -0.04146
 O60 O 0.70750 0.05157 0.04718
 O61 O 0.78987 0.05475 0.04815
 O62 O 0.79097 -0.04685 -0.04162
 O63 O 0.79259 0.04938 -0.04653
 O64 O 0.79322 -0.04165 0.05247
 Cu65 Cu 0.70117 0.00045 0.00306
 Cu66 Cu 0.79994 0.00431 0.00321
 C67 C 0.75237 -0.05829 0.07009
 C68 C 0.75182 0.06300 -0.06450
 C69 C 0.74982 -0.06534 -0.05695
 C70 C 0.74829 0.07033 0.06275
 O71 O 0.21235 0.54113 0.46118
 O72 O 0.21065 0.44194 0.55387
 O73 O 0.21669 0.53748 0.55661
 O74 O 0.20656 0.44291 0.46015
 O75 O 0.28858 0.44132 0.45540
 O76 O 0.29833 0.53618 0.55185
 O77 O 0.29237 0.43899 0.54912
 O78 O 0.29429 0.53844 0.45701
 Cu79 Cu 0.20331 0.49152 0.50787
 Cu80 Cu 0.30156 0.48884 0.50287
 C81 C 0.25356 0.55612 0.44279
 C82 C 0.25138 0.42395 0.56790
 C83 C 0.25934 0.55167 0.57216
 C84 C 0.24579 0.42518 0.44217
 O85 O 0.28745 1.04919 0.04718
 O86 O 0.29487 0.94555 -0.03863
 O87 O 0.28584 1.04152 -0.04575
 O88 O 0.29489 0.95289 0.05592
 O89 O 0.21276 0.94592 0.05875
 O90 O 0.20454 1.02769 -0.04743
 O91 O 0.21314 0.93336 -0.03478
 O92 O 0.20570 1.04148 0.04717
 Cu93 Cu 0.29901 0.99805 0.00467
 Cu94 Cu 0.20074 0.98631 0.00622
 C95 C 0.24551 1.06412 0.06118
 C96 C 0.25538 0.92193 -0.05132
 C97 C 0.24370 1.04831 -0.06515
 C98 C 0.25515 0.93528 0.07530
 O99 O 0.78581 0.45683 0.45070
 O100 O 0.79613 0.54359 0.55294
 O101 O 0.78597 0.44734 0.54452
 O102 O 0.79021 0.55299 0.45930
 O103 O 0.70788 0.55336 0.45931
 O104 O 0.70432 0.45324 0.55037
 O105 O 0.71457 0.55018 0.55335
 O106 O 0.70388 0.45687 0.45588
 Cu107 Cu 0.79776 0.49980 0.50166
 Cu108 Cu 0.69938 0.50366 0.50522
 C109 C 0.74325 0.44214 0.43558
 C110 C 0.75734 0.56291 0.56977
 C111 C 0.74435 0.43265 0.56225
 C112 C 0.74964 0.57043 0.44419
 C113 C 0.23759 0.20797 0.21361
 C114 C 0.20216 0.24578 0.21485
 C115 C 0.20159 0.27908 0.25391
 C116 C 0.23618 0.27561 0.29159
 C117 C 0.27112 0.23747 0.29069
 C118 C 0.27119 0.20376 0.25201
 H119 H 0.29835 0.17473 0.25125
 H120 H 0.17468 0.30832 0.25458
 C121 C 0.75346 0.79199 0.22015
 C122 C 0.78952 0.75497 0.21999
 C123 C 0.78999 0.71974 0.25743
 C124 C 0.75540 0.72139 0.29538
 C125 C 0.71911 0.75843 0.29533
 C126 C 0.71807 0.79289 0.25726
 H127 H 0.69044 0.82147 0.25729
 H128 H 0.81772 0.69126 0.25730
 C129 C 0.77714 0.25973 0.21144
 C130 C 0.73986 0.22143 0.21029
 C131 C 0.70382 0.21849 0.24700
 C132 C 0.70374 0.25393 0.28425
 C133 C 0.73909 0.29415 0.28345
 C134 C 0.77586 0.29631 0.24741
 H135 H 0.80405 0.32616 0.24781
 H136 H 0.67616 0.18815 0.24693
 C137 C 0.22086 0.74901 0.22492
 C138 C 0.25584 0.78917 0.22853
 C139 C 0.28970 0.79087 0.26707
 C140 C 0.28901 0.75314 0.30229
 C141 C 0.25444 0.71260 0.29834
 C142 C 0.22048 0.71100 0.25980
 H143 H 0.19390 0.67989 0.25676
 H144 H 0.31651 0.82181 0.26985
 C145 C 0.70553 0.24238 0.71239
 C146 C 0.74043 0.28285 0.71235
 C147 C 0.77583 0.28714 0.74936
 C148 C 0.77885 0.25024 0.78513
 C149 C 0.74395 0.20955 0.78512
 C150 C 0.70693 0.20673 0.74945
 H151 H 0.68028 0.17550 0.74935
 H152 H 0.80257 0.31830 0.74919
 C153 C 0.29716 0.73407 0.72924
 C154 C 0.25985 0.69555 0.72947
 C155 C 0.22167 0.69653 0.76408
 C156 C 0.22164 0.73365 0.79984
 C157 C 0.26261 0.76809 0.80334
 C158 C 0.29928 0.76868 0.76719
 H159 H 0.32906 0.79691 0.76800
 H160 H 0.19143 0.66882 0.76269
 C161 C 0.23657 0.26255 0.70760
 C162 C 0.26798 0.22135 0.70441
 C163 C 0.26509 0.18431 0.74019
 C164 C 0.23198 0.18780 0.77923
 C165 C 0.20037 0.22886 0.78229
 C166 C 0.20200 0.26492 0.74543
 H167 H 0.17810 0.29663 0.74774
 H168 H 0.28971 0.15313 0.73833
 C169 C 0.75668 0.70429 0.72781
 C170 C 0.71759 0.73821 0.72817
 C171 C 0.71491 0.77337 0.76529
 C172 C 0.75258 0.77784 0.80026
 C173 C 0.79171 0.74371 0.80012
 C174 C 0.79240 0.70630 0.76476
 H175 H 0.82244 0.68027 0.76442
 H176 H 0.68497 0.79953 0.76521
 C177 C 0.28261 0.14112 0.09950
 C178 C 0.24327 0.10435 0.09399
 C179 C 0.20177 0.10627 0.12500
 C180 C 0.20087 0.13970 0.16342
 C181 C 0.24085 0.17320 0.17192
 C182 C 0.28198 0.17457 0.13966
 C183 C 0.32093 0.14789 0.06452
 C184 C 0.35933 0.18340 0.07100
 C185 C 0.36008 0.21382 0.11164
 C186 C 0.32169 0.20994 0.14546
 H187 H 0.32089 0.12770 0.03075
 H188 H 0.38833 0.18781 0.04392
 H189 H 0.38989 0.24150 0.11637
 H190 H 0.32296 0.23584 0.17541
 H191 H 0.17071 0.07973 0.12143
 H192 H 0.16897 0.13873 0.18750
 C193 C 0.80013 0.63694 0.61349
 C194 C 0.76125 0.59966 0.60975
 C195 C 0.72381 0.59724 0.64516
 C196 C 0.72398 0.63040 0.68370
 C197 C 0.76128 0.66761 0.68805
 C198 C 0.80006 0.67105 0.65315
 C199 C 0.83807 0.64264 0.57810
 C200 C 0.87498 0.68012 0.58200
 C201 C 0.87494 0.71300 0.62080
 C202 C 0.83792 0.70876 0.65601
 H203 H 0.83959 0.61940 0.54641
 H204 H 0.90352 0.68400 0.55441
 H205 H 0.90351 0.74226 0.62341
 H206 H 0.83909 0.73578 0.68501
 H207 H 0.69403 0.56909 0.64316
 H208 H 0.69423 0.62743 0.71019
 C209 C 0.78454 0.91281 0.15162
 C210 C 0.75301 0.90592 0.11069
 C211 C 0.72157 0.86333 0.10783
 C212 C 0.72204 0.82692 0.14370
 C213 C 0.75399 0.83204 0.18341
 C214 C 0.78509 0.87533 0.18815
 C215 C 0.81439 0.95668 0.15801
 C216 C 0.84481 0.96274 0.19860
 C217 C 0.84586 0.92569 0.23383
 C218 C 0.81615 0.88245 0.22896
 H219 H 0.81407 0.98712 0.13245
 H220 H 0.86744 0.99657 0.20291
 H221 H 0.86943 0.93069 0.26533
 H222 H 0.81749 0.85491 0.25756
 H223 H 0.69709 0.85773 0.07701
 H224 H 0.69762 0.79419 0.14025
 C225 C 0.28789 0.37917 0.64160
 C226 C 0.25018 0.38439 0.60576
 C227 C 0.20856 0.35134 0.60641
 C228 C 0.20437 0.31294 0.64014
 C229 C 0.24193 0.30568 0.67410
 C230 C 0.28345 0.33950 0.67600
 C231 C 0.32899 0.41319 0.64557
 C232 C 0.36495 0.40773 0.68136
 C233 C 0.36051 0.36896 0.71462
 C234 C 0.31999 0.33539 0.71241
 H235 H 0.33378 0.44486 0.62207
 H236 H 0.39618 0.43415 0.68365
 H237 H 0.38829 0.36522 0.74264
 H238 H 0.31734 0.30658 0.73981
 H239 H 0.17905 0.35478 0.58004
 H240 H 0.17196 0.28785 0.63904
 C241 C 0.89522 0.22368 0.14423
 C242 C 0.89333 0.25691 0.10411
 C243 C 0.85623 0.29245 0.10260
 C244 C 0.81984 0.29398 0.13847
 C245 C 0.81940 0.25997 0.17688
 C246 C 0.85787 0.22535 0.18083
 C247 C 0.93404 0.18976 0.14979
 C248 C 0.93522 0.15768 0.18949
 C249 C 0.89842 0.15908 0.22486
 C250 C 0.86030 0.19281 0.22096
 H251 H 0.96440 0.18803 0.12433
 H252 H 0.96519 0.13192 0.19307
 H253 H 0.89972 0.13430 0.25576
 H254 H 0.83304 0.19342 0.24983
 H255 H 0.85461 0.31845 0.07263
 H256 H 0.79088 0.32099 0.13552
 C257 C 0.35386 0.74437 0.60238
 C258 C 0.40472 0.73923 0.61379
 C259 C 0.41940 0.73429 0.66208
 C260 C 0.38422 0.73380 0.69917
 C261 C 0.33360 0.73923 0.68893
 C262 C 0.31831 0.74675 0.64037
 C263 C 0.33756 0.74721 0.55395
 C264 C 0.28767 0.75485 0.54327
 C265 C 0.25342 0.76060 0.58055
 C266 C 0.26851 0.75701 0.62871
 H267 H 0.36316 0.74306 0.52412
 H268 H 0.27564 0.75690 0.50593
 H269 H 0.21491 0.76751 0.57214
 H270 H 0.24083 0.76201 0.65664
 H271 H 0.45837 0.73060 0.67105
 H272 H 0.39643 0.72839 0.73613
 C273 C 0.15594 0.71757 0.10474
 C274 C 0.11296 0.74662 0.10969
 C275 C 0.10701 0.77556 0.15135
 C276 C 0.14194 0.77519 0.18848
 C277 C 0.18427 0.74643 0.18482
 C278 C 0.19179 0.71739 0.14280
 C279 C 0.16496 0.68988 0.06232
 C280 C 0.20744 0.66166 0.05815
 C281 C 0.24211 0.66111 0.09556
 C282 C 0.23464 0.68883 0.13747
 H283 H 0.13988 0.69019 0.03176
 H284 H 0.21374 0.64048 0.02550
 H285 H 0.27516 0.63939 0.09191
 H286 H 0.26275 0.68786 0.16547
 H287 H 0.07452 0.79808 0.15553
 H288 H 0.13591 0.79758 0.22044
 C289 C 0.63422 0.19492 0.60031
 C290 C 0.59580 0.23042 0.59870
 C291 C 0.59502 0.26806 0.63386
 C292 C 0.63037 0.27081 0.67052
 C293 C 0.66805 0.23624 0.67326
 C294 C 0.67031 0.19781 0.63823
 C295 C 0.63901 0.15762 0.56452
 C296 C 0.67726 0.12382 0.56660
 C297 C 0.71179 0.12635 0.60395
 C298 C 0.70860 0.16293 0.63940
 H299 H 0.61456 0.15443 0.53373
 H300 H 0.68037 0.09574 0.53872
 H301 H 0.74154 0.10011 0.60522
 H302 H 0.73682 0.16384 0.66729
 H303 H 0.56625 0.29544 0.63339
 H304 H 0.62830 0.30028 0.69716
 C305 C 0.79019 0.09957 0.85983
 C306 C 0.75158 0.09615 0.89575
 C307 C 0.71034 0.12685 0.89097
 C308 C 0.70846 0.16283 0.85488
 C309 C 0.74672 0.16842 0.82092
 C310 C 0.78671 0.13535 0.82170
 C311 C 0.83015 0.06624 0.85813
 C312 C 0.86570 0.06912 0.82132
 C313 C 0.86179 0.10389 0.78440
 C314 C 0.82230 0.13610 0.78402
 H315 H 0.83400 0.03603 0.88336
 H316 H 0.89579 0.04324 0.82078
 H317 H 0.88892 0.10523 0.75537
 H318 H 0.81932 0.16094 0.75339
 H319 H 0.68006 0.12490 0.91697
 H320 H 0.67716 0.18730 0.85396
 C321 C 0.27811 0.58715 0.35884
 C322 C 0.25416 0.59434 0.40410
 C323 C 0.23018 0.63906 0.41285
 C324 C 0.23060 0.67693 0.37822
 C325 C 0.25424 0.67082 0.33351
 C326 C 0.27795 0.62567 0.32326
 C327 C 0.30133 0.54213 0.34760
 C328 C 0.32440 0.53552 0.30291
 C329 C 0.32475 0.57342 0.26847
 C330 C 0.30176 0.61811 0.27834
 H331 H 0.30164 0.51151 0.37292
 H332 H 0.34202 0.50075 0.29493
 H333 H 0.34279 0.56810 0.23386
 H334 H 0.30286 0.64658 0.25054
 H335 H 0.21174 0.64507 0.44718
 H336 H 0.21244 0.71141 0.38636
 C337 C 0.26074 0.83069 0.92820
 C338 C 0.25873 0.88111 0.91363
 C339 C 0.26178 0.89349 0.86450
 C340 C 0.26509 0.85650 0.82950
 C341 C 0.26573 0.80603 0.84265
 C342 C 0.26568 0.79290 0.89251
 C343 C 0.25845 0.81709 0.97755
 C344 C 0.26240 0.76745 0.99155
 C345 C 0.26909 0.73068 0.95680
 C346 C 0.27104 0.74315 0.90774
 H347 H 0.25377 0.84468 1.00558
 H348 H 0.26085 0.75760 1.02957
 H349 H 0.27292 0.69230 0.96789
 H350 H 0.27695 0.71362 0.88192
 H351 H 0.26070 0.93211 0.85313
 H352 H 0.26539 0.86722 0.79165
 C353 C 0.70326 0.40817 0.35774
 C354 C 0.74021 0.40661 0.39459
 C355 C 0.77655 0.37033 0.39222
 C356 C 0.77610 0.33506 0.35546
 C357 C 0.73864 0.33408 0.32041
 C358 C 0.70218 0.37103 0.32078
 C359 C 0.66859 0.44665 0.35538
 C360 C 0.63261 0.44715 0.31904
 C361 C 0.63090 0.41015 0.28381
 C362 C 0.66559 0.37269 0.28421
 H363 H 0.66933 0.47743 0.38048
 H364 H 0.60624 0.47680 0.31789
 H365 H 0.60306 0.41096 0.25553
 H366 H 0.66382 0.34547 0.25534
 H367 H 0.80543 0.36882 0.41950
 H368 H 0.80471 0.30752 0.35495
 C369 C 0.13498 0.28601 0.89237
 C370 C 0.09608 0.24887 0.90009
 C371 C 0.09460 0.20649 0.87003
 C372 C 0.12793 0.20127 0.83217
 C373 C 0.16661 0.23622 0.82435
 C374 C 0.17110 0.27852 0.85503
 C375 C 0.14128 0.32889 0.92206
 C376 C 0.18098 0.36288 0.91509
 C377 C 0.21615 0.35485 0.87936
 C378 C 0.21169 0.31299 0.84988
 H379 H 0.11721 0.33691 0.95196
 H380 H 0.18505 0.39520 0.93837
 H381 H 0.24740 0.38094 0.87480
 H382 H 0.24085 0.30766 0.82354
 H383 H 0.06545 0.17787 0.87399
 H384 H 0.12264 0.16987 0.80810
 C385 C 0.64743 0.80145 0.40734
 C386 C 0.61120 0.76140 0.41105
 C387 C 0.61179 0.72273 0.37688
 C388 C 0.64642 0.72292 0.33956
 C389 C 0.68196 0.76173 0.33487
 C390 C 0.68257 0.80170 0.36843
 C391 C 0.65111 0.84048 0.44179
 C392 C 0.68704 0.87886 0.43735
 C393 C 0.72047 0.87933 0.39898
 C394 C 0.71853 0.84120 0.36490
 H395 H 0.62762 0.84201 0.47327
 H396 H 0.68923 0.90822 0.46420
 H397 H 0.74846 0.90911 0.39591
 H398 H 0.74608 0.84271 0.33631
 H399 H 0.58472 0.69195 0.37869
 H400 H 0.64555 0.69231 0.31397
 C401 C 0.90462 0.79308 0.87313
 C402 C 0.90820 0.75358 0.90805
 C403 C 0.87547 0.71169 0.90371
 C404 C 0.83844 0.70929 0.86870
 C405 C 0.83353 0.74769 0.83520
 C406 C 0.86791 0.78881 0.83572
 C407 C 0.93812 0.83509 0.87173
 C408 C 0.93524 0.87120 0.83558
 C409 C 0.90017 0.86602 0.79898
 C410 C 0.86737 0.82491 0.79849
 H411 H 0.96784 0.84099 0.89711
 H412 H 0.96125 0.90289 0.83540
 H413 H 0.89883 0.89361 0.77041
 H414 H 0.84210 0.82121 0.76820
 H415 H 0.87698 0.68087 0.92902
 H416 H 0.81285 0.67723 0.86809
 C417 C 0.34459 0.19127 0.39977
 C418 C 0.38434 0.22781 0.40012
 C419 C 0.38510 0.26603 0.36549
 C420 C 0.34830 0.26830 0.33036
 C421 C 0.30899 0.23294 0.32916
 C422 C 0.30668 0.19405 0.36383
 C423 C 0.34035 0.15302 0.43502
 C424 C 0.30052 0.11840 0.43441
 C425 C 0.26396 0.12103 0.39903
 C426 C 0.26679 0.15844 0.36406
 H427 H 0.36653 0.14987 0.46433
 H428 H 0.29777 0.08963 0.46189
 H429 H 0.23302 0.09416 0.39890
 H430 H 0.23721 0.15942 0.33757
 H431 H 0.41498 0.29415 0.36516
 H432 H 0.35061 0.29789 0.30365
 C433 C 0.75270 0.90883 0.85557
 C434 C 0.74990 0.89619 0.90529
 C435 C 0.74743 0.84613 0.91937
 C436 C 0.74788 0.80839 0.88484
 C437 C 0.75138 0.81971 0.83533
 C438 C 0.75413 0.87040 0.82021
 C439 C 0.75427 0.95905 0.84028
 C440 C 0.75881 0.97132 0.79139
 C441 C 0.76174 0.93387 0.75684
 C442 C 0.75940 0.88391 0.77087
 H443 H 0.75189 0.98912 0.86595
 H444 H 0.76029 1.01006 0.78031
 H445 H 0.76578 0.94355 0.71894
 H446 H 0.76247 0.85632 0.74266
 H447 H 0.74515 0.83624 0.95739
 H448 H 0.74564 0.76992 0.89681
 C449 C 0.21452 0.33987 0.41340
 C450 C 0.24172 0.38539 0.40528
 C451 C 0.26603 0.39328 0.36091
 C452 C 0.26273 0.35780 0.32426
 C453 C 0.23597 0.31278 0.33122
 C454 C 0.21149 0.30338 0.37591
 C455 C 0.19136 0.32914 0.45832
 C456 C 0.16478 0.28426 0.46562
 C457 C 0.16118 0.24903 0.42871
 C458 C 0.18425 0.25834 0.38419
 H459 H 0.19391 0.35491 0.48832
 H460 H 0.14706 0.27670 0.50021
 H461 H 0.14058 0.21423 0.43467
 H462 H 0.18053 0.23010 0.35639
 H463 H 0.28742 0.42743 0.35429
 H464 H 0.28184 0.36519 0.29029
 C465 C 0.20735 0.06948 0.85470
 C466 C 0.24055 0.07952 0.89413
 C467 C 0.27169 0.12261 0.89256
 C468 C 0.26742 0.15755 0.85568
 C469 C 0.23369 0.14956 0.81784
 C470 C 0.20469 0.10461 0.81599
 C471 C 0.17968 0.02382 0.85061
 C472 C 0.14896 0.01417 0.81083
 C473 C 0.14589 0.04893 0.77369
 C474 C 0.17382 0.09350 0.77582
 H475 H 0.18248 -0.00578 0.87686
 H476 H 0.12798 -0.02086 0.80848
 H477 H 0.12225 0.04102 0.74274
 H478 H 0.17103 0.11921 0.74577
 H479 H 0.29786 0.13082 0.92156
 H480 H 0.29075 0.19125 0.85662
 C481 C 0.76712 0.65998 0.41983
 C482 C 0.75118 0.61071 0.40807
 C483 C 0.73816 0.59878 0.36034
 C484 C 0.74104 0.63489 0.32412
 C485 C 0.75732 0.68378 0.33463
 C486 C 0.77170 0.69647 0.38254
 C487 C 0.77781 0.67399 0.46800
 C488 C 0.79472 0.72237 0.47890
 C489 C 0.80159 0.75742 0.44206
 C490 C 0.79055 0.74463 0.39422
 H491 H 0.77242 0.64788 0.49750
 H492 H 0.80276 0.73264 0.51603
 H493 H 0.81529 0.79475 0.45062
 H494 H 0.79690 0.77262 0.36650
 H495 H 0.72581 0.56114 0.35105
 H496 H 0.72979 0.62484 0.28765
 C497 C 0.11215 0.78555 0.87106
 C498 C 0.10396 0.74587 0.90539
 C499 C 0.13034 0.70173 0.89928
 C500 C 0.16675 0.69773 0.86389
 C501 C 0.17778 0.73722 0.83239
 C502 C 0.14871 0.78029 0.83390
 C503 C 0.08328 0.82892 0.87016
 C504 C 0.09104 0.86587 0.83519
 C505 C 0.12651 0.86025 0.79925
 C506 C 0.15455 0.81765 0.79803
 H507 H 0.05324 0.83499 0.89482
 H508 H 0.06852 0.89861 0.83540
 H509 H 0.13175 0.88864 0.77165
 H510 H 0.18050 0.81401 0.76833
 H511 H 0.12475 0.67046 0.92380
 H512 H 0.18807 0.66416 0.86240
 C513 C 0.64553 0.23538 0.40996
 C514 C 0.59501 0.24342 0.39884
 C515 C 0.58132 0.25399 0.35114
 C516 C 0.61689 0.25635 0.31435
 C517 C 0.66706 0.24797 0.32426
 C518 C 0.68161 0.23609 0.37216
 C519 C 0.66111 0.22737 0.45802
 C520 C 0.71073 0.21795 0.46836
 C521 C 0.74553 0.21597 0.43107
 C522 C 0.73123 0.22469 0.38333
 H523 H 0.63520 0.22900 0.48787
 H524 H 0.72216 0.21189 0.50543
 H525 H 0.78386 0.20797 0.43920
 H526 H 0.75934 0.22265 0.35536
 H527 H 0.54274 0.26037 0.34232
 H528 H 0.60532 0.26532 0.27787
 C529 C 0.90697 0.25166 0.84640
 C530 C 0.89213 0.25678 0.89531
 C531 C 0.84178 0.26117 0.90676
 C532 C 0.80583 0.25990 0.87048
 C533 C 0.81925 0.25422 0.82175
 C534 C 0.87032 0.25055 0.80918
 C535 C 0.95758 0.24711 0.83378
 C536 C 0.97179 0.24121 0.78563
 C537 C 0.93603 0.23974 0.74922
 C538 C 0.88581 0.24433 0.76066
 H539 H 0.98650 0.24799 0.86095
 H540 H 1.01074 0.23762 0.77655
 H541 H 0.94723 0.23486 0.71190
 H542 H 0.85946 0.24225 0.73114
 H543 H 0.83018 0.26490 0.94416
 H544 H 0.76702 0.26279 0.88052
 C545 C 0.35971 0.79113 0.41826
 C546 C 0.40008 0.75807 0.41484
 C547 C 0.40198 0.72510 0.37568
 C548 C 0.36581 0.72472 0.33988
 C549 C 0.32549 0.75622 0.34252
 C550 C 0.32136 0.78962 0.38250
 C551 C 0.35554 0.82427 0.45720
 C552 C 0.23453 0.82682 0.36423
 C553 C 0.28023 0.82052 0.38960
 H554 H 0.38073 0.82791 0.48741
 H555 H 0.36192 0.63436 0.55990
 H556 H 0.20422 0.85516 0.37628
 H557 H 0.25389 0.81329 0.36188
 H558 H 0.43242 0.69980 0.37221
 H559 H 0.36934 0.69944 0.30960
 C560 C 0.23112 0.91035 0.16085
 C561 C 0.25783 0.90167 0.11746
 C562 C 0.28550 0.85856 0.11304
 C563 C 0.28498 0.82289 0.14973
 C564 C 0.25740 0.82971 0.19210
 C565 C 0.23077 0.87391 0.19839
 C566 C 0.20541 0.95484 0.16817
 C567 C 0.17905 0.96257 0.21091
 C568 C 0.17791 0.92644 0.24715
 C569 C 0.20354 0.88252 0.24115
 H570 H 0.20597 0.98431 0.14141
 H571 H 0.15953 0.99685 0.21598
 H572 H 0.15728 0.93259 0.28019
 H573 H 0.20182 0.85542 0.27016
 H574 H 0.30637 0.85166 0.08026
 H575 H 0.30555 0.78920 0.14471
 C576 C 0.76455 0.34539 0.58951
 C577 C 0.74266 0.39194 0.59811
 C578 C 0.71999 0.40095 0.64283
 C579 C 0.72003 0.36535 0.67949
 C580 C 0.74240 0.31961 0.67234
 C581 C 0.76518 0.30926 0.62730
 C582 C 0.78490 0.33348 0.54393
 C583 C 0.80679 0.28771 0.53636
 C584 C 0.80899 0.25314 0.57386
 C585 C 0.78866 0.26376 0.61904
 H586 H 0.78353 0.35897 0.51364
 H587 H 0.82218 0.27907 0.50122
 H588 H 0.82636 0.21783 0.56787
 H589 H 0.79150 0.23612 0.64735
 H590 H 0.70299 0.43633 0.64975
 H591 H 0.70241 0.37346 0.71379
 C592 C 0.73052 0.15871 0.08614
 C593 C 0.74688 0.11073 0.09847
 C594 C 0.75899 0.09983 0.14650
 C595 C 0.75490 0.13570 0.18250
 C596 C 0.73913 0.18355 0.17131
 C597 C 0.72616 0.19535 0.12298
 C598 C 0.71893 0.17125 0.03786
 C599 C 0.70268 0.21864 0.02634
 C600 C 0.69731 0.25414 0.06257
 C601 C 0.70866 0.24270 0.11052
 H602 H 0.72264 0.14475 0.00867
 H603 H 0.69405 0.22780 -0.01085
 H604 H 0.68433 0.29074 0.05347
 H605 H 0.70368 0.27120 0.13764
 H606 H 0.77100 0.06305 0.15633
 H607 H 0.76490 0.12633 0.21933
 C608 C 0.30187 0.58784 0.64912
 C609 C 0.26249 0.58662 0.61424
 C610 C 0.22230 0.61817 0.62099
 C611 C 0.22096 0.65134 0.65959
 C612 C 0.25998 0.65475 0.69291
 C613 C 0.29986 0.62169 0.68900
 C614 C 0.34261 0.55576 0.64666
 C615 C 0.37972 0.55691 0.68191
 C616 C 0.37701 0.58927 0.72092
 C617 C 0.33735 0.62107 0.72481
 H618 H 0.34691 0.52904 0.61826
 H619 H 0.41056 0.53207 0.67917
 H620 H 0.40563 0.58952 0.74849
 H621 H 0.33616 0.64488 0.75635
 H622 H 0.19164 0.61788 0.59552
 H623 H 0.18996 0.67602 0.66242
 C624 C 0.85316 0.73120 0.09859
 C625 C 0.90110 0.75251 0.10838
 C626 C 0.91089 0.77438 0.15350
 C627 C 0.87446 0.77422 0.18942
 C628 C 0.82711 0.75275 0.18094
 C629 C 0.81598 0.73097 0.13538
 C630 C 0.84096 0.71112 0.05268
 C631 C 0.79362 0.69034 0.04369
 C632 C 0.75768 0.68905 0.08008
 C633 C 0.76859 0.70904 0.12559
 H634 H 0.86751 0.71178 0.02322
 H635 H 0.78480 0.67517 0.00830
 H636 H 0.72107 0.67268 0.07295
 H637 H 0.73961 0.70740 0.15286
 H638 H 0.94733 0.79097 0.16125
 H639 H 0.88318 0.79112 0.22412
 C640 C 0.33258 0.22250 0.58077
 C641 C 0.38299 0.22538 0.59577
 C642 C 0.39445 0.22415 0.64511
 C643 C 0.35669 0.22110 0.67972
 C644 C 0.30646 0.21836 0.66589
 C645 C 0.29415 0.21677 0.61602
 C646 C 0.31946 0.22553 0.53146
 C647 C 0.26988 0.21999 0.51697
 C648 C 0.23262 0.21102 0.55127
 C649 C 0.24448 0.20937 0.60039
 H650 H 0.34736 0.23244 0.50390
 H651 H 0.26043 0.22209 0.47893
 H652 H 0.19432 0.20565 0.53983
 H653 H 0.21452 0.20237 0.62600
 H654 H 0.43291 0.22632 0.65692
 H655 H 0.36668 0.22215 0.71772
 C656 C 0.14566 0.26684 0.08996
 C657 C 0.09602 0.24997 0.09901
 C658 C 0.08221 0.23388 0.14549
 C659 C 0.11674 0.23445 0.18302
 C660 C 0.16592 0.25130 0.17507
 C661 C 0.18054 0.26883 0.12864
 C662 C 0.16172 0.28066 0.04304
 C663 C 0.21056 0.29788 0.03483
 C664 C 0.24402 0.30213 0.07318
 C665 C 0.22920 0.28805 0.11977
 H666 H 0.13691 0.27736 0.01241
 H667 H 0.22249 0.30812 -0.00139
 H668 H 0.28171 0.31609 0.06675
 H669 H 0.25606 0.29227 0.14874
 H670 H 0.04435 0.22105 0.15287
 H671 H 0.10531 0.22075 0.21839
 C672 C 0.66050 0.76209 0.60387
 C673 C 0.61202 0.74119 0.61135
 C674 C 0.59962 0.71935 0.65602
 C675 C 0.63412 0.71910 0.69364
 C676 C 0.68185 0.74068 0.68753
 C677 C 0.69529 0.76302 0.64266
 C678 C 0.67544 0.78132 0.55837
 C679 C 0.72288 0.80294 0.55182
 C680 C 0.75615 0.80592 0.59039
 C681 C 0.74256 0.78640 0.63552
 H682 H 0.65087 0.77897 0.52750
 H683 H 0.73389 0.81746 0.51669
 H684 H 0.79278 0.82313 0.58525
 H685 H 0.76930 0.78978 0.66466
 H686 H 0.56265 0.70315 0.66205
 H687 H 0.62360 0.70189 0.72783
   
