data_POSCAR
  _audit_creation_date              2014-09-24
  _audit_creation_method            'ToBaCCo'
  _symmetry_space_group_name_H-M    'P1'
  _symmetry_Int_Tables_number       1
  _symmetry_cell_setting            triclinic
  loop_
  _symmetry_equiv_pos_as_xyz
 x,y,z
_cell_length_a 21.9585
_cell_length_b 21.8466
_cell_length_c 21.9388
_cell_angle_alpha 90.061200
_cell_angle_beta 89.948400
_cell_angle_gamma 89.888600
loop_
  _atom_site_label
  _atom_site_type_symbol
  _atom_site_fract_x
  _atom_site_fract_y
  _atom_site_fract_z
C1 C 0.53897 1.04243 -0.68554
 C2 C 0.47648 1.04430 -0.68740
 C3 C 0.45627 1.02073 -0.63240
 N4 N 0.50438 1.00536 -0.59678
 C5 C 0.55497 1.01845 -0.62922
 C6 C 0.39468 1.01234 -0.61504
 C7 C 0.38053 0.99455 -0.55507
 C8 C 0.32937 0.96154 -0.53772
 C9 C 0.32813 0.96202 -0.47530
 C10 C 0.37916 0.99419 -0.45683
 N11 N 0.41167 1.01271 -0.50547
 C12 C 0.39115 1.01240 -0.39701
 C13 C 0.45063 1.02483 -0.37743
 C14 C 0.46594 1.05145 -0.32243
 C15 C 0.52834 1.05127 -0.32007
 C16 C 0.54883 1.02334 -0.37333
 N17 N 0.50107 1.00788 -0.40864
 C18 C 0.61033 1.00867 -0.38687
 C19 C 0.63035 0.99949 -0.44835
 C20 C 0.68563 0.97371 -0.46562
 C21 C 0.68666 0.97205 -0.52855
 C22 C 0.63191 0.99644 -0.54858
 N23 N 0.59811 1.01346 -0.49946
 C24 C 0.61512 1.00401 -0.61087
 H25 H 0.56928 1.05733 -0.72149
 H26 H 0.44946 1.06159 -0.72482
 H27 H 0.55697 1.03714 -0.50100
 H28 H 0.29550 0.94095 -0.56707
 H29 H 0.29303 0.94234 -0.44675
 H30 H 0.43541 1.06905 -0.28781
 H31 H 0.55557 1.06933 -0.28313
 H32 H 0.72330 0.95400 -0.55630
 H33 H 0.44776 1.04370 -0.50483
 H34 H 0.72119 0.95644 -0.43617
 C35 C -0.47276 1.31072 -0.01505
 C36 C -0.53503 1.31363 -0.01586
 C37 C -0.55139 1.37169 0.00493
 N38 N -0.50049 1.40329 0.01945
 C39 C -0.45269 1.36614 0.00760
 C40 C -0.61129 1.39253 0.01889
 C41 C -0.62338 1.45579 0.03077
 C42 C -0.67833 1.48034 0.05116
 C43 C -0.67263 1.54289 0.05043
 C44 C -0.61538 1.55576 0.02741
 N45 N -0.58565 1.50265 0.01580
 C46 C -0.59427 1.61499 0.01182
 C47 C -0.53265 1.62678 -0.00253
 C48 C -0.51188 1.67778 -0.03364
 C49 C -0.44956 1.67394 -0.03443
 C50 C -0.43414 1.62097 -0.00309
 N51 N -0.48519 1.59188 0.01580
 C52 C -0.37414 1.60040 0.00961
 C53 C -0.36431 1.53916 0.02857
 C54 C -0.31551 1.51850 0.06318
 C55 C -0.32054 1.45590 0.06656
 C56 C -0.37290 1.44026 0.03506
 N57 N -0.39989 1.49121 0.01286
 C58 C -0.39192 1.37993 0.02295
 H59 H -0.44562 1.27153 -0.02833
 H60 H -0.56358 1.27585 -0.02919
 H61 H -0.43642 1.49243 -0.01747
 H62 H -0.71996 1.45698 0.06284
 H63 H -0.70789 1.57501 0.06340
 H64 H -0.53888 1.71364 -0.05436
 H65 H -0.41946 1.70604 -0.05671
 H66 H -0.28916 1.42536 0.08943
 H67 H -0.54505 1.49911 -0.00841
 H68 H -0.27974 1.54559 0.08366
 C69 C -0.09755 0.32804 0.52107
 C70 C -0.09396 0.32904 0.45867
 C71 C -0.05103 0.37322 0.44433
 N72 N -0.02938 0.40010 0.49480
 C73 C -0.05664 0.37167 0.54157
 C74 C -0.02483 0.38337 0.38710
 C75 C -0.00924 0.44450 0.37124
 C76 C 0.02562 0.46343 0.32181
 C77 C 0.02552 0.52648 0.32256
 C78 C -0.00774 0.54435 0.37324
 N79 N -0.02846 0.49449 0.40271
 C80 C -0.02287 0.60529 0.38842
 C81 C -0.03300 0.62354 0.44981
 C82 C -0.05351 0.68053 0.46844
 C83 C -0.05447 0.67980 0.53131
 C84 C -0.03405 0.62239 0.54937
 N85 N -0.02120 0.58813 0.49927
 C86 C -0.02655 0.60169 0.61067
 C87 C -0.01411 0.53914 0.62257
 C88 C 0.02075 0.51733 0.67066
 C89 C 0.01756 0.45452 0.66891
 C90 C -0.01943 0.43958 0.61985
 N91 N -0.03735 0.49155 0.59108
 C92 C -0.03671 0.37981 0.60145
 H93 H -0.12488 0.29728 0.54833
 H94 H -0.11798 0.29923 0.42748
 H95 H -0.06824 0.49467 0.55506
 H96 H 0.04942 0.43574 0.28864
 H97 H 0.04787 0.55594 0.28985
 H98 H -0.06692 0.71854 0.43983
 H99 H -0.06968 0.71711 0.55997
 H100 H 0.04128 0.42397 0.69953
 H101 H -0.05912 0.49514 0.43906
 H102 H 0.04630 0.54405 0.70337
 O103 O -0.15093 1.01108 -0.08385
 O104 O 0.16051 0.98262 -0.08988
 O105 O 0.00347 1.08377 -0.15994
 O106 O 0.00099 0.91802 -0.16082
 O107 O -0.00324 0.84175 -0.08811
 O108 O 0.01196 1.15606 -0.08422
 O109 O 0.08603 0.99225 -0.16317
 O110 O -0.07700 1.00736 -0.15873
 Zr111 Zr 0.00477 0.99946 -0.11101
 O112 O 0.05651 0.93941 -0.06053
 O113 O -0.04616 1.05728 -0.05744
 C114 C -0.13283 1.01239 -0.14065
 C115 C 0.14200 0.98416 -0.14564
 C116 C 0.00513 1.14000 -0.14026
 C117 C -0.00092 0.86119 -0.14444
 H118 H 0.09111 1.07497 -0.08886
 O119 O 0.06473 1.05057 -0.06161
 H120 H -0.08094 0.92306 -0.08241
 O121 O -0.05263 0.94733 -0.05707
 O122 O 0.16731 0.99023 0.07041
 O123 O -0.14574 1.00663 0.08574
 O124 O 0.09928 1.14975 -0.00434
 O125 O 0.07852 0.83539 -0.00879
 O126 O -0.08590 0.84669 0.00126
 O127 O -0.06486 1.16028 -0.00556
 O128 O 0.01875 1.08579 0.15135
 O129 O 0.00820 0.91978 0.15431
 O130 O 0.02075 1.15692 0.07420
 O131 O -0.00198 0.84308 0.08226
 O132 O 0.16881 1.07063 -0.01011
 O133 O -0.14426 1.09139 0.00006
 O134 O -0.15470 0.92659 0.00412
 O135 O 0.15739 0.90515 -0.00967
 O136 O 0.09789 0.99921 0.14874
 O137 O -0.06770 1.00565 0.15648
 Zr138 Zr 0.11361 0.99137 -0.00774
 Zr139 Zr -0.10012 1.00553 -0.00041
 Zr140 Zr 0.01423 1.10513 -0.00465
 Zr141 Zr -0.00023 0.89069 -0.00323
 Zr142 Zr 0.01203 1.00085 0.10346
 O143 O -0.04895 0.94796 0.05386
 O144 O 0.06883 1.05140 0.04923
 C145 C 0.15307 0.99453 0.12731
 C146 C -0.12477 1.00735 0.14141
 C147 C 0.15419 1.12817 -0.00738
 C148 C 0.13581 0.84988 -0.01084
 C149 C -0.14074 0.86889 0.00467
 C150 C -0.12226 1.14637 -0.00321
 C151 C 0.02091 1.14174 0.13086
 C152 C 0.00280 0.86293 0.13832
 H153 H -0.06570 1.08576 0.07865
 O154 O -0.04225 1.05757 0.05231
 H155 H 0.08557 0.91313 0.07464
 O156 O 0.06001 0.94046 0.04945
 C157 C 0.30439 0.99712 0.24592
 C158 C 0.24742 1.01934 0.26530
 N159 N 0.24154 1.04281 0.32211
 C160 C 0.28953 1.04357 0.36103
 C161 C 0.34639 1.01894 0.34284
 N162 N 0.35233 0.99748 0.28488
 N163 N 0.31043 0.97381 0.18904
 C164 C 0.26215 0.97178 0.15055
 C165 C 0.20483 0.99383 0.16980
 N166 N 0.19894 1.01717 0.22698
 H167 H 0.28324 1.06301 0.40602
 H168 H 0.26857 0.95290 0.10535
 C169 C -0.24582 1.02122 0.29169
 C170 C -0.26049 0.98424 0.24129
 N171 N -0.31299 0.95164 0.24198
 C172 C -0.35198 0.95513 0.29010
 C173 C -0.33883 0.99405 0.33971
 N174 N -0.28539 1.02576 0.33937
 N175 N -0.19261 1.05264 0.29171
 C176 C -0.15341 1.04885 0.24380
 C177 C -0.16828 1.01278 0.19268
 N178 N -0.22180 0.98123 0.19273
 H179 H -0.39377 0.92894 0.28911
 H180 H -0.11118 1.07432 0.24528
 C181 C -0.25319 1.02392 -0.29118
 C182 C -0.27248 0.99677 -0.23637
 N183 N -0.32863 0.97133 -0.23352
 C184 C -0.36677 0.97289 -0.28229
 C185 C -0.34855 1.00171 -0.33718
 N186 N -0.29126 1.02552 -0.34010
 N187 N -0.19696 1.04907 -0.29436
 C188 C -0.15888 1.04775 -0.24563
 C189 C -0.17748 1.01987 -0.19068
 N190 N -0.23432 0.99516 -0.18736
 H191 H -0.41096 0.95137 -0.27835
 H192 H -0.11404 1.06782 -0.25000
 C193 C 0.28979 0.97781 -0.26688
 C194 C 0.23860 1.01432 -0.28008
 N195 N 0.23924 1.05111 -0.32983
 C196 C 0.28860 1.05274 -0.36716
 C197 C 0.33962 1.01601 -0.35408
 N198 N 0.33895 0.97938 -0.30414
 N199 N 0.28956 0.94137 -0.21702
 C200 C 0.24086 0.94049 -0.17902
 C201 C 0.19000 0.97774 -0.19139
 N202 N 0.18984 1.01357 -0.24202
 H203 H 0.28792 1.08176 -0.40712
 H204 H 0.24229 0.91185 -0.13878
 C205 C 0.29031 1.26290 -0.01940
 C206 C 0.25258 1.25956 0.03204
 N207 N 0.26078 1.29967 0.07854
 C208 C 0.30462 1.34350 0.07565
 C209 C 0.34125 1.34883 0.02300
 N210 N 0.33288 1.30762 -0.02293
 N211 N 0.28464 1.22067 -0.06448
 C212 C 0.24244 1.17537 -0.06058
 C213 C 0.20335 1.17311 -0.01001
 N214 N 0.20922 1.21544 0.03519
 H215 H 0.31213 1.37240 0.11501
 H216 H 0.23825 1.14249 -0.09731
 C217 C 0.26433 0.70579 -0.01651
 C218 C 0.27844 0.76181 0.01139
 N219 N 0.33329 0.76911 0.03885
 C220 C 0.37483 0.72289 0.03961
 C221 C 0.36145 0.66688 0.01078
 N222 N 0.30620 0.65996 -0.01668
 N223 N 0.20854 0.69771 -0.04189
 C224 C 0.16612 0.74316 -0.04055
 C225 C 0.18040 0.79964 -0.01333
 N226 N 0.23653 0.80754 0.01182
 H227 H 0.41775 0.72961 0.06287
 H228 H 0.12197 0.73553 -0.06110
 C229 C -0.28689 0.74341 0.01552
 C230 C -0.22834 0.72358 -0.00073
 N231 N -0.21894 0.66375 -0.01433
 C232 C -0.26530 0.62262 -0.01180
 C233 C -0.32438 0.64184 0.00564
 N234 N -0.33307 0.70238 0.01839
 N235 N -0.29676 0.80342 0.02801
 C236 C -0.25063 0.84468 0.02490
 C237 C -0.19161 0.82507 0.00882
 N238 N -0.18202 0.76465 -0.00352
 H239 H -0.25625 0.57579 -0.02513
 H240 H -0.26001 0.89222 0.03525
 C241 C -0.24933 1.29145 -0.00254
 C242 C -0.26212 1.23615 0.02732
 N243 N -0.31568 1.22952 0.05746
 C244 C -0.35756 1.27540 0.05825
 C245 C -0.34606 1.32994 0.02618
 N246 N -0.29163 1.33675 -0.00284
 N247 N -0.19499 1.29880 -0.03108
 C248 C -0.15286 1.25312 -0.03140
 C249 C -0.16614 1.19712 -0.00285
 N250 N -0.22062 1.19011 0.02595
 H251 H -0.39973 1.26916 0.08305
 H252 H -0.10996 1.26009 -0.05459
 C253 C 0.00315 1.29259 0.24955
 C254 C 0.00875 1.23312 0.27319
 N255 N 0.00594 1.22462 0.33420
 C256 C -0.00354 1.27262 0.37245
 C257 C -0.01225 1.33249 0.34877
 N258 N -0.00765 1.34024 0.28752
 N259 N 0.00775 1.30185 0.18887
 C260 C 0.01652 1.25416 0.15043
 C261 C 0.01965 1.19383 0.17349
 N262 N 0.01619 1.18485 0.23474
 H263 H -0.00278 1.26385 0.42093
 H264 H 0.01915 1.26349 0.10207
 C265 C -0.02146 1.28857 -0.25996
 C266 C -0.01190 1.22941 -0.28323
 N267 N -0.01044 1.22084 -0.34433
 C268 C -0.01849 1.26859 -0.38315
 C269 C -0.02919 1.32834 -0.35998
 N270 N -0.03008 1.33601 -0.29853
 N271 N -0.02111 1.29805 -0.19913
 C272 C -0.01172 1.25098 -0.16024
 C273 C -0.00272 1.19116 -0.18307
 N274 N -0.00315 1.18178 -0.24438
 H275 H -0.01389 1.25989 -0.43144
 H276 H -0.01183 1.26046 -0.11183
 C277 C -0.00474 0.73987 -0.29579
 C278 C -0.02545 0.72031 -0.23839
 N279 N -0.04851 0.66312 -0.23263
 C280 C -0.05082 0.62434 -0.28114
 C281 C -0.02866 0.64299 -0.33894
 N282 N -0.00694 0.70116 -0.34436
 N283 N 0.01807 0.79704 -0.30196
 C284 C 0.02074 0.83577 -0.25362
 C285 C -0.00043 0.81687 -0.19581
 N286 N -0.02293 0.75907 -0.18963
 H287 H -0.07059 0.57947 -0.27468
 H288 H 0.03923 0.88115 -0.26047
 C289 C 0.00484 0.74197 0.28967
 C290 C -0.02814 0.72680 0.23682
 N291 N -0.06080 0.67415 0.23572
 C292 C -0.06144 0.63579 0.28457
 C293 C -0.02743 0.65013 0.33720
 N294 N 0.00477 0.70335 0.33834
 N295 N 0.03699 0.79481 0.29124
 C296 C 0.03747 0.83338 0.24273
 C297 C 0.00464 0.81862 0.18946
 N298 N -0.02737 0.76520 0.18779
 H299 H -0.08750 0.59385 0.28215
 H300 H 0.06350 0.87532 0.24570
   
