data_POSCAR
  _audit_creation_date              2014-09-24
  _audit_creation_method            'ToBaCCo'
  _symmetry_space_group_name_H-M    'P1'
  _symmetry_Int_Tables_number       1
  _symmetry_cell_setting            triclinic
  loop_
  _symmetry_equiv_pos_as_xyz
 x,y,z
_cell_length_a 19.8395
_cell_length_b 19.9598
_cell_length_c 34.9015
_cell_angle_alpha 88.846100
_cell_angle_beta 89.127800
_cell_angle_gamma 88.562900
loop_
  _atom_site_label
  _atom_site_type_symbol
  _atom_site_fract_x
  _atom_site_fract_y
  _atom_site_fract_z
C1 C -0.00357 0.35331 1.03747
 C2 C -0.00986 0.32151 1.00231
 C3 C -0.00679 0.35716 0.96755
 C4 C -0.00114 0.42762 0.96746
 C5 C 0.00262 0.46140 1.00270
 C6 C 0.00115 0.42428 1.03784
 C7 C 0.00313 0.45915 1.07238
 C8 C 0.01111 0.52811 1.07248
 C9 C 0.01379 0.56600 1.03806
 C10 C 0.00909 0.53231 1.00274
 C11 C 0.00182 0.46486 0.93297
 C12 C 0.00991 0.53379 0.93293
 C13 C 0.01268 0.56894 0.96743
 C14 C 0.02287 0.63911 0.96753
 C15 C 0.02933 0.67088 1.00271
 C16 C 0.02459 0.63608 1.03791
 H17 H -0.00032 0.43323 1.09983
 H18 H 0.01629 0.55106 1.10003
 H19 H -0.00092 0.44082 0.90554
 H20 H 0.01523 0.55895 0.90537
 H21 H -0.01298 0.26730 1.00179
 H22 H 0.03432 0.72494 1.00277
 C23 C 0.34744 0.00420 0.53690
 C24 C 0.31472 0.00350 0.50178
 C25 C 0.35078 0.00073 0.46713
 C26 C 0.42202 -0.00303 0.46738
 C27 C 0.45608 -0.00243 0.50286
 C28 C 0.41862 0.00085 0.53777
 C29 C 0.45323 0.00089 0.57255
 C30 C 0.52332 -0.00178 0.57311
 C31 C 0.56179 -0.00244 0.53886
 C32 C 0.52770 -0.00458 0.50341
 C33 C 0.46004 -0.00676 0.43317
 C34 C 0.53015 -0.01089 0.43377
 C35 C 0.56498 -0.00944 0.46851
 C36 C 0.63613 -0.01379 0.46935
 C37 C 0.66907 -0.01128 0.50439
 C38 C 0.63346 -0.00361 0.53911
 H39 H 0.42640 0.00281 0.59975
 H40 H 0.54708 -0.00339 0.60081
 H41 H 0.43590 -0.00699 0.40558
 H42 H 0.55678 -0.01515 0.40661
 H43 H 0.26003 0.00612 0.50137
 H44 H 0.72381 -0.01287 0.50435
 C45 C 0.12413 0.02987 0.27825
 H46 H 0.12385 0.06476 0.25423
 C47 C 0.17509 0.03275 0.30529
 H48 H 0.21430 0.06923 0.30163
 C49 C 0.07275 -0.05861 0.31335
 H50 H 0.03187 -0.09325 0.31656
 C51 C 0.12200 -0.05657 0.34139
 H52 H 0.11911 -0.08990 0.36621
 N53 N 0.07386 -0.01486 0.28297
 C54 C -0.04694 -0.08868 0.19056
 H55 H -0.08448 -0.04859 0.18828
 C56 C -0.04311 -0.13816 0.16288
 H57 H -0.07800 -0.13638 0.13929
 C58 C 0.04706 -0.13763 0.22281
 H59 H 0.08313 -0.13616 0.24564
 C60 C 0.05237 -0.18840 0.19588
 H61 H 0.09220 -0.22631 0.19822
 Zn62 Zn -0.00209 -0.01272 0.25077
 N63 N -0.00151 -0.08862 0.21935
 C64 C 0.04815 0.06407 0.18993
 N65 N -0.00056 0.06342 0.21775
 C66 C -0.04851 0.11323 0.21998
 C67 C -0.04817 0.16680 0.19354
 C68 C 0.05042 0.11661 0.16305
 C69 C -0.12828 -0.05630 0.28103
 C70 C -0.17986 -0.05847 0.30874
 C71 C -0.12960 0.03436 0.34021
 C72 C -0.07959 0.03537 0.31170
 N73 N -0.07910 -0.01028 0.28329
 H74 H 0.08468 0.02301 0.18832
 H75 H -0.08765 0.11094 0.24180
 H76 H -0.08693 0.20587 0.19517
 H77 H 0.08877 0.11598 0.14063
 H78 H -0.12653 -0.09259 0.25846
 H79 H -0.21827 -0.09588 0.30711
 H80 H -0.12812 0.06952 0.36341
 H81 H -0.03944 0.07091 0.31299
 C82 C 0.00817 -0.18758 0.16488
 C83 C 0.17279 -0.00916 0.33799
 C84 C -0.17942 -0.01411 0.33942
 C85 C 0.00200 0.16882 0.16484
 C86 C -0.05994 0.12881 0.78468
 H87 H -0.09846 0.12978 0.76313
 C88 C -0.05742 0.18111 0.81064
 H89 H -0.09373 0.22244 0.80874
 C90 C 0.03299 0.07321 0.81447
 H91 H 0.06744 0.03038 0.81604
 C92 C 0.03680 0.12390 0.84118
 H93 H 0.07404 0.11976 0.86353
 N94 N -0.01466 0.07656 0.78687
 C95 C 0.05669 -0.04147 0.69070
 H96 H 0.01539 -0.07552 0.68858
 C97 C 0.10711 -0.04047 0.66243
 H98 H 0.10469 -0.07395 0.63847
 C99 C 0.10867 0.04576 0.72368
 H100 H 0.10836 0.08016 0.74717
 C101 C 0.16063 0.04783 0.69624
 H102 H 0.20059 0.08335 0.69894
 Zn103 Zn -0.01754 0.00252 0.75402
 N104 N 0.05787 0.00178 0.72029
 C105 C -0.09790 0.05760 0.69627
 N106 N -0.09491 0.00733 0.72312
 C107 C -0.14165 -0.04143 0.72470
 C108 C -0.19365 -0.04116 0.69811
 C109 C -0.14902 0.05985 0.66926
 C110 C 0.03305 -0.12333 0.78148
 C111 C 0.03984 -0.17523 0.80867
 C112 C -0.05635 -0.12879 0.84325
 C113 C -0.06170 -0.07807 0.81524
 N114 N -0.01647 -0.07548 0.78559
 H115 H -0.05903 0.09467 0.69506
 H116 H -0.13732 -0.08181 0.74568
 H117 H -0.22961 -0.08112 0.69886
 H118 H -0.14957 0.09888 0.64724
 H119 H 0.06899 -0.11988 0.75802
 H120 H 0.08056 -0.21204 0.80581
 H121 H -0.09091 -0.12891 0.86758
 H122 H -0.10001 -0.03888 0.81802
 C123 C 0.15901 0.00556 0.66467
 C124 C -0.00824 0.17910 0.83913
 C125 C -0.00382 -0.17679 0.84063
 C126 C -0.19736 0.00980 0.66990
 C127 C -0.03407 -0.28062 0.12683
 C128 C -0.02953 -0.32482 0.09646
 C129 C 0.02705 -0.32605 0.07172
 C130 C 0.08094 -0.28241 0.07884
 C131 C 0.07545 -0.23625 0.10918
 C132 C 0.01743 -0.23577 0.13341
 C133 C 0.12800 -0.19105 0.11371
 N134 N 0.18380 -0.19489 0.09089
 N135 N 0.19060 -0.24064 0.06380
 C136 C 0.14140 -0.28467 0.05715
 H137 H -0.07893 -0.28039 0.14494
 H138 H -0.07204 -0.35628 0.09124
 H139 H 0.12538 -0.15256 0.13504
 H140 H 0.15036 -0.32163 0.03534
 C141 C -0.05425 0.22618 0.11038
 C142 C -0.05491 0.26989 0.07885
 C143 C -0.00074 0.31225 0.07091
 C144 C 0.05629 0.30872 0.09527
 C145 C 0.05630 0.26468 0.12775
 C146 C 0.00104 0.22229 0.13479
 C147 C 0.11229 0.26398 0.15201
 N148 N 0.16607 0.30217 0.14313
 N149 N 0.16767 0.34086 0.11163
 C150 C 0.11507 0.34501 0.08728
 H151 H -0.09653 0.19353 0.11513
 H152 H -0.09850 0.27085 0.06047
 H153 H 0.11384 0.23345 0.17795
 H154 H 0.12002 0.37631 0.06182
 C155 C 0.24961 -0.04757 0.62538
 C156 C 0.29582 -0.04783 0.59494
 C157 C 0.30455 0.00962 0.57194
 C158 C 0.26684 0.06890 0.58017
 C159 C 0.21865 0.06886 0.61059
 C160 C 0.21029 0.00993 0.63346
 C161 C 0.17888 0.12739 0.61612
 N162 N 0.18911 0.18263 0.59373
 N163 N 0.23592 0.18324 0.56600
 C164 C 0.27507 0.12833 0.55843
 H165 H 0.24354 -0.09306 0.64242
 H166 H 0.32388 -0.09367 0.58866
 H167 H 0.13933 0.12982 0.63768
 H168 H 0.31234 0.13166 0.53558
 C169 C -0.24222 -0.04765 0.61423
 C170 C -0.28193 -0.05008 0.58183
 C171 C -0.32873 0.00168 0.57291
 C172 C -0.33369 0.05826 0.59715
 C173 C -0.29362 0.06011 0.63050
 C174 C -0.24686 0.00708 0.63864
 C175 C -0.30130 0.11557 0.65455
 N176 N -0.34367 0.16720 0.64473
 N177 N -0.37873 0.16714 0.61252
 C178 C -0.37480 0.11489 0.58828
 H179 H -0.20609 -0.08819 0.61976
 H180 H -0.27650 -0.09338 0.56367
 H181 H -0.27405 0.11837 0.68104
 H182 H -0.40354 0.11842 0.56224
 C183 C -0.04233 -0.27269 0.88061
 C184 C -0.03515 -0.31877 0.91088
 C185 C 0.02253 -0.32010 0.93383
 C186 C 0.07471 -0.27431 0.92503
 C187 C 0.06646 -0.22621 0.89487
 C188 C 0.00754 -0.22596 0.87237
 C189 C 0.11733 -0.17905 0.88870
 N190 N 0.17423 -0.18280 0.90973
 N191 N 0.18369 -0.23031 0.93654
 C192 C 0.13622 -0.27633 0.94472
 H193 H -0.08782 -0.27272 0.86382
 H194 H -0.07644 -0.35188 0.91740
 H195 H 0.11253 -0.13909 0.86751
 H196 H 0.14737 -0.31462 0.96616
 C197 C -0.06543 0.24375 0.89053
 C198 C -0.06496 0.28621 0.92170
 C199 C -0.00582 0.31776 0.93190
 C200 C 0.05373 0.30773 0.90958
 C201 C 0.05282 0.26584 0.87725
 C202 C -0.00680 0.23172 0.86854
 C203 C 0.11186 0.25972 0.85461
 N204 N 0.16852 0.29108 0.86483
 N205 N 0.17006 0.32830 0.89602
 C206 C 0.11477 0.33754 0.91879
 H207 H -0.11141 0.21809 0.88441
 H208 H -0.11068 0.29315 0.93868
 H209 H 0.11341 0.23089 0.82871
 H210 H 0.11907 0.36826 0.94375
 C211 C -0.27052 0.03742 0.37907
 C212 C -0.31546 0.03745 0.41012
 C213 C -0.32120 -0.01921 0.43415
 C214 C -0.28135 -0.07738 0.42644
 C215 C -0.23440 -0.07701 0.39536
 C216 C -0.22937 -0.01898 0.37135
 C217 C -0.19250 -0.13424 0.39030
 N218 N -0.19959 -0.18870 0.41374
 N219 N -0.24522 -0.18972 0.44209
 C220 C -0.28627 -0.13599 0.44927
 H221 H -0.26694 0.08229 0.36124
 H222 H -0.34507 0.08254 0.41599
 H223 H -0.15371 -0.13622 0.36829
 H224 H -0.32236 -0.13960 0.47271
 C225 C 0.26126 -0.05826 0.38011
 C226 C 0.30512 -0.05578 0.41083
 C227 C 0.31115 0.00321 0.43138
 C228 C 0.27304 0.06120 0.42038
 C229 C 0.22691 0.05827 0.38986
 C230 C 0.22145 -0.00212 0.36940
 C231 C 0.18610 0.11548 0.38190
 N232 N 0.19378 0.17226 0.40190
 N233 N 0.23895 0.17565 0.42957
 C234 C 0.27878 0.12214 0.43950
 H235 H 0.25737 -0.10484 0.36497
 H236 H 0.33338 -0.10069 0.41927
 H237 H 0.14762 0.11569 0.36035
 H238 H 0.31463 0.12775 0.46217
   
