data_POSCAR
  _audit_creation_date              2014-09-24
  _audit_creation_method            'ToBaCCo'
  _symmetry_space_group_name_H-M    'P1'
  _symmetry_Int_Tables_number       1
  _symmetry_cell_setting            triclinic
  loop_
  _symmetry_equiv_pos_as_xyz
 x,y,z
_cell_length_a 18.1555
_cell_length_b 19.4937
_cell_length_c 24.0431
_cell_angle_alpha 89.398400
_cell_angle_beta 90.590600
_cell_angle_gamma 123.951000
loop_
  _atom_site_label
  _atom_site_type_symbol
  _atom_site_fract_x
  _atom_site_fract_y
  _atom_site_fract_z
C1 C 0.04374 0.49047 1.29916
 C2 C -0.04748 0.45947 1.30635
 C3 C -0.10342 0.43146 1.25898
 C4 C -0.07072 0.43928 1.20507
 C5 C 0.02043 0.47137 1.19850
 C6 C 0.07451 0.49200 1.24570
 H7 H 0.14397 0.51502 1.23993
 H8 H -0.17427 0.40225 1.26387
 C9 C 0.49353 0.53489 1.29947
 C10 C 0.51085 0.47274 1.30071
 C11 C 0.51766 0.43988 1.25084
 C12 C 0.51437 0.47227 1.19912
 C13 C 0.50629 0.54046 1.19778
 C14 C 0.49516 0.57043 1.24768
 H15 H 0.48205 0.61810 1.24491
 H16 H 0.53011 0.39157 1.25239
 C17 C 0.50999 0.95765 1.30111
 C18 C 0.53101 1.03968 1.30433
 C19 C 0.53333 1.08070 1.25472
 C20 C 0.51882 1.04293 1.20253
 C21 C 0.49690 0.96142 1.19992
 C22 C 0.49547 0.92087 1.24879
 H23 H 0.47576 0.85719 1.24645
 H24 H 0.55478 1.14489 1.25610
 C25 C 1.03886 0.48906 0.79971
 C26 C 0.95559 0.47826 0.79276
 C27 C 0.91964 0.46658 0.73926
 C28 C 0.96501 0.46603 0.69250
 C29 C 1.05155 0.48318 0.69901
 C30 C 1.08460 0.48937 0.75299
 H31 H 1.14998 0.50083 0.75876
 H32 H 0.85298 0.45228 0.73442
 C33 C 0.52795 0.58123 0.79282
 C34 C 0.54371 0.51802 0.79592
 C35 C 0.55083 0.48450 0.74620
 C36 C 0.54612 0.51541 0.69408
 C37 C 0.53488 0.58149 0.69172
 C38 C 0.52630 0.61374 0.74106
 H39 H 0.51447 0.66247 0.73905
 H40 H 0.56599 0.43805 0.74796
 C41 C 0.50459 -0.04526 0.80540
 C42 C 0.51299 0.03123 0.81241
 C43 C 0.50659 0.07160 0.76557
 C44 C 0.49430 0.03947 0.71179
 C45 C 0.48466 -0.03726 0.70432
 C46 C 0.49302 -0.07666 0.75134
 H47 H 0.48164 -0.13711 0.74717
 H48 H 0.51726 0.13178 0.77057
 O49 O 0.46055 0.66823 0.93307
 O50 O 0.48248 0.80975 0.95752
 C51 C 0.43018 0.82748 0.93629
 O52 O 0.34850 0.78827 0.94737
 O53 O 0.19186 0.65257 0.96258
 C54 C 0.17169 0.59129 0.93203
 O55 O 0.20614 0.55042 0.93828
 O56 O 0.34280 0.53981 0.94814
 C57 C 0.41265 0.59201 0.92132
 O58 O 0.46578 0.63493 1.04236
 O59 O 0.48071 0.77128 1.06687
 C60 C 0.44691 0.80955 1.08228
 O61 O 0.38215 0.80460 1.05701
 O62 O 0.23104 0.66695 1.07278
 C63 C 0.18396 0.59015 1.08154
 O64 O 0.18282 0.53787 1.04961
 O65 O 0.32390 0.53462 1.05895
 C66 C 0.40593 0.57015 1.06833
 Cr67 Cr 0.46768 0.71903 0.99982
 Cr68 Cr 0.29006 0.72542 1.00955
 Cr69 Cr 0.26671 0.54527 0.99875
 O70 O 0.34165 0.66336 1.00222
 O71 O 0.51848 0.32577 0.93409
 O72 O 0.49781 0.18734 0.96214
 C73 C 0.54612 0.17068 0.93506
 O74 O 0.62796 0.20383 0.94542
 O75 O 0.78896 0.33604 0.95587
 C76 C 0.80816 0.39349 0.92153
 O77 O 0.77409 0.43512 0.92360
 O78 O 0.64241 0.45296 0.93670
 C79 C 0.56825 0.39831 0.91474
 O80 O 0.53306 0.36994 1.04317
 O81 O 0.51707 0.23422 1.07188
 C82 C 0.55051 0.19462 1.08601
 O83 O 0.60771 0.19414 1.05646
 O84 O 0.76317 0.33277 1.06566
 C85 C 0.81553 0.41088 1.06762
 O86 O 0.81271 0.45955 1.03324
 O87 O 0.67746 0.47170 1.04704
 C88 C 0.59827 0.43704 1.06366
 Cr89 Cr 0.52112 0.28117 1.00261
 Cr90 Cr 0.69498 0.26903 1.00555
 Cr91 Cr 0.72355 0.45041 0.98559
 O92 O 0.64632 0.33371 0.99770
 O93 O 0.63309 0.43466 0.56299
 O94 O 0.78713 0.46204 0.54209
 C95 C 0.80654 0.41897 0.57101
 O96 O 0.77510 0.34329 0.56145
 O97 O 0.63929 0.19050 0.54477
 C98 C 0.57491 0.16944 0.57698
 O99 O 0.52529 0.19560 0.57080
 O100 O 0.50075 0.31414 0.55750
 C101 C 0.55466 0.38412 0.58007
 O102 O 0.59540 0.42466 0.45345
 O103 O 0.74471 0.44596 0.43146
 C104 C 0.79280 0.42009 0.42046
 O105 O 0.79727 0.36975 0.45164
 O106 O 0.65399 0.22296 0.43442
 C107 C 0.57117 0.17904 0.42436
 O108 O 0.51301 0.17106 0.45805
 O109 O 0.49275 0.28997 0.44479
 C110 C 0.52998 0.36377 0.42819
 Cr111 Cr 0.68851 0.43773 0.49777
 Cr112 Cr 0.71341 0.28271 0.49833
 Cr113 Cr 0.51237 0.24548 0.50781
 O114 O 0.63784 0.32213 0.50216
 O115 O 0.34940 0.55470 0.54747
 O116 O 0.19840 0.54104 0.53818
 C117 C 0.18377 0.58371 0.57027
 O118 O 0.22698 0.66174 0.56856
 O119 O 0.37334 0.80987 0.56005
 C120 C 0.44057 0.81882 0.58492
 O121 O 0.48198 0.78873 0.56724
 O122 O 0.48708 0.66559 0.53451
 C123 C 0.43138 0.59732 0.55871
 O124 O 0.37471 0.57523 0.43640
 O125 O 0.22771 0.56894 0.42832
 C126 C 0.18289 0.60053 0.42612
 O127 O 0.19532 0.65677 0.45915
 O128 O 0.34470 0.80186 0.44901
 C129 C 0.42625 0.84506 0.43714
 O130 O 0.48357 0.83622 0.46056
 O131 O 0.47989 0.70958 0.42727
 C132 C 0.43883 0.63622 0.41002
 Cr133 Cr 0.29005 0.56434 0.48802
 Cr134 Cr 0.28783 0.73093 0.50880
 Cr135 Cr 0.47853 0.74753 0.49747
 O136 O 0.35199 0.68086 0.49838
 C137 C 0.46905 0.55498 0.34931
 C138 C 0.46811 0.62227 0.35708
 H139 H 0.45068 0.51347 0.38463
 H140 H 0.49496 0.67133 0.32638
 C141 C 0.49461 0.90706 0.34791
 C142 C 0.45493 0.90850 0.39419
 H143 H 0.50226 0.85600 0.34327
 H144 H 0.42969 0.94725 0.39662
 C145 C 0.10831 0.52315 0.34161
 C146 C 0.11126 0.56828 0.38440
 H147 H 0.16558 0.52008 0.33551
 H148 H 0.06321 0.58428 0.38804
 C149 C 0.53875 0.45418 0.35352
 C150 C 0.49679 0.37886 0.37637
 H151 H 0.59384 0.50645 0.37530
 H152 H 0.44006 0.32710 0.35531
 C153 C 0.56074 0.08336 0.35485
 C154 C 0.54090 0.13664 0.37065
 H155 H 0.59373 0.06723 0.38492
 H156 H 0.49711 0.14577 0.34553
 C157 C 0.91416 0.44589 0.35938
 C158 C 0.84233 0.44752 0.36826
 H159 H 0.94441 0.43516 0.39452
 H160 H 0.81776 0.46915 0.33599
 C161 C 0.52096 0.43368 1.14817
 C162 C 0.58267 0.47739 1.10933
 H163 H 0.48103 0.36673 1.14605
 H164 H 0.62919 0.54345 1.11467
 C165 C 0.86753 0.41131 1.16118
 C166 C 0.88443 0.44659 1.11079
 H167 H 0.79899 0.36269 1.17044
 H168 H 0.94620 0.50485 1.10203
 C169 C 0.54186 0.09174 1.15019
 C170 C 0.52169 0.14678 1.13873
 H171 H 0.57566 0.07951 1.11890
 H172 H 0.48359 0.15660 1.16807
 C173 C 0.49964 0.57711 1.14544
 C174 C 0.43024 0.53244 1.11163
 H175 H 0.54216 0.64366 1.14020
 H176 H 0.38253 0.46755 1.12115
 C177 C 0.06403 0.48680 1.14403
 C178 C 0.13101 0.56398 1.13222
 H179 H 0.04018 0.43739 1.11416
 H180 H 0.14838 0.61236 1.16202
 C181 C 0.46590 0.91534 1.14682
 C182 C 0.48478 0.86090 1.13227
 H183 H 0.42639 0.92688 1.11914
 H184 H 0.52905 0.85316 1.15800
 C185 C 0.56678 0.48775 0.64313
 C186 C 0.52577 0.40805 0.62904
 H187 H 0.61658 0.53548 0.61578
 H188 H 0.47124 0.36032 0.65388
 C189 C 0.50158 0.09258 0.66431
 C190 C 0.55838 0.11114 0.62252
 H191 H 0.46720 0.12337 0.66691
 H192 H 0.59776 0.08506 0.62291
 C193 C 0.91467 0.43277 0.63990
 C194 C 0.86666 0.45938 0.61859
 H195 H 0.91688 0.38504 0.61888
 H196 H 0.87030 0.51156 0.63730
 C197 C 0.52488 0.61482 0.63874
 C198 C 0.46119 0.56501 0.60248
 H199 H 0.55851 0.68125 0.63449
 H200 H 0.42046 0.49899 0.61061
 C201 C 0.45954 0.92306 0.65197
 C202 C 0.47248 0.86432 0.63748
 H203 H 0.43005 0.94205 0.62131
 H204 H 0.51216 0.85100 0.66338
 C205 C 0.11019 0.50283 0.65441
 C206 C 0.10919 0.54212 0.60877
 H207 H 0.16773 0.50009 0.66110
 H208 H 0.06228 0.55955 0.60491
 C209 C 0.50838 0.61240 0.84230
 C210 C 0.43924 0.56150 0.87507
 H211 H 0.54475 0.67876 0.84776
 H212 H 0.39975 0.49564 0.86686
 C213 C 0.08323 0.50248 0.85397
 C214 C 0.10667 0.56726 0.88643
 H215 H 0.11011 0.46580 0.86236
 H216 H 0.08349 0.60658 0.87665
 C217 C 0.49914 0.90330 0.84953
 C218 C 0.46358 0.89892 0.89893
 H219 H 0.50887 0.85454 0.84009
 H220 H 0.43820 0.93651 0.90691
 C221 C 0.56551 0.49590 0.85008
 C222 C 0.53871 0.41853 0.86343
 H223 H 0.60500 0.54511 0.87964
 H224 H 0.49337 0.36819 0.83604
 C225 C 0.89946 0.47019 0.83973
 C226 C 0.87383 0.41154 0.87846
 H227 H 0.86963 0.50524 0.83804
 H228 H 0.89996 0.37332 0.87757
 C229 C 0.54470 0.07796 0.86531
 C230 C 0.50565 0.11234 0.88815
 H231 H 0.60245 0.08502 0.88509
 H232 H 0.44461 0.10053 0.87021
   
