data_POSCAR
  _audit_creation_date              2014-09-24
  _audit_creation_method            'ToBaCCo'
  _symmetry_space_group_name_H-M    'P1'
  _symmetry_Int_Tables_number       1
  _symmetry_cell_setting            triclinic
  loop_
  _symmetry_equiv_pos_as_xyz
 x,y,z
_cell_length_a 51.3057
_cell_length_b 51.1802
_cell_length_c 51.2989
_cell_angle_alpha 93.409500
_cell_angle_beta 88.381900
_cell_angle_gamma 93.475100
loop_
  _atom_site_label
  _atom_site_type_symbol
  _atom_site_fract_x
  _atom_site_fract_y
  _atom_site_fract_z
C1 C 0.20826 0.50455 1.02212
 H2 H 0.20901 0.51853 1.00707
 C3 C 0.18947 0.50611 1.04225
 H4 H 0.17575 0.52144 1.04275
 C5 C 0.22463 0.46690 1.03926
 H6 H 0.23796 0.45131 1.03765
 C7 C 0.20607 0.46772 1.05975
 H8 H 0.20536 0.45287 1.07400
 N9 N 0.22538 0.48520 1.02100
 C10 C 0.28952 0.51468 0.97135
 H11 H 0.28964 0.49892 0.95633
 C12 C 0.30855 0.53533 0.97085
 H13 H 0.32334 0.53557 0.95537
 C14 C 0.27081 0.53305 1.01057
 H15 H 0.25652 0.53172 1.02638
 C16 C 0.28953 0.55408 1.01082
 H17 H 0.28945 0.56901 1.02670
 Zn18 Zn 0.24828 0.48352 0.99150
 N19 N 0.27118 0.51388 0.99101
 C20 C 0.22820 0.49959 0.94428
 N21 N 0.22706 0.48058 0.96181
 C22 C 0.20874 0.46022 0.96020
 C23 C 0.19030 0.45864 0.94058
 C24 C 0.21011 0.49874 0.92434
 C25 C 0.28660 0.45551 1.01224
 C26 C 0.30494 0.43656 1.01297
 C27 C 0.28792 0.41619 0.97274
 C28 C 0.26980 0.43555 0.97278
 N29 N 0.26958 0.45476 0.99232
 H30 H 0.24244 0.51597 0.94630
 H31 H 0.20796 0.44569 0.97473
 H32 H 0.17531 0.44278 0.93989
 H33 H 0.21063 0.51435 0.91093
 H34 H 0.28631 0.47130 1.02722
 H35 H 0.31877 0.43765 1.02863
 H36 H 0.28844 0.40132 0.95684
 H37 H 0.25654 0.43569 0.95680
 C38 C 0.30866 0.55510 0.99087
 C39 C 0.18825 0.48745 1.06116
 C40 C 0.30579 0.41689 0.99292
 C41 C 0.19081 0.47825 0.92270
 C42 C 0.79166 0.53873 -0.02264
 H43 H 0.79235 0.55394 -0.00706
 C44 C 0.81038 0.53926 -0.04292
 H45 H 0.82550 0.55498 -0.04304
 C46 C 0.77199 0.49885 -0.04081
 H47 H 0.75750 0.48274 -0.03950
 C48 C 0.79036 0.49864 -0.06144
 H49 H 0.78982 0.48248 -0.07609
 N50 N 0.77304 0.51867 -0.02188
 C51 C 0.71249 0.54778 0.03164
 H52 H 0.71212 0.53304 0.04593
 C53 C 0.69416 0.56692 0.03343
 H54 H 0.67969 0.56703 0.04923
 C55 C 0.73074 0.56468 -0.00737
 H56 H 0.74448 0.56321 -0.02366
 C57 C 0.71272 0.58416 -0.00631
 H58 H 0.71276 0.59778 -0.02169
 Zn59 Zn 0.75104 0.51764 0.00828
 N60 N 0.73015 0.54688 0.01137
 C61 C 0.77395 0.53631 0.05655
 N62 N 0.77320 0.51709 0.03700
 C63 C 0.78999 0.49748 0.03609
 C64 C 0.80851 0.49662 0.05535
 C65 C 0.79226 0.53620 0.07624
 C66 C 0.70999 0.48593 -0.01283
 C67 C 0.69092 0.46530 -0.01435
 C68 C 0.70869 0.44825 0.02390
 C69 C 0.72748 0.46923 0.02470
 N70 N 0.72778 0.48751 0.00645
 H71 H 0.76084 0.55206 0.05655
 H72 H 0.78926 0.48275 0.02005
 H73 H 0.82205 0.48112 0.05423
 H74 H 0.79310 0.55176 0.09151
 H75 H 0.71040 0.50100 -0.02678
 H76 H 0.67662 0.46439 -0.02957
 H77 H 0.70828 0.43398 0.03870
 H78 H 0.74135 0.47118 0.04025
 C79 C 0.69407 0.58506 0.01411
 C80 C 0.80987 0.51889 -0.06234
 C81 C 0.69018 0.44639 0.00426
 C82 C 0.80978 0.51623 0.07549
 C83 C -0.00373 0.28859 0.45505
 H84 H -0.01841 0.28774 0.47059
 C85 C -0.00480 0.30709 0.43628
 H86 H -0.02045 0.32046 0.43732
 C87 C 0.03524 0.27296 0.43547
 H88 H 0.05113 0.26007 0.43567
 C89 C 0.03495 0.29127 0.41630
 H90 H 0.05055 0.29226 0.40163
 N91 N 0.01607 0.27204 0.45436
 C92 C -0.01388 0.20920 0.50260
 H93 H 0.00141 0.21000 0.51678
 C94 C -0.03441 0.19011 0.50372
 H95 H -0.03503 0.17619 0.51886
 C96 C -0.03133 0.22582 0.46500
 H97 H -0.02973 0.23940 0.44962
 C98 C -0.05222 0.20697 0.46540
 H99 H -0.06680 0.20622 0.45046
 Zn100 Zn 0.01707 0.25022 0.48270
 N101 N -0.01274 0.22662 0.48352
 C102 C -0.00135 0.27174 0.53181
 N103 N 0.01819 0.27274 0.51332
 C104 C 0.03812 0.29152 0.51496
 C105 C 0.03886 0.31039 0.53577
 C106 C -0.00136 0.29027 0.55295
 C107 C 0.04755 0.21159 0.45939
 C108 C 0.06670 0.19327 0.45798
 C109 C 0.08351 0.21243 0.49879
 C110 C 0.06404 0.23042 0.49944
 N111 N 0.04642 0.22951 0.48000
 H112 H -0.01737 0.25713 0.52981
 H113 H 0.05311 0.29216 0.49971
 H114 H 0.05451 0.32558 0.53665
 H115 H -0.01727 0.28973 0.56729
 H116 H 0.03296 0.21096 0.44451
 H117 H 0.06696 0.17854 0.44192
 H118 H 0.09693 0.21270 0.51474
 H119 H 0.06238 0.24433 0.51599
 C120 C -0.05370 0.18892 0.48490
 C121 C 0.01483 0.30862 0.41686
 C122 C 0.08460 0.19347 0.47806
 C123 C 0.01882 0.30988 0.55481
 C124 C 0.96058 0.71087 0.54773
 H125 H 0.94579 0.71010 0.53303
 C126 C 0.95929 0.69246 0.56682
 H127 H 0.94339 0.67753 0.56693
 C128 C 1.00034 0.73015 0.56450
 H129 H 1.01675 0.74427 0.56298
 C130 C 0.99980 0.71208 0.58392
 H131 H 1.01568 0.71250 0.59745
 N132 N 0.98101 0.72905 0.54677
 C133 C 0.95573 0.78796 0.49659
 H134 H 0.97135 0.78729 0.48198
 C135 C 0.93683 0.80629 0.49547
 H136 H 0.93779 0.81973 0.47988
 C137 C 0.93610 0.77206 0.53545
 H138 H 0.93633 0.75912 0.55133
 C139 C 0.91679 0.79019 0.53509
 H140 H 0.90203 0.79107 0.55059
 Zn141 Zn 0.98361 0.74982 0.51745
 N142 N 0.95509 0.77136 0.51637
 C143 C 0.96619 0.72534 0.46903
 N144 N 0.98467 0.72628 0.48765
 C145 C 1.00386 0.70901 0.48659
 C146 C 1.00512 0.68991 0.46610
 C147 C 0.96673 0.70649 0.44817
 C148 C 1.01551 0.79139 0.53855
 C149 C 1.03614 0.81048 0.53928
 C150 C 1.05351 0.79056 0.49908
 C151 C 1.03255 0.77181 0.49910
 N152 N 1.01404 0.77261 0.51864
 H153 H 0.95072 0.73880 0.47057
 H154 H 1.01800 0.70992 0.50191
 H155 H 1.02034 0.67610 0.46555
 H156 H 0.95181 0.70561 0.43356
 H157 H 1.00024 0.79186 0.55354
 H158 H 1.03687 0.82567 0.55492
 H159 H 1.06784 0.79019 0.48316
 H160 H 1.03069 0.75719 0.48309
 C161 C 0.91733 0.80757 0.51500
 C162 C 0.97927 0.69286 0.58484
 C163 C 1.05517 0.81019 0.51923
 C164 C 0.98634 0.68858 0.44678
 C165 C 0.47800 -0.00417 0.29079
 H166 H 0.49296 -0.01822 0.29004
 C167 C 0.45783 -0.00570 0.30956
 H168 H 0.45718 -0.02105 0.32327
 C169 C 0.46111 0.03364 0.27450
 H170 H 0.46283 0.04929 0.26122
 C171 C 0.44059 0.03283 0.29303
 H172 H 0.42642 0.04772 0.29383
 N173 N 0.47926 0.01525 0.27373
 C174 C 0.52913 -0.01425 0.20982
 H175 H 0.54419 0.00148 0.20978
 C176 C 0.52968 -0.03491 0.19081
 H177 H 0.54531 -0.03512 0.17615
 C178 C 0.48973 -0.03256 0.22830
 H179 H 0.47385 -0.03120 0.24250
 C180 C 0.48952 -0.05358 0.20961
 H181 H 0.47356 -0.06846 0.20966
 Zn182 Zn 0.50883 0.01693 0.25092
 N183 N 0.50936 -0.01343 0.22804
 C184 C 0.55580 0.00070 0.27135
 N185 N 0.53844 0.01984 0.27226
 C186 C 0.54012 0.04028 0.29047
 C187 C 0.55965 0.04182 0.30901
 C188 C 0.57563 0.00150 0.28955
 C189 C 0.48817 0.04494 0.21257
 C190 C 0.48744 0.06389 0.19421
 C191 C 0.52773 0.08423 0.21114
 C192 C 0.52769 0.06487 0.22929
 N193 N 0.50811 0.04569 0.22956
 H194 H 0.55370 -0.01574 0.25721
 H195 H 0.52573 0.05491 0.29109
 H196 H 0.56040 0.05776 0.32391
 H197 H 0.58889 -0.01421 0.28921
 H198 H 0.47316 0.02917 0.21290
 H199 H 0.47176 0.06281 0.18041
 H200 H 0.54366 0.09909 0.21057
 H201 H 0.54368 0.06472 0.24253
 C202 C 0.50959 -0.05466 0.19058
 C203 C 0.43906 0.01304 0.31079
 C204 C 0.50753 0.08355 0.19331
 C205 C 0.57735 0.02208 0.30873
 C206 C 0.52273 -0.03935 0.70843
 H207 H 0.50720 -0.05463 0.70791
 C208 C 0.54299 -0.03997 0.68970
 H209 H 0.54317 -0.05584 0.67475
 C210 C 0.54076 0.00080 0.72765
 H211 H 0.53940 0.01703 0.74197
 C212 C 0.56137 0.00094 0.70924
 H213 H 0.57594 0.01718 0.70958
 N214 N 0.52191 -0.01912 0.72683
 C215 C 0.46848 -0.04802 0.78765
 H216 H 0.45411 -0.03339 0.78785
 C217 C 0.46677 -0.06700 0.80616
 H218 H 0.45096 -0.06709 0.82062
 C219 C 0.50760 -0.06479 0.76961
 H220 H 0.52392 -0.06332 0.75590
 C221 C 0.50663 -0.08410 0.78784
 H222 H 0.52209 -0.09760 0.78795
 Zn223 Zn 0.49178 -0.01803 0.74888
 N224 N 0.48877 -0.04713 0.77000
 C225 C 0.44350 -0.03695 0.72609
 N226 N 0.46301 -0.01767 0.72674
 C227 C 0.46384 0.00191 0.70988
 C228 C 0.44453 0.00267 0.69141
 C229 C 0.42376 -0.03694 0.70782
 C230 C 0.51297 0.01400 0.78967
 C231 C 0.51446 0.03470 0.80864
 C232 C 0.47604 0.05143 0.79092
 C233 C 0.47526 0.03039 0.77223
 N234 N 0.49361 0.01222 0.77195
 H235 H 0.44356 -0.05266 0.73925
 H236 H 0.47984 0.01669 0.71054
 H237 H 0.44557 0.01816 0.67783
 H238 H 0.40851 -0.05254 0.70706
 H239 H 0.52699 -0.00098 0.78929
 H240 H 0.52973 0.03576 0.82289
 H241 H 0.46116 0.06560 0.79131
 H242 H 0.45965 0.02828 0.75843
 C243 C 0.48620 -0.08498 0.80647
 C244 C 0.56233 -0.01950 0.68995
 C245 C 0.49574 0.05349 0.80936
 C246 C 0.42442 -0.01700 0.69024
 C247 C 0.21933 -0.02304 0.50411
 C248 C 0.23515 -0.00036 0.49948
 C249 C 0.22355 0.02296 0.49453
 C250 C 0.19631 0.02361 0.49449
 C251 C 0.18064 0.00086 0.49883
 C252 C 0.19210 -0.02249 0.50350
 C253 C 0.26379 -0.00104 0.49973
 C254 C 0.27871 0.00267 0.47672
 C255 C 0.30592 0.00173 0.47690
 C256 C 0.31830 -0.00236 0.50015
 C257 C 0.30356 -0.00579 0.52320
 C258 C 0.27629 -0.00541 0.52295
 H259 H 0.22821 -0.04113 0.50774
 H260 H 0.23570 0.04057 0.49113
 H261 H 0.26911 0.00587 0.45872
 H262 H 0.26486 -0.00807 0.54080
 H263 H 0.15953 0.00133 0.49858
 H264 H 0.33940 -0.00283 0.50032
 C265 C 0.77597 -0.02294 0.50424
 C266 C 0.76427 0.00053 0.50013
 C267 C 0.78000 0.02343 0.49609
 C268 C 0.80725 0.02289 0.49643
 C269 C 0.81880 -0.00061 0.50025
 C270 C 0.80322 -0.02355 0.50401
 C271 C 0.73562 0.00112 0.50003
 C272 C 0.72075 -0.00349 0.52288
 C273 C 0.69352 -0.00271 0.52281
 C274 C 0.68108 0.00210 0.49980
 C275 C 0.69578 0.00642 0.47690
 C276 C 0.72305 0.00622 0.47706
 H277 H 0.76389 -0.04070 0.50717
 H278 H 0.77104 0.04163 0.49310
 H279 H 0.73040 -0.00727 0.54070
 H280 H 0.73445 0.00955 0.45932
 H281 H 0.83992 -0.00106 0.50029
 H282 H 0.65996 0.00244 0.49970
 C283 C 0.52374 0.28031 0.99954
 C284 C 0.50046 0.26449 0.99791
 C285 C 0.47655 0.27606 0.99581
 C286 C 0.47594 0.30336 0.99551
 C287 C 0.49922 0.31906 0.99697
 C288 C 0.52311 0.30758 0.99891
 C289 C 0.50112 0.23588 0.99855
 C290 C 0.50336 0.22431 1.02245
 C291 C 0.50383 0.19702 1.02307
 C292 C 0.50239 0.18134 0.99979
 C293 C 0.50030 0.19281 0.97590
 C294 C 0.49951 0.22007 0.97527
 H295 H 0.54222 0.27139 1.00112
 H296 H 0.45853 0.26387 0.99470
 H297 H 0.50448 0.23649 1.04046
 H298 H 0.49786 0.22899 0.95678
 H299 H 0.49874 0.34020 0.99666
 H300 H 0.50284 0.16021 1.00028
 C301 C 0.52282 0.72452 0.00586
 C302 C 0.49907 0.73605 0.00267
 C303 C 0.47590 0.72018 -0.00001
 C304 C 0.47647 0.69292 0.00072
 C305 C 0.50022 0.68148 0.00369
 C306 C 0.52341 0.69721 0.00614
 C307 C 0.49845 0.76469 0.00205
 C308 C 0.49523 0.77623 -0.02171
 C309 C 0.49489 0.80352 -0.02232
 C310 C 0.49731 0.81926 0.00085
 C311 C 0.50031 0.80782 0.02462
 C312 C 0.50110 0.78056 0.02521
 H313 H 0.54076 0.73674 0.00776
 H314 H 0.45753 0.72907 -0.00239
 H315 H 0.49334 0.76401 -0.03964
 H316 H 0.50347 0.77167 0.04359
 H317 H 0.50068 0.66034 0.00404
 H318 H 0.49691 0.84039 0.00039
 C319 C 0.99712 0.52352 0.28018
 C320 C 1.00092 0.50061 0.26443
 C321 C 1.00489 0.47708 0.27608
 C322 C 1.00479 0.47643 0.30334
 C323 C 1.00127 0.49938 0.31894
 C324 C 0.99757 0.52293 0.30742
 C325 C 1.00070 0.50125 0.23579
 C326 C 1.02373 0.49764 0.22090
 C327 C 1.02354 0.49846 0.19367
 C328 C 1.00026 0.50235 0.18127
 C329 C 0.97719 0.50568 0.19599
 C330 C 0.97745 0.50541 0.22326
 H331 H 0.99422 0.54176 0.27124
 H332 H 1.00763 0.45931 0.26398
 H333 H 1.04175 0.49458 0.23053
 H334 H 0.95958 0.50800 0.23468
 H335 H 1.00138 0.49890 0.34005
 H336 H 1.00008 0.50273 0.16015
 C337 C -0.00535 0.52203 0.72372
 C338 C -0.00068 0.49870 0.73545
 C339 C 0.00385 0.47594 0.71973
 C340 C 0.00342 0.47644 0.69249
 C341 C -0.00097 0.49981 0.68090
 C342 C -0.00520 0.52263 0.69646
 C343 C -0.00051 0.49813 0.76412
 C344 C -0.02334 0.50264 0.77902
 C345 C -0.02321 0.50190 0.80626
 C346 C -0.00014 0.49723 0.81868
 C347 C 0.02275 0.49303 0.80394
 C348 C 0.02252 0.49317 0.77666
 H349 H -0.00865 0.53970 0.73578
 H350 H 0.00726 0.45784 0.72871
 H351 H -0.04120 0.50632 0.76941
 H352 H 0.04026 0.48993 0.76524
 H353 H -0.00106 0.50024 0.65979
 H354 H 0.00001 0.49693 0.83980
 C355 C 0.13169 0.13175 0.48162
 C356 C 0.15503 0.13661 0.49972
 C357 C 0.16908 0.11507 0.50177
 C358 C 0.15838 0.09081 0.48553
 C359 C 0.15741 0.09967 0.45751
 C360 C 0.14336 0.12122 0.45545
 C361 C 0.11570 0.10831 0.49244
 C362 C 0.12971 0.08682 0.49449
 C363 C 0.11610 0.15462 0.47968
 C364 C 0.10228 0.17274 0.47865
 C365 C 0.17304 0.06738 0.48803
 C366 C 0.18414 0.04765 0.49067
 H367 H 0.16011 0.15532 0.50996
 H368 H 0.18619 0.11533 0.51377
 H369 H 0.16694 0.08992 0.44079
 H370 H 0.14085 0.12993 0.43697
 H371 H 0.09514 0.10855 0.49800
 H372 H 0.12114 0.06868 0.50181
 C373 C 0.63238 0.63245 0.01280
 C374 C 0.60671 0.61645 0.01812
 C375 C 0.58512 0.63051 0.01717
 C376 C 0.59124 0.65923 0.01098
 C377 C 0.60732 0.65804 -0.01472
 C378 C 0.62895 0.64396 -0.01376
 C379 C 0.63225 0.65603 0.03277
 C380 C 0.61058 0.67013 0.03181
 C381 C 0.65533 0.61679 0.01366
 C382 C 0.67344 0.60287 0.01403
 C383 C 0.56767 0.67392 0.00976
 C384 C 0.54775 0.68504 0.00834
 H385 H 0.60559 0.59586 0.02231
 H386 H 0.56552 0.62196 0.02054
 H387 H 0.60220 0.66748 -0.03211
 H388 H 0.64237 0.64136 -0.03033
 H389 H 0.64778 0.66120 0.04640
 H390 H 0.60756 0.68740 0.04461
 C391 C 0.86895 -0.13156 0.51331
 C392 C 0.85300 -0.12507 0.53839
 C393 C 0.83865 -0.10362 0.53701
 C394 C 0.84169 -0.09082 0.51067
 C395 C 0.83460 -0.11293 0.49009
 C396 C 0.84893 -0.13436 0.49147
 C397 C 0.88548 -0.10630 0.50820
 C398 C 0.87118 -0.08492 0.50682
 C399 C 0.88490 -0.15427 0.51455
 C400 C 0.89911 -0.17213 0.51504
 C401 C 0.82676 -0.06747 0.50894
 C402 C 0.81550 -0.04770 0.50698
 H403 H 0.85294 -0.13634 0.55566
 H404 H 0.82629 -0.09651 0.55309
 H405 H 0.81959 -0.11188 0.47574
 H406 H 0.84622 -0.15167 0.47832
 H407 H 0.90661 -0.10529 0.50587
 H408 H 0.88006 -0.06561 0.50331
 C409 C 0.36706 0.36881 0.99230
 C410 C 0.36488 0.34321 0.97509
 C411 C 0.38648 0.32893 0.97542
 C412 C 0.40807 0.34169 0.99293
 C413 C 0.39484 0.34619 1.01990
 C414 C 0.37329 0.36045 1.01957
 C415 C 0.39216 0.38345 0.98267
 C416 C 0.41369 0.36921 0.98300
 C417 C 0.34420 0.38468 0.99210
 C418 C 0.32621 0.39879 0.99229
 C419 C 0.43159 0.32682 0.99345
 C420 C 0.45152 0.31560 0.99420
 H421 H 0.34790 0.33686 0.96369
 H422 H 0.38801 0.31034 0.96430
 H423 H 0.40177 0.33879 1.03770
 H424 H 0.36175 0.36526 1.03708
 H425 H 0.39295 0.40328 0.97613
 H426 H 0.43292 0.37685 0.97675
 C427 C 0.88999 0.12845 0.48708
 C428 C 0.88110 0.11682 0.46028
 C429 C 0.86353 0.09583 0.46169
 C430 C 0.85659 0.08856 0.48976
 C431 C 0.84711 0.11379 0.50364
 C432 C 0.86469 0.13478 0.50223
 C433 C 0.90039 0.10540 0.50063
 C434 C 0.88286 0.08446 0.50203
 C435 C 0.90925 0.15075 0.48579
 C436 C 0.92579 0.16848 0.48517
 C437 C 0.83805 0.06572 0.49152
 C438 C 0.82359 0.04644 0.49348
 H439 H 0.88795 0.12443 0.44184
 H440 H 0.85532 0.08546 0.44446
 H441 H 0.82826 0.11507 0.51363
 H442 H 0.86089 0.15405 0.51101
 H443 H 0.91984 0.10551 0.50845
 H444 H 0.88731 0.06664 0.51104
 C445 C 0.36988 0.61071 -0.00627
 C446 C 0.37232 0.62638 0.02010
 C447 C 0.39354 0.64373 0.02127
 C448 C 0.41024 0.64371 -0.00404
 C449 C 0.39126 0.64883 -0.02553
 C450 C 0.37002 0.63146 -0.02670
 C451 C 0.39600 0.59779 -0.01062
 C452 C 0.41719 0.61512 -0.00945
 C453 C 0.34731 0.59170 -0.00744
 C454 C 0.32936 0.57537 -0.00827
 C455 C 0.43332 0.66207 -0.00267
 C456 C 0.45276 0.67649 -0.00128
 H457 H 0.35855 0.62410 0.03639
 H458 H 0.39795 0.65631 0.03856
 H459 H 0.39422 0.66469 -0.03864
 H460 H 0.35477 0.63245 -0.04080
 H461 H 0.39770 0.57685 -0.01433
 H462 H 0.43703 0.60901 -0.01214
 C463 C 0.11027 -0.12839 0.51538
 C464 C 0.12014 -0.12413 0.48735
 C465 C 0.13739 -0.10299 0.48542
 C466 C 0.14309 -0.08815 0.51172
 C467 C 0.15232 -0.10889 0.52925
 C468 C 0.13504 -0.13008 0.53118
 C469 C 0.09900 -0.10234 0.52504
 C470 C 0.11623 -0.08120 0.52311
 C471 C 0.09139 -0.15093 0.51725
 C472 C 0.07522 -0.16895 0.51836
 C473 C 0.16135 -0.06518 0.50941
 C474 C 0.17572 -0.04591 0.50700
 H475 H 0.11414 -0.13665 0.47048
 H476 H 0.14616 -0.09740 0.46691
 H477 H 0.17076 -0.10710 0.53925
 H478 H 0.13868 -0.14644 0.54284
 H479 H 0.07920 -0.10065 0.53275
 H480 H 0.11120 -0.06141 0.52917
 C481 C 0.62935 0.39035 1.00286
 C482 C 0.60336 0.40293 0.99944
 C483 C 0.58230 0.38544 0.99881
 C484 C 0.58923 0.35702 1.00166
 C485 C 0.60429 0.35772 1.02716
 C486 C 0.62540 0.37525 1.02779
 C487 C 0.63077 0.36912 0.98050
 C488 C 0.60967 0.35158 0.97988
 C489 C 0.65177 0.40954 1.00348
 C490 C 0.66961 0.42599 1.00389
 C491 C 0.56627 0.33850 1.00091
 C492 C 0.54686 0.32401 1.00011
 H493 H 0.60164 0.42379 0.99767
 H494 H 0.56255 0.39131 0.99649
 H495 H 0.59888 0.34551 1.04328
 H496 H 0.63809 0.37804 1.04443
 H497 H 0.64693 0.36794 0.96644
 H498 H 0.60775 0.33537 0.96528
 C499 C 0.50789 0.13163 1.13199
 C500 C 0.51326 0.11571 1.10630
 C501 C 0.51277 0.12993 1.08476
 C502 C 0.50695 0.15872 1.09094
 C503 C 0.52769 0.16923 1.11055
 C504 C 0.52818 0.15496 1.13216
 C505 C 0.48157 0.14353 1.12831
 C506 C 0.48108 0.15777 1.10673
 C507 C 0.50823 0.11578 1.15486
 C508 C 0.50812 0.10166 1.17287
 C509 C 0.50625 0.17358 1.06741
 C510 C 0.50533 0.18479 1.04748
 H511 H 0.51715 0.09504 1.10514
 H512 H 0.51624 0.12144 1.06516
 H513 H 0.54078 0.18635 1.10772
 H514 H 0.54169 0.15986 1.14786
 H515 H 0.46482 0.14104 1.14154
 H516 H 0.46391 0.16748 1.10147
 C517 C -0.01715 0.63101 0.63183
 C518 C -0.03503 0.60743 0.62235
 C519 C -0.03310 0.58586 0.63632
 C520 C -0.01349 0.58995 0.65844
 C521 C -0.02229 0.61399 0.67498
 C522 C -0.02422 0.63562 0.66097
 C523 C 0.01038 0.62080 0.63116
 C524 C 0.01231 0.59923 0.64513
 C525 C -0.01900 0.65395 0.61629
 C526 C -0.02004 0.67210 0.60249
 C527 C -0.01117 0.56646 0.67307
 C528 C -0.00873 0.54669 0.68420
 H529 H -0.04812 0.60768 0.60611
 H530 H -0.04453 0.56763 0.63205
 H531 H -0.02663 0.61402 0.69582
 H532 H -0.03020 0.65418 0.66980
 H533 H 0.02695 0.62975 0.62066
 H534 H 0.03052 0.58973 0.64660
 C535 C 0.48775 0.86801 -0.13150
 C536 C 0.51546 0.86095 -0.12526
 C537 C 0.51652 0.84696 -0.10358
 C538 C 0.48977 0.84139 -0.09024
 C539 C 0.47267 0.82770 -0.11169
 C540 C 0.47162 0.84172 -0.13342
 C541 C 0.47760 0.88237 -0.10649
 C542 C 0.47866 0.86840 -0.08482
 C543 C 0.48679 0.88356 -0.15453
 C544 C 0.48634 0.89736 -0.17274
 C545 C 0.49110 0.82677 -0.06661
 C546 C 0.49261 0.81569 -0.04666
 H547 H 0.53273 0.86640 -0.13689
 H548 H 0.53470 0.84043 -0.09663
 H549 H 0.46234 0.80872 -0.10997
 H550 H 0.46038 0.83474 -0.15033
 H551 H 0.47016 0.90182 -0.10585
 H552 H 0.47215 0.87589 -0.06564
 C553 C 1.01349 0.36850 0.36941
 C554 C 1.02182 0.39445 0.38423
 C555 C 1.02056 0.41580 0.36982
 C556 C 1.01111 0.40917 0.34197
 C557 C 0.98475 0.39375 0.34540
 C558 C 0.98600 0.37238 0.35982
 C559 C 1.03099 0.36756 0.34462
 C560 C 1.02974 0.38898 0.33016
 C561 C 1.01458 0.34582 0.38546
 C562 C 1.01494 0.32795 0.39971
 C563 C 1.00950 0.43249 0.32693
 C564 C 1.00764 0.45225 0.31562
 H565 H 1.02818 0.39594 0.40430
 H566 H 1.02586 0.43557 0.37755
 H567 H 0.96669 0.39912 0.33717
 H568 H 0.96902 0.35945 0.36395
 H569 H 1.04324 0.35151 0.33892
 H570 H 1.04092 0.39130 0.31208
 C571 C 0.50698 0.89052 0.13076
 C572 C 0.48702 0.86731 0.13416
 C573 C 0.48593 0.84980 0.11306
 C574 C 0.50490 0.85724 0.09065
 C575 C 0.53190 0.86055 0.10299
 C576 C 0.53300 0.87806 0.12409
 C577 C 0.49944 0.90250 0.10551
 C578 C 0.49835 0.88503 0.08446
 C579 C 0.50807 0.90969 0.15319
 C580 C 0.50884 0.92612 0.17104
 C581 C 0.50360 0.83875 0.06769
 C582 C 0.50226 0.82426 0.04831
 H583 H 0.47486 0.86482 0.15161
 H584 H 0.47283 0.83231 0.11243
 H585 H 0.54867 0.85004 0.09582
 H586 H 0.55070 0.88255 0.13500
 H587 H 0.49532 0.92295 0.10428
 H588 H 0.49330 0.89052 0.06519
 C589 C 0.01511 0.37076 0.61047
 C590 C 0.03863 0.37540 0.62838
 C591 C 0.03675 0.39647 0.64577
 C592 C 0.01153 0.41080 0.64350
 C593 C -0.01069 0.38962 0.64641
 C594 C -0.00881 0.36857 0.62904
 C595 C 0.01299 0.39679 0.59751
 C596 C 0.01111 0.41780 0.61485
 C597 C 0.01692 0.34836 0.59142
 C598 C 0.01800 0.33050 0.57508
 C599 C 0.00926 0.43369 0.66185
 C600 C 0.00687 0.45297 0.67620
 H601 H 0.05526 0.36320 0.62750
 H602 H 0.05176 0.40234 0.65979
 H603 H -0.02647 0.39100 0.66089
 H604 H -0.02299 0.35192 0.62863
 H605 H 0.01299 0.39856 0.57652
 H606 H 0.00952 0.43757 0.60872
 C607 C 0.49686 0.10973 0.86997
 C608 C 0.48676 0.09804 0.89546
 C609 C 0.48727 0.11562 0.91644
 C610 C 0.49784 0.14323 0.90992
 C611 C 0.48072 0.15086 0.88783
 C612 C 0.48021 0.13323 0.86680
 C613 C 0.52430 0.12178 0.87604
 C614 C 0.52482 0.13939 0.89704
 C615 C 0.49636 0.09045 0.84763
 C616 C 0.49604 0.07394 0.82986
 C617 C 0.49847 0.16183 0.93280
 C618 C 0.49919 0.17637 0.95217
 H619 H 0.47978 0.07770 0.89691
 H620 H 0.48074 0.11035 0.93585
 H621 H 0.46999 0.16854 0.88863
 H622 H 0.46903 0.13580 0.84957
 H623 H 0.54179 0.11694 0.86480
 H624 H 0.54274 0.14963 0.90380
 C625 C 0.98868 0.62821 0.39045
 C626 C 1.00786 0.60815 0.39780
 C627 C 1.00922 0.58728 0.38020
 C628 C 0.99127 0.58846 0.35692
 C629 C 0.99886 0.61489 0.34527
 C630 C 0.99750 0.63582 0.36292
 C631 C 0.96251 0.61241 0.38675
 C632 C 0.96387 0.59150 0.36912
 C633 C 0.98740 0.65044 0.40976
 C634 C 0.98673 0.66814 0.42630
 C635 C 0.99295 0.56570 0.33831
 C636 C 0.99480 0.54646 0.32379
 H637 H 1.01939 0.61016 0.41531
 H638 H 1.02191 0.57142 0.38264
 H639 H 1.00476 0.61699 0.32498
 H640 H 1.00224 0.65584 0.35775
 H641 H 0.94449 0.61723 0.39705
 H642 H 0.94702 0.57842 0.36431
 C643 C 1.12913 0.48987 0.11456
 C644 C 1.12929 0.47048 0.13628
 C645 C 1.10833 0.47181 0.15318
 C646 C 1.08931 0.49240 0.14666
 C647 C 1.08186 0.48535 0.11824
 C648 C 1.10277 0.48403 0.10139
 C649 C 1.12703 0.51688 0.12889
 C650 C 1.10610 0.51821 0.14576
 C651 C 1.15137 0.48861 0.09601
 C652 C 1.16901 0.48792 0.08000
 C653 C 1.06649 0.49403 0.16444
 C654 C 1.04718 0.49581 0.17822
 H655 H 1.14452 0.45695 0.13823
 H656 H 1.10559 0.45942 0.16962
 H657 H 1.06189 0.48170 0.11190
 H658 H 1.10070 0.47924 0.08061
 H659 H 1.14080 0.53349 0.12607
 H660 H 1.10194 0.53596 0.15740
 C661 C 0.61565 -0.01524 0.62888
 C662 C 0.63092 -0.03981 0.62247
 C663 C 0.64748 -0.03774 0.60131
 C664 C 0.64709 -0.01131 0.58867
 C665 C 0.65311 0.00946 0.61086
 C666 C 0.63657 0.00739 0.63200
 C667 C 0.60185 -0.01054 0.60357
 C668 C 0.61836 -0.00848 0.58246
 C669 C 0.59751 -0.01725 0.65138
 C670 C 0.58185 -0.01848 0.66930
 C671 C 0.66454 -0.00885 0.56569
 C672 C 0.67815 -0.00632 0.54636
 H673 H 0.62893 -0.05726 0.63358
 H674 H 0.65968 -0.05341 0.59429
 H675 H 0.66898 0.02444 0.61006
 H676 H 0.63827 0.02060 0.64931
 H677 H 0.58091 -0.00898 0.60233
 H678 H 0.61156 -0.00516 0.56315
 C679 C -0.12916 0.51437 0.88426
 C680 C -0.12199 0.53935 0.86983
 C681 C -0.10086 0.53725 0.85326
 C682 C -0.08901 0.51039 0.85277
 C683 C -0.11171 0.49040 0.84609
 C684 C -0.13283 0.49249 0.86265
 C685 C -0.10411 0.50845 0.89788
 C686 C -0.08303 0.50636 0.88135
 C687 C -0.15163 0.51644 0.90243
 C688 C -0.16951 0.51776 0.91810
 C689 C -0.06605 0.50792 0.83530
 C690 C -0.04674 0.50543 0.82167
 H691 H -0.13259 0.55709 0.87237
 H692 H -0.09334 0.55320 0.84160
 H693 H -0.11126 0.47591 0.82976
 H694 H -0.15047 0.47981 0.86051
 H695 H -0.10302 0.50611 0.91871
 H696 H -0.06389 0.50223 0.88803
 C697 C 0.38478 0.01054 0.37113
 C698 C 0.35749 -0.00146 0.36428
 C699 C 0.34068 -0.00283 0.38530
 C700 C 0.35282 0.00794 0.41107
 C701 C 0.36320 0.03598 0.40593
 C702 C 0.38001 0.03734 0.38492
 C703 C 0.39406 -0.00610 0.39259
 C704 C 0.37729 -0.00746 0.41355
 C705 C 0.40323 0.01184 0.34882
 C706 C 0.41918 0.01256 0.33112
 C707 C 0.33512 0.00626 0.43394
 C708 C 0.32137 0.00444 0.45327
 H709 H 0.35188 -0.00824 0.34466
 H710 H 0.32064 -0.01078 0.38370
 H711 H 0.35779 0.05323 0.41770
 H712 H 0.38899 0.05577 0.37870
 H713 H 0.41224 -0.01597 0.39141
 H714 H 0.38111 -0.01851 0.43033
 C715 C 0.12966 0.48115 0.87319
 C716 C 0.10357 0.47818 0.88839
 C717 C 0.08233 0.48000 0.87345
 C718 C 0.08920 0.48463 0.84472
 C719 C 0.10629 0.46209 0.83547
 C720 C 0.12759 0.46025 0.85046
 C721 C 0.12907 0.50747 0.86042
 C722 C 0.10780 0.50930 0.84546
 C723 C 0.15227 0.47944 0.88974
 C724 C 0.17021 0.47860 0.90429
 C725 C 0.06605 0.48690 0.82907
 C726 C 0.04653 0.48936 0.81712
 H727 H 0.10191 0.47489 0.90910
 H728 H 0.06249 0.47827 0.88137
 H729 H 0.10205 0.44879 0.81864
 H730 H 0.14161 0.44536 0.84649
 H731 H 0.14407 0.52326 0.86286
 H732 H 0.10459 0.52666 0.83509
 C733 C 0.62660 0.01895 0.37007
 C734 C 0.62722 -0.00911 0.37896
 C735 C 0.64213 -0.01105 0.40021
 C736 C 0.65498 0.01525 0.41055
 C737 C 0.63234 0.03331 0.41558
 C738 C 0.61743 0.03525 0.39432
 C739 C 0.65538 0.02809 0.36571
 C740 C 0.67033 0.02614 0.38703
 C741 C 0.61010 0.02076 0.34743
 C742 C 0.59564 0.02168 0.32943
 C743 C 0.67061 0.01285 0.43369
 C744 C 0.68256 0.01025 0.45318
 H745 H 0.61689 -0.02600 0.36936
 H746 H 0.64456 -0.02960 0.40882
 H747 H 0.62841 0.04372 0.43421
 H748 H 0.60072 0.04732 0.39473
 H749 H 0.66329 0.03544 0.34753
 H750 H 0.69106 0.03184 0.38712
 C751 C 0.87027 0.51480 0.12600
 C752 C 0.88511 0.54141 0.13162
 C753 C 0.90633 0.54008 0.14680
 C754 C 0.91061 0.51227 0.15485
 C755 C 0.91201 0.49551 0.12910
 C756 C 0.89084 0.49684 0.11396
 C757 C 0.86353 0.50438 0.15298
 C758 C 0.88477 0.50305 0.16817
 C759 C 0.84778 0.51598 0.10918
 C760 C 0.83002 0.51640 0.09434
 C761 C 0.93372 0.51059 0.17071
 C762 C 0.95328 0.50865 0.18277
 H763 H 0.87943 0.55968 0.12437
 H764 H 0.91882 0.55721 0.15255
 H765 H 0.92823 0.48361 0.12326
 H766 H 0.88894 0.48605 0.09516
 H767 H 0.84385 0.49860 0.15957
 H768 H 0.88328 0.49612 0.18778
 C769 C 0.37373 -0.01557 0.62988
 C770 C 0.38903 -0.00728 0.60530
 C771 C 0.37383 -0.00585 0.58419
 C772 C 0.34477 -0.01285 0.58965
 C773 C 0.33718 0.00559 0.61297
 C774 C 0.35242 0.00416 0.63414
 C775 C 0.35911 -0.04169 0.62162
 C776 C 0.34386 -0.04026 0.60044
 C777 C 0.39061 -0.01682 0.65233
 C778 C 0.40550 -0.01723 0.67004
 C779 C 0.32885 -0.01103 0.56660
 C780 C 0.31677 -0.00894 0.54708
 H781 H 0.41000 -0.00290 0.60453
 H782 H 0.38180 -0.00027 0.56535
 H783 H 0.32123 0.01858 0.61289
 H784 H 0.34952 0.01592 0.65219
 H785 H 0.36056 -0.05968 0.63153
 H786 H 0.33225 -0.05702 0.59221
   
