data_POSCAR
  _audit_creation_date              2014-09-24
  _audit_creation_method            'ToBaCCo'
  _symmetry_space_group_name_H-M    'P1'
  _symmetry_Int_Tables_number       1
  _symmetry_cell_setting            triclinic
  loop_
  _symmetry_equiv_pos_as_xyz
 x,y,z
_cell_length_a 13.0463
_cell_length_b 13.0185
_cell_length_c 22.3939
_cell_angle_alpha 91.100600
_cell_angle_beta 90.357300
_cell_angle_gamma 89.641000
loop_
  _atom_site_label
  _atom_site_type_symbol
  _atom_site_fract_x
  _atom_site_fract_y
  _atom_site_fract_z
O1 O -0.08654 0.59582 0.93977
 O2 O -0.08761 0.40353 1.05838
 O3 O -0.08942 0.60531 1.05556
 O4 O -0.08670 0.39554 0.94303
 O5 O 0.08281 0.39708 0.94346
 O6 O 0.07975 0.60240 1.05885
 O7 O 0.08132 0.40271 1.05940
 O8 O 0.08249 0.59706 0.94241
 Cu9 Cu -0.10458 0.50028 0.99914
 Cu10 Cu 0.09855 0.49999 1.00119
 C11 C -0.00174 0.62990 0.92110
 C12 C -0.00320 0.36868 1.07857
 C13 C -0.00533 0.63975 1.07635
 C14 C -0.00150 0.36057 0.92441
 O15 O 0.40266 -0.08012 0.43900
 O16 O 0.60645 -0.08847 0.55378
 O17 O 0.40452 -0.09191 0.55454
 O18 O 0.60148 -0.08074 0.43819
 O19 O 0.59909 0.08857 0.44443
 O20 O 0.40525 0.07732 0.56312
 O21 O 0.60391 0.08063 0.56038
 O22 O 0.39837 0.08934 0.44775
 Cu23 Cu 0.50402 -0.10237 0.49591
 Cu24 Cu 0.50158 0.10096 0.50449
 C25 C 0.36531 0.00623 0.42453
 C26 C 0.64110 -0.00507 0.57630
 C27 C 0.37064 -0.00925 0.57838
 C28 C 0.63421 0.00562 0.42143
 Si29 Si -0.00003 0.01144 0.25020
 Si30 Si 0.00368 -0.00841 0.74928
 C31 C -0.08557 -0.20119 0.11983
 C32 C -0.00622 -0.27453 0.12038
 C33 C 0.07369 -0.26354 0.16225
 C34 C 0.07468 -0.18015 0.20252
 C35 C -0.00231 -0.10463 0.20020
 C36 C -0.08305 -0.11646 0.15907
 H37 H -0.14807 -0.20793 0.08796
 H38 H 0.13497 -0.31993 0.16412
 H39 H 0.13581 -0.17545 0.23511
 H40 H -0.14411 -0.05994 0.15710
 C41 C 0.08992 0.25401 0.14537
 C42 C -0.00301 0.29070 0.12115
 C43 C -0.09517 0.24471 0.13891
 C44 C -0.09386 0.16248 0.17816
 C45 C -0.00095 0.12573 0.20143
 C46 C 0.09071 0.17278 0.18522
 H47 H 0.16258 0.28728 0.13319
 H48 H -0.16837 0.27029 0.12138
 H49 H -0.16564 0.12694 0.18978
 H50 H 0.16347 0.14629 0.20237
 C51 C 0.21699 -0.09387 0.62128
 C52 C 0.28807 -0.01328 0.62299
 C53 C 0.27660 0.06590 0.66591
 C54 C 0.19432 0.06562 0.70557
 C55 C 0.12035 -0.01198 0.70167
 C56 C 0.13338 -0.09273 0.66004
 H57 H 0.22411 -0.15591 0.58861
 H58 H 0.33126 0.12811 0.66873
 H59 H 0.18877 0.12677 0.73862
 H60 H 0.07825 -0.15437 0.65691
 C61 C -0.22757 -0.09944 0.63207
 C62 C -0.27822 -0.00691 0.61820
 C63 C -0.24439 0.08476 0.64618
 C64 C -0.16207 0.08406 0.68628
 C65 C -0.11032 -0.00769 0.69867
 C66 C -0.14382 -0.09944 0.67140
 H67 H -0.25098 -0.17170 0.61162
 H68 H -0.28140 0.15762 0.63720
 H69 H -0.13884 0.15591 0.70679
 H70 H -0.10527 -0.17139 0.68049
 C71 C -0.09321 -0.24397 0.85615
 C72 C -0.00104 -0.28965 0.87529
 C73 C 0.09214 -0.25413 0.85238
 C74 C 0.09321 -0.17290 0.81250
 C75 C 0.00129 -0.12620 0.79472
 C76 C -0.09192 -0.16250 0.81646
 H77 H -0.16621 -0.26915 0.87315
 H78 H 0.16446 -0.28754 0.86628
 H79 H 0.16609 -0.14478 0.79699
 H80 H -0.16356 -0.12599 0.80410
 C81 C 0.01470 0.28901 0.82098
 C82 C -0.00055 0.27377 0.88200
 C83 C -0.01488 0.17434 0.90290
 C84 C -0.01307 0.09040 0.86322
 C85 C 0.00176 0.10486 0.80190
 C86 C 0.01500 0.20500 0.78106
 H87 H 0.02576 0.36571 0.80434
 H88 H -0.02667 0.16173 0.95005
 H89 H -0.02367 0.01460 0.88092
 H90 H 0.02656 0.21820 0.73401
 C91 C -0.24836 -0.08257 0.34860
 C92 C -0.28419 0.00888 0.37590
 C93 C -0.23761 0.10226 0.36149
 C94 C -0.15497 0.10353 0.32206
 C95 C -0.11833 0.01177 0.29604
 C96 C -0.16603 -0.08108 0.30913
 H97 H -0.28242 -0.15579 0.35876
 H98 H -0.26309 0.17393 0.38194
 H99 H -0.11791 0.17578 0.31313
 H100 H -0.13795 -0.15301 0.29030
 C101 C 0.18044 0.02756 0.40343
 C102 C 0.27968 0.00986 0.38214
 C103 C 0.29566 -0.00541 0.32082
 C104 C 0.21256 -0.00268 0.28105
 C105 C 0.11248 0.01285 0.30235
 C106 C 0.09733 0.02817 0.36392
 H107 H 0.16720 0.03930 0.45081
 H108 H 0.37222 -0.01906 0.30385
 H109 H 0.22636 -0.01468 0.23381
 H110 H 0.02159 0.04051 0.38200
   
