data_POSCAR
  _audit_creation_date              2014-09-24
  _audit_creation_method            'ToBaCCo'
  _symmetry_space_group_name_H-M    'P1'
  _symmetry_Int_Tables_number       1
  _symmetry_cell_setting            triclinic
  loop_
  _symmetry_equiv_pos_as_xyz
 x,y,z
_cell_length_a 29.5290
_cell_length_b 29.6521
_cell_length_c 27.5729
_cell_angle_alpha 113.977400
_cell_angle_beta 68.267500
_cell_angle_gamma 77.828700
loop_
  _atom_site_label
  _atom_site_type_symbol
  _atom_site_fract_x
  _atom_site_fract_y
  _atom_site_fract_z
O1 O 0.54797 0.50780 0.04438
 O2 O 0.41129 0.55129 0.06578
 O3 O 0.47341 0.47163 0.06335
 O4 O 0.48649 0.58765 0.05043
 O5 O 0.52039 0.53777 -0.05036
 O6 O 0.50599 0.42192 -0.03713
 O7 O 0.44605 0.50050 -0.03474
 O8 O 0.58204 0.45666 -0.05613
 Cu9 Cu 0.47595 0.53462 0.06614
 Cu10 Cu 0.51708 0.47425 -0.05459
 C11 C 0.58851 0.47550 -0.00995
 C12 C 0.40511 0.53261 0.01925
 C13 C 0.48675 0.42735 0.01546
 C14 C 0.50716 0.58189 -0.00223
 O15 O -0.00716 0.56349 0.50806
 O16 O -0.01697 0.43971 0.50354
 O17 O 0.01022 0.51288 0.56340
 O18 O -0.03633 0.49224 0.45227
 O19 O 0.04818 0.44129 0.37533
 O20 O 0.09418 0.46165 0.48615
 O21 O 0.06695 0.39017 0.42514
 O22 O 0.07702 0.51285 0.43149
 Cu23 Cu -0.02090 0.50736 0.51510
 Cu24 Cu 0.08036 0.44697 0.42235
 C25 C 0.03647 0.55886 0.46893
 C26 C 0.02301 0.39370 0.46192
 C27 C 0.06012 0.48999 0.54369
 C28 C -0.00183 0.46265 0.39489
 O29 O 0.45142 0.02693 0.62161
 O30 O 0.44309 0.09238 0.53428
 O31 O 0.38440 0.05304 0.58800
 O32 O 0.50729 0.06865 0.57240
 O33 O 0.55644 -0.01154 0.48488
 O34 O 0.43221 -0.02768 0.50086
 O35 O 0.49004 0.01120 0.44771
 O36 O 0.50123 -0.05324 0.53431
 Cu37 Cu 0.44139 0.06846 0.58771
 Cu38 Cu 0.49963 -0.02843 0.48306
 C39 C 0.47905 -0.02431 0.59267
 C40 C 0.46547 0.06262 0.47597
 C41 C 0.38719 0.01012 0.54760
 C42 C 0.55289 0.03114 0.52688
 C43 C 0.51834 -0.07745 -0.10598
 C44 C 0.52208 -0.11922 -0.09381
 C45 C 0.52252 -0.11284 -0.04080
 C46 C 0.51545 -0.06171 0.00383
 C47 C 0.51103 -0.01879 -0.00733
 C48 C 0.51549 -0.02770 -0.06380
 C49 C 0.51873 0.01283 -0.07727
 C50 C 0.51019 0.06350 -0.03317
 C51 C 0.49860 0.07569 0.02614
 C52 C 0.50234 0.03320 0.03796
 C53 C 0.51270 -0.05223 0.05930
 C54 C 0.50600 -0.00203 0.10257
 C55 C 0.49795 0.04235 0.09451
 C56 C 0.48686 0.09517 0.14047
 C57 C 0.48018 0.13745 0.12902
 C58 C 0.48512 0.12877 0.07307
 H59 H 0.52840 0.00580 -0.12229
 H60 H 0.51326 0.09290 -0.04644
 H61 H 0.51540 -0.08338 0.07034
 H62 H 0.50731 0.00102 0.14232
 H63 H 0.52541 -0.15768 -0.12654
 H64 H 0.46972 0.17815 0.16487
 C65 C 0.07209 0.52304 0.89682
 C66 C 0.10547 0.53434 0.92086
 C67 C 0.09951 0.53278 0.97287
 C68 C 0.05921 0.51824 1.00130
 C69 C 0.02320 0.50926 0.97955
 C70 C 0.02955 0.51167 0.92718
 C71 C -0.00560 0.50059 0.90550
 C72 C -0.04747 0.49014 0.93603
 C73 C -0.05392 0.48639 0.98709
 C74 C -0.01791 0.49556 1.00873
 C75 C 0.05555 0.50990 1.04901
 C76 C 0.01613 0.49560 1.07667
 C77 C -0.02184 0.48943 1.05830
 C78 C -0.06218 0.47498 1.08647
 C79 C -0.09836 0.46777 1.06596
 C80 C -0.09492 0.47308 1.01670
 H81 H -0.00150 0.49955 0.86453
 H82 H -0.07417 0.48409 0.91825
 H83 H 0.08406 0.51287 1.06457
 H84 H 0.01632 0.48893 1.11233
 H85 H 0.13716 0.54405 0.89812
 H86 H -0.12862 0.45602 1.08742
 C87 C -0.03515 -0.10323 0.48816
 C88 C -0.08298 -0.08484 0.48821
 C89 C -0.10130 -0.03585 0.49069
 C90 C -0.06859 -0.00726 0.48742
 C91 C -0.02326 -0.02257 0.49345
 C92 C -0.00772 -0.06947 0.49635
 C93 C 0.03453 -0.08121 0.50785
 C94 C 0.06175 -0.04822 0.51473
 C95 C 0.04848 -0.00295 0.50904
 C96 C 0.00642 0.00927 0.49691
 C97 C -0.08016 0.03631 0.47849
 C98 C -0.04920 0.06577 0.47844
 C99 C -0.00607 0.05327 0.48831
 C100 C 0.02481 0.08375 0.49014
 C101 C 0.06486 0.07258 0.50447
 C102 C 0.07638 0.03031 0.51481
 H103 H 0.04615 -0.11533 0.51309
 H104 H 0.09386 -0.05905 0.52366
 H105 H -0.11282 0.04746 0.47047
 H106 H -0.06013 0.09916 0.47188
 H107 H -0.10622 -0.10870 0.48668
 H108 H 0.08778 0.09680 0.50702
 C109 C -0.29420 0.48104 1.01434
 C110 C -0.25158 0.43822 0.95776
 C111 C -0.25853 0.40518 0.91067
 C112 C -0.31145 0.41711 0.92213
 C113 C -0.35621 0.46119 0.98009
 C114 C -0.34715 0.49326 1.02695
 O115 O -0.27895 0.50810 1.05238
 C116 C -0.22556 0.48180 1.01915
 C117 C -0.20669 0.43863 0.96093
 C118 C -0.15198 0.40554 0.91858
 C119 C -0.11533 0.41740 0.93706
 C120 C -0.13379 0.46222 0.99653
 C121 C -0.18981 0.49450 1.03825
 H122 H -0.22440 0.37182 0.86639
 H123 H -0.31749 0.39223 0.88566
 H124 H -0.38021 0.52766 1.07136
 H125 H -0.13805 0.37158 0.87314
 H126 H -0.07261 0.39169 0.90535
 H127 H -0.20497 0.52842 1.08422
 C128 C 0.29367 0.53053 0.98679
 C129 C 0.24965 0.56891 1.04448
 C130 C 0.25442 0.59733 1.09542
 C131 C 0.30659 0.58541 1.08667
 C132 C 0.35301 0.54616 1.02735
 C133 C 0.34585 0.51894 0.97669
 O134 O 0.28061 0.50623 0.94505
 C135 C 0.22711 0.52987 0.97698
 C136 C 0.20606 0.56884 1.03796
 C137 C 0.15083 0.59845 1.07957
 C138 C 0.11604 0.58708 1.05754
 C139 C 0.13677 0.54568 0.99533
 C140 C 0.19328 0.51736 0.95438
 H141 H 0.21918 0.62695 1.14061
 H142 H 0.31060 0.60675 1.12628
 H143 H 0.37978 0.48814 0.93087
 H144 H 0.13508 0.62922 1.12727
 H145 H 0.07293 0.60994 1.08899
 H146 H 0.21033 0.48585 0.90658
 C147 C -0.00201 -0.30252 0.49409
 C148 C 0.04483 -0.31074 0.44811
 C149 C 0.09073 -0.35969 0.41015
 C150 C 0.08805 -0.40252 0.41904
 C151 C 0.03971 -0.39603 0.46509
 C152 C -0.00572 -0.34460 0.50384
 O153 O -0.04116 -0.25295 0.52432
 C154 C -0.01848 -0.22957 0.49650
 C155 C 0.03405 -0.26344 0.44937
 C156 C 0.06508 -0.24827 0.41258
 C157 C 0.04122 -0.19567 0.42539
 C158 C -0.01232 -0.15918 0.47497
 C159 C -0.04293 -0.17669 0.51050
 H160 H 0.12712 -0.36502 0.37430
 H161 H 0.12347 -0.44113 0.38879
 H162 H -0.04338 -0.33783 0.53928
 H163 H 0.10606 -0.27601 0.37516
 H164 H 0.06451 -0.18297 0.39711
 H165 H -0.08407 -0.14985 0.54806
 C166 C 0.00206 0.28477 0.49209
 C167 C 0.01968 0.24343 0.43321
 C168 C 0.03711 0.24938 0.38289
 C169 C 0.03691 0.29983 0.39356
 C170 C 0.01872 0.34308 0.45380
 C171 C 0.00020 0.33583 0.50402
 O172 O -0.00846 0.26914 0.53228
 C173 C 0.00269 0.21694 0.49804
 C174 C 0.01967 0.19935 0.43718
 C175 C 0.03604 0.14551 0.39252
 C176 C 0.03541 0.10810 0.41124
 C177 C 0.01901 0.12509 0.47340
 C178 C 0.00206 0.18031 0.51753
 H179 H 0.05180 0.21593 0.33683
 H180 H 0.05140 0.30520 0.35489
 H181 H -0.01252 0.36791 0.55007
 H182 H 0.04998 0.13255 0.34476
 H183 H 0.04924 0.06561 0.37719
 H184 H -0.00959 0.19379 0.56497
 C185 C 0.47173 -0.04195 -0.27929
 C186 C 0.51168 -0.09386 -0.31219
 C187 C 0.53925 -0.12608 -0.37625
 C188 C 0.52591 -0.10348 -0.40774
 C189 C 0.48683 -0.04874 -0.37504
 C190 C 0.45871 -0.01815 -0.30956
 O191 O 0.45166 -0.01746 -0.21885
 C192 C 0.48012 -0.05438 -0.21353
 C193 C 0.51783 -0.10165 -0.26927
 C194 C 0.55547 -0.14337 -0.27464
 C195 C 0.55484 -0.13547 -0.22051
 C196 C 0.51649 -0.08681 -0.16247
 C197 C 0.47721 -0.04684 -0.15903
 H198 H 0.57065 -0.16680 -0.40119
 H199 H 0.54804 -0.12795 -0.45772
 H200 H 0.42869 0.02360 -0.28272
 H201 H 0.58560 -0.17971 -0.31915
 H202 H 0.58517 -0.16647 -0.22403
 H203 H 0.44699 -0.00957 -0.11544
 C204 C 0.44603 0.09300 0.36369
 C205 C 0.47845 0.11972 0.35594
 C206 C 0.50370 0.13296 0.39010
 C207 C 0.49603 0.11709 0.43308
 C208 C 0.46476 0.08748 0.43971
 C209 C 0.43888 0.07585 0.40515
 O210 O 0.42815 0.08164 0.32450
 C211 C 0.45037 0.10081 0.29061
 C212 C 0.48200 0.12399 0.30747
 C213 C 0.51371 0.14107 0.27373
 C214 C 0.51386 0.13260 0.21968
 C215 C 0.48221 0.10799 0.20080
 C216 C 0.44796 0.09449 0.23879
 H217 H 0.52959 0.15335 0.38268
 H218 H 0.51664 0.12526 0.45879
 H219 H 0.41583 0.05216 0.40857
 H220 H 0.53925 0.15807 0.28701
 H221 H 0.54002 0.14345 0.19134
 H222 H 0.42278 0.07633 0.22614
 C223 C 0.50421 -0.29940 -0.02270
 C224 C 0.54724 -0.29343 -0.01679
 C225 C 0.57792 -0.32641 -0.00592
 C226 C 0.56372 -0.36725 -0.00096
 C227 C 0.52016 -0.37475 -0.00782
 C228 C 0.49000 -0.34055 -0.01907
 O229 O 0.47950 -0.26263 -0.03103
 C230 C 0.50767 -0.23305 -0.03061
 C231 C 0.54977 -0.25052 -0.02250
 C232 C 0.58490 -0.22590 -0.02138
 C233 C 0.57601 -0.18112 -0.02839
 C234 C 0.53170 -0.16094 -0.03450
 C235 C 0.49759 -0.18798 -0.03665
 H236 H 0.61124 -0.32058 -0.00084
 H237 H 0.58676 -0.39333 0.00788
 H238 H 0.45626 -0.34537 -0.02386
 H239 H 0.61809 -0.24079 -0.01560
 H240 H 0.60322 -0.16167 -0.02842
 H241 H 0.46398 -0.17392 -0.04222
 C242 C 0.49001 0.31640 0.05019
 C243 C 0.45459 0.30072 0.03392
 C244 C 0.42977 0.32378 0.01027
 C245 C 0.44171 0.36493 0.00341
 C246 C 0.47694 0.38277 0.02131
 C247 C 0.50128 0.35842 0.04535
 O248 O 0.51128 0.28718 0.06863
 C249 C 0.48854 0.25257 0.06421
 C250 C 0.45305 0.25971 0.04393
 C251 C 0.42448 0.22825 0.03626
 C252 C 0.43370 0.18691 0.04871
 C253 C 0.47240 0.17645 0.06624
 C254 C 0.49916 0.21083 0.07571
 H255 H 0.40270 0.31016 -0.00307
 H256 H 0.42294 0.38357 -0.01494
 H257 H 0.52874 0.37113 0.05871
 H258 H 0.39631 0.23507 0.02091
 H259 H 0.41194 0.16182 0.04292
 H260 H 0.52849 0.20415 0.08964
 C261 C -0.30321 -0.00336 0.48896
 C262 C -0.30969 0.04477 0.53421
 C263 C -0.35857 0.09064 0.57496
 C264 C -0.40315 0.08642 0.56997
 C265 C -0.39816 0.03672 0.52502
 C266 C -0.34704 -0.00847 0.48299
 O267 O -0.25371 -0.04270 0.45696
 C268 C -0.22865 -0.01886 0.48297
 C269 C -0.26136 0.03458 0.53063
 C270 C -0.24488 0.06635 0.56716
 C271 C -0.19217 0.04226 0.55356
 C272 C -0.15681 -0.01221 0.50331
 C273 C -0.17560 -0.04347 0.46793
 H274 H -0.36256 0.12789 0.61038
 H275 H -0.44185 0.12142 0.60249
 H276 H -0.34203 -0.04717 0.44883
 H277 H -0.27194 0.10782 0.60549
 H278 H -0.17876 0.06595 0.58224
 H279 H -0.14990 -0.08548 0.43032
 C280 C 0.27747 -0.00720 0.51561
 C281 C 0.23692 0.01110 0.57377
 C282 C 0.24410 0.02654 0.62424
 C283 C 0.29489 0.02396 0.61452
 C284 C 0.33706 0.00544 0.55504
 C285 C 0.32862 -0.01150 0.50462
 O286 O 0.26096 -0.01460 0.47550
 C287 C 0.20891 -0.00063 0.50900
 C288 C 0.19221 0.01505 0.56936
 C289 C 0.13863 0.03444 0.61342
 C290 C 0.10071 0.03802 0.59448
 C291 C 0.11712 0.02278 0.53278
 C292 C 0.17189 0.00293 0.48936
 H293 H 0.21126 0.04208 0.66984
 H294 H 0.30112 0.03758 0.65343
 H295 H 0.35971 -0.02387 0.45935
 H296 H 0.12637 0.04731 0.66083
 H297 H 0.05854 0.05371 0.62784
 H298 H 0.18489 -0.00800 0.44230
 C299 C -0.05536 0.48313 1.29790
 C300 C -0.04061 0.42980 1.25504
 C301 C -0.01543 0.38601 1.25728
 C302 C -0.00444 0.39763 1.30522
 C303 C -0.01933 0.45219 1.34980
 C304 C -0.04604 0.49565 1.34687
 O305 O -0.07307 0.51803 1.28350
 C306 C -0.06936 0.48610 1.23042
 C307 C -0.05007 0.43178 1.21124
 C308 C -0.03856 0.39069 1.15441
 C309 C -0.04591 0.40606 1.11508
 C310 C -0.06384 0.46148 1.13294
 C311 C -0.07733 0.50228 1.19216
 H312 H -0.00276 0.34433 1.22203
 H313 H 0.01667 0.36425 1.30704
 H314 H -0.05594 0.53744 1.37927
 H315 H -0.02243 0.34818 1.13987
 H316 H -0.03512 0.37471 1.06952
 H317 H -0.08985 0.54468 1.20598
 C318 C 0.06006 0.52881 0.69237
 C319 C 0.11153 0.49345 0.66971
 C320 C 0.14880 0.45862 0.60691
 C321 C 0.13215 0.45965 0.56573
 C322 C 0.07869 0.49446 0.58779
 C323 C 0.04249 0.53019 0.65223
 O324 O 0.02997 0.55603 0.75349
 C325 C 0.06297 0.53701 0.76969
 C326 C 0.11327 0.49841 0.72009
 C327 C 0.15243 0.46932 0.72584
 C328 C 0.13867 0.47936 0.78485
 C329 C 0.08668 0.51808 0.83659
 C330 C 0.04916 0.54907 0.82916
 H331 H 0.18885 0.43064 0.59020
 H332 H 0.16035 0.43182 0.51670
 H333 H 0.00127 0.55676 0.67068
 H334 H 0.19136 0.43837 0.68597
 H335 H 0.16777 0.45558 0.79003
 H336 H 0.00929 0.57904 0.86789
   
