data_POSCAR
  _audit_creation_date              2014-09-24
  _audit_creation_method            'ToBaCCo'
  _symmetry_space_group_name_H-M    'P1'
  _symmetry_Int_Tables_number       1
  _symmetry_cell_setting            triclinic
  loop_
  _symmetry_equiv_pos_as_xyz
 x,y,z
_cell_length_a 25.0732
_cell_length_b 25.5462
_cell_length_c 39.4592
_cell_angle_alpha 80.316600
_cell_angle_beta 103.414700
_cell_angle_gamma 85.705800
loop_
  _atom_site_label
  _atom_site_type_symbol
  _atom_site_fract_x
  _atom_site_fract_y
  _atom_site_fract_z
O1 O 0.01680 0.53077 1.04041
 O2 O 0.04514 0.44280 0.98017
 O3 O 0.04608 0.54555 0.98091
 O4 O 0.01616 0.42991 1.03990
 O5 O -0.07168 0.44470 1.01046
 O6 O -0.04163 0.56060 0.95142
 O7 O -0.04260 0.45764 0.95067
 O8 O -0.07104 0.54575 1.01095
 Cu9 Cu 0.03999 0.48578 1.01305
 Cu10 Cu -0.06546 0.50369 0.97764
 C11 C -0.03200 0.55288 1.03609
 C12 C 0.00591 0.43441 0.95560
 C13 C 0.00715 0.57358 0.95663
 C14 C -0.03291 0.41797 1.03545
 O15 O 0.57751 -0.02229 0.53953
 O16 O 0.44980 -0.03952 0.47635
 O17 O 0.55372 -0.03867 0.47480
 O18 O 0.47505 -0.02330 0.54115
 O19 O 0.45984 0.06399 0.52112
 O20 O 0.53886 0.04857 0.45465
 O21 O 0.43463 0.04771 0.45619
 O22 O 0.56255 0.06497 0.51951
 Cu23 Cu 0.51544 -0.03974 0.50977
 Cu24 Cu 0.49735 0.06505 0.48564
 C25 C 0.59168 0.02427 0.54046
 C26 C 0.42007 0.00119 0.45587
 C27 C 0.56046 0.00236 0.45381
 C28 C 0.45441 0.02294 0.54261
 C29 C -0.08683 -0.10592 0.21753
 C30 C -0.12837 -0.10459 0.24034
 C31 C -0.12548 -0.06357 0.25853
 C32 C -0.08060 -0.02759 0.25232
 C33 C -0.09731 -0.05020 0.19377
 C34 C -0.09360 -0.00920 0.21183
 C35 C -0.03042 -0.10696 0.24318
 C36 C -0.02685 -0.06602 0.26138
 H37 H -0.15801 -0.13318 0.24139
 H38 H -0.07803 0.00583 0.26710
 H39 H -0.10393 -0.04379 0.16520
 H40 H 0.00414 -0.13667 0.24567
 C41 C 0.14656 0.04586 0.74480
 C42 C 0.14685 -0.00661 0.77041
 C43 C 0.10321 -0.00746 0.78553
 C44 C 0.06351 0.04488 0.77403
 C45 C 0.09010 0.05370 0.71822
 C46 C 0.04653 0.05303 0.73331
 C47 C 0.14370 0.08947 0.76673
 C48 C 0.10018 0.08938 0.78198
 H49 H 0.17740 -0.04094 0.77484
 H50 H 0.02808 0.04456 0.78646
 H51 H 0.08543 0.05735 0.68989
 H52 H 0.17309 0.11844 0.76928
 N53 N -0.10464 -0.35522 0.07758
 C54 C -0.06325 -0.34695 0.10437
 N55 N -0.01177 -0.37195 0.10890
 N56 N -0.00195 -0.40434 0.08732
 C57 C -0.04325 -0.41259 0.06039
 N58 N -0.09483 -0.38764 0.05599
 C59 C -0.07273 -0.30907 0.12594
 C60 C -0.07947 -0.27551 0.14312
 C61 C -0.08585 -0.23332 0.16215
 N62 N -0.07473 -0.24325 0.19811
 N63 N -0.07655 -0.20305 0.21560
 C64 C -0.08928 -0.15160 0.19770
 N65 N -0.10096 -0.14210 0.16168
 N66 N -0.09923 -0.18220 0.14423
 N67 N -0.10713 0.31627 0.07654
 C68 C -0.06603 0.28734 0.10325
 N69 N -0.01421 0.30156 0.10779
 N70 N -0.00378 0.34354 0.08634
 C71 C -0.04479 0.37252 0.05950
 N72 N -0.09672 0.35829 0.05508
 C73 C -0.07618 0.23974 0.12459
 C74 C -0.08356 0.19824 0.14147
 C75 C -0.09084 0.14697 0.15988
 N76 N -0.10740 0.10876 0.14115
 N77 N -0.10978 0.05953 0.15781
 C78 C -0.09565 0.04665 0.19382
 N79 N -0.07968 0.08523 0.21258
 N80 N -0.07720 0.13459 0.19587
 N81 N 0.37223 0.08253 0.59571
 C82 C 0.36636 0.03888 0.61878
 N83 N 0.38956 -0.00985 0.61687
 N84 N 0.41789 -0.01482 0.59269
 C85 C 0.42380 0.02876 0.56950
 N86 N 0.40060 0.07757 0.57150
 C87 C 0.33361 0.04358 0.64370
 C88 C 0.30480 0.04630 0.66405
 C89 C 0.26869 0.04804 0.68727
 N90 N 0.26681 0.00390 0.71122
 N91 N 0.22960 0.00367 0.73045
 C92 C 0.19291 0.04757 0.72639
 N93 N 0.19544 0.09195 0.70266
 N94 N 0.23264 0.09217 0.68342
 N95 N -0.28197 -0.00672 0.60978
 C96 C -0.26564 0.04246 0.61095
 N97 N -0.29721 0.08569 0.58868
 N98 N -0.34381 0.07988 0.56594
 C99 C -0.36024 0.03060 0.56460
 N100 N -0.32852 -0.01255 0.58706
 C101 C -0.21391 0.04816 0.63399
 C102 C -0.16940 0.05195 0.65253
 C103 C -0.11513 0.05523 0.67336
 N104 N -0.07349 0.06306 0.65721
 N105 N -0.02230 0.06329 0.67633
 C106 C -0.01084 0.05566 0.71230
 N107 N -0.05277 0.04819 0.72843
 N108 N -0.10409 0.04790 0.70927
 N109 N 0.07926 -0.31933 0.92406
 C110 C 0.03787 -0.28750 0.89912
 N111 N -0.01358 -0.30284 0.89274
 N112 N -0.02342 -0.34840 0.91099
 C113 C 0.01788 -0.38024 0.93622
 N114 N 0.06945 -0.36487 0.94231
 C115 C 0.04840 -0.23790 0.88003
 C116 C 0.05788 -0.19641 0.86415
 C117 C 0.07004 -0.14755 0.84510
 N118 N 0.03418 -0.10222 0.83737
 N119 N 0.04514 -0.05733 0.81894
 C120 C 0.09237 -0.05621 0.80767
 N121 N 0.12826 -0.10168 0.81568
 N122 N 0.11733 -0.14651 0.83409
 N123 N -0.01596 0.34775 0.88901
 C124 C 0.03523 0.32119 0.89492
 N125 N 0.07699 0.33281 0.92015
 N126 N 0.06781 0.36958 0.93907
 C127 C 0.01656 0.39611 0.93333
 N128 N -0.02516 0.38455 0.90793
 C129 C 0.04506 0.28065 0.87515
 C130 C 0.05404 0.24648 0.85881
 C131 C 0.06577 0.20601 0.83943
 N132 N 0.11093 0.20599 0.82610
 N133 N 0.12199 0.16867 0.80805
 C134 C 0.08836 0.12995 0.80271
 N135 N 0.04317 0.13002 0.81618
 N136 N 0.03208 0.16739 0.83426
 N137 N -0.34769 -0.05840 0.40693
 C138 C -0.33770 -0.01509 0.38532
 N139 N -0.36210 0.03396 0.38566
 N140 N -0.39526 0.03954 0.40712
 C141 C -0.40517 -0.00379 0.42890
 N142 N -0.38081 -0.05285 0.42838
 C143 C -0.30105 -0.02127 0.36281
 C144 C -0.27003 -0.02753 0.34420
 C145 C -0.23318 -0.03631 0.32222
 N146 N -0.19411 -0.00333 0.31850
 N147 N -0.15971 -0.01204 0.29829
 C148 C -0.16315 -0.05406 0.28119
 N149 N -0.20234 -0.08697 0.28506
 N150 N -0.23670 -0.07829 0.30523
 N151 N 0.28565 0.03114 0.39002
 C152 C 0.26908 -0.01821 0.39014
 N153 N 0.30253 -0.06118 0.41139
 N154 N 0.35095 -0.05501 0.43204
 C155 C 0.36763 -0.00565 0.43207
 N156 N 0.33410 0.03733 0.41067
 C157 C 0.21674 -0.02507 0.36817
 C158 C 0.17305 -0.03169 0.34978
 C159 C 0.12162 -0.04068 0.32776
 N160 N 0.07548 -0.00575 0.32191
 N161 N 0.02803 -0.01407 0.30108
 C162 C 0.02510 -0.05761 0.28544
 N163 N 0.07143 -0.09253 0.29151
 N164 N 0.11881 -0.08424 0.31231
   
