data_POSCAR
  _audit_creation_date              2014-09-24
  _audit_creation_method            'ToBaCCo'
  _symmetry_space_group_name_H-M    'P1'
  _symmetry_Int_Tables_number       1
  _symmetry_cell_setting            triclinic
  loop_
  _symmetry_equiv_pos_as_xyz
 x,y,z
_cell_length_a 31.1002
_cell_length_b 32.3803
_cell_length_c 31.3837
_cell_angle_alpha 88.610100
_cell_angle_beta 94.572700
_cell_angle_gamma 87.336200
loop_
  _atom_site_label
  _atom_site_type_symbol
  _atom_site_fract_x
  _atom_site_fract_y
  _atom_site_fract_z
N1 N 0.17914 1.26066 0.16461
 N2 N 0.15017 1.25930 0.19288
 C3 C 0.12088 1.29106 0.18479
 C4 C 0.13189 1.31328 0.14944
 C5 C 0.16926 1.29321 0.13754
 H6 H 0.09280 1.29696 0.20238
 H7 H 0.18736 1.30075 0.11064
 Cu8 Cu 0.15232 1.21454 0.23563
 Cu9 Cu 0.22571 1.21846 0.16264
 Cu10 Cu 0.22557 1.13570 0.23468
 N11 N 0.15541 1.16998 0.27880
 N12 N 0.18480 1.13947 0.27853
 C13 C 0.17859 1.11160 0.30964
 C14 C 0.14321 1.12509 0.33036
 C15 C 0.12933 1.16249 0.31013
 H16 H 0.19724 1.08271 0.31559
 H17 H 0.10153 1.18195 0.31650
 N18 N 0.26972 1.14080 0.19347
 N19 N 0.26969 1.17228 0.16592
 C20 C 0.30219 1.16582 0.14056
 C21 C 0.32365 1.12850 0.15286
 C22 C 0.30244 1.11369 0.18660
 H23 H 0.30903 1.18629 0.11451
 H24 H 0.30961 1.08458 0.20389
 H25 H 0.19139 1.17231 0.18659
 H26 H 0.22802 1.19880 0.22605
 N27 N 0.83882 0.72371 0.15008
 N28 N 0.86634 0.72095 0.18420
 C29 C 0.89297 0.68727 0.18154
 C30 C 0.88153 0.66799 0.14378
 C31 C 0.84697 0.69197 0.12456
 H32 H 0.92003 0.67843 0.20425
 H33 H 0.83045 0.68809 0.09338
 Cu34 Cu 0.86760 0.76476 0.22557
 Cu35 Cu 0.79840 0.77126 0.13854
 Cu36 Cu 0.78240 0.83153 0.22659
 N37 N 0.86615 0.80782 0.26765
 N38 N 0.83271 0.83422 0.26750
 C39 C 0.83989 0.86144 0.29869
 C40 C 0.88034 0.85170 0.31935
 C41 C 0.89592 0.81740 0.29894
 H42 H 0.81743 0.88656 0.30515
 H43 H 0.92702 0.80125 0.30586
 N44 N 0.74355 0.83496 0.17373
 N45 N 0.74982 0.81234 0.14013
 C46 C 0.71902 0.82306 0.10872
 C47 C 0.69253 0.85429 0.12297
 C48 C 0.70891 0.86105 0.16440
 H49 H 0.71655 0.80983 0.07735
 H50 H 0.69711 0.88371 0.18594
 H51 H 0.82243 0.81517 0.18117
 H52 H 0.79101 0.77232 0.20169
 N53 N 0.80316 1.27027 -0.15742
 N54 N 0.83359 1.27188 -0.18412
 C55 C 0.85912 1.30313 -0.17347
 C56 C 0.84382 1.32199 -0.13815
 C57 C 0.80834 1.30036 -0.12888
 H58 H 0.88762 1.31047 -0.18915
 H59 H 0.78878 1.30522 -0.10229
 Cu60 Cu 0.83849 1.23111 -0.22819
 Cu61 Cu 0.76158 1.22697 -0.15893
 Cu62 Cu 0.77540 1.15011 -0.23233
 N63 N 0.84215 1.19065 -0.27279
 N64 N 0.81678 1.15927 -0.27461
 C65 C 0.82718 1.13485 -0.30672
 C66 C 0.86123 1.15180 -0.32590
 C67 C 0.86971 1.18723 -0.30366
 H68 H 0.81218 1.10617 -0.31416
 H69 H 0.89503 1.20815 -0.30884
 N70 N 0.72899 1.15059 -0.19306
 N71 N 0.72346 1.18011 -0.16544
 C72 C 0.69069 1.17080 -0.14187
 C73 C 0.67487 1.13364 -0.15537
 C74 C 0.69976 1.12184 -0.18789
 H75 H 0.68029 1.18895 -0.11580
 H76 H 0.69749 1.09363 -0.20551
 H77 H 0.80288 1.18377 -0.18217
 H78 H 0.76445 1.21216 -0.22262
 N79 N 0.18708 0.72758 -0.13498
 N80 N 0.15693 0.72665 -0.16673
 C81 C 0.13262 0.69398 -0.16065
 C82 C 0.14843 0.67348 -0.12297
 C83 C 0.18308 0.69553 -0.10770
 H84 H 0.10490 0.68641 -0.18146
 H85 H 0.20282 0.68958 -0.07804
 Cu86 Cu 0.15074 0.76998 -0.21119
 Cu87 Cu 0.22621 0.77268 -0.12929
 Cu88 Cu 0.22245 0.84457 -0.21339
 N89 N 0.14607 0.81281 -0.25606
 N90 N 0.17457 0.84150 -0.25712
 C91 C 0.16297 0.86805 -0.29017
 C92 C 0.12495 0.85532 -0.31083
 C93 C 0.11534 0.82013 -0.28842
 H94 H 0.18017 0.89526 -0.29746
 H95 H 0.08730 0.80198 -0.29464
 N96 N 0.26783 0.84247 -0.16554
 N97 N 0.26899 0.81529 -0.13337
 C98 C 0.30179 0.82339 -0.10464
 C99 C 0.32204 0.85738 -0.11917
 C100 C 0.29977 0.86873 -0.15796
 H101 H 0.30961 0.80673 -0.07454
 H102 H 0.30528 0.89504 -0.17830
 H103 H 0.19016 0.81851 -0.16629
 H104 H 0.22650 0.78268 -0.19433
 C105 C 0.53254 1.09168 -0.03456
 H106 H 0.51085 1.10677 -0.01396
 C107 C 0.55979 1.11540 -0.05735
 H108 H 0.55837 1.14870 -0.05446
 C109 C 0.56261 1.03004 -0.06156
 H110 H 0.56416 0.99661 -0.06212
 C111 C 0.59042 1.05254 -0.08491
 H112 H 0.61345 1.03577 -0.10285
 N113 N 0.53434 1.04977 -0.03715
 C114 C 0.46701 1.04568 0.07270
 H115 H 0.49064 1.02446 0.08957
 C116 C 0.43790 1.06846 0.09569
 H117 H 0.44048 1.06523 0.13020
 C118 C 0.43477 1.07519 0.00733
 H119 H 0.43341 1.07709 -0.02722
 C120 C 0.40527 1.09874 0.02904
 H121 H 0.38128 1.11893 0.01100
 Zn122 Zn 0.50126 1.01643 -0.00323
 N123 N 0.46497 1.04946 0.02930
 C124 C 0.56895 1.00189 0.06028
 N125 N 0.54087 0.98270 0.03280
 C126 C 0.54286 0.94086 0.02945
 C127 C 0.57400 0.91659 0.05452
 C128 C 0.60027 0.97879 0.08626
 C129 C 0.46257 0.98542 -0.08103
 C130 C 0.43336 0.96187 -0.10501
 C131 C 0.40887 0.93499 -0.03913
 C132 C 0.43837 0.95908 -0.01650
 N133 N 0.46468 0.98338 -0.03757
 H134 H 0.56709 1.03526 0.06180
 H135 H 0.52082 0.92622 0.00686
 H136 H 0.57468 0.88334 0.05163
 H137 H 0.62243 0.99455 0.10795
 H138 H 0.48292 1.00579 -0.09720
 H139 H 0.43175 0.96402 -0.13960
 H140 H 0.38759 0.91692 -0.02139
 H141 H 0.44002 0.95888 0.01807
 C142 C 0.40611 1.09505 0.07369
 C143 C 0.58920 1.09596 -0.08297
 C144 C 0.40628 0.93599 -0.08410
 C145 C 0.60351 0.93568 0.08308
 C146 C -0.01299 0.55356 1.05005
 H147 H 0.02194 0.55271 1.05291
 C148 C -0.03618 0.58165 1.07354
 H149 H -0.01854 0.60252 1.09401
 C150 C -0.07787 0.52925 1.01708
 H151 H -0.09394 0.50960 0.99416
 C152 C -0.10235 0.55710 1.03974
 H153 H -0.13724 0.55833 1.03439
 N154 N -0.03399 0.52801 1.02261
 C155 C 0.06544 0.43266 1.00265
 H156 H 0.06546 0.43514 0.96821
 C157 C 0.09242 0.40290 1.02559
 H158 H 0.11340 0.38261 1.00862
 C159 C 0.03705 0.45536 1.06641
 H160 H 0.01489 0.47541 1.08210
 C161 C 0.06329 0.42576 1.09061
 H162 H 0.06178 0.42431 1.12492
 Zn163 Zn 0.00041 0.49461 0.98873
 N164 N 0.03855 0.45818 1.02324
 C165 C 0.07504 0.53171 0.96056
 N166 N 0.03120 0.53113 0.95593
 C167 C 0.00732 0.55869 0.92934
 C168 C 0.02746 0.58815 0.90576
 C169 C 0.09653 0.56091 0.93776
 C170 C -0.05829 0.43338 0.97229
 C171 C -0.08216 0.40548 0.94814
 C172 C -0.05557 0.43471 0.88431
 C173 C -0.03234 0.46219 0.90971
 N174 N -0.03420 0.46111 0.95287
 H175 H 0.09341 0.51006 0.98244
 H176 H -0.02753 0.55792 0.92678
 H177 H 0.00790 0.60999 0.88488
 H178 H 0.13142 0.56047 0.94164
 H179 H -0.05822 0.43246 1.00679
 H180 H -0.09989 0.38297 0.96466
 H181 H -0.05325 0.43552 0.85005
 H182 H -0.01193 0.48353 0.89496
 C183 C 0.09100 0.39863 1.06999
 C184 C -0.08157 0.58372 1.06842
 C185 C -0.08097 0.40596 0.90341
 C186 C 0.07253 0.58998 0.91029
 C187 C 1.07153 -0.01930 0.54146
 H188 H 1.08530 0.00238 0.52034
 C189 C 1.09844 -0.04185 0.57234
 H190 H 1.13289 -0.03765 0.57436
 C191 C 1.00990 -0.04965 0.56614
 H192 H 0.97517 -0.05169 0.56406
 C193 C 1.03559 -0.07284 0.59740
 H194 H 1.01995 -0.09218 0.61945
 N195 N 1.02812 -0.02370 0.53885
 C196 C 1.01660 0.08560 0.46558
 H197 H 0.99465 0.10056 0.48603
 C198 C 1.03900 0.10957 0.43791
 H199 H 1.03441 0.14295 0.43762
 C200 C 1.04788 0.02407 0.43947
 H201 H 1.05040 -0.00938 0.43974
 C202 C 1.07086 0.04676 0.41141
 H203 H 1.09037 0.03015 0.38984
 Zn204 Zn 0.99022 0.00919 0.50036
 N205 N 1.02168 0.04364 0.46603
 C206 C 0.97243 0.06632 0.56268
 N207 N 0.95358 0.04056 0.53399
 C208 C 0.91048 0.03459 0.53234
 C209 C 0.88456 0.05511 0.56026
 C210 C 0.94768 0.08765 0.59101
 C211 C 0.96472 -0.06604 0.46274
 C212 C 0.94193 -0.08966 0.43271
 C213 C 0.90479 -0.02691 0.40322
 C214 C 0.92857 -0.00450 0.43346
 N215 N 0.95763 -0.02425 0.46259
 H216 H 1.00699 0.06951 0.56419
 H217 H 0.89629 0.01294 0.51036
 H218 H 0.85043 0.04946 0.55909
 H219 H 0.96380 0.10686 0.61441
 H220 H 0.98850 -0.08108 0.48567
 H221 H 0.94773 -0.12288 0.43371
 H222 H 0.88178 -0.01068 0.38022
 H223 H 0.92406 0.02883 0.43367
 C224 C 1.06680 0.09023 0.41059
 C225 C 1.08063 -0.06916 0.60070
 C226 C 0.91179 -0.06993 0.40215
 C227 C 0.90304 0.08208 0.59002
 C228 C 0.10794 0.34704 1.12955
 C229 C 0.11845 0.36544 1.09328
 H230 H 0.07869 0.35716 1.14356
 H231 H 0.14651 0.35402 1.07804
 C232 C -0.09417 0.63321 1.12591
 C233 C -0.10780 0.61539 1.08950
 H234 H -0.06395 0.62270 1.14309
 H235 H -0.13939 0.62436 1.07418
 C236 C -0.13700 0.35489 0.88772
 C237 C -0.10300 0.37523 0.87624
 H238 H -0.15141 0.36209 0.91706
 H239 H -0.09066 0.36944 0.84554
 C240 C 0.13084 0.63809 0.89916
 C241 C 0.09291 0.62266 0.88615
 H242 H 0.14859 0.62636 0.92834
 H243 H 0.07432 0.63644 0.85834
 C244 C 1.12457 0.10276 0.36218
 C245 C 1.08870 0.11593 0.37991
 H246 H 1.14009 0.07309 0.37209
 H247 H 1.07449 0.14657 0.37189
 C248 C 1.09921 -0.12576 0.65497
 C249 C 1.10944 -0.09095 0.63484
 H250 H 1.06960 -0.14033 0.64491
 H251 H 1.14020 -0.07769 0.64320
 C252 C 0.90250 -0.12798 0.35256
 C253 C 0.88707 -0.09291 0.36897
 H254 H 0.93423 -0.14073 0.36404
 H255 H 0.85650 -0.07872 0.35588
 C256 C 0.88504 0.13597 0.64170
 C257 C 0.87567 0.10102 0.62157
 H258 H 0.91239 0.15299 0.63315
 H259 H 0.84676 0.08538 0.62804
 C260 C 0.35932 1.10656 0.13317
 C261 C 0.37326 1.11899 0.09586
 H262 H 0.37239 1.07804 0.14882
 H263 H 0.35790 1.14612 0.07920
 C264 C 0.64186 1.10885 -0.13708
 C265 C 0.61985 1.12164 -0.10443
 H266 H 0.63630 1.07910 -0.15088
 H267 H 0.62435 1.15237 -0.09254
 C268 C 0.35673 0.87854 -0.09500
 C269 C 0.37411 0.91260 -0.10988
 H270 H 0.36762 0.86561 -0.06368
 H271 H 0.36469 0.92389 -0.14218
 C272 C 0.65620 0.87627 0.09759
 C273 C 0.63784 0.91181 0.10986
 H274 H 0.64617 0.86383 0.06687
 H275 H 0.65032 0.92556 0.13915
   
