data_POSCAR
  _audit_creation_date              2014-09-24
  _audit_creation_method            'ToBaCCo'
  _symmetry_space_group_name_H-M    'P1'
  _symmetry_Int_Tables_number       1
  _symmetry_cell_setting            triclinic
  loop_
  _symmetry_equiv_pos_as_xyz
 x,y,z
_cell_length_a 54.1784
_cell_length_b 54.1780
_cell_length_c 54.2018
_cell_angle_alpha 90.016200
_cell_angle_beta 90.017200
_cell_angle_gamma 90.018200
loop_
  _atom_site_label
  _atom_site_type_symbol
  _atom_site_fract_x
  _atom_site_fract_y
  _atom_site_fract_z
O1 O 0.35555 0.32225 -0.02451
 O2 O 0.32166 0.35603 0.02365
 O3 O 0.35577 0.32211 0.02341
 O4 O 0.32152 0.35629 -0.02427
 O5 O 0.29266 0.32743 -0.02434
 O6 O 0.32698 0.29317 0.02343
 O7 O 0.29280 0.32715 0.02366
 O8 O 0.32674 0.29332 -0.02457
 Cu9 Cu 0.34153 0.34208 -0.00043
 Cu10 Cu 0.30688 0.30735 -0.00046
 C11 C 0.34696 0.30202 -0.03256
 C12 C 0.30145 0.34738 0.03169
 C13 C 0.34725 0.30182 0.03138
 C14 C 0.30124 0.34773 -0.03226
 O15 O 0.67838 0.64402 0.02355
 O16 O 0.64453 0.67789 -0.02457
 O17 O 0.67846 0.64376 -0.02437
 O18 O 0.64436 0.67804 0.02334
 O19 O 0.67324 0.70691 0.02335
 O20 O 0.70740 0.67254 -0.02445
 O21 O 0.67341 0.70674 -0.02465
 O22 O 0.70732 0.67283 0.02355
 Cu23 Cu 0.65852 0.65803 -0.00051
 Cu24 Cu 0.69327 0.69267 -0.00056
 C25 C 0.69862 0.65263 0.03158
 C26 C 0.65317 0.69810 -0.03263
 C27 C 0.69875 0.65226 -0.03237
 C28 C 0.65295 0.69831 0.03131
 O29 O 0.67843 0.35602 0.97643
 O30 O 0.64451 0.32214 1.02449
 O31 O 0.67849 0.35623 1.02434
 O32 O 0.64435 0.32205 0.97657
 O33 O 0.67316 0.29315 0.97655
 O34 O 0.70739 0.32741 1.02440
 O35 O 0.67334 0.29325 1.02455
 O36 O 0.70731 0.32718 0.97641
 Cu37 Cu 0.65854 0.34201 1.00046
 Cu38 Cu 0.69322 0.30733 1.00048
 C39 C 0.69865 0.34740 0.96839
 C40 C 0.65311 0.30191 1.03253
 C41 C 0.69877 0.34769 1.03234
 C42 C 0.65290 0.30178 0.96858
 O43 O 0.35586 0.67765 1.02470
 O44 O 0.32186 0.64374 0.97666
 O45 O 0.35596 0.67772 0.97679
 O46 O 0.32186 0.64355 1.02457
 O47 O 0.29297 0.67237 1.02466
 O48 O 0.32714 0.70662 0.97679
 O49 O 0.29298 0.67258 0.97667
 O50 O 0.32702 0.70654 1.02478
 Cu51 Cu 0.34179 0.65776 1.00068
 Cu52 Cu 0.30711 0.69244 1.00074
 C53 C 0.34727 0.69789 1.03275
 C54 C 0.30162 0.65235 0.96865
 C55 C 0.34740 0.69799 0.96881
 C56 C 0.30159 0.65209 1.03259
 O57 O 0.02378 0.32183 0.35584
 O58 O -0.02440 0.35555 0.32192
 O59 O -0.02415 0.32157 0.35598
 O60 O 0.02353 0.35590 0.32188
 O61 O 0.02368 0.32708 0.29298
 O62 O -0.02409 0.29267 0.32716
 O63 O -0.02433 0.32671 0.29304
 O64 O 0.02393 0.29293 0.32702
 Cu65 Cu -0.00032 0.34162 0.34181
 Cu66 Cu -0.00019 0.30693 0.30713
 C67 C 0.03189 0.30163 0.34724
 C68 C -0.03241 0.34691 0.30170
 C69 C -0.03208 0.30127 0.34742
 C70 C 0.03156 0.34738 0.30162
 O71 O 0.02393 0.67785 0.64404
 O72 O -0.02431 0.64424 0.67800
 O73 O -0.02401 0.67812 0.64385
 O74 O 0.02363 0.64388 0.67810
 O75 O 0.02379 0.67279 0.70691
 O76 O -0.02393 0.70711 0.67257
 O77 O -0.02423 0.67317 0.70680
 O78 O 0.02408 0.70683 0.67278
 Cu79 Cu -0.00020 0.65811 0.65810
 Cu80 Cu -0.00006 0.69290 0.69268
 C81 C 0.03204 0.69808 0.65258
 C82 C -0.03232 0.65295 0.69819
 C83 C -0.03192 0.69845 0.65233
 C84 C 0.03166 0.65246 0.69835
 O85 O 0.97620 0.67819 0.35582
 O86 O 1.02429 0.64441 0.32183
 O87 O 1.02413 0.67833 0.35594
 O88 O 0.97635 0.64415 0.32180
 O89 O 0.97623 0.67302 0.29295
 O90 O 1.02410 0.70727 0.32719
 O91 O 1.02425 0.67329 0.29300
 O92 O 0.97609 0.70712 0.32704
 Cu93 Cu 1.00025 0.65836 0.34175
 Cu94 Cu 1.00016 0.69310 0.30713
 C95 C 0.96812 0.69842 0.34725
 C96 C 1.03230 0.65307 0.30162
 C97 C 1.03209 0.69863 0.34743
 C98 C 0.96832 0.65272 0.30156
 O99 O 0.97594 0.32204 0.64371
 O100 O 1.02408 0.35576 0.67779
 O101 O 1.02388 0.32184 0.64365
 O102 O 0.97614 0.35606 0.67777
 O103 O 0.97596 0.32718 0.70659
 O104 O 1.02378 0.29289 0.67239
 O105 O 1.02397 0.32686 0.70660
 O106 O 0.97577 0.29309 0.67247
 Cu107 Cu 1.00002 0.34184 0.65783
 Cu108 Cu 0.99985 0.30708 0.69242
 C109 C 0.96784 0.30181 0.65225
 C110 C 1.03205 0.34708 0.69801
 C111 C 1.03180 0.30153 0.65216
 C112 C 0.96809 0.34749 0.69800
 O113 O 0.35568 0.02433 0.32210
 O114 O 0.32183 -0.02390 0.35585
 O115 O 0.35595 -0.02360 0.32194
 O116 O 0.32169 0.02404 0.35616
 O117 O 0.29280 0.02408 0.32732
 O118 O 0.32715 -0.02365 0.29302
 O119 O 0.29296 -0.02393 0.32699
 O120 O 0.32686 0.02437 0.29320
 Cu121 Cu 0.34169 0.00022 0.34192
 Cu122 Cu 0.30703 0.00022 0.30721
 C123 C 0.34707 0.03239 0.30189
 C124 C 0.30162 -0.03197 0.34720
 C125 C 0.34742 -0.03158 0.30165
 C126 C 0.30141 0.03201 0.34761
 O127 O 0.67829 -0.02397 0.64421
 O128 O 0.64433 0.02424 0.67788
 O129 O 0.67833 0.02397 0.64384
 O130 O 0.64414 -0.02369 0.67809
 O131 O 0.67293 -0.02362 0.70703
 O132 O 0.70720 0.02414 0.67269
 O133 O 0.67314 0.02440 0.70680
 O134 O 0.70714 -0.02388 0.67309
 Cu135 Cu 0.65837 0.00013 0.65810
 Cu136 Cu 0.69301 0.00028 0.69282
 C137 C 0.69850 -0.03197 0.65288
 C138 C 0.65291 0.03236 0.69809
 C139 C 0.69859 0.03200 0.65239
 C140 C 0.65267 -0.03161 0.69840
 O141 O 0.35538 0.97577 0.67825
 O142 O 0.32140 1.02384 0.64440
 O143 O 0.35552 1.02371 0.67832
 O144 O 0.32140 0.97590 0.64418
 O145 O 0.29251 0.97581 0.67299
 O146 O 0.32672 1.02371 0.70723
 O147 O 0.29253 1.02383 0.67324
 O148 O 0.32655 0.97569 0.70714
 Cu149 Cu 0.34133 0.99981 0.65838
 Cu150 Cu 0.30666 0.99975 0.69307
 C151 C 0.34678 0.96772 0.69847
 C152 C 0.30117 1.03186 0.65303
 C153 C 0.34697 1.03169 0.69858
 C154 C 0.30114 0.96788 0.65272
 O155 O 0.67858 1.02433 0.35622
 O156 O 0.64462 0.97624 0.32231
 O157 O 0.67861 0.97639 0.35639
 O158 O 0.64445 1.02418 0.32228
 O159 O 0.67325 1.02423 0.29338
 O160 O 0.70750 0.97635 0.32757
 O161 O 0.67345 0.97621 0.29343
 O162 O 0.70744 1.02437 0.32738
 Cu163 Cu 0.65866 1.00028 0.34221
 Cu164 Cu 0.69332 1.00029 0.30752
 C165 C 0.69881 1.03238 0.34761
 C166 C 0.65322 0.96821 0.30208
 C167 C 0.69887 0.96840 0.34784
 C168 C 0.65298 1.03217 0.30202
 O169 O 0.82243 0.85558 0.52472
 O170 O 0.85628 0.82175 0.47656
 O171 O 0.82234 0.85584 0.47680
 O172 O 0.85651 0.82159 0.52447
 O173 O 0.82767 0.79270 0.52448
 O174 O 0.79341 0.82703 0.47672
 O175 O 0.82741 0.79287 0.47648
 O176 O 0.79352 0.82675 0.52471
 Cu177 Cu 0.84230 0.84160 0.50065
 Cu178 Cu 0.80759 0.80692 0.50060
 C179 C 0.80220 0.84697 0.53273
 C180 C 0.84764 0.80154 0.46848
 C181 C 0.80205 0.84731 0.46880
 C182 C 0.84796 0.80130 0.53242
 O183 O 0.17752 0.14439 0.52461
 O184 O 0.14376 0.17830 0.47645
 O185 O 0.17769 0.14419 0.47670
 O186 O 0.14346 0.17840 0.52437
 O187 O 0.17232 0.20728 0.52448
 O188 O 0.20662 0.17300 0.47672
 O189 O 0.17263 0.20717 0.47648
 O190 O 0.20644 0.17320 0.52472
 Cu191 Cu 0.15770 0.15842 0.50053
 Cu192 Cu 0.19242 0.19308 0.50061
 C193 C 0.19774 0.15298 0.53269
 C194 C 0.15241 0.19851 0.46843
 C195 C 0.19799 0.15273 0.46875
 C196 C 0.15202 0.19867 0.53237
 O197 O 0.14405 0.82135 0.52343
 O198 O 0.17794 0.85535 0.47542
 O199 O 0.14386 0.82135 0.47551
 O200 O 0.17799 0.85546 0.52333
 O201 O 0.20691 0.82666 0.52334
 O202 O 0.17270 0.79246 0.47543
 O203 O 0.20685 0.82653 0.47535
 O204 O 0.17291 0.79249 0.52343
 Cu205 Cu 0.15805 0.84128 0.49942
 Cu206 Cu 0.19276 0.80662 0.49938
 C207 C 0.15268 0.80113 0.53145
 C208 C 0.19818 0.84677 0.46738
 C209 C 0.15242 0.80109 0.46749
 C210 C 0.19826 0.84691 0.53132
 O211 O 0.85600 0.17814 0.52306
 O212 O 0.82211 0.14410 0.47503
 O213 O 0.85620 0.17812 0.47514
 O214 O 0.82205 0.14403 0.52294
 O215 O 0.79313 0.17283 0.52292
 O216 O 0.82736 0.20700 0.47503
 O217 O 0.79321 0.17292 0.47493
 O218 O 0.82714 0.20701 0.52303
 Cu219 Cu 0.84199 0.15820 0.49904
 Cu220 Cu 0.80729 0.19285 0.49896
 C221 C 0.84737 0.19838 0.53106
 C222 C 0.80187 0.15267 0.46698
 C223 C 0.84765 0.19838 0.46712
 C224 C 0.80177 0.15259 0.53092
 O225 O 0.52395 0.82176 0.85577
 O226 O 0.47573 0.85563 0.82203
 O227 O 0.47601 0.82163 0.85608
 O228 O 0.52367 0.85588 0.82187
 O229 O 0.52366 0.82708 0.79295
 O230 O 0.47592 0.79275 0.82724
 O231 O 0.47565 0.82681 0.79312
 O232 O 0.52394 0.79289 0.82691
 Cu233 Cu 0.49984 0.84163 0.84185
 Cu234 Cu 0.49978 0.80697 0.80714
 C235 C 0.53199 0.80155 0.84712
 C236 C 0.46765 0.84703 0.80182
 C237 C 0.46802 0.80135 0.84753
 C238 C 0.53162 0.84736 0.80158
 O239 O 0.52404 0.17836 0.14447
 O240 O 0.47587 0.14453 0.17833
 O241 O 0.47611 0.17843 0.14419
 O242 O 0.52381 0.14435 0.17848
 O243 O 0.52382 0.17323 0.20732
 O244 O 0.47602 0.20740 0.17294
 O245 O 0.47580 0.17344 0.20716
 O246 O 0.52404 0.20731 0.17325
 Cu247 Cu 0.49996 0.15851 0.15847
 Cu248 Cu 0.49991 0.19327 0.19308
 C249 C 0.53208 0.19861 0.15306
 C250 C 0.46781 0.15319 0.19852
 C251 C 0.46811 0.19873 0.15268
 C252 C 0.53178 0.15294 0.19874
 O253 O 0.47606 0.17846 0.85557
 O254 O 0.52413 0.14455 0.82167
 O255 O 0.52400 0.17850 0.85576
 O256 O 0.47620 0.14436 0.82163
 O257 O 0.47615 0.17318 0.79274
 O258 O 0.52404 0.20741 0.82696
 O259 O 0.52417 0.17339 0.79280
 O260 O 0.47603 0.20734 0.82675
 Cu261 Cu 0.50010 0.15856 0.84156
 Cu262 Cu 0.50010 0.19325 0.80690
 C263 C 0.46802 0.19868 0.84696
 C264 C 0.53216 0.15316 0.80145
 C265 C 0.53200 0.19878 0.84722
 C266 C 0.46819 0.15292 0.80138
 O267 O 0.47642 0.82197 0.14429
 O268 O 0.52453 0.85597 0.17812
 O269 O 0.52435 0.82197 0.14405
 O270 O 0.47659 0.85609 0.17821
 O271 O 0.47661 0.82730 0.20712
 O272 O 0.52446 0.79309 0.17287
 O273 O 0.52462 0.82715 0.20701
 O274 O 0.47645 0.79310 0.17314
 Cu275 Cu 0.50047 0.84190 0.15826
 Cu276 Cu 0.50055 0.80725 0.19295
 C277 C 0.46840 0.80173 0.15292
 C278 C 0.53259 0.84739 0.19835
 C279 C 0.53237 0.80171 0.15259
 C280 C 0.46862 0.84755 0.19849
 O281 O 0.85557 0.52441 0.82193
 O282 O 0.82188 0.47620 0.85586
 O283 O 0.85587 0.47647 0.82180
 O284 O 0.82168 0.52413 0.85607
 O285 O 0.79270 0.52411 0.82733
 O286 O 0.82696 0.47636 0.79298
 O287 O 0.79291 0.47609 0.82710
 O288 O 0.82665 0.52438 0.79312
 Cu289 Cu 0.84166 0.50031 0.84181
 Cu290 Cu 0.80688 0.50023 0.80722
 C291 C 0.84688 0.53243 0.80173
 C292 C 0.80165 0.46811 0.84729
 C293 C 0.84728 0.46846 0.80155
 C294 C 0.80136 0.53208 0.84758
 O295 O 0.17815 0.47614 0.14412
 O296 O 0.14441 0.52435 0.17798
 O297 O 0.17839 0.52407 0.14393
 O298 O 0.14407 0.47642 0.17808
 O299 O 0.17289 0.47630 0.20698
 O300 O 0.20730 0.52404 0.17275
 O301 O 0.17325 0.52432 0.20687
 O302 O 0.20704 0.47603 0.17296
 Cu303 Cu 0.15835 0.50025 0.15812
 Cu304 Cu 0.19304 0.50017 0.19281
 C305 C 0.19835 0.46804 0.15274
 C306 C 0.15305 0.53238 0.19820
 C307 C 0.19869 0.53201 0.15248
 C308 C 0.15259 0.46841 0.19835
 O309 O 0.85558 0.47565 0.17804
 O310 O 0.82183 0.52378 0.14408
 O311 O 0.85586 0.52359 0.17810
 O312 O 0.82165 0.47585 0.14392
 O313 O 0.79271 0.47588 0.17268
 O314 O 0.82699 0.52371 0.20694
 O315 O 0.79290 0.52390 0.17285
 O316 O 0.82670 0.47569 0.20687
 Cu317 Cu 0.84164 0.49971 0.15813
 Cu318 Cu 0.80690 0.49980 0.19275
 C319 C 0.84692 0.46764 0.19825
 C320 C 0.80161 0.53187 0.15265
 C321 C 0.84729 0.53162 0.19834
 C322 C 0.80135 0.46790 0.15244
 O323 O 0.17792 0.52366 0.85620
 O324 O 0.14412 0.47554 0.82220
 O325 O 0.17806 0.47573 0.85633
 O326 O 0.14389 0.52348 0.82217
 O327 O 0.17275 0.52359 0.79333
 O328 O 0.20700 0.47575 0.82756
 O329 O 0.17300 0.47557 0.79337
 O330 O 0.20685 0.52377 0.82743
 Cu331 Cu 0.15809 0.49960 0.84212
 Cu332 Cu 0.19283 0.49968 0.80751
 C333 C 0.19816 0.53174 0.84764
 C334 C 0.15277 0.46753 0.80198
 C335 C 0.19836 0.46777 0.84781
 C336 C 0.15246 0.53150 0.80193
 C337 C 0.26277 0.38800 0.08167
 N338 N 0.23774 0.38784 0.08135
 N339 N 0.22502 0.40269 0.09627
 C340 C 0.23695 0.41814 0.11194
 N341 N 0.26198 0.41826 0.11230
 N342 N 0.27470 0.40341 0.09738
 C343 C 0.27645 0.37308 0.06462
 C344 C 0.28790 0.36106 0.04982
 C345 C 0.22330 0.43515 0.12693
 C346 C 0.21187 0.44992 0.13900
 C347 C 0.73725 0.61192 0.08153
 N348 N 0.72530 0.59649 0.09719
 N349 N 0.73801 0.58162 0.11210
 C350 C 0.76304 0.58174 0.11179
 N351 N 0.77499 0.59721 0.09617
 N352 N 0.76228 0.61208 0.08126
 C353 C 0.72360 0.62687 0.06448
 C354 C 0.71216 0.63891 0.04970
 C355 C 0.77668 0.56474 0.12679
 C356 C 0.78810 0.54997 0.13888
 C357 C 0.73732 0.38807 0.91845
 N358 N 0.76235 0.38800 0.91881
 N359 N 0.77505 0.40285 0.90389
 C360 C 0.76311 0.41822 0.88816
 N361 N 0.73808 0.41825 0.88776
 N362 N 0.72537 0.40340 0.90268
 C363 C 0.72365 0.37314 0.93550
 C364 C 0.71221 0.36110 0.95028
 C365 C 0.77675 0.43522 0.87315
 C366 C 0.78816 0.44999 0.86106
 C367 C 0.26280 0.61164 0.91880
 N368 N 0.23777 0.61176 0.91920
 N369 N 0.22500 0.59692 0.90430
 C370 C 0.23688 0.58152 0.88855
 N371 N 0.26190 0.58145 0.88810
 N372 N 0.27467 0.59629 0.90300
 C373 C 0.27653 0.62658 0.93581
 C374 C 0.28803 0.63862 0.95056
 C375 C 0.22317 0.56455 0.87354
 C376 C 0.21171 0.54982 0.86143
 C377 C 0.08173 0.26303 0.38811
 N378 N 0.08164 0.23800 0.38773
 N379 N 0.09647 0.22527 0.40266
 C380 C 0.11184 0.23720 0.41842
 N381 N 0.11198 0.26223 0.41876
 N382 N 0.09715 0.27495 0.40383
 C383 C 0.06475 0.27668 0.37310
 C384 C 0.05000 0.28811 0.36101
 C385 C 0.12674 0.22352 0.43548
 C386 C 0.13875 0.21207 0.45029
 C387 C 0.08191 0.73660 0.61167
 N388 N 0.09714 0.72466 0.59580
 N389 N 0.11198 0.73738 0.58087
 C390 C 0.11203 0.76240 0.58136
 N391 N 0.09685 0.77434 0.59727
 N392 N 0.08201 0.76162 0.61220
 C393 C 0.06492 0.72296 0.62669
 C394 C 0.05016 0.71156 0.63880
 C395 C 0.12695 0.77609 0.56432
 C396 C 0.13898 0.78755 0.54954
 C397 C 0.91836 0.73707 0.38816
 N398 N 0.91859 0.76210 0.38793
 N399 N 0.90377 0.77482 0.40286
 C400 C 0.88826 0.76290 0.41848
 N401 N 0.88799 0.73787 0.41867
 N402 N 0.90281 0.72514 0.40373
 C403 C 0.93532 0.72339 0.37314
 C404 C 0.95005 0.71195 0.36104
 C405 C 0.87335 0.77657 0.43554
 C406 C 0.86133 0.78801 0.45034
 C407 C 0.91809 0.26314 0.61125
 N408 N 0.91808 0.23811 0.61177
 N409 N 0.90327 0.22535 0.59684
 C410 C 0.88802 0.23723 0.58095
 N411 N 0.88799 0.26226 0.58046
 N412 N 0.90281 0.27502 0.59539
 C413 C 0.93505 0.27684 0.62629
 C414 C 0.94977 0.28829 0.63842
 C415 C 0.87311 0.22349 0.56391
 C416 C 0.86108 0.21199 0.54915
 C417 C 0.38779 0.08230 0.26321
 N418 N 0.38736 0.08217 0.23819
 N419 N 0.40222 0.09704 0.22542
 C420 C 0.41795 0.11248 0.23729
 N421 N 0.41834 0.11266 0.26231
 N422 N 0.40348 0.09779 0.27508
 C423 C 0.37284 0.06529 0.27691
 C424 C 0.36079 0.05052 0.28836
 C425 C 0.43495 0.12743 0.22357
 C426 C 0.44970 0.13947 0.21209
 C427 C 0.61211 0.08223 0.73673
 N428 N 0.59630 0.09758 0.72486
 N429 N 0.58144 0.11244 0.73762
 C430 C 0.58195 0.11241 0.76264
 N431 N 0.59780 0.09711 0.77451
 N432 N 0.61266 0.08225 0.76174
 C433 C 0.62708 0.06523 0.72303
 C434 C 0.63915 0.05047 0.71159
 C435 C 0.56497 0.12736 0.77637
 C436 C 0.55023 0.13942 0.78786
 C437 C 0.38758 0.91793 0.73722
 N438 N 0.40306 0.90225 0.72535
 N439 N 0.41793 0.88739 0.73811
 C440 C 0.41777 0.88777 0.76313
 N441 N 0.40225 0.90340 0.77500
 N442 N 0.38738 0.91826 0.76224
 C443 C 0.37261 0.93491 0.72350
 C444 C 0.36054 0.94964 0.71203
 C445 C 0.43477 0.87282 0.77683
 C446 C 0.44953 0.86076 0.78829
 C447 C 0.61245 0.91843 0.26320
 N448 N 0.59694 0.90274 0.27502
 N449 N 0.58210 0.88788 0.26220
 C450 C 0.58233 0.88825 0.23719
 N451 N 0.59789 0.90389 0.22537
 N452 N 0.61272 0.91876 0.23818
 C453 C 0.62740 0.93540 0.27697
 C454 C 0.63946 0.95014 0.28848
 C455 C 0.56538 0.87327 0.22342
 C456 C 0.55066 0.86118 0.21192
 C457 C 0.38781 0.26331 0.91767
 N458 N 0.40345 0.27520 0.90217
 N459 N 0.41837 0.26245 0.88736
 C460 C 0.41809 0.23742 0.88760
 N461 N 0.40241 0.22552 0.90305
 N462 N 0.38749 0.23828 0.91787
 C463 C 0.37280 0.27701 0.93463
 C464 C 0.36071 0.28847 0.94935
 C465 C 0.43513 0.22371 0.87270
 C466 C 0.44991 0.21224 0.86067
 C467 C 0.61233 0.73689 0.91765
 N468 N 0.59679 0.72501 0.90203
 N469 N 0.58186 0.73778 0.88724
 C470 C 0.58202 0.76281 0.88763
 N471 N 0.59761 0.77469 0.90321
 N472 N 0.61254 0.76192 0.91800
 C473 C 0.62734 0.72316 0.93459
 C474 C 0.63942 0.71168 0.94930
 C475 C 0.56495 0.77653 0.87276
 C476 C 0.55014 0.78799 0.86078
 C477 C 0.38821 0.73679 0.08236
 N478 N 0.38787 0.76182 0.08208
 N479 N 0.40279 0.77464 0.09686
 C480 C 0.41850 0.76282 0.11234
 N481 N 0.41879 0.73779 0.11266
 N482 N 0.40387 0.72497 0.09789
 C483 C 0.37318 0.72301 0.06546
 C484 C 0.36107 0.71150 0.05078
 C485 C 0.43553 0.77660 0.12722
 C486 C 0.45030 0.78812 0.13922
 C487 C 0.61229 0.26317 0.08229
 N488 N 0.61245 0.23814 0.08194
 N489 N 0.59754 0.22539 0.09678
 C490 C 0.58203 0.23729 0.11240
 N491 N 0.58192 0.26232 0.11279
 N492 N 0.59682 0.27507 0.09796
 C493 C 0.62728 0.27687 0.06533
 C494 C 0.63936 0.28834 0.05060
 C495 C 0.56499 0.22360 0.12732
 C496 C 0.55020 0.21215 0.13935
 C497 C 0.26238 0.08179 0.61245
 N498 N 0.23735 0.08142 0.61262
 N499 N 0.22458 0.09635 0.59783
 C500 C 0.23646 0.11209 0.58242
 N501 N 0.26149 0.11250 0.58230
 N502 N 0.27426 0.09757 0.59709
 C503 C 0.27610 0.06474 0.62734
 C504 C 0.28759 0.04996 0.63934
 C505 C 0.22275 0.12711 0.56548
 C506 C 0.21129 0.13921 0.55076
 C507 C 0.73696 0.08135 0.38745
 N508 N 0.76199 0.08110 0.38709
 N509 N 0.77480 0.09604 0.40185
 C510 C 0.76298 0.11167 0.41741
 N511 N 0.73795 0.11196 0.41772
 N512 N 0.72513 0.09702 0.40296
 C513 C 0.72319 0.06429 0.37259
 C514 C 0.71168 0.04950 0.36060
 C515 C 0.77675 0.12672 0.43429
 C516 C 0.78827 0.13885 0.44896
 C517 C 0.73737 0.91805 0.61243
 N518 N 0.72553 0.90231 0.59698
 N519 N 0.73834 0.88740 0.58220
 C520 C 0.76337 0.88778 0.58244
 N521 N 0.77520 0.90347 0.59794
 N522 N 0.76240 0.91838 0.61272
 C523 C 0.72361 0.93510 0.62728
 C524 C 0.71210 0.94989 0.63925
 C525 C 0.77712 0.87278 0.56551
 C526 C 0.78862 0.86071 0.55080
 C527 C 0.26289 0.91800 0.38772
 N528 N 0.27477 0.90244 0.40331
 N529 N 0.26200 0.88751 0.41810
 C530 C 0.23697 0.88769 0.41774
 N531 N 0.22509 0.90321 0.40211
 N532 N 0.23787 0.91814 0.38732
 C533 C 0.27661 0.93507 0.37285
 C534 C 0.28807 0.94988 0.36086
 C535 C 0.22325 0.87266 0.43465
 C536 C 0.21176 0.86055 0.44935
 C537 C 0.08190 0.38766 0.73699
 N538 N 0.08155 0.38738 0.76201
 N539 N 0.09641 0.40220 0.77484
 C540 C 0.11207 0.41776 0.76304
 N541 N 0.11246 0.41800 0.73802
 N542 N 0.09760 0.40318 0.72519
 C543 C 0.06490 0.37276 0.72320
 C544 C 0.05015 0.36075 0.71166
 C545 C 0.12701 0.43472 0.77682
 C546 C 0.13906 0.44945 0.78835
 C547 C 0.08218 0.61244 0.26282
 N548 N 0.09790 0.59701 0.27470
 N549 N 0.11278 0.58215 0.26194
 C550 C 0.11238 0.58229 0.23692
 N551 N 0.09670 0.59776 0.22505
 N552 N 0.08183 0.61262 0.23781
 C553 C 0.06517 0.62737 0.27654
 C554 C 0.05040 0.63939 0.28802
 C555 C 0.12732 0.56528 0.22323
 C556 C 0.13936 0.55051 0.21176
 C557 C 0.91769 0.38755 0.26294
 N558 N 0.91790 0.38722 0.23792
 N559 N 0.90305 0.40210 0.22516
 C560 C 0.88753 0.41774 0.23703
 N561 N 0.88728 0.41802 0.26205
 N562 N 0.90214 0.40315 0.27481
 C563 C 0.93470 0.37261 0.27665
 C564 C 0.94947 0.36059 0.28812
 C565 C 0.87261 0.43476 0.22332
 C566 C 0.86059 0.44953 0.21184
 C567 C 0.91771 0.61244 0.73700
 N568 N 0.90205 0.59693 0.72514
 N569 N 0.88717 0.58209 0.73792
 C570 C 0.88751 0.58232 0.76294
 N571 N 0.90313 0.59789 0.77480
 N572 N 0.91801 0.61272 0.76202
 C573 C 0.93475 0.62734 0.72328
 C574 C 0.94954 0.63932 0.71179
 C575 C 0.87257 0.56532 0.77666
 C576 C 0.86055 0.55056 0.78815
 C577 C 0.73677 0.61188 0.91898
 N578 N 0.72483 0.59628 0.90346
 N579 N 0.73753 0.58139 0.88856
 C580 C 0.76257 0.58165 0.88873
 N581 N 0.77451 0.59729 0.90421
 N582 N 0.76181 0.61218 0.91911
 C583 C 0.72311 0.62695 0.93596
 C584 C 0.71164 0.63911 0.95065
 C585 C 0.77624 0.56470 0.87365
 C586 C 0.78772 0.55003 0.86147
 C587 C 0.26307 0.38800 0.91912
 N588 N 0.23804 0.38784 0.91944
 N589 N 0.22529 0.40271 0.90455
 C590 C 0.23720 0.41818 0.88889
 N591 N 0.26223 0.41830 0.88854
 N592 N 0.27497 0.40344 0.90342
 C593 C 0.27678 0.37297 0.93608
 C594 C 0.28830 0.36084 0.95077
 C595 C 0.22350 0.43513 0.87382
 C596 C 0.21201 0.44980 0.86166
 C597 C 0.26350 0.61179 0.08125
 N598 N 0.23847 0.61217 0.08116
 N599 N 0.22573 0.59730 0.09603
 C600 C 0.23763 0.58157 0.11145
 N601 N 0.26266 0.58122 0.11157
 N602 N 0.27540 0.59610 0.09670
 C603 C 0.27720 0.62683 0.06428
 C604 C 0.28868 0.63897 0.04959
 C605 C 0.22391 0.56463 0.12650
 C606 C 0.21239 0.54996 0.13864
 C607 C 0.73680 0.38798 0.08108
 N608 N 0.76183 0.38777 0.08091
 N609 N 0.77453 0.40267 0.09582
 C610 C 0.76258 0.41823 0.11136
 N611 N 0.73755 0.41841 0.11157
 N612 N 0.72485 0.40351 0.09666
 C613 C 0.72314 0.37293 0.06408
 C614 C 0.71167 0.36080 0.04936
 C615 C 0.77624 0.43521 0.12643
 C616 C 0.78771 0.44991 0.13859
 C617 C 0.91940 0.73657 0.61206
 N618 N 0.90383 0.72465 0.59648
 N619 N 0.88891 0.73739 0.58164
 C620 C 0.88911 0.76242 0.58192
 N621 N 0.90464 0.77433 0.59753
 N622 N 0.91956 0.76160 0.61237
 C623 C 0.93639 0.72287 0.62708
 C624 C 0.95110 0.71138 0.63920
 C625 C 0.87401 0.77612 0.56501
 C626 C 0.86183 0.78763 0.55036
 C627 C 0.91918 0.26307 0.38754
 N628 N 0.90338 0.27497 0.40287
 N629 N 0.88843 0.26223 0.41768
 C630 C 0.88883 0.23720 0.41761
 N631 N 0.90460 0.22529 0.40224
 N632 N 0.91954 0.23804 0.38743
 C633 C 0.93619 0.27679 0.37257
 C634 C 0.95091 0.28831 0.36049
 C635 C 0.87372 0.22350 0.43451
 C636 C 0.86152 0.21201 0.44916
 C637 C 0.08053 0.26340 0.61197
 N638 N 0.09619 0.27530 0.59650
 N639 N 0.11111 0.26257 0.58167
 C640 C 0.11084 0.23753 0.58186
 N641 N 0.09521 0.22563 0.59737
 N642 N 0.08029 0.23836 0.61220
 C643 C 0.06353 0.27710 0.62697
 C644 C 0.04881 0.28860 0.63907
 C645 C 0.12594 0.22383 0.56495
 C646 C 0.13813 0.21233 0.55031
 C647 C 0.08093 0.73663 0.38764
 N648 N 0.08072 0.76167 0.38748
 N649 N 0.09567 0.77435 0.40235
 C650 C 0.11128 0.76238 0.41783
 N651 N 0.11153 0.73735 0.41795
 N652 N 0.09657 0.72467 0.40308
 C653 C 0.06388 0.72299 0.37262
 C654 C 0.04913 0.71153 0.36052
 C655 C 0.12639 0.77602 0.43480
 C656 C 0.13857 0.78747 0.44949
 C657 C 0.61154 0.91876 0.73714
 N658 N 0.59606 0.90313 0.72518
 N659 N 0.58115 0.88823 0.73785
 C660 C 0.58127 0.88850 0.76287
 N661 N 0.59679 0.90409 0.77484
 N662 N 0.61170 0.91899 0.76217
 C663 C 0.62664 0.93573 0.72351
 C664 C 0.63881 0.95042 0.71204
 C665 C 0.56428 0.87341 0.77650
 C666 C 0.54960 0.86123 0.78795
 C667 C 0.38860 0.91883 0.26292
 N668 N 0.38845 0.91905 0.23789
 N669 N 0.40337 0.90416 0.22522
 C670 C 0.41891 0.88860 0.23719
 N671 N 0.41902 0.88835 0.26221
 N672 N 0.40410 0.90324 0.27488
 C673 C 0.37349 0.93579 0.27655
 C674 C 0.36131 0.95046 0.28801
 C675 C 0.43591 0.87354 0.22356
 C676 C 0.45062 0.86139 0.21211
 C677 C 0.61182 0.08179 0.26331
 N678 N 0.61215 0.08173 0.23829
 N679 N 0.59722 0.09659 0.22560
 C680 C 0.58150 0.11198 0.23755
 N681 N 0.58120 0.11208 0.26257
 N682 N 0.59614 0.09721 0.27526
 C683 C 0.62693 0.06484 0.27695
 C684 C 0.63912 0.05016 0.28840
 C685 C 0.56449 0.12701 0.22389
 C686 C 0.54978 0.13913 0.21241
 C687 C 0.38806 0.08149 0.73718
 N688 N 0.40354 0.09706 0.72516
 N689 N 0.41848 0.11200 0.73777
 C690 C 0.41838 0.11182 0.76280
 N691 N 0.40286 0.09629 0.77482
 N692 N 0.38792 0.08136 0.76220
 C693 C 0.37296 0.06446 0.72360
 C694 C 0.36080 0.04973 0.71218
 C695 C 0.43542 0.12691 0.77637
 C696 C 0.45015 0.13908 0.78778
 C697 C 0.61203 0.73714 0.08104
 N698 N 0.59660 0.72520 0.09672
 N699 N 0.58177 0.73790 0.11167
 C700 C 0.58191 0.76294 0.11139
 N701 N 0.59738 0.77488 0.09575
 N702 N 0.61221 0.76217 0.08080
 C703 C 0.62704 0.72346 0.06403
 C704 C 0.63915 0.71197 0.04931
 C705 C 0.56499 0.77660 0.12652
 C706 C 0.55034 0.78807 0.13871
 C707 C 0.38834 0.26312 0.08107
 N708 N 0.40380 0.27510 0.09670
 N709 N 0.41867 0.26244 0.11164
 C710 C 0.41854 0.23740 0.11141
 N711 N 0.40304 0.22542 0.09582
 N712 N 0.38816 0.23809 0.08088
 C713 C 0.37328 0.27675 0.06407
 C714 C 0.36112 0.28820 0.04936
 C715 C 0.43548 0.22378 0.12655
 C716 C 0.45015 0.21233 0.13876
 C717 C 0.61189 0.26314 0.91876
 N718 N 0.61212 0.23810 0.91885
 N719 N 0.59724 0.22545 0.90389
 C720 C 0.58167 0.23745 0.88838
 N721 N 0.58149 0.26249 0.88826
 N722 N 0.59637 0.27514 0.90322
 C723 C 0.62694 0.27674 0.93581
 C724 C 0.63908 0.28818 0.95055
 C725 C 0.56470 0.22384 0.87326
 C726 C 0.55000 0.21240 0.86108
 C727 C 0.38836 0.73673 0.91906
 N728 N 0.38801 0.76176 0.91912
 N729 N 0.40286 0.77447 0.90418
 C730 C 0.41851 0.76252 0.88872
 N731 N 0.41882 0.73749 0.88862
 N732 N 0.40397 0.72479 0.90356
 C733 C 0.37334 0.72307 0.93607
 C734 C 0.36121 0.71161 0.95079
 C735 C 0.43543 0.77620 0.87361
 C736 C 0.45008 0.78769 0.86141
 C737 C 0.73760 0.91872 0.38891
 N738 N 0.72563 0.90312 0.40439
 N739 N 0.73831 0.88821 0.41929
 C740 C 0.76334 0.88845 0.41917
 N741 N 0.77531 0.90402 0.40365
 N742 N 0.76264 0.91893 0.38875
 C743 C 0.72396 0.93571 0.37383
 C744 C 0.71250 0.95040 0.36168
 C745 C 0.77698 0.87337 0.43614
 C746 C 0.78843 0.86119 0.45083
 C747 C 0.26251 0.91816 0.61156
 N748 N 0.23748 0.91832 0.61169
 N749 N 0.22485 0.90342 0.59673
 C750 C 0.23686 0.88792 0.58118
 N751 N 0.26190 0.88773 0.58109
 N752 N 0.27453 0.90262 0.59605
 C753 C 0.27610 0.93515 0.62668
 C754 C 0.28753 0.94986 0.63887
 C755 C 0.22327 0.87287 0.56413
 C756 C 0.21186 0.86073 0.54937
 C757 C 0.26257 0.08152 0.38879
 N758 N 0.23754 0.08124 0.38863
 N759 N 0.22483 0.09609 0.40356
 C760 C 0.23677 0.11169 0.41909
 N761 N 0.26180 0.11201 0.41921
 N762 N 0.27451 0.09715 0.40428
 C763 C 0.27625 0.06459 0.37368
 C764 C 0.28774 0.04994 0.36149
 C765 C 0.22310 0.12673 0.43608
 C766 C 0.21163 0.13888 0.45077
 C767 C 0.73735 0.08151 0.61113
 N768 N 0.72538 0.09710 0.59564
 N769 N 0.73805 0.11195 0.58067
 C770 C 0.76309 0.11165 0.58074
 N771 N 0.77506 0.09609 0.59627
 N772 N 0.76238 0.08125 0.61124
 C773 C 0.72370 0.06459 0.62627
 C774 C 0.71224 0.04995 0.63849
 C775 C 0.77672 0.12666 0.56369
 C776 C 0.78816 0.13878 0.54895
 C777 C 0.91864 0.61160 0.26282
 N778 N 0.90307 0.59607 0.27478
 N779 N 0.88817 0.58115 0.26209
 C780 C 0.88839 0.58131 0.23707
 N781 N 0.90392 0.59689 0.22512
 N782 N 0.91882 0.61180 0.23780
 C783 C 0.93562 0.62669 0.27647
 C784 C 0.95032 0.63886 0.28793
 C785 C 0.87331 0.56432 0.22342
 C786 C 0.86115 0.54962 0.21197
 C787 C 0.91852 0.38863 0.73681
 N788 N 0.91864 0.38828 0.76183
 N789 N 0.90377 0.40318 0.77456
 C790 C 0.88833 0.41888 0.76266
 N791 N 0.88818 0.41919 0.73764
 N792 N 0.90304 0.40430 0.72491
 C793 C 0.93546 0.37355 0.72312
 C794 C 0.95012 0.36137 0.71164
 C795 C 0.87328 0.43584 0.77637
 C796 C 0.86113 0.45051 0.78788
 C797 C 0.08118 0.61134 0.73724
 N798 N 0.08088 0.61152 0.76226
 N799 N 0.09576 0.59663 0.77500
 C800 C 0.11138 0.58111 0.76310
 N801 N 0.11172 0.58097 0.73808
 N802 N 0.09684 0.59585 0.72534
 C803 C 0.06425 0.62641 0.72353
 C804 C 0.04960 0.63858 0.71202
 C805 C 0.12644 0.56415 0.77679
 C806 C 0.13860 0.54947 0.78828
 C807 C 0.08115 0.38858 0.26289
 N808 N 0.08099 0.38832 0.23786
 N809 N 0.09589 0.40322 0.22517
 C810 C 0.11140 0.41884 0.23711
 N811 N 0.11159 0.41907 0.26213
 N812 N 0.09669 0.40417 0.27483
 C813 C 0.06419 0.37348 0.27654
 C814 C 0.04952 0.36129 0.28800
 C815 C 0.12649 0.43579 0.22345
 C816 C 0.13869 0.45046 0.21198
   
