data_POSCAR
  _audit_creation_date              2014-09-24
  _audit_creation_method            'ToBaCCo'
  _symmetry_space_group_name_H-M    'P1'
  _symmetry_Int_Tables_number       1
  _symmetry_cell_setting            triclinic
  loop_
  _symmetry_equiv_pos_as_xyz
 x,y,z
_cell_length_a 20.1444
_cell_length_b 20.1438
_cell_length_c 20.1260
_cell_angle_alpha 89.930200
_cell_angle_beta 90.205100
_cell_angle_gamma 90.000000
loop_
  _atom_site_label
  _atom_site_type_symbol
  _atom_site_fract_x
  _atom_site_fract_y
  _atom_site_fract_z
O1 O -0.17142 0.08961 0.00159
 O2 O 0.17009 0.08972 -0.00257
 O3 O -0.00284 0.17057 0.08918
 O4 O 0.00131 0.17099 -0.09068
 O5 O 0.00120 0.09015 -0.17173
 O6 O -0.00272 0.08947 0.17034
 O7 O 0.08913 0.17077 -0.00275
 O8 O -0.09034 0.17061 0.00166
 Zr9 Zr -0.00065 0.11669 -0.00072
 O10 O 0.05951 0.06034 -0.06094
 O11 O -0.06073 0.05994 0.05949
 C12 C -0.15164 0.15092 0.00279
 C13 C 0.15047 0.15109 -0.00366
 C14 C -0.00384 0.15084 0.15059
 C15 C 0.00224 0.15164 -0.15225
 H16 H 0.08770 0.08807 0.08790
 O17 O 0.05928 0.05977 0.05952
 H18 H -0.08919 0.08828 -0.08914
 O19 O -0.06082 0.05990 -0.06071
 O20 O 0.16993 -0.08972 0.00206
 O21 O -0.17176 -0.09012 -0.00289
 O22 O 0.08936 -0.00276 0.17042
 O23 O 0.08896 0.00220 -0.17145
 O24 O -0.09078 -0.00222 -0.17165
 O25 O -0.09011 0.00212 0.17027
 O26 O 0.00147 -0.17125 0.08983
 O27 O -0.00338 -0.17074 -0.09007
 O28 O 0.00168 -0.09030 0.17076
 O29 O -0.00336 -0.08965 -0.17128
 O30 O 0.17014 -0.00251 0.08936
 O31 O -0.17132 0.00217 0.08906
 O32 O -0.17162 -0.00249 -0.09075
 O33 O 0.17001 0.00206 -0.09011
 O34 O 0.08897 -0.17084 0.00221
 O35 O -0.09084 -0.17112 -0.00258
 Zr36 Zr 0.11594 -0.00005 -0.00044
 Zr37 Zr -0.11753 -0.00024 -0.00075
 Zr38 Zr -0.00053 -0.00035 0.11638
 Zr39 Zr -0.00089 0.00015 -0.11749
 Zr40 Zr -0.00092 -0.11699 -0.00023
 O41 O -0.06102 -0.06029 -0.06088
 O42 O 0.05959 -0.06045 0.05990
 C43 C 0.15028 -0.15104 0.00327
 C44 C -0.15233 -0.15164 -0.00368
 C45 C 0.15060 -0.00377 0.15069
 C46 C 0.15036 0.00311 -0.15159
 C47 C -0.15217 -0.00342 -0.15220
 C48 C -0.15146 0.00326 0.15047
 C49 C 0.00257 -0.15183 0.15139
 C50 C -0.00447 -0.15095 -0.15144
 H51 H -0.08900 -0.08858 0.08790
 O52 O -0.06073 -0.06023 0.05955
 H53 H 0.08723 -0.08830 -0.08859
 O54 O 0.05891 -0.06000 -0.06031
 O55 O 0.32934 0.59032 0.00246
 O56 O 0.67109 0.59075 -0.00158
 O57 O 0.49810 0.67160 0.09063
 O58 O 0.50252 0.67127 -0.08919
 O59 O 0.50226 0.59023 -0.17023
 O60 O 0.49822 0.59057 0.17169
 O61 O 0.59006 0.67174 -0.00157
 O62 O 0.41035 0.67139 0.00275
 Zr63 Zr 0.50021 0.61750 0.00070
 O64 O 0.56011 0.56089 -0.05961
 O65 O 0.43996 0.56087 0.06070
 C66 C 0.34903 0.65162 0.00365
 C67 C 0.65147 0.65215 -0.00267
 C68 C 0.49719 0.65208 0.15219
 C69 C 0.50357 0.65146 -0.15048
 H70 H 0.58871 0.58907 0.08915
 O71 O 0.56032 0.56073 0.06078
 H72 H 0.41171 0.58898 -0.08798
 O73 O 0.44011 0.56065 -0.05954
 O74 O 0.67080 0.41095 0.00316
 O75 O 0.32918 0.41085 -0.00205
 O76 O 0.59036 0.49833 0.17170
 O77 O 0.58950 0.50290 -0.17034
 O78 O 0.40973 0.49859 -0.17076
 O79 O 0.41056 0.50296 0.17132
 O80 O 0.50253 0.32995 0.09024
 O81 O 0.49773 0.32981 -0.08924
 O82 O 0.50278 0.41082 0.17142
 O83 O 0.49753 0.41077 -0.17046
 O84 O 0.67115 0.49840 0.09076
 O85 O 0.32943 0.50287 0.09000
 O86 O 0.32893 0.49861 -0.08987
 O87 O 0.67073 0.50311 -0.08914
 O88 O 0.58967 0.33000 0.00301
 O89 O 0.41022 0.32987 -0.00184
 Zr90 Zr 0.61696 0.50084 0.00075
 Zr91 Zr 0.38328 0.50063 0.00022
 Zr92 Zr 0.50036 0.50075 0.11750
 Zr93 Zr 0.49976 0.50057 -0.11636
 Zr94 Zr 0.49999 0.38401 0.00050
 O95 O 0.43953 0.44034 -0.05999
 O96 O 0.56038 0.44056 0.06089
 C97 C 0.65099 0.34964 0.00416
 C98 C 0.34886 0.34950 -0.00303
 C99 C 0.65178 0.49729 0.15225
 C100 C 0.65091 0.50406 -0.15058
 C101 C 0.34825 0.49764 -0.15140
 C102 C 0.34918 0.50397 0.15145
 C103 C 0.50379 0.34954 0.15160
 C104 C 0.49662 0.34940 -0.15069
 H105 H 0.41196 0.41242 0.08875
 O106 O 0.44026 0.44080 0.06046
 H107 H 0.58819 0.41249 -0.08763
 O108 O 0.55995 0.44082 -0.05932
 O109 O -0.17116 0.59021 0.50192
 O110 O 0.17054 0.58973 0.49800
 O111 O -0.00259 0.67078 0.58947
 O112 O 0.00179 0.67128 0.40963
 O113 O 0.00169 0.59030 0.32862
 O114 O -0.00237 0.58974 0.67073
 O115 O 0.08956 0.67083 0.49755
 O116 O -0.09020 0.67116 0.50184
 Zr117 Zr -0.00032 0.61699 0.49968
 O118 O 0.05994 0.56039 0.43978
 O119 O -0.06022 0.56030 0.56010
 C120 C -0.15170 0.65171 0.50289
 C121 C 0.15087 0.65103 0.49668
 C122 C -0.00363 0.65103 0.65084
 C123 C 0.00274 0.65173 0.34816
 H124 H 0.08812 0.58835 0.58842
 O125 O 0.05972 0.56003 0.56003
 H126 H -0.08878 0.58864 0.41125
 O127 O -0.06040 0.56026 0.43966
 O128 O 0.17068 0.41026 0.50267
 O129 O -0.17090 0.41043 0.49741
 O130 O 0.09010 0.49792 0.67143
 O131 O 0.08942 0.50267 0.32925
 O132 O -0.09043 0.49798 0.32879
 O133 O -0.08969 0.50228 0.67091
 O134 O 0.00204 0.32901 0.59013
 O135 O -0.00260 0.32945 0.41028
 O136 O 0.00221 0.40988 0.67126
 O137 O -0.00278 0.41050 0.32907
 O138 O 0.17095 0.49800 0.59047
 O139 O -0.17086 0.50255 0.58964
 O140 O -0.17127 0.49797 0.40980
 O141 O 0.17050 0.50244 0.41062
 O142 O 0.08967 0.32925 0.50252
 O143 O -0.08981 0.32943 0.49761
 Zr144 Zr 0.11658 0.50005 0.50037
 Zr145 Zr -0.11703 0.50030 0.49978
 Zr146 Zr 0.00008 0.49990 0.61702
 Zr147 Zr -0.00043 0.50036 0.38298
 Zr148 Zr -0.00011 0.38336 0.50018
 O149 O -0.06044 0.44009 0.43971
 O150 O 0.06030 0.43968 0.56067
 C151 C 0.15102 0.34890 0.50362
 C152 C -0.15112 0.34911 0.49639
 C153 C 0.15149 0.49702 0.65191
 C154 C 0.15078 0.50365 0.34916
 C155 C -0.15175 0.49690 0.34841
 C156 C -0.15108 0.50352 0.65110
 C157 C 0.00308 0.34848 0.65162
 C158 C -0.00379 0.34915 0.34885
 H159 H -0.08834 0.41184 0.58828
 O160 O -0.06005 0.44019 0.55995
 H161 H 0.08792 0.41198 0.41190
 O162 O 0.05961 0.44030 0.44016
 O163 O 0.32976 0.08913 0.50198
 O164 O 0.67131 0.08909 0.49784
 O165 O 0.49845 0.17022 0.58979
 O166 O 0.50276 0.17010 0.41031
 O167 O 0.50268 0.08920 0.32916
 O168 O 0.49855 0.08924 0.67098
 O169 O 0.59019 0.17004 0.49772
 O170 O 0.41075 0.17016 0.50209
 Zr171 Zr 0.50052 0.11605 0.50004
 O172 O 0.56065 0.05946 0.43990
 O173 O 0.44034 0.05967 0.56027
 C174 C 0.34941 0.15049 0.50308
 C175 C 0.65150 0.15039 0.49666
 C176 C 0.49743 0.15061 0.65122
 C177 C 0.50381 0.15049 0.34897
 H178 H 0.58905 0.08762 0.58848
 O179 O 0.56072 0.05926 0.56008
 H180 H 0.41215 0.08765 0.41146
 O181 O 0.44056 0.05929 0.43985
 O182 O 0.67169 -0.09067 0.50250
 O183 O 0.32995 -0.09031 0.49750
 O184 O 0.59061 -0.00289 0.67112
 O185 O 0.58998 0.00181 0.32917
 O186 O 0.41056 -0.00300 0.32901
 O187 O 0.41089 0.00153 0.67083
 O188 O 0.50332 -0.17125 0.58978
 O189 O 0.49835 -0.17163 0.40993
 O190 O 0.50325 -0.09018 0.67080
 O191 O 0.49815 -0.09052 0.32885
 O192 O 0.67154 -0.00308 0.59021
 O193 O 0.32983 0.00147 0.58951
 O194 O 0.32975 -0.00294 0.41004
 O195 O 0.67122 0.00177 0.41036
 O196 O 0.59069 -0.17170 0.50229
 O197 O 0.41093 -0.17141 0.49752
 Zr198 Zr 0.61747 -0.00079 0.50019
 Zr199 Zr 0.38391 -0.00063 0.49986
 Zr200 Zr 0.50075 -0.00054 0.61687
 Zr201 Zr 0.50042 -0.00072 0.38311
 Zr202 Zr 0.50080 -0.11752 0.49986
 O203 O 0.44031 -0.06091 0.43964
 O204 O 0.56091 -0.06089 0.56038
 C205 C 0.65210 -0.15209 0.50343
 C206 C 0.34962 -0.15162 0.49642
 C207 C 0.65191 -0.00405 0.65155
 C208 C 0.65134 0.00295 0.34896
 C209 C 0.34932 -0.00406 0.34871
 C210 C 0.34949 0.00253 0.65098
 C211 C 0.50441 -0.15142 0.65108
 C212 C 0.49719 -0.15195 0.34847
 H213 H 0.41260 -0.08894 0.58817
 O214 O 0.44092 -0.06064 0.55983
 H215 H 0.58890 -0.08899 0.41168
 O216 O 0.56062 -0.06068 0.43999
 N217 N 0.26732 0.18587 -0.00467
 C218 C 0.20204 0.20264 -0.00477
 N219 N 0.18526 0.26793 -0.00490
 N220 N 0.23202 0.31470 -0.00473
 C221 C 0.29731 0.29793 -0.00443
 N222 N 0.31409 0.23264 -0.00450
 N223 N 0.26766 -0.31476 0.49526
 C224 C 0.20247 -0.29768 0.49529
 N225 N 0.18588 -0.23237 0.49501
 N226 N 0.23282 -0.18583 0.49493
 C227 C 0.29802 -0.20291 0.49512
 N228 N 0.31460 -0.26822 0.49518
 N229 N 0.81526 0.73394 -0.00453
 C230 C 0.79862 0.79934 -0.00464
 N231 N 0.73322 0.81598 -0.00477
 N232 N 0.68643 0.76918 -0.00451
 C233 C 0.70315 0.70386 -0.00414
 N234 N 0.76847 0.68715 -0.00428
 N235 N 0.81464 0.23233 0.49505
 C236 C 0.79758 0.29753 0.49504
 N237 N 0.73227 0.31412 0.49489
 N238 N 0.68572 0.26719 0.49498
 C239 C 0.70279 0.20199 0.49522
 N240 N 0.76809 0.18540 0.49514
 N241 N 0.81414 0.26769 0.00484
 C242 C 0.79707 0.20250 0.00445
 N243 N 0.73176 0.18590 0.00472
 N244 N 0.68521 0.23283 0.00512
 C245 C 0.70228 0.29803 0.00528
 N246 N 0.76758 0.31463 0.00524
 N247 N 0.81592 -0.23386 0.50439
 C248 C 0.79928 -0.29926 0.50415
 N249 N 0.73388 -0.31591 0.50440
 N250 N 0.68709 -0.26911 0.50460
 C251 C 0.70381 -0.20379 0.50459
 N252 N 0.76913 -0.18707 0.50459
 N253 N 0.18580 0.23204 0.50473
 C254 C 0.20258 0.29733 0.50479
 N255 N 0.26787 0.31410 0.50486
 N256 N 0.31463 0.26733 0.50470
 C257 C 0.29785 0.20205 0.50443
 N258 N 0.23256 0.18527 0.50456
 N259 N 0.18531 0.73237 0.00485
 C260 C 0.20189 0.79768 0.00472
 N261 N 0.26708 0.81477 0.00491
 N262 N 0.31403 0.76822 0.00500
 C263 C 0.29745 0.70291 0.00489
 N264 N 0.23225 0.68583 0.00493
 N265 N -0.00532 0.26764 0.18523
 C266 C -0.00513 0.20236 0.20212
 N267 N -0.00516 0.18557 0.26748
 N268 N -0.00515 0.23233 0.31422
 C269 C -0.00513 0.29761 0.29733
 N270 N -0.00532 0.31440 0.23198
 N271 N 0.49548 0.31439 0.73241
 C272 C 0.49553 0.29774 0.79781
 N273 N 0.49564 0.23247 0.81478
 N274 N 0.49588 0.18560 0.76812
 C275 C 0.49603 0.20226 0.70272
 N276 N 0.49572 0.26753 0.68574
 N277 N -0.00575 0.81445 0.73187
 C278 C -0.00572 0.79763 0.79720
 N279 N -0.00565 0.73241 0.81419
 N280 N -0.00541 0.68564 0.76750
 C281 C -0.00520 0.70245 0.70218
 N282 N -0.00551 0.76768 0.68519
 N283 N 0.49581 -0.23353 0.18455
 C284 C 0.49605 -0.29895 0.20123
 N285 N 0.49595 -0.31566 0.26669
 N286 N 0.49591 -0.26891 0.31350
 C287 C 0.49593 -0.20358 0.29675
 N288 N 0.49577 -0.18679 0.23137
 N289 N 0.00400 0.81568 0.26604
 C290 C 0.00374 0.79908 0.20058
 N291 N 0.00381 0.73366 0.18402
 N292 N 0.00388 0.68684 0.23092
 C293 C 0.00389 0.70352 0.29630
 N294 N 0.00406 0.76885 0.31294
 N295 N 0.50552 -0.23212 0.81472
 C296 C 0.50519 -0.29735 0.79805
 N297 N 0.50541 -0.31442 0.73284
 N298 N 0.50566 -0.26784 0.68590
 C299 C 0.50572 -0.20260 0.70257
 N300 N 0.50577 -0.18554 0.76778
 N301 N 0.50539 0.31434 0.26826
 C302 C 0.50520 0.29787 0.20289
 N303 N 0.50522 0.23271 0.18575
 N304 N 0.50521 0.18568 0.23230
 C305 C 0.50517 0.20215 0.29767
 N306 N 0.50539 0.26731 0.31481
 N307 N 0.00383 0.26618 0.81549
 C308 C 0.00348 0.20082 0.79873
 N309 N 0.00369 0.18438 0.73323
 N310 N 0.00397 0.23133 0.68649
 C311 C 0.00408 0.29661 0.70332
 N312 N 0.00410 0.31312 0.76873
 N313 N 0.18562 -0.00544 0.26743
 C314 C 0.20220 -0.00522 0.20212
 N315 N 0.26737 -0.00533 0.18522
 N316 N 0.31431 -0.00541 0.23197
 C317 C 0.29773 -0.00538 0.29727
 N318 N 0.23255 -0.00551 0.31417
 N319 N 0.31556 0.49623 0.73399
 C320 C 0.29909 0.49646 0.79944
 N321 N 0.23372 0.49623 0.81602
 N322 N 0.18680 0.49602 0.76912
 C323 C 0.20335 0.49602 0.70375
 N324 N 0.26863 0.49603 0.68711
 N325 N 0.81553 -0.00497 0.73343
 C326 C 0.79890 -0.00479 0.79880
 N327 N 0.73358 -0.00514 0.81540
 N328 N 0.68676 -0.00535 0.76850
 C329 C 0.70348 -0.00526 0.70322
 N330 N 0.76871 -0.00519 0.68654
 N331 N -0.31565 0.49571 0.26668
 C332 C -0.29916 0.49596 0.20126
 N333 N -0.23384 0.49576 0.18458
 N334 N -0.18692 0.49563 0.23142
 C335 C -0.20349 0.49565 0.29675
 N336 N -0.26872 0.49558 0.31350
 N337 N 0.18555 0.00421 0.73159
 C338 C 0.20210 0.00419 0.79706
 N339 N 0.26736 0.00417 0.81428
 N340 N 0.31431 0.00401 0.76780
 C341 C 0.29776 0.00384 0.70234
 N342 N 0.23251 0.00405 0.68512
 N343 N 0.31441 0.50523 0.26825
 C344 C 0.29765 0.50521 0.20285
 N345 N 0.23237 0.50531 0.18577
 N346 N 0.18558 0.50523 0.23238
 C347 C 0.20234 0.50504 0.29778
 N348 N 0.26761 0.50515 0.31486
 N349 N 0.81442 0.00466 0.26731
 C350 C 0.79729 0.00461 0.20201
 N351 N 0.73196 0.00470 0.18525
 N352 N 0.68545 0.00462 0.23211
 C353 C 0.70258 0.00444 0.29741
 N354 N 0.76791 0.00458 0.31417
 N355 N -0.31455 0.50529 0.73249
 C356 C -0.29764 0.50525 0.79786
 N357 N -0.23231 0.50526 0.81474
 N358 N -0.18564 0.50511 0.76800
 C359 C -0.20255 0.50493 0.70263
 N360 N -0.26788 0.50514 0.68574
   
