data_POSCAR
  _audit_creation_date              2014-09-24
  _audit_creation_method            'ToBaCCo'
  _symmetry_space_group_name_H-M    'P1'
  _symmetry_Int_Tables_number       1
  _symmetry_cell_setting            triclinic
  loop_
  _symmetry_equiv_pos_as_xyz
 x,y,z
_cell_length_a 31.7821
_cell_length_b 30.7381
_cell_length_c 25.7363
_cell_angle_alpha 89.944700
_cell_angle_beta 89.947400
_cell_angle_gamma 90.064900
loop_
  _atom_site_label
  _atom_site_type_symbol
  _atom_site_fract_x
  _atom_site_fract_y
  _atom_site_fract_z
C1 C 1.18598 0.25513 0.32888
 H2 H 1.18745 0.22003 0.32626
 C3 C 1.15441 0.27481 0.35839
 H4 H 1.13186 0.25501 0.37937
 C5 C 1.21199 0.32404 0.30211
 H6 H 1.23395 0.34306 0.27949
 C7 C 1.18113 0.34497 0.33126
 H8 H 1.17956 0.38019 0.33123
 N9 N 1.21276 0.27990 0.29987
 C10 C 1.22233 0.19618 0.16618
 H11 H 1.25559 0.18907 0.16368
 C12 C 1.19384 0.17451 0.13395
 H13 H 1.20506 0.15006 0.10701
 C14 C 1.16656 0.23565 0.20520
 H15 H 1.15588 0.26007 0.23219
 C16 C 1.13715 0.21492 0.17372
 H17 H 1.10401 0.22240 0.17787
 Zn18 Zn 1.24580 0.25082 0.25004
 N19 N 1.20805 0.22470 0.20251
 C20 C 1.27208 0.16486 0.27942
 N21 N 1.27833 0.20834 0.28662
 C22 C 1.30561 0.22300 0.32341
 C23 C 1.32878 0.19366 0.35354
 C24 C 1.29466 0.13434 0.30869
 C25 C 1.25862 0.32054 0.18135
 C26 C 1.28093 0.35110 0.15176
 C27 C 1.34564 0.31999 0.18380
 C28 C 1.32215 0.29003 0.21281
 N29 N 1.27936 0.29110 0.21158
 H30 H 1.24920 0.15360 0.25155
 H31 H 1.30926 0.25762 0.32946
 H32 H 1.35084 0.20600 0.38208
 H33 H 1.28973 0.09990 0.30194
 H34 H 1.22459 0.32037 0.18042
 H35 H 1.26408 0.37448 0.12815
 H36 H 1.37970 0.31898 0.18522
 H37 H 1.33815 0.26593 0.23610
 C38 C 1.15082 0.18340 0.13871
 C39 C 1.15135 0.32012 0.35826
 C40 C 1.32489 0.35094 0.15310
 C41 C 1.32339 0.14881 0.34615
 C42 C 0.69354 -0.22035 0.32246
 H43 H 0.68843 -0.25470 0.32920
 C44 C 0.67040 -0.18963 0.35048
 H45 H 0.64689 -0.20041 0.37816
 C46 C 0.73080 -0.16428 0.27896
 H47 H 0.75513 -0.15435 0.25218
 C48 C 0.70829 -0.13245 0.30617
 H49 H 0.71464 -0.09832 0.29912
 N50 N 0.72271 -0.20736 0.28693
 C51 C 0.74275 -0.32155 0.18549
 H52 H 0.77678 -0.32226 0.18612
 C53 C 0.72062 -0.35224 0.15605
 H54 H 0.73758 -0.37656 0.13398
 C55 C 0.67906 -0.28886 0.21325
 H56 H 0.66297 -0.26395 0.23514
 C57 C 0.65575 -0.31891 0.18432
 H58 H 0.62171 -0.31709 0.18430
 Zn59 Zn 0.75508 -0.25149 0.25342
 N60 N 0.72181 -0.29104 0.21390
 C61 C 0.78347 -0.32536 0.30856
 N62 N 0.78477 -0.28125 0.30566
 C63 C 0.81151 -0.25747 0.33574
 C64 C 0.84151 -0.27835 0.36650
 C65 C 0.81264 -0.34746 0.33902
 C66 C 0.78280 -0.19936 0.16978
 C67 C 0.81267 -0.17800 0.13919
 C68 C 0.86758 -0.21716 0.18422
 C69 C 0.83676 -0.23770 0.21393
 N70 N 0.79542 -0.22710 0.20787
 H71 H 0.76141 -0.34355 0.28523
 H72 H 0.81162 -0.22236 0.33265
 H73 H 0.86448 -0.25944 0.38784
 H74 H 0.81294 -0.38271 0.33910
 H75 H 0.74968 -0.19248 0.16474
 H76 H 0.80264 -0.15413 0.11080
 H77 H 0.90051 -0.22425 0.19101
 H78 H 0.84621 -0.26157 0.24234
 C79 C 0.67667 -0.35106 0.15567
 C80 C 0.67777 -0.14524 0.34226
 C81 C 0.85543 -0.18631 0.14750
 C82 C 0.84282 -0.32375 0.36663
 C83 C 0.69485 0.27969 -0.17852
 H84 H 0.69018 0.24528 -0.17172
 C85 C 0.67169 0.31014 -0.15005
 H86 H 0.64863 0.29906 -0.12195
 C87 C 0.73092 0.33620 -0.22270
 H88 H 0.75477 0.34643 -0.24997
 C89 C 0.70836 0.36776 -0.19504
 H90 H 0.71422 0.40196 -0.20222
 N91 N 0.72344 0.29300 -0.21462
 C92 C 0.74244 0.17878 -0.31690
 H93 H 0.77647 0.17802 -0.31707
 C94 C 0.71980 0.14807 -0.34579
 H95 H 0.73641 0.12371 -0.36821
 C96 C 0.67923 0.21156 -0.28775
 H97 H 0.66347 0.23649 -0.26553
 C98 C 0.65543 0.18148 -0.31610
 H99 H 0.62139 0.18336 -0.31533
 Zn100 Zn 0.75578 0.24908 -0.24899
 N101 N 0.72199 0.20938 -0.28805
 C102 C 0.78537 0.17517 -0.19447
 N103 N 0.78626 0.21931 -0.19725
 C104 C 0.81298 0.24324 -0.16730
 C105 C 0.84313 0.22255 -0.13653
 C106 C 0.81473 0.15327 -0.16402
 C107 C 0.78291 0.30192 -0.33275
 C108 C 0.81260 0.32354 -0.36342
 C109 C 0.86780 0.28397 -0.31936
 C110 C 0.83712 0.26322 -0.28960
 N111 N 0.79573 0.27386 -0.29509
 H112 H 0.76339 0.15683 -0.21774
 H113 H 0.81281 0.27835 -0.17029
 H114 H 0.86593 0.24163 -0.11511
 H115 H 0.81521 0.11801 -0.16390
 H116 H 0.74976 0.30886 -0.33738
 H117 H 0.80218 0.34759 -0.39143
 H118 H 0.90074 0.27662 -0.31282
 H119 H 0.84673 0.23914 -0.26153
 C120 C 0.67583 0.14925 -0.34518
 C121 C 0.67840 0.35463 -0.15837
 C122 C 0.85551 0.31521 -0.35568
 C123 C 0.84471 0.17715 -0.13629
 C124 C 1.18606 -0.24422 -0.17224
 H125 H 1.18753 -0.27931 -0.17499
 C126 C 1.15487 -0.22465 -0.14209
 H127 H 1.13258 -0.24450 -0.12078
 C128 C 1.21166 -0.17522 -0.19939
 H129 H 1.23331 -0.15615 -0.22242
 C130 C 1.18119 -0.15439 -0.16958
 H131 H 1.17954 -0.11917 -0.16954
 N132 N 1.21237 -0.21935 -0.20175
 C133 C 1.22002 -0.30323 -0.33499
 H134 H 1.25325 -0.31036 -0.33810
 C135 C 1.19111 -0.32519 -0.36629
 H136 H 1.20195 -0.34986 -0.39319
 C137 C 1.16478 -0.26350 -0.29518
 H138 H 1.15449 -0.23888 -0.26821
 C139 C 1.13494 -0.28452 -0.32570
 H140 H 1.10185 -0.27707 -0.32089
 Zn141 Zn 1.24453 -0.24843 -0.25208
 N142 N 1.20622 -0.27449 -0.29866
 C143 C 1.27046 -0.33421 -0.22238
 N144 N 1.27713 -0.29073 -0.21587
 C145 C 1.30462 -0.27588 -0.17944
 C146 C 1.32750 -0.30508 -0.14887
 C147 C 1.29276 -0.36455 -0.19261
 C148 C 1.25675 -0.17889 -0.32091
 C149 C 1.27886 -0.14846 -0.35083
 C150 C 1.34378 -0.18006 -0.32006
 C151 C 1.32049 -0.20989 -0.29070
 N152 N 1.27771 -0.20847 -0.29112
 H153 H 1.24737 -0.34558 -0.24993
 H154 H 1.30854 -0.24122 -0.17392
 H155 H 1.34973 -0.29284 -0.12052
 H156 H 1.28762 -0.39904 -0.19853
 H157 H 1.22271 -0.17885 -0.32117
 H158 H 1.26188 -0.12490 -0.37404
 H159 H 1.37785 -0.18127 -0.31926
 H160 H 1.33660 -0.23412 -0.26775
 C161 C 1.14816 -0.31634 -0.36056
 C162 C 1.15179 -0.17936 -0.14214
 C163 C 1.32282 -0.14894 -0.35026
 C164 C 1.32155 -0.34985 -0.15548
 C165 C 0.25681 0.17957 0.68310
 H166 H 0.22279 0.17841 0.68413
 C167 C 0.27901 0.15011 0.65200
 H168 H 0.26212 0.12619 0.62923
 C169 C 0.32037 0.21229 0.71130
 H170 H 0.33639 0.23677 0.73399
 C171 C 0.34376 0.18348 0.68071
 H172 H 0.37778 0.18574 0.68035
 N173 N 0.27765 0.20950 0.71251
 C174 C 0.18859 0.24086 0.83624
 H175 H 0.18926 0.27602 0.83433
 C176 C 0.15843 0.21995 0.86686
 H177 H 0.13621 0.23896 0.88929
 C178 C 0.21482 0.17306 0.80629
 H179 H 0.23622 0.15499 0.78191
 C180 C 0.18543 0.15088 0.83653
 H181 H 0.18446 0.11563 0.83541
 Zn182 Zn 0.24440 0.24797 0.75361
 N183 N 0.21457 0.21724 0.80502
 C184 C 0.16273 0.26193 0.71477
 N185 N 0.20396 0.27325 0.70905
 C186 C 0.21635 0.30179 0.67164
 C187 C 0.18632 0.32292 0.64119
 C188 C 0.13177 0.28222 0.68519
 C189 C 0.30579 0.27717 0.82387
 C190 C 0.32885 0.30704 0.85330
 C191 C 0.29153 0.36549 0.81091
 C192 C 0.26908 0.33449 0.78224
 N193 N 0.27691 0.29120 0.78863
 H194 H 0.15348 0.23752 0.74265
 H195 H 0.24940 0.30925 0.66683
 H196 H 0.19615 0.34725 0.61319
 H197 H 0.09892 0.27439 0.69158
 H198 H 0.31070 0.24264 0.82929
 H199 H 0.35214 0.29545 0.88072
 H200 H 0.28542 0.39981 0.80510
 H201 H 0.24502 0.34518 0.75560
 C202 C 0.15608 0.17458 0.86557
 C203 C 0.32295 0.15195 0.65095
 C204 C 0.32171 0.35165 0.84681
 C205 C 0.14365 0.31361 0.64894
 C206 C 0.77789 0.69837 0.66334
 H207 H 0.74458 0.69154 0.66040
 C208 C 0.80648 0.67627 0.63167
 H209 H 0.79528 0.65189 0.60464
 C210 C 0.83368 0.73714 0.70332
 H211 H 0.84434 0.76138 0.73058
 C212 C 0.86321 0.71598 0.67242
 H213 H 0.89640 0.72299 0.67722
 N214 N 0.79210 0.72660 0.70003
 C215 C 0.69408 0.72194 0.82041
 H216 H 0.69008 0.75638 0.82744
 C217 C 0.67091 0.69172 0.84940
 H218 H 0.64852 0.70313 0.87810
 C219 C 0.72847 0.66508 0.77515
 H220 H 0.75172 0.65460 0.74731
 C221 C 0.70590 0.63373 0.80328
 H222 H 0.71118 0.59948 0.79575
 Zn223 Zn 0.75421 0.75184 0.74816
 N224 N 0.72178 0.70835 0.78349
 C225 C 0.67776 0.79179 0.71259
 N226 N 0.72055 0.79280 0.71092
 C227 C 0.74123 0.82298 0.68157
 C228 C 0.71888 0.85438 0.65345
 C229 C 0.65423 0.82259 0.68504
 C230 C 0.81422 0.75543 0.82698
 C231 C 0.84568 0.77509 0.85674
 C232 C 0.81794 0.84528 0.83171
 C233 C 0.78725 0.82439 0.80224
 N234 N 0.78706 0.78029 0.79877
 H235 H 0.66179 0.76714 0.73516
 H236 H 0.77526 0.82280 0.68030
 H237 H 0.73569 0.87831 0.63048
 H238 H 0.62018 0.82157 0.68676
 H239 H 0.81321 0.72037 0.82344
 H240 H 0.86859 0.75527 0.87696
 H241 H 0.81907 0.88051 0.83256
 H242 H 0.76495 0.84349 0.78034
 C243 C 0.67674 0.64712 0.84076
 C244 C 0.84957 0.68447 0.63736
 C245 C 0.84818 0.82044 0.85775
 C246 C 0.67492 0.85434 0.65534
 C247 C 0.77916 0.19878 0.16204
 H248 H 0.74589 0.19172 0.15909
 C249 C 0.80790 0.17687 0.13043
 H250 H 0.79687 0.15236 0.10344
 C251 C 0.83469 0.23798 0.20201
 H252 H 0.84516 0.26233 0.22924
 C253 C 0.86436 0.21702 0.17117
 H254 H 0.89750 0.22424 0.17599
 N255 N 0.79320 0.22709 0.19873
 C256 C 0.69525 0.22237 0.31883
 H257 H 0.69135 0.25683 0.32578
 C258 C 0.67224 0.19227 0.34812
 H259 H 0.64999 0.20366 0.37696
 C260 C 0.72942 0.16534 0.27357
 H261 H 0.75258 0.15476 0.24565
 C262 C 0.70698 0.13412 0.30202
 H263 H 0.71213 0.09983 0.29472
 Zn264 Zn 0.75525 0.25201 0.24681
 N265 N 0.72278 0.20862 0.28180
 C266 C 0.67911 0.29227 0.21136
 N267 N 0.72189 0.29316 0.20989
 C268 C 0.74281 0.32349 0.18103
 C269 C 0.72070 0.35522 0.15323
 C270 C 0.65580 0.32340 0.18412
 C271 C 0.81506 0.25501 0.32555
 C272 C 0.84638 0.27452 0.35560
 C273 C 0.81816 0.34482 0.33175
 C274 C 0.78763 0.32409 0.30196
 N275 N 0.78780 0.28005 0.29773
 H276 H 0.66298 0.26749 0.23356
 H277 H 0.77684 0.32317 0.17996
 H278 H 0.73766 0.37928 0.13065
 H279 H 0.62174 0.32252 0.18566
 H280 H 0.81425 0.22000 0.32142
 H281 H 0.86945 0.25464 0.37546
 H282 H 0.81907 0.38005 0.33318
 H283 H 0.76518 0.34327 0.28040
 C284 C 0.67809 0.14770 0.33964
 C285 C 0.85092 0.18536 0.13619
 C286 C 0.84855 0.31986 0.35730
 C287 C 0.67675 0.35531 0.15498
 C288 C 0.25849 0.68068 0.18475
 H289 H 0.22445 0.67998 0.18513
 C290 C 0.28071 0.65064 0.15443
 H291 H 0.26379 0.62682 0.13154
 C292 C 0.32209 0.71268 0.21390
 H293 H 0.33814 0.73707 0.23669
 C294 C 0.34550 0.68327 0.18410
 H295 H 0.37955 0.68505 0.18439
 N296 N 0.27932 0.71057 0.21426
 C297 C 0.18922 0.74258 0.33681
 H298 H 0.18966 0.77773 0.33468
 C299 C 0.15906 0.72158 0.36738
 H300 H 0.13655 0.74044 0.38951
 C301 C 0.21608 0.67481 0.30766
 H302 H 0.23774 0.65674 0.28365
 C303 C 0.18668 0.65259 0.33786
 H304 H 0.18587 0.61735 0.33710
 Zn305 Zn 0.24591 0.74958 0.25474
 N306 N 0.21557 0.71899 0.30601
 C307 C 0.16447 0.76361 0.21478
 N308 N 0.20576 0.77492 0.20951
 C309 C 0.21837 0.80340 0.17212
 C310 C 0.18852 0.82441 0.14120
 C311 C 0.13371 0.78376 0.18471
 C312 C 0.30703 0.77893 0.32563
 C313 C 0.33018 0.80883 0.35500
 C314 C 0.29350 0.86729 0.31169
 C315 C 0.27099 0.83621 0.28314
 N316 N 0.27846 0.79290 0.28998
 H317 H 0.15503 0.73928 0.24266
 H318 H 0.25144 0.81089 0.16764
 H319 H 0.19854 0.84865 0.11320
 H320 H 0.10082 0.77589 0.19075
 H321 H 0.31169 0.74440 0.33142
 H322 H 0.35322 0.79703 0.38268
 H323 H 0.28754 0.90160 0.30527
 H324 H 0.24718 0.84690 0.25614
 C325 C 0.15707 0.67620 0.36651
 C326 C 0.32469 0.65178 0.15425
 C327 C 0.32347 0.85354 0.34804
 C328 C 0.14578 0.81505 0.14841
 O329 O 1.07495 -0.06145 0.09451
 O330 O 1.03647 -0.11048 0.04667
 C331 C 1.06498 -0.10059 0.08074
 O332 O 0.92120 0.05907 0.08782
 O333 O 0.96230 0.10780 0.04271
 C334 C 0.93158 0.09810 0.07384
 O335 O 0.92573 -0.06126 0.09520
 O336 O 0.96397 -0.11032 0.04704
 C337 C 0.93564 -0.10042 0.08133
 O338 O 1.08020 0.05849 0.08697
 O339 O 1.03921 0.10761 0.04267
 C340 C 1.06999 0.09763 0.07350
 Zr341 Zr 1.05236 -0.00134 0.06712
 O342 O 1.04316 0.00085 0.14839
 O343 O 1.11825 -0.00359 0.07779
 Zr344 Zr 0.94795 -0.00111 0.06703
 O345 O 0.95444 0.00134 0.14867
 O346 O 0.88159 -0.00369 0.07215
 O347 O 1.00007 -0.04088 0.07724
 O348 O 1.00033 0.03792 0.07619
 O349 O 1.07969 0.05777 -0.08631
 O350 O 1.03938 0.10732 -0.04185
 C351 C 1.07003 0.09696 -0.07275
 O352 O 0.92572 -0.06209 -0.09171
 O353 O 0.96308 -0.11093 -0.04234
 C354 C 0.93492 -0.10114 -0.07687
 O355 O 0.92149 0.05836 -0.08653
 O356 O 0.96211 0.10757 -0.04182
 C357 C 0.93147 0.09750 -0.07287
 O358 O 1.07506 -0.06232 -0.09101
 O359 O 1.03692 -0.11108 -0.04225
 C360 C 1.06541 -0.10133 -0.07642
 Zr361 Zr 1.05247 -0.00190 -0.06485
 O362 O 1.04682 0.00289 -0.14668
 O363 O 1.11864 -0.00609 -0.07216
 Zr364 Zr 0.94760 -0.00162 -0.06429
 O365 O 0.94894 0.00289 -0.14640
 O366 O 0.88108 -0.00373 -0.06222
 Zr367 Zr 1.00014 -0.06705 0.00142
 Zr368 Zr 1.00059 0.06409 0.00068
 O369 O 1.00021 0.03700 -0.07428
 O370 O 0.99995 -0.04140 -0.07463
 O371 O 1.06127 0.03641 0.00085
 O372 O 0.93979 -0.03902 0.00162
 O373 O 1.06057 -0.03891 0.00140
 O374 O 0.93969 0.03704 0.00109
 H375 H 1.00041 0.05854 0.10579
 H376 H 0.91431 -0.05761 0.00195
 H377 H 1.00021 0.05731 -0.10422
 H378 H 1.08611 -0.05733 0.00163
 H379 H 0.87072 0.00538 0.03780
 H380 H 0.87142 -0.00370 -0.09885
 H381 H 0.96392 -0.02303 -0.15964
 H382 H 1.03801 -0.02591 -0.15995
 H383 H 1.13088 0.00988 -0.04246
 H384 H 1.13090 -0.00382 0.04274
 H385 H 1.07164 0.00261 0.16384
 H386 H 0.92544 0.00235 0.16277
 O387 O 0.92541 0.43736 0.40827
 O388 O 0.96314 0.38845 0.45717
 C389 C 0.93489 0.39829 0.42279
 O390 O 1.07973 0.55729 0.41583
 O391 O 1.03864 0.60666 0.45960
 C392 C 1.06970 0.59648 0.42917
 O393 O 1.07471 0.43748 0.40978
 O394 O 1.03593 0.38856 0.45770
 C395 C 1.06479 0.39840 0.42390
 O396 O 0.92024 0.55725 0.41471
 O397 O 0.96103 0.60668 0.45880
 C398 C 0.93023 0.59646 0.42812
 Zr399 Zr 0.94795 0.49759 0.43511
 O400 O 0.95797 0.49935 0.35397
 O401 O 0.88217 0.49565 0.42321
 Zr402 Zr 1.05234 0.49759 0.43696
 O403 O 1.04663 0.49953 0.35521
 O404 O 1.11874 0.49477 0.43291
 O405 O 1.00016 0.45786 0.42627
 O406 O 1.00025 0.53671 0.42636
 O407 O 0.91965 0.55817 0.58792
 O408 O 0.96085 0.60699 0.54325
 C409 C 0.93003 0.59722 0.57416
 O410 O 1.07246 0.43742 0.59671
 O411 O 1.03525 0.38852 0.54720
 C412 C 1.06295 0.39833 0.58222
 O413 O 1.07729 0.55813 0.59026
 O414 O 1.03719 0.60694 0.54424
 C415 C 1.06733 0.59716 0.57604
 O416 O 0.92326 0.43771 0.59398
 O417 O 0.96250 0.38870 0.54718
 C418 C 0.93349 0.39856 0.58060
 Zr419 Zr 0.94624 0.49796 0.56694
 O420 O 0.95015 0.50319 0.64888
 O421 O 0.87987 0.49414 0.57142
 Zr422 Zr 1.05133 0.49791 0.56816
 O423 O 1.04930 0.50293 0.65019
 O424 O 1.11784 0.49561 0.56710
 Zr425 Zr 0.99913 0.43219 0.50235
 Zr426 Zr 0.99936 0.56332 0.50152
 O427 O 0.99873 0.53662 0.57678
 O428 O 0.99858 0.45848 0.57805
 O429 O 0.93853 0.53588 0.50074
 O430 O 1.05961 0.46004 0.50289
 O431 O 0.93883 0.46037 0.50112
 O432 O 1.06013 0.53615 0.50253
 H433 H 1.00053 0.55723 0.39661
 H434 H 1.08501 0.44138 0.50326
 H435 H 0.99854 0.55697 0.60663
 H436 H 0.91335 0.44180 0.50095
 H437 H 1.12930 0.50393 0.46736
 H438 H 1.12712 0.49587 0.60388
 H439 H 1.03386 0.47726 0.66349
 H440 H 0.96022 0.47496 0.66254
 H441 H 0.86854 0.51150 0.54224
 H442 H 0.86913 0.49246 0.45785
 H443 H 0.92966 0.50114 0.33808
 H444 H 1.07575 0.50038 0.34149
 O445 O 0.55699 0.07949 0.59028
 O446 O 0.60481 0.04018 0.54241
 C447 C 0.59503 0.06921 0.57722
 O448 O 0.44084 -0.07890 0.58540
 O449 O 0.39327 -0.03772 0.53941
 C450 C 0.40291 -0.06842 0.57220
 O451 O 0.55669 -0.07499 0.59131
 O452 O 0.60464 -0.03613 0.54285
 C453 C 0.59476 -0.06491 0.57804
 O454 O 0.44113 0.08331 0.58456
 O455 O 0.39335 0.04190 0.53917
 C456 C 0.40311 0.07272 0.57171
 Zr457 Zr 0.49906 0.05604 0.56206
 O458 O 0.49770 0.04704 0.64346
 O459 O 0.49990 0.12445 0.57070
 Zr460 Zr 0.49891 -0.05217 0.56217
 O461 O 0.49703 -0.04544 0.64386
 O462 O 0.50145 -0.12084 0.56629
 O463 O 0.53731 0.00196 0.57226
 O464 O 0.46128 0.00199 0.57133
 O465 O 0.44144 0.08211 0.40597
 O466 O 0.39357 0.04151 0.45238
 C467 C 0.40340 0.07187 0.41920
 O468 O 0.55766 -0.07463 0.40229
 O469 O 0.60516 -0.03574 0.45109
 C470 C 0.59561 -0.06443 0.41589
 O471 O 0.44125 -0.07869 0.40677
 O472 O 0.39349 -0.03765 0.45258
 C473 C 0.40322 -0.06829 0.41980
 O474 O 0.55779 0.07873 0.40223
 O475 O 0.60521 0.03966 0.45093
 C476 C 0.59571 0.06837 0.41566
 Zr477 Zr 0.49947 0.05621 0.43072
 O478 O 0.49515 0.05338 0.34864
 O479 O 0.50331 0.12496 0.42887
 Zr480 Zr 0.49930 -0.05266 0.43124
 O481 O 0.49523 -0.05278 0.34911
 O482 O 0.50107 -0.12135 0.43549
 Zr483 Zr 0.56300 0.00195 0.49663
 Zr484 Zr 0.43552 0.00204 0.49613
 O485 O 0.46222 0.00178 0.42135
 O486 O 0.53753 0.00176 0.42089
 O487 O 0.46195 0.06501 0.49619
 O488 O 0.53586 -0.06051 0.49682
 O489 O 0.53584 0.06437 0.49647
 O490 O 0.46157 -0.06095 0.49653
 H491 H 0.44172 0.00204 0.60135
 H492 H 0.55417 -0.08658 0.49697
 H493 H 0.44316 0.00165 0.39090
 H494 H 0.55429 0.09035 0.49630
 H495 H 0.48908 -0.13195 0.53362
 H496 H 0.50119 -0.13205 0.39916
 H497 H 0.51887 -0.03513 0.33563
 H498 H 0.52102 0.03936 0.33540
 H499 H 0.48217 0.13629 0.45364
 H500 H 0.50708 0.13686 0.53642
 H501 H 0.49613 0.07656 0.65874
 H502 H 0.49606 -0.07538 0.65810
 O503 O 0.55865 0.57911 0.09097
 O504 O 0.60623 0.54077 0.04166
 C505 C 0.59660 0.56923 0.07715
 O506 O 0.44290 0.42171 0.08805
 O507 O 0.39480 0.46207 0.04191
 C508 C 0.40480 0.43175 0.07505
 O509 O 0.55875 0.42636 0.09255
 O510 O 0.60625 0.46471 0.04288
 C511 C 0.59668 0.43634 0.07860
 O512 O 0.44274 0.58305 0.08703
 O513 O 0.39481 0.54092 0.04295
 C514 C 0.40468 0.57205 0.07506
 Zr515 Zr 0.50049 0.55719 0.06175
 O516 O 0.49734 0.55825 0.14391
 O517 O 0.50219 0.62581 0.05611
 Zr518 Zr 0.50068 0.44844 0.06362
 O519 O 0.49918 0.45518 0.14532
 O520 O 0.50373 0.37979 0.06797
 O521 O 0.53876 0.50296 0.07251
 O522 O 0.46334 0.50270 0.07254
 O523 O 0.44178 0.58188 -0.09251
 O524 O 0.39427 0.54121 -0.04550
 C525 C 0.40384 0.57144 -0.07895
 O526 O 0.55825 0.42478 -0.09660
 O527 O 0.60604 0.46394 -0.04857
 C528 C 0.59629 0.43506 -0.08351
 O529 O 0.44198 0.42082 -0.09108
 O530 O 0.39444 0.46293 -0.04635
 C531 C 0.40402 0.43182 -0.07850
 O532 O 0.55797 0.57863 -0.09812
 O533 O 0.60588 0.53980 -0.04988
 C534 C 0.59604 0.56848 -0.08508
 Zr535 Zr 0.49997 0.55580 -0.06890
 O536 O 0.49502 0.55197 -0.15087
 O537 O 0.50317 0.62450 -0.07196
 Zr538 Zr 0.50010 0.44687 -0.06705
 O539 O 0.49557 0.44575 -0.14912
 O540 O 0.50195 0.37825 -0.06163
 Zr541 Zr 0.56415 0.50221 -0.00321
 Zr542 Zr 0.43652 0.50191 -0.00209
 O543 O 0.46283 0.50121 -0.07716
 O544 O 0.53810 0.50134 -0.07860
 O545 O 0.46252 0.56498 -0.00332
 O546 O 0.53721 0.43967 -0.00192
 O547 O 0.53704 0.56465 -0.00389
 O548 O 0.46274 0.43899 -0.00135
 H549 H 0.44445 0.50274 0.10320
 H550 H 0.55557 0.41364 -0.00165
 H551 H 0.44370 0.50102 -0.10754
 H552 H 0.55539 0.59073 -0.00425
 H553 H 0.48988 0.36842 0.03636
 H554 H 0.50183 0.36711 -0.09777
 H555 H 0.51858 0.46405 -0.16306
 H556 H 0.52118 0.53862 -0.16426
 H557 H 0.48758 0.63560 -0.04145
 H558 H 0.50261 0.63702 0.09221
 H559 H 0.51749 0.53628 0.15692
 H560 H 0.49875 0.42524 0.15962
 C561 C 1.12054 0.15661 0.11270
 C562 C 1.09612 0.13142 0.09360
 C563 C 1.11763 0.65655 0.61453
 C564 C 1.09321 0.63110 0.59605
 C565 C 0.65114 0.11812 0.62567
 C566 C 0.62760 0.09402 0.60251
 C567 C 0.65248 0.61783 0.12603
 C568 C 0.62916 0.59380 0.10255
 C569 C 0.88651 -0.15966 0.12270
 C570 C 0.91075 -0.13435 0.10342
 C571 C 0.88370 0.33962 0.62173
 C572 C 0.90824 0.36468 0.60239
 C573 C 0.34698 -0.11798 0.61979
 C574 C 0.37032 -0.09377 0.59650
 C575 C 0.34921 0.38194 0.12322
 C576 C 0.37247 0.40622 0.09981
 C577 C 0.87824 0.15420 -0.11106
 C578 C 0.90454 0.13081 -0.09250
 C579 C 0.87647 0.65312 0.39121
 C580 C 0.90296 0.62966 0.40913
 C581 C 0.34688 0.12111 0.37196
 C582 C 0.37078 0.09711 0.39471
 C583 C 0.34701 0.61983 -0.12640
 C584 C 0.37104 0.59625 -0.10342
 C585 C 1.11781 -0.15756 -0.11660
 C586 C 1.09152 -0.13465 -0.09733
 C587 C 1.11722 0.34208 0.38353
 C588 C 1.09089 0.36504 0.40279
 C589 C 0.65237 -0.11345 0.36916
 C590 C 0.62838 -0.08916 0.39115
 C591 C 0.65293 0.38616 -0.13098
 C592 C 0.62897 0.41033 -0.10863
 C593 C 1.12418 0.15290 -0.11071
 C594 C 1.09746 0.12994 -0.09218
 C595 C 1.12347 0.65310 0.39155
 C596 C 1.09699 0.62971 0.40990
 C597 C 0.65261 0.11658 0.36768
 C598 C 0.62856 0.09274 0.39041
 C599 C 0.65250 0.61749 -0.13305
 C600 C 0.62864 0.59326 -0.11046
 C601 C 0.88231 -0.15750 -0.11705
 C602 C 0.90867 -0.13447 -0.09790
 C603 C 0.88261 0.34185 0.38252
 C604 C 0.90886 0.36493 0.40168
 C605 C 0.34677 -0.11821 0.37332
 C606 C 0.37057 -0.09381 0.39567
 C607 C 0.34718 0.38267 -0.12509
 C608 C 0.37121 0.40670 -0.10268
 C609 C 1.11450 -0.15912 0.12276
 C610 C 1.09002 -0.13436 0.10294
 C611 C 1.11228 0.33962 0.62389
 C612 C 1.08784 0.36453 0.60440
 C613 C 0.65053 -0.11412 0.62649
 C614 C 0.62720 -0.08978 0.60340
 C615 C 0.65258 0.38714 0.12646
 C616 C 0.62926 0.41158 0.10364
 C617 C 0.88127 0.15789 0.11149
 C618 C 0.90561 0.13219 0.09334
 C619 C 0.87978 0.65695 0.61233
 C620 C 0.90406 0.63127 0.59391
 C621 C 0.34724 0.12169 0.62018
 C622 C 0.37059 0.09789 0.59639
 C623 C 0.34896 0.62109 0.12394
 C624 C 0.37223 0.59710 0.10021
   
