data_POSCAR
  _audit_creation_date              2014-09-24
  _audit_creation_method            'ToBaCCo'
  _symmetry_space_group_name_H-M    'P1'
  _symmetry_Int_Tables_number       1
  _symmetry_cell_setting            triclinic
  loop_
  _symmetry_equiv_pos_as_xyz
 x,y,z
_cell_length_a 45.6585
_cell_length_b 45.6335
_cell_length_c 21.5791
_cell_angle_alpha 89.875300
_cell_angle_beta 90.072900
_cell_angle_gamma 120.041500
loop_
  _atom_site_label
  _atom_site_type_symbol
  _atom_site_fract_x
  _atom_site_fract_y
  _atom_site_fract_z
C1 C 0.49990 0.99936 0.46957
 C2 C 0.50036 0.99925 0.53266
 C3 C 0.48394 0.96725 0.56892
 C4 C 0.51727 1.03112 0.56904
 C5 C 0.51501 1.03131 0.43325
 C6 C 0.48427 0.96754 0.43304
 C7 C 0.44936 0.94356 0.56181
 C8 C 0.43427 0.91383 0.59720
 C9 C 0.45358 0.90766 0.64034
 C10 C 0.48800 0.93137 0.64781
 C11 C 0.50304 0.96101 0.61246
 C12 C 0.49878 1.03719 0.61405
 C13 C 0.51427 1.06676 0.64936
 C14 C 0.54850 1.09052 0.64039
 C15 C 0.56723 1.08456 0.59591
 C16 C 0.55173 1.05492 0.56051
 C17 C 0.53955 1.03734 0.38815
 C18 C 0.55336 1.06671 0.35214
 C19 C 0.54267 1.09031 0.36050
 C20 C 0.51812 1.08447 0.40526
 C21 C 0.50424 1.05502 0.44139
 C22 C 0.49513 0.94380 0.43955
 C23 C 0.48076 0.91451 0.40317
 C24 C 0.45562 0.90884 0.35978
 C25 C 0.44481 0.93246 0.35307
 C26 C 0.45912 0.96168 0.38932
 H27 H 0.43407 0.94823 0.52929
 H28 H 0.40755 0.89590 0.59115
 H29 H 0.50329 0.92712 0.68116
 H30 H 0.52967 0.97908 0.61885
 H31 H 0.47226 1.01906 0.62157
 H32 H 0.49959 1.07103 0.68386
 H33 H 0.56659 1.05040 0.52684
 H34 H 0.54800 1.01927 0.38093
 H35 H 0.57221 1.07090 0.31744
 H36 H 0.50949 1.10245 0.41178
 H37 H 0.48488 1.05052 0.47513
 H38 H 0.51495 0.94817 0.47218
 H39 H 0.48949 0.89650 0.40840
 H40 H 0.42551 0.92842 0.31943
 H41 H 0.45057 0.97979 0.38336
 H42 H 0.59380 1.10266 0.58893
 C43 C -0.00056 0.49947 0.46689
 C44 C -0.00050 0.49989 0.52998
 C45 C 0.03141 0.51548 0.56631
 C46 C -0.03234 0.48484 0.56648
 C47 C -0.03250 0.48255 0.43064
 C48 C 0.03133 0.51592 0.43049
 C49 C 0.05509 0.50458 0.55956
 C50 C 0.08455 0.51900 0.59554
 C51 C 0.09045 0.54424 0.63878
 C52 C 0.06687 0.55505 0.64579
 C53 C 0.03748 0.54069 0.60992
 C54 C -0.03826 0.46033 0.61175
 C55 C -0.06750 0.44659 0.64795
 C56 C -0.09108 0.45732 0.63962
 C57 C -0.08534 0.48184 0.59468
 C58 C -0.05602 0.49564 0.55836
 C59 C -0.03863 0.50104 0.38553
 C60 C -0.06821 0.48552 0.35018
 C61 C -0.09194 0.45123 0.35920
 C62 C -0.08590 0.43252 0.40387
 C63 C -0.05625 0.44808 0.43929
 C64 C 0.05505 0.55051 0.43753
 C65 C 0.08470 0.56559 0.40211
 C66 C 0.09076 0.54629 0.35907
 C67 C 0.06708 0.51191 0.35158
 C68 C 0.03749 0.49683 0.38692
 H69 H 0.05056 0.48472 0.52700
 H70 H 0.10252 0.51027 0.59009
 H71 H 0.07109 0.57442 0.67932
 H72 H 0.01943 0.54927 0.61606
 H73 H -0.02019 0.45185 0.61896
 H74 H -0.07160 0.42777 0.68278
 H75 H -0.05160 0.51498 0.52450
 H76 H -0.02053 0.52757 0.37794
 H77 H -0.07243 0.50028 0.31560
 H78 H -0.10391 0.40591 0.41104
 H79 H -0.05167 0.43323 0.47305
 H80 H 0.05046 0.56581 0.47005
 H81 H 0.10273 0.59228 0.40792
 H82 H 0.07142 0.49679 0.31819
 H83 H 0.01942 0.47020 0.38056
 H84 H -0.10331 0.49050 0.58817
 C85 C 0.50023 0.50049 0.47047
 C86 C 0.49979 0.50007 0.53356
 C87 C 0.48282 0.51498 0.56978
 C88 C 0.51628 0.48467 0.57006
 C89 C 0.51562 0.48400 0.43421
 C90 C 0.48534 0.51747 0.43397
 C91 C 0.50121 0.53949 0.61499
 C92 C 0.48557 0.55328 0.65057
 C93 C 0.45127 0.54258 0.64168
 C94 C 0.43267 0.51798 0.59684
 C95 C 0.44835 0.50415 0.56118
 C96 C 0.55087 0.49564 0.56295
 C97 C 0.56606 0.48132 0.59882
 C98 C 0.54687 0.45609 0.64242
 C99 C 0.51246 0.44524 0.64985
 C100 C 0.49729 0.45952 0.61404
 C101 C 0.50464 0.44938 0.44144
 C102 C 0.51890 0.43418 0.40563
 C103 C 0.54406 0.45338 0.36206
 C104 C 0.55494 0.48780 0.35454
 C105 C 0.54074 0.50300 0.39025
 C106 C 0.46087 0.49907 0.38867
 C107 C 0.44718 0.51475 0.35270
 C108 C 0.45794 0.54906 0.36129
 C109 C 0.48245 0.56767 0.40622
 C110 C 0.49620 0.55198 0.44230
 H111 H 0.52774 0.54800 0.62255
 H112 H 0.50024 0.57216 0.68528
 H113 H 0.40605 0.50927 0.58975
 H114 H 0.43358 0.48480 0.52735
 H115 H 0.56609 0.51547 0.53010
 H116 H 0.59278 0.49015 0.59289
 H117 H 0.47066 0.45089 0.62045
 H118 H 0.48484 0.43415 0.47427
 H119 H 0.51010 0.40745 0.41148
 H120 H 0.57426 0.50285 0.32075
 H121 H 0.54939 0.52965 0.38373
 H122 H 0.45233 0.47251 0.38130
 H123 H 0.42836 0.50016 0.31787
 H124 H 0.49114 0.59430 0.41292
 H125 H 0.51552 0.56677 0.47619
 H126 H 0.49733 0.42588 0.68358
 O127 O 0.38407 0.65864 -0.05553
 O128 O 0.38243 0.71424 -0.07604
 C129 C 0.36653 0.72981 -0.08665
 O130 O 0.34091 0.72516 -0.05576
 O131 O 0.28498 0.66759 -0.07213
 C132 C 0.26941 0.63599 -0.08177
 O133 O 0.27450 0.61523 -0.05084
 O134 O 0.33133 0.61613 -0.07066
 C135 C 0.36256 0.63199 -0.08345
 O136 O 0.38447 0.66941 0.06739
 O137 O 0.38539 0.72625 0.04694
 C138 C 0.36462 0.73130 0.07766
 O139 O 0.33305 0.71575 0.06776
 O140 O 0.27552 0.65979 0.05136
 C141 C 0.27088 0.63420 0.08250
 O142 O 0.28644 0.61827 0.07223
 O143 O 0.34201 0.61662 0.05239
 C144 C 0.36860 0.63818 0.08041
 Cr145 Cr 0.38218 0.69118 -0.00424
 Cr146 Cr 0.30957 0.69112 -0.00219
 Cr147 Cr 0.30953 0.61848 0.00069
 O148 O 0.33377 0.66691 -0.00192
 O149 O 0.61795 0.33320 -0.07249
 O150 O 0.61606 0.27560 -0.05472
 C151 C 0.63751 0.27088 -0.08380
 O152 O 0.66880 0.28642 -0.07161
 O153 O 0.72566 0.34213 -0.05015
 C154 C 0.73082 0.36858 -0.07913
 O155 O 0.71530 0.38443 -0.06759
 O156 O 0.65928 0.38550 -0.04977
 C157 C 0.63387 0.36485 -0.08163
 O158 O 0.61476 0.34081 0.05084
 O159 O 0.61586 0.28475 0.06858
 C160 C 0.63172 0.26922 0.08013
 O161 O 0.65814 0.27445 0.05122
 O162 O 0.71382 0.33135 0.07269
 C163 C 0.72935 0.36264 0.08484
 O164 O 0.72462 0.38411 0.05569
 O165 O 0.66705 0.38216 0.07352
 C166 C 0.63544 0.36619 0.08272
 Cr167 Cr 0.61806 0.30954 -0.00188
 Cr168 Cr 0.69065 0.30954 0.00053
 Cr169 Cr 0.69061 0.38215 0.00289
 O170 O 0.66645 0.33373 0.00051
 C171 C 0.43954 0.88036 -0.32528
 C172 C 0.42717 0.85564 -0.29240
 C173 C 0.41339 0.82737 -0.25229
 C174 C 0.40211 0.80387 -0.21661
 C175 C 0.38937 0.77715 -0.17311
 C176 C 0.37881 0.75508 -0.13447
 C177 C 0.12011 0.55852 -0.32255
 C178 C 0.14440 0.57065 -0.28877
 C179 C 0.17218 0.58493 -0.24769
 C180 C 0.19534 0.59704 -0.21138
 C181 C 0.22180 0.61102 -0.16750
 C182 C 0.24385 0.62265 -0.12893
 C183 C 0.43609 0.55560 -0.32221
 C184 C 0.42334 0.56732 -0.28898
 C185 C 0.40922 0.58119 -0.24849
 C186 C 0.39777 0.59306 -0.21260
 C187 C 0.38499 0.60687 -0.16907
 C188 C 0.37453 0.61849 -0.13065
 C189 C 0.56432 0.12054 -0.32193
 C190 C 0.57686 0.14517 -0.28902
 C191 C 0.59079 0.17335 -0.24889
 C192 C 0.60214 0.19680 -0.21324
 C193 C 0.61489 0.22349 -0.16985
 C194 C 0.62539 0.24556 -0.13136
 C195 C 0.87944 0.44371 -0.32134
 C196 C 0.85531 0.43212 -0.28722
 C197 C 0.82771 0.41843 -0.24574
 C198 C 0.80470 0.40675 -0.20913
 C199 C 0.77836 0.39319 -0.16498
 C200 C 0.75638 0.38180 -0.12628
 C201 C 0.56159 0.44260 -0.32124
 C202 C 0.57397 0.43050 -0.28784
 C203 C 0.58772 0.41624 -0.24720
 C204 C 0.59893 0.40411 -0.21120
 C205 C 0.61151 0.39007 -0.16754
 C206 C 0.62188 0.37835 -0.12900
 C207 C 0.87967 0.43618 0.32342
 C208 C 0.85503 0.42352 0.29047
 C209 C 0.82685 0.40948 0.25027
 C210 C 0.80341 0.39805 0.21454
 C211 C 0.77673 0.38525 0.17104
 C212 C 0.75467 0.37474 0.13248
 C213 C 0.55636 0.11993 0.32165
 C214 C 0.56802 0.14418 0.28768
 C215 C 0.58179 0.17191 0.24636
 C216 C 0.59352 0.19503 0.20987
 C217 C 0.60713 0.22148 0.16583
 C218 C 0.61853 0.24356 0.12721
 C219 C 0.55819 0.43783 0.32361
 C220 C 0.57021 0.42553 0.29001
 C221 C 0.58437 0.41189 0.24910
 C222 C 0.59642 0.40078 0.21287
 C223 C 0.61037 0.38833 0.16897
 C224 C 0.62201 0.37806 0.13025
 C225 C 0.12076 0.56170 0.32127
 C226 C 0.14537 0.57394 0.28828
 C227 C 0.17353 0.58761 0.24807
 C228 C 0.19696 0.59881 0.21236
 C229 C 0.22361 0.61146 0.16885
 C230 C 0.24564 0.62197 0.13025
 C231 C 0.44145 0.87941 0.32059
 C232 C 0.42943 0.85534 0.28636
 C233 C 0.41529 0.82782 0.24476
 C234 C 0.40328 0.80487 0.20805
 C235 C 0.38942 0.77864 0.16377
 C236 C 0.37788 0.75675 0.12496
 C237 C 0.44432 0.56510 0.32261
 C238 C 0.43270 0.57777 0.28878
 C239 C 0.41896 0.59180 0.24759
 C240 C 0.40720 0.60317 0.21112
 C241 C 0.39352 0.61587 0.16697
 C242 C 0.38200 0.62626 0.12808
   
