data_POSCAR
  _audit_creation_date              2014-09-24
  _audit_creation_method            'ToBaCCo'
  _symmetry_space_group_name_H-M    'P1'
  _symmetry_Int_Tables_number       1
  _symmetry_cell_setting            triclinic
  loop_
  _symmetry_equiv_pos_as_xyz
 x,y,z
_cell_length_a 49.4054
_cell_length_b 48.6973
_cell_length_c 49.3174
_cell_angle_alpha 86.182000
_cell_angle_beta 88.745100
_cell_angle_gamma 91.128700
loop_
  _atom_site_label
  _atom_site_type_symbol
  _atom_site_fract_x
  _atom_site_fract_y
  _atom_site_fract_z
C1 C 0.27874 0.47699 0.99562
 C2 C 0.26500 0.50079 1.00173
 C3 C 0.27960 0.52400 1.00934
 C4 C 0.30813 0.52365 1.01094
 C5 C 0.32137 0.49936 1.00460
 C6 C 0.30693 0.47618 0.99695
 C7 C 0.23523 0.50083 1.00041
 C8 C 0.21935 0.50255 1.02419
 C9 C 0.19099 0.49832 1.02389
 C10 C 0.17903 0.49366 0.99884
 C11 C 0.19464 0.49309 0.97485
 C12 C 0.22276 0.49647 0.97575
 H13 H 0.26744 0.45911 0.98975
 H14 H 0.26844 0.54187 1.01463
 H15 H 0.22948 0.50505 1.04315
 H16 H 0.23502 0.49523 0.95739
 H17 H 0.34323 0.49845 1.00457
 H18 H 0.15722 0.49190 0.99746
 C19 C 0.72629 0.47555 -0.00687
 C20 C 0.73917 0.50053 -0.00163
 C21 C 0.72379 0.52418 0.00113
 C22 C 0.69549 0.52309 -0.00140
 C23 C 0.68292 0.49773 -0.00604
 C24 C 0.69810 0.47409 -0.00920
 C25 C 0.76889 0.50220 -0.00008
 C26 C 0.78505 0.49859 -0.02328
 C27 C 0.81360 0.49991 -0.02227
 C28 C 0.82531 0.50514 0.00280
 C29 C 0.80927 0.50867 0.02608
 C30 C 0.78104 0.50718 0.02455
 H31 H 0.73822 0.45742 -0.00943
 H32 H 0.73406 0.54353 0.00427
 H33 H 0.77507 0.49385 -0.04178
 H34 H 0.76853 0.50984 0.04248
 H35 H 0.66107 0.49616 -0.00703
 H36 H 0.84706 0.50724 0.00442
 C37 C 0.02095 0.22071 0.50520
 C38 C -0.00356 0.23467 0.50273
 C39 C -0.02798 0.21976 0.50109
 C40 C -0.02801 0.19091 0.50257
 C41 C -0.00340 0.17717 0.50472
 C42 C 0.02126 0.19183 0.50605
 C43 C -0.00366 0.26481 0.50349
 C44 C -0.00532 0.28160 0.47929
 C45 C -0.00340 0.31056 0.47965
 C46 C -0.00133 0.32189 0.50514
 C47 C 0.00077 0.30535 0.52932
 C48 C -0.00049 0.27670 0.52838
 H49 H 0.03966 0.23240 0.50691
 H50 H -0.04694 0.23054 0.49975
 H51 H -0.00640 0.27176 0.46029
 H52 H 0.00147 0.26362 0.54687
 H53 H -0.00355 0.15489 0.50507
 H54 H -0.00218 0.34393 0.50659
 C55 C 1.02504 0.78217 0.49341
 C56 C 1.00151 0.76567 0.49728
 C57 C 0.97647 0.77777 0.50175
 C58 C 0.97479 0.80645 0.50221
 C59 C 0.99845 0.82281 0.49792
 C60 C 1.02398 0.81108 0.49366
 C61 C 1.00344 0.73562 0.49651
 C62 C 1.00439 0.71901 0.52080
 C63 C 1.00926 0.69056 0.52045
 C64 C 1.01237 0.67925 0.49496
 C65 C 1.01044 0.69558 0.47056
 C66 C 1.00620 0.72386 0.47149
 H67 H 1.04393 0.77218 0.48928
 H68 H 0.95843 0.76485 0.50505
 H69 H 1.00296 0.72880 0.53985
 H70 H 1.00537 0.73680 0.45278
 H71 H 0.99678 0.84482 0.49892
 H72 H 1.01461 0.65728 0.49382
 C73 C 0.50081 0.02946 0.21738
 C74 C 0.50463 0.00559 0.23435
 C75 C 0.50703 -0.01997 0.22304
 C76 C 0.50497 -0.02182 0.19493
 C77 C 0.50182 0.00220 0.17811
 C78 C 0.49967 0.02803 0.18904
 C79 C 0.50453 0.00707 0.26408
 C80 C 0.48048 0.01303 0.27796
 C81 C 0.47972 0.01334 0.30642
 C82 C 0.50356 0.00812 0.32072
 C83 C 0.52786 0.00238 0.30709
 C84 C 0.52815 0.00173 0.27865
 H85 H 0.49845 0.04900 0.22636
 H86 H 0.50922 -0.03849 0.23620
 H87 H 0.46234 0.01712 0.26654
 H88 H 0.54661 -0.00309 0.26785
 H89 H 0.50124 0.00060 0.15632
 H90 H 0.50319 0.00829 0.34267
 C91 C 0.48975 0.02090 0.77581
 C92 C 0.49097 -0.00521 0.76556
 C93 C 0.49021 -0.02894 0.78340
 C94 C 0.48814 -0.02695 0.81183
 C95 C 0.48712 -0.00035 0.82153
 C96 C 0.48747 0.02343 0.80386
 C97 C 0.49174 -0.00766 0.73600
 C98 C 0.51643 -0.00475 0.72137
 C99 C 0.51706 -0.00597 0.69301
 C100 C 0.49272 -0.01033 0.67960
 C101 C 0.46787 -0.01329 0.69395
 C102 C 0.46757 -0.01194 0.72231
 H103 H 0.48987 0.03912 0.76193
 H104 H 0.49012 -0.04879 0.77474
 H105 H 0.53496 -0.00105 0.73203
 H106 H 0.44861 -0.01414 0.73380
 H107 H 0.48732 0.00238 0.84312
 H108 H 0.49314 -0.01110 0.65770
 C109 C 0.28780 0.03704 0.46349
 H110 H 0.28397 0.05328 0.47692
 C111 C 0.30772 0.04080 0.44299
 H112 H 0.31865 0.06031 0.44043
 C113 C 0.27848 -0.00830 0.45112
 H114 H 0.26766 -0.02772 0.45502
 C115 C 0.29848 -0.00557 0.43060
 H116 H 0.30277 -0.02308 0.41891
 N117 N 0.27367 0.01280 0.46716
 C118 C 0.21481 0.03976 0.52610
 H119 H 0.21913 0.02523 0.54292
 C120 C 0.19506 0.05944 0.52918
 H121 H 0.18490 0.06036 0.54876
 C122 C 0.22233 0.05538 0.47998
 H123 H 0.23230 0.05296 0.46058
 C124 C 0.20235 0.07513 0.48204
 H125 H 0.19727 0.08778 0.46406
 Zn126 Zn 0.25032 0.00744 0.49799
 N127 N 0.22801 0.03809 0.50182
 C128 C 0.27869 0.02231 0.54448
 N129 N 0.27284 0.00153 0.52830
 C130 C 0.28516 -0.02313 0.53161
 C131 C 0.30359 -0.02797 0.55232
 C132 C 0.29746 0.01855 0.56512
 C133 C 0.21199 -0.02263 0.47127
 C134 C 0.19181 -0.04253 0.46818
 C135 C 0.20144 -0.06261 0.51297
 C136 C 0.22147 -0.04228 0.51521
 N137 N 0.22636 -0.02283 0.49448
 H138 H 0.26958 0.04216 0.54074
 H139 H 0.28084 -0.03903 0.51792
 H140 H 0.31266 -0.04800 0.55480
 H141 H 0.30252 0.03574 0.57702
 H142 H 0.21589 -0.00657 0.45535
 H143 H 0.18051 -0.04192 0.44959
 H144 H 0.19722 -0.07738 0.53000
 H145 H 0.23226 -0.04142 0.53396
 C146 C 0.18804 0.07704 0.50679
 C147 C 0.31372 0.01912 0.42653
 C148 C 0.18605 -0.06265 0.48935
 C149 C 0.31036 -0.00684 0.56922
 C150 C 0.70824 0.01650 0.53136
 H151 H 0.71296 0.03374 0.51694
 C152 C 0.68801 0.01874 0.55116
 H153 H 0.67770 0.03807 0.55211
 C154 C 0.71615 -0.02955 0.54730
 H155 H 0.72667 -0.04857 0.54517
 C156 C 0.69568 -0.02835 0.56722
 H157 H 0.69069 -0.04660 0.58025
 N158 N 0.72198 -0.00727 0.52989
 C159 C 0.78594 0.02954 0.47650
 H160 H 0.78362 0.01767 0.45889
 C161 C 0.80546 0.05075 0.47609
 H162 H 0.81812 0.05517 0.45806
 C163 C 0.77357 0.03696 0.52210
 H164 H 0.76176 0.03091 0.54029
 C165 C 0.79302 0.05806 0.52268
 H166 H 0.79561 0.06850 0.54119
 Zn167 Zn 0.74712 -0.00825 0.50053
 N168 N 0.77040 0.02317 0.49924
 C169 C 0.72251 0.01334 0.45204
 N170 N 0.72614 -0.00940 0.46902
 C171 C 0.71196 -0.03317 0.46612
 C172 C 0.69310 -0.03474 0.44564
 C173 C 0.70357 0.01278 0.43140
 C174 C 0.78163 -0.04422 0.52876
 C175 C 0.80085 -0.06473 0.53194
 C176 C 0.79536 -0.07423 0.48490
 C177 C 0.77591 -0.05379 0.48274
 N178 N 0.76957 -0.03919 0.50448
 H179 H 0.73326 0.03233 0.45532
 H180 H 0.71481 -0.05076 0.48028
 H181 H 0.68201 -0.05390 0.44382
 H182 H 0.70007 0.03144 0.41891
 H183 H 0.77672 -0.03185 0.54554
 H184 H 0.81008 -0.06840 0.55151
 H185 H 0.80097 -0.08469 0.46698
 H186 H 0.76683 -0.04875 0.46334
 C187 C 0.80944 0.06496 0.49957
 C188 C 0.68110 -0.00401 0.56918
 C189 C 0.80845 -0.07968 0.50966
 C190 C 0.68817 -0.01137 0.42833
 C191 C 0.47320 0.21387 1.01277
 H192 H 0.45667 0.21629 0.99887
 C193 C 0.47112 0.19413 1.03456
 H194 H 0.45263 0.18189 1.03737
 C195 C 0.51687 0.22764 1.02614
 H196 H 0.53466 0.24076 1.02286
 C197 C 0.51592 0.20764 1.04788
 H198 H 0.53340 0.20533 1.06061
 N199 N 0.49593 0.22991 1.00873
 C200 C 0.45924 0.28925 0.95239
 H201 H 0.47046 0.28550 0.93397
 C202 C 0.43852 0.30831 0.95160
 H203 H 0.43362 0.31889 0.93238
 C204 C 0.45274 0.28071 1.00001
 H205 H 0.45894 0.27049 1.01892
 C206 C 0.43183 0.29959 1.00013
 H207 H 0.42210 0.30377 1.01926
 Zn208 Zn 0.49715 0.25385 0.97675
 N209 N 0.46618 0.27620 0.97641
 C210 C 0.47058 0.22311 0.93923
 N211 N 0.49560 0.23154 0.94664
 C212 C 0.51835 0.22222 0.93455
 C213 C 0.51641 0.20294 0.91486
 C214 C 0.46771 0.20414 0.91948
 C215 C 0.52424 0.30504 0.97295
 C216 C 0.54582 0.32388 0.97145
 C217 C 0.57666 0.28607 0.97495
 C218 C 0.55432 0.26778 0.97614
 N219 N 0.52864 0.27749 0.97499
 H220 H 0.45273 0.23053 0.94922
 H221 H 0.53806 0.22890 0.94074
 H222 H 0.53478 0.19483 0.90644
 H223 H 0.44756 0.19760 0.91414
 H224 H 0.50393 0.31270 0.97266
 H225 H 0.54167 0.34568 0.97011
 H226 H 0.59695 0.27810 0.97586
 H227 H 0.55756 0.24587 0.97837
 C228 C 0.42489 0.31407 0.97577
 C229 C 0.49295 0.19019 1.05212
 C230 C 0.57245 0.31454 0.97229
 C231 C 0.49082 0.19320 0.90751
 C232 C 0.47903 0.78853 -0.00864
 H233 H 0.46296 0.78424 0.00639
 C234 C 0.47575 0.80878 -0.02959
 H235 H 0.45683 0.81958 -0.03075
 C236 C 0.52315 0.77954 -0.02510
 H237 H 0.54193 0.76873 -0.02276
 C238 C 0.52086 0.79987 -0.04626
 H239 H 0.53795 0.80436 -0.06006
 N240 N 0.50225 0.77407 -0.00699
 C241 C 0.47200 0.70624 0.04814
 H242 H 0.48664 0.70741 0.06404
 C243 C 0.45129 0.68628 0.05056
 H244 H 0.44993 0.67237 0.06862
 C245 C 0.45650 0.72268 0.00504
 H246 H 0.45917 0.73624 -0.01310
 C247 C 0.43553 0.70292 0.00656
 H248 H 0.42223 0.70160 -0.01048
 Zn249 Zn 0.50484 0.74804 0.02309
 N250 N 0.47422 0.72395 0.02567
 C251 C 0.48459 0.77070 0.07053
 N252 N 0.50689 0.76855 0.05421
 C253 C 0.52963 0.78409 0.05741
 C254 C 0.53031 0.80323 0.07729
 C255 C 0.48431 0.78972 0.09049
 C256 C 0.53846 0.71415 -0.00494
 C257 C 0.55833 0.69475 -0.00853
 C258 C 0.57049 0.69784 0.03835
 C259 C 0.55083 0.71791 0.04080
 N260 N 0.53518 0.72545 0.01932
 H261 H 0.46645 0.75879 0.06712
 H262 H 0.54683 0.78246 0.04369
 H263 H 0.54814 0.81629 0.07879
 H264 H 0.46608 0.79185 0.10269
 H265 H 0.52521 0.71987 -0.02146
 H266 H 0.56075 0.68662 -0.02831
 H267 H 0.58175 0.69119 0.05609
 H268 H 0.54720 0.72647 0.06019
 C269 C 0.43294 0.68414 0.02941
 C270 C 0.49691 0.81486 -0.04869
 C271 C 0.57422 0.68562 0.01348
 C272 C 0.50716 0.80673 0.09360
 C273 C 1.03714 0.48729 0.22055
 H274 H 1.02955 0.46918 0.23240
 C275 C 1.05746 0.48471 0.20084
 H276 H 1.06570 0.46466 0.19784
 C277 C 1.03449 0.53512 0.20860
 H278 H 1.02479 0.55452 0.21122
 C279 C 1.05516 0.53357 0.18902
 H280 H 1.06141 0.55186 0.17657
 N281 N 1.02612 0.51222 0.22406
 C282 C 0.97225 0.46793 0.27940
 H283 H 0.95380 0.47235 0.26873
 C284 C 0.97230 0.44684 0.30013
 H285 H 0.95381 0.43514 0.30520
 C286 C 1.01817 0.47914 0.28732
 H287 H 1.03585 0.49215 0.28245
 C288 C 1.01918 0.45827 0.30795
 H289 H 1.03791 0.45509 0.31859
 Zn290 Zn 0.99621 0.51456 0.24829
 N291 N 0.99500 0.48362 0.27354
 C292 C 0.95782 0.49310 0.21445
 N293 N 0.96502 0.51622 0.22677
 C294 C 0.95226 0.54040 0.22129
 C295 C 0.93139 0.54194 0.20259
 C296 C 0.93679 0.49360 0.19602
 C297 C 1.02397 0.55841 0.27188
 C298 C 1.02691 0.57869 0.29042
 C299 C 0.97946 0.57260 0.30273
 C300 C 0.97750 0.55225 0.28420
 N301 N 0.99954 0.54562 0.26917
 H302 H 0.96891 0.47438 0.21847
 H303 H 0.95896 0.55877 0.23055
 H304 H 0.92178 0.56143 0.19792
 H305 H 0.93170 0.47515 0.18595
 H306 H 1.04150 0.55208 0.26059
 H307 H 1.04660 0.58830 0.29275
 H308 H 0.96188 0.57707 0.31504
 H309 H 0.95855 0.54110 0.28234
 C310 C 0.99591 0.44211 0.31498
 C311 C 1.06658 0.50804 0.18477
 C312 C 1.00452 0.58577 0.30633
 C313 C 0.92359 0.51835 0.18961
 C314 C -0.02752 0.46382 0.79178
 H315 H -0.01426 0.44662 0.78971
 C316 C -0.04752 0.46253 0.81226
 H317 H -0.04983 0.44408 0.82570
 C318 C -0.03971 0.50927 0.77753
 H319 H -0.03579 0.52791 0.76483
 C320 C -0.06013 0.50877 0.79764
 H321 H -0.07196 0.52698 0.79997
 N322 N -0.02384 0.48700 0.77506
 C323 C 0.03113 0.45341 0.71651
 H324 H 0.04876 0.46612 0.71998
 C325 C 0.03269 0.43326 0.69783
 H326 H 0.05189 0.43023 0.68758
 C327 C -0.01523 0.44240 0.72572
 H328 H -0.03400 0.44664 0.73617
 C329 C -0.01474 0.42237 0.70664
 H330 H -0.03333 0.41143 0.70254
 Zn331 Zn 0.00706 0.48807 0.75168
 N332 N 0.00747 0.45761 0.72999
 C333 C 0.05040 0.46356 0.78040
 N334 N 0.03731 0.48748 0.77453
 C335 C 0.04368 0.51074 0.78702
 C336 C 0.06431 0.51068 0.80591
 C337 C 0.07092 0.46249 0.79943
 C338 C -0.01453 0.52620 0.71328
 C339 C -0.01396 0.54766 0.69303
 C340 C 0.03377 0.55453 0.70067
 C341 C 0.03216 0.53336 0.72124
 N342 N 0.00822 0.51974 0.72719
 H343 H 0.04432 0.44504 0.77104
 H344 H 0.03236 0.52924 0.78262
 H345 H 0.06881 0.52924 0.81604
 H346 H 0.08091 0.44323 0.80419
 H347 H -0.03301 0.51426 0.71753
 H348 H -0.03212 0.55240 0.68189
 H349 H 0.05304 0.56481 0.69564
 H350 H 0.05027 0.52710 0.73166
 C351 C 0.00938 0.41792 0.69201
 C352 C -0.06384 0.48537 0.81564
 C353 C 0.01050 0.56180 0.68634
 C354 C 0.07796 0.48623 0.81253
 C355 C 0.09437 0.14577 0.51020
 C356 C 0.09423 0.17085 0.49443
 C357 C 0.07050 0.18629 0.49364
 C358 C 0.04706 0.17672 0.50847
 C359 C 0.04794 0.15188 0.52480
 C360 C 0.07140 0.13621 0.52552
 C361 C 0.11881 0.12884 0.51019
 C362 C 0.11857 0.10339 0.52531
 C363 C 0.14140 0.08686 0.52440
 C364 C 0.16459 0.09564 0.50872
 C365 C 0.16462 0.12154 0.49406
 C366 C 0.14169 0.13813 0.49457
 C367 C 0.07214 0.11088 0.54083
 C368 C 0.09531 0.09469 0.54065
 C369 C 0.11764 0.17966 0.47932
 C370 C 0.14098 0.16361 0.47945
 H371 H 0.05454 0.10331 0.55276
 H372 H 0.09492 0.07510 0.55246
 H373 H 0.11784 0.19899 0.46711
 H374 H 0.15850 0.17106 0.46734
 H375 H 0.07001 0.20524 0.48083
 H376 H 0.03025 0.14458 0.53675
 H377 H 0.14073 0.06678 0.53529
 H378 H 0.18237 0.12872 0.48215
 C379 C 0.64570 0.59409 0.00357
 C380 C 0.63911 0.57395 -0.01439
 C381 C 0.65597 0.55142 -0.01645
 C382 C 0.67889 0.54823 -0.00004
 C383 C 0.68533 0.56882 0.01777
 C384 C 0.66886 0.59190 0.01950
 C385 C 0.62780 0.61776 0.00592
 C386 C 0.63442 0.63814 0.02363
 C387 C 0.61722 0.66060 0.02577
 C388 C 0.59319 0.66240 0.01078
 C389 C 0.58687 0.64138 -0.00659
 C390 C 0.60422 0.61934 -0.00939
 C391 C 0.67485 0.61271 0.03703
 C392 C 0.65803 0.63550 0.03893
 C393 C 0.61557 0.57653 -0.02972
 C394 C 0.59830 0.59874 -0.02711
 H395 H 0.69269 0.61136 0.04941
 H396 H 0.66341 0.65105 0.05270
 H397 H 0.61028 0.56107 -0.04363
 H398 H 0.58018 0.59980 -0.03909
 H399 H 0.65113 0.53631 -0.03086
 H400 H 0.70273 0.56664 0.03067
 H401 H 0.62262 0.67662 0.03899
 H402 H 0.56818 0.64178 -0.01765
 C403 C 0.90093 -0.15018 0.51135
 C404 C 0.90136 -0.17282 0.49512
 C405 C 0.92523 -0.18786 0.49309
 C406 C 0.94852 -0.18016 0.50699
 C407 C 0.94726 -0.15810 0.52405
 C408 C 0.92367 -0.14285 0.52604
 C409 C 0.87656 -0.13321 0.51220
 C410 C 0.87663 -0.10993 0.52753
 C411 C 0.85405 -0.09299 0.52710
 C412 C 0.83132 -0.09916 0.51162
 C413 C 0.83134 -0.12306 0.49692
 C414 C 0.85402 -0.14002 0.49695
 C415 C 0.92269 -0.11986 0.54176
 C416 C 0.89959 -0.10362 0.54242
 C417 C 0.87820 -0.17935 0.48059
 C418 C 0.85491 -0.16328 0.48155
 H419 H 0.94012 -0.11405 0.55322
 H420 H 0.89984 -0.08576 0.55440
 H421 H 0.87820 -0.19680 0.46806
 H422 H 0.83764 -0.16883 0.46974
 H423 H 0.92606 -0.20469 0.47981
 H424 H 0.96492 -0.15236 0.53523
 H425 H 0.85468 -0.07443 0.53805
 H426 H 0.81390 -0.12829 0.48520
 C427 C 0.35305 0.40505 0.98249
 C428 C 0.36043 0.43049 0.96900
 C429 C 0.34463 0.45347 0.97306
 C430 C 0.32168 0.45118 0.99054
 C431 C 0.31401 0.42536 1.00323
 C432 C 0.32981 0.40221 0.99947
 C433 C 0.37051 0.38118 0.97952
 C434 C 0.36378 0.35600 0.99386
 C435 C 0.38121 0.33375 0.99201
 C436 C 0.40519 0.33665 0.97597
 C437 C 0.41125 0.36190 0.96126
 C438 C 0.39407 0.38426 0.96308
 C439 C 0.32337 0.37651 1.01295
 C440 C 0.34009 0.35380 1.01023
 C441 C 0.38387 0.43261 0.95231
 C442 C 0.40041 0.40987 0.94937
 H443 H 0.30549 0.37403 1.02608
 H444 H 0.33461 0.33447 1.02132
 H445 H 0.38971 0.45212 0.94174
 H446 H 0.41852 0.41246 0.93660
 H447 H 0.35041 0.47328 0.96305
 H448 H 0.29646 0.42359 1.01687
 H449 H 0.37633 0.31432 1.00323
 H450 H 0.42987 0.36447 0.94925
 C451 C 0.90010 0.14060 0.50302
 C452 C 0.90466 0.16097 0.48176
 C453 C 0.92776 0.17825 0.48210
 C454 C 0.94639 0.17466 0.50317
 C455 C 0.94132 0.15438 0.52443
 C456 C 0.91816 0.13736 0.52453
 C457 C 0.87632 0.12189 0.50245
 C458 C 0.87191 0.10150 0.52367
 C459 C 0.84962 0.08341 0.52281
 C460 C 0.83202 0.08528 0.50073
 C461 C 0.83667 0.10585 0.47958
 C462 C 0.85876 0.12437 0.48044
 C463 C 0.91295 0.11685 0.54549
 C464 C 0.89015 0.09928 0.54512
 C465 C 0.88634 0.16318 0.46035
 C466 C 0.86384 0.14512 0.45965
 H467 H 0.92672 0.11424 0.56222
 H468 H 0.88695 0.08362 0.56159
 H469 H 0.88961 0.17877 0.44382
 H470 H 0.85041 0.14734 0.44260
 H471 H 0.93178 0.19376 0.46563
 H472 H 0.95560 0.15175 0.54075
 H473 H 0.84637 0.06736 0.53893
 H474 H 0.82309 0.10741 0.46260
 C475 C 0.35740 0.59288 0.02588
 C476 C 0.33186 0.59702 0.01459
 C477 C 0.31482 0.57414 0.01096
 C478 C 0.32351 0.54705 0.01782
 C479 C 0.34887 0.54376 0.03037
 C480 C 0.36587 0.56641 0.03417
 C481 C 0.37603 0.61661 0.02826
 C482 C 0.40182 0.61224 0.03894
 C483 C 0.41997 0.63456 0.03993
 C484 C 0.41261 0.66118 0.03022
 C485 C 0.38642 0.66532 0.02008
 C486 C 0.36805 0.64304 0.01900
 C487 C 0.39154 0.56295 0.04546
 C488 C 0.40924 0.58549 0.04777
 C489 C 0.32431 0.62390 0.00619
 C490 C 0.34210 0.64651 0.00833
 H491 H 0.39823 0.54258 0.05207
 H492 H 0.42905 0.58188 0.05614
 H493 H 0.30465 0.62745 -0.00256
 H494 H 0.33562 0.66680 0.00121
 H495 H 0.29578 0.57756 0.00096
 H496 H 0.35554 0.52354 0.03748
 H497 H 0.44018 0.63100 0.04731
 H498 H 0.38046 0.68576 0.01282
 C499 C 0.09412 -0.13707 0.48730
 C500 C 0.06941 -0.12700 0.47789
 C501 C 0.04649 -0.14446 0.47934
 C502 C 0.04779 -0.17201 0.49037
 C503 C 0.07326 -0.18187 0.49890
 C504 C 0.09631 -0.16444 0.49764
 C505 C 0.11804 -0.11840 0.48681
 C506 C 0.14261 -0.12821 0.49698
 C507 C 0.16503 -0.11008 0.49733
 C508 C 0.16293 -0.08234 0.48759
 C509 C 0.13819 -0.07303 0.47710
 C510 C 0.11568 -0.09093 0.47674
 C511 C 0.12138 -0.17366 0.50721
 C512 C 0.14412 -0.15585 0.50691
 C513 C 0.06797 -0.09950 0.46753
 C514 C 0.09072 -0.08176 0.46697
 H515 H 0.12337 -0.19475 0.51528
 H516 H 0.16297 -0.16372 0.51475
 H517 H 0.04901 -0.09151 0.46008
 H518 H 0.08866 -0.06061 0.45910
 H519 H 0.02782 -0.13649 0.47120
 H520 H 0.07507 -0.20253 0.50811
 H521 H 0.18405 -0.11747 0.50522
 H522 H 0.13621 -0.05164 0.46998
 C523 C 0.65195 0.40162 0.97639
 C524 C 0.64905 0.42563 0.95940
 C525 C 0.66520 0.44884 0.96352
 C526 C 0.68403 0.44825 0.98453
 C527 C 0.68758 0.42370 1.00070
 C528 C 0.67129 0.40033 0.99689
 C529 C 0.63345 0.37789 0.97354
 C530 C 0.63528 0.35436 0.99145
 C531 C 0.61619 0.33273 0.98999
 C532 C 0.59525 0.33488 0.97107
 C533 C 0.59455 0.35810 0.95250
 C534 C 0.61340 0.37976 0.95380
 C535 C 0.67314 0.37607 1.01382
 C536 C 0.65543 0.35350 1.01117
 C537 C 0.62936 0.42633 0.93928
 C538 C 0.61185 0.40374 0.93649
 H539 H 0.68800 0.37475 1.02966
 H540 H 0.65714 0.33546 1.02506
 H541 H 0.62706 0.44471 0.92597
 H542 H 0.59652 0.40534 0.92112
 H543 H 0.66262 0.46768 0.95092
 H544 H 0.70196 0.42328 1.01700
 H545 H 0.61673 0.31501 1.00446
 H546 H 0.57869 0.35969 0.93765
 C547 C 0.49299 0.09906 1.13333
 C548 C 0.47934 0.07446 1.12822
 C549 C 0.48066 0.05178 1.14710
 C550 C 0.49621 0.05317 1.17064
 C551 C 0.50939 0.07823 1.17569
 C552 C 0.50776 0.10128 1.15712
 C553 C 0.49227 0.12273 1.11309
 C554 C 0.50598 0.14734 1.11807
 C555 C 0.50563 0.16963 1.09847
 C556 C 0.49219 0.16720 1.07372
 C557 C 0.47860 0.14219 1.06923
 C558 C 0.47835 0.12007 1.08888
 C559 C 0.52105 0.12633 1.16152
 C560 C 0.52006 0.14901 1.14240
 C561 C 0.46510 0.07281 1.10402
 C562 C 0.46476 0.09518 1.08460
 H563 H 0.53246 0.12838 1.17981
 H564 H 0.53071 0.16788 1.14653
 H565 H 0.45449 0.05392 1.09985
 H566 H 0.45386 0.09292 1.06603
 H567 H 0.46984 0.03292 1.14325
 H568 H 0.52160 0.07957 1.19356
 H569 H 0.51584 0.18876 1.10250
 H570 H 0.46874 0.13958 1.05015
 C571 C 0.01261 0.63845 0.59252
 C572 C 0.02884 0.63300 0.56991
 C573 C 0.02775 0.65040 0.54620
 C574 C 0.01090 0.67363 0.54489
 C575 C -0.00459 0.67916 0.56834
 C576 C -0.00417 0.66138 0.59194
 C577 C 0.01285 0.61948 0.61712
 C578 C -0.00438 0.62415 0.63930
 C579 C -0.00491 0.60535 0.66218
 C580 C 0.01208 0.58247 0.66305
 C581 C 0.02972 0.57847 0.64096
 C582 C 0.02991 0.59672 0.61775
 C583 C -0.02068 0.66572 0.61478
 C584 C -0.02092 0.64732 0.63798
 C585 C 0.04576 0.61011 0.57137
 C586 C 0.04640 0.59236 0.59495
 H587 H -0.03381 0.68329 0.61459
 H588 H -0.03423 0.65123 0.65499
 H589 H 0.05853 0.60579 0.55409
 H590 H 0.05963 0.57486 0.59518
 H591 H 0.04078 0.64620 0.52908
 H592 H -0.01824 0.69631 0.56787
 H593 H -0.01848 0.60839 0.67924
 H594 H 0.04256 0.56065 0.64155
 C595 C 0.48862 0.90413 -0.13085
 C596 C 0.50045 0.90197 -0.15671
 C597 C 0.49962 0.92448 -0.17605
 C598 C 0.48730 0.94936 -0.16961
 C599 C 0.47465 0.95036 -0.14361
 C600 C 0.47554 0.92813 -0.12423
 C601 C 0.49028 0.88098 -0.11012
 C602 C 0.47880 0.88346 -0.08413
 C603 C 0.48101 0.86176 -0.06427
 C604 C 0.49437 0.83749 -0.07021
 C605 C 0.50555 0.83525 -0.09654
 C606 C 0.50364 0.85701 -0.11654
 C607 C 0.46387 0.92965 -0.09815
 C608 C 0.46556 0.90772 -0.07840
 C609 C 0.51345 0.87752 -0.16249
 C610 C 0.51497 0.85541 -0.14277
 H611 H 0.45363 0.94809 -0.09283
 H612 H 0.45655 0.90984 -0.05843
 H613 H 0.52270 0.87551 -0.18236
 H614 H 0.52531 0.83702 -0.14804
 H615 H 0.50998 0.92290 -0.19543
 H616 H 0.46347 0.96822 -0.13834
 H617 H 0.47279 0.86405 -0.04401
 H618 H 0.51559 0.81658 -0.10149
 C619 C 0.99733 0.36480 0.40865
 C620 C 0.98425 0.33901 0.40816
 C621 C 0.98440 0.32065 0.43146
 C622 C 0.99722 0.32814 0.45541
 C623 C 1.01086 0.35407 0.45481
 C624 C 1.01078 0.37238 0.43180
 C625 C 0.99691 0.38436 0.38452
 C626 C 1.01001 0.41013 0.38524
 C627 C 1.00940 0.42876 0.36247
 C628 C 0.99603 0.42185 0.33885
 C629 C 0.98287 0.39590 0.33843
 C630 C 0.98330 0.37703 0.36128
 C631 C 1.02386 0.39826 0.43165
 C632 C 1.02342 0.41686 0.40877
 C633 C 0.97093 0.33231 0.38448
 C634 C 0.97046 0.35098 0.36146
 H635 H 1.03437 0.40428 0.44945
 H636 H 1.03364 0.43668 0.40952
 H637 H 0.96068 0.31250 0.38375
 H638 H 0.95991 0.34499 0.34368
 H639 H 0.97339 0.30124 0.43115
 H640 H 1.02244 0.35998 0.47196
 H641 H 1.01907 0.44886 0.36327
 H642 H 0.97265 0.39033 0.32031
 C643 C 0.50402 0.90204 0.15651
 C644 C 0.52589 0.90825 0.17298
 C645 C 0.52580 0.93280 0.18646
 C646 C 0.50436 0.95121 0.18287
 C647 C 0.48250 0.94448 0.16658
 C648 C 0.48216 0.91989 0.15344
 C649 C 0.50432 0.87677 0.14162
 C650 C 0.48254 0.87081 0.12500
 C651 C 0.48328 0.84728 0.11019
 C652 C 0.50578 0.82998 0.11149
 C653 C 0.52739 0.83609 0.12843
 C654 C 0.52669 0.85945 0.14368
 C655 C 0.46061 0.91305 0.13687
 C656 C 0.46075 0.88887 0.12296
 C657 C 0.54762 0.89008 0.17505
 C658 C 0.54807 0.86616 0.16057
 H659 H 0.44360 0.92664 0.13445
 H660 H 0.44385 0.88447 0.11019
 H661 H 0.56462 0.89459 0.18766
 H662 H 0.56540 0.85294 0.16244
 H663 H 0.54271 0.93808 0.19890
 H664 H 0.46590 0.95859 0.16399
 H665 H 0.46681 0.84300 0.09682
 H666 H 0.54474 0.82280 0.12953
 C667 C 0.00885 0.34873 0.60148
 C668 C -0.00829 0.32531 0.60224
 C669 C -0.01014 0.31022 0.57896
 C670 C 0.00491 0.31869 0.55515
 C671 C 0.02282 0.34155 0.55529
 C672 C 0.02461 0.35683 0.57819
 C673 C 0.00970 0.36565 0.62518
 C674 C 0.02604 0.38961 0.62385
 C675 C 0.02592 0.40630 0.64585
 C676 C 0.00992 0.39912 0.66938
 C677 C -0.00606 0.37469 0.67054
 C678 C -0.00640 0.35798 0.64836
 C679 C 0.04122 0.38057 0.57791
 C680 C 0.04185 0.39676 0.60034
 C681 C -0.02380 0.31802 0.62597
 C682 C -0.02280 0.33402 0.64866
 H683 H 0.05347 0.38697 0.56003
 H684 H 0.05461 0.41517 0.59916
 H685 H -0.03706 0.29998 0.62690
 H686 H -0.03529 0.32781 0.66643
 H687 H -0.02403 0.29272 0.57898
 H688 H 0.03485 0.34788 0.53721
 H689 H 0.03776 0.42532 0.64421
 H690 H -0.01828 0.36875 0.68856
 C691 C 0.48445 0.09942 0.84241
 C692 C 0.46545 0.07830 0.84984
 C693 C 0.46581 0.05409 0.83612
 C694 C 0.48522 0.05065 0.81536
 C695 C 0.50354 0.07239 0.80741
 C696 C 0.50336 0.09682 0.82108
 C697 C 0.48518 0.12425 0.85795
 C698 C 0.50475 0.14503 0.85123
 C699 C 0.50610 0.16805 0.86693
 C700 C 0.48820 0.17015 0.88935
 C701 C 0.46847 0.14922 0.89543
 C702 C 0.46687 0.12629 0.87985
 C703 C 0.52225 0.11834 0.81452
 C704 C 0.52292 0.14204 0.82932
 C705 C 0.44702 0.08140 0.87145
 C706 C 0.44774 0.10499 0.88623
 H707 H 0.53692 0.11667 0.79809
 H708 H 0.53806 0.15795 0.82384
 H709 H 0.43224 0.06523 0.87730
 H710 H 0.43346 0.10639 0.90305
 H711 H 0.45146 0.03753 0.84208
 H712 H 0.51863 0.06976 0.79155
 H713 H 0.52120 0.18412 0.86189
 H714 H 0.45496 0.15022 0.91293
 C715 C 1.01188 0.65408 0.39677
 C716 C 0.99166 0.67330 0.40106
 C717 C 0.99196 0.68777 0.42474
 C718 C 1.01197 0.68264 0.44424
 C719 C 1.03239 0.66370 0.43934
 C720 C 1.03246 0.64937 0.41561
 C721 C 1.01096 0.63789 0.37256
 C722 C 1.03088 0.61828 0.36858
 C723 C 1.02925 0.60209 0.34618
 C724 C 1.00763 0.60505 0.32813
 C725 C 0.98808 0.62515 0.33217
 C726 C 0.98968 0.64167 0.35435
 C727 C 1.05230 0.62992 0.41067
 C728 C 1.05156 0.61468 0.38751
 C729 C 0.97110 0.67704 0.38200
 C730 C 0.97008 0.66144 0.35908
 H731 H 1.06833 0.62618 0.42502
 H732 H 1.06705 0.59963 0.38465
 H733 H 0.95539 0.69182 0.38507
 H734 H 0.95362 0.66464 0.34513
 H735 H 0.97604 0.70211 0.42858
 H736 H 1.04794 0.65985 0.45422
 H737 H 1.04413 0.58639 0.34344
 H738 H 0.97149 0.62761 0.31825
 C739 C 1.14061 0.49998 0.09427
 C740 C 1.13405 0.48222 0.07406
 C741 C 1.15097 0.48161 0.05101
 C742 C 1.17475 0.49835 0.04795
 C743 C 1.18146 0.51533 0.06913
 C744 C 1.16420 0.51659 0.09203
 C745 C 1.12217 0.50151 0.11802
 C746 C 1.12805 0.52017 0.13771
 C747 C 1.10986 0.52223 0.15974
 C748 C 1.08635 0.50536 0.16227
 C749 C 1.08108 0.48639 0.14266
 C750 C 1.09876 0.48461 0.12031
 C751 C 1.16970 0.53460 0.11245
 C752 C 1.15185 0.53648 0.13481
 C753 C 1.11053 0.46551 0.07716
 C754 C 1.09324 0.46659 0.09996
 H755 H 1.18778 0.54761 0.11097
 H756 H 1.15669 0.55088 0.14991
 H757 H 1.10536 0.45159 0.06173
 H758 H 1.07523 0.45346 0.10151
 H759 H 1.14589 0.46735 0.03587
 H760 H 1.19919 0.52882 0.06722
 H761 H 1.11393 0.53680 0.17491
 H762 H 1.06281 0.47363 0.14446
 C763 C 0.58930 -0.00076 0.64317
 C764 C 0.58959 -0.01564 0.66855
 C765 C 0.56625 -0.01645 0.68545
 C766 C 0.54281 -0.00262 0.67692
 C767 C 0.54335 0.01305 0.65183
 C768 C 0.56637 0.01378 0.63476
 C769 C 0.61316 -0.00099 0.62470
 C770 C 0.61242 0.01317 0.59900
 C771 C 0.63471 0.01213 0.58113
 C772 C 0.65790 -0.00267 0.58879
 C773 C 0.65841 -0.01650 0.61485
 C774 C 0.63600 -0.01586 0.63282
 C775 C 0.56662 0.02818 0.60912
 C776 C 0.58924 0.02780 0.59149
 C777 C 0.61295 -0.03000 0.67614
 C778 C 0.63578 -0.03004 0.65862
 H779 H 0.54903 0.03948 0.60244
 H780 H 0.58848 0.03887 0.57173
 H781 H 0.61349 -0.04153 0.69568
 H782 H 0.65327 -0.04155 0.66518
 H783 H 0.56596 -0.02868 0.70464
 H784 H 0.52560 0.02421 0.64533
 H785 H 0.63368 0.02234 0.56099
 H786 H 0.67619 -0.02771 0.62114
 C787 C -0.13600 0.49065 0.90836
 C788 C -0.12675 0.48243 0.93426
 C789 C -0.14362 0.48526 0.95705
 C790 C -0.16986 0.49620 0.95437
 C791 C -0.17890 0.50370 0.92787
 C792 C -0.16198 0.50124 0.90494
 C793 C -0.11794 0.48846 0.88440
 C794 C -0.12684 0.49748 0.85852
 C795 C -0.10924 0.49612 0.83592
 C796 C -0.08305 0.48560 0.83914
 C797 C -0.07468 0.47627 0.86521
 C798 C -0.09196 0.47781 0.88792
 C799 C -0.17033 0.50968 0.87866
 C800 C -0.15303 0.50791 0.85586
 C801 C -0.10070 0.47164 0.93693
 C802 C -0.08361 0.46933 0.91414
 H803 H -0.19032 0.51796 0.87570
 H804 H -0.16019 0.51488 0.83602
 H805 H -0.09338 0.46509 0.95682
 H806 H -0.06361 0.46107 0.91710
 H807 H -0.13640 0.47801 0.97677
 H808 H -0.19849 0.51288 0.92494
 H809 H -0.11584 0.50321 0.81588
 H810 H -0.05441 0.46857 0.86791
 C811 C 0.40680 0.02184 0.35363
 C812 C 0.40592 0.00719 0.33008
 C813 C 0.42959 0.00532 0.31408
 C814 C 0.45401 0.01793 0.32156
 C815 C 0.45417 0.03338 0.34474
 C816 C 0.43073 0.03514 0.36100
 C817 C 0.38244 0.02250 0.37142
 C818 C 0.38368 0.03624 0.39550
 C819 C 0.36094 0.03561 0.41305
 C820 C 0.33695 0.02149 0.40667
 C821 C 0.33589 0.00843 0.38199
 C822 C 0.35866 0.00866 0.36443
 C823 C 0.43097 0.04929 0.38491
 C824 C 0.40786 0.04975 0.40192
 C825 C 0.38160 -0.00598 0.32348
 C826 C 0.35835 -0.00518 0.34032
 H827 H 0.44931 0.05967 0.39079
 H828 H 0.40904 0.06050 0.42041
 H829 H 0.38061 -0.01730 0.30533
 H830 H 0.34012 -0.01589 0.33464
 H831 H 0.42925 -0.00687 0.29648
 H832 H 0.47269 0.04359 0.35044
 H833 H 0.36233 0.04530 0.43213
 H834 H 0.31749 -0.00218 0.37660
 C835 C 0.15042 0.48592 0.90216
 C836 C 0.16972 0.50736 0.90335
 C837 C 0.18529 0.50879 0.92670
 C838 C 0.18107 0.48938 0.94890
 C839 C 0.16208 0.46769 0.94713
 C840 C 0.14672 0.46582 0.92377
 C841 C 0.13301 0.48510 0.87832
 C842 C 0.11336 0.46397 0.87742
 C843 C 0.09609 0.46392 0.85526
 C844 C 0.09801 0.48511 0.83441
 C845 C 0.11806 0.50595 0.83542
 C846 C 0.13571 0.50599 0.85733
 C847 C 0.12718 0.44473 0.92191
 C848 C 0.11083 0.44376 0.89907
 C849 C 0.17237 0.52744 0.88158
 C850 C 0.15559 0.52682 0.85900
 H851 H 0.12423 0.42905 0.93841
 H852 H 0.09576 0.42735 0.89858
 H853 H 0.18719 0.54407 0.88224
 H854 H 0.15796 0.54298 0.84288
 H855 H 0.19972 0.52566 0.92818
 H856 H 0.15891 0.45268 0.96421
 H857 H 0.08044 0.44804 0.85476
 H858 H 0.11969 0.52221 0.81932
 C859 C 0.59823 -0.00825 0.35564
 C860 C 0.60045 0.00735 0.33067
 C861 C 0.57764 0.00995 0.31425
 C862 C 0.55273 -0.00273 0.32286
 C863 C 0.55118 -0.01898 0.34759
 C864 C 0.57377 -0.02163 0.36415
 C865 C 0.62171 -0.00998 0.37361
 C866 C 0.61915 -0.02492 0.39889
 C867 C 0.64111 -0.02564 0.41636
 C868 C 0.66566 -0.01163 0.40878
 C869 C 0.66799 0.00295 0.38310
 C870 C 0.64601 0.00393 0.36548
 C871 C 0.57218 -0.03685 0.38936
 C872 C 0.59447 -0.03842 0.40647
 C873 C 0.62525 0.02060 0.32301
 C874 C 0.64764 0.01890 0.34010
 H875 H 0.55342 -0.04729 0.39611
 H876 H 0.59229 -0.05007 0.42592
 H877 H 0.62728 0.03267 0.30378
 H878 H 0.66629 0.02967 0.33353
 H879 H 0.57895 0.02267 0.29536
 H880 H 0.53224 -0.02918 0.35416
 H881 H 0.63876 -0.03643 0.43624
 H882 H 0.68681 0.01360 0.37691
 C883 C 0.85213 0.51794 0.09928
 C884 C 0.85693 0.53694 0.07691
 C885 C 0.84207 0.53442 0.05329
 C886 C 0.82245 0.51322 0.05206
 C887 C 0.81714 0.49497 0.07497
 C888 C 0.83223 0.49700 0.09857
 C889 C 0.86906 0.51930 0.12344
 C890 C 0.86534 0.49933 0.14517
 C891 C 0.88268 0.49964 0.16731
 C892 C 0.90342 0.51984 0.16783
 C893 C 0.90626 0.54025 0.14632
 C894 C 0.88934 0.53987 0.12388
 C895 C 0.82852 0.47796 0.12109
 C896 C 0.84487 0.47903 0.14395
 C897 C 0.87705 0.55755 0.07833
 C898 C 0.89291 0.55906 0.10147
 H899 H 0.81323 0.46173 0.12080
 H900 H 0.84172 0.46360 0.16064
 H901 H 0.88084 0.57240 0.06124
 H902 H 0.90848 0.57504 0.10158
 H903 H 0.84609 0.54851 0.03564
 H904 H 0.80223 0.47847 0.07391
 H905 H 0.88041 0.48394 0.18390
 H906 H 0.92244 0.55560 0.14647
 C907 C 0.39722 -0.01686 0.64539
 C908 C 0.39654 -0.00179 0.66869
 C909 C 0.41923 -0.00168 0.68537
 C910 C 0.44244 -0.01649 0.67877
 C911 C 0.44214 -0.03254 0.65602
 C912 C 0.41980 -0.03245 0.63904
 C913 C 0.37428 -0.01548 0.62672
 C914 C 0.37561 -0.02948 0.60278
 C915 C 0.35449 -0.02689 0.58436
 C916 C 0.33187 -0.01071 0.58979
 C917 C 0.33059 0.00259 0.61435
 C918 C 0.35190 0.00054 0.63272
 C919 C 0.42002 -0.04686 0.61530
 C920 C 0.39834 -0.04530 0.59740
 C921 C 0.37356 0.01362 0.67429
 C922 C 0.35156 0.01466 0.65668
 H923 H 0.43734 -0.05899 0.61021
 H924 H 0.39954 -0.05630 0.57904
 H925 H 0.37271 0.02528 0.69224
 H926 H 0.33438 0.02705 0.66160
 H927 H 0.41929 0.01093 0.70267
 H928 H 0.45964 -0.04447 0.65105
 H929 H 0.35620 -0.03679 0.56539
 H930 H 0.31319 0.01475 0.61909
   
