data_POSCAR
  _audit_creation_date              2014-09-24
  _audit_creation_method            'ToBaCCo'
  _symmetry_space_group_name_H-M    'P1'
  _symmetry_Int_Tables_number       1
  _symmetry_cell_setting            triclinic
  loop_
  _symmetry_equiv_pos_as_xyz
 x,y,z
_cell_length_a 51.5181
_cell_length_b 50.7361
_cell_length_c 51.3401
_cell_angle_alpha 87.219000
_cell_angle_beta 91.606300
_cell_angle_gamma 89.385200
loop_
  _atom_site_label
  _atom_site_type_symbol
  _atom_site_fract_x
  _atom_site_fract_y
  _atom_site_fract_z
C1 C 0.27100 0.24564 0.22058
 C2 C 0.26054 0.23307 0.24278
 C3 C 0.23975 0.24442 0.25471
 C4 C 0.22923 0.26855 0.24474
 C5 C 0.23953 0.28095 0.22286
 C6 C 0.26059 0.26943 0.21072
 C7 C 0.29110 0.23917 0.20490
 N8 N 0.29319 0.25846 0.18575
 C9 C 0.27455 0.27705 0.18923
 C10 C 0.22543 0.30387 0.21753
 N11 N 0.20683 0.30571 0.23567
 C12 C 0.20907 0.28413 0.25238
 C13 C 0.23356 0.22790 0.27560
 N14 N 0.25010 0.20679 0.27670
 C15 C 0.26670 0.20985 0.25667
 H16 H 0.30351 0.22184 0.20751
 H17 H 0.27111 0.29469 0.17685
 H18 H 0.22872 0.31828 0.20177
 H19 H 0.19671 0.27981 0.26871
 H20 H 0.21831 0.23123 0.28919
 H21 H 0.28191 0.19602 0.25225
 C22 C 0.72693 -0.22913 0.25436
 C23 C 0.73594 -0.22012 0.27834
 C24 C 0.75606 -0.23336 0.29197
 C25 C 0.76769 -0.25549 0.28158
 C26 C 0.75886 -0.26426 0.25797
 C27 C 0.73829 -0.25097 0.24425
 C28 C 0.70732 -0.22057 0.23721
 N29 N 0.70623 -0.23671 0.21665
 C30 C 0.72544 -0.25532 0.22105
 C31 C 0.77380 -0.28586 0.25268
 N32 N 0.79183 -0.29054 0.27245
 C33 C 0.78792 -0.27181 0.29023
 C34 C 0.76053 -0.22053 0.31464
 N35 N 0.74373 -0.19974 0.31497
 C36 C 0.72865 -0.19930 0.29282
 H37 H 0.69502 -0.20360 0.23989
 H38 H 0.72967 -0.27154 0.20891
 H39 H 0.77183 -0.29666 0.23512
 H40 H 0.79860 -0.26995 0.30844
 H41 H 0.77513 -0.22572 0.32965
 H42 H 0.71332 -0.18505 0.28778
 C43 C 0.73395 0.23848 0.76556
 C44 C 0.74577 0.22845 0.74379
 C45 C 0.76819 0.23973 0.73450
 C46 C 0.77905 0.26126 0.74683
 C47 C 0.76738 0.27118 0.76820
 C48 C 0.74463 0.25961 0.77771
 C49 C 0.71209 0.23134 0.77874
 N50 N 0.70892 0.24757 0.79892
 C51 C 0.72902 0.26496 0.79819
 C52 C 0.78209 0.29205 0.77593
 N53 N 0.80265 0.29519 0.75982
 C54 C 0.80064 0.27615 0.74196
 C55 C 0.77532 0.22601 0.71330
 N56 N 0.75772 0.20668 0.70946
 C57 C 0.73957 0.20809 0.72810
 H58 H 0.69988 0.21505 0.77379
 H59 H 0.73230 0.28077 0.81120
 H60 H 0.77795 0.30362 0.79247
 H61 H 0.81343 0.27327 0.72601
 H62 H 0.79191 0.23010 0.70134
 H63 H 0.72322 0.19505 0.73035
 C64 C 0.27435 -0.23764 0.76589
 C65 C 0.26292 -0.22753 0.74235
 C66 C 0.24133 -0.23947 0.73184
 C67 C 0.23092 -0.26179 0.74474
 C68 C 0.24224 -0.27179 0.76786
 C69 C 0.26411 -0.25953 0.77859
 C70 C 0.29544 -0.23000 0.78048
 N71 N 0.29856 -0.24667 0.80207
 C72 C 0.27920 -0.26483 0.80083
 C73 C 0.22821 -0.29351 0.77579
 N74 N 0.20840 -0.29714 0.75809
 C75 C 0.21018 -0.27753 0.73903
 C76 C 0.23447 -0.22544 0.70899
 N77 N 0.25146 -0.20532 0.70539
 C78 C 0.26891 -0.20652 0.72578
 H79 H 0.30718 -0.21308 0.77547
 H80 H 0.27617 -0.28118 0.81463
 H81 H 0.23227 -0.30531 0.79355
 H82 H 0.19782 -0.27481 0.72174
 H83 H 0.21851 -0.22982 0.69581
 H84 H 0.28464 -0.19290 0.72861
 C85 C 0.72473 -0.25361 0.76913
 C86 C 0.73527 -0.24032 0.74738
 C87 C 0.75778 -0.24970 0.73686
 C88 C 0.77000 -0.27259 0.74796
 C89 C 0.75957 -0.28563 0.76932
 C90 C 0.73680 -0.27600 0.78006
 C91 C 0.70323 -0.24884 0.78351
 N92 N 0.70178 -0.26780 0.80323
 C93 C 0.72250 -0.28449 0.80101
 C94 C 0.77540 -0.30700 0.77596
 N95 N 0.79548 -0.30753 0.75916
 C96 C 0.79207 -0.28626 0.74196
 C97 C 0.76357 -0.23277 0.71610
 N98 N 0.74507 -0.21339 0.71376
 C99 C 0.72771 -0.21793 0.73288
 H100 H 0.69019 -0.23216 0.77991
 H101 H 0.72705 -0.30192 0.81328
 H102 H 0.77229 -0.32071 0.79230
 H103 H 0.80428 -0.28091 0.72582
 H104 H 0.77989 -0.23465 0.70348
 H105 H 0.71098 -0.20562 0.73632
 C106 C 0.27735 0.22817 0.74424
 C107 C 0.26550 0.21707 0.72248
 C108 C 0.24278 0.22801 0.71155
 C109 C 0.23164 0.25027 0.72219
 C110 C 0.24330 0.26113 0.74369
 C111 C 0.26632 0.24996 0.75477
 C112 C 0.29940 0.22163 0.75893
 N113 N 0.30223 0.23888 0.77842
 C114 C 0.28179 0.25629 0.77575
 C115 C 0.22822 0.28233 0.74992
 N116 N 0.20769 0.28467 0.73270
 C117 C 0.20968 0.26508 0.71566
 C118 C 0.23562 0.21312 0.69090
 N119 N 0.25346 0.19340 0.68897
 C120 C 0.27181 0.19573 0.70826
 H121 H 0.31194 0.20501 0.75558
 H122 H 0.27821 0.27281 0.78771
 H123 H 0.23214 0.29529 0.76565
 H124 H 0.19598 0.26159 0.69987
 H125 H 0.21880 0.21662 0.67804
 H126 H 0.28836 0.18264 0.71200
 C127 C 0.27745 -0.24398 0.23503
 C128 C 0.26545 -0.23104 0.25513
 C129 C 0.24215 -0.24016 0.26457
 C130 C 0.23057 -0.26236 0.25411
 C131 C 0.24242 -0.27502 0.23443
 C132 C 0.26598 -0.26573 0.22478
 C133 C 0.30002 -0.23954 0.22188
 N134 N 0.30267 -0.25809 0.20365
 C135 C 0.28164 -0.27417 0.20558
 C136 C 0.22697 -0.29576 0.22804
 N137 N 0.20572 -0.29628 0.24339
 C138 C 0.20804 -0.27563 0.25941
 C139 C 0.23497 -0.22386 0.28382
 N140 N 0.25334 -0.20504 0.28636
 C141 C 0.27207 -0.20934 0.26885
 H142 H 0.31304 -0.22346 0.22536
 H143 H 0.27770 -0.29114 0.19427
 H144 H 0.23124 -0.30911 0.21294
 H145 H 0.19473 -0.27038 0.27425
 H146 H 0.21778 -0.22584 0.29537
 H147 H 0.28912 -0.19738 0.26600
 C148 C 0.72350 0.25016 0.24046
 C149 C 0.73510 0.23885 0.26349
 C150 C 0.75756 0.24953 0.27368
 C151 C 0.76870 0.27160 0.26111
 C152 C 0.75724 0.28279 0.23863
 C153 C 0.73451 0.27203 0.22820
 C154 C 0.70183 0.24395 0.22576
 N155 N 0.69944 0.26156 0.20497
 C156 C 0.71939 0.27878 0.20638
 C157 C 0.77222 0.30379 0.23072
 N158 N 0.79280 0.30578 0.24785
 C159 C 0.79053 0.28589 0.26653
 C160 C 0.76465 0.23463 0.29584
 N161 N 0.74707 0.21509 0.29947
 C162 C 0.72889 0.21757 0.27973
 H163 H 0.68869 0.22791 0.23004
 H164 H 0.72300 0.29479 0.19229
 H165 H 0.76832 0.31615 0.21330
 H166 H 0.80333 0.28201 0.28334
 H167 H 0.78125 0.23805 0.30856
 H168 H 0.71254 0.20464 0.27712
 O169 O 0.25514 0.02180 0.46042
 O170 O 0.25504 -0.03087 0.51241
 O171 O 0.25533 -0.02957 0.46167
 O172 O 0.25524 0.02051 0.51116
 O173 O 0.21241 0.02100 0.50998
 O174 O 0.21250 -0.02903 0.46030
 O175 O 0.21221 -0.03038 0.51105
 O176 O 0.21231 0.02238 0.45927
 Cu177 Cu 0.25948 -0.00459 0.48654
 Cu178 Cu 0.20807 -0.00397 0.48501
 C179 C 0.23372 0.03117 0.45099
 C180 C 0.23360 -0.03966 0.52062
 C181 C 0.23395 -0.03790 0.45251
 C182 C 0.23383 0.02937 0.51904
 O183 O 0.72352 0.02786 0.53579
 O184 O 0.72465 -0.02134 0.48537
 O185 O 0.72672 -0.02349 0.53597
 O186 O 0.72127 0.02990 0.48485
 O187 O 0.76397 0.03257 0.48458
 O188 O 0.76943 -0.02144 0.53506
 O189 O 0.76732 -0.01832 0.48421
 O190 O 0.76624 0.02995 0.53543
 Cu191 Cu 0.71976 0.00305 0.51061
 Cu192 Cu 0.77102 0.00595 0.50985
 C193 C 0.74470 0.03727 0.54431
 C194 C 0.74618 -0.02808 0.47603
 C195 C 0.74899 -0.03179 0.54409
 C196 C 0.74170 0.04026 0.47583
 O197 O 0.47360 0.27123 0.01482
 O198 O 0.52642 0.27467 -0.03197
 O199 O 0.47581 0.27374 -0.03584
 O200 O 0.52394 0.27153 0.01869
 O201 O 0.52505 0.22807 0.01849
 O202 O 0.47696 0.23028 -0.03595
 O203 O 0.52763 0.23122 -0.03217
 O204 O 0.47472 0.22777 0.01471
 Cu205 Cu 0.49984 0.27715 -0.00863
 Cu206 Cu 0.50121 0.22499 -0.00883
 C207 C 0.46520 0.24894 0.02292
 C208 C 0.53617 0.25355 -0.04001
 C209 C 0.46803 0.25235 -0.04513
 C210 C 0.53262 0.24940 0.02803
 O211 O 0.53359 0.72602 0.03284
 O212 O 0.47940 0.72408 -0.01513
 O213 O 0.52980 0.72473 -0.01779
 O214 O 0.48322 0.72640 0.03538
 O215 O 0.48255 0.76990 0.03171
 O216 O 0.52899 0.76823 -0.02120
 O217 O 0.47856 0.76758 -0.01875
 O218 O 0.53293 0.76953 0.02940
 Cu219 Cu 0.50659 0.72095 0.00918
 Cu220 Cu 0.50569 0.77316 0.00491
 C221 C 0.54253 0.74805 0.03940
 C222 C 0.46966 0.74546 -0.02516
 C223 C 0.53737 0.74626 -0.02859
 C224 C 0.47491 0.74848 0.04263
 O225 O 0.02508 0.48004 0.28074
 O226 O -0.02756 0.52983 0.28102
 O227 O -0.02536 0.47863 0.28138
 O228 O 0.02300 0.53139 0.28104
 O229 O 0.02157 0.53350 0.23801
 O230 O -0.02687 0.48064 0.23835
 O231 O -0.02891 0.53190 0.23799
 O232 O 0.02355 0.48221 0.23772
 Cu233 Cu -0.00103 0.50478 0.28536
 Cu234 Cu -0.00280 0.50729 0.23371
 C235 C 0.03327 0.47254 0.25914
 C236 C -0.03730 0.53933 0.25951
 C237 C -0.03444 0.47060 0.25996
 C238 C 0.03057 0.54150 0.25949
 O239 O 0.03277 0.52271 0.72402
 O240 O -0.01726 0.47142 0.72459
 O241 O -0.01775 0.52275 0.72359
 O242 O 0.03330 0.47132 0.72485
 O243 O 0.03432 0.47006 0.76786
 O244 O -0.01687 0.52135 0.76661
 O245 O -0.01631 0.46995 0.76760
 O246 O 0.03364 0.52148 0.76703
 Cu247 Cu 0.00769 0.49717 0.71996
 Cu248 Cu 0.00880 0.49555 0.77159
 C249 C 0.04172 0.53096 0.74541
 C250 C -0.02538 0.46190 0.74617
 C251 C -0.02606 0.53087 0.74489
 C252 C 0.04258 0.46189 0.74657
 C253 C 0.32032 0.28333 0.15431
 C254 C 0.33860 0.28399 0.13470
 C255 C 0.34911 0.26053 0.12581
 C256 C 0.34046 0.23626 0.13664
 C257 C 0.32218 0.23562 0.15628
 C258 C 0.31196 0.25914 0.16541
 C259 C 0.36851 0.26240 0.10498
 C260 C 0.38544 0.24301 0.10025
 C261 C 0.40528 0.24528 0.07987
 C262 C 0.41582 0.22208 0.07045
 C263 C 0.43505 0.22322 0.05177
 C264 C 0.44436 0.24767 0.04222
 C265 C 0.43393 0.27091 0.05173
 C266 C 0.41469 0.26977 0.07040
 H267 H 0.31304 0.30181 0.16105
 H268 H 0.34478 0.30295 0.12663
 H269 H 0.34727 0.21768 0.12976
 H270 H 0.31570 0.21666 0.16399
 H271 H 0.36900 0.28084 0.09351
 H272 H 0.38495 0.22451 0.11159
 H273 H 0.40911 0.20296 0.07757
 H274 H 0.44275 0.20493 0.04494
 H275 H 0.44085 0.29006 0.04498
 H276 H 0.40782 0.28812 0.07774
 C277 C 0.66753 0.78303 0.19516
 C278 C 0.64935 0.78416 0.17441
 C279 C 0.65154 0.76738 0.15371
 C280 C 0.67294 0.74999 0.15370
 C281 C 0.69117 0.74877 0.17442
 C282 C 0.68873 0.76505 0.19584
 C283 C 0.63135 0.76885 0.13249
 C284 C 0.62602 0.74869 0.11729
 C285 C 0.60483 0.74938 0.09709
 C286 C 0.59486 0.72536 0.08906
 C287 C 0.57472 0.72494 0.07031
 C288 C 0.56418 0.74859 0.05896
 C289 C 0.57447 0.77268 0.06659
 C290 C 0.59464 0.77310 0.08538
 H291 H 0.66426 0.79605 0.21077
 H292 H 0.63317 0.79795 0.17480
 H293 H 0.67597 0.73747 0.13756
 H294 H 0.70726 0.73516 0.17310
 H295 H 0.61939 0.78654 0.13067
 H296 H 0.63640 0.73015 0.12080
 H297 H 0.60249 0.70680 0.09756
 H298 H 0.56734 0.70604 0.06479
 H299 H 0.56695 0.79124 0.05803
 H300 H 0.60233 0.79201 0.09035
 C301 C 0.68937 0.26257 -0.16168
 C302 C 0.66945 0.26125 -0.14370
 C303 C 0.64861 0.24395 -0.14693
 C304 C 0.64840 0.22778 -0.16825
 C305 C 0.66822 0.22903 -0.18625
 C306 C 0.68925 0.24647 -0.18342
 C307 C 0.62723 0.24146 -0.12820
 C308 C 0.62066 0.26037 -0.11213
 C309 C 0.59890 0.25790 -0.09385
 C310 C 0.58754 0.28096 -0.08501
 C311 C 0.56712 0.27957 -0.06766
 C312 C 0.55769 0.25501 -0.05856
 C313 C 0.56926 0.23188 -0.06713
 C314 C 0.58969 0.23327 -0.08449
 H315 H 0.70498 0.27599 -0.15789
 H316 H 0.67085 0.27344 -0.12703
 H317 H 0.63264 0.21416 -0.17116
 H318 H 0.66651 0.21630 -0.20242
 H319 H 0.61570 0.22378 -0.12878
 H320 H 0.63060 0.27906 -0.11323
 H321 H 0.59439 0.30017 -0.09170
 H322 H 0.55874 0.29778 -0.06135
 H323 H 0.56265 0.21265 -0.06027
 H324 H 0.59846 0.21501 -0.09006
 C325 C 0.33832 0.77260 -0.18115
 C326 C 0.35764 0.77391 -0.16164
 C327 C 0.35720 0.75731 -0.13908
 C328 C 0.33659 0.73958 -0.13616
 C329 C 0.31720 0.73818 -0.15565
 C330 C 0.31762 0.75464 -0.17868
 C331 C 0.37819 0.75965 -0.11896
 C332 C 0.38472 0.74038 -0.10107
 C333 C 0.40639 0.74247 -0.08163
 C334 C 0.41772 0.71917 -0.07044
 C335 C 0.43824 0.72014 -0.05214
 C336 C 0.44780 0.74450 -0.04445
 C337 C 0.43620 0.76786 -0.05531
 C338 C 0.41565 0.76689 -0.07361
 H339 H 0.34022 0.78562 -0.19821
 H340 H 0.37322 0.78787 -0.16436
 H341 H 0.33497 0.72706 -0.11864
 H342 H 0.30173 0.72443 -0.15207
 H343 H 0.38957 0.77745 -0.12005
 H344 H 0.37494 0.72164 -0.10148
 H345 H 0.41083 0.70010 -0.07607
 H346 H 0.44664 0.70176 -0.04407
 H347 H 0.44291 0.78694 -0.04957
 H348 H 0.40690 0.78531 -0.08104
 C349 C 0.17915 0.34092 0.21409
 C350 C 0.16057 0.36106 0.21526
 C351 C 0.15018 0.36745 0.23918
 C352 C 0.15929 0.35355 0.26211
 C353 C 0.17784 0.33336 0.26091
 C354 C 0.18790 0.32673 0.23689
 C355 C 0.13037 0.38892 0.23923
 C356 C 0.11392 0.39214 0.25870
 C357 C 0.09372 0.41324 0.25816
 C358 C 0.08412 0.42124 0.28189
 C359 C 0.06468 0.44064 0.28228
 C360 C 0.05419 0.45230 0.25886
 C361 C 0.06361 0.44413 0.23508
 C362 C 0.08308 0.42478 0.23470
 H363 H 0.18632 0.33616 0.19526
 H364 H 0.15405 0.37151 0.19732
 H365 H 0.15261 0.35837 0.28108
 H366 H 0.18464 0.32322 0.27889
 H367 H 0.12915 0.40227 0.22215
 H368 H 0.11512 0.37905 0.27595
 H369 H 0.09178 0.41249 0.30023
 H370 H 0.05776 0.44639 0.30093
 H371 H 0.05577 0.45253 0.21668
 H372 H 0.08922 0.41856 0.21597
 C373 C 0.19232 0.66192 0.77800
 C374 C 0.17392 0.64186 0.77887
 C375 C 0.15289 0.64214 0.76096
 C376 C 0.15029 0.66337 0.74242
 C377 C 0.16866 0.68344 0.74144
 C378 C 0.19021 0.68316 0.75915
 C379 C 0.13376 0.62048 0.76279
 C380 C 0.11820 0.61394 0.74276
 C381 C 0.09908 0.59226 0.74431
 C382 C 0.08974 0.58195 0.72100
 C383 C 0.07128 0.56195 0.72136
 C384 C 0.06159 0.55187 0.74510
 C385 C 0.07080 0.56226 0.76846
 C386 C 0.08924 0.58231 0.76810
 H387 H 0.20831 0.66017 0.79202
 H388 H 0.17630 0.62584 0.79352
 H389 H 0.13381 0.66496 0.72890
 H390 H 0.16530 0.69935 0.72699
 H391 H 0.13354 0.60884 0.78100
 H392 H 0.12018 0.62406 0.72389
 H393 H 0.09678 0.58937 0.70239
 H394 H 0.06455 0.55446 0.70300
 H395 H 0.06354 0.55511 0.78706
 H396 H 0.09523 0.59022 0.78646
 C397 C -0.16924 0.68954 0.29327
 C398 C -0.14982 0.67005 0.29433
 C399 C -0.14966 0.65036 0.27614
 C400 C -0.16988 0.65009 0.25722
 C401 C -0.18931 0.66959 0.25604
 C402 C -0.18934 0.68993 0.27392
 C403 C -0.12843 0.63028 0.27794
 C404 C -0.12131 0.61628 0.25773
 C405 C -0.09962 0.59672 0.25907
 C406 C -0.08881 0.58938 0.23567
 C407 C -0.06854 0.57086 0.23581
 C408 C -0.05865 0.55912 0.25944
 C409 C -0.06958 0.56625 0.28290
 C410 C -0.08992 0.58474 0.28275
 H411 H -0.16780 0.70449 0.30747
 H412 H -0.13459 0.67060 0.30928
 H413 H -0.17114 0.63463 0.24349
 H414 H -0.20446 0.66809 0.24127
 H415 H -0.11747 0.62822 0.29621
 H416 H -0.13080 0.62014 0.23885
 H417 H -0.09600 0.59810 0.21714
 H418 H -0.06062 0.56575 0.21738
 H419 H -0.06258 0.55734 0.30142
 H420 H -0.09820 0.58912 0.30119
 C421 C -0.15633 0.31319 0.74531
 C422 C -0.13721 0.33246 0.74637
 C423 C -0.13944 0.35339 0.76312
 C424 C -0.16084 0.35412 0.77932
 C425 C -0.18002 0.33487 0.77835
 C426 C -0.17833 0.31401 0.76114
 C427 C -0.11957 0.37429 0.76475
 C428 C -0.10383 0.38089 0.74513
 C429 C -0.08407 0.40192 0.74625
 C430 C -0.07474 0.41281 0.72271
 C431 C -0.05580 0.43232 0.72269
 C432 C -0.04556 0.44129 0.74628
 C433 C -0.05470 0.43025 0.76989
 C434 C -0.07367 0.41072 0.76992
 H435 H -0.15323 0.29748 0.73227
 H436 H -0.12047 0.33050 0.73433
 H437 H -0.16293 0.36991 0.79261
 H438 H -0.19628 0.33694 0.79093
 H439 H -0.11898 0.38539 0.78222
 H440 H -0.10619 0.37140 0.72680
 H441 H -0.08221 0.40627 0.70421
 H442 H -0.04914 0.44032 0.70414
 H443 H -0.04705 0.43657 0.78841
 H444 H -0.07969 0.40230 0.78850
 C445 C 0.27309 0.17137 0.30326
 C446 C 0.27297 0.15048 0.32203
 C447 C 0.24981 0.14277 0.33385
 C448 C 0.22657 0.15611 0.32598
 C449 C 0.22673 0.17706 0.30728
 C450 C 0.24998 0.18501 0.29580
 C451 C 0.25078 0.12050 0.35375
 C452 C 0.23229 0.11597 0.37129
 C453 C 0.23341 0.09381 0.39123
 C454 C 0.21009 0.08479 0.40175
 C455 C 0.21016 0.06431 0.42095
 C456 C 0.23365 0.05257 0.43032
 C457 C 0.25706 0.06175 0.41999
 C458 C 0.25698 0.08218 0.40069
 H459 H 0.29135 0.17714 0.29491
 H460 H 0.29112 0.14047 0.32755
 H461 H 0.20810 0.15028 0.33373
 H462 H 0.20852 0.18676 0.30148
 H463 H 0.26767 0.10763 0.35399
 H464 H 0.21531 0.12867 0.37112
 H465 H 0.19169 0.09355 0.39499
 H466 H 0.19179 0.05781 0.42858
 H467 H 0.27550 0.05328 0.42695
 H468 H 0.27543 0.08912 0.39376
 C469 C 0.78176 0.18015 0.67868
 C470 C 0.78215 0.16186 0.65919
 C471 C 0.75903 0.15080 0.64987
 C472 C 0.73534 0.15894 0.66011
 C473 C 0.73496 0.17721 0.67961
 C474 C 0.75816 0.18796 0.68921
 C475 C 0.76050 0.13152 0.62910
 C476 C 0.74195 0.11384 0.62435
 C477 C 0.74341 0.09451 0.60364
 C478 C 0.72027 0.08351 0.59430
 C479 C 0.72065 0.06503 0.57500
 C480 C 0.74427 0.05691 0.56473
 C481 C 0.76749 0.06765 0.57428
 C482 C 0.76712 0.08617 0.59357
 H483 H 0.79999 0.18786 0.68577
 H484 H 0.80065 0.15610 0.65154
 H485 H 0.71698 0.15175 0.65283
 H486 H 0.71641 0.18329 0.68685
 H487 H 0.77781 0.13188 0.61765
 H488 H 0.72465 0.11347 0.63580
 H489 H 0.70177 0.08939 0.60187
 H490 H 0.70241 0.05707 0.56816
 H491 H 0.78604 0.06162 0.56696
 H492 H 0.78548 0.09340 0.60081
 C493 C 0.27421 -0.17414 0.67568
 C494 C 0.27386 -0.15506 0.65513
 C495 C 0.25048 -0.14746 0.64207
 C496 C 0.22726 -0.15929 0.65025
 C497 C 0.22764 -0.17843 0.67082
 C498 C 0.25110 -0.18602 0.68382
 C499 C 0.25125 -0.12661 0.62079
 C500 C 0.23227 -0.12216 0.60261
 C501 C 0.23333 -0.10103 0.58167
 C502 C 0.20994 -0.09109 0.57024
 C503 C 0.21000 -0.07115 0.55048
 C504 C 0.23353 -0.06086 0.54150
 C505 C 0.25699 -0.07112 0.55261
 C506 C 0.25692 -0.09103 0.57241
 H507 H 0.29265 -0.17975 0.68506
 H508 H 0.29201 -0.14625 0.64934
 H509 H 0.20867 -0.15351 0.64139
 H510 H 0.20945 -0.18683 0.67695
 H511 H 0.26843 -0.11454 0.62024
 H512 H 0.21491 -0.13392 0.60312
 H513 H 0.19152 -0.09861 0.57681
 H514 H 0.19158 -0.06380 0.54224
 H515 H 0.27545 -0.06382 0.54594
 H516 H 0.27541 -0.09878 0.57999
 C517 C 0.74534 -0.18996 0.36156
 C518 C 0.74381 -0.17202 0.38129
 C519 C 0.73989 -0.14503 0.37505
 C520 C 0.73673 -0.13633 0.34871
 C521 C 0.73774 -0.15435 0.32901
 C522 C 0.74227 -0.18128 0.33526
 C523 C 0.73852 -0.12648 0.39630
 C524 C 0.74809 -0.10206 0.39410
 C525 C 0.74741 -0.08367 0.41553
 C526 C 0.76797 -0.06613 0.41876
 C527 C 0.76777 -0.04835 0.43871
 C528 C 0.74664 -0.04732 0.45536
 C529 C 0.72583 -0.06458 0.45184
 C530 C 0.72628 -0.08273 0.43221
 H531 H 0.74854 -0.21068 0.36682
 H532 H 0.74604 -0.17916 0.40147
 H533 H 0.73309 -0.11569 0.34335
 H534 H 0.73536 -0.14723 0.30886
 H535 H 0.73095 -0.13373 0.41475
 H536 H 0.75818 -0.09585 0.37665
 H537 H 0.78433 -0.06638 0.40598
 H538 H 0.78396 -0.03511 0.44084
 H539 H 0.70926 -0.06415 0.46435
 H540 H 0.70986 -0.09562 0.42978
 C541 C 0.68583 0.71245 -0.15625
 C542 C 0.66718 0.71124 -0.13698
 C543 C 0.64535 0.72798 -0.13871
 C544 C 0.64208 0.74547 -0.16064
 C545 C 0.66069 0.74680 -0.17991
 C546 C 0.68316 0.73049 -0.17806
 C547 C 0.62630 0.72631 -0.11757
 C548 C 0.61043 0.74639 -0.11227
 C549 C 0.59190 0.74545 -0.09066
 C550 C 0.58265 0.76937 -0.08165
 C551 C 0.56502 0.76962 -0.06150
 C552 C 0.55607 0.74587 -0.04995
 C553 C 0.56507 0.72186 -0.05911
 C554 C 0.58271 0.72162 -0.07933
 H555 H 0.70251 0.69949 -0.15337
 H556 H 0.67006 0.69739 -0.12039
 H557 H 0.62495 0.75793 -0.16333
 H558 H 0.65686 0.76040 -0.19641
 H559 H 0.62662 0.70849 -0.10511
 H560 H 0.61193 0.76503 -0.12327
 H561 H 0.58921 0.78801 -0.09015
 H562 H 0.55842 0.78846 -0.05498
 H563 H 0.55834 0.70322 -0.05079
 H564 H 0.58867 0.70275 -0.08621
 C565 C 0.34360 0.22156 -0.20377
 C566 C 0.36336 0.22128 -0.18455
 C567 C 0.36227 0.23812 -0.16378
 C568 C 0.34066 0.25506 -0.16238
 C569 C 0.32087 0.25544 -0.18157
 C570 C 0.32184 0.23868 -0.20276
 C571 C 0.38342 0.23659 -0.14352
 C572 C 0.38885 0.25618 -0.12764
 C573 C 0.40970 0.25449 -0.10706
 C574 C 0.41938 0.27797 -0.09738
 C575 C 0.43849 0.27732 -0.07748
 C576 C 0.44824 0.25311 -0.06666
 C577 C 0.43850 0.22958 -0.07625
 C578 C 0.41937 0.23023 -0.09613
 H579 H 0.34592 0.20842 -0.21947
 H580 H 0.37972 0.20789 -0.18603
 H581 H 0.33854 0.26767 -0.14617
 H582 H 0.30462 0.26858 -0.17909
 H583 H 0.39553 0.21899 -0.14253
 H584 H 0.37833 0.27473 -0.13029
 H585 H 0.41213 0.29692 -0.10526
 H586 H 0.44550 0.29581 -0.07047
 H587 H 0.44541 0.21059 -0.06816
 H588 H 0.41187 0.21166 -0.10235
 C589 C 0.32163 0.72152 0.16659
 C590 C 0.34163 0.71974 0.14894
 C591 C 0.36315 0.73626 0.15028
 C592 C 0.36465 0.75424 0.17022
 C593 C 0.34467 0.75611 0.18794
 C594 C 0.32256 0.73990 0.18645
 C595 C 0.38367 0.73375 0.13083
 C596 C 0.40001 0.75323 0.12431
 C597 C 0.41948 0.75124 0.10373
 C598 C 0.42848 0.77457 0.09149
 C599 C 0.44650 0.77367 0.07172
 C600 C 0.45611 0.74936 0.06387
 C601 C 0.44753 0.72598 0.07648
 C602 C 0.42949 0.72688 0.09627
 H603 H 0.30539 0.70858 0.16401
 H604 H 0.34006 0.70556 0.13387
 H605 H 0.38140 0.76667 0.17256
 H606 H 0.34711 0.77012 0.20294
 H607 H 0.38403 0.71576 0.12036
 H608 H 0.39804 0.77213 0.13301
 H609 H 0.42129 0.79359 0.09701
 H610 H 0.45281 0.79207 0.06251
 H611 H 0.45478 0.70694 0.07109
 H612 H 0.42375 0.70847 0.10583
 C613 C 0.67186 0.28567 0.17143
 C614 C 0.65325 0.28592 0.15113
 C615 C 0.64176 0.26243 0.14355
 C616 C 0.64942 0.23851 0.15681
 C617 C 0.66803 0.23828 0.17720
 C618 C 0.67956 0.26184 0.18463
 C619 C 0.62269 0.26392 0.12127
 C620 C 0.60615 0.24463 0.11558
 C621 C 0.58749 0.24657 0.09301
 C622 C 0.57859 0.22323 0.08243
 C623 C 0.56093 0.22412 0.06123
 C624 C 0.55157 0.24845 0.05029
 C625 C 0.56019 0.27183 0.06111
 C626 C 0.57788 0.27094 0.08228
 H627 H 0.68013 0.30419 0.17690
 H628 H 0.64779 0.30461 0.14129
 H629 H 0.64174 0.21981 0.15125
 H630 H 0.67391 0.21957 0.18668
 H631 H 0.62247 0.28193 0.10908
 H632 H 0.60638 0.22637 0.12734
 H633 H 0.58548 0.20420 0.09047
 H634 H 0.55456 0.20573 0.05347
 H635 H 0.55313 0.29088 0.05333
 H636 H 0.58350 0.28936 0.09043
 C637 C -0.18476 0.65135 0.77666
 C638 C -0.16462 0.63268 0.77702
 C639 C -0.14381 0.63577 0.76024
 C640 C -0.14327 0.65834 0.74330
 C641 C -0.16338 0.67709 0.74287
 C642 C -0.18467 0.67403 0.75952
 C643 C -0.12279 0.61550 0.76165
 C644 C -0.10667 0.61147 0.74210
 C645 C -0.08605 0.59078 0.74349
 C646 C -0.07679 0.58143 0.72017
 C647 C -0.05736 0.56196 0.72058
 C648 C -0.04658 0.55155 0.74440
 C649 C -0.05554 0.56121 0.76777
 C650 C -0.07496 0.58068 0.76735
 H651 H -0.20040 0.64741 0.78977
 H652 H -0.16545 0.61553 0.79039
 H653 H -0.12710 0.66199 0.73069
 H654 H -0.16162 0.69415 0.72968
 H655 H -0.12159 0.60255 0.77903
 H656 H -0.10942 0.62271 0.72376
 H657 H -0.08480 0.58905 0.70153
 H658 H -0.05081 0.55505 0.70222
 H659 H -0.04744 0.55382 0.78644
 H660 H -0.08085 0.58800 0.78574
 C661 C -0.18960 0.34623 0.22852
 C662 C -0.17007 0.36512 0.22747
 C663 C -0.14828 0.36288 0.24438
 C664 C -0.14604 0.34088 0.26202
 C665 C -0.16555 0.32199 0.26320
 C666 C -0.18788 0.32428 0.24656
 C667 C -0.12812 0.38349 0.24257
 C668 C -0.11152 0.38843 0.26229
 C669 C -0.09182 0.40951 0.26089
 C670 C -0.08182 0.41906 0.28427
 C671 C -0.06320 0.43887 0.28398
 C672 C -0.05401 0.44947 0.26023
 C673 C -0.06370 0.43965 0.23679
 C674 C -0.08232 0.41980 0.23709
 H675 H -0.20616 0.34949 0.21539
 H676 H -0.17219 0.38179 0.21353
 H677 H -0.12904 0.33781 0.27469
 H678 H -0.16248 0.30537 0.27690
 H679 H -0.12811 0.39590 0.22483
 H680 H -0.11319 0.37766 0.28086
 H681 H -0.08860 0.41131 0.30288
 H682 H -0.05606 0.44591 0.30239
 H683 H -0.05681 0.44721 0.21818
 H684 H -0.08882 0.41238 0.21866
 C685 C 0.17451 0.31300 0.70911
 C686 C 0.15496 0.33233 0.70898
 C687 C 0.14790 0.34368 0.73219
 C688 C 0.16053 0.33483 0.75575
 C689 C 0.18012 0.31555 0.75586
 C690 C 0.18740 0.30447 0.73255
 C691 C 0.12695 0.36408 0.73094
 C692 C 0.12331 0.38139 0.74950
 C693 C 0.10239 0.40177 0.74803
 C694 C 0.09388 0.41194 0.77129
 C695 C 0.07440 0.43135 0.77086
 C696 C 0.06317 0.44125 0.74706
 C697 C 0.07192 0.43135 0.72371
 C698 C 0.09135 0.41188 0.72416
 H699 H 0.17980 0.30504 0.69080
 H700 H 0.14548 0.33862 0.69059
 H701 H 0.15512 0.34224 0.77424
 H702 H 0.18925 0.30895 0.77430
 H703 H 0.11429 0.36486 0.71374
 H704 H 0.13579 0.38065 0.76681
 H705 H 0.10222 0.40469 0.78992
 H706 H 0.06820 0.43865 0.78919
 H707 H 0.06384 0.43874 0.70504
 H708 H 0.09796 0.40528 0.70574
 C709 C 0.18672 0.66399 0.22667
 C710 C 0.16665 0.64573 0.22624
 C711 C 0.14515 0.64833 0.24201
 C712 C 0.14378 0.67006 0.25788
 C713 C 0.16381 0.68842 0.25836
 C714 C 0.18586 0.68577 0.24284
 C715 C 0.12440 0.62838 0.24082
 C716 C 0.10802 0.62327 0.26024
 C717 C 0.08801 0.60254 0.25935
 C718 C 0.07899 0.59147 0.28294
 C719 C 0.06033 0.57169 0.28300
 C720 C 0.05010 0.56269 0.25942
 C721 C 0.05873 0.57413 0.23578
 C722 C 0.07741 0.59391 0.23572
 H723 H 0.20288 0.66047 0.21434
 H724 H 0.16811 0.62926 0.21367
 H725 H 0.12706 0.67332 0.26964
 H726 H 0.16143 0.70477 0.27078
 H727 H 0.12377 0.61644 0.22392
 H728 H 0.11025 0.63342 0.27821
 H729 H 0.08663 0.59795 0.30140
 H730 H 0.05399 0.56339 0.30156
 H731 H 0.05102 0.56784 0.21728
 H732 H 0.08315 0.60258 0.21713
 C733 C 0.72008 -0.18011 0.68636
 C734 C 0.71902 -0.15888 0.66799
 C735 C 0.74179 -0.14880 0.65716
 C736 C 0.76583 -0.16030 0.66540
 C737 C 0.76687 -0.18159 0.68379
 C738 C 0.74401 -0.19172 0.69450
 C739 C 0.73944 -0.12597 0.63799
 C740 C 0.75789 -0.11892 0.62115
 C741 C 0.75495 -0.09630 0.60180
 C742 C 0.77738 -0.08451 0.59188
 C743 C 0.77550 -0.06343 0.57332
 C744 C 0.75108 -0.05381 0.56409
 C745 C 0.72862 -0.06578 0.57381
 C746 C 0.73050 -0.08684 0.59237
 H747 H 0.70208 -0.18761 0.69397
 H748 H 0.70025 -0.15039 0.66209
 H749 H 0.78395 -0.15269 0.65827
 H750 H 0.78565 -0.18974 0.69005
 H751 H 0.72143 -0.11480 0.63773
 H752 H 0.77607 -0.12978 0.62143
 H753 H 0.79644 -0.09156 0.59861
 H754 H 0.79319 -0.05474 0.56613
 H755 H 0.70952 -0.05905 0.56689
 H756 H 0.71273 -0.09594 0.59872
 C757 C 0.27630 -0.17366 0.31406
 C758 C 0.27594 -0.15373 0.33191
 C759 C 0.25233 -0.14403 0.34081
 C760 C 0.22896 -0.15428 0.33092
 C761 C 0.22934 -0.17423 0.31309
 C762 C 0.25300 -0.18425 0.30454
 C763 C 0.25302 -0.12292 0.35984
 C764 C 0.23348 -0.11786 0.37570
 C765 C 0.23434 -0.09703 0.39502
 C766 C 0.21082 -0.08720 0.40400
 C767 C 0.21065 -0.06790 0.42252
 C768 C 0.23407 -0.05815 0.43268
 C769 C 0.25764 -0.06817 0.42391
 C770 C 0.25781 -0.08745 0.40536
 H771 H 0.29486 -0.18108 0.30805
 H772 H 0.29421 -0.14608 0.33905
 H773 H 0.21031 -0.14672 0.33642
 H774 H 0.21106 -0.18150 0.30564
 H775 H 0.27062 -0.11156 0.36095
 H776 H 0.21585 -0.12918 0.37460
 H777 H 0.19247 -0.09440 0.39656
 H778 H 0.19215 -0.06069 0.42895
 H779 H 0.27603 -0.06127 0.43153
 H780 H 0.27638 -0.09510 0.39972
 C781 C 0.77157 0.18725 0.33270
 C782 C 0.77232 0.16851 0.35354
 C783 C 0.74940 0.15715 0.36272
 C784 C 0.72552 0.16519 0.35067
 C785 C 0.72478 0.18399 0.32978
 C786 C 0.74779 0.19528 0.32060
 C787 C 0.75147 0.13763 0.38519
 C788 C 0.73302 0.12014 0.39142
 C789 C 0.73587 0.10025 0.41352
 C790 C 0.71342 0.08937 0.42432
 C791 C 0.71524 0.07013 0.44476
 C792 C 0.73964 0.06121 0.45473
 C793 C 0.76213 0.07197 0.44383
 C794 C 0.76030 0.09117 0.42340
 H795 H 0.78968 0.19527 0.32592
 H796 H 0.79097 0.16275 0.36244
 H797 H 0.70730 0.15761 0.35757
 H798 H 0.70612 0.19012 0.32121
 H799 H 0.76934 0.13762 0.39676
 H800 H 0.71496 0.12019 0.38016
 H801 H 0.69437 0.09581 0.41693
 H802 H 0.69753 0.06214 0.45263
 H803 H 0.78122 0.06530 0.45085
 H804 H 0.77812 0.09825 0.41507
 C805 C 0.27612 0.16181 0.66198
 C806 C 0.27562 0.14242 0.64357
 C807 C 0.25199 0.13426 0.63250
 C808 C 0.22873 0.14567 0.64065
 C809 C 0.22925 0.16510 0.65905
 C810 C 0.25295 0.17344 0.66991
 C811 C 0.25259 0.11342 0.61319
 C812 C 0.23317 0.10921 0.59595
 C813 C 0.23405 0.08848 0.57656
 C814 C 0.21056 0.07925 0.56615
 C815 C 0.21044 0.05997 0.54760
 C816 C 0.23389 0.04964 0.53885
 C817 C 0.25743 0.05909 0.54903
 C818 C 0.25755 0.07835 0.56760
 H819 H 0.29471 0.16795 0.66976
 H820 H 0.29381 0.13389 0.63778
 H821 H 0.21002 0.13937 0.63340
 H822 H 0.21103 0.17322 0.66518
 H823 H 0.27004 0.10138 0.61316
 H824 H 0.21562 0.12109 0.59598
 H825 H 0.19219 0.08689 0.57251
 H826 H 0.19196 0.05322 0.54007
 H827 H 0.27584 0.05174 0.54251
 H828 H 0.27610 0.08554 0.57437
   
