data_POSCAR
  _audit_creation_date              2014-09-24
  _audit_creation_method            'ToBaCCo'
  _symmetry_space_group_name_H-M    'P1'
  _symmetry_Int_Tables_number       1
  _symmetry_cell_setting            triclinic
  loop_
  _symmetry_equiv_pos_as_xyz
 x,y,z
_cell_length_a 43.1681
_cell_length_b 44.0017
_cell_length_c 43.3076
_cell_angle_alpha 90.347800
_cell_angle_beta 89.768100
_cell_angle_gamma 90.091500
loop_
  _atom_site_label
  _atom_site_type_symbol
  _atom_site_fract_x
  _atom_site_fract_y
  _atom_site_fract_z
C1 C 0.13920 0.17029 0.18280
 C2 C 0.14154 0.19000 0.15756
 C3 C 0.16414 0.18527 0.13528
 C4 C 0.18486 0.16092 0.13809
 C5 C 0.18254 0.14155 0.16300
 C6 C 0.15969 0.14637 0.18557
 C7 C 0.11931 0.16904 0.20771
 N8 N 0.12749 0.14519 0.22569
 C9 C 0.15223 0.13115 0.21222
 C10 C 0.20527 0.11991 0.15965
 N11 N 0.22160 0.12583 0.13351
 C12 C 0.20920 0.15093 0.12010
 C13 C 0.16068 0.20748 0.11333
 N14 N 0.13686 0.22575 0.12197
 C15 C 0.12491 0.21521 0.14894
 H16 H 0.10032 0.18445 0.21248
 H17 H 0.16375 0.11101 0.22052
 H18 H 0.20977 0.10129 0.17525
 H19 H 0.21677 0.16116 0.09872
 H20 H 0.17449 0.21025 0.09261
 H21 H 0.10523 0.22474 0.16114
 C22 C -0.13209 0.84687 0.18516
 C23 C -0.13025 0.82256 0.16412
 C24 C -0.15217 0.81953 0.14108
 C25 C -0.17607 0.84095 0.13860
 C26 C -0.17793 0.86489 0.15938
 C27 C -0.15567 0.86795 0.18275
 C28 C -0.11412 0.85529 0.20998
 N29 N -0.12618 0.88110 0.22270
 C30 C -0.15149 0.88902 0.20603
 C31 C -0.20352 0.88183 0.15160
 N32 N -0.21714 0.86879 0.12645
 C33 C -0.20034 0.84389 0.11833
 C34 C -0.14474 0.79387 0.12427
 N35 N -0.11881 0.78137 0.13656
 C36 C -0.10969 0.79887 0.16077
 H37 H -0.09365 0.84346 0.21767
 H38 H -0.16599 0.90861 0.21065
 H39 H -0.21110 0.90231 0.16328
 H40 H -0.20553 0.82886 0.09913
 H41 H -0.15703 0.78531 0.10429
 H42 H -0.08959 0.79456 0.17496
 C43 C -0.14745 0.17096 -0.19029
 C44 C -0.15371 0.19568 -0.17071
 C45 C -0.17784 0.19422 -0.14957
 C46 C -0.19630 0.16786 -0.14804
 C47 C -0.19000 0.14351 -0.16748
 C48 C -0.16557 0.14513 -0.18882
 C49 C -0.12548 0.16617 -0.21290
 N50 N -0.13005 0.13820 -0.22551
 C51 C -0.15459 0.12510 -0.21081
 C52 C -0.21114 0.12105 -0.16099
 N53 N -0.23043 0.13105 -0.13831
 C54 C -0.22154 0.15976 -0.13018
 C55 C -0.17821 0.22161 -0.13378
 N56 N -0.15502 0.23941 -0.14508
 C57 C -0.14011 0.22377 -0.16771
 H58 H -0.10764 0.18205 -0.21994
 H59 H -0.16378 0.10263 -0.21528
 H60 H -0.21250 0.09898 -0.17214
 H61 H -0.23214 0.17373 -0.11244
 H62 H -0.19443 0.22818 -0.11584
 H63 H -0.12066 0.23227 -0.18098
 C64 C 0.13827 0.83566 -0.18366
 C65 C 0.13317 0.81184 -0.16289
 C66 C 0.15313 0.80759 -0.13835
 C67 C 0.17833 0.82739 -0.13409
 C68 C 0.18327 0.85087 -0.15461
 C69 C 0.16304 0.85514 -0.17942
 C70 C 0.12282 0.84502 -0.20966
 N71 N 0.13762 0.86989 -0.22118
 C72 C 0.16212 0.87626 -0.20267
 C73 C 0.20934 0.86622 -0.14523
 N74 N 0.22044 0.85272 -0.11932
 C75 C 0.20144 0.82907 -0.11226
 C76 C 0.14256 0.78272 -0.12223
 N77 N 0.11666 0.77199 -0.13640
 C78 C 0.11065 0.78976 -0.16111
 H79 H 0.10211 0.83461 -0.21891
 H80 H 0.17825 0.89485 -0.20602
 H81 H 0.21892 0.88604 -0.15642
 H82 H 0.20438 0.81401 -0.09281
 H83 H 0.15266 0.77352 -0.10146
 H84 H 0.09132 0.78673 -0.17670
 C85 C 0.17235 1.15045 0.81496
 C86 C 0.19840 1.15319 0.83413
 C87 C 0.19897 1.17519 0.85709
 C88 C 0.17357 1.19454 0.86140
 C89 C 0.14798 1.19191 0.84253
 C90 C 0.14730 1.16963 0.81925
 C91 C 0.16526 1.13135 0.79064
 N92 N 0.13645 1.13851 0.78019
 C93 C 0.12537 1.16180 0.79769
 C94 C 0.12711 1.21383 0.85172
 N95 N 0.13949 1.22961 0.87588
 C96 C 0.16781 1.21777 0.88200
 C97 C 0.22696 1.17297 0.87188
 N98 N 0.24333 1.15000 0.85875
 C99 C 0.22613 1.13774 0.83554
 H100 H 0.18006 1.11353 0.78169
 H101 H 0.10296 1.17245 0.79480
 H102 H 0.10458 1.21751 0.84162
 H103 H 0.18326 1.22571 0.89999
 H104 H 0.23483 1.18691 0.89101
 H105 H 0.23325 1.11925 0.82055
 C106 C 0.83839 0.85752 0.81409
 C107 C 0.81670 0.85524 0.83813
 C108 C 0.81711 0.83038 0.85750
 C109 C 0.83906 0.80734 0.85292
 C110 C 0.86051 0.80958 0.82924
 C111 C 0.86009 0.83481 0.80956
 C112 C 0.84361 0.87929 0.79203
 N113 N 0.86772 0.87029 0.77397
 C114 C 0.87802 0.84304 0.78460
 C115 C 0.87928 0.78436 0.83082
 N116 N 0.86956 0.76677 0.85466
 C117 C 0.84489 0.78074 0.86833
 C118 C 0.79386 0.83442 0.87895
 N119 N 0.77917 0.86090 0.87280
 C120 C 0.79303 0.87389 0.84792
 H121 H 0.83067 0.90016 0.78922
 H122 H 0.89730 0.83015 0.77540
 H123 H 0.89869 0.77921 0.81575
 H124 H 0.83238 0.77283 0.88842
 H125 H 0.78794 0.81919 0.89762
 H126 H 0.78679 0.89551 0.83794
 C127 C 0.15394 0.85705 1.18101
 C128 C 0.17734 0.85474 1.15842
 C129 C 0.17442 0.83373 1.13467
 C130 C 0.14846 0.81469 1.13321
 C131 C 0.12538 0.81712 1.15523
 C132 C 0.12810 0.83845 1.17919
 C133 C 0.15005 0.87542 1.20669
 N134 N 0.12243 0.86831 1.22024
 C135 C 0.10895 0.84583 1.20345
 C136 C 0.10305 0.79590 1.14807
 N137 N 0.11232 0.78043 1.12250
 C138 C 0.13998 0.79193 1.11305
 C139 C 0.19953 0.83710 1.11546
 N140 N 0.21779 0.85952 1.12687
 C141 C 0.20453 0.87051 1.15322
 H142 H 0.16601 0.89283 1.21437
 H143 H 0.08671 0.83553 1.20856
 H144 H 0.08189 0.79158 1.16083
 H145 H 0.15300 0.78443 1.09302
 H146 H 0.20393 0.82459 1.09429
 H147 H 0.21329 0.88924 1.16695
 C148 C 0.83521 1.13925 1.18533
 C149 C 0.81447 1.13828 1.16051
 C150 C 0.81566 1.16040 1.13807
 C151 C 0.83720 1.18400 1.14029
 C152 C 0.85733 1.18544 1.16502
 C153 C 0.85642 1.16276 1.18774
 C154 C 0.83994 1.11938 1.20917
 N155 N 0.86528 1.12957 1.22863
 C156 C 0.87440 1.15783 1.21338
 C157 C 0.87617 1.21039 1.16041
 N158 N 0.86777 1.22375 1.13348
 C159 C 0.84408 1.20770 1.12105
 C160 C 0.79360 1.15344 1.11639
 N161 N 0.77869 1.12787 1.12537
 C162 C 0.79137 1.11823 1.15225
 H163 H 0.82711 1.09857 1.21293
 H164 H 0.89333 1.17218 1.22093
 H165 H 0.89516 1.21760 1.17497
 H166 H 0.83301 1.21271 1.09927
 H167 H 0.78851 1.16618 1.09571
 H168 H 0.78462 1.09800 1.16469
 O169 O 0.45441 1.04959 1.05451
 O170 O 0.42124 1.01744 1.02907
 C171 C 0.42688 1.04013 1.04743
 O172 O 0.53945 1.04645 0.94441
 O173 O 0.57515 1.02083 0.97353
 C174 C 0.56771 1.04008 0.95224
 O175 O 0.45218 1.04431 0.94767
 O176 O 0.42005 1.01459 0.97722
 C177 C 0.42491 1.03500 0.95636
 O178 O 0.54107 1.04872 1.05735
 O179 O 0.57554 1.02207 1.02731
 C180 C 0.56898 1.04147 1.04894
 Zr181 Zr 0.49804 1.03254 1.04033
 O182 O 0.50021 1.08059 1.03924
 O183 O 0.49451 1.03362 1.08912
 Zr184 Zr 0.49678 1.02998 0.96235
 O185 O 0.49771 1.07808 0.96105
 O186 O 0.49308 1.02785 0.91364
 O187 O 0.46954 1.03607 1.00170
 O188 O 0.52410 1.03792 1.00070
 O189 O 0.54540 0.94455 1.06025
 O190 O 0.57782 0.97137 1.02830
 C191 C 0.57274 0.95295 1.05101
 O192 O 0.45683 0.93443 0.95086
 O193 O 0.42207 0.96248 0.97939
 C194 C 0.42886 0.94136 0.95950
 O195 O 0.54339 0.94091 0.94537
 O196 O 0.57681 0.96983 0.97430
 C197 C 0.57098 0.94993 0.95292
 O198 O 0.45853 0.93805 1.05922
 O199 O 0.42313 0.96450 1.03060
 C200 C 0.43033 0.94477 1.05145
 Zr201 Zr 0.50118 0.95579 1.04244
 O202 O 0.50663 0.90796 1.04204
 O203 O 0.49857 0.95602 1.09124
 Zr204 Zr 0.49999 0.95322 0.96466
 O205 O 0.50568 0.90554 0.96780
 O206 O 0.49588 0.94952 0.91612
 Zr207 Zr 0.45293 0.99102 1.00338
 Zr208 Zr 0.54523 0.99484 1.00139
 O209 O 0.52792 0.95013 1.00310
 O210 O 0.47311 0.94743 1.00428
 O211 O 0.52727 0.99549 1.04680
 O212 O 0.47152 0.99028 0.95837
 O213 O 0.47280 0.99334 1.04761
 O214 O 0.52588 0.99259 0.95679
 H215 H 0.53732 1.05634 1.00025
 H216 H 0.45742 0.98899 0.94041
 H217 H 0.54285 0.93305 1.00322
 H218 H 0.45906 0.99366 1.06599
 H219 H 0.51188 1.01763 0.90561
 H220 H 0.50853 0.96599 0.90708
 H221 H 0.48730 0.89729 0.97861
 H222 H 0.48803 0.89908 1.03220
 H223 H 0.51360 0.97130 1.09879
 H224 H 0.51258 1.02264 1.09746
 H225 H 0.48385 1.08758 1.02506
 H226 H 0.47950 1.08558 0.97273
 O227 O 0.03752 0.53778 -0.06389
 O228 O 0.01158 0.57228 -0.03344
 C229 C 0.02986 0.56535 -0.05621
 O230 O -0.07064 0.44986 -0.04316
 O231 O -0.03691 0.41921 -0.01687
 C232 C -0.06090 0.42338 -0.03416
 O233 O -0.07044 0.53510 -0.05191
 O234 O -0.03978 0.57073 -0.02800
 C235 C -0.06185 0.56294 -0.04665
 O236 O 0.04177 0.45294 -0.05800
 O237 O 0.01675 0.42079 -0.02462
 C238 C 0.03541 0.42609 -0.04751
 Zr239 Zr 0.02500 0.49582 -0.04324
 O240 O 0.01795 0.48984 -0.09127
 O241 O 0.07342 0.49956 -0.05017
 Zr242 Zr -0.05260 0.49404 -0.03367
 O243 O -0.05807 0.48737 -0.08179
 O244 O -0.10124 0.49653 -0.02776
 O245 O -0.01519 0.52170 -0.04592
 O246 O -0.01374 0.46816 -0.04252
 O247 O 0.05420 0.45915 0.04935
 O248 O 0.02263 0.42365 0.02647
 C249 C 0.04588 0.43130 0.04369
 O250 O -0.05777 0.54243 0.06022
 O251 O -0.03395 0.57435 0.02580
 C252 C -0.05135 0.56927 0.04969
 O253 O -0.05751 0.45730 0.06337
 O254 O -0.03032 0.42303 0.03380
 C255 C -0.04924 0.42981 0.05608
 O256 O 0.05007 0.54437 0.04735
 O257 O 0.01795 0.57527 0.01950
 C258 C 0.04047 0.57089 0.03865
 Zr259 Zr 0.03431 0.50056 0.03416
 O260 O 0.04021 0.50042 0.08267
 O261 O 0.08277 0.50462 0.02759
 Zr262 Zr -0.04349 0.49921 0.04362
 O263 O -0.03777 0.49935 0.09215
 O264 O -0.09226 0.50125 0.04864
 Zr265 Zr -0.01028 0.54270 -0.00228
 Zr266 Zr -0.00789 0.45231 0.00281
 O267 O -0.00322 0.47399 0.04599
 O268 O -0.00457 0.52737 0.04339
 O269 O 0.03648 0.47127 -0.00380
 O270 O -0.05428 0.52295 0.00410
 O271 O 0.03464 0.52457 -0.00664
 O272 O -0.05330 0.46943 0.00732
 H273 H -0.01565 0.45321 -0.05962
 H274 H -0.07271 0.53631 0.00540
 H275 H -0.00062 0.46158 0.06481
 H276 H 0.05251 0.53845 -0.00949
 H277 H -0.10735 0.48033 -0.01322
 H278 H -0.10100 0.48260 0.03922
 H279 H -0.02466 0.51704 0.09754
 H280 H 0.02781 0.51738 0.09128
 H281 H 0.08981 0.48648 0.01594
 H282 H 0.08347 0.48473 -0.03639
 H283 H 0.00632 0.50767 -0.09879
 H284 H -0.04641 0.50369 -0.09233
 O285 O 1.06533 -0.04889 0.45737
 O286 O 1.03665 -0.01927 0.42480
 C287 C 1.05725 -0.03997 0.43005
 O288 O 0.95419 -0.05301 0.54349
 O289 O 0.98254 -0.02581 0.57887
 C290 C 0.96184 -0.04596 0.57159
 O291 O 0.95799 -0.05244 0.45706
 O292 O 0.98452 -0.02059 0.42457
 C293 C 0.96568 -0.04296 0.42976
 O294 O 1.06631 -0.05080 0.54395
 O295 O 1.03637 -0.02472 0.57906
 C296 C 1.05789 -0.04406 0.57198
 Zr297 Zr 1.04934 -0.03412 0.50137
 O298 O 1.05006 -0.08224 0.50210
 O299 O 1.09831 -0.03257 0.49855
 Zr300 Zr 0.97113 -0.03560 0.50107
 O301 O 0.97034 -0.08366 0.50216
 O302 O 0.92223 -0.03459 0.49732
 O303 O 1.01058 -0.03976 0.47340
 O304 O 1.01015 -0.04148 0.52775
 O305 O 1.06600 0.05458 0.54882
 O306 O 1.03580 0.02622 0.58151
 C307 C 1.05769 0.04571 0.57615
 O308 O 0.95559 0.06046 0.46242
 O309 O 0.98349 0.03245 0.42720
 C310 C 0.96372 0.05348 0.43438
 O311 O 0.95062 0.05246 0.54845
 O312 O 0.98139 0.02528 0.58134
 C313 C 0.95890 0.04394 0.57583
 O314 O 1.06333 0.06131 0.46273
 O315 O 1.03546 0.03357 0.42742
 C316 C 1.05531 0.05451 0.43468
 Zr317 Zr 1.04776 0.04255 0.50508
 O318 O 1.04486 0.09028 0.51110
 O319 O 1.09659 0.04539 0.50195
 Zr320 Zr 0.96970 0.04096 0.50477
 O321 O 0.96899 0.08869 0.51118
 O322 O 0.92088 0.04028 0.50051
 Zr323 Zr 1.00980 0.00525 0.45693
 Zr324 Zr 1.00921 0.00157 0.54924
 O325 O 1.00845 0.04624 0.53220
 O326 O 1.00885 0.04879 0.47759
 O327 O 1.05448 0.00317 0.53079
 O328 O 0.96490 0.00364 0.47594
 O329 O 1.05439 0.00542 0.47645
 O330 O 0.96416 0.00139 0.53051
 H331 H 1.01037 -0.06005 0.54057
 H332 H 0.94693 0.00384 0.46177
 H333 H 1.00803 0.06333 0.54720
 H334 H 1.07282 0.00637 0.46277
 H335 H 0.91383 -0.02626 0.51690
 H336 H 0.91277 0.02581 0.51596
 H337 H 0.98227 0.09770 0.49498
 H338 H 1.03534 0.09881 0.49231
 H339 H 1.10512 0.02913 0.51505
 H340 H 1.10600 -0.02239 0.51745
 H341 H 1.03880 -0.08963 0.48367
 H342 H 0.98641 -0.09092 0.48757
 C343 C 1.11246 0.13719 0.25213
 C344 C 1.12360 0.11487 0.27205
 C345 C 1.10666 0.10523 0.30003
 C346 C 1.12351 0.09480 0.32546
 C347 C 1.10821 0.08420 0.35176
 C348 C 1.07567 0.08340 0.35287
 C349 C 1.05879 0.09350 0.32730
 C350 C 1.07411 0.10458 0.30117
 C351 C 1.05898 0.07018 0.37941
 C352 C 1.07050 0.07108 0.40946
 H353 H 1.14629 0.10516 0.26825
 H354 H 1.14860 0.09469 0.32489
 H355 H 1.12189 0.07572 0.37073
 H356 H 1.03371 0.09262 0.32750
 H357 H 1.06048 0.11169 0.28158
 H358 H 1.03663 0.05971 0.37517
 H359 H 1.09152 0.14930 0.25849
 H360 H 1.09107 0.08423 0.41466
 C361 C 0.88442 -0.10293 0.24759
 C362 C 0.90843 -0.11327 0.26643
 C363 C 0.91956 -0.09609 0.29371
 C364 C 0.93140 -0.11217 0.31891
 C365 C 0.94235 -0.09673 0.34498
 C366 C 0.94210 -0.06480 0.34613
 C367 C 0.93109 -0.04867 0.32058
 C368 C 0.91966 -0.06413 0.29467
 C369 C 0.95428 -0.04792 0.37312
 C370 C 0.95227 -0.05914 0.40315
 H371 H 0.91804 -0.13566 0.26271
 H372 H 0.93200 -0.13678 0.31850
 H373 H 0.95159 -0.10983 0.36390
 H374 H 0.93115 -0.02405 0.32076
 H375 H 0.91155 -0.05106 0.27523
 H376 H 0.96391 -0.02548 0.36938
 H377 H 0.87293 -0.08186 0.25376
 H378 H 0.93998 -0.08017 0.40747
 C379 C 0.88752 0.12641 0.75115
 C380 C 0.87999 0.09945 0.73564
 C381 C 0.89873 0.08779 0.70953
 C382 C 0.88377 0.07346 0.68470
 C383 C 0.90082 0.06272 0.65941
 C384 C 0.93325 0.06558 0.65884
 C385 C 0.94833 0.07887 0.68419
 C386 C 0.93121 0.09021 0.70921
 C387 C 0.95170 0.05419 0.63244
 C388 C 0.94114 0.05611 0.60213
 H389 H 0.85839 0.08796 0.74058
 H390 H 0.85880 0.07099 0.68468
 H391 H 0.88866 0.05178 0.64055
 H392 H 0.97335 0.08087 0.68440
 H393 H 0.94340 0.10043 0.72846
 H394 H 0.97482 0.04570 0.63681
 H395 H 0.90745 0.13925 0.74323
 H396 H 0.91948 0.06753 0.59740
 C397 C 1.12994 -0.11348 0.75359
 C398 C 1.10704 -0.12246 0.73270
 C399 C 1.09870 -0.10390 0.70570
 C400 C 1.08928 -0.11849 0.67843
 C401 C 1.08059 -0.10153 0.65272
 C402 C 1.08065 -0.06960 0.65406
 C403 C 1.08950 -0.05500 0.68153
 C404 C 1.09873 -0.07197 0.70707
 C405 C 1.06959 -0.05122 0.62795
 C406 C 1.07300 -0.06041 0.59725
 H407 H 1.09633 -0.14459 0.73471
 H408 H 1.08869 -0.14308 0.67702
 H409 H 1.07296 -0.11344 0.63216
 H410 H 1.08919 -0.03043 0.68322
 H411 H 1.10508 -0.06011 0.72809
 H412 H 1.05868 -0.02959 0.63310
 H413 H 1.14295 -0.09292 0.74886
 H414 H 1.08668 -0.08029 0.59160
 C415 C 0.24595 1.10875 1.12347
 C416 C 0.26476 1.11709 1.09856
 C417 C 0.29158 1.09865 1.08854
 C418 C 0.31780 1.11336 1.07658
 C419 C 0.34361 1.09661 1.06706
 C420 C 0.34343 1.06472 1.06887
 C421 C 0.31685 1.04993 1.07992
 C422 C 0.29120 1.06673 1.08995
 C423 C 0.37013 1.04650 1.05815
 C424 C 0.40056 1.05688 1.06070
 H425 H 0.26159 1.13887 1.08761
 H426 H 0.31840 1.13791 1.07487
 H427 H 0.36341 1.10861 1.05772
 H428 H 0.31604 1.02534 1.08102
 H429 H 0.27093 1.05472 1.09824
 H430 H 0.36575 1.02397 1.04887
 H431 H 0.25181 1.08841 1.13618
 H432 H 0.40530 1.07804 1.07268
 C433 C 0.24584 0.86087 0.89740
 C434 C 0.26703 0.88278 0.88727
 C435 C 0.29443 0.89221 0.90530
 C436 C 0.32082 0.90236 0.88942
 C437 C 0.34670 0.91281 0.90556
 C438 C 0.34651 0.91372 0.93801
 C439 C 0.31997 0.90395 0.95395
 C440 C 0.29420 0.89300 0.93777
 C441 C 0.37286 0.92660 0.95540
 C442 C 0.40332 0.92476 0.94468
 H443 H 0.26489 0.89217 0.86438
 H444 H 0.32135 0.90237 0.86441
 H445 H 0.36642 0.92106 0.89255
 H446 H 0.31915 0.90492 0.97894
 H447 H 0.27386 0.88610 0.95065
 H448 H 0.36815 0.93769 0.97734
 H449 H 0.25043 0.84911 0.91881
 H450 H 0.40865 0.91101 0.92453
 C451 C 0.75719 0.87824 1.11103
 C452 C 0.73815 0.90185 1.12160
 C453 C 0.71036 0.91185 1.10454
 C454 C 0.68477 0.92302 1.12111
 C455 C 0.65825 0.93283 1.10566
 C456 C 0.65708 0.93212 1.07322
 C457 C 0.68299 0.92174 1.05661
 C458 C 0.70932 0.91143 1.07209
 C459 C 0.62974 0.94323 1.05622
 C460 C 0.59958 0.94082 1.06774
 H461 H 0.74217 0.91200 1.14403
 H462 H 0.68523 0.92399 1.14611
 H463 H 0.63900 0.94156 1.11910
 H464 H 0.68279 0.92145 1.03160
 H465 H 0.72902 0.90378 1.05863
 H466 H 0.63335 0.95230 1.03326
 H467 H 0.75056 0.86615 1.09020
 H468 H 0.59538 0.92909 1.08926
 C469 C 0.74599 1.11399 0.87346
 C470 C 0.72410 1.12519 0.89451
 C471 C 0.69858 1.10597 0.90647
 C472 C 0.66976 1.11924 0.91305
 C473 C 0.64518 1.10155 0.92409
 C474 C 0.64916 1.07026 0.92925
 C475 C 0.67825 1.05718 0.92354
 C476 C 0.70268 1.07477 0.91202
 C477 C 0.62396 1.05118 0.94203
 C478 C 0.59266 1.05701 0.93666
 H479 H 0.72401 1.14904 0.90065
 H480 H 0.66618 1.14331 0.90939
 H481 H 0.62333 1.11256 0.92921
 H482 H 0.68203 1.03325 0.92787
 H483 H 0.72489 1.06402 0.90804
 H484 H 0.63033 1.03154 0.95557
 H485 H 0.74337 1.09084 0.86518
 H486 H 0.58612 1.07499 0.92103
 C487 C 0.12598 0.25110 0.10441
 C488 C 0.10945 0.27485 0.11813
 C489 C 0.09756 0.30097 0.10047
 C490 C 0.09392 0.32912 0.11541
 C491 C 0.08187 0.35403 0.09960
 C492 C 0.07281 0.35106 0.06857
 C493 C 0.07596 0.32277 0.05380
 C494 C 0.08844 0.29799 0.06947
 C495 C 0.05815 0.37633 0.05172
 C496 C 0.06349 0.40692 0.05866
 H497 H 0.10656 0.27518 0.14297
 H498 H 0.10037 0.33181 0.13943
 H499 H 0.07883 0.37523 0.11201
 H500 H 0.06856 0.31979 0.03011
 H501 H 0.09009 0.27637 0.05754
 H502 H 0.04282 0.37054 0.03283
 H503 H 0.13231 0.25244 0.08024
 H504 H 0.08071 0.41325 0.07563
 C505 C -0.14696 0.26985 -0.13601
 C506 C -0.15446 0.28188 -0.10705
 C507 C -0.14255 0.31179 -0.09659
 C508 C -0.13528 0.31610 -0.06533
 C509 C -0.12203 0.34339 -0.05516
 C510 C -0.11621 0.36710 -0.07606
 C511 C -0.12503 0.36341 -0.10699
 C512 C -0.13788 0.33594 -0.11726
 C513 C -0.10079 0.39563 -0.06619
 C514 C -0.07783 0.39583 -0.04363
 H515 H -0.16634 0.26768 -0.09045
 H516 H -0.13909 0.29800 -0.04889
 H517 H -0.11641 0.34589 -0.03094
 H518 H -0.12124 0.38153 -0.12341
 H519 H -0.14414 0.33366 -0.14134
 H520 H -0.10570 0.41634 -0.07866
 H521 H -0.13204 0.28278 -0.15123
 H522 H -0.07085 0.37459 -0.03325
 C523 C 0.09769 0.74690 -0.12693
 C524 C 0.10945 0.72316 -0.10935
 C525 C 0.09037 0.69688 -0.09983
 C526 C 0.10462 0.66856 -0.09588
 C527 C 0.08735 0.64342 -0.08627
 C528 C 0.05550 0.64628 -0.07997
 C529 C 0.04136 0.67474 -0.08338
 C530 C 0.05854 0.69978 -0.09348
 C531 C 0.03717 0.62069 -0.06753
 C532 C 0.04432 0.59029 -0.07357
 H533 H 0.13395 0.72278 -0.10414
 H534 H 0.12920 0.66591 -0.10022
 H535 H 0.09922 0.62206 -0.08286
 H536 H 0.01701 0.67763 -0.07804
 H537 H 0.04705 0.72153 -0.09545
 H538 H 0.01760 0.62606 -0.05274
 H539 H 0.07418 0.74555 -0.13547
 H540 H 0.06207 0.58460 -0.09035
 C541 C -0.10261 0.75486 0.12577
 C542 C -0.11726 0.73231 0.10832
 C543 C -0.10107 0.70480 0.09691
 C544 C -0.11811 0.67803 0.09206
 C545 C -0.10368 0.65184 0.08059
 C546 C -0.07191 0.65209 0.07331
 C547 C -0.05498 0.67901 0.07764
 C548 C -0.06931 0.70509 0.08952
 C549 C -0.05632 0.62529 0.05957
 C550 C -0.06558 0.59547 0.06552
 H551 H -0.14194 0.73395 0.10438
 H552 H -0.14270 0.67740 0.09715
 H553 H -0.11762 0.63173 0.07666
 H554 H -0.03060 0.67987 0.07177
 H555 H -0.05567 0.72559 0.09211
 H556 H -0.03627 0.62918 0.04495
 H557 H -0.07886 0.75163 0.13297
 H558 H -0.08353 0.59112 0.08246
 C559 C 1.12037 0.12545 0.75656
 C560 C 1.13295 0.10336 0.73685
 C561 C 1.11536 0.09031 0.71067
 C562 C 1.13138 0.08145 0.68386
 C563 C 1.11539 0.06968 0.65846
 C564 C 1.08303 0.06616 0.65958
 C565 C 1.06712 0.07391 0.68681
 C566 C 1.08307 0.08609 0.71208
 C567 C 1.06552 0.05378 0.63305
 C568 C 1.07470 0.05857 0.60253
 H569 H 1.15707 0.09712 0.73883
 H570 H 1.15631 0.08402 0.68244
 H571 H 1.12847 0.06297 0.63817
 H572 H 1.04225 0.07090 0.68837
 H573 H 1.07016 0.09179 0.73278
 H574 H 1.04395 0.04197 0.63765
 H575 H 1.09709 0.13344 0.75211
 H576 H 1.09468 0.07268 0.59766
 C577 C 0.87890 -0.11321 0.74986
 C578 C 0.90163 -0.12407 0.72954
 C579 C 0.91340 -0.10580 0.70346
 C580 C 0.92290 -0.12065 0.67630
 C581 C 0.93423 -0.10403 0.65127
 C582 C 0.93670 -0.07220 0.65318
 C583 C 0.92798 -0.05742 0.68064
 C584 C 0.91620 -0.07401 0.70551
 C585 C 0.94969 -0.05416 0.62754
 C586 C 0.94660 -0.06276 0.59664
 H587 H 0.90957 -0.14729 0.73118
 H588 H 0.92139 -0.14517 0.67439
 H589 H 0.94169 -0.11619 0.63077
 H590 H 0.93018 -0.03297 0.68280
 H591 H 0.90993 -0.06198 0.72649
 H592 H 0.96123 -0.03295 0.63315
 H593 H 0.86891 -0.09106 0.74558
 H594 H 0.93255 -0.08229 0.59056
 C595 C 1.10909 -0.11908 0.24578
 C596 C 1.12402 -0.09802 0.26490
 C597 C 1.10845 -0.08508 0.29246
 C598 C 1.12583 -0.07866 0.31901
 C599 C 1.11140 -0.06714 0.34559
 C600 C 1.07936 -0.06140 0.34582
 C601 C 1.06221 -0.06685 0.31892
 C602 C 1.07653 -0.07877 0.29254
 C603 C 1.06340 -0.04863 0.37319
 C604 C 1.07312 -0.05387 0.40339
 H605 H 1.14819 -0.09261 0.26123
 H606 H 1.15053 -0.08294 0.31930
 H607 H 1.12545 -0.06227 0.36566
 H608 H 1.03759 -0.06210 0.31841
 H609 H 1.06267 -0.08261 0.27211
 H610 H 1.04238 -0.03576 0.36943
 H611 H 1.08603 -0.12657 0.25224
 H612 H 1.09246 -0.06885 0.40772
 C613 C 0.87821 0.11337 0.25676
 C614 C 0.90048 0.12632 0.27580
 C615 C 0.91324 0.10939 0.30216
 C616 C 0.92642 0.12537 0.32698
 C617 C 0.93845 0.10973 0.35225
 C618 C 0.93799 0.07780 0.35277
 C619 C 0.92555 0.06182 0.32762
 C620 C 0.91293 0.07743 0.30268
 C621 C 0.95134 0.06064 0.37862
 C622 C 0.94964 0.07075 0.40916
 H623 H 0.90785 0.14959 0.27207
 H624 H 0.92717 0.14998 0.32691
 H625 H 0.94864 0.12260 0.37103
 H626 H 0.92532 0.03719 0.32743
 H627 H 0.90335 0.06447 0.28364
 H628 H 0.96124 0.03852 0.37363
 H629 H 0.87268 0.12231 0.24302
 H630 H 0.93703 0.09131 0.41480
 C631 C 0.12677 0.25321 -0.10809
 C632 C 0.09936 0.26753 -0.11695
 C633 C 0.08661 0.29377 -0.09975
 C634 C 0.07158 0.31687 -0.11603
 C635 C 0.05972 0.34221 -0.10044
 C636 C 0.06220 0.34458 -0.06816
 C637 C 0.07627 0.32099 -0.05176
 C638 C 0.08865 0.29589 -0.06741
 C639 C 0.04939 0.37091 -0.05118
 C640 C 0.04977 0.40013 -0.06345
 H641 H 0.08828 0.26134 -0.13843
 H642 H 0.06938 0.31548 -0.14091
 H643 H 0.04818 0.35966 -0.11361
 H644 H 0.07802 0.32219 -0.02685
 H645 H 0.09937 0.27799 -0.05417
 H646 H 0.04073 0.36745 -0.02795
 H647 H 0.13919 0.26219 -0.08832
 H648 H 0.06130 0.40422 -0.08530
 C649 C -0.11791 0.24908 0.11850
 C650 C -0.10041 0.27069 0.13435
 C651 C -0.08707 0.29710 0.11816
 C652 C -0.08572 0.32544 0.13308
 C653 C -0.07482 0.35103 0.11732
 C654 C -0.06472 0.34845 0.08649
 C655 C -0.06481 0.31981 0.07213
 C656 C -0.07598 0.29440 0.08772
 C657 C -0.05312 0.37469 0.06877
 C658 C -0.06160 0.40476 0.07480
 H659 H -0.09875 0.26963 0.15926
 H660 H -0.09373 0.32791 0.15670
 H661 H -0.07407 0.37259 0.12942
 H662 H -0.05662 0.31716 0.04859
 H663 H -0.07580 0.27262 0.07595
 H664 H -0.03836 0.36984 0.04905
 H665 H -0.12264 0.25244 0.09420
 H666 H -0.07763 0.41013 0.09330
 C667 C -0.11652 0.74038 -0.13682
 C668 C -0.12869 0.72131 -0.11403
 C669 C -0.11243 0.69389 -0.10310
 C670 C -0.12986 0.66964 -0.09123
 C671 C -0.11515 0.64400 -0.07932
 C672 C -0.08265 0.64238 -0.07867
 C673 C -0.06522 0.66676 -0.09025
 C674 C -0.07992 0.69221 -0.10253
 C675 C -0.06629 0.61666 -0.06429
 C676 C -0.07847 0.58730 -0.06269
 H677 H -0.15149 0.72564 -0.10461
 H678 H -0.15493 0.67064 -0.09100
 H679 H -0.12926 0.62599 -0.06976
 H680 H -0.04015 0.66618 -0.08957
 H681 H -0.06579 0.71090 -0.11063
 H682 H -0.04324 0.62088 -0.05541
 H683 H -0.09548 0.73356 -0.14867
 H684 H -0.10004 0.58180 -0.07412
 C685 C 0.09545 0.75576 0.10876
 C686 C 0.11007 0.73397 0.09031
 C687 C 0.09377 0.70698 0.07811
 C688 C 0.11049 0.68005 0.07338
 C689 C 0.09568 0.65389 0.06249
 C690 C 0.06384 0.65435 0.05579
 C691 C 0.04740 0.68161 0.05936
 C692 C 0.06212 0.70768 0.07065
 C693 C 0.04740 0.62714 0.04424
 C694 C 0.05678 0.59759 0.05101
 H695 H 0.13491 0.73519 0.08705
 H696 H 0.13502 0.67916 0.07849
 H697 H 0.10935 0.63358 0.05890
 H698 H 0.02304 0.68267 0.05363
 H699 H 0.04881 0.72838 0.07307
 H700 H 0.02640 0.63056 0.03109
 H701 H 0.07136 0.75275 0.11511
 H702 H 0.07634 0.59377 0.06603
 C703 C 0.27366 1.14109 0.86861
 C704 C 0.28594 1.11249 0.86192
 C705 C 0.31548 1.10197 0.87528
 C706 C 0.31902 1.07105 0.88199
 C707 C 0.34595 1.06059 0.89617
 C708 C 0.37006 1.08087 0.90356
 C709 C 0.36718 1.11154 0.89546
 C710 C 0.34003 1.12210 0.88165
 C711 C 0.39833 1.07040 0.91942
 C712 C 0.39726 1.04725 0.94122
 H713 H 0.27200 1.09616 0.84935
 H714 H 0.30062 1.05505 0.87686
 H715 H 0.34791 1.03659 0.90116
 H716 H 0.38570 1.12745 0.90044
 H717 H 0.33839 1.14593 0.87585
 H718 H 0.41999 1.08212 0.91505
 H719 H 0.28613 1.15619 0.88402
 H720 H 0.37510 1.03748 0.94757
 C721 C 0.24488 0.87056 1.11127
 C722 C 0.26730 0.88833 1.12586
 C723 C 0.29468 0.89992 1.10897
 C724 C 0.32284 0.90385 1.12456
 C725 C 0.34905 0.91459 1.10889
 C726 C 0.34733 0.92198 1.07737
 C727 C 0.31895 0.91879 1.06205
 C728 C 0.29292 0.90776 1.07759
 C729 C 0.37398 0.93464 1.06017
 C730 C 0.40488 0.92967 1.06812
 H731 H 0.26575 0.89231 1.15051
 H732 H 0.32461 0.89838 1.14884
 H733 H 0.37031 0.91771 1.12167
 H734 H 0.31692 0.92487 1.03794
 H735 H 0.27130 0.90594 1.06514
 H736 H 0.36893 0.94795 1.03983
 H737 H 0.24853 0.86364 1.08749
 H738 H 0.41062 0.91467 1.08695
 C739 C 0.75392 1.11404 1.10844
 C740 C 0.73211 1.09530 1.12259
 C741 C 0.70509 1.08323 1.10572
 C742 C 0.67712 1.07869 1.12161
 C743 C 0.65092 1.06821 1.10596
 C744 C 0.65244 1.06177 1.07415
 C745 C 0.68070 1.06531 1.05852
 C746 C 0.70679 1.07608 1.07408
 C747 C 0.62554 1.04997 1.05693
 C748 C 0.59488 1.05579 1.06542
 H749 H 0.73323 1.09178 1.14728
 H750 H 0.67545 1.08365 1.14609
 H751 H 0.62975 1.06469 1.11892
 H752 H 0.68255 1.05992 1.03413
 H753 H 0.72831 1.07841 1.06140
 H754 H 0.63018 1.03678 1.03621
 H755 H 0.75070 1.12060 1.08461
 H756 H 0.58969 1.07077 1.08466
 C757 C 0.75377 0.87282 0.89053
 C758 C 0.73322 0.89396 0.87830
 C759 C 0.70638 0.90581 0.89583
 C760 C 0.67970 0.91440 0.87975
 C761 C 0.65386 0.92557 0.89564
 C762 C 0.65447 0.92877 0.92795
 C763 C 0.68149 0.92108 0.94395
 C764 C 0.70719 0.90948 0.92809
 C765 C 0.62775 0.94106 0.94532
 C766 C 0.59721 0.93677 0.93581
 H767 H 0.73548 0.90033 0.85429
 H768 H 0.67875 0.91221 0.85484
 H769 H 0.63370 0.93222 0.88254
 H770 H 0.68263 0.92383 0.96879
 H771 H 0.72778 0.90393 0.94105
 H772 H 0.63224 0.95260 0.96703
 H773 H 0.74946 0.86358 0.91327
 H774 H 0.59226 0.92284 0.91573
   
