data_POSCAR
  _audit_creation_date              2014-09-24
  _audit_creation_method            'ToBaCCo'
  _symmetry_space_group_name_H-M    'P1'
  _symmetry_Int_Tables_number       1
  _symmetry_cell_setting            triclinic
  loop_
  _symmetry_equiv_pos_as_xyz
 x,y,z
_cell_length_a 16.3300
_cell_length_b 16.5023
_cell_length_c 16.3766
_cell_angle_alpha 89.290800
_cell_angle_beta 91.393600
_cell_angle_gamma 90.648000
loop_
  _atom_site_label
  _atom_site_type_symbol
  _atom_site_fract_x
  _atom_site_fract_y
  _atom_site_fract_z
O1 O 0.54674 0.17168 -0.01513
 O2 O 0.42424 -0.07842 -0.12635
 O3 O 0.65071 0.01756 -0.10422
 O4 O 0.29680 0.07908 0.02728
 O5 O 0.57611 -0.09296 -0.12638
 O6 O 0.40865 0.14549 0.00311
 O7 O 0.37386 0.03796 -0.09569
 O8 O 0.66266 0.12017 0.01005
 C9 C 0.62138 0.17963 -0.01175
 C10 C 0.38007 -0.01826 -0.14550
 C11 C 0.63145 -0.04208 -0.14794
 C12 C 0.33412 0.14923 0.02103
 O13 O 0.44162 0.08333 0.15637
 O14 O 0.56432 -0.15950 0.02806
 O15 O 0.65967 0.00214 0.11461
 O16 O 0.32339 -0.08481 -0.01029
 O17 O 0.42866 -0.14348 0.03142
 O18 O 0.58687 0.10979 0.13930
 O19 O 0.37895 -0.02362 0.11701
 O20 O 0.67232 -0.09636 -0.00038
 Co21 Co 0.49695 0.11769 0.06626
 Co22 Co 0.49828 -0.10935 -0.04476
 Co23 Co 0.64609 0.01044 0.00592
 Co24 Co 0.38311 0.01025 0.01201
 O25 O 0.51049 0.00304 0.00937
 C26 C 0.39801 0.02307 0.17267
 C27 C 0.63719 -0.16150 0.01430
 C28 C 0.64125 0.05850 0.16069
 C29 C 0.35500 -0.14882 0.01596
 O30 O -0.16425 0.44480 -0.08552
 O31 O -0.01431 0.55940 0.15417
 O32 O 0.01543 0.32292 0.06978
 O33 O -0.10588 0.65870 -0.00373
 O34 O -0.01610 0.42480 0.13441
 O35 O -0.14429 0.58892 -0.11143
 O36 O 0.01410 0.66856 0.09182
 O37 O -0.11727 0.38205 0.02019
 C38 C -0.17611 0.39945 -0.02554
 C39 C -0.01382 0.63358 0.15272
 C40 C 0.00164 0.35260 0.13706
 C41 C -0.15923 0.63906 -0.05547
 O42 O 0.00187 0.54936 -0.18395
 O43 O 0.13445 0.42865 0.06096
 O44 O -0.04172 0.30208 -0.08656
 O45 O 0.10889 0.64958 -0.03035
 O46 O 0.13673 0.57911 0.08133
 O47 O -0.02003 0.41201 -0.15634
 O48 O -0.01018 0.66344 -0.12757
 O49 O 0.08922 0.37777 -0.05400
 Co50 Co -0.07583 0.50000 -0.12445
 Co51 Co 0.05603 0.49869 0.09860
 Co52 Co -0.01527 0.38647 -0.01967
 Co53 Co 0.00069 0.64544 -0.01719
 O54 O -0.00736 0.51182 -0.01192
 C55 C 0.00626 0.62356 -0.18906
 C56 C 0.14533 0.38511 -0.00099
 C57 C -0.04304 0.33877 -0.15720
 C58 C 0.15658 0.63209 0.02749
 O59 O -0.09645 -0.13743 0.40867
 O60 O 0.17206 0.02755 0.57599
 O61 O 0.13725 -0.03930 0.36470
 O62 O 0.04941 -0.11322 0.62113
 O63 O 0.17890 0.06446 0.43256
 O64 O -0.05214 -0.16580 0.55351
 O65 O 0.09006 0.01921 0.67568
 O66 O 0.02700 -0.13032 0.37776
 C67 C -0.03803 -0.16747 0.37405
 C68 C 0.16162 0.01566 0.64979
 C69 C 0.19245 0.00949 0.38377
 C70 C 0.00932 -0.17411 0.60054
 O71 O -0.13679 -0.03131 0.59233
 O72 O 0.06171 0.16610 0.44114
 O73 O -0.08334 -0.00652 0.33947
 O74 O -0.05099 0.08032 0.62236
 O75 O 0.05942 0.14497 0.59332
 O76 O -0.15445 0.00239 0.45007
 O77 O -0.06257 -0.04820 0.70298
 O78 O 0.03741 0.08619 0.33551
 Co79 Co -0.09734 -0.07665 0.50106
 Co80 Co 0.10833 0.09101 0.51071
 Co81 Co 0.02729 -0.02160 0.36615
 Co82 Co -0.00070 -0.01728 0.61602
 O83 O 0.01640 -0.00411 0.49395
 C84 C -0.13430 -0.05598 0.66574
 C85 C 0.04404 0.15613 0.36645
 C86 C -0.14725 0.01562 0.37541
 C87 C -0.01008 0.14362 0.62374
 N88 N -0.32263 0.38500 -0.05168
 N89 N -0.37801 0.32561 -0.05308
 C90 C -0.34069 0.25968 -0.02093
 C91 C -0.26210 0.28079 0.00255
 N92 N -0.25322 0.35949 -0.01721
 H93 H -0.21432 0.24150 0.02655
 N94 N 0.29881 0.65661 0.07023
 N95 N 0.35355 0.71631 0.06663
 C96 C 0.31619 0.78082 0.03054
 C97 C 0.23675 0.75874 0.01163
 N98 N 0.22875 0.68081 0.03688
 H99 H 0.18971 0.79485 -0.01850
 N100 N 0.29049 0.36062 0.01717
 N101 N 0.34039 0.29857 0.02760
 C102 C 0.29560 0.22997 0.01741
 C103 C 0.21594 0.25245 -0.00197
 N104 N 0.21590 0.33461 -0.00246
 H105 H 0.16303 0.21342 -0.01213
 N106 N -0.30757 0.64006 -0.04438
 N107 N -0.36303 0.69087 -0.01745
 C108 C -0.32361 0.76201 -0.00376
 C109 C -0.24387 0.75419 -0.02533
 N110 N -0.23609 0.67785 -0.05087
 H111 H -0.19526 0.79930 -0.02132
 N112 N -0.10279 -0.29515 0.33424
 N113 N -0.09834 -0.34927 0.27543
 C114 C -0.04005 -0.32240 0.22439
 C115 C -0.00781 -0.25098 0.25417
 N116 N -0.04836 -0.23637 0.32287
 H117 H 0.04047 -0.21363 0.22884
 N118 N -0.04034 0.28562 0.63451
 N119 N -0.04910 0.33947 0.69261
 C120 C -0.05095 0.29813 0.76417
 C121 C -0.04392 0.21681 0.74828
 N122 N -0.03779 0.21189 0.66665
 H123 H -0.03524 0.16746 0.79171
 N124 N 0.01253 0.29771 0.34677
 N125 N -0.00051 0.35074 0.28698
 C126 C 0.00677 0.31077 0.21622
 C127 C 0.02461 0.23095 0.23423
 N128 N 0.02772 0.22573 0.31652
 H129 H 0.03580 0.18228 0.19234
 N130 N 0.02300 -0.32168 0.60871
 N131 N 0.02202 -0.37869 0.66667
 C132 C 0.02005 -0.34012 0.73900
 C133 C 0.02229 -0.25802 0.72369
 N134 N 0.02419 -0.24908 0.64211
 H135 H 0.01588 -0.20945 0.76693
 N136 N 0.27478 -0.07321 0.67987
 N137 N 0.33698 -0.08219 0.73232
 C138 C 0.33269 -0.02169 0.78661
 C139 C 0.26440 0.02473 0.76600
 N140 N 0.22948 -0.01085 0.69984
 H141 H 0.24117 0.07697 0.79700
 N142 N -0.27402 0.09256 0.36018
 N143 N -0.33289 0.10553 0.30427
 C144 C -0.31024 0.06684 0.23657
 C145 C -0.23557 0.03101 0.25209
 N146 N -0.21500 0.04849 0.32955
 H147 H -0.20136 -0.00720 0.21215
 N148 N 0.33572 0.04752 0.37587
 N149 N 0.39336 0.05226 0.32048
 C150 C 0.36443 0.01244 0.25432
 C151 C 0.28698 -0.01723 0.27108
 N152 N 0.27123 0.00642 0.34742
 H153 H 0.24264 -0.04323 0.22838
 N154 N -0.27016 -0.11590 0.67643
 N155 N -0.33598 -0.11110 0.72195
 C156 C -0.31672 -0.05914 0.78237
 C157 C -0.23596 -0.03419 0.77387
 N158 N -0.20907 -0.07156 0.70743
 H159 H -0.20063 0.00737 0.81177
   
