data_POSCAR
  _audit_creation_date              2014-09-24
  _audit_creation_method            'ToBaCCo'
  _symmetry_space_group_name_H-M    'P1'
  _symmetry_Int_Tables_number       1
  _symmetry_cell_setting            triclinic
  loop_
  _symmetry_equiv_pos_as_xyz
 x,y,z
_cell_length_a 14.4016
_cell_length_b 13.9008
_cell_length_c 23.8352
_cell_angle_alpha 90.447700
_cell_angle_beta 89.186000
_cell_angle_gamma 122.116900
loop_
  _atom_site_label
  _atom_site_type_symbol
  _atom_site_fract_x
  _atom_site_fract_y
  _atom_site_fract_z
Zn1 Zn 0.91472 0.05254 1.02086
 Zn2 Zn 1.12847 0.06443 1.03422
 Zn3 Zn 0.92154 -0.15589 1.01514
 Zn4 Zn 1.01780 0.02037 0.92584
 O5 O 0.99653 -0.00545 0.99989
 O6 O 0.99655 0.18270 1.05857
 O7 O 1.14112 -0.03112 1.07990
 O8 O 0.80762 -0.19702 1.06269
 O9 O 1.15161 0.18779 1.07310
 O10 O 0.80627 -0.03852 1.06810
 O11 O 1.00436 -0.19760 1.04959
 O12 O 0.93441 -0.10701 0.88652
 O13 O 1.24117 0.11145 0.98510
 O14 O 0.87079 -0.23992 0.95260
 O15 O 1.15491 0.07457 0.90421
 O16 O 0.98787 0.12203 0.90245
 O17 O 0.85279 0.07932 0.96179
 C18 C 1.09185 0.22976 1.07933
 C19 C 1.09024 -0.13926 1.07842
 C20 C 0.76955 -0.14006 1.08326
 C21 C 0.87987 -0.21047 0.90143
 C22 C 1.24161 0.10954 0.93186
 C23 C 0.90275 0.12224 0.91564
 Zn24 Zn 0.06760 0.93780 0.53519
 Zn25 Zn -0.14036 0.93730 0.52052
 Zn26 Zn 0.07731 1.15625 0.51621
 Zn27 Zn 0.01151 0.98713 0.42478
 O28 O 0.00404 1.00469 0.49957
 O29 O -0.03147 0.81551 0.57579
 O30 O -0.16476 1.02972 0.56335
 O31 O 0.19352 1.19976 0.56015
 O32 O -0.18495 0.81306 0.56214
 O33 O 0.17711 1.03571 0.57993
 O34 O -0.00528 1.19319 0.55598
 O35 O 0.08697 1.11774 0.38854
 O36 O -0.23275 0.89064 0.46143
 O37 O 0.12728 1.24596 0.45488
 O38 O -0.11852 0.91435 0.39208
 O39 O 0.07918 0.91649 0.40652
 O40 O 0.13226 0.88832 0.48794
 C41 C -0.13444 0.76995 0.58286
 C42 C -0.10215 1.13438 0.57549
 C43 C 0.22586 1.14293 0.58539
 C44 C 0.12924 1.21967 0.40390
 C45 C -0.21388 0.88238 0.40985
 C46 C 0.13082 0.88349 0.43486
 O47 O 0.16194 0.51682 0.30069
 O48 O 0.16509 0.70316 0.28269
 C49 C 0.22150 0.77846 0.31881
 O50 O 0.32523 0.83042 0.32036
 O51 O 0.51595 0.84968 0.31164
 C52 C 0.52706 0.77645 0.33656
 O53 O 0.47845 0.67378 0.32145
 O54 O 0.29930 0.48591 0.29342
 C55 C 0.20976 0.46670 0.31552
 O56 O 0.18681 0.49525 0.19017
 O57 O 0.20361 0.69336 0.17401
 C58 C 0.25234 0.80119 0.17417
 O59 O 0.32763 0.86361 0.20857
 O60 O 0.51197 0.86818 0.19988
 C61 C 0.55953 0.81547 0.18767
 O62 O 0.53678 0.72327 0.21140
 O63 O 0.35793 0.53556 0.18417
 C64 C 0.25911 0.47914 0.16927
 Cr65 Cr 0.18544 0.60490 0.23715
 Cr66 Cr 0.41738 0.84696 0.25968
 Cr67 Cr 0.41529 0.60789 0.25251
 O68 O 0.34000 0.68659 0.24917
 O69 O 0.82399 0.46477 0.81559
 O70 O 0.80602 0.26834 0.80153
 C71 C 0.73274 0.19192 0.83304
 O72 O 0.63208 0.15126 0.82557
 O73 O 0.46309 0.16380 0.80419
 C74 C 0.45337 0.24376 0.82309
 O75 O 0.51271 0.34573 0.80695
 O76 O 0.71140 0.52177 0.79007
 C77 C 0.78584 0.52825 0.82132
 O78 O 0.84473 0.49928 0.70455
 O79 O 0.80729 0.29338 0.69038
 C80 C 0.74475 0.18652 0.68385
 O81 O 0.65886 0.12507 0.71377
 O82 O 0.49053 0.14307 0.69398
 C83 C 0.45286 0.20227 0.67800
 O84 O 0.48622 0.30156 0.69670
 O85 O 0.68686 0.47668 0.67892
 C86 C 0.79007 0.52625 0.67469
 Cr87 Cr 0.81450 0.37891 0.75286
 Cr88 Cr 0.56505 0.15203 0.75904
 Cr89 Cr 0.60173 0.40768 0.74335
 O90 O 0.65959 0.31254 0.75135
 N91 N 0.12872 0.32853 0.11330
 N92 N 0.22697 0.38841 0.13022
 N93 N 0.68408 0.80883 0.12468
 N94 N 0.64345 0.86343 0.14542
 N95 N 0.12798 0.80224 0.11083
 N96 N 0.21707 0.85657 0.13778
 N97 N 0.80443 0.66966 0.61624
 N98 N 0.84954 0.62145 0.63795
 N99 N 0.31869 0.20115 0.62121
 N100 N 0.36479 0.15089 0.63909
 N101 N 0.86196 0.18767 0.61395
 N102 N 0.77422 0.13129 0.64291
 N103 N 0.34122 0.14785 0.90165
 N104 N 0.36548 0.21612 0.86100
 N105 N 0.83227 0.70463 0.85902
 N106 N 0.83184 0.61341 0.86372
 N107 N 0.86338 0.16886 0.87642
 N108 N 0.76524 0.14556 0.87630
 N109 N 0.70051 0.83901 0.36961
 N110 N 0.60366 0.81374 0.38114
 N111 N 0.18025 0.30549 0.36217
 N112 N 0.15847 0.38239 0.35814
 N113 N 0.19017 0.84280 0.40551
 N114 N 0.16424 0.81166 0.35496
   
