data_POSCAR
  _audit_creation_date              2014-09-24
  _audit_creation_method            'ToBaCCo'
  _symmetry_space_group_name_H-M    'P1'
  _symmetry_Int_Tables_number       1
  _symmetry_cell_setting            triclinic
  loop_
  _symmetry_equiv_pos_as_xyz
 x,y,z
_cell_length_a 44.7608
_cell_length_b 56.8798
_cell_length_c 46.4020
_cell_angle_alpha 90.055200
_cell_angle_beta 90.120400
_cell_angle_gamma 85.292700
loop_
  _atom_site_label
  _atom_site_type_symbol
  _atom_site_fract_x
  _atom_site_fract_y
  _atom_site_fract_z
C1 C 1.23040 0.23179 0.20781
 C2 C 1.24964 0.24788 0.19064
 C3 C 1.26651 0.26125 0.20764
 C4 C 1.26272 0.25733 0.24021
 C5 C 1.25242 0.21722 0.22734
 C6 C 1.26927 0.23057 0.24430
 C7 C 1.21178 0.24832 0.22826
 C8 C 1.22875 0.26166 0.24518
 H9 H 1.24917 0.24920 0.16728
 H10 H 1.27656 0.26820 0.25400
 H11 H 1.25372 0.19808 0.22851
 H12 H 1.18745 0.24941 0.22923
 C13 C 0.73121 -0.26908 0.20781
 C14 C 0.75039 -0.25295 0.19065
 C15 C 0.76708 -0.23947 0.20768
 C16 C 0.76319 -0.24332 0.24023
 C17 C 0.75324 -0.28352 0.22746
 C18 C 0.76991 -0.27003 0.24443
 C19 C 0.71240 -0.25259 0.22814
 C20 C 0.72922 -0.23915 0.24507
 H21 H 0.75005 -0.25171 0.16728
 H22 H 0.77689 -0.23234 0.25401
 H23 H 0.75455 -0.30265 0.22883
 H24 H 0.68808 -0.25172 0.22919
 C25 C 0.73199 0.23151 -0.29265
 C26 C 0.75021 0.24678 -0.30916
 C27 C 0.76797 0.26079 -0.29120
 C28 C 0.76414 0.25688 -0.26030
 C29 C 0.75288 0.21743 -0.27420
 C30 C 0.77060 0.23145 -0.25634
 C31 C 0.71403 0.24713 -0.27325
 C32 C 0.73187 0.26112 -0.25541
 H33 H 0.74950 0.24834 -0.33252
 H34 H 0.77803 0.26772 -0.24643
 H35 H 0.75385 0.19829 -0.27270
 H36 H 0.68966 0.24833 -0.27241
 C37 C 1.23165 -0.26831 -0.29203
 C38 C 1.25075 -0.25202 -0.30903
 C39 C 1.26739 -0.23862 -0.29186
 C40 C 1.26354 -0.24268 -0.25936
 C41 C 1.25375 -0.28283 -0.27252
 C42 C 1.27036 -0.26940 -0.25543
 C43 C 1.21280 -0.25199 -0.27155
 C44 C 1.22956 -0.23862 -0.25449
 H45 H 1.25039 -0.25063 -0.33239
 H46 H 1.27720 -0.23176 -0.24546
 H47 H 1.25523 -0.30198 -0.27142
 H48 H 1.18848 -0.25111 -0.27058
 C49 C 0.23194 0.23130 0.79385
 C50 C 0.25076 0.24614 0.81016
 C51 C 0.26833 0.26013 0.79230
 C52 C 0.26397 0.25679 0.76148
 C53 C 0.21304 0.24811 0.77382
 C54 C 0.22992 0.26145 0.75685
 C55 C 0.25322 0.21664 0.77364
 C56 C 0.26996 0.23003 0.75664
 H57 H 0.25051 0.24743 0.83354
 H58 H 0.27771 0.26764 0.74760
 H59 H 0.18870 0.24924 0.77298
 H60 H 0.25411 0.19753 0.77210
 C61 C 0.73080 0.73132 0.79150
 C62 C 0.74890 0.74655 0.80835
 C63 C 0.76679 0.76062 0.79070
 C64 C 0.76319 0.75679 0.75972
 C65 C 0.71299 0.74700 0.77203
 C66 C 0.73097 0.76105 0.75449
 C67 C 0.75184 0.71731 0.77319
 C68 C 0.76970 0.73138 0.75565
 H69 H 0.74796 0.74807 0.83170
 H70 H 0.77718 0.76767 0.74609
 H71 H 0.68862 0.74834 0.77110
 H72 H 0.75288 0.69817 0.77160
 C73 C 0.73127 0.23102 0.29246
 C74 C 0.75045 0.24723 0.30961
 C75 C 0.76703 0.26070 0.29257
 C76 C 0.76304 0.25677 0.26003
 C77 C 0.71234 0.24743 0.27209
 C78 C 0.72905 0.26087 0.25516
 C79 C 0.75328 0.21657 0.27284
 C80 C 0.76983 0.23007 0.25586
 H81 H 0.75016 0.24854 0.33297
 H82 H 0.77666 0.26775 0.24623
 H83 H 0.68802 0.24825 0.27103
 H84 H 0.75462 0.19744 0.27148
 C85 C 0.23099 0.73080 0.29154
 C86 C 0.25049 0.74683 0.30863
 C87 C 0.26715 0.76024 0.29156
 C88 C 0.26292 0.75640 0.25900
 C89 C 0.21213 0.74740 0.27132
 C90 C 0.22890 0.76078 0.25433
 C91 C 0.25274 0.71627 0.27175
 C92 C 0.26938 0.72965 0.25472
 H93 H 0.25030 0.74810 0.33200
 H94 H 0.27660 0.76729 0.24516
 H95 H 0.18779 0.74853 0.27058
 H96 H 0.25399 0.69713 0.27047
 N97 N 1.04893 0.01911 0.03011
 N98 N 1.06786 0.03547 0.03385
 N99 N 1.02785 -0.02874 0.05048
 N100 N 1.03353 -0.04509 0.07037
 N101 N 1.04869 -0.03030 0.03052
 N102 N 1.06912 -0.04774 0.03629
 N103 N 1.02808 0.02071 0.05004
 N104 N 1.03223 0.03822 0.06794
 C105 C 1.05707 0.04719 0.05746
 C106 C 1.05909 -0.05693 0.06096
 N107 N 0.94237 -0.02297 0.02999
 N108 N 0.92282 -0.03872 0.03459
 N109 N 0.96357 0.02510 0.04971
 N110 N 0.95942 0.04285 0.06799
 N111 N 0.94275 0.02649 0.02966
 N112 N 0.92382 0.04526 0.03373
 N113 N 0.96319 -0.02430 0.05007
 N114 N 0.95840 -0.04098 0.06887
 Mn115 Mn 0.99565 -0.00182 0.05039
 C116 C 0.93328 -0.04982 0.05878
 C117 C 0.93469 0.05525 0.05761
 N118 N 1.04879 -0.03058 -0.03161
 N119 N 1.06908 -0.04823 -0.03679
 N120 N 1.02834 0.02022 -0.05195
 N121 N 1.03247 0.03769 -0.06986
 N122 N 1.04907 0.01880 -0.03181
 N123 N 1.06788 0.03523 -0.03542
 N124 N 1.02808 -0.02921 -0.05178
 N125 N 1.03371 -0.04592 -0.07126
 Mn126 Mn 1.04917 -0.00579 -0.00071
 C127 C 1.05909 -0.05774 -0.06134
 C128 C 1.05717 0.04680 -0.05916
 N129 N 0.94286 0.02620 -0.03248
 N130 N 0.92382 0.04483 -0.03704
 N131 N 0.96341 -0.02481 -0.05213
 N132 N 0.95853 -0.04153 -0.07092
 N133 N 0.94249 -0.02328 -0.03224
 N134 N 0.92279 -0.03893 -0.03695
 N135 N 0.96379 0.02463 -0.05235
 N136 N 0.95959 0.04212 -0.07098
 Mn137 Mn 0.94226 0.00163 -0.00126
 Mn138 Mn 0.99590 -0.00230 -0.05238
 Cl139 Cl 0.99573 -0.00211 -0.00099
 C140 C 0.93471 0.05457 -0.06101
 C141 C 0.93327 -0.05021 -0.06101
 N142 N 1.05001 0.51872 0.53278
 N143 N 1.06873 0.53523 0.53636
 N144 N 1.02889 0.47078 0.55266
 N145 N 1.03460 0.45422 0.57229
 N146 N 1.04962 0.46935 0.53259
 N147 N 1.07000 0.45180 0.53801
 N148 N 1.02926 0.52020 0.55283
 N149 N 1.03329 0.53779 0.57064
 C150 C 1.05796 0.54689 0.56000
 C151 C 1.06005 0.44241 0.56258
 N152 N 0.94330 0.47686 0.53273
 N153 N 0.92356 0.46125 0.53735
 N154 N 0.96473 0.52475 0.55297
 N155 N 0.96051 0.54222 0.57165
 N156 N 0.94382 0.52634 0.53301
 N157 N 0.92477 0.54496 0.53755
 N158 N 0.96422 0.47532 0.55270
 N159 N 0.95931 0.45862 0.57145
 Mn160 Mn 0.99677 0.49775 0.55311
 C161 C 0.93401 0.44998 0.56144
 C162 C 0.93565 0.55467 0.56161
 N163 N 1.04952 0.46958 0.47044
 N164 N 1.06991 0.45210 0.46474
 N165 N 1.02908 0.52060 0.45085
 N166 N 1.03339 0.53799 0.43288
 N167 N 1.04993 0.51898 0.47086
 N168 N 1.06902 0.53520 0.46710
 N169 N 1.02868 0.47116 0.45039
 N170 N 1.03433 0.45479 0.43050
 Mn171 Mn 1.05007 0.49411 0.50168
 C172 C 1.05985 0.44291 0.44002
 C173 C 1.05831 0.54688 0.44341
 N174 N 0.94373 0.52656 0.47086
 N175 N 0.92477 0.54530 0.46664
 N176 N 0.96404 0.47572 0.45052
 N177 N 0.95920 0.45902 0.43171
 N178 N 0.94321 0.47712 0.47051
 N179 N 0.92362 0.46139 0.46584
 N180 N 0.96456 0.52511 0.45090
 N181 N 0.96039 0.54279 0.43255
 Mn182 Mn 0.94316 0.50174 0.50177
 Mn183 Mn 0.99657 0.49814 0.45035
 Cl184 Cl 0.99663 0.49789 0.50173
 C185 C 0.93564 0.55522 0.44278
 C186 C 0.93406 0.45024 0.44170
 N187 N 0.55155 0.01896 0.53155
 N188 N 0.57056 0.03529 0.53512
 N189 N 0.53023 -0.02865 0.55247
 N190 N 0.53593 -0.04473 0.57268
 N191 N 0.55110 -0.03043 0.53254
 N192 N 0.57157 -0.04777 0.53865
 N193 N 0.53067 0.02079 0.55145
 N194 N 0.53487 0.03842 0.56914
 C195 C 0.55977 0.04723 0.55857
 C196 C 0.56152 -0.05666 0.56349
 N197 N 0.44478 -0.02281 0.53186
 N198 N 0.42519 -0.03850 0.53655
 N199 N 0.46613 0.02534 0.55106
 N200 N 0.46179 0.04307 0.56935
 N201 N 0.44534 0.02662 0.53098
 N202 N 0.42624 0.04529 0.53505
 N203 N 0.46557 -0.02404 0.55197
 N204 N 0.46070 -0.04061 0.57090
 Mn205 Mn 0.49813 -0.00165 0.55205
 C206 C 0.43558 -0.04947 0.56085
 C207 C 0.43699 0.05536 0.55893
 N208 N 0.55127 -0.03122 0.47038
 N209 N 0.57158 -0.04888 0.46528
 N210 N 0.53102 0.01946 0.44949
 N211 N 0.53509 0.03686 0.43148
 N212 N 0.55174 0.01815 0.46963
 N213 N 0.57050 0.03460 0.46593
 N214 N 0.53056 -0.02994 0.45021
 N215 N 0.53621 -0.04672 0.43083
 Mn216 Mn 0.55172 -0.00618 0.50102
 C217 C 0.56160 -0.05849 0.44079
 C218 C 0.55977 0.04605 0.44211
 N219 N 0.44555 0.02584 0.46885
 N220 N 0.42657 0.04446 0.46405
 N221 N 0.46591 -0.02536 0.44980
 N222 N 0.46097 -0.04218 0.43116
 N223 N 0.44495 -0.02363 0.46965
 N224 N 0.42516 -0.03922 0.46505
 N225 N 0.46649 0.02406 0.44900
 N226 N 0.46237 0.04139 0.43015
 Mn227 Mn 0.44480 0.00153 0.50034
 Mn228 Mn 0.49849 -0.00296 0.44931
 Cl229 Cl 0.49828 -0.00236 0.50068
 C230 C 0.43753 0.05397 0.43995
 C231 C 0.43563 -0.05070 0.44112
 N232 N 0.55174 0.51787 0.02955
 N233 N 0.57048 0.53434 0.03340
 N234 N 0.53067 0.46981 0.04907
 N235 N 0.53618 0.45309 0.06853
 N236 N 0.55150 0.46848 0.02910
 N237 N 0.57177 0.45082 0.03442
 N238 N 0.53090 0.51924 0.04950
 N239 N 0.53486 0.53670 0.06751
 C240 C 0.55959 0.54587 0.05709
 C241 C 0.56163 0.44129 0.05883
 N242 N 0.44519 0.47576 0.02881
 N243 N 0.42543 0.46015 0.03334
 N244 N 0.46637 0.52364 0.04936
 N245 N 0.46197 0.54100 0.06817
 N246 N 0.44554 0.52525 0.02932
 N247 N 0.42635 0.54377 0.03394
 N248 N 0.46603 0.47421 0.04887
 N249 N 0.46103 0.45751 0.06759
 Mn250 Mn 0.49849 0.49671 0.04951
 C251 C 0.43579 0.44887 0.05745
 C252 C 0.43707 0.55342 0.05813
 N253 N 0.55171 0.46887 -0.03304
 N254 N 0.57223 0.45147 -0.03873
 N255 N 0.53119 0.51991 -0.05250
 N256 N 0.53553 0.53737 -0.07035
 N257 N 0.55194 0.51828 -0.03238
 N258 N 0.57097 0.53456 -0.03595
 N259 N 0.53098 0.47045 -0.05318
 N260 N 0.53682 0.45415 -0.07314
 Mn261 Mn 0.55203 0.49333 -0.00168
 C262 C 0.56236 0.44233 -0.06356
 C263 C 0.56035 0.54630 -0.05963
 N264 N 0.44576 0.52562 -0.03281
 N265 N 0.42690 0.54443 -0.03686
 N266 N 0.46629 0.47485 -0.05332
 N267 N 0.46165 0.45812 -0.07216
 N268 N 0.44539 0.47616 -0.03341
 N269 N 0.42593 0.46034 -0.03815
 N270 N 0.46666 0.52427 -0.05270
 N271 N 0.46264 0.54210 -0.07085
 Mn272 Mn 0.44511 0.50071 -0.00203
 Mn273 Mn 0.49876 0.49736 -0.05324
 Cl274 Cl 0.49859 0.49699 -0.00186
 C275 C 0.43789 0.55450 -0.06056
 C276 C 0.43652 0.44923 -0.06227
 C277 C 1.21221 0.21712 0.18998
 C278 C 1.19732 0.20450 0.17607
 C279 C 1.17968 0.18883 0.16026
 C280 C 1.19338 0.17321 0.14003
 C281 C 1.17668 0.15688 0.12603
 C282 C 1.14602 0.15593 0.13216
 C283 C 1.13234 0.17199 0.15218
 C284 C 1.14909 0.18831 0.16614
 C285 C 1.12869 0.13774 0.11846
 C286 C 1.10822 0.12574 0.13472
 C287 C 1.09285 0.10790 0.12218
 C288 C 1.09769 0.10183 0.09324
 C289 C 1.11769 0.11386 0.07677
 C290 C 1.13310 0.13170 0.08927
 C291 C 1.08283 0.08279 0.08068
 C292 C 1.07082 0.06663 0.07015
 H293 H 1.21710 0.17334 0.13548
 H294 H 1.18795 0.14456 0.11104
 H295 H 1.10871 0.17188 0.15709
 H296 H 1.13828 0.20030 0.18180
 H297 H 1.10465 0.12974 0.15733
 H298 H 1.07752 0.09862 0.13516
 H299 H 1.12158 0.10930 0.05434
 H300 H 1.14844 0.14080 0.07611
 C301 C 1.21363 0.71706 0.69001
 C302 C 1.19870 0.70455 0.67603
 C303 C 1.18088 0.68905 0.66023
 C304 C 1.15016 0.68911 0.66578
 C305 C 1.13318 0.67288 0.65197
 C306 C 1.14677 0.65636 0.63246
 C307 C 1.17756 0.65676 0.62662
 C308 C 1.19450 0.67299 0.64047
 C309 C 1.12923 0.63819 0.61910
 C310 C 1.13375 0.63168 0.59009
 C311 C 1.11825 0.61374 0.57798
 C312 C 1.09807 0.60210 0.59470
 C313 C 1.09308 0.60868 0.62345
 C314 C 1.10853 0.62663 0.63559
 C315 C 1.08329 0.58288 0.58261
 C316 C 1.07143 0.56654 0.57240
 H317 H 1.13944 0.70145 0.68110
 H318 H 1.10946 0.67318 0.65663
 H319 H 1.18874 0.64406 0.61202
 H320 H 1.21832 0.67269 0.63620
 H321 H 1.14928 0.64046 0.57678
 H322 H 1.12224 0.60877 0.55568
 H323 H 1.07760 0.59969 0.63659
 H324 H 1.10489 0.63102 0.65809
 C325 C 0.71477 0.21765 0.69033
 C326 C 0.69991 0.20507 0.67629
 C327 C 0.68232 0.18939 0.66041
 C328 C 0.65165 0.18905 0.66599
 C329 C 0.63495 0.17267 0.65208
 C330 C 0.64875 0.15638 0.63240
 C331 C 0.67950 0.15717 0.62654
 C332 C 0.69615 0.17355 0.64050
 C333 C 0.63147 0.13810 0.61881
 C334 C 0.63615 0.13174 0.58975
 C335 C 0.62076 0.11383 0.57738
 C336 C 0.60051 0.10204 0.59386
 C337 C 0.59542 0.10843 0.62266
 C338 C 0.61076 0.12634 0.63507
 C339 C 0.58564 0.08294 0.58144
 C340 C 0.57359 0.06673 0.57106
 H341 H 0.64074 0.20120 0.68142
 H342 H 0.61126 0.17269 0.65676
 H343 H 0.69086 0.14467 0.61182
 H344 H 0.71993 0.17355 0.63620
 H345 H 0.65168 0.14065 0.57659
 H346 H 0.62484 0.10903 0.55505
 H347 H 0.57990 0.09934 0.63564
 H348 H 0.60698 0.13059 0.65759
 C349 C 0.71320 0.71619 0.18995
 C350 C 0.69841 0.70356 0.17597
 C351 C 0.68086 0.68791 0.16007
 C352 C 0.65025 0.68739 0.16585
 C353 C 0.63357 0.67107 0.15182
 C354 C 0.64735 0.65504 0.13184
 C355 C 0.67802 0.65601 0.12580
 C356 C 0.69466 0.67233 0.13987
 C357 C 0.63013 0.63683 0.11812
 C358 C 0.63457 0.63085 0.08893
 C359 C 0.61931 0.61293 0.07643
 C360 C 0.59945 0.60078 0.09292
 C361 C 0.59457 0.60680 0.12186
 C362 C 0.60978 0.62473 0.13440
 C363 C 0.58483 0.58165 0.08037
 C364 C 0.57305 0.56540 0.06983
 H365 H 0.63938 0.69936 0.18150
 H366 H 0.60993 0.67094 0.15665
 H367 H 0.68935 0.64370 0.11083
 H368 H 0.71839 0.67248 0.13541
 H369 H 0.64982 0.64004 0.07578
 H370 H 0.62322 0.60840 0.05399
 H371 H 0.57934 0.59742 0.13484
 H372 H 0.60621 0.62869 0.15702
 C373 C 0.78495 -0.22190 0.19585
 C374 C 0.79941 -0.20714 0.18535
 C375 C 0.81613 -0.18947 0.17218
 C376 C 0.83742 -0.19587 0.15094
 C377 C 0.85269 -0.17859 0.13717
 C378 C 0.84679 -0.15463 0.14443
 C379 C 0.82558 -0.14841 0.16605
 C380 C 0.81035 -0.16573 0.17981
 C381 C 0.86229 -0.13618 0.12918
 C382 C 0.84646 -0.11479 0.12112
 C383 C 0.86095 -0.09748 0.10657
 C384 C 0.89142 -0.10129 0.09987
 C385 C 0.90739 -0.12250 0.10778
 C386 C 0.89294 -0.13985 0.12233
 C387 C 0.90631 -0.08334 0.08510
 C388 C 0.91866 -0.06813 0.07293
 H389 H 0.84192 -0.21419 0.14474
 H390 H 0.86860 -0.18391 0.12038
 H391 H 0.82084 -0.13017 0.17240
 H392 H 0.79390 -0.16057 0.19621
 H393 H 0.82277 -0.11157 0.12570
 H394 H 0.84836 -0.08115 0.10050
 H395 H 0.93103 -0.12559 0.10280
 H396 H 0.90581 -0.15601 0.12853
 C397 C 0.78453 0.27775 0.69771
 C398 C 0.79879 0.29272 0.68732
 C399 C 0.81537 0.31056 0.67424
 C400 C 0.83933 0.30407 0.65578
 C401 C 0.85466 0.32138 0.64210
 C402 C 0.84615 0.34547 0.64665
 C403 C 0.82221 0.35181 0.66548
 C404 C 0.80693 0.33446 0.67915
 C405 C 0.86188 0.36389 0.63150
 C406 C 0.84563 0.38408 0.62026
 C407 C 0.86037 0.40133 0.60583
 C408 C 0.89152 0.39869 0.60241
 C409 C 0.90790 0.37868 0.61349
 C410 C 0.89320 0.36138 0.62792
 C411 C 0.90664 0.41660 0.58772
 C412 C 0.91918 0.43174 0.57559
 H413 H 0.84594 0.28562 0.65168
 H414 H 0.87272 0.31591 0.62747
 H415 H 0.81537 0.37018 0.66975
 H416 H 0.78841 0.33970 0.69339
 H417 H 0.82147 0.38637 0.62227
 H418 H 0.84744 0.41672 0.59729
 H419 H 0.93203 0.37649 0.61107
 H420 H 0.90639 0.34620 0.63660
 C421 C 0.28520 -0.22093 0.69653
 C422 C 0.29962 -0.20605 0.68627
 C423 C 0.31625 -0.18820 0.67341
 C424 C 0.34334 -0.19449 0.65930
 C425 C 0.35882 -0.17724 0.64570
 C426 C 0.34731 -0.15346 0.64599
 C427 C 0.32023 -0.14730 0.66052
 C428 C 0.30482 -0.16457 0.67411
 C429 C 0.36320 -0.13522 0.63079
 C430 C 0.34699 -0.11740 0.61484
 C431 C 0.36189 -0.10025 0.60045
 C432 C 0.39316 -0.10066 0.60179
 C433 C 0.40951 -0.11832 0.61755
 C434 C 0.39465 -0.13552 0.63195
 C435 C 0.40836 -0.08281 0.58719
 C436 C 0.42089 -0.06769 0.57507
 H437 H 0.35230 -0.21277 0.65849
 H438 H 0.37942 -0.18258 0.63442
 H439 H 0.31102 -0.12911 0.66146
 H440 H 0.28386 -0.15951 0.68497
 H441 H 0.32281 -0.11690 0.61318
 H442 H 0.34903 -0.08668 0.58825
 H443 H 0.43372 -0.11875 0.61881
 H444 H 0.40771 -0.14885 0.64431
 C445 C 0.28440 0.27883 0.19577
 C446 C 0.29884 0.29359 0.18518
 C447 C 0.31551 0.31126 0.17187
 C448 C 0.34260 0.30477 0.15786
 C449 C 0.35810 0.32182 0.14385
 C450 C 0.34664 0.34561 0.14360
 C451 C 0.31953 0.35198 0.15801
 C452 C 0.30409 0.33492 0.17202
 C453 C 0.36264 0.36366 0.12805
 C454 C 0.34653 0.38143 0.11191
 C455 C 0.36153 0.39841 0.09727
 C456 C 0.39281 0.39791 0.09852
 C457 C 0.40906 0.38029 0.11446
 C458 C 0.39411 0.36326 0.12911
 C459 C 0.40814 0.41566 0.08377
 C460 C 0.42083 0.43071 0.07161
 H461 H 0.35156 0.28649 0.15745
 H462 H 0.37871 0.31630 0.13267
 H463 H 0.31033 0.37019 0.15857
 H464 H 0.28313 0.34015 0.18278
 H465 H 0.32234 0.38202 0.11031
 H466 H 0.34871 0.41194 0.08496
 H467 H 0.43328 0.37979 0.11569
 H468 H 0.40712 0.35000 0.14160
 C469 C 0.78878 0.22144 -0.23530
 C470 C 0.80420 0.21133 -0.21709
 C471 C 0.82177 0.19778 -0.19595
 C472 C 0.84873 0.18535 -0.20402
 C473 C 0.86404 0.16987 -0.18462
 C474 C 0.85250 0.16654 -0.15686
 C475 C 0.82586 0.17969 -0.14864
 C476 C 0.81059 0.19516 -0.16809
 C477 C 0.86724 0.14840 -0.13730
 C478 C 0.84989 0.13358 -0.12121
 C479 C 0.86366 0.11537 -0.10443
 C480 C 0.89494 0.11172 -0.10341
 C481 C 0.91242 0.12666 -0.11884
 C482 C 0.89869 0.14489 -0.13566
 C483 C 0.90900 0.09195 -0.08772
 C484 C 0.92072 0.07505 -0.07519
 H485 H 0.85743 0.18703 -0.22564
 H486 H 0.88424 0.15980 -0.19177
 H487 H 0.81660 0.17774 -0.12732
 H488 H 0.78964 0.20459 -0.16166
 H489 H 0.82565 0.13556 -0.12235
 H490 H 0.84990 0.10383 -0.09272
 H491 H 0.93666 0.12400 -0.11822
 H492 H 0.91267 0.15615 -0.14754
 C493 C 0.78951 0.71959 0.26643
 C494 C 0.80515 0.70973 0.28464
 C495 C 0.82293 0.69664 0.30598
 C496 C 0.84935 0.68348 0.29785
 C497 C 0.86479 0.66850 0.31768
 C498 C 0.85393 0.66642 0.34593
 C499 C 0.82786 0.68030 0.35416
 C500 C 0.81245 0.69528 0.33427
 C501 C 0.86865 0.64873 0.36601
 C502 C 0.85125 0.63473 0.38320
 C503 C 0.86495 0.61673 0.40035
 C504 C 0.89618 0.61251 0.40062
 C505 C 0.91373 0.62670 0.38418
 C506 C 0.90008 0.64471 0.36699
 C507 C 0.91007 0.59276 0.41640
 C508 C 0.92169 0.57580 0.42886
 H509 H 0.85748 0.68420 0.27591
 H510 H 0.88453 0.65781 0.31055
 H511 H 0.81914 0.67929 0.37583
 H512 H 0.79193 0.70531 0.34075
 H513 H 0.82701 0.63712 0.38260
 H514 H 0.85114 0.60575 0.41284
 H515 H 0.93794 0.62356 0.38421
 H516 H 0.91408 0.65535 0.35426
 C517 C 0.28921 0.21994 0.26591
 C518 C 0.30511 0.20975 0.28369
 C519 C 0.32319 0.19619 0.30444
 C520 C 0.34919 0.18284 0.29552
 C521 C 0.36489 0.16746 0.31477
 C522 C 0.35469 0.16514 0.34322
 C523 C 0.32904 0.17918 0.35223
 C524 C 0.31338 0.19456 0.33293
 C525 C 0.36974 0.14715 0.36278
 C526 C 0.35262 0.13326 0.38038
 C527 C 0.36656 0.11519 0.39727
 C528 C 0.39777 0.11076 0.39688
 C529 C 0.41505 0.12478 0.37992
 C530 C 0.40116 0.14287 0.36299
 C531 C 0.41188 0.09113 0.41277
 C532 C 0.42359 0.07433 0.42550
 H533 H 0.35680 0.18376 0.27343
 H534 H 0.38429 0.15668 0.30703
 H535 H 0.32085 0.17801 0.37408
 H536 H 0.29319 0.20471 0.34003
 H537 H 0.32839 0.13584 0.38038
 H538 H 0.35294 0.10435 0.41018
 H539 H 0.43924 0.12151 0.37944
 H540 H 0.41497 0.15342 0.34992
 C541 C 0.29027 0.72015 -0.23373
 C542 C 0.30619 0.71025 -0.21578
 C543 C 0.32434 0.69712 -0.19476
 C544 C 0.35049 0.68384 -0.20340
 C545 C 0.36623 0.66878 -0.18386
 C546 C 0.35592 0.66672 -0.15541
 C547 C 0.33016 0.68074 -0.14667
 C548 C 0.31445 0.69581 -0.16626
 C549 C 0.37084 0.64888 -0.13565
 C550 C 0.35360 0.63496 -0.11822
 C551 C 0.36740 0.61678 -0.10144
 C552 C 0.39860 0.61230 -0.10178
 C553 C 0.41602 0.62642 -0.11846
 C554 C 0.40226 0.64462 -0.13528
 C555 C 0.41253 0.59236 -0.08638
 C556 C 0.42410 0.57525 -0.07421
 H557 H 0.35816 0.68454 -0.22549
 H558 H 0.38572 0.65799 -0.19137
 H559 H 0.32188 0.67976 -0.12484
 H560 H 0.29415 0.70593 -0.15940
 H561 H 0.32936 0.63754 -0.11837
 H562 H 0.35370 0.60585 -0.08876
 H563 H 0.44020 0.62308 -0.11889
 H564 H 0.41614 0.65519 -0.14822
 C565 C 1.21615 -0.22225 -0.23367
 C566 C 1.20418 -0.20867 -0.21651
 C567 C 1.18907 -0.19257 -0.19641
 C568 C 1.16580 -0.19996 -0.17945
 C569 C 1.15005 -0.18406 -0.16090
 C570 C 1.15740 -0.16053 -0.15910
 C571 C 1.18112 -0.15336 -0.17596
 C572 C 1.19682 -0.16929 -0.19452
 C573 C 1.13992 -0.14337 -0.14031
 C574 C 1.15439 -0.12662 -0.12427
 C575 C 1.13776 -0.10993 -0.10741
 C576 C 1.10651 -0.10976 -0.10634
 C577 C 1.09192 -0.12651 -0.12194
 C578 C 1.10850 -0.14324 -0.13880
 C579 C 1.08940 -0.09189 -0.09004
 C580 C 1.07534 -0.07652 -0.07674
 H581 H 1.15962 -0.21796 -0.18077
 H582 H 1.13215 -0.19017 -0.14793
 H583 H 1.18705 -0.13529 -0.17533
 H584 H 1.21470 -0.16337 -0.20769
 H585 H 1.17856 -0.12646 -0.12472
 H586 H 1.14926 -0.09702 -0.09540
 H587 H 1.06771 -0.12645 -0.12139
 H588 H 1.09670 -0.15570 -0.15121
 C589 C 1.21553 0.27833 0.26581
 C590 C 1.20369 0.29214 0.28281
 C591 C 1.18874 0.30852 0.30276
 C592 C 1.16713 0.30091 0.32158
 C593 C 1.15157 0.31697 0.34009
 C594 C 1.15742 0.34090 0.34002
 C595 C 1.17946 0.34832 0.32125
 C596 C 1.19497 0.33223 0.30273
 C597 C 1.14019 0.35815 0.35896
 C598 C 1.15450 0.37611 0.37295
 C599 C 1.13807 0.39272 0.39012
 C600 C 1.10716 0.39162 0.39354
 C601 C 1.09275 0.37371 0.37993
 C602 C 1.10914 0.35706 0.36277
 C603 C 1.09016 0.40929 0.41034
 C604 C 1.07614 0.42442 0.42408
 H605 H 1.16212 0.28260 0.32177
 H606 H 1.13502 0.31066 0.35454
 H607 H 1.18420 0.36667 0.32040
 H608 H 1.21153 0.33833 0.28813
 H609 H 1.17841 0.37724 0.37074
 H610 H 1.14945 0.40652 0.40057
 H611 H 1.06880 0.37277 0.38230
 H612 H 1.09740 0.34366 0.35198
 C613 C 0.71590 -0.22277 0.26595
 C614 C 0.70410 -0.20920 0.28322
 C615 C 0.68930 -0.19310 0.30353
 C616 C 0.66668 -0.20062 0.32123
 C617 C 0.65131 -0.18476 0.34011
 C618 C 0.65840 -0.16114 0.34152
 C619 C 0.68144 -0.15383 0.32388
 C620 C 0.69676 -0.16972 0.30499
 C621 C 0.64133 -0.14405 0.36072
 C622 C 0.65607 -0.12707 0.37612
 C623 C 0.63979 -0.11043 0.39335
 C624 C 0.60861 -0.11054 0.39543
 C625 C 0.59378 -0.12753 0.38048
 C626 C 0.61001 -0.14420 0.36326
 C627 C 0.59178 -0.09267 0.41200
 C628 C 0.57785 -0.07730 0.42541
 H629 H 0.66073 -0.21869 0.32026
 H630 H 0.63395 -0.19098 0.35367
 H631 H 0.68714 -0.13570 0.32418
 H632 H 0.71413 -0.16369 0.29126
 H633 H 0.68017 -0.12669 0.37488
 H634 H 0.65148 -0.09734 0.40483
 H635 H 0.56963 -0.12767 0.38180
 H636 H 0.59798 -0.15683 0.35137
 C637 C 0.71938 0.27709 -0.23605
 C638 C 0.70757 0.29107 -0.21922
 C639 C 0.69260 0.30763 -0.19949
 C640 C 0.67215 0.29994 -0.17952
 C641 C 0.65646 0.31614 -0.16126
 C642 C 0.66102 0.34030 -0.16275
 C643 C 0.68191 0.34781 -0.18268
 C644 C 0.69756 0.33158 -0.20094
 C645 C 0.64362 0.35765 -0.14405
 C646 C 0.65739 0.37655 -0.13154
 C647 C 0.64079 0.39321 -0.11457
 C648 C 0.61022 0.39121 -0.10987
 C649 C 0.59635 0.37237 -0.12202
 C650 C 0.61292 0.35568 -0.13898
 C651 C 0.59300 0.40883 -0.09318
 C652 C 0.57882 0.42392 -0.07949
 H653 H 0.66813 0.28145 -0.17823
 H654 H 0.64083 0.30977 -0.14591
 H655 H 0.68563 0.36631 -0.18463
 H656 H 0.71320 0.33774 -0.21645
 H657 H 0.68104 0.37839 -0.13474
 H658 H 0.65175 0.40771 -0.10525
 H659 H 0.57268 0.37071 -0.11864
 H660 H 0.60157 0.34152 -0.14862
 C661 C 1.21383 0.21667 -0.18832
 C662 C 1.19885 0.20412 -0.17451
 C663 C 1.18098 0.18854 -0.15894
 C664 C 1.19448 0.17262 -0.13893
 C665 C 1.17752 0.15634 -0.12528
 C666 C 1.14681 0.15576 -0.13156
 C667 C 1.13334 0.17213 -0.15132
 C668 C 1.15034 0.18840 -0.16493
 C669 C 1.12922 0.13759 -0.11831
 C670 C 1.10867 0.12590 -0.13495
 C671 C 1.09310 0.10802 -0.12286
 C672 C 1.09782 0.10164 -0.09401
 C673 C 1.11788 0.11338 -0.07716
 C674 C 1.13349 0.13124 -0.08920
 C675 C 1.08284 0.08254 -0.08191
 C676 C 1.07082 0.06631 -0.07166
 H677 H 1.21823 0.17247 -0.13431
 H678 H 1.18862 0.14376 -0.11047
 H679 H 1.10968 0.17230 -0.15633
 H680 H 1.13970 0.20063 -0.18044
 H681 H 1.10521 0.13015 -0.15752
 H682 H 1.07773 0.09896 -0.13613
 H683 H 1.12167 0.10857 -0.05478
 H684 H 1.14889 0.14011 -0.07577
 C685 C 1.21304 0.71608 0.30945
 C686 C 1.19834 0.70342 0.32344
 C687 C 1.18094 0.68770 0.33937
 C688 C 1.19500 0.67180 0.35909
 C689 C 1.17846 0.65550 0.37323
 C690 C 1.14760 0.65484 0.36774
 C691 C 1.13358 0.67117 0.34821
 C692 C 1.15016 0.68747 0.33412
 C693 C 1.13037 0.63672 0.38164
 C694 C 1.10919 0.62508 0.36572
 C695 C 1.09383 0.60735 0.37844
 C696 C 1.09937 0.60104 0.40721
 C697 C 1.12011 0.61270 0.42334
 C698 C 1.13552 0.63043 0.41066
 C699 C 1.08441 0.58216 0.41996
 C700 C 1.07227 0.56615 0.43062
 H701 H 1.21885 0.67172 0.36316
 H702 H 1.18998 0.64297 0.38783
 H703 H 1.10980 0.67130 0.34381
 H704 H 1.13907 0.69968 0.31885
 H705 H 1.10503 0.62927 0.34324
 H706 H 1.07793 0.59836 0.36572
 H707 H 1.12454 0.60797 0.44564
 H708 H 1.15140 0.63925 0.42357
 C709 C 0.71336 0.21630 0.31032
 C710 C 0.69862 0.20370 0.32429
 C711 C 0.68111 0.18808 0.34015
 C712 C 0.69501 0.17231 0.36010
 C713 C 0.67838 0.15600 0.37409
 C714 C 0.64762 0.15524 0.36821
 C715 C 0.63374 0.17147 0.34850
 C716 C 0.65041 0.18777 0.33455
 C717 C 0.63039 0.13703 0.38180
 C718 C 0.60979 0.12513 0.36547
 C719 C 0.59458 0.10720 0.37786
 C720 C 0.59971 0.10096 0.40671
 C721 C 0.61983 0.11290 0.42325
 C722 C 0.63509 0.13083 0.41089
 C723 C 0.58507 0.08182 0.41909
 C724 C 0.57327 0.06557 0.42951
 H725 H 0.71881 0.17230 0.36441
 H726 H 0.68978 0.14353 0.38885
 H727 H 0.61003 0.17149 0.34381
 H728 H 0.63947 0.19990 0.31910
 H729 H 0.60602 0.12927 0.34291
 H730 H 0.57914 0.09798 0.36484
 H731 H 0.62393 0.10820 0.44562
 H732 H 0.65055 0.13985 0.42408
 C733 C 0.71346 0.71738 -0.19180
 C734 C 0.69851 0.70471 -0.17807
 C735 C 0.68087 0.68889 -0.16257
 C736 C 0.65505 0.68112 -0.17526
 C737 C 0.63891 0.66453 -0.16118
 C738 C 0.64845 0.65544 -0.13419
 C739 C 0.67415 0.66370 -0.12138
 C740 C 0.69025 0.68030 -0.13551
 C741 C 0.63229 0.63682 -0.12002
 C742 C 0.64835 0.61764 -0.10634
 C743 C 0.63327 0.59965 -0.09391
 C744 C 0.60196 0.60054 -0.09494
 C745 C 0.58572 0.61963 -0.10826
 C746 C 0.60077 0.63766 -0.12073
 C747 C 0.58666 0.58167 -0.08261
 C748 C 0.57435 0.56563 -0.07222
 H749 H 0.64771 0.68753 -0.19630
 H750 H 0.61949 0.65831 -0.17179
 H751 H 0.68184 0.65727 -0.10047
 H752 H 0.71023 0.68618 -0.12551
 H753 H 0.67262 0.61628 -0.10580
 H754 H 0.64606 0.58492 -0.08372
 H755 H 0.56147 0.62053 -0.10911
 H756 H 0.58777 0.65232 -0.13081
 C757 C 0.78317 -0.22237 -0.19793
 C758 C 0.79727 -0.20735 -0.18736
 C759 C 0.81368 -0.18940 -0.17414
 C760 C 0.80155 -0.16593 -0.17377
 C761 C 0.81687 -0.14862 -0.15998
 C762 C 0.84457 -0.15455 -0.14632
 C763 C 0.85671 -0.17818 -0.14706
 C764 C 0.84134 -0.19546 -0.16085
 C765 C 0.86050 -0.13625 -0.13105
 C766 C 0.89188 -0.13609 -0.13286
 C767 C 0.90678 -0.11885 -0.11844
 C768 C 0.89058 -0.10156 -0.10199
 C769 C 0.85939 -0.10160 -0.10001
 C770 C 0.84444 -0.11880 -0.11442
 C771 C 0.90585 -0.08365 -0.08736
 C772 C 0.91845 -0.06848 -0.07523
 H773 H 0.78016 -0.16102 -0.18399
 H774 H 0.80711 -0.13056 -0.16016
 H775 H 0.87779 -0.18338 -0.13646
 H776 H 0.85086 -0.21360 -0.16086
 H777 H 0.90485 -0.14910 -0.14574
 H778 H 0.93092 -0.11895 -0.12023
 H779 H 0.84661 -0.08833 -0.08730
 H780 H 0.82035 -0.11862 -0.11223
 C781 C 0.78484 0.27836 0.30436
 C782 C 0.79924 0.29322 0.31482
 C783 C 0.81585 0.31103 0.32793
 C784 C 0.80592 0.33487 0.32496
 C785 C 0.82120 0.35216 0.33879
 C786 C 0.84664 0.34580 0.35582
 C787 C 0.85666 0.32179 0.35837
 C788 C 0.84132 0.30453 0.34454
 C789 C 0.86232 0.36412 0.37121
 C790 C 0.89383 0.36267 0.37268
 C791 C 0.90849 0.37993 0.38726
 C792 C 0.89189 0.39882 0.40060
 C793 C 0.86056 0.40039 0.39931
 C794 C 0.84585 0.38317 0.38473
 C795 C 0.90694 0.41674 0.41533
 C796 C 0.91938 0.43193 0.42751
 H797 H 0.78622 0.34009 0.31216
 H798 H 0.81318 0.37051 0.33608
 H799 H 0.87594 0.31632 0.37160
 H800 H 0.84909 0.28610 0.34712
 H801 H 0.90712 0.34837 0.36222
 H802 H 0.93277 0.37860 0.38803
 H803 H 0.84749 0.41492 0.40960
 H804 H 0.82158 0.38460 0.38435
 C805 C 0.28514 -0.22217 0.30340
 C806 C 0.29968 -0.20742 0.31397
 C807 C 0.31649 -0.18977 0.32727
 C808 C 0.30992 -0.16590 0.32067
 C809 C 0.32530 -0.14866 0.33454
 C810 C 0.34748 -0.15507 0.35528
 C811 C 0.35415 -0.17914 0.36153
 C812 C 0.33872 -0.19634 0.34764
 C813 C 0.36326 -0.13671 0.37063
 C814 C 0.39417 -0.14019 0.37652
 C815 C 0.40890 -0.12293 0.39109
 C816 C 0.39296 -0.10200 0.40003
 C817 C 0.36221 -0.09839 0.39431
 C818 C 0.34745 -0.11560 0.37972
 C819 C 0.40813 -0.08411 0.41481
 C820 C 0.42073 -0.06896 0.42697
 H821 H 0.29274 -0.16059 0.30495
 H822 H 0.31992 -0.13032 0.32895
 H823 H 0.37082 -0.18464 0.37763
 H824 H 0.34387 -0.21476 0.35307
 H825 H 0.40705 -0.15611 0.36952
 H826 H 0.43273 -0.12588 0.39529
 H827 H 0.34963 -0.08227 0.40116
 H828 H 0.32358 -0.11252 0.37591
 C829 C 0.28527 0.27682 -0.19651
 C830 C 0.29990 0.29159 -0.18615
 C831 C 0.31694 0.30925 -0.17325
 C832 C 0.30930 0.33317 -0.17877
 C833 C 0.32511 0.35039 -0.16540
 C834 C 0.34878 0.34389 -0.14625
 C835 C 0.35644 0.31977 -0.14103
 C836 C 0.34061 0.30259 -0.15444
 C837 C 0.36507 0.36220 -0.13146
 C838 C 0.37318 0.35965 -0.10223
 C839 C 0.38801 0.37710 -0.08818
 C840 C 0.39497 0.39729 -0.10311
 C841 C 0.38716 0.39993 -0.13222
 C842 C 0.37231 0.38252 -0.14632
 C843 C 0.40980 0.41544 -0.08853
 C844 C 0.42206 0.43078 -0.07645
 H845 H 0.29090 0.33853 -0.19317
 H846 H 0.31840 0.36879 -0.16958
 H847 H 0.37478 0.31420 -0.12670
 H848 H 0.34671 0.28412 -0.15000
 H849 H 0.36757 0.34438 -0.09009
 H850 H 0.39386 0.37491 -0.06561
 H851 H 0.39250 0.41547 -0.14402
 H852 H 0.36672 0.38486 -0.16890
 C853 C 1.21542 -0.22243 0.23395
 C854 C 1.20341 -0.20850 0.21716
 C855 C 1.18830 -0.19197 0.19745
 C856 C 1.19469 -0.16830 0.19760
 C857 C 1.17907 -0.15208 0.17928
 C858 C 1.15678 -0.15933 0.16058
 C859 C 1.15075 -0.18322 0.16039
 C860 C 1.16641 -0.19941 0.17871
 C861 C 1.13950 -0.14196 0.14179
 C862 C 1.10840 -0.14292 0.13802
 C863 C 1.09200 -0.12619 0.12097
 C864 C 1.10642 -0.10830 0.10741
 C865 C 1.13737 -0.10732 0.11080
 C866 C 1.15382 -0.12401 0.12786
 C867 C 1.08941 -0.09059 0.09064
 C868 C 1.07539 -0.07543 0.07691
 H869 H 1.21146 -0.16232 0.21214
 H870 H 1.18396 -0.13376 0.18022
 H871 H 1.13401 -0.18941 0.14599
 H872 H 1.16128 -0.21770 0.17841
 H873 H 1.09665 -0.15631 0.14876
 H874 H 1.06802 -0.12705 0.11861
 H875 H 1.14877 -0.09355 0.10039
 H876 H 1.17776 -0.12297 0.13004
 C877 C 1.21662 0.27804 0.73619
 C878 C 1.20473 0.29177 0.71912
 C879 C 1.18972 0.30803 0.69908
 C880 C 1.16771 0.30040 0.68063
 C881 C 1.15207 0.31637 0.66205
 C882 C 1.15825 0.34022 0.66171
 C883 C 1.18070 0.34765 0.68009
 C884 C 1.19630 0.33165 0.69867
 C885 C 1.14089 0.35740 0.64278
 C886 C 1.15520 0.37507 0.62832
 C887 C 1.13864 0.39169 0.61125
 C888 C 1.10762 0.39086 0.60839
 C889 C 1.09321 0.37321 0.62243
 C890 C 1.10973 0.35656 0.63950
 C891 C 1.09050 0.40858 0.59178
 C892 C 1.07640 0.42380 0.57825
 H893 H 1.16244 0.28214 0.68079
 H894 H 1.13519 0.31006 0.64791
 H895 H 1.18570 0.36595 0.68060
 H896 H 1.21318 0.33776 0.71299
 H897 H 1.17920 0.37599 0.63014
 H898 H 1.15001 0.40528 0.60046
 H899 H 1.06918 0.37250 0.62049
 H900 H 1.09801 0.34338 0.65066
 C901 C 0.71859 -0.22262 0.73551
 C902 C 0.70689 -0.20827 0.71904
 C903 C 0.69205 -0.19123 0.69979
 C904 C 0.67474 -0.19873 0.67691
 C905 C 0.65902 -0.18218 0.65909
 C906 C 0.66034 -0.15787 0.66398
 C907 C 0.67813 -0.15052 0.68682
 C908 C 0.69385 -0.16710 0.70460
 C909 C 0.64274 -0.14025 0.64577
 C910 C 0.62783 -0.12003 0.65831
 C911 C 0.61107 -0.10352 0.64128
 C912 C 0.60893 -0.10695 0.61151
 C913 C 0.62364 -0.12700 0.59880
 C914 C 0.64041 -0.14358 0.61581
 C915 C 0.59196 -0.08967 0.59408
 C916 C 0.57791 -0.07483 0.57989
 H917 H 0.67304 -0.21737 0.67310
 H918 H 0.64525 -0.18840 0.64193
 H919 H 0.67994 -0.13194 0.69090
 H920 H 0.70716 -0.16110 0.72226
 H921 H 0.62880 -0.11714 0.68135
 H922 H 0.59975 -0.08807 0.65135
 H923 H 0.62225 -0.12978 0.57575
 H924 H 0.65188 -0.15882 0.60548
 C925 C 0.71564 0.27717 0.23425
 C926 C 0.70377 0.29069 0.21695
 C927 C 0.68890 0.30673 0.19660
 C928 C 0.69705 0.32989 0.19445
 C929 C 0.68172 0.34574 0.17551
 C930 C 0.65798 0.33862 0.15853
 C931 C 0.65020 0.31522 0.16062
 C932 C 0.66558 0.29939 0.17955
 C933 C 0.64092 0.35571 0.13929
 C934 C 0.60949 0.35614 0.13743
 C935 C 0.59331 0.37282 0.12016
 C936 C 0.60830 0.38923 0.10449
 C937 C 0.63958 0.38877 0.10590
 C938 C 0.65581 0.37212 0.12317
 C939 C 0.59157 0.40712 0.08784
 C940 C 0.57775 0.42249 0.07434
 H941 H 0.71497 0.33577 0.20767
 H942 H 0.68796 0.36372 0.17467
 H943 H 0.63228 0.30914 0.14757
 H944 H 0.65911 0.28149 0.18106
 H945 H 0.59736 0.34396 0.14988
 H946 H 0.56908 0.37313 0.11936
 H947 H 0.65139 0.40141 0.09386
 H948 H 0.68000 0.37204 0.12389
 C949 C 0.78934 0.21970 0.23384
 C950 C 0.80490 0.20988 0.21559
 C951 C 0.82259 0.19686 0.19419
 C952 C 0.81190 0.19546 0.16592
 C953 C 0.82724 0.18053 0.14598
 C954 C 0.85343 0.16673 0.15411
 C955 C 0.86451 0.16886 0.18232
 C956 C 0.84913 0.18379 0.20222
 C957 C 0.86805 0.14904 0.13398
 C958 C 0.89948 0.14510 0.13289
 C959 C 0.91304 0.12705 0.11572
 C960 C 0.89540 0.11275 0.09942
 C961 C 0.86417 0.11692 0.09979
 C962 C 0.85056 0.13495 0.11692
 C963 C 0.90922 0.09293 0.08373
 C964 C 0.92078 0.07591 0.07138
 H965 H 0.79129 0.20542 0.15952
 H966 H 0.81836 0.17947 0.12433
 H967 H 0.88435 0.15824 0.18938
 H968 H 0.85742 0.18455 0.22413
 H969 H 0.91354 0.15581 0.14554
 H970 H 0.93725 0.12396 0.11561
 H971 H 0.85030 0.10585 0.08741
 H972 H 0.82632 0.13729 0.11762
 C973 C 0.78813 0.72142 0.73481
 C974 C 0.80376 0.71134 0.71678
 C975 C 0.82159 0.69780 0.69586
 C976 C 0.81083 0.69532 0.66777
 C977 C 0.82631 0.67984 0.64848
 C978 C 0.85274 0.66656 0.65709
 C979 C 0.86387 0.66976 0.68509
 C980 C 0.84835 0.68524 0.70433
 C981 C 0.86766 0.64842 0.63767
 C982 C 0.89913 0.64478 0.63659
 C983 C 0.91300 0.62655 0.61987
 C984 C 0.89565 0.61175 0.60398
 C985 C 0.86437 0.61552 0.60444
 C986 C 0.85045 0.63373 0.62113
 C987 C 0.90983 0.59200 0.58833
 C988 C 0.92161 0.57512 0.57581
 H989 H 0.79004 0.70485 0.66102
 H990 H 0.81737 0.67799 0.62697
 H991 H 0.88389 0.65958 0.69254
 H992 H 0.85672 0.68681 0.72612
 H993 H 0.91299 0.65593 0.64882
 H994 H 0.93724 0.62379 0.61968
 H995 H 0.85071 0.60408 0.59237
 H996 H 0.82620 0.63580 0.62183
 C997 C 0.28932 0.21958 0.73455
 C998 C 0.30483 0.20966 0.71632
 C999 C 0.32253 0.19652 0.69500
 C1000 C 0.31155 0.19447 0.66693
 C1001 C 0.32703 0.17947 0.64714
 C1002 C 0.35367 0.16624 0.65524
 C1003 C 0.36501 0.16901 0.68325
 C1004 C 0.34949 0.18401 0.70299
 C1005 C 0.36859 0.14854 0.63529
 C1006 C 0.40006 0.14518 0.63389
 C1007 C 0.41397 0.12722 0.61681
 C1008 C 0.39665 0.11242 0.60089
 C1009 C 0.36536 0.11597 0.60161
 C1010 C 0.35141 0.13392 0.61865
 C1011 C 0.41089 0.09276 0.58519
 C1012 C 0.42277 0.07587 0.57279
 H1013 H 0.29062 0.20399 0.66056
 H1014 H 0.31793 0.17793 0.62564
 H1015 H 0.38521 0.15884 0.69029
 H1016 H 0.35803 0.18527 0.72476
 H1017 H 0.41389 0.15631 0.64620
 H1018 H 0.43822 0.12460 0.61644
 H1019 H 0.35174 0.10451 0.58953
 H1020 H 0.32716 0.13579 0.61959
 C1021 C 0.28900 0.71903 0.23289
 C1022 C 0.30464 0.70884 0.21494
 C1023 C 0.32243 0.69527 0.19401
 C1024 C 0.31178 0.69303 0.16584
 C1025 C 0.32726 0.67765 0.14645
 C1026 C 0.35360 0.66423 0.15502
 C1027 C 0.36460 0.66716 0.18313
 C1028 C 0.34907 0.68253 0.20248
 C1029 C 0.36859 0.64627 0.13540
 C1030 C 0.40006 0.64263 0.13441
 C1031 C 0.41399 0.62461 0.11740
 C1032 C 0.39670 0.61001 0.10115
 C1033 C 0.36542 0.61378 0.10154
 C1034 C 0.35144 0.63178 0.11851
 C1035 C 0.41095 0.59045 0.08521
 C1036 C 0.42284 0.57371 0.07249
 H1037 H 0.29109 0.70270 0.15908
 H1038 H 0.31842 0.67601 0.12486
 H1039 H 0.38455 0.65686 0.19055
 H1040 H 0.35736 0.68392 0.22432
 H1041 H 0.41388 0.65363 0.14691
 H1042 H 0.43823 0.62185 0.11728
 H1043 H 0.35180 0.60249 0.08919
 H1044 H 0.32719 0.63386 0.11912
   
