data_POSCAR
  _audit_creation_date              2014-09-24
  _audit_creation_method            'ToBaCCo'
  _symmetry_space_group_name_H-M    'P1'
  _symmetry_Int_Tables_number       1
  _symmetry_cell_setting            triclinic
  loop_
  _symmetry_equiv_pos_as_xyz
 x,y,z
_cell_length_a 44.7281
_cell_length_b 40.5589
_cell_length_c 41.1055
_cell_angle_alpha 87.293700
_cell_angle_beta 92.094800
_cell_angle_gamma 93.328400
loop_
  _atom_site_label
  _atom_site_type_symbol
  _atom_site_fract_x
  _atom_site_fract_y
  _atom_site_fract_z
N1 N 0.60421 0.63146 0.61568
 N2 N 0.88636 0.35714 0.14504
 N3 N 0.38330 0.12870 -0.13164
 N4 N 0.10951 0.87074 0.36861
 N5 N 0.10946 0.19441 0.10430
 N6 N 0.09229 0.17333 0.12153
 C7 C 0.06854 0.18873 0.13125
 C8 C 0.07104 0.22128 0.11948
 C9 C 0.09729 0.22406 0.10263
 H10 H 0.05104 0.17717 0.14607
 H11 H 0.10645 0.24588 0.08953
 Cu12 Cu 0.10298 0.12812 0.13083
 Cu13 Cu 0.14493 0.18113 0.08323
 Cu14 Cu 0.16408 0.10022 0.09911
 N15 N 0.12215 0.08970 0.15010
 N16 N 0.14651 0.07929 0.13798
 C17 C 0.15572 0.05326 0.15638
 C18 C 0.13605 0.04700 0.18134
 C19 C 0.11493 0.07058 0.17667
 H20 H 0.17541 0.04002 0.15208
 H21 H 0.09623 0.07417 0.19182
 N22 N 0.18599 0.13105 0.06901
 N23 N 0.17953 0.16225 0.06385
 C24 C 0.19883 0.17687 0.04246
 C25 C 0.21813 0.15371 0.03369
 C26 C 0.20945 0.12494 0.05107
 H27 H 0.19851 0.20229 0.03330
 H28 H 0.21946 0.10133 0.05088
 H29 H 0.13170 0.13229 0.08080
 H30 H 0.15450 0.14409 0.11779
 N31 N 0.40804 0.83139 0.60161
 N32 N 0.42072 0.85046 0.62381
 C33 C 0.44835 0.84031 0.63159
 C34 C 0.45302 0.81333 0.61354
 C35 C 0.42702 0.80832 0.59474
 H36 H 0.46380 0.85129 0.64938
 H37 H 0.42237 0.78960 0.57709
 Cu38 Cu 0.39877 0.88537 0.64113
 Cu39 Cu 0.36823 0.83841 0.58235
 Cu40 Cu 0.32981 0.90156 0.61295
 N41 N 0.37686 0.91971 0.65952
 N42 N 0.34962 0.92556 0.64846
 C43 C 0.33867 0.94902 0.66597
 C44 C 0.36014 0.95845 0.68918
 C45 C 0.38417 0.93937 0.68447
 H46 H 0.31651 0.95824 0.66248
 H47 H 0.40500 0.93919 0.69863
 N48 N 0.31365 0.87437 0.57714
 N49 N 0.32789 0.84981 0.56603
 C50 C 0.31105 0.83607 0.54183
 C51 C 0.28522 0.85299 0.53732
 C52 C 0.28753 0.87706 0.56013
 H53 H 0.31731 0.81572 0.52793
 H54 H 0.27140 0.89516 0.56408
 H55 H 0.36793 0.88802 0.59114
 H56 H 0.35151 0.85845 0.62266
 N57 N 0.88593 0.67196 0.39350
 N58 N 0.90457 0.65481 0.37805
 C59 C 0.92944 0.67396 0.37165
 C60 C 0.92607 0.70482 0.38363
 C61 C 0.89815 0.70274 0.39712
 H62 H 0.94828 0.66613 0.35880
 H63 H 0.88761 0.72209 0.40896
 Cu64 Cu 0.89404 0.60962 0.36641
 Cu65 Cu 0.84722 0.65300 0.40769
 Cu66 Cu 0.83839 0.56783 0.40516
 N67 N 0.87689 0.56772 0.35099
 N68 N 0.85470 0.55164 0.36610
 C69 C 0.84626 0.52430 0.35009
 C70 C 0.86420 0.52309 0.32364
 C71 C 0.88351 0.55099 0.32488
 H72 H 0.82813 0.50682 0.35697
 H73 H 0.90036 0.55909 0.30758
 N74 N 0.81435 0.59361 0.43239
 N75 N 0.81643 0.62622 0.43210
 C76 C 0.79633 0.63649 0.45254
 C77 C 0.78111 0.60885 0.46626
 C78 C 0.79315 0.58219 0.45304
 H79 H 0.79376 0.66201 0.45785
 H80 H 0.78686 0.55634 0.45802
 H81 H 0.86671 0.60954 0.41681
 H82 H 0.84142 0.61149 0.37969
 N83 N 0.61202 0.31928 -0.10232
 N84 N 0.59569 0.33509 -0.12453
 C85 C 0.57034 0.31663 -0.13092
 C86 C 0.57101 0.28765 -0.11179
 C87 C 0.59780 0.29008 -0.09408
 H88 H 0.55295 0.32353 -0.14846
 H89 H 0.60627 0.27196 -0.07646
 Cu90 Cu 0.60936 0.37807 -0.14321
 Cu91 Cu 0.65068 0.33752 -0.08631
 Cu92 Cu 0.67189 0.41748 -0.11324
 N93 N 0.62371 0.42103 -0.16129
 N94 N 0.64737 0.43694 -0.14839
 C95 C 0.65152 0.46661 -0.16413
 C96 C 0.62955 0.46926 -0.18840
 C97 C 0.61222 0.43993 -0.18599
 H98 H 0.66942 0.48480 -0.15865
 H99 H 0.59246 0.43321 -0.20067
 N100 N 0.69381 0.39319 -0.07817
 N101 N 0.68554 0.36290 -0.06759
 C102 C 0.70495 0.35320 -0.04367
 C103 C 0.72663 0.37847 -0.03941
 C104 C 0.71900 0.40331 -0.06169
 H105 H 0.70385 0.32926 -0.03092
 H106 H 0.73111 0.42692 -0.06566
 H107 H 0.63875 0.38569 -0.09293
 H108 H 0.66127 0.36991 -0.12565
 C109 C -0.09207 0.33290 0.14085
 C110 C -0.06130 0.33980 0.14495
 C111 C -0.03981 0.31412 0.14178
 N112 N -0.01022 0.32261 0.13870
 N113 N 0.00939 0.29943 0.13597
 C114 C 0.00010 0.26692 0.13650
 N115 N -0.02943 0.25845 0.13990
 N116 N -0.04904 0.28161 0.14239
 C117 C 0.02129 0.24091 0.13368
 C118 C 0.05040 0.24769 0.12333
 H119 H -0.05273 0.36470 0.14962
 H120 H 0.01319 0.21556 0.13854
 H121 H -0.10009 0.30884 0.13267
 H122 H 0.05791 0.27284 0.11647
 C123 C 0.57880 0.65161 0.61467
 C124 C 0.58145 0.68572 0.60857
 C125 C 0.55501 0.70576 0.60725
 N126 N 0.55826 0.73895 0.61035
 N127 N 0.53435 0.75719 0.60925
 C128 C 0.50637 0.74289 0.60470
 N129 N 0.50318 0.70978 0.60123
 N130 N 0.52704 0.69153 0.60262
 C131 C 0.47971 0.76252 0.60312
 C132 C 0.48010 0.79431 0.61462
 H133 H 0.60341 0.69806 0.60593
 H134 H 0.45884 0.75090 0.59405
 H135 H 0.55714 0.64005 0.62080
 H136 H 0.50037 0.80498 0.62606
 C137 C 1.08921 0.84192 0.37006
 C138 C 1.05824 0.84455 0.36898
 C139 C 1.03717 0.81532 0.37030
 N140 N 1.00756 0.81901 0.37415
 N141 N 0.98821 0.79276 0.37531
 C142 C 0.99775 0.76186 0.37249
 N143 N 1.02732 0.75820 0.36844
 N144 N 1.04669 0.78443 0.36743
 C145 C 0.97672 0.73259 0.37355
 C146 C 0.94705 0.73416 0.38234
 H147 H 1.04921 0.86878 0.36815
 H148 H 0.98515 0.70907 0.36808
 H149 H 1.09811 0.81773 0.37349
 H150 H 0.93906 0.75740 0.38942
 C151 C 0.40428 0.15683 -0.13062
 C152 C 0.43482 0.15298 -0.12510
 C153 C 0.45683 0.18133 -0.12473
 N154 N 0.48560 0.17685 -0.11468
 N155 N 0.50585 0.20228 -0.11452
 C156 C 0.49807 0.23310 -0.12457
 N157 N 0.46934 0.23753 -0.13477
 N158 N 0.44907 0.21214 -0.13478
 C159 C 0.52019 0.26137 -0.12508
 C160 C 0.54876 0.25947 -0.11067
 H161 H 0.44268 0.12841 -0.12028
 H162 H 0.51347 0.28444 -0.13662
 H163 H 0.39604 0.18141 -0.13340
 H164 H 0.55490 0.23693 -0.09759
 C165 C 0.10481 -0.10357 0.34382
 C166 C 0.12870 -0.08364 0.33162
 C167 C 0.12491 -0.05864 0.30494
 N168 N 0.14932 -0.04522 0.28952
 N169 N 0.14641 -0.02265 0.26519
 C170 C 0.11896 -0.01247 0.25551
 N171 N 0.09454 -0.02564 0.27114
 N172 N 0.09743 -0.04841 0.29535
 C173 C 0.11553 0.01259 0.22877
 C174 C 0.13872 0.02155 0.20782
 H175 H 0.15128 -0.08763 0.34077
 H176 H 0.09408 0.02351 0.22503
 H177 H 0.08281 -0.10160 0.33223
 H178 H 0.15946 0.00900 0.21036
 C179 C 0.60331 0.60236 -0.36300
 C180 C 0.59982 0.60482 -0.32972
 C181 C 0.60175 0.57616 -0.30667
 N182 N 0.60811 0.58088 -0.27465
 N183 N 0.61067 0.55515 -0.25357
 C184 C 0.60666 0.52376 -0.26370
 N185 N 0.59986 0.51904 -0.29564
 N186 N 0.59761 0.54478 -0.31680
 C187 C 0.60964 0.49518 -0.24070
 C188 C 0.62569 0.49784 -0.21118
 H189 H 0.59784 0.62899 -0.32013
 H190 H 0.60051 0.47124 -0.24800
 H191 H 0.60794 0.57881 -0.37253
 H192 H 0.63711 0.52120 -0.20526
 C193 C 0.38814 1.10334 0.84606
 C194 C 0.36432 1.08492 0.83165
 C195 C 0.36870 1.06085 0.80683
 N196 N 0.34464 1.04762 0.78998
 N197 N 0.34816 1.02611 0.76711
 C198 C 0.37590 1.01692 0.76031
 N199 N 0.39996 1.02997 0.77733
 N200 N 0.39645 1.05161 0.80011
 C201 C 0.38008 0.99318 0.73510
 C202 C 0.35660 0.98253 0.71423
 H203 H 0.34155 1.08949 0.83741
 H204 H 0.40225 0.98443 0.73262
 H205 H 0.41056 1.10066 0.83782
 H206 H 0.33476 0.99242 0.71596
 C207 C 0.89057 0.38038 0.17058
 C208 C 0.86823 0.40090 0.17875
 C209 C 0.87270 0.42456 0.20471
 N210 N 0.84858 0.43676 0.21801
 N211 N 0.85213 0.45841 0.24140
 C212 C 0.87998 0.46894 0.25212
 N213 N 0.90415 0.45705 0.23856
 N214 N 0.90059 0.43511 0.21538
 C215 C 0.88404 0.49318 0.27763
 C216 C 0.86118 0.49831 0.29861
 H217 H 0.84637 0.39908 0.16664
 H218 H 0.90565 0.50637 0.28064
 H219 H 0.91154 0.38152 0.18461
 H220 H 0.84056 0.48296 0.29737
 C221 C 0.35857 0.12505 -0.10991
 C222 C 0.34912 0.15104 -0.09242
 C223 C 0.32488 0.14625 -0.06909
 N224 N 0.31414 0.17275 -0.05535
 N225 N 0.29240 0.16873 -0.03395
 C226 C 0.28070 0.13802 -0.02540
 N227 N 0.29153 0.11153 -0.03903
 N228 N 0.31317 0.11555 -0.06051
 C229 C 0.25689 0.13297 -0.00164
 C230 C 0.24227 0.15910 0.01028
 H231 H 0.35940 0.17568 -0.09588
 H232 H 0.25023 0.10779 0.00598
 H233 H 0.34710 0.10092 -0.10662
 H234 H 0.24797 0.18420 0.00150
 C235 C 0.62738 0.63737 0.59223
 C236 C 0.65294 0.61908 0.59316
 C237 C 0.67609 0.62360 0.56862
 N238 N 0.69683 0.60067 0.56720
 N239 N 0.71781 0.60388 0.54496
 C240 C 0.71900 0.63030 0.52340
 N241 N 0.69847 0.65349 0.52502
 N242 N 0.67730 0.65015 0.54716
 C243 C 0.74200 0.63370 0.49855
 C244 C 0.75809 0.60684 0.49099
 H245 H 0.65592 0.59989 0.61199
 H246 H 0.74545 0.65720 0.48521
 H247 H 0.62479 0.65637 0.57308
 H248 H 0.75294 0.58286 0.50283
 C249 C 0.85913 0.35480 0.12552
 C250 C 0.86002 0.35871 0.09176
 C251 C 0.83277 0.35819 0.07069
 N252 N 0.83394 0.37133 0.03978
 N253 N 0.80941 0.37129 0.02040
 C254 C 0.78286 0.35782 0.03114
 N255 N 0.78175 0.34430 0.06194
 N256 N 0.80623 0.34463 0.08144
 C257 C 0.75572 0.35743 0.00984
 C258 C 0.75335 0.37887 -0.01749
 H259 H 0.88144 0.36415 0.08065
 H260 H 0.73685 0.34088 0.01653
 H261 H 0.83780 0.35186 0.13727
 H262 H 0.77124 0.39736 -0.02251
 C263 C 0.13319 0.87519 0.39299
 C264 C 0.14761 0.84886 0.40851
 C265 C 0.17148 0.85422 0.43363
 N266 N 0.18863 0.82903 0.44406
 N267 N 0.21033 0.83364 0.46676
 C268 C 0.21554 0.86359 0.47999
 N269 N 0.19823 0.88868 0.46974
 N270 N 0.17666 0.88412 0.44693
 C271 C 0.23930 0.86925 0.50510
 C272 C 0.26103 0.84660 0.51277
 H273 H 0.14219 0.82382 0.40144
 H274 H 0.24026 0.89256 0.51698
 H275 H 0.14071 0.90019 0.39874
 H276 H 0.26109 0.82412 0.49957
   
