data_POSCAR
  _audit_creation_date              2014-09-24
  _audit_creation_method            'ToBaCCo'
  _symmetry_space_group_name_H-M    'P1'
  _symmetry_Int_Tables_number       1
  _symmetry_cell_setting            triclinic
  loop_
  _symmetry_equiv_pos_as_xyz
 x,y,z
_cell_length_a 41.8982
_cell_length_b 41.9958
_cell_length_c 42.4180
_cell_angle_alpha 90.023400
_cell_angle_beta 89.967200
_cell_angle_gamma 89.991400
loop_
  _atom_site_label
  _atom_site_type_symbol
  _atom_site_fract_x
  _atom_site_fract_y
  _atom_site_fract_z
C1 C 0.29185 0.33256 0.02080
 C2 C 0.28851 0.32995 -0.01247
 C3 C 0.30693 0.30688 -0.02844
 C4 C 0.33027 0.28842 -0.01291
 C5 C 0.33329 0.29148 0.02037
 C6 C 0.31406 0.31336 0.03652
 H7 H 0.31566 0.31472 0.06201
 H8 H 0.30572 0.30593 -0.05394
 C9 C 0.71279 0.67311 0.01515
 C10 C 0.71048 0.67072 -0.01799
 C11 C 0.68902 0.69041 -0.03419
 C12 C 0.66974 0.71287 -0.01839
 C13 C 0.67229 0.71510 0.01506
 C14 C 0.69415 0.69564 0.03112
 H15 H 0.69516 0.69660 0.05665
 H16 H 0.68848 0.68898 -0.05970
 C17 C 0.71094 0.33070 0.98251
 C18 C 0.71260 0.33039 1.01609
 C19 C 0.69358 0.30820 1.03256
 C20 C 0.67226 0.28786 1.01693
 C21 C 0.67046 0.28871 0.98369
 C22 C 0.69011 0.30974 0.96698
 H23 H 0.68891 0.31004 0.94144
 H24 H 0.69388 0.30780 1.05812
 C25 C 0.28466 0.67274 0.98487
 C26 C 0.28735 0.66986 1.01818
 C27 C 0.30987 0.68909 1.03390
 C28 C 0.32898 0.71154 1.01794
 C29 C 0.32577 0.71416 0.98466
 C30 C 0.30334 0.69522 0.96887
 H31 H 0.30213 0.69629 0.94334
 H32 H 0.31077 0.68835 1.05942
 C33 C 0.01402 0.28852 0.32962
 C34 C -0.01976 0.28845 0.32925
 C35 C -0.03596 0.30894 0.30861
 C36 C -0.01933 0.32980 0.28868
 C37 C 0.01446 0.32966 0.28885
 C38 C 0.03065 0.30884 0.30916
 H39 H 0.05653 0.30896 0.30956
 H40 H -0.06184 0.30916 0.30856
 C41 C 0.01931 0.70573 0.66623
 C42 C -0.01435 0.70920 0.66919
 C43 C -0.03031 0.69101 0.69231
 C44 C -0.01442 0.66778 0.71053
 C45 C 0.01923 0.66467 0.70714
 C46 C 0.03538 0.68364 0.68517
 H47 H 0.06117 0.68196 0.68356
 H48 H -0.05610 0.69233 0.69359
 C49 C 0.98153 0.71332 0.32891
 C50 C 1.01523 0.71295 0.32953
 C51 C 1.03189 0.69301 0.30873
 C52 C 1.01594 0.67293 0.28721
 C53 C 0.98192 0.67338 0.28690
 C54 C 0.96540 0.69376 0.30744
 H55 H 0.93951 0.69360 0.30746
 H56 H 1.05775 0.69360 0.30921
 C57 C 0.98368 0.29004 0.66823
 C58 C 1.01767 0.28843 0.66865
 C59 C 1.03425 0.30730 0.69076
 C60 C 1.01833 0.32846 0.71096
 C61 C 0.98467 0.33024 0.71001
 C62 C 0.96785 0.31074 0.68901
 H63 H 0.94199 0.31190 0.68864
 H64 H 1.06012 0.30699 0.69124
 C65 C 0.32877 0.01560 0.28679
 C66 C 0.32773 -0.01826 0.28662
 C67 C 0.30681 -0.03365 0.30778
 C68 C 0.28767 -0.01673 0.32943
 C69 C 0.28895 0.01712 0.32905
 C70 C 0.30919 0.03257 0.30764
 H71 H 0.31019 0.05839 0.30765
 H72 H 0.30590 -0.05943 0.30782
 C73 C 0.66906 0.01782 0.71197
 C74 C 0.67005 -0.01585 0.71349
 C75 C 0.69151 -0.03255 0.69416
 C76 C 0.71117 -0.01657 0.67254
 C77 C 0.71020 0.01709 0.67108
 C78 C 0.68922 0.03379 0.69086
 H79 H 0.68875 0.05959 0.68996
 H80 H 0.69167 -0.05836 0.69474
 C81 C 0.33502 0.98508 0.70480
 C82 C 0.33232 1.01872 0.70779
 C83 C 0.30961 1.03471 0.68898
 C84 C 0.29156 1.01878 0.66571
 C85 C 0.29466 0.98514 0.66317
 C86 C 0.31622 0.96902 0.68266
 H87 H 0.31755 0.94325 0.68137
 H88 H 0.30861 1.06047 0.68997
 C89 C 0.67008 0.98128 0.29110
 C90 C 0.67233 1.01482 0.28984
 C91 C 0.69361 1.03064 0.30999
 C92 C 0.71216 1.01408 0.33237
 C93 C 0.71008 0.98020 0.33310
 C94 C 0.68927 0.96445 0.31237
 H95 H 0.68777 0.93868 0.31299
 H96 H 0.69425 1.05644 0.30926
 O97 O 0.84542 0.88841 0.53392
 O98 O 0.88992 0.84496 0.47253
 O99 O 0.84544 0.88820 0.47253
 O100 O 0.88974 0.84455 0.53390
 O101 O 0.85269 0.80706 0.53382
 O102 O 0.80847 0.85062 0.47254
 O103 O 0.85290 0.80742 0.47249
 O104 O 0.80841 0.85087 0.53386
 Cu105 Cu 0.87137 0.87032 0.50331
 Cu106 Cu 0.82689 0.82521 0.50324
 C107 C 0.81930 0.87710 0.54410
 C108 C 0.87889 0.81887 0.46212
 C109 C 0.81948 0.87672 0.46215
 C110 C 0.87879 0.81831 0.54404
 O111 O 0.11028 0.15540 0.46871
 O112 O 0.15618 0.11220 0.52919
 O113 O 0.11154 0.15561 0.52988
 O114 O 0.15464 0.11184 0.46778
 O115 O 0.19154 0.14948 0.46686
 O116 O 0.14846 0.19323 0.52892
 O117 O 0.19307 0.14984 0.52823
 O118 O 0.14721 0.19301 0.46779
 Cu119 Cu 0.12947 0.12993 0.49901
 Cu120 Cu 0.17383 0.17515 0.49787
 C121 C 0.12092 0.18161 0.45819
 C122 C 0.18243 0.12368 0.53885
 C123 C 0.12258 0.18194 0.53967
 C124 C 0.18039 0.12327 0.45686
 O125 O 0.11162 0.84503 0.53079
 O126 O 0.15435 0.88986 0.46910
 O127 O 0.11029 0.84573 0.46950
 O128 O 0.15520 0.88939 0.53032
 O129 O 0.19273 0.85236 0.52923
 O130 O 0.14782 0.80871 0.46846
 O131 O 0.19182 0.85277 0.46808
 O132 O 0.14920 0.80806 0.52967
 Cu133 Cu 0.12906 0.87123 0.50000
 Cu134 Cu 0.17417 0.82673 0.49872
 C135 C 0.12318 0.81891 0.54054
 C136 C 0.18046 0.87899 0.45839
 C137 C 0.12136 0.81973 0.45889
 C138 C 0.18164 0.87833 0.53989
 O139 O 0.84638 0.10811 0.47032
 O140 O 0.89051 0.15274 0.53118
 O141 O 0.84696 0.10835 0.53156
 O142 O 0.89025 0.15229 0.46969
 O143 O 0.85259 0.18919 0.46979
 O144 O 0.80937 0.14534 0.53156
 O145 O 0.85285 0.18964 0.53116
 O146 O 0.80880 0.14510 0.47041
 Cu147 Cu 0.87237 0.12668 0.50066
 Cu148 Cu 0.82715 0.17108 0.50072
 C149 C 0.82001 0.11898 0.46028
 C150 C 0.87909 0.17875 0.54143
 C151 C 0.82075 0.11937 0.54186
 C152 C 0.87874 0.17820 0.45934
 O153 O 0.46681 0.89010 0.84591
 O154 O 0.52878 0.84692 0.89030
 O155 O 0.52880 0.89051 0.84654
 O156 O 0.46663 0.84616 0.88953
 O157 O 0.46744 0.80877 0.85282
 O158 O 0.52955 0.85308 0.80985
 O159 O 0.52951 0.80954 0.85356
 O160 O 0.46763 0.85265 0.80925
 Cu161 Cu 0.49764 0.87218 0.87181
 Cu162 Cu 0.49858 0.82721 0.82770
 C163 C 0.45699 0.87879 0.81994
 C164 C 0.53957 0.82091 0.87942
 C165 C 0.53953 0.87934 0.82084
 C166 C 0.45666 0.81990 0.87850
 O167 O 0.53289 0.15092 0.10951
 O168 O 0.47133 0.10760 0.15445
 O169 O 0.47074 0.15161 0.11086
 O170 O 0.53342 0.10701 0.15299
 O171 O 0.53446 0.14432 0.18980
 O172 O 0.47193 0.18878 0.14779
 O173 O 0.47250 0.14486 0.19129
 O174 O 0.53395 0.18812 0.14642
 Cu175 Cu 0.50194 0.12553 0.12822
 Cu176 Cu 0.50330 0.17027 0.17252
 C177 C 0.54376 0.17688 0.12039
 C178 C 0.46169 0.11882 0.18055
 C179 C 0.46090 0.17782 0.12215
 C180 C 0.54442 0.11814 0.17859
 O181 O 0.52904 0.11139 0.84624
 O182 O 0.46673 0.15491 0.88979
 O183 O 0.46700 0.11201 0.84521
 O184 O 0.52873 0.15479 0.89036
 O185 O 0.52936 0.19266 0.85415
 O186 O 0.46769 0.14998 0.80910
 O187 O 0.46740 0.19286 0.85365
 O188 O 0.52970 0.14929 0.81007
 Cu189 Cu 0.49780 0.12944 0.87154
 Cu190 Cu 0.49860 0.17501 0.82809
 C191 C 0.53976 0.12290 0.82071
 C192 C 0.45672 0.18133 0.87920
 C193 C 0.45708 0.12370 0.81943
 C194 C 0.53930 0.18107 0.87994
 O195 O 0.46915 0.84641 0.10962
 O196 O 0.53009 0.89035 0.15478
 O197 O 0.53122 0.84673 0.11073
 O198 O 0.46797 0.89008 0.15322
 O199 O 0.46742 0.85255 0.18978
 O200 O 0.53063 0.80922 0.14730
 O201 O 0.52948 0.85279 0.19129
 O202 O 0.46864 0.80894 0.14624
 Cu203 Cu 0.49974 0.87219 0.12840
 Cu204 Cu 0.49904 0.82711 0.17235
 C205 C 0.45866 0.82022 0.12032
 C206 C 0.53991 0.87907 0.18077
 C207 C 0.54139 0.82053 0.12168
 C208 C 0.45703 0.87861 0.17869
 O209 O 0.84757 0.46883 0.88866
 O210 O 0.89043 0.53180 0.84540
 O211 O 0.84670 0.53082 0.88933
 O212 O 0.89138 0.46996 0.84486
 O213 O 0.85382 0.46983 0.80825
 O214 O 0.80918 0.53062 0.85268
 O215 O 0.85286 0.53160 0.80880
 O216 O 0.81007 0.46870 0.85199
 Cu217 Cu 0.87279 0.50038 0.87078
 Cu218 Cu 0.82767 0.50018 0.82677
 C219 C 0.82151 0.45822 0.87765
 C220 C 0.87902 0.54212 0.81966
 C221 C 0.82032 0.54089 0.87856
 C222 C 0.88023 0.45979 0.81895
 O223 O 0.15169 0.46938 0.11133
 O224 O 0.10701 0.53222 0.15315
 O225 O 0.15151 0.53129 0.11011
 O226 O 0.10685 0.47012 0.15408
 O227 O 0.14368 0.47083 0.19139
 O228 O 0.18831 0.53191 0.14747
 O229 O 0.14390 0.53279 0.19041
 O230 O 0.18843 0.47012 0.14875
 Cu231 Cu 0.12551 0.50068 0.12841
 Cu232 Cu 0.16975 0.50148 0.17330
 C233 C 0.17771 0.45930 0.12293
 C234 C 0.11796 0.54309 0.17888
 C235 C 0.17753 0.54181 0.12131
 C236 C 0.11772 0.46019 0.18019
 O237 O 0.84512 0.53252 0.11103
 O238 O 0.88792 0.47024 0.15513
 O239 O 0.84475 0.47062 0.11072
 O240 O 0.88800 0.53207 0.15560
 O241 O 0.84982 0.53199 0.19163
 O242 O 0.80661 0.47057 0.14678
 O243 O 0.84977 0.47018 0.19118
 O244 O 0.80695 0.53245 0.14707
 Cu245 Cu 0.87029 0.50135 0.12947
 Cu246 Cu 0.82442 0.50127 0.17279
 C247 C 0.81874 0.54289 0.12153
 C248 C 0.87620 0.45988 0.18072
 C249 C 0.81827 0.46037 0.12109
 C250 C 0.87629 0.54226 0.18128
 O251 O 0.15478 0.52958 0.89028
 O252 O 0.11100 0.46698 0.84744
 O253 O 0.15456 0.46763 0.89144
 O254 O 0.11152 0.52892 0.84605
 O255 O 0.14948 0.52791 0.80981
 O256 O 0.19244 0.46670 0.85511
 O257 O 0.14893 0.46604 0.81117
 O258 O 0.19269 0.52859 0.85398
 Cu259 Cu 0.12914 0.49836 0.87247
 Cu260 Cu 0.17470 0.49720 0.82886
 C261 C 0.18117 0.53956 0.87943
 C262 C 0.12251 0.45607 0.82196
 C263 C 0.18085 0.45694 0.88099
 C264 C 0.12321 0.53866 0.82019
 C265 C 0.23156 0.39418 0.07545
 C266 C 0.21791 0.37183 0.05500
 C267 C 0.23744 0.35126 0.03766
 C268 C 0.27084 0.35308 0.04040
 C269 C 0.28430 0.37503 0.06157
 C270 C 0.26475 0.39553 0.07890
 C271 C 0.21174 0.41643 0.09227
 C272 C 0.19581 0.43569 0.10628
 H273 H 0.19224 0.37056 0.05220
 H274 H 0.22658 0.33423 0.02176
 H275 H 0.30997 0.37681 0.06404
 H276 H 0.27555 0.41274 0.09466
 C277 C 0.76841 0.60771 0.07013
 C278 C 0.77295 0.64056 0.07361
 C279 C 0.75489 0.66193 0.05567
 C280 C 0.73227 0.65058 0.03396
 C281 C 0.72768 0.61759 0.03081
 C282 C 0.74574 0.59629 0.04870
 C283 C 0.78668 0.58553 0.08863
 C284 C 0.80155 0.56637 0.10384
 H285 H 0.79038 0.64964 0.09020
 H286 H 0.75866 0.68728 0.05854
 H287 H 0.70996 0.60835 0.01464
 H288 H 0.74192 0.57093 0.04594
 C289 C 0.76980 0.39252 0.92665
 C290 C 0.78395 0.37169 0.94830
 C291 C 0.76495 0.35100 0.96610
 C292 C 0.73158 0.35123 0.96259
 C293 C 0.71767 0.37167 0.94027
 C294 C 0.73667 0.39225 0.92249
 C295 C 0.78893 0.41496 0.90931
 C296 C 0.80420 0.43440 0.89482
 H297 H 0.80958 0.37168 0.95168
 H298 H 0.77616 0.33518 0.98294
 H299 H 0.69201 0.37222 0.93721
 H300 H 0.72547 0.40829 0.90582
 C301 C 0.23165 0.60560 0.92926
 C302 C 0.25476 0.59491 0.95059
 C303 C 0.27218 0.61677 0.96847
 C304 C 0.26645 0.64961 0.96542
 C305 C 0.24363 0.66024 0.94357
 C306 C 0.22621 0.63831 0.92566
 C307 C 0.21353 0.58286 0.91127
 C308 C 0.19860 0.56333 0.89655
 H309 H 0.25926 0.56967 0.95346
 H310 H 0.29003 0.60811 0.98481
 H311 H 0.23901 0.68545 0.94077
 H312 H 0.20844 0.64683 0.90915
 C313 C 0.06854 0.23244 0.39476
 C314 C 0.07372 0.22940 0.36229
 C315 C 0.05591 0.24764 0.34107
 C316 C 0.03263 0.26897 0.35214
 C317 C 0.02771 0.27207 0.38477
 C318 C 0.04550 0.25380 0.40595
 C319 C 0.08712 0.21405 0.41670
 C320 C 0.10262 0.19901 0.43543
 H321 H 0.09156 0.21301 0.35340
 H322 H 0.06012 0.24502 0.31600
 H323 H 0.01024 0.28876 0.39380
 H324 H 0.04142 0.25646 0.43103
 C325 C 0.07467 0.76539 0.60482
 C326 C 0.07786 0.73224 0.60344
 C327 C 0.06024 0.71290 0.62380
 C328 C 0.03903 0.72652 0.64565
 C329 C 0.03649 0.75986 0.64744
 C330 C 0.05412 0.77919 0.62700
 C331 C 0.09188 0.78502 0.58283
 C332 C 0.10621 0.80085 0.56382
 H333 H 0.09368 0.72133 0.58635
 H334 H 0.06256 0.68728 0.62205
 H335 H 0.02057 0.77084 0.66439
 H336 H 0.05152 0.80482 0.62830
 C337 C 0.92786 0.76900 0.39523
 C338 C 0.92284 0.73614 0.39287
 C339 C 0.94000 0.71820 0.37091
 C340 C 0.96250 0.73291 0.35114
 C341 C 0.96706 0.76600 0.35323
 C342 C 0.94989 0.78394 0.37526
 C343 C 0.91068 0.78713 0.41851
 C344 C 0.89620 0.80183 0.43831
 H345 H 0.90587 0.72434 0.40820
 H346 H 0.93620 0.69272 0.36974
 H347 H 0.98406 0.77784 0.33797
 H348 H 0.95391 0.80937 0.37685
 C349 C 0.92798 0.23116 0.60641
 C350 C 0.92355 0.26419 0.60673
 C351 C 0.94120 0.28321 0.62737
 C352 C 0.96367 0.26941 0.64779
 C353 C 0.96740 0.23613 0.64799
 C354 C 0.94973 0.21712 0.62727
 C355 C 0.91076 0.21195 0.58404
 C356 C 0.89633 0.19648 0.56479
 H357 H 0.90678 0.27530 0.59071
 H358 H 0.93797 0.30880 0.62684
 H359 H 0.98435 0.22501 0.66380
 H360 H 0.95330 0.19157 0.62727
 C361 C 0.39652 0.06923 0.23248
 C362 C 0.36378 0.07505 0.22918
 C363 C 0.34175 0.05774 0.24705
 C364 C 0.35226 0.03426 0.26822
 C365 C 0.38516 0.02891 0.27183
 C366 C 0.40716 0.04622 0.25392
 C367 C 0.41921 0.08686 0.21392
 C368 C 0.43844 0.10152 0.19853
 H369 H 0.35529 0.09288 0.21274
 H370 H 0.31648 0.06230 0.24409
 H371 H 0.39373 0.01122 0.28835
 H372 H 0.43244 0.04163 0.25677
 C373 C 0.60484 0.07281 0.76916
 C374 C 0.60536 0.07685 0.73641
 C375 C 0.62645 0.05910 0.71790
 C376 C 0.64720 0.03698 0.73194
 C377 C 0.64687 0.03331 0.76488
 C378 C 0.62570 0.05107 0.78338
 C379 C 0.58246 0.09061 0.78793
 C380 C 0.56323 0.10545 0.80316
 H381 H 0.58928 0.09355 0.72516
 H382 H 0.62628 0.06226 0.69256
 H383 H 0.66294 0.01668 0.77621
 H384 H 0.62552 0.04778 0.80871
 C385 C 0.39436 0.92887 0.76572
 C386 C 0.37206 0.94996 0.77872
 C387 C 0.35237 0.96802 0.75898
 C388 C 0.35507 0.96532 0.72604
 C389 C 0.37710 0.94367 0.71322
 C390 C 0.39670 0.92563 0.73296
 C391 C 0.41557 0.91109 0.78575
 C392 C 0.43408 0.89627 0.80178
 H393 H 0.37005 0.95262 0.80405
 H394 H 0.33526 0.98429 0.76933
 H395 H 0.37955 0.94122 0.68791
 H396 H 0.41391 0.90941 0.72267
 C397 C 0.60400 0.92893 0.23372
 C398 C 0.59285 0.95251 0.25432
 C399 C 0.61431 0.96948 0.27314
 C400 C 0.64720 0.96320 0.27135
 C401 C 0.65822 0.93933 0.25086
 C402 C 0.63672 0.92233 0.23207
 C403 C 0.58178 0.91130 0.21461
 C404 C 0.56286 0.89656 0.19893
 H405 H 0.56757 0.95770 0.25592
 H406 H 0.60529 0.98747 0.28913
 H407 H 0.68348 0.93409 0.24923
 H408 H 0.64560 0.90407 0.21629
 C409 C 0.39310 0.23260 0.93130
 C410 C 0.40483 0.24981 0.95699
 C411 C 0.38420 0.26815 0.97540
 C412 C 0.35121 0.26936 0.96873
 C413 C 0.33986 0.25227 0.94232
 C414 C 0.36061 0.23391 0.92393
 C415 C 0.41471 0.21407 0.91235
 C416 C 0.43351 0.19891 0.89694
 H417 H 0.43006 0.24940 0.96258
 H418 H 0.39447 0.28237 0.99408
 H419 H 0.31473 0.25225 0.93636
 H420 H 0.35129 0.22072 0.90401
 C421 C 0.60580 0.77005 0.92856
 C422 C 0.62251 0.78333 0.95386
 C423 C 0.64396 0.76475 0.97114
 C424 C 0.64881 0.73232 0.96366
 C425 C 0.63238 0.71963 0.93743
 C426 C 0.61098 0.73828 0.92024
 C427 C 0.58289 0.78871 0.91135
 C428 C 0.56329 0.80373 0.89682
 H429 H 0.61899 0.80807 0.96024
 H430 H 0.65731 0.77611 0.98984
 H431 H 0.63487 0.69481 0.93094
 H432 H 0.59812 0.72774 0.90068
 C433 C 0.39327 0.76869 0.07070
 C434 C 0.37622 0.78203 0.04566
 C435 C 0.35474 0.76342 0.02843
 C436 C 0.35019 0.73091 0.03570
 C437 C 0.36704 0.71811 0.06161
 C438 C 0.38847 0.73679 0.07875
 C439 C 0.41597 0.78751 0.08803
 C440 C 0.43531 0.80274 0.10269
 H441 H 0.37943 0.80686 0.03949
 H442 H 0.34109 0.77484 0.00999
 H443 H 0.36476 0.69323 0.06792
 H444 H 0.40158 0.72621 0.09811
 C445 C 0.60906 0.22871 0.07091
 C446 C 0.62917 0.21491 0.04833
 C447 C 0.65025 0.23398 0.03104
 C448 C 0.65121 0.26706 0.03607
 C449 C 0.63132 0.28061 0.05913
 C450 C 0.61034 0.26155 0.07639
 C451 C 0.58658 0.20953 0.08816
 C452 C 0.56725 0.19423 0.10279
 H453 H 0.62840 0.18951 0.04393
 H454 H 0.66560 0.22304 0.01358
 H455 H 0.63159 0.30606 0.06328
 H456 H 0.59486 0.27248 0.09377
 C457 C 0.23547 0.07341 0.60226
 C458 C 0.23670 0.08162 0.63419
 C459 C 0.25529 0.06375 0.65512
 C460 C 0.27269 0.03698 0.64452
 C461 C 0.27172 0.02959 0.61205
 C462 C 0.25315 0.04748 0.59125
 C463 C 0.21641 0.09162 0.58055
 C464 C 0.20072 0.10646 0.56178
 H465 H 0.22316 0.10175 0.64297
 H466 H 0.25509 0.07030 0.67981
 H467 H 0.28621 0.01065 0.60233
 H468 H 0.25285 0.04124 0.56646
 C469 C 0.76800 0.06775 0.39678
 C470 C 0.75079 0.04130 0.40731
 C471 C 0.73228 0.02365 0.38622
 C472 C 0.73094 0.03185 0.35396
 C473 C 0.74792 0.05908 0.34390
 C474 C 0.76642 0.07668 0.36508
 C475 C 0.78679 0.08598 0.41871
 C476 C 0.80220 0.10112 0.43745
 H477 H 0.75137 0.03451 0.43194
 H478 H 0.71813 0.00427 0.39554
 H479 H 0.74784 0.06623 0.31937
 H480 H 0.77956 0.09722 0.35669
 C481 C 0.76726 0.92803 0.60791
 C482 C 0.77088 0.92376 0.64046
 C483 C 0.75255 0.94173 0.66156
 C484 C 0.73059 0.96428 0.65026
 C485 C 0.72683 0.96815 0.61757
 C486 C 0.74516 0.95022 0.59654
 C487 C 0.78603 0.90967 0.58602
 C488 C 0.80141 0.89461 0.56716
 H489 H 0.78786 0.90659 0.64952
 H490 H 0.75569 0.93831 0.68667
 H491 H 0.70963 0.98500 0.60836
 H492 H 0.74204 0.95361 0.57141
 C493 C 0.23171 0.93039 0.39440
 C494 C 0.23361 0.92091 0.36287
 C495 C 0.25210 0.93830 0.34151
 C496 C 0.26880 0.96583 0.35122
 C497 C 0.26707 0.97467 0.38330
 C498 C 0.24856 0.95722 0.40458
 C499 C 0.21310 0.91220 0.41652
 C500 C 0.19790 0.89700 0.43539
 H501 H 0.22074 0.90009 0.35475
 H502 H 0.25242 0.93071 0.31711
 H503 H 0.28094 0.99438 0.39235
 H504 H 0.24773 0.96444 0.42909
 C505 C 0.07301 0.39090 0.77013
 C506 C 0.07861 0.38986 0.73762
 C507 C 0.06109 0.36916 0.71855
 C508 C 0.03765 0.34931 0.73176
 C509 C 0.03249 0.35003 0.76450
 C510 C 0.05003 0.37084 0.78359
 C511 C 0.09041 0.41320 0.78932
 C512 C 0.10507 0.43248 0.80461
 H513 H 0.09628 0.40532 0.72696
 H514 H 0.06536 0.36906 0.69336
 H515 H 0.01474 0.33470 0.77518
 H516 H 0.04552 0.37145 0.80873
 C517 C 0.06933 0.61025 0.22902
 C518 C 0.07903 0.61629 0.25996
 C519 C 0.06187 0.63751 0.27883
 C520 C 0.03426 0.65285 0.26723
 C521 C 0.02556 0.64742 0.23551
 C522 C 0.04280 0.62614 0.21670
 C523 C 0.08623 0.58709 0.21039
 C524 C 0.10059 0.56720 0.19558
 H525 H 0.09956 0.60411 0.26974
 H526 H 0.06939 0.64052 0.30306
 H527 H 0.00575 0.66002 0.22493
 H528 H 0.03535 0.62198 0.19259
 C529 C 0.92655 0.39546 0.23261
 C530 C 0.94921 0.40681 0.25410
 C531 C 0.96680 0.38546 0.27242
 C532 C 0.96207 0.35249 0.26925
 C533 C 0.93910 0.34125 0.24785
 C534 C 0.92149 0.36265 0.22955
 C535 C 0.90844 0.41760 0.21391
 C536 C 0.89353 0.43662 0.19856
 H537 H 0.95321 0.43215 0.25675
 H538 H 0.98402 0.39462 0.28915
 H539 H 0.93505 0.31592 0.24517
 H540 H 0.90396 0.35362 0.21304
 C541 C 0.93028 0.60561 0.76750
 C542 C 0.95593 0.59377 0.75001
 C543 C 0.97407 0.61415 0.73120
 C544 C 0.96724 0.64705 0.72981
 C545 C 0.94079 0.65851 0.74709
 C546 C 0.92265 0.63799 0.76592
 C547 C 0.91163 0.58419 0.78652
 C548 C 0.89649 0.56542 0.80197
 H549 H 0.96169 0.56862 0.75059
 H550 H 0.99273 0.60378 0.71685
 H551 H 0.93468 0.68357 0.74694
 H552 H 0.90272 0.64740 0.77930
 C553 C 0.76796 0.60535 0.92863
 C554 C 0.73475 0.60557 0.92503
 C555 C 0.71611 0.62695 0.94232
 C556 C 0.73048 0.64827 0.96353
 C557 C 0.76387 0.64814 0.96683
 C558 C 0.78249 0.62670 0.94952
 C559 C 0.78696 0.58300 0.91100
 C560 C 0.80244 0.56397 0.89618
 H561 H 0.72326 0.58914 0.90894
 H562 H 0.69043 0.62662 0.93945
 H563 H 0.77547 0.66465 0.98274
 H564 H 0.80818 0.62678 0.95244
 C565 C 0.23189 0.39324 0.93313
 C566 C 0.23324 0.36092 0.92530
 C567 C 0.25186 0.34002 0.94321
 C568 C 0.26919 0.35104 0.96962
 C569 C 0.26794 0.38387 0.97676
 C570 C 0.24933 0.40464 0.95882
 C571 C 0.21330 0.41502 0.91447
 C572 C 0.19820 0.43386 0.89907
 H573 H 0.21991 0.35186 0.90534
 H574 H 0.25187 0.31503 0.93689
 H575 H 0.28233 0.39390 0.99544
 H576 H 0.24893 0.42974 0.96475
 C577 C 0.22982 0.60655 0.07169
 C578 C 0.26178 0.61140 0.07977
 C579 C 0.28061 0.63248 0.06236
 C580 C 0.26790 0.64893 0.03617
 C581 C 0.23533 0.64432 0.02886
 C582 C 0.21658 0.62320 0.04635
 C583 C 0.21084 0.58414 0.08921
 C584 C 0.19538 0.56501 0.10388
 H585 H 0.27230 0.59857 0.09934
 H586 H 0.30553 0.63479 0.06871
 H587 H 0.22396 0.65767 0.01017
 H588 H 0.19172 0.61993 0.04014
 C589 C 0.76761 0.39585 0.06954
 C590 C 0.75114 0.40621 0.04280
 C591 C 0.73301 0.38475 0.02513
 C592 C 0.73130 0.35229 0.03364
 C593 C 0.74764 0.34239 0.06107
 C594 C 0.76576 0.36394 0.07868
 C595 C 0.78587 0.41818 0.08789
 C596 C 0.80087 0.43722 0.10315
 H597 H 0.75195 0.43102 0.03582
 H598 H 0.71935 0.39398 0.00553
 H599 H 0.74730 0.31770 0.06844
 H600 H 0.77836 0.35568 0.09943
 C601 C 0.93054 0.76620 0.60699
 C602 C 0.92280 0.76486 0.63904
 C603 C 0.94088 0.74603 0.65957
 C604 C 0.96739 0.72850 0.64845
 C605 C 0.97434 0.72966 0.61589
 C606 C 0.95625 0.74847 0.59549
 C607 C 0.91188 0.78518 0.58559
 C608 C 0.89661 0.80060 0.56697
 H609 H 0.90283 0.77840 0.64819
 H610 H 0.93468 0.74607 0.68436
 H611 H 0.99304 0.71511 0.60579
 H612 H 0.96209 0.74885 0.57060
 C613 C 0.92689 0.23005 0.39343
 C614 C 0.94909 0.21601 0.37301
 C615 C 0.96612 0.23485 0.35164
 C616 C 0.96126 0.26796 0.35069
 C617 C 0.93855 0.28177 0.37087
 C618 C 0.92152 0.26292 0.39216
 C619 C 0.91000 0.21103 0.41619
 C620 C 0.89577 0.19571 0.43569
 H621 H 0.95338 0.19058 0.37376
 H622 H 0.98328 0.22370 0.33604
 H623 H 0.93450 0.30724 0.37058
 H624 H 0.90443 0.27403 0.40787
 C625 C 0.07171 0.23343 0.60384
 C626 C 0.08094 0.23520 0.63545
 C627 C 0.06318 0.25340 0.65678
 C628 C 0.03552 0.26987 0.64694
 C629 C 0.02700 0.26831 0.61478
 C630 C 0.04480 0.25011 0.59355
 C631 C 0.09002 0.21490 0.58177
 C632 C 0.10507 0.19965 0.56283
 H633 H 0.10182 0.22243 0.64366
 H634 H 0.07058 0.25365 0.68124
 H635 H 0.00725 0.28208 0.60563
 H636 H 0.03777 0.24935 0.56898
 C637 C 0.06956 0.76857 0.39523
 C638 C 0.07441 0.77222 0.36277
 C639 C 0.05668 0.75409 0.34140
 C640 C 0.03381 0.73225 0.35229
 C641 C 0.02922 0.72852 0.38489
 C642 C 0.04694 0.74669 0.40624
 C643 C 0.08798 0.78698 0.41729
 C644 C 0.10332 0.80213 0.43606
 H645 H 0.09191 0.78903 0.35401
 H646 H 0.06060 0.75722 0.31635
 H647 H 0.01204 0.71147 0.39376
 H648 H 0.04310 0.74357 0.43131
 C649 C 0.60434 0.93032 0.76990
 C650 C 0.59295 0.95244 0.74795
 C651 C 0.61433 0.96995 0.72959
 C652 C 0.64740 0.96570 0.73316
 C653 C 0.65871 0.94329 0.75505
 C654 C 0.63726 0.92574 0.77341
 C655 C 0.58210 0.91211 0.78843
 C656 C 0.56294 0.89705 0.80349
 H657 H 0.56752 0.95604 0.74492
 H658 H 0.60511 0.98669 0.71245
 H659 H 0.68411 0.93958 0.75803
 H660 H 0.64632 0.90860 0.79025
 C661 C 0.38959 0.92709 0.22873
 C662 C 0.38310 0.91749 0.25960
 C663 C 0.36207 0.93505 0.27834
 C664 C 0.34740 0.96294 0.26667
 C665 C 0.35321 0.97152 0.23499
 C666 C 0.37430 0.95388 0.21631
 C667 C 0.41279 0.90996 0.21032
 C668 C 0.43276 0.89563 0.19557
 H669 H 0.39484 0.89678 0.26947
 H670 H 0.35877 0.92763 0.30257
 H671 H 0.34111 0.99160 0.22439
 H672 H 0.37883 0.96128 0.19226
 C673 C 0.61001 0.06895 0.23014
 C674 C 0.61106 0.07489 0.26259
 C675 C 0.63183 0.05763 0.28181
 C676 C 0.65172 0.03411 0.26882
 C677 C 0.65105 0.02867 0.23612
 C678 C 0.63018 0.04596 0.21688
 C679 C 0.58757 0.08605 0.21086
 C680 C 0.56815 0.10059 0.19564
 H681 H 0.59553 0.09259 0.27309
 H682 H 0.63188 0.06210 0.30697
 H683 H 0.66642 0.01084 0.22562
 H684 H 0.62957 0.04120 0.19179
 C685 C 0.39417 0.07328 0.76578
 C686 C 0.40605 0.04742 0.74870
 C687 C 0.38578 0.02954 0.72952
 C688 C 0.35296 0.03688 0.72733
 C689 C 0.34150 0.06358 0.74416
 C690 C 0.36191 0.08144 0.76337
 C691 C 0.41546 0.09159 0.78527
 C692 C 0.43406 0.10646 0.80115
 H693 H 0.43113 0.04125 0.74991
 H694 H 0.39620 0.01067 0.71553
 H695 H 0.31650 0.07008 0.74339
 H696 H 0.35249 0.10154 0.77641
 C697 C 0.60647 0.76936 0.07114
 C698 C 0.59512 0.74666 0.04974
 C699 C 0.61654 0.72885 0.03165
 C700 C 0.64958 0.73380 0.03455
 C701 C 0.66086 0.75625 0.05644
 C702 C 0.63939 0.77405 0.07456
 C703 C 0.58419 0.78781 0.08944
 C704 C 0.56497 0.80295 0.10438
 H705 H 0.56972 0.74273 0.04701
 H706 H 0.60738 0.71129 0.01528
 H707 H 0.68625 0.76026 0.05914
 H708 H 0.64842 0.79150 0.09112
 C709 C 0.39576 0.23143 0.07434
 C710 C 0.39697 0.26455 0.07787
 C711 C 0.37628 0.28399 0.06068
 C712 C 0.35425 0.27053 0.03956
 C713 C 0.35264 0.23721 0.03665
 C714 C 0.37341 0.21777 0.05386
 C715 C 0.41805 0.21170 0.09123
 C716 C 0.43731 0.19585 0.10535
 H717 H 0.41418 0.27536 0.09364
 H718 H 0.37791 0.30960 0.06328
 H719 H 0.33557 0.22633 0.02079
 H720 H 0.37223 0.19216 0.05099
 C721 C 0.60400 0.23195 0.93111
 C722 C 0.59295 0.25285 0.95442
 C723 C 0.61455 0.27135 0.97158
 C724 C 0.64748 0.26893 0.96576
 C725 C 0.65841 0.24805 0.94224
 C726 C 0.63677 0.22958 0.92506
 C727 C 0.58161 0.21345 0.91305
 C728 C 0.56252 0.19838 0.89791
 H729 H 0.56763 0.25501 0.95917
 H730 H 0.60561 0.28768 0.98927
 H731 H 0.68370 0.24595 0.93735
 H732 H 0.64557 0.21357 0.90700
 C733 C 0.39165 0.76826 0.92857
 C734 C 0.40293 0.74511 0.94951
 C735 C 0.38148 0.72729 0.96751
 C736 C 0.34847 0.73266 0.96498
 C737 C 0.33724 0.75551 0.94349
 C738 C 0.35876 0.77332 0.92546
 C739 C 0.41398 0.78684 0.91050
 C740 C 0.43320 0.80212 0.89572
 H741 H 0.42832 0.74089 0.95199
 H742 H 0.39060 0.70943 0.98357
 H743 H 0.31188 0.75986 0.94110
 H744 H 0.34978 0.79113 0.90926
 C745 C 0.76790 0.92482 0.39605
 C746 C 0.78241 0.94591 0.37488
 C747 C 0.76374 0.96342 0.35374
 C748 C 0.73034 0.96019 0.35386
 C749 C 0.71606 0.93833 0.37458
 C750 C 0.73474 0.92084 0.39562
 C751 C 0.78676 0.90785 0.41887
 C752 C 0.80198 0.89367 0.43846
 H753 H 0.80807 0.94911 0.37497
 H754 H 0.77522 0.97990 0.33772
 H755 H 0.69036 0.93550 0.37503
 H756 H 0.72327 0.90457 0.41190
 C757 C 0.23515 0.92876 0.60262
 C758 C 0.26837 0.92554 0.60142
 C759 C 0.28766 0.94368 0.62136
 C760 C 0.27391 0.96541 0.64260
 C761 C 0.24050 0.96812 0.64410
 C762 C 0.22122 0.94996 0.62408
 C763 C 0.21557 0.91080 0.58120
 C764 C 0.19976 0.89587 0.56266
 H765 H 0.27937 0.90923 0.58487
 H766 H 0.31335 0.94123 0.61986
 H767 H 0.22943 0.98444 0.66058
 H768 H 0.19552 0.95260 0.62519
 C769 C 0.23130 0.07389 0.39106
 C770 C 0.26443 0.07797 0.39026
 C771 C 0.28303 0.05994 0.36956
 C772 C 0.26869 0.03744 0.34955
 C773 C 0.23531 0.03406 0.34981
 C774 C 0.21672 0.05211 0.37061
 C775 C 0.21259 0.09141 0.41363
 C776 C 0.19758 0.10600 0.43312
 H777 H 0.27596 0.09474 0.40598
 H778 H 0.30871 0.06290 0.36971
 H779 H 0.22379 0.01708 0.33433
 H780 H 0.19108 0.04880 0.37102
 C781 C 0.76869 0.07000 0.60663
 C782 C 0.73561 0.07457 0.60715
 C783 C 0.71668 0.05749 0.62831
 C784 C 0.73062 0.03552 0.64911
 C785 C 0.76390 0.03129 0.64875
 C786 C 0.78283 0.04839 0.62752
 C787 C 0.78787 0.08728 0.58432
 C788 C 0.80326 0.10189 0.56518
 H789 H 0.72443 0.09121 0.59106
 H790 H 0.69107 0.06106 0.62816
 H791 H 0.77516 0.01474 0.66487
 H792 H 0.80843 0.04471 0.62733
 C793 C 0.92645 0.60686 0.23313
 C794 C 0.92154 0.63963 0.22946
 C795 C 0.93942 0.66130 0.24718
 C796 C 0.96257 0.65036 0.26853
 C797 C 0.96697 0.61744 0.27253
 C798 C 0.94910 0.59582 0.25479
 C799 C 0.90843 0.58450 0.21462
 C800 C 0.89360 0.56543 0.19926
 H801 H 0.90401 0.64841 0.21283
 H802 H 0.93559 0.68659 0.24393
 H803 H 0.98438 0.60856 0.28922
 H804 H 0.95299 0.57050 0.25790
 C805 C 0.93134 0.39596 0.76689
 C806 C 0.92519 0.36325 0.76882
 C807 C 0.94259 0.34186 0.75028
 C808 C 0.96642 0.35298 0.72975
 C809 C 0.97230 0.38586 0.72774
 C810 C 0.95492 0.40721 0.74631
 C811 C 0.91321 0.41807 0.78566
 C812 C 0.89809 0.43690 0.80107
 H813 H 0.90693 0.35430 0.78460
 H814 H 0.93765 0.31661 0.75208
 H815 H 0.99023 0.39495 0.71170
 H816 H 0.95976 0.43249 0.74451
 C817 C 0.07448 0.60288 0.76654
 C818 C 0.07763 0.60127 0.73373
 C819 C 0.06003 0.62174 0.71447
 C820 C 0.03889 0.64394 0.72784
 C821 C 0.03637 0.64595 0.76084
 C822 C 0.05398 0.62541 0.78008
 C823 C 0.09176 0.58084 0.78612
 C824 C 0.10615 0.56185 0.80198
 H825 H 0.09342 0.58392 0.72301
 H826 H 0.06234 0.61981 0.68911
 H827 H 0.02050 0.66317 0.77162
 H828 H 0.05141 0.62690 0.80546
 C829 C 0.06829 0.39454 0.23150
 C830 C 0.04620 0.37394 0.21741
 C831 C 0.02894 0.35242 0.23593
 C832 C 0.03347 0.35147 0.26875
 C833 C 0.05601 0.37188 0.28262
 C834 C 0.07326 0.39333 0.26411
 C835 C 0.08560 0.41728 0.21276
 C836 C 0.10022 0.43671 0.19761
 H837 H 0.04222 0.37464 0.19219
 H838 H 0.01192 0.33664 0.22473
 H839 H 0.05980 0.37159 0.30788
 H840 H 0.09027 0.40916 0.27525
   
