data_POSCAR
  _audit_creation_date              2014-09-24
  _audit_creation_method            'ToBaCCo'
  _symmetry_space_group_name_H-M    'P1'
  _symmetry_Int_Tables_number       1
  _symmetry_cell_setting            triclinic
  loop_
  _symmetry_equiv_pos_as_xyz
 x,y,z
_cell_length_a 58.0051
_cell_length_b 58.0045
_cell_length_c 20.5078
_cell_angle_alpha 90.000000
_cell_angle_beta 90.000000
_cell_angle_gamma 120.000000
loop_
  _atom_site_label
  _atom_site_type_symbol
  _atom_site_fract_x
  _atom_site_fract_y
  _atom_site_fract_z
C1 C 0.17750 0.49979 0.53091
 C2 C 0.17772 0.50023 0.46907
 C3 C 0.20088 0.50042 0.44777
 N4 N 0.21446 0.50000 0.50000
 C5 C 0.20047 0.49961 0.55222
 C6 C 0.20783 0.50021 0.38334
 C7 C 0.23135 0.50028 0.36146
 C8 C 0.23640 0.49667 0.29775
 C9 C 0.26027 0.49667 0.29776
 C10 C 0.26892 0.50027 0.36145
 N11 N 0.25158 0.50316 0.40014
 C12 C 0.29241 0.50011 0.38345
 C13 C 0.29901 0.50045 0.44760
 C14 C 0.31255 0.49245 0.47231
 C15 C 0.31078 0.49053 0.52692
 C16 C 0.29857 0.49966 0.55243
 N17 N 0.28552 0.50024 0.50000
 C18 C 0.29237 0.50003 0.61660
 C19 C 0.26865 0.49973 0.63855
 C20 C 0.26360 0.50333 0.70225
 C21 C 0.23973 0.50333 0.70225
 C22 C 0.23106 0.49973 0.63858
 N23 N 0.24842 0.49684 0.59986
 C24 C 0.20755 0.50016 0.61681
 H25 H 0.16201 0.49970 0.56263
 H26 H 0.16230 0.50028 0.43739
 H27 H 0.24581 0.49163 0.55104
 H28 H 0.22381 0.49367 0.25596
 H29 H 0.26983 0.49368 0.25595
 H30 H 0.32711 0.48490 0.45472
 H31 H 0.32257 0.47807 0.53381
 H32 H 0.23014 0.50633 0.74404
 H33 H 0.25418 0.50837 0.44896
 H34 H 0.27618 0.50633 0.74404
 C35 C 0.49976 -0.32250 0.46909
 C36 C 0.50026 -0.32226 0.53085
 C37 C 0.50042 -0.29912 0.55221
 N38 N 0.50000 -0.28554 0.50000
 C39 C 0.49961 -0.29953 0.44777
 C40 C 0.50017 -0.29244 0.61687
 C41 C 0.50029 -0.26865 0.63858
 C42 C 0.49667 -0.26360 0.70225
 C43 C 0.49667 -0.23973 0.70225
 C44 C 0.50024 -0.23108 0.63858
 N45 N 0.50316 -0.24842 0.59986
 C46 C 0.49997 -0.20750 0.61689
 C47 C 0.50039 -0.20049 0.55219
 C48 C 0.50011 -0.17758 0.53066
 C49 C 0.49967 -0.17780 0.46930
 C50 C 0.49957 -0.20089 0.44780
 N51 N 0.50000 -0.21447 0.50000
 C52 C 0.49987 -0.20779 0.38326
 C53 C 0.49971 -0.23136 0.36145
 C54 C 0.50333 -0.23640 0.29775
 C55 C 0.50333 -0.26027 0.29775
 C56 C 0.49972 -0.26892 0.36146
 N57 N 0.49684 -0.25158 0.40014
 C58 C 0.50019 -0.29219 0.38349
 H59 H 0.49954 -0.33805 0.43784
 H60 H 0.50034 -0.33768 0.56260
 H61 H 0.49163 -0.25418 0.44896
 H62 H 0.49367 -0.27619 0.74404
 H63 H 0.49367 -0.23014 0.74404
 H64 H 0.50004 -0.16210 0.56217
 H65 H 0.49948 -0.16238 0.43778
 H66 H 0.50633 -0.26986 0.25596
 H67 H 0.50837 -0.24582 0.55104
 H68 H 0.50633 -0.22381 0.25596
 C69 C 1.17770 0.67751 0.53086
 C70 C 1.17749 0.67772 0.46906
 C71 C 1.20047 0.70086 0.44777
 N72 N 1.21446 0.71446 0.50000
 C73 C 1.20087 0.70048 0.55221
 C74 C 1.20780 0.70763 0.38342
 C75 C 1.23108 0.73136 0.36146
 C76 C 1.23973 0.73640 0.29775
 C77 C 1.26360 0.76027 0.29775
 C78 C 1.26868 0.76891 0.36145
 N79 N 1.24842 0.75158 0.40014
 C80 C 1.29239 0.79273 0.38359
 C81 C 1.29912 0.79955 0.44778
 C82 C 1.32224 0.82241 0.46930
 C83 C 1.32249 0.82227 0.53095
 C84 C 1.29953 0.79914 0.55223
 N85 N 1.28553 0.78553 0.50000
 C86 C 1.29220 0.79236 0.61661
 C87 C 1.26892 0.76865 0.63854
 C88 C 1.26027 0.76360 0.70225
 C89 C 1.23640 0.73973 0.70225
 C90 C 1.23133 0.73107 0.63858
 N91 N 1.25158 0.74842 0.59986
 C92 C 1.20742 0.70753 0.61686
 H93 H 1.16228 0.66203 0.56261
 H94 H 1.16199 0.66236 0.43754
 H95 H 1.25418 0.74582 0.55104
 H96 H 1.23014 0.72381 0.25596
 H97 H 1.27618 0.76986 0.25595
 H98 H 1.33791 0.83738 0.44013
 H99 H 1.33800 0.83766 0.56254
 H100 H 1.22381 0.73014 0.74404
 H101 H 1.24582 0.75418 0.44896
 H102 H 1.26986 0.77619 0.74404
 C103 C 0.82226 0.50029 0.53054
 C104 C 0.82210 0.50001 0.46942
 C105 C 0.79906 0.49951 0.44783
 N106 N 0.78549 0.49997 0.50001
 C107 C 0.79945 0.50030 0.55216
 C108 C 0.79221 0.49974 0.38406
 C109 C 0.76859 0.49971 0.36161
 C110 C 0.76315 0.50317 0.29785
 C111 C 0.73970 0.50333 0.29779
 C112 C 0.73108 0.49973 0.36146
 N113 N 0.74842 0.49684 0.40016
 C114 C 0.70779 0.50014 0.38334
 C115 C 0.70047 0.49961 0.44777
 C116 C 0.67750 0.49979 0.46907
 C117 C 0.67773 0.50023 0.53091
 C118 C 0.70088 0.50042 0.55222
 N119 N 0.71447 0.50000 0.50000
 C120 C 0.70759 0.50022 0.61681
 C121 C 0.73134 0.50028 0.63858
 C122 C 0.73639 0.49667 0.70224
 C123 C 0.76003 0.49655 0.70217
 C124 C 0.76888 0.50027 0.63839
 N125 N 0.75158 0.50316 0.59985
 C126 C 0.79250 0.49980 0.61599
 H127 H 0.83364 0.52011 0.54321
 H128 H 0.83108 0.52155 0.45935
 H129 H 0.75418 0.50837 0.55104
 H130 H 0.77417 0.50550 0.25377
 H131 H 0.73014 0.50633 0.25596
 H132 H 0.66201 0.49969 0.43739
 H133 H 0.66231 0.50028 0.56263
 H134 H 0.76957 0.49347 0.74428
 H135 H 0.74582 0.49163 0.44896
 H136 H 0.72381 0.49367 0.74404
 C137 C 0.50011 0.32227 0.46958
 C138 C 0.49967 0.32205 0.53045
 C139 C 0.49963 0.29915 0.55222
 N140 N 0.50001 0.28554 0.50000
 C141 C 0.50042 0.29955 0.44776
 C142 C 0.50026 0.29270 0.61624
 C143 C 0.49969 0.26863 0.63853
 C144 C 0.50334 0.26360 0.70225
 C145 C 0.50333 0.23973 0.70225
 C146 C 0.49969 0.23105 0.63855
 N147 N 0.49684 0.24842 0.59986
 C148 C 0.50026 0.20757 0.61636
 C149 C 0.49963 0.20048 0.55222
 C150 C 0.49970 0.17755 0.53066
 C151 C 0.50015 0.17778 0.46936
 C152 C 0.50042 0.20087 0.44777
 N153 N 0.50000 0.21447 0.50000
 C154 C 0.50029 0.20783 0.38373
 C155 C 0.50026 0.23136 0.36148
 C156 C 0.49667 0.23641 0.29775
 C157 C 0.49668 0.26026 0.29775
 C158 C 0.50027 0.26891 0.36150
 N159 N 0.50316 0.25158 0.40013
 C160 C 0.50029 0.29246 0.38384
 H161 H 0.49845 0.33643 0.44334
 H162 H 0.49795 0.33623 0.55706
 H163 H 0.50837 0.25419 0.44896
 H164 H 0.50633 0.27619 0.74405
 H165 H 0.50633 0.23014 0.74404
 H166 H 0.49868 0.16177 0.55928
 H167 H 0.49921 0.16205 0.44101
 H168 H 0.49369 0.26985 0.25592
 H169 H 0.49163 0.24582 0.55104
 H170 H 0.49368 0.22382 0.25595
 C171 C 0.67750 0.17775 0.46911
 C172 C 0.67770 0.17751 0.53086
 C173 C 0.70087 0.20048 0.55221
 N174 N 0.71446 0.21446 0.50000
 C175 C 0.70047 0.20086 0.44777
 C176 C 0.70742 0.20753 0.61686
 C177 C 0.73133 0.23107 0.63858
 C178 C 0.73640 0.23973 0.70225
 C179 C 0.76027 0.26360 0.70225
 C180 C 0.76893 0.26864 0.63855
 N181 N 0.75158 0.24842 0.59986
 C182 C 0.79231 0.29226 0.61671
 C183 C 0.79951 0.29907 0.55217
 C184 C 0.82258 0.32168 0.52959
 C185 C 0.82237 0.32188 0.47049
 C186 C 0.79910 0.29947 0.44783
 N187 N 0.78551 0.28553 0.50000
 C188 C 0.79227 0.29229 0.38329
 C189 C 0.76866 0.26891 0.36145
 C190 C 0.76360 0.26027 0.29775
 C191 C 0.73973 0.23640 0.29775
 C192 C 0.73108 0.23136 0.36146
 N193 N 0.74842 0.25158 0.40014
 C194 C 0.70781 0.20761 0.38352
 H195 H 0.66193 0.16246 0.43804
 H196 H 0.66228 0.16203 0.56261
 H197 H 0.74582 0.25418 0.44896
 H198 H 0.72381 0.23014 0.74404
 H199 H 0.76986 0.27619 0.74404
 H200 H 0.83941 0.33656 0.55799
 H201 H 0.83925 0.33676 0.44253
 H202 H 0.73014 0.22381 0.25596
 H203 H 0.75418 0.24581 0.55104
 H204 H 0.77619 0.26986 0.25596
 O205 O 0.97312 0.50829 -0.13547
 O206 O 1.02432 0.53316 0.13921
 O207 O 0.94337 0.49312 0.06472
 O208 O 1.05444 0.54850 -0.06057
 O209 O 0.97294 0.50807 0.13866
 O210 O 1.02464 0.53360 -0.13520
 O211 O 1.05458 0.54878 0.06456
 O212 O 0.94310 0.49259 -0.06035
 C213 C 0.95282 0.50784 -0.11438
 C214 C 1.04727 0.55488 0.11408
 C215 C 0.95278 0.50791 0.11445
 C216 C 1.04718 0.55502 -0.11393
 O217 O 1.02525 0.48953 -0.13559
 O218 O 0.97314 0.46329 0.13392
 O219 O 0.94124 0.44746 -0.06159
 O220 O 1.05566 0.50458 0.06574
 O221 O 1.02511 0.48945 0.13897
 O222 O 0.97278 0.46297 -0.13910
 O223 O 1.05475 0.50433 -0.06232
 O224 O 0.94491 0.44923 0.06610
 Co225 Co 0.95050 0.43245 -0.03603
 Co226 Co 0.93663 0.41611 0.23032
 Co227 Co 0.88482 0.39010 0.10140
 Co228 Co 0.99741 0.45555 0.08395
 O229 O 0.99382 0.49349 0.00961
 C230 C 1.04738 0.49244 -0.11423
 C231 C 0.95262 0.44469 0.11415
 C232 C 0.95254 0.44453 -0.11431
 C233 C 1.04740 0.49227 0.11435
 O234 O 0.48841 0.46324 -0.13486
 O235 O 0.46322 0.49021 0.13766
 O236 O 0.50419 0.44884 0.06538
 O237 O 0.44796 0.50419 -0.06177
 O238 O 0.48874 0.46332 0.13854
 O239 O 0.46299 0.48987 -0.13628
 O240 O 0.44883 0.50475 0.06566
 O241 O 0.50326 0.44852 -0.06119
 C242 C 0.49230 0.44493 -0.11480
 C243 C 0.44478 0.49210 0.11389
 C244 C 0.49212 0.44484 0.11467
 C245 C 0.44456 0.49194 -0.11399
 O246 O 0.50610 0.53266 -0.13413
 O247 O 0.53160 0.50718 0.13914
 O248 O 0.54641 0.49200 -0.05922
 O249 O 0.49127 0.54767 0.06454
 O250 O 0.50626 0.53281 0.13895
 O251 O 0.53146 0.50711 -0.13404
 O252 O 0.49107 0.54758 -0.05939
 O253 O 0.54653 0.49208 0.06460
 Co254 Co 0.37385 0.41568 -0.02091
 Co255 Co 0.37382 0.41528 0.22706
 Co256 Co 0.39919 0.39058 0.10220
 Co257 Co 0.34875 0.44119 0.10079
 O258 O 0.48903 0.49354 0.01103
 C259 C 0.50787 0.55503 -0.11397
 C260 C 0.55504 0.50783 0.11394
 C261 C 0.55492 0.50775 -0.11384
 C262 C 0.50788 0.55510 0.11402
 O263 O 0.53279 0.02305 -0.13551
 O264 O 0.50689 -0.02861 0.13886
 O265 O 0.54628 0.05161 0.06427
 O266 O 0.49203 -0.05797 -0.06045
 O267 O 0.53148 0.02161 0.13935
 O268 O 0.50817 -0.02761 -0.13611
 O269 O 0.49234 -0.05778 0.06386
 O270 O 0.54612 0.05147 -0.05891
 C271 C 0.55478 0.04736 -0.11383
 C272 C 0.50770 -0.04744 0.11383
 C273 C 0.55504 0.04727 0.11421
 C274 C 0.50759 -0.04755 -0.11386
 O275 O 0.46341 -0.02672 -0.13746
 O276 O 0.48799 0.02195 0.13930
 O277 O 0.50271 0.05174 -0.05933
 O278 O 0.44422 -0.05993 0.06668
 O279 O 0.46314 -0.02753 0.13942
 O280 O 0.48889 0.02336 -0.13575
 O281 O 0.39953 -0.08486 0.03862
 O282 O 0.50302 0.05224 0.06443
 Co283 Co 0.44732 -0.08149 -0.14271
 Co284 Co 0.39046 -0.15009 0.26939
 Co285 Co 0.40978 -0.08998 0.09932
 Co286 Co 0.36675 -0.17388 0.06029
 O287 O 0.49049 -0.01222 0.00831
 C288 C 0.44414 -0.04825 -0.11207
 C289 C 0.49211 0.04718 0.11467
 C290 C 0.49233 0.04731 -0.11451
 C291 C 0.44116 -0.05055 0.11156
 C292 C 1.15232 0.51627 0.29187
 C293 C 1.13264 0.48743 0.27517
 C294 C 1.13662 0.46482 0.30098
 C295 C 1.16050 0.47112 0.34362
 C296 C 1.18154 0.49966 0.35514
 C297 C 1.17679 0.52260 0.33544
 O298 O 1.14322 0.53360 0.25995
 C299 C 1.11798 0.51623 0.22325
 C300 C 1.11089 0.48743 0.23172
 C301 C 1.08591 0.46482 0.19950
 C302 C 1.06793 0.47116 0.15854
 C303 C 1.07406 0.49929 0.14956
 C304 C 1.09921 0.52188 0.18146
 H305 H 1.12163 0.44317 0.28800
 H306 H 1.16355 0.45420 0.36311
 H307 H 1.19178 0.54411 0.34877
 H308 H 1.08079 0.44317 0.20632
 H309 H 1.04913 0.45413 0.13436
 H310 H 1.10724 0.53722 0.16465
 C311 C 0.51524 0.64947 0.30118
 C312 C 0.48823 0.63484 0.26797
 C313 C 0.46705 0.64277 0.28081
 C314 C 0.47294 0.66552 0.32711
 C315 C 0.49974 0.68159 0.35501
 C316 C 0.52131 0.67293 0.34783
 O317 O 0.53146 0.63733 0.27923
 C318 C 0.51523 0.61516 0.23252
 C319 C 0.48823 0.61310 0.22449
 C320 C 0.46705 0.59206 0.17934
 C321 C 0.47298 0.57287 0.14181
 C322 C 0.50022 0.57451 0.14953
 C323 C 0.52109 0.59552 0.19412
 H324 H 0.44678 0.63157 0.25544
 H325 H 0.45710 0.67155 0.33686
 H326 H 0.54133 0.68407 0.37404
 H327 H 0.44678 0.59074 0.17376
 H328 H 0.45710 0.55714 0.10806
 H329 H 0.54131 0.59671 0.19942
 C330 C 0.35359 -0.13332 0.30890
 C331 C 0.36278 -0.14729 0.26192
 C332 C 0.35068 -0.17764 0.26390
 C333 C 0.32913 -0.19415 0.31315
 C334 C 0.31823 -0.18206 0.35513
 C335 C 0.33105 -0.15003 0.35627
 O336 O 0.36892 -0.10405 0.29537
 C337 C 0.38787 -0.09904 0.24038
 C338 C 0.38445 -0.12538 0.21800
 C339 C 0.40146 -0.12685 0.16272
 C340 C 0.42095 -0.10313 0.12745
 C341 C 0.40899 -0.06821 0.11998
 C342 C 0.40820 -0.07328 0.20534
 H343 H 0.35786 -0.18788 0.22813
 H344 H 0.31996 -0.21694 0.31480
 H345 H 0.32413 -0.14029 0.39511
 H346 H 0.39870 -0.14704 0.14646
 H347 H 0.43813 -0.10114 0.11109
 H348 H 0.41150 -0.05301 0.22060
 C349 C 0.86064 0.49447 0.31754
 C350 C 0.85809 0.50472 0.25346
 C351 C 0.83717 0.51307 0.24028
 C352 C 0.81815 0.51079 0.29394
 C353 C 0.81914 0.49988 0.35493
 C354 C 0.84056 0.48570 0.34696
 O355 O 0.88178 0.48747 0.31771
 C356 C 0.89411 0.49398 0.25120
 C357 C 0.87975 0.50467 0.21006
 C358 C 0.88789 0.51304 0.13897
 C359 C 0.91061 0.51067 0.10884
 C360 C 0.92570 0.50044 0.14897
 C361 C 0.91733 0.49194 0.22018
 H362 H 0.83605 0.52109 0.19021
 H363 H 0.80481 0.51809 0.28585
 H364 H 0.84506 0.46767 0.41120
 H365 H 0.87689 0.52108 0.10854
 H366 H 0.91677 0.51701 0.05552
 H367 H 0.92852 0.48422 0.25144
 C368 C 0.51107 0.36685 0.31316
 C369 C 0.49144 0.35262 0.25844
 C370 C 0.47606 0.32211 0.25415
 C371 C 0.48029 0.30564 0.30515
 C372 C 0.49983 0.31838 0.35513
 C373 C 0.51684 0.35072 0.35955
 O374 O 0.52286 0.39619 0.30466
 C375 C 0.51107 0.40108 0.24483
 C376 C 0.49145 0.37436 0.21497
 C377 C 0.47607 0.37283 0.15269
 C378 C 0.48041 0.39827 0.12010
 C379 C 0.49947 0.42523 0.14905
 C380 C 0.51528 0.42702 0.21123
 H381 H 0.46133 0.31172 0.21239
 H382 H 0.46875 0.28275 0.30207
 H383 H 0.53043 0.36031 0.40678
 H384 H 0.46133 0.35256 0.13071
 H385 H 0.46882 0.39714 0.07337
 H386 H 0.52996 0.44728 0.23293
 C387 C 0.64892 0.13400 0.30272
 C388 C 0.63526 0.14679 0.26677
 C389 C 0.64395 0.17622 0.27746
 C390 C 0.66649 0.19299 0.32435
 C391 C 0.68159 0.18184 0.35500
 C392 C 0.67220 0.15127 0.34974
 O393 O 0.63620 0.10540 0.28243
 C394 C 0.61461 0.09970 0.23407
 C395 C 0.61352 0.12505 0.22329
 C396 C 0.59324 0.12550 0.17599
 C397 C 0.57384 0.10029 0.13904
 C398 C 0.57455 0.07429 0.14953
 C399 C 0.59476 0.07411 0.19626
 H400 H 0.63348 0.18559 0.25003
 H401 H 0.67308 0.21510 0.33249
 H402 H 0.68258 0.14211 0.37824
 H403 H 0.59265 0.14476 0.16835
 H404 H 0.55868 0.10068 0.10370
 H405 H 0.59523 0.05478 0.20362
 C406 C 0.51250 0.14573 -0.31038
 C407 C 0.49035 0.13770 -0.26076
 C408 C 0.47298 0.15078 -0.26062
 C409 C 0.47779 0.17208 -0.31044
 C410 C 0.49979 0.18179 -0.35513
 C411 C 0.51827 0.16806 -0.35779
 O412 O 0.52580 0.12968 -0.29849
 C413 C 0.51250 0.11146 -0.24184
 C414 C 0.49035 0.11596 -0.21728
 C415 C 0.47299 0.10008 -0.15916
 C416 C 0.47788 0.07955 -0.12540
 C417 C 0.49946 0.07423 -0.14907
 C418 C 0.51729 0.09029 -0.20701
 H419 H 0.45635 0.14451 -0.22283
 H420 H 0.46478 0.18195 -0.31051
 H421 H 0.53400 0.17404 -0.39916
 H422 H 0.45636 0.10368 -0.14116
 H423 H 0.46480 0.06757 -0.08179
 H424 H 0.53379 0.08661 -0.22488
 C425 C 0.65232 0.51627 -0.29187
 C426 C 0.63264 0.48743 -0.27517
 C427 C 0.63662 0.46482 -0.30098
 C428 C 0.66051 0.47112 -0.34361
 C429 C 0.68177 0.49964 -0.35533
 C430 C 0.67680 0.52260 -0.33544
 O431 O 0.64321 0.53359 -0.25998
 C432 C 0.61801 0.51626 -0.22320
 C433 C 0.61090 0.48743 -0.23169
 C434 C 0.58591 0.46482 -0.19949
 C435 C 0.56786 0.47119 -0.15826
 C436 C 0.57452 0.50024 -0.14958
 C437 C 0.59946 0.52252 -0.18119
 H438 H 0.62163 0.44317 -0.28800
 H439 H 0.66355 0.45420 -0.36311
 H440 H 0.69178 0.54412 -0.34877
 H441 H 0.58079 0.44317 -0.20632
 H442 H 0.54919 0.45425 -0.13419
 H443 H 0.60443 0.54411 -0.17415
 C444 C 0.85692 0.34383 -0.27010
 C445 C 0.86022 0.37033 -0.29198
 C446 C 0.84343 0.37183 -0.34779
 C447 C 0.82147 0.34731 -0.37583
 C448 C 0.81838 0.31879 -0.35606
 C449 C 0.83612 0.31794 -0.30534
 O450 O 0.87587 0.34884 -0.21506
 C451 C 0.89123 0.37815 -0.20144
 C452 C 0.88196 0.39208 -0.24851
 C453 C 0.89410 0.42242 -0.24653
 C454 C 0.91574 0.43890 -0.19690
 C455 C 0.92577 0.42561 -0.14982
 C456 C 0.91336 0.39523 -0.15098
 H457 H 0.84610 0.39183 -0.36400
 H458 H 0.81032 0.34752 -0.42389
 H459 H 0.83329 0.29779 -0.28979
 H460 H 0.88692 0.43266 -0.28232
 H461 H 0.92486 0.46087 -0.19401
 H462 H 0.92064 0.38513 -0.11517
 C463 C 0.48435 -0.15488 -0.28036
 C464 C 0.51209 -0.13066 -0.28407
 C465 C 0.53384 -0.13106 -0.32585
 C466 C 0.52803 -0.15591 -0.36316
 C467 C 0.50027 -0.18175 -0.35557
 C468 C 0.47830 -0.18030 -0.31953
 O469 O 0.46769 -0.14851 -0.23621
 C470 C 0.48440 -0.12054 -0.21174
 C471 C 0.51209 -0.10891 -0.24060
 C472 C 0.53383 -0.08036 -0.22441
 C473 C 0.52774 -0.06338 -0.17898
 C474 C 0.50067 -0.07399 -0.14990
 C475 C 0.47859 -0.10300 -0.16549
 H476 H 0.55465 -0.11266 -0.32822
 H477 H 0.54407 -0.15631 -0.39550
 H478 H 0.46078 -0.19675 -0.31478
 H479 H 0.55465 -0.07183 -0.24654
 H480 H 0.54415 -0.04189 -0.16688
 H481 H 0.45990 -0.11529 -0.14743
 C482 C 0.34486 0.49466 -0.25848
 C483 C 0.36959 0.50403 -0.30080
 C484 C 0.36982 0.51158 -0.37138
 C485 C 0.35466 0.52417 -0.36654
 C486 C 0.31995 0.50084 -0.35739
 C487 C 0.31933 0.49257 -0.28952
 O488 O 0.35100 0.48906 -0.19150
 C489 C 0.37920 0.49472 -0.19004
 C490 C 0.39127 0.50408 -0.25732
 C491 C 0.42016 0.51146 -0.27120
 C492 C 0.43703 0.50932 -0.21743
 C493 C 0.42565 0.49974 -0.15019
 C494 C 0.39670 0.49265 -0.13508
 H495 H 0.38816 0.51852 -0.40385
 H496 H 0.35898 0.52964 -0.45253
 H497 H 0.30064 0.48562 -0.25889
 H498 H 0.42900 0.51850 -0.32214
 H499 H 0.45876 0.51491 -0.22772
 H500 H 0.38797 0.48562 -0.08424
 C501 C 1.13717 0.65344 -0.28739
 C502 C 1.14434 0.63177 -0.27864
 C503 C 1.16938 0.63419 -0.31067
 C504 C 1.18743 0.65852 -0.35143
 C505 C 1.18208 0.68178 -0.35541
 C506 C 1.15575 0.67834 -0.32928
 O507 O 1.11193 0.64553 -0.25072
 C508 C 1.10286 0.61913 -0.21871
 C509 C 1.12261 0.61004 -0.23520
 C510 C 1.11866 0.58357 -0.20919
 C511 C 1.09404 0.56653 -0.16522
 C512 C 1.07423 0.57462 -0.14968
 C513 C 1.07848 0.60102 -0.17497
 H514 H 1.17455 0.61771 -0.30367
 H515 H 1.20620 0.66038 -0.37573
 H516 H 1.15070 0.69482 -0.33661
 H517 H 1.13381 0.57704 -0.22209
 H518 H 1.08240 0.54755 -0.12654
 H519 H 1.06335 0.60747 -0.16200
 C520 C 0.86059 0.49443 -0.31761
 C521 C 0.85809 0.50472 -0.25346
 C522 C 0.83717 0.51307 -0.24030
 C523 C 0.81806 0.51080 -0.29385
 C524 C 0.81882 0.49985 -0.35494
 C525 C 0.84037 0.48576 -0.34806
 O526 O 0.88178 0.48747 -0.31772
 C527 C 0.89411 0.49398 -0.25120
 C528 C 0.87975 0.50467 -0.21006
 C529 C 0.88789 0.51304 -0.13897
 C530 C 0.91061 0.51067 -0.10884
 C531 C 0.92571 0.50048 -0.14898
 C532 C 0.91733 0.49194 -0.22018
 H533 H 0.83605 0.52109 -0.19021
 H534 H 0.80296 0.51740 -0.28400
 H535 H 0.84434 0.46905 -0.41263
 H536 H 0.87689 0.52108 -0.10854
 H537 H 0.91677 0.51701 -0.05552
 H538 H 0.92852 0.48423 -0.25144
 C539 C 0.51107 0.36685 -0.31319
 C540 C 0.49145 0.35262 -0.25845
 C541 C 0.47606 0.32212 -0.25415
 C542 C 0.48031 0.30565 -0.30510
 C543 C 0.49985 0.31812 -0.35519
 C544 C 0.51679 0.35068 -0.35994
 O545 O 0.52286 0.39619 -0.30466
 C546 C 0.51107 0.40107 -0.24483
 C547 C 0.49145 0.37436 -0.21497
 C548 C 0.47607 0.37283 -0.15269
 C549 C 0.48041 0.39827 -0.12010
 C550 C 0.49949 0.42524 -0.14905
 C551 C 0.51528 0.42702 -0.21123
 H552 H 0.46133 0.31172 -0.21239
 H553 H 0.46877 0.28274 -0.30204
 H554 H 0.53038 0.36027 -0.40687
 H555 H 0.46133 0.35256 -0.13071
 H556 H 0.46882 0.39714 -0.07337
 H557 H 0.52996 0.44728 -0.23293
 C558 C 0.63717 0.15344 -0.28739
 C559 C 0.64434 0.13177 -0.27863
 C560 C 0.66938 0.13419 -0.31067
 C561 C 0.68743 0.15852 -0.35143
 C562 C 0.68208 0.18178 -0.35541
 C563 C 0.65575 0.17834 -0.32928
 O564 O 0.61193 0.14553 -0.25072
 C565 C 0.60286 0.11913 -0.21870
 C566 C 0.62260 0.11003 -0.23516
 C567 C 0.61867 0.08348 -0.20920
 C568 C 0.59479 0.06594 -0.16648
 C569 C 0.57477 0.07403 -0.14968
 C570 C 0.57839 0.10096 -0.17476
 H571 H 0.67455 0.11771 -0.30367
 H572 H 0.70620 0.16038 -0.37573
 H573 H 0.65070 0.19482 -0.33661
 H574 H 0.63371 0.07687 -0.22199
 H575 H 0.59186 0.04596 -0.14702
 H576 H 0.56342 0.10751 -0.16185
 C577 C 1.15232 0.51627 -0.29187
 C578 C 1.13264 0.48743 -0.27517
 C579 C 1.13662 0.46482 -0.30098
 C580 C 1.16051 0.47112 -0.34360
 C581 C 1.18179 0.49969 -0.35533
 C582 C 1.17680 0.52260 -0.33545
 O583 O 1.14322 0.53359 -0.26000
 C584 C 1.11799 0.51618 -0.22322
 C585 C 1.11090 0.48743 -0.23170
 C586 C 1.08591 0.46482 -0.19950
 C587 C 1.06793 0.47116 -0.15851
 C588 C 1.07405 0.49931 -0.14957
 C589 C 1.09959 0.52211 -0.18168
 H590 H 1.12163 0.44317 -0.28800
 H591 H 1.16354 0.45420 -0.36311
 H592 H 1.19178 0.54412 -0.34877
 H593 H 1.08079 0.44317 -0.20632
 H594 H 1.04913 0.45413 -0.13436
 H595 H 1.11435 0.54199 -0.19492
 C596 C 0.51623 0.65368 -0.28632
 C597 C 0.48746 0.63158 -0.27946
 C598 C 0.46491 0.63366 -0.31298
 C599 C 0.47116 0.65809 -0.35330
 C600 C 0.49966 0.68175 -0.35543
 C601 C 0.52253 0.67867 -0.32780
 O602 O 0.53351 0.64604 -0.24852
 C603 C 0.51622 0.61937 -0.21764
 C604 C 0.48746 0.60984 -0.23598
 C605 C 0.46491 0.58295 -0.21149
 C606 C 0.47125 0.56543 -0.16816
 C607 C 0.50021 0.57448 -0.14962
 C608 C 0.52247 0.60135 -0.17348
 H609 H 0.44331 0.61685 -0.30740
 H610 H 0.45431 0.65970 -0.37874
 H611 H 0.54400 0.69548 -0.33372
 H612 H 0.44331 0.57602 -0.22572
 H613 H 0.45441 0.54545 -0.14978
 H614 H 0.54400 0.60814 -0.15910
 C615 C 0.34866 -0.13529 -0.29534
 C616 C 0.36661 -0.14579 -0.27249
 C617 C 0.36127 -0.17344 -0.29347
 C618 C 0.33778 -0.19072 -0.33749
 C619 C 0.31843 -0.18186 -0.35508
 C620 C 0.32455 -0.15313 -0.34016
 O621 O 0.35881 -0.10805 -0.26715
 C622 C 0.38297 -0.10098 -0.22667
 C623 C 0.38835 -0.12406 -0.22902
 C624 C 0.41198 -0.12275 -0.19201
 C625 C 0.42496 -0.10322 -0.15874
 C626 C 0.42520 -0.07435 -0.15007
 C627 C 0.40189 -0.07589 -0.18601
 H628 H 0.37496 -0.18111 -0.27588
 H629 H 0.33371 -0.21148 -0.35334
 H630 H 0.31087 -0.14560 -0.35818
 H631 H 0.41580 -0.14026 -0.19423
 H632 H 0.44463 -0.10387 -0.11492
 H633 H 0.39822 -0.05826 -0.18356
 C634 C 0.48435 -0.15488 0.28036
 C635 C 0.51209 -0.13066 0.28407
 C636 C 0.53384 -0.13106 0.32586
 C637 C 0.52801 -0.15591 0.36325
 C638 C 0.50033 -0.18149 0.35536
 C639 C 0.47828 -0.18030 0.31956
 O640 O 0.46769 -0.14851 0.23621
 C641 C 0.48435 -0.12057 0.21168
 C642 C 0.51209 -0.10892 0.24059
 C643 C 0.53383 -0.08036 0.22441
 C644 C 0.52774 -0.06338 0.17897
 C645 C 0.50066 -0.07401 0.14990
 C646 C 0.47828 -0.10296 0.16502
 H647 H 0.55465 -0.11266 0.32822
 H648 H 0.54406 -0.15631 0.39550
 H649 H 0.45758 -0.19873 0.31755
 H650 H 0.55465 -0.07183 0.24654
 H651 H 0.54415 -0.04189 0.16688
 H652 H 0.45766 -0.11142 0.14305
 C653 C 0.34487 0.49469 0.25855
 C654 C 0.36959 0.50405 0.30078
 C655 C 0.36981 0.51143 0.37130
 C656 C 0.35128 0.51925 0.37814
 C657 C 0.31953 0.50042 0.35730
 C658 C 0.31935 0.49258 0.28951
 O659 O 0.35100 0.48906 0.19150
 C660 C 0.37920 0.49472 0.19004
 C661 C 0.39127 0.50408 0.25732
 C662 C 0.42016 0.51146 0.27120
 C663 C 0.43708 0.50943 0.21726
 C664 C 0.42568 0.49980 0.15027
 C665 C 0.39667 0.49267 0.13524
 H666 H 0.38816 0.51852 0.40386
 H667 H 0.35743 0.52818 0.45321
 H668 H 0.30067 0.48561 0.25889
 H669 H 0.42900 0.51850 0.32214
 H670 H 0.45876 0.51492 0.22771
 H671 H 0.38761 0.48546 0.08457
 C672 C 1.15070 0.63487 0.29744
 C673 C 1.13389 0.64611 0.27087
 C674 C 1.14011 0.67433 0.28893
 C675 C 1.16335 0.69145 0.33377
 C676 C 1.18158 0.68186 0.35505
 C677 C 1.17459 0.65255 0.34297
 O678 O 1.13987 0.60719 0.27150
 C679 C 1.11640 0.60061 0.22871
 C680 C 1.11215 0.62438 0.22738
 C681 C 1.08940 0.62362 0.18745
 C682 C 1.07080 0.59885 0.14860
 C683 C 1.07410 0.57483 0.14929
 C684 C 1.09711 0.57600 0.18862
 H685 H 1.12727 0.68255 0.26854
 H686 H 1.16808 0.71264 0.34743
 H687 H 1.18740 0.64448 0.36388
 H688 H 1.08643 0.64171 0.18687
 H689 H 1.05368 0.59828 0.11865
 H690 H 1.09748 0.56393 0.19852
 C691 C 0.51250 0.14572 0.31036
 C692 C 0.49035 0.13770 0.26076
 C693 C 0.47298 0.15078 0.26062
 C694 C 0.47777 0.17207 0.31048
 C695 C 0.49978 0.18152 0.35505
 C696 C 0.51831 0.16806 0.35748
 O697 O 0.52580 0.12968 0.29849
 C698 C 0.51250 0.11146 0.24184
 C699 C 0.49035 0.11596 0.21728
 C700 C 0.47299 0.10008 0.15916
 C701 C 0.47788 0.07955 0.12540
 C702 C 0.49946 0.07423 0.14905
 C703 C 0.51732 0.09030 0.20699
 H704 H 0.45636 0.14451 0.22283
 H705 H 0.46478 0.18194 0.31052
 H706 H 0.53401 0.17404 0.39912
 H707 H 0.45636 0.10368 0.14116
 H708 H 0.46480 0.06757 0.08179
 H709 H 0.53386 0.08665 0.22476
 C710 C 0.65232 0.51627 0.29187
 C711 C 0.63264 0.48743 0.27517
 C712 C 0.63662 0.46482 0.30098
 C713 C 0.66050 0.47112 0.34360
 C714 C 0.68156 0.49971 0.35513
 C715 C 0.67679 0.52260 0.33545
 O716 O 0.64321 0.53359 0.25998
 C717 C 0.61801 0.51626 0.22320
 C718 C 0.61090 0.48743 0.23169
 C719 C 0.58591 0.46482 0.19949
 C720 C 0.56786 0.47119 0.15826
 C721 C 0.57451 0.50022 0.14956
 C722 C 0.59946 0.52252 0.18119
 H723 H 0.62163 0.44317 0.28800
 H724 H 0.66355 0.45420 0.36311
 H725 H 0.69178 0.54411 0.34877
 H726 H 0.58079 0.44317 0.20632
 H727 H 0.54919 0.45425 0.13419
 H728 H 0.60443 0.54411 0.17415
 C729 C 0.85692 0.34383 0.27010
 C730 C 0.86022 0.37033 0.29198
 C731 C 0.84344 0.37184 0.34776
 C732 C 0.82133 0.34736 0.37527
 C733 C 0.81842 0.31880 0.35611
 C734 C 0.83613 0.31794 0.30534
 O735 O 0.87587 0.34884 0.21506
 C736 C 0.89123 0.37814 0.20144
 C737 C 0.88196 0.39208 0.24851
 C738 C 0.89410 0.42242 0.24653
 C739 C 0.91574 0.43890 0.19690
 C740 C 0.92575 0.42559 0.14998
 C741 C 0.91338 0.39523 0.15101
 H742 H 0.84610 0.39183 0.36400
 H743 H 0.81031 0.34755 0.42382
 H744 H 0.83329 0.29779 0.28979
 H745 H 0.88692 0.43266 0.28232
 H746 H 0.92486 0.46087 0.19401
 H747 H 0.92064 0.38513 0.11517
   
