data_POSCAR
  _audit_creation_date              2014-09-24
  _audit_creation_method            'ToBaCCo'
  _symmetry_space_group_name_H-M    'P1'
  _symmetry_Int_Tables_number       1
  _symmetry_cell_setting            triclinic
  loop_
  _symmetry_equiv_pos_as_xyz
 x,y,z
_cell_length_a 49.2949
_cell_length_b 49.3031
_cell_length_c 49.2902
_cell_angle_alpha 86.955800
_cell_angle_beta 88.473300
_cell_angle_gamma 92.997500
loop_
  _atom_site_label
  _atom_site_type_symbol
  _atom_site_fract_x
  _atom_site_fract_y
  _atom_site_fract_z
C1 C 0.27635 0.48689 0.99886
 C2 C 0.26650 0.51266 1.00223
 C3 C 0.28448 0.53465 1.00746
 C4 C 0.31268 0.53125 1.00929
 C5 C 0.32201 0.50499 1.00593
 C6 C 0.30415 0.48294 1.00062
 C7 C 0.23730 0.51669 0.99953
 C8 C 0.22094 0.52061 1.02257
 C9 C 0.19256 0.52275 1.02050
 C10 C 0.18163 0.52248 0.99429
 C11 C 0.19789 0.51864 0.97115
 C12 C 0.22571 0.51537 0.97399
 H13 H 0.26241 0.47005 0.99449
 H14 H 0.27610 0.55413 1.01060
 H15 H 0.23040 0.52006 1.04213
 H16 H 0.23845 0.51214 0.95632
 H17 H 0.34348 0.50153 1.00623
 H18 H 0.16029 0.52544 0.99147
 C19 C 0.71800 0.47116 0.00029
 C20 C 0.73588 0.49427 -0.00051
 C21 C 0.72584 0.52027 -0.00373
 C22 C 0.69798 0.52339 -0.00695
 C23 C 0.68034 0.50003 -0.00686
 C24 C 0.68991 0.47371 -0.00277
 C25 C 0.76534 0.49128 0.00105
 C26 C 0.78011 0.48409 -0.02193
 C27 C 0.80863 0.48233 -0.02156
 C28 C 0.82158 0.48748 0.00309
 C29 C 0.80685 0.49434 0.02633
 C30 C 0.77867 0.49633 0.02509
 H31 H 0.72617 0.45136 0.00367
 H32 H 0.73987 0.53798 -0.00437
 H33 H 0.76885 0.47942 -0.03978
 H34 H 0.76710 0.50211 0.04269
 H35 H 0.65898 0.50256 -0.00987
 H36 H 0.84340 0.48717 0.00437
 C37 C 0.03026 0.22161 0.49498
 C38 C 0.00675 0.23648 0.49343
 C39 C -0.01895 0.22280 0.49305
 C40 C -0.02115 0.19427 0.49477
 C41 C 0.00251 0.17968 0.49586
 C42 C 0.02830 0.19307 0.49629
 C43 C 0.00916 0.26621 0.49511
 C44 C 0.00858 0.28347 0.47159
 C45 C 0.01374 0.31184 0.47286
 C46 C 0.01857 0.32229 0.49854
 C47 C 0.01818 0.30522 0.52226
 C48 C 0.01368 0.27714 0.52034
 H49 H 0.04992 0.23232 0.49615
 H50 H -0.03711 0.23426 0.49282
 H51 H 0.00571 0.27444 0.45225
 H52 H 0.01404 0.26367 0.53843
 H53 H 0.00070 0.15765 0.49670
 H54 H 0.02102 0.34403 0.50056
 C55 C 1.01596 0.77732 0.51049
 C56 C 0.99149 0.76138 0.51202
 C57 C 0.96674 0.77361 0.51543
 C58 C 0.96626 0.80174 0.51770
 C59 C 0.99079 0.81758 0.51630
 C60 C 1.01607 0.80586 0.51227
 C61 C 0.99154 0.73180 0.50936
 C62 C 0.99060 0.71413 0.53272
 C63 C 0.98933 0.68551 0.53076
 C64 C 0.98823 0.67583 0.50424
 C65 C 0.99121 0.69329 0.48083
 C66 C 0.99240 0.72141 0.48350
 H67 H 1.03459 0.76730 0.50668
 H68 H 0.94789 0.76120 0.51642
 H69 H 0.99162 0.72335 0.55206
 H70 H 0.99422 0.73519 0.46559
 H71 H 0.98984 0.83916 0.51891
 H72 H 0.98442 0.65455 0.50097
 C73 C 0.49928 0.01907 0.21806
 C74 C 0.50484 -0.00547 0.23205
 C75 C 0.50868 -0.02879 0.21756
 C76 C 0.50608 -0.02787 0.18927
 C77 C 0.50079 -0.00317 0.17547
 C78 C 0.49747 0.02047 0.18963
 C79 C 0.50446 -0.00729 0.26199
 C80 C 0.48007 -0.00399 0.27647
 C81 C 0.47889 -0.00716 0.30492
 C82 C 0.50259 -0.01279 0.31882
 C83 C 0.52733 -0.01555 0.30465
 C84 C 0.52802 -0.01309 0.27609
 H85 H 0.49596 0.03690 0.22939
 H86 H 0.51225 -0.04790 0.22844
 H87 H 0.46182 0.00009 0.26552
 H88 H 0.54680 -0.01567 0.26480
 H89 H 0.49950 -0.00239 0.15353
 H90 H 0.50185 -0.01433 0.34085
 C91 C 0.48852 0.03337 0.77359
 C92 C 0.49423 0.00891 0.76194
 C93 C 0.49687 -0.01481 0.77851
 C94 C 0.49374 -0.01444 0.80707
 C95 C 0.48917 0.01077 0.81823
 C96 C 0.48596 0.03449 0.80186
 C97 C 0.49693 0.00815 0.73222
 C98 C 0.52281 0.00956 0.71954
 C99 C 0.52542 0.01042 0.69114
 C100 C 0.50210 0.00915 0.67556
 C101 C 0.47605 0.00662 0.68800
 C102 C 0.47363 0.00660 0.71648
 H103 H 0.48599 0.05142 0.76057
 H104 H 0.50002 -0.03357 0.76873
 H105 H 0.54081 0.01064 0.73168
 H106 H 0.45374 0.00483 0.72653
 H107 H 0.48927 0.01250 0.84001
 H108 H 0.50437 0.00991 0.65359
 C109 C 0.28847 0.02818 0.46012
 H110 H 0.28750 0.04551 0.47262
 C111 C 0.30796 0.02832 0.43901
 H112 H 0.32193 0.04590 0.43529
 C113 C 0.27277 -0.01665 0.45116
 H114 H 0.25968 -0.03447 0.45659
 C115 C 0.29216 -0.01748 0.43009
 H116 H 0.29345 -0.03581 0.41906
 N117 N 0.27151 0.00585 0.46588
 C118 C 0.21477 0.03816 0.52360
 H119 H 0.21810 0.02440 0.54088
 C120 C 0.19559 0.05778 0.52563
 H121 H 0.18483 0.05940 0.54486
 C122 C 0.22439 0.05199 0.47743
 H123 H 0.23499 0.04894 0.45845
 C124 C 0.20498 0.07167 0.47843
 H125 H 0.20092 0.08363 0.46007
 Zn126 Zn 0.24973 0.00474 0.49808
 N127 N 0.22861 0.03552 0.49977
 C128 C 0.27941 0.02436 0.54250
 N129 N 0.27397 0.00273 0.52712
 C130 C 0.28793 -0.02023 0.53007
 C131 C 0.30810 -0.02224 0.54926
 C132 C 0.29974 0.02338 0.56172
 C133 C 0.20740 -0.02687 0.47836
 C134 C 0.18656 -0.04709 0.47847
 C135 C 0.20132 -0.06467 0.52200
 C136 C 0.22199 -0.04406 0.52104
 N137 N 0.22458 -0.02567 0.49943
 H138 H 0.26882 0.04283 0.53913
 H139 H 0.28364 -0.03689 0.51713
 H140 H 0.31874 -0.04086 0.55135
 H141 H 0.30446 0.04120 0.57297
 H142 H 0.20970 -0.01175 0.46162
 H143 H 0.17312 -0.04764 0.46146
 H144 H 0.19902 -0.07865 0.53971
 H145 H 0.23530 -0.04226 0.53799
 C146 C 0.18982 0.07436 0.50264
 C147 C 0.31037 0.00502 0.42414
 C148 C 0.18303 -0.06612 0.50067
 C149 C 0.31464 -0.00006 0.56510
 C150 C 0.72967 0.01742 0.54118
 H151 H 0.74590 0.03266 0.53671
 C152 C 0.71116 0.02086 0.56252
 H153 H 0.71319 0.03887 0.57413
 C154 C 0.70721 -0.02459 0.53189
 H155 H 0.70569 -0.04221 0.51977
 C156 C 0.68853 -0.02216 0.55329
 H157 H 0.67246 -0.03781 0.55727
 N158 N 0.72705 -0.00478 0.52598
 C159 C 0.80304 0.01563 0.49349
 H160 H 0.80884 -0.00510 0.49621
 C161 C 0.82308 0.03655 0.49384
 H162 H 0.84403 0.03157 0.49645
 C163 C 0.76899 0.04746 0.48792
 H164 H 0.74773 0.05166 0.48682
 C165 C 0.78855 0.06913 0.48795
 H166 H 0.78227 0.08987 0.48645
 Zn167 Zn 0.75038 -0.00890 0.49538
 N168 N 0.77646 0.02125 0.49102
 C169 C 0.72294 0.00902 0.44764
 N170 N 0.72846 -0.01263 0.46449
 C171 C 0.71648 -0.03769 0.46126
 C172 C 0.69742 -0.04152 0.44121
 C173 C 0.70377 0.00616 0.42744
 C174 C 0.77210 -0.05168 0.52696
 C175 C 0.78918 -0.07301 0.53188
 C176 C 0.79941 -0.07277 0.48364
 C177 C 0.78217 -0.05142 0.47964
 N178 N 0.76934 -0.04104 0.50122
 H179 H 0.73262 0.02876 0.45032
 H180 H 0.72123 -0.05467 0.47477
 H181 H 0.68798 -0.06162 0.43928
 H182 H 0.69874 0.02396 0.41517
 H183 H 0.76196 -0.04288 0.54383
 H184 H 0.79166 -0.08080 0.55257
 H185 H 0.81042 -0.07990 0.46634
 H186 H 0.77990 -0.04230 0.45944
 C187 C 0.81589 0.06368 0.49161
 C188 C 0.69013 0.00102 0.56859
 C189 C 0.80358 -0.08341 0.51012
 C190 C 0.69025 -0.01927 0.42441
 C191 C 0.45098 0.21253 1.03153
 H192 H 0.43232 0.21636 1.02133
 C193 C 0.45089 0.19266 1.05281
 H194 H 0.43206 0.18140 1.05882
 C195 C 0.49804 0.22271 1.03632
 H196 H 0.51650 0.23411 1.02951
 C197 C 0.49889 0.20300 1.05764
 H198 H 0.51815 0.19935 1.06687
 N199 N 0.47441 0.22685 1.02347
 C200 C 0.43882 0.28527 0.96814
 H201 H 0.45052 0.28119 0.95007
 C202 C 0.41896 0.30433 0.96667
 H203 H 0.41517 0.31449 0.94723
 C204 C 0.43031 0.27748 1.01555
 H205 H 0.43556 0.26765 1.03468
 C206 C 0.41037 0.29665 1.01504
 H207 H 0.40037 0.30135 1.03391
 Zn208 Zn 0.47523 0.25141 0.99246
 N209 N 0.44439 0.27262 0.99236
 C210 C 0.45157 0.21387 0.95929
 N211 N 0.47401 0.23091 0.96069
 C212 C 0.49353 0.23248 0.94052
 C213 C 0.49225 0.21449 0.91951
 C214 C 0.44905 0.19617 0.93828
 C215 C 0.50214 0.29892 1.00699
 C216 C 0.52309 0.31859 1.00947
 C217 C 0.55305 0.29075 0.98505
 C218 C 0.53171 0.27092 0.98424
 N219 N 0.50642 0.27591 0.99387
 H220 H 0.43558 0.21387 0.97466
 H221 H 0.51027 0.24736 0.94058
 H222 H 0.50892 0.21507 0.90473
 H223 H 0.43086 0.18294 0.93782
 H224 H 0.48239 0.30198 1.01596
 H225 H 0.51880 0.33604 1.02092
 H226 H 0.57239 0.28670 0.97571
 H227 H 0.53555 0.25159 0.97602
 C228 C 0.40500 0.31087 0.99045
 C229 C 0.47519 0.18735 1.06588
 C230 C 0.54889 0.31536 0.99750
 C231 C 0.47009 0.19542 0.91856
 C232 C 0.49674 0.79173 -0.02709
 H233 H 0.48113 0.78568 -0.01180
 C234 C 0.49242 0.81267 -0.04632
 H235 H 0.47312 0.82219 -0.04597
 C236 C 0.54092 0.78672 -0.04563
 H237 H 0.56012 0.77715 -0.04469
 C238 C 0.53757 0.80790 -0.06511
 H239 H 0.55430 0.81431 -0.07905
 N240 N 0.52057 0.77910 -0.02715
 C241 C 0.49462 0.70869 0.02595
 H242 H 0.51003 0.71041 0.04108
 C243 C 0.47413 0.68810 0.02904
 H244 H 0.47374 0.67426 0.04686
 C245 C 0.47654 0.72495 -0.01552
 H246 H 0.47796 0.73893 -0.03319
 C247 C 0.45575 0.70448 -0.01335
 H248 H 0.44135 0.70298 -0.02948
 Zn249 Zn 0.52468 0.75317 0.00193
 N250 N 0.49531 0.72678 0.00413
 C251 C 0.50265 0.77189 0.05045
 N252 N 0.52520 0.77289 0.03383
 C253 C 0.54653 0.79087 0.03739
 C254 C 0.54535 0.80933 0.05792
 C255 C 0.50058 0.79003 0.07108
 C256 C 0.56005 0.72250 -0.02693
 C257 C 0.58013 0.70402 -0.03041
 C258 C 0.59208 0.70855 0.01640
 C259 C 0.57212 0.72752 0.01880
 N260 N 0.55633 0.73374 -0.00262
 H261 H 0.48555 0.75811 0.04679
 H262 H 0.56393 0.79168 0.02346
 H263 H 0.56197 0.82432 0.05972
 H264 H 0.48211 0.78952 0.08354
 H265 H 0.54669 0.72718 -0.04340
 H266 H 0.58262 0.69545 -0.05002
 H267 H 0.60329 0.70272 0.03417
 H268 H 0.56816 0.73599 0.03821
 C269 C 0.45438 0.68567 0.00916
 C270 C 0.51315 0.82139 -0.06541
 C271 C 0.59588 0.69599 -0.00831
 C272 C 0.52180 0.80953 0.07454
 C273 C 1.02591 0.49925 0.20823
 H274 H 1.01184 0.48172 0.21151
 C275 C 1.04563 0.49987 0.18742
 H276 H 1.04687 0.48249 0.17498
 C277 C 1.04107 0.54323 0.22049
 H278 H 1.03868 0.56038 0.23292
 C279 C 1.06115 0.54473 0.19978
 H280 H 1.07417 0.56306 0.19656
 N281 N 1.02399 0.52067 0.22428
 C282 C 0.97533 0.47756 0.28952
 H283 H 0.95666 0.48810 0.28835
 C284 C 0.97747 0.45597 0.30877
 H285 H 0.96036 0.44985 0.32235
 C286 C 1.02100 0.47380 0.27449
 H287 H 1.03816 0.48135 0.26166
 C288 C 1.02419 0.45254 0.29379
 H289 H 1.04370 0.44355 0.29543
 Zn290 Zn 0.99465 0.51779 0.24991
 N291 N 0.99689 0.48595 0.27280
 C292 C 0.94716 0.49362 0.22709
 N293 N 0.96291 0.51686 0.22925
 C294 C 0.95871 0.53973 0.21363
 C295 C 0.93830 0.53974 0.19460
 C296 C 0.92655 0.49269 0.20815
 C297 C 1.01909 0.55215 0.28601
 C298 C 1.02075 0.57188 0.30520
 C299 C 0.97394 0.58126 0.29719
 C300 C 0.97333 0.56161 0.27772
 N301 N 0.99568 0.54740 0.27271
 H302 H 0.95146 0.47538 0.23897
 H303 H 0.97191 0.55775 0.21537
 H304 H 0.93554 0.55811 0.18217
 H305 H 0.91505 0.47368 0.20585
 H306 H 1.03641 0.54020 0.28199
 H307 H 1.03973 0.57536 0.31533
 H308 H 0.95558 0.59147 0.30174
 H309 H 0.95466 0.55693 0.26751
 C310 C 1.00231 0.44359 0.31134
 C311 C 1.06338 0.52295 0.18274
 C312 C 0.99778 0.58631 0.31157
 C313 C 0.92232 0.51581 0.19117
 C314 C -0.02502 0.44803 0.79655
 H315 H -0.00827 0.43483 0.79747
 C316 C -0.04599 0.44451 0.81622
 H317 H -0.04504 0.42846 0.83196
 C318 C -0.04699 0.48412 0.77439
 H319 H -0.04782 0.49910 0.75775
 C320 C -0.06820 0.48162 0.79389
 H321 H -0.08438 0.49559 0.79239
 N322 N -0.02524 0.46834 0.77678
 C323 C 0.03653 0.43481 0.72847
 H324 H 0.05398 0.44402 0.73794
 C325 C 0.04026 0.41522 0.70944
 H326 H 0.06057 0.40901 0.70495
 C327 C -0.01088 0.43303 0.72130
 H328 H -0.03060 0.44085 0.72536
 C329 C -0.00809 0.41337 0.70221
 H330 H -0.02582 0.40617 0.69165
 Zn331 Zn 0.00659 0.47462 0.75392
 N332 N 0.01130 0.44362 0.73363
 C333 C 0.04643 0.46017 0.79150
 N334 N 0.03708 0.48109 0.77591
 C335 C 0.04876 0.50667 0.77642
 C336 C 0.07006 0.51217 0.79377
 C337 C 0.06773 0.46473 0.80907
 C338 C -0.00612 0.52896 0.73553
 C339 C -0.00870 0.55005 0.71574
 C340 C 0.01252 0.52267 0.68296
 C341 C 0.01363 0.50182 0.70299
 N342 N 0.00388 0.50495 0.72861
 H343 H 0.03738 0.43985 0.79034
 H344 H 0.04129 0.52302 0.76375
 H345 H 0.07888 0.53272 0.79413
 H346 H 0.07432 0.44793 0.82185
 H347 H -0.01246 0.53167 0.75634
 H348 H -0.01808 0.56830 0.72155
 H349 H 0.02134 0.51957 0.66312
 H350 H 0.02271 0.48319 0.69802
 C351 C 0.01785 0.40474 0.69554
 C352 C -0.06750 0.46213 0.81570
 C353 C 0.00036 0.54698 0.68879
 C354 C 0.07955 0.49110 0.81066
 C355 C 0.09766 0.14356 0.50383
 C356 C 0.09942 0.16757 0.48665
 C357 C 0.07699 0.18403 0.48455
 C358 C 0.05276 0.17693 0.49951
 C359 C 0.05165 0.15380 0.51743
 C360 C 0.07369 0.13735 0.51961
 C361 C 0.12136 0.12571 0.50439
 C362 C 0.12066 0.10045 0.51918
 C363 C 0.14290 0.08419 0.51861
 C364 C 0.16669 0.09260 0.50352
 C365 C 0.16761 0.11779 0.48863
 C366 C 0.14507 0.13420 0.48873
 C367 C 0.12346 0.17485 0.47159
 C368 C 0.14589 0.15869 0.47284
 H369 H 0.12497 0.19333 0.45860
 H370 H 0.16398 0.16523 0.46078
 H371 H 0.07815 0.20196 0.47077
 H372 H 0.03357 0.14835 0.52991
 H373 H 0.14111 0.06454 0.52960
 H374 H 0.18581 0.12462 0.47687
 H375 H 0.07145 0.11991 0.53377
 H376 H 0.10295 0.09251 0.53088
 C377 C 0.66179 0.60140 -0.01117
 C378 C 0.65262 0.58040 -0.02777
 C379 C 0.66551 0.55570 -0.02737
 C380 C 0.68691 0.55088 -0.00982
 C381 C 0.69635 0.57187 0.00624
 C382 C 0.68408 0.59684 0.00552
 C383 C 0.64652 0.62699 -0.01129
 C384 C 0.65408 0.64938 0.00404
 C385 C 0.63817 0.67205 0.00441
 C386 C 0.61423 0.67301 -0.01037
 C387 C 0.60709 0.65108 -0.02632
 C388 C 0.62306 0.62842 -0.02711
 C389 C 0.63000 0.58371 -0.04394
 C390 C 0.61535 0.60706 -0.04337
 H391 H 0.62302 0.56765 -0.05667
 H392 H 0.59755 0.60831 -0.05573
 H393 H 0.65836 0.53990 -0.04032
 H394 H 0.71265 0.56866 0.02016
 H395 H 0.64461 0.68884 0.01644
 H396 H 0.58848 0.65109 -0.03753
 H397 H 0.69183 0.61196 0.01877
 H398 H 0.67211 0.64975 0.01597
 C399 C 0.89306 -0.15462 0.52272
 C400 C 0.89590 -0.17448 0.50325
 C401 C 0.91921 -0.18971 0.50265
 C402 C 0.94020 -0.18491 0.52073
 C403 C 0.93706 -0.16575 0.54041
 C404 C 0.91379 -0.15089 0.54155
 C405 C 0.86877 -0.13753 0.52154
 C406 C 0.86428 -0.11701 0.53973
 C407 C 0.84258 -0.10019 0.53647
 C408 C 0.82465 -0.10340 0.51512
 C409 C 0.82821 -0.12457 0.49760
 C410 C 0.85006 -0.14157 0.50063
 C411 C 0.87599 -0.17829 0.48385
 C412 C 0.85365 -0.16210 0.48248
 H413 H 0.87808 -0.19357 0.46903
 H414 H 0.83919 -0.16540 0.46665
 H415 H 0.92166 -0.20435 0.48722
 H416 H 0.95294 -0.16195 0.55473
 H417 H 0.84048 -0.08391 0.55016
 H418 H 0.81420 -0.12749 0.48129
 H419 H 0.91281 -0.13616 0.55689
 H420 H 0.87757 -0.11318 0.55628
 C421 C 0.33990 0.40581 0.99266
 C422 C 0.35056 0.42939 0.97754
 C423 C 0.33806 0.45410 0.97944
 C424 C 0.31508 0.45601 0.99644
 C425 C 0.30375 0.43249 1.01052
 C426 C 0.31598 0.40764 1.00869
 C427 C 0.35511 0.38027 0.99147
 C428 C 0.34715 0.35598 1.00670
 C429 C 0.36296 0.33326 1.00597
 C430 C 0.38698 0.33411 0.98995
 C431 C 0.39469 0.35801 0.97430
 C432 C 0.37913 0.38094 0.97500
 C433 C 0.37404 0.42842 0.96111
 C434 C 0.38799 0.40470 0.95982
 H435 H 0.38204 0.44644 0.94939
 H436 H 0.40631 0.40513 0.94712
 H437 H 0.34657 0.47214 0.96807
 H438 H 0.28595 0.43354 1.02371
 H439 H 0.35643 0.31499 1.01807
 H440 H 0.41350 0.35917 0.96229
 H441 H 0.30671 0.39032 1.02037
 H442 H 0.32905 0.35421 1.01957
 C443 C 0.90462 0.14433 0.50065
 C444 C 0.90849 0.16482 0.47943
 C445 C 0.93212 0.18228 0.47824
 C446 C 0.95216 0.17909 0.49766
 C447 C 0.94766 0.15959 0.51923
 C448 C 0.92421 0.14255 0.52087
 C449 C 0.88047 0.12461 0.50002
 C450 C 0.87584 0.10270 0.51940
 C451 C 0.85446 0.08355 0.51679
 C452 C 0.83688 0.08574 0.49501
 C453 C 0.84040 0.10815 0.47623
 C454 C 0.86229 0.12740 0.47839
 C455 C 0.88925 0.16708 0.45911
 C456 C 0.86663 0.14883 0.45864
 H457 H 0.89203 0.18287 0.44297
 H458 H 0.85266 0.15113 0.44216
 H459 H 0.93556 0.19740 0.46154
 H460 H 0.96274 0.15715 0.53465
 H461 H 0.85179 0.06666 0.53177
 H462 H 0.82685 0.10991 0.45933
 H463 H 0.92225 0.12777 0.53780
 H464 H 0.88876 0.09954 0.53644
 C465 C 0.37195 0.59650 0.01615
 C466 C 0.34625 0.60167 0.00554
 C467 C 0.32627 0.58035 0.00430
 C468 C 0.33147 0.55348 0.01328
 C469 C 0.35661 0.54914 0.02539
 C470 C 0.37642 0.57017 0.02682
 C471 C 0.39342 0.61924 0.01527
 C472 C 0.42021 0.61552 0.02340
 C473 C 0.43973 0.63708 0.02145
 C474 C 0.43316 0.66303 0.01149
 C475 C 0.40648 0.66698 0.00335
 C476 C 0.38672 0.64528 0.00491
 C477 C 0.34083 0.62798 -0.00429
 C478 C 0.36053 0.64937 -0.00433
 H479 H 0.32108 0.63209 -0.01222
 H480 H 0.35535 0.66930 -0.01227
 H481 H 0.30740 0.58469 -0.00537
 H482 H 0.36110 0.52947 0.03444
 H483 H 0.46026 0.63322 0.02728
 H484 H 0.40107 0.68695 -0.00426
 H485 H 0.39510 0.56526 0.03635
 H486 H 0.42675 0.59604 0.03084
 C487 C 0.08926 -0.14335 0.50672
 C488 C 0.06429 -0.13315 0.49861
 C489 C 0.04050 -0.15008 0.50016
 C490 C 0.04061 -0.17752 0.50990
 C491 C 0.06579 -0.18768 0.51723
 C492 C 0.08964 -0.17091 0.51577
 C493 C 0.11410 -0.12424 0.50528
 C494 C 0.13989 -0.13198 0.51356
 C495 C 0.16225 -0.11320 0.51203
 C496 C 0.15951 -0.08630 0.50213
 C497 C 0.13392 -0.07845 0.49391
 C498 C 0.11136 -0.09704 0.49542
 C499 C 0.06307 -0.10604 0.48892
 C500 C 0.08608 -0.08840 0.48732
 H501 H 0.04394 -0.09825 0.48257
 H502 H 0.08401 -0.06758 0.47976
 H503 H 0.02204 -0.14177 0.49270
 H504 H 0.06718 -0.20834 0.52539
 H505 H 0.18182 -0.11983 0.51836
 H506 H 0.13139 -0.05757 0.48677
 H507 H 0.10809 -0.17988 0.52210
 H508 H 0.14324 -0.15235 0.52133
 C509 C 0.63293 0.40344 0.99837
 C510 C 0.62436 0.42902 1.00573
 C511 C 0.64325 0.45116 1.00677
 C512 C 0.67051 0.44921 0.99819
 C513 C 0.67868 0.42396 0.98978
 C514 C 0.66030 0.40131 0.99023
 C515 C 0.61213 0.38012 0.99847
 C516 C 0.61889 0.35302 0.99549
 C517 C 0.59860 0.33205 0.99566
 C518 C 0.57089 0.33756 0.99798
 C519 C 0.56427 0.36471 1.00101
 C520 C 0.58451 0.38557 1.00243
 C521 C 0.59679 0.43271 1.01103
 C522 C 0.57720 0.41170 1.00847
 H523 H 0.59014 0.45242 1.01632
 H524 H 0.55604 0.41580 1.01197
 H525 H 0.63635 0.47002 1.01402
 H526 H 0.69919 0.42165 0.98223
 H527 H 0.60489 0.31149 0.99428
 H528 H 0.54328 0.37002 1.00226
 H529 H 0.66763 0.38254 0.98329
 H530 H 0.63976 0.34758 0.99371
 C531 C 0.48479 0.09505 1.14291
 C532 C 0.47070 0.07044 1.13688
 C533 C 0.47424 0.04650 1.15276
 C534 C 0.49201 0.04640 1.17454
 C535 C 0.50539 0.07092 1.18099
 C536 C 0.50185 0.09496 1.16544
 C537 C 0.48149 0.11985 1.12450
 C538 C 0.49510 0.14519 1.12821
 C539 C 0.49251 0.16722 1.10959
 C540 C 0.47623 0.16465 1.08685
 C541 C 0.46196 0.13973 1.08345
 C542 C 0.46450 0.11743 1.10194
 C543 C 0.45360 0.06965 1.11467
 C544 C 0.45060 0.09263 1.09756
 H545 H 0.44270 0.05084 1.11016
 H546 H 0.43747 0.09083 1.08038
 H547 H 0.46338 0.02775 1.14793
 H548 H 0.51931 0.07137 1.19761
 H549 H 0.50341 0.18633 1.11295
 H550 H 0.44960 0.13734 1.06578
 H551 H 0.51304 0.11306 1.17112
 H552 H 0.50808 0.14838 1.14513
 C553 C -0.00873 0.62952 0.60054
 C554 C -0.00563 0.62057 0.57400
 C555 C -0.00527 0.63918 0.55154
 C556 C -0.01037 0.66694 0.55420
 C557 C -0.01486 0.67527 0.58096
 C558 C -0.01369 0.65703 0.60365
 C559 C -0.00707 0.60905 0.62403
 C560 C -0.00569 0.61621 0.65127
 C561 C -0.00325 0.59625 0.67226
 C562 C -0.00282 0.56855 0.66674
 C563 C -0.00480 0.56144 0.63959
 C564 C -0.00572 0.58134 0.61836
 C565 C -0.00330 0.59289 0.56981
 C566 C -0.00427 0.57361 0.59148
 H567 H -0.00133 0.58593 0.54939
 H568 H -0.00291 0.55239 0.58713
 H569 H -0.00016 0.63136 0.53215
 H570 H -0.01995 0.69571 0.58497
 H571 H -0.00114 0.60276 0.69275
 H572 H -0.00530 0.54030 0.63464
 H573 H -0.01741 0.66467 0.62345
 H574 H -0.00561 0.63716 0.65663
 C575 C 0.49871 0.91557 -0.13878
 C576 C 0.51140 0.91623 -0.16488
 C577 C 0.50949 0.93910 -0.18301
 C578 C 0.49488 0.96163 -0.17559
 C579 C 0.48113 0.95976 -0.15001
 C580 C 0.48302 0.93731 -0.13201
 C581 C 0.50225 0.89158 -0.11950
 C582 C 0.49226 0.89029 -0.09242
 C583 C 0.49598 0.86761 -0.07516
 C584 C 0.50966 0.84542 -0.08431
 C585 C 0.52022 0.84671 -0.11116
 C586 C 0.51685 0.86971 -0.12868
 C587 C 0.52596 0.89407 -0.17267
 C588 C 0.52830 0.87117 -0.15510
 H589 H 0.53556 0.89436 -0.19272
 H590 H 0.53961 0.85452 -0.16217
 H591 H 0.52052 0.93958 -0.20232
 H592 H 0.46790 0.97530 -0.14386
 H593 H 0.48844 0.86770 -0.05433
 H594 H 0.53094 0.82978 -0.11850
 H595 H 0.47169 0.93734 -0.11300
 H596 H 0.48187 0.90672 -0.08392
 C597 C 1.01366 0.36668 0.40300
 C598 C 0.99622 0.34291 0.40475
 C599 C 0.99714 0.32421 0.42727
 C600 C 1.01410 0.32957 0.44919
 C601 C 1.03098 0.35361 0.44731
 C602 C 1.03095 0.37169 0.42461
 C603 C 1.01213 0.38612 0.37872
 C604 C 1.03025 0.40906 0.37399
 C605 C 1.02728 0.42721 0.35173
 C606 C 1.00611 0.42312 0.33375
 C607 C 0.98840 0.39996 0.33774
 C608 C 0.99160 0.38118 0.35977
 C609 C 0.97723 0.33849 0.38456
 C610 C 0.97459 0.35748 0.36287
 H611 H 0.96367 0.32041 0.38593
 H612 H 0.95910 0.35345 0.34819
 H613 H 0.98319 0.30643 0.42842
 H614 H 1.04509 0.35828 0.46308
 H615 H 1.04122 0.44493 0.34888
 H616 H 0.97230 0.39650 0.32355
 H617 H 1.04430 0.38972 0.42468
 H618 H 1.04687 0.41335 0.38716
 C619 C 0.50905 0.90075 0.14282
 C620 C 0.53060 0.90762 0.16006
 C621 C 0.52925 0.93047 0.17591
 C622 C 0.50711 0.94714 0.17402
 C623 C 0.48598 0.94043 0.15675
 C624 C 0.48679 0.91752 0.14145
 C625 C 0.51129 0.87642 0.12606
 C626 C 0.49034 0.86721 0.10938
 C627 C 0.49376 0.84519 0.09327
 C628 C 0.51809 0.83168 0.09329
 C629 C 0.53888 0.84019 0.11034
 C630 C 0.53552 0.86223 0.12693
 C631 C 0.55363 0.89212 0.16077
 C632 C 0.55619 0.87014 0.14430
 H633 H 0.57019 0.89739 0.17387
 H634 H 0.57465 0.85915 0.14522
 H635 H 0.54580 0.93582 0.18902
 H636 H 0.46868 0.95305 0.15510
 H637 H 0.47749 0.83915 0.08016
 H638 H 0.55760 0.82961 0.11073
 H639 H 0.47001 0.91367 0.12837
 H640 H 0.47119 0.87674 0.10832
 C641 C 0.02562 0.34333 0.59862
 C642 C 0.00526 0.32247 0.59547
 C643 C 0.00368 0.30930 0.57092
 C644 C 0.02171 0.31707 0.54905
 C645 C 0.04214 0.33738 0.55236
 C646 C 0.04421 0.35027 0.57681
 C647 C 0.02568 0.35791 0.62458
 C648 C 0.04498 0.37900 0.62967
 C649 C 0.04292 0.39338 0.65319
 C650 C 0.02168 0.38712 0.67237
 C651 C 0.00308 0.36532 0.66812
 C652 C 0.00491 0.35073 0.64446
 C653 C -0.01399 0.31555 0.61645
 C654 C -0.01426 0.32948 0.64034
 H655 H -0.02952 0.29953 0.61410
 H656 H -0.03000 0.32378 0.65566
 H657 H -0.01236 0.29382 0.56839
 H658 H 0.05643 0.34351 0.53582
 H659 H 0.05744 0.41023 0.65583
 H660 H -0.01317 0.36004 0.68303
 H661 H 0.06014 0.36597 0.57793
 H662 H 0.06151 0.38512 0.61554
 C663 C 0.47411 0.10752 0.84428
 C664 C 0.46069 0.08246 0.85331
 C665 C 0.46327 0.05938 0.83828
 C666 C 0.48027 0.06019 0.81492
 C667 C 0.49314 0.08514 0.80559
 C668 C 0.49001 0.10857 0.81997
 C669 C 0.47187 0.13133 0.86184
 C670 C 0.48352 0.15750 0.85451
 C671 C 0.48224 0.17850 0.87245
 C672 C 0.46956 0.17394 0.89830
 C673 C 0.45717 0.14810 0.90528
 C674 C 0.45783 0.12710 0.88725
 C675 C 0.44578 0.08013 0.87796
 C676 C 0.44476 0.10184 0.89477
 H677 H 0.43551 0.06091 0.88483
 H678 H 0.43367 0.09874 0.91407
 H679 H 0.45274 0.04037 0.84540
 H680 H 0.50652 0.08634 0.78773
 H681 H 0.49132 0.19833 0.86600
 H682 H 0.44763 0.14384 0.92520
 H683 H 0.50096 0.12702 0.81227
 H684 H 0.49373 0.16214 0.83506
 C685 C 0.99643 0.65447 0.40458
 C686 C 1.01144 0.64556 0.42715
 C687 C 1.01041 0.65921 0.45128
 C688 C 0.99402 0.68138 0.45392
 C689 C 0.97972 0.69081 0.43141
 C690 C 0.98090 0.67755 0.40697
 C691 C 0.99719 0.63830 0.37959
 C692 C 0.98302 0.64510 0.35591
 C693 C 0.98356 0.62859 0.33366
 C694 C 0.99819 0.60487 0.33444
 C695 C 1.01267 0.59828 0.35780
 C696 C 1.01246 0.61474 0.38009
 C697 C 1.02683 0.62259 0.42591
 C698 C 1.02719 0.60741 0.40296
 H699 H 1.03837 0.61588 0.44321
 H700 H 1.03904 0.58949 0.40322
 H701 H 1.02201 0.65214 0.46841
 H702 H 0.96693 0.70789 0.43298
 H703 H 0.97250 0.63445 0.31578
 H704 H 1.02361 0.57977 0.35907
 H705 H 0.96907 0.68530 0.39047
 H706 H 0.97132 0.66296 0.35420
 C707 C 1.14033 0.52590 0.09085
 C708 C 1.13054 0.51524 0.06670
 C709 C 1.14783 0.51435 0.04379
 C710 C 1.17527 0.52410 0.04396
 C711 C 1.18486 0.53458 0.06822
 C712 C 1.16771 0.53554 0.09121
 C713 C 1.12106 0.52610 0.11498
 C714 C 1.12857 0.53622 0.14011
 C715 C 1.10985 0.53544 0.16202
 C716 C 1.08324 0.52453 0.15946
 C717 C 1.07550 0.51484 0.13442
 C718 C 1.09407 0.51544 0.11236
 C719 C 1.10353 0.50517 0.06548
 C720 C 1.08569 0.50529 0.08779
 H721 H 1.09604 0.49698 0.04695
 H722 H 1.06502 0.49718 0.08581
 H723 H 1.13985 0.50467 0.02627
 H724 H 1.20543 0.54308 0.06946
 H725 H 1.11635 0.54295 0.18118
 H726 H 1.05482 0.50691 0.13202
 H727 H 1.17631 0.54401 0.10899
 H728 H 1.14878 0.54464 0.14332
 C729 C 0.60051 0.01295 0.64482
 C730 C 0.59318 -0.00951 0.66316
 C731 C 0.56950 -0.00939 0.67967
 C732 C 0.55235 0.01231 0.67726
 C733 C 0.55959 0.03456 0.65925
 C734 C 0.58350 0.03508 0.64340
 C735 C 0.62511 0.01142 0.62652
 C736 C 0.63461 0.03300 0.60823
 C737 C 0.65631 0.02980 0.59012
 C738 C 0.66905 0.00507 0.58973
 C739 C 0.66061 -0.01612 0.60869
 C740 C 0.63897 -0.01304 0.62721
 C741 C 0.60875 -0.03249 0.66393
 C742 C 0.63092 -0.03438 0.64608
 H743 H 0.60317 -0.04969 0.67795
 H744 H 0.64177 -0.05295 0.64689
 H745 H 0.56355 -0.02684 0.69325
 H746 H 0.54634 0.05134 0.65705
 H747 H 0.66256 0.04645 0.57571
 H748 H 0.67077 -0.03511 0.60883
 H749 H 0.58772 0.05252 0.62953
 H750 H 0.62541 0.05237 0.60733
 C751 C -0.14378 0.46809 0.90716
 C752 C -0.13393 0.46199 0.93332
 C753 C -0.15011 0.46560 0.95658
 C754 C -0.17603 0.47641 0.95470
 C755 C -0.18571 0.48205 0.92838
 C756 C -0.16997 0.47791 0.90512
 C757 C -0.12541 0.46480 0.88288
 C758 C -0.13342 0.46966 0.85588
 C759 C -0.11495 0.46791 0.83410
 C760 C -0.08798 0.46138 0.83858
 C761 C -0.08021 0.45549 0.86539
 C762 C -0.09865 0.45691 0.88738
 C763 C -0.10763 0.45298 0.93626
 C764 C -0.09026 0.45084 0.91382
 H765 H -0.10006 0.44821 0.95631
 H766 H -0.06986 0.44448 0.91726
 H767 H -0.14228 0.45944 0.97612
 H768 H -0.20492 0.49119 0.92530
 H769 H -0.12185 0.47185 0.81367
 H770 H -0.05943 0.45069 0.86937
 H771 H -0.17841 0.48335 0.88574
 H772 H -0.15376 0.47496 0.85113
 C773 C 0.40425 -0.00069 0.35117
 C774 C 0.42039 -0.02335 0.35561
 C775 C 0.44459 -0.02526 0.34038
 C776 C 0.45290 -0.00516 0.32027
 C777 C 0.43646 0.01678 0.31514
 C778 C 0.41248 0.01911 0.33044
 C779 C 0.37919 0.00116 0.36885
 C780 C 0.36280 0.02379 0.36761
 C781 C 0.34024 0.02488 0.38526
 C782 C 0.33325 0.00334 0.40428
 C783 C 0.34921 -0.01939 0.40544
 C784 C 0.37222 -0.02047 0.38825
 C785 C 0.41234 -0.04400 0.37520
 C786 C 0.38862 -0.04274 0.39095
 H787 H 0.42459 -0.06145 0.37841
 H788 H 0.38330 -0.05925 0.40585
 H789 H 0.45697 -0.04256 0.34404
 H790 H 0.44249 0.03247 0.29961
 H791 H 0.32820 0.04265 0.38408
 H792 H 0.34428 -0.03585 0.42053
 H793 H 0.40074 0.03651 0.32575
 H794 H 0.36730 0.04103 0.35354
 C795 C 0.15570 0.50949 0.89656
 C796 C 0.15122 0.53190 0.91262
 C797 C 0.16602 0.53547 0.93619
 C798 C 0.18518 0.51686 0.94434
 C799 C 0.19055 0.49541 0.92779
 C800 C 0.17606 0.49174 0.90416
 C801 C 0.13782 0.50516 0.87282
 C802 C 0.13946 0.48265 0.85649
 C803 C 0.12102 0.47850 0.83588
 C804 C 0.10061 0.49675 0.83087
 C805 C 0.09942 0.51973 0.84638
 C806 C 0.11762 0.52394 0.86734
 C807 C 0.13146 0.55019 0.90556
 C808 C 0.11507 0.54634 0.88336
 H809 H 0.12823 0.56748 0.91772
 H810 H 0.09972 0.56079 0.87906
 H811 H 0.16214 0.55241 0.94865
 H812 H 0.20524 0.48078 0.93371
 H813 H 0.12260 0.46080 0.82394
 H814 H 0.08350 0.53378 0.84294
 H815 H 0.18068 0.47455 0.89255
 H816 H 0.15445 0.46772 0.85958
 C817 C 0.59810 -0.02503 0.35312
 C818 C 0.59965 -0.00775 0.32918
 C819 C 0.57686 -0.00558 0.31279
 C820 C 0.55233 -0.02026 0.32000
 C821 C 0.55127 -0.03826 0.34306
 C822 C 0.57380 -0.04071 0.35937
 C823 C 0.62216 -0.02525 0.37114
 C824 C 0.62200 -0.04043 0.39618
 C825 C 0.64427 -0.03880 0.41298
 C826 C 0.66751 -0.02219 0.40531
 C827 C 0.66813 -0.00746 0.38008
 C828 C 0.64563 -0.00867 0.36314
 C829 C 0.62369 0.00773 0.32212
 C830 C 0.64622 0.00716 0.33864
 H831 H 0.62499 0.02079 0.30369
 H832 H 0.66420 0.01979 0.33242
 H833 H 0.57788 0.00844 0.29504
 H834 H 0.53277 -0.05028 0.34872
 H835 H 0.64288 -0.04999 0.43252
 H836 H 0.68602 0.00524 0.37373
 H837 H 0.57155 -0.05471 0.37693
 H838 H 0.60467 -0.05321 0.40355
 C839 C 0.85076 0.50625 0.09973
 C840 C 0.86062 0.51857 0.07452
 C841 C 0.84579 0.51526 0.05093
 C842 C 0.82120 0.49955 0.05179
 C843 C 0.81101 0.48799 0.07687
 C844 C 0.82554 0.49127 0.10056
 C845 C 0.86796 0.50926 0.12420
 C846 C 0.86055 0.49716 0.15010
 C847 C 0.87792 0.49966 0.17192
 C848 C 0.90302 0.51438 0.16856
 C849 C 0.91032 0.52688 0.14296
 C850 C 0.89314 0.52441 0.12091
 C851 C 0.88547 0.53374 0.07283
 C852 C 0.90137 0.53660 0.09552
 H853 H 0.89293 0.54328 0.05355
 H854 H 0.92061 0.54828 0.09305
 H855 H 0.85355 0.52474 0.03172
 H856 H 0.79209 0.47572 0.07803
 H857 H 0.87167 0.49003 0.19151
 H858 H 0.92989 0.53786 0.13991
 H859 H 0.81688 0.48158 0.11916
 H860 H 0.84161 0.48547 0.15390
 C861 C 0.40695 -0.00077 0.63636
 C862 C 0.40548 0.01456 0.65979
 C863 C 0.42786 0.01670 0.67683
 C864 C 0.45173 0.00349 0.67100
 C865 C 0.45258 -0.01262 0.64840
 C866 C 0.43060 -0.01474 0.63131
 C867 C 0.38327 -0.00142 0.61791
 C868 C 0.38368 -0.01433 0.59311
 C869 C 0.36140 -0.01393 0.57630
 C870 C 0.33791 -0.00086 0.58373
 C871 C 0.33730 0.01210 0.60845
 C872 C 0.35985 0.01220 0.62535
 C873 C 0.38174 0.02771 0.66598
 C874 C 0.35931 0.02628 0.64931
 H875 H 0.38046 0.03926 0.68403
 H876 H 0.34143 0.03678 0.65503
 H877 H 0.42688 0.02914 0.69428
 H878 H 0.47037 -0.02376 0.64389
 H879 H 0.36291 -0.02341 0.55704
 H880 H 0.31930 0.02221 0.61456
 H881 H 0.43261 -0.02748 0.61434
 H882 H 0.40117 -0.02441 0.58596
   
