data_POSCAR
  _audit_creation_date              2014-09-24
  _audit_creation_method            'ToBaCCo'
  _symmetry_space_group_name_H-M    'P1'
  _symmetry_Int_Tables_number       1
  _symmetry_cell_setting            triclinic
  loop_
  _symmetry_equiv_pos_as_xyz
 x,y,z
_cell_length_a 43.5300
_cell_length_b 43.4003
_cell_length_c 43.3975
_cell_angle_alpha 89.975000
_cell_angle_beta 90.014100
_cell_angle_gamma 89.811200
loop_
  _atom_site_label
  _atom_site_type_symbol
  _atom_site_fract_x
  _atom_site_fract_y
  _atom_site_fract_z
C1 C 0.19315 0.15374 0.19167
 C2 C 0.17985 0.14126 0.21833
 C3 C 0.15346 0.15474 0.23112
 C4 C 0.14023 0.18084 0.21738
 C5 C 0.15324 0.19360 0.19072
 C6 C 0.17982 0.18003 0.17777
 C7 C 0.21945 0.14032 0.17857
 C8 C 0.23244 0.15287 0.15182
 C9 C 0.21927 0.17897 0.13802
 C10 C 0.19298 0.19266 0.15083
 C11 C 0.17951 0.21867 0.13709
 C12 C 0.15315 0.23205 0.14996
 C13 C 0.14008 0.21960 0.17668
 H14 H 0.18995 0.12102 0.22904
 H15 H 0.11977 0.19113 0.22736
 H16 H 0.22972 0.12008 0.18911
 H17 H 0.22941 0.18853 0.11729
 H18 H 0.18942 0.22846 0.11637
 H19 H 0.11964 0.23012 0.18643
 C20 C -0.19014 0.84900 0.19519
 C21 C -0.17622 0.86214 0.22119
 C22 C -0.14946 0.84905 0.23364
 C23 C -0.13648 0.82268 0.22021
 C24 C -0.15012 0.80925 0.19421
 C25 C -0.17707 0.82243 0.18160
 C26 C -0.21682 0.86201 0.18245
 C27 C -0.23045 0.84880 0.15635
 C28 C -0.21752 0.82243 0.14286
 C29 C -0.19086 0.80912 0.15532
 C30 C -0.17764 0.78283 0.14190
 C31 C -0.15092 0.76984 0.15443
 C32 C -0.13722 0.78296 0.18050
 H33 H -0.18612 0.88258 0.23167
 H34 H -0.11575 0.81268 0.22993
 H35 H -0.22691 0.88246 0.19274
 H36 H -0.22815 0.81234 0.12263
 H37 H -0.18804 0.77252 0.12168
 H38 H -0.11651 0.77274 0.18999
 C39 C -0.19539 0.14988 -0.19152
 C40 C -0.18173 0.13700 -0.21783
 C41 C -0.15572 0.15067 -0.23093
 C42 C -0.14319 0.17735 -0.21790
 C43 C -0.15655 0.19054 -0.19160
 C44 C -0.18278 0.17677 -0.17830
 C45 C -0.22135 0.13628 -0.17812
 C46 C -0.23472 0.14925 -0.15173
 C47 C -0.22226 0.17594 -0.13860
 C48 C -0.19630 0.18983 -0.15172
 C49 C -0.18353 0.21643 -0.13866
 C50 C -0.15750 0.23000 -0.15186
 C51 C -0.14409 0.21713 -0.17824
 H52 H -0.19121 0.11631 -0.22807
 H53 H -0.12301 0.18772 -0.22820
 H54 H -0.23107 0.11559 -0.18814
 H55 H -0.23269 0.18584 -0.11814
 H56 H -0.19370 0.22655 -0.11819
 H57 H -0.12390 0.22778 -0.18825
 C58 C 0.19382 0.84748 -0.19240
 C59 C 0.18124 0.86152 -0.21868
 C60 C 0.15489 0.84930 -0.23257
 C61 C 0.14096 0.82291 -0.22033
 C62 C 0.15325 0.80859 -0.19407
 C63 C 0.17979 0.82090 -0.18000
 C64 C 0.22007 0.85962 -0.17819
 C65 C 0.23232 0.84553 -0.15184
 C66 C 0.21850 0.81915 -0.13953
 C67 C 0.19223 0.80670 -0.15345
 C68 C 0.17808 0.78041 -0.14122
 C69 C 0.15175 0.76828 -0.15519
 C70 C 0.13939 0.78229 -0.18153
 H71 H 0.19188 0.88199 -0.22824
 H72 H 0.12053 0.81360 -0.23117
 H73 H 0.23093 0.88007 -0.18749
 H74 H 0.22814 0.80845 -0.11909
 H75 H 0.18743 0.76942 -0.12080
 H76 H 0.11895 0.77275 -0.19213
 C77 C 0.15382 1.19222 0.80879
 C78 C 0.14132 1.17884 0.78219
 C79 C 0.15482 1.15244 0.76932
 C80 C 0.18096 1.13928 0.78293
 C81 C 0.19375 1.15238 0.80953
 C82 C 0.18015 1.17896 0.82257
 C83 C 0.14039 1.21853 0.82196
 C84 C 0.15297 1.23161 0.84865
 C85 C 0.17911 1.21851 0.86232
 C86 C 0.19281 1.19220 0.84945
 C87 C 0.21886 1.17881 0.86305
 C88 C 0.23227 1.15244 0.85011
 C89 C 0.21980 1.13929 0.82345
 H90 H 0.12104 1.18888 0.77158
 H91 H 0.19128 1.11882 0.77288
 H92 H 0.12012 1.22876 0.81152
 H93 H 0.18871 1.22872 0.88300
 H94 H 0.22868 1.18878 0.88373
 H95 H 0.23034 1.11884 0.81364
 C96 C 0.84843 0.81014 0.80478
 C97 C 0.86156 0.82408 0.77877
 C98 C 0.84844 0.85084 0.76621
 C99 C 0.82207 0.86380 0.77954
 C100 C 0.80866 0.85014 0.80554
 C101 C 0.82186 0.82319 0.81826
 C102 C 0.86148 0.78347 0.81763
 C103 C 0.84828 0.76982 0.84373
 C104 C 0.82189 0.78271 0.85710
 C105 C 0.80856 0.80937 0.84453
 C106 C 0.78227 0.82256 0.85784
 C107 C 0.76925 0.84929 0.84522
 C108 C 0.78236 0.86302 0.81916
 H109 H 0.88200 0.81419 0.76837
 H110 H 0.81206 0.88454 0.76973
 H111 H 0.88194 0.77341 0.80742
 H112 H 0.81181 0.77206 0.87733
 H113 H 0.77196 0.81214 0.87806
 H114 H 0.77213 0.88375 0.80960
 C115 C 0.15036 0.80501 1.19155
 C116 C 0.13752 0.81873 1.21784
 C117 C 0.15121 0.84476 1.23099
 C118 C 0.17788 0.85725 1.21801
 C119 C 0.19103 0.84383 1.19172
 C120 C 0.17724 0.81759 1.17838
 C121 C 0.13673 0.77904 1.17809
 C122 C 0.14966 0.76562 1.15171
 C123 C 0.17634 0.77804 1.13863
 C124 C 0.19025 0.80400 1.15181
 C125 C 0.21685 0.81674 1.13880
 C126 C 0.23044 0.84278 1.15205
 C127 C 0.21761 0.85625 1.17842
 H128 H 0.11684 0.80928 1.22805
 H129 H 0.18826 0.87745 1.22835
 H130 H 0.11605 0.76935 1.18807
 H131 H 0.18620 0.76757 1.11818
 H132 H 0.22694 0.80652 1.11835
 H133 H 0.22828 0.87645 1.18846
 C134 C 0.84678 1.19350 1.19247
 C135 C 0.86072 1.18089 1.21878
 C136 C 0.84844 1.15452 1.23272
 C137 C 0.82209 1.14062 1.22050
 C138 C 0.80788 1.15294 1.19420
 C139 C 0.82025 1.17949 1.18008
 C140 C 0.85898 1.21976 1.17821
 C141 C 0.84501 1.23204 1.15182
 C142 C 0.81869 1.21822 1.13951
 C143 C 0.80617 1.19195 1.15348
 C144 C 0.77994 1.17780 1.14125
 C145 C 0.76775 1.15146 1.15527
 C146 C 0.78163 1.13909 1.18166
 H147 H 0.88115 1.19151 1.22833
 H148 H 0.81273 1.12017 1.23137
 H149 H 0.87939 1.23061 1.18752
 H150 H 0.80808 1.22788 1.11904
 H151 H 0.76905 1.18716 1.12078
 H152 H 0.77203 1.11865 1.19230
 O153 O 0.45727 0.94059 0.94946
 O154 O 0.42341 0.97017 0.97739
 C155 C 0.42974 0.94884 0.95752
 O156 O 0.54353 0.94353 1.05971
 O157 O 0.57706 0.97158 1.03005
 C158 C 0.57097 0.95176 1.05148
 O159 O 0.45707 0.94040 1.05657
 O160 O 0.42330 0.97002 1.02850
 C161 C 0.42956 0.94860 1.04833
 O162 O 0.54365 0.94372 0.94672
 O163 O 0.57712 0.97165 0.97653
 C164 C 0.57107 0.95193 0.95502
 Zr165 Zr 0.50036 0.95792 0.96428
 O166 O 0.50414 0.90927 0.96491
 O167 O 0.49697 0.95757 0.91562
 Zr168 Zr 0.50025 0.95789 1.04217
 O169 O 0.50403 0.90925 1.04188
 O170 O 0.49668 0.95783 1.09082
 O171 O 0.47293 0.95188 1.00316
 O172 O 0.52705 0.95238 1.00325
 O173 O 0.54305 1.05060 0.94688
 O174 O 0.57683 1.02269 0.97659
 C175 C 0.57056 1.04250 0.95517
 O176 O 0.45658 1.05317 1.05683
 O177 O 0.42312 1.02307 1.02922
 C178 C 0.42916 1.04465 1.04887
 O179 O 0.54294 1.05056 1.05966
 O180 O 0.57677 1.02266 1.03003
 C181 C 0.57046 1.04249 1.05140
 O182 O 0.45665 1.05333 0.94964
 O183 O 0.42310 1.02362 0.97759
 C184 C 0.42921 1.04503 0.95776
 Zr185 Zr 0.49991 1.03599 0.96425
 O186 O 0.50316 1.08465 0.96446
 O187 O 0.49649 1.03595 0.91558
 Zr188 Zr 0.49984 1.03589 1.04223
 O189 O 0.50303 1.08456 1.04214
 O190 O 0.49636 1.03561 1.09089
 Zr191 Zr 0.45445 0.99688 1.00311
 Zr192 Zr 0.54570 0.99705 1.00327
 O193 O 0.52651 1.04161 1.00327
 O194 O 0.47245 1.04193 1.00320
 O195 O 0.52746 0.99703 0.95826
 O196 O 0.47339 0.99682 1.04775
 O197 O 0.47352 0.99692 0.95855
 O198 O 0.52740 0.99695 1.04826
 H199 H 0.54115 0.93441 1.00325
 H200 H 0.45948 0.99671 1.06581
 H201 H 0.54036 1.05968 1.00329
 H202 H 0.45962 0.99693 0.94047
 H203 H 0.51363 0.97058 1.09894
 H204 H 0.51370 1.02322 1.09894
 H205 H 0.48578 1.09259 1.02963
 H206 H 0.48592 1.09266 0.97698
 H207 H 0.51372 1.02341 0.90753
 H208 H 0.51351 0.97088 0.90753
 H209 H 0.48647 0.90121 0.97671
 H210 H 0.48680 0.90117 1.02945
 O211 O 0.05059 0.54295 -0.05970
 O212 O 0.02274 0.57694 -0.03018
 C213 C 0.04255 0.57057 -0.05150
 O214 O -0.05943 0.45696 -0.05653
 O215 O -0.02986 0.42308 -0.02854
 C216 C -0.05125 0.42937 -0.04831
 O217 O -0.05641 0.54359 -0.05960
 O218 O -0.02878 0.57720 -0.02964
 C219 C -0.04843 0.57110 -0.05117
 O220 O 0.05317 0.45628 -0.05661
 O221 O 0.02346 0.42275 -0.02859
 C222 C 0.04486 0.42879 -0.04839
 Zr223 Zr 0.03586 0.49975 -0.04227
 O224 O 0.03542 0.49616 -0.09092
 O225 O 0.08438 0.50291 -0.04241
 Zr226 Zr -0.04185 0.50023 -0.04220
 O227 O -0.04153 0.49664 -0.09085
 O228 O -0.09035 0.50398 -0.04223
 O229 O -0.00292 0.52747 -0.04832
 O230 O -0.00308 0.47321 -0.04778
 O231 O 0.05324 0.45647 0.05032
 O232 O 0.02351 0.42284 0.02247
 C233 C 0.04492 0.42895 0.04224
 O234 O -0.05600 0.54386 0.05318
 O235 O -0.02803 0.57739 0.02341
 C236 C -0.04776 0.57135 0.04488
 O237 O -0.05924 0.45718 0.05048
 O238 O -0.02980 0.42319 0.02254
 C239 C -0.05108 0.42956 0.04240
 O240 O 0.05063 0.54312 0.05304
 O241 O 0.02289 0.57703 0.02328
 C242 C 0.04264 0.57072 0.04469
 Zr243 Zr 0.03590 0.49986 0.03580
 O244 O 0.03553 0.49643 0.08447
 O245 O 0.08442 0.50302 0.03589
 Zr246 Zr -0.04178 0.50037 0.03581
 O247 O -0.04166 0.49696 0.08447
 O248 O -0.09028 0.50420 0.03567
 Zr249 Zr -0.00278 0.54583 -0.00333
 Zr250 Zr -0.00309 0.45430 -0.00311
 O251 O -0.00301 0.47336 0.04147
 O252 O -0.00284 0.52760 0.04173
 O253 O 0.04182 0.47236 -0.00318
 O254 O -0.04731 0.52705 -0.00323
 O255 O 0.04161 0.52648 -0.00330
 O256 O -0.04791 0.47290 -0.00312
 H257 H -0.00313 0.45915 -0.06575
 H258 H -0.06530 0.54110 -0.00316
 H259 H -0.00302 0.45939 0.05953
 H260 H 0.05966 0.54033 -0.00334
 H261 H -0.09844 0.48705 -0.02934
 H262 H -0.09839 0.48692 0.02328
 H263 H -0.02898 0.51403 0.09249
 H264 H 0.02351 0.51407 0.09248
 H265 H 0.09242 0.48600 0.02301
 H266 H 0.09240 0.48588 -0.02954
 H267 H 0.02328 0.51369 -0.09898
 H268 H -0.02932 0.51404 -0.09892
 O269 O 0.94930 0.05939 0.45668
 O270 O 0.97748 0.02996 0.42289
 C271 C 0.95749 0.05120 0.42912
 O272 O 1.05902 0.05667 0.54342
 O273 O 1.02954 0.02862 0.57713
 C274 C 1.05081 0.04847 0.57097
 O275 O 1.05635 0.05956 0.45678
 O276 O 1.02898 0.02954 0.42300
 C277 C 1.04853 0.05107 0.42921
 O278 O 0.94637 0.05629 0.54337
 O279 O 0.97620 0.02845 0.57713
 C280 C 0.95465 0.04812 0.57093
 Zr281 Zr 0.96399 0.04209 0.50002
 O282 O 0.96423 0.09073 0.50361
 O283 O 0.91548 0.04227 0.49653
 Zr284 Zr 1.04163 0.04227 0.50006
 O285 O 1.04079 0.09093 0.50356
 O286 O 1.09014 0.04262 0.49670
 O287 O 1.00279 0.04820 0.47252
 O288 O 1.00277 0.04773 0.52685
 O289 O 0.94707 -0.05052 0.54328
 O290 O 0.97651 -0.02255 0.57708
 C291 C 0.95526 -0.04239 0.57085
 O292 O 1.05654 -0.05318 0.45659
 O293 O 1.02845 -0.02356 0.42283
 C294 C 1.04830 -0.04497 0.42904
 O295 O 1.05953 -0.05035 0.54331
 O296 O 1.02982 -0.02245 0.57708
 C297 C 1.05124 -0.04225 0.57087
 O298 O 0.94975 -0.05319 0.45667
 O299 O 0.97707 -0.02307 0.42294
 C300 C 0.95755 -0.04464 0.42912
 Zr301 Zr 0.96445 -0.03600 0.49998
 O302 O 0.96533 -0.08466 0.50342
 O303 O 0.91594 -0.03641 0.49659
 Zr304 Zr 1.04211 -0.03579 0.49997
 O305 O 1.04233 -0.08444 0.50345
 O306 O 1.09063 -0.03549 0.49646
 Zr307 Zr 1.00303 0.00319 0.45422
 Zr308 Zr 1.00303 0.00307 0.54576
 O309 O 1.00331 -0.04152 0.52675
 O310 O 1.00329 -0.04186 0.47247
 O311 O 0.95818 0.00299 0.52740
 O312 O 1.04748 0.00326 0.47332
 O313 O 0.95858 0.00308 0.47333
 O314 O 1.04789 0.00322 0.52744
 H315 H 1.00265 0.06571 0.54092
 H316 H 1.06552 0.00321 0.45940
 H317 H 1.00340 -0.05957 0.54074
 H318 H 0.94051 0.00312 0.45945
 H319 H 1.09825 0.02945 0.51346
 H320 H 1.09862 -0.02315 0.51385
 H321 H 1.02970 -0.09253 0.48635
 H322 H 0.97716 -0.09262 0.48565
 H323 H 0.90780 -0.02338 0.51342
 H324 H 0.90747 0.02910 0.51328
 H325 H 0.97629 0.09880 0.48607
 H326 H 1.02893 0.09893 0.48582
 C327 C 1.11451 0.11713 0.30659
 C328 C 1.08708 0.13559 0.31912
 C329 C 1.07377 0.12261 0.34439
 C330 C 1.08919 0.09244 0.35465
 C331 C 1.12316 0.10061 0.35933
 C332 C 1.13647 0.11359 0.33405
 C333 C 1.10196 0.08464 0.30078
 C334 C 1.08866 0.07166 0.32603
 C335 C 1.12879 0.13100 0.27931
 C336 C 1.14043 0.14222 0.25675
 C337 C 1.07482 0.07827 0.38171
 C338 C 1.06289 0.06615 0.40363
 H339 H 1.07885 0.15698 0.30904
 H340 H 1.05413 0.13286 0.35596
 H341 H 1.13566 0.09655 0.38061
 H342 H 1.16037 0.12065 0.33368
 H343 H 1.10339 0.07286 0.27876
 H344 H 1.07870 0.04876 0.32564
 C345 C 0.89076 -0.11194 0.30766
 C346 C 0.88626 -0.07688 0.30911
 C347 C 0.89985 -0.06352 0.33401
 C348 C 0.91660 -0.08653 0.35504
 C349 C 0.93927 -0.10350 0.33386
 C350 C 0.92568 -0.11686 0.30895
 C351 C 0.87873 -0.12401 0.33864
 C352 C 0.89232 -0.11065 0.36355
 C353 C 0.87612 -0.12624 0.28083
 C354 C 0.86408 -0.13788 0.25870
 C355 C 0.93120 -0.07202 0.38178
 C356 C 0.94321 -0.05975 0.40356
 H357 H 0.87353 -0.06369 0.29206
 H358 H 0.89876 -0.03889 0.33829
 H359 H 0.96383 -0.10489 0.33806
 H360 H 0.93859 -0.12970 0.29180
 H361 H 0.86111 -0.14152 0.34081
 H362 H 0.88634 -0.11671 0.38707
 C363 C 0.88510 0.11185 0.69295
 C364 C 0.87242 0.12375 0.66213
 C365 C 0.88624 0.11087 0.63704
 C366 C 0.91137 0.08737 0.64525
 C367 C 0.89555 0.06381 0.66628
 C368 C 0.88173 0.07669 0.69136
 C369 C 0.91982 0.11770 0.69141
 C370 C 0.93363 0.10483 0.66634
 C371 C 0.87033 0.12572 0.71999
 C372 C 0.85838 0.13711 0.74231
 C373 C 0.92638 0.07351 0.61835
 C374 C 0.93907 0.06201 0.59650
 H375 H 0.85419 0.14078 0.66018
 H376 H 0.87985 0.11686 0.61360
 H377 H 0.89522 0.03919 0.66187
 H378 H 0.86957 0.06310 0.70843
 H379 H 0.93246 0.13079 0.70852
 H380 H 0.95810 0.10689 0.66198
 C381 C 1.11759 -0.10961 0.69282
 C382 C 1.08276 -0.11449 0.69052
 C383 C 1.06975 -0.10074 0.66548
 C384 C 1.09284 -0.08344 0.64516
 C385 C 1.11750 -0.10742 0.63693
 C386 C 1.13052 -0.12118 0.66200
 C387 C 1.12189 -0.07452 0.69203
 C388 C 1.10888 -0.06075 0.66696
 C389 C 1.13145 -0.12447 0.71983
 C390 C 1.14257 -0.13676 0.74213
 C391 C 1.07863 -0.06868 0.61827
 C392 C 1.06644 -0.05661 0.59644
 H393 H 1.06947 -0.12759 0.70713
 H394 H 1.04532 -0.10205 0.66064
 H395 H 1.12417 -0.11307 0.61350
 H396 H 1.14834 -0.13863 0.66004
 H397 H 1.13409 -0.06162 0.70960
 H398 H 1.10992 -0.03606 0.66306
 C399 C 0.30712 1.11301 1.11361
 C400 C 0.30848 1.07801 1.11849
 C401 C 0.33355 1.06439 1.10546
 C402 C 0.35481 1.08712 1.08881
 C403 C 0.36286 1.11152 1.11308
 C404 C 0.33777 1.12513 1.12612
 C405 C 0.30902 1.11748 1.07857
 C406 C 0.33410 1.10387 1.06553
 C407 C 0.28008 1.12761 1.12761
 C408 C 0.25776 1.13950 1.13903
 C409 C 0.38171 1.07235 1.07474
 C410 C 0.40356 1.05990 1.06304
 H411 H 0.29127 1.06504 1.13107
 H412 H 0.33781 1.03977 1.10687
 H413 H 0.38619 1.11757 1.11946
 H414 H 0.33962 1.14285 1.14367
 H415 H 0.29216 1.13022 1.06518
 H416 H 0.33872 1.10494 1.04097
 C417 C 0.30823 0.88312 0.88991
 C418 C 0.33896 0.87055 0.87784
 C419 C 0.36397 0.88341 0.89161
 C420 C 0.35578 0.90759 0.91610
 C421 C 0.33437 0.89092 0.93868
 C422 C 0.30936 0.87805 0.92491
 C423 C 0.31020 0.91816 0.88563
 C424 C 0.33519 0.93103 0.89939
 C425 C 0.28128 0.86942 0.87505
 C426 C 0.25902 0.85841 0.86280
 C427 C 0.38259 0.92165 0.93089
 C428 C 0.40433 0.93374 0.94304
 H429 H 0.34090 0.85306 0.86005
 H430 H 0.38733 0.87696 0.88563
 H431 H 0.33848 0.88936 0.96332
 H432 H 0.29206 0.86546 0.93774
 H433 H 0.29343 0.93170 0.87292
 H434 H 0.33982 0.95558 0.89847
 C435 C 0.69392 0.88730 1.11856
 C436 C 0.69225 0.92242 1.12246
 C437 C 0.66691 0.93543 1.10929
 C438 C 0.64571 0.91203 1.09353
 C439 C 0.63815 0.88824 1.11857
 C440 C 0.66351 0.87523 1.13173
 C441 C 0.69169 0.88184 1.08369
 C442 C 0.66635 0.89484 1.07053
 C443 C 0.72127 0.87329 1.13258
 C444 C 0.74388 0.86179 1.14385
 C445 C 0.61855 0.92604 1.07916
 C446 C 0.59658 0.93768 1.06683
 H447 H 0.70946 0.93589 1.13450
 H448 H 0.66241 0.96004 1.11005
 H449 H 0.61495 0.88216 1.12536
 H450 H 0.66203 0.85800 1.14981
 H451 H 0.70853 0.86891 1.07049
 H452 H 0.66151 0.89304 1.04606
 C453 C 0.69147 1.10911 0.88736
 C454 C 0.69056 1.07400 0.88314
 C455 C 0.66574 1.06044 0.89657
 C456 C 0.64427 1.08333 0.91290
 C457 C 0.63576 1.10722 0.88821
 C458 C 0.66059 1.12078 0.87478
 C459 C 0.68969 1.11420 0.92231
 C460 C 0.66488 1.10064 0.93574
 C461 C 0.71821 1.12371 0.87299
 C462 C 0.74028 1.13572 0.86133
 C463 C 0.61764 1.06877 0.92750
 C464 C 0.59597 1.05680 0.93990
 H465 H 0.70788 1.06094 0.87070
 H466 H 0.66180 1.03577 0.89564
 H467 H 0.61232 1.11297 0.88183
 H468 H 0.65841 1.13814 0.85689
 H469 H 0.70645 1.12728 0.93537
 H470 H 0.66039 1.10212 0.96030
 C471 C 0.11307 0.30747 0.10882
 C472 C 0.11757 0.30867 0.07375
 C473 C 0.10402 0.33357 0.06017
 C474 C 0.08732 0.35481 0.08300
 C475 C 0.11162 0.36335 0.10714
 C476 C 0.12516 0.33845 0.12072
 C477 C 0.07816 0.30896 0.11362
 C478 C 0.06462 0.33384 0.10004
 C479 C 0.12755 0.28064 0.12347
 C480 C 0.13930 0.25853 0.13555
 C481 C 0.07261 0.38155 0.06843
 C482 C 0.06018 0.40334 0.05648
 H483 H 0.13027 0.29149 0.06074
 H484 H 0.10511 0.33771 0.03552
 H485 H 0.11767 0.38687 0.11304
 H486 H 0.14282 0.34064 0.13825
 H487 H 0.06521 0.29196 0.12653
 H488 H 0.04007 0.33815 0.10132
 C489 C -0.11876 0.30682 -0.11260
 C490 C -0.13125 0.33746 -0.12518
 C491 C -0.11798 0.36274 -0.11220
 C492 C -0.09352 0.35486 -0.08793
 C493 C -0.07062 0.33365 -0.10454
 C494 C -0.08388 0.30840 -0.11751
 C495 C -0.12320 0.30877 -0.07756
 C496 C -0.10993 0.33403 -0.06459
 C497 C -0.13290 0.27956 -0.12658
 C498 C -0.14425 0.25703 -0.13810
 C499 C -0.07904 0.38193 -0.07395
 C500 C -0.06664 0.40383 -0.06235
 H501 H -0.14897 0.33917 -0.14272
 H502 H -0.12432 0.38609 -0.11862
 H503 H -0.04612 0.33806 -0.10598
 H504 H -0.07075 0.29119 -0.13006
 H505 H -0.13566 0.29181 -0.06413
 H506 H -0.11102 0.33871 -0.04003
 C507 C 0.11010 0.69226 -0.11742
 C508 C 0.11481 0.68989 -0.08245
 C509 C 0.10105 0.66487 -0.06955
 C510 C 0.08392 0.64465 -0.09288
 C511 C 0.10795 0.63638 -0.11743
 C512 C 0.12172 0.66142 -0.13033
 C513 C 0.07514 0.69159 -0.12202
 C514 C 0.06137 0.66655 -0.10912
 C515 C 0.12495 0.71925 -0.13117
 C516 C 0.13717 0.74155 -0.14223
 C517 C 0.06913 0.61781 -0.07878
 C518 C 0.05699 0.59603 -0.06665
 H519 H 0.12781 0.70642 -0.06899
 H520 H 0.10226 0.65998 -0.04504
 H521 H 0.11363 0.61294 -0.12409
 H522 H 0.13920 0.65943 -0.14806
 H523 H 0.06233 0.70922 -0.13434
 H524 H 0.03676 0.66274 -0.11037
 C525 C -0.11191 0.69367 0.11374
 C526 C -0.11746 0.69213 0.07885
 C527 C -0.10448 0.66702 0.06516
 C528 C -0.08722 0.64590 0.08771
 C529 C -0.11084 0.63776 0.11266
 C530 C -0.12383 0.66289 0.12634
 C531 C -0.07687 0.69200 0.11752
 C532 C -0.06389 0.66689 0.10383
 C533 C -0.12588 0.72074 0.12840
 C534 C -0.13733 0.74307 0.14032
 C535 C -0.07325 0.61894 0.07285
 C536 C -0.06168 0.59703 0.06029
 H537 H -0.13043 0.70926 0.06601
 H538 H -0.10633 0.66265 0.04060
 H539 H -0.11683 0.61434 0.11902
 H540 H -0.14094 0.66099 0.14443
 H541 H -0.06345 0.70905 0.12986
 H542 H -0.03934 0.66242 0.10445
 C543 C 1.11718 0.11359 0.69383
 C544 C 1.13018 0.12561 0.66323
 C545 C 1.11714 0.11245 0.63791
 C546 C 1.09239 0.08856 0.64569
 C547 C 1.06934 0.10570 0.66630
 C548 C 1.08237 0.11886 0.69160
 C549 C 1.12138 0.07848 0.69242
 C550 C 1.10834 0.06532 0.66711
 C551 C 1.13109 0.12776 0.72114
 C552 C 1.14231 0.13938 0.74371
 C553 C 1.07817 0.07438 0.61856
 C554 C 1.06598 0.06263 0.59660
 H555 H 1.14805 0.14293 0.66160
 H556 H 1.12384 0.11847 0.61459
 H557 H 1.04492 0.10736 0.66145
 H558 H 1.06911 0.13179 0.70841
 H559 H 1.13352 0.06514 0.70976
 H560 H 1.10932 0.04070 0.66277
 C561 C 0.88754 -0.10896 0.69220
 C562 C 0.88336 -0.07383 0.69125
 C563 C 0.89679 -0.06027 0.66635
 C564 C 0.91307 -0.08317 0.64486
 C565 C 0.88846 -0.10694 0.63632
 C566 C 0.87503 -0.12050 0.66122
 C567 C 0.92238 -0.11420 0.69047
 C568 C 0.93580 -0.10064 0.66558
 C569 C 0.87317 -0.12358 0.71902
 C570 C 0.86150 -0.13560 0.74114
 C571 C 0.92766 -0.06861 0.61814
 C572 C 0.94003 -0.05665 0.59638
 H573 H 0.87095 -0.06077 0.70860
 H574 H 0.89588 -0.03558 0.66237
 H575 H 0.88213 -0.11261 0.61281
 H576 H 0.85720 -0.13779 0.65903
 H577 H 0.93537 -0.12739 0.70730
 H578 H 0.96030 -0.10222 0.66111
 C579 C 1.11238 -0.11434 0.30708
 C580 C 1.11785 -0.07945 0.30847
 C581 C 1.10493 -0.06565 0.33353
 C582 C 1.08780 -0.08808 0.35474
 C583 C 1.11151 -0.11302 0.36298
 C584 C 1.12444 -0.12683 0.33791
 C585 C 1.07736 -0.11807 0.30876
 C586 C 1.06443 -0.10426 0.33382
 C587 C 1.12628 -0.12911 0.28005
 C588 C 1.13768 -0.14109 0.25774
 C589 C 1.07387 -0.07310 0.38163
 C590 C 1.06230 -0.06046 0.40346
 H591 H 1.13074 -0.06670 0.29129
 H592 H 1.10674 -0.04107 0.33780
 H593 H 1.11760 -0.11929 0.38643
 H594 H 1.14160 -0.14493 0.33988
 H595 H 1.06390 -0.13046 0.29176
 H596 H 1.03990 -0.10482 0.33829
 C597 C 0.88955 0.11720 0.30730
 C598 C 0.89655 0.08274 0.30342
 C599 C 0.91040 0.06979 0.32844
 C600 C 0.91590 0.09256 0.35491
 C601 C 0.88419 0.10645 0.36192
 C602 C 0.87033 0.11941 0.33688
 C603 C 0.92051 0.13194 0.31548
 C604 C 0.93437 0.11898 0.34052
 C605 C 0.87461 0.13102 0.28031
 C606 C 0.86232 0.14215 0.25802
 C607 C 0.93079 0.07842 0.38176
 C608 C 0.94299 0.06630 0.40356
 H609 H 0.89111 0.06965 0.28282
 H610 H 0.91683 0.04561 0.32927
 H611 H 0.87356 0.10614 0.38454
 H612 H 0.84782 0.13019 0.33806
 H613 H 0.93065 0.15088 0.30273
 H614 H 0.95639 0.12681 0.34922
 C615 C 0.11321 0.30642 -0.11299
 C616 C 0.12538 0.33718 -0.12537
 C617 C 0.11180 0.36232 -0.11231
 C618 C 0.08738 0.35422 -0.08814
 C619 C 0.10396 0.33335 -0.06486
 C620 C 0.11754 0.30822 -0.07793
 C621 C 0.07832 0.30786 -0.11799
 C622 C 0.06474 0.33298 -0.10492
 C623 C 0.12776 0.27933 -0.12704
 C624 C 0.13962 0.25697 -0.13851
 C625 C 0.07263 0.38118 -0.07407
 C626 C 0.06017 0.40310 -0.06242
 H627 H 0.14312 0.33906 -0.14286
 H628 H 0.11790 0.38573 -0.11859
 H629 H 0.10495 0.33791 -0.04028
 H630 H 0.13017 0.29125 -0.06454
 H631 H 0.06542 0.29065 -0.13066
 H632 H 0.04020 0.33729 -0.10641
 C633 C -0.11716 0.30796 0.10998
 C634 C -0.12219 0.30910 0.07498
 C635 C -0.10923 0.33411 0.06119
 C636 C -0.09252 0.35552 0.08377
 C637 C -0.06926 0.33476 0.10050
 C638 C -0.08221 0.30977 0.11427
 C639 C -0.12956 0.33884 0.12203
 C640 C -0.11660 0.36385 0.10825
 C641 C -0.13096 0.28100 0.12486
 C642 C -0.14203 0.25873 0.13714
 C643 C -0.07838 0.38233 0.06897
 C644 C -0.06623 0.40410 0.05684
 H645 H -0.13481 0.29179 0.06216
 H646 H -0.11075 0.33822 0.03656
 H647 H -0.04476 0.33929 0.10143
 H648 H -0.06881 0.29290 0.12701
 H649 H -0.14698 0.34088 0.13981
 H650 H -0.12293 0.38732 0.11421
 C651 C -0.11315 0.69419 -0.11822
 C652 C -0.11840 0.69213 -0.08330
 C653 C -0.10538 0.66678 -0.07010
 C654 C -0.08837 0.64596 -0.09308
 C655 C -0.06513 0.66713 -0.10909
 C656 C -0.07816 0.69249 -0.12231
 C657 C -0.12527 0.66364 -0.13117
 C658 C -0.11223 0.63827 -0.11795
 C659 C -0.12718 0.72155 -0.13231
 C660 C -0.13871 0.74416 -0.14366
 C661 C -0.07431 0.61878 -0.07868
 C662 C -0.06261 0.59678 -0.06639
 H663 H -0.13121 0.70909 -0.07011
 H664 H -0.10704 0.66203 -0.04558
 H665 H -0.04060 0.66261 -0.10997
 H666 H -0.06479 0.70970 -0.13450
 H667 H -0.14255 0.66207 -0.14913
 H668 H -0.11835 0.61496 -0.12459
 C669 C 0.10943 0.69177 0.11250
 C670 C 0.11447 0.69003 0.07754
 C671 C 0.10088 0.66521 0.06409
 C672 C 0.08357 0.64455 0.08691
 C673 C 0.06082 0.66613 0.10329
 C674 C 0.07442 0.69096 0.11675
 C675 C 0.12098 0.66074 0.12502
 C676 C 0.10738 0.63591 0.11156
 C677 C 0.12408 0.71853 0.12690
 C678 C 0.13611 0.74060 0.13860
 C679 C 0.06896 0.61790 0.07230
 C680 C 0.05696 0.59619 0.05992
 H681 H 0.12757 0.70682 0.06450
 H682 H 0.10232 0.66074 0.03951
 H683 H 0.03621 0.66225 0.10423
 H684 H 0.06147 0.70835 0.12922
 H685 H 0.13831 0.65847 0.14288
 H686 H 0.11306 0.61236 0.11790
 C687 C 0.30777 1.11269 0.89107
 C688 C 0.33857 1.12509 0.87922
 C689 C 0.36350 1.11170 0.89281
 C690 C 0.35516 1.08721 0.91690
 C691 C 0.33446 1.06430 0.89981
 C692 C 0.30956 1.07770 0.88623
 C693 C 0.30890 1.11715 0.92615
 C694 C 0.33382 1.10375 0.93973
 C695 C 0.28093 1.12702 0.87644
 C696 C 0.25879 1.13867 0.86441
 C697 C 0.38191 1.07265 0.93149
 C698 C 0.40367 1.06029 0.94347
 H699 H 0.34063 1.14285 0.86171
 H700 H 0.38690 1.11797 0.88694
 H701 H 0.33896 1.03971 0.89849
 H702 H 0.29273 1.06459 0.87328
 H703 H 0.29165 1.12972 0.93916
 H704 H 0.33791 1.10484 0.96439
 C705 C 0.30720 0.88135 1.11281
 C706 C 0.30888 0.87726 1.07771
 C707 C 0.33411 0.89046 1.06471
 C708 C 0.35519 0.90646 1.08808
 C709 C 0.36296 0.88159 1.11204
 C710 C 0.33771 0.86838 1.12504
 C711 C 0.30915 0.91626 1.11807
 C712 C 0.33437 0.92945 1.10508
 C713 C 0.27997 0.86728 1.12681
 C714 C 0.25746 0.85599 1.13832
 C715 C 0.38222 0.92087 1.07406
 C716 C 0.40408 0.93323 1.06241
 H717 H 0.29176 0.86506 1.06426
 H718 H 0.33860 0.88958 1.04011
 H719 H 0.38622 0.87493 1.11822
 H720 H 0.33935 0.85041 1.14238
 H721 H 0.29221 0.92946 1.13088
 H722 H 0.33902 0.95396 1.10675
 C723 C 0.69190 1.10986 1.11744
 C724 C 0.68949 1.11479 1.08249
 C725 C 0.66452 1.10107 1.06956
 C726 C 0.64439 1.08375 1.09284
 C727 C 0.63619 1.10771 1.11753
 C728 C 0.66118 1.12145 1.13047
 C729 C 0.69124 1.07477 1.12185
 C730 C 0.66625 1.06104 1.10891
 C731 C 0.71884 1.12467 1.13122
 C732 C 0.74108 1.13688 1.14230
 C733 C 0.61760 1.06902 1.07871
 C734 C 0.59587 1.05692 1.06656
 H735 H 0.70596 1.12789 1.06908
 H736 H 0.65961 1.10242 1.04507
 H737 H 0.61283 1.11338 1.12428
 H738 H 0.65923 1.13888 1.14831
 H739 H 0.70883 1.06185 1.13406
 H740 H 0.66244 1.03635 1.11003
 C741 C 0.69311 0.88810 0.88584
 C742 C 0.69152 0.88227 0.92069
 C743 C 0.66645 0.89516 0.93443
 C744 C 0.64541 0.91262 0.91198
 C745 C 0.63737 0.88911 0.88684
 C746 C 0.66246 0.87621 0.87310
 C747 C 0.69143 0.92327 0.88232
 C748 C 0.66635 0.93616 0.89606
 C749 C 0.72016 0.87423 0.87115
 C750 C 0.74248 0.86284 0.85925
 C751 C 0.61851 0.92650 0.92690
 C752 C 0.59665 0.93802 0.93952
 H753 H 0.70859 0.86918 0.93346
 H754 H 0.66205 0.89311 0.95897
 H755 H 0.61404 0.88313 0.88040
 H756 H 0.66062 0.85918 0.85488
 H757 H 0.70843 0.93684 0.87010
 H758 H 0.66186 0.96079 0.89562
   
