data_POSCAR
  _audit_creation_date              2014-09-24
  _audit_creation_method            'ToBaCCo'
  _symmetry_space_group_name_H-M    'P1'
  _symmetry_Int_Tables_number       1
  _symmetry_cell_setting            triclinic
  loop_
  _symmetry_equiv_pos_as_xyz
 x,y,z
_cell_length_a 59.6259
_cell_length_b 59.6253
_cell_length_c 21.0808
_cell_angle_alpha 90.000000
_cell_angle_beta 90.000000
_cell_angle_gamma 120.000000
loop_
  _atom_site_label
  _atom_site_type_symbol
  _atom_site_fract_x
  _atom_site_fract_y
  _atom_site_fract_z
C1 C 0.32360 0.50245 0.46719
 C2 C 0.32338 0.50203 0.53270
 C3 C 0.30021 0.49975 0.55299
 N4 N 0.28605 0.49833 0.49970
 C5 C 0.30029 0.49980 0.44652
 C6 C 0.29288 0.49820 0.61996
 C7 C 0.26820 0.49714 0.63920
 C8 C 0.25942 0.49443 0.70134
 C9 C 0.23598 0.49456 0.70155
 C10 C 0.22977 0.49729 0.63952
 N11 N 0.24987 0.49904 0.60209
 C12 C 0.20598 0.49813 0.62060
 C13 C 0.19983 0.49920 0.55361
 C14 C 0.17714 0.49803 0.53324
 C15 C 0.17712 0.49808 0.46767
 C16 C 0.19982 0.49928 0.44713
 N17 N 0.21366 0.49988 0.50032
 C18 C 0.20601 0.49844 0.38008
 C19 C 0.22996 0.49797 0.36085
 C20 C 0.23644 0.49605 0.29857
 C21 C 0.26000 0.49620 0.29835
 C22 C 0.26868 0.49833 0.36050
 N23 N 0.24997 0.49938 0.39809
 C24 C 0.29331 0.49911 0.37940
 H25 H 0.33967 0.50485 0.43855
 H26 H 0.33895 0.50344 0.56179
 H27 H 0.25103 0.50142 0.44695
 H28 H 0.26903 0.49268 0.74301
 H29 H 0.22479 0.49290 0.74347
 H30 H 0.16154 0.49656 0.56236
 H31 H 0.16153 0.49667 0.43865
 H32 H 0.26951 0.49460 0.25632
 H33 H 0.25128 0.50191 0.55347
 H34 H 0.22529 0.49465 0.25676
 C35 C 0.51994 -0.31028 0.52992
 C36 C 0.52006 -0.31037 0.46441
 C37 C 0.50927 -0.29577 0.44334
 N38 N 0.50340 -0.28594 0.49625
 C39 C 0.50959 -0.29519 0.54966
 C40 C 0.50561 -0.29162 0.37625
 C41 C 0.50198 -0.26913 0.35942
 C42 C 0.49193 -0.26630 0.30226
 C43 C 0.49218 -0.24277 0.30271
 C44 C 0.50185 -0.23069 0.36060
 N45 N 0.50738 -0.24728 0.39529
 C46 C 0.50552 -0.20477 0.37817
 C47 C 0.50923 -0.19663 0.44473
 C48 C 0.51937 -0.17118 0.46413
 C49 C 0.51966 -0.17080 0.52965
 C50 C 0.50933 -0.19609 0.55111
 N51 N 0.50344 -0.21190 0.49839
 C52 C 0.50628 -0.20363 0.61840
 C53 C 0.50309 -0.22958 0.63565
 C54 C 0.49412 -0.24193 0.69387
 C55 C 0.49427 -0.26529 0.69331
 C56 C 0.50287 -0.26825 0.63442
 N57 N 0.50784 -0.24637 0.59927
 C58 C 0.50616 -0.29072 0.61633
 H59 H 0.52785 -0.31945 0.55955
 H60 H 0.52855 -0.31927 0.43594
 H61 H 0.51557 -0.24243 0.55366
 H62 H 0.48423 -0.28019 0.26395
 H63 H 0.48516 -0.23574 0.26465
 H64 H 0.52699 -0.15418 0.43429
 H65 H 0.52797 -0.15334 0.55788
 H66 H 0.48794 -0.27899 0.73210
 H67 H 0.51595 -0.24307 0.44000
 H68 H 0.48721 -0.23533 0.73306
 C69 C 1.17965 0.67840 0.53502
 C70 C 1.17941 0.67811 0.46946
 C71 C 1.20148 0.70009 0.44835
 N72 N 1.21525 0.71388 0.50114
 C73 C 1.20193 0.70053 0.55485
 C74 C 1.20688 0.70723 0.38116
 C75 C 1.23012 0.73200 0.36115
 C76 C 1.23435 0.74161 0.29970
 C77 C 1.25761 0.76520 0.29823
 C78 C 1.26863 0.77050 0.35855
 N79 N 1.25131 0.74992 0.39662
 C80 C 1.29374 0.79423 0.37593
 C81 C 1.30110 0.79998 0.44313
 C82 C 1.32591 0.81773 0.46356
 C83 C 1.32585 0.81803 0.52885
 C84 C 1.30116 0.80014 0.54958
 N85 N 1.28602 0.78877 0.49653
 C86 C 1.29422 0.79557 0.61730
 C87 C 1.27020 0.77170 0.63850
 C88 C 1.26131 0.76629 0.70063
 C89 C 1.23795 0.74257 0.70165
 C90 C 1.23184 0.73295 0.64006
 N91 N 1.25199 0.75100 0.60222
 C92 C 1.20808 0.70810 0.62174
 H93 H 1.16444 0.66396 0.56444
 H94 H 1.16405 0.66343 0.44076
 H95 H 1.25347 0.74918 0.55368
 H96 H 1.22171 0.73275 0.25942
 H97 H 1.26507 0.77740 0.25674
 H98 H 1.34302 0.82872 0.43494
 H99 H 1.34268 0.82968 0.55808
 H100 H 1.22665 0.73348 0.74373
 H101 H 1.25430 0.74768 0.44416
 H102 H 1.27066 0.77831 0.74160
 C103 C 0.82627 0.50705 0.46825
 C104 C 0.82662 0.50728 0.53370
 C105 C 0.80326 0.50435 0.55530
 N106 N 0.78887 0.50291 0.50233
 C107 C 0.80290 0.50440 0.44859
 C108 C 0.79721 0.50539 0.62276
 C109 C 0.77310 0.50593 0.64165
 C110 C 0.76611 0.50715 0.70400
 C111 C 0.74290 0.50745 0.70414
 C112 C 0.73409 0.50526 0.64211
 N113 N 0.75303 0.50456 0.60440
 C114 C 0.70924 0.50437 0.62364
 C115 C 0.70236 0.50386 0.55629
 C116 C 0.67780 0.49755 0.53529
 C117 C 0.67794 0.49775 0.46989
 C118 C 0.70246 0.50387 0.44973
 N119 N 0.71739 0.50738 0.50311
 C120 C 0.70955 0.50502 0.38264
 C121 C 0.73425 0.50609 0.36345
 C122 C 0.74298 0.50861 0.30126
 C123 C 0.76630 0.50835 0.30100
 C124 C 0.77263 0.50589 0.36305
 N125 N 0.75272 0.50448 0.40066
 C126 C 0.79646 0.50516 0.38168
 H127 H 0.84225 0.50979 0.43867
 H128 H 0.84325 0.51071 0.56146
 H129 H 0.75145 0.50191 0.44940
 H130 H 0.77639 0.50750 0.74650
 H131 H 0.73383 0.50942 0.74651
 H132 H 0.66067 0.49181 0.56360
 H133 H 0.66112 0.49256 0.44075
 H134 H 0.77740 0.50987 0.25900
 H135 H 0.75205 0.50278 0.55548
 H136 H 0.73363 0.51068 0.25950
 C137 C 0.49184 0.17355 0.46694
 C138 C 0.49154 0.17327 0.53236
 C139 C 0.49685 0.19751 0.55376
 N140 N 0.49960 0.21235 0.50064
 C141 C 0.49672 0.19772 0.44703
 C142 C 0.49723 0.20425 0.62132
 C143 C 0.49791 0.22906 0.63986
 C144 C 0.50017 0.23792 0.70187
 C145 C 0.49962 0.26101 0.70186
 C146 C 0.49832 0.26803 0.63958
 N147 N 0.49702 0.24797 0.60228
 C148 C 0.49767 0.29215 0.62080
 C149 C 0.49698 0.29837 0.55329
 C150 C 0.49927 0.32148 0.53169
 C151 C 0.49883 0.32105 0.46627
 C152 C 0.49711 0.29809 0.44659
 N153 N 0.49602 0.28422 0.50028
 C154 C 0.49624 0.29097 0.37962
 C155 C 0.49595 0.26666 0.36063
 C156 C 0.49480 0.25859 0.29830
 C157 C 0.49528 0.23534 0.29829
 C158 C 0.49659 0.22848 0.36069
 N159 N 0.49718 0.24803 0.39815
 C160 C 0.49679 0.20439 0.37991
 H161 H 0.48750 0.15701 0.43752
 H162 H 0.48635 0.15618 0.56024
 H163 H 0.49848 0.24869 0.44718
 H164 H 0.50241 0.22903 0.74421
 H165 H 0.49987 0.27117 0.74448
 H166 H 0.50208 0.33791 0.55932
 H167 H 0.50022 0.33651 0.43675
 H168 H 0.49475 0.22469 0.25625
 H169 H 0.49503 0.24692 0.55338
 H170 H 0.49389 0.26857 0.25638
 C171 C 0.82923 0.31308 0.53498
 C172 C 0.82890 0.31366 0.46966
 C173 C 0.80412 0.29593 0.44949
 N174 N 0.78902 0.28510 0.50295
 C175 C 0.80431 0.29609 0.55605
 C176 C 0.79621 0.29122 0.38264
 C177 C 0.77089 0.26828 0.36399
 C178 C 0.76100 0.26328 0.30267
 C179 C 0.73753 0.23982 0.30247
 C180 C 0.73255 0.22961 0.36349
 N181 N 0.75321 0.24738 0.40064
 C182 C 0.70972 0.20411 0.38178
 C183 C 0.70496 0.19644 0.44867
 C184 C 0.68950 0.17109 0.46853
 C185 C 0.68979 0.17088 0.53403
 C186 C 0.70490 0.19622 0.55510
 N187 N 0.71473 0.21185 0.50208
 C188 C 0.70930 0.20402 0.62227
 C189 C 0.73188 0.23007 0.63953
 C190 C 0.73404 0.24303 0.69608
 C191 C 0.75751 0.26634 0.69649
 C192 C 0.77055 0.26861 0.64007
 N193 N 0.75421 0.24642 0.60493
 C194 C 0.79650 0.29139 0.62320
 H195 H 0.84659 0.32357 0.56302
 H196 H 0.84568 0.32567 0.44107
 H197 H 0.75876 0.24192 0.56077
 H198 H 0.76985 0.27519 0.26130
 H199 H 0.72544 0.23135 0.26116
 H200 H 0.67987 0.15403 0.43894
 H201 H 0.68079 0.15347 0.56243
 H202 H 0.76367 0.28062 0.73391
 H203 H 0.75571 0.24477 0.44833
 H204 H 0.71962 0.23693 0.73314
 O205 O 1.03701 0.47843 -0.11821
 O206 O 1.06700 0.51361 -0.06118
 C207 C 1.06136 0.49577 -0.10547
 O208 O 0.96396 0.52363 -0.11726
 O209 O 0.93405 0.48865 -0.05956
 C210 C 0.93962 0.50652 -0.10366
 O211 O 1.03825 0.55937 -0.11823
 O212 O 1.06759 0.55333 -0.06072
 C213 C 1.06244 0.56591 -0.10512
 O214 O 0.96248 0.44137 -0.11787
 O215 O 0.93345 0.44730 -0.05864
 C216 C 0.93832 0.43462 -0.10315
 Zr217 Zr 0.99995 0.47194 -0.07999
 O218 O 0.99809 0.47037 -0.18025
 O219 O 1.00134 0.43722 -0.07325
 Zr220 Zr 1.00095 0.52924 -0.08035
 O221 O 0.99903 0.52829 -0.18065
 O222 O 1.00357 0.56594 -0.07512
 O223 O 1.02409 0.51210 -0.09179
 O224 O 0.97756 0.48943 -0.09100
 O225 O 0.96191 0.44133 0.11829
 O226 O 0.93353 0.44797 0.05850
 C227 C 0.93788 0.43527 0.10383
 O228 O 1.03787 0.55922 0.11811
 O229 O 1.06742 0.55309 0.06193
 C230 C 1.06207 0.56567 0.10589
 O231 O 0.96385 0.52385 0.11572
 O232 O 0.93390 0.48855 0.05906
 C233 C 0.93951 0.50662 0.10275
 O234 O 1.03672 0.47838 0.11879
 O235 O 1.06685 0.51352 0.06182
 C236 C 1.06111 0.49570 0.10620
 Zr237 Zr 0.99967 0.47185 0.08012
 O238 O 0.99769 0.47021 0.18036
 O239 O 1.00094 0.43708 0.07315
 Zr240 Zr 1.00078 0.52930 0.07940
 O241 O 0.99864 0.52878 0.17965
 O242 O 1.00351 0.56604 0.07301
 Zr243 Zr 1.04100 0.52043 0.00017
 Zr244 Zr 0.95987 0.48089 -0.00038
 O245 O 0.97742 0.48953 0.09040
 O246 O 1.02379 0.51206 0.09181
 O247 O 0.97587 0.45607 -0.00013
 O248 O 1.02423 0.54441 -0.00029
 O249 O 1.02308 0.47950 0.00027
 O250 O 0.97704 0.52185 -0.00063
 H251 H 0.96629 0.48391 -0.12897
 H252 H 1.03628 0.56336 -0.00021
 H253 H 0.96619 0.48417 0.12844
 H254 H 1.03478 0.47219 0.00036
 H255 H 0.98722 0.56337 -0.05648
 H256 H 0.98708 0.56342 0.05473
 H257 H 1.01232 0.52554 0.19589
 H258 H 1.01134 0.48717 0.19644
 H259 H 0.98394 0.42351 0.05693
 H260 H 0.98455 0.42373 -0.05579
 H261 H 1.01186 0.48729 -0.19627
 H262 H 1.01336 0.52595 -0.19640
 O263 O 0.52300 0.55791 -0.12253
 O264 O 0.48818 0.55324 -0.06492
 C265 C 0.50578 0.56513 -0.10964
 O266 O 0.47962 0.44048 -0.11971
 O267 O 0.51322 0.44584 -0.05613
 C268 C 0.49682 0.43366 -0.10301
 O269 O 0.44270 0.47839 -0.12173
 O270 O 0.44837 0.51391 -0.06555
 C271 C 0.43597 0.49597 -0.10950
 O272 O 0.56047 0.52047 -0.11745
 O273 O 0.55382 0.48601 -0.05533
 C274 C 0.56669 0.50284 -0.10107
 Zr275 Zr 0.53027 0.52822 -0.08022
 O276 O 0.53430 0.53111 -0.17994
 O277 O 0.56490 0.56407 -0.06799
 Zr278 Zr 0.47276 0.47142 -0.08250
 O279 O 0.47391 0.47040 -0.18275
 O280 O 0.43635 0.43699 -0.07747
 O281 O 0.49018 0.51178 -0.09480
 O282 O 0.51269 0.48819 -0.09056
 O283 O 0.55909 0.52091 0.12001
 O284 O 0.55281 0.48587 0.06093
 C285 C 0.56546 0.50313 0.10576
 O286 O 0.44213 0.48081 0.11772
 O287 O 0.44875 0.51521 0.05543
 C288 C 0.43621 0.49875 0.10199
 O289 O 0.47682 0.44051 0.11568
 O290 O 0.51290 0.44613 0.06222
 C291 C 0.49430 0.43348 0.10453
 O292 O 0.52098 0.55788 0.11960
 O293 O 0.48830 0.55405 0.05451
 C294 C 0.50450 0.56548 0.10235
 Zr295 Zr 0.52864 0.52804 0.08051
 O296 O 0.52905 0.52750 0.18084
 O297 O 0.56327 0.56427 0.07566
 Zr298 Zr 0.47095 0.47167 0.07775
 O299 O 0.46693 0.46849 0.17754
 O300 O 0.43430 0.43795 0.06583
 Zr301 Zr 0.48113 0.52055 -0.00394
 Zr302 Zr 0.52018 0.47922 0.00136
 O303 O 0.51074 0.48812 0.09120
 O304 O 0.48836 0.51195 0.08910
 O305 O 0.54519 0.52002 0.00163
 O306 O 0.45683 0.47983 -0.00398
 O307 O 0.52198 0.54378 -0.00115
 O308 O 0.47926 0.45518 -0.00082
 H309 H 0.51846 0.48231 -0.12777
 H310 H 0.43793 0.47320 -0.00447
 H311 H 0.51612 0.48237 0.12938
 H312 H 0.52915 0.56277 -0.00141
 H313 H 0.43928 0.42328 -0.05979
 H314 H 0.43732 0.42358 0.05435
 H315 H 0.48446 0.47848 0.19592
 H316 H 0.51137 0.52254 0.19524
 H317 H 0.57690 0.56111 0.05857
 H318 H 0.57868 0.56023 -0.05607
 H319 H 0.52121 0.51419 -0.19739
 H320 H 0.47710 0.48740 -0.19844
 O321 O 0.47866 0.03563 0.11927
 O322 O 0.51391 0.06589 0.06285
 C323 C 0.49601 0.06007 0.10706
 O324 O 0.52241 -0.03816 0.11499
 O325 O 0.48815 -0.06715 0.05374
 C326 C 0.50538 -0.06226 0.09928
 O327 O 0.55894 0.03621 0.11910
 O328 O 0.55393 0.06606 0.06111
 C329 C 0.56597 0.06056 0.10601
 O330 O 0.44147 -0.03920 0.11646
 O331 O 0.44718 -0.06737 0.05328
 C332 C 0.43476 -0.06319 0.09971
 Zr333 Zr 0.47177 -0.00124 0.07855
 O334 O 0.46930 -0.00138 0.17865
 O335 O 0.43704 -0.00004 0.06869
 Zr336 Zr 0.52885 -0.00081 0.07835
 O337 O 0.52804 -0.00309 0.17857
 O338 O 0.56523 0.00116 0.07196
 O339 O 0.51196 0.02243 0.09157
 O340 O 0.48896 -0.02403 0.08759
 O341 O 0.44248 -0.03622 -0.12031
 O342 O 0.44706 -0.06684 -0.06489
 C343 C 0.43505 -0.06075 -0.10895
 O344 O 0.55908 0.03806 -0.12125
 O345 O 0.55430 0.06679 -0.05782
 C346 C 0.56620 0.06211 -0.10472
 O347 O 0.52309 -0.03665 -0.12197
 O348 O 0.48828 -0.06647 -0.06368
 C349 C 0.50594 -0.06103 -0.10822
 O350 O 0.48044 0.03783 -0.12090
 O351 O 0.51417 0.06684 -0.05863
 C352 C 0.49738 0.06195 -0.10519
 Zr353 Zr 0.47268 0.00056 -0.08124
 O354 O 0.47029 0.00168 -0.18122
 O355 O 0.43830 0.00243 -0.07100
 Zr356 Zr 0.52940 0.00047 -0.08236
 O357 O 0.52932 -0.00040 -0.18269
 O358 O 0.56588 0.00266 -0.07596
 Zr359 Zr 0.52088 0.04026 0.00064
 Zr360 Zr 0.48058 -0.04080 -0.00415
 O361 O 0.48962 -0.02235 -0.09384
 O362 O 0.51283 0.02417 -0.09215
 O363 O 0.45614 -0.02430 -0.00292
 O364 O 0.54445 0.02300 -0.00083
 O365 O 0.48007 0.02299 0.00003
 O366 O 0.52152 -0.02395 -0.00324
 H367 H 0.48333 -0.03571 0.12475
 H368 H 0.56344 0.03487 -0.00041
 H369 H 0.48416 -0.03349 -0.13200
 H370 H 0.47306 0.03494 0.00046
 H371 H 0.56226 -0.01532 0.05319
 H372 H 0.56285 -0.01420 -0.05965
 H373 H 0.52408 0.01206 -0.19746
 H374 H 0.47982 -0.00644 -0.19916
 H375 H 0.42423 -0.01502 -0.05884
 H376 H 0.42321 -0.01755 0.05611
 H377 H 0.47931 -0.00922 0.19527
 H378 H 0.52384 0.00999 0.19457
 C379 C 1.15313 0.50640 0.27278
 C380 C 1.14112 0.48291 0.24231
 C381 C 1.14980 0.46510 0.25184
 C382 C 1.17106 0.47116 0.29375
 C383 C 1.18444 0.49486 0.32843
 C384 C 1.17469 0.51279 0.31657
 O385 O 1.14188 0.52068 0.25663
 C386 C 1.12235 0.50592 0.21541
 C387 C 1.12102 0.48249 0.20571
 C388 C 1.10166 0.46378 0.16632
 C389 C 1.08318 0.46893 0.13598
 C390 C 1.08335 0.49289 0.14197
 C391 C 1.10394 0.51181 0.18342
 H392 H 1.14025 0.44662 0.22764
 H393 H 1.17675 0.45669 0.30049
 H394 H 1.18345 0.53112 0.34139
 H395 H 1.10052 0.44526 0.15938
 H396 H 1.06846 0.45385 0.10663
 H397 H 1.10530 0.53036 0.19163
 C398 C 0.50170 0.64736 0.28374
 C399 C 0.50986 0.65772 0.22449
 C400 C 0.51679 0.68362 0.21283
 C401 C 0.51541 0.69942 0.26240
 C402 C 0.50635 0.69028 0.32554
 C403 C 0.49935 0.66294 0.33448
 O404 O 0.49677 0.62242 0.28555
 C405 C 0.50182 0.61692 0.22627
 C406 C 0.50963 0.63792 0.18695
 C407 C 0.51516 0.63626 0.12277
 C408 C 0.51281 0.61277 0.09789
 C409 C 0.50559 0.59024 0.13551
 C410 C 0.50003 0.59292 0.20207
 H411 H 0.52384 0.69192 0.16641
 H412 H 0.52282 0.71959 0.25108
 H413 H 0.49149 0.65349 0.37935
 H414 H 0.52105 0.65275 0.09181
 H415 H 0.51714 0.61234 0.04822
 H416 H 0.49419 0.57673 0.23399
 C417 C 0.34809 -0.14431 0.27967
 C418 C 0.35083 -0.15636 0.22734
 C419 C 0.33545 -0.18340 0.22066
 C420 C 0.31688 -0.19868 0.26844
 C421 C 0.31264 -0.18805 0.32521
 C422 C 0.32924 -0.15961 0.32916
 O423 O 0.36471 -0.11822 0.27673
 C424 C 0.37827 -0.11373 0.22158
 C425 C 0.37044 -0.13661 0.18989
 C426 C 0.38209 -0.13666 0.13202
 C427 C 0.40221 -0.11297 0.10554
 C428 C 0.41165 -0.08812 0.13454
 C429 C 0.39878 -0.08910 0.19484
 H430 H 0.33788 -0.19281 0.17947
 H431 H 0.30661 -0.21946 0.26187
 H432 H 0.32731 -0.14942 0.36931
 H433 H 0.37590 -0.15475 0.10738
 H434 H 0.41051 -0.11422 0.06094
 H435 H 0.40471 -0.07132 0.22062
 C436 C 0.84880 0.49683 0.27294
 C437 C 0.86023 0.51994 0.24076
 C438 C 0.85144 0.53768 0.24993
 C439 C 0.83063 0.53192 0.29314
 C440 C 0.81779 0.50857 0.32937
 C441 C 0.82769 0.49075 0.31796
 O442 O 0.86011 0.48258 0.25701
 C443 C 0.87907 0.49696 0.21414
 C444 C 0.87999 0.52013 0.20314
 C445 C 0.89872 0.53843 0.16180
 C446 C 0.91702 0.53316 0.13090
 C447 C 0.91727 0.50947 0.13830
 C448 C 0.89732 0.49095 0.18173
 H449 H 0.86056 0.55587 0.22447
 H450 H 0.82486 0.54635 0.29951
 H451 H 0.81936 0.47270 0.34397
 H452 H 0.89953 0.55675 0.15383
 H453 H 0.93131 0.54797 0.10017
 H454 H 0.89634 0.47265 0.19112
 C455 C 0.50488 0.35151 0.26942
 C456 C 0.48051 0.34079 0.24374
 C457 C 0.46193 0.31483 0.25693
 C458 C 0.46811 0.29939 0.29774
 C459 C 0.49269 0.30898 0.32786
 C460 C 0.51142 0.33612 0.31220
 O461 O 0.51978 0.37661 0.25016
 C462 C 0.50453 0.38187 0.21186
 C463 C 0.48019 0.36053 0.20713
 C464 C 0.46089 0.36187 0.17173
 C465 C 0.46637 0.38540 0.14031
 C466 C 0.49120 0.40840 0.14102
 C467 C 0.51074 0.40603 0.17843
 H468 H 0.44277 0.30648 0.23642
 H469 H 0.45307 0.27970 0.30743
 H470 H 0.53047 0.34515 0.33350
 H471 H 0.44167 0.34510 0.16879
 H472 H 0.45079 0.38555 0.11425
 H473 H 0.53002 0.42261 0.18260
 C474 C 0.64732 0.14784 0.28368
 C475 C 0.65947 0.14447 0.23230
 C476 C 0.68661 0.15942 0.22653
 C477 C 0.70183 0.17823 0.27401
 C478 C 0.69096 0.18337 0.32887
 C479 C 0.66256 0.16713 0.33251
 O480 O 0.62123 0.13132 0.28057
 C481 C 0.61679 0.11728 0.22623
 C482 C 0.63969 0.12470 0.19499
 C483 C 0.63962 0.11263 0.13750
 C484 C 0.61580 0.09256 0.11105
 C485 C 0.59109 0.08351 0.14009
 C486 C 0.59216 0.09667 0.19990
 H487 H 0.69612 0.15650 0.18628
 H488 H 0.72264 0.18858 0.26818
 H489 H 0.65251 0.16938 0.37255
 H490 H 0.65769 0.11852 0.11306
 H491 H 0.61671 0.08378 0.06689
 H492 H 0.57436 0.09105 0.22535
 C493 C 0.50387 0.14963 -0.28188
 C494 C 0.48765 0.14565 -0.23171
 C495 C 0.47483 0.16000 -0.22714
 C496 C 0.47847 0.17883 -0.27461
 C497 C 0.49524 0.18474 -0.32848
 C498 C 0.50811 0.16905 -0.33046
 O499 O 0.51393 0.13355 -0.27794
 C500 C 0.50391 0.11916 -0.22429
 C501 C 0.48772 0.12596 -0.19423
 C502 C 0.47525 0.11351 -0.13749
 C503 C 0.47921 0.09363 -0.11064
 C504 C 0.49550 0.08514 -0.13866
 C505 C 0.50808 0.09870 -0.19771
 H506 H 0.46168 0.15646 -0.18808
 H507 H 0.46682 0.18800 -0.27021
 H508 H 0.52155 0.17211 -0.36843
 H509 H 0.46253 0.11894 -0.11396
 H510 H 0.46912 0.08452 -0.06710
 H511 H 0.52068 0.09344 -0.22243
 C512 C 0.65461 0.51051 -0.27919
 C513 C 0.65012 0.49351 -0.23055
 C514 C 0.66426 0.48046 -0.22681
 C515 C 0.68344 0.48467 -0.27366
 C516 C 0.68965 0.50203 -0.32632
 C517 C 0.67414 0.51507 -0.32765
 O518 O 0.63887 0.52092 -0.27401
 C519 C 0.62411 0.51025 -0.22117
 C520 C 0.63032 0.49326 -0.19312
 C521 C 0.61727 0.47974 -0.13809
 C522 C 0.59741 0.48350 -0.11071
 C523 C 0.58962 0.50084 -0.13611
 C524 C 0.60387 0.51451 -0.19355
 H525 H 0.66038 0.46682 -0.18872
 H526 H 0.69266 0.47304 -0.26992
 H527 H 0.67740 0.52879 -0.36506
 H528 H 0.62219 0.46632 -0.11633
 H529 H 0.58796 0.47252 -0.06843
 H530 H 0.59923 0.52792 -0.21646
 C531 C 0.85262 0.35277 -0.28277
 C532 C 0.85165 0.34183 -0.22492
 C533 C 0.83337 0.31558 -0.21428
 C534 C 0.81580 0.29997 -0.26359
 C535 C 0.81505 0.30956 -0.32567
 C536 C 0.83437 0.33734 -0.33314
 O537 O 0.87186 0.37806 -0.28381
 C538 C 0.88327 0.38323 -0.22552
 C539 C 0.87138 0.36164 -0.18750
 C540 C 0.87980 0.36285 -0.12451
 C541 C 0.90082 0.38645 -0.09957
 C542 C 0.91470 0.40965 -0.13595
 C543 C 0.90519 0.40744 -0.20123
 H544 H 0.83289 0.30690 -0.16884
 H545 H 0.80335 0.27964 -0.25319
 H546 H 0.83491 0.34726 -0.37650
 H547 H 0.87028 0.34588 -0.09454
 H548 H 0.90657 0.38649 -0.05084
 H549 H 0.91443 0.42411 -0.23218
 C550 C 0.50227 -0.14652 -0.28904
 C551 C 0.51220 -0.14748 -0.23113
 C552 C 0.52011 -0.16579 -0.22024
 C553 C 0.51795 -0.18354 -0.26920
 C554 C 0.50740 -0.18453 -0.33112
 C555 C 0.49942 -0.16486 -0.33934
 O556 O 0.49628 -0.12722 -0.29011
 C557 C 0.50254 -0.11578 -0.23179
 C558 C 0.51224 -0.12768 -0.19383
 C559 C 0.51961 -0.11921 -0.13097
 C560 C 0.51710 -0.09816 -0.10600
 C561 C 0.50763 -0.08434 -0.14198
 C562 C 0.50023 -0.09387 -0.20728
 H563 H 0.52841 -0.16614 -0.17486
 H564 H 0.52594 -0.19587 -0.25867
 H565 H 0.49053 -0.16409 -0.38333
 H566 H 0.52712 -0.12870 -0.10112
 H567 H 0.52299 -0.09235 -0.05749
 H568 H 0.49267 -0.08469 -0.23803
 C569 C 0.35367 0.50679 -0.27165
 C570 C 0.34297 0.48248 -0.24567
 C571 C 0.31695 0.46392 -0.25813
 C572 C 0.30141 0.47007 -0.29857
 C573 C 0.31097 0.49460 -0.32886
 C574 C 0.33816 0.51332 -0.31389
 O575 O 0.37887 0.52165 -0.25322
 C576 C 0.38422 0.50643 -0.21509
 C577 C 0.36281 0.48216 -0.20966
 C578 C 0.36416 0.46289 -0.17424
 C579 C 0.38779 0.46833 -0.14353
 C580 C 0.41087 0.49309 -0.14511
 C581 C 0.40850 0.51260 -0.18250
 H582 H 0.30865 0.44480 -0.23741
 H583 H 0.28166 0.45505 -0.30782
 H584 H 0.34714 0.53233 -0.33536
 H585 H 0.34733 0.44374 -0.17073
 H586 H 0.38797 0.45279 -0.11737
 H587 H 0.42515 0.53180 -0.18730
 C588 C 1.15526 0.64737 -0.27014
 C589 C 1.14301 0.65878 -0.24050
 C590 C 1.15153 0.68521 -0.25068
 C591 C 1.17288 0.70043 -0.29244
 C592 C 1.18654 0.69020 -0.32627
 C593 C 1.17695 0.66258 -0.31364
 O594 O 1.14407 0.62187 -0.25363
 C595 C 1.12434 0.61705 -0.21298
 C596 C 1.12284 0.63909 -0.20399
 C597 C 1.10328 0.63838 -0.16528
 C598 C 1.08476 0.61475 -0.13496
 C599 C 1.08504 0.59099 -0.14024
 C600 C 1.10585 0.59272 -0.18101
 H601 H 1.14178 0.69408 -0.22719
 H602 H 1.17837 0.72050 -0.29980
 H603 H 1.18590 0.65305 -0.33780
 H604 H 1.10200 0.65571 -0.15891
 H605 H 1.06987 0.61510 -0.10627
 H606 H 1.10731 0.57557 -0.18880
 C607 C 0.85075 0.49836 -0.27770
 C608 C 0.85783 0.51791 -0.23433
 C609 C 0.84567 0.53295 -0.23472
 C610 C 0.82587 0.52811 -0.28034
 C611 C 0.81713 0.50821 -0.32770
 C612 C 0.83062 0.49317 -0.32490
 O613 O 0.86484 0.48629 -0.26922
 C614 C 0.88117 0.49849 -0.21972
 C615 C 0.87765 0.51811 -0.19693
 C616 C 0.89288 0.53361 -0.14624
 C617 C 0.91218 0.52913 -0.11798
 C618 C 0.91703 0.50907 -0.13803
 C619 C 0.90066 0.49342 -0.19090
 H620 H 0.85153 0.54853 -0.20084
 H621 H 0.81814 0.54111 -0.28016
 H622 H 0.82536 0.47751 -0.35819
 H623 H 0.89013 0.54912 -0.12872
 H624 H 0.92359 0.54165 -0.07943
 H625 H 0.90320 0.47794 -0.20962
 C626 C 0.48969 0.34544 -0.28033
 C627 C 0.50865 0.35211 -0.23555
 C628 C 0.52363 0.33988 -0.23491
 C629 C 0.51936 0.32041 -0.28097
 C630 C 0.49995 0.31187 -0.32952
 C631 C 0.48491 0.32542 -0.32765
 O632 O 0.47777 0.35976 -0.27286
 C633 C 0.48945 0.37578 -0.22243
 C634 C 0.50851 0.37172 -0.19813
 C635 C 0.52324 0.38621 -0.14592
 C636 C 0.51860 0.40532 -0.11749
 C637 C 0.49925 0.41109 -0.13910
 C638 C 0.48437 0.39541 -0.19388
 H639 H 0.53883 0.34553 -0.19999
 H640 H 0.53248 0.31283 -0.28011
 H641 H 0.46953 0.32030 -0.36173
 H642 H 0.53826 0.38295 -0.12709
 H643 H 0.53067 0.41592 -0.07754
 H644 H 0.46938 0.39841 -0.21394
 C645 C 0.64814 0.14709 -0.28519
 C646 C 0.65856 0.14910 -0.22609
 C647 C 0.68449 0.16800 -0.21444
 C648 C 0.70029 0.18525 -0.26391
 C649 C 0.69114 0.18525 -0.32700
 C650 C 0.66373 0.16509 -0.33581
 O651 O 0.62316 0.12720 -0.28703
 C652 C 0.61767 0.11649 -0.22793
 C653 C 0.63873 0.12948 -0.18867
 C654 C 0.63709 0.12206 -0.12466
 C655 C 0.61357 0.10092 -0.09993
 C656 C 0.59098 0.08585 -0.13754
 C657 C 0.59364 0.09431 -0.20389
 H658 H 0.69281 0.16915 -0.16809
 H659 H 0.72046 0.19805 -0.25258
 H660 H 0.65420 0.16367 -0.38045
 H661 H 0.65364 0.13249 -0.09375
 H662 H 0.61316 0.09596 -0.05038
 H663 H 0.57740 0.08414 -0.23579
 C664 C 1.15331 0.50627 -0.27180
 C665 C 1.14117 0.48272 -0.24159
 C666 C 1.14968 0.46480 -0.25139
 C667 C 1.17092 0.47079 -0.29332
 C668 C 1.18445 0.49456 -0.32769
 C669 C 1.17486 0.51260 -0.31556
 O670 O 1.14219 0.52064 -0.25547
 C671 C 1.12261 0.50589 -0.21438
 C672 C 1.12112 0.48237 -0.20493
 C673 C 1.10169 0.46367 -0.16571
 C674 C 1.08329 0.46890 -0.13530
 C675 C 1.08361 0.49294 -0.14104
 C676 C 1.10427 0.51186 -0.18231
 H677 H 1.14002 0.44627 -0.22742
 H678 H 1.17647 0.45624 -0.30033
 H679 H 1.18373 0.53098 -0.34018
 H680 H 1.10043 0.44508 -0.15899
 H681 H 1.06850 0.45380 -0.10612
 H682 H 1.10574 0.53047 -0.19035
 C683 C 0.50056 0.64674 -0.28748
 C684 C 0.51414 0.65850 -0.23332
 C685 C 0.52473 0.68537 -0.22498
 C686 C 0.52157 0.70074 -0.27282
 C687 C 0.50761 0.69027 -0.33066
 C688 C 0.49691 0.66210 -0.33665
 O689 O 0.49229 0.62088 -0.28647
 C690 C 0.50077 0.61618 -0.23066
 C691 C 0.51423 0.63869 -0.19640
 C692 C 0.52472 0.63830 -0.13685
 C693 C 0.52150 0.61454 -0.11141
 C694 C 0.50794 0.59025 -0.14358
 C695 C 0.49737 0.59164 -0.20547
 H696 H 0.53562 0.69459 -0.18244
 H697 H 0.53077 0.72139 -0.26480
 H698 H 0.48604 0.65230 -0.37872
 H699 H 0.53530 0.65606 -0.11002
 H700 H 0.52996 0.61518 -0.06555
 H701 H 0.48673 0.57415 -0.23318
 C702 C 0.34709 -0.15699 -0.25574
 C703 C 0.34904 -0.13411 -0.27510
 C704 C 0.33322 -0.13371 -0.32368
 C705 C 0.31510 -0.15710 -0.35466
 C706 C 0.31138 -0.18211 -0.33885
 C707 C 0.32805 -0.18158 -0.28640
 O708 O 0.36490 -0.15235 -0.20909
 C709 C 0.37811 -0.12613 -0.19906
 C710 C 0.36884 -0.11439 -0.23872
 C711 C 0.37941 -0.08749 -0.23777
 C712 C 0.40003 -0.07183 -0.19545
 C713 C 0.41140 -0.08179 -0.15197
 C714 C 0.39957 -0.11023 -0.15479
 H715 H 0.33507 -0.11549 -0.33863
 H716 H 0.30380 -0.15555 -0.39287
 H717 H 0.32719 -0.19940 -0.27204
 H718 H 0.37191 -0.07850 -0.26941
 H719 H 0.40725 -0.05120 -0.19730
 H720 H 0.40685 -0.11966 -0.12401
 C721 C 0.50011 -0.14817 0.27997
 C722 C 0.51278 -0.14736 0.22493
 C723 C 0.52280 -0.16413 0.21680
 C724 C 0.51997 -0.18212 0.26575
 C725 C 0.50683 -0.18463 0.32446
 C726 C 0.49670 -0.16669 0.33018
 O727 O 0.49240 -0.13015 0.27868
 C728 C 0.50028 -0.11778 0.22176
 C729 C 0.51278 -0.12775 0.18703
 C730 C 0.52249 -0.11782 0.12630
 C731 C 0.51946 -0.09727 0.10016
 C732 C 0.50688 -0.08562 0.13278
 C733 C 0.49720 -0.09656 0.19595
 H734 H 0.53302 -0.16322 0.17359
 H735 H 0.52875 -0.19396 0.25780
 H736 H 0.48639 -0.16706 0.37274
 H737 H 0.53237 -0.12570 0.09916
 H738 H 0.52748 -0.09004 0.05369
 H739 H 0.48748 -0.08883 0.22424
 C740 C 0.34730 0.49090 0.27709
 C741 C 0.35474 0.51066 0.23416
 C742 C 0.34287 0.52600 0.23449
 C743 C 0.32308 0.52134 0.27992
 C744 C 0.31407 0.50131 0.32666
 C745 C 0.32694 0.48573 0.32364
 O746 O 0.36133 0.47874 0.26892
 C747 C 0.37795 0.49104 0.21991
 C748 C 0.37456 0.51075 0.19719
 C749 C 0.38978 0.52618 0.14663
 C750 C 0.40891 0.52156 0.11821
 C751 C 0.41394 0.50153 0.13828
 C752 C 0.39753 0.48596 0.19135
 H753 H 0.34895 0.54164 0.20067
 H754 H 0.31506 0.53410 0.27939
 H755 H 0.32147 0.47011 0.35721
 H756 H 0.38706 0.54171 0.12903
 H757 H 0.42006 0.53410 0.07948
 H758 H 0.39992 0.47038 0.21002
 C759 C 1.15458 0.64690 0.27163
 C760 C 1.14091 0.65768 0.24638
 C761 C 1.14811 0.68351 0.26038
 C762 C 1.16966 0.69882 0.30139
 C763 C 1.18482 0.68923 0.33058
 C764 C 1.17649 0.66217 0.31444
 O765 O 1.14446 0.62189 0.25178
 C766 C 1.12400 0.61676 0.21347
 C767 C 1.12099 0.63811 0.20929
 C768 C 1.10050 0.63698 0.17379
 C769 C 1.08255 0.61361 0.14177
 C770 C 1.08432 0.59058 0.14211
 C771 C 1.10610 0.59273 0.17960
 H772 H 1.13722 0.69186 0.24033
 H773 H 1.17423 0.71845 0.31166
 H774 H 1.18664 0.65316 0.33515
 H775 H 1.09808 0.65377 0.17124
 H776 H 1.06689 0.61358 0.11570
 H777 H 1.10871 0.57609 0.18359
 C778 C 0.50506 0.15096 0.27561
 C779 C 0.48290 0.14061 0.23967
 C780 C 0.46589 0.15049 0.24494
 C781 C 0.47136 0.17127 0.28804
 C782 C 0.49372 0.18304 0.32797
 C783 C 0.51082 0.17202 0.32053
 O784 O 0.51876 0.13875 0.26308
 C785 C 0.50500 0.12031 0.21858
 C786 C 0.48275 0.12060 0.20316
 C787 C 0.46520 0.10261 0.15926
 C788 C 0.47030 0.08386 0.13025
 C789 C 0.49309 0.08235 0.14228
 C790 C 0.51085 0.10155 0.18828
 H791 H 0.44843 0.14222 0.21655
 H792 H 0.45744 0.17784 0.29137
 H793 H 0.52806 0.17948 0.34948
 H794 H 0.44759 0.10277 0.14770
 H795 H 0.45613 0.07027 0.09717
 H796 H 0.52847 0.10164 0.20097
 C797 C 0.65458 0.51209 0.28195
 C798 C 0.64825 0.49324 0.23695
 C799 C 0.66098 0.47874 0.23570
 C800 C 0.68061 0.48335 0.28154
 C801 C 0.68862 0.50257 0.33015
 C802 C 0.67473 0.51718 0.32907
 O803 O 0.63979 0.52351 0.27497
 C804 C 0.62383 0.51166 0.22459
 C805 C 0.62838 0.49296 0.19992
 C806 C 0.61402 0.47810 0.14777
 C807 C 0.59452 0.48222 0.11977
 C808 C 0.58826 0.50118 0.14178
 C809 C 0.60385 0.51625 0.19640
 H810 H 0.65571 0.46377 0.20032
 H811 H 0.68929 0.47119 0.27973
 H812 H 0.67930 0.53201 0.36442
 H813 H 0.61768 0.46339 0.12865
 H814 H 0.58409 0.47013 0.07972
 H815 H 0.60049 0.53098 0.21663
 C816 C 0.85727 0.34419 0.27503
 C817 C 0.84563 0.35582 0.24366
 C818 C 0.81916 0.34715 0.25324
 C819 C 0.80412 0.32630 0.29632
 C820 C 0.81442 0.31291 0.33113
 C821 C 0.84205 0.32249 0.31839
 O822 O 0.88293 0.35580 0.25978
 C823 C 0.88757 0.37510 0.21791
 C824 C 0.86519 0.37571 0.20647
 C825 C 0.86536 0.39402 0.16430
 C826 C 0.88876 0.41218 0.13279
 C827 C 0.91313 0.41333 0.14179
 C828 C 0.91195 0.39384 0.18654
 H829 H 0.81017 0.35654 0.22863
 H830 H 0.78406 0.32086 0.30352
 H831 H 0.85159 0.31339 0.34177
 H832 H 0.84767 0.39440 0.15548
 H833 H 0.88770 0.42587 0.10099
 H834 H 0.92940 0.39316 0.19653
   
