data_POSCAR
  _audit_creation_date              2014-09-24
  _audit_creation_method            'ToBaCCo'
  _symmetry_space_group_name_H-M    'P1'
  _symmetry_Int_Tables_number       1
  _symmetry_cell_setting            triclinic
  loop_
  _symmetry_equiv_pos_as_xyz
 x,y,z
_cell_length_a 40.1110
_cell_length_b 40.5782
_cell_length_c 39.1596
_cell_angle_alpha 89.955000
_cell_angle_beta 90.110500
_cell_angle_gamma 83.383300
loop_
  _atom_site_label
  _atom_site_type_symbol
  _atom_site_fract_x
  _atom_site_fract_y
  _atom_site_fract_z
C1 C 1.22820 0.22605 0.20647
 C2 C 1.24960 0.24647 0.18426
 C3 C 1.26835 0.26608 0.20271
 C4 C 1.26409 0.26362 0.24164
 C5 C 1.25301 0.20668 0.23104
 C6 C 1.27171 0.22640 0.24943
 C7 C 1.20721 0.25145 0.22898
 C8 C 1.22607 0.27103 0.24741
 H9 H 1.24992 0.24550 0.15653
 H10 H 1.27945 0.27966 0.25655
 H11 H 1.25492 0.17993 0.23433
 H12 H 1.18008 0.25288 0.23124
 C13 C 0.72419 -0.26961 0.19102
 C14 C 0.74501 -0.24729 0.17046
 C15 C 0.76447 -0.22963 0.19045
 C16 C 0.76141 -0.23588 0.22908
 C17 C 0.74956 -0.29139 0.21302
 C18 C 0.76892 -0.27372 0.23301
 C19 C 0.70413 -0.24650 0.21638
 C20 C 0.72362 -0.22895 0.23629
 H21 H 0.74434 -0.24548 0.14277
 H22 H 0.77733 -0.22143 0.24521
 H23 H 0.75045 -0.31823 0.21451
 H24 H 0.67709 -0.24533 0.21948
 C25 C 0.72437 0.22747 -0.30598
 C26 C 0.74460 0.24796 -0.32599
 C27 C 0.76470 0.26704 -0.30509
 C28 C 0.76076 0.26195 -0.26831
 C29 C 0.74790 0.20704 -0.28417
 C30 C 0.76797 0.22608 -0.26334
 C31 C 0.70455 0.25013 -0.28300
 C32 C 0.72468 0.26916 -0.26222
 H33 H 0.74417 0.24935 -0.35374
 H34 H 0.77646 0.27680 -0.25225
 H35 H 0.74833 0.18029 -0.28151
 H36 H 0.67748 0.25110 -0.28006
 C37 C 1.22929 -0.27936 -0.29652
 C38 C 1.25056 -0.25924 -0.31918
 C39 C 1.26818 -0.23831 -0.30114
 C40 C 1.26302 -0.23923 -0.26229
 C41 C 1.25394 -0.29705 -0.27068
 C42 C 1.27151 -0.27594 -0.25280
 C43 C 1.20709 -0.25359 -0.27558
 C44 C 1.22484 -0.23268 -0.25767
 H45 H 1.25183 -0.26153 -0.34681
 H46 H 1.27744 -0.22205 -0.24776
 H47 H 1.25668 -0.32368 -0.26633
 H48 H 1.17996 -0.25279 -0.27397
 C49 C 0.22986 0.22789 0.79594
 C50 C 0.25012 0.24711 0.81721
 C51 C 0.26975 0.26775 0.79794
 C52 C 0.26566 0.26551 0.76107
 C53 C 0.20874 0.25323 0.77324
 C54 C 0.22762 0.27288 0.75491
 C55 C 0.25453 0.20849 0.77128
 C56 C 0.27323 0.22831 0.75300
 H57 H 0.25079 0.24570 0.84494
 H58 H 0.28097 0.28161 0.74616
 H59 H 0.18165 0.25445 0.77066
 H60 H 0.25632 0.18177 0.76784
 C61 C 0.72839 0.72707 0.80909
 C62 C 0.74819 0.74840 0.82865
 C63 C 0.76739 0.76793 0.80729
 C64 C 0.76313 0.76239 0.77063
 C65 C 0.70769 0.74903 0.78605
 C66 C 0.72691 0.76849 0.76483
 C67 C 0.75218 0.70707 0.78727
 C68 C 0.77133 0.72660 0.76602
 H69 H 0.74825 0.74985 0.85638
 H70 H 0.77808 0.77760 0.75420
 H71 H 0.68057 0.74965 0.78383
 H72 H 0.75365 0.68019 0.78521
 C73 C 0.72549 0.22538 0.30768
 C74 C 0.74623 0.24817 0.32773
 C75 C 0.76499 0.26606 0.30728
 C76 C 0.76142 0.25951 0.26876
 C77 C 0.70463 0.24807 0.28245
 C78 C 0.72347 0.26584 0.26210
 C79 C 0.75076 0.20385 0.28552
 C80 C 0.76944 0.22171 0.26507
 H81 H 0.74557 0.25053 0.35537
 H82 H 0.77681 0.27413 0.25226
 H83 H 0.67756 0.24893 0.27986
 H84 H 0.75185 0.17699 0.28407
 C85 C 0.22663 0.72466 0.29596
 C86 C 0.24770 0.74526 0.31841
 C87 C 0.26673 0.76471 0.30014
 C88 C 0.26306 0.76194 0.26118
 C89 C 0.20599 0.74987 0.27282
 C90 C 0.22514 0.76930 0.25460
 C91 C 0.25183 0.70508 0.27204
 C92 C 0.27080 0.72467 0.25384
 H93 H 0.24776 0.74436 0.34615
 H94 H 0.27864 0.77786 0.24643
 H95 H 0.17890 0.75126 0.27000
 H96 H 0.25367 0.67833 0.26888
 N97 N 1.03647 -0.03336 -0.06332
 N98 N 1.05845 -0.04020 -0.08806
 N99 N 0.96997 -0.05740 -0.03894
 N100 N 0.94959 -0.08008 -0.04482
 N101 N 0.96646 -0.03422 -0.06255
 N102 N 0.94361 -0.04060 -0.08523
 N103 N 1.03993 -0.05660 -0.03977
 N104 N 1.06432 -0.07993 -0.04800
 C105 C 1.07602 -0.06888 -0.07775
 C106 C 0.93316 -0.06908 -0.07351
 N107 N 0.96790 -0.03507 0.05842
 N108 N 0.94519 -0.04142 0.08117
 N109 N 1.04082 -0.05723 0.03412
 N110 N 1.06549 -0.08063 0.04151
 N111 N 1.03794 -0.03435 0.05800
 N112 N 1.06060 -0.04153 0.08217
 N113 N 0.97084 -0.05793 0.03453
 N114 N 0.95022 -0.08040 0.04028
 Mn115 Mn 1.00548 -0.05758 -0.00252
 C116 C 0.93428 -0.06959 0.06922
 C117 C 1.07792 -0.07005 0.07117
 N118 N 0.95758 0.03767 -0.06226
 N119 N 0.93617 0.04612 -0.08729
 N120 N 1.02501 0.06078 -0.03872
 N121 N 1.04612 0.08285 -0.04419
 N122 N 1.02761 0.03808 -0.06274
 N123 N 1.05062 0.04408 -0.08529
 N124 N 0.95505 0.06056 -0.03836
 N125 N 0.93187 0.08510 -0.04658
 Mn126 Mn 0.99698 0.00203 -0.06303
 C127 C 0.91987 0.07532 -0.07672
 C128 C 1.06201 0.07191 -0.07311
 N129 N 1.02902 0.03718 0.05836
 N130 N 1.05208 0.04319 0.08093
 N131 N 0.95591 0.05995 0.03545
 N132 N 0.93261 0.08414 0.04418
 N133 N 0.95902 0.03670 0.05902
 N134 N 0.93789 0.04451 0.08433
 N135 N 1.02585 0.06027 0.03468
 N136 N 1.04662 0.08262 0.04044
 Mn137 Mn 0.99844 0.00110 0.05876
 Mn138 Mn 0.99040 0.06063 -0.00173
 Cl139 Cl 0.99777 0.00154 -0.00213
 C140 C 1.06295 0.07140 0.06911
 C141 C 0.92117 0.07372 0.07428
 N142 N 0.95504 0.53691 0.43985
 N143 N 0.93462 0.54564 0.41409
 N144 N 1.02208 0.55947 0.46508
 N145 N 1.04314 0.58166 0.45989
 N146 N 1.02513 0.53673 0.44110
 N147 N 1.04838 0.54283 0.41886
 N148 N 0.95205 0.55984 0.46371
 N149 N 0.92955 0.58470 0.45469
 C150 C 0.91837 0.57503 0.42414
 C151 C 1.05950 0.57072 0.43122
 N152 N 1.02359 0.53573 0.56208
 N153 N 1.04732 0.54061 0.58431
 N154 N 0.95115 0.55934 0.53763
 N155 N 0.92887 0.58438 0.54651
 N156 N 0.95349 0.53614 0.56129
 N157 N 0.93285 0.54496 0.58678
 N158 N 1.02117 0.55883 0.53841
 N159 N 1.04315 0.58007 0.54381
 Mn160 Mn 0.98654 0.55960 0.50122
 C161 C 1.05928 0.56822 0.57234
 C162 C 0.91711 0.57464 0.57673
 N163 N 1.03340 0.46524 0.44055
 N164 N 1.05641 0.45851 0.41672
 N165 N 0.96595 0.44195 0.46322
 N166 N 0.94515 0.41976 0.45696
 N167 N 0.96330 0.46514 0.43961
 N168 N 0.94062 0.45929 0.41656
 N169 N 1.03601 0.44198 0.46408
 N170 N 1.06086 0.41877 0.45681
 Mn171 Mn 0.99419 0.50098 0.43997
 C172 C 1.07362 0.42983 0.42756
 C173 C 0.92941 0.43110 0.42802
 N174 N 0.96173 0.46418 0.56062
 N175 N 0.93911 0.45747 0.58333
 N176 N 1.03510 0.44146 0.53789
 N177 N 1.06028 0.41854 0.54507
 N178 N 1.03186 0.46430 0.56179
 N179 N 1.05477 0.45759 0.58581
 N180 N 0.96504 0.44132 0.53672
 N181 N 0.94474 0.41854 0.54244
 Mn182 Mn 0.99261 0.50007 0.56176
 Mn183 Mn 1.00060 0.44138 0.50048
 Cl184 Cl 0.99338 0.50051 0.50086
 C185 C 0.92855 0.42916 0.57131
 C186 C 1.07254 0.42933 0.57471
 N187 N 0.55778 0.01919 0.53901
 N188 N 0.57997 0.04036 0.54346
 N189 N 0.53341 -0.04636 0.56388
 N190 N 0.54194 -0.06666 0.58963
 N191 N 0.55653 -0.04980 0.53999
 N192 N 0.58127 -0.07251 0.54890
 N193 N 0.53469 0.02276 0.56284
 N194 N 0.54055 0.04654 0.58431
 C195 C 0.56874 0.05729 0.57160
 C196 C 0.57137 -0.08331 0.57945
 N197 N 0.43756 -0.03345 0.53955
 N198 N 0.41504 -0.05411 0.54498
 N199 N 0.46244 0.03246 0.56278
 N200 N 0.45671 0.05608 0.58588
 N201 N 0.43912 0.03558 0.53903
 N202 N 0.41683 0.06141 0.54537
 N203 N 0.46084 -0.03663 0.56336
 N204 N 0.45477 -0.05957 0.58573
 Mn205 Mn 0.49780 -0.00697 0.56358
 C206 C 0.42629 -0.07027 0.57366
 C207 C 0.42852 0.07412 0.57435
 N208 N 0.55640 -0.05038 0.46633
 N209 N 0.58113 -0.07318 0.45783
 N210 N 0.53455 0.02176 0.44206
 N211 N 0.54038 0.04515 0.42012
 N212 N 0.55769 0.01856 0.46596
 N213 N 0.57990 0.03962 0.46106
 N214 N 0.53324 -0.04731 0.44236
 N215 N 0.54175 -0.06799 0.41700
 Mn216 Mn 0.55732 -0.01570 0.50282
 C217 C 0.57117 -0.08447 0.42751
 C218 C 0.56860 0.05607 0.43261
 N219 N 0.43902 0.03502 0.46540
 N220 N 0.41661 0.06062 0.45846
 N221 N 0.46068 -0.03756 0.44235
 N222 N 0.45400 -0.05997 0.41965
 N223 N 0.43738 -0.03405 0.46602
 N224 N 0.41422 -0.05397 0.46012
 N225 N 0.46233 0.03154 0.44174
 N226 N 0.45644 0.05467 0.41809
 Mn227 Mn 0.43792 0.00084 0.50252
 Mn228 Mn 0.49768 -0.00792 0.44178
 Cl229 Cl 0.49767 -0.00754 0.50268
 C230 C 0.42819 0.07281 0.42920
 C231 C 0.42516 -0.07013 0.43137
 N232 N 0.55817 0.52010 0.03723
 N233 N 0.57974 0.54186 0.04191
 N234 N 0.53355 0.45410 0.06002
 N235 N 0.54157 0.43280 0.08503
 N236 N 0.55682 0.45117 0.03627
 N237 N 0.58118 0.42785 0.04454
 N238 N 0.53479 0.52321 0.06079
 N239 N 0.53981 0.54724 0.08228
 C240 C 0.56787 0.55854 0.06996
 C241 C 0.57086 0.41616 0.07451
 N242 N 0.43799 0.46720 0.03524
 N243 N 0.41478 0.44728 0.04086
 N244 N 0.46255 0.53278 0.06031
 N245 N 0.45630 0.55559 0.08417
 N246 N 0.43937 0.53631 0.03643
 N247 N 0.41668 0.56164 0.04343
 N248 N 0.46108 0.46370 0.05923
 N249 N 0.45421 0.44128 0.08184
 Mn250 Mn 0.49799 0.49343 0.06043
 C251 C 0.42549 0.43111 0.06974
 C252 C 0.42797 0.57363 0.07296
 N253 N 0.55758 0.45229 -0.03733
 N254 N 0.58224 0.42942 -0.04593
 N255 N 0.53598 0.52506 -0.05987
 N256 N 0.54250 0.54853 -0.08147
 N257 N 0.55889 0.52122 -0.03578
 N258 N 0.58158 0.54187 -0.04017
 N259 N 0.53470 0.45595 -0.06154
 N260 N 0.54329 0.43564 -0.08720
 Mn261 Mn 0.55809 0.48609 0.00012
 C262 C 0.57253 0.41878 -0.07664
 C263 C 0.57084 0.55883 -0.06851
 N264 N 0.44010 0.53744 -0.03716
 N265 N 0.41778 0.56326 -0.04348
 N266 N 0.46210 0.46558 -0.06199
 N267 N 0.45590 0.44333 -0.08505
 N268 N 0.43868 0.46837 -0.03840
 N269 N 0.41594 0.44812 -0.04473
 N270 N 0.46362 0.53468 -0.06062
 N271 N 0.45797 0.55855 -0.08352
 Mn272 Mn 0.43869 0.50237 -0.00100
 Mn273 Mn 0.49906 0.49532 -0.06137
 Cl274 Cl 0.49843 0.49420 -0.00047
 C275 C 0.42963 0.57636 -0.07214
 C276 C 0.42722 0.43256 -0.07367
 C277 C 1.12960 0.12443 0.11790
 C278 C 1.14062 0.15215 0.10112
 C279 C 1.16154 0.17259 0.11862
 C280 C 1.17136 0.16518 0.15278
 C281 C 1.16112 0.13692 0.16922
 C282 C 1.14015 0.11651 0.15174
 C283 C 1.13008 0.08852 0.16877
 C284 C 1.14054 0.08081 0.20208
 C285 C 1.16110 0.10072 0.21915
 C286 C 1.17132 0.12850 0.20306
 C287 C 1.17212 0.20024 0.10137
 C288 C 1.16238 0.20743 0.06775
 C289 C 1.14191 0.18746 0.05064
 C290 C 1.13106 0.16012 0.06701
 C291 C 1.19152 0.18683 0.17121
 C292 C 1.20808 0.20469 0.18689
 C293 C 1.10663 0.10473 0.10069
 C294 C 1.08700 0.08905 0.08636
 H295 H 1.11416 0.07225 0.15651
 H296 H 1.13268 0.05926 0.21469
 H297 H 1.16919 0.09461 0.24500
 H298 H 1.18736 0.14319 0.21738
 H299 H 1.18809 0.21649 0.11361
 H300 H 1.17076 0.22863 0.05491
 H301 H 1.13439 0.19317 0.02453
 H302 H 1.11523 0.14530 0.05260
 C303 C 1.12993 0.61712 0.61962
 C304 C 1.15037 0.63612 0.59997
 C305 C 1.17214 0.65629 0.61658
 C306 C 1.17335 0.65724 0.65269
 C307 C 1.15386 0.63728 0.67230
 C308 C 1.13206 0.61715 0.65570
 C309 C 1.11262 0.59756 0.67581
 C310 C 1.11473 0.59781 0.71133
 C311 C 1.13605 0.61751 0.72758
 C312 C 1.15543 0.63708 0.70843
 C313 C 1.19217 0.67529 0.59647
 C314 C 1.19083 0.67424 0.56092
 C315 C 1.16961 0.65443 0.54467
 C316 C 1.14946 0.63562 0.56384
 C317 C 1.19379 0.67944 0.66977
 C318 C 1.21013 0.69803 0.68460
 C319 C 1.10562 0.59880 0.60283
 C320 C 1.08476 0.58436 0.58896
 H321 H 1.09574 0.58175 0.66434
 H322 H 1.09974 0.58262 0.72633
 H323 H 1.13761 0.61761 0.75518
 H324 H 1.17170 0.65193 0.72224
 H325 H 1.20914 0.69098 0.60798
 H326 H 1.20640 0.68883 0.54591
 H327 H 1.16878 0.65358 0.51706
 H328 H 1.13339 0.62056 0.55004
 C329 C 0.62337 0.12499 0.61534
 C330 C 0.62780 0.15512 0.59859
 C331 C 0.64903 0.17707 0.61324
 C332 C 0.66580 0.16862 0.64440
 C333 C 0.66153 0.13837 0.66103
 C334 C 0.64019 0.11654 0.64649
 C335 C 0.63634 0.08642 0.66355
 C336 C 0.65326 0.07804 0.69401
 C337 C 0.67418 0.09937 0.70821
 C338 C 0.67832 0.12925 0.69208
 C339 C 0.65303 0.20709 0.59615
 C340 C 0.63659 0.21516 0.56536
 C341 C 0.61595 0.19363 0.55094
 C342 C 0.61152 0.16391 0.56725
 C343 C 0.68708 0.19100 0.65993
 C344 C 0.70462 0.20854 0.67471
 C345 C 0.60261 0.10200 0.60001
 C346 C 0.58640 0.08203 0.58726
 H347 H 0.62028 0.06901 0.65357
 H348 H 0.65012 0.05485 0.70662
 H349 H 0.68732 0.09274 0.73185
 H350 H 0.69487 0.14497 0.70420
 H351 H 0.66892 0.22455 0.60636
 H352 H 0.63990 0.23823 0.55260
 H353 H 0.60327 0.20001 0.52703
 H354 H 0.59523 0.14796 0.55505
 C355 C 0.61865 0.63009 0.11204
 C356 C 0.63885 0.64767 0.09058
 C357 C 0.66015 0.66960 0.10509
 C358 C 0.66101 0.67382 0.14092
 C359 C 0.63992 0.65713 0.16227
 C360 C 0.61869 0.63516 0.14777
 C361 C 0.59806 0.61849 0.16960
 C362 C 0.59834 0.62346 0.20479
 C363 C 0.61908 0.64498 0.21901
 C364 C 0.63968 0.66168 0.19814
 C365 C 0.68036 0.68669 0.08323
 C366 C 0.67947 0.68229 0.04795
 C367 C 0.65864 0.66084 0.03373
 C368 C 0.63850 0.64366 0.05468
 C369 C 0.68403 0.69459 0.15621
 C370 C 0.70267 0.71115 0.17074
 C371 C 0.59926 0.60551 0.09755
 C372 C 0.58422 0.58438 0.08529
 H373 H 0.58141 0.60159 0.15971
 H374 H 0.58236 0.61055 0.22111
 H375 H 0.61920 0.64878 0.24637
 H376 H 0.65531 0.67820 0.21044
 H377 H 0.69694 0.70364 0.09316
 H378 H 0.69504 0.69559 0.03156
 H379 H 0.65812 0.65742 0.00634
 H380 H 0.62262 0.62734 0.04242
 C381 C 0.86740 -0.12390 0.11578
 C382 C 0.85917 -0.11983 0.15080
 C383 C 0.83772 -0.14091 0.16655
 C384 C 0.82456 -0.16591 0.14719
 C385 C 0.83228 -0.16956 0.11201
 C386 C 0.85380 -0.14855 0.09628
 C387 C 0.86134 -0.15288 0.06114
 C388 C 0.84801 -0.17725 0.04209
 C389 C 0.82686 -0.19768 0.05742
 C390 C 0.81901 -0.19401 0.09196
 C391 C 0.83000 -0.13647 0.20161
 C392 C 0.84305 -0.11186 0.22057
 C393 C 0.86398 -0.09123 0.20517
 C394 C 0.87205 -0.09507 0.17069
 C395 C 0.80335 -0.18809 0.16337
 C396 C 0.78572 -0.20686 0.17615
 C397 C 0.89059 -0.10349 0.09996
 C398 C 0.91027 -0.08743 0.08628
 H399 H 0.87755 -0.13751 0.04800
 H400 H 0.85413 -0.18028 0.01528
 H401 H 0.81650 -0.21651 0.04248
 H402 H 0.80244 -0.21052 0.10271
 H403 H 0.81379 -0.15188 0.21471
 H404 H 0.83686 -0.10877 0.24736
 H405 H 0.87402 -0.07213 0.22000
 H406 H 0.88838 -0.07839 0.15981
 C407 C 0.86364 0.37323 0.61899
 C408 C 0.85669 0.37664 0.65434
 C409 C 0.83603 0.35509 0.67060
 C410 C 0.82238 0.33026 0.65143
 C411 C 0.82889 0.32719 0.61596
 C412 C 0.84955 0.34872 0.59969
 C413 C 0.85574 0.34506 0.56423
 C414 C 0.84196 0.32083 0.54537
 C415 C 0.82176 0.29982 0.56125
 C416 C 0.81522 0.30284 0.59612
 C417 C 0.82955 0.35893 0.70598
 C418 C 0.84306 0.38337 0.72476
 C419 C 0.86324 0.40443 0.70888
 C420 C 0.87006 0.40121 0.67408
 C421 C 0.80177 0.30777 0.66808
 C422 C 0.78453 0.28879 0.68117
 C423 C 0.88604 0.39415 0.60260
 C424 C 0.90514 0.41070 0.58860
 H425 H 0.87124 0.36085 0.55069
 H426 H 0.84701 0.31834 0.51829
 H427 H 0.81112 0.28104 0.54649
 H428 H 0.79935 0.28589 0.60729
 H429 H 0.81400 0.34314 0.71946
 H430 H 0.83785 0.38597 0.75180
 H431 H 0.87365 0.42338 0.72359
 H432 H 0.88585 0.41820 0.66284
 C433 C 0.37253 -0.13711 0.62015
 C434 C 0.37648 -0.14426 0.65541
 C435 C 0.35556 -0.16559 0.67149
 C436 C 0.33085 -0.17960 0.65220
 C437 C 0.32728 -0.17290 0.61681
 C438 C 0.34816 -0.15154 0.60073
 C439 C 0.34393 -0.14492 0.56538
 C440 C 0.31974 -0.15901 0.54648
 C441 C 0.29942 -0.18003 0.56218
 C442 C 0.30302 -0.18699 0.59694
 C443 C 0.35983 -0.17228 0.70682
 C444 C 0.38408 -0.15827 0.72571
 C445 C 0.40452 -0.13738 0.70997
 C446 C 0.40088 -0.13037 0.67523
 C447 C 0.30877 -0.20045 0.66886
 C448 C 0.29030 -0.21768 0.68265
 C449 C 0.39267 -0.11403 0.60405
 C450 C 0.40858 -0.09434 0.59040
 H451 H 0.35921 -0.12882 0.55198
 H452 H 0.31672 -0.15354 0.51951
 H453 H 0.28072 -0.19098 0.54736
 H454 H 0.28661 -0.20348 0.60801
 H455 H 0.34454 -0.18840 0.72020
 H456 H 0.38701 -0.16366 0.75270
 H457 H 0.42331 -0.12654 0.72475
 H458 H 0.41740 -0.11401 0.66411
 C459 C 0.37057 0.36690 0.11943
 C460 C 0.34600 0.35153 0.10126
 C461 C 0.32546 0.33074 0.11878
 C462 C 0.32962 0.32541 0.15437
 C463 C 0.35445 0.34046 0.17245
 C464 C 0.37499 0.36126 0.15494
 C465 C 0.39959 0.37607 0.17359
 C466 C 0.40381 0.37048 0.20854
 C467 C 0.38373 0.35016 0.22565
 C468 C 0.35928 0.33526 0.20795
 C469 C 0.30100 0.31576 0.10007
 C470 C 0.29694 0.32114 0.06508
 C471 C 0.31701 0.34147 0.04797
 C472 C 0.34131 0.35653 0.06571
 C473 C 0.30826 0.30456 0.17228
 C474 C 0.29024 0.28714 0.18659
 C475 C 0.39068 0.38913 0.10176
 C476 C 0.40689 0.40801 0.08711
 H477 H 0.41584 0.39204 0.16140
 H478 H 0.42278 0.38198 0.22240
 H479 H 0.38712 0.34589 0.25279
 H480 H 0.34429 0.31964 0.22237
 H481 H 0.28478 0.29974 0.11223
 H482 H 0.27811 0.30949 0.05118
 H483 H 0.31370 0.34562 0.02080
 H484 H 0.35636 0.37206 0.05124
 C485 C 0.85838 0.13568 -0.13983
 C486 C 0.83391 0.12239 -0.16011
 C487 C 0.81513 0.14277 -0.18456
 C488 C 0.82090 0.17636 -0.18861
 C489 C 0.84470 0.18989 -0.16771
 C490 C 0.86348 0.16951 -0.14321
 C491 C 0.88723 0.18358 -0.12269
 C492 C 0.89229 0.21682 -0.12627
 C493 C 0.87397 0.23671 -0.15025
 C494 C 0.85041 0.22352 -0.17082
 C495 C 0.79096 0.12881 -0.20469
 C496 C 0.78549 0.09573 -0.20075
 C497 C 0.80385 0.07583 -0.17683
 C498 C 0.82783 0.08887 -0.15668
 C499 C 0.80269 0.19649 -0.21481
 C500 C 0.78688 0.21147 -0.23729
 C501 C 0.87923 0.11423 -0.11659
 C502 C 0.89726 0.09634 -0.09800
 H503 H 0.90202 0.16912 -0.10363
 H504 H 0.91053 0.22720 -0.11032
 H505 H 0.87801 0.26250 -0.15292
 H506 H 0.83671 0.23995 -0.18909
 H507 H 0.77598 0.14326 -0.22363
 H508 H 0.76690 0.08549 -0.21635
 H509 H 0.79950 0.05016 -0.17384
 H510 H 0.84141 0.07242 -0.13836
 C511 C 0.86283 0.63613 0.35690
 C512 C 0.87631 0.63900 0.32374
 C513 C 0.85821 0.65951 0.29893
 C514 C 0.82673 0.67700 0.30738
 C515 C 0.81358 0.67471 0.34072
 C516 C 0.83166 0.65416 0.36555
 C517 C 0.81789 0.65204 0.39860
 C518 C 0.78717 0.66980 0.40696
 C519 C 0.76953 0.68995 0.38273
 C520 C 0.78244 0.69245 0.34994
 C521 C 0.87210 0.66185 0.26593
 C522 C 0.90302 0.64444 0.25767
 C523 C 0.92072 0.62438 0.28191
 C524 C 0.90765 0.62159 0.31459
 C525 C 0.80709 0.69586 0.28127
 C526 C 0.79018 0.71042 0.25932
 C527 C 0.88117 0.61456 0.38188
 C528 C 0.89743 0.59648 0.40175
 H529 H 0.83071 0.63669 0.41830
 H530 H 0.77701 0.66793 0.43239
 H531 H 0.74571 0.70372 0.38938
 H532 H 0.76782 0.70850 0.33199
 H533 H 0.85931 0.67721 0.24622
 H534 H 0.91329 0.64654 0.23232
 H535 H 0.94472 0.61089 0.27537
 H536 H 0.92239 0.60567 0.33253
 C537 C 0.37617 0.14389 0.36959
 C538 C 0.38864 0.14948 0.33653
 C539 C 0.36852 0.16963 0.31291
 C540 C 0.33606 0.18402 0.32249
 C541 C 0.32444 0.18008 0.35620
 C542 C 0.34456 0.15992 0.37983
 C543 C 0.33225 0.15595 0.41325
 C544 C 0.30098 0.17158 0.42309
 C545 C 0.28131 0.19133 0.39999
 C546 C 0.29275 0.19556 0.36686
 C547 C 0.38132 0.17455 0.27987
 C548 C 0.41314 0.16001 0.27045
 C549 C 0.43281 0.14026 0.29354
 C550 C 0.42081 0.13494 0.32622
 C551 C 0.31377 0.20065 0.29700
 C552 C 0.29486 0.21308 0.27544
 C553 C 0.39487 0.11994 0.39203
 C554 C 0.41017 0.09896 0.40961
 H555 H 0.34673 0.14092 0.43212
 H556 H 0.29199 0.16838 0.44879
 H557 H 0.25706 0.20345 0.40777
 H558 H 0.27662 0.21124 0.34982
 H559 H 0.36699 0.18981 0.26108
 H560 H 0.42259 0.16410 0.24511
 H561 H 0.45751 0.12903 0.28611
 H562 H 0.43709 0.11949 0.34332
 C563 C 0.37688 0.64823 -0.13001
 C564 C 0.39061 0.65738 -0.16143
 C565 C 0.37004 0.67671 -0.18532
 C566 C 0.33593 0.68669 -0.17762
 C567 C 0.32289 0.67957 -0.14522
 C568 C 0.34347 0.66028 -0.12130
 C569 C 0.32980 0.65303 -0.08924
 C570 C 0.29673 0.66462 -0.08101
 C571 C 0.27659 0.68347 -0.10443
 C572 C 0.28937 0.69089 -0.13624
 C573 C 0.38412 0.68518 -0.21680
 C574 C 0.41763 0.67487 -0.22442
 C575 C 0.43774 0.65592 -0.20105
 C576 C 0.42451 0.64715 -0.16989
 C577 C 0.31361 0.70163 -0.20394
 C578 C 0.29465 0.71255 -0.22613
 C579 C 0.39611 0.62416 -0.10816
 C580 C 0.41165 0.60292 -0.09111
 H581 H 0.34458 0.63856 -0.07017
 H582 H 0.28670 0.65897 -0.05632
 H583 H 0.25092 0.69243 -0.09792
 H584 H 0.27280 0.70576 -0.15358
 H585 H 0.36946 0.69999 -0.23571
 H586 H 0.42804 0.68165 -0.24857
 H587 H 0.46376 0.64798 -0.20708
 H588 H 0.44115 0.63250 -0.15247
 C589 C 1.13743 -0.12530 -0.14351
 C590 C 1.17228 -0.13377 -0.13823
 C591 C 1.19135 -0.15456 -0.16205
 C592 C 1.17543 -0.16669 -0.19097
 C593 C 1.14068 -0.15774 -0.19656
 C594 C 1.12162 -0.13699 -0.17277
 C595 C 1.08686 -0.12854 -0.17883
 C596 C 1.07139 -0.14028 -0.20753
 C597 C 1.09004 -0.16058 -0.23079
 C598 C 1.12428 -0.16930 -0.22551
 C599 C 1.22612 -0.16290 -0.15615
 C600 C 1.24162 -0.15098 -0.12755
 C601 C 1.22297 -0.13062 -0.10428
 C602 C 1.18868 -0.12203 -0.10944
 C603 C 1.19431 -0.18929 -0.21446
 C604 C 1.20885 -0.20870 -0.23413
 C605 C 1.11746 -0.10500 -0.11883
 C606 C 1.09939 -0.08839 -0.09935
 H607 H 1.07124 -0.11279 -0.16152
 H608 H 1.04479 -0.13357 -0.21172
 H609 H 1.07792 -0.16964 -0.25306
 H610 H 1.13769 -0.18512 -0.24439
 H611 H 1.24165 -0.17862 -0.17358
 H612 H 1.26825 -0.15757 -0.12343
 H613 H 1.23514 -0.12143 -0.08212
 H614 H 1.17520 -0.10610 -0.09068
 C615 C 1.14216 0.37583 0.36632
 C616 C 1.14682 0.38759 0.33280
 C617 C 1.16635 0.36724 0.30896
 C618 C 1.18120 0.33529 0.31881
 C619 C 1.17796 0.32423 0.35283
 C620 C 1.15837 0.34456 0.37665
 C621 C 1.15521 0.33284 0.41040
 C622 C 1.17103 0.30194 0.42038
 C623 C 1.19018 0.28206 0.39710
 C624 C 1.19366 0.29293 0.36367
 C625 C 1.17028 0.37936 0.27548
 C626 C 1.15544 0.41075 0.26584
 C627 C 1.13640 0.43068 0.28916
 C628 C 1.13202 0.41934 0.32227
 C629 C 1.19822 0.31315 0.29355
 C630 C 1.21139 0.29427 0.27250
 C631 C 1.11910 0.39506 0.38934
 C632 C 1.09891 0.41093 0.40744
 H633 H 1.14067 0.34749 0.42943
 H634 H 1.16843 0.29339 0.44633
 H635 H 1.20243 0.25808 0.40499
 H636 H 1.20888 0.27663 0.34650
 H637 H 1.18495 0.36482 0.25647
 H638 H 1.15876 0.41968 0.24015
 H639 H 1.12497 0.45506 0.28158
 H640 H 1.11708 0.43579 0.33952
 C641 C 0.63487 -0.13856 0.36205
 C642 C 0.64256 -0.12276 0.33125
 C643 C 0.66391 -0.14027 0.30683
 C644 C 0.67734 -0.17348 0.31332
 C645 C 0.67072 -0.18885 0.34468
 C646 C 0.64939 -0.17131 0.36914
 C647 C 0.64292 -0.18720 0.40021
 C648 C 0.65719 -0.21950 0.40697
 C649 C 0.67803 -0.23668 0.38303
 C650 C 0.68480 -0.22166 0.35218
 C651 C 0.67113 -0.12405 0.27615
 C652 C 0.65768 -0.09140 0.26982
 C653 C 0.63676 -0.07426 0.29369
 C654 C 0.62916 -0.08964 0.32407
 C655 C 0.69577 -0.19254 0.28673
 C656 C 0.70947 -0.20877 0.26398
 C657 C 0.61194 -0.12097 0.38620
 C658 C 0.59302 -0.10515 0.40549
 H659 H 0.62687 -0.17482 0.41960
 H660 H 0.65205 -0.23127 0.43090
 H661 H 0.68900 -0.26177 0.38840
 H662 H 0.70128 -0.23595 0.33441
 H663 H 0.68737 -0.13632 0.25686
 H664 H 0.66355 -0.07934 0.24628
 H665 H 0.62637 -0.04890 0.28867
 H666 H 0.61278 -0.07525 0.34183
 C667 C 0.63576 0.36109 -0.13994
 C668 C 0.65619 0.37733 -0.16245
 C669 C 0.67739 0.35850 -0.18612
 C670 C 0.67799 0.32359 -0.18718
 C671 C 0.65842 0.30726 -0.16392
 C672 C 0.63723 0.32607 -0.14024
 C673 C 0.61767 0.30924 -0.11746
 C674 C 0.61903 0.27478 -0.11803
 C675 C 0.63976 0.25637 -0.14118
 C676 C 0.65927 0.27229 -0.16393
 C677 C 0.69739 0.37526 -0.20853
 C678 C 0.69648 0.40969 -0.20758
 C679 C 0.67574 0.42812 -0.18445
 C680 C 0.65577 0.41227 -0.16210
 C681 C 0.69684 0.30463 -0.21363
 C682 C 0.71087 0.28835 -0.23620
 C683 C 0.61289 0.38052 -0.11699
 C684 C 0.59411 0.39740 -0.09836
 H685 H 0.60119 0.32250 -0.09897
 H686 H 0.60392 0.26230 -0.10042
 H687 H 0.64074 0.22960 -0.14151
 H688 H 0.67507 0.25688 -0.18139
 H689 H 0.71399 0.36196 -0.22689
 H690 H 0.71197 0.42212 -0.22487
 H691 H 0.67512 0.45486 -0.18382
 H692 H 0.64008 0.42769 -0.14456
 C693 C 1.12945 0.12460 -0.12076
 C694 C 1.15094 0.14240 -0.10099
 C695 C 1.17223 0.16322 -0.11737
 C696 C 1.17186 0.16612 -0.15339
 C697 C 1.15097 0.14770 -0.17321
 C698 C 1.12971 0.12687 -0.15684
 C699 C 1.10896 0.10877 -0.17717
 C700 C 1.10925 0.11114 -0.21266
 C701 C 1.13003 0.13151 -0.22868
 C702 C 1.15068 0.14965 -0.20932
 C703 C 1.19343 0.18083 -0.09709
 C704 C 1.19363 0.17793 -0.06161
 C705 C 1.17283 0.15757 -0.04560
 C706 C 1.15163 0.14000 -0.06492
 C707 C 1.19267 0.18822 -0.17019
 C708 C 1.20960 0.20637 -0.18492
 C709 C 1.10622 0.10495 -0.10400
 C710 C 1.08635 0.08936 -0.09003
 H711 H 1.09242 0.09254 -0.16589
 H712 H 1.09327 0.09708 -0.22781
 H713 H 1.13018 0.13326 -0.25627
 H714 H 1.16643 0.16512 -0.22298
 H715 H 1.21011 0.19692 -0.10840
 H716 H 1.21006 0.19151 -0.04648
 H717 H 1.17314 0.15534 -0.01805
 H718 H 1.13596 0.12443 -0.05131
 C719 C 1.12693 0.62359 0.38365
 C720 C 1.13763 0.61565 0.34991
 C721 C 1.15876 0.63598 0.33260
 C722 C 1.16909 0.66414 0.34914
 C723 C 1.15914 0.67158 0.38321
 C724 C 1.13796 0.65127 0.40050
 C725 C 1.12813 0.65935 0.43446
 C726 C 1.13893 0.68670 0.45086
 C727 C 1.15971 0.70648 0.43399
 C728 C 1.16977 0.69914 0.40054
 C729 C 1.16899 0.62762 0.29882
 C730 C 1.15867 0.59994 0.28262
 C731 C 1.13802 0.58006 0.29955
 C732 C 1.12752 0.58772 0.33280
 C733 C 1.18947 0.68569 0.33089
 C734 C 1.20624 0.70345 0.31535
 C735 C 1.10370 0.60401 0.40056
 C736 C 1.08384 0.58836 0.41450
 H737 H 1.11209 0.64464 0.44870
 H738 H 1.13112 0.69257 0.47681
 H739 H 1.16809 0.72765 0.44687
 H740 H 1.18597 0.71524 0.38847
 H741 H 1.18510 0.64228 0.28460
 H742 H 1.16676 0.59388 0.25679
 H743 H 1.13009 0.55857 0.28687
 H744 H 1.11152 0.57147 0.34494
 C745 C 0.62319 0.12294 0.38775
 C746 C 0.62411 0.15505 0.40159
 C747 C 0.64558 0.17674 0.38702
 C748 C 0.66600 0.16609 0.35880
 C749 C 0.66504 0.13400 0.34491
 C750 C 0.64350 0.11238 0.35939
 C751 C 0.64289 0.08041 0.34506
 C752 C 0.66310 0.07009 0.31728
 C753 C 0.68424 0.09123 0.30314
 C754 C 0.68527 0.12286 0.31664
 C755 C 0.64607 0.20876 0.40114
 C756 C 0.62582 0.21910 0.42889
 C757 C 0.60482 0.19788 0.44318
 C758 C 0.60394 0.16615 0.42986
 C759 C 0.68734 0.18825 0.34317
 C760 C 0.70487 0.20567 0.32835
 C761 C 0.60239 0.10023 0.40333
 C762 C 0.58621 0.08050 0.41645
 H763 H 0.62680 0.06308 0.35509
 H764 H 0.66237 0.04555 0.30669
 H765 H 0.69994 0.08311 0.28159
 H766 H 0.70213 0.13836 0.30471
 H767 H 0.66206 0.22610 0.39090
 H768 H 0.62642 0.24372 0.43934
 H769 H 0.58905 0.20608 0.46465
 H770 H 0.58723 0.15052 0.44186
 C771 C 0.62770 0.62484 -0.11179
 C772 C 0.63202 0.65516 -0.09537
 C773 C 0.65396 0.67658 -0.10965
 C774 C 0.67128 0.66761 -0.14030
 C775 C 0.66716 0.63718 -0.15658
 C776 C 0.64529 0.61574 -0.14229
 C777 C 0.64155 0.58546 -0.15904
 C778 C 0.65891 0.57663 -0.18906
 C779 C 0.68031 0.59760 -0.20305
 C780 C 0.68449 0.62754 -0.18712
 C781 C 0.65804 0.70667 -0.09275
 C782 C 0.64079 0.71542 -0.06263
 C783 C 0.61918 0.69457 -0.04876
 C784 C 0.61480 0.66471 -0.06479
 C785 C 0.69237 0.69000 -0.15608
 C786 C 0.70944 0.70775 -0.17118
 C787 C 0.60616 0.60241 -0.09680
 C788 C 0.58926 0.58296 -0.08419
 H789 H 0.62516 0.56832 -0.14920
 H790 H 0.65575 0.55338 -0.20152
 H791 H 0.69377 0.59064 -0.22636
 H792 H 0.70149 0.64294 -0.19900
 H793 H 0.67461 0.72366 -0.10258
 H794 H 0.64419 0.73853 -0.05001
 H795 H 0.60582 0.70149 -0.02538
 H796 H 0.59778 0.64927 -0.05301
 C797 C 0.86723 -0.12418 -0.12094
 C798 C 0.84289 -0.13814 -0.10110
 C799 C 0.82196 -0.15997 -0.11650
 C800 C 0.82533 -0.16760 -0.15171
 C801 C 0.84922 -0.15316 -0.17168
 C802 C 0.87023 -0.13141 -0.15626
 C803 C 0.89403 -0.11743 -0.17674
 C804 C 0.89700 -0.12472 -0.21145
 C805 C 0.87648 -0.14598 -0.22651
 C806 C 0.85282 -0.16012 -0.20698
 C807 C 0.79807 -0.17386 -0.09602
 C808 C 0.79483 -0.16627 -0.06140
 C809 C 0.81514 -0.14479 -0.04640
 C810 C 0.83900 -0.13088 -0.06587
 C811 C 0.80450 -0.19062 -0.16721
 C812 C 0.78717 -0.20995 -0.17953
 C813 C 0.89002 -0.10351 -0.10471
 C814 C 0.90941 -0.08721 -0.09078
 H815 H 0.91050 -0.10070 -0.16620
 H816 H 0.91532 -0.11379 -0.22674
 H817 H 0.87889 -0.15156 -0.25348
 H818 H 0.83742 -0.17649 -0.21984
 H819 H 0.78164 -0.19065 -0.10653
 H820 H 0.77640 -0.17708 -0.04613
 H821 H 0.81239 -0.13884 -0.01954
 H822 H 0.85421 -0.11431 -0.05304
 C823 C 0.86308 0.37745 0.37963
 C824 C 0.83872 0.36339 0.39933
 C825 C 0.81800 0.34148 0.38379
 C826 C 0.82173 0.33378 0.34862
 C827 C 0.84539 0.34861 0.32871
 C828 C 0.86614 0.37050 0.34427
 C829 C 0.88976 0.38486 0.32390
 C830 C 0.89276 0.37786 0.28913
 C831 C 0.87246 0.35647 0.27392
 C832 C 0.84902 0.34192 0.29336
 C833 C 0.79399 0.32756 0.40408
 C834 C 0.79049 0.33515 0.43868
 C835 C 0.81071 0.35662 0.45386
 C836 C 0.83463 0.37059 0.43455
 C837 C 0.80173 0.31008 0.33319
 C838 C 0.78512 0.29012 0.32096
 C839 C 0.88598 0.39772 0.39612
 C840 C 0.90551 0.41358 0.41036
 H841 H 0.90605 0.40170 0.33458
 H842 H 0.91092 0.38911 0.27392
 H843 H 0.87487 0.35114 0.24690
 H844 H 0.83378 0.32547 0.28038
 H845 H 0.77763 0.31076 0.39343
 H846 H 0.77194 0.32436 0.45380
 H847 H 0.80783 0.36251 0.48072
 H848 H 0.84973 0.38719 0.44750
 C849 C 0.37040 -0.13445 0.38153
 C850 C 0.35643 -0.15956 0.39998
 C851 C 0.33560 -0.18046 0.38299
 C852 C 0.32893 -0.17620 0.34762
 C853 C 0.34326 -0.15139 0.32909
 C854 C 0.36405 -0.13046 0.34608
 C855 C 0.37799 -0.10576 0.32701
 C856 C 0.37156 -0.10184 0.29216
 C857 C 0.35122 -0.12229 0.27557
 C858 C 0.33716 -0.14682 0.29368
 C859 C 0.32177 -0.20525 0.40202
 C860 C 0.32844 -0.20937 0.43681
 C861 C 0.34890 -0.18902 0.45338
 C862 C 0.36272 -0.16430 0.43533
 C863 C 0.30708 -0.19709 0.33041
 C864 C 0.28878 -0.21442 0.31637
 C865 C 0.39053 -0.11218 0.39916
 C866 C 0.40670 -0.09326 0.41385
 H867 H 0.39400 -0.08927 0.33877
 H868 H 0.38243 -0.08283 0.27797
 H869 H 0.34630 -0.11914 0.24850
 H870 H 0.32152 -0.16213 0.27963
 H871 H 0.30575 -0.22173 0.39026
 H872 H 0.31771 -0.22849 0.45097
 H873 H 0.35413 -0.19242 0.48036
 H874 H 0.37845 -0.14906 0.44936
 C875 C 0.37356 0.36724 -0.12330
 C876 C 0.35856 0.34321 -0.10422
 C877 C 0.33772 0.32210 -0.12087
 C878 C 0.33197 0.32516 -0.15648
 C879 C 0.34750 0.34872 -0.17567
 C880 C 0.36834 0.36984 -0.15903
 C881 C 0.38344 0.39332 -0.17873
 C882 C 0.37820 0.39580 -0.21388
 C883 C 0.35785 0.37513 -0.23014
 C884 C 0.34258 0.35184 -0.21139
 C885 C 0.32294 0.29833 -0.10124
 C886 C 0.32866 0.29544 -0.06620
 C887 C 0.34904 0.31607 -0.04993
 C888 C 0.36381 0.33978 -0.06857
 C889 C 0.30972 0.30439 -0.17325
 C890 C 0.29103 0.28722 -0.18692
 C891 C 0.39349 0.38990 -0.10602
 C892 C 0.40935 0.40912 -0.09141
 H893 H 0.39951 0.40991 -0.16723
 H894 H 0.38999 0.41386 -0.22856
 H895 H 0.35387 0.37714 -0.25745
 H896 H 0.32698 0.33630 -0.22519
 H897 H 0.30692 0.28169 -0.11275
 H898 H 0.31725 0.27706 -0.05160
 H899 H 0.35348 0.31366 -0.02272
 H900 H 0.37947 0.35525 -0.05476
 C901 C 1.14466 -0.12538 0.13348
 C902 C 1.14939 -0.11350 0.16694
 C903 C 1.16817 -0.13411 0.19121
 C904 C 1.18217 -0.16647 0.18188
 C905 C 1.17891 -0.17770 0.14793
 C906 C 1.16005 -0.15711 0.12367
 C907 C 1.15679 -0.16902 0.09002
 C908 C 1.17186 -0.20033 0.08054
 C909 C 1.19036 -0.22044 0.10422
 C910 C 1.19389 -0.20940 0.13759
 C911 C 1.17222 -0.12182 0.22460
 C912 C 1.15820 -0.09004 0.23374
 C913 C 1.13987 -0.06986 0.21000
 C914 C 1.13540 -0.08134 0.17696
 C915 C 1.19838 -0.18875 0.20758
 C916 C 1.21096 -0.20762 0.22903
 C917 C 1.12233 -0.10575 0.11000
 C918 C 1.10267 -0.08946 0.09159
 H919 H 1.14274 -0.15421 0.07069
 H920 H 1.16920 -0.20902 0.05466
 H921 H 1.20205 -0.24472 0.09672
 H922 H 1.20860 -0.22588 0.15507
 H923 H 1.18638 -0.13655 0.24392
 H924 H 1.16161 -0.08100 0.25936
 H925 H 1.12907 -0.04517 0.21720
 H926 H 1.12104 -0.06468 0.15938
 C927 C 1.14247 0.37622 0.63541
 C928 C 1.15900 0.34511 0.62513
 C929 C 1.17915 0.32512 0.64890
 C930 C 1.18257 0.33636 0.68282
 C931 C 1.16741 0.36817 0.69259
 C932 C 1.14732 0.38817 0.66882
 C933 C 1.13210 0.41975 0.67932
 C934 C 1.13664 0.43123 0.71235
 C935 C 1.15627 0.41165 0.73559
 C936 C 1.17153 0.38045 0.72598
 C937 C 1.19519 0.29397 0.63815
 C938 C 1.19146 0.28288 0.60485
 C939 C 1.17172 0.30240 0.58161
 C940 C 1.15559 0.33317 0.59151
 C941 C 1.19981 0.31444 0.70817
 C942 C 1.21302 0.29581 0.72946
 C943 C 1.11889 0.39507 0.61252
 C944 C 1.09826 0.41070 0.59461
 H945 H 1.11669 0.43593 0.66213
 H946 H 1.12486 0.45546 0.71993
 H947 H 1.15972 0.42068 0.76122
 H948 H 1.18668 0.36618 0.74491
 H949 H 1.21087 0.27797 0.65529
 H950 H 1.20395 0.25902 0.59703
 H951 H 1.16891 0.29367 0.55577
 H952 H 1.14058 0.34753 0.57253
 C953 C 0.63467 -0.13914 0.64454
 C954 C 0.64282 -0.12435 0.67577
 C955 C 0.66458 -0.14262 0.69947
 C956 C 0.67799 -0.17559 0.69186
 C957 C 0.67052 -0.19010 0.66029
 C958 C 0.64876 -0.17182 0.63656
 C959 C 0.64141 -0.18693 0.60531
 C960 C 0.65515 -0.21920 0.59769
 C961 C 0.67642 -0.23708 0.62089
 C962 C 0.68412 -0.22282 0.65187
 C963 C 0.67221 -0.12739 0.73060
 C964 C 0.65871 -0.09503 0.73811
 C965 C 0.63741 -0.07716 0.71495
 C966 C 0.62947 -0.09152 0.68411
 C967 C 0.69748 -0.19527 0.71746
 C968 C 0.71218 -0.21200 0.73941
 C969 C 0.61181 -0.12060 0.62078
 C970 C 0.59302 -0.10427 0.60161
 H971 H 0.62499 -0.17399 0.58647
 H972 H 0.64924 -0.23039 0.57367
 H973 H 0.68698 -0.26215 0.61486
 H974 H 0.70088 -0.23768 0.66904
 H975 H 0.68873 -0.14026 0.74939
 H976 H 0.66483 -0.08376 0.76202
 H977 H 0.62696 -0.05203 0.72091
 H978 H 0.61278 -0.07660 0.66695
 C979 C 0.63349 0.35793 0.13777
 C980 C 0.65459 0.37415 0.15960
 C981 C 0.67566 0.35541 0.18350
 C982 C 0.67545 0.32063 0.18540
 C983 C 0.65515 0.30429 0.16284
 C984 C 0.63407 0.32303 0.13894
 C985 C 0.61373 0.30626 0.11684
 C986 C 0.61424 0.27190 0.11830
 C987 C 0.63487 0.25353 0.14168
 C988 C 0.65512 0.26941 0.16378
 C989 C 0.69634 0.37213 0.20528
 C990 C 0.69622 0.40644 0.20347
 C991 C 0.67558 0.42480 0.18010
 C992 C 0.65496 0.40899 0.15835
 C993 C 0.69433 0.30188 0.21196
 C994 C 0.70855 0.28585 0.23461
 C995 C 0.61074 0.37732 0.11471
 C996 C 0.59212 0.39435 0.09606
 H997 H 0.59730 0.31950 0.09820
 H998 H 0.59854 0.25946 0.10119
 H999 H 0.63518 0.22684 0.14271
 H1000 H 0.67080 0.25405 0.18146
 H1001 H 0.71287 0.35887 0.22382
 H1002 H 0.71221 0.41883 0.22029
 H1003 H 0.67556 0.45145 0.17879
 H1004 H 0.63938 0.42435 0.14058
 C1005 C 0.86048 0.13202 0.13930
 C1006 C 0.86424 0.16619 0.14222
 C1007 C 0.84590 0.18585 0.16744
 C1008 C 0.82388 0.17123 0.18952
 C1009 C 0.81954 0.13722 0.18607
 C1010 C 0.83788 0.11758 0.16086
 C1011 C 0.83321 0.08364 0.15797
 C1012 C 0.81103 0.06949 0.17934
 C1013 C 0.79312 0.08867 0.20402
 C1014 C 0.79722 0.12214 0.20747
 C1015 C 0.85019 0.21989 0.17003
 C1016 C 0.87196 0.23414 0.14826
 C1017 C 0.88988 0.21494 0.12358
 C1018 C 0.88619 0.18134 0.12049
 C1019 C 0.80568 0.19088 0.21591
 C1020 C 0.78978 0.20586 0.23820
 C1021 C 0.88095 0.11140 0.11524
 C1022 C 0.89875 0.09413 0.09606
 H1023 H 0.84653 0.06771 0.13911
 H1024 H 0.80773 0.04351 0.17674
 H1025 H 0.77592 0.07757 0.22058
 H1026 H 0.78269 0.13600 0.22705
 H1027 H 0.83677 0.23581 0.18883
 H1028 H 0.87493 0.26022 0.15055
 H1029 H 0.90673 0.22614 0.10671
 H1030 H 0.90060 0.16744 0.10086
 C1031 C 0.86270 0.63733 0.64317
 C1032 C 0.83181 0.65585 0.63423
 C1033 C 0.81408 0.67693 0.65876
 C1034 C 0.82730 0.67931 0.69211
 C1035 C 0.85866 0.66157 0.70074
 C1036 C 0.87640 0.64051 0.67623
 C1037 C 0.90762 0.62288 0.68557
 C1038 C 0.92094 0.62599 0.71814
 C1039 C 0.90359 0.64657 0.74209
 C1040 C 0.87279 0.66419 0.73364
 C1041 C 0.78319 0.69509 0.64928
 C1042 C 0.77022 0.69256 0.61647
 C1043 C 0.78753 0.67194 0.59250
 C1044 C 0.81798 0.65371 0.60115
 C1045 C 0.80773 0.69820 0.71817
 C1046 C 0.79098 0.71241 0.74038
 C1047 C 0.88055 0.61500 0.61859
 C1048 C 0.89647 0.59642 0.59900
 H1049 H 0.92210 0.60657 0.66785
 H1050 H 0.94486 0.61235 0.72482
 H1051 H 0.91406 0.64891 0.76736
 H1052 H 0.86030 0.67997 0.75312
 H1053 H 0.76887 0.71154 0.66701
 H1054 H 0.74662 0.70671 0.60960
 H1055 H 0.77732 0.67007 0.56706
 H1056 H 0.83055 0.63802 0.58165
 C1057 C 0.37702 0.14615 0.63283
 C1058 C 0.34509 0.16168 0.62277
 C1059 C 0.32507 0.18181 0.64638
 C1060 C 0.33716 0.18629 0.67984
 C1061 C 0.36988 0.17240 0.68922
 C1062 C 0.38989 0.15225 0.66563
 C1063 C 0.42234 0.13818 0.67576
 C1064 C 0.43468 0.14390 0.70825
 C1065 C 0.41510 0.16362 0.73132
 C1066 C 0.38304 0.17776 0.72206
 C1067 C 0.29300 0.19666 0.63597
 C1068 C 0.28109 0.19184 0.60311
 C1069 C 0.30069 0.17217 0.58000
 C1070 C 0.33234 0.15716 0.58960
 C1071 C 0.31505 0.20284 0.70537
 C1072 C 0.29625 0.21517 0.72697
 C1073 C 0.39551 0.12194 0.61064
 C1074 C 0.41066 0.10067 0.59339
 H1075 H 0.43855 0.12276 0.65866
 H1076 H 0.45957 0.13298 0.71556
 H1077 H 0.42480 0.16801 0.75652
 H1078 H 0.36879 0.19303 0.74082
 H1079 H 0.27691 0.21226 0.65303
 H1080 H 0.25653 0.20344 0.59554
 H1081 H 0.29134 0.16852 0.55449
 H1082 H 0.34675 0.14216 0.57073
 C1083 C 0.37532 0.64338 0.13334
 C1084 C 0.34357 0.65936 0.12332
 C1085 C 0.32347 0.67910 0.14721
 C1086 C 0.33521 0.68258 0.18099
 C1087 C 0.36774 0.66815 0.19042
 C1088 C 0.38788 0.64852 0.16650
 C1089 C 0.42019 0.63403 0.17663
 C1090 C 0.43227 0.63886 0.20943
 C1091 C 0.41255 0.65803 0.23282
 C1092 C 0.38062 0.67254 0.22357
 C1093 C 0.29169 0.69463 0.13672
 C1094 C 0.28010 0.69080 0.10355
 C1095 C 0.29972 0.67143 0.08022
 C1096 C 0.33110 0.65579 0.08987
 C1097 C 0.31300 0.69892 0.20660
 C1098 C 0.29406 0.71126 0.22809
 C1099 C 0.39411 0.61993 0.11054
 C1100 C 0.40961 0.59935 0.09273
 H1101 H 0.43650 0.61901 0.15930
 H1102 H 0.45707 0.62766 0.21671
 H1103 H 0.42205 0.66172 0.25825
 H1104 H 0.36625 0.68736 0.24260
 H1105 H 0.27560 0.71003 0.15394
 H1106 H 0.25578 0.70295 0.09592
 H1107 H 0.29060 0.66853 0.05449
 H1108 H 0.34553 0.64107 0.07081
   
