data_POSCAR
  _audit_creation_date              2014-09-24
  _audit_creation_method            'ToBaCCo'
  _symmetry_space_group_name_H-M    'P1'
  _symmetry_Int_Tables_number       1
  _symmetry_cell_setting            triclinic
  loop_
  _symmetry_equiv_pos_as_xyz
 x,y,z
_cell_length_a 43.8416
_cell_length_b 42.9513
_cell_length_c 16.8421
_cell_angle_alpha 90.151500
_cell_angle_beta 89.824100
_cell_angle_gamma 89.896300
loop_
  _atom_site_label
  _atom_site_type_symbol
  _atom_site_fract_x
  _atom_site_fract_y
  _atom_site_fract_z
O1 O 0.23055 0.27565 0.15104
 O2 O 0.28809 0.21940 0.21942
 O3 O 0.23481 0.21309 0.16716
 O4 O 0.28670 0.27817 0.21217
 O5 O 0.26716 0.28095 0.33282
 O6 O 0.20807 0.22516 0.27388
 O7 O 0.26536 0.21900 0.33638
 O8 O 0.21468 0.28302 0.27412
 Cu9 Cu 0.26121 0.24691 0.17417
 Cu10 Cu 0.23742 0.25115 0.31733
 C11 C 0.21348 0.28971 0.20081
 C12 C 0.28621 0.20914 0.28981
 C13 C 0.21169 0.20893 0.21147
 C14 C 0.28655 0.28990 0.28160
 O15 O 0.78935 0.27953 0.29322
 O16 O 0.73347 0.22028 0.35572
 O17 O 0.78907 0.21866 0.30124
 O18 O 0.73397 0.28070 0.34993
 O19 O 0.71602 0.27866 0.22785
 O20 O 0.77148 0.21710 0.17864
 O21 O 0.71570 0.21825 0.23360
 O22 O 0.77142 0.27722 0.17108
 Cu23 Cu 0.76333 0.25001 0.33721
 Cu24 Cu 0.74184 0.24758 0.19062
 C25 C 0.78999 0.28841 0.22127
 C26 C 0.71480 0.20921 0.30538
 C27 C 0.78979 0.20741 0.23145
 C28 C 0.71539 0.29014 0.29746
 O29 O 0.71307 0.71867 0.78130
 O30 O 0.76907 0.77816 0.83997
 O31 O 0.71356 0.77944 0.78591
 O32 O 0.76840 0.71770 0.83650
 O33 O 0.78627 0.71852 0.71412
 O34 O 0.73120 0.78009 0.66308
 O35 O 0.78691 0.77912 0.71743
 O36 O 0.73077 0.71988 0.65856
 Cu37 Cu 0.73920 0.74841 0.82316
 Cu38 Cu 0.76063 0.74950 0.67606
 C39 C 0.71226 0.70921 0.70978
 C40 C 0.78767 0.78876 0.78879
 C41 C 0.71289 0.79022 0.71577
 C42 C 0.78688 0.70754 0.78417
 O43 O 0.22777 0.72129 0.82422
 O44 O 0.28411 0.78126 0.77314
 O45 O 0.22837 0.78203 0.82431
 O46 O 0.28341 0.72059 0.77003
 O47 O 0.26665 0.72166 0.64666
 O48 O 0.21105 0.78229 0.70166
 O49 O 0.26724 0.78189 0.64982
 O50 O 0.21079 0.72156 0.70112
 Cu51 Cu 0.25758 0.75118 0.81027
 Cu52 Cu 0.23714 0.75189 0.66255
 C53 C 0.20965 0.71108 0.77160
 C54 C 0.28537 0.79182 0.70286
 C55 C 0.21026 0.79281 0.77227
 C56 C 0.28463 0.71084 0.69877
 C57 C 1.01706 0.07079 0.16403
 C58 C 0.98581 0.06981 0.16925
 C59 C 0.97600 0.05052 0.10852
 N60 N 1.00005 0.04042 0.06520
 C61 C 1.02521 0.05311 0.09821
 C62 C 0.94532 0.04501 0.08803
 C63 C 0.93634 0.01961 0.03993
 C64 C 0.90732 0.01525 0.00914
 C65 C 0.90745 -0.01322 -0.02847
 C66 C 0.93649 -0.02550 -0.01946
 N67 N 0.95387 -0.00546 0.02273
 C68 C 0.94577 -0.05531 -0.04584
 C69 C 0.97670 -0.06415 -0.05183
 C70 C 0.98707 -0.09419 -0.06558
 C71 C 1.01823 -0.09237 -0.07223
 C72 C 1.02574 -0.06125 -0.06262
 N73 N 1.00034 -0.04405 -0.05039
 C74 C 1.05529 -0.04874 -0.07060
 C75 C 1.06198 -0.01746 -0.05239
 C76 C 1.08679 -0.00112 -0.08138
 C77 C 1.08621 0.02763 -0.04502
 C78 C 1.06159 0.02763 0.00715
 N79 N 1.04664 0.00018 0.00099
 C80 C 1.05471 0.05118 0.06377
 H81 H 1.03192 0.08359 0.20349
 H82 H 0.97203 0.08193 0.21286
 H83 H 1.02934 -0.00768 0.03842
 H84 H 0.88783 0.03060 0.01445
 H85 H 0.88825 -0.02380 -0.05835
 H86 H 0.97360 -0.11519 -0.07060
 H87 H 1.03353 -0.11168 -0.08367
 H88 H 1.10242 0.04616 -0.05515
 H89 H 0.97539 -0.01010 0.04579
 H90 H 1.10350 -0.00912 -0.12427
 C91 C 0.48260 0.58746 0.60382
 C92 C 0.51386 0.58753 0.60460
 C93 C 0.52324 0.56114 0.56363
 N94 N 0.49872 0.54520 0.53718
 C95 C 0.47382 0.56103 0.56240
 C96 C 0.55398 0.55343 0.54687
 C97 C 0.56321 0.52577 0.50762
 C98 C 0.59235 0.52023 0.47831
 C99 C 0.59253 0.49043 0.44853
 C100 C 0.56361 0.47837 0.46106
 N101 N 0.54594 0.49999 0.49750
 C102 C 0.55490 0.44746 0.44288
 C103 C 0.52432 0.43712 0.44277
 C104 C 0.51540 0.40633 0.43470
 C105 C 0.48413 0.40632 0.43343
 C106 C 0.47497 0.43710 0.44078
 N107 N 0.49957 0.45590 0.44610
 C108 C 0.44436 0.44741 0.43858
 C109 C 0.43522 0.47826 0.45665
 C110 C 0.40635 0.49023 0.44257
 C111 C 0.40595 0.51996 0.47289
 C112 C 0.43470 0.52556 0.50400
 N113 N 0.45228 0.49988 0.49449
 C114 C 0.44331 0.55320 0.54405
 H115 H 0.46808 0.60524 0.62955
 H116 H 0.52800 0.60536 0.63108
 H117 H 0.47338 0.49605 0.52039
 H118 H 0.61168 0.53585 0.47883
 H119 H 0.61192 0.47885 0.42154
 H120 H 0.52989 0.38598 0.43013
 H121 H 0.46980 0.38595 0.42772
 H122 H 0.38650 0.53549 0.47250
 H123 H 0.52460 0.49612 0.52224
 H124 H 0.38736 0.47864 0.41424
 C125 C -0.01730 0.59079 -0.07990
 C126 C 0.01396 0.59103 -0.08239
 C127 C 0.02336 0.56036 -0.07456
 N128 N -0.00109 0.54142 -0.06770
 C129 C -0.02598 0.56000 -0.07052
 C130 C 0.05405 0.55028 -0.07745
 C131 C 0.06337 0.51953 -0.05965
 C132 C 0.09222 0.50760 -0.07491
 C133 C 0.09283 0.47797 -0.04426
 C134 C 0.06426 0.47247 -0.01154
 N135 N 0.04655 0.49802 -0.02072
 C136 C 0.05604 0.44517 0.03017
 C137 C 0.02572 0.43741 0.05111
 C138 C 0.01743 0.41148 0.09498
 C139 C -0.01381 0.41136 0.09842
 C140 C -0.02367 0.43724 0.05660
 N141 N 0.00054 0.45289 0.02701
 C142 C -0.05459 0.44473 0.04205
 C143 C -0.06422 0.47197 0.00199
 C144 C -0.09359 0.47714 -0.02559
 C145 C -0.09404 0.50658 -0.05737
 C146 C -0.06504 0.51881 -0.04768
 N147 N -0.04708 0.49764 -0.01099
 C148 C -0.05650 0.54948 -0.06858
 H149 H -0.03194 0.61102 -0.08434
 H150 H 0.02811 0.61147 -0.08916
 H151 H -0.02554 0.50182 0.01190
 H152 H 0.11103 0.51917 -0.10422
 H153 H 0.11229 0.46245 -0.04531
 H154 H 0.03228 0.39410 0.12078
 H155 H -0.02762 0.39386 0.12735
 H156 H -0.11365 0.51781 -0.08378
 H157 H 0.02561 0.50194 0.00635
 H158 H -0.11288 0.46151 -0.02272
 C159 C 0.51609 1.09842 0.46772
 C160 C 0.48481 1.09838 0.46715
 C161 C 0.47582 1.06764 0.47565
 N162 N 0.50054 1.04893 0.48120
 C163 C 0.52519 1.06770 0.47668
 C164 C 0.44528 1.05723 0.47317
 C165 C 0.43633 1.02631 0.49008
 C166 C 0.40765 1.01421 0.47455
 C167 C 0.40755 0.98421 0.50253
 C168 C 0.43628 0.97857 0.53377
 N169 N 0.45355 1.00452 0.52677
 C170 C 0.44515 0.95053 0.57129
 C171 C 0.47568 0.94282 0.58990
 C172 C 0.48461 0.91603 0.62933
 C173 C 0.51587 0.91616 0.63071
 C174 C 0.52510 0.94303 0.59208
 N175 N 0.50048 0.95910 0.56655
 C176 C 0.55580 0.95097 0.57604
 C177 C 0.56491 0.97903 0.53896
 C178 C 0.59401 0.98486 0.51001
 C179 C 0.59393 1.01476 0.48131
 C180 C 0.56489 1.02662 0.49415
 N181 N 0.54743 1.00479 0.52996
 C182 C 0.55581 1.05741 0.47585
 H183 H 0.53048 1.11873 0.46179
 H184 H 0.47036 1.11866 0.46067
 H185 H 0.52597 1.00837 0.55439
 H186 H 0.38863 1.02584 0.44642
 H187 H 0.38832 0.96849 0.50030
 H188 H 0.47020 0.89788 0.65327
 H189 H 0.53010 0.89813 0.65593
 H190 H 0.61320 1.02649 0.45451
 H191 H 0.47458 1.00824 0.55313
 H192 H 0.61345 0.96931 0.50972
 C193 C 1.14599 0.14251 0.14891
 C194 C 1.17701 0.13450 0.14496
 C195 C 1.19898 0.15731 0.16168
 C196 C 1.18994 0.18669 0.19105
 C197 C 1.15866 0.19367 0.19908
 C198 C 1.13663 0.17227 0.17360
 C199 C 1.12283 0.11928 0.12670
 C200 C 1.09217 0.12831 0.12155
 C201 C 1.07051 0.10656 0.09602
 C202 C 1.07853 0.07493 0.08521
 C203 C 1.10939 0.06613 0.09485
 C204 C 1.13181 0.08853 0.11103
 C205 C 1.10552 0.18014 0.17083
 C206 C 1.08377 0.15880 0.14296
 C207 C 1.18529 0.10376 0.12566
 C208 C 1.16302 0.08094 0.11126
 H209 H 1.09803 0.20318 0.18864
 H210 H 1.06009 0.16598 0.14007
 H211 H 1.20913 0.09713 0.12342
 H212 H 1.17031 0.05734 0.09840
 H213 H 1.22303 0.15162 0.15675
 H214 H 1.15156 0.21647 0.22007
 H215 H 1.04726 0.11418 0.08634
 H216 H 1.11609 0.04197 0.08829
 C217 C 0.64549 0.64202 0.63986
 C218 C 0.65926 0.66084 0.58197
 C219 C 0.68143 0.68250 0.60514
 C220 C 0.68942 0.68578 0.68569
 C221 C 0.67523 0.66683 0.74303
 C222 C 0.65341 0.64471 0.72033
 C223 C 0.62221 0.61916 0.61581
 C224 C 0.60872 0.60004 0.67360
 C225 C 0.58668 0.57827 0.65036
 C226 C 0.57787 0.57602 0.57038
 C227 C 0.59132 0.59548 0.51322
 C228 C 0.61379 0.61696 0.53555
 C229 C 0.63933 0.62525 0.77642
 C230 C 0.61745 0.60320 0.75339
 C231 C 0.65044 0.65777 0.50219
 C232 C 0.62799 0.63629 0.47942
 H233 H 0.64530 0.62705 0.83864
 H234 H 0.60717 0.58861 0.79848
 H235 H 0.66087 0.67221 0.45702
 H236 H 0.62174 0.63476 0.41734
 H237 H 0.69208 0.69715 0.56071
 H238 H 0.68137 0.66910 0.80508
 H239 H 0.57609 0.56329 0.69417
 H240 H 0.58434 0.59369 0.45168
 C241 C -0.14431 0.35574 0.14488
 C242 C -0.15834 0.33636 0.08860
 C243 C -0.18004 0.31460 0.11402
 C244 C -0.18738 0.31178 0.19521
 C245 C -0.17289 0.33124 0.25096
 C246 C -0.15150 0.35347 0.22599
 C247 C -0.12156 0.37877 0.11837
 C248 C -0.10781 0.39845 0.17452
 C249 C -0.08624 0.42035 0.14892
 C250 C -0.07817 0.42219 0.06819
 C251 C -0.09193 0.40218 0.01271
 C252 C -0.11390 0.38057 0.03742
 C253 C -0.13717 0.37349 0.28039
 C254 C -0.11578 0.39568 0.25505
 C255 C -0.15027 0.33903 0.00809
 C256 C -0.12833 0.36067 -0.01703
 H257 H -0.14256 0.37203 0.34309
 H258 H -0.10529 0.41069 0.29893
 H259 H -0.16091 0.32416 -0.03585
 H260 H -0.12266 0.36187 -0.07960
 H261 H -0.19091 0.29958 0.07075
 H262 H -0.17850 0.32932 0.31348
 H263 H -0.07541 0.43572 0.19148
 H264 H -0.08551 0.40362 -0.04939
 C265 C 0.35266 0.86032 0.64588
 C266 C 0.34337 0.85654 0.72513
 C267 C 0.32133 0.83405 0.74336
 C268 C 0.30827 0.81576 0.68285
 C269 C 0.31754 0.82016 0.60352
 C270 C 0.33998 0.84222 0.58479
 C271 C 0.37624 0.88355 0.62659
 C272 C 0.38606 0.88684 0.54756
 C273 C 0.40879 0.90868 0.52976
 C274 C 0.42112 0.92743 0.59017
 C275 C 0.41095 0.92407 0.66888
 C276 C 0.38862 0.90193 0.68760
 C277 C 0.35019 0.84638 0.50637
 C278 C 0.37293 0.86822 0.48811
 C279 C 0.35636 0.87528 0.78454
 C280 C 0.37852 0.89769 0.76605
 H281 H 0.34063 0.83252 0.45874
 H282 H 0.38027 0.87059 0.42694
 H283 H 0.34932 0.87263 0.84587
 H284 H 0.38793 0.91169 0.81360
 H285 H 0.31417 0.83094 0.80449
 H286 H 0.30773 0.80602 0.55671
 H287 H 0.41681 0.91134 0.46920
 H288 H 0.42067 0.93850 0.71522
 C289 C -0.14844 0.63888 -0.15515
 C290 C -0.16917 0.64950 -0.09747
 C291 C -0.19081 0.67214 -0.11810
 C292 C -0.19183 0.68431 -0.19596
 C293 C -0.17085 0.67306 -0.25315
 C294 C -0.14913 0.65043 -0.23299
 C295 C -0.12535 0.61541 -0.13339
 C296 C -0.10441 0.60500 -0.19095
 C297 C -0.08221 0.58307 -0.16964
 C298 C -0.08085 0.57177 -0.09143
 C299 C -0.10211 0.58217 -0.03454
 C300 C -0.12446 0.60407 -0.05524
 C301 C -0.12793 0.63929 -0.28905
 C302 C -0.10595 0.61695 -0.26839
 C303 C -0.16772 0.63743 -0.02007
 C304 C -0.14573 0.61511 0.00069
 H305 H -0.12824 0.64800 -0.34935
 H306 H -0.08993 0.60909 -0.31330
 H307 H -0.18362 0.64543 0.02497
 H308 H -0.14530 0.60653 0.06111
 H309 H -0.20667 0.68036 -0.07316
 H310 H -0.17118 0.68201 -0.31328
 H311 H -0.06578 0.57494 -0.21329
 H312 H -0.10092 0.57344 0.02572
 C313 C 0.35304 1.14321 0.36837
 C314 C 0.35379 1.15395 0.28979
 C315 C 0.33161 1.17518 0.26452
 C316 C 0.30876 1.18582 0.31716
 C317 C 0.30821 1.17461 0.39575
 C318 C 0.33037 1.15330 0.42169
 C319 C 0.37660 1.12113 0.39542
 C320 C 0.37600 1.11045 0.47417
 C321 C 0.39858 1.08956 0.49959
 C322 C 0.42149 1.07952 0.44669
 C323 C 0.42171 1.09032 0.36799
 C324 C 0.39932 1.11121 0.34201
 C325 C 0.33047 1.14201 0.49996
 C326 C 0.35289 1.12094 0.52574
 C327 C 0.37683 1.14342 0.23808
 C328 C 0.39922 1.12240 0.26376
 H329 H 0.31311 1.14958 0.54170
 H330 H 0.35216 1.11286 0.58660
 H331 H 0.37761 1.15157 0.17728
 H332 H 0.41663 1.11489 0.22206
 H333 H 0.33233 1.18358 0.20392
 H334 H 0.29079 1.18265 0.43679
 H335 H 0.39848 1.08109 0.56018
 H336 H 0.43933 1.08238 0.32735
 C337 C 1.14716 -0.13698 -0.16522
 C338 C 1.16845 -0.14723 -0.10894
 C339 C 1.18936 -0.17060 -0.12997
 C340 C 1.18934 -0.18362 -0.20712
 C341 C 1.16793 -0.17263 -0.26308
 C342 C 1.14668 -0.14953 -0.24222
 C343 C 1.12461 -0.11299 -0.14267
 C344 C 1.10269 -0.10340 -0.19824
 C345 C 1.08052 -0.08152 -0.17538
 C346 C 1.08036 -0.06937 -0.09776
 C347 C 1.10291 -0.07854 -0.04346
 C348 C 1.12498 -0.10061 -0.06539
 C349 C 1.12474 -0.13895 -0.29660
 C350 C 1.10305 -0.11636 -0.27490
 C351 C 1.16828 -0.13406 -0.03247
 C352 C 1.14695 -0.11109 -0.01111
 H353 H 1.12413 -0.14845 -0.35622
 H354 H 1.08631 -0.10913 -0.31832
 H355 H 1.18466 -0.14171 0.01143
 H356 H 1.14746 -0.10172 0.04865
 H357 H 1.20564 -0.17853 -0.08608
 H358 H 1.16743 -0.18228 -0.32262
 H359 H 1.06302 -0.07440 -0.21693
 H360 H 1.10253 -0.06924 0.01645
 C361 C 0.64812 0.35879 0.35810
 C362 C 0.66932 0.34931 0.41553
 C363 C 0.69152 0.32712 0.39510
 C364 C 0.69257 0.31437 0.31790
 C365 C 0.67124 0.32439 0.26091
 C366 C 0.64893 0.34655 0.28074
 C367 C 0.62445 0.38177 0.37959
 C368 C 0.60310 0.39108 0.32227
 C369 C 0.58048 0.41272 0.34321
 C370 C 0.57915 0.42485 0.42080
 C371 C 0.60074 0.41544 0.47751
 C372 C 0.62349 0.39384 0.45719
 C373 C 0.62728 0.35655 0.22495
 C374 C 0.60475 0.37844 0.24536
 C375 C 0.66773 0.36203 0.49240
 C376 C 0.64520 0.38392 0.51288
 H377 H 0.62767 0.34728 0.16505
 H378 H 0.58842 0.38545 0.20065
 H379 H 0.68397 0.35492 0.53722
 H380 H 0.64472 0.39308 0.57288
 H381 H 0.70778 0.31962 0.43950
 H382 H 0.67177 0.31475 0.20138
 H383 H 0.56384 0.42013 0.29965
 H384 H 0.59960 0.42485 0.53725
 C385 C 0.85443 -0.14381 -0.14141
 C386 C 0.83326 -0.15464 -0.08526
 C387 C 0.81135 -0.17657 -0.10853
 C388 C 0.81053 -0.18768 -0.18735
 C389 C 0.83191 -0.17641 -0.24294
 C390 C 0.85393 -0.15450 -0.22025
 C391 C 0.87767 -0.12094 -0.11709
 C392 C 0.89894 -0.11021 -0.17320
 C393 C 0.92108 -0.08861 -0.14964
 C394 C 0.92204 -0.07792 -0.07065
 C395 C 0.90053 -0.08877 -0.01517
 C396 C 0.87825 -0.11035 -0.03811
 C397 C 0.87553 -0.14315 -0.27472
 C398 C 0.89765 -0.12138 -0.25159
 C399 C 0.83450 -0.14343 -0.00688
 C400 C 0.85662 -0.12165 0.01630
 H401 H 0.87538 -0.15122 -0.33572
 H402 H 0.91393 -0.11327 -0.29540
 H403 H 0.81828 -0.15160 0.03698
 H404 H 0.85683 -0.11364 0.07736
 H405 H 0.79505 -0.18503 -0.06520
 H406 H 0.83155 -0.18478 -0.30369
 H407 H 0.93763 -0.08009 -0.19232
 H408 H 0.90136 -0.08050 0.04566
 C409 C 0.35292 0.35841 0.34687
 C410 C 0.35326 0.34606 0.26958
 C411 C 0.33132 0.32385 0.24814
 C412 C 0.30920 0.31396 0.30347
 C413 C 0.30914 0.32681 0.38061
 C414 C 0.33096 0.34900 0.40263
 C415 C 0.37614 0.38149 0.37007
 C416 C 0.37591 0.39365 0.44760
 C417 C 0.39823 0.41533 0.46959
 C418 C 0.42054 0.42476 0.41457
 C419 C 0.42039 0.41253 0.33700
 C420 C 0.39822 0.39078 0.31442
 C421 C 0.33138 0.36181 0.47949
 C422 C 0.35348 0.38376 0.50160
 C423 C 0.37565 0.35604 0.21550
 C424 C 0.39775 0.37803 0.23753
 H425 H 0.31453 0.35474 0.52301
 H426 H 0.35306 0.39299 0.56152
 H427 H 0.37615 0.34671 0.15568
 H428 H 0.41466 0.38503 0.19410
 H429 H 0.33162 0.31415 0.18867
 H430 H 0.29227 0.31942 0.42376
 H431 H 0.39847 0.42479 0.52933
 H432 H 0.43760 0.41994 0.29476
 C433 C 0.14412 0.64130 -0.16565
 C434 C 0.16538 0.65136 -0.10900
 C435 C 0.18678 0.67413 -0.13001
 C436 C 0.18707 0.68685 -0.20711
 C437 C 0.16561 0.67635 -0.26331
 C438 C 0.14405 0.65362 -0.24281
 C439 C 0.12138 0.61756 -0.14358
 C440 C 0.09994 0.60766 -0.20006
 C441 C 0.07815 0.58535 -0.17843
 C442 C 0.07775 0.57315 -0.10100
 C443 C 0.09949 0.58308 -0.04527
 C444 C 0.12139 0.60537 -0.06623
 C445 C 0.12233 0.64302 -0.29777
 C446 C 0.10064 0.62044 -0.27675
 C447 C 0.16475 0.63851 -0.03236
 C448 C 0.14313 0.61590 -0.01134
 H449 H 0.12203 0.65232 -0.35750
 H450 H 0.08423 0.61300 -0.32083
 H451 H 0.18107 0.64606 0.01183
 H452 H 0.14337 0.60666 0.04845
 H453 H 0.20316 0.68194 -0.08625
 H454 H 0.16557 0.68596 -0.32275
 H455 H 0.06136 0.57758 -0.22121
 H456 H 0.09905 0.57365 0.01438
 C457 C 0.64828 1.14418 0.37722
 C458 C 0.64914 1.15410 0.29792
 C459 C 0.67150 1.17545 0.27416
 C460 C 0.69292 1.18716 0.32919
 C461 C 0.69168 1.17672 0.40866
 C462 C 0.66944 1.15525 0.43285
 C463 C 0.62465 1.12188 0.40257
 C464 C 0.62377 1.11195 0.48198
 C465 C 0.60119 1.09081 0.50578
 C466 C 0.57968 1.07981 0.45071
 C467 C 0.58086 1.08991 0.37142
 C468 C 0.60335 1.11098 0.34695
 C469 C 0.66786 1.14474 0.51173
 C470 C 0.64544 1.12343 0.53585
 C471 C 0.62750 1.14258 0.24397
 C472 C 0.60498 1.12140 0.26808
 H473 H 0.68408 1.15308 0.55523
 H474 H 0.64501 1.11595 0.59722
 H475 H 0.62792 1.15006 0.18259
 H476 H 0.58868 1.11315 0.22464
 H477 H 0.67196 1.18310 0.21287
 H478 H 0.70788 1.18532 0.45197
 H479 H 0.60018 1.08292 0.56682
 H480 H 0.56427 1.08126 0.32916
 C481 C 0.14863 0.35799 0.12510
 C482 C 0.15793 0.35735 0.20476
 C483 C 0.17937 0.33511 0.22883
 C484 C 0.19175 0.31378 0.17375
 C485 C 0.18259 0.31509 0.09371
 C486 C 0.16079 0.33701 0.06919
 C487 C 0.12543 0.38080 0.10003
 C488 C 0.11550 0.38094 0.02078
 C489 C 0.09287 0.40221 -0.00221
 C490 C 0.08063 0.42331 0.05340
 C491 C 0.09105 0.42318 0.13220
 C492 C 0.11334 0.40179 0.15606
 C493 C 0.15057 0.33813 -0.00978
 C494 C 0.12823 0.35965 -0.03351
 C495 C 0.14540 0.37879 0.25897
 C496 C 0.12354 0.40071 0.23497
 H497 H 0.15973 0.32206 -0.05348
 H498 H 0.12082 0.35956 -0.09482
 H499 H 0.15248 0.37857 0.32054
 H500 H 0.11438 0.41677 0.27868
 H501 H 0.18642 0.33439 0.29044
 H502 H 0.19187 0.29864 0.05107
 H503 H 0.08465 0.40239 -0.06285
 H504 H 0.08140 0.43943 0.17481
 C505 C 0.64695 0.85984 0.65581
 C506 C 0.66029 0.84179 0.59531
 C507 C 0.68224 0.81937 0.61520
 C508 C 0.69042 0.81455 0.69507
 C509 C 0.67669 0.83276 0.75504
 C510 C 0.65510 0.85563 0.73565
 C511 C 0.62386 0.88345 0.63522
 C512 C 0.61077 0.90176 0.69566
 C513 C 0.58883 0.92419 0.67571
 C514 C 0.57974 0.92789 0.59632
 C515 C 0.59283 0.90925 0.53649
 C516 C 0.61517 0.88713 0.55555
 C517 C 0.64144 0.87433 0.79445
 C518 C 0.61973 0.89709 0.77475
 C519 C 0.65123 0.84637 0.51622
 C520 C 0.62895 0.86856 0.49672
 H521 H 0.64758 0.87136 0.85623
 H522 H 0.60976 0.91103 0.82188
 H523 H 0.66132 0.83254 0.46904
 H524 H 0.62249 0.87123 0.43507
 H525 H 0.69253 0.80529 0.56876
 H526 H 0.68297 0.82931 0.81659
 H527 H 0.57851 0.93852 0.72161
 H528 H 0.58562 0.91214 0.47543
 C529 C 0.85564 0.13754 0.17139
 C530 C 0.84436 0.15731 0.11199
 C531 C 0.82245 0.17982 0.13198
 C532 C 0.81234 0.18309 0.21098
 C533 C 0.82409 0.16328 0.27003
 C534 C 0.84554 0.14019 0.25033
 C535 C 0.87856 0.11369 0.15052
 C536 C 0.88944 0.09345 0.20951
 C537 C 0.91106 0.07062 0.18900
 C538 C 0.92215 0.06862 0.11070
 C539 C 0.91125 0.08924 0.05259
 C540 C 0.88918 0.11163 0.07193
 C541 C 0.85709 0.11967 0.30782
 C542 C 0.87854 0.09659 0.28767
 C543 C 0.85535 0.15431 0.03390
 C544 C 0.87751 0.13195 0.01430
 H545 H 0.84941 0.12140 0.36887
 H546 H 0.88678 0.08120 0.33377
 H547 H 0.84687 0.16949 -0.01238
 H548 H 0.88550 0.13050 -0.04654
 H549 H 0.81369 0.19519 0.08642
 H550 H 0.81626 0.16559 0.33088
 H551 H 0.91950 0.05464 0.23359
 H552 H 0.91985 0.08755 -0.00772
 C553 C 0.35118 0.64246 0.63229
 C554 C 0.33799 0.66130 0.57363
 C555 C 0.31587 0.68332 0.59569
 C556 C 0.30734 0.68694 0.67592
 C557 C 0.32091 0.66794 0.73404
 C558 C 0.34269 0.64547 0.71243
 C559 C 0.37447 0.61928 0.60940
 C560 C 0.38740 0.60017 0.66795
 C561 C 0.40956 0.57819 0.64585
 C562 C 0.41904 0.57574 0.56626
 C563 C 0.40608 0.59515 0.50833
 C564 C 0.38351 0.61682 0.52950
 C565 C 0.35620 0.62598 0.76930
 C566 C 0.37809 0.60362 0.74738
 C567 C 0.34739 0.65793 0.49421
 C568 C 0.36986 0.63616 0.47257
 H569 H 0.34979 0.62801 0.83128
 H570 H 0.38794 0.58905 0.79307
 H571 H 0.33741 0.67238 0.44845
 H572 H 0.37659 0.63443 0.41076
 H573 H 0.30570 0.69800 0.55065
 H574 H 0.31437 0.67048 0.79585
 H575 H 0.41978 0.56327 0.69030
 H576 H 0.41359 0.59323 0.44712
   
