data_POSCAR
  _audit_creation_date              2014-09-24
  _audit_creation_method            'ToBaCCo'
  _symmetry_space_group_name_H-M    'P1'
  _symmetry_Int_Tables_number       1
  _symmetry_cell_setting            triclinic
  loop_
  _symmetry_equiv_pos_as_xyz
 x,y,z
_cell_length_a 34.4197
_cell_length_b 34.5243
_cell_length_c 34.3987
_cell_angle_alpha 89.442700
_cell_angle_beta 89.736100
_cell_angle_gamma 89.360100
loop_
  _atom_site_label
  _atom_site_type_symbol
  _atom_site_fract_x
  _atom_site_fract_y
  _atom_site_fract_z
Si1 Si 0.76358 0.61738 0.99771
 Si2 Si 0.74441 0.36394 0.50168
 Si3 Si 0.26209 -0.12308 0.00364
 Si4 Si 0.25085 0.12041 0.49931
 Si5 Si 0.11211 0.50023 0.25323
 Si6 Si -0.13321 0.00370 0.24682
 Si7 Si 0.36279 0.50222 0.75259
 Si8 Si 0.61500 0.99982 0.75322
 Si9 Si 0.00030 0.24677 -0.12904
 Si10 Si 0.49915 0.25792 0.12443
 Si11 Si 1.00396 0.75373 0.62282
 Si12 Si 0.50950 0.75179 0.37754
 C13 C 0.44580 -0.03486 0.29311
 H14 H 0.44882 -0.00686 0.30655
 C15 C 0.46583 -0.06701 0.30820
 H16 H 0.48426 -0.06343 0.33325
 C17 C 0.41640 -0.07382 0.24544
 H18 H 0.39720 -0.07660 0.22098
 C19 C 0.43574 -0.10670 0.25968
 H20 H 0.43074 -0.13458 0.24652
 N21 N 0.42017 -0.03915 0.26351
 C22 C 0.41033 0.08197 0.25584
 H23 H 0.38941 0.08417 0.27917
 C24 C 0.42839 0.11547 0.24211
 H25 H 0.42085 0.14325 0.25460
 C26 C 0.44476 0.04380 0.21000
 H27 H 0.45021 0.01584 0.19701
 C28 C 0.46361 0.07655 0.19552
 H29 H 0.48356 0.07347 0.17135
 Zn30 Zn 0.38684 0.00337 0.25069
 N31 N 0.41749 0.04729 0.23854
 C32 C 0.32547 0.04218 0.28834
 N33 N 0.35350 0.01454 0.29340
 C34 C 0.35887 -0.00307 0.32860
 C35 C 0.33799 0.00943 0.36110
 C36 C 0.30379 0.05542 0.32005
 C37 C 0.35953 0.01070 0.17293
 C38 C 0.34056 -0.00193 0.13963
 C39 C 0.31199 -0.05331 0.17796
 C40 C 0.33111 -0.03945 0.21060
 N41 N 0.35576 -0.00908 0.20717
 H42 H 0.32135 0.05532 0.25995
 H43 H 0.38028 -0.02586 0.33202
 H44 H 0.34397 -0.00335 0.38936
 H45 H 0.28311 0.07886 0.31579
 H46 H 0.37824 0.03551 0.17091
 H47 H 0.34537 0.01290 0.11220
 H48 H 0.29432 -0.07898 0.18052
 H49 H 0.32806 -0.05424 0.23830
 C50 C 0.45441 0.11305 0.21083
 C51 C 0.45967 -0.10365 0.29224
 C52 C 0.31741 -0.03495 0.14186
 C53 C 0.31093 0.03973 0.35713
 C54 C 0.07158 1.03473 0.79306
 H55 H 0.06742 1.00653 0.80633
 C56 C 0.05051 1.06672 0.80657
 H57 H 0.03027 1.06287 0.83039
 C58 C 0.10450 1.07420 0.74710
 H59 H 0.12556 1.07718 0.72399
 C60 C 0.08423 1.10696 0.75989
 H61 H 0.09027 1.13499 0.74696
 N62 N 0.09896 1.03922 0.76478
 C63 C 0.10464 0.91784 0.75682
 H64 H 0.12598 0.91365 0.77937
 C65 C 0.08463 0.88587 0.74296
 H66 H 0.09112 0.85724 0.75451
 C67 C 0.07093 0.95956 0.71315
 H68 H 0.06644 0.98831 0.70107
 C69 C 0.05014 0.92845 0.69860
 H70 H 0.02972 0.93360 0.67529
 Zn71 Zn 0.13107 0.99590 0.75255
 N72 N 0.09872 0.95354 0.74058
 C73 C 0.18981 0.95404 0.79193
 N74 N 0.16342 0.98342 0.79551
 C75 C 0.15907 1.00274 0.82961
 C76 C 0.17962 0.99079 0.86256
 C77 C 0.21080 0.94100 0.82426
 C78 C 0.15681 0.99078 0.67407
 C79 C 0.17606 1.00405 0.64081
 C80 C 0.21013 1.04982 0.68048
 C81 C 0.19018 1.03572 0.71301
 N82 N 0.16288 1.00789 0.70899
 H83 H 0.19319 0.93955 0.76435
 H84 H 0.13879 1.02667 0.83177
 H85 H 0.17437 1.00514 0.88996
 H86 H 0.23003 0.91613 0.82160
 H87 H 0.13589 0.96793 0.67149
 H88 H 0.16941 0.99174 0.61280
 H89 H 0.23012 1.07345 0.68396
 H90 H 0.19488 1.04844 0.74120
 C91 C 0.05796 0.89093 0.71269
 C92 C 0.05764 1.10349 0.79058
 C93 C 0.20203 1.03477 0.64371
 C94 C 0.20522 0.95912 0.86016
 C95 C 0.56722 0.55036 0.26671
 H96 H 0.54879 0.52601 0.26090
 C97 C 0.55068 0.58493 0.28030
 H98 H 0.51954 0.58710 0.28453
 C99 C 0.63021 0.57695 0.27077
 H100 H 0.66127 0.57347 0.26798
 C101 C 0.61497 0.61173 0.28463
 H102 H 0.63461 0.63481 0.29175
 N103 N 0.60647 0.54691 0.26257
 C104 C 0.60161 0.42413 0.25300
 H105 H 0.62393 0.41949 0.27452
 C106 C 0.58084 0.39244 0.23971
 H107 H 0.58747 0.36372 0.25096
 C108 C 0.56727 0.46630 0.21030
 H109 H 0.56296 0.49498 0.19801
 C110 C 0.54572 0.43538 0.19626
 H111 H 0.52488 0.44063 0.17333
 Zn112 Zn 0.63175 0.49973 0.24893
 N113 N 0.59566 0.45998 0.23713
 C114 C 0.64997 0.49518 0.32802
 N115 N 0.66177 0.48338 0.29219
 C116 C 0.69157 0.45754 0.28784
 C117 C 0.70960 0.44119 0.32056
 C118 C 0.66739 0.47984 0.36137
 C119 C 0.65179 0.49958 0.16884
 C120 C 0.67191 0.51189 0.13578
 C121 C 0.71939 0.54130 0.17723
 C122 C 0.69823 0.52854 0.20963
 N123 N 0.66433 0.50920 0.20493
 H124 H 0.62583 0.51525 0.33086
 H125 H 0.70008 0.44833 0.25903
 H126 H 0.73221 0.41956 0.31668
 H127 H 0.65678 0.48841 0.38974
 H128 H 0.62533 0.48372 0.16528
 H129 H 0.66048 0.50570 0.10724
 H130 H 0.74528 0.55820 0.18147
 H131 H 0.70827 0.53515 0.23852
 C132 C 0.55348 0.39778 0.21015
 C133 C 0.57484 0.61571 0.29024
 C134 C 0.70548 0.53388 0.13984
 C135 C 0.69678 0.45178 0.35780
 C136 C 0.93996 0.45898 0.78289
 H137 H 0.94274 0.48672 0.79689
 C138 C 0.95987 0.42669 0.79778
 H139 H 0.97829 0.43011 0.82286
 C140 C 0.90953 0.42016 0.73567
 H141 H 0.88902 0.41743 0.71222
 C142 C 0.92869 0.38711 0.74983
 H143 H 0.92283 0.35918 0.73718
 N144 N 0.91442 0.45497 0.75316
 C145 C 0.88317 0.56932 0.70703
 H146 H 0.85272 0.56382 0.70237
 C147 C 0.89876 0.60404 0.69388
 H148 H 0.87971 0.62493 0.67992
 C149 C 0.94496 0.54733 0.72839
 H150 H 0.96297 0.52497 0.74139
 C151 C 0.96190 0.58190 0.71540
 H152 H 0.99289 0.58598 0.71844
 Zn153 Zn 0.87963 0.49633 0.74089
 N154 N 0.90604 0.54187 0.72433
 C155 C 0.82765 0.54101 0.78649
 N156 N 0.84965 0.50804 0.78616
 C157 C 0.85305 0.48541 0.81871
 C158 C 0.83635 0.49720 0.85388
 C159 C 0.81082 0.55397 0.82097
 C160 C 0.85932 0.48770 0.66288
 C161 C 0.83870 0.47337 0.63148
 C162 C 0.79337 0.44431 0.67666
 C163 C 0.81456 0.45979 0.70734
 N164 N 0.84713 0.48061 0.69991
 H165 H 0.82430 0.55827 0.76047
 H166 H 0.86965 0.45872 0.81787
 H167 H 0.84068 0.47980 0.87987
 H168 H 0.79503 0.58128 0.82116
 H169 H 0.88583 0.50347 0.65770
 H170 H 0.84925 0.47844 0.60217
 H171 H 0.76825 0.42675 0.68298
 H172 H 0.80587 0.45406 0.73709
 C173 C 0.93857 0.61071 0.69802
 C174 C 0.95321 0.39007 0.78197
 C175 C 0.80592 0.45063 0.63828
 C176 C 0.81594 0.53242 0.85527
 C177 C 0.27265 0.44089 -0.03644
 H178 H 0.28217 0.44953 -0.00791
 C179 C 0.28473 0.46171 -0.06929
 H180 H 0.30356 0.48629 -0.06572
 C181 C 0.23928 0.39646 -0.07600
 H182 H 0.22252 0.37036 -0.07865
 C183 C 0.25092 0.41627 -0.10955
 H184 H 0.24313 0.40526 -0.13781
 N185 N 0.25105 0.40839 -0.04038
 C186 C 0.22548 0.38356 0.08199
 H187 H 0.23493 0.35367 0.08326
 C188 C 0.21126 0.40119 0.11552
 H189 H 0.20998 0.38482 0.14251
 C190 C 0.21356 0.44076 0.04508
 H191 H 0.21331 0.45564 0.01731
 C192 C 0.19887 0.45947 0.07798
 H193 H 0.18789 0.48884 0.07528
 Zn194 Zn 0.24142 0.37521 0.00293
 N195 N 0.22626 0.40335 0.04761
 C196 C 0.28486 0.31250 0.03528
 N197 N 0.28729 0.34626 0.01468
 C198 C 0.32238 0.36181 0.00557
 C199 C 0.35665 0.34427 0.01869
 C200 C 0.31851 0.29384 0.04875
 C201 C 0.16367 0.35888 -0.00670
 C202 C 0.13131 0.33956 -0.02048
 C203 C 0.17341 0.28671 -0.04009
 C204 C 0.20516 0.30711 -0.02587
 N205 N 0.19973 0.34273 -0.01000
 H206 H 0.25671 0.30073 0.04247
 H207 H 0.32396 0.38867 -0.01055
 H208 H 0.38428 0.35783 0.01263
 H209 H 0.31597 0.26784 0.06634
 H210 H 0.16023 0.38756 0.00526
 H211 H 0.10294 0.35339 -0.01901
 H212 H 0.17823 0.25912 -0.05406
 H213 H 0.23422 0.29535 -0.02919
 C214 C 0.19720 0.43931 0.11353
 C215 C 0.27460 0.44874 -0.10636
 C216 C 0.13615 0.30346 -0.03807
 C217 C 0.35482 0.31032 0.04110
 C218 C 0.78515 0.07209 1.03464
 H219 H 0.79846 0.06784 1.00643
 C220 C 0.79897 0.05144 1.06690
 H221 H 0.82303 0.03141 1.06321
 C222 C 0.73881 0.10489 1.07385
 H223 H 0.71530 0.12559 1.07660
 C224 C 0.75191 0.08503 1.10692
 H225 H 0.73891 0.09114 1.13496
 N226 N 0.75667 0.09936 1.03890
 C227 C 0.74852 0.10017 0.91812
 H228 H 0.77294 0.11897 0.91353
 C229 C 0.73401 0.07943 0.88682
 H230 H 0.74688 0.08302 0.85823
 C231 C 0.70119 0.07304 0.96022
 H232 H 0.68806 0.07138 0.98882
 C233 C 0.68597 0.05156 0.92979
 H234 H 0.66097 0.03355 0.93519
 Zn235 Zn 0.74489 0.13095 0.99494
 N236 N 0.73092 0.09791 0.95359
 C237 C 0.78689 0.18456 0.94940
 N238 N 0.78900 0.16080 0.98112
 C239 C 0.82250 0.15707 1.00181
 C240 C 0.85635 0.17518 0.98899
 C241 C 0.82019 0.20281 0.93529
 C242 C 0.66849 0.16213 0.98747
 C243 C 0.63578 0.18268 1.00032
 C244 C 0.67510 0.21123 1.05020
 C245 C 0.70716 0.19044 1.03618
 N246 N 0.70287 0.16501 1.00660
 H247 H 0.75974 0.18771 0.93390
 H248 H 0.82345 0.13917 1.02768
 H249 H 0.88315 0.17039 1.00472
 H250 H 0.81871 0.21979 0.90869
 H251 H 0.66582 0.14271 0.96327
 H252 H 0.60809 0.17827 0.98634
 H253 H 0.67822 0.22926 1.07556
 H254 H 0.73495 0.19264 1.05051
 C255 C 0.70180 0.05560 0.89237
 C256 C 0.78303 0.05881 1.10372
 C257 C 0.63877 0.20661 1.03276
 C258 C 0.85553 0.19749 0.95480
 C259 C 0.29864 0.57658 0.53917
 H260 H 0.31843 0.57826 0.51485
 C261 C 0.31070 0.55818 0.57337
 H262 H 0.33973 0.54585 0.57508
 C263 C 0.23764 0.59198 0.56763
 H264 H 0.20931 0.60559 0.56541
 C265 C 0.24857 0.57372 0.60245
 H266 H 0.22866 0.57365 0.62689
 N267 N 0.26309 0.59408 0.53723
 C268 C 0.23416 0.61547 0.41585
 H269 H 0.24429 0.64494 0.41332
 C270 C 0.21899 0.59713 0.38349
 H271 H 0.21743 0.61251 0.35593
 C272 C 0.22224 0.56011 0.45534
 H273 H 0.22307 0.54623 0.48365
 C274 C 0.20651 0.54073 0.42364
 H275 H 0.19527 0.51184 0.42772
 Zn276 Zn 0.25156 0.62649 0.49365
 N277 N 0.23493 0.59707 0.45098
 C278 C 0.32237 0.63087 0.45603
 N279 N 0.29742 0.65242 0.47791
 C280 C 0.30541 0.68985 0.48677
 C281 C 0.33992 0.70676 0.47345
 C282 C 0.35683 0.64656 0.44214
 C283 C 0.17705 0.66096 0.48712
 C284 C 0.14420 0.68074 0.50067
 C285 C 0.18157 0.70234 0.55543
 C286 C 0.21395 0.68255 0.54058
 N287 N 0.21085 0.66145 0.50755
 H288 H 0.31527 0.60131 0.44905
 H289 H 0.28512 0.70661 0.50397
 H290 H 0.34609 0.73659 0.48041
 H291 H 0.37605 0.62857 0.42494
 H292 H 0.17476 0.64362 0.46132
 H293 H 0.11713 0.67847 0.48503
 H294 H 0.18372 0.71718 0.58291
 H295 H 0.24082 0.68188 0.55676
 C296 C 0.20421 0.55970 0.38744
 C297 C 0.28590 0.55753 0.60573
 C298 C 0.14607 0.70086 0.53570
 C299 C 0.36583 0.68502 0.45055
 C300 C 0.78204 0.94656 0.46186
 H301 H 0.79177 0.95563 0.49014
 C302 C 0.79498 0.96610 0.42857
 H303 H 0.81522 0.98960 0.43156
 C304 C 0.74400 0.90496 0.42362
 H305 H 0.72424 0.88114 0.42144
 C306 C 0.75604 0.92379 0.38964
 H307 H 0.74592 0.91388 0.36172
 N308 N 0.75860 0.91528 0.45873
 C309 C 0.74874 0.90558 0.58219
 H310 H 0.76981 0.88236 0.58555
 C311 C 0.73365 0.92378 0.61511
 H312 H 0.74334 0.91465 0.64371
 C313 C 0.70827 0.94397 0.54120
 H314 H 0.69777 0.95078 0.51232
 C315 C 0.69230 0.96282 0.57340
 H316 H 0.66966 0.98436 0.56899
 Zn317 Zn 0.74957 0.88385 0.50372
 N318 N 0.73518 0.91523 0.54625
 C319 C 0.82966 0.87623 0.51905
 N320 N 0.79598 0.85614 0.51661
 C321 C 0.79500 0.81760 0.52529
 C322 C 0.82864 0.79806 0.53761
 C323 C 0.86393 0.85778 0.53082
 C324 C 0.67350 0.85392 0.51169
 C325 C 0.64127 0.83288 0.49990
 C326 C 0.68221 0.79966 0.45348
 C327 C 0.71369 0.82118 0.46623
 N328 N 0.70852 0.84885 0.49374
 H329 H 0.82995 0.90686 0.51290
 H330 H 0.76788 0.80221 0.52400
 H331 H 0.82709 0.76771 0.54547
 H332 H 0.89029 0.87438 0.53347
 H333 H 0.66990 0.87563 0.53381
 H334 H 0.61309 0.83896 0.51269
 H335 H 0.68619 0.77966 0.42969
 H336 H 0.74183 0.81752 0.45251
 C337 C 0.70429 0.95188 0.61090
 C338 C 0.78305 0.95363 0.39188
 C339 C 0.64536 0.80615 0.46981
 C340 C 0.86345 0.81846 0.54091
 C341 C -0.04627 0.28370 0.43528
 H342 H -0.02021 0.30049 0.43742
 C343 C -0.07951 0.29580 0.45517
 H344 H -0.07881 0.32215 0.47197
 C345 C -0.07988 0.23036 0.40941
 H346 H -0.08010 0.20501 0.39129
 C347 C -0.11385 0.24137 0.42906
 H348 H -0.14011 0.22488 0.42532
 N349 N -0.04741 0.25247 0.41153
 C350 C 0.07399 0.22779 0.38563
 H351 H 0.07471 0.23790 0.35577
 C352 C 0.10796 0.21458 0.40338
 H353 H 0.13498 0.21435 0.38711
 C354 C 0.03757 0.21479 0.44293
 H355 H 0.00989 0.21470 0.45792
 C356 C 0.07097 0.20097 0.46175
 H357 H 0.06883 0.19015 0.49129
 Zn358 Zn -0.00460 0.24362 0.37739
 N359 N 0.03967 0.22723 0.40535
 C360 C 0.02825 0.31610 0.37482
 N361 N 0.00840 0.29099 0.35234
 C362 C 0.00050 0.29950 0.31442
 C363 C 0.01252 0.33476 0.29805
 C364 C 0.04042 0.35148 0.35983
 C365 C 0.00278 0.17065 0.34178
 C366 C -0.01021 0.13888 0.32093
 C367 C -0.06433 0.17786 0.29813
 C368 C -0.05008 0.20908 0.31907
 N369 N -0.01774 0.20461 0.34134
 H370 H 0.03581 0.30813 0.40430
 H371 H -0.01452 0.27889 0.29668
 H372 H 0.00682 0.34111 0.26771
 H373 H 0.05678 0.37036 0.37835
 H374 H 0.02808 0.16733 0.35999
 H375 H 0.00531 0.11154 0.32331
 H376 H -0.09143 0.18099 0.28248
 H377 H -0.06633 0.23607 0.31974
 C378 C 0.10649 0.20040 0.44159
 C379 C -0.11401 0.27516 0.45120
 C380 C -0.04472 0.14209 0.29974
 C381 C 0.03276 0.36111 0.32097
 C382 C 1.05499 0.77203 0.05748
 H383 H 1.03386 0.75874 0.03884
 C384 C 1.09004 0.78554 0.04178
 H385 H 1.09577 0.78286 0.01093
 C386 C 1.07356 0.79245 0.12025
 H387 H 1.06692 0.79488 0.15091
 C388 C 1.10870 0.80613 0.10589
 H389 H 1.12862 0.81941 0.12580
 N390 N 1.04771 0.77543 0.09623
 C391 C 0.92724 0.75739 0.09054
 H392 H 0.92211 0.78150 0.10973
 C393 C 0.89592 0.74126 0.07111
 H394 H 0.86699 0.75324 0.07525
 C395 C 0.97019 0.71009 0.06445
 H396 H 0.99895 0.69717 0.06335
 C397 C 0.93965 0.69320 0.04427
 H398 H 0.94525 0.66741 0.02745
 Zn399 Zn 1.00263 0.75726 0.12203
 N400 N 0.96338 0.74122 0.08753
 C401 C 0.98023 0.83320 0.13182
 N402 N 0.98346 0.79912 0.15172
 C403 C 0.97316 0.79628 0.18989
 C404 C 0.95748 0.82852 0.20906
 C405 C 0.96528 0.86605 0.14991
 C406 C 1.05417 0.70119 0.15173
 C407 C 1.06549 0.66724 0.17068
 C408 C 0.99938 0.65874 0.19267
 C409 C 0.98920 0.69331 0.17329
 N410 N 1.01659 0.71369 0.15325
 H411 H 0.98881 0.83462 0.10155
 H412 H 0.97635 0.76897 0.20522
 H413 H 0.94838 0.82579 0.23910
 H414 H 0.96221 0.89283 0.13348
 H415 H 1.07543 0.71672 0.13480
 H416 H 1.09546 0.65749 0.16867
 H417 H 0.97740 0.64233 0.20799
 H418 H 0.95930 0.70332 0.17330
 C419 C 0.90187 0.70835 0.04835
 C420 C 1.11734 0.80268 0.06624
 C421 C 1.03795 0.64542 0.19101
 C422 C 0.95308 0.86370 0.18870
 C423 C 0.53209 0.29435 0.57490
 H424 H 0.50531 0.31095 0.57292
 C425 C 0.56512 0.30682 0.55491
 H426 H 0.56385 0.33332 0.53782
 C427 C 0.56695 0.24055 0.60082
 H428 H 0.56762 0.21456 0.61847
 C429 C 0.60051 0.25170 0.58093
 H430 H 0.62692 0.23473 0.58431
 N431 N 0.53407 0.26279 0.59883
 C432 C 0.41422 0.25902 0.59792
 H433 H 0.41104 0.28426 0.61598
 C434 C 0.38228 0.24595 0.57706
 H435 H 0.35458 0.26083 0.57982
 C436 C 0.45357 0.20805 0.57320
 H437 H 0.48132 0.19303 0.57250
 C438 C 0.42235 0.19381 0.55221
 H439 H 0.42602 0.16760 0.53547
 Zn440 Zn 0.49010 0.25123 0.63032
 N441 N 0.44853 0.23904 0.59687
 C442 C 0.44512 0.28983 0.68611
 N443 N 0.47614 0.29415 0.66187
 C444 C 0.49488 0.32860 0.65890
 C445 C 0.48036 0.36121 0.67805
 C446 C 0.42983 0.32163 0.70604
 C447 C 0.48015 0.17505 0.66115
 C448 C 0.49246 0.14141 0.68058
 C449 C 0.54629 0.17707 0.70652
 C450 C 0.53272 0.21012 0.68697
 N451 N 0.50136 0.20803 0.66321
 H452 H 0.43106 0.26202 0.68840
 H453 H 0.52034 0.33133 0.64075
 H454 H 0.49428 0.38893 0.67388
 H455 H 0.40392 0.31803 0.72354
 H456 H 0.45444 0.17422 0.64335
 H457 H 0.47655 0.11484 0.67690
 H458 H 0.57285 0.17838 0.72318
 H459 H 0.54869 0.23687 0.68865
 C460 C 0.38603 0.21232 0.55486
 C461 C 0.59996 0.28577 0.55855
 C462 C 0.52661 0.14203 0.70247
 C463 C 0.44692 0.35804 0.70112
 C464 C 0.47116 0.78642 0.93563
 H465 H 0.49916 0.80030 0.93638
 C466 C 0.43992 0.80220 0.95643
 H467 H 0.44437 0.82794 0.97343
 C468 C 0.43052 0.73827 0.90953
 H469 H 0.42660 0.71409 0.89031
 C470 C 0.39848 0.75330 0.92962
 H471 H 0.37015 0.74058 0.92577
 N472 N 0.46574 0.75564 0.91195
 C473 C 0.57794 0.70577 0.87856
 H474 H 0.57120 0.70070 0.84840
 C475 C 0.61282 0.69171 0.89367
 H476 H 0.63259 0.67647 0.87457
 C477 C 0.55887 0.72958 0.94018
 H478 H 0.53753 0.74388 0.95832
 C479 C 0.59360 0.71570 0.95663
 H480 H 0.59886 0.71938 0.98739
 Zn481 Zn 0.50551 0.74141 0.87617
 N482 N 0.55188 0.72467 0.90159
 C483 C 0.55046 0.78648 0.82361
 N484 N 0.51650 0.78531 0.84397
 C485 C 0.49186 0.81650 0.84443
 C486 C 0.50219 0.85120 0.82596
 C487 C 0.56197 0.82058 0.80503
 C488 C 0.49272 0.66337 0.86089
 C489 C 0.47671 0.63166 0.84229
 C490 C 0.45001 0.67524 0.79368
 C491 C 0.46707 0.70621 0.81293
 N492 N 0.48752 0.69975 0.84615
 H493 H 0.56959 0.76161 0.82299
 H494 H 0.46465 0.81497 0.86010
 H495 H 0.48307 0.87620 0.82798
 H496 H 0.58995 0.82161 0.79053
 H497 H 0.50837 0.65908 0.88780
 H498 H 0.48032 0.60294 0.85480
 H499 H 0.43283 0.68087 0.76794
 H500 H 0.46289 0.73550 0.80219
 C501 C 0.62101 0.69657 0.93316
 C502 C 0.40286 0.78621 0.95256
 C503 C 0.45435 0.63756 0.80884
 C504 C 0.53811 0.85361 0.80691
 C505 C 0.49720 -0.17336 0.29288
 C506 C 0.52387 -0.17585 0.32904
 C507 C 0.49557 -0.20460 0.34814
 C508 C 0.46908 -0.20259 0.31230
 C509 C 0.47294 -0.17094 0.36696
 C510 C 0.50113 -0.14190 0.34784
 C511 C 0.47458 -0.13981 0.31199
 C512 C 0.44632 -0.16867 0.33103
 H513 H 0.50723 -0.17401 0.26219
 H514 H 0.55596 -0.17910 0.32816
 H515 H 0.45611 -0.22788 0.29774
 H516 H 0.46266 -0.16993 0.39755
 H517 H 0.51489 -0.11742 0.36301
 H518 H 0.41420 -0.16550 0.33190
 C519 C 0.98865 0.31906 0.78355
 C520 C 1.01615 0.31680 0.81912
 C521 C 0.98744 0.28956 0.83981
 C522 C 0.96011 0.29132 0.80457
 C523 C 0.96633 0.32452 0.85802
 C524 C 0.99496 0.35201 0.83735
 C525 C 0.96759 0.35388 0.80212
 C526 C 0.93891 0.32652 0.82272
 H527 H 0.99789 0.31715 0.75267
 H528 H 1.04811 0.31257 0.81748
 H529 H 0.94597 0.26601 0.79119
 H530 H 0.95669 0.32689 0.88873
 H531 H 1.00994 0.37643 0.85142
 H532 H 0.90692 0.33073 0.82428
 C533 C 0.06684 1.16759 0.83055
 C534 C 0.04649 1.20206 0.80974
 C535 C 0.01620 1.20353 0.84270
 C536 C 0.03642 1.16928 0.86357
 C537 C -0.01004 1.17544 0.82076
 C538 C 0.02047 1.17347 0.78748
 C539 C 0.04067 1.13936 0.80866
 C540 C 0.01031 1.14089 0.84161
 H541 H 0.09866 1.16417 0.83468
 H542 H 0.06115 1.22755 0.79667
 H543 H 0.04326 1.16733 0.89500
 H544 H -0.04186 1.17910 0.81682
 H545 H 0.01390 1.17484 0.75594
 H546 H -0.00519 1.11617 0.85517
 C547 C 0.58210 0.68109 0.33203
 C548 C 0.55755 0.71394 0.31313
 C549 C 0.52841 0.71119 0.34703
 C550 C 0.55276 0.67851 0.36594
 C551 C 0.50454 0.68121 0.32482
 C552 C 0.53388 0.68351 0.29059
 C553 C 0.55826 0.65104 0.30979
 C554 C 0.52907 0.64834 0.34369
 H555 H 0.61407 0.68179 0.33585
 H556 H 0.56898 0.74128 0.30054
 H557 H 0.56062 0.67610 0.39712
 H558 H 0.47249 0.68123 0.32161
 H559 H 0.52623 0.68532 0.25932
 H560 H 0.51734 0.62120 0.35645
 C561 C 0.50668 0.36295 0.15768
 C562 C 0.53335 0.33530 0.13443
 C563 C 0.51366 0.30035 0.15403
 C564 C 0.48684 0.32769 0.17723
 C565 C 0.54378 0.30040 0.18690
 C566 C 0.56361 0.33553 0.16736
 C567 C 0.53688 0.36299 0.19054
 C568 C 0.51719 0.32818 0.21042
 H569 H 0.49087 0.38833 0.14525
 H570 H 0.54025 0.33832 0.10302
 H571 H 0.45508 0.32415 0.18131
 H572 H 0.55883 0.27437 0.19894
 H573 H 0.59539 0.33891 0.16319
 H574 H 0.51052 0.32557 0.24193
 C575 C 0.01309 0.85685 0.65864
 C576 C 0.04021 0.82895 0.63631
 C577 C 0.01904 0.79424 0.65471
 C578 C -0.00815 0.82191 0.67706
 C579 C 0.04782 0.79338 0.68878
 C580 C 0.06909 0.82832 0.67043
 C581 C 0.04193 0.85611 0.69269
 C582 C 0.02083 0.82155 0.71148
 H583 H -0.00189 0.88241 0.64557
 H584 H 0.04857 0.83217 0.60527
 H585 H -0.04012 0.81894 0.67984
 H586 H 0.06185 0.76695 0.70114
 H587 H 0.10107 0.83115 0.66758
 H588 H 0.01283 0.81885 0.74268
 C589 C 0.93278 0.68029 0.66224
 C590 C 0.95749 0.71014 0.68399
 C591 C 0.98670 0.71011 0.65007
 C592 C 0.96223 0.68026 0.62840
 C593 C 1.01033 0.67724 0.66963
 C594 C 0.98079 0.67677 0.70385
 C595 C 0.95618 0.64722 0.68181
 C596 C 0.98560 0.64714 0.64803
 H597 H 0.90090 0.68319 0.65841
 H598 H 0.94631 0.73630 0.69905
 H599 H 0.95450 0.68117 0.59714
 H600 H 1.04243 0.67642 0.67249
 H601 H 0.98829 0.67505 0.73516
 H602 H 0.99708 0.62102 0.63312
 C603 C 0.43920 0.17676 0.17036
 C604 C 0.45866 0.21201 0.18924
 C605 C 0.48692 0.21442 0.15456
 C606 C 0.46755 0.17941 0.13562
 C607 C 0.51597 0.18734 0.17556
 C608 C 0.48754 0.18442 0.21056
 C609 C 0.46820 0.14955 0.19127
 C610 C 0.49651 0.15205 0.15661
 H611 H 0.40741 0.17222 0.16812
 H612 H 0.44327 0.23701 0.20258
 H613 H 0.45891 0.17698 0.10474
 H614 H 0.54772 0.19204 0.17769
 H615 H 0.49581 0.18615 0.24164
 H616 H 0.51270 0.12794 0.14261
 C617 C 0.32548 0.44161 -0.16291
 C618 C 0.30663 0.45152 -0.20246
 C619 C 0.33149 0.48820 -0.20520
 C620 C 0.35035 0.47836 -0.16578
 C621 C 0.29950 0.51194 -0.18465
 C622 C 0.27432 0.47500 -0.18144
 C623 C 0.29357 0.46523 -0.14217
 C624 C 0.31834 0.50199 -0.14490
 H625 H 0.33633 0.41252 -0.15381
 H626 H 0.30188 0.43077 -0.22636
 H627 H 0.38169 0.47946 -0.15871
 H628 H 0.28869 0.54092 -0.19408
 H629 H 0.24274 0.47360 -0.18758
 H630 H 0.32340 0.52329 -0.12156
 C631 C 0.78156 0.98851 0.32053
 C632 C 0.81553 1.01759 0.31769
 C633 C 0.83723 0.98979 0.29021
 C634 C 0.80360 0.96090 0.29255
 C635 C 0.85717 0.96985 0.32511
 C636 C 0.83548 0.99757 0.35286
 C637 C 0.80184 0.96864 0.35529
 C638 C 0.82350 0.94088 0.32769
 H639 H 0.75021 0.99621 0.31899
 H640 H 0.81227 1.04933 0.31318
 H641 H 0.79051 0.94605 0.26741
 H642 H 0.88837 0.96168 0.32704
 H643 H 0.84927 1.01318 0.37713
 H644 H 0.82690 0.90911 0.33198
 C645 C 0.78146 0.02197 1.17416
 C646 C 0.81571 -0.00757 1.17599
 C647 C 0.83704 0.01918 1.20412
 C648 C 0.80312 0.04852 1.20280
 C649 C 0.85688 0.03985 1.16965
 C650 C 0.83558 0.01318 1.14127
 C651 C 0.80167 0.04258 1.13985
 C652 C 0.82290 0.06929 1.16810
 H653 H 0.75019 0.01460 1.17565
 H654 H 0.81273 -0.03938 1.17960
 H655 H 0.78985 0.06283 1.22846
 H656 H 0.88801 0.04762 1.16758
 H657 H 0.84951 -0.00204 1.11652
 H658 H 0.82596 0.10112 1.16465
 C659 C 0.32126 0.50293 0.64942
 C660 C 0.35541 0.52317 0.66953
 C661 C 0.33463 0.51850 0.70899
 C662 C 0.30052 0.49817 0.68920
 C663 C 0.31441 0.55812 0.70349
 C664 C 0.33518 0.56285 0.66385
 C665 C 0.30116 0.54258 0.64392
 C666 C 0.28003 0.53805 0.68325
 H667 H 0.32407 0.48017 0.62698
 H668 H 0.38659 0.51724 0.66358
 H669 H 0.28619 0.47154 0.70012
 H670 H 0.31150 0.58090 0.72586
 H671 H 0.34954 0.58962 0.65327
 H672 H 0.24882 0.54405 0.68906
 C673 C 0.14786 0.56311 0.33569
 C674 C 0.16494 0.55584 0.29478
 C675 C 0.14367 0.51691 0.29365
 C676 C 0.12656 0.52410 0.33439
 C677 C 0.17908 0.49600 0.31165
 C678 C 0.20061 0.53517 0.31316
 C679 C 0.18324 0.54227 0.35380
 C680 C 0.16206 0.50328 0.35275
 H681 H 0.13490 0.59086 0.34576
 H682 H 0.16635 0.57758 0.27090
 H683 H 0.09588 0.51978 0.34328
 H684 H 0.19211 0.46844 0.30119
 H685 H 0.23137 0.53979 0.30468
 H686 H 0.16051 0.48121 0.37634
 C687 C 0.64799 0.01002 0.85852
 C688 C 0.62591 0.03650 0.82954
 C689 C 0.64491 0.01466 0.79549
 C690 C 0.66695 -0.01198 0.82416
 C691 C 0.67888 0.04322 0.79476
 C692 C 0.65993 0.06520 0.82899
 C693 C 0.68192 0.03868 0.85779
 C694 C 0.70123 0.01681 0.82390
 H695 H 0.63489 -0.00421 0.88441
 H696 H 0.59475 0.04477 0.83195
 H697 H 0.66978 -0.04392 0.82180
 H698 H 0.69159 0.05662 0.76822
 H699 H 0.65697 0.09716 0.83114
 H700 H 0.73246 0.00870 0.82190
 C701 C 0.64834 0.99460 0.64731
 C702 C 0.62723 0.96644 0.67518
 C703 C 0.64539 0.98690 0.71010
 C704 C 0.66644 1.01518 0.68256
 C705 C 0.68041 0.95888 0.70920
 C706 C 0.66232 0.93828 0.67406
 C707 C 0.68337 0.96649 0.64639
 C708 C 0.70179 0.98696 0.68120
 H709 H 0.63457 1.00978 0.62228
 H710 H 0.59640 0.95774 0.67274
 H711 H 0.66807 1.04699 0.68645
 H712 H 0.69369 0.94446 0.73495
 H713 H 0.66054 0.90644 0.67040
 H714 H 0.73271 0.99544 0.68336
 C715 C 0.19681 0.46163 0.18860
 C716 C 0.17668 0.50185 0.19203
 C717 C 0.14128 0.48241 0.21108
 C718 C 0.16115 0.44242 0.20807
 C719 C 0.12249 0.47720 0.17100
 C720 C 0.15798 0.49659 0.15159
 C721 C 0.17780 0.45655 0.14860
 C722 C 0.14244 0.43713 0.16776
 H723 H 0.22767 0.45515 0.19556
 H724 H 0.19096 0.52841 0.20257
 H725 H 0.16251 0.42012 0.23147
 H726 H 0.09168 0.48342 0.16369
 H727 H 0.15628 0.51939 0.12869
 H728 H 0.12826 0.41038 0.15756
 C729 C -0.15588 0.31366 0.50480
 C730 C -0.17325 0.34900 0.48298
 C731 C -0.21408 0.33175 0.48751
 C732 C -0.19703 0.29642 0.50940
 C733 C -0.20947 0.31073 0.44850
 C734 C -0.16850 0.32801 0.44396
 C735 C -0.15124 0.29279 0.46575
 C736 C -0.19192 0.27509 0.47011
 H737 H -0.13371 0.31481 0.52808
 H738 H -0.16486 0.37946 0.48780
 H739 H -0.20930 0.28352 0.53639
 H740 H -0.23162 0.30946 0.42525
 H741 H -0.15662 0.34110 0.41687
 H742 H -0.19953 0.24443 0.46492
 C743 C 0.36709 0.84195 0.99529
 C744 C 0.33868 0.86294 0.96743
 C745 C 0.30419 0.84531 0.98976
 C746 C 0.33234 0.82434 1.01774
 C747 C 0.30445 0.81018 0.96262
 C748 C 0.33916 0.82774 0.94018
 C749 C 0.36743 0.80683 0.96809
 C750 C 0.33308 0.78885 0.99042
 H751 H 0.39243 0.85552 1.00934
 H752 H 0.34117 0.89354 0.95768
 H753 H 0.32913 0.82301 1.04984
 H754 H 0.27836 0.79719 0.94939
 H755 H 0.34216 0.82923 0.90805
 H756 H 0.33111 0.75812 0.99992
 C757 C 1.15536 0.85164 0.01956
 C758 C 1.18672 0.87197 0.04362
 C759 C 1.21856 0.84987 0.02109
 C760 C 1.18743 0.82960 -0.00319
 C761 C 1.21780 0.81688 0.05137
 C762 C 1.18588 0.83902 0.07413
 C763 C 1.15458 0.81876 0.05000
 C764 C 1.18616 0.79632 0.02738
 H765 H 1.12949 0.86609 0.00652
 H766 H 1.18653 0.90329 0.05049
 H767 H 1.18840 0.82577 -0.03517
 H768 H 1.24380 0.80243 0.06414
 H769 H 1.18667 0.84372 0.10596
 H770 H 1.18564 0.76491 0.02081
 C771 C 0.67661 0.28172 0.53751
 C772 C 0.68154 0.30209 0.49742
 C773 C 0.70080 0.33643 0.51764
 C774 C 0.69626 0.31633 0.55746
 C775 C 0.66102 0.35663 0.52257
 C776 C 0.64137 0.32218 0.50248
 C777 C 0.63690 0.30217 0.54237
 C778 C 0.65628 0.33648 0.56247
 H779 H 0.68319 0.25069 0.54343
 H780 H 0.69246 0.28804 0.47056
 H781 H 0.71898 0.31389 0.58014
 H782 H 0.65448 0.38764 0.51659
 H783 H 0.61859 0.32450 0.47982
 H784 H 0.64571 0.35068 0.58940
 C785 C 0.33496 0.15668 0.55913
 C786 C 0.29329 0.17285 0.55403
 C787 C 0.29102 0.15270 0.51444
 C788 C 0.33255 0.13651 0.51946
 C789 C 0.30685 0.18901 0.49379
 C790 C 0.30950 0.20945 0.53366
 C791 C 0.35095 0.19297 0.53862
 C792 C 0.34877 0.17295 0.49896
 H793 H 0.34669 0.14332 0.58618
 H794 H 0.27042 0.17303 0.57684
 H795 H 0.34216 0.10632 0.51372
 H796 H 0.29475 0.20220 0.46684
 H797 H 0.29988 0.23967 0.53931
 H798 H 0.37179 0.17310 0.47626
 C799 C 0.83991 0.66546 0.06092
 C800 C 0.80457 0.68300 0.03919
 C801 C 0.80536 0.64831 0.01151
 C802 C 0.84049 0.63067 0.03309
 C803 C 0.83269 0.67001 -0.01651
 C804 C 0.83234 0.70504 0.01136
 C805 C 0.86737 0.68712 0.03298
 C806 C 0.86813 0.65244 0.00522
 H807 H 0.84309 0.66351 0.09298
 H808 H 0.77811 0.69550 0.05298
 H809 H 0.84405 0.59994 0.04221
 H810 H 0.82932 0.67179 -0.04855
 H811 H 0.82929 0.73588 0.00237
 H812 H 0.89397 0.63948 -0.00927
 C813 C 0.65700 0.64621 0.98063
 C814 C 0.68888 0.62500 0.95711
 C815 C 0.72027 0.64584 0.98050
 C816 C 0.68862 0.66698 1.00427
 C817 C 0.72073 0.67912 0.95049
 C818 C 0.68936 0.65819 0.92686
 C819 C 0.65753 0.67933 0.95041
 C820 C 0.68861 0.70054 0.97393
 H821 H 0.63058 0.63255 0.99297
 H822 H 0.68844 0.59373 0.95007
 H823 H 0.68858 0.67057 1.03629
 H824 H 0.74721 0.69295 0.93846
 H825 H 0.69123 0.65376 0.89501
 H826 H 0.68824 0.73191 0.98072
 C827 C 0.14670 0.16190 0.49862
 C828 C 0.16767 0.12779 0.47831
 C829 C 0.20679 0.14815 0.48371
 C830 C 0.18623 0.18215 0.50416
 C831 C 0.20231 0.16863 0.44406
 C832 C 0.16302 0.14830 0.43855
 C833 C 0.14234 0.18230 0.45887
 C834 C 0.18135 0.20288 0.46425
 H835 H 0.12403 0.15884 0.52145
 H836 H 0.16199 0.09668 0.48401
 H837 H 0.19634 0.19612 0.53116
 H838 H 0.22529 0.17155 0.42155
 H839 H 0.15331 0.13424 0.41144
 H840 H 0.18667 0.23404 0.45838
 C841 C 0.52725 0.06444 0.72044
 C842 C 0.56342 0.04740 0.69952
 C843 C 0.58361 0.04202 0.73902
 C844 C 0.54776 0.05864 0.76020
 C845 C 0.60106 0.08279 0.73556
 C846 C 0.58083 0.08833 0.69601
 C847 C 0.54502 0.10510 0.71710
 C848 C 0.56510 0.09976 0.75665
 H849 H 0.49666 0.05676 0.71441
 H850 H 0.56270 0.02571 0.67596
 H851 H 0.53425 0.04589 0.78667
 H852 H 0.63159 0.09062 0.74157
 H853 H 0.59452 0.10072 0.66945
 H854 H 0.56575 0.12147 0.78021
 C855 C 1.07044 0.57631 0.18394
 C856 C 1.10436 0.57453 0.21293
 C857 C 1.08294 0.54306 0.23636
 C858 C 1.04895 0.54471 0.20748
 C859 C 1.06323 0.57430 0.26155
 C860 C 1.08473 0.60590 0.23801
 C861 C 1.05092 0.60772 0.20900
 C862 C 1.02892 0.57656 0.23240
 H863 H 1.07351 0.57720 0.15181
 H864 H 1.13548 0.57432 0.20448
 H865 H 1.03424 0.51917 0.19519
 H866 H 1.06037 0.57310 0.29369
 H867 H 1.09956 0.63123 0.25060
 H868 H 0.99767 0.57759 0.24041
 C869 C 0.89789 0.91725 0.18652
 C870 C 0.87775 0.92079 0.22648
 C871 C 0.89631 0.96077 0.23157
 C872 C 0.91643 0.95735 0.19173
 C873 C 0.93168 0.94188 0.25170
 C874 C 0.91328 0.90148 0.24643
 C875 C 0.93329 0.89826 0.20647
 C876 C 0.95205 0.93812 0.21157
 H877 H 0.88382 0.90699 0.15959
 H878 H 0.84697 0.91359 0.23253
 H879 H 0.91800 0.98036 0.16907
 H880 H 0.94553 0.95256 0.27856
 H881 H 0.91174 0.87859 0.26924
 H882 H 0.98289 0.94500 0.20536
 C883 C 0.44726 0.42721 0.73828
 C884 C 0.42687 0.45681 0.71079
 C885 C 0.39192 0.45841 0.73879
 C886 C 0.41203 0.42926 0.76646
 C887 C 0.37252 0.42500 0.71714
 C888 C 0.40754 0.42320 0.68902
 C889 C 0.42756 0.39397 0.71663
 C890 C 0.39265 0.39559 0.74470
 H891 H 0.47825 0.42781 0.74701
 H892 H 0.44106 0.48225 0.69710
 H893 H 0.41414 0.43182 0.79848
 H894 H 0.34163 0.42388 0.70823
 H895 H 0.40560 0.42054 0.65695
 H896 H 0.37811 0.37082 0.75924
 C897 C 0.45153 0.56759 0.77416
 C898 C 0.42490 0.54200 0.79986
 C899 C 0.39384 0.54332 0.76787
 C900 C 0.42015 0.56852 0.74193
 C901 C 0.37541 0.57986 0.78580
 C902 C 0.40650 0.57871 0.81792
 C903 C 0.43285 0.60400 0.79210
 C904 C 0.40183 0.60539 0.76001
 H905 H 0.48313 0.56283 0.76938
 H906 H 0.43485 0.51576 0.81597
 H907 H 0.42569 0.56393 0.71049
 H908 H 0.34395 0.58506 0.79089
 H909 H 0.40071 0.58302 0.84937
 H910 H 0.39183 0.63122 0.74326
 C911 C -0.04580 0.06591 0.27899
 C912 C -0.08133 0.04845 0.30023
 C913 C -0.10241 0.04530 0.26109
 C914 C -0.06716 0.06242 0.23959
 C915 C -0.12008 0.08611 0.26614
 C916 C -0.09895 0.08941 0.30537
 C917 C -0.06372 0.10665 0.28401
 C918 C -0.08467 0.10363 0.24479
 H919 H -0.01505 0.05734 0.28399
 H920 H -0.07969 0.02577 0.32322
 H921 H -0.05408 0.05078 0.21251
 H922 H -0.15084 0.09448 0.26092
 H923 H -0.11210 0.10068 0.33259
 H924 H -0.08596 0.12654 0.22196
 C925 C 0.02782 0.42915 0.27976
 C926 C 0.05008 0.46047 0.30252
 C927 C 0.08286 0.45892 0.27207
 C928 C 0.06092 0.42812 0.24899
 C929 C 0.10389 0.42696 0.29561
 C930 C 0.07119 0.42844 0.32627
 C931 C 0.04927 0.39744 0.30336
 C932 C 0.08191 0.39596 0.27274
 H933 H -0.00377 0.42975 0.27341
 H934 H 0.03688 0.48736 0.31442
 H935 H 0.05689 0.42840 0.21700
 H936 H 0.13535 0.42545 0.30232
 H937 H 0.07610 0.43006 0.35805
 H938 H 0.09515 0.36921 0.26055
 C939 C 0.57285 0.89734 0.75208
 C940 C 0.55235 0.93734 0.74802
 C941 C 0.58690 0.95625 0.76843
 C942 C 0.60746 0.91660 0.77240
 C943 C 0.56722 0.95050 0.80828
 C944 C 0.53239 0.93112 0.78814
 C945 C 0.55330 0.89158 0.79198
 C946 C 0.58778 0.91067 0.81230
 H947 H 0.57514 0.87527 0.72891
 H948 H 0.53787 0.94883 0.72148
 H949 H 0.63851 0.91031 0.76612
 H950 H 0.56497 0.97261 0.83140
 H951 H 0.50130 0.93720 0.79450
 H952 H 0.60245 0.89956 0.83890
 C953 C 0.70042 0.58435 0.08215
 C954 C 0.73777 0.60852 0.07953
 C955 C 0.74821 0.58847 0.04106
 C956 C 0.71097 0.56436 0.04351
 C957 C 0.77102 0.55676 0.06325
 C958 C 0.76044 0.57673 0.10211
 C959 C 0.72312 0.55266 0.10448
 C960 C 0.73353 0.53237 0.06611
 H961 H 0.67121 0.59580 0.09011
 H962 H 0.73946 0.64007 0.08506
 H963 H 0.69064 0.55934 0.01918
 H964 H 0.80008 0.54523 0.05495
 H965 H 0.78123 0.58203 0.12598
 H966 H 0.73175 0.50077 0.06086
 C967 C 0.24401 1.08918 0.60536
 C968 C 0.26606 1.07030 0.57100
 C969 C 0.23767 1.09014 0.54248
 C970 C 0.21570 1.10901 0.57658
 C971 C 0.21069 1.05497 0.54436
 C972 C 0.23890 1.03479 0.57339
 C973 C 0.21697 1.05402 0.60734
 C974 C 0.18863 1.07378 0.57869
 H975 H 0.25831 1.10391 0.62988
 H976 H 0.29811 1.06888 0.56745
 H977 H 0.20572 1.13962 0.57807
 H978 H 0.19721 1.04095 0.51893
 H979 H 0.24847 1.00401 0.57244
 H980 H 0.15655 1.07533 0.58204
 C981 C 0.26077 0.91895 0.89968
 C982 C 0.26841 0.93869 0.93916
 C983 C 0.24680 0.90571 0.96010
 C984 C 0.23929 0.88586 0.92102
 C985 C 0.20815 0.92826 0.95676
 C986 C 0.22951 0.96151 0.93543
 C987 C 0.22205 0.94141 0.89644
 C988 C 0.20055 0.90847 0.91750
 H989 H 0.28255 0.91518 0.87609
 H990 H 0.29637 0.95115 0.94861
 H991 H 0.24325 0.85453 0.91510
 H992 H 0.18647 0.93215 0.98040
 H993 H 0.22564 0.99287 0.94131
 H994 H 0.17247 0.89599 0.90841
 C995 C 0.68281 0.40979 0.42103
 C996 C 0.71152 0.37521 0.42299
 C997 C 0.73136 0.39379 0.45808
 C998 C 0.70277 0.42829 0.45635
 C999 C 0.75975 0.41503 0.43080
 C1000 C 0.73979 0.39652 0.39538
 C1001 C 0.71115 0.43104 0.39364
 C1002 C 0.73097 0.44986 0.42862
 H1003 H 0.65096 0.40754 0.41684
 H1004 H 0.70317 0.34437 0.42073
 H1005 H 0.68780 0.44144 0.48172
 H1006 H 0.79157 0.41715 0.43519
 H1007 H 0.75544 0.38289 0.37069
 H1008 H 0.73901 0.48082 0.43061
 C1009 C 0.81230 0.40578 0.57686
 C1010 C 0.78099 0.37423 0.57833
 C1011 C 0.76063 0.39377 0.54343
 C1012 C 0.79179 0.42532 0.54185
 C1013 C 0.73558 0.41847 0.57112
 C1014 C 0.75615 0.39903 0.60634
 C1015 C 0.78743 0.43052 0.60466
 C1016 C 0.76703 0.45033 0.56993
 H1017 H 0.84405 0.40035 0.57930
 H1018 H 0.78702 0.34276 0.58186
 H1019 H 0.80609 0.43657 0.51513
 H1020 H 0.70382 0.42356 0.56830
 H1021 H 0.74114 0.38774 0.63265
 H1022 H 0.76132 0.48190 0.56680
 C1023 C 0.29968 -0.03639 0.06425
 C1024 C 0.31879 -0.07388 0.04838
 C1025 C 0.27836 -0.09192 0.04441
 C1026 C 0.25899 -0.05472 0.05988
 C1027 C 0.28106 -0.10860 0.08600
 C1028 C 0.32153 -0.09052 0.09014
 C1029 C 0.30222 -0.05339 0.10575
 C1030 C 0.26176 -0.07131 0.10180
 H1031 H 0.30717 -0.00645 0.05517
 H1032 H 0.34234 -0.07486 0.02627
 H1033 H 0.23324 -0.04001 0.04691
 H1034 H 0.27366 -0.13849 0.09525
 H1035 H 0.34741 -0.10531 0.10279
 H1036 H 0.23821 -0.07021 0.12393
 C1037 C 0.26281 0.09052 0.39371
 C1038 C 0.24222 0.06979 0.42801
 C1039 C 0.26789 0.09178 0.45669
 C1040 C 0.28837 0.11251 0.42265
 C1041 C 0.29847 0.05899 0.45588
 C1042 C 0.27302 0.03669 0.42672
 C1043 C 0.29346 0.05775 0.39282
 C1044 C 0.31908 0.07967 0.42161
 H1045 H 0.24748 0.10399 0.36861
 H1046 H 0.21041 0.06569 0.43100
 H1047 H 0.29502 0.14385 0.42085
 H1048 H 0.31291 0.04608 0.48180
 H1049 H 0.26670 0.00525 0.42804
 H1050 H 0.35090 0.08384 0.41878
 C1051 C 0.82224 0.58545 0.90929
 C1052 C 0.78194 0.60435 0.91514
 C1053 C 0.77994 0.58651 0.95629
 C1054 C 0.82025 0.56761 0.95063
 C1055 C 0.76019 0.55026 0.94022
 C1056 C 0.76218 0.56811 0.89882
 C1057 C 0.80247 0.54934 0.89307
 C1058 C 0.80073 0.53106 0.93406
 H1059 H 0.84791 0.60000 0.89638
 H1060 H 0.77469 0.63463 0.90670
 H1061 H 0.84415 0.56748 0.97217
 H1062 H 0.73466 0.53575 0.95344
 H1063 H 0.73817 0.56832 0.87738
 H1064 H 0.80839 0.50067 0.94186
 C1065 C 0.09109 0.69404 0.58888
 C1066 C 0.08696 0.73248 0.61105
 C1067 C 0.04670 0.73899 0.59265
 C1068 C 0.05061 0.70064 0.57057
 C1069 C 0.06517 0.76117 0.55838
 C1070 C 0.10581 0.75454 0.57663
 C1071 C 0.10967 0.71612 0.55463
 C1072 C 0.06945 0.72257 0.53599
 H1073 H 0.10195 0.66626 0.60147
 H1074 H 0.09423 0.73638 0.64214
 H1075 H 0.02768 0.67846 0.56814
 H1076 H 0.05398 0.78883 0.54584
 H1077 H 0.12870 0.77677 0.57908
 H1078 H 0.06203 0.71878 0.50492
 C1079 C 0.58632 0.20031 1.08791
 C1080 C 0.58216 0.23914 1.10935
 C1081 C 0.54102 0.24419 1.09258
 C1082 C 0.54502 0.20544 1.07117
 C1083 C 0.55745 0.26606 1.05706
 C1084 C 0.59899 0.26088 1.07370
 C1085 C 0.60289 0.22205 1.05241
 C1086 C 0.56183 0.22705 1.03536
 H1087 H 0.59837 0.17309 1.10066
 H1088 H 0.59070 0.24399 1.13996
 H1089 H 0.52278 0.18250 1.06995
 H1090 H 0.54505 0.29317 1.04443
 H1091 H 0.62134 0.28377 1.07464
 H1092 H 0.55338 0.22230 1.00470
 C1093 C 0.93269 0.21509 0.95585
 C1094 C 0.95117 0.19388 0.92081
 C1095 C 0.95654 0.23306 0.89993
 C1096 C 0.93844 0.25450 0.93470
 C1097 C 0.91632 0.22967 0.88098
 C1098 C 0.91074 0.19040 0.90191
 C1099 C 0.89253 0.21174 0.93667
 C1100 C 0.89783 0.25099 0.91589
 H1101 H 0.93963 0.20933 0.98686
 H1102 H 0.97324 0.17030 0.92289
 H1103 H 0.95034 0.28092 0.94814
 H1104 H 0.90959 0.23559 0.84996
 H1105 H 0.89916 0.16387 0.88839
 H1106 H 0.87570 0.27455 0.91395
 C1107 C 0.42715 0.68437 0.40182
 C1108 C 0.42879 0.72401 0.38093
 C1109 C 0.46569 0.73360 0.40381
 C1110 C 0.46412 0.69414 0.42480
 C1111 C 0.44091 0.75232 0.43608
 C1112 C 0.40364 0.74245 0.41326
 C1113 C 0.40219 0.70286 0.43414
 C1114 C 0.43891 0.71255 0.45733
 H1115 H 0.42251 0.65668 0.38652
 H1116 H 0.42436 0.72893 0.34933
 H1117 H 0.48927 0.67431 0.42963
 H1118 H 0.44703 0.78036 0.45018
 H1119 H 0.37851 0.76232 0.40840
 H1120 H 0.44284 0.70764 0.48901
 C1121 C 0.60809 0.75119 0.42915
 C1122 C 0.56673 0.74495 0.44591
 C1123 C 0.54949 0.76658 0.41054
 C1124 C 0.59052 0.77271 0.39371
 C1125 C 0.55157 0.80532 0.43210
 C1126 C 0.56921 0.78397 0.46779
 C1127 C 0.61012 0.78999 0.45059
 C1128 C 0.59273 0.81150 0.41528
 H1129 H 0.63139 0.72875 0.42796
 H1130 H 0.55549 0.71752 0.45847
 H1131 H 0.59959 0.76824 0.36307
 H1132 H 0.52820 0.82766 0.43340
 H1133 H 0.56057 0.78849 0.49855
 H1134 H 0.60360 0.83903 0.40258
 C1135 C 0.08405 0.30713 -0.09356
 C1136 C 0.08211 0.26822 -0.11506
 C1137 C 0.04147 0.26154 -0.09759
 C1138 C 0.04329 0.30033 -0.07611
 C1139 C 0.05952 0.24021 -0.06246
 C1140 C 0.10057 0.24705 -0.07981
 C1141 C 0.10224 0.28595 -0.05845
 C1142 C 0.06171 0.27927 -0.04071
 H1143 H 0.09430 0.33480 -0.10649
 H1144 H 0.09066 0.26366 -0.14583
 H1145 H 0.01964 0.32235 -0.07439
 H1146 H 0.04887 0.21270 -0.04957
 H1147 H 0.12395 0.22474 -0.08153
 H1148 H 0.05358 0.28386 -0.00982
 C1149 C 0.43049 0.28793 0.03965
 C1150 C 0.45067 0.31037 0.07252
 C1151 C 0.45541 0.27234 0.09575
 C1152 C 0.43566 0.24969 0.06315
 C1153 C 0.41591 0.27916 0.11579
 C1154 C 0.41096 0.31730 0.09249
 C1155 C 0.39108 0.29470 0.05994
 C1156 C 0.39577 0.25659 0.08312
 H1157 H 0.43623 0.29156 0.00806
 H1158 H 0.47349 0.33247 0.06819
 H1159 H 0.44634 0.22194 0.05083
 H1160 H 0.40986 0.27556 0.14733
 H1161 H 0.40059 0.34525 0.10463
 H1162 H 0.37350 0.23400 0.08770
 C1163 C 0.91781 0.81773 0.59474
 C1164 C 0.92179 0.77680 0.61259
 C1165 C 0.96209 0.77247 0.59338
 C1166 C 0.95824 0.81337 0.57553
 C1167 C 0.94351 0.75478 0.55712
 C1168 C 0.90290 0.75917 0.57630
 C1169 C 0.89911 0.80011 0.55854
 C1170 C 0.93924 0.79595 0.53901
 H1171 H 0.90710 0.84372 0.61043
 H1172 H 0.91412 0.76928 0.64306
 H1173 H 0.98107 0.83579 0.57498
 H1174 H 0.95462 0.72891 0.54152
 H1175 H 0.88048 0.73633 0.57705
 H1176 H 0.94614 0.80393 0.50844
   
