data_POSCAR
  _audit_creation_date              2014-09-24
  _audit_creation_method            'ToBaCCo'
  _symmetry_space_group_name_H-M    'P1'
  _symmetry_Int_Tables_number       1
  _symmetry_cell_setting            triclinic
  loop_
  _symmetry_equiv_pos_as_xyz
 x,y,z
_cell_length_a 23.7221
_cell_length_b 23.4531
_cell_length_c 23.5457
_cell_angle_alpha 86.315800
_cell_angle_beta 89.637100
_cell_angle_gamma 89.736700
loop_
  _atom_site_label
  _atom_site_type_symbol
  _atom_site_fract_x
  _atom_site_fract_y
  _atom_site_fract_z
N1 N 0.18319 1.28745 0.11685
 N2 N 0.14036 1.28832 0.15248
 C3 C 0.10164 1.32605 0.13098
 C4 C 0.12177 1.34942 0.07905
 C5 C 0.17371 1.32415 0.07185
 H6 H 0.06163 1.33481 0.15101
 H7 H 0.20208 1.33045 0.03589
 Cu8 Cu 0.13914 1.23620 0.22129
 Cu9 Cu 0.24573 1.23522 0.12866
 Cu10 Cu 0.20597 1.10956 0.19000
 N11 N 0.12705 1.16370 0.26659
 N12 N 0.14716 1.11474 0.25004
 C13 C 0.12504 1.07181 0.28351
 C14 C 0.09114 1.09492 0.32432
 C15 C 0.09394 1.15347 0.31290
 H16 H 0.13468 1.02707 0.27987
 H17 H 0.07085 1.18584 0.33422
 N18 N 0.27692 1.11817 0.14692
 N19 N 0.29250 1.16844 0.12451
 C20 C 0.33983 1.16302 0.09393
 C21 C 0.35495 1.10610 0.09665
 C22 C 0.31432 1.07853 0.13095
 H23 H 0.35993 1.19769 0.06913
 H24 H 0.31075 1.03306 0.14123
 H25 H 0.16263 1.18218 0.16271
 H26 H 0.21610 1.18884 0.21950
 N27 N 0.86576 0.73000 0.11155
 N28 N 0.90935 0.73500 0.14512
 C29 C 0.94223 0.68848 0.14337
 C30 C 0.91872 0.65241 0.10616
 C31 C 0.87023 0.68008 0.08625
 H32 H 0.98135 0.68230 0.16630
 H33 H 0.84064 0.66520 0.05577
 Cu34 Cu 0.92270 0.80290 0.18550
 Cu35 Cu 0.80750 0.78979 0.10478
 Cu36 Cu 0.80679 0.87230 0.22201
 N37 N 0.92570 0.86042 0.24087
 N38 N 0.87989 0.88892 0.25323
 C39 C 0.89053 0.92137 0.29671
 C40 C 0.94546 0.91166 0.31327
 C41 C 0.96724 0.87320 0.27682
 H42 H 0.85902 0.94573 0.31823
 H43 H 1.00806 0.85247 0.27933
 N44 N 0.74213 0.86731 0.17103
 N45 N 0.74244 0.83810 0.12492
 C46 C 0.69342 0.84809 0.09703
 C47 C 0.66117 0.88531 0.12743
 C48 C 0.69339 0.89634 0.17392
 H49 H 0.68262 0.83074 0.05707
 H50 H 0.68330 0.92558 0.20619
 H51 H 0.84305 0.85876 0.14505
 H52 H 0.82038 0.79335 0.18807
 N53 N 0.82957 1.25361 -0.10823
 N54 N 0.87051 1.26181 -0.14631
 C55 C 0.89862 1.30972 -0.13495
 C56 C 0.87383 1.33247 -0.08788
 C57 C 0.83033 1.29590 -0.07231
 H58 H 0.93409 1.32706 -0.15930
 H59 H 0.80158 1.29959 -0.03694
 Cu60 Cu 0.88269 1.21116 -0.21055
 Cu61 Cu 0.77764 1.18815 -0.10636
 Cu62 Cu 0.78585 1.10873 -0.21706
 N63 N 0.87195 1.16970 -0.27998
 N64 N 0.82818 1.13600 -0.28327
 C65 C 0.82659 1.11502 -0.33464
 C66 C 0.87379 1.13328 -0.36500
 C67 C 0.90215 1.16819 -0.32897
 H68 H 0.79643 1.08349 -0.34630
 H69 H 0.94189 1.18971 -0.33719
 N70 N 0.72767 1.09546 -0.16049
 N71 N 0.72408 1.12666 -0.11627
 C72 C 0.68115 1.10720 -0.08276
 C73 C 0.65673 1.06162 -0.10796
 C74 C 0.68718 1.05552 -0.15725
 H75 H 0.66883 1.12460 -0.04307
 H76 H 0.68082 1.02403 -0.18814
 H77 H 0.84534 1.15737 -0.14972
 H78 H 0.79776 1.20591 -0.19266
 N79 N 0.13185 0.72985 -0.12798
 N80 N 0.09527 0.74457 -0.16803
 C81 C 0.05476 0.70442 -0.16824
 C82 C 0.06665 0.66272 -0.12584
 C83 C 0.11578 0.68020 -0.10112
 H84 H 0.01891 0.70574 -0.19642
 H85 H 0.13801 0.65850 -0.06602
 Cu86 Cu 0.10424 0.81525 -0.21497
 Cu87 Cu 0.19732 0.77620 -0.11322
 Cu88 Cu 0.21498 0.90164 -0.19809
 N89 N 0.11385 0.88602 -0.26151
 N90 N 0.15803 0.91892 -0.25635
 C91 C 0.15553 0.96292 -0.29615
 C92 C 0.10692 0.95720 -0.32752
 C93 C 0.08146 0.90817 -0.30412
 H94 H 0.18687 0.99616 -0.30201
 H95 H 0.04305 0.88910 -0.31824
 N96 N 0.26758 0.87645 -0.13658
 N97 N 0.26087 0.82853 -0.10467
 C98 C 0.30269 0.82355 -0.06624
 C99 C 0.33716 0.87060 -0.07411
 C100 C 0.31382 0.90333 -0.11899
 H101 H 0.30724 0.78878 -0.03417
 H102 H 0.32912 0.94396 -0.13698
 H103 H 0.16332 0.85415 -0.14263
 H104 H 0.20493 0.81424 -0.19479
 C105 C 0.49923 0.97283 0.01329
 C106 C -0.01325 0.49275 0.98871
 C107 C 0.99290 0.02634 0.50499
 N108 N 0.08353 0.45092 0.96679
 N109 N 0.12028 0.41064 0.99227
 C110 C 0.09596 0.38923 1.04088
 C111 C 0.04329 0.41406 1.04690
 C112 C 0.03757 0.45376 1.00059
 H113 H 0.01336 0.40579 1.08131
 H114 H 0.09121 0.47327 0.92777
 H115 H 0.15988 0.40065 0.97598
 N116 N 0.00753 0.53215 1.08518
 N117 N -0.01063 0.57422 1.11513
 C118 C -0.05610 0.59844 1.08952
 C119 C -0.06821 0.56975 1.04151
 C120 C -0.02649 0.52776 1.03981
 H121 H -0.09937 0.58111 1.00932
 H122 H 0.04506 0.51021 1.09425
 H123 H 0.00996 0.58777 1.15090
 N124 N -0.10897 0.44514 1.00658
 N125 N -0.13772 0.40284 0.98642
 C126 C -0.10958 0.38334 0.94166
 C127 C -0.06102 0.41511 0.93249
 C128 C -0.06183 0.45390 0.97487
 H129 H -0.02782 0.40871 0.90177
 H130 H -0.12074 0.46552 1.04297
 H131 H -0.17509 0.38660 1.00451
 N132 N -0.03309 0.54829 0.89338
 N133 N -0.01233 0.59363 0.86421
 C134 C 0.03345 0.61162 0.89137
 C135 C 0.04227 0.57635 0.93966
 C136 C -0.00065 0.53638 0.93963
 H137 H 0.07399 0.58040 0.97198
 H138 H -0.06997 0.52757 0.88251
 H139 H -0.03013 0.61245 0.82709
 N140 N 1.01226 -0.00941 0.41037
 N141 N 1.04404 0.00962 0.36168
 C142 C 1.05939 0.06440 0.36607
 C143 C 1.04047 0.08366 0.41744
 C144 C 1.01413 0.03671 0.44466
 H145 H 1.04817 0.12472 0.43433
 H146 H 0.97083 -0.08719 0.44104
 H147 H 1.05329 -0.01439 0.32687
 N148 N 1.08514 0.05424 0.55124
 N149 N 1.11634 0.03497 0.59898
 C150 C 1.08797 -0.00893 0.62538
 C151 C 1.03851 -0.01763 0.59645
 C152 C 1.03854 0.02167 0.54987
 H153 H 1.00677 -0.04971 0.60675
 H154 H 1.09694 0.08764 0.52227
 H155 H 1.15551 0.05096 0.61003
 N156 N 1.03756 -0.07381 0.47062
 N157 N 1.03198 -0.09544 0.39820
 C158 C 0.96721 -0.07169 0.36376
 C159 C 0.92335 -0.02760 0.42103
 C160 C 0.97639 -0.03170 0.49215
 H161 H 0.88664 -0.00119 0.41180
 H162 H 1.07585 -0.07520 0.49228
 H163 H 1.06223 -0.12074 0.37939
 N164 N 0.88857 0.04704 0.51868
 N165 N 0.85602 0.07827 0.55473
 C166 C 0.89063 0.11076 0.58385
 C167 C 0.94552 0.10456 0.56352
 C168 C 0.94302 0.06274 0.52336
 H169 H 0.98329 0.12073 0.58229
 H170 H 0.87310 0.00999 0.50279
 H171 H 0.81309 0.07113 0.56186
 N172 N 0.46675 1.07715 -0.00021
 N173 N 0.42932 1.11107 0.02205
 C174 C 0.40104 1.08146 0.06385
 C175 C 0.42141 1.02593 0.06853
 C176 C 0.46411 1.02496 0.02759
 H177 H 0.40725 0.99101 0.09732
 H178 H 0.49214 1.09012 -0.03493
 H179 H 0.42267 1.15356 0.00755
 N180 N 0.54214 0.96342 -0.08606
 N181 N 0.58380 0.98658 -0.11694
 C182 C 0.60892 1.02639 -0.08716
 C183 C 0.58260 1.02837 -0.03492
 C184 C 0.53958 0.98839 -0.03596
 H185 H 0.59296 1.05511 -0.00071
 H186 H 0.51694 0.93051 -0.09935
 H187 H 0.59464 0.97498 -0.15768
 N188 N 0.45112 0.87518 0.02493
 N189 N 0.40840 0.84913 0.00200
 C190 C 0.38680 0.88385 -0.04024
 C191 C 0.41707 0.93413 -0.04450
 C192 C 0.45783 0.92711 -0.00248
 H193 H 0.40975 0.97145 -0.07302
 H194 H 0.47405 0.85770 0.05957
 H195 H 0.39397 0.80857 0.01589
 N196 N 0.53879 0.97505 0.11410
 N197 N 0.58130 0.95175 0.14328
 C198 C 0.60714 0.91325 0.11185
 C199 C 0.57910 0.91109 0.06073
 C200 C 0.53606 0.95155 0.06330
 H201 H 0.59094 0.88710 0.02471
 H202 H 0.51439 1.00843 0.12833
 H203 H 0.59367 0.96424 0.18309
   
