data_POSCAR
  _audit_creation_date              2014-09-24
  _audit_creation_method            'ToBaCCo'
  _symmetry_space_group_name_H-M    'P1'
  _symmetry_Int_Tables_number       1
  _symmetry_cell_setting            triclinic
  loop_
  _symmetry_equiv_pos_as_xyz
 x,y,z
_cell_length_a 17.1723
_cell_length_b 17.1025
_cell_length_c 21.4570
_cell_angle_alpha 91.583300
_cell_angle_beta 87.097300
_cell_angle_gamma 120.410500
loop_
  _atom_site_label
  _atom_site_type_symbol
  _atom_site_fract_x
  _atom_site_fract_y
  _atom_site_fract_z
C1 C 0.00637 0.47943 1.40824
 C2 C 0.08869 0.54285 1.37825
 C3 C 0.08711 0.57261 1.31812
 C4 C 0.00397 0.53799 1.28801
 C5 C -0.07594 0.49552 1.32642
 C6 C -0.07555 0.46418 1.38602
 C7 C -0.00047 0.53920 1.21771
 C8 C -0.08493 0.49351 1.18790
 C9 C -0.08794 0.48911 1.12268
 C10 C -0.00805 0.53084 1.08663
 C11 C 0.07496 0.56840 1.11366
 C12 C 0.07949 0.57481 1.17870
 H13 H 0.00658 0.45474 1.45423
 H14 H 0.15108 0.61838 1.29491
 H15 H -0.13995 0.48190 1.30991
 H16 H -0.14877 0.45782 1.21368
 H17 H -0.01096 0.53231 1.03671
 H18 H 0.14574 0.60500 1.19734
 C19 C 0.52663 0.52076 1.40767
 C20 C 0.45851 0.53453 1.38665
 C21 C 0.42552 0.50281 1.32714
 C22 C 0.46258 0.46062 1.28822
 C23 C 0.51092 0.42587 1.31791
 C24 C 0.54405 0.45665 1.37761
 C25 C 0.45831 0.46114 1.21786
 C26 C 0.50256 0.42566 1.17878
 C27 C 0.50799 0.43531 1.11391
 C28 C 0.46573 0.47599 1.08694
 C29 C 0.42646 0.51645 1.12313
 C30 C 0.42168 0.50865 1.18832
 H31 H 0.55404 0.54724 1.45290
 H32 H 0.37500 0.51630 1.31093
 H33 H 0.52818 0.37970 1.29454
 H34 H 0.53607 0.39307 1.19733
 H35 H 0.46312 0.47636 1.03703
 H36 H 0.39260 0.54302 1.21450
 C37 C 0.55781 1.00229 1.41432
 C38 C 0.50695 0.91958 1.38363
 C39 C 0.49365 0.91854 1.31978
 C40 C 0.52693 1.00032 1.28601
 C41 C 0.56705 1.08246 1.32065
 C42 C 0.58538 1.08403 1.38372
 C43 C 0.51359 1.00003 1.21683
 C44 C 0.55180 1.08229 1.18274
 C45 C 0.53093 1.08236 1.12054
 C46 C 0.47433 1.00098 1.09100
 C47 C 0.44637 0.91898 1.12014
 C48 C 0.46492 0.91791 1.18282
 H49 H 0.56584 1.00251 1.46419
 H50 H 0.45369 0.85291 1.29872
 H51 H 0.58334 1.14613 1.30016
 H52 H 0.59845 1.14687 1.20290
 H53 H 0.46041 1.00133 1.04229
 H54 H 0.44119 0.85240 1.20315
 C55 C 0.99556 0.52721 0.58796
 C56 C 0.91431 0.47101 0.62099
 C57 C 0.91599 0.45033 0.68347
 C58 C 0.99952 0.48422 0.71294
 C59 C 1.07899 0.52298 0.67381
 C60 C 1.07755 0.54706 0.61211
 C61 C 1.00430 0.48072 0.78299
 C62 C 1.08873 0.52147 0.81264
 C63 C 1.09164 0.51665 0.87752
 C64 C 1.01156 0.47181 0.91326
 C65 C 0.92905 0.44230 0.88698
 C66 C 0.92467 0.44446 0.82225
 H67 H 0.99404 0.54424 0.53989
 H68 H 0.85172 0.40855 0.70757
 H69 H 1.14333 0.53836 0.69072
 H70 H 1.15258 0.55952 0.78718
 H71 H 1.01415 0.46316 0.96253
 H72 H 0.85864 0.41916 0.80431
 C73 C 0.47427 0.48140 0.58699
 C74 C 0.52873 0.45364 0.61275
 C75 C 0.54626 0.46761 0.67613
 C76 C 0.50763 0.50845 0.71512
 C77 C 0.46213 0.54668 0.68559
 C78 C 0.44551 0.53263 0.62189
 C79 C 0.51618 0.51213 0.78499
 C80 C 0.47667 0.55204 0.82417
 C81 C 0.48794 0.55905 0.88842
 C82 C 0.54121 0.52970 0.91422
 C83 C 0.57095 0.47983 0.87885
 C84 C 0.55886 0.47085 0.81452
 H85 H 0.46057 0.46964 0.53786
 H86 H 0.59014 0.44598 0.69337
 H87 H 0.43835 0.58668 0.71039
 H88 H 0.43549 0.57677 0.80664
 H89 H 0.55670 0.54222 0.96278
 H90 H 0.58142 0.42997 0.78949
 C91 C 0.45227 -0.00294 0.58496
 C92 C 0.50254 0.07951 0.61577
 C93 C 0.51426 0.08033 0.68004
 C94 C 0.47812 -0.00176 0.71436
 C95 C 0.43785 -0.08405 0.67954
 C96 C 0.42300 -0.08483 0.61561
 C97 C 0.48970 -0.00142 0.78421
 C98 C 0.45085 -0.08329 0.81906
 C99 C 0.47614 -0.08372 0.88051
 C100 C 0.53736 -0.00147 0.90812
 C101 C 0.56043 0.08049 0.88002
 C102 C 0.53833 0.08080 0.81806
 H103 H 0.44495 -0.00297 0.53500
 H104 H 0.55435 0.14584 0.70125
 H105 H 0.41862 -0.14816 0.70074
 H106 H 0.40260 -0.14745 0.79907
 H107 H 0.55564 -0.00070 0.95588
 H108 H 0.55941 0.14590 0.79795
 O109 O 0.47947 0.67685 0.94035
 O110 O 0.47920 0.82999 0.96007
 C111 C 0.43393 0.83860 0.91814
 O112 O 0.34951 0.78522 0.91534
 O113 O 0.18790 0.64240 0.93705
 C114 C 0.17434 0.56865 0.91225
 O115 O 0.21939 0.53188 0.92516
 O116 O 0.36571 0.53364 0.95715
 C117 C 0.44060 0.59212 0.93001
 O118 O 0.45839 0.64180 1.06182
 O119 O 0.44361 0.78725 1.08239
 C120 C 0.40980 0.83797 1.08051
 O121 O 0.35573 0.82967 1.03882
 O122 O 0.20142 0.68126 1.05855
 C123 C 0.15524 0.59774 1.07213
 O124 O 0.16987 0.53713 1.04717
 O125 O 0.31482 0.53719 1.07950
 C126 C 0.39752 0.57066 1.08935
 Cr127 Cr 0.46095 0.73197 1.01099
 Cr128 Cr 0.27586 0.73269 0.98753
 Cr129 Cr 0.26962 0.53910 1.00217
 O130 O 0.33476 0.66680 1.00019
 O131 O 0.54269 0.35542 0.93907
 O132 O 0.55997 0.21118 0.91884
 C133 C 0.59581 0.16205 0.91989
 O134 O 0.65263 0.17331 0.96015
 O135 O 0.80366 0.32614 0.94018
 C136 C 0.84865 0.41029 0.92865
 O137 O 0.83224 0.46875 0.95541
 O138 O 0.68511 0.46607 0.92453
 C139 C 0.60237 0.42880 0.91330
 O140 O 0.52171 0.32081 1.06115
 O141 O 0.52724 0.17229 1.04178
 C142 C 0.57482 0.16392 1.08176
 O143 O 0.65971 0.21543 1.08284
 O144 O 0.81860 0.36305 1.06181
 C145 C 0.82900 0.43460 1.08862
 O146 O 0.78023 0.46799 1.07798
 O147 O 0.63323 0.46493 1.04647
 C148 C 0.55853 0.40494 1.07274
 Cr149 Cr 0.54225 0.26709 0.99028
 Cr150 Cr 0.73131 0.27156 1.01118
 Cr151 Cr 0.73070 0.46264 1.00110
 O152 O 0.66840 0.33459 1.00074
 O153 O 0.65979 0.46149 0.56781
 O154 O 0.82142 0.47813 0.54806
 C155 C 0.83090 0.42896 0.58595
 O156 O 0.77883 0.34423 0.58670
 O157 O 0.63766 0.18583 0.56390
 C158 C 0.55532 0.16117 0.57700
 O159 O 0.51430 0.19687 0.55345
 O160 O 0.52411 0.35311 0.53409
 C161 C 0.57353 0.41863 0.57070
 O162 O 0.64680 0.47230 0.44780
 O163 O 0.79685 0.46202 0.42656
 C164 C 0.84681 0.42630 0.42563
 O165 O 0.83333 0.36278 0.46315
 O166 O 0.68800 0.20026 0.44362
 C167 C 0.61065 0.16126 0.42006
 O168 O 0.55104 0.18332 0.43230
 O169 O 0.56049 0.33717 0.40913
 C170 C 0.58760 0.42086 0.41059
 Cr171 Cr 0.72911 0.46371 0.49742
 Cr172 Cr 0.73243 0.27580 0.51371
 Cr173 Cr 0.54194 0.27027 0.48272
 O174 O 0.66680 0.33462 0.49813
 O175 O 0.34371 0.52362 0.55043
 O176 O 0.20054 0.54192 0.57120
 C177 C 0.15410 0.58120 0.57217
 O178 O 0.16922 0.64415 0.53371
 O179 O 0.31788 0.80087 0.55599
 C180 C 0.39573 0.83792 0.57875
 O181 O 0.45442 0.81522 0.56393
 O182 O 0.43677 0.65836 0.58800
 C183 C 0.40328 0.57373 0.58786
 O184 O 0.33336 0.53625 0.42883
 O185 O 0.17423 0.52801 0.45010
 C186 C 0.16803 0.57892 0.41171
 O187 O 0.22573 0.66266 0.40999
 O188 O 0.37096 0.81820 0.43612
 C189 C 0.45175 0.83811 0.42186
 O190 O 0.48855 0.79644 0.44278
 O191 O 0.47057 0.63576 0.46454
 C192 C 0.41942 0.57213 0.42710
 Cr193 Cr 0.26534 0.53686 0.50001
 Cr194 Cr 0.27277 0.72899 0.48435
 Cr195 Cr 0.45820 0.72416 0.51425
 O196 O 0.33324 0.66526 0.49949
   
