data_POSCAR
  _audit_creation_date              2014-09-24
  _audit_creation_method            'ToBaCCo'
  _symmetry_space_group_name_H-M    'P1'
  _symmetry_Int_Tables_number       1
  _symmetry_cell_setting            triclinic
  loop_
  _symmetry_equiv_pos_as_xyz
 x,y,z
_cell_length_a 53.2188
_cell_length_b 54.8585
_cell_length_c 52.6071
_cell_angle_alpha 90.161300
_cell_angle_beta 89.115500
_cell_angle_gamma 90.437900
loop_
  _atom_site_label
  _atom_site_type_symbol
  _atom_site_fract_x
  _atom_site_fract_y
  _atom_site_fract_z
N1 N 0.16715 0.19069 0.23585
 N2 N 0.18332 0.17287 0.23342
 C3 C 0.18212 0.15866 0.25414
 C4 C 0.16390 0.16778 0.27068
 C5 C 0.15482 0.18828 0.25830
 H6 H 0.19339 0.14257 0.25649
 H7 H 0.14030 0.20052 0.26491
 Cu8 Cu 0.20352 0.16881 0.20294
 Cu9 Cu 0.16371 0.21546 0.20940
 Cu10 Cu 0.20599 0.21207 0.15828
 N11 N 0.22961 0.16908 0.17703
 N12 N 0.22993 0.18529 0.15873
 C13 C 0.24886 0.18012 0.14234
 C14 C 0.26135 0.15969 0.15113
 C15 C 0.24854 0.15338 0.17335
 H16 H 0.25334 0.19072 0.12557
 H17 H 0.25202 0.13801 0.18557
 N18 N 0.18029 0.23765 0.16157
 N19 N 0.16383 0.23863 0.18060
 C20 C 0.14811 0.25734 0.17664
 C21 C 0.15517 0.26879 0.15419
 C22 C 0.17565 0.25585 0.14522
 H23 H 0.13264 0.26228 0.18912
 H24 H 0.18589 0.25902 0.12761
 H25 H 0.17682 0.19578 0.17855
 H26 H 0.20073 0.21262 0.19745
 N27 N -0.15327 0.81442 0.22368
 N28 N -0.16474 0.83479 0.21810
 C29 C -0.15446 0.85322 0.23135
 C30 C -0.13568 0.84387 0.24630
 C31 C -0.13552 0.81910 0.24101
 H32 H -0.16089 0.87187 0.23094
 H33 H -0.12354 0.80546 0.24921
 Cu34 Cu -0.19364 0.83482 0.19610
 Cu35 Cu -0.16323 0.78345 0.20856
 Cu36 Cu -0.19622 0.79033 0.15245
 N37 N -0.21916 0.83441 0.17027
 N38 N -0.21961 0.81760 0.15247
 C39 C -0.23800 0.82278 0.13606
 C40 C -0.25013 0.84380 0.14439
 C41 C -0.23752 0.85053 0.16625
 H42 H -0.24245 0.81170 0.11969
 H43 H -0.24078 0.86641 0.17799
 N44 N -0.17891 0.75994 0.16175
 N45 N -0.16704 0.75724 0.18338
 C46 C -0.15749 0.73467 0.18436
 C47 C -0.16368 0.72234 0.16229
 C48 C -0.17737 0.73898 0.14843
 H49 H -0.14656 0.72792 0.19995
 H50 H -0.18536 0.73623 0.12987
 H51 H -0.16806 0.80299 0.17657
 H52 H -0.19779 0.79072 0.19101
 N53 N -0.15051 0.18289 -0.22078
 N54 N -0.16104 0.16272 -0.21227
 C55 C -0.15241 0.14370 -0.22592
 C56 C -0.13561 0.15248 -0.24411
 C57 C -0.13484 0.17744 -0.24023
 H58 H -0.15887 0.12509 -0.22361
 H59 H -0.12392 0.19071 -0.25091
 Cu60 Cu -0.18709 0.16345 -0.18628
 Cu61 Cu -0.15798 0.21462 -0.20605
 Cu62 Cu -0.20530 0.21622 -0.15995
 N63 N -0.21980 0.16681 -0.17009
 N64 N -0.22704 0.18742 -0.15971
 C65 C -0.25034 0.18450 -0.14981
 C66 C -0.25834 0.16069 -0.15451
 C67 C -0.23824 0.15011 -0.16748
 H68 H -0.26060 0.19881 -0.14017
 H69 H -0.23680 0.13165 -0.17452
 N70 N -0.18572 0.24528 -0.17039
 N71 N -0.16814 0.24471 -0.18834
 C72 C -0.15746 0.26692 -0.19033
 C73 C -0.16876 0.28237 -0.17277
 C74 C -0.18673 0.26793 -0.16054
 H75 H -0.14182 0.27117 -0.20291
 H76 H -0.19901 0.27317 -0.14496
 H77 H -0.17022 0.20258 -0.17108
 H78 H -0.19475 0.20596 -0.19573
 N79 N 0.16035 0.82036 -0.22584
 N80 N 0.17662 0.83839 -0.22428
 C81 C 0.17419 0.85316 -0.24437
 C82 C 0.15530 0.84399 -0.25954
 C83 C 0.14685 0.82313 -0.24708
 H84 H 0.18550 0.86933 -0.24761
 H85 H 0.13236 0.81061 -0.25320
 Cu86 Cu 0.20021 0.84077 -0.19689
 Cu87 Cu 0.15887 0.79444 -0.20049
 Cu88 Cu 0.20820 0.79311 -0.15812
 N89 N 0.23007 0.83761 -0.17689
 N90 N 0.23335 0.81902 -0.16168
 C91 C 0.25551 0.82176 -0.14997
 C92 C 0.26684 0.84329 -0.15843
 C93 C 0.24996 0.85272 -0.17561
 H94 H 0.26264 0.80899 -0.13630
 H95 H 0.25164 0.86943 -0.18634
 N96 N 0.18061 0.76888 -0.15775
 N97 N 0.16146 0.76984 -0.17338
 C98 C 0.14492 0.75206 -0.16725
 C99 C 0.15418 0.73915 -0.14692
 C100 C 0.17688 0.75026 -0.14146
 H101 H 0.12735 0.74880 -0.17677
 H102 H 0.18923 0.74569 -0.12609
 H103 H 0.17697 0.81165 -0.17063
 H104 H 0.19724 0.79671 -0.19545
 N105 N 0.18536 1.16255 0.77034
 N106 N 0.16970 1.18089 0.76869
 C107 C 0.15527 1.17766 0.74808
 C108 C 0.16206 1.15600 0.73635
 C109 C 0.18125 1.14693 0.75101
 H110 H 0.14004 1.18944 0.74274
 H111 H 0.19113 1.12997 0.74816
 Cu112 Cu 0.16788 1.20551 0.79550
 Cu113 Cu 0.20872 1.15943 0.79845
 Cu114 Cu 0.20885 1.20581 0.84335
 N115 N 0.16623 1.23016 0.82225
 N116 N 0.18205 1.22974 0.84118
 C117 C 0.17628 1.24770 0.85769
 C118 C 0.15579 1.26018 0.84862
 C119 C 0.14995 1.24859 0.82601
 H120 H 0.18631 1.25145 0.87501
 H121 H 0.13453 1.25284 0.81367
 N122 N 0.23432 1.17987 0.84222
 N123 N 0.23455 1.16232 0.82500
 C124 C 0.25445 1.14784 0.82910
 C125 C 0.26718 1.15654 0.85010
 C126 C 0.25382 1.17684 0.85788
 H127 H 0.25915 1.13192 0.81789
 H128 H 0.25818 1.18871 0.87366
 H129 H 0.18866 1.17902 0.82582
 H130 H 0.21128 1.19636 0.80509
 N131 N 0.81380 0.82310 0.75800
 N132 N 0.83284 0.80814 0.75989
 C133 C 0.84915 0.81214 0.74058
 C134 C 0.83992 0.83059 0.72553
 C135 C 0.81732 0.83709 0.73719
 H136 H 0.86617 0.80190 0.73743
 H137 H 0.80439 0.85093 0.73110
 Cu138 Cu 0.83423 0.78379 0.78640
 Cu139 Cu 0.78569 0.82230 0.78245
 Cu140 Cu 0.79627 0.78875 0.83718
 N141 N 0.83056 0.75742 0.81072
 N142 N 0.81588 0.75948 0.83087
 C143 C 0.81785 0.73929 0.84516
 C144 C 0.83464 0.72357 0.83320
 C145 C 0.84228 0.73580 0.81134
 H146 H 0.80808 0.73657 0.86310
 H147 H 0.85556 0.72966 0.79702
 N148 N 0.76932 0.81286 0.83464
 N149 N 0.76451 0.82497 0.81365
 C150 C 0.74429 0.83917 0.81793
 C151 C 0.73609 0.83584 0.84286
 C152 C 0.75247 0.81902 0.85279
 H153 H 0.73643 0.85139 0.80412
 H154 H 0.75188 0.81137 0.87171
 H155 H 0.81008 0.81423 0.81031
 H156 H 0.79028 0.78819 0.79931
 N157 N 0.18220 0.82924 1.22743
 N158 N 0.16677 0.81058 1.23023
 C159 C 0.15153 0.81463 1.25049
 C160 C 0.15754 0.83720 1.26071
 C161 C 0.17706 0.84596 1.24550
 H162 H 0.13646 0.80259 1.25664
 H163 H 0.18673 0.86328 1.24727
 Cu164 Cu 0.16632 0.78437 1.20519
 Cu165 Cu 0.20697 0.83087 1.19974
 Cu166 Cu 0.21835 0.77538 1.16987
 N167 N 0.16773 0.75900 1.17926
 N168 N 0.18835 0.75520 1.16580
 C169 C 0.18439 0.73668 1.14946
 C170 C 0.15978 0.72868 1.15253
 C171 C 0.14978 0.74329 1.17164
 H172 H 0.19814 0.73016 1.13575
 H173 H 0.13085 0.74259 1.17937
 N174 N 0.24181 0.80328 1.16778
 N175 N 0.23725 0.82450 1.17872
 C176 C 0.25641 0.83990 1.17337
 C177 C 0.27380 0.82790 1.15808
 C178 C 0.26383 0.80471 1.15488
 H179 H 0.25745 0.85858 1.17990
 H180 H 0.27195 0.78994 1.14396
 H181 H 0.19473 0.80384 1.17433
 H182 H 0.21106 0.79456 1.20387
 N183 N 0.81690 1.17562 1.24184
 N184 N 0.83560 1.19129 1.23971
 C185 C 0.85139 1.18825 1.25912
 C186 C 0.84222 1.16958 1.27440
 C187 C 0.82022 1.16200 1.26279
 H188 H 0.86813 1.19912 1.26199
 H189 H 0.80772 1.14745 1.26885
 Cu190 Cu 0.83755 1.21467 1.21228
 Cu191 Cu 0.79020 1.17378 1.21670
 Cu192 Cu 0.79442 1.21523 1.16688
 N193 N 0.83279 1.24319 1.19125
 N194 N 0.81587 1.24334 1.17336
 C195 C 0.81706 1.26480 1.16109
 C196 C 0.83570 1.27904 1.17200
 C197 C 0.84525 1.26462 1.19114
 H198 H 0.80545 1.26939 1.14515
 H199 H 0.86025 1.26916 1.20397
 N200 N 0.76770 1.19041 1.16975
 N201 N 0.76554 1.17502 1.18891
 C202 C 0.74494 1.16100 1.18546
 C203 C 0.73358 1.16794 1.16305
 C204 C 0.74862 1.18667 1.15371
 H205 H 0.73885 1.14659 1.19815
 H206 H 0.74573 1.19717 1.13667
 H207 H 0.81118 1.18693 1.18706
 H208 H 0.79276 1.20994 1.20543
 O209 O 0.51990 0.96953 0.96396
 O210 O 0.48158 0.97552 1.05064
 O211 O 0.55645 0.99685 1.02366
 O212 O 0.47465 0.96779 0.97102
 O213 O 0.52913 0.97711 1.04783
 O214 O 0.48554 0.98758 0.93715
 O215 O 0.47356 0.95871 1.01500
 O216 O 0.55261 0.98907 0.97818
 C217 C 0.54311 0.97033 0.96776
 C218 C 0.47297 0.95784 1.03848
 C219 C 0.55127 0.98037 1.03987
 C220 C 0.47052 0.97178 0.94777
 O221 O 0.48740 1.02754 0.96164
 O222 O 0.52768 1.02376 1.05172
 O223 O 0.53226 1.03562 0.97377
 O224 O 0.45285 1.00294 1.02602
 O225 O 0.48047 1.02282 1.04874
 O226 O 0.52840 1.01077 0.94434
 O227 O 0.45511 1.01282 0.98097
 O228 O 0.53568 1.04188 1.01685
 Co229 Co 0.50286 0.99831 0.96446
 Co230 Co 0.50466 0.99992 1.04521
 Co231 Co 0.54130 1.01467 0.99829
 Co232 Co 0.46742 0.98691 0.99856
 O233 O 0.50500 1.00086 1.00325
 C234 C 0.46478 1.02919 0.96743
 C235 C 0.53640 1.04178 1.04026
 C236 C 0.53727 1.03049 0.95138
 C237 C 0.45827 1.01957 1.04183
 O238 O 0.02464 0.47766 0.03174
 O239 O 0.02341 0.52353 -0.03454
 O240 O 0.00013 0.44872 -0.02150
 O241 O -0.00398 0.54892 0.02401
 O242 O 0.02209 0.47680 -0.04194
 O243 O 0.02392 0.52185 0.02932
 O244 O -0.00360 0.55038 -0.02152
 O245 O -0.00267 0.44996 0.02519
 C246 C 0.01932 0.45566 0.03063
 C247 C 0.01810 0.54524 -0.02977
 C248 C 0.01836 0.45493 -0.03584
 C249 C 0.01834 0.54375 0.02854
 O250 O -0.02246 0.52177 0.05247
 O251 O -0.02528 0.47999 -0.05414
 O252 O -0.04906 0.46721 0.02360
 O253 O -0.05027 0.53008 -0.02200
 O254 O -0.02339 0.52509 -0.05197
 O255 O -0.02278 0.47786 0.05271
 O256 O -0.04956 0.52601 0.02356
 O257 O -0.04736 0.46059 -0.02478
 Co258 Co -0.00027 0.49980 0.03806
 Co259 Co -0.00172 0.50141 -0.04120
 Co260 Co -0.02370 0.46077 0.00075
 Co261 Co -0.02567 0.53564 0.00099
 O262 O -0.01252 0.49925 -0.00063
 C263 C -0.04450 0.52672 0.04641
 C264 C -0.04373 0.46665 -0.04748
 C265 C -0.04419 0.46992 0.04653
 C266 C -0.04512 0.53094 -0.04497
 O267 O 1.05786 0.01305 0.47627
 O268 O 0.95445 0.02008 0.52469
 O269 O 0.98630 0.04436 0.47217
 O270 O 1.02117 0.00702 0.54982
 O271 O 0.95184 0.02516 0.47704
 O272 O 1.04038 0.02540 0.51941
 O273 O 0.97634 -0.00267 0.55036
 O274 O 1.02891 0.03803 0.47504
 C275 C 1.05103 0.03347 0.46947
 C276 C 0.96126 0.01473 0.54673
 C277 C 0.96322 0.04409 0.47073
 C278 C 1.03464 0.02445 0.54238
 O279 O 1.06436 -0.01452 0.51665
 O280 O 0.95580 -0.02106 0.47070
 O281 O 1.02461 -0.00601 0.44895
 O282 O 0.98689 -0.04464 0.52451
 O283 O 0.95207 -0.02678 0.51831
 O284 O 1.03817 -0.02897 0.47944
 O285 O 1.03069 -0.03543 0.52476
 O286 O 0.97970 0.00159 0.44564
 Co287 Co 1.03767 -0.00211 0.50017
 Co288 Co 0.95798 -0.00050 0.49778
 Co289 Co 1.00465 0.01804 0.46325
 Co290 Co 1.00350 -0.01727 0.53414
 O291 O 0.99943 0.00052 0.49800
 C292 C 1.05352 -0.03154 0.53000
 C293 C 0.96442 -0.01606 0.44895
 C294 C 1.03453 -0.02572 0.45615
 C295 C 0.96366 -0.04525 0.52515
 C296 C 1.13815 0.13526 0.33963
 C297 C 1.12677 0.15648 0.33048
 C298 C 1.13555 0.16758 0.30808
 C299 C 1.15588 0.15766 0.29413
 C300 C 1.16768 0.13683 0.30394
 C301 C 1.15895 0.12585 0.32630
 C302 C 1.12776 0.12227 0.36220
 N303 N 1.13816 0.10112 0.37014
 N304 N 1.12793 0.08852 0.38932
 C305 C 1.10683 0.09654 0.40142
 N306 N 1.09662 0.11787 0.39373
 N307 N 1.10686 0.13047 0.37454
 C308 C 1.09419 0.08151 0.42130
 C309 C 1.07145 0.08921 0.43250
 C310 C 1.05801 0.07392 0.44905
 C311 C 1.06704 0.05064 0.45485
 C312 C 1.09034 0.04333 0.44471
 C313 C 1.10379 0.05861 0.42806
 H314 H 1.11074 0.16430 0.34035
 H315 H 1.12588 0.18361 0.30157
 H316 H 1.18362 0.12858 0.29443
 H317 H 1.16833 0.10964 0.33286
 H318 H 1.06355 0.10675 0.42788
 H319 H 1.04011 0.08005 0.45667
 H320 H 1.09768 0.02544 0.44887
 H321 H 1.12130 0.05214 0.41987
 C322 C 0.90455 -0.11634 0.30344
 C323 C 0.90158 -0.14176 0.30529
 C324 C 0.88922 -0.15484 0.28631
 C325 C 0.87928 -0.14271 0.26530
 C326 C 0.88279 -0.11740 0.26315
 C327 C 0.89543 -0.10437 0.28193
 C328 C 0.91590 -0.10221 0.32438
 N329 N 0.92361 -0.07879 0.32078
 N330 N 0.93247 -0.06563 0.34003
 C331 C 0.93382 -0.07530 0.36369
 N332 N 0.92633 -0.09879 0.36723
 N333 N 0.91761 -0.11198 0.34796
 C334 C 0.94223 -0.06029 0.38540
 C335 C 0.93654 -0.06758 0.41042
 C336 C 0.94351 -0.05304 0.43097
 C337 C 0.95659 -0.03100 0.42700
 C338 C 0.96266 -0.02386 0.40201
 C339 C 0.95539 -0.03828 0.38139
 H340 H 0.90851 -0.15152 0.32158
 H341 H 0.88673 -0.17433 0.28855
 H342 H 0.87559 -0.10759 0.24702
 H343 H 0.89739 -0.08480 0.27994
 H344 H 0.92635 -0.08439 0.41415
 H345 H 0.93878 -0.05917 0.45001
 H346 H 0.97291 -0.00706 0.39837
 H347 H 0.96017 -0.03225 0.36233
 C348 C 0.89815 0.11133 0.69490
 C349 C 0.89511 0.13666 0.69274
 C350 C 0.88471 0.15010 0.71279
 C351 C 0.87688 0.13847 0.73533
 C352 C 0.88031 0.11322 0.73769
 C353 C 0.89098 0.09980 0.71773
 C354 C 0.90803 0.09700 0.67317
 N355 N 0.91561 0.07363 0.67630
 N356 N 0.92395 0.06060 0.65655
 C357 C 0.92487 0.07035 0.63285
 N358 N 0.91731 0.09372 0.62974
 N359 N 0.90910 0.10678 0.64950
 C360 C 0.93381 0.05585 0.61084
 C361 C 0.92931 0.06372 0.58593
 C362 C 0.93786 0.05014 0.56510
 C363 C 0.95131 0.02854 0.56874
 C364 C 0.95578 0.02063 0.59364
 C365 C 0.94700 0.03408 0.61448
 H366 H 0.90058 0.14610 0.67545
 H367 H 0.88218 0.16950 0.71031
 H368 H 0.87470 0.10380 0.75494
 H369 H 0.89310 0.08032 0.71999
 H370 H 0.91908 0.08035 0.58250
 H371 H 0.93420 0.05674 0.54614
 H372 H 0.96613 0.00407 0.59704
 H373 H 0.95082 0.02758 0.63343
 C374 C 1.12936 -0.12468 0.67065
 C375 C 1.11558 -0.14348 0.68267
 C376 C 1.12408 -0.15387 0.70518
 C377 C 1.14653 -0.14568 0.71616
 C378 C 1.16049 -0.12719 0.70385
 C379 C 1.15201 -0.11683 0.68141
 C380 C 1.11986 -0.11276 0.64751
 N381 N 1.13248 -0.09365 0.63683
 N382 N 1.12340 -0.08218 0.61672
 C383 C 1.10131 -0.08937 0.60640
 N384 N 1.08883 -0.10863 0.61692
 N385 N 1.09790 -0.12009 0.63704
 C386 C 1.09034 -0.07570 0.58506
 C387 C 1.06693 -0.08273 0.57534
 C388 C 1.05544 -0.06874 0.55681
 C389 C 1.06711 -0.04747 0.54750
 C390 C 1.09092 -0.04086 0.55639
 C391 C 1.10244 -0.05484 0.57506
 H392 H 1.09803 -0.14997 0.67491
 H393 H 1.11280 -0.16801 0.71414
 H394 H 1.17804 -0.12060 0.71144
 H395 H 1.16317 -0.10248 0.67263
 H396 H 1.05713 -0.09873 0.58246
 H397 H 1.03711 -0.07434 0.55016
 H398 H 1.10024 -0.02447 0.54955
 H399 H 1.12052 -0.04894 0.58209
 C400 C 0.32236 1.12178 1.11724
 C401 C 0.30977 1.13972 1.10352
 C402 C 0.29003 1.15274 1.11485
 C403 C 0.28195 1.14752 1.13992
 C404 C 0.29477 1.12943 1.15348
 C405 C 0.31486 1.11697 1.14238
 C406 C 0.34304 1.10777 1.10550
 N407 N 0.36165 1.09882 1.12007
 N408 N 0.37994 1.08547 1.10976
 C409 C 0.38017 1.08027 1.08453
 N410 N 0.36156 1.08921 1.06991
 N411 N 0.34339 1.10281 1.08019
 C412 C 0.40012 1.06490 1.07339
 C413 C 0.39541 1.05028 1.05202
 C414 C 0.41415 1.03513 1.04207
 C415 C 0.43814 1.03489 1.05284
 C416 C 0.44286 1.04970 1.07411
 C417 C 0.42395 1.06435 1.08444
 H418 H 0.31532 1.14381 1.08409
 H419 H 0.28075 1.16634 1.10357
 H420 H 0.28970 1.12495 1.17290
 H421 H 0.32424 1.10316 1.15336
 H422 H 0.37711 1.05020 1.04331
 H423 H 0.40990 1.02374 1.02582
 H424 H 0.46113 1.04983 1.08290
 H425 H 0.42806 1.07549 1.10091
 C426 C 0.33502 0.87593 0.86571
 C427 C 0.32105 0.88650 0.84628
 C428 C 0.29882 0.87559 0.83811
 C429 C 0.28988 0.85370 0.84911
 C430 C 0.30437 0.84280 0.86812
 C431 C 0.32658 0.85382 0.87634
 C432 C 0.35761 0.88846 0.87557
 N433 N 0.36937 0.87985 0.89638
 N434 N 0.38872 0.89190 0.90623
 C435 C 0.39720 0.91305 0.89568
 N436 N 0.38568 0.92149 0.87463
 N437 N 0.36628 0.90945 0.86480
 C438 C 0.41748 0.92726 0.90786
 C439 C 0.42776 0.94825 0.89625
 C440 C 0.44564 0.96250 0.90885
 C441 C 0.45330 0.95609 0.93331
 C442 C 0.44346 0.93486 0.94463
 C443 C 0.42588 0.92054 0.93201
 H444 H 0.32702 0.90350 0.83761
 H445 H 0.28873 0.88469 0.82326
 H446 H 0.29853 0.82597 0.87715
 H447 H 0.33695 0.84512 0.89131
 H448 H 0.42171 0.95389 0.87762
 H449 H 0.45294 0.97885 0.89979
 H450 H 0.44913 0.92943 0.96347
 H451 H 0.41840 0.90453 0.94155
 C452 C 0.68910 0.88097 1.11115
 C453 C 0.70178 0.86270 1.09749
 C454 C 0.72153 0.85001 1.10857
 C455 C 0.72954 0.85592 1.13328
 C456 C 0.71676 0.87447 1.14670
 C457 C 0.69664 0.88657 1.13589
 C458 C 0.66816 0.89439 1.09985
 N459 N 0.64904 0.90271 1.11481
 N460 N 0.63046 0.91551 1.10492
 C461 C 0.63041 0.92078 1.07974
 N462 N 0.64953 0.91248 1.06473
 N463 N 0.66800 0.89941 1.07458
 C464 C 0.61014 0.93564 1.06911
 C465 C 0.61491 0.95115 1.04839
 C466 C 0.59590 0.96601 1.03914
 C467 C 0.57158 0.96507 1.04993
 C468 C 0.56681 0.94931 1.07049
 C469 C 0.58597 0.93494 1.08015
 H470 H 0.69622 0.85803 1.07836
 H471 H 0.73082 0.83605 1.09741
 H472 H 0.72179 0.87952 1.16585
 H473 H 0.68720 0.90066 1.14679
 H474 H 0.63348 0.95223 1.03974
 H475 H 0.60027 0.97825 1.02355
 H476 H 0.54831 0.94822 1.07930
 H477 H 0.58181 0.92309 1.09613
 C478 C 0.67279 1.12656 0.86744
 C479 C 0.69055 1.11410 0.85243
 C480 C 0.71310 1.12538 0.84508
 C481 C 0.71854 1.14958 0.85240
 C482 C 0.70037 1.16221 0.86698
 C483 C 0.67786 1.15081 0.87446
 C484 C 0.64966 1.11394 0.87658
 N485 N 0.63428 1.12455 0.89415
 N486 N 0.61441 1.11256 0.90361
 C487 C 0.60901 1.08949 0.89586
 N488 N 0.62415 1.07903 0.87798
 N489 N 0.64405 1.09100 0.86855
 C490 C 0.58831 1.07540 0.90811
 C491 C 0.58178 1.05197 0.89930
 C492 C 0.56418 1.03767 0.91267
 C493 C 0.55301 1.04648 0.93518
 C494 C 0.55872 1.07023 0.94338
 C495 C 0.57606 1.08458 0.92993
 H496 H 0.68728 1.09540 0.84666
 H497 H 0.72614 1.11481 0.83370
 H498 H 0.70348 1.18080 0.87310
 H499 H 0.66454 1.16098 0.88599
 H500 H 0.59077 1.04440 0.88248
 H501 H 0.56011 1.01938 0.90602
 H502 H 0.55029 1.07748 0.96066
 H503 H 0.58054 1.10254 0.93723
 C504 C 0.11836 0.32748 0.11593
 C505 C 0.10489 0.31229 0.13286
 C506 C 0.11698 0.29361 0.14574
 C507 C 0.14271 0.28944 0.14163
 C508 C 0.15626 0.30473 0.12487
 C509 C 0.14425 0.32372 0.11232
 C510 C 0.10517 0.34661 0.10166
 N511 N 0.11778 0.36605 0.09161
 N512 N 0.10564 0.38315 0.07876
 C513 C 0.08046 0.38129 0.07523
 N514 N 0.06795 0.36180 0.08521
 N515 N 0.08002 0.34487 0.09820
 C516 C 0.06650 0.40014 0.06132
 C517 C 0.04289 0.39436 0.05135
 C518 C 0.02827 0.41230 0.04037
 C519 C 0.03673 0.43661 0.03927
 C520 C 0.06084 0.44232 0.04819
 C521 C 0.07569 0.42417 0.05902
 H522 H 0.08494 0.31480 0.13614
 H523 H 0.10601 0.28203 0.15839
 H524 H 0.17617 0.30206 0.12150
 H525 H 0.15509 0.33510 0.09935
 H526 H 0.03542 0.37596 0.05247
 H527 H 0.00989 0.40719 0.03348
 H528 H 0.06788 0.46089 0.04749
 H529 H 0.09388 0.42912 0.06648
 C530 C -0.14280 0.35371 -0.15014
 C531 C -0.13105 0.34133 -0.17042
 C532 C -0.14005 0.31864 -0.17842
 C533 C -0.16101 0.30770 -0.16629
 C534 C -0.17356 0.32072 -0.14693
 C535 C -0.16457 0.34344 -0.13896
 C536 C -0.13121 0.37597 -0.13925
 N537 N -0.14176 0.38702 -0.11863
 N538 N -0.12993 0.40520 -0.10690
 C539 C -0.10704 0.41316 -0.11527
 N540 N -0.09676 0.40256 -0.13631
 N541 N -0.10861 0.38435 -0.14805
 C542 C -0.09238 0.43077 -0.09993
 C543 C -0.06831 0.43868 -0.10797
 C544 C -0.05289 0.45188 -0.09147
 C545 C -0.06120 0.45707 -0.06660
 C546 C -0.08579 0.45059 -0.05919
 C547 C -0.10127 0.43774 -0.07572
 H548 H -0.11435 0.34877 -0.17961
 H549 H -0.12998 0.30948 -0.19361
 H550 H -0.18995 0.31318 -0.13734
 H551 H -0.17423 0.35254 -0.12339
 H552 H -0.06095 0.43375 -0.12657
 H553 H -0.03398 0.45670 -0.09760
 H554 H -0.09274 0.45466 -0.04020
 H555 H -0.11975 0.43219 -0.06894
 C556 C 0.11773 0.68082 -0.10583
 C557 C 0.14408 0.68257 -0.10673
 C558 C 0.15598 0.70159 -0.12001
 C559 C 0.14175 0.71891 -0.13302
 C560 C 0.11544 0.71694 -0.13238
 C561 C 0.10355 0.69823 -0.11875
 C562 C 0.10488 0.66103 -0.09155
 N563 N 0.08057 0.66355 -0.08392
 N564 N 0.06860 0.64561 -0.07170
 C565 C 0.08036 0.62433 -0.06668
 N566 N 0.10475 0.62179 -0.07421
 N567 N 0.11681 0.63985 -0.08630
 C568 C 0.06624 0.60404 -0.05450
 C569 C 0.07445 0.57981 -0.05678
 C570 C 0.05929 0.56055 -0.04792
 C571 C 0.03577 0.56524 -0.03648
 C572 C 0.02833 0.58955 -0.03293
 C573 C 0.04332 0.60869 -0.04190
 H574 H 0.15547 0.66942 -0.09692
 H575 H 0.17630 0.70261 -0.12032
 H576 H 0.10397 0.73014 -0.14203
 H577 H 0.08322 0.69730 -0.11852
 H578 H 0.09207 0.57567 -0.06635
 H579 H 0.06559 0.54200 -0.05077
 H580 H 0.01045 0.59383 -0.02394
 H581 H 0.03663 0.62716 -0.03949
 C582 C -0.13980 0.65063 0.13887
 C583 C -0.15882 0.66272 0.12572
 C584 C -0.16688 0.68580 0.13354
 C585 C -0.15617 0.69730 0.15473
 C586 C -0.13768 0.68486 0.16830
 C587 C -0.12960 0.66184 0.16046
 C588 C -0.12951 0.62727 0.12922
 N589 N -0.10909 0.61715 0.14008
 N590 N -0.09834 0.59745 0.13000
 C591 C -0.10760 0.58695 0.10865
 N592 N -0.12838 0.59674 0.09814
 N593 N -0.13911 0.61646 0.10820
 C594 C -0.09364 0.56727 0.09537
 C595 C -0.10239 0.55781 0.07225
 C596 C -0.08702 0.54301 0.05713
 C597 C -0.06261 0.53731 0.06482
 C598 C -0.05469 0.54488 0.08894
 C599 C -0.07006 0.55976 0.10408
 H600 H -0.16713 0.65462 0.10901
 H601 H -0.18136 0.69464 0.12278
 H602 H -0.12889 0.69305 0.18466
 H603 H -0.11494 0.65306 0.17107
 H604 H -0.12059 0.56290 0.06512
 H605 H -0.09374 0.53716 0.03874
 H606 H -0.03602 0.54064 0.09543
 H607 H -0.06284 0.56648 0.12193
 C608 C 1.12382 0.12061 0.67458
 C609 C 1.13608 0.10689 0.69313
 C610 C 1.14905 0.11842 0.71275
 C611 C 1.14963 0.14395 0.71459
 C612 C 1.13753 0.15774 0.69598
 C613 C 1.12498 0.14619 0.67600
 C614 C 1.10932 0.10812 0.65447
 N615 N 1.10491 0.11904 0.63181
 N616 N 1.09192 0.10749 0.61383
 C617 C 1.08257 0.08469 0.61796
 N618 N 1.08691 0.07389 0.64065
 N619 N 1.10007 0.08531 0.65847
 C620 C 1.06830 0.07139 0.59822
 C621 C 1.05179 0.05248 0.60545
 C622 C 1.03990 0.03822 0.58717
 C623 C 1.04449 0.04221 0.56112
 C624 C 1.06025 0.06173 0.55375
 C625 C 1.07190 0.07633 0.57218
 H626 H 1.13563 0.08715 0.69250
 H627 H 1.15800 0.10728 0.72690
 H628 H 1.13780 0.17746 0.69686
 H629 H 1.11566 0.15724 0.66202
 H630 H 1.04836 0.04839 0.62534
 H631 H 1.02781 0.02341 0.59355
 H632 H 1.06414 0.06523 0.53382
 H633 H 1.08453 0.09081 0.56606
 C634 C 0.87449 -0.14108 0.65679
 C635 C 0.88817 -0.15556 0.67357
 C636 C 0.87694 -0.16461 0.69581
 C637 C 0.85171 -0.15946 0.70191
 C638 C 0.83797 -0.14499 0.68514
 C639 C 0.84922 -0.13593 0.66281
 C640 C 0.88683 -0.13086 0.63360
 N641 N 0.87395 -0.11649 0.61744
 N642 N 0.88543 -0.10633 0.59738
 C643 C 0.91027 -0.11013 0.59256
 N644 N 0.92305 -0.12478 0.60853
 N645 N 0.91157 -0.13495 0.62858
 C646 C 0.92359 -0.09681 0.57177
 C647 C 0.94983 -0.09859 0.56859
 C648 C 0.96285 -0.08307 0.55183
 C649 C 0.94989 -0.06545 0.53793
 C650 C 0.92351 -0.06500 0.53963
 C651 C 0.91051 -0.08050 0.55634
 H652 H 0.90768 -0.15981 0.66967
 H653 H 0.88828 -0.17542 0.70832
 H654 H 0.81848 -0.14077 0.68910
 H655 H 0.83812 -0.12481 0.65034
 H656 H 0.96049 -0.11113 0.57997
 H657 H 0.98317 -0.08389 0.55093
 H658 H 0.91296 -0.05171 0.52907
 H659 H 0.89030 -0.07882 0.55803
 C660 C 1.11888 -0.12529 0.32166
 C661 C 1.13140 -0.11222 0.30226
 C662 C 1.14430 -0.12442 0.28277
 C663 C 1.14464 -0.15000 0.28197
 C664 C 1.13216 -0.16313 0.30136
 C665 C 1.11962 -0.15089 0.32117
 C666 C 1.10482 -0.11210 0.34191
 N667 N 1.09919 -0.12281 0.36460
 N668 N 1.08671 -0.11063 0.38275
 C669 C 1.07913 -0.08735 0.37879
 N670 N 1.08467 -0.07677 0.35606
 N671 N 1.09729 -0.08884 0.33805
 C672 C 1.06566 -0.07332 0.39883
 C673 C 1.05198 -0.05257 0.39216
 C674 C 1.04099 -0.03788 0.41084
 C675 C 1.04362 -0.04334 0.43675
 C676 C 1.05643 -0.06463 0.44350
 C677 C 1.06724 -0.07959 0.42467
 H678 H 1.13129 -0.09248 0.30213
 H679 H 1.15355 -0.11378 0.26801
 H680 H 1.13225 -0.18287 0.30132
 H681 H 1.11012 -0.16147 0.33582
 H682 H 1.05009 -0.04741 0.37243
 H683 H 1.03106 -0.02175 0.40492
 H684 H 1.05868 -0.06936 0.46331
 H685 H 1.07760 -0.09552 0.43038
 C686 C 0.87606 0.14111 0.34214
 C687 C 0.85113 0.13500 0.33610
 C688 C 0.84011 0.14424 0.31418
 C689 C 0.85372 0.15987 0.29782
 C690 C 0.87858 0.16611 0.30402
 C691 C 0.88959 0.15685 0.32586
 C692 C 0.88816 0.13053 0.36480
 N693 N 0.91282 0.13491 0.36951
 N694 N 0.92404 0.12440 0.38907
 C695 C 0.91105 0.10913 0.40485
 N696 N 0.88630 0.10504 0.40034
 N697 N 0.87509 0.11552 0.38076
 C698 C 0.92404 0.09555 0.42511
 C699 C 0.91067 0.07878 0.44040
 C700 C 0.92335 0.06319 0.45667
 C701 C 0.94969 0.06405 0.45811
 C702 C 0.96292 0.08205 0.44433
 C703 C 0.95023 0.09763 0.42796
 H704 H 0.84013 0.12290 0.34817
 H705 H 0.82090 0.13915 0.31017
 H706 H 0.88979 0.17791 0.29185
 H707 H 0.90884 0.16191 0.32985
 H708 H 0.89048 0.07687 0.43897
 H709 H 0.91261 0.04962 0.46719
 H710 H 0.98323 0.08317 0.44504
 H711 H 0.96111 0.11050 0.41667
 C712 C 0.11736 0.32030 -0.11548
 C713 C 0.11672 0.31716 -0.14201
 C714 C 0.12905 0.29755 -0.15367
 C715 C 0.14262 0.28092 -0.13910
 C716 C 0.14346 0.28419 -0.11263
 C717 C 0.13079 0.30353 -0.10093
 C718 C 0.10391 0.34078 -0.10303
 N719 N 0.09796 0.34003 -0.07783
 N720 N 0.08558 0.35829 -0.06669
 C721 C 0.07881 0.37817 -0.08023
 N722 N 0.08489 0.37899 -0.10540
 N723 N 0.09711 0.36065 -0.11658
 C724 C 0.06454 0.39826 -0.06801
 C725 C 0.06364 0.42135 -0.07947
 C726 C 0.04933 0.44002 -0.06852
 C727 C 0.03525 0.43587 -0.04612
 C728 C 0.03643 0.41291 -0.03444
 C729 C 0.05111 0.39437 -0.04514
 H730 H 0.10645 0.32971 -0.15375
 H731 H 0.12820 0.29560 -0.17412
 H732 H 0.15358 0.27156 -0.10086
 H733 H 0.13169 0.30547 -0.08047
 H734 H 0.07390 0.42496 -0.09701
 H735 H 0.04870 0.45749 -0.07802
 H736 H 0.02580 0.40920 -0.01714
 H737 H 0.05138 0.37679 -0.03585
 C738 C -0.13788 0.34973 0.14712
 C739 C -0.12490 0.33678 0.16575
 C740 C -0.13369 0.31408 0.17414
 C741 C -0.15570 0.30375 0.16412
 C742 C -0.16906 0.31704 0.14602
 C743 C -0.16026 0.33974 0.13763
 C744 C -0.12732 0.37268 0.13647
 N745 N -0.13858 0.38391 0.11675
 N746 N -0.12789 0.40318 0.10554
 C747 C -0.10551 0.41211 0.11361
 N748 N -0.09452 0.40123 0.13372
 N749 N -0.10521 0.38194 0.14492
 C750 C -0.09194 0.43122 0.09885
 C751 C -0.06826 0.43978 0.10656
 C752 C -0.05338 0.45412 0.09026
 C753 C -0.06183 0.45999 0.06589
 C754 C -0.08631 0.45318 0.05905
 C755 C -0.10125 0.43903 0.07540
 H756 H -0.10758 0.34390 0.17347
 H757 H -0.12282 0.30447 0.18806
 H758 H -0.18623 0.30991 0.13806
 H759 H -0.17081 0.34922 0.12331
 H760 H -0.06063 0.43435 0.12463
 H761 H -0.03462 0.45922 0.09609
 H762 H -0.09343 0.45771 0.04048
 H763 H -0.11952 0.43304 0.06895
 C764 C -0.13838 0.65475 -0.13904
 C765 C -0.15908 0.66616 -0.12727
 C766 C -0.16805 0.68829 -0.13646
 C767 C -0.15656 0.69955 -0.15767
 C768 C -0.13622 0.68782 -0.16977
 C769 C -0.12724 0.66572 -0.16057
 C770 C -0.12768 0.63223 -0.12820
 N771 N -0.10684 0.62193 -0.13875
 N772 N -0.09611 0.60279 -0.12793
 C773 C -0.10580 0.59309 -0.10613
 N774 N -0.12689 0.60313 -0.09584
 N775 N -0.13761 0.62226 -0.10665
 C776 C -0.09228 0.57366 -0.09250
 C777 C -0.10113 0.56544 -0.06869
 C778 C -0.08643 0.55021 -0.05388
 C779 C -0.06258 0.54281 -0.06257
 C780 C -0.05453 0.54948 -0.08716
 C781 C -0.06922 0.56479 -0.10197
 H782 H -0.16816 0.65822 -0.11066
 H783 H -0.18390 0.69657 -0.12677
 H784 H -0.12677 0.69584 -0.18608
 H785 H -0.11126 0.65747 -0.17012
 H786 H -0.11892 0.57166 -0.06091
 H787 H -0.09325 0.54518 -0.03509
 H788 H -0.03628 0.54396 -0.09442
 H789 H -0.06193 0.57055 -0.12034
 C790 C 0.12140 0.67370 0.10881
 C791 C 0.14761 0.67290 0.11153
 C792 C 0.16012 0.69080 0.12566
 C793 C 0.14663 0.70962 0.13769
 C794 C 0.12042 0.71026 0.13517
 C795 C 0.10797 0.69262 0.12076
 C796 C 0.10795 0.65492 0.09380
 N797 N 0.08398 0.65873 0.08641
 N798 N 0.07147 0.64170 0.07361
 C799 C 0.08233 0.62005 0.06767
 N800 N 0.10639 0.61625 0.07491
 N801 N 0.11898 0.63338 0.08763
 C802 C 0.06756 0.60067 0.05487
 C803 C 0.07586 0.57637 0.05415
 C804 C 0.06034 0.55780 0.04467
 C805 C 0.03630 0.56323 0.03568
 C806 C 0.02865 0.58768 0.03514
 C807 C 0.04405 0.60614 0.04462
 H808 H 0.15850 0.65858 0.10256
 H809 H 0.18032 0.68973 0.12740
 H810 H 0.10950 0.72464 0.14400
 H811 H 0.08776 0.69374 0.11915
 H812 H 0.09393 0.57156 0.06179
 H813 H 0.06678 0.53913 0.04520
 H814 H 0.01035 0.59252 0.02807
 H815 H 0.03719 0.62467 0.04450
 C816 C 0.33261 1.12648 0.88556
 C817 C 0.31581 1.14125 0.89942
 C818 C 0.29476 1.15113 0.88781
 C819 C 0.28979 1.14625 0.86213
 C820 C 0.30655 1.13148 0.84822
 C821 C 0.32785 1.12185 0.85976
 C822 C 0.35448 1.11544 0.89826
 N823 N 0.37376 1.10562 0.88452
 N824 N 0.39288 1.09493 0.89608
 C825 C 0.39347 1.09352 0.92186
 N826 N 0.37429 1.10349 0.93556
 N827 N 0.35528 1.11430 0.92403
 C828 C 0.41354 1.07981 0.93473
 C829 C 0.40943 1.07087 0.95948
 C830 C 0.42681 1.05539 0.97059
 C831 C 0.44894 1.04889 0.95750
 C832 C 0.45390 1.05900 0.93342
 C833 C 0.43623 1.07414 0.92202
 H834 H 0.31889 1.14521 0.91931
 H835 H 0.28213 1.16223 0.89916
 H836 H 0.30335 1.12752 0.82836
 H837 H 0.34035 1.11046 0.84856
 H838 H 0.39220 1.07486 0.96983
 H839 H 0.42257 1.04787 0.98915
 H840 H 0.47074 1.05410 0.92284
 H841 H 0.44002 1.08089 0.90301
 C842 C 0.34197 0.85816 1.12532
 C843 C 0.33064 0.83740 1.11456
 C844 C 0.30875 0.82732 1.12541
 C845 C 0.29754 0.83795 1.14709
 C846 C 0.30900 0.85854 1.15797
 C847 C 0.33102 0.86844 1.14731
 C848 C 0.36455 0.86956 1.11330
 N849 N 0.37783 0.88697 1.12581
 N850 N 0.39733 0.89817 1.11463
 C851 C 0.40439 0.89251 1.09041
 N852 N 0.39127 0.87492 1.07796
 N853 N 0.37182 0.86363 1.08920
 C854 C 0.42475 0.90654 1.07736
 C855 C 0.42827 0.90498 1.05085
 C856 C 0.44516 0.92066 1.03823
 C857 C 0.45894 0.93816 1.05189
 C858 C 0.45660 0.93863 1.07853
 C859 C 0.43968 0.92305 1.09111
 H860 H 0.33861 0.82899 1.09766
 H861 H 0.30034 0.81153 1.11646
 H862 H 0.30104 0.86703 1.17482
 H863 H 0.33920 0.88445 1.15609
 H864 H 0.41715 0.89244 1.03967
 H865 H 0.44650 0.91987 1.01768
 H866 H 0.46701 0.95182 1.08963
 H867 H 0.43768 0.92456 1.11156
 C868 C 0.66689 1.13784 1.12877
 C869 C 0.67277 1.13229 1.15407
 C870 C 0.69435 1.14205 1.16524
 C871 C 0.71054 1.15764 1.15139
 C872 C 0.70452 1.16329 1.12615
 C873 C 0.68301 1.15352 1.11500
 C874 C 0.64452 1.12683 1.11654
 N875 N 0.63965 1.13121 1.09169
 N876 N 0.62025 1.12049 1.08036
 C877 C 0.60481 1.10497 1.09339
 N878 N 0.60951 1.10082 1.11832
 N879 N 0.62892 1.11153 1.12966
 C880 C 0.58449 1.09145 1.08026
 C881 C 0.56925 1.07467 1.09365
 C882 C 0.55241 1.05957 1.08077
 C883 C 0.55040 1.06089 1.05421
 C884 C 0.56444 1.07871 1.04098
 C885 C 0.58131 1.09384 1.05387
 H886 H 0.66080 1.12027 1.16527
 H887 H 0.69821 1.13741 1.18475
 H888 H 0.71656 1.17502 1.11474
 H889 H 0.67915 1.15815 1.09546
 H890 H 0.57099 1.07249 1.11399
 H891 H 0.54177 1.04609 1.09153
 H892 H 0.56332 1.08019 1.02051
 H893 H 0.59259 1.10669 1.04297
 C894 C 0.67380 0.86961 0.88242
 C895 C 0.67421 0.86809 0.85572
 C896 C 0.69452 0.85735 0.84279
 C897 C 0.71467 0.84761 0.85630
 C898 C 0.71415 0.84901 0.88298
 C899 C 0.69405 0.85997 0.89586
 C900 C 0.65279 0.88164 0.89630
 N901 N 0.65518 0.88799 0.92112
 N902 N 0.63678 0.89954 0.93350
 C903 C 0.61506 0.90508 0.92168
 N904 N 0.61249 0.89848 0.89692
 N905 N 0.63099 0.88703 0.88448
 C906 C 0.59541 0.91948 0.93506
 C907 C 0.57095 0.92118 0.92545
 C908 C 0.55327 0.93664 0.93701
 C909 C 0.55991 0.95098 0.95807
 C910 C 0.58402 0.94860 0.96814
 C911 C 0.60148 0.93286 0.95697
 H912 H 0.65897 0.87544 0.84478
 H913 H 0.69429 0.85641 0.82224
 H914 H 0.72947 0.84194 0.89399
 H915 H 0.69440 0.86084 0.91642
 H916 H 0.56566 0.91098 0.90869
 H917 H 0.53485 0.93826 0.92874
 H918 H 0.58965 0.95948 0.98427
 H919 H 0.62011 0.93202 0.96490
   
