data_POSCAR
  _audit_creation_date              2014-09-24
  _audit_creation_method            'ToBaCCo'
  _symmetry_space_group_name_H-M    'P1'
  _symmetry_Int_Tables_number       1
  _symmetry_cell_setting            triclinic
  loop_
  _symmetry_equiv_pos_as_xyz
 x,y,z
_cell_length_a 25.5390
_cell_length_b 24.9227
_cell_length_c 25.1814
_cell_angle_alpha 90.169600
_cell_angle_beta 90.213000
_cell_angle_gamma 90.651600
loop_
  _atom_site_label
  _atom_site_type_symbol
  _atom_site_fract_x
  _atom_site_fract_y
  _atom_site_fract_z
C1 C 0.33043 0.91434 -0.47065
 C2 C 0.33099 0.92018 -0.52468
 C3 C 0.37811 0.94544 -0.53761
 N4 N 0.40654 0.95460 -0.49311
 C5 C 0.37720 0.93584 -0.45224
 C6 C 0.39159 0.96437 -0.58894
 C7 C 0.44477 0.97616 -0.60305
 C8 C 0.46080 1.00874 -0.64468
 C9 C 0.51485 1.01037 -0.64388
 C10 C 0.53106 0.97900 -0.60161
 N11 N 0.48800 0.95864 -0.57674
 C12 C 0.58424 0.97130 -0.58546
 C13 C 0.59729 0.95666 -0.53260
 C14 C 0.64569 0.93732 -0.51633
 C15 C 0.64459 0.93418 -0.46210
 C16 C 0.59551 0.95095 -0.44686
 N17 N 0.56642 0.96450 -0.48985
 C18 C 0.57910 0.95616 -0.39374
 C19 C 0.52633 0.96202 -0.37979
 C20 C 0.50881 0.97741 -0.33000
 C21 C 0.45524 0.97287 -0.33116
 C22 C 0.44180 0.95497 -0.38165
 N23 N 0.48528 0.94862 -0.41112
 C24 C 0.39087 0.94123 -0.39821
 H25 H 0.29909 0.89660 -0.44755
 H26 H 0.29994 0.90745 -0.55142
 H27 H 0.48719 0.92974 -0.44798
 H28 H 0.43641 1.03138 -0.67147
 H29 H 0.53911 1.03440 -0.66992
 H30 H 0.67864 0.92654 -0.54089
 H31 H 0.67621 0.92087 -0.43682
 H32 H 0.42923 0.98117 -0.29837
 H33 H 0.48824 0.93172 -0.54514
 H34 H 0.53220 0.98977 -0.29608
 C35 C -0.66470 1.53400 -0.05530
 C36 C -0.66351 1.47930 -0.06215
 C37 C -0.62202 1.46094 -0.03198
 N38 N -0.59805 1.50248 -0.00668
 C39 C -0.62459 1.54726 -0.02010
 C40 C -0.60568 1.40691 -0.02879
 C41 C -0.55337 1.39378 -0.01592
 C42 C -0.53678 1.34336 0.00004
 C43 C -0.48321 1.34543 0.00237
 C44 C -0.46842 1.39717 -0.01135
 N45 N -0.51136 1.42670 -0.02192
 C46 C -0.41607 1.41456 -0.01702
 C47 C -0.40125 1.46906 -0.01407
 C48 C -0.35162 1.48982 -0.02354
 C49 C -0.35364 1.54369 -0.01192
 C50 C -0.40470 1.55394 0.00332
 N51 N -0.43339 1.50820 0.00248
 C52 C -0.42373 1.60344 0.02179
 C53 C -0.47717 1.61170 0.03244
 C54 C -0.49650 1.65424 0.06170
 C55 C -0.54990 1.65296 0.05556
 C56 C -0.56176 1.61001 0.02214
 N57 N -0.51726 1.58441 0.00912
 C58 C -0.61149 1.59943 -0.00087
 H59 H -0.69065 1.56070 -0.07617
 H60 H -0.68865 1.45610 -0.08844
 H61 H -0.51401 1.55548 -0.02056
 H62 H -0.56060 1.30832 0.00873
 H63 H -0.45796 1.31250 0.01292
 H64 H -0.31737 1.46841 -0.03666
 H65 H -0.32101 1.57166 -0.01378
 H66 H -0.57679 1.68153 0.07250
 H67 H -0.51171 1.46487 -0.03861
 H68 H -0.47446 1.68420 0.08381
 C69 C 0.05767 0.54468 0.33630
 C70 C 0.05392 0.49000 0.33498
 C71 C 0.06480 0.47216 0.38601
 N72 N 0.07452 0.51435 0.41845
 C73 C 0.06947 0.55879 0.38830
 C74 C 0.06768 0.41785 0.40166
 C75 C 0.07101 0.40327 0.45598
 C76 C 0.09260 0.35614 0.47472
 C77 C 0.08572 0.35590 0.52870
 C78 C 0.06083 0.40334 0.54188
 N79 N 0.05280 0.43254 0.49738
 C80 C 0.04383 0.41695 0.59371
 C81 C 0.03731 0.47142 0.60911
 C82 C 0.01174 0.48973 0.65400
 C83 C 0.01922 0.54433 0.65589
 C84 C 0.04654 0.55855 0.61038
 N85 N 0.05794 0.51364 0.58239
 C86 C 0.06570 0.61071 0.59711
 C87 C 0.08733 0.62172 0.54637
 C88 C 0.11380 0.66870 0.53212
 C89 C 0.11624 0.66949 0.47766
 C90 C 0.09195 0.62288 0.45990
 N91 N 0.07511 0.59374 0.50181
 C92 C 0.07906 0.61155 0.40660
 H93 H 0.05323 0.57053 0.30224
 H94 H 0.04414 0.46654 0.30006
 H95 H 0.04876 0.56165 0.49946
 H96 H 0.11193 0.32526 0.45203
 H97 H 0.09832 0.32455 0.55535
 H98 H -0.01040 0.46675 0.68269
 H99 H 0.00631 0.56962 0.68802
 H100 H 0.13238 0.70178 0.45399
 H101 H 0.03108 0.46762 0.49490
 H102 H 0.12750 0.70100 0.55748
 O103 O -0.14931 1.02641 -0.06907
 O104 O 0.11849 1.00376 -0.07596
 O105 O -0.01131 1.09819 -0.12426
 O106 O -0.01947 0.95255 -0.14436
 O107 O -0.02626 0.88003 -0.08775
 O108 O -0.00528 1.15316 -0.05050
 O109 O 0.05327 1.01980 -0.13735
 O110 O -0.08551 1.03315 -0.13348
 Zr111 Zr -0.01541 1.01972 -0.09210
 O112 O 0.02849 0.96183 -0.05506
 O113 O -0.05841 1.06494 -0.03972
 C114 C -0.13362 1.03362 -0.11762
 C115 C 0.10144 1.01161 -0.12402
 C116 C -0.00739 1.14491 -0.10133
 C117 C -0.02413 0.90151 -0.13442
 H118 H 0.05995 1.08221 -0.06128
 O119 O 0.03610 1.05805 -0.04151
 H120 H -0.09001 0.95102 -0.07772
 O121 O -0.06566 0.96894 -0.05256
 O122 O 0.12207 0.98954 0.06670
 O123 O -0.14851 1.00305 0.07198
 O124 O 0.06612 1.13744 0.02177
 O125 O 0.04416 0.86576 -0.02129
 O126 O -0.09512 0.87544 -0.01558
 O127 O -0.07320 1.14804 0.02050
 O128 O -0.00593 1.05892 0.14683
 O129 O -0.01706 0.91726 0.12691
 O130 O -0.00010 1.13218 0.09137
 O131 O -0.02515 0.86106 0.05432
 O132 O 0.12596 1.07027 0.00702
 O133 O -0.14257 1.08873 0.01034
 O134 O -0.15449 0.94375 -0.00534
 O135 O 0.11407 0.92487 -0.01419
 O136 O 0.06094 0.98669 0.13425
 O137 O -0.08557 0.98973 0.13673
 Zr138 Zr 0.07798 1.00045 -0.00254
 Zr139 Zr -0.10623 1.01321 0.00180
 Zr140 Zr -0.00695 1.09936 0.01396
 Zr141 Zr -0.02181 0.91407 -0.01145
 Zr142 Zr -0.01293 0.99413 0.09382
 O143 O -0.06500 0.95573 0.04308
 O144 O 0.03783 1.04448 0.05366
 C145 C 0.10887 0.98568 0.11609
 C146 C -0.13407 0.99333 0.12021
 C147 C 0.11322 1.11967 0.01723
 C148 C 0.09367 0.87719 -0.02082
 C149 C -0.14214 0.89380 -0.01230
 C150 C -0.12261 1.13649 0.01713
 C151 C -0.00034 1.10971 0.13787
 C152 C -0.02131 0.87036 0.10499
 H153 H -0.07770 1.07189 0.08197
 O154 O -0.05735 1.05100 0.05593
 H155 H 0.05100 0.92268 0.05911
 O156 O 0.02993 0.94985 0.04048
 C157 C 0.34847 0.97524 0.37697
 C158 C 0.34737 0.97186 0.32151
 C159 C 0.29728 0.97678 0.29168
 N160 N 0.29584 0.96758 0.23857
 N161 N 0.25080 0.97033 0.21174
 C162 C 0.20520 0.98226 0.23678
 N163 N 0.20664 0.99163 0.28988
 N164 N 0.25171 0.98887 0.31673
 C165 C 0.15506 0.98576 0.20680
 C166 C 0.15414 0.97822 0.15194
 H167 H 0.38204 0.96041 0.29987
 H168 H 0.11947 0.99604 0.22753
 H169 H 0.31092 0.98176 0.39561
 H170 H 0.19079 0.96924 0.13244
 C171 C -0.37258 0.98252 0.38061
 C172 C -0.37103 0.97588 0.32546
 C173 C -0.32083 0.98060 0.29595
 N174 N -0.31963 0.97078 0.24297
 N175 N -0.27461 0.97351 0.21636
 C176 C -0.22873 0.98596 0.24150
 N177 N -0.22989 0.99574 0.29453
 N178 N -0.27496 0.99307 0.32116
 C179 C -0.17869 0.98984 0.21156
 C180 C -0.17883 0.98498 0.15641
 H181 H -0.40553 0.96234 0.30401
 H182 H -0.14251 0.99886 0.23247
 H183 H -0.33540 0.99225 0.39926
 H184 H -0.21618 0.97794 0.13688
 C185 C -0.38233 0.95450 -0.34980
 C186 C -0.34098 0.99116 -0.34635
 C187 C -0.31031 0.99784 -0.29720
 N188 N -0.26903 1.03250 -0.29582
 N189 N -0.24129 1.03926 -0.25137
 C190 C -0.25408 1.01201 -0.20649
 N191 N -0.29569 0.97775 -0.20772
 N192 N -0.32333 0.97085 -0.25223
 C193 C -0.22175 1.01664 -0.15819
 C194 C -0.17266 1.04128 -0.15957
 H195 H -0.33273 1.01751 -0.37950
 H196 H -0.23402 0.99518 -0.12291
 H197 H -0.39168 0.92970 -0.31579
 H198 H -0.15931 1.05967 -0.19611
 C199 C 0.35108 0.93333 -0.35627
 C200 C 0.30648 0.96473 -0.35406
 C201 C 0.27471 0.96854 -0.30564
 N202 N 0.23224 1.00062 -0.30500
 N203 N 0.20421 1.00617 -0.26090
 C204 C 0.21775 0.98015 -0.21561
 N205 N 0.26032 0.94811 -0.21617
 N206 N 0.28833 0.94247 -0.26036
 C207 C 0.18615 0.98534 -0.16709
 C208 C 0.13856 1.01191 -0.16824
 H209 H 0.29690 0.99038 -0.38729
 H210 H 0.19872 0.96529 -0.13121
 H211 H 0.36187 0.90965 -0.32200
 H212 H 0.12523 1.02938 -0.20519
 C213 C 0.35955 1.36378 -0.03971
 C214 C 0.30665 1.36318 -0.02617
 C215 C 0.27688 1.31222 -0.02469
 N216 N 0.23267 1.30860 0.00469
 N217 N 0.20741 1.26186 0.00955
 C218 C 0.22538 1.21687 -0.01464
 N219 N 0.26920 1.22062 -0.04471
 N220 N 0.29465 1.26736 -0.04935
 C221 C 0.19662 1.16545 -0.01022
 C222 C 0.15402 1.16083 0.02371
 H223 H 0.28910 1.39826 -0.00844
 H224 H 0.20611 1.13279 -0.03686
 H225 H 0.37603 1.32584 -0.05184
 H226 H 0.14452 1.19443 0.04920
 C227 C 0.35485 0.64388 -0.00601
 C228 C 0.30025 0.64217 -0.00844
 C229 C 0.26976 0.69191 -0.01271
 N230 N 0.21682 0.68935 -0.01630
 N231 N 0.18894 0.73409 -0.01942
 C232 C 0.21286 0.78313 -0.01899
 N233 N 0.26579 0.78572 -0.01542
 N234 N 0.29368 0.74096 -0.01249
 C235 C 0.18209 0.83279 -0.02042
 C236 C 0.12799 0.83072 -0.02677
 H237 H 0.27899 0.60472 -0.00380
 H238 H 0.20192 0.87100 -0.01450
 H239 H 0.37271 0.68350 -0.00455
 H240 H 0.10899 0.79215 -0.03333
 C241 C -0.38726 0.64927 0.02959
 C242 C -0.36298 0.67314 -0.01378
 C243 C -0.33085 0.72203 -0.00895
 N244 N -0.29843 0.73602 -0.04915
 N245 N -0.26790 0.77944 -0.04512
 C246 C -0.26914 0.81091 -0.00104
 N247 N -0.30246 0.79765 0.03878
 N248 N -0.33271 0.75384 0.03495
 C249 C -0.23228 0.85622 0.00488
 C250 C -0.18380 0.85379 -0.01978
 H251 H -0.36711 0.65477 -0.05266
 H252 H -0.24076 0.88841 0.03243
 H253 H -0.38419 0.66774 0.06847
 H254 H -0.17391 0.81812 -0.04219
 C255 C -0.37642 1.37254 -0.02509
 C256 C -0.33346 1.36694 0.00845
 C257 C -0.30115 1.31857 0.00702
 N258 N -0.25605 1.31677 0.03546
 N259 N -0.22692 1.27279 0.03502
 C260 C -0.24207 1.22884 0.00654
 N261 N -0.28743 1.23045 -0.02147
 N262 N -0.31640 1.27454 -0.02129
 C263 C -0.20963 1.18056 0.00494
 C264 C -0.15791 1.18211 0.02231
 H265 H -0.32468 1.39753 0.03790
 H266 H -0.22559 1.14435 -0.01308
 H267 H -0.38587 1.34071 -0.05304
 H268 H -0.14134 1.21952 0.03707
 C269 C 0.06962 1.37878 0.36095
 C270 C 0.04883 1.32685 0.36482
 C271 C 0.04391 1.29222 0.31759
 N272 N 0.02241 1.24242 0.32173
 N273 N 0.01579 1.21178 0.27873
 C274 C 0.03017 1.22995 0.23001
 N275 N 0.05171 1.27967 0.22589
 N276 N 0.05846 1.31020 0.26887
 C277 C 0.02247 1.19703 0.18211
 C278 C 0.00575 1.14386 0.18505
 H279 H 0.03118 1.31296 0.40136
 H280 H 0.03142 1.21469 0.14390
 H281 H 0.08293 1.39114 0.32211
 H282 H -0.00103 1.12573 0.22351
 C283 C 0.03357 1.37350 -0.37144
 C284 C 0.03884 1.37454 -0.31613
 C285 C 0.02726 1.32680 -0.28347
 N286 N 0.03123 1.32974 -0.22980
 N287 N 0.02116 1.28683 -0.19989
 C288 C 0.00680 1.23929 -0.22254
 N289 N 0.00287 1.23634 -0.27620
 N290 N 0.01276 1.27929 -0.30608
 C291 C -0.00302 1.19110 -0.19012
 C292 C -0.00300 1.19308 -0.13480
 H293 H 0.05463 1.40962 -0.29611
 H294 H -0.00945 1.15314 -0.21031
 H295 H 0.02482 1.33476 -0.38921
 H296 H 0.00233 1.23139 -0.11494
 C297 C 0.06387 0.65349 -0.36613
 C298 C 0.01781 0.66975 -0.34145
 C299 C 0.01515 0.71999 -0.31058
 N300 N -0.02935 0.73226 -0.28424
 N301 N -0.03228 0.77732 -0.25590
 C302 C 0.00899 0.81216 -0.25321
 N303 N 0.05328 0.80028 -0.28016
 N304 N 0.05631 0.75504 -0.30830
 C305 C 0.00729 0.86012 -0.21887
 C306 C -0.02968 0.86372 -0.17869
 H307 H -0.01835 0.64760 -0.34802
 H308 H 0.03896 0.88935 -0.22079
 H309 H 0.09668 0.68119 -0.36416
 H310 H -0.05796 0.83140 -0.17379
 C311 C 0.07488 0.65699 0.36907
 C312 C 0.02885 0.66509 0.34040
 C313 C 0.02393 0.70768 0.30085
 N314 N -0.01447 0.70465 0.26350
 N315 N -0.01919 0.74289 0.22700
 C316 C 0.01418 0.78564 0.22694
 N317 N 0.05227 0.78886 0.26453
 N318 N 0.05731 0.75040 0.30067
 C319 C 0.00881 0.82922 0.18862
 C320 C -0.01892 0.82426 0.14098
 H321 H -0.00380 0.63739 0.34514
 H322 H 0.02953 0.86640 0.19751
 H323 H 0.10713 0.68532 0.36569
 H324 H -0.03543 0.78593 0.12879
   
