data_POSCAR
  _audit_creation_date              2014-09-24
  _audit_creation_method            'ToBaCCo'
  _symmetry_space_group_name_H-M    'P1'
  _symmetry_Int_Tables_number       1
  _symmetry_cell_setting            triclinic
  loop_
  _symmetry_equiv_pos_as_xyz
 x,y,z
_cell_length_a 12.7362
_cell_length_b 12.7360
_cell_length_c 22.2480
_cell_angle_alpha 90.513100
_cell_angle_beta 90.846800
_cell_angle_gamma 89.846100
loop_
  _atom_site_label
  _atom_site_type_symbol
  _atom_site_fract_x
  _atom_site_fract_y
  _atom_site_fract_z
O1 O -0.08425 0.59916 0.93981
 O2 O -0.08920 0.39670 1.05695
 O3 O -0.08968 0.60253 1.05652
 O4 O -0.08450 0.39529 0.94013
 O5 O 0.08894 0.39446 0.94433
 O6 O 0.08372 0.60096 1.06122
 O7 O 0.08416 0.39661 1.06090
 O8 O 0.08915 0.60009 0.94451
 Cu9 Cu -0.10435 0.49844 0.99810
 Cu10 Cu 0.10391 0.49803 1.00308
 C11 C 0.00328 0.63456 0.92255
 C12 C -0.00327 0.36132 1.07847
 C13 C -0.00384 0.63753 1.07834
 C14 C 0.00305 0.35928 0.92266
 O15 O 0.39827 -0.08258 0.43998
 O16 O 0.60535 -0.08808 0.55724
 O17 O 0.39952 -0.08851 0.55655
 O18 O 0.60210 -0.08273 0.44031
 O19 O 0.60221 0.09068 0.44421
 O20 O 0.40048 0.08486 0.56109
 O21 O 0.60483 0.08525 0.56082
 O22 O 0.39655 0.09080 0.44434
 Cu23 Cu 0.50145 -0.10291 0.49830
 Cu24 Cu 0.50096 0.10532 0.50292
 C25 C 0.36163 0.00500 0.42257
 C26 C 0.64116 -0.00228 0.57862
 C27 C 0.36495 -0.00279 0.57824
 C28 C 0.63690 0.00489 0.42265
 Si29 Si -0.00541 0.00592 0.24942
 Si30 Si 0.00416 -0.00584 0.74943
 N31 N -0.09632 -0.22542 0.13520
 C32 C -0.00549 -0.27686 0.12291
 N33 N 0.08477 -0.24448 0.15042
 N34 N 0.08425 -0.16354 0.18875
 C35 C -0.00646 -0.11211 0.20085
 N36 N -0.09668 -0.14411 0.17332
 N37 N 0.08685 0.24255 0.14378
 C38 C -0.00452 0.28165 0.12087
 N39 N -0.09664 0.23891 0.13851
 N40 N -0.09719 0.15955 0.17715
 C41 C -0.00576 0.12068 0.19978
 N42 N 0.08621 0.16341 0.18249
 N43 N 0.22893 -0.09531 0.63388
 C44 C 0.28098 -0.00481 0.62265
 N45 N 0.25077 0.08477 0.65116
 N46 N 0.17132 0.08391 0.68942
 C47 C 0.11910 -0.00642 0.70029
 N48 N 0.14904 -0.09599 0.67188
 N49 N -0.23409 -0.09607 0.63919
 C50 C -0.27758 -0.00381 0.62114
 N51 N -0.23765 0.08741 0.64372
 N52 N -0.15702 0.08646 0.68252
 C53 C -0.11371 -0.00566 0.70037
 N54 N -0.15328 -0.09692 0.67794
 N55 N -0.08508 -0.25177 0.84908
 C56 C 0.00490 -0.28194 0.87758
 N57 N 0.09539 -0.23047 0.86569
 N58 N 0.09565 -0.15107 0.82709
 C59 C 0.00567 -0.12116 0.79867
 N60 N -0.08465 -0.17280 0.81024
 N61 N -0.08548 0.24321 0.84956
 C62 C 0.00463 0.27429 0.87773
 N63 N 0.09525 0.22241 0.86554
 N64 N 0.09552 0.14183 0.82693
 C65 C 0.00544 0.11111 0.79875
 N66 N -0.08504 0.16305 0.81070
 N67 N -0.25071 -0.08316 0.34908
 C68 C -0.28008 0.00663 0.37766
 N69 N -0.22828 0.09700 0.36579
 N70 N -0.14931 0.09730 0.32717
 C71 C -0.12019 0.00750 0.29868
 N72 N -0.17220 -0.08268 0.31019
 N73 N 0.24432 -0.08362 0.35014
 C74 C 0.27619 0.00664 0.37764
 N75 N 0.22461 0.09737 0.36482
 N76 N 0.14360 0.09760 0.32621
 C77 C 0.11209 0.00735 0.29872
 N78 N 0.16370 -0.08322 0.31133
   
