data_POSCAR
  _audit_creation_date              2014-09-24
  _audit_creation_method            'ToBaCCo'
  _symmetry_space_group_name_H-M    'P1'
  _symmetry_Int_Tables_number       1
  _symmetry_cell_setting            triclinic
  loop_
  _symmetry_equiv_pos_as_xyz
 x,y,z
_cell_length_a 18.2590
_cell_length_b 18.2447
_cell_length_c 23.3634
_cell_angle_alpha 83.681900
_cell_angle_beta 82.132400
_cell_angle_gamma 87.917000
loop_
  _atom_site_label
  _atom_site_type_symbol
  _atom_site_fract_x
  _atom_site_fract_y
  _atom_site_fract_z
C1 C 0.03337 0.55348 1.03868
 C2 C 0.01938 0.58924 0.98362
 C3 C 0.00325 0.54561 0.94099
 C4 C 0.00792 0.46828 0.94858
 C5 C 0.02522 0.43230 1.00232
 C6 C 0.03487 0.47580 1.04677
 H7 H 0.04521 0.44833 1.08843
 H8 H -0.00857 0.57208 0.89931
 C9 C 0.40761 -0.01762 0.52061
 C10 C 0.44054 -0.00430 0.46211
 C11 C 0.51826 -0.00525 0.45017
 C12 C 0.56350 -0.02003 0.49474
 C13 C 0.52916 -0.02445 0.55349
 C14 C 0.45189 -0.02478 0.56520
 H15 H 0.42527 -0.03048 0.60984
 H16 H 0.54316 -0.00027 0.40519
 C17 C 0.17857 0.00260 0.24550
 H18 H 0.17889 0.00549 0.19897
 C19 C 0.24395 0.01271 0.26818
 H20 H 0.29463 0.02286 0.23883
 C21 C 0.11184 -0.01443 0.34023
 H22 H 0.06018 -0.02381 0.36820
 C23 C 0.17620 -0.00597 0.36478
 H24 H 0.17322 -0.00900 0.41159
 N25 N 0.11432 -0.01101 0.28155
 C26 C -0.02115 -0.13402 0.18715
 H27 H -0.06803 -0.09670 0.18312
 C28 C -0.01907 -0.20218 0.16484
 H29 H -0.06456 -0.21688 0.14344
 C30 C 0.09440 -0.16051 0.22114
 H31 H 0.13819 -0.14444 0.24360
 C32 C 0.09840 -0.22931 0.20003
 H33 H 0.14648 -0.26450 0.20536
 Zn34 Zn 0.02874 -0.02321 0.24616
 N35 N 0.03550 -0.11427 0.21406
 C36 C 0.03045 0.04510 0.13045
 N37 N 0.02505 0.05656 0.18747
 C38 C 0.02394 0.12582 0.20387
 C39 C 0.02784 0.18709 0.16227
 C40 C 0.03476 0.10487 0.08734
 C41 C -0.06300 -0.08514 0.34267
 C42 C -0.12468 -0.09259 0.38505
 C43 C -0.17520 0.02105 0.34167
 C44 C -0.11222 0.02643 0.30003
 N45 N -0.05728 -0.02587 0.30178
 H46 H 0.03318 -0.01036 0.11811
 H47 H 0.02154 0.13330 0.24939
 H48 H 0.02810 0.24155 0.17646
 H49 H 0.03879 0.09445 0.04230
 H50 H -0.01931 -0.12684 0.34224
 H51 H -0.12777 -0.14069 0.41670
 H52 H -0.21777 0.06377 0.34003
 H53 H -0.10751 0.07226 0.26639
 C54 C 0.04125 -0.25089 0.17138
 C55 C 0.24328 0.00784 0.32855
 C56 C -0.18174 -0.03887 0.38522
 C57 C 0.03392 0.17705 0.10302
 C58 C -0.05791 0.19906 0.74669
 H59 H -0.06113 0.19454 0.70132
 C60 C -0.05275 0.26831 0.76582
 H61 H -0.05224 0.31700 0.73481
 C62 C -0.05405 0.14060 0.84200
 H63 H -0.05468 0.09064 0.87153
 C64 C -0.04941 0.20876 0.86310
 H65 H -0.04477 0.21023 0.90865
 N66 N -0.05639 0.13694 0.78443
 C67 C 0.02477 -0.02923 0.67037
 H68 H -0.02021 -0.06731 0.68221
 C69 C 0.08557 -0.04737 0.63133
 H70 H 0.08518 -0.09890 0.61266
 C71 C 0.07861 0.08336 0.68219
 H72 H 0.07654 0.13315 0.70355
 C73 C 0.14125 0.06692 0.64372
 H74 H 0.18628 0.10516 0.63562
 Zn75 Zn -0.05744 0.04493 0.75446
 N76 N 0.02238 0.03491 0.69510
 C77 C -0.14865 0.03859 0.66678
 N78 N -0.14814 0.03721 0.72506
 C79 C -0.21174 0.03001 0.76282
 C80 C -0.27849 0.01819 0.74267
 C81 C -0.21426 0.02809 0.64469
 C82 C 0.02259 -0.03408 0.83385
 C83 C 0.04341 -0.09392 0.87110
 C84 C -0.07083 -0.15230 0.86319
 C85 C -0.08943 -0.09125 0.82592
 N86 N -0.04273 -0.03368 0.81204
 H87 H -0.09802 0.04697 0.63725
 H88 H -0.21012 0.03108 0.80883
 H89 H -0.32825 0.01040 0.77348
 H90 H -0.21295 0.02686 0.59834
 H91 H 0.05965 0.01150 0.82083
 H92 H 0.09661 -0.09320 0.88637
 H93 H -0.10879 -0.19748 0.87334
 H94 H -0.13988 -0.09133 0.80666
 C95 C 0.14602 -0.00009 0.61861
 C96 C -0.04711 0.27363 0.82453
 C97 C -0.00315 -0.15462 0.88582
 C98 C -0.27988 0.01594 0.68298
 N99 N 0.08796 -0.38070 0.16533
 N100 N 0.08548 -0.43486 0.12806
 C101 C 0.04332 -0.40860 0.08678
 C102 C 0.01529 -0.33905 0.09901
 C103 C 0.04612 -0.32280 0.14713
 H104 H -0.02104 -0.30341 0.07493
 H105 H 0.11890 -0.38514 0.20000
 H106 H 0.11759 -0.48339 0.12964
 N107 N 0.06968 0.23896 0.00213
 N108 N 0.06722 0.31042 -0.02595
 C109 C 0.03529 0.35509 0.01315
 C110 C 0.01894 0.31349 0.06672
 C111 C 0.04033 0.24139 0.05807
 H112 H -0.00748 0.33298 0.10674
 H113 H 0.09334 0.19333 -0.01730
 H114 H 0.09243 0.32589 -0.06821
 N115 N 0.22931 -0.09228 0.56797
 N116 N 0.29784 -0.09620 0.54173
 C117 C 0.32816 -0.02953 0.53774
 C118 C 0.27747 0.01885 0.56391
 C119 C 0.21475 -0.02303 0.58248
 H120 H 0.28694 0.07510 0.57104
 H121 H 0.19530 -0.13788 0.57798
 H122 H 0.32424 -0.14457 0.52875
 N123 N -0.40018 -0.04802 0.69110
 N124 N -0.44911 -0.06024 0.65668
 C125 C -0.42930 -0.02344 0.60384
 C126 C -0.36555 0.01502 0.60520
 C127 C -0.34821 -0.00299 0.66103
 H128 H -0.33523 0.04987 0.57007
 H129 H -0.40108 -0.07284 0.73365
 H130 H -0.49386 -0.09520 0.66897
 N131 N 0.07544 -0.22241 0.95556
 N132 N 0.08136 -0.29388 0.98284
 C133 C 0.02859 -0.33445 0.96710
 C134 C -0.01011 -0.29040 0.92836
 C135 C 0.01991 -0.22063 0.92282
 H136 H -0.05491 -0.30719 0.90720
 H137 H 0.10881 -0.17913 0.96093
 H138 H 0.12351 -0.31243 1.00724
 N139 N 0.00547 0.39973 0.81040
 N140 N 0.02112 0.44990 0.84328
 C141 C -0.00629 0.42878 0.89895
 C142 C -0.04329 0.36320 0.90115
 C143 C -0.03261 0.34546 0.84428
 H144 H -0.07002 0.33068 0.93931
 H145 H 0.02500 0.40078 0.76618
 H146 H 0.05371 0.49567 0.82803
 N147 N -0.24852 -0.08754 0.48196
 N148 N -0.31916 -0.08154 0.51250
 C149 C -0.36014 -0.03548 0.47967
 C150 C -0.31658 -0.01259 0.42731
 C151 C -0.24727 -0.04585 0.43057
 H152 H -0.33305 0.02362 0.39124
 H153 H -0.20524 -0.11901 0.49768
 H154 H -0.33725 -0.11389 0.55118
 N155 N 0.36868 0.05955 0.32846
 N156 N 0.41966 0.05639 0.36380
 C157 C 0.39679 0.01171 0.41251
 C158 C 0.32796 -0.01485 0.40720
 C159 C 0.31194 0.01712 0.35377
 H160 H 0.29431 -0.05390 0.43633
 H161 H 0.37240 0.09165 0.28835
 H162 H 0.46864 0.08582 0.35488
   
