data_POSCAR
  _audit_creation_date              2014-09-24
  _audit_creation_method            'ToBaCCo'
  _symmetry_space_group_name_H-M    'P1'
  _symmetry_Int_Tables_number       1
  _symmetry_cell_setting            triclinic
  loop_
  _symmetry_equiv_pos_as_xyz
 x,y,z
_cell_length_a 47.5273
_cell_length_b 29.4580
_cell_length_c 16.3551
_cell_angle_alpha 89.978000
_cell_angle_beta 89.936700
_cell_angle_gamma 89.879300
loop_
  _atom_site_label
  _atom_site_type_symbol
  _atom_site_fract_x
  _atom_site_fract_y
  _atom_site_fract_z
C1 C 0.72441 0.26447 0.54082
 C2 C 0.72430 0.25882 0.45442
 C3 C 0.74682 0.23676 0.41586
 C4 C 0.77051 0.22097 0.45915
 C5 C 0.77074 0.22604 0.54621
 C6 C 0.74809 0.24875 0.58441
 H7 H 0.74763 0.25001 0.65060
 H8 H 0.74673 0.23560 0.34961
 C9 C 0.22928 0.77565 0.54334
 C10 C 0.22702 0.76786 0.45851
 C11 C 0.24854 0.74433 0.41808
 C12 C 0.27246 0.72900 0.46011
 C13 C 0.27508 0.73721 0.54571
 C14 C 0.25341 0.76154 0.58539
 H15 H 0.25413 0.76661 0.65101
 H16 H 0.24709 0.73914 0.35257
 C17 C 0.27164 0.26960 -0.54553
 C18 C 0.27068 0.27425 -0.45958
 C19 C 0.24762 0.25712 -0.41631
 C20 C 0.22521 0.23483 -0.45560
 C21 C 0.22532 0.23203 -0.54315
 C22 C 0.24904 0.24869 -0.58579
 H23 H 0.24960 0.24735 -0.65194
 H24 H 0.24804 0.25924 -0.35012
 C25 C -0.22906 0.77324 -0.54424
 C26 C -0.22925 0.77261 -0.45772
 C27 C -0.25176 0.75232 -0.41629
 C28 C -0.27443 0.73218 -0.45811
 C29 C -0.27343 0.73058 -0.54565
 C30 C -0.25140 0.75299 -0.58674
 H31 H -0.25022 0.75134 -0.65289
 H32 H -0.25218 0.75494 -0.35021
 N33 N -0.03052 0.92137 -0.08903
 N34 N -0.05214 0.89390 -0.09889
 N35 N 0.02902 0.95215 -0.14612
 N36 N 0.05055 0.94653 -0.19618
 N37 N 0.02865 0.92015 -0.09025
 N38 N 0.04977 0.89162 -0.10121
 N39 N -0.03027 0.95273 -0.14605
 N40 N -0.05173 0.94743 -0.19632
 C41 C -0.06521 0.91056 -0.16609
 C42 C 0.06327 0.90858 -0.16745
 N43 N 0.02924 1.08109 -0.08879
 N44 N 0.05103 1.10833 -0.09751
 N45 N -0.03001 1.05025 -0.14531
 N46 N -0.05190 1.05538 -0.19405
 N47 N -0.03010 1.08134 -0.08785
 N48 N -0.05208 1.10843 -0.09584
 N49 N 0.02921 1.04984 -0.14593
 N50 N 0.05093 1.05512 -0.19546
 Mn51 Mn -0.00048 1.00124 -0.14688
 C52 C 0.06435 1.09180 -0.16443
 C53 C -0.06546 1.09188 -0.16254
 N54 N 0.02901 0.91975 0.08597
 N55 N 0.04953 0.89016 0.09737
 N56 N -0.02952 0.95185 0.14506
 N57 N -0.05029 0.94558 0.19746
 N58 N -0.03028 0.92115 0.08690
 N59 N -0.05183 0.89356 0.09744
 N60 N 0.02954 0.95128 0.14270
 N61 N 0.05042 0.94396 0.19422
 Mn62 Mn -0.00081 0.92005 -0.00160
 C63 C 0.06277 0.90576 0.16503
 C64 C -0.06406 0.90920 0.16674
 N65 N -0.02973 1.08088 0.08813
 N66 N -0.05092 1.10923 0.09952
 N67 N 0.02969 1.04943 0.14383
 N68 N 0.05028 1.05660 0.19632
 N69 N 0.02968 1.08064 0.08649
 N70 N 0.05058 1.10941 0.09746
 N71 N -0.02923 1.04985 0.14578
 N72 N -0.04980 1.05662 0.19867
 Mn73 Mn -0.00026 1.08154 -0.00053
 Mn74 Mn 0.00016 1.00057 0.14530
 Cl75 Cl -0.00034 1.00085 -0.00088
 C76 C -0.06319 1.09368 0.16880
 C77 C 0.06323 1.09395 0.16617
 N78 N 0.53055 0.58145 -0.08146
 N79 N 0.55162 0.60998 -0.09209
 N80 N 0.47062 0.55365 -0.13871
 N81 N 0.44972 0.56201 -0.18947
 N82 N 0.47124 0.58395 -0.07985
 N83 N 0.45065 0.61374 -0.08904
 N84 N 0.52956 0.55190 -0.14152
 N85 N 0.54967 0.55994 -0.19525
 C86 C 0.56336 0.59606 -0.16329
 C87 C 0.43737 0.59952 -0.15773
 N88 N 0.46946 0.42311 -0.09245
 N89 N 0.44791 0.39575 -0.10392
 N90 N 0.52848 0.45392 -0.14944
 N91 N 0.54888 0.44770 -0.20317
 N92 N 0.52877 0.42167 -0.09400
 N93 N 0.54964 0.39301 -0.10769
 N94 N 0.46939 0.45590 -0.14679
 N95 N 0.44784 0.45156 -0.19713
 Mn96 Mn 0.49949 0.50388 -0.14506
 C97 C 0.43459 0.41385 -0.16942
 C98 C 0.56196 0.40970 -0.17599
 N99 N 0.47184 0.57963 0.09653
 N100 N 0.45082 0.60810 0.10967
 N101 N 0.53044 0.54430 0.14879
 N102 N 0.55223 0.54689 0.19829
 N103 N 0.53111 0.57711 0.09454
 N104 N 0.55347 0.60299 0.10576
 N105 N 0.47120 0.54614 0.14953
 N106 N 0.44958 0.55063 0.19956
 Mn107 Mn 0.50122 0.58115 0.00750
 C108 C 0.43712 0.58951 0.17414
 C109 C 0.56642 0.58367 0.17096
 N110 N 0.52913 0.41709 0.08173
 N111 N 0.55042 0.38853 0.08913
 N112 N 0.47041 0.44839 0.14260
 N113 N 0.44992 0.44063 0.19529
 N114 N 0.46976 0.41874 0.08278
 N115 N 0.44851 0.39042 0.09231
 N116 N 0.52944 0.44709 0.14098
 N117 N 0.55092 0.43985 0.19029
 Mn118 Mn 0.49930 0.41961 -0.00557
 Mn119 Mn 0.50033 0.49652 0.14639
 Cl120 Cl 0.50007 0.50030 0.00077
 C121 C 0.56384 0.40319 0.15722
 C122 C 0.43637 0.40452 0.16283
 C123 C 0.34094 0.32187 0.31634
 C124 C 0.31339 0.33143 0.29117
 C125 C 0.29082 0.31414 0.33598
 C126 C 0.29567 0.28673 0.40482
 C127 C 0.32364 0.27640 0.42556
 N128 N 0.34529 0.29474 0.38247
 C129 C 0.36523 0.34243 0.27478
 N130 N 0.38552 0.36283 0.32039
 C131 C 0.40821 0.38323 0.28573
 C132 C 0.41171 0.38276 0.20062
 C133 C 0.39134 0.36120 0.15249
 C134 C 0.36781 0.34152 0.18936
 H135 H 0.26958 0.32295 0.31795
 H136 H 0.32831 0.25427 0.47659
 H137 H 0.42368 0.39923 0.32472
 H138 H 0.39341 0.36024 0.08654
 H139 H 0.30941 0.35330 0.23918
 H140 H 0.35201 0.32523 0.15187
 C141 C -0.16024 0.82937 0.32062
 C142 C -0.18787 0.83982 0.29732
 C143 C -0.21031 0.82154 0.34148
 C144 C -0.20522 0.79236 0.40776
 C145 C -0.17718 0.78135 0.42661
 N146 N -0.15568 0.80057 0.38425
 C147 C -0.13604 0.85006 0.27901
 N148 N -0.11559 0.87011 0.32451
 C149 C -0.09269 0.88984 0.28973
 C150 C -0.08911 0.88880 0.20467
 C151 C -0.10970 0.86770 0.15668
 C152 C -0.13347 0.84885 0.19364
 H153 H -0.23162 0.83070 0.32472
 H154 H -0.17233 0.75774 0.47529
 H155 H -0.07707 0.90554 0.32858
 H156 H -0.10757 0.86635 0.09077
 H157 H -0.19198 0.86284 0.24707
 H158 H -0.14939 0.83275 0.15630
 C159 C 0.66598 0.65516 0.32448
 C160 C 0.67956 0.63557 0.39227
 C161 C 0.70027 0.65987 0.43342
 C162 C 0.70787 0.70368 0.40759
 C163 C 0.69569 0.72022 0.33504
 N164 N 0.67497 0.69637 0.29718
 C165 C 0.64134 0.63376 0.28385
 N166 N 0.63065 0.65352 0.21510
 C167 C 0.60712 0.63790 0.17706
 C168 C 0.59266 0.60036 0.20870
 C169 C 0.60337 0.57911 0.27872
 C170 C 0.62750 0.59564 0.31657
 H171 H 0.71019 0.64451 0.48627
 H172 H 0.70108 0.75348 0.31172
 H173 H 0.59960 0.65515 0.12287
 H174 H 0.59281 0.55006 0.30525
 H175 H 0.67434 0.60223 0.41490
 H176 H 0.63441 0.57898 0.37177
 C177 C 0.15606 1.18102 0.32399
 C178 C 0.15123 1.20701 0.39406
 C179 C 0.17397 1.22563 0.43585
 C180 C 0.20183 1.21653 0.41076
 C181 C 0.20545 1.19176 0.33755
 N182 N 0.18285 1.17471 0.29701
 C183 C 0.13250 1.15898 0.28155
 N184 N 0.11232 1.13748 0.32612
 C185 C 0.09033 1.11583 0.29034
 C186 C 0.08745 1.11611 0.20510
 C187 C 0.10783 1.13844 0.15796
 C188 C 0.13072 1.15927 0.19602
 H189 H 0.16963 1.24717 0.48797
 H190 H 0.22623 1.18362 0.31470
 H191 H 0.07485 1.09918 0.32852
 H192 H 0.10623 1.13921 0.09190
 H193 H 0.13003 1.21321 0.41578
 H194 H 0.14657 1.17612 0.15937
 C195 C 0.65589 0.32380 -0.33251
 C196 C 0.68317 0.32954 -0.30244
 C197 C 0.70579 0.30984 -0.34396
 C198 C 0.70137 0.28366 -0.41514
 C199 C 0.67321 0.27675 -0.43954
 N200 N 0.65167 0.29734 -0.39935
 C201 C 0.63176 0.34633 -0.29322
 N202 N 0.62898 0.34542 -0.21036
 C203 C 0.60674 0.36517 -0.17172
 C204 C 0.58618 0.38835 -0.21699
 C205 C 0.58893 0.39033 -0.30220
 C206 C 0.61147 0.36866 -0.34068
 H207 H 0.72680 0.31700 -0.32203
 H208 H 0.66806 0.25417 -0.48931
 H209 H 0.60531 0.36325 -0.10574
 H210 H 0.57337 0.40782 -0.33898
 H211 H 0.68702 0.35041 -0.24912
 H212 H 0.61332 0.36989 -0.40667
 C213 C 0.15949 0.82854 -0.32321
 C214 C 0.15802 0.78475 -0.35664
 C215 C 0.18090 0.76758 -0.40012
 C216 C 0.20528 0.79369 -0.40925
 C217 C 0.20617 0.83700 -0.37405
 N218 N 0.18336 0.85347 -0.33331
 C219 C 0.13521 0.84855 -0.28007
 N220 N 0.12867 0.89301 -0.29258
 C221 C 0.10590 0.91292 -0.25701
 C222 C 0.08846 0.88781 -0.20463
 C223 C 0.09525 0.84229 -0.18920
 C224 C 0.11848 0.82243 -0.22732
 H225 H 0.17963 0.73404 -0.42698
 H226 H 0.22471 0.85797 -0.38056
 H227 H 0.10148 0.94831 -0.26959
 H228 H 0.08234 0.82189 -0.14887
 H229 H 0.13913 0.76449 -0.35101
 H230 H 0.12342 0.78716 -0.21526
 C231 C 0.34252 0.68486 -0.31402
 C232 C 0.33202 0.72849 -0.29717
 C233 C 0.30955 0.74557 -0.34293
 C234 C 0.29774 0.71998 -0.40702
 C235 C 0.30862 0.67611 -0.42027
 N236 N 0.33033 0.66020 -0.37464
 C237 C 0.36679 0.66452 -0.27015
 N238 N 0.37894 0.62677 -0.30284
 C239 C 0.40126 0.60556 -0.26781
 C240 C 0.41282 0.62226 -0.19502
 C241 C 0.40059 0.66083 -0.15933
 C242 C 0.37754 0.68201 -0.19645
 H243 H 0.30224 0.77970 -0.33023
 H244 H 0.29926 0.65353 -0.46453
 H245 H 0.40996 0.57576 -0.29723
 H246 H 0.40879 0.67453 -0.10275
 H247 H 0.34121 0.74990 -0.25078
 H248 H 0.36830 0.71121 -0.16678
 C249 C -0.16493 1.16868 -0.30824
 C250 C -0.17581 1.21171 -0.28865
 C251 C -0.19767 1.22995 -0.33518
 C252 C -0.20849 1.20613 -0.40275
 C253 C -0.19780 1.16230 -0.41781
 N254 N -0.17648 1.14532 -0.37164
 C255 C -0.14018 1.14882 -0.26591
 N256 N -0.12629 1.11384 -0.30265
 C257 C -0.10276 1.09474 -0.27026
 C258 C -0.09163 1.11115 -0.19666
 C259 C -0.10583 1.14648 -0.15659
 C260 C -0.13016 1.16522 -0.19058
 H261 H -0.20490 1.26395 -0.32106
 H262 H -0.20625 1.14159 -0.46657
 H263 H -0.09257 1.06724 -0.30276
 H264 H -0.09814 1.15964 -0.09898
 H265 H -0.16706 1.23222 -0.24028
 H266 H -0.14080 1.19195 -0.15753
 C267 C 0.65583 0.68288 -0.32458
 C268 C 0.65138 0.70469 -0.39939
 C269 C 0.67420 0.72273 -0.44174
 C270 C 0.70186 0.71734 -0.41201
 C271 C 0.70504 0.69685 -0.33447
 N272 N 0.68234 0.68017 -0.29372
 C273 C 0.63225 0.66125 -0.28114
 N274 N 0.61203 0.63940 -0.32486
 C275 C 0.59011 0.61791 -0.28829
 C276 C 0.58737 0.61856 -0.20298
 C277 C 0.60777 0.64125 -0.15667
 C278 C 0.63055 0.66205 -0.19557
 H279 H 0.67007 0.74098 -0.49791
 H280 H 0.72564 0.69163 -0.30799
 H281 H 0.57464 0.60097 -0.32593
 H282 H 0.60631 0.64230 -0.09059
 H283 H 0.63040 0.70806 -0.42451
 H284 H 0.64640 0.67917 -0.15947
 C285 C 0.16208 1.17284 -0.31193
 C286 C 0.17242 1.21580 -0.29010
 C287 C 0.19383 1.23557 -0.33617
 C288 C 0.20475 1.21341 -0.40554
 C289 C 0.19452 1.16967 -0.42325
 N290 N 0.17363 1.15113 -0.37738
 C291 C 0.13790 1.15143 -0.26934
 N292 N 0.12396 1.11709 -0.30755
 C293 C 0.10085 1.09694 -0.27469
 C294 C 0.09023 1.11164 -0.19918
 C295 C 0.10456 1.14616 -0.15766
 C296 C 0.12846 1.16589 -0.19204
 H297 H 0.20062 1.26949 -0.32013
 H298 H 0.20302 1.15025 -0.47374
 H299 H 0.09053 1.07008 -0.30833
 H300 H 0.09730 1.15795 -0.09855
 H301 H 0.16357 1.23513 -0.24019
 H302 H 0.13923 1.19190 -0.15776
 C303 C 0.33821 0.33315 -0.32381
 C304 C 0.33001 0.28809 -0.30855
 C305 C 0.30775 0.26939 -0.35229
 C306 C 0.29383 0.29502 -0.41197
 C307 C 0.30253 0.33983 -0.42571
 N308 N 0.32431 0.35746 -0.38217
 C309 C 0.36224 0.35428 -0.28050
 N310 N 0.37555 0.39035 -0.31546
 C311 C 0.39831 0.41051 -0.28063
 C312 C 0.40909 0.39411 -0.20645
 C313 C 0.39534 0.35779 -0.16832
 C314 C 0.37186 0.33802 -0.20466
 H315 H 0.30175 0.23449 -0.34089
 H316 H 0.29216 0.36058 -0.47129
 H317 H 0.40820 0.43877 -0.31161
 H318 H 0.40271 0.34461 -0.11032
 H319 H 0.34096 0.26684 -0.26508
 H320 H 0.36142 0.31063 -0.17290
 C321 C -0.16221 0.83042 -0.31819
 C322 C -0.16999 0.78492 -0.30564
 C323 C -0.19218 0.76657 -0.35026
 C324 C -0.20648 0.79307 -0.40798
 C325 C -0.19839 0.83847 -0.41823
 N326 N -0.17661 0.85565 -0.37418
 C327 C -0.13796 0.85109 -0.27525
 N328 N -0.12505 0.88773 -0.30947
 C329 C -0.10213 0.90767 -0.27527
 C330 C -0.09076 0.89054 -0.20236
 C331 C -0.10406 0.85354 -0.16493
 C332 C -0.12769 0.83388 -0.20080
 H333 H -0.19774 0.73126 -0.34134
 H334 H -0.20913 0.86000 -0.46187
 H335 H -0.09263 0.93647 -0.30566
 H336 H -0.09620 0.83973 -0.10797
 H337 H -0.15866 0.76309 -0.26391
 H338 H -0.13778 0.80586 -0.16983
 C339 C 0.33970 0.66800 0.32619
 C340 C 0.31330 0.64677 0.32794
 C341 C 0.29106 0.66743 0.36955
 C342 C 0.29535 0.70848 0.41085
 C343 C 0.32184 0.72918 0.40605
 N344 N 0.34310 0.70876 0.36411
 C345 C 0.36400 0.64666 0.28525
 N346 N 0.38231 0.67298 0.24226
 C347 C 0.40546 0.65534 0.20492
 C348 C 0.41162 0.60891 0.21189
 C349 C 0.39321 0.58129 0.25666
 C350 C 0.36922 0.59995 0.29273
 H351 H 0.27076 0.65083 0.37170
 H352 H 0.32566 0.76122 0.43639
 H353 H 0.41933 0.67772 0.17131
 H354 H 0.39730 0.54530 0.26342
 H355 H 0.30989 0.61469 0.29725
 H356 H 0.35532 0.57834 0.32784
 C357 C -0.15975 1.17214 0.32423
 C358 C -0.18700 1.16310 0.29662
 C359 C -0.21000 1.17920 0.34110
 C360 C -0.20605 1.20485 0.41307
 C361 C -0.17808 1.21482 0.43572
 N362 N -0.15606 1.19770 0.39248
 C363 C -0.13506 1.15290 0.28240
 N364 N -0.11494 1.13148 0.32731
 C365 C -0.09197 1.11205 0.29213
 C366 C -0.08803 1.11460 0.20730
 C367 C -0.10821 1.13730 0.15999
 C368 C -0.13201 1.15598 0.19727
 H369 H -0.23085 1.16975 0.32074
 H370 H -0.17359 1.23664 0.48720
 H371 H -0.07665 1.09512 0.33051
 H372 H -0.10582 1.13986 0.09427
 H373 H -0.19047 1.14242 0.24284
 H374 H -0.14768 1.17312 0.16036
 C375 C 0.65999 0.31847 0.30634
 C376 C 0.66628 0.27204 0.29796
 C377 C 0.68775 0.25291 0.34483
 C378 C 0.70275 0.27969 0.40047
 C379 C 0.69648 0.32614 0.40528
 N380 N 0.67532 0.34397 0.35953
 C381 C 0.63601 0.34000 0.26344
 N382 N 0.62447 0.37824 0.29618
 C383 C 0.60177 0.39924 0.26270
 C384 C 0.58920 0.38164 0.19199
 C385 C 0.60108 0.34293 0.15587
 C386 C 0.62451 0.32207 0.19119
 H387 H 0.69205 0.21689 0.33980
 H388 H 0.70791 0.34791 0.44686
 H389 H 0.59343 0.42934 0.29198
 H390 H 0.59219 0.32866 0.10065
 H391 H 0.65420 0.25018 0.25827
 H392 H 0.63347 0.29256 0.16166
 C393 C 0.15736 0.82056 0.32248
 C394 C 0.16407 0.77411 0.31680
 C395 C 0.18694 0.75689 0.36065
 C396 C 0.20291 0.78561 0.41055
 C397 C 0.19569 0.83173 0.41407
 N398 N 0.17335 0.84772 0.37105
 C399 C 0.13301 0.84102 0.27950
 N400 N 0.12228 0.88083 0.30834
 C401 C 0.10003 0.90206 0.27278
 C402 C 0.08722 0.88329 0.20344
 C403 C 0.09810 0.84264 0.17177
 C404 C 0.12098 0.82142 0.20944
 H405 H 0.19189 0.72104 0.35686
 H406 H 0.20785 0.85508 0.45080
 H407 H 0.09239 0.93352 0.29886
 H408 H 0.08895 0.82726 0.11789
 H409 H 0.15156 0.75099 0.28071
 H410 H 0.12928 0.79056 0.18289
   
