data_POSCAR
  _audit_creation_date              2014-09-24
  _audit_creation_method            'ToBaCCo'
  _symmetry_space_group_name_H-M    'P1'
  _symmetry_Int_Tables_number       1
  _symmetry_cell_setting            triclinic
  loop_
  _symmetry_equiv_pos_as_xyz
 x,y,z
_cell_length_a 25.9149
_cell_length_b 26.0602
_cell_length_c 26.1204
_cell_angle_alpha 89.702900
_cell_angle_beta 91.177900
_cell_angle_gamma 89.625100
loop_
  _atom_site_label
  _atom_site_type_symbol
  _atom_site_fract_x
  _atom_site_fract_y
  _atom_site_fract_z
Si1 Si -0.00791 0.49427 0.24760
 Si2 Si 0.00389 0.50090 0.75599
 Si3 Si 0.24388 0.00674 0.50597
 Si4 Si 0.75541 0.00325 0.49880
 Si5 Si 0.50209 0.24968 0.99683
 Si6 Si 0.50187 0.74691 0.99779
 B7 B 1.01074 1.04602 0.04009
 B8 B 1.04181 0.98862 0.05236
 B9 B 0.97621 0.99290 0.05899
 B10 B 0.95218 1.03292 0.01081
 B11 B 1.00320 1.05306 -0.02527
 B12 B 1.05910 1.02509 -0.00007
 B13 B 0.99559 0.94661 -0.03526
 B14 B 0.96387 1.00397 -0.04723
 B15 B 1.02959 0.99963 -0.05414
 B16 B 1.05386 0.95985 -0.00549
 B17 B 1.00253 0.93937 0.03002
 B18 B 0.94694 0.96732 0.00459
 B19 B 0.55080 0.50614 0.46594
 B20 B 0.55032 0.49938 0.53158
 B21 B 0.52838 0.55696 0.50220
 B22 B 0.49627 0.53976 0.44621
 B23 B 0.49770 0.47363 0.44073
 B24 B 0.53065 0.44914 0.49361
 B25 B 0.44184 0.49894 0.52772
 B26 B 0.44290 0.50468 0.46216
 B27 B 0.46464 0.44828 0.49127
 B28 B 0.49596 0.46475 0.54761
 B29 B 0.49568 0.53056 0.55334
 B30 B 0.46216 0.55597 0.49984
 C31 C 0.95381 1.41840 0.18031
 C32 C 0.95190 1.36870 0.16049
 C33 C 0.99358 1.33459 0.16802
 C34 C 1.03852 1.35262 0.19331
 C35 C 1.04038 1.40240 0.21276
 C36 C 0.99703 1.43455 0.20894
 C37 C 0.98789 1.28067 0.15035
 C38 C 1.02762 1.24791 0.14648
 C39 C 1.02271 1.19607 0.12444
 C40 C 1.06338 1.17772 0.09589
 C41 C 1.06020 1.13043 0.07195
 C42 C 1.01737 1.09776 0.07634
 C43 C 0.97759 1.11607 0.10797
 C44 C 0.97977 1.16453 0.13123
 H45 H 0.92016 1.44307 0.17615
 H46 H 0.91710 1.35637 0.14056
 H47 H 1.07187 1.32834 0.20021
 H48 H 1.07523 1.41467 0.23226
 H49 H 0.94982 1.26826 0.13797
 H50 H 1.06649 1.26070 0.15449
 H51 H 1.09743 1.20093 0.09046
 H52 H 1.09240 1.12117 0.05010
 H53 H 0.94396 1.09402 0.11451
 H54 H 0.94803 1.17707 0.15450
 C55 C 0.93358 0.57554 0.20062
 C56 C 0.92928 0.62303 0.17581
 C57 C 0.97200 0.64474 0.15188
 C58 C 1.01834 0.61611 0.15040
 C59 C 1.02240 0.56846 0.17500
 C60 C 0.98101 0.54935 0.20276
 C61 C 0.96777 0.69850 0.13302
 C62 C 1.00131 0.71973 0.10099
 C63 C 0.99940 0.77433 0.08501
 C64 C 1.02345 0.78807 0.03987
 C65 C 1.02495 0.83906 0.02413
 C66 C 1.00243 0.87944 0.05234
 C67 C 0.97953 0.86462 0.09885
 C68 C 0.97786 0.81325 0.11489
 H69 H 0.90017 0.56049 0.21950
 H70 H 0.89290 0.64367 0.17682
 H71 H 1.05255 0.63120 0.13300
 H72 H 1.05912 0.54835 0.17555
 H73 H 0.93559 0.72125 0.14618
 H74 H 1.03079 0.69612 0.08404
 H75 H 1.04167 0.75914 0.01653
 H76 H 1.04593 0.84581 -0.01007
 H77 H 0.96408 0.89212 0.12439
 H78 H 0.96094 0.80454 0.15142
 C79 C 1.06132 1.41455 -0.20660
 C80 C 1.06645 1.36608 -0.18380
 C81 C 1.02511 1.34399 -0.15795
 C82 C 0.97886 1.37233 -0.15407
 C83 C 0.97388 1.42083 -0.17680
 C84 C 1.01450 1.44171 -0.20449
 C85 C 1.03053 1.29040 -0.13875
 C86 C 1.00037 1.27039 -0.10276
 C87 C 1.00345 1.21626 -0.08505
 C88 C 0.98217 1.20389 -0.03805
 C89 C 0.98165 1.15335 -0.02060
 C90 C 1.00262 1.11228 -0.04884
 C91 C 1.02276 1.12559 -0.09712
 C92 C 1.02335 1.17642 -0.11487
 H93 H 1.09374 1.42995 -0.22691
 H94 H 1.10255 1.34531 -0.18729
 H95 H 0.94552 1.35657 -0.13559
 H96 H 0.93741 1.44085 -0.17433
 H97 H 1.06114 1.26719 -0.15438
 H98 H 0.97297 1.29492 -0.08379
 H99 H 0.96510 1.23349 -0.01469
 H100 H 0.96217 1.14727 0.01461
 H101 H 1.03662 1.09725 -0.12274
 H102 H 1.03801 1.18387 -0.15264
 C103 C 1.00664 0.56224 -0.15312
 C104 C 1.00206 0.60896 -0.12710
 C105 C 0.99124 0.65462 -0.15430
 C106 C 0.98317 0.65257 -0.20756
 C107 C 0.98724 0.60618 -0.23323
 C108 C 0.99967 0.56095 -0.20640
 C109 C 0.98730 0.70394 -0.12694
 C110 C 1.00248 0.74809 -0.14827
 C111 C 0.99813 0.79802 -0.12247
 C112 C 1.03624 0.83464 -0.12944
 C113 C 1.03377 0.88162 -0.10428
 C114 C 0.99240 0.89518 -0.07241
 C115 C 0.95305 0.85818 -0.06865
 C116 C 0.95583 0.81050 -0.09264
 H117 H 1.01549 0.52745 -0.13181
 H118 H 1.00770 0.60964 -0.08590
 H119 H 0.97300 0.68670 -0.22942
 H120 H 0.98081 0.60564 -0.27435
 H121 H 0.97363 0.70361 -0.08801
 H122 H 1.02139 0.74748 -0.18488
 H123 H 1.06907 0.82631 -0.15313
 H124 H 1.06544 0.90643 -0.11004
 H125 H 0.91989 0.86439 -0.04691
 H126 H 0.92464 0.78353 -0.08794
 C127 C 1.17133 0.95907 0.43836
 C128 C 1.14737 0.95122 0.39039
 C129 C 1.15590 0.98526 0.34954
 C130 C 1.18628 1.02893 0.35859
 C131 C 1.21040 1.03641 0.40607
 C132 C 1.20375 1.00130 0.44620
 C133 C 1.13260 0.97491 0.29820
 C134 C 1.15320 0.99274 0.25484
 C135 C 1.12855 0.98773 0.20357
 C136 C 1.13659 1.02623 0.16740
 C137 C 1.11173 1.02484 0.11960
 C138 C 1.07875 0.98441 0.10479
 C139 C 1.07378 0.94449 0.14118
 C140 C 1.09775 0.94603 0.18965
 H141 H 1.16604 0.93124 0.46870
 H142 H 1.12348 0.91770 0.38472
 H143 H 1.19193 1.05750 0.32911
 H144 H 1.23531 1.06919 0.41038
 H145 H 1.09770 0.95233 0.29637
 H146 H 1.18847 1.01468 0.25672
 H147 H 1.16089 1.05870 0.17674
 H148 H 1.11872 1.05653 0.09512
 H149 H 1.05060 0.91211 0.13377
 H150 H 1.09195 0.91454 0.21605
 C151 C 1.23769 1.03531 -0.39144
 C152 C 1.21402 1.04393 -0.34493
 C153 C 1.16102 1.03583 -0.33998
 C154 C 1.13148 1.02096 -0.38331
 C155 C 1.15525 1.01326 -0.43046
 C156 C 1.20862 1.01976 -0.43437
 C157 C 1.13889 1.04209 -0.28870
 C158 C 1.10108 1.01227 -0.27146
 C159 C 1.08433 1.01189 -0.21748
 C160 C 1.03764 0.98875 -0.20611
 C161 C 1.02198 0.98404 -0.15561
 C162 C 1.05144 1.00302 -0.11356
 C163 C 1.09946 1.02467 -0.12616
 C164 C 1.11560 1.02921 -0.17672
 H165 H 1.27904 1.04034 -0.39369
 H166 H 1.23751 1.05543 -0.31221
 H167 H 1.09024 1.01550 -0.38086
 H168 H 1.13224 1.00149 -0.46333
 H169 H 1.15774 1.06903 -0.26325
 H170 H 1.08272 0.98532 -0.29735
 H171 H 1.01346 0.97295 -0.23641
 H172 H 0.98774 0.96214 -0.15050
 H173 H 1.12719 1.03501 -0.09769
 H174 H 1.15370 1.04430 -0.18307
 C175 C 0.83320 1.04506 0.43437
 C176 C 0.86509 1.04549 0.39161
 C177 C 0.86641 1.00338 0.35825
 C178 C 0.83698 0.95983 0.37022
 C179 C 0.80465 0.95982 0.41231
 C180 C 0.80200 1.00252 0.44461
 C181 C 0.89726 1.00650 0.31077
 C182 C 0.88538 0.97891 0.26888
 C183 C 0.91059 0.98313 0.21843
 C184 C 0.88490 0.96179 0.17632
 C185 C 0.90504 0.96521 0.12750
 C186 C 0.95259 0.98920 0.11765
 C187 C 0.97813 1.01070 0.16100
 C188 C 0.95784 1.00761 0.21041
 H189 H 0.83174 1.07863 0.45856
 H190 H 0.88763 1.07939 0.38376
 H191 H 0.83836 0.92556 0.34715
 H192 H 0.78124 0.92637 0.41869
 H193 H 0.92743 1.03492 0.30928
 H194 H 0.85237 0.95379 0.26993
 H195 H 0.84783 0.94345 0.18076
 H196 H 0.88040 0.95185 0.09790
 H197 H 1.01337 1.03178 0.15741
 H198 H 0.97935 1.02456 0.24186
 C199 C 0.84018 1.02473 -0.43232
 C200 C 0.86313 1.03006 -0.38362
 C201 C 0.83525 1.01914 -0.33932
 C202 C 0.78367 1.00323 -0.34481
 C203 C 0.76097 0.99782 -0.39334
 C204 C 0.78867 1.00915 -0.43747
 C205 C 0.86066 1.02553 -0.28829
 C206 C 0.84534 1.00064 -0.24617
 C207 C 0.87179 1.00487 -0.19558
 C208 C 0.86909 0.96381 -0.16136
 C209 C 0.89554 0.96513 -0.11438
 C210 C 0.92510 1.00787 -0.09847
 C211 C 0.92489 1.04990 -0.13286
 C212 C 0.89894 1.04864 -0.18034
 H213 H 0.86282 1.03299 -0.46557
 H214 H 0.90290 1.04241 -0.38054
 H215 H 0.76025 0.99562 -0.31188
 H216 H 0.72159 0.98445 -0.39620
 H217 H 0.89475 1.04930 -0.28618
 H218 H 0.81453 0.97295 -0.24921
 H219 H 0.84773 0.92963 -0.17162
 H220 H 0.89288 0.93148 -0.09140
 H221 H 0.94490 1.08417 -0.12466
 H222 H 0.90036 1.08212 -0.20495
 C223 C 1.39539 1.24449 0.00200
 C224 C 1.34652 1.22334 -0.00303
 C225 C 1.34031 1.17306 -0.02048
 C226 C 1.38435 1.14456 -0.03422
 C227 C 1.43373 1.16620 -0.02954
 C228 C 1.43942 1.21608 -0.01051
 C229 C 1.28709 1.15302 -0.02401
 C230 C 1.27529 1.10320 -0.02094
 C231 C 1.22134 1.08522 -0.01682
 C232 C 1.21218 1.03919 0.00872
 C233 C 1.16192 1.02208 0.01559
 C234 C 1.11815 1.04905 -0.00413
 C235 C 1.12860 1.09628 -0.02871
 C236 C 1.17886 1.11367 -0.03566
 H237 H 1.39860 1.28343 0.01593
 H238 H 1.31338 1.24632 0.00736
 H239 H 1.38076 1.10620 -0.04947
 H240 H 1.46680 1.14440 -0.04167
 H241 H 1.25632 1.18128 -0.02392
 H242 H 1.30592 1.07502 -0.01621
 H243 H 1.24404 1.01686 0.02482
 H244 H 1.15835 0.98818 0.03853
 H245 H 1.09860 1.12145 -0.04137
 H246 H 1.18393 1.14946 -0.05602
 C247 C 0.60864 1.25200 0.00729
 C248 C 0.65897 1.23372 0.00451
 C249 C 0.66858 1.18121 -0.00048
 C250 C 0.62672 1.14688 -0.00165
 C251 C 0.57581 1.16549 0.00002
 C252 C 0.56666 1.21840 0.00315
 C253 C 0.72261 1.16418 -0.00559
 C254 C 0.74082 1.12153 0.01687
 C255 C 0.79607 1.10735 0.01697
 C256 C 0.81680 1.08202 0.05964
 C257 C 0.86746 1.06414 0.05993
 C258 C 0.89942 1.06850 0.01705
 C259 C 0.87885 1.09821 -0.02417
 C260 C 0.82811 1.11714 -0.02448
 H261 H 0.60243 1.29304 0.01016
 H262 H 0.69056 1.26076 0.00595
 H263 H 0.63326 1.10603 -0.00558
 H264 H 0.54422 1.13878 -0.00203
 H265 H 0.74910 1.19014 -0.02390
 H266 H 0.71526 1.09845 0.03975
 H267 H 0.79346 1.07547 0.09299
 H268 H 0.87971 1.04663 0.09445
 H269 H 0.90056 1.10537 -0.05763
 H270 H 0.81344 1.13714 -0.05822
 C271 C 1.43252 0.81557 -0.05326
 C272 C 1.38535 0.84175 -0.05911
 C273 C 1.35015 0.84270 -0.01893
 C274 C 1.36454 0.82023 0.02832
 C275 C 1.41128 0.79401 0.03399
 C276 C 1.44511 0.79054 -0.00701
 C277 C 1.29870 0.86678 -0.02700
 C278 C 1.25701 0.85032 -0.00219
 C279 C 1.20552 0.87485 -0.00645
 C280 C 1.17203 0.86983 0.03438
 C281 C 1.12414 0.89448 0.03327
 C282 C 1.10663 0.92418 -0.00920
 C283 C 1.14062 0.92695 -0.05066
 C284 C 1.18891 0.90280 -0.04962
 H285 H 1.45819 0.81318 -0.08538
 H286 H 1.37548 0.85954 -0.09561
 H287 H 1.33956 0.82226 0.06094
 H288 H 1.41982 0.77532 0.07022
 H289 H 1.29540 0.89808 -0.05427
 H290 H 1.26082 0.81838 0.02433
 H291 H 1.18356 0.84802 0.06820
 H292 H 1.10153 0.89015 0.06668
 H293 H 1.13170 0.94844 -0.08411
 H294 H 1.21302 0.90638 -0.08275
 C295 C 0.60920 0.74612 0.00260
 C296 C 0.65840 0.76693 0.00422
 C297 C 0.66520 0.81999 -0.00019
 C298 C 0.62141 0.85197 -0.00762
 C299 C 0.57184 0.83088 -0.00929
 C300 C 0.56576 0.77789 -0.00400
 C301 C 0.71864 0.83943 0.00206
 C302 C 0.73088 0.88820 0.01158
 C303 C 0.78469 0.90600 0.01098
 C304 C 0.79459 0.95403 -0.00970
 C305 C 0.84498 0.97130 -0.01329
 C306 C 0.88804 0.94276 0.00565
 C307 C 0.87671 0.89389 0.02636
 C308 C 0.82617 0.87579 0.02903
 H309 H 0.60501 0.70498 0.00687
 H310 H 0.69131 0.74144 0.00956
 H311 H 0.62499 0.89295 -0.01271
 H312 H 0.53852 0.85579 -0.01440
 H313 H 0.74937 0.81190 -0.00425
 H314 H 0.70110 0.91677 0.01710
 H315 H 0.76330 0.97767 -0.02504
 H316 H 0.84912 1.00642 -0.03387
 H317 H 0.90627 0.86811 0.03910
 H318 H 0.81972 0.83824 0.04552
 C319 C 0.90868 0.44169 0.29324
 C320 C 0.86064 0.44038 0.31628
 C321 C 0.83942 0.48489 0.33754
 C322 C 0.86916 0.53006 0.33847
 C323 C 0.91746 0.53108 0.31577
 C324 C 0.93597 0.48783 0.29031
 C325 C 0.78545 0.48297 0.35520
 C326 C 0.76365 0.51961 0.38332
 C327 C 0.70999 0.51669 0.40080
 C328 C 0.69809 0.54009 0.44679
 C329 C 0.64851 0.53736 0.46561
 C330 C 0.60803 0.51126 0.43956
 C331 C 0.62019 0.49112 0.39118
 C332 C 0.67037 0.49302 0.37235
 H333 H 0.92329 0.40690 0.27634
 H334 H 0.83924 0.40480 0.31600
 H335 H 0.85476 0.56549 0.35415
 H336 H 0.93860 0.56679 0.31482
 H337 H 0.76309 0.44935 0.34524
 H338 H 0.78639 0.55132 0.39745
 H339 H 0.72755 0.55987 0.46899
 H340 H 0.64247 0.55624 0.50165
 H341 H 0.59148 0.47435 0.36679
 H342 H 0.67774 0.47684 0.33511
 C343 C 0.07120 0.55710 0.29087
 C344 C 0.11773 0.56601 0.31722
 C345 C 0.14441 0.52540 0.34132
 C346 C 0.12172 0.47656 0.34243
 C347 C 0.07433 0.46808 0.31736
 C348 C 0.05034 0.50753 0.28875
 C349 C 0.19569 0.53467 0.36503
 C350 C 0.23541 0.50258 0.35764
 C351 C 0.28756 0.51017 0.38044
 C352 C 0.33038 0.48958 0.35609
 C353 C 0.37927 0.49057 0.37970
 C354 C 0.38705 0.50911 0.43000
 C355 C 0.34405 0.53439 0.45121
 C356 C 0.29521 0.53423 0.42766
 H357 H 0.05200 0.58908 0.27191
 H358 H 0.13383 0.60427 0.31723
 H359 H 0.14072 0.44506 0.36258
 H360 H 0.05740 0.43025 0.31884
 H361 H 0.20164 0.57030 0.38538
 H362 H 0.22990 0.46990 0.33263
 H363 H 0.32587 0.47154 0.31899
 H364 H 0.40921 0.47286 0.35901
 H365 H 0.34630 0.55207 0.48781
 H366 H 0.26316 0.55082 0.44788
 C367 C 0.89604 0.51051 0.75644
 C368 C 0.84617 0.51269 0.73579
 C369 C 0.83686 0.50155 0.68414
 C370 C 0.87888 0.48858 0.65310
 C371 C 0.92936 0.48725 0.67383
 C372 C 0.93811 0.49804 0.72579
 C373 C 0.78319 0.50641 0.66413
 C374 C 0.76380 0.47695 0.62668
 C375 C 0.70962 0.48077 0.60706
 C376 C 0.69684 0.45628 0.56138
 C377 C 0.64716 0.46018 0.54024
 C378 C 0.60756 0.49055 0.56220
 C379 C 0.62019 0.50958 0.61145
 C380 C 0.67001 0.50588 0.63308
 H381 H 0.90170 0.51993 0.79648
 H382 H 0.81464 0.52319 0.76035
 H383 H 0.87304 0.48105 0.61270
 H384 H 0.96128 0.47845 0.64926
 H385 H 0.75879 0.53416 0.68270
 H386 H 0.78880 0.44897 0.60902
 H387 H 0.72589 0.43504 0.54085
 H388 H 0.64282 0.44275 0.50351
 H389 H 0.59113 0.52015 0.63744
 H390 H 0.67622 0.52059 0.67130
 C391 C 0.09306 0.54990 0.71829
 C392 C 0.13886 0.55232 0.69145
 C393 C 0.15289 0.51286 0.65819
 C394 C 0.11826 0.47205 0.64995
 C395 C 0.07175 0.47001 0.67653
 C396 C 0.05933 0.50844 0.71173
 C397 C 0.20437 0.51604 0.63453
 C398 C 0.23052 0.47584 0.61610
 C399 C 0.28359 0.48096 0.59661
 C400 C 0.29875 0.45128 0.55533
 C401 C 0.34758 0.45740 0.53458
 C402 C 0.38455 0.49214 0.55485
 C403 C 0.36821 0.52077 0.59732
 C404 C 0.31918 0.51536 0.61797
 H405 H 0.08568 0.57974 0.74575
 H406 H 0.16455 0.58429 0.69842
 H407 H 0.12701 0.44145 0.62365
 H408 H 0.04666 0.43731 0.67133
 H409 H 0.22265 0.55331 0.63470
 H410 H 0.21289 0.43838 0.61427
 H411 H 0.27190 0.42479 0.53748
 H412 H 0.35394 0.43698 0.50022
 H413 H 0.39103 0.55094 0.61320
 H414 H 0.30913 0.53877 0.65045
 C415 C 0.52042 0.75107 0.10299
 C416 C 0.52480 0.73265 0.15287
 C417 C 0.51149 0.68205 0.16405
 C418 C 0.49468 0.64949 0.12429
 C419 C 0.49175 0.66767 0.07369
 C420 C 0.50438 0.71872 0.06304
 C421 C 0.51732 0.66418 0.21726
 C422 C 0.48135 0.63617 0.23997
 C423 C 0.48661 0.61969 0.29395
 C424 C 0.44245 0.61262 0.32262
 C425 C 0.44620 0.59224 0.37202
 C426 C 0.49405 0.57587 0.39416
 C427 C 0.53833 0.58724 0.36559
 C428 C 0.53480 0.60848 0.31655
 H429 H 0.53004 0.79077 0.09560
 H430 H 0.53793 0.75818 0.18298
 H431 H 0.48502 0.60991 0.13224
 H432 H 0.47971 0.64210 0.04333
 H433 H 0.54997 0.67835 0.23943
 H434 H 0.44608 0.62687 0.21908
 H435 H 0.40477 0.62269 0.30669
 H436 H 0.41096 0.59075 0.39268
 H437 H 0.57592 0.57562 0.37723
 H438 H 0.56988 0.61269 0.29518
 C439 C 0.45851 0.66736 0.93556
 C440 C 0.45429 0.63881 0.89024
 C441 C 0.48956 0.64588 0.85058
 C442 C 0.52890 0.68232 0.85728
 C443 C 0.53332 0.71010 0.90235
 C444 C 0.49845 0.70289 0.94198
 C445 C 0.48229 0.61803 0.80143
 C446 C 0.51951 0.61427 0.76659
 C447 C 0.51137 0.59353 0.71460
 C448 C 0.54239 0.61136 0.67546
 C449 C 0.53736 0.59159 0.62615
 C450 C 0.49965 0.55490 0.61234
 C451 C 0.47263 0.53425 0.65422
 C452 C 0.47691 0.55393 0.70380
 H453 H 0.42999 0.66260 0.96488
 H454 H 0.42290 0.61186 0.88574
 H455 H 0.55533 0.69166 0.82726
 H456 H 0.56304 0.73893 0.90472
 H457 H 0.44456 0.60214 0.79307
 H458 H 0.55752 0.62926 0.77485
 H459 H 0.57233 0.63921 0.68343
 H460 H 0.56861 0.60015 0.60123
 H461 H 0.44773 0.50215 0.65012
 H462 H 0.45468 0.53658 0.73388
 C463 C 0.49196 0.24334 0.10273
 C464 C 0.48914 0.26094 0.15289
 C465 C 0.49273 0.31339 0.16339
 C466 C 0.49760 0.34823 0.12203
 C467 C 0.50008 0.33043 0.07148
 C468 C 0.49756 0.27781 0.06180
 C469 C 0.48979 0.33021 0.21754
 C470 C 0.51208 0.37321 0.23423
 C471 C 0.50544 0.39459 0.28605
 C472 C 0.50454 0.44752 0.28999
 C473 C 0.49975 0.47099 0.33709
 C474 C 0.49831 0.44369 0.38401
 C475 C 0.49714 0.38940 0.37887
 C476 C 0.50070 0.36518 0.33088
 H477 H 0.48982 0.20243 0.09587
 H478 H 0.48486 0.23340 0.18370
 H479 H 0.49866 0.38919 0.12840
 H480 H 0.50403 0.35749 0.04024
 H481 H 0.46890 0.30643 0.24410
 H482 H 0.53347 0.39642 0.20761
 H483 H 0.50623 0.47137 0.25590
 H484 H 0.49460 0.51060 0.33380
 H485 H 0.49593 0.36461 0.41186
 H486 H 0.50144 0.32369 0.32924
 C487 C 0.54374 0.27544 0.90131
 C488 C 0.54504 0.29882 0.85353
 C489 C 0.50815 0.33576 0.83901
 C490 C 0.47051 0.35035 0.87444
 C491 C 0.46987 0.32732 0.92337
 C492 C 0.50658 0.28949 0.93711
 C493 C 0.51228 0.35793 0.78696
 C494 C 0.47279 0.37660 0.75836
 C495 C 0.47978 0.39439 0.70461
 C496 C 0.43823 0.39373 0.66950
 C497 C 0.44422 0.41114 0.61901
 C498 C 0.49161 0.43140 0.60181
 C499 C 0.53348 0.42694 0.63678
 C500 C 0.52775 0.41074 0.68715
 H501 H 0.57123 0.24489 0.90886
 H502 H 0.57431 0.28667 0.82705
 H503 H 0.44194 0.37941 0.86456
 H504 H 0.44020 0.33818 0.94984
 H505 H 0.54975 0.35398 0.76991
 H506 H 0.43413 0.37601 0.77331
 H507 H 0.40097 0.37969 0.68106
 H508 H 0.41121 0.40819 0.59390
 H509 H 0.57200 0.43226 0.62532
 H510 H 0.56157 0.41150 0.71201
 C511 C 0.75255 0.89602 0.51261
 C512 C 0.73053 0.84729 0.51226
 C513 C 0.67765 0.84109 0.50180
 C514 C 0.64702 0.88509 0.49173
 C515 C 0.66942 0.93409 0.49135
 C516 C 0.72249 0.93967 0.50122
 C517 C 0.65709 0.78807 0.49887
 C518 C 0.60824 0.77541 0.50907
 C519 C 0.58978 0.72151 0.50704
 C520 C 0.54997 0.70594 0.53848
 C521 C 0.53197 0.65544 0.53691
 C522 C 0.55355 0.61678 0.50513
 C523 C 0.59021 0.63581 0.47048
 C524 C 0.60903 0.68603 0.47218
 H525 H 0.79355 0.89954 0.52060
 H526 H 0.75503 0.81420 0.52001
 H527 H 0.60628 0.88163 0.48258
 H528 H 0.64554 0.96732 0.48249
 H529 H 0.68446 0.75776 0.49065
 H530 H 0.58182 0.80464 0.52222
 H531 H 0.53216 0.73305 0.56412
 H532 H 0.49899 0.64776 0.56008
 H533 H 0.60445 0.61380 0.44005
 H534 H 0.63734 0.69749 0.44450
 C535 C 0.67546 0.07039 0.53148
 C536 C 0.64835 0.11699 0.53193
 C537 C 0.65519 0.15388 0.49329
 C538 C 0.68700 0.14125 0.45202
 C539 C 0.71404 0.09452 0.45165
 C540 C 0.71014 0.05956 0.49242
 C541 C 0.62889 0.20461 0.49812
 C542 C 0.64235 0.24726 0.47255
 C543 C 0.61676 0.29785 0.47976
 C544 C 0.61521 0.33322 0.43945
 C545 C 0.58987 0.38043 0.44456
 C546 C 0.56403 0.39445 0.48955
 C547 C 0.57114 0.36022 0.53126
 C548 C 0.59578 0.31258 0.52644
 H549 H 0.67033 0.04368 0.56266
 H550 H 0.62321 0.12494 0.56359
 H551 H 0.69161 0.16722 0.42008
 H552 H 0.73883 0.08658 0.41987
 H553 H 0.59805 0.20706 0.52537
 H554 H 0.67249 0.24558 0.44461
 H555 H 0.63265 0.32393 0.40329
 H556 H 0.58935 0.40450 0.41173
 H557 H 0.55729 0.36851 0.56812
 H558 H 0.59898 0.28779 0.55973
 C559 C 0.26985 0.91341 0.55721
 C560 C 0.29124 0.86417 0.56070
 C561 C 0.32136 0.84471 0.52116
 C562 C 0.33146 0.87673 0.47880
 C563 C 0.30981 0.92597 0.47529
 C564 C 0.27858 0.94446 0.51424
 C565 C 0.34176 0.79143 0.52608
 C566 C 0.35881 0.76428 0.48641
 C567 C 0.38275 0.71293 0.49199
 C568 C 0.42402 0.70109 0.46120
 C569 C 0.44829 0.65352 0.46504
 C570 C 0.43128 0.61326 0.49760
 C571 C 0.38959 0.62716 0.52885
 C572 C 0.36571 0.67568 0.52635
 H573 H 0.24540 0.92635 0.58766
 H574 H 0.28322 0.84073 0.59394
 H575 H 0.35601 0.86435 0.44824
 H576 H 0.31678 0.94931 0.44174
 H577 H 0.34267 0.77401 0.56385
 H578 H 0.35844 0.78092 0.44842
 H579 H 0.43916 0.72964 0.43529
 H580 H 0.48311 0.65124 0.44396
 H581 H 0.37280 0.60119 0.55416
 H582 H 0.33309 0.68344 0.55045
 C583 C 0.34025 0.05934 0.49797
 C584 C 0.37033 0.10369 0.49444
 C585 C 0.34687 0.15248 0.49241
 C586 C 0.29287 0.15618 0.49542
 C587 C 0.26310 0.11213 0.49923
 C588 C 0.28642 0.06349 0.49993
 C589 C 0.37924 0.19905 0.49070
 C590 C 0.36212 0.24354 0.47028
 C591 C 0.39068 0.29243 0.47407
 C592 C 0.37906 0.33197 0.43938
 C593 C 0.40252 0.37986 0.44438
 C594 C 0.43719 0.39127 0.48510
 C595 C 0.44944 0.34988 0.51837
 C596 C 0.42654 0.30184 0.51355
 H597 H 0.35903 0.02216 0.49953
 H598 H 0.41194 0.09994 0.49322
 H599 H 0.27349 0.19306 0.49622
 H600 H 0.22158 0.11605 0.50178
 H601 H 0.41811 0.19622 0.50650
 H602 H 0.32532 0.24458 0.44988
 H603 H 0.35177 0.32585 0.40806
 H604 H 0.39329 0.40720 0.41559
 H605 H 0.47643 0.35324 0.54919
 H606 H 0.43618 0.27273 0.54190
   
