data_POSCAR
  _audit_creation_date              2014-09-24
  _audit_creation_method            'ToBaCCo'
  _symmetry_space_group_name_H-M    'P1'
  _symmetry_Int_Tables_number       1
  _symmetry_cell_setting            triclinic
  loop_
  _symmetry_equiv_pos_as_xyz
 x,y,z
_cell_length_a 61.7856
_cell_length_b 61.0211
_cell_length_c 61.5615
_cell_angle_alpha 90.543200
_cell_angle_beta 90.574100
_cell_angle_gamma 89.091700
loop_
  _atom_site_label
  _atom_site_type_symbol
  _atom_site_fract_x
  _atom_site_fract_y
  _atom_site_fract_z
N1 N 0.29311 0.25383 0.23982
 N2 N 0.28441 0.27253 0.23353
 C3 C 0.29461 0.27930 0.21563
 C4 C 0.31060 0.26404 0.21039
 C5 C 0.30919 0.24811 0.22619
 H6 H 0.29063 0.29418 0.20700
 H7 H 0.31874 0.23315 0.22734
 Cu8 Cu 0.26022 0.28587 0.24900
 Cu9 Cu 0.28220 0.23773 0.26455
 Cu10 Cu 0.23912 0.26147 0.29244
 N11 N 0.23637 0.29923 0.26495
 N12 N 0.22819 0.28960 0.28193
 C13 C 0.21130 0.30163 0.28928
 C14 C 0.20868 0.31984 0.27617
 C15 C 0.22496 0.31776 0.26093
 H16 H 0.20142 0.29718 0.30289
 H17 H 0.22778 0.32848 0.24743
 N18 N 0.25244 0.23310 0.30054
 N19 N 0.26882 0.22407 0.28996
 C20 C 0.27382 0.20461 0.29900
 C21 C 0.25992 0.20111 0.31613
 C22 C 0.24662 0.21961 0.31659
 H23 H 0.28649 0.19367 0.29328
 H24 H 0.23348 0.22297 0.32763
 H25 H 0.25088 0.25003 0.26303
 H26 H 0.27029 0.26486 0.28114
 N27 N 0.69976 -0.25689 0.24515
 N28 N 0.70389 -0.27797 0.24297
 C29 C 0.69305 -0.28576 0.22555
 C30 C 0.68157 -0.26854 0.21599
 C31 C 0.68630 -0.25046 0.22904
 H32 H 0.69426 -0.30254 0.21987
 H33 H 0.68032 -0.23384 0.22719
 Cu34 Cu 0.72466 -0.29286 0.26171
 Cu35 Cu 0.71169 -0.23952 0.26911
 Cu36 Cu 0.74843 -0.26628 0.30313
 N37 N 0.75193 -0.30319 0.27419
 N38 N 0.76127 -0.29263 0.29031
 C39 C 0.78011 -0.30274 0.29539
 C40 C 0.78297 -0.32067 0.28153
 C41 C 0.76455 -0.32038 0.26832
 H42 H 0.79091 -0.29708 0.30809
 H43 H 0.76075 -0.33135 0.25499
 N44 N 0.73897 -0.23571 0.30778
 N45 N 0.72539 -0.22530 0.29463
 C46 C 0.72257 -0.20460 0.30201
 C47 C 0.73504 -0.20183 0.32065
 C48 C 0.74523 -0.22194 0.32376
 H49 H 0.71233 -0.19238 0.29430
 H50 H 0.75630 -0.22633 0.33677
 H51 H 0.73997 -0.25784 0.27206
 H52 H 0.71693 -0.26499 0.28986
 N53 N 0.70763 0.25797 0.77897
 N54 N 0.71784 0.27314 0.79013
 C55 C 0.70543 0.27980 0.80684
 C56 C 0.68634 0.26813 0.80623
 C57 C 0.68837 0.25443 0.78823
 H58 H 0.71007 0.29220 0.81855
 H59 H 0.67688 0.24251 0.78240
 Cu60 Cu 0.74658 0.28258 0.78233
 Cu61 Cu 0.72030 0.24367 0.75357
 Cu62 Cu 0.76809 0.26515 0.73510
 N63 N 0.77141 0.29671 0.76976
 N64 N 0.77958 0.29000 0.75122
 C65 C 0.79660 0.30243 0.74639
 C66 C 0.79943 0.31790 0.76286
 C67 C 0.78298 0.31367 0.77743
 H68 H 0.80626 0.30006 0.73201
 H69 H 0.77955 0.32218 0.79250
 N70 N 0.75399 0.23995 0.72110
 N71 N 0.73582 0.23165 0.72818
 C72 C 0.73065 0.21426 0.71565
 C73 C 0.74634 0.21142 0.69986
 C74 C 0.76086 0.22808 0.70389
 H75 H 0.71666 0.20422 0.71810
 H76 H 0.77548 0.23129 0.69507
 H77 H 0.75250 0.24965 0.76026
 H78 H 0.73679 0.27155 0.74558
 N79 N 0.30499 -0.26436 0.76023
 N80 N 0.29666 -0.28278 0.76684
 C81 C 0.30836 -0.29046 0.78374
 C82 C 0.32504 -0.27609 0.78804
 C83 C 0.32240 -0.25973 0.77269
 H84 H 0.30473 -0.30526 0.79240
 H85 H 0.33197 -0.24516 0.77112
 Cu86 Cu 0.27070 -0.29458 0.75366
 Cu87 Cu 0.29182 -0.24732 0.73670
 Cu88 Cu 0.24154 -0.26440 0.71836
 N89 N 0.24094 -0.30151 0.74667
 N90 N 0.22959 -0.28978 0.73275
 C91 C 0.20952 -0.29792 0.73114
 C92 C 0.20809 -0.31576 0.74493
 C93 C 0.22851 -0.31747 0.75450
 H94 H 0.19693 -0.29101 0.72088
 H95 H 0.23407 -0.32924 0.76639
 N96 N 0.25650 -0.23914 0.70602
 N97 N 0.27560 -0.23256 0.71303
 C98 C 0.28126 -0.21480 0.70170
 C99 C 0.26495 -0.20992 0.68680
 C100 C 0.24954 -0.22578 0.69004
 H101 H 0.29620 -0.20610 0.70411
 H102 H 0.23420 -0.22730 0.68163
 H103 H 0.26115 -0.25699 0.74480
 H104 H 0.27433 -0.27181 0.72159
 N105 N 0.69859 -0.25366 0.75352
 N106 N 0.70757 -0.27205 0.76028
 C107 C 0.69856 -0.27766 0.77921
 C108 C 0.68301 -0.26192 0.78466
 C109 C 0.68353 -0.24697 0.76786
 H110 H 0.70325 -0.29200 0.78840
 H111 H 0.67385 -0.23218 0.76617
 Cu112 Cu 0.73042 -0.28671 0.74390
 Cu113 Cu 0.70760 -0.23927 0.72711
 Cu114 Cu 0.75302 -0.26084 0.70193
 N115 N 0.75791 -0.29650 0.73181
 N116 N 0.76671 -0.28627 0.71553
 C117 C 0.78577 -0.29603 0.71076
 C118 C 0.78926 -0.31344 0.72484
 C119 C 0.77105 -0.31316 0.73797
 H120 H 0.79626 -0.29063 0.69801
 H121 H 0.76764 -0.32393 0.75129
 N122 N 0.73675 -0.23523 0.69070
 N123 N 0.71935 -0.22710 0.70025
 C124 C 0.71246 -0.20921 0.68941
 C125 C 0.72623 -0.20579 0.67218
 C126 C 0.74140 -0.22273 0.67351
 H127 H 0.69868 -0.19917 0.69404
 H128 H 0.75525 -0.22536 0.66317
 H129 H 0.72147 -0.26597 0.71124
 H130 H 0.73914 -0.25058 0.73078
 N131 N 0.29519 0.25682 0.75337
 N132 N 0.28571 0.27431 0.76173
 C133 C 0.29504 0.27895 0.78105
 C134 C 0.31130 0.26352 0.78506
 C135 C 0.31086 0.24974 0.76704
 H136 H 0.29000 0.29227 0.79161
 H137 H 0.32102 0.23546 0.76411
 Cu138 Cu 0.26152 0.28891 0.74707
 Cu139 Cu 0.28588 0.24396 0.72595
 Cu140 Cu 0.24126 0.26758 0.70036
 N141 N 0.23600 0.30133 0.73277
 N142 N 0.22800 0.29295 0.71472
 C143 C 0.20997 0.30431 0.70905
 C144 C 0.20649 0.32079 0.72436
 C145 C 0.22337 0.31829 0.73916
 H146 H 0.20007 0.30071 0.69492
 H147 H 0.22592 0.32770 0.75388
 N148 N 0.25704 0.24187 0.68841
 N149 N 0.27418 0.23313 0.69813
 C150 C 0.28084 0.21541 0.68674
 C151 C 0.26722 0.21265 0.66896
 C152 C 0.25233 0.22984 0.67054
 H153 H 0.29435 0.20498 0.69139
 H154 H 0.23863 0.23292 0.65990
 H155 H 0.27193 0.27196 0.71259
 H156 H 0.25369 0.25427 0.72870
 N157 N 0.30451 -0.26868 0.23190
 N158 N 0.29416 -0.28458 0.22195
 C159 C 0.30457 -0.28978 0.20343
 C160 C 0.32239 -0.27639 0.20167
 C161 C 0.32179 -0.26325 0.22012
 H162 H 0.29920 -0.30196 0.19180
 H163 H 0.33295 -0.25048 0.22460
 Cu164 Cu 0.26752 -0.29626 0.23357
 Cu165 Cu 0.29434 -0.25536 0.25874
 Cu166 Cu 0.24608 -0.27385 0.27906
 N167 N 0.23979 -0.30554 0.24483
 N168 N 0.23157 -0.29672 0.26253
 C169 C 0.21219 -0.30560 0.26627
 C170 C 0.20789 -0.32085 0.25003
 C171 C 0.22586 -0.32036 0.23671
 H172 H 0.20198 -0.30113 0.27980
 H173 H 0.22841 -0.32973 0.22196
 N174 N 0.26315 -0.25082 0.29351
 N175 N 0.28156 -0.24381 0.28570
 C176 C 0.28879 -0.22737 0.29842
 C177 C 0.27423 -0.22376 0.31506
 C178 C 0.25820 -0.23903 0.31146
 H179 H 0.30342 -0.21842 0.29553
 H180 H 0.24360 -0.24086 0.32074
 H181 H 0.27711 -0.28190 0.26950
 H182 H 0.26192 -0.26141 0.25256
 N183 N 0.70009 0.25989 0.23207
 N184 N 0.70979 0.27575 0.22190
 C185 C 0.69911 0.27974 0.20311
 C186 C 0.68182 0.26554 0.20142
 C187 C 0.68301 0.25325 0.22018
 H188 H 0.70383 0.29174 0.19133
 H189 H 0.67231 0.24033 0.22488
 Cu190 Cu 0.73578 0.28914 0.23398
 Cu191 Cu 0.71063 0.24825 0.25951
 Cu192 Cu 0.75759 0.27021 0.28079
 N193 N 0.76266 0.30075 0.24595
 N194 N 0.77095 0.29328 0.26422
 C195 C 0.78940 0.30383 0.26875
 C196 C 0.79307 0.31881 0.25244
 C197 C 0.77566 0.31636 0.23822
 H198 H 0.79936 0.30075 0.28294
 H199 H 0.77274 0.32513 0.22329
 N200 N 0.74169 0.24676 0.29517
 N201 N 0.72371 0.23852 0.28708
 C202 C 0.71714 0.22232 0.30000
 C203 C 0.73172 0.22008 0.31711
 C204 C 0.74706 0.23596 0.31350
 H205 H 0.70300 0.21256 0.29687
 H206 H 0.76144 0.23901 0.32310
 H207 H 0.72641 0.27615 0.27003
 H208 H 0.74281 0.25560 0.25428
 C209 C 0.25888 -0.01375 0.43795
 C210 C 0.25467 0.00681 0.44744
 C211 C 0.25280 0.00848 0.47012
 C212 C 0.25679 -0.00980 0.48361
 C213 C 0.26153 -0.03018 0.47352
 C214 C 0.26206 -0.03235 0.45081
 C215 C 0.25684 -0.00740 0.50798
 C216 C 0.25412 -0.02570 0.52156
 C217 C 0.25580 -0.02371 0.54428
 C218 C 0.25858 -0.00292 0.55366
 C219 C 0.26062 0.01563 0.54066
 C220 C 0.26038 0.01318 0.51799
 H221 H 0.25941 -0.01531 0.42041
 H222 H 0.24874 0.02431 0.47705
 H223 H 0.26551 -0.04447 0.48307
 H224 H 0.25115 -0.04172 0.51467
 H225 H 0.25887 -0.00114 0.57119
 H226 H 0.26361 0.02747 0.50841
 C227 C 0.74664 0.01053 0.55984
 C228 C 0.75083 0.03021 0.54925
 C229 C 0.75126 0.03042 0.52644
 C230 C 0.74621 0.01156 0.51402
 C231 C 0.74139 -0.00782 0.52523
 C232 C 0.74230 -0.00863 0.54800
 C233 C 0.74595 0.01204 0.48959
 C234 C 0.74864 -0.00742 0.47723
 C235 C 0.74754 -0.00726 0.45444
 C236 C 0.74518 0.01281 0.44375
 C237 C 0.74326 0.03250 0.45551
 C238 C 0.74294 0.03193 0.47831
 H239 H 0.74615 0.01019 0.57743
 H240 H 0.75587 0.04539 0.51861
 H241 H 0.73709 -0.02255 0.51646
 H242 H 0.75194 -0.02289 0.48507
 H243 H 0.74425 0.01309 0.42617
 H244 H 0.74050 0.04718 0.48706
 C245 C 0.43124 0.25496 -0.00089
 C246 C 0.44249 0.25783 0.01879
 C247 C 0.46522 0.25822 0.01873
 C248 C 0.47692 0.25462 -0.00058
 C249 C 0.46514 0.25093 -0.01998
 C250 C 0.44241 0.25184 -0.02042
 C251 C 0.50122 0.25518 -0.00060
 C252 C 0.51252 0.26042 -0.01964
 C253 C 0.53522 0.26089 -0.01984
 C254 C 0.54679 0.25705 -0.00054
 C255 C 0.53603 0.25237 0.01876
 C256 C 0.51338 0.25089 0.01849
 H257 H 0.41371 0.25531 -0.00102
 H258 H 0.47355 0.26190 0.03381
 H259 H 0.47348 0.24717 -0.03495
 H260 H 0.50386 0.26473 -0.03438
 H261 H 0.56429 0.25787 -0.00049
 H262 H 0.50545 0.24614 0.03325
 C263 C 0.56645 0.73705 -0.00145
 C264 C 0.55573 0.73198 0.01786
 C265 C 0.53316 0.72919 0.01720
 C266 C 0.52102 0.73295 -0.00198
 C267 C 0.53223 0.73874 -0.02084
 C268 C 0.55490 0.73979 -0.02100
 C269 C 0.49685 0.73069 -0.00243
 C270 C 0.48574 0.72605 -0.02205
 C271 C 0.46308 0.72491 -0.02286
 C272 C 0.45137 0.72711 -0.00357
 C273 C 0.46198 0.73104 0.01630
 C274 C 0.48458 0.73334 0.01666
 H275 H 0.58386 0.73867 -0.00138
 H276 H 0.52520 0.72366 0.03165
 H277 H 0.52349 0.74258 -0.03565
 H278 H 0.49455 0.72298 -0.03687
 H279 H 0.43391 0.72582 -0.00402
 H280 H 0.49234 0.73766 0.03189
 C281 C 0.00105 0.44497 0.25336
 C282 C 0.01969 0.45738 0.25679
 C283 C 0.01819 0.48031 0.25550
 C284 C -0.00150 0.49095 0.24993
 C285 C -0.01988 0.47799 0.24600
 C286 C -0.01889 0.45513 0.24840
 C287 C -0.00303 0.51548 0.24916
 C288 C -0.02265 0.52650 0.25401
 C289 C -0.02412 0.54945 0.25402
 C290 C -0.00562 0.56161 0.24975
 C291 C 0.01427 0.55115 0.24540
 C292 C 0.01527 0.52813 0.24452
 H293 H 0.00206 0.42727 0.25431
 H294 H 0.03236 0.48974 0.25955
 H295 H -0.03520 0.48559 0.24158
 H296 H -0.03677 0.51743 0.25858
 H297 H -0.00678 0.57935 0.24966
 H298 H 0.03053 0.52017 0.24068
 C299 C 0.00022 0.56493 0.75738
 C300 C 0.01943 0.55330 0.76204
 C301 C 0.01899 0.53038 0.76348
 C302 C -0.00026 0.51887 0.75947
 C303 C -0.01931 0.53096 0.75452
 C304 C -0.01932 0.55398 0.75389
 C305 C -0.00045 0.49435 0.76027
 C306 C -0.01937 0.48327 0.76599
 C307 C -0.02003 0.46029 0.76584
 C308 C -0.00115 0.44822 0.76104
 C309 C 0.01810 0.45880 0.75591
 C310 C 0.01819 0.48179 0.75507
 H311 H 0.00064 0.58259 0.75583
 H312 H 0.03371 0.52168 0.76803
 H313 H -0.03426 0.52256 0.75117
 H314 H -0.03371 0.49241 0.77079
 H315 H -0.00158 0.43048 0.76057
 H316 H 0.03291 0.48979 0.75041
 C317 C 0.35290 0.26434 0.15509
 C318 C 0.35771 0.25101 0.17307
 C319 C 0.34404 0.25094 0.19103
 C320 C 0.32530 0.26429 0.19149
 C321 C 0.32058 0.27773 0.17358
 C322 C 0.33418 0.27771 0.15559
 C323 C 0.36712 0.26406 0.13574
 C324 C 0.37114 0.28347 0.12441
 C325 C 0.38402 0.28308 0.10586
 C326 C 0.39326 0.26330 0.09828
 C327 C 0.38945 0.24394 0.10971
 C328 C 0.37650 0.24431 0.12820
 C329 C 0.40643 0.26273 0.07824
 C330 C 0.42549 0.24991 0.07717
 C331 C 0.43742 0.24871 0.05802
 C332 C 0.43049 0.26021 0.03948
 C333 C 0.41161 0.27331 0.04064
 C334 C 0.39973 0.27458 0.05983
 H335 H 0.37218 0.24078 0.17335
 H336 H 0.34831 0.24058 0.20463
 H337 H 0.30615 0.28799 0.17321
 H338 H 0.32977 0.28788 0.14187
 H339 H 0.36446 0.29902 0.12997
 H340 H 0.38691 0.29830 0.09754
 H341 H 0.39606 0.22840 0.10405
 H342 H 0.37342 0.22902 0.13629
 H343 H 0.43116 0.24077 0.09117
 H344 H 0.45181 0.23836 0.05754
 H345 H 0.40599 0.28253 0.02669
 H346 H 0.38500 0.28443 0.06010
 C347 C 0.64311 0.72960 0.15830
 C348 C 0.64833 0.74968 0.16829
 C349 C 0.66064 0.75029 0.18745
 C350 C 0.66858 0.73083 0.19699
 C351 C 0.66339 0.71072 0.18690
 C352 C 0.65071 0.71013 0.16797
 C353 C 0.62987 0.72902 0.13790
 C354 C 0.63345 0.71269 0.12198
 C355 C 0.62104 0.71224 0.10286
 C356 C 0.60497 0.72834 0.09890
 C357 C 0.60150 0.74474 0.11477
 C358 C 0.61360 0.74494 0.13405
 C359 C 0.59207 0.72828 0.07827
 C360 C 0.57046 0.73591 0.07791
 C361 C 0.55870 0.73691 0.05843
 C362 C 0.56804 0.72988 0.03876
 C363 C 0.58943 0.72160 0.03921
 C364 C 0.60134 0.72103 0.05864
 H365 H 0.64323 0.76507 0.16113
 H366 H 0.66428 0.76619 0.19432
 H367 H 0.66871 0.69526 0.19370
 H368 H 0.64666 0.69431 0.16109
 H369 H 0.64604 0.70035 0.12412
 H370 H 0.62404 0.69915 0.09124
 H371 H 0.58962 0.75770 0.11223
 H372 H 0.61007 0.75759 0.14599
 H373 H 0.56253 0.74120 0.09270
 H374 H 0.54240 0.74365 0.05878
 H375 H 0.59708 0.71558 0.02455
 H376 H 0.61799 0.71529 0.05811
 C377 C 0.63417 0.27103 -0.14767
 C378 C 0.63224 0.25853 -0.16685
 C379 C 0.64902 0.25779 -0.18193
 C380 C 0.66816 0.26948 -0.17816
 C381 C 0.66991 0.28220 -0.15907
 C382 C 0.65314 0.28296 -0.14403
 C383 C 0.61688 0.27106 -0.13108
 C384 C 0.61127 0.29042 -0.11978
 C385 C 0.59621 0.29009 -0.10301
 C386 C 0.58641 0.27040 -0.09717
 C387 C 0.59149 0.25118 -0.10894
 C388 C 0.60656 0.25151 -0.12571
 C389 C 0.57203 0.26958 -0.07803
 C390 C 0.55344 0.25658 -0.07836
 C391 C 0.54103 0.25438 -0.05966
 C392 C 0.54701 0.26505 -0.04023
 C393 C 0.56515 0.27865 -0.04013
 C394 C 0.57751 0.28089 -0.05881
 H395 H 0.61770 0.24937 -0.17024
 H396 H 0.64690 0.24797 -0.19649
 H397 H 0.68436 0.29133 -0.15541
 H398 H 0.65527 0.29247 -0.12925
 H399 H 0.61866 0.30581 -0.12381
 H400 H 0.59236 0.30523 -0.09447
 H401 H 0.58446 0.23570 -0.10463
 H402 H 0.61075 0.23627 -0.13390
 H403 H 0.54868 0.24787 -0.09301
 H404 H 0.52719 0.24371 -0.06018
 H405 H 0.56999 0.28729 -0.02547
 H406 H 0.59183 0.29088 -0.05797
 C407 C 0.37154 0.72086 -0.15928
 C408 C 0.35323 0.70750 -0.15941
 C409 C 0.33832 0.70834 -0.17659
 C410 C 0.34128 0.72262 -0.19406
 C411 C 0.35970 0.73585 -0.19405
 C412 C 0.37468 0.73496 -0.17687
 C413 C 0.38690 0.72048 -0.14055
 C414 C 0.39571 0.74004 -0.13240
 C415 C 0.40927 0.73984 -0.11410
 C416 C 0.41428 0.72009 -0.10347
 C417 C 0.40580 0.70048 -0.11182
 C418 C 0.39230 0.70067 -0.13017
 C419 C 0.42768 0.72013 -0.08332
 C420 C 0.42180 0.70745 -0.06543
 C421 C 0.43358 0.70855 -0.04596
 C422 C 0.45154 0.72230 -0.04398
 C423 C 0.45776 0.73452 -0.06206
 C424 C 0.44594 0.73348 -0.08150
 H425 H 0.35012 0.69674 -0.14595
 H426 H 0.32425 0.69807 -0.17584
 H427 H 0.36266 0.74685 -0.20734
 H428 H 0.38879 0.74522 -0.17742
 H429 H 0.39160 0.75561 -0.13978
 H430 H 0.41530 0.75526 -0.10786
 H431 H 0.40965 0.68498 -0.10416
 H432 H 0.38609 0.68527 -0.13625
 H433 H 0.40770 0.69715 -0.06628
 H434 H 0.42852 0.69880 -0.03237
 H435 H 0.47140 0.74542 -0.06096
 H436 H 0.45099 0.74325 -0.09508
 C437 C 0.15672 0.36781 0.27633
 C438 C 0.17565 0.37141 0.26450
 C439 C 0.19269 0.35608 0.26483
 C440 C 0.19120 0.33679 0.27699
 C441 C 0.17252 0.33351 0.28932
 C442 C 0.15547 0.34883 0.28896
 C443 C 0.13796 0.38326 0.27475
 C444 C 0.12537 0.38833 0.29307
 C445 C 0.10691 0.40174 0.29120
 C446 C 0.10065 0.41040 0.27098
 C447 C 0.11352 0.40573 0.25276
 C448 C 0.13195 0.39232 0.25463
 C449 C 0.08029 0.42344 0.26859
 C450 C 0.07933 0.44184 0.25502
 C451 C 0.05977 0.45316 0.25160
 C452 C 0.04074 0.44631 0.26164
 C453 C 0.04182 0.42828 0.27567
 C454 C 0.06138 0.41697 0.27911
 H455 H 0.17726 0.38607 0.25492
 H456 H 0.20695 0.35937 0.25543
 H457 H 0.17069 0.31883 0.29878
 H458 H 0.14101 0.34543 0.29804
 H459 H 0.12978 0.38188 0.30886
 H460 H 0.09749 0.40530 0.30558
 H461 H 0.10892 0.41184 0.23689
 H462 H 0.14109 0.38845 0.24014
 H463 H 0.09369 0.44736 0.24690
 H464 H 0.05942 0.46691 0.24060
 H465 H 0.02748 0.42279 0.28386
 H466 H 0.06155 0.40276 0.28951
 C467 C 0.15341 0.64458 0.75595
 C468 C 0.15240 0.66159 0.74076
 C469 C 0.17034 0.67464 0.73715
 C470 C 0.18993 0.67103 0.74860
 C471 C 0.19086 0.65388 0.76381
 C472 C 0.17284 0.64088 0.76743
 C473 C 0.13428 0.63068 0.75958
 C474 C 0.13672 0.60793 0.76238
 C475 C 0.11860 0.59476 0.76480
 C476 C 0.09763 0.60405 0.76445
 C477 C 0.09524 0.62685 0.76207
 C478 C 0.11334 0.64000 0.75971
 C479 C 0.07825 0.59003 0.76558
 C480 C 0.05978 0.59719 0.77694
 C481 C 0.04088 0.58493 0.77636
 C482 C 0.04007 0.56518 0.76449
 C483 C 0.05876 0.55756 0.75384
 C484 C 0.07763 0.56988 0.75433
 H485 H 0.13777 0.66464 0.73136
 H486 H 0.16866 0.68742 0.72520
 H487 H 0.20538 0.65038 0.77316
 H488 H 0.17406 0.62806 0.77945
 H489 H 0.15262 0.60021 0.76216
 H490 H 0.12100 0.57728 0.76683
 H491 H 0.07932 0.63451 0.76146
 H492 H 0.11091 0.65750 0.75790
 H493 H 0.05986 0.61242 0.78612
 H494 H 0.02679 0.59101 0.78499
 H495 H 0.05850 0.54252 0.74437
 H496 H 0.09147 0.56403 0.74517
 C497 C -0.16219 0.63671 0.27722
 C498 C -0.16247 0.65427 0.29208
 C499 C -0.18065 0.66803 0.29380
 C500 C -0.19906 0.66476 0.28051
 C501 C -0.19882 0.64678 0.26590
 C502 C -0.18065 0.63290 0.26437
 C503 C -0.14235 0.62299 0.27460
 C504 C -0.14345 0.60005 0.27300
 C505 C -0.12456 0.58731 0.27052
 C506 C -0.10424 0.59731 0.26943
 C507 C -0.10327 0.62028 0.27086
 C508 C -0.12207 0.63295 0.27347
 C509 C -0.08405 0.58405 0.26650
 C510 C -0.06477 0.59027 0.27704
 C511 C -0.04541 0.57886 0.27319
 C512 C -0.04491 0.56082 0.25888
 C513 C -0.06426 0.55409 0.24888
 C514 C -0.08363 0.56563 0.25259
 H515 H -0.14852 0.65743 0.30238
 H516 H -0.17987 0.68145 0.30535
 H517 H -0.21254 0.64332 0.25546
 H518 H -0.18081 0.61953 0.25268
 H519 H -0.15888 0.59195 0.27397
 H520 H -0.12585 0.56965 0.26973
 H521 H -0.08798 0.62856 0.26956
 H522 H -0.12080 0.65062 0.27419
 H523 H -0.06461 0.60404 0.28826
 H524 H -0.03080 0.58413 0.28142
 H525 H -0.06425 0.54029 0.23768
 H526 H -0.09813 0.56052 0.24405
 C527 C -0.15153 0.36575 0.76786
 C528 C -0.16672 0.36361 0.78447
 C529 C -0.18300 0.34799 0.78280
 C530 C -0.18441 0.33396 0.76450
 C531 C -0.16908 0.33629 0.74789
 C532 C -0.15293 0.35195 0.74957
 C533 C -0.13401 0.38203 0.76960
 C534 C -0.12813 0.39418 0.75138
 C535 C -0.11072 0.40844 0.75250
 C536 C -0.09875 0.41090 0.77188
 C537 C -0.10496 0.39917 0.79029
 C538 C -0.12246 0.38492 0.78918
 C539 C -0.07921 0.42474 0.77239
 C540 C -0.06013 0.41737 0.78279
 C541 C -0.04108 0.42929 0.78135
 C542 C -0.04069 0.44883 0.76947
 C543 C -0.05999 0.45665 0.75982
 C544 C -0.07903 0.44475 0.76127
 H545 H -0.16614 0.37418 0.79869
 H546 H -0.19431 0.34699 0.79602
 H547 H -0.16930 0.32607 0.73347
 H548 H -0.14125 0.35300 0.73663
 H549 H -0.13690 0.39249 0.73615
 H550 H -0.10620 0.41703 0.73796
 H551 H -0.09617 0.40088 0.80550
 H552 H -0.12653 0.37566 0.80344
 H553 H -0.05970 0.40194 0.79133
 H554 H -0.02653 0.42300 0.78920
 H555 H -0.06019 0.47156 0.75041
 H556 H -0.09355 0.45100 0.75334
 C557 C 0.25711 0.14415 0.35714
 C558 C 0.24220 0.16156 0.35970
 C559 C 0.24316 0.18006 0.34652
 C560 C 0.25905 0.18158 0.33039
 C561 C 0.27399 0.16413 0.32792
 C562 C 0.27302 0.14566 0.34110
 C563 C 0.25610 0.12442 0.37103
 C564 C 0.27522 0.11437 0.37884
 C565 C 0.27440 0.09541 0.39131
 C566 C 0.25444 0.08603 0.39627
 C567 C 0.23528 0.09628 0.38881
 C568 C 0.23610 0.11527 0.37631
 C569 C 0.25376 0.06546 0.40893
 C570 C 0.23830 0.06268 0.42525
 C571 C 0.23828 0.04352 0.43757
 C572 C 0.25364 0.02671 0.43373
 C573 C 0.26881 0.02938 0.41714
 C574 C 0.26886 0.04850 0.40489
 H575 H 0.22990 0.16100 0.37209
 H576 H 0.23136 0.19307 0.34905
 H577 H 0.28647 0.16454 0.31575
 H578 H 0.28456 0.13238 0.33849
 H579 H 0.29086 0.12127 0.37545
 H580 H 0.28942 0.08816 0.39720
 H581 H 0.21967 0.08932 0.39221
 H582 H 0.22109 0.12249 0.37033
 H583 H 0.22653 0.07552 0.42879
 H584 H 0.22627 0.04186 0.45011
 H585 H 0.28101 0.01686 0.41395
 H586 H 0.28076 0.05000 0.39222
 C587 C 0.75048 0.16055 0.65078
 C588 C 0.73206 0.16273 0.66387
 C589 C 0.73066 0.17926 0.67968
 C590 C 0.74768 0.19403 0.68282
 C591 C 0.76607 0.19188 0.66961
 C592 C 0.76745 0.17534 0.65381
 C593 C 0.75205 0.14274 0.63423
 C594 C 0.77158 0.13101 0.63125
 C595 C 0.77281 0.11370 0.61625
 C596 C 0.75455 0.10777 0.60386
 C597 C 0.73513 0.11977 0.60658
 C598 C 0.73390 0.13705 0.62158
 C599 C 0.75538 0.08856 0.58887
 C600 C 0.74440 0.08905 0.56876
 C601 C 0.74361 0.07033 0.55553
 C602 C 0.75379 0.05069 0.56212
 C603 C 0.76549 0.05045 0.58182
 C604 C 0.76626 0.06916 0.59505
 H605 H 0.71882 0.15140 0.66214
 H606 H 0.71621 0.18034 0.68940
 H607 H 0.77955 0.20284 0.67146
 H608 H 0.78176 0.17424 0.64382
 H609 H 0.78580 0.13487 0.64088
 H610 H 0.78804 0.10490 0.61439
 H611 H 0.72070 0.11544 0.59750
 H612 H 0.71871 0.14595 0.62330
 H613 H 0.73613 0.10385 0.56340
 H614 H 0.73434 0.07101 0.54053
 H615 H 0.77374 0.03565 0.58720
 H616 H 0.77474 0.06819 0.61049
 C617 C 0.26166 -0.15624 0.64162
 C618 C 0.24713 -0.17366 0.63983
 C619 C 0.24825 -0.19109 0.65440
 C620 C 0.26393 -0.19154 0.67113
 C621 C 0.27851 -0.17414 0.67284
 C622 C 0.27738 -0.15671 0.65828
 C623 C 0.26039 -0.13757 0.62629
 C624 C 0.27938 -0.12816 0.61847
 C625 C 0.27827 -0.11012 0.60469
 C626 C 0.25816 -0.10104 0.59836
 C627 C 0.23915 -0.11069 0.60581
 C628 C 0.24025 -0.12874 0.61964
 C629 C 0.25715 -0.08120 0.58455
 C630 C 0.24190 -0.07925 0.56753
 C631 C 0.24127 -0.06057 0.55448
 C632 C 0.25580 -0.04342 0.55829
 C633 C 0.27091 -0.04536 0.57541
 C634 C 0.27157 -0.06399 0.58837
 H635 H 0.23504 -0.17395 0.62698
 H636 H 0.23690 -0.20428 0.65236
 H637 H 0.29066 -0.17372 0.68561
 H638 H 0.28860 -0.14338 0.66032
 H639 H 0.29513 -0.13483 0.62292
 H640 H 0.29321 -0.10331 0.59889
 H641 H 0.22342 -0.10390 0.60141
 H642 H 0.22533 -0.13544 0.62559
 H643 H 0.23067 -0.09232 0.56411
 H644 H 0.22936 -0.05948 0.54150
 H645 H 0.28250 -0.03256 0.57859
 H646 H 0.28332 -0.06487 0.60152
 C647 C 0.74039 -0.14412 0.36118
 C648 C 0.75643 -0.16068 0.36182
 C649 C 0.75471 -0.17936 0.34863
 C650 C 0.73697 -0.18185 0.33440
 C651 C 0.72104 -0.16518 0.33359
 C652 C 0.72269 -0.14655 0.34688
 C653 C 0.74205 -0.12444 0.37546
 C654 C 0.72369 -0.11592 0.38610
 C655 C 0.72523 -0.09738 0.39950
 C656 C 0.74514 -0.08689 0.40251
 C657 C 0.76351 -0.09546 0.39195
 C658 C 0.76199 -0.11404 0.37860
 C659 C 0.74663 -0.06687 0.41635
 C660 C 0.75895 -0.04900 0.40973
 C661 C 0.75964 -0.02982 0.42229
 C662 C 0.74807 -0.02810 0.44179
 C663 C 0.73611 -0.04615 0.44863
 C664 C 0.73538 -0.06530 0.43604
 H665 H 0.77019 -0.15934 0.37276
 H666 H 0.76739 -0.19176 0.34953
 H667 H 0.70710 -0.16661 0.32291
 H668 H 0.71020 -0.13395 0.34584
 H669 H 0.70815 -0.12372 0.38421
 H670 H 0.71073 -0.09105 0.40726
 H671 H 0.77912 -0.08786 0.39413
 H672 H 0.77639 -0.12011 0.37049
 H673 H 0.76767 -0.04964 0.39455
 H674 H 0.76915 -0.01626 0.41670
 H675 H 0.72685 -0.04524 0.46347
 H676 H 0.72597 -0.07889 0.44171
 C677 C 0.64287 0.74078 -0.15832
 C678 C 0.65695 0.72286 -0.16202
 C679 C 0.66992 0.72197 -0.18048
 C680 C 0.66914 0.73899 -0.19573
 C681 C 0.65500 0.75692 -0.19199
 C682 C 0.64204 0.75779 -0.17351
 C683 C 0.62912 0.74169 -0.13866
 C684 C 0.62612 0.76145 -0.12706
 C685 C 0.61342 0.76219 -0.10838
 C686 C 0.60340 0.74320 -0.10093
 C687 C 0.60631 0.72349 -0.11262
 C688 C 0.61901 0.72274 -0.13126
 C689 C 0.59022 0.74374 -0.08086
 C690 C 0.57108 0.73170 -0.07978
 C691 C 0.55940 0.73097 -0.06053
 C692 C 0.56649 0.74234 -0.04186
 C693 C 0.58529 0.75493 -0.04311
 C694 C 0.59703 0.75563 -0.06241
 H695 H 0.65818 0.70961 -0.15047
 H696 H 0.68055 0.70790 -0.18268
 H697 H 0.65384 0.77037 -0.20325
 H698 H 0.63115 0.77169 -0.17126
 H699 H 0.63385 0.77628 -0.13225
 H700 H 0.61132 0.77767 -0.09985
 H701 H 0.59902 0.70851 -0.10717
 H702 H 0.62078 0.70733 -0.13998
 H703 H 0.56522 0.72265 -0.09380
 H704 H 0.54514 0.72090 -0.06008
 H705 H 0.59105 0.76408 -0.02911
 H706 H 0.61180 0.76494 -0.06268
 C707 C 0.35240 0.25816 -0.15806
 C708 C 0.35220 0.24140 -0.17384
 C709 C 0.33895 0.24316 -0.19229
 C710 C 0.32553 0.26173 -0.19541
 C711 C 0.32579 0.27853 -0.17961
 C712 C 0.33906 0.27676 -0.16117
 C713 C 0.36643 0.25627 -0.13842
 C714 C 0.37757 0.27457 -0.13034
 C715 C 0.39055 0.27289 -0.11169
 C716 C 0.39268 0.25289 -0.10067
 C717 C 0.38165 0.23455 -0.10882
 C718 C 0.36869 0.23621 -0.12750
 C719 C 0.40606 0.25136 -0.08055
 C720 C 0.39881 0.23958 -0.06257
 C721 C 0.41083 0.23924 -0.04321
 C722 C 0.43038 0.25063 -0.04141
 C723 C 0.43786 0.26195 -0.05958
 C724 C 0.42586 0.26230 -0.07891
 H725 H 0.36249 0.22699 -0.17205
 H726 H 0.33923 0.22985 -0.20400
 H727 H 0.31583 0.29313 -0.18141
 H728 H 0.33866 0.28985 -0.14917
 H729 H 0.37638 0.29018 -0.13852
 H730 H 0.39863 0.28739 -0.10569
 H731 H 0.38312 0.21887 -0.10080
 H732 H 0.36017 0.22187 -0.13322
 H733 H 0.38354 0.23113 -0.06327
 H734 H 0.40474 0.23020 -0.02957
 H735 H 0.45273 0.27110 -0.05865
 H736 H 0.43201 0.27127 -0.09256
 C737 C 0.36736 0.72673 0.14871
 C738 C 0.35372 0.70866 0.15075
 C739 C 0.33921 0.70758 0.16797
 C740 C 0.33807 0.72450 0.18360
 C741 C 0.35190 0.74244 0.18165
 C742 C 0.36634 0.74355 0.16439
 C743 C 0.38234 0.72820 0.13010
 C744 C 0.38481 0.74814 0.11923
 C745 C 0.39852 0.74945 0.10139
 C746 C 0.41012 0.73087 0.09406
 C747 C 0.40784 0.71098 0.10509
 C748 C 0.39407 0.70965 0.12289
 C749 C 0.42403 0.73202 0.07460
 C750 C 0.44424 0.72113 0.07410
 C751 C 0.45682 0.72133 0.05536
 C752 C 0.44941 0.73233 0.03670
 C753 C 0.42943 0.74362 0.03736
 C754 C 0.41689 0.74349 0.05612
 H755 H 0.35398 0.69554 0.13878
 H756 H 0.32894 0.69344 0.16901
 H757 H 0.35146 0.75585 0.19325
 H758 H 0.37681 0.75756 0.16339
 H759 H 0.37583 0.76266 0.12427
 H760 H 0.40009 0.76504 0.09333
 H761 H 0.41638 0.69632 0.09968
 H762 H 0.39266 0.69411 0.13107
 H763 H 0.45027 0.71236 0.08818
 H764 H 0.47208 0.71234 0.05525
 H765 H 0.42341 0.75243 0.02330
 H766 H 0.40131 0.75188 0.05594
 C767 C 0.63539 0.25919 0.14906
 C768 C 0.64864 0.27767 0.15055
 C769 C 0.66374 0.27975 0.16750
 C770 C 0.66585 0.26343 0.18338
 C771 C 0.65254 0.24498 0.18186
 C772 C 0.63752 0.24288 0.16490
 C773 C 0.61949 0.25684 0.13099
 C774 C 0.61682 0.23652 0.12044
 C775 C 0.60212 0.23439 0.10317
 C776 C 0.58973 0.25252 0.09612
 C777 C 0.59221 0.27278 0.10685
 C778 C 0.60695 0.27492 0.12407
 C779 C 0.57496 0.25062 0.07705
 C780 C 0.55464 0.26132 0.07692
 C781 C 0.54156 0.26107 0.05827
 C782 C 0.54857 0.25018 0.03933
 C783 C 0.56850 0.23875 0.03974
 C784 C 0.58154 0.23896 0.05840
 H785 H 0.64753 0.29039 0.13843
 H786 H 0.67362 0.29422 0.16817
 H787 H 0.65376 0.23197 0.19363
 H788 H 0.62738 0.22856 0.16431
 H789 H 0.62640 0.22234 0.12527
 H790 H 0.60045 0.21854 0.09532
 H791 H 0.58309 0.28711 0.10161
 H792 H 0.60848 0.29072 0.13205
 H793 H 0.54902 0.27019 0.09116
 H794 H 0.52635 0.27014 0.05837
 H795 H 0.57420 0.23002 0.02546
 H796 H 0.59716 0.23068 0.05795
 C797 C -0.15551 0.64437 0.72896
 C798 C -0.15643 0.66131 0.71373
 C799 C -0.17471 0.67500 0.71213
 C800 C -0.19257 0.67224 0.72590
 C801 C -0.19163 0.65494 0.74094
 C802 C -0.17338 0.64116 0.74237
 C803 C -0.13566 0.63060 0.73138
 C804 C -0.13697 0.60777 0.73370
 C805 C -0.11819 0.59497 0.73664
 C806 C -0.09780 0.60482 0.73760
 C807 C -0.09651 0.62762 0.73510
 C808 C -0.11523 0.64036 0.73192
 C809 C -0.07791 0.59154 0.74179
 C810 C -0.06245 0.59884 0.75695
 C811 C -0.04362 0.58655 0.76094
 C812 C -0.03965 0.56674 0.74971
 C813 C -0.05520 0.55937 0.73458
 C814 C -0.07420 0.57160 0.73075
 H815 H -0.14295 0.66398 0.70300
 H816 H -0.17449 0.68787 0.70021
 H817 H -0.20483 0.65193 0.75184
 H818 H -0.17303 0.62831 0.75439
 H819 H -0.15252 0.59982 0.73320
 H820 H -0.11964 0.57745 0.73865
 H821 H -0.08098 0.63561 0.73558
 H822 H -0.11377 0.65794 0.73038
 H823 H -0.06508 0.61397 0.76596
 H824 H -0.03225 0.59248 0.77305
 H825 H -0.05254 0.54436 0.72542
 H826 H -0.08579 0.56570 0.71883
 C827 C -0.15317 0.36294 0.24823
 C828 C -0.15387 0.34716 0.26464
 C829 C -0.17120 0.33287 0.26589
 C830 C -0.18838 0.33394 0.25076
 C831 C -0.18759 0.34962 0.23416
 C832 C -0.17014 0.36393 0.23289
 C833 C -0.13469 0.37819 0.24732
 C834 C -0.12499 0.38323 0.22745
 C835 C -0.10664 0.39642 0.22698
 C836 C -0.09767 0.40479 0.24636
 C837 C -0.10785 0.40035 0.26611
 C838 C -0.12612 0.38722 0.26658
 C839 C -0.07735 0.41747 0.24626
 C840 C -0.06135 0.41356 0.26219
 C841 C -0.04236 0.42562 0.26261
 C842 C -0.03885 0.44189 0.24710
 C843 C -0.05473 0.44571 0.23100
 C844 C -0.07378 0.43354 0.23053
 H845 H -0.14083 0.34568 0.27645
 H846 H -0.17094 0.32095 0.27877
 H847 H -0.20048 0.35105 0.22223
 H848 H -0.17012 0.37603 0.22013
 H849 H -0.13114 0.37640 0.21236
 H850 H -0.09906 0.39945 0.21154
 H851 H -0.10162 0.40698 0.28126
 H852 H -0.13352 0.38406 0.28209
 H853 H -0.06347 0.40107 0.27433
 H854 H -0.03056 0.42247 0.27538
 H855 H -0.05240 0.45805 0.21875
 H856 H -0.08587 0.43697 0.21812
 C857 C 0.15249 0.36612 0.72972
 C858 C 0.15185 0.34868 0.71466
 C859 C 0.16950 0.33419 0.71259
 C860 C 0.18818 0.33682 0.72554
 C861 C 0.18901 0.35467 0.74012
 C862 C 0.17138 0.36912 0.74219
 C863 C 0.13326 0.38065 0.73306
 C864 C 0.12721 0.38698 0.75418
 C865 C 0.10881 0.40009 0.75757
 C866 C 0.09600 0.40721 0.73995
 C867 C 0.10219 0.40116 0.71878
 C868 C 0.12060 0.38795 0.71537
 C869 C 0.07603 0.42048 0.74379
 C870 C 0.07062 0.43842 0.73053
 C871 C 0.05186 0.45094 0.73443
 C872 C 0.03808 0.44569 0.75159
 C873 C 0.04350 0.42772 0.76478
 C874 C 0.06223 0.41528 0.76094
 H875 H 0.13744 0.34583 0.70495
 H876 H 0.16823 0.32064 0.70122
 H877 H 0.20324 0.35755 0.75005
 H878 H 0.17254 0.38266 0.75362
 H879 H 0.13647 0.38144 0.76816
 H880 H 0.10462 0.40469 0.77405
 H881 H 0.09256 0.40629 0.70488
 H882 H 0.12497 0.38351 0.69890
 H883 H 0.08105 0.44294 0.71732
 H884 H 0.04802 0.46459 0.72388
 H885 H 0.03333 0.42342 0.77827
 H886 H 0.06583 0.40142 0.77129
 C887 C 0.15020 0.64069 0.24211
 C888 C 0.15101 0.65798 0.25732
 C889 C 0.16968 0.67037 0.25985
 C890 C 0.18810 0.66582 0.24726
 C891 C 0.18732 0.64848 0.23205
 C892 C 0.16860 0.63603 0.22953
 C893 C 0.13024 0.62755 0.23971
 C894 C 0.13143 0.60462 0.23725
 C895 C 0.11255 0.59222 0.23661
 C896 C 0.09211 0.60249 0.23844
 C897 C 0.09094 0.62546 0.24014
 C898 C 0.10975 0.63783 0.24074
 C899 C 0.07212 0.58937 0.23971
 C900 C 0.05620 0.59499 0.25499
 C901 C 0.03750 0.58264 0.25666
 C902 C 0.03414 0.56437 0.24303
 C903 C 0.05007 0.55869 0.22771
 C904 C 0.06890 0.57105 0.22610
 H905 H 0.13726 0.66179 0.26752
 H906 H 0.16951 0.68360 0.27166
 H907 H 0.20118 0.64438 0.22213
 H908 H 0.16844 0.62291 0.21757
 H909 H 0.14696 0.59619 0.23661
 H910 H 0.11397 0.57454 0.23548
 H911 H 0.07541 0.63388 0.24116
 H912 H 0.10826 0.65549 0.24213
 H913 H 0.05841 0.60872 0.26602
 H914 H 0.02584 0.58716 0.26900
 H915 H 0.04789 0.54484 0.21684
 H916 H 0.08083 0.56644 0.21406
 C917 C 0.72727 -0.15035 0.62927
 C918 C 0.71295 -0.15063 0.64683
 C919 C 0.71229 -0.16878 0.66047
 C920 C 0.72594 -0.18710 0.65687
 C921 C 0.73983 -0.18702 0.63891
 C922 C 0.74050 -0.16886 0.62528
 C923 C 0.72903 -0.13044 0.61577
 C924 C 0.74945 -0.12295 0.60962
 C925 C 0.75129 -0.10352 0.59803
 C926 C 0.73276 -0.09115 0.59230
 C927 C 0.71230 -0.09888 0.59801
 C928 C 0.71046 -0.11830 0.60966
 C929 C 0.73487 -0.06996 0.58098
 C930 C 0.72074 -0.06414 0.56388
 C931 C 0.72299 -0.04419 0.55319
 C932 C 0.73934 -0.02962 0.55950
 C933 C 0.75331 -0.03538 0.57673
 C934 C 0.75111 -0.05530 0.58734
 H935 H 0.70273 -0.13652 0.65046
 H936 H 0.70143 -0.16808 0.67413
 H937 H 0.75034 -0.20091 0.63536
 H938 H 0.75142 -0.16926 0.61164
 H939 H 0.76407 -0.13180 0.61428
 H940 H 0.76725 -0.09812 0.59360
 H941 H 0.69775 -0.08961 0.59394
 H942 H 0.69451 -0.12379 0.61399
 H943 H 0.70813 -0.07516 0.55858
 H944 H 0.71187 -0.04010 0.54008
 H945 H 0.76620 -0.02458 0.58181
 H946 H 0.76203 -0.05918 0.60068
 C947 C 0.27472 -0.17182 0.36306
 C948 C 0.28831 -0.17116 0.34493
 C949 C 0.28839 -0.18816 0.32959
 C950 C 0.27482 -0.20624 0.33194
 C951 C 0.26144 -0.20707 0.35024
 C952 C 0.26140 -0.19006 0.36564
 C953 C 0.27392 -0.15311 0.37870
 C954 C 0.25404 -0.14560 0.38711
 C955 C 0.25307 -0.12701 0.40052
 C956 C 0.27195 -0.11547 0.40577
 C957 C 0.29190 -0.12332 0.39789
 C958 C 0.29288 -0.14196 0.38455
 C959 C 0.27063 -0.09467 0.41842
 C960 C 0.28232 -0.07635 0.41185
 C961 C 0.27993 -0.05626 0.42268
 C962 C 0.26587 -0.05407 0.44039
 C963 C 0.25468 -0.07254 0.44741
 C964 C 0.25696 -0.09262 0.43647
 H965 H 0.29847 -0.15717 0.34223
 H966 H 0.29873 -0.18676 0.31561
 H967 H 0.25098 -0.22086 0.35273
 H968 H 0.25096 -0.19122 0.37959
 H969 H 0.23910 -0.15361 0.38267
 H970 H 0.23743 -0.12118 0.40612
 H971 H 0.30675 -0.11495 0.40194
 H972 H 0.30850 -0.14758 0.37869
 H973 H 0.29281 -0.07737 0.39787
 H974 H 0.28892 -0.04235 0.41708
 H975 H 0.24366 -0.07127 0.46094
 H976 H 0.24790 -0.10652 0.44200
 C977 C 0.73319 0.16990 0.36606
 C978 C 0.71761 0.16959 0.34931
 C979 C 0.71689 0.18606 0.33371
 C980 C 0.73175 0.20328 0.33445
 C981 C 0.74702 0.20386 0.35155
 C982 C 0.74774 0.18735 0.36716
 C983 C 0.73482 0.15151 0.38165
 C984 C 0.75516 0.14274 0.38765
 C985 C 0.75670 0.12431 0.40090
 C986 C 0.73796 0.11423 0.40846
 C987 C 0.71763 0.12341 0.40305
 C988 C 0.71608 0.14184 0.38977
 C989 C 0.73958 0.09362 0.42105
 C990 C 0.72596 0.09001 0.43879
 C991 C 0.72717 0.07025 0.45012
 C992 C 0.74193 0.05366 0.44384
 C993 C 0.75562 0.05737 0.42621
 C994 C 0.75446 0.07710 0.41495
 H995 H 0.70636 0.15621 0.34783
 H996 H 0.70493 0.18487 0.32085
 H997 H 0.75856 0.21695 0.35289
 H998 H 0.75973 0.18820 0.38007
 H999 H 0.76988 0.14968 0.38151
 H1000 H 0.77260 0.11779 0.40503
 H1001 H 0.70289 0.11593 0.40849
 H1002 H 0.70019 0.14838 0.38564
 H1003 H 0.71445 0.10252 0.44397
 H1004 H 0.71633 0.06780 0.46357
 H1005 H 0.76735 0.04500 0.42118
 H1006 H 0.76498 0.07925 0.40120
 C1007 C 0.26778 0.15861 0.62320
 C1008 C 0.25429 0.17701 0.61961
 C1009 C 0.25425 0.19469 0.63427
 C1010 C 0.26767 0.19433 0.65287
 C1011 C 0.28130 0.17597 0.65625
 C1012 C 0.28133 0.15837 0.64165
 C1013 C 0.26739 0.13933 0.60829
 C1014 C 0.28664 0.12784 0.60332
 C1015 C 0.28615 0.10857 0.59093
 C1016 C 0.26640 0.10039 0.58313
 C1017 C 0.24721 0.11228 0.58739
 C1018 C 0.24769 0.13154 0.59987
 C1019 C 0.26572 0.07901 0.57149
 C1020 C 0.25226 0.07613 0.55318
 C1021 C 0.25098 0.05566 0.54289
 C1022 C 0.26297 0.03762 0.55082
 C1023 C 0.27666 0.04059 0.56892
 C1024 C 0.27806 0.06107 0.57911
 H1025 H 0.24385 0.17778 0.60540
 H1026 H 0.24370 0.20860 0.63097
 H1027 H 0.29174 0.17485 0.67039
 H1028 H 0.29162 0.14428 0.64512
 H1029 H 0.30212 0.13367 0.60919
 H1030 H 0.30122 0.09996 0.58757
 H1031 H 0.23173 0.10624 0.58177
 H1032 H 0.23256 0.13986 0.60362
 H1033 H 0.24271 0.08971 0.54685
 H1034 H 0.24020 0.05380 0.52904
 H1035 H 0.28625 0.02703 0.57524
 H1036 H 0.28840 0.06274 0.59332
   
