data_POSCAR
  _audit_creation_date              2014-09-24
  _audit_creation_method            'ToBaCCo'
  _symmetry_space_group_name_H-M    'P1'
  _symmetry_Int_Tables_number       1
  _symmetry_cell_setting            triclinic
  loop_
  _symmetry_equiv_pos_as_xyz
 x,y,z
_cell_length_a 50.5574
_cell_length_b 50.5634
_cell_length_c 50.5873
_cell_angle_alpha 90.019200
_cell_angle_beta 90.015800
_cell_angle_gamma 90.021900
loop_
  _atom_site_label
  _atom_site_type_symbol
  _atom_site_fract_x
  _atom_site_fract_y
  _atom_site_fract_z
O1 O 0.35002 0.38693 0.02528
 O2 O 0.38640 0.35070 -0.02634
 O3 O 0.34981 0.38706 -0.02619
 O4 O 0.38649 0.35048 0.02514
 O5 O 0.35558 0.31952 0.02507
 O6 O 0.31895 0.35606 -0.02619
 O7 O 0.35550 0.31973 -0.02635
 O8 O 0.31914 0.35593 0.02523
 Cu9 Cu 0.37130 0.37192 -0.00053
 Cu10 Cu 0.33418 0.33469 -0.00057
 C11 C 0.32841 0.37756 0.03392
 C12 C 0.37711 0.32906 -0.03500
 C13 C 0.32814 0.37776 -0.03480
 C14 C 0.37724 0.32879 0.03373
 O15 O 0.61368 0.64935 -0.02637
 O16 O 0.65007 0.61309 0.02521
 O17 O 0.61365 0.64959 0.02509
 O18 O 0.65021 0.61293 -0.02627
 O19 O 0.68112 0.64389 -0.02628
 O20 O 0.64461 0.68050 0.02501
 O21 O 0.68099 0.64404 0.02514
 O22 O 0.64463 0.68028 -0.02640
 Cu23 Cu 0.62878 0.62811 -0.00058
 Cu24 Cu 0.66596 0.66529 -0.00064
 C25 C 0.62298 0.67097 -0.03503
 C26 C 0.67170 0.62243 0.03384
 C27 C 0.62295 0.67127 0.03368
 C28 C 0.67188 0.62221 -0.03490
 O29 O 0.61340 0.35090 1.02631
 O30 O 0.64984 0.38723 0.97480
 O31 O 0.61336 0.35077 0.97484
 O32 O 0.64994 0.38732 1.02627
 O33 O 0.68081 0.35636 1.02627
 O34 O 0.64428 0.31984 0.97490
 O35 O 0.68072 0.35626 0.97485
 O36 O 0.64431 0.31997 1.02631
 Cu37 Cu 0.62851 0.37218 1.00056
 Cu38 Cu 0.66565 0.33499 1.00059
 C39 C 0.62268 0.32927 1.03495
 C40 C 0.67146 0.37789 0.96618
 C41 C 0.62264 0.32910 0.96622
 C42 C 0.67159 0.37803 1.03491
 O43 O 0.34993 0.61307 0.97501
 O44 O 0.38645 0.64942 1.02650
 O45 O 0.34989 0.61299 1.02648
 O46 O 0.38641 0.64954 0.97503
 O47 O 0.35549 0.68046 0.97512
 O48 O 0.31901 0.64395 1.02651
 O49 O 0.35553 0.68035 1.02654
 O50 O 0.31904 0.64403 0.97509
 Cu51 Cu 0.37129 0.62813 1.00076
 Cu52 Cu 0.33416 0.66532 1.00083
 C53 C 0.32829 0.62240 0.96640
 C54 C 0.37718 0.67106 1.03515
 C55 C 0.32824 0.62228 1.03513
 C56 C 0.37713 0.67121 0.96643
 O57 O -0.02618 0.38642 0.35031
 O58 O 0.02544 0.35024 0.38674
 O59 O 0.02533 0.38666 0.35023
 O60 O -0.02605 0.34989 0.38669
 O61 O -0.02587 0.31899 0.35574
 O62 O 0.02544 0.35570 0.31934
 O63 O 0.02557 0.31932 0.35580
 O64 O -0.02601 0.35548 0.31939
 Cu65 Cu -0.00038 0.37143 0.37161
 Cu66 Cu -0.00020 0.33426 0.33445
 C67 C -0.03476 0.37707 0.32867
 C68 C 0.03416 0.32863 0.37745
 C69 C 0.03401 0.37740 0.32859
 C70 C -0.03459 0.32819 0.37739
 O71 O 0.02557 0.64955 0.61311
 O72 O -0.02611 0.61343 0.64954
 O73 O -0.02593 0.64990 0.61310
 O74 O 0.02538 0.61318 0.64967
 O75 O 0.02551 0.64418 0.68052
 O76 O -0.02575 0.68085 0.64399
 O77 O -0.02594 0.64443 0.68040
 O78 O 0.02571 0.68051 0.64400
 Cu79 Cu -0.00029 0.62839 0.62823
 Cu80 Cu -0.00010 0.66561 0.66534
 C81 C 0.03431 0.67116 0.62238
 C82 C -0.03470 0.62281 0.67115
 C83 C -0.03447 0.67161 0.62235
 C84 C 0.03406 0.62247 0.67131
 O85 O 0.97454 0.64950 0.38702
 O86 O 1.02607 0.61324 0.35053
 O87 O 1.02604 0.64972 0.38698
 O88 O 0.97457 0.61308 0.35050
 O89 O 0.97449 0.64405 0.31964
 O90 O 1.02590 0.68064 0.35608
 O91 O 1.02594 0.64421 0.31966
 O92 O 0.97446 0.68043 0.35612
 Cu93 Cu 1.00031 0.62826 0.37188
 Cu94 Cu 1.00018 0.66545 0.33476
 C95 C 0.96586 0.67113 0.37775
 C96 C 1.03466 0.62259 0.32891
 C97 C 1.03462 0.67140 0.37770
 C98 C 0.96589 0.62237 0.32887
 O99 O 0.97427 0.35015 0.61303
 O100 O 1.02583 0.38635 0.64962
 O101 O 1.02577 0.34989 0.61313
 O102 O 0.97433 0.38655 0.64960
 O103 O 0.97419 0.35555 0.68043
 O104 O 1.02556 0.31895 0.64401
 O105 O 1.02564 0.35536 0.68046
 O106 O 0.97411 0.31919 0.64390
 Cu107 Cu 1.00007 0.37136 0.62823
 Cu108 Cu 0.99985 0.33414 0.66531
 C109 C 0.96554 0.32852 0.62227
 C110 C 1.03439 0.37699 0.67125
 C111 C 1.03431 0.32819 0.62240
 C112 C 0.96563 0.37726 0.67121
 O113 O 0.35028 -0.02570 0.38677
 O114 O 0.38658 0.02607 0.35062
 O115 O 0.35005 0.02580 0.38702
 O116 O 0.38679 -0.02542 0.35037
 O117 O 0.35589 -0.02539 0.31943
 O118 O 0.31917 0.02577 0.35604
 O119 O 0.35566 0.02604 0.31968
 O120 O 0.31940 -0.02568 0.35579
 Cu121 Cu 0.37154 0.00019 0.37183
 Cu122 Cu 0.33442 0.00019 0.33462
 C123 C 0.32868 -0.03438 0.37739
 C124 C 0.37727 0.03474 0.32901
 C125 C 0.32837 0.03439 0.37774
 C126 C 0.37756 -0.03400 0.32868
 O127 O 0.61335 0.02592 0.64947
 O128 O 0.64967 -0.02584 0.61334
 O129 O 0.61319 -0.02558 0.64977
 O130 O 0.64982 0.02565 0.61301
 O131 O 0.68074 0.02574 0.64395
 O132 O 0.64414 -0.02544 0.68068
 O133 O 0.68058 -0.02570 0.64428
 O134 O 0.64430 0.02601 0.68037
 Cu135 Cu 0.62838 0.00003 0.62828
 Cu136 Cu 0.66555 0.00017 0.66544
 C137 C 0.62268 0.03466 0.67105
 C138 C 0.67130 -0.03445 0.62270
 C139 C 0.62246 -0.03411 0.67146
 C140 C 0.67150 0.03429 0.62226
 O141 O 0.38657 0.97407 0.64952
 O142 O 0.35019 1.02569 0.61325
 O143 O 0.38669 1.02556 0.64967
 O144 O 0.35009 0.97420 0.61306
 O145 O 0.31919 0.97418 0.64399
 O146 O 0.35576 1.02551 0.68057
 O147 O 0.31929 1.02562 0.64420
 O148 O 0.35563 0.97406 0.68042
 Cu149 Cu 0.37151 0.99988 0.62825
 Cu150 Cu 0.33435 0.99984 0.66541
 C151 C 0.37725 0.96541 0.67113
 C152 C 0.32857 1.03432 0.62259
 C153 C 0.37742 1.03417 0.67133
 C154 C 0.32843 0.96556 0.62233
 O155 O 0.61410 0.97454 0.35046
 O156 O 0.65052 1.02620 0.38674
 O157 O 0.61397 1.02603 0.35033
 O158 O 0.65061 0.97470 0.38690
 O159 O 0.68149 0.97470 0.35594
 O160 O 0.64487 1.02599 0.31940
 O161 O 0.68139 1.02615 0.35577
 O162 O 0.64502 0.97455 0.31954
 Cu163 Cu 0.62918 1.00037 0.37173
 Cu164 Cu 0.66630 1.00034 0.33455
 C165 C 0.62339 0.96588 0.32884
 C166 C 0.67214 1.03485 0.37739
 C167 C 0.62321 1.03463 0.32866
 C168 C 0.67227 0.96608 0.37762
 C169 C 0.82354 0.78890 0.48679
 C170 C 0.82355 0.78886 0.51464
 C171 C 0.80644 0.80577 0.52837
 C172 C 0.78953 0.82287 0.51461
 C173 C 0.78959 0.82296 0.48676
 C174 C 0.80651 0.80587 0.47303
 H175 H 0.80671 0.80605 0.45159
 H176 H 0.80655 0.80590 0.54982
 C177 C 0.17651 0.21118 0.48678
 C178 C 0.17644 0.21117 0.51463
 C179 C 0.19353 0.19425 0.52837
 C180 C 0.21049 0.17719 0.51461
 C181 C 0.21051 0.17716 0.48676
 C182 C 0.19360 0.19425 0.47302
 H183 H 0.19345 0.19410 0.45158
 H184 H 0.19337 0.19408 0.54981
 C185 C 0.17702 0.78837 0.51321
 C186 C 0.17696 0.78836 0.48536
 C187 C 0.19405 0.80529 0.47162
 C188 C 0.21099 0.82238 0.48537
 C189 C 0.21100 0.82243 0.51322
 C190 C 0.19410 0.80532 0.52696
 H191 H 0.19395 0.80549 0.54841
 H192 H 0.19388 0.80545 0.45018
 C193 C 0.82336 0.21076 0.51277
 C194 C 0.82344 0.21072 0.48492
 C195 C 0.80637 0.19376 0.47117
 C196 C 0.78941 0.17669 0.48491
 C197 C 0.78937 0.17669 0.51276
 C198 C 0.80627 0.19382 0.52651
 H199 H 0.80639 0.19370 0.54795
 H200 H 0.80655 0.19358 0.44972
 C201 C 0.48567 0.82280 0.78911
 C202 C 0.51353 0.82285 0.78908
 C203 C 0.52730 0.80575 0.80595
 C204 C 0.51356 0.78880 0.82303
 C205 C 0.48569 0.78881 0.82313
 C206 C 0.47192 0.80573 0.80606
 H207 H 0.45047 0.80588 0.80625
 H208 H 0.54876 0.80590 0.80608
 C209 C 0.48588 0.17732 0.21113
 C210 C 0.51374 0.17731 0.21115
 C211 C 0.52748 0.19442 0.19425
 C212 C 0.51371 0.21132 0.17716
 C213 C 0.48584 0.21127 0.17707
 C214 C 0.47210 0.19436 0.19416
 H215 H 0.45065 0.19417 0.19399
 H216 H 0.54894 0.19430 0.19411
 C217 C 0.51423 0.17758 0.78866
 C218 C 0.48637 0.17751 0.78863
 C219 C 0.47260 0.19460 0.80552
 C220 C 0.48633 0.21156 0.82260
 C221 C 0.51420 0.21158 0.82268
 C222 C 0.52797 0.19467 0.80561
 H223 H 0.54943 0.19453 0.80580
 H224 H 0.45114 0.19443 0.80565
 C225 C 0.51464 0.82332 0.21081
 C226 C 0.48678 0.82334 0.21087
 C227 C 0.47299 0.80622 0.19401
 C228 C 0.48671 0.78927 0.17692
 C229 C 0.51458 0.78930 0.17680
 C230 C 0.52837 0.80624 0.19384
 H231 H 0.54982 0.80641 0.19364
 H232 H 0.45154 0.80635 0.19391
 C233 C 0.78895 0.48631 0.82317
 C234 C 0.78890 0.51417 0.82318
 C235 C 0.80576 0.52792 0.80604
 C236 C 0.82281 0.51416 0.78909
 C237 C 0.82290 0.48630 0.78911
 C238 C 0.80586 0.47255 0.80607
 H239 H 0.80605 0.45110 0.80625
 H240 H 0.80588 0.54938 0.80617
 C241 C 0.21106 0.48623 0.17686
 C242 C 0.21115 0.51409 0.17687
 C243 C 0.19428 0.52784 0.19400
 C244 C 0.17719 0.51409 0.21092
 C245 C 0.17707 0.48623 0.21087
 C246 C 0.19411 0.47248 0.19392
 H247 H 0.19389 0.45102 0.19372
 H248 H 0.19418 0.54930 0.19389
 C249 C 0.78874 0.51377 0.17703
 C250 C 0.78863 0.48591 0.17700
 C251 C 0.80547 0.47212 0.19412
 C252 C 0.82257 0.48584 0.21108
 C253 C 0.82271 0.51370 0.21108
 C254 C 0.80570 0.52749 0.19413
 H255 H 0.80593 0.54894 0.19396
 H256 H 0.80556 0.45066 0.19397
 C257 C 0.21057 0.51362 0.82365
 C258 C 0.21064 0.48576 0.82366
 C259 C 0.19377 0.47198 0.80653
 C260 C 0.17669 0.48571 0.78957
 C261 C 0.17659 0.51357 0.78959
 C262 C 0.19362 0.52735 0.80656
 H263 H 0.19343 0.54880 0.80674
 H264 H 0.19367 0.45053 0.80665
 C265 C 0.28668 0.41806 0.08956
 N266 N 0.28698 0.44488 0.08989
 N267 N 0.27254 0.45816 0.10748
 C268 C 0.25738 0.44501 0.12526
 N269 N 0.25710 0.41819 0.12495
 N270 N 0.27154 0.40491 0.10736
 C271 C 0.30168 0.40379 0.07020
 C272 C 0.31402 0.39180 0.05374
 C273 C 0.24133 0.45931 0.14372
 C274 C 0.22765 0.47145 0.15896
 C275 C 0.71336 0.58195 0.08955
 N276 N 0.71297 0.55514 0.08995
 N277 N 0.72736 0.54187 0.10758
 C278 C 0.74256 0.55502 0.12534
 N279 N 0.74294 0.58184 0.12496
 N280 N 0.72854 0.59511 0.10733
 C281 C 0.69840 0.59621 0.07016
 C282 C 0.68607 0.60819 0.05367
 C283 C 0.75856 0.54073 0.14384
 C284 C 0.77220 0.52857 0.15912
 C285 C 0.71326 0.41833 0.91055
 N286 N 0.72831 0.40513 0.89271
 N287 N 0.74277 0.41836 0.87510
 C288 C 0.74260 0.44518 0.87481
 N289 N 0.72753 0.45838 0.89263
 N290 N 0.71307 0.44515 0.91024
 C291 C 0.69823 0.40411 0.92991
 C292 C 0.68586 0.39214 0.94638
 C293 C 0.75867 0.45943 0.85633
 C294 C 0.77236 0.47155 0.84107
 C295 C 0.28637 0.58183 0.91088
 N296 N 0.28660 0.55501 0.91060
 N297 N 0.27211 0.54173 0.89303
 C298 C 0.25697 0.55487 0.87523
 N299 N 0.25676 0.58169 0.87549
 N300 N 0.27125 0.59497 0.89306
 C301 C 0.30144 0.59611 0.93020
 C302 C 0.31384 0.60811 0.94663
 C303 C 0.24088 0.54057 0.85678
 C304 C 0.22717 0.52841 0.84154
 C305 C 0.08963 0.28697 0.41827
 N306 N 0.10769 0.27205 0.40524
 N307 N 0.12519 0.25759 0.41861
 C308 C 0.12515 0.25764 0.44542
 N309 N 0.10710 0.27259 0.45846
 N310 N 0.08960 0.28704 0.44508
 C311 C 0.07035 0.30197 0.40388
 C312 C 0.05394 0.31429 0.39180
 C313 C 0.14351 0.24156 0.45981
 C314 C 0.15868 0.22783 0.47200
 C315 C 0.08992 0.71271 0.58162
 N316 N 0.10799 0.72763 0.59468
 N317 N 0.12554 0.74205 0.58133
 C318 C 0.12555 0.74198 0.55452
 N319 N 0.10750 0.72703 0.54146
 N320 N 0.08994 0.71261 0.55481
 C321 C 0.07058 0.69776 0.59598
 C322 C 0.05413 0.68547 0.60804
 C323 C 0.14396 0.75803 0.54016
 C324 C 0.15917 0.77174 0.52798
 C325 C 0.91043 0.71291 0.41850
 N326 N 0.91046 0.71294 0.44531
 N327 N 0.89296 0.72745 0.45864
 C328 C 0.87492 0.74235 0.44555
 N329 N 0.87486 0.74229 0.41874
 N330 N 0.89236 0.72778 0.40541
 C331 C 0.92970 0.69786 0.40417
 C332 C 0.94610 0.68550 0.39210
 C333 C 0.85655 0.75847 0.45988
 C334 C 0.84137 0.77223 0.47204
 C335 C 0.91014 0.28677 0.58133
 N336 N 0.89200 0.27193 0.59435
 N337 N 0.87452 0.25743 0.58096
 C338 C 0.87467 0.25734 0.55416
 N339 N 0.89280 0.27221 0.54113
 N340 N 0.91028 0.28671 0.55452
 C341 C 0.92940 0.30181 0.59574
 C342 C 0.94579 0.31416 0.60786
 C343 C 0.85633 0.24122 0.53975
 C344 C 0.84117 0.22745 0.52756
 C345 C 0.41781 0.09035 0.28724
 N346 N 0.40464 0.10824 0.27223
 N347 N 0.41790 0.12577 0.25770
 C348 C 0.44472 0.12592 0.25774
 N349 N 0.45790 0.10804 0.27277
 N350 N 0.44464 0.09052 0.28731
 C351 C 0.40355 0.07102 0.30230
 C352 C 0.39155 0.05457 0.31466
 C353 C 0.45900 0.14431 0.24158
 C354 C 0.47112 0.15949 0.22781
 C355 C 0.58222 0.09039 0.71273
 N356 N 0.55539 0.09064 0.71260
 N357 N 0.54217 0.10823 0.72710
 C358 C 0.55538 0.12607 0.74216
 N359 N 0.58220 0.12583 0.74227
 N360 N 0.59542 0.10825 0.72778
 C361 C 0.59644 0.07101 0.69771
 C362 C 0.60841 0.05451 0.68537
 C363 C 0.54113 0.14452 0.75828
 C364 C 0.52901 0.15973 0.77202
 C365 C 0.41772 0.90983 0.71298
 N366 N 0.44455 0.90961 0.71293
 N367 N 0.45776 0.89207 0.72748
 C368 C 0.44455 0.87423 0.74252
 N369 N 0.41772 0.87443 0.74256
 N370 N 0.40451 0.89197 0.72800
 C371 C 0.40351 0.92916 0.69789
 C372 C 0.39153 0.94560 0.68550
 C373 C 0.45878 0.85582 0.75869
 C374 C 0.47089 0.84063 0.77246
 C375 C 0.58280 0.91033 0.28694
 N376 N 0.55597 0.91014 0.28703
 N377 N 0.54271 0.89261 0.27247
 C378 C 0.55587 0.87477 0.25739
 N379 N 0.58270 0.87494 0.25733
 N380 N 0.59596 0.89247 0.27189
 C381 C 0.59707 0.92964 0.30205
 C382 C 0.60908 0.94608 0.31444
 C383 C 0.54159 0.85636 0.24123
 C384 C 0.52944 0.84117 0.22746
 C385 C 0.41786 0.28736 0.90950
 N386 N 0.40479 0.27233 0.89154
 N387 N 0.41814 0.25787 0.87403
 C388 C 0.44496 0.25801 0.87397
 N389 N 0.45804 0.27307 0.89191
 N390 N 0.44468 0.28753 0.90942
 C391 C 0.40350 0.30237 0.92879
 C392 C 0.39144 0.31470 0.94521
 C393 C 0.45934 0.24193 0.85559
 C394 C 0.47153 0.22820 0.84042
 C395 C 0.58215 0.71278 0.90963
 N396 N 0.59519 0.72780 0.89165
 N397 N 0.58180 0.74232 0.87421
 C398 C 0.55498 0.74223 0.87423
 N399 N 0.54194 0.72718 0.89219
 N400 N 0.55532 0.71267 0.90963
 C401 C 0.59655 0.69773 0.92885
 C402 C 0.60864 0.68536 0.94523
 C403 C 0.54057 0.75836 0.85593
 C404 C 0.52836 0.77212 0.84080
 C405 C 0.41809 0.71301 0.09041
 N406 N 0.40505 0.72801 0.10842
 N407 N 0.41844 0.74257 0.12583
 C408 C 0.44527 0.74257 0.12576
 N409 N 0.45830 0.72756 0.10777
 N410 N 0.44491 0.71300 0.09035
 C411 C 0.40368 0.69791 0.07121
 C412 C 0.39157 0.68549 0.05486
 C413 C 0.45968 0.75876 0.14405
 C414 C 0.47189 0.77255 0.15916
 C415 C 0.58197 0.28741 0.09035
 N416 N 0.55515 0.28738 0.09035
 N417 N 0.54184 0.27285 0.10783
 C418 C 0.55496 0.25792 0.12583
 N419 N 0.58178 0.25797 0.12585
 N420 N 0.59509 0.27251 0.10837
 C421 C 0.59630 0.30248 0.07109
 C422 C 0.60835 0.31487 0.05469
 C423 C 0.54063 0.24177 0.14419
 C424 C 0.52847 0.22800 0.15935
 C425 C 0.28666 0.08999 0.58230
 N426 N 0.28676 0.09033 0.55549
 N427 N 0.27220 0.10791 0.54234
 C428 C 0.25711 0.12568 0.55560
 N429 N 0.25704 0.12536 0.58240
 N430 N 0.27159 0.10778 0.59556
 C431 C 0.30176 0.07063 0.59645
 C432 C 0.31416 0.05415 0.60837
 C433 C 0.24094 0.14412 0.54142
 C434 C 0.22716 0.15934 0.52935
 C435 C 0.71330 0.08944 0.41704
 N436 N 0.72836 0.10727 0.40383
 N437 N 0.74291 0.12485 0.41703
 C438 C 0.74283 0.12512 0.44383
 N439 N 0.72774 0.10731 0.45705
 N440 N 0.71319 0.08973 0.44384
 C441 C 0.69820 0.07008 0.40283
 C442 C 0.68580 0.05360 0.39088
 C443 C 0.75899 0.14358 0.45806
 C444 C 0.77276 0.15881 0.47016
 C445 C 0.71323 0.90989 0.58239
 N446 N 0.71311 0.90958 0.55558
 N447 N 0.72769 0.89203 0.54240
 C448 C 0.74282 0.87429 0.55563
 N449 N 0.74292 0.87458 0.58244
 N450 N 0.72834 0.89213 0.59562
 C451 C 0.69811 0.92924 0.59657
 C452 C 0.68570 0.94571 0.60849
 C453 C 0.75903 0.85588 0.54143
 C454 C 0.77283 0.84069 0.52935
 C455 C 0.28691 0.90980 0.41764
 N456 N 0.27177 0.89204 0.40440
 N457 N 0.25727 0.87441 0.41756
 C458 C 0.25748 0.87402 0.44436
 N459 N 0.27264 0.89175 0.45761
 N460 N 0.28713 0.90938 0.44445
 C461 C 0.30195 0.92922 0.40349
 C462 C 0.31431 0.94574 0.39158
 C463 C 0.24136 0.85552 0.45855
 C464 C 0.22762 0.84027 0.47063
 C465 C 0.08986 0.41750 0.71332
 N466 N 0.10757 0.40435 0.72858
 N467 N 0.12507 0.41763 0.74314
 C468 C 0.12538 0.44445 0.74289
 N469 N 0.10769 0.45759 0.72761
 N470 N 0.09018 0.44431 0.71305
 C471 C 0.07057 0.40322 0.69819
 C472 C 0.05416 0.39123 0.68574
 C473 C 0.14374 0.45876 0.75907
 C474 C 0.15890 0.47092 0.77287
 C475 C 0.09021 0.58214 0.28700
 N476 N 0.09049 0.55532 0.28719
 N477 N 0.10803 0.54208 0.27266
 C478 C 0.12581 0.55526 0.25752
 N479 N 0.12555 0.58208 0.25735
 N480 N 0.10800 0.59532 0.27188
 C481 C 0.07089 0.59638 0.30208
 C482 C 0.05445 0.60835 0.31448
 C483 C 0.14421 0.54099 0.24137
 C484 C 0.15939 0.52886 0.22760
 C485 C 0.90962 0.41757 0.28689
 N486 N 0.90926 0.44438 0.28727
 N487 N 0.89170 0.45767 0.27281
 C488 C 0.87398 0.44454 0.25754
 N489 N 0.87432 0.41772 0.25717
 N490 N 0.89189 0.40443 0.27163
 C491 C 0.92896 0.40329 0.30190
 C492 C 0.94542 0.39130 0.31427
 C493 C 0.85557 0.45886 0.24145
 C494 C 0.84038 0.47103 0.22772
 C495 C 0.90973 0.58234 0.71303
 N496 N 0.89200 0.59549 0.72826
 N497 N 0.87447 0.58221 0.74278
 C498 C 0.87415 0.55539 0.74249
 N499 N 0.89186 0.54225 0.72723
 N500 N 0.90939 0.55553 0.71272
 C501 C 0.92904 0.59662 0.69797
 C502 C 0.94549 0.60859 0.68558
 C503 C 0.85578 0.54109 0.75863
 C504 C 0.84061 0.52894 0.77240
 C505 C 0.71310 0.58225 0.91068
 N506 N 0.71325 0.55543 0.91066
 N507 N 0.72773 0.54217 0.89308
 C508 C 0.74251 0.55533 0.87498
 N509 N 0.74235 0.58216 0.87498
 N510 N 0.72787 0.59542 0.89257
 C511 C 0.69800 0.59655 0.93002
 C512 C 0.68558 0.60860 0.94644
 C513 C 0.75859 0.54105 0.85645
 C514 C 0.77229 0.52893 0.84115
 C515 C 0.28674 0.41770 0.91092
 N516 N 0.27195 0.40454 0.89281
 N517 N 0.25740 0.41780 0.87528
 C518 C 0.25719 0.44462 0.87533
 N519 N 0.27200 0.45778 0.89342
 N520 N 0.28655 0.44453 0.91095
 C521 C 0.30191 0.40340 0.93020
 C522 C 0.31438 0.39136 0.94657
 C523 C 0.24105 0.45890 0.85686
 C524 C 0.22730 0.47102 0.84159
 C525 C 0.28701 0.58230 0.08953
 N526 N 0.28692 0.55547 0.08953
 N527 N 0.27243 0.54218 0.10709
 C528 C 0.25760 0.55531 0.12517
 N529 N 0.25771 0.58213 0.12518
 N530 N 0.27220 0.59542 0.10762
 C531 C 0.30212 0.59662 0.07021
 C532 C 0.31454 0.60868 0.05380
 C533 C 0.24151 0.54099 0.14366
 C534 C 0.22779 0.52885 0.15893
 C535 C 0.71280 0.41792 0.08941
 N536 N 0.72753 0.40474 0.10754
 N537 N 0.74201 0.41799 0.12514
 C538 C 0.74220 0.44481 0.12516
 N539 N 0.72745 0.45799 0.10705
 N540 N 0.71297 0.44475 0.08944
 C541 C 0.69771 0.40364 0.07004
 C542 C 0.68530 0.39161 0.05360
 C543 C 0.75828 0.45908 0.14370
 C544 C 0.77200 0.47119 0.15902
 C545 C 0.91107 0.71293 0.58255
 N546 N 0.91090 0.71297 0.55574
 N547 N 0.89330 0.72748 0.54253
 C548 C 0.87533 0.74239 0.55573
 N549 N 0.87548 0.74233 0.58255
 N550 N 0.89309 0.72782 0.59575
 C551 C 0.93043 0.69780 0.59679
 C552 C 0.94686 0.68535 0.60879
 C553 C 0.85679 0.75850 0.54150
 C554 C 0.84149 0.77222 0.52940
 C555 C 0.91096 0.28677 0.41711
 N556 N 0.91076 0.28675 0.44392
 N557 N 0.89317 0.27220 0.45711
 C558 C 0.87524 0.25723 0.44389
 N559 N 0.87543 0.25727 0.41707
 N560 N 0.89302 0.27182 0.40389
 C561 C 0.93031 0.30194 0.40290
 C562 C 0.94674 0.31442 0.39092
 C563 C 0.85671 0.24110 0.45810
 C564 C 0.84141 0.22736 0.47019
 C565 C 0.08882 0.28693 0.58260
 N566 N 0.10679 0.27201 0.59578
 N567 N 0.12441 0.25754 0.58255
 C568 C 0.12458 0.25754 0.55574
 N569 N 0.10662 0.27247 0.54256
 N570 N 0.08901 0.28695 0.55578
 C571 C 0.06945 0.30203 0.59685
 C572 C 0.05300 0.31447 0.60885
 C573 C 0.14314 0.24146 0.54148
 C574 C 0.15846 0.22777 0.52937
 C575 C 0.08922 0.71261 0.41746
 N576 N 0.10721 0.72749 0.40427
 N577 N 0.12486 0.74196 0.41747
 C578 C 0.12506 0.74198 0.44428
 N579 N 0.10708 0.72708 0.45749
 N580 N 0.08943 0.71261 0.44428
 C581 C 0.06981 0.69752 0.40323
 C582 C 0.05334 0.68510 0.39124
 C583 C 0.14364 0.75805 0.45852
 C584 C 0.15897 0.77175 0.47062
 C585 C 0.58172 0.91045 0.71350
 N586 N 0.55489 0.91034 0.71349
 N587 N 0.54160 0.89274 0.72792
 C588 C 0.55474 0.87470 0.74280
 N589 N 0.58157 0.87479 0.74280
 N590 N 0.59486 0.89240 0.72836
 C591 C 0.59604 0.92978 0.69841
 C592 C 0.60809 0.94618 0.68598
 C593 C 0.54042 0.85616 0.75883
 C594 C 0.52828 0.84084 0.77249
 C595 C 0.41846 0.91068 0.28664
 N596 N 0.44529 0.91080 0.28647
 N597 N 0.45862 0.89326 0.27201
 C598 C 0.44553 0.87505 0.25727
 N599 N 0.41870 0.87491 0.25745
 N600 N 0.40537 0.89246 0.27192
 C601 C 0.40409 0.92996 0.30174
 C602 C 0.39199 0.94632 0.31418
 C603 C 0.45989 0.85657 0.24121
 C604 C 0.47204 0.84129 0.22751
 C605 C 0.58228 0.09000 0.28673
 N606 N 0.55545 0.08999 0.28676
 N607 N 0.54208 0.10754 0.27234
 C608 C 0.55513 0.12563 0.25745
 N609 N 0.58196 0.12565 0.25743
 N610 N 0.59533 0.10811 0.27185
 C611 C 0.59669 0.07071 0.30178
 C612 C 0.60880 0.05433 0.31418
 C613 C 0.54073 0.14411 0.24143
 C614 C 0.52853 0.15938 0.22776
 C615 C 0.41816 0.08976 0.71320
 N616 N 0.40503 0.10783 0.72804
 N617 N 0.41833 0.12548 0.74243
 C618 C 0.44516 0.12559 0.74242
 N619 N 0.45829 0.10752 0.72756
 N620 N 0.44499 0.08988 0.71317
 C621 C 0.40384 0.07037 0.69818
 C622 C 0.39179 0.05393 0.68579
 C623 C 0.45948 0.14416 0.75841
 C624 C 0.47162 0.15950 0.77206
 C625 C 0.58240 0.71338 0.08920
 N626 N 0.59563 0.72827 0.10718
 N627 N 0.58243 0.74278 0.12479
 C628 C 0.55560 0.74284 0.12495
 N629 N 0.54237 0.72793 0.10699
 N630 N 0.55557 0.71342 0.08938
 C631 C 0.59663 0.69824 0.06985
 C632 C 0.60862 0.68578 0.05342
 C633 C 0.54137 0.75895 0.14350
 C634 C 0.52929 0.77267 0.15882
 C635 C 0.41787 0.28684 0.08931
 N636 N 0.44470 0.28686 0.08952
 N637 N 0.45792 0.27242 0.10716
 C638 C 0.44472 0.25752 0.12514
 N639 N 0.41789 0.25752 0.12494
 N640 N 0.40467 0.27196 0.10730
 C641 C 0.40361 0.30192 0.06993
 C642 C 0.39160 0.31433 0.05348
 C643 C 0.45897 0.24149 0.14372
 C644 C 0.47108 0.22784 0.15907
 C645 C 0.58208 0.28720 0.91053
 N646 N 0.55525 0.28719 0.91032
 N647 N 0.54204 0.27275 0.89265
 C648 C 0.55526 0.25789 0.87465
 N649 N 0.58208 0.25793 0.87484
 N650 N 0.59529 0.27236 0.89252
 C651 C 0.59632 0.30226 0.92995
 C652 C 0.60831 0.31465 0.94643
 C653 C 0.54102 0.24185 0.85605
 C654 C 0.52893 0.22818 0.84069
 C655 C 0.41772 0.71315 0.91082
 N656 N 0.40453 0.72806 0.89285
 N657 N 0.41776 0.74251 0.87522
 C658 C 0.44459 0.74248 0.87502
 N659 N 0.45778 0.72755 0.89297
 N660 N 0.44455 0.71311 0.91060
 C661 C 0.40346 0.69808 0.93020
 C662 C 0.39146 0.68567 0.94666
 C663 C 0.45885 0.75853 0.85645
 C664 C 0.47096 0.77221 0.84112
 C665 C 0.71421 0.91060 0.41841
 N666 N 0.72915 0.89257 0.40532
 N667 N 0.74354 0.87496 0.41865
 C668 C 0.74344 0.87485 0.44546
 N669 N 0.72848 0.89287 0.45854
 N670 N 0.71409 0.91047 0.44522
 C671 C 0.69917 0.92994 0.40405
 C672 C 0.68676 0.94635 0.39198
 C673 C 0.75942 0.85630 0.45982
 C674 C 0.77305 0.84097 0.47198
 C675 C 0.28651 0.91005 0.58153
 N676 N 0.27166 0.89194 0.59462
 N677 N 0.25725 0.87433 0.58130
 C678 C 0.25725 0.87428 0.55449
 N679 N 0.27212 0.89237 0.54140
 N680 N 0.28653 0.90998 0.55472
 C681 C 0.30156 0.92940 0.59588
 C682 C 0.31395 0.94582 0.60795
 C683 C 0.24125 0.85574 0.54014
 C684 C 0.22759 0.84042 0.52799
 C685 C 0.28627 0.08975 0.41852
 N686 N 0.27139 0.10781 0.40541
 N687 N 0.25691 0.12537 0.41871
 C688 C 0.25688 0.12541 0.44552
 N689 N 0.27178 0.10737 0.45863
 N690 N 0.28625 0.08981 0.44533
 C691 C 0.30138 0.07045 0.40419
 C692 C 0.31384 0.05408 0.39212
 C693 C 0.24082 0.14392 0.45985
 C694 C 0.22712 0.15920 0.47200
 C695 C 0.71357 0.08952 0.58126
 N696 N 0.71371 0.08934 0.55444
 N697 N 0.72819 0.10685 0.54107
 C698 C 0.74296 0.12507 0.55411
 N699 N 0.74280 0.12526 0.58092
 N700 N 0.72832 0.10776 0.59429
 C701 C 0.69846 0.07028 0.59567
 C702 C 0.68601 0.05394 0.60780
 C703 C 0.75903 0.14351 0.53971
 C704 C 0.77274 0.15876 0.52753
 C705 C 0.91032 0.58168 0.28691
 N706 N 0.91025 0.55486 0.28679
 N707 N 0.89264 0.54161 0.27231
 C708 C 0.87456 0.55479 0.25751
 N709 N 0.87461 0.58161 0.25765
 N710 N 0.89222 0.59486 0.27213
 C711 C 0.92968 0.59596 0.30201
 C712 C 0.94612 0.60800 0.31442
 C713 C 0.85601 0.54051 0.24143
 C714 C 0.84070 0.52841 0.22771
 C715 C 0.91020 0.41807 0.71321
 N716 N 0.91018 0.44489 0.71328
 N717 N 0.89264 0.45819 0.72778
 C718 C 0.87458 0.44507 0.74265
 N719 N 0.87458 0.41824 0.74256
 N720 N 0.89213 0.40495 0.72807
 C721 C 0.92950 0.40373 0.69810
 C722 C 0.94590 0.39166 0.68567
 C723 C 0.85610 0.45940 0.75875
 C724 C 0.84083 0.47154 0.77247
 C725 C 0.08938 0.58167 0.71347
 N726 N 0.10750 0.59482 0.72826
 N727 N 0.12502 0.58155 0.74281
 C728 C 0.12495 0.55473 0.74302
 N729 N 0.10684 0.54158 0.72821
 N730 N 0.08932 0.55485 0.71366
 C731 C 0.07011 0.59599 0.69830
 C732 C 0.05375 0.60805 0.68582
 C733 C 0.14341 0.54043 0.75917
 C734 C 0.15866 0.52831 0.77293
 C735 C 0.08952 0.41816 0.28664
 N736 N 0.08955 0.44499 0.28651
 N737 N 0.10714 0.45825 0.27203
 C738 C 0.12524 0.44508 0.25725
 N739 N 0.12523 0.41826 0.25740
 N740 N 0.10763 0.40500 0.27188
 C741 C 0.07017 0.40387 0.30174
 C742 C 0.05375 0.39181 0.31415
 C743 C 0.14378 0.45937 0.24117
 C744 C 0.15909 0.47148 0.22748
   
