data_POSCAR
  _audit_creation_date              2014-09-24
  _audit_creation_method            'ToBaCCo'
  _symmetry_space_group_name_H-M    'P1'
  _symmetry_Int_Tables_number       1
  _symmetry_cell_setting            triclinic
  loop_
  _symmetry_equiv_pos_as_xyz
 x,y,z
_cell_length_a 23.2751
_cell_length_b 23.2751
_cell_length_c 43.6585
_cell_angle_alpha 90.000000
_cell_angle_beta 90.000000
_cell_angle_gamma 120.000100
loop_
  _atom_site_label
  _atom_site_type_symbol
  _atom_site_fract_x
  _atom_site_fract_y
  _atom_site_fract_z
Zn1 Zn 0.95639 0.04226 1.01372
 Zn2 Zn 1.08586 0.04374 1.01372
 Zn3 Zn 0.95787 -0.08574 1.01372
 Zn4 Zn 1.00004 0.00009 0.95795
 O5 O 1.00004 0.00009 0.99981
 O6 O 1.00795 0.11311 1.03698
 O7 O 1.10517 -0.00782 1.03698
 O8 O 0.88701 -0.10504 1.03697
 O9 O 1.10375 0.11421 1.03698
 O10 O 0.88592 -0.01033 1.03697
 O11 O 1.01046 -0.10362 1.03697
 O12 O 0.95987 -0.08168 0.94205
 O13 O 1.14583 0.07424 0.98333
 O14 O 0.92841 -0.14570 0.98333
 O15 O 1.08181 0.04169 0.94206
 O16 O 0.95845 0.04026 0.94206
 O17 O 0.92589 0.07172 0.98333
 C18 C 1.06799 0.13836 1.04523
 C19 C 1.07037 -0.06786 1.04523
 C20 C 0.86177 -0.07025 1.04523
 C21 C 0.93197 -0.13848 0.95448
 C22 C 1.13861 0.07057 0.95448
 C23 C 0.92956 0.06817 0.95448
 Zn24 Zn 0.04222 0.95645 0.51372
 Zn25 Zn -0.08578 0.95790 0.51372
 Zn26 Zn 0.04368 1.08591 0.51372
 Zn27 Zn 0.00005 1.00009 0.45795
 O28 O 0.00004 1.00009 0.49981
 O29 O -0.01035 0.88597 0.53697
 O30 O -0.10367 1.01048 0.53697
 O31 O 0.11416 1.10380 0.53698
 O32 O -0.10507 0.88705 0.53697
 O33 O 0.11308 1.00801 0.53698
 O34 O -0.00788 1.10520 0.53698
 O35 O 0.04163 1.08186 0.44206
 O36 O -0.14574 0.92844 0.48333
 O37 O 0.07418 1.14587 0.48333
 O38 O -0.08172 0.95991 0.44205
 O39 O 0.04023 0.95850 0.44205
 O40 O 0.07169 0.92595 0.48333
 C41 C -0.07027 0.86181 0.54523
 C42 C -0.06792 1.07040 0.54523
 C43 C 0.13832 1.06805 0.54523
 C44 C 0.07051 1.13865 0.45448
 C45 C -0.13852 0.93199 0.45448
 C46 C 0.06814 0.92962 0.45448
 O47 O 0.23336 0.55162 0.27570
 O48 O 0.23605 0.66371 0.28500
 C49 C 0.26737 0.72530 0.29055
 O50 O 0.31827 0.76678 0.27569
 O51 O 0.42766 0.76408 0.28500
 C52 C 0.45793 0.73276 0.29055
 O53 O 0.44851 0.68187 0.27569
 O54 O 0.33643 0.57248 0.28501
 C55 C 0.27483 0.54220 0.29055
 O56 O 0.23606 0.57235 0.21477
 O57 O 0.23327 0.68174 0.22408
 C58 C 0.27468 0.73273 0.20926
 O59 O 0.33629 0.76407 0.21477
 O60 O 0.44847 0.76686 0.22408
 C61 C 0.45806 0.72545 0.20926
 O62 O 0.42778 0.66384 0.21477
 O63 O 0.31839 0.55166 0.22408
 C64 C 0.26739 0.54207 0.20926
 Cr65 Cr 0.23842 0.61923 0.24988
 Cr66 Cr 0.38081 0.76171 0.24988
 Cr67 Cr 0.38090 0.61932 0.24988
 O68 O 0.33338 0.66675 0.24988
 O69 O 0.76405 0.42769 0.78500
 O70 O 0.76672 0.31829 0.77569
 C71 C 0.72524 0.26740 0.79055
 O72 O 0.66365 0.23608 0.78500
 O73 O 0.55157 0.23341 0.77570
 C74 C 0.54216 0.27489 0.79055
 O75 O 0.57244 0.33649 0.78500
 O76 O 0.68184 0.44856 0.77569
 C77 C 0.73274 0.45797 0.79055
 O78 O 0.76683 0.44851 0.72408
 O79 O 0.76402 0.33631 0.71477
 C80 C 0.73268 0.27470 0.70926
 O81 O 0.68168 0.23330 0.72408
 O82 O 0.57230 0.23611 0.71477
 C83 C 0.54203 0.26745 0.70926
 O84 O 0.55162 0.31845 0.72408
 O85 O 0.66381 0.42783 0.71477
 C86 C 0.72543 0.45810 0.70926
 Cr87 Cr 0.76166 0.38084 0.74988
 Cr88 Cr 0.61917 0.23847 0.74988
 Cr89 Cr 0.61930 0.38096 0.74988
 O90 O 0.66671 0.33342 0.74988
 C91 C 0.14637 0.29768 0.10267
 N92 N 0.21003 0.32488 0.11242
 N93 N 0.23457 0.37459 0.13255
 C94 C 0.19620 0.39861 0.14353
 N95 N 0.13257 0.37148 0.13374
 N96 N 0.10802 0.32177 0.11361
 C97 C 0.11918 0.24247 0.08192
 C98 C 0.09599 0.19533 0.06493
 C99 C 0.22178 0.45028 0.16614
 C100 C 0.24285 0.49274 0.18558
 C101 C 0.70245 0.84881 0.10267
 N102 N 0.67838 0.78639 0.11362
 N103 N 0.62866 0.76122 0.13375
 C104 C 0.60151 0.79771 0.14352
 N105 N 0.62551 0.86009 0.13253
 N106 N 0.67522 0.88526 0.11240
 C107 C 0.75765 0.87683 0.08191
 C108 C 0.80480 0.90078 0.06492
 C109 C 0.54984 0.77162 0.16613
 C110 C 0.50739 0.75023 0.18558
 C111 C 0.15131 0.85375 0.10267
 N112 N 0.11482 0.79011 0.11244
 N113 N 0.13998 0.76556 0.13257
 C114 C 0.20241 0.80392 0.14352
 N115 N 0.23894 0.86753 0.13371
 N116 N 0.21377 0.89207 0.11358
 C117 C 0.12329 0.88094 0.08191
 C118 C 0.09934 0.90414 0.06493
 C119 C 0.22850 0.77834 0.16613
 C120 C 0.24989 0.75727 0.18558
 C121 C 0.84881 0.70249 0.60267
 N122 N 0.78630 0.67826 0.61354
 N123 N 0.76113 0.62855 0.63367
 C124 C 0.79771 0.60155 0.64352
 N125 N 0.86018 0.62571 0.63261
 N126 N 0.88535 0.67542 0.61249
 C127 C 0.87682 0.75770 0.58191
 C128 C 0.90077 0.80484 0.56492
 C129 C 0.77162 0.54988 0.66613
 C130 C 0.75022 0.50743 0.68558
 C131 C 0.29764 0.14645 0.60267
 N132 N 0.32185 0.10816 0.61355
 N133 N 0.37156 0.13270 0.63368
 C134 C 0.39857 0.19628 0.64353
 N135 N 0.37443 0.23460 0.63261
 N136 N 0.32472 0.21006 0.61248
 C137 C 0.24243 0.11925 0.58192
 C138 C 0.19529 0.09605 0.56493
 C139 C 0.45024 0.22186 0.66613
 C140 C 0.49270 0.24292 0.68558
 C141 C 0.85368 0.15131 0.60267
 N142 N 0.79007 0.11478 0.61249
 N143 N 0.76553 0.13995 0.63261
 C144 C 0.80384 0.20242 0.64353
 N145 N 0.86742 0.23899 0.63367
 N146 N 0.89196 0.21382 0.61354
 C147 C 0.88087 0.12330 0.58192
 C148 C 0.90407 0.09936 0.56493
 C149 C 0.77827 0.22851 0.66613
 C150 C 0.75721 0.24991 0.68558
 C151 C 0.29899 0.15208 0.89771
 N152 N 0.32603 0.11554 0.88787
 N153 N 0.37558 0.14064 0.86765
 C154 C 0.39956 0.20303 0.85667
 N155 N 0.37260 0.23962 0.86656
 N156 N 0.32306 0.21452 0.88677
 C157 C 0.24365 0.12398 0.91838
 C158 C 0.19620 0.09986 0.93518
 C159 C 0.45092 0.22897 0.83391
 C160 C 0.49310 0.25024 0.81434
 C161 C 0.85309 0.70114 0.89771
 N162 N 0.78953 0.67415 0.88784
 N163 N 0.76508 0.62461 0.86762
 C164 C 0.80346 0.60057 0.85667
 N165 N 0.86699 0.62748 0.86658
 N166 N 0.89143 0.67703 0.88680
 C167 C 0.88033 0.75649 0.91838
 C168 C 0.90367 0.80394 0.93518
 C169 C 0.77806 0.54922 0.83391
 C170 C 0.75714 0.50703 0.81434
 C171 C 0.84806 0.14704 0.89771
 N172 N 0.88462 0.21060 0.88784
 N173 N 0.85953 0.23505 0.86762
 C174 C 0.79711 0.19667 0.85667
 N175 N 0.76049 0.13315 0.86658
 N176 N 0.78559 0.10870 0.88680
 C177 C 0.87616 0.11980 0.91838
 C178 C 0.90027 0.09647 0.93518
 C179 C 0.77116 0.22207 0.83391
 C180 C 0.74990 0.24300 0.81434
 C181 C 0.70110 0.85311 0.39771
 N182 N 0.67416 0.78957 0.38781
 N183 N 0.62461 0.76512 0.36760
 C184 C 0.60053 0.80348 0.35666
 N185 N 0.62739 0.86698 0.36660
 N186 N 0.67694 0.89143 0.38682
 C187 C 0.75644 0.88035 0.41838
 C188 C 0.80390 0.90369 0.43518
 C189 C 0.54918 0.77808 0.33391
 C190 C 0.50699 0.75716 0.31434
 C191 C 0.15200 0.29904 0.39771
 N192 N 0.21452 0.32326 0.38685
 N193 N 0.23962 0.37281 0.36664
 C194 C 0.20295 0.39961 0.35667
 N195 N 0.14047 0.37547 0.36757
 N196 N 0.11538 0.32592 0.38779
 C197 C 0.12390 0.24369 0.41838
 C198 C 0.09979 0.19624 0.43518
 C199 C 0.22890 0.45096 0.33391
 C200 C 0.25017 0.49315 0.31434
 C201 C 0.14704 0.84814 0.39771
 N202 N 0.10875 0.78562 0.38685
 N203 N 0.13319 0.76052 0.36664
 C204 C 0.19666 0.79719 0.35667
 N205 N 0.23499 0.85967 0.36757
 N206 N 0.21055 0.88477 0.38778
 C207 C 0.11979 0.87623 0.41838
 C208 C 0.09645 0.90034 0.43518
 C209 C 0.22206 0.77124 0.33391
 C210 C 0.24298 0.74997 0.31434
   
