data_POSCAR
  _audit_creation_date              2014-09-24
  _audit_creation_method            'ToBaCCo'
  _symmetry_space_group_name_H-M    'P1'
  _symmetry_Int_Tables_number       1
  _symmetry_cell_setting            triclinic
  loop_
  _symmetry_equiv_pos_as_xyz
 x,y,z
_cell_length_a 28.6079
_cell_length_b 28.5287
_cell_length_c 36.0698
_cell_angle_alpha 89.960500
_cell_angle_beta 88.892700
_cell_angle_gamma 89.902000
loop_
  _atom_site_label
  _atom_site_type_symbol
  _atom_site_fract_x
  _atom_site_fract_y
  _atom_site_fract_z
C1 C 0.00033 0.54448 1.02050
 C2 C -0.00084 0.54441 0.98136
 C3 C -0.00169 0.50165 0.96224
 C4 C -0.00112 0.45905 0.98154
 C5 C 0.00056 0.45908 1.02059
 C6 C 0.00115 0.50179 1.03978
 H7 H 0.00225 0.50180 1.06987
 H8 H -0.00279 0.50144 0.93217
 C9 C 0.45787 -0.00430 0.51862
 C10 C 0.45866 -0.00394 0.47957
 C11 C 0.50157 -0.00402 0.46018
 C12 C 0.54376 -0.00415 0.47934
 C13 C 0.54293 -0.00401 0.51846
 C14 C 0.49998 -0.00424 0.53779
 H15 H 0.49933 -0.00426 0.56788
 H16 H 0.50204 -0.00388 0.43008
 C17 C 0.10121 0.00651 0.26270
 H18 H 0.10325 0.00834 0.23275
 C19 C 0.14207 0.00707 0.28323
 H20 H 0.17576 0.00924 0.26911
 C21 C 0.05482 0.00156 0.31779
 H22 H 0.02079 -0.00006 0.33118
 C23 C 0.09485 0.00204 0.33938
 H24 H 0.09154 0.00036 0.36932
 N25 N 0.05873 0.00305 0.28012
 C26 C -0.03166 -0.06125 0.19846
 H27 H -0.05978 -0.03590 0.19766
 C28 C -0.03365 -0.10183 0.17687
 H29 H -0.06330 -0.10775 0.15925
 C30 C 0.04102 -0.08510 0.22288
 H31 H 0.06966 -0.07897 0.24129
 C32 C 0.04038 -0.12610 0.20178
 H33 H 0.06877 -0.15111 0.20374
 Zn34 Zn 0.00539 0.00172 0.24985
 N35 N 0.00556 -0.05341 0.22057
 C36 C 0.00675 0.05285 0.18183
 N37 N 0.00750 0.05590 0.21949
 C38 C 0.01065 0.09809 0.23684
 C39 C 0.01160 0.13954 0.21625
 C40 C 0.00764 0.09350 0.16018
 C41 C -0.05869 -0.03639 0.30143
 C42 C -0.09968 -0.03875 0.32307
 C43 C -0.12313 0.03605 0.29796
 C44 C -0.08175 0.03704 0.27682
 N45 N -0.05027 0.00136 0.27921
 H46 H 0.00536 0.01904 0.16849
 H47 H 0.01187 0.09944 0.26678
 H48 H 0.01346 0.17300 0.23033
 H49 H 0.00650 0.09087 0.13025
 H50 H -0.03349 -0.06467 0.30230
 H51 H -0.10606 -0.06883 0.34079
 H52 H -0.14796 0.06461 0.29593
 H53 H -0.07514 0.06612 0.25831
 C54 C 0.00278 -0.13447 0.17852
 C55 C 0.13885 0.00452 0.32191
 C56 C -0.13211 -0.00211 0.32134
 C57 C 0.00976 0.13721 0.17759
 C58 C -0.01080 0.09693 0.76326
 H59 H -0.01191 0.09841 0.73332
 C60 C -0.01186 0.13830 0.78392
 H61 H -0.01370 0.17182 0.76990
 C62 C -0.00708 0.05145 0.81821
 H63 H -0.00572 0.01757 0.83151
 C64 C -0.00809 0.09200 0.83993
 H65 H -0.00707 0.08923 0.86986
 N66 N -0.00768 0.05466 0.78056
 C67 C 0.05887 -0.03752 0.69864
 H68 H 0.03375 -0.06578 0.69778
 C69 C 0.09982 -0.03983 0.67696
 H70 H 0.10627 -0.06986 0.65921
 C71 C 0.08172 0.03586 0.72326
 H72 H 0.07504 0.06491 0.74177
 C73 C 0.12307 0.03491 0.70207
 H74 H 0.14780 0.06348 0.70406
 Zn75 Zn -0.00537 0.00057 0.75015
 N76 N 0.05035 0.00020 0.72088
 C77 C -0.05452 0.00073 0.68211
 N78 N -0.05861 0.00207 0.71977
 C79 C -0.10118 0.00548 0.73707
 C80 C -0.14194 0.00616 0.71641
 C81 C -0.09444 0.00134 0.66039
 C82 C 0.03166 -0.06254 0.80158
 C83 C 0.03362 -0.10307 0.82328
 C84 C -0.04034 -0.12717 0.79833
 C85 C -0.04095 -0.08622 0.77712
 N86 N -0.00551 -0.05462 0.77942
 H87 H -0.02042 -0.00084 0.66881
 H88 H -0.10337 0.00719 0.76702
 H89 H -0.17571 0.00829 0.73043
 H90 H -0.09097 -0.00021 0.63045
 H91 H 0.05976 -0.03725 0.80238
 H92 H 0.06322 -0.10902 0.84097
 H93 H -0.06873 -0.15210 0.79639
 H94 H -0.06956 -0.08003 0.75866
 C95 C 0.13212 -0.00319 0.67865
 C96 C -0.01018 0.13579 0.82258
 C97 C -0.00280 -0.13559 0.82167
 C98 C -0.13853 0.00377 0.67774
 C99 C 0.00042 -0.33577 0.07854
 N100 N -0.00038 -0.33686 0.11614
 N101 N -0.00040 -0.29713 0.13554
 C102 C 0.00033 -0.25510 0.11795
 N103 N 0.00113 -0.25400 0.08034
 N104 N 0.00115 -0.29374 0.06093
 C105 C 0.00051 -0.37858 0.05771
 C106 C 0.00051 -0.41462 0.04028
 C107 C 0.00078 -0.21240 0.13892
 C108 C 0.00147 -0.17674 0.15682
 C109 C 0.00475 0.33910 0.07824
 N110 N 0.00216 0.29719 0.06067
 N111 N 0.00361 0.25734 0.07993
 C112 C 0.00775 0.25821 0.11732
 N113 N 0.01035 0.30013 0.13487
 N114 N 0.00889 0.33997 0.11562
 C115 C 0.00312 0.38203 0.05757
 C116 C 0.00184 0.41816 0.04026
 C117 C 0.00885 0.21539 0.13817
 C118 C 0.00948 0.17962 0.15598
 C119 C 0.33485 -0.00561 0.57794
 N120 N 0.33510 -0.00964 0.61540
 N121 N 0.29508 -0.00982 0.63493
 C122 C 0.25360 -0.00603 0.61759
 N123 N 0.25334 -0.00202 0.58012
 N124 N 0.29337 -0.00184 0.56058
 C125 C 0.37798 -0.00513 0.55699
 C126 C 0.41431 -0.00471 0.53951
 C127 C 0.21061 -0.00554 0.63874
 C128 C 0.17471 -0.00473 0.65679
 C129 C -0.33679 -0.00105 0.57762
 N130 N -0.33885 0.00066 0.61519
 N131 N -0.29973 0.00194 0.63462
 C132 C -0.25737 0.00159 0.61708
 N133 N -0.25530 -0.00012 0.57950
 N134 N -0.29444 -0.00140 0.56006
 C135 C -0.37895 -0.00232 0.55676
 C136 C -0.41447 -0.00322 0.53933
 C137 C -0.21531 0.00267 0.63809
 C138 C -0.18019 0.00335 0.65602
 C139 C -0.00079 -0.33620 0.92273
 N140 N -0.00012 -0.33758 0.88514
 N141 N -0.00004 -0.29800 0.86551
 C142 C -0.00058 -0.25584 0.88286
 N143 N -0.00125 -0.25445 0.92046
 N144 N -0.00133 -0.29404 0.94010
 C145 C -0.00094 -0.37885 0.94381
 C146 C -0.00097 -0.41479 0.96142
 C147 C -0.00095 -0.21329 0.86164
 C148 C -0.00158 -0.17775 0.84355
 C149 C -0.00543 0.33703 0.92252
 N150 N -0.00253 0.29499 0.93993
 N151 N -0.00396 0.25528 0.92054
 C152 C -0.00838 0.25642 0.88318
 N153 N -0.01129 0.29845 0.86579
 N154 N -0.00986 0.33816 0.88516
 C155 C -0.00379 0.37981 0.94332
 C156 C -0.00249 0.41584 0.96070
 C157 C -0.00942 0.21374 0.86219
 C158 C -0.00999 0.17809 0.84429
 C159 C -0.33536 -0.00505 0.42136
 N160 N -0.33541 -0.00842 0.38386
 N161 N -0.29528 -0.00849 0.36447
 C162 C -0.25390 -0.00524 0.38200
 N163 N -0.25384 -0.00188 0.41951
 N164 N -0.29397 -0.00181 0.43890
 C165 C -0.37860 -0.00470 0.44217
 C166 C -0.41500 -0.00441 0.45959
 C167 C -0.21078 -0.00465 0.36101
 C168 C -0.17479 -0.00375 0.34308
 C169 C 0.33793 -0.00076 0.42105
 N170 N 0.33965 0.00115 0.38348
 N171 N 0.30035 0.00251 0.36426
 C172 C 0.25814 0.00204 0.38203
 N173 N 0.25641 0.00014 0.41961
 N174 N 0.29572 -0.00122 0.43883
 C175 C 0.38028 -0.00211 0.44168
 C176 C 0.41594 -0.00308 0.45892
 C177 C 0.21590 0.00323 0.36125
 C178 C 0.18064 0.00399 0.34348
   
