data_POSCAR
  _audit_creation_date              2014-09-24
  _audit_creation_method            'ToBaCCo'
  _symmetry_space_group_name_H-M    'P1'
  _symmetry_Int_Tables_number       1
  _symmetry_cell_setting            triclinic
  loop_
  _symmetry_equiv_pos_as_xyz
 x,y,z
_cell_length_a 44.2843
_cell_length_b 47.1215
_cell_length_c 45.8987
_cell_angle_alpha 92.977300
_cell_angle_beta 90.285300
_cell_angle_gamma 95.754500
loop_
  _atom_site_label
  _atom_site_type_symbol
  _atom_site_fract_x
  _atom_site_fract_y
  _atom_site_fract_z
C1 C 0.20353 0.52166 1.02686
 H2 H 0.20503 0.53541 1.00865
 C3 C 0.18199 0.52525 1.04842
 H4 H 0.16803 0.54269 1.04686
 C5 C 0.22038 0.48242 1.05021
 H6 H 0.23453 0.46502 1.05013
 C7 C 0.19955 0.48557 1.07265
 H8 H 0.19815 0.47008 1.08929
 N9 N 0.22163 0.50012 1.02773
 C10 C 0.28973 0.52313 0.96314
 H11 H 0.28354 0.50601 0.94693
 C12 C 0.31355 0.54373 0.95786
 H13 H 0.32489 0.54256 0.93708
 C14 C 0.28164 0.54525 1.00958
 H15 H 0.26934 0.54536 1.02988
 C16 C 0.30606 0.56592 1.00558
 H17 H 0.31245 0.58161 1.02314
 Zn18 Zn 0.24417 0.49373 0.99372
 N19 N 0.27420 0.52432 0.98852
 C20 C 0.21617 0.51158 0.94317
 N21 N 0.21577 0.49060 0.96246
 C22 C 0.19332 0.46863 0.96162
 C23 C 0.17049 0.46680 0.94029
 C24 C 0.19375 0.51069 0.92165
 C25 C 0.28684 0.46070 1.01612
 C26 C 0.30577 0.43871 1.01631
 C27 C 0.27900 0.41654 0.97373
 C28 C 0.26061 0.43898 0.97433
 N29 N 0.26493 0.46057 0.99524
 H30 H 0.23322 0.52964 0.94503
 H31 H 0.19300 0.45268 0.97777
 H32 H 0.15301 0.44899 0.93978
 H33 H 0.19411 0.52805 0.90707
 H34 H 0.29029 0.47848 1.03206
 H35 H 0.32376 0.43981 1.03250
 H36 H 0.27540 0.39971 0.95673
 H37 H 0.24369 0.43958 0.95742
 C38 C 0.32264 0.56518 0.97949
 C39 C 0.17903 0.50664 1.07157
 C40 C 0.30231 0.41646 0.99461
 C41 C 0.17047 0.48810 0.91998
 C42 C 0.81256 0.53695 -0.03916
 H43 H 0.81260 0.55152 -0.02015
 C44 C 0.83197 0.54344 -0.06226
 H45 H 0.84719 0.56293 -0.06053
 C46 C 0.79345 0.49328 -0.06357
 H47 H 0.77887 0.47348 -0.06379
 C48 C 0.81222 0.49911 -0.08738
 H49 H 0.81111 0.48395 -0.10598
 N50 N 0.79362 0.51237 -0.04029
 C51 C 0.72539 0.53565 0.02164
 H52 H 0.72837 0.52039 0.03798
 C53 C 0.70408 0.55525 0.02584
 H54 H 0.69153 0.55532 0.04600
 C55 C 0.73877 0.55390 -0.02415
 H56 H 0.75191 0.55281 -0.04389
 C57 C 0.71698 0.57338 -0.02125
 H58 H 0.71360 0.58694 -0.03904
 Zn59 Zn 0.76868 0.50632 -0.00733
 N60 N 0.74248 0.53552 -0.00284
 C61 C 0.79626 0.52954 0.04562
 N62 N 0.79479 0.50706 0.02565
 C63 C 0.81377 0.48624 0.02743
 C64 C 0.83516 0.48746 0.05011
 C65 C 0.81710 0.53150 0.06870
 C66 C 0.72436 0.46923 -0.03579
 C67 C 0.70061 0.44752 -0.03867
 C68 C 0.71431 0.43153 0.00829
 C69 C 0.73844 0.45327 0.00996
 N70 N 0.74258 0.47190 -0.01170
 H71 H 0.78187 0.54648 0.04335
 H72 H 0.81265 0.46895 0.01088
 H73 H 0.85049 0.47099 0.05075
 H74 H 0.81756 0.54946 0.08445
 H75 H 0.72751 0.48480 -0.05229
 H76 H 0.68643 0.44610 -0.05807
 H77 H 0.71025 0.41806 0.02654
 H78 H 0.75258 0.45633 0.02936
 C79 C 0.69907 0.57418 0.00400
 C80 C 0.83185 0.52453 -0.08698
 C81 C 0.69442 0.42898 -0.01594
 C82 C 0.83715 0.51044 0.07107
 C83 C -0.03927 0.25355 0.44881
 H84 H -0.05708 0.23683 0.45271
 C85 C -0.04197 0.27100 0.42537
 H86 H -0.06230 0.26715 0.41205
 C87 C 0.00677 0.28020 0.46374
 H88 H 0.02562 0.28378 0.47903
 C89 C 0.00528 0.29785 0.44054
 H90 H 0.02422 0.31381 0.43801
 N91 N -0.01501 0.25833 0.46728
 C92 C -0.05411 0.20272 0.53013
 H93 H -0.04842 0.21743 0.54865
 C94 C -0.07443 0.17856 0.53354
 H95 H -0.08474 0.17499 0.55456
 C96 C -0.04620 0.18826 0.48072
 H97 H -0.03426 0.19175 0.46051
 C98 C -0.06693 0.16415 0.48299
 H99 H -0.07117 0.14913 0.46439
 Zn100 Zn -0.01023 0.23794 0.50110
 N101 N -0.04055 0.20715 0.50400
 C102 C -0.04047 0.27533 0.53496
 N103 N -0.01307 0.26489 0.53238
 C104 C 0.01135 0.27635 0.54862
 C105 C 0.00889 0.30021 0.56761
 C106 C -0.04403 0.29878 0.55384
 C107 C 0.04528 0.22374 0.47667
 C108 C 0.07119 0.20924 0.47505
 C109 C 0.06039 0.19242 0.52309
 C110 C 0.03480 0.20756 0.52394
 N111 N 0.02754 0.22249 0.50077
 H112 H -0.05934 0.26602 0.52140
 H113 H 0.03309 0.26807 0.54561
 H114 H 0.02890 0.31011 0.57918
 H115 H -0.06599 0.30698 0.55518
 H116 H 0.03879 0.23500 0.45812
 H117 H 0.08479 0.21035 0.45553
 H118 H 0.06495 0.17959 0.54119
 H119 H 0.01999 0.20650 0.54261
 C120 C -0.08097 0.15903 0.50976
 C121 C -0.01959 0.29393 0.42082
 C122 C 0.07863 0.19268 0.49811
 C123 C -0.01892 0.31220 0.56971
 C124 C 0.96249 0.72395 0.52015
 H125 H 0.94330 0.72625 0.50611
 C126 C 0.95868 0.70716 0.54436
 H127 H 0.93647 0.69650 0.54863
 C128 C 1.01511 0.73360 0.53049
 H129 H 1.03716 0.74351 0.52459
 C130 C 1.01229 0.71727 0.55498
 H131 H 1.03226 0.71531 0.56813
 N132 N 0.99041 0.73663 0.51365
 C133 C 0.94551 0.76897 0.44364
 H134 H 0.95447 0.75561 0.42665
 C135 C 0.92000 0.78314 0.43781
 H136 H 0.90962 0.78070 0.41630
 C137 C 0.94791 0.78875 0.49221
 H138 H 0.95897 0.79103 0.51334
 C139 C 0.92227 0.80284 0.48750
 H140 H 0.91408 0.81624 0.50501
 Zn141 Zn 0.99603 0.75701 0.47920
 N142 N 0.95932 0.77255 0.47035
 C143 C 1.01133 0.73871 0.42053
 N144 N 1.00773 0.73131 0.44873
 C145 C 1.01241 0.70465 0.45661
 C146 C 1.02120 0.68440 0.43611
 C147 C 1.01963 0.71875 0.39904
 C148 C 1.02607 0.80151 0.51372
 C149 C 1.04653 0.82524 0.52097
 C150 C 1.06786 0.82100 0.47283
 C151 C 1.04717 0.79692 0.46663
 N152 N 1.02651 0.78792 0.48689
 H153 H 1.00760 0.76001 0.41463
 H154 H 1.00942 0.69886 0.47891
 H155 H 1.02472 0.66329 0.44292
 H156 H 1.02230 0.72474 0.37668
 H157 H 1.00974 0.79391 0.52967
 H158 H 1.04581 0.83535 0.54264
 H159 H 1.08336 0.82844 0.45607
 H160 H 1.04725 0.78591 0.44542
 C161 C 0.90829 0.80051 0.45989
 C162 C 0.98388 0.70339 0.56197
 C163 C 1.06741 0.83576 0.50023
 C164 C 1.02493 0.69131 0.40696
 C165 C 0.44480 -0.03377 0.28856
 H166 H 0.45961 -0.05036 0.28414
 C167 C 0.42430 -0.03602 0.31157
 H168 H 0.42343 -0.05444 0.32482
 C169 C 0.42904 0.01109 0.27751
 H170 H 0.43136 0.02967 0.26457
 C171 C 0.40841 0.00981 0.30043
 H172 H 0.39459 0.02726 0.30455
 N173 N 0.44674 -0.01052 0.27205
 C174 C 0.49156 -0.03742 0.19268
 H175 H 0.50890 -0.01960 0.19186
 C176 C 0.49061 -0.05976 0.17153
 H177 H 0.50692 -0.05795 0.15410
 C178 C 0.44860 -0.05964 0.21596
 H179 H 0.43232 -0.05949 0.23340
 C180 C 0.44660 -0.08247 0.19506
 H181 H 0.42911 -0.09986 0.19764
 Zn182 Zn 0.47719 -0.00757 0.24325
 N183 N 0.47134 -0.03812 0.21479
 C184 C 0.53114 -0.03160 0.25715
 N185 N 0.51481 -0.00899 0.26273
 C186 C 0.52339 0.01119 0.28423
 C187 C 0.54932 0.00905 0.30114
 C188 C 0.55710 -0.03463 0.27357
 C189 C 0.45076 0.02811 0.20685
 C190 C 0.44774 0.05194 0.19073
 C191 C 0.49708 0.07229 0.20841
 C192 C 0.49922 0.04788 0.22418
 N193 N 0.47602 0.02658 0.22337
 H194 H 0.52347 -0.04800 0.24073
 H195 H 0.50966 0.02863 0.28867
 H196 H 0.55574 0.02532 0.31818
 H197 H 0.56907 -0.05334 0.26938
 H198 H 0.43293 0.01062 0.20616
 H199 H 0.42752 0.05243 0.17749
 H200 H 0.51548 0.08927 0.20972
 H201 H 0.51941 0.04601 0.23695
 C202 C 0.46836 -0.08334 0.17269
 C203 C 0.40602 -0.01387 0.31794
 C204 C 0.47095 0.07461 0.19152
 C205 C 0.56635 -0.01433 0.29615
 C206 C 0.52871 -0.01635 0.72462
 H207 H 0.50710 -0.02882 0.72712
 C208 C 0.54781 -0.02366 0.70215
 H209 H 0.54045 -0.04151 0.68711
 C210 C 0.56438 0.02192 0.74157
 H211 H 0.57074 0.03942 0.75727
 C212 C 0.58440 0.01524 0.71922
 H213 H 0.60626 0.02763 0.71791
 N214 N 0.53742 0.00567 0.74411
 C215 C 0.49429 -0.02514 0.82306
 H216 H 0.47700 -0.01087 0.82748
 C217 C 0.49880 -0.04650 0.84234
 H218 H 0.48482 -0.04869 0.86153
 C219 C 0.53474 -0.03881 0.79363
 H220 H 0.54937 -0.03549 0.77515
 C221 C 0.54010 -0.06013 0.81228
 H222 H 0.55831 -0.07332 0.80743
 Zn223 Zn 0.50953 0.00934 0.77482
 N224 N 0.51225 -0.02168 0.79926
 C225 C 0.44648 -0.00991 0.76265
 N226 N 0.47102 0.00849 0.75646
 C227 C 0.47021 0.02655 0.73438
 C228 C 0.44427 0.02626 0.71708
 C229 C 0.41971 -0.01054 0.74611
 C230 C 0.54344 0.04780 0.81486
 C231 C 0.54785 0.07112 0.83515
 C232 C 0.49990 0.08602 0.81983
 C233 C 0.49639 0.06250 0.79995
 N234 N 0.51782 0.04375 0.79804
 H235 H 0.44778 -0.02442 0.77998
 H236 H 0.49014 0.04078 0.72980
 H237 H 0.44419 0.04056 0.69936
 H238 H 0.40036 -0.02544 0.75090
 H239 H 0.55988 0.03230 0.81332
 H240 H 0.56781 0.07343 0.84912
 H241 H 0.48236 0.10047 0.82118
 H242 H 0.47598 0.05877 0.78678
 C243 C 0.52236 -0.06396 0.83721
 C244 C 0.57637 -0.00828 0.69961
 C245 C 0.52554 0.09025 0.83825
 C246 C 0.41871 0.00740 0.72271
 C247 C 0.24161 0.05539 0.52869
 C248 C 0.26185 0.04845 0.55422
 C249 C 0.27696 0.02491 0.54872
 C250 C 0.27026 0.01017 0.51832
 C251 C 0.26327 0.05758 0.50281
 C252 C 0.27825 0.03408 0.49720
 C253 C 0.22090 0.02790 0.52199
 C254 C 0.23544 0.00406 0.51691
 H255 H 0.26687 0.06239 0.57343
 H256 H 0.28260 -0.00897 0.51418
 H257 H 0.26674 0.07650 0.49032
 H258 H 0.19645 0.02776 0.52117
 C259 C 0.74523 -0.06270 0.49381
 C260 C 0.72826 -0.05565 0.52217
 C261 C 0.71535 -0.03054 0.52243
 C262 C 0.72081 -0.01452 0.49434
 C263 C 0.72184 -0.06107 0.46927
 C264 C 0.70894 -0.03601 0.46973
 C265 C 0.76809 -0.03629 0.49097
 C266 C 0.75536 -0.01124 0.49100
 H267 H 0.72858 -0.06772 0.54146
 H268 H 0.71060 0.00602 0.49407
 H269 H 0.71502 -0.07878 0.45388
 H270 H 0.79235 -0.03736 0.48937
 C271 C 0.46235 0.27645 1.03203
 C272 C 0.45845 0.25437 1.00612
 C273 C 0.48221 0.23835 1.00208
 C274 C 0.50798 0.24578 1.02464
 C275 C 0.46839 0.25845 1.05801
 C276 C 0.49195 0.24201 1.05420
 C277 C 0.49258 0.29383 1.02693
 C278 C 0.51655 0.27817 1.02286
 H279 H 0.43804 0.25106 0.99278
 H280 H 0.52724 0.23271 1.02119
 H281 H 0.45377 0.25697 1.07673
 H282 H 0.49474 0.31695 1.02735
 C283 C 0.55310 0.73131 -0.00963
 C284 C 0.54887 0.75266 -0.03332
 C285 C 0.52368 0.76694 -0.02966
 C286 C 0.50491 0.75858 -0.00279
 C287 C 0.55260 0.74903 0.01916
 C288 C 0.52786 0.76378 0.02267
 C289 C 0.52310 0.71206 -0.01052
 C290 C 0.49781 0.72599 -0.00688
 H291 H 0.56346 0.75552 -0.05196
 H292 H 0.48465 0.77045 0.00011
 H293 H 0.57153 0.75127 0.03442
 H294 H 0.52222 0.68909 -0.01380
 C295 C 1.00489 0.46201 0.28466
 C296 C 0.97919 0.45706 0.26179
 C297 C 0.98123 0.47602 0.24021
 C298 C 1.00859 0.49895 0.24400
 C299 C 1.03407 0.46250 0.26689
 C300 C 1.03636 0.48179 0.24568
 C301 C 1.00347 0.49299 0.29596
 C302 C 1.00576 0.51228 0.27495
 H303 H 0.96008 0.44106 0.26320
 H304 H 1.01031 0.51512 0.22726
 H305 H 1.05085 0.44777 0.27031
 H306 H 1.00109 0.49927 0.31882
 C307 C 0.01176 0.54531 0.70551
 C308 C -0.01510 0.54302 0.72684
 C309 C -0.01567 0.52013 0.74402
 C310 C 0.01075 0.50175 0.73841
 C311 C 0.03984 0.54548 0.72528
 C312 C 0.03949 0.52269 0.74231
 C313 C 0.00938 0.51622 0.68868
 C314 C 0.00892 0.49343 0.70569
 H315 H -0.03213 0.55784 0.72847
 H316 H 0.01067 0.48321 0.75230
 H317 H 0.05801 0.56271 0.72625
 H318 H 0.00891 0.51410 0.66506
 C319 C 0.12210 0.16927 0.51905
 C320 C 0.14426 0.14996 0.51628
 C321 C 0.14825 0.13544 0.48904
 C322 C 0.13038 0.14062 0.46504
 C323 C 0.10822 0.15954 0.46804
 C324 C 0.10366 0.17397 0.49503
 C325 C 0.16953 0.11546 0.48629
 C326 C 0.18659 0.10937 0.51054
 C327 C 0.18301 0.12399 0.53773
 C328 C 0.16203 0.14443 0.54041
 C329 C 0.19991 0.11731 0.56192
 C330 C 0.21956 0.09582 0.55938
 C331 C 0.22305 0.08086 0.53240
 C332 C 0.20653 0.08818 0.50808
 H333 H 0.11903 0.18042 0.53991
 H334 H 0.13308 0.12957 0.44406
 H335 H 0.09402 0.16222 0.44932
 H336 H 0.17231 0.10415 0.46542
 H337 H 0.15902 0.15549 0.56135
 H338 H 0.19737 0.12821 0.58301
 H339 H 0.23110 0.09067 0.57887
 H340 H 0.20851 0.07654 0.48727
 C341 C 0.67689 0.62034 -0.00558
 C342 C 0.65325 0.63812 -0.00297
 C343 C 0.62729 0.62946 0.01340
 C344 C 0.62497 0.60304 0.02617
 C345 C 0.64807 0.58517 0.02275
 C346 C 0.67451 0.59361 0.00718
 C347 C 0.60376 0.64709 0.01639
 C348 C 0.60523 0.67284 0.00232
 C349 C 0.63073 0.68136 -0.01463
 C350 C 0.65490 0.66418 -0.01677
 C351 C 0.63143 0.70683 -0.02927
 C352 C 0.60671 0.72320 -0.02783
 C353 C 0.58081 0.71449 -0.01157
 C354 C 0.58113 0.68985 0.00449
 H355 H 0.69708 0.62746 -0.01746
 H356 H 0.60500 0.59593 0.03841
 H357 H 0.64481 0.56446 0.03202
 H358 H 0.58396 0.64043 0.02912
 H359 H 0.67462 0.67079 -0.02959
 H360 H 0.65096 0.71394 -0.04208
 H361 H 0.60830 0.74278 -0.03921
 H362 H 0.56215 0.68348 0.01833
 C363 C 0.85926 -0.18088 0.47436
 C364 C 0.83767 -0.16134 0.47146
 C365 C 0.83953 -0.14310 0.44787
 C366 C 0.86205 -0.14579 0.42680
 C367 C 0.88351 -0.16529 0.42990
 C368 C 0.88282 -0.18237 0.45412
 C369 C 0.81964 -0.12181 0.44639
 C370 C 0.79824 -0.11829 0.46843
 C371 C 0.79552 -0.13741 0.49120
 C372 C 0.81506 -0.15895 0.49246
 C373 C 0.77384 -0.13414 0.51287
 C374 C 0.75637 -0.11106 0.51317
 C375 C 0.76047 -0.09044 0.49195
 C376 C 0.78042 -0.09525 0.46875
 H377 H 0.85840 -0.19426 0.49292
 H378 H 0.86370 -0.13214 0.40847
 H379 H 0.90155 -0.16604 0.41411
 H380 H 0.82158 -0.10732 0.42872
 H381 H 0.81342 -0.17315 0.51037
 H382 H 0.77089 -0.14907 0.53005
 H383 H 0.74003 -0.10966 0.53037
 H384 H 0.78311 -0.08018 0.45166
 C385 C 0.33519 0.38319 1.01799
 C386 C 0.35712 0.36359 1.01608
 C387 C 0.36806 0.35498 0.98845
 C388 C 0.35667 0.36582 0.96323
 C389 C 0.33497 0.38535 0.96532
 C390 C 0.32411 0.39440 0.99265
 C391 C 0.39044 0.33593 0.98645
 C392 C 0.40208 0.32534 1.01173
 C393 C 0.39100 0.33371 1.03934
 C394 C 0.36856 0.35274 1.04137
 C395 C 0.40301 0.32329 1.06450
 C396 C 0.42569 0.30470 1.06240
 C397 C 0.43654 0.29561 1.03499
 C398 C 0.42490 0.30674 1.00980
 H399 H 0.32680 0.38975 1.03918
 H400 H 0.36485 0.35949 0.94189
 H401 H 0.32726 0.39395 0.94549
 H402 H 0.39892 0.32950 0.96524
 H403 H 0.36022 0.35932 1.06259
 H404 H 0.39515 0.32985 1.08590
 H405 H 0.43507 0.29820 1.08247
 H406 H 0.43387 0.30114 0.98858
 C407 C 0.87311 0.12607 0.49532
 C408 C 0.85420 0.10070 0.49847
 C409 C 0.86168 0.08142 0.51937
 C410 C 0.88734 0.08822 0.53734
 C411 C 0.90563 0.11378 0.53448
 C412 C 0.89884 0.13266 0.51330
 C413 C 0.84347 0.05562 0.52195
 C414 C 0.81758 0.04904 0.50427
 C415 C 0.80944 0.06871 0.48407
 C416 C 0.82797 0.09433 0.48111
 C417 C 0.78293 0.06232 0.46712
 C418 C 0.76492 0.03650 0.46986
 C419 C 0.77348 0.01655 0.48914
 C420 C 0.79970 0.02301 0.50645
 H421 H 0.86775 0.14082 0.47914
 H422 H 0.89328 0.07376 0.55356
 H423 H 0.92548 0.11861 0.54842
 H424 H 0.84946 0.04067 0.53769
 H425 H 0.82200 0.10926 0.46535
 H426 H 0.77621 0.07722 0.45169
 H427 H 0.74471 0.03177 0.45638
 H428 H 0.80603 0.00779 0.52175
 C429 C 0.35285 0.61356 -0.01219
 C430 C 0.37946 0.63200 -0.01573
 C431 C 0.40330 0.62243 -0.03281
 C432 C 0.40055 0.59468 -0.04551
 C433 C 0.37456 0.57630 -0.04119
 C434 C 0.35020 0.58543 -0.02478
 C435 C 0.42995 0.64041 -0.03638
 C436 C 0.43376 0.66749 -0.02208
 C437 C 0.41031 0.67720 -0.00466
 C438 C 0.38297 0.65958 -0.00203
 C439 C 0.41504 0.70405 0.01036
 C440 C 0.44319 0.72046 0.00907
 C441 C 0.46684 0.71052 -0.00768
 C442 C 0.46132 0.68447 -0.02412
 H443 H 0.33435 0.62114 0.00037
 H444 H 0.41884 0.58694 -0.05830
 H445 H 0.37394 0.55463 -0.05037
 H446 H 0.44817 0.63293 -0.04949
 H447 H 0.36488 0.66695 0.01132
 H448 H 0.39735 0.71193 0.02384
 H449 H 0.44670 0.74039 0.02199
 H450 H 0.47878 0.67689 -0.03809
 C451 C 0.11743 -0.13355 0.49672
 C452 C 0.13595 -0.10798 0.50360
 C453 C 0.12432 -0.08618 0.52126
 C454 C 0.09451 -0.08994 0.53130
 C455 C 0.07621 -0.11511 0.52408
 C456 C 0.08741 -0.13736 0.50703
 C457 C 0.14247 -0.06073 0.52839
 C458 C 0.17196 -0.05634 0.51757
 C459 C 0.18376 -0.07780 0.49969
 C460 C 0.16576 -0.10370 0.49303
 C461 C 0.21319 -0.07272 0.48858
 C462 C 0.23036 -0.04636 0.49451
 C463 C 0.21851 -0.02474 0.51188
 C464 C 0.18953 -0.03041 0.52398
 H465 H 0.12647 -0.15050 0.48367
 H466 H 0.08520 -0.07328 0.54455
 H467 H 0.05302 -0.11697 0.53165
 H468 H 0.13343 -0.04410 0.54197
 H469 H 0.17476 -0.12027 0.47936
 H470 H 0.22271 -0.08890 0.47483
 H471 H 0.25255 -0.04279 0.48489
 H472 H 0.18033 -0.01454 0.53836
 C473 C 0.66391 0.38253 0.99602
 C474 C 0.63603 0.36521 0.99655
 C475 C 0.60983 0.37486 0.98418
 C476 C 0.61174 0.40135 0.97159
 C477 C 0.63920 0.41850 0.97155
 C478 C 0.66569 0.40944 0.98360
 C479 C 0.58185 0.35829 0.98514
 C480 C 0.57935 0.33241 0.99899
 C481 C 0.60533 0.32239 1.01127
 C482 C 0.63367 0.33873 1.00970
 C483 C 0.60223 0.29654 1.02546
 C484 C 0.57352 0.28147 1.02843
 C485 C 0.54750 0.29190 1.01710
 C486 C 0.55090 0.31694 1.00155
 H487 H 0.68404 0.37513 1.00533
 H488 H 0.59178 0.40911 0.96229
 H489 H 0.63938 0.43934 0.96266
 H490 H 0.56181 0.36594 0.97581
 H491 H 0.65363 0.33120 1.01928
 H492 H 0.62186 0.28839 1.03496
 H493 H 0.57158 0.26227 1.04052
 H494 H 0.53119 0.32485 0.99192
 C495 C 0.49216 0.11420 1.16005
 C496 C 0.48809 0.13762 1.14310
 C497 C 0.45898 0.14730 1.14099
 C498 C 0.43472 0.13403 1.15631
 C499 C 0.43895 0.11092 1.17311
 C500 C 0.46749 0.10040 1.17486
 C501 C 0.45442 0.16995 1.12342
 C502 C 0.47859 0.18325 1.10794
 C503 C 0.50787 0.17412 1.11036
 C504 C 0.51246 0.15128 1.12790
 C505 C 0.53191 0.18785 1.09493
 C506 C 0.52690 0.21020 1.07708
 C507 C 0.49775 0.21920 1.07422
 C508 C 0.47371 0.20541 1.08981
 H509 H 0.51426 0.10627 1.16104
 H510 H 0.41236 0.14140 1.15515
 H511 H 0.41974 0.10123 1.18480
 H512 H 0.43198 0.17711 1.12166
 H513 H 0.53486 0.14403 1.12955
 H514 H 0.55458 0.18126 1.09659
 H515 H 0.54593 0.22048 1.06564
 H516 H 0.45085 0.21125 1.08733
 C517 C 0.00402 0.66637 0.59193
 C518 C 0.00135 0.64740 0.61450
 C519 C -0.02485 0.64565 0.63202
 C520 C -0.04777 0.66333 0.62683
 C521 C -0.04488 0.68231 0.60431
 C522 C -0.01902 0.68396 0.58655
 C523 C -0.02780 0.62608 0.65416
 C524 C -0.00488 0.60817 0.65886
 C525 C 0.02142 0.61032 0.64145
 C526 C 0.02440 0.62990 0.61948
 C527 C 0.04419 0.59246 0.64589
 C528 C 0.04080 0.57226 0.66700
 C529 C 0.01472 0.56948 0.68451
 C530 C -0.00809 0.58780 0.68029
 H531 H 0.02381 0.66692 0.57810
 H532 H -0.06797 0.66241 0.64010
 H533 H -0.06282 0.69582 0.60090
 H534 H -0.04801 0.62456 0.66746
 H535 H 0.04452 0.63129 0.60603
 H536 H 0.06446 0.59378 0.63269
 H537 H 0.05851 0.55824 0.66937
 H538 H -0.02869 0.58602 0.69280
 C539 C 0.50670 0.89546 -0.13078
 C540 C 0.51423 0.87399 -0.11266
 C541 C 0.54501 0.87203 -0.10530
 C542 C 0.56764 0.89165 -0.11586
 C543 C 0.56001 0.91268 -0.13403
 C544 C 0.52961 0.91464 -0.14194
 C545 C 0.55278 0.85038 -0.08773
 C546 C 0.53023 0.83050 -0.07743
 C547 C 0.49942 0.83248 -0.08454
 C548 C 0.49160 0.85421 -0.10211
 C549 C 0.47696 0.81264 -0.07390
 C550 C 0.48492 0.79118 -0.05629
 C551 C 0.51547 0.78902 -0.04920
 C552 C 0.53804 0.80873 -0.05996
 H553 H 0.48322 0.89674 -0.13691
 H554 H 0.59129 0.89055 -0.11030
 H555 H 0.57798 0.92749 -0.14202
 H556 H 0.57641 0.84890 -0.08221
 H557 H 0.46799 0.85565 -0.10767
 H558 H 0.45324 0.81377 -0.07913
 H559 H 0.46717 0.77607 -0.04843
 H560 H 0.56163 0.80751 -0.05420
 C561 C 0.99360 0.34039 0.39917
 C562 C 0.99225 0.35868 0.37622
 C563 C 0.97443 0.34982 0.35122
 C564 C 0.95840 0.32262 0.34961
 C565 C 0.96020 0.30424 0.37240
 C566 C 0.97802 0.31262 0.39766
 C567 C 0.97304 0.36828 0.32829
 C568 C 0.98953 0.39540 0.33006
 C569 C 1.00766 0.40398 0.35501
 C570 C 1.00869 0.38572 0.37800
 C571 C 1.02488 0.43056 0.35645
 C572 C 1.02390 0.44873 0.33357
 C573 C 1.00498 0.44123 0.30903
 C574 C 0.98840 0.41399 0.30719
 H575 H 1.00617 0.34864 0.41856
 H576 H 0.94475 0.31535 0.33049
 H577 H 0.94841 0.28307 0.36934
 H578 H 0.95925 0.36152 0.30910
 H579 H 1.02257 0.39244 0.39715
 H580 H 1.03933 0.43723 0.37519
 H581 H 1.03804 0.46889 0.33510
 H582 H 0.97509 0.40675 0.28795
 C583 C 0.49587 0.88602 0.13935
 C584 C 0.49651 0.86261 0.11938
 C585 C 0.46947 0.84528 0.11187
 C586 C 0.44221 0.85157 0.12490
 C587 C 0.44172 0.87487 0.14504
 C588 C 0.46850 0.89279 0.15244
 C589 C 0.47021 0.82200 0.09151
 C590 C 0.49778 0.81586 0.07880
 C591 C 0.52485 0.83311 0.08681
 C592 C 0.52403 0.85631 0.10697
 C593 C 0.55240 0.82707 0.07437
 C594 C 0.55324 0.80428 0.05395
 C595 C 0.52657 0.78695 0.04559
 C596 C 0.49882 0.79288 0.05811
 H597 H 0.51723 0.89813 0.14546
 H598 H 0.42118 0.83856 0.11938
 H599 H 0.41996 0.87932 0.15377
 H600 H 0.44941 0.80877 0.08557
 H601 H 0.54484 0.86956 0.11290
 H602 H 0.57329 0.84018 0.08019
 H603 H 0.57481 0.80073 0.04412
 H604 H 0.47816 0.77963 0.05188
 C605 C -0.00610 0.34669 0.61290
 C606 C -0.00754 0.37356 0.62735
 C607 C -0.02449 0.39380 0.61477
 C608 C -0.03978 0.38691 0.58822
 C609 C -0.03805 0.36033 0.57395
 C610 C -0.02126 0.33993 0.58602
 C611 C -0.02553 0.42084 0.62861
 C612 C -0.00949 0.42818 0.65470
 C613 C 0.00726 0.40801 0.66758
 C614 C 0.00799 0.38071 0.65390
 C615 C 0.02337 0.41573 0.69367
 C616 C 0.02345 0.44336 0.70644
 C617 C 0.00736 0.46365 0.69338
 C618 C -0.00952 0.45567 0.66778
 H619 H 0.00679 0.33110 0.62251
 H620 H -0.05271 0.40225 0.57825
 H621 H -0.04937 0.35603 0.55299
 H622 H -0.03837 0.43637 0.61878
 H623 H 0.02100 0.36527 0.66363
 H624 H 0.03634 0.40058 0.70389
 H625 H 0.03687 0.44906 0.72604
 H626 H -0.02255 0.47096 0.65783
 C627 C 0.50208 0.11929 0.87767
 C628 C 0.50371 0.14126 0.89959
 C629 C 0.53161 0.15783 0.90579
 C630 C 0.55749 0.15189 0.88994
 C631 C 0.55566 0.12989 0.86807
 C632 C 0.52790 0.11352 0.86157
 C633 C 0.53309 0.18005 0.92760
 C634 C 0.50696 0.18588 0.94320
 C635 C 0.47916 0.16908 0.93695
 C636 C 0.47774 0.14689 0.91531
 C637 C 0.45306 0.17480 0.95234
 C638 C 0.45426 0.19717 0.97353
 C639 C 0.48159 0.21432 0.97982
 C640 C 0.50802 0.20835 0.96476
 H641 H 0.48067 0.10645 0.87333
 H642 H 0.57910 0.16433 0.89437
 H643 H 0.57585 0.12596 0.85593
 H644 H 0.55447 0.19285 0.93232
 H645 H 0.45635 0.13411 0.91055
 H646 H 0.43165 0.16200 0.94794
 H647 H 0.43374 0.20086 0.98524
 H648 H 0.52916 0.22153 0.96933
 C649 C 1.01608 0.66092 0.36054
 C650 C 1.02134 0.63612 0.34365
 C651 C 1.04537 0.62025 0.35150
 C652 C 1.06455 0.63005 0.37501
 C653 C 1.05878 0.65425 0.39196
 C654 C 1.03403 0.66936 0.38546
 C655 C 1.04890 0.59403 0.33683
 C656 C 1.02825 0.58298 0.31493
 C657 C 1.00508 0.59927 0.30595
 C658 C 1.00197 0.62597 0.32019
 C659 C 0.98457 0.58787 0.28387
 C660 C 0.98586 0.55993 0.27221
 C661 C 1.00763 0.54317 0.28252
 C662 C 1.02941 0.55514 0.30307
 H663 H 0.99686 0.67244 0.35557
 H664 H 1.08319 0.61826 0.38112
 H665 H 1.07299 0.66064 0.41092
 H666 H 1.06679 0.58154 0.34349
 H667 H 0.98365 0.63814 0.31397
 H668 H 0.96680 0.60010 0.27651
 H669 H 0.96889 0.55090 0.25636
 H670 H 1.04637 0.54217 0.31086
 C671 C 1.15828 0.49888 0.12067
 C672 C 1.13407 0.49880 0.14032
 C673 C 1.10603 0.50752 0.13137
 C674 C 1.10304 0.51726 0.10335
 C675 C 1.12733 0.51779 0.08406
 C676 C 1.15525 0.50808 0.09208
 C677 C 1.08135 0.50618 0.15048
 C678 C 1.08453 0.49666 0.17868
 C679 C 1.11294 0.48901 0.18802
 C680 C 1.13747 0.48996 0.16876
 C681 C 1.11631 0.48031 0.21644
 C682 C 1.09164 0.47864 0.23528
 C683 C 1.06290 0.48517 0.22598
 C684 C 1.05967 0.49445 0.19759
 H685 H 1.17969 0.49245 0.12812
 H686 H 1.08171 0.52410 0.09613
 H687 H 1.12330 0.52430 0.06225
 H688 H 1.05969 0.51242 0.14338
 H689 H 1.15910 0.48363 0.17584
 H690 H 1.13802 0.47474 0.22411
 H691 H 1.09524 0.47224 0.25723
 H692 H 1.03773 0.49924 0.18980
 C693 C 0.61434 0.00178 0.65979
 C694 C 0.63238 -0.00798 0.63694
 C695 C 0.63386 -0.03767 0.63168
 C696 C 0.61808 -0.05701 0.64966
 C697 C 0.60020 -0.04719 0.67215
 C698 C 0.59764 -0.01783 0.67712
 C699 C 0.65075 -0.04768 0.60830
 C700 C 0.66631 -0.02844 0.59003
 C701 C 0.66547 0.00126 0.59550
 C702 C 0.64847 0.01134 0.61894
 C703 C 0.68150 0.02031 0.57727
 C704 C 0.69795 0.01003 0.55373
 C705 C 0.69848 -0.01951 0.54781
 C706 C 0.68252 -0.03858 0.56619
 H707 H 0.61247 0.02445 0.66342
 H708 H 0.61924 -0.07979 0.64610
 H709 H 0.58810 -0.06267 0.68561
 H710 H 0.65157 -0.07047 0.60418
 H711 H 0.64754 0.03412 0.62296
 H712 H 0.68137 0.04317 0.58124
 H713 H 0.71055 0.02532 0.54045
 H714 H 0.68220 -0.06141 0.56173
 C715 C -0.13442 0.50933 0.87224
 C716 C -0.11459 0.51569 0.84917
 C717 C -0.10747 0.54439 0.84198
 C718 C -0.12089 0.56613 0.85751
 C719 C -0.14089 0.55960 0.88020
 C720 C -0.14767 0.53121 0.88809
 C721 C -0.08696 0.55089 0.81950
 C722 C -0.07366 0.52902 0.80393
 C723 C -0.08134 0.50027 0.81070
 C724 C -0.10164 0.49380 0.83334
 C725 C -0.06844 0.47844 0.79481
 C726 C -0.04771 0.48498 0.77276
 C727 C -0.03917 0.51351 0.76632
 C728 C -0.05256 0.53545 0.78188
 H729 H -0.13900 0.48738 0.87819
 H730 H -0.11594 0.58822 0.85211
 H731 H -0.15120 0.57688 0.89146
 H732 H -0.08127 0.57295 0.81421
 H733 H -0.10725 0.47175 0.83869
 H734 H -0.07435 0.45627 0.79947
 H735 H -0.03852 0.46756 0.76064
 H736 H -0.04605 0.55756 0.77741
 C737 C 0.38404 0.00949 0.36205
 C738 C 0.36457 0.00889 0.38606
 C739 C 0.34600 -0.01644 0.39151
 C740 C 0.34761 -0.04086 0.37297
 C741 C 0.36721 -0.04011 0.34915
 C742 C 0.38541 -0.01489 0.34334
 C743 C 0.32605 -0.01684 0.41524
 C744 C 0.32438 0.00782 0.43348
 C745 C 0.34332 0.03299 0.42813
 C746 C 0.36332 0.03332 0.40457
 C747 C 0.34168 0.05762 0.44621
 C748 C 0.32094 0.05765 0.46894
 C749 C 0.30146 0.03303 0.47415
 C750 C 0.30372 0.00796 0.45666
 H751 H 0.39838 0.02891 0.35806
 H752 H 0.33360 -0.06049 0.37680
 H753 H 0.36781 -0.05914 0.33496
 H754 H 0.31162 -0.03620 0.41930
 H755 H 0.37765 0.05272 0.40043
 H756 H 0.35619 0.07700 0.44255
 H757 H 0.32012 0.07705 0.48251
 H758 H 0.28874 -0.01106 0.46042
 C759 C 0.15226 0.49683 0.86972
 C760 C 0.12884 0.49862 0.84945
 C761 C 0.09843 0.49053 0.85714
 C762 C 0.09205 0.48053 0.88490
 C763 C 0.11550 0.47919 0.90512
 C764 C 0.14579 0.48760 0.89787
 C765 C 0.07490 0.49303 0.83715
 C766 C 0.08140 0.50385 0.80973
 C767 C 0.11185 0.51181 0.80203
 C768 C 0.13538 0.50893 0.82185
 C769 C 0.11826 0.52290 0.77476
 C770 C 0.09472 0.52640 0.75536
 C771 C 0.06437 0.51871 0.76283
 C772 C 0.05788 0.50725 0.79001
 H773 H 0.17554 0.50292 0.86365
 H774 H 0.06888 0.47428 0.89119
 H775 H 0.10979 0.47234 0.92674
 H776 H 0.05155 0.48696 0.84310
 H777 H 0.15871 0.51517 0.81597
 H778 H 0.14146 0.52903 0.76848
 H779 H 0.10028 0.53488 0.73435
 H780 H 0.03452 0.50165 0.79614
 C781 C 0.59120 -0.01243 0.34559
 C782 C 0.61497 -0.01808 0.36407
 C783 C 0.64051 -0.03012 0.35225
 C784 C 0.64206 -0.03578 0.32203
 C785 C 0.61833 -0.03003 0.30377
 C786 C 0.59252 -0.01857 0.31533
 C787 C 0.66395 -0.03647 0.37080
 C788 C 0.66225 -0.03072 0.40103
 C789 C 0.63689 -0.01821 0.41274
 C790 C 0.61338 -0.01212 0.39424
 C791 C 0.63547 -0.01192 0.44284
 C792 C 0.65898 -0.01783 0.46121
 C793 C 0.68410 -0.03049 0.44989
 C794 C 0.68557 -0.03708 0.41976
 H795 H 0.57129 -0.00401 0.35492
 H796 H 0.66155 -0.04482 0.31254
 H797 H 0.62016 -0.03460 0.28052
 H798 H 0.68345 -0.04588 0.36173
 H799 H 0.59386 -0.00274 0.40331
 H800 H 0.61624 -0.00231 0.45217
 H801 H 0.65735 -0.01280 0.48441
 H802 H 0.70511 -0.04655 0.41091
 C803 C 0.86775 0.48842 0.10865
 C804 C 0.88921 0.49077 0.13151
 C805 C 0.90335 0.51793 0.14102
 C806 C 0.89610 0.54222 0.12722
 C807 C 0.87486 0.53970 0.10439
 C808 C 0.86026 0.51285 0.09497
 C809 C 0.92442 0.52038 0.16421
 C810 C 0.93163 0.49597 0.17794
 C811 C 0.91773 0.46879 0.16814
 C812 C 0.89660 0.46637 0.14507
 C813 C 0.92515 0.44442 0.18162
 C814 C 0.94589 0.44688 0.20479
 C815 C 0.95953 0.47380 0.21520
 C816 C 0.95241 0.49830 0.20142
 H817 H 0.85650 0.46761 0.10189
 H818 H 0.90686 0.56320 0.13405
 H819 H 0.87008 0.55884 0.09391
 H820 H 0.93511 0.54126 0.17159
 H821 H 0.88586 0.44550 0.13772
 H822 H 0.91494 0.42340 0.17422
 H823 H 0.95148 0.42753 0.21436
 H824 H 0.96249 0.51921 0.20923
 C825 C 0.39485 0.00386 0.67316
 C826 C 0.36998 0.00566 0.65457
 C827 C 0.34142 0.01029 0.66653
 C828 C 0.33801 0.01181 0.69696
 C829 C 0.36291 0.00974 0.71535
 C830 C 0.39161 0.00641 0.70358
 C831 C 0.31698 0.01390 0.64792
 C832 C 0.32079 0.01284 0.61752
 C833 C 0.34908 0.00706 0.60562
 C834 C 0.37348 0.00354 0.62421
 C835 C 0.35270 0.00546 0.57528
 C836 C 0.32883 0.01037 0.55684
 C837 C 0.30101 0.01717 0.56841
 C838 C 0.29698 0.01802 0.59880
 H839 H 0.41693 0.00093 0.66401
 H840 H 0.31624 0.01514 0.70653
 H841 H 0.36004 0.01177 0.73876
 H842 H 0.29521 0.01802 0.65707
 H843 H 0.39533 -0.00032 0.61506
 H844 H 0.37418 0.00094 0.56582
 H845 H 0.33252 0.00988 0.53352
 H846 H 0.27543 0.02298 0.60782
   
