data_POSCAR
  _audit_creation_date              2014-09-24
  _audit_creation_method            'ToBaCCo'
  _symmetry_space_group_name_H-M    'P1'
  _symmetry_Int_Tables_number       1
  _symmetry_cell_setting            triclinic
  loop_
  _symmetry_equiv_pos_as_xyz
 x,y,z
_cell_length_a 28.6437
_cell_length_b 41.7042
_cell_length_c 30.8595
_cell_angle_alpha 90.100600
_cell_angle_beta 89.999100
_cell_angle_gamma 90.108900
loop_
  _atom_site_label
  _atom_site_type_symbol
  _atom_site_fract_x
  _atom_site_fract_y
  _atom_site_fract_z
O1 O 0.24760 0.28063 0.19370
 O2 O 0.30888 0.21828 0.25595
 O3 O 0.24775 0.21817 0.19346
 O4 O 0.30867 0.28073 0.25621
 O5 O 0.25149 0.28054 0.30437
 O6 O 0.19058 0.21798 0.24161
 O7 O 0.25170 0.21809 0.30411
 O8 O 0.19042 0.28044 0.24186
 Cu9 Cu 0.28399 0.24947 0.21997
 Cu10 Cu 0.21527 0.24924 0.27784
 C11 C 0.20868 0.29107 0.20729
 C12 C 0.29064 0.20767 0.29055
 C13 C 0.20887 0.20751 0.20694
 C14 C 0.29036 0.29120 0.29087
 O15 O 0.80870 0.28072 0.24317
 O16 O 0.74789 0.21827 0.30591
 O17 O 0.80892 0.21827 0.24334
 O18 O 0.74773 0.28071 0.30578
 O19 O 0.69047 0.28043 0.25770
 O20 O 0.75166 0.21799 0.19526
 O21 O 0.69064 0.21798 0.25784
 O22 O 0.75144 0.28044 0.19510
 Cu23 Cu 0.78409 0.24952 0.27940
 Cu24 Cu 0.71528 0.24918 0.22162
 C25 C 0.79033 0.29112 0.20854
 C26 C 0.70899 0.20758 0.29247
 C27 C 0.79062 0.20760 0.20876
 C28 C 0.70878 0.29111 0.29228
 O29 O 0.74850 0.78186 0.69544
 O30 O 0.80927 0.71935 0.75783
 O31 O 0.74818 0.71940 0.69533
 O32 O 0.80962 0.78180 0.75794
 O33 O 0.75245 0.78188 0.80610
 O34 O 0.69101 0.71949 0.74349
 O35 O 0.75209 0.71943 0.80599
 O36 O 0.69133 0.78194 0.74361
 Cu37 Cu 0.78466 0.75060 0.72177
 Cu38 Cu 0.71595 0.75070 0.77966
 C39 C 0.70966 0.79245 0.70900
 C40 C 0.79093 0.70884 0.79243
 C41 C 0.70924 0.70890 0.70886
 C42 C 0.79142 0.79237 0.79260
 O43 O 0.30878 0.78187 0.74313
 O44 O 0.24765 0.71952 0.80578
 O45 O 0.30863 0.71943 0.74317
 O46 O 0.24775 0.78198 0.80570
 O47 O 0.19050 0.78186 0.75763
 O48 O 0.25137 0.71933 0.69510
 O49 O 0.19039 0.71941 0.75770
 O50 O 0.25152 0.78177 0.69505
 Cu51 Cu 0.28397 0.75071 0.77930
 Cu52 Cu 0.21517 0.75058 0.72152
 C53 C 0.29048 0.79234 0.70851
 C54 C 0.20872 0.70893 0.79231
 C55 C 0.29028 0.70883 0.70858
 C56 C 0.20884 0.79248 0.79222
 C57 C 1.02540 0.02315 0.02313
 C58 C 0.97622 0.02300 0.02331
 C59 C 0.95190 -0.00053 -0.00005
 C60 C 0.97620 -0.02390 -0.02358
 C61 C 1.02539 -0.02375 -0.02375
 C62 C 1.04970 -0.00023 -0.00039
 H63 H 1.08758 -0.00011 -0.00053
 H64 H 0.91403 -0.00064 0.00009
 C65 C 0.52401 0.52352 0.52365
 C66 C 0.47482 0.52355 0.52349
 C67 C 0.45051 0.50010 0.49999
 C68 C 0.47481 0.47661 0.47667
 C69 C 0.52400 0.47657 0.47685
 C70 C 0.54831 0.50002 0.50034
 H71 H 0.58619 0.49999 0.50048
 H72 H 0.41264 0.50013 0.49985
 C73 C -0.02521 0.47644 0.02345
 C74 C 0.02398 0.47648 0.02346
 C75 C 0.04832 0.49998 0.00019
 C76 C 0.02404 0.52344 -0.02310
 C77 C -0.02515 0.52339 -0.02312
 C78 C -0.04949 0.49990 0.00016
 H79 H -0.08736 0.49986 0.00015
 H80 H 0.08619 0.50002 0.00020
 C81 C 0.47618 0.97692 0.52314
 C82 C 0.52536 0.97707 0.52335
 C83 C 0.54970 1.00052 0.49997
 C84 C 0.52542 1.02380 0.47637
 C85 C 0.47624 1.02364 0.47615
 C86 C 0.45190 1.00021 0.49953
 H87 H 0.41403 1.00009 0.49936
 H88 H 0.58758 1.00064 0.50015
 C89 C 1.18642 0.18447 0.18382
 C90 C 1.16647 0.16399 0.16329
 C91 C 1.14262 0.13955 0.13881
 C92 C 1.09649 0.14440 0.12523
 C93 C 1.07330 0.12064 0.10147
 C94 C 1.09613 0.09193 0.09120
 C95 C 1.14225 0.08707 0.10476
 C96 C 1.16546 0.11084 0.12851
 C97 C 1.07207 0.06746 0.06700
 C98 C 1.05129 0.04715 0.04690
 H99 H 1.07850 0.16650 0.13302
 H100 H 1.03764 0.12464 0.09112
 H101 H 1.16020 0.06495 0.09702
 H102 H 1.20112 0.10685 0.13885
 C103 C 0.68536 0.68457 0.68452
 C104 C 0.66530 0.66409 0.66408
 C105 C 0.64136 0.63963 0.63971
 C106 C 0.59470 0.63225 0.64907
 C107 C 0.57146 0.60846 0.62541
 C108 C 0.59477 0.59197 0.59228
 C109 C 0.64142 0.59935 0.58291
 C110 C 0.66468 0.62313 0.60659
 C111 C 0.57068 0.56763 0.56786
 C112 C 0.54990 0.54741 0.54760
 H113 H 0.57634 0.64486 0.67461
 H114 H 0.53539 0.60292 0.63293
 H115 H 0.65975 0.58675 0.55733
 H116 H 0.70076 0.62865 0.59909
 C117 C -0.18601 0.31545 0.18412
 C118 C -0.16609 0.33588 0.16359
 C119 C -0.14230 0.36028 0.13909
 C120 C -0.09640 0.35523 0.12496
 C121 C -0.07326 0.37894 0.10118
 C122 C -0.09591 0.40780 0.09146
 C123 C -0.14179 0.41285 0.10558
 C124 C -0.16495 0.38913 0.12934
 C125 C -0.07187 0.43223 0.06727
 C126 C -0.05111 0.45250 0.04718
 H127 H -0.07855 0.33302 0.13232
 H128 H -0.03778 0.37479 0.09040
 H129 H -0.15960 0.43509 0.09827
 H130 H -0.20043 0.39328 0.14013
 C131 C 0.31432 0.81658 0.68409
 C132 C 0.33440 0.83694 0.66355
 C133 C 0.35840 0.86122 0.63904
 C134 C 0.40448 0.85618 0.62544
 C135 C 0.42782 0.87978 0.60163
 C136 C 0.40518 0.90854 0.59136
 C137 C 0.35911 0.91360 0.60496
 C138 C 0.33576 0.88998 0.62875
 C139 C 0.42939 0.93285 0.56711
 C140 C 0.45024 0.95305 0.54696
 H141 H 0.42232 0.83404 0.63322
 H142 H 0.46344 0.87563 0.59126
 H143 H 0.34131 0.93576 0.59722
 H144 H 0.30014 0.89413 0.63912
 C145 C -0.18543 0.68447 -0.18331
 C146 C -0.16556 0.66398 -0.16294
 C147 C -0.14183 0.63951 -0.13865
 C148 C -0.16507 0.62336 -0.10519
 C149 C -0.14199 0.59957 -0.08159
 C150 C -0.09560 0.59183 -0.09139
 C151 C -0.07237 0.60796 -0.12487
 C152 C -0.09543 0.63176 -0.14844
 C153 C -0.07168 0.56749 -0.06706
 C154 C -0.05099 0.54728 -0.04690
 H155 H -0.20094 0.62917 -0.09735
 H156 H -0.16026 0.58725 -0.05575
 H157 H -0.03650 0.60214 -0.13272
 H158 H -0.07713 0.64409 -0.17425
 C159 C 0.31453 1.18343 0.31482
 C160 C 0.33462 1.16307 0.33523
 C161 C 0.35861 1.13877 0.35963
 C162 C 0.33546 1.12247 0.39301
 C163 C 0.35880 1.09889 0.41676
 C164 C 0.40538 1.09151 0.40720
 C165 C 0.42852 1.10779 0.37380
 C166 C 0.40519 1.13138 0.35007
 C167 C 0.42955 1.06739 0.43171
 C168 C 0.45037 1.04735 0.45207
 H169 H 0.29945 1.12801 0.40067
 H170 H 0.34060 1.08646 0.44254
 H171 H 0.46453 1.10225 0.36614
 H172 H 0.42343 1.14384 0.32434
 C173 C 1.18641 -0.18447 -0.18476
 C174 C 1.16645 -0.16400 -0.16432
 C175 C 1.14259 -0.13956 -0.13996
 C176 C 1.09600 -0.13216 -0.14943
 C177 C 1.07280 -0.10842 -0.12575
 C178 C 1.09609 -0.09199 -0.09249
 C179 C 1.14267 -0.09938 -0.08301
 C180 C 1.16588 -0.12312 -0.10671
 C181 C 1.07203 -0.06772 -0.06803
 C182 C 1.05126 -0.04757 -0.04773
 H183 H 1.07766 -0.14472 -0.17506
 H184 H 1.03679 -0.10287 -0.13335
 H185 H 1.16097 -0.08684 -0.05733
 H186 H 1.20190 -0.12865 -0.09912
 C187 C 0.68496 0.31543 0.31659
 C188 C 0.66497 0.33588 0.33703
 C189 C 0.64113 0.36030 0.36144
 C190 C 0.59529 0.35514 0.37568
 C191 C 0.57211 0.37887 0.39939
 C192 C 0.59468 0.40788 0.40893
 C193 C 0.64052 0.41305 0.39470
 C194 C 0.66370 0.38930 0.37101
 C195 C 0.57063 0.43232 0.43308
 C196 C 0.54987 0.45261 0.45314
 H197 H 0.57750 0.33281 0.36847
 H198 H 0.53667 0.37463 0.41026
 H199 H 0.65826 0.43541 0.40187
 H200 H 0.69915 0.39355 0.36014
 C201 C 0.81406 -0.18465 -0.18432
 C202 C 0.83421 -0.16425 -0.16382
 C203 C 0.85828 -0.13991 -0.13935
 C204 C 0.83562 -0.11117 -0.12889
 C205 C 0.85903 -0.08749 -0.10514
 C206 C 0.90517 -0.09248 -0.09173
 C207 C 0.92782 -0.12123 -0.10216
 C208 C 0.90443 -0.14489 -0.12593
 C209 C 0.92942 -0.06811 -0.06751
 C210 C 0.95028 -0.04786 -0.04739
 H211 H 0.79995 -0.10707 -0.13911
 H212 H 0.84122 -0.06534 -0.09728
 H213 H 0.96350 -0.12533 -0.09193
 H214 H 0.92228 -0.16702 -0.13384
 C215 C 0.31406 0.31557 0.31528
 C216 C 0.33399 0.33607 0.33579
 C217 C 0.35780 0.36054 0.36024
 C218 C 0.33424 0.37722 0.39304
 C219 C 0.35739 0.40100 0.41681
 C220 C 0.40420 0.40820 0.40785
 C221 C 0.42776 0.39154 0.37503
 C222 C 0.40461 0.36775 0.35128
 C223 C 0.42819 0.43253 0.43236
 C224 C 0.44893 0.45273 0.45268
 H225 H 0.29804 0.37183 0.40023
 H226 H 0.33887 0.41373 0.44214
 H227 H 0.46394 0.39694 0.36782
 H228 H 0.42317 0.35500 0.32599
 C229 C 0.18495 0.68462 -0.18333
 C230 C 0.16499 0.66418 -0.16286
 C231 C 0.14117 0.63975 -0.13843
 C232 C 0.09511 0.64465 -0.12468
 C233 C 0.07195 0.62091 -0.10098
 C234 C 0.09474 0.59216 -0.09096
 C235 C 0.14080 0.58726 -0.10470
 C236 C 0.16397 0.61101 -0.12838
 C237 C 0.07071 0.56770 -0.06683
 C238 C 0.04994 0.54741 -0.04679
 H239 H 0.07714 0.66678 -0.13227
 H240 H 0.03634 0.62494 -0.09049
 H241 H 0.15872 0.56510 -0.09715
 H242 H 0.19958 0.60698 -0.13887
 C243 C 0.68657 1.18459 0.31559
 C244 C 0.66661 1.16417 0.33613
 C245 C 0.64275 1.13981 0.36063
 C246 C 0.66565 1.11120 0.37115
 C247 C 0.64242 1.08751 0.39491
 C248 C 0.59621 1.09235 0.40825
 C249 C 0.57332 1.12096 0.39776
 C250 C 0.59653 1.14464 0.37399
 C251 C 0.57213 1.06796 0.43247
 C252 C 0.55134 1.04772 0.45259
 H253 H 0.70137 1.10722 0.36097
 H254 H 0.66042 1.06545 0.40282
 H255 H 0.53760 1.12495 0.40795
 H256 H 0.57849 1.16667 0.36603
 C257 C 0.18487 0.31539 0.18310
 C258 C 0.16488 0.33587 0.16280
 C259 C 0.14102 0.36033 0.13860
 C260 C 0.16428 0.37674 0.10539
 C261 C 0.14110 0.40054 0.08188
 C262 C 0.09458 0.40801 0.09153
 C263 C 0.07132 0.39161 0.12475
 C264 C 0.09449 0.36781 0.14823
 C265 C 0.07057 0.43236 0.06730
 C266 C 0.04983 0.45258 0.04719
 H267 H 0.20026 0.37115 0.09768
 H268 H 0.15939 0.41306 0.05624
 H269 H 0.03535 0.39722 0.13248
 H270 H 0.07617 0.35527 0.17384
 C271 C 0.68598 0.81678 0.68470
 C272 C 0.66608 0.83722 0.66426
 C273 C 0.64230 0.86161 0.63987
 C274 C 0.66567 0.87795 0.60665
 C275 C 0.64252 0.90162 0.58289
 C276 C 0.59593 0.90906 0.59229
 C277 C 0.57257 0.89275 0.62553
 C278 C 0.59570 0.86907 0.64926
 C279 C 0.57193 0.93326 0.56777
 C280 C 0.55121 0.95335 0.54741
 H281 H 0.70169 0.87237 0.59911
 H282 H 0.66089 0.91408 0.55724
 H283 H 0.53655 0.89833 0.63308
 H284 H 0.57730 0.85659 0.67487
 C285 C 0.81448 0.18330 0.18444
 C286 C 0.83456 0.16289 0.16400
 C287 C 0.85855 0.13853 0.13962
 C288 C 0.83534 0.12202 0.10638
 C289 C 0.85869 0.09836 0.08266
 C290 C 0.90532 0.09111 0.09210
 C291 C 0.92853 0.10760 0.12535
 C292 C 0.90520 0.13127 0.14905
 C293 C 0.92950 0.06690 0.06763
 C294 C 0.95032 0.04679 0.04732
 H295 H 0.79928 0.12745 0.09882
 H296 H 0.84044 0.08577 0.05700
 H297 H 0.96459 0.10216 0.13293
 H298 H 0.92348 0.14388 0.17468
 C299 C 0.31399 0.68449 0.68421
 C300 C 0.33393 0.66405 0.66371
 C301 C 0.35775 0.63966 0.63923
 C302 C 0.33505 0.61077 0.62933
 C303 C 0.35822 0.58706 0.60556
 C304 C 0.40417 0.59216 0.59158
 C305 C 0.42686 0.62105 0.60146
 C306 C 0.40371 0.64475 0.62525
 C307 C 0.42820 0.56775 0.56736
 C308 C 0.44895 0.54749 0.54725
 H309 H 0.29952 0.60659 0.63999
 H310 H 0.34038 0.56479 0.59812
 H311 H 0.46239 0.62524 0.59079
 H312 H 0.42159 0.66700 0.63273
   
