data_POSCAR
  _audit_creation_date              2014-09-24
  _audit_creation_method            'ToBaCCo'
  _symmetry_space_group_name_H-M    'P1'
  _symmetry_Int_Tables_number       1
  _symmetry_cell_setting            triclinic
  loop_
  _symmetry_equiv_pos_as_xyz
 x,y,z
_cell_length_a 26.2500
_cell_length_b 30.5439
_cell_length_c 26.8141
_cell_angle_alpha 90.124800
_cell_angle_beta 89.911200
_cell_angle_gamma 85.387300
loop_
  _atom_site_label
  _atom_site_type_symbol
  _atom_site_fract_x
  _atom_site_fract_y
  _atom_site_fract_z
C1 C 1.22122 0.21504 0.19738
 C2 C 1.25234 0.24600 0.16674
 C3 C 1.27846 0.27413 0.19483
 C4 C 1.27140 0.26824 0.25166
 C5 C 1.25967 0.19188 0.23305
 C6 C 1.28569 0.21924 0.26142
 C7 C 1.18725 0.24640 0.23032
 C8 C 1.21307 0.27396 0.25902
 H9 H 1.25145 0.24754 0.12650
 H10 H 1.29269 0.29060 0.27502
 H11 H 1.26467 0.15645 0.23673
 H12 H 1.14597 0.24685 0.23050
 C13 C 0.72358 -0.28374 0.19347
 C14 C 0.75455 -0.25347 0.16175
 C15 C 0.78091 -0.22490 0.18897
 C16 C 0.77442 -0.22989 0.24601
 C17 C 0.76222 -0.30643 0.22929
 C18 C 0.78849 -0.27869 0.25687
 C19 C 0.69003 -0.25178 0.22594
 C20 C 0.71626 -0.22399 0.25381
 H21 H 0.75310 -0.25234 0.12152
 H22 H 0.79589 -0.20720 0.26876
 H23 H 0.76643 -0.34174 0.23441
 H24 H 0.64876 -0.25150 0.22695
 C25 C 0.71936 0.21764 -0.30765
 C26 C 0.74610 0.24953 -0.33597
 C27 C 0.77537 0.27766 -0.30550
 C28 C 0.77149 0.26747 -0.25150
 C29 C 0.75865 0.19380 -0.27856
 C30 C 0.78716 0.22036 -0.24713
 C31 C 0.68841 0.24467 -0.27250
 C32 C 0.71620 0.27237 -0.24124
 H33 H 0.74351 0.25236 -0.37595
 H34 H 0.79391 0.28791 -0.22718
 H35 H 0.76408 0.15817 -0.27838
 H36 H 0.64729 0.24419 -0.27101
 C37 C 1.22592 -0.28633 -0.30405
 C38 C 1.25820 -0.25661 -0.33517
 C39 C 1.28428 -0.22823 -0.30739
 C40 C 1.27629 -0.23277 -0.25060
 C41 C 1.26340 -0.30922 -0.26725
 C42 C 1.28947 -0.28157 -0.23932
 C43 C 1.19205 -0.25387 -0.27252
 C44 C 1.21799 -0.22621 -0.24426
 H45 H 1.25777 -0.25552 -0.37541
 H46 H 1.29755 -0.21020 -0.22749
 H47 H 1.26767 -0.34456 -0.26246
 H48 H 1.15072 -0.25313 -0.27253
 C49 C 0.22200 0.21788 0.80343
 C50 C 0.25175 0.24622 0.83348
 C51 C 0.27992 0.27625 0.80517
 C52 C 0.27282 0.27152 0.75102
 C53 C 0.18818 0.25005 0.77162
 C54 C 0.21435 0.27793 0.74385
 C55 C 0.25997 0.19498 0.76680
 C56 C 0.28640 0.22261 0.73926
 H57 H 0.25128 0.24576 0.87367
 H58 H 0.29342 0.29387 0.72723
 H59 H 0.14684 0.25114 0.77184
 H60 H 0.26439 0.15963 0.76192
 C61 C 0.71497 0.71976 0.81166
 C62 C 0.75137 0.74409 0.83923
 C63 C 0.78146 0.77117 0.80862
 C64 C 0.77023 0.76631 0.75479
 C65 C 0.68526 0.75369 0.78370
 C66 C 0.71489 0.77909 0.75112
 C67 C 0.74495 0.69430 0.77500
 C68 C 0.77530 0.71904 0.74332
 H69 H 0.75215 0.74497 0.87943
 H70 H 0.79358 0.78557 0.73000
 H71 H 0.64411 0.75846 0.78658
 H72 H 0.74542 0.65878 0.77258
 C73 C 0.72338 0.21327 0.30424
 C74 C 0.75497 0.24324 0.33577
 C75 C 0.78074 0.27206 0.30848
 C76 C 0.77312 0.26772 0.25159
 C77 C 0.68911 0.24558 0.27304
 C78 C 0.71482 0.27367 0.24510
 C79 C 0.76126 0.19099 0.26712
 C80 C 0.78695 0.21911 0.23953
 H81 H 0.75407 0.24420 0.37604
 H82 H 0.79421 0.29068 0.22889
 H83 H 0.64784 0.24580 0.27282
 H84 H 0.76552 0.15574 0.26139
 C85 C 0.21849 0.71658 0.30374
 C86 C 0.25006 0.74686 0.33495
 C87 C 0.27674 0.77491 0.30736
 C88 C 0.26979 0.76956 0.25041
 C89 C 0.18509 0.74859 0.27135
 C90 C 0.21149 0.77601 0.24312
 C91 C 0.25670 0.69330 0.26768
 C92 C 0.28329 0.72052 0.23977
 H93 H 0.24894 0.74817 0.37520
 H94 H 0.29151 0.79184 0.22741
 H95 H 0.14378 0.74937 0.27094
 H96 H 0.26109 0.65789 0.26336
 N97 N 1.09079 0.03278 0.04962
 N98 N 1.12611 0.06054 0.05670
 N99 N 1.04678 -0.05295 0.08510
 N100 N 1.05689 -0.07963 0.12299
 N101 N 1.08296 -0.05828 0.05120
 N102 N 1.11860 -0.08871 0.06539
 N103 N 1.05510 0.03795 0.08386
 N104 N 1.06529 0.06916 0.11552
 C105 C 1.10961 0.08306 0.09793
 C106 C 1.10133 -0.10225 0.10992
 N107 N 0.90160 -0.03354 0.04873
 N108 N 0.86698 -0.06206 0.05577
 N109 N 0.94589 0.05315 0.08233
 N110 N 0.94012 0.08480 0.11578
 N111 N 0.91026 0.05804 0.04802
 N112 N 0.87896 0.09319 0.05766
 N113 N 0.93693 -0.03798 0.08341
 N114 N 0.92731 -0.06944 0.11488
 Mn115 Mn 0.99604 0.00002 0.08407
 C116 C 0.88354 -0.08425 0.09728
 C117 C 0.89859 0.10988 0.09983
 N118 N 1.08428 -0.05938 -0.05666
 N119 N 1.12037 -0.08996 -0.06954
 N120 N 1.05747 0.03600 -0.09194
 N121 N 1.06774 0.06767 -0.12284
 N122 N 1.09212 0.03146 -0.05676
 N123 N 1.12675 0.05999 -0.06243
 N124 N 1.04900 -0.05482 -0.09141
 N125 N 1.06017 -0.08219 -0.12855
 Mn126 Mn 1.08793 -0.01352 -0.00317
 C127 C 1.10427 -0.10437 -0.11413
 C128 C 1.11106 0.08232 -0.10383
 N129 N 0.91188 0.05735 -0.06035
 N130 N 0.88131 0.09268 -0.07154
 N131 N 0.93908 -0.04006 -0.09344
 N132 N 0.93009 -0.07231 -0.12440
 N133 N 0.90303 -0.03485 -0.05942
 N134 N 0.86882 -0.06381 -0.06612
 N135 N 0.94822 0.05115 -0.09394
 N136 N 0.94336 0.08161 -0.12863
 Mn137 Mn 0.90588 0.01189 -0.00578
 Mn138 Mn 0.99837 -0.00199 -0.09308
 Cl139 Cl 0.99695 -0.00108 -0.00448
 C140 C 0.90201 0.10775 -0.11411
 C141 C 0.88607 -0.08694 -0.10694
 N142 N 1.08691 0.53479 0.55353
 N143 N 1.12266 0.56216 0.55970
 N144 N 1.04457 0.44969 0.59134
 N145 N 1.05590 0.42343 0.62941
 N146 N 1.07982 0.44395 0.55649
 N147 N 1.11587 0.41375 0.57014
 N148 N 1.05167 0.54059 0.58820
 N149 N 1.06287 0.57183 0.61943
 C150 C 1.10711 0.58510 0.60081
 C151 C 1.10003 0.40073 0.61535
 N152 N 0.89913 0.46661 0.55601
 N153 N 0.86457 0.43821 0.56381
 N154 N 0.94154 0.55544 0.58795
 N155 N 0.93355 0.58743 0.62111
 N156 N 0.90575 0.55836 0.55365
 N157 N 0.87226 0.59199 0.56299
 N158 N 0.93404 0.46343 0.59116
 N159 N 0.92402 0.43285 0.62382
 Mn160 Mn 0.99288 0.50234 0.59021
 C161 C 0.88050 0.41729 0.60628
 C162 C 0.89063 0.61049 0.60454
 N163 N 1.08079 0.44167 0.44837
 N164 N 1.11700 0.41117 0.43525
 N165 N 1.05270 0.53714 0.41269
 N166 N 1.06275 0.56845 0.38117
 N167 N 1.08772 0.53286 0.44751
 N168 N 1.12232 0.56132 0.44109
 N169 N 1.04533 0.44604 0.41383
 N170 N 1.05632 0.41858 0.37671
 Mn171 Mn 1.08415 0.48809 0.50152
 C172 C 1.10065 0.39652 0.39079
 C173 C 1.10627 0.58330 0.39955
 N174 N 0.90689 0.55631 0.44583
 N175 N 0.87627 0.59176 0.43595
 N176 N 0.93577 0.45982 0.41346
 N177 N 0.92682 0.42787 0.38226
 N178 N 0.90005 0.46445 0.44782
 N179 N 0.86573 0.43568 0.44083
 N180 N 0.94325 0.55114 0.41218
 N181 N 0.93856 0.58277 0.37878
 Mn182 Mn 0.90228 0.51143 0.50083
 Mn183 Mn 0.99416 0.49856 0.41264
 Cl184 Cl 0.99329 0.49990 0.50138
 C185 C 0.89690 0.60817 0.39413
 C186 C 0.88300 0.41302 0.39975
 N187 N 0.59303 0.03136 0.55331
 N188 N 0.62684 0.06080 0.55792
 N189 N 0.55031 -0.05443 0.59030
 N190 N 0.56180 -0.08002 0.62884
 N191 N 0.58615 -0.05975 0.55601
 N192 N 0.62301 -0.08893 0.57083
 N193 N 0.55788 0.03659 0.58811
 N194 N 0.56705 0.06949 0.61776
 C195 C 0.61012 0.08429 0.59836
 C196 C 0.60676 -0.10189 0.61602
 N197 N 0.40453 -0.03567 0.55601
 N198 N 0.37038 -0.06452 0.56298
 N199 N 0.44836 0.05138 0.58891
 N200 N 0.44269 0.08337 0.62208
 N201 N 0.41240 0.05591 0.55492
 N202 N 0.38118 0.09116 0.56427
 N203 N 0.44021 -0.04002 0.59034
 N204 N 0.43127 -0.07189 0.62157
 Mn205 Mn 0.49910 -0.00164 0.58986
 C206 C 0.38749 -0.08688 0.60409
 C207 C 0.40094 0.10828 0.60610
 N208 N 0.58516 -0.06110 0.44758
 N209 N 0.62131 -0.09126 0.43358
 N210 N 0.55731 0.03442 0.41271
 N211 N 0.56748 0.06565 0.38116
 N212 N 0.59263 0.02976 0.44724
 N213 N 0.62755 0.05783 0.44056
 N214 N 0.54920 -0.05639 0.41347
 N215 N 0.55988 -0.08331 0.37583
 Mn216 Mn 0.58963 -0.01517 0.50102
 C217 C 0.60444 -0.10534 0.38911
 C218 C 0.61136 0.07998 0.39924
 N219 N 0.41203 0.05474 0.44707
 N220 N 0.38089 0.08987 0.43728
 N221 N 0.43940 -0.04196 0.41357
 N222 N 0.42919 -0.07322 0.38184
 N223 N 0.40389 -0.03693 0.44811
 N224 N 0.36855 -0.06474 0.44075
 N225 N 0.44778 0.04942 0.41282
 N226 N 0.44205 0.08069 0.37899
 Mn227 Mn 0.40752 0.00959 0.50156
 Mn228 Mn 0.49836 -0.00363 0.41271
 Cl229 Cl 0.49859 -0.00295 0.50131
 C230 C 0.40048 0.10603 0.39486
 C231 C 0.38487 -0.08728 0.39926
 N232 N 0.59192 0.53111 0.05440
 N233 N 0.62641 0.55970 0.06019
 N234 N 0.54940 0.44509 0.08987
 N235 N 0.55958 0.41786 0.12717
 N236 N 0.58532 0.44014 0.05564
 N237 N 0.62094 0.40945 0.06909
 N238 N 0.55663 0.53608 0.08906
 N239 N 0.56643 0.56808 0.11986
 C240 C 0.61002 0.58253 0.10112
 C241 C 0.60384 0.39538 0.11345
 N242 N 0.40415 0.46282 0.05506
 N243 N 0.36924 0.43470 0.06254
 N244 N 0.44692 0.55015 0.08900
 N245 N 0.44061 0.58184 0.12246
 N246 N 0.41120 0.55457 0.05476
 N247 N 0.37946 0.58947 0.06426
 N248 N 0.43946 0.45862 0.08973
 N249 N 0.42952 0.42756 0.12171
 Mn250 Mn 0.49804 0.49748 0.08989
 C251 C 0.38556 0.41282 0.10427
 C252 C 0.39870 0.60648 0.10642
 N253 N 0.58658 0.43965 -0.05237
 N254 N 0.62302 0.40944 -0.06562
 N255 N 0.55747 0.53538 -0.08634
 N256 N 0.56518 0.56909 -0.11527
 N257 N 0.59271 0.53077 -0.05173
 N258 N 0.62531 0.56122 -0.05599
 N259 N 0.55095 0.44397 -0.08679
 N260 N 0.56204 0.41652 -0.12392
 Mn261 Mn 0.58953 0.48520 0.00150
 C262 C 0.60665 0.39474 -0.10997
 C263 C 0.60773 0.58483 -0.09589
 N264 N 0.41208 0.55382 -0.05315
 N265 N 0.38122 0.58921 -0.06246
 N266 N 0.44072 0.45764 -0.08737
 N267 N 0.43098 0.42657 -0.11952
 N268 N 0.40505 0.46204 -0.05289
 N269 N 0.37031 0.43377 -0.06050
 N270 N 0.44815 0.54896 -0.08711
 N271 N 0.44302 0.58083 -0.12020
 Mn272 Mn 0.40741 0.50839 0.00092
 Mn273 Mn 0.49928 0.49643 -0.08738
 Cl274 Cl 0.49846 0.49665 0.00123
 C275 C 0.40140 0.60599 -0.10424
 C276 C 0.38699 0.41182 -0.10222
 C277 C 1.20388 0.16843 0.12031
 C278 C 1.19139 0.18211 0.16934
 C279 C 1.15274 0.16155 0.19465
 C280 C 1.12550 0.13023 0.17098
 C281 C 1.13746 0.11732 0.12196
 C282 C 1.17707 0.13640 0.09687
 H283 H 1.23502 0.18136 0.10020
 H284 H 1.14374 0.16944 0.23321
 H285 H 1.09582 0.11536 0.19152
 H286 H 1.18747 0.12642 0.05917
 C287 C 1.15798 0.66010 0.69654
 C288 C 1.19505 0.68091 0.66919
 C289 C 1.20351 0.66886 0.61900
 C290 C 1.17450 0.63789 0.59662
 C291 C 1.13654 0.61855 0.62386
 C292 C 1.12843 0.62993 0.67392
 H293 H 1.15183 0.66727 0.73577
 H294 H 1.23298 0.68225 0.59698
 H295 H 1.18181 0.62901 0.55798
 H296 H 1.10007 0.61474 0.69593
 C297 C 0.69926 0.17468 0.61529
 C298 C 0.68969 0.18700 0.66553
 C299 C 0.65446 0.16342 0.69265
 C300 C 0.62761 0.13149 0.67011
 C301 C 0.63678 0.12011 0.62032
 C302 C 0.67293 0.14165 0.59301
 H303 H 0.72815 0.18895 0.59330
 H304 H 0.64825 0.16897 0.73218
 H305 H 0.60095 0.11450 0.69237
 H306 H 0.68122 0.13262 0.55459
 C307 C 0.65608 0.66212 0.19466
 C308 C 0.69296 0.68303 0.16714
 C309 C 0.70264 0.66975 0.11752
 C310 C 0.67514 0.63737 0.09585
 C311 C 0.63757 0.61768 0.12329
 C312 C 0.62806 0.63046 0.17274
 H313 H 0.64917 0.67003 0.23360
 H314 H 0.73216 0.68314 0.09555
 H315 H 0.68351 0.62752 0.05768
 H316 H 0.59995 0.61511 0.19492
 C317 C 0.85207 -0.17461 0.18665
 C318 C 0.80747 -0.18898 0.16546
 C319 C 0.78792 -0.16830 0.12182
 C320 C 0.81260 -0.13437 0.09970
 C321 C 0.85736 -0.12021 0.12070
 C322 C 0.87686 -0.14067 0.16442
 H323 H 0.86826 -0.19002 0.21999
 H324 H 0.75295 -0.17778 0.10507
 H325 H 0.79652 -0.11914 0.06620
 H326 H 0.91136 -0.13046 0.18148
 C327 C 0.78785 0.32996 0.62629
 C328 C 0.80145 0.31269 0.67382
 C329 C 0.84157 0.33143 0.69924
 C330 C 0.86751 0.36515 0.67742
 C331 C 0.85359 0.38166 0.63003
 C332 C 0.81329 0.36381 0.60503
 H333 H 0.75613 0.31890 0.60547
 H334 H 0.85483 0.31922 0.73511
 H335 H 0.89859 0.37824 0.69765
 H336 H 0.80123 0.37601 0.56866
 C337 C 0.35587 -0.17840 0.69169
 C338 C 0.31143 -0.19246 0.66979
 C339 C 0.29226 -0.17134 0.62635
 C340 C 0.31708 -0.13718 0.60510
 C341 C 0.36161 -0.12323 0.62680
 C342 C 0.38086 -0.14418 0.67029
 H343 H 0.37166 -0.19419 0.72499
 H344 H 0.25740 -0.18058 0.60916
 H345 H 0.30120 -0.12155 0.57174
 H346 H 0.41518 -0.13410 0.68781
 C347 C 0.35089 0.32342 0.19386
 C348 C 0.30603 0.30990 0.17219
 C349 C 0.28741 0.33099 0.12848
 C350 C 0.31327 0.36430 0.10663
 C351 C 0.35837 0.37752 0.12792
 C352 C 0.37691 0.35682 0.17185
 H353 H 0.36636 0.30767 0.22731
 H354 H 0.25231 0.32223 0.11137
 H355 H 0.29782 0.37976 0.07300
 H356 H 0.41161 0.36635 0.18915
 C357 C 0.85510 0.16390 -0.23167
 C358 C 0.82343 0.20005 -0.21424
 C359 C 0.82237 0.20904 -0.16267
 C360 C 0.84817 0.17941 -0.12914
 C361 C 0.87754 0.14207 -0.14715
 C362 C 0.88242 0.13593 -0.19877
 H363 H 0.85755 0.15643 -0.27119
 H364 H 0.79785 0.23621 -0.14794
 H365 H 0.84432 0.18505 -0.08939
 H366 H 0.90512 0.10778 -0.21389
 C367 C 0.87107 0.68639 0.28670
 C368 C 0.82145 0.70398 0.29764
 C369 C 0.79937 0.69477 0.34375
 C370 C 0.82530 0.66568 0.37711
 C371 C 0.87350 0.64532 0.36450
 C372 C 0.89707 0.65749 0.32001
 H373 H 0.88816 0.69251 0.25083
 H374 H 0.76056 0.70741 0.35219
 H375 H 0.80631 0.65701 0.41115
 H376 H 0.93436 0.64258 0.30943
 C377 C 0.30150 0.19330 0.34805
 C378 C 0.32066 0.20126 0.30034
 C379 C 0.36897 0.18227 0.28658
 C380 C 0.39652 0.15348 0.31894
 C381 C 0.37578 0.14272 0.36531
 C382 C 0.32894 0.16425 0.38043
 H383 H 0.26371 0.20702 0.35875
 H384 H 0.38378 0.18743 0.24950
 H385 H 0.43265 0.13761 0.30635
 H386 H 0.31212 0.15671 0.41598
 C387 C 0.37289 0.68432 -0.21092
 C388 C 0.32315 0.70113 -0.19922
 C389 C 0.30195 0.69152 -0.15287
 C390 C 0.32890 0.66273 -0.11997
 C391 C 0.37721 0.64305 -0.13334
 C392 C 0.39991 0.65566 -0.17808
 H393 H 0.38932 0.69086 -0.24698
 H394 H 0.26310 0.70367 -0.14384
 H395 H 0.31060 0.65372 -0.08568
 H396 H 0.43726 0.64125 -0.18920
 C397 C 1.14464 -0.17167 -0.22699
 C398 C 1.19116 -0.19316 -0.21145
 C399 C 1.20982 -0.18473 -0.16366
 C400 C 1.18150 -0.15599 -0.13143
 C401 C 1.13435 -0.13538 -0.14681
 C402 C 1.11645 -0.14328 -0.19496
 H403 H 1.12987 -0.17692 -0.26403
 H404 H 1.24541 -0.20125 -0.15078
 H405 H 1.19624 -0.15013 -0.09452
 H406 H 1.08059 -0.12742 -0.20808
 C407 C 1.13882 0.32750 0.27816
 C408 C 1.18614 0.30668 0.29258
 C409 C 1.20590 0.31601 0.33974
 C410 C 1.17811 0.34500 0.37227
 C411 C 1.13032 0.36508 0.35791
 C412 C 1.11119 0.35615 0.31047
 H413 H 1.12305 0.32175 0.24165
 H414 H 1.24211 0.30013 0.35189
 H415 H 1.19385 0.35156 0.40858
 H416 H 1.07479 0.37148 0.29805
 C417 C 0.64246 -0.17079 0.27420
 C418 C 0.68987 -0.19175 0.28796
 C419 C 0.70988 -0.18362 0.33530
 C420 C 0.68207 -0.15571 0.36883
 C421 C 0.63409 -0.13562 0.35520
 C422 C 0.61480 -0.14324 0.30749
 H423 H 0.62658 -0.17579 0.23756
 H424 H 0.74618 -0.19974 0.34685
 H425 H 0.69789 -0.15006 0.40534
 H426 H 0.57824 -0.12778 0.29568
 C427 C 0.71500 0.32042 -0.16649
 C428 C 0.69075 0.30341 -0.20843
 C429 C 0.63902 0.31798 -0.21702
 C430 C 0.61228 0.34699 -0.18465
 C431 C 0.63599 0.36280 -0.14245
 C432 C 0.68765 0.34942 -0.13352
 H433 H 0.75435 0.31035 -0.15768
 H434 H 0.61879 0.30878 -0.24998
 H435 H 0.57279 0.35734 -0.19307
 H436 H 0.70698 0.36161 -0.10130
 C437 C 1.20530 0.16815 -0.12200
 C438 C 1.19186 0.18442 -0.16975
 C439 C 1.15254 0.16529 -0.19572
 C440 C 1.12558 0.13296 -0.17380
 C441 C 1.13841 0.11765 -0.12598
 C442 C 1.17858 0.13530 -0.10028
 H443 H 1.23718 0.17955 -0.10167
 H444 H 1.14296 0.17487 -0.23362
 H445 H 1.09547 0.11921 -0.19484
 H446 H 1.18973 0.12340 -0.06355
 C447 C 1.14965 0.66338 0.30492
 C448 C 1.18799 0.68371 0.33101
 C449 C 1.19973 0.66969 0.37995
 C450 C 1.17275 0.63735 0.40244
 C451 C 1.13372 0.61824 0.37649
 C452 C 1.12227 0.63166 0.32765
 H453 H 1.14117 0.67166 0.26642
 H454 H 1.23050 0.68250 0.40068
 H455 H 1.18271 0.62706 0.44006
 H456 H 1.09299 0.61684 0.30650
 C457 C 0.70492 0.16600 0.38010
 C458 C 0.69357 0.17979 0.33103
 C459 C 0.65567 0.15926 0.30456
 C460 C 0.62813 0.12764 0.32714
 C461 C 0.63906 0.11459 0.37618
 C462 C 0.67781 0.13376 0.40243
 H463 H 0.73537 0.17897 0.40114
 H464 H 0.64750 0.16751 0.26598
 H465 H 0.59908 0.11269 0.30582
 H466 H 0.68734 0.12367 0.44022
 C467 C 0.64007 0.67545 -0.18237
 C468 C 0.68413 0.69100 -0.16006
 C469 C 0.70187 0.67065 -0.11529
 C470 C 0.67602 0.63726 -0.09354
 C471 C 0.63250 0.62248 -0.11633
 C472 C 0.61433 0.64235 -0.16043
 H473 H 0.62658 0.68733 -0.21838
 H474 H 0.73715 0.67850 -0.09797
 H475 H 0.69121 0.62194 -0.05972
 H476 H 0.58128 0.63110 -0.17923
 C477 C 0.79765 -0.17817 -0.12208
 C478 C 0.80906 -0.19465 -0.17064
 C479 C 0.84719 -0.17476 -0.19777
 C480 C 0.87278 -0.14030 -0.17701
 C481 C 0.86030 -0.12402 -0.12904
 C482 C 0.82249 -0.14342 -0.10199
 H483 H 0.76758 -0.19010 -0.09963
 H484 H 0.85876 -0.18638 -0.23450
 H485 H 0.90207 -0.12609 -0.19875
 H486 H 0.81182 -0.13159 -0.06501
 C487 C 0.85188 0.32229 0.31050
 C488 C 0.80736 0.30792 0.33194
 C489 C 0.78784 0.32862 0.37571
 C490 C 0.81246 0.36265 0.39772
 C491 C 0.85711 0.37684 0.37648
 C492 C 0.87663 0.35631 0.33265
 H493 H 0.86795 0.30683 0.27701
 H494 H 0.75293 0.31911 0.39260
 H495 H 0.79637 0.37795 0.43130
 H496 H 0.91105 0.36658 0.31543
 C497 C 0.34967 -0.17635 0.30909
 C498 C 0.30463 -0.18969 0.33059
 C499 C 0.28608 -0.16867 0.37456
 C500 C 0.31215 -0.13554 0.39674
 C501 C 0.35739 -0.12247 0.37553
 C502 C 0.37589 -0.14318 0.33141
 H503 H 0.36513 -0.19202 0.27547
 H504 H 0.25087 -0.17731 0.39160
 H505 H 0.29674 -0.12009 0.43051
 H506 H 0.41070 -0.13380 0.31415
 C507 C 0.29552 0.32386 -0.12293
 C508 C 0.30725 0.30934 -0.17207
 C509 C 0.34640 0.32926 -0.19758
 C510 C 0.37274 0.36206 -0.17473
 C511 C 0.36012 0.37650 -0.12619
 C512 C 0.32124 0.35709 -0.10064
 H513 H 0.26484 0.31132 -0.10177
 H514 H 0.35845 0.31873 -0.23456
 H515 H 0.40284 0.37634 -0.19526
 H516 H 0.31053 0.36764 -0.06320
 C517 C 1.13793 -0.16990 0.22362
 C518 C 1.18519 -0.19122 0.20948
 C519 C 1.20538 -0.18260 0.16232
 C520 C 1.17808 -0.15385 0.12947
 C521 C 1.13034 -0.13328 0.14348
 C522 C 1.11077 -0.14142 0.19096
 H523 H 1.12184 -0.17521 0.26011
 H524 H 1.24150 -0.19891 0.15038
 H525 H 1.19415 -0.14791 0.09312
 H526 H 1.07439 -0.12568 0.20305
 C527 C 1.20587 0.32027 0.66396
 C528 C 1.18750 0.31157 0.71177
 C529 C 1.14109 0.33321 0.72790
 C530 C 1.11275 0.36194 0.69638
 C531 C 1.13031 0.36992 0.64812
 C532 C 1.17738 0.34921 0.63226
 H533 H 1.24131 0.30371 0.65058
 H534 H 1.12649 0.32774 0.76497
 H535 H 1.07698 0.37784 0.70986
 H536 H 1.19193 0.35508 0.59527
 C537 C 0.71356 -0.17766 0.67298
 C538 C 0.69113 -0.18896 0.71859
 C539 C 0.64203 -0.16922 0.73009
 C540 C 0.61531 -0.14134 0.69664
 C541 C 0.63662 -0.13170 0.65050
 C542 C 0.68632 -0.14959 0.63910
 H543 H 0.75079 -0.19214 0.66184
 H544 H 0.62393 -0.17422 0.76564
 H545 H 0.57762 -0.12729 0.70716
 H546 H 0.70390 -0.14227 0.60385
 C547 C 0.70809 0.31508 0.16464
 C548 C 0.68806 0.30619 0.21177
 C549 C 0.64070 0.32702 0.22619
 C550 C 0.61332 0.35552 0.19381
 C551 C 0.63285 0.36408 0.14643
 C552 C 0.68060 0.34385 0.13208
 H553 H 0.74429 0.29902 0.15251
 H554 H 0.62477 0.32137 0.26267
 H555 H 0.57688 0.37100 0.20609
 H556 H 0.69655 0.35014 0.09577
 C557 C 0.87046 0.18753 0.20772
 C558 C 0.81970 0.20254 0.19813
 C559 C 0.79726 0.19211 0.15261
 C560 C 0.82424 0.16428 0.11846
 C561 C 0.87380 0.14633 0.12979
 C562 C 0.89745 0.15979 0.17368
 H563 H 0.88793 0.19472 0.24308
 H564 H 0.75767 0.20289 0.14519
 H565 H 0.80514 0.15455 0.08493
 H566 H 0.93576 0.14672 0.18324
 C567 C 0.78059 0.66373 0.67776
 C568 C 0.80226 0.69828 0.70301
 C569 C 0.85248 0.70735 0.69063
 C570 C 0.88189 0.67918 0.65796
 C571 C 0.86024 0.64362 0.63485
 C572 C 0.80883 0.63743 0.64355
 H573 H 0.74144 0.65664 0.68475
 H574 H 0.87041 0.73355 0.70934
 H575 H 0.92161 0.68461 0.65143
 H576 H 0.79114 0.61052 0.62595
 C577 C 0.30111 0.19518 0.65290
 C578 C 0.32115 0.20496 0.69973
 C579 C 0.37028 0.18739 0.71258
 C580 C 0.39775 0.15811 0.68040
 C581 C 0.37620 0.14553 0.63508
 C582 C 0.32851 0.16577 0.62066
 H583 H 0.26270 0.20772 0.64294
 H584 H 0.38580 0.19386 0.74904
 H585 H 0.43453 0.14328 0.69243
 H586 H 0.31102 0.15683 0.58594
 C587 C 0.29802 0.69260 0.15355
 C588 C 0.31797 0.70239 0.20042
 C589 C 0.36711 0.68494 0.21334
 C590 C 0.39479 0.65587 0.18109
 C591 C 0.37344 0.64336 0.13564
 C592 C 0.32564 0.66336 0.12125
 H593 H 0.25961 0.70508 0.14352
 H594 H 0.38257 0.69146 0.24980
 H595 H 0.43166 0.64122 0.19312
 H596 H 0.30830 0.65446 0.08644
   
