data_POSCAR
  _audit_creation_date              2014-09-24
  _audit_creation_method            'ToBaCCo'
  _symmetry_space_group_name_H-M    'P1'
  _symmetry_Int_Tables_number       1
  _symmetry_cell_setting            triclinic
  loop_
  _symmetry_equiv_pos_as_xyz
 x,y,z
_cell_length_a 31.1175
_cell_length_b 31.9933
_cell_length_c 32.0819
_cell_angle_alpha 90.551200
_cell_angle_beta 88.693600
_cell_angle_gamma 91.759100
loop_
  _atom_site_label
  _atom_site_type_symbol
  _atom_site_fract_x
  _atom_site_fract_y
  _atom_site_fract_z
C1 C 0.24870 0.27444 0.22533
 C2 C 0.27783 0.27099 0.19157
 C3 C 0.31001 0.24092 0.19157
 C4 C 0.31146 0.21310 0.22507
 C5 C 0.28240 0.21604 0.25901
 C6 C 0.25107 0.24701 0.25927
 C7 C 0.21742 0.30514 0.22580
 C8 C 0.18876 0.30928 0.25995
 C9 C 0.19079 0.28121 0.29338
 C10 C 0.22186 0.25032 0.29331
 C11 C 0.22415 0.22265 0.32676
 C12 C 0.25543 0.19191 0.32702
 C13 C 0.28428 0.18857 0.29273
 H14 H 0.27502 0.29164 0.16531
 H15 H 0.33585 0.18960 0.22505
 H16 H 0.21578 0.32637 0.19977
 H17 H 0.16796 0.28274 0.31927
 H18 H 0.20159 0.22514 0.35288
 H19 H 0.30772 0.16427 0.29161
 C20 C 0.76121 -0.27776 0.19255
 C21 C 0.73108 -0.27480 0.16084
 C22 C 0.70154 -0.24227 0.16093
 C23 C 0.70264 -0.21266 0.19388
 C24 C 0.73240 -0.21541 0.22571
 C25 C 0.76170 -0.24808 0.22524
 C26 C 0.79060 -0.31016 0.19221
 C27 C 0.82004 -0.31411 0.22457
 C28 C 0.82003 -0.28411 0.25727
 C29 C 0.79122 -0.25121 0.25767
 C30 C 0.79138 -0.22144 0.29018
 C31 C 0.76244 -0.18841 0.29047
 C32 C 0.73291 -0.18600 0.25830
 H33 H 0.73070 -0.29799 0.13594
 H34 H 0.67982 -0.18795 0.19619
 H35 H 0.79010 -0.33280 0.16681
 H36 H 0.84278 -0.28509 0.28213
 H37 H 0.81350 -0.22470 0.31540
 H38 H 0.71027 -0.16087 0.25856
 C39 C 0.74730 0.26518 0.76842
 C40 C 0.71882 0.25894 0.80256
 C41 C 0.69077 0.22329 0.80442
 C42 C 0.69269 0.19369 0.77177
 C43 C 0.72049 0.19990 0.73728
 C44 C 0.74789 0.23576 0.73553
 C45 C 0.77522 0.30047 0.76675
 C46 C 0.80377 0.30722 0.73254
 C47 C 0.80384 0.27740 0.69969
 C48 C 0.77612 0.24198 0.70103
 C49 C 0.77631 0.21256 0.66830
 C50 C 0.74847 0.17721 0.66940
 C51 C 0.72109 0.17075 0.70440
 H52 H 0.71958 0.28181 0.82753
 H53 H 0.67165 0.16601 0.77267
 H54 H 0.77462 0.32289 0.79234
 H55 H 0.82550 0.28064 0.67308
 H56 H 0.79792 0.21733 0.64164
 H57 H 0.70062 0.14284 0.70656
 C58 C 0.24089 -0.27453 0.78562
 C59 C 0.27166 -0.27408 0.81695
 C60 C 0.30598 -0.24433 0.81648
 C61 C 0.30845 -0.21425 0.78486
 C62 C 0.27797 -0.21433 0.75333
 C63 C 0.24417 -0.24472 0.75358
 C64 C 0.20691 -0.30440 0.78601
 C65 C 0.17573 -0.30507 0.75458
 C66 C 0.17981 -0.27528 0.72253
 C67 C 0.21350 -0.24511 0.72195
 C68 C 0.21683 -0.21514 0.69031
 C69 C 0.25039 -0.18471 0.68972
 C70 C 0.28074 -0.18437 0.72166
 H71 H 0.26820 -0.29651 0.84192
 H72 H 0.33452 -0.19095 0.78459
 H73 H 0.20596 -0.32722 0.81060
 H74 H 0.15639 -0.27529 0.69799
 H75 H 0.19311 -0.21538 0.66605
 H76 H 0.30607 -0.16048 0.72271
 C77 C 0.73803 -0.28449 0.76621
 C78 C 0.70620 -0.28294 0.79786
 C79 C 0.67645 -0.25058 0.79909
 C80 C 0.67970 -0.21916 0.76880
 C81 C 0.71145 -0.22022 0.73711
 C82 C 0.74062 -0.25310 0.73568
 C83 C 0.76734 -0.31695 0.76474
 C84 C 0.79910 -0.31913 0.73284
 C85 C 0.80136 -0.28733 0.70246
 C86 C 0.77247 -0.25449 0.70380
 C87 C 0.77505 -0.22294 0.67365
 C88 C 0.74639 -0.18969 0.67518
 C89 C 0.71447 -0.18889 0.70683
 H90 H 0.70532 -0.30661 0.82176
 H91 H 0.65723 -0.19390 0.76982
 H92 H 0.76512 -0.34089 0.78850
 H93 H 0.82578 -0.28692 0.67802
 H94 H 0.79890 -0.22497 0.64869
 H95 H 0.69200 -0.16363 0.70796
 C96 C 0.25085 0.30349 0.77971
 C97 C 0.28328 0.30886 0.80906
 C98 C 0.31687 0.28070 0.81083
 C99 C 0.31850 0.24733 0.78180
 C100 C 0.28651 0.24181 0.75180
 C101 C 0.25245 0.26992 0.75095
 C102 C 0.21677 0.33118 0.77879
 C103 C 0.18382 0.32547 0.74970
 C104 C 0.18607 0.29237 0.72078
 C105 C 0.22001 0.26455 0.72126
 C106 C 0.22190 0.23145 0.69246
 C107 C 0.25581 0.20346 0.69254
 C108 C 0.28794 0.20865 0.72269
 H109 H 0.28202 0.33468 0.83117
 H110 H 0.34490 0.22607 0.78192
 H111 H 0.21650 0.35739 0.80037
 H112 H 0.16108 0.28810 0.69797
 H113 H 0.19687 0.22754 0.66963
 H114 H 0.31372 0.18683 0.72420
 C115 C 0.26179 -0.27749 0.23798
 C116 C 0.29000 -0.27395 0.20344
 C117 C 0.31900 -0.23951 0.19910
 C118 C 0.31930 -0.20832 0.23071
 C119 C 0.29117 -0.21154 0.26556
 C120 C 0.26234 -0.24628 0.26916
 C121 C 0.23283 -0.31178 0.24151
 C122 C 0.20408 -0.31575 0.27589
 C123 C 0.20492 -0.28415 0.30703
 C124 C 0.23379 -0.24965 0.30379
 C125 C 0.23421 -0.21825 0.33459
 C126 C 0.26295 -0.18364 0.33163
 C127 C 0.29123 -0.18036 0.29676
 H128 H 0.28919 -0.29829 0.17965
 H129 H 0.34121 -0.18152 0.22906
 H130 H 0.23265 -0.33554 0.21713
 H131 H 0.18301 -0.28528 0.33360
 H132 H 0.21213 -0.22078 0.36116
 H133 H 0.31268 -0.15330 0.29318
 C134 C 0.74570 0.28724 0.22751
 C135 C 0.71242 0.28872 0.19873
 C136 C 0.67958 0.25740 0.19817
 C137 C 0.68077 0.22430 0.22658
 C138 C 0.71374 0.22242 0.25554
 C139 C 0.74629 0.25404 0.25606
 C140 C 0.77867 0.31823 0.22774
 C141 C 0.81265 0.31652 0.25620
 C142 C 0.81231 0.28341 0.28484
 C143 C 0.77972 0.25219 0.28480
 C144 C 0.78032 0.21890 0.31289
 C145 C 0.74798 0.18730 0.31284
 C146 C 0.71489 0.18912 0.28366
 H147 H 0.71305 0.31372 0.17625
 H148 H 0.65590 0.19980 0.22606
 H149 H 0.77692 0.34348 0.20582
 H150 H 0.83793 0.28154 0.30708
 H151 H 0.80611 0.21755 0.33499
 H152 H 0.69041 0.16446 0.28198
 O153 O 0.29020 0.05029 0.47266
 O154 O 0.28916 -0.03163 0.55302
 O155 O 0.29157 -0.03097 0.47178
 O156 O 0.29049 0.05016 0.55424
 O157 O 0.21950 0.04806 0.55481
 O158 O 0.22056 -0.03333 0.47264
 O159 O 0.21814 -0.03326 0.55378
 O160 O 0.21918 0.04776 0.47348
 Cu161 Cu 0.29750 0.00975 0.51295
 Cu162 Cu 0.21227 0.00715 0.51380
 C163 C 0.25468 0.06263 0.45912
 C164 C 0.25331 -0.04642 0.56699
 C165 C 0.25625 -0.04591 0.45809
 C166 C 0.25478 0.06291 0.56860
 O167 O 0.71798 0.02901 0.52583
 O168 O 0.71936 -0.05218 0.44376
 O169 O 0.71580 -0.05221 0.52463
 O170 O 0.71816 0.02936 0.44479
 O171 O 0.78915 0.03113 0.44433
 O172 O 0.78681 -0.05053 0.52504
 O173 O 0.79036 -0.05049 0.44393
 O174 O 0.78900 0.03074 0.52557
 Cu175 Cu 0.71071 -0.01164 0.48466
 Cu176 Cu 0.79598 -0.00959 0.48462
 C177 C 0.75336 0.04358 0.53977
 C178 C 0.75514 -0.06538 0.43010
 C179 C 0.75074 -0.06525 0.53853
 C180 C 0.75393 0.04432 0.43102
 O181 O 0.45587 0.27671 0.04153
 O182 O 0.54487 0.28941 -0.03401
 O183 O 0.46216 0.27508 -0.03985
 O184 O 0.53926 0.28386 0.04658
 O185 O 0.54640 0.21542 0.04375
 O186 O 0.46912 0.20659 -0.04048
 O187 O 0.55181 0.22094 -0.03712
 O188 O 0.46279 0.20827 0.04091
 Cu189 Cu 0.49969 0.28806 0.00374
 Cu190 Cu 0.50817 0.20599 0.00159
 C191 C 0.44424 0.24072 0.05453
 C192 C 0.56356 0.25765 -0.04850
 C193 C 0.45266 0.23902 -0.05482
 C194 C 0.55618 0.25079 0.05953
 O195 O 0.53900 0.72104 0.03484
 O196 O 0.44936 0.72296 -0.03795
 O197 O 0.53279 0.72199 -0.04563
 O198 O 0.45574 0.72283 0.04323
 O199 O 0.45914 0.79187 0.04435
 O200 O 0.53581 0.79105 -0.04491
 O201 O 0.45227 0.79201 -0.03675
 O202 O 0.54228 0.79010 0.03542
 Cu203 Cu 0.49371 0.71527 -0.00150
 Cu204 Cu 0.49754 0.79820 -0.00041
 C205 C 0.55604 0.75530 0.04737
 C206 C 0.43570 0.75778 -0.04993
 C207 C 0.54769 0.75642 -0.06020
 C208 C 0.44467 0.75743 0.05923
 O209 O 0.04701 0.45729 0.30024
 O210 O -0.03100 0.54123 0.30856
 O211 O -0.03678 0.45999 0.30276
 O212 O 0.05210 0.53882 0.30516
 O213 O 0.05124 0.54271 0.23650
 O214 O -0.03739 0.46404 0.23410
 O215 O -0.03223 0.54495 0.23988
 O216 O 0.04635 0.46107 0.23159
 Cu217 Cu 0.00797 0.49878 0.31106
 Cu218 Cu 0.00705 0.50349 0.22861
 C219 C 0.06001 0.44484 0.26455
 C220 C -0.04486 0.55742 0.27572
 C221 C -0.05245 0.44885 0.26802
 C222 C 0.06642 0.55457 0.27119
 O223 O 0.03211 0.54453 0.70936
 O224 O -0.05035 0.45942 0.70646
 O225 O -0.05139 0.54112 0.70682
 O226 O 0.03335 0.46354 0.70852
 O227 O 0.02965 0.46342 0.77735
 O228 O -0.05528 0.54113 0.77562
 O229 O -0.05404 0.45939 0.77527
 O230 O 0.02831 0.54439 0.77818
 Cu231 Cu -0.00890 0.50211 0.70087
 Cu232 Cu -0.01339 0.50206 0.78352
 C233 C 0.04449 0.55873 0.74431
 C234 C -0.06601 0.44470 0.74039
 C235 C -0.06748 0.55467 0.74090
 C236 C 0.04623 0.45053 0.74319
 C237 C 0.34271 0.23782 0.15730
 C238 C 0.35506 0.27065 0.13373
 C239 C 0.38945 0.27056 0.10119
 C240 C 0.40916 0.23666 0.08610
 H241 H 0.34118 0.30074 0.13973
 H242 H 0.39879 0.30106 0.08903
 H243 H 0.35877 0.20848 0.15361
 H244 H 0.40005 0.20565 0.09683
 C245 C 0.67117 0.75851 0.12894
 C246 C 0.64463 0.79017 0.12261
 C247 C 0.61097 0.78937 0.09095
 C248 C 0.59190 0.75424 0.07639
 H249 H 0.64784 0.81926 0.13969
 H250 H 0.59947 0.81943 0.08164
 H251 H 0.66978 0.73202 0.10768
 H252 H 0.60150 0.72395 0.08691
 C253 C 0.66052 0.21589 -0.16283
 C254 C 0.65018 0.24369 -0.13302
 C255 C 0.61600 0.23392 -0.10177
 C256 C 0.59922 0.26453 -0.07867
 H257 H 0.66465 0.27479 -0.13240
 H258 H 0.60342 0.20208 -0.09878
 H259 H 0.64274 0.18615 -0.16277
 H260 H 0.61102 0.29647 -0.08312
 C261 C 0.33930 0.75705 -0.15114
 C262 C 0.34895 0.72391 -0.12814
 C263 C 0.38327 0.72431 -0.09697
 C264 C 0.40060 0.75910 -0.07981
 H265 H 0.33307 0.69392 -0.13372
 H266 H 0.39406 0.69407 -0.08740
 H267 H 0.35801 0.78592 -0.14813
 H268 H 0.38926 0.78958 -0.08767
 C269 C 0.15676 0.34277 0.25909
 C270 C 0.13881 0.35935 0.29370
 C271 C 0.10751 0.39336 0.29452
 C272 C 0.09121 0.41115 0.26085
 H273 H 0.14805 0.34856 0.32395
 H274 H 0.09737 0.40405 0.32524
 H275 H 0.14963 0.35504 0.22886
 H276 H 0.10037 0.40121 0.22972
 C277 C 0.14101 0.66544 0.75329
 C278 C 0.13063 0.63769 0.78344
 C279 C 0.09474 0.60645 0.78090
 C280 C 0.07837 0.59189 0.74509
 H281 H 0.14719 0.63810 0.81261
 H282 H 0.08319 0.59319 0.81017
 H283 H 0.12072 0.66607 0.72634
 H284 H 0.09102 0.60304 0.71540
 C285 C -0.15140 0.65243 0.22242
 C286 C -0.12572 0.64125 0.25320
 C287 C -0.09626 0.60635 0.24753
 C288 C -0.07549 0.59141 0.27994
 H289 H -0.12651 0.65667 0.28328
 H290 H -0.09157 0.59280 0.21671
 H291 H -0.15081 0.63364 0.19406
 H292 H -0.08129 0.60436 0.31084
 C293 C -0.16857 0.34313 0.73327
 C294 C -0.14123 0.35507 0.70215
 C295 C -0.11139 0.39194 0.70432
 C296 C -0.09804 0.40983 0.73992
 H297 H -0.14062 0.33866 0.67265
 H298 H -0.09805 0.40317 0.67487
 H299 H -0.17016 0.36271 0.76092
 H300 H -0.10930 0.39792 0.76978
 C301 C 0.25555 0.16291 0.36285
 C302 C 0.28968 0.14084 0.37326
 C303 C 0.28957 0.11098 0.40827
 C304 C 0.25376 0.09408 0.42601
 H305 H 0.31999 0.14541 0.35653
 H306 H 0.32065 0.10111 0.41829
 H307 H 0.22656 0.16110 0.38207
 H308 H 0.22240 0.10202 0.41525
 C309 C 0.74994 0.14696 0.63420
 C310 C 0.71654 0.12155 0.62424
 C311 C 0.71751 0.09067 0.58972
 C312 C 0.75375 0.07557 0.57295
 H313 H 0.68608 0.12420 0.64083
 H314 H 0.68668 0.07858 0.57919
 H315 H 0.77896 0.14723 0.61498
 H316 H 0.78482 0.08580 0.58432
 C317 C 0.25131 -0.15287 0.65630
 C318 C 0.28626 -0.12929 0.64563
 C319 C 0.28691 -0.09680 0.61303
 C320 C 0.25159 -0.07914 0.59895
 H321 H 0.31669 -0.13460 0.65995
 H322 H 0.31825 -0.08607 0.60139
 H323 H 0.22208 -0.14999 0.63911
 H324 H 0.22009 -0.08819 0.61129
 C325 C 0.76073 -0.15643 0.32415
 C326 C 0.79320 -0.14733 0.34982
 C327 C 0.79164 -0.11429 0.38236
 C328 C 0.75515 -0.09839 0.39790
 H329 H 0.82347 -0.16273 0.34578
 H330 H 0.82222 -0.10351 0.39461
 H331 H 0.73204 -0.13820 0.32608
 H332 H 0.72414 -0.11006 0.38766
 C333 C 0.64254 0.75240 -0.16780
 C334 C 0.62712 0.71938 -0.14597
 C335 C 0.59365 0.72136 -0.11249
 C336 C 0.57956 0.75675 -0.09487
 H337 H 0.63837 0.68849 -0.15334
 H338 H 0.58116 0.69156 -0.10100
 H339 H 0.62895 0.78276 -0.16277
 H340 H 0.59217 0.78695 -0.10483
 C341 C 0.34978 0.28768 -0.15684
 C342 C 0.37216 0.25693 -0.14073
 C343 C 0.40261 0.26519 -0.10679
 C344 C 0.42238 0.23358 -0.08921
 H345 H 0.36696 0.22500 -0.15140
 H346 H 0.40847 0.29699 -0.09589
 H347 H 0.35388 0.31901 -0.14403
 H348 H 0.41598 0.20194 -0.10038
 C349 C 0.34644 0.76158 0.16336
 C350 C 0.37498 0.79259 0.15348
 C351 C 0.40347 0.79194 0.11582
 C352 C 0.41496 0.75690 0.09566
 H353 H 0.37733 0.82078 0.17208
 H354 H 0.41708 0.82180 0.10565
 H355 H 0.34351 0.73541 0.14188
 H356 H 0.40373 0.72657 0.10670
 C357 C 0.64486 0.25653 0.16708
 C358 C 0.63375 0.28970 0.14471
 C359 C 0.60043 0.28780 0.11234
 C360 C 0.58790 0.25236 0.09291
 H361 H 0.64835 0.32017 0.15074
 H362 H 0.58748 0.31720 0.10288
 H363 H 0.62712 0.22717 0.16347
 H364 H 0.60206 0.22303 0.10054
 C365 C -0.17238 0.64734 0.73334
 C366 C -0.14283 0.63906 0.70333
 C367 C -0.11247 0.60449 0.70522
 C368 C -0.10026 0.58691 0.74067
 H369 H -0.14093 0.65662 0.67480
 H370 H -0.09765 0.59505 0.67588
 H371 H -0.17536 0.62630 0.75954
 H372 H -0.11288 0.59741 0.77053
 C373 C -0.15297 0.34636 0.25759
 C374 C -0.14581 0.37752 0.23018
 C375 C -0.10890 0.40764 0.23232
 C376 C -0.08853 0.41799 0.26752
 H377 H -0.16557 0.38054 0.20326
 H378 H -0.09955 0.42326 0.20355
 H379 H -0.12985 0.34286 0.28195
 H380 H -0.09908 0.40468 0.29703
 C381 C 0.14735 0.35410 0.74754
 C382 C 0.13352 0.37728 0.77999
 C383 C 0.09723 0.40603 0.77843
 C384 C 0.08113 0.42050 0.74311
 H385 H 0.14803 0.37425 0.81007
 H386 H 0.08453 0.41696 0.80816
 H387 H 0.13030 0.35429 0.71856
 H388 H 0.09443 0.41146 0.71306
 C389 C 0.17512 0.64936 0.27675
 C390 C 0.14725 0.63981 0.30819
 C391 C 0.11574 0.60424 0.30680
 C392 C 0.10050 0.58753 0.27138
 H393 H 0.14742 0.65727 0.33711
 H394 H 0.10254 0.59346 0.33647
 H395 H 0.17594 0.62846 0.25002
 H396 H 0.11138 0.59956 0.24144
 C397 C 0.74754 -0.15614 0.64351
 C398 C 0.78243 -0.14593 0.61988
 C399 C 0.78362 -0.11270 0.58803
 C400 C 0.74851 -0.09787 0.57059
 H401 H 0.81248 -0.16100 0.62490
 H402 H 0.81514 -0.10124 0.57760
 H403 H 0.71882 -0.13821 0.64108
 H404 H 0.71684 -0.11017 0.57924
 C405 C 0.26111 -0.15108 0.36493
 C406 C 0.29370 -0.12404 0.37332
 C407 C 0.29233 -0.09216 0.40712
 C408 C 0.25601 -0.07814 0.42493
 H409 H 0.32399 -0.12629 0.35640
 H410 H 0.32302 -0.07875 0.41657
 H411 H 0.23233 -0.15109 0.38448
 H412 H 0.22494 -0.08962 0.41462
 C413 C 0.75078 0.15253 0.34297
 C414 C 0.71707 0.12783 0.35466
 C415 C 0.71876 0.09396 0.38566
 C416 C 0.75495 0.07758 0.39948
 H417 H 0.68554 0.13357 0.34292
 H418 H 0.68795 0.08159 0.39707
 H419 H 0.78151 0.14883 0.35733
 H420 H 0.78616 0.08837 0.38780
 C421 C 0.25530 0.16896 0.66108
 C422 C 0.28955 0.14639 0.65017
 C423 C 0.28921 0.11328 0.61741
 C424 C 0.25348 0.09530 0.60161
 H425 H 0.32033 0.15346 0.66393
 H426 H 0.32033 0.10294 0.60643
 H427 H 0.22554 0.16373 0.64485
 H428 H 0.22200 0.10386 0.61305
   
