data_POSCAR
  _audit_creation_date              2014-09-24
  _audit_creation_method            'ToBaCCo'
  _symmetry_space_group_name_H-M    'P1'
  _symmetry_Int_Tables_number       1
  _symmetry_cell_setting            triclinic
  loop_
  _symmetry_equiv_pos_as_xyz
 x,y,z
_cell_length_a 36.3391
_cell_length_b 36.3261
_cell_length_c 17.2041
_cell_angle_alpha 89.938500
_cell_angle_beta 90.068600
_cell_angle_gamma 124.506100
loop_
  _atom_site_label
  _atom_site_type_symbol
  _atom_site_fract_x
  _atom_site_fract_y
  _atom_site_fract_z
C1 C 0.49942 0.99944 0.46233
 C2 C 0.49957 0.99953 0.54141
 C3 C 0.48317 0.95849 0.58771
 C4 C 0.51612 1.04082 0.58684
 C5 C 0.51722 1.04104 0.41665
 C6 C 0.48150 0.95783 0.41671
 C7 C 0.44976 0.94526 0.64315
 C8 C 0.43554 0.90843 0.69062
 C9 C 0.45503 0.88407 0.68564
 C10 C 0.48761 0.89678 0.62720
 C11 C 0.50178 0.93384 0.57963
 C12 C 0.49605 1.06421 0.58053
 C13 C 0.51045 1.10156 0.62734
 C14 C 0.54520 1.11611 0.68174
 C15 C 0.56557 1.09276 0.68626
 C16 C 0.55099 1.05544 0.63994
 C17 C 0.56119 1.07846 0.42671
 C18 C 0.57792 1.11653 0.38062
 C19 C 0.55089 1.11809 0.32367
 C20 C 0.50731 1.07980 0.31250
 C21 C 0.49059 1.04199 0.35883
 C22 C 0.50785 0.95709 0.35819
 C23 C 0.49105 0.91933 0.31179
 C24 C 0.44764 0.88088 0.32352
 C25 C 0.42090 0.88217 0.38129
 C26 C 0.43771 0.92021 0.42745
 H27 H 0.43471 0.96366 0.64989
 H28 H 0.40951 0.89927 0.73272
 H29 H 0.50250 0.87866 0.61687
 H30 H 0.52768 0.94360 0.53697
 H31 H 0.46870 1.05304 0.54030
 H32 H 0.49368 1.11811 0.62069
 H33 H 0.56683 1.03774 0.64572
 H34 H 0.58292 1.07779 0.46896
 H35 H 0.61244 1.14396 0.38826
 H36 H 0.48624 1.07867 0.26671
 H37 H 0.45690 1.01311 0.34890
 H38 H 0.54141 0.98609 0.34778
 H39 H 0.51189 0.92058 0.26554
 H40 H 0.38651 0.85460 0.38955
 H41 H 0.41620 0.92070 0.47033
 H42 H 0.59247 1.10308 0.72710
 C43 C -0.00079 0.49919 0.45716
 C44 C -0.00058 0.49933 0.53622
 C45 C 0.04109 0.51700 0.58157
 C46 C -0.04200 0.48186 0.58211
 C47 C -0.04198 0.48294 0.41161
 C48 C 0.04019 0.51539 0.41114
 C49 C 0.04192 0.49044 0.63969
 C50 C 0.07977 0.50708 0.68586
 C51 C 0.11820 0.55053 0.67425
 C52 C 0.11680 0.57747 0.61690
 C53 C 0.07869 0.56082 0.57097
 C54 C -0.07972 0.43805 0.57208
 C55 C -0.11758 0.42161 0.61848
 C56 C -0.11862 0.44877 0.67571
 C57 C -0.08006 0.49219 0.68678
 C58 C -0.04246 0.50862 0.64015
 C59 C -0.06519 0.50315 0.41802
 C60 C -0.10249 0.48904 0.37119
 C61 C -0.11731 0.45434 0.31632
 C62 C -0.09399 0.43382 0.31201
 C63 C -0.05673 0.44816 0.35841
 C64 C 0.05461 0.55005 0.35762
 C65 C 0.09180 0.56448 0.31108
 C66 C 0.11522 0.54419 0.31580
 C67 C 0.10083 0.50962 0.37053
 C68 C 0.06361 0.49535 0.41755
 H69 H 0.01290 0.45687 0.65002
 H70 H 0.07855 0.48610 0.73190
 H71 H 0.14436 0.61191 0.60888
 H72 H 0.07813 0.58250 0.52845
 H73 H -0.07944 0.41621 0.52965
 H74 H -0.14525 0.38718 0.61088
 H75 H -0.01334 0.54219 0.65005
 H76 H -0.05392 0.53042 0.45844
 H77 H -0.11866 0.50611 0.37860
 H78 H -0.10426 0.40691 0.27123
 H79 H -0.03919 0.43216 0.35260
 H80 H 0.03692 0.56589 0.35177
 H81 H 0.10202 0.59127 0.27001
 H82 H 0.11747 0.49295 0.37739
 H83 H 0.05260 0.46819 0.45812
 H84 H -0.07854 0.51333 0.73273
 C85 C 0.50043 0.50037 0.46309
 C86 C 0.50054 0.50047 0.54214
 C87 C 0.48127 0.52034 0.58776
 C88 C 0.51990 0.48063 0.58784
 C89 C 0.52013 0.48091 0.41744
 C90 C 0.48058 0.51971 0.41731
 C91 C 0.49721 0.56548 0.57984
 C92 C 0.47983 0.58400 0.62576
 C93 C 0.44571 0.55755 0.68058
 C94 C 0.43062 0.51235 0.68850
 C95 C 0.44807 0.49408 0.64274
 C96 C 0.55330 0.50698 0.64251
 C97 C 0.57080 0.48873 0.68838
 C98 C 0.55556 0.44348 0.68084
 C99 C 0.52122 0.41695 0.62636
 C100 C 0.50380 0.43545 0.58033
 C101 C 0.49383 0.44795 0.36202
 C102 C 0.51207 0.43064 0.31577
 C103 C 0.55713 0.44574 0.32367
 C104 C 0.58357 0.47918 0.37924
 C105 C 0.56518 0.49655 0.42558
 C106 C 0.43554 0.50406 0.42559
 C107 C 0.41700 0.52126 0.37905
 C108 C 0.44327 0.55454 0.32312
 C109 C 0.48834 0.56968 0.31514
 C110 C 0.50672 0.55254 0.36158
 H111 H 0.52381 0.58661 0.53917
 H112 H 0.49452 0.61922 0.61895
 H113 H 0.40553 0.49109 0.73136
 H114 H 0.43577 0.45930 0.65052
 H115 H 0.56571 0.54180 0.64999
 H116 H 0.59602 0.51004 0.73105
 H117 H 0.47703 0.41425 0.53992
 H118 H 0.45911 0.43580 0.35419
 H119 H 0.49101 0.40572 0.27255
 H120 H 0.61863 0.49319 0.38622
 H121 H 0.58634 0.52287 0.46670
 H122 H 0.41451 0.47785 0.46698
 H123 H 0.38196 0.50727 0.38621
 H124 H 0.50928 0.59452 0.27172
 H125 H 0.54143 0.56470 0.35366
 H126 H 0.50638 0.38167 0.61997
 O127 O 0.40611 0.65280 -0.06444
 O128 O 0.40755 0.72461 -0.08895
 C129 C 0.38881 0.74470 -0.10177
 O130 O 0.35473 0.73630 -0.06415
 O131 O 0.27988 0.65935 -0.09261
 C132 C 0.25734 0.61780 -0.10639
 O133 O 0.26206 0.59076 -0.06803
 O134 O 0.33613 0.59643 -0.09164
 C135 C 0.37783 0.61838 -0.10364
 O136 O 0.40330 0.66405 0.08982
 O137 O 0.40849 0.73781 0.06556
 C138 C 0.38122 0.74233 0.10339
 O139 O 0.33974 0.71973 0.08895
 O140 O 0.26312 0.64453 0.06049
 C141 C 0.25531 0.61091 0.09900
 O142 O 0.27545 0.59223 0.08660
 O143 O 0.34736 0.59393 0.06262
 C144 C 0.38155 0.62237 0.10207
 Cr145 Cr 0.40394 0.69351 0.00043
 Cr146 Cr 0.31052 0.68884 -0.00183
 Cr147 Cr 0.30653 0.59576 -0.00259
 O148 O 0.34035 0.65937 -0.00138
 O149 O 0.59443 0.34778 -0.06346
 O150 O 0.59292 0.27601 -0.08828
 C151 C 0.61169 0.25597 -0.10089
 O152 O 0.64529 0.26376 -0.06237
 O153 O 0.72039 0.34059 -0.09005
 C154 C 0.74298 0.38214 -0.10394
 O155 O 0.73835 0.40925 -0.06574
 O156 O 0.66452 0.40396 -0.09014
 C157 C 0.62286 0.38220 -0.10248
 O158 O 0.59672 0.33602 0.09073
 O159 O 0.59126 0.26212 0.06620
 C160 C 0.61829 0.25740 0.10455
 O161 O 0.65984 0.28002 0.09090
 O162 O 0.73673 0.35510 0.06320
 C163 C 0.74462 0.38876 0.10156
 O164 O 0.72464 0.40759 0.08879
 O165 O 0.65292 0.40615 0.06405
 C166 C 0.61859 0.37769 0.10318
 Cr167 Cr 0.59624 0.30677 0.00128
 Cr168 Cr 0.68942 0.31101 0.00042
 Cr169 Cr 0.69383 0.40432 -0.00073
 O170 O 0.65983 0.34071 0.00031
 C171 C 0.44011 0.84720 -0.26054
 C172 C 0.46446 0.82576 -0.25951
 C173 C 0.44670 0.78955 -0.20504
 C174 C 0.40837 0.78178 -0.16132
 C175 C 0.42408 0.82463 -0.12527
 C176 C 0.44182 0.86060 -0.17948
 C177 C 0.39344 0.81063 -0.27459
 C178 C 0.37604 0.77476 -0.22006
 H179 H 0.49641 0.83869 -0.28675
 H180 H 0.46322 0.77289 -0.19326
 H181 H 0.42489 0.82974 -0.06291
 H182 H 0.45746 0.89492 -0.16058
 H183 H 0.37378 0.80953 -0.32331
 H184 H 0.34237 0.74472 -0.22430
 C185 C 0.15748 0.56904 -0.26999
 C186 C 0.14846 0.58453 -0.19368
 C187 C 0.18170 0.60043 -0.14033
 C188 C 0.22139 0.59956 -0.16734
 C189 C 0.20093 0.55079 -0.19122
 C190 C 0.16785 0.53500 -0.24516
 C191 C 0.20309 0.60959 -0.29826
 C192 C 0.23636 0.62554 -0.24441
 H193 H 0.11830 0.58316 -0.18261
 H194 H 0.17986 0.61250 -0.08374
 H195 H 0.21268 0.53094 -0.17042
 H196 H 0.15204 0.50196 -0.27039
 H197 H 0.20978 0.62298 -0.35680
 H198 H 0.27061 0.65279 -0.25685
 C199 C 0.42826 0.57531 -0.26704
 C200 C 0.44361 0.57677 -0.18298
 C201 C 0.42641 0.59066 -0.12982
 C202 C 0.39535 0.60232 -0.16451
 C203 C 0.42309 0.63693 -0.22807
 C204 C 0.44018 0.62299 -0.28199
 C205 C 0.37676 0.54638 -0.26304
 C206 C 0.35964 0.56022 -0.20930
 H207 H 0.46658 0.56796 -0.16664
 H208 H 0.43464 0.59356 -0.06847
 H209 H 0.42702 0.66880 -0.23258
 H210 H 0.45737 0.64327 -0.33267
 H211 H 0.35544 0.51801 -0.30077
 H212 H 0.32392 0.54338 -0.20137
 C213 C 0.56106 0.15492 -0.26237
 C214 C 0.61096 0.19217 -0.27287
 C215 C 0.62740 0.22589 -0.22018
 C216 C 0.59263 0.21971 -0.16124
 C217 C 0.55443 0.21363 -0.21133
 C218 C 0.53786 0.17983 -0.26424
 C219 C 0.55669 0.14000 -0.17713
 C220 C 0.57329 0.17371 -0.12466
 H221 H 0.63145 0.19235 -0.31893
 H222 H 0.66185 0.25472 -0.22121
 H223 H 0.54161 0.23421 -0.20629
 H224 H 0.51101 0.17249 -0.30292
 H225 H 0.54109 0.10551 -0.15944
 H226 H 0.57195 0.16798 -0.06244
 C227 C 0.84234 0.43049 -0.26817
 C228 C 0.83235 0.46474 -0.24304
 C229 C 0.79946 0.44911 -0.18884
 C230 C 0.77879 0.40027 -0.16504
 C231 C 0.76345 0.37434 -0.24211
 C232 C 0.79653 0.39013 -0.29620
 C233 C 0.85144 0.41482 -0.19203
 C234 C 0.81838 0.39908 -0.13843
 H235 H 0.84823 0.49780 -0.26826
 H236 H 0.78797 0.46911 -0.16782
 H237 H 0.72911 0.34723 -0.25436
 H238 H 0.78960 0.37677 -0.35475
 H239 H 0.88153 0.41598 -0.18125
 H240 H 0.82031 0.38693 -0.08190
 C241 C 0.57294 0.42568 -0.26654
 C242 C 0.62444 0.45458 -0.26205
 C243 C 0.64141 0.44061 -0.20808
 C244 C 0.60557 0.39845 -0.16358
 C245 C 0.57446 0.41010 -0.12926
 C246 C 0.55741 0.42410 -0.18265
 C247 C 0.56103 0.37802 -0.28150
 C248 C 0.57797 0.36396 -0.22736
 H249 H 0.64586 0.48300 -0.29964
 H250 H 0.67710 0.45741 -0.19979
 H251 H 0.56612 0.40712 -0.06800
 H252 H 0.53445 0.43294 -0.16659
 H253 H 0.54405 0.35789 -0.33243
 H254 H 0.57407 0.33211 -0.23189
 C255 C 0.84581 0.43945 0.26323
 C256 C 0.82078 0.46264 0.26483
 C257 C 0.78698 0.44601 0.21187
 C258 C 0.78091 0.40782 0.16193
 C259 C 0.82685 0.42720 0.12538
 C260 C 0.86061 0.44389 0.17779
 C261 C 0.80843 0.38948 0.27377
 C262 C 0.77475 0.37306 0.22097
 H263 H 0.82791 0.48956 0.30301
 H264 H 0.76640 0.45883 0.20662
 H265 H 0.83253 0.42863 0.06315
 H266 H 0.89508 0.45969 0.15984
 H267 H 0.80806 0.36891 0.32002
 H268 H 0.74588 0.33862 0.22212
 C269 C 0.56943 0.15738 0.26792
 C270 C 0.61007 0.20295 0.29620
 C271 C 0.62606 0.23627 0.24242
 C272 C 0.60003 0.22138 0.16539
 C273 C 0.60074 0.18161 0.13822
 C274 C 0.58480 0.14832 0.19150
 C275 C 0.53549 0.16792 0.24328
 C276 C 0.55132 0.20104 0.18940
 H277 H 0.62350 0.20957 0.35471
 H278 H 0.65339 0.27049 0.25488
 H279 H 0.61274 0.17975 0.08157
 H280 H 0.58331 0.11809 0.18033
 H281 H 0.50252 0.15222 0.26862
 H282 H 0.53156 0.21292 0.16877
 C283 C 0.57575 0.42759 0.26781
 C284 C 0.62368 0.44027 0.28154
 C285 C 0.63755 0.42326 0.22734
 C286 C 0.60256 0.39498 0.16452
 C287 C 0.56097 0.35912 0.21021
 C288 C 0.54719 0.37615 0.26428
 C289 C 0.57626 0.44255 0.18394
 C290 C 0.59010 0.42553 0.13027
 H291 H 0.64448 0.45865 0.33108
 H292 H 0.66985 0.42806 0.23061
 H293 H 0.54431 0.32341 0.20231
 H294 H 0.51900 0.35487 0.30232
 H295 H 0.56682 0.46509 0.16816
 H296 H 0.59237 0.43348 0.06889
 C297 C 0.15406 0.56008 0.25999
 C298 C 0.19128 0.60998 0.27071
 C299 C 0.22506 0.62648 0.21817
 C300 C 0.21895 0.59177 0.15914
 C301 C 0.21280 0.55348 0.20914
 C302 C 0.17894 0.53685 0.26189
 C303 C 0.13925 0.55580 0.17469
 C304 C 0.17302 0.57246 0.12236
 H305 H 0.19140 0.63044 0.31679
 H306 H 0.25387 0.66094 0.21934
 H307 H 0.23332 0.54061 0.20406
 H308 H 0.17145 0.50986 0.30034
 H309 H 0.10479 0.54021 0.15685
 H310 H 0.16738 0.57119 0.06012
 C311 C 0.42916 0.84169 0.26764
 C312 C 0.38815 0.79610 0.29497
 C313 C 0.37246 0.76299 0.24091
 C314 C 0.39911 0.77809 0.16459
 C315 C 0.39885 0.81810 0.13716
 C316 C 0.41451 0.85118 0.19070
 C317 C 0.46311 0.83101 0.24409
 C318 C 0.44757 0.79811 0.18995
 H319 H 0.37427 0.78924 0.35310
 H320 H 0.34495 0.72876 0.25278
 H321 H 0.38729 0.82025 0.08017
 H322 H 0.41621 0.88153 0.17941
 H323 H 0.49591 0.84657 0.27020
 H324 H 0.46738 0.78620 0.16991
 C325 C 0.42452 0.57256 0.26709
 C326 C 0.45290 0.62400 0.26370
 C327 C 0.43906 0.64099 0.20951
 C328 C 0.39760 0.60508 0.16355
 C329 C 0.41031 0.57475 0.12943
 C330 C 0.42420 0.55777 0.18323
 C331 C 0.37648 0.55963 0.28046
 C332 C 0.36256 0.57661 0.22613
 H333 H 0.48101 0.64530 0.30190
 H334 H 0.45561 0.67669 0.20169
 H335 H 0.40813 0.56689 0.06805
 H336 H 0.43378 0.53535 0.16755
 H337 H 0.35561 0.54103 0.32977
 H338 H 0.33017 0.57160 0.22911
   
