data_POSCAR
  _audit_creation_date              2014-09-24
  _audit_creation_method            'ToBaCCo'
  _symmetry_space_group_name_H-M    'P1'
  _symmetry_Int_Tables_number       1
  _symmetry_cell_setting            triclinic
  loop_
  _symmetry_equiv_pos_as_xyz
 x,y,z
_cell_length_a 24.3758
_cell_length_b 25.3346
_cell_length_c 23.7809
_cell_angle_alpha 91.087100
_cell_angle_beta 90.751400
_cell_angle_gamma 91.062000
loop_
  _atom_site_label
  _atom_site_type_symbol
  _atom_site_fract_x
  _atom_site_fract_y
  _atom_site_fract_z
O1 O 0.53649 0.10626 -0.00249
 O2 O 0.45725 -0.04483 -0.11971
 O3 O 0.60412 0.00850 -0.07826
 O4 O 0.37856 0.03940 0.01449
 O5 O 0.55568 -0.06084 -0.10763
 O6 O 0.44285 0.09144 -0.00402
 O7 O 0.41855 0.02097 -0.08031
 O8 O 0.61032 0.06440 0.00987
 C9 C 0.58691 0.10535 -0.00316
 C10 C 0.42851 -0.00481 -0.12361
 C11 C 0.59046 -0.02397 -0.11628
 C12 C 0.39367 0.08541 0.00692
 O13 O 0.44938 0.03215 0.09268
 O14 O 0.52987 -0.11585 -0.01181
 O15 O 0.59999 -0.01756 0.07016
 O16 O 0.36367 -0.05218 -0.03395
 O17 O 0.43470 -0.10245 -0.02699
 O18 O 0.54927 0.04991 0.09512
 O19 O 0.41953 -0.04253 0.05552
 O20 O 0.60677 -0.07496 -0.01734
 Co21 Co 0.49508 0.06401 0.04135
 Co22 Co 0.49541 -0.07416 -0.06179
 Co23 Co 0.59561 -0.00491 -0.00458
 Co24 Co 0.42270 -0.01212 -0.01356
 O25 O 0.50533 -0.00398 -0.00894
 C26 C 0.42511 -0.01208 0.09755
 C27 C 0.58021 -0.11556 -0.00608
 C28 C 0.58372 0.01446 0.10682
 C29 C 0.38403 -0.09876 -0.03892
 O30 O -0.11602 0.46236 -0.03269
 O31 O 0.07112 0.54937 0.10418
 O32 O -0.03112 0.42044 0.07117
 O33 O -0.08829 0.58183 0.04880
 O34 O 0.04212 0.45449 0.10862
 O35 O -0.11412 0.56037 -0.03560
 O36 O -0.01279 0.56189 0.10633
 O37 O -0.06027 0.39732 -0.02662
 C38 C -0.10805 0.41416 -0.02894
 C39 C 0.03153 0.56569 0.13071
 C40 C -0.00134 0.42774 0.11325
 C41 C -0.12362 0.58147 0.01100
 O42 O -0.03428 0.56134 -0.10513
 O43 O 0.09553 0.43779 0.01095
 O44 O 0.03271 0.42968 -0.06592
 O45 O 0.05766 0.60384 0.02504
 O46 O 0.10625 0.53519 0.00184
 O47 O -0.03786 0.45965 -0.11017
 O48 O -0.02286 0.61783 -0.03364
 O49 O 0.03829 0.36983 0.01453
 Co50 Co -0.06889 0.50997 -0.06405
 Co51 Co 0.07002 0.49510 0.05178
 Co52 Co 0.00105 0.42942 0.00369
 Co53 Co -0.01516 0.58487 0.03500
 O54 O -0.00790 0.50789 0.00489
 C55 C -0.02435 0.60727 -0.08613
 C56 C 0.08877 0.38836 0.01870
 C57 C 0.00512 0.43318 -0.10992
 C58 C 0.09948 0.58411 0.00249
 O59 O 0.00986 -0.10501 0.47129
 O60 O 0.11036 0.04974 0.54108
 O61 O 0.07284 -0.00909 0.38713
 O62 O -0.00357 -0.03057 0.63969
 O63 O 0.10275 0.06025 0.43728
 O64 O 0.00130 -0.08620 0.56932
 O65 O 0.07795 -0.02280 0.57669
 O66 O -0.00840 -0.07153 0.39181
 C67 C 0.00978 -0.10863 0.41948
 C68 C 0.11781 0.00758 0.56747
 C69 C 0.10996 0.02398 0.40044
 C70 C -0.00722 -0.07891 0.62143
 O71 O -0.09379 -0.03499 0.54908
 O72 O 0.00947 0.11656 0.45517
 O73 O -0.07292 0.00938 0.39812
 O74 O 0.03871 0.06072 0.61784
 O75 O 0.01505 0.10735 0.55082
 O76 O -0.09012 -0.05924 0.44966
 O77 O -0.05690 0.03626 0.58301
 O78 O 0.00769 0.06889 0.38013
 Co79 Co -0.03903 -0.06445 0.50809
 Co80 Co 0.05557 0.07714 0.49609
 Co81 Co 0.00018 -0.00005 0.39919
 Co82 Co 0.00936 0.00527 0.57633
 O83 O 0.00687 0.00735 0.49131
 C84 C -0.09824 0.00739 0.57610
 C85 C 0.00221 0.11238 0.40401
 C86 C -0.10582 -0.02424 0.41605
 C87 C 0.02940 0.10533 0.60068
 C88 C -0.30907 0.23182 -0.02134
 C89 C -0.33222 0.28748 -0.02654
 C90 C -0.29259 0.32614 -0.02884
 C91 C -0.23393 0.30511 -0.02568
 C92 C -0.23094 0.26391 -0.07365
 C93 C -0.27047 0.22535 -0.07136
 C94 C -0.27121 0.23479 0.03075
 C95 C -0.23175 0.27328 0.02846
 C96 C -0.35027 0.18931 -0.01786
 C97 C -0.38096 0.15206 -0.01255
 C98 C -0.19060 0.34575 -0.02759
 C99 C -0.15349 0.37769 -0.02839
 H100 H -0.37574 0.29578 -0.02835
 H101 H -0.30213 0.36762 -0.03260
 H102 H -0.20054 0.26501 -0.10660
 H103 H -0.27398 0.19340 -0.10236
 H104 H -0.27513 0.20893 0.06643
 H105 H -0.20186 0.28041 0.06214
 C106 C 0.28366 0.77604 -0.03915
 C107 C 0.25523 0.77330 0.01785
 C108 C 0.21963 0.73170 0.02192
 C109 C 0.21576 0.69666 -0.03139
 C110 C 0.27496 0.68032 -0.04291
 C111 C 0.31073 0.72214 -0.04700
 C112 C 0.23678 0.77616 -0.08293
 C113 C 0.20103 0.73438 -0.07884
 C114 C 0.32160 0.82147 -0.04197
 C115 C 0.35191 0.85960 -0.04150
 C116 C 0.17649 0.65274 -0.02492
 C117 C 0.14227 0.61942 -0.01495
 H118 H 0.26243 0.80162 0.05213
 H119 H 0.19637 0.72442 0.05973
 H120 H 0.28760 0.63964 -0.04762
 H121 H 0.35407 0.71727 -0.05521
 H122 H 0.23219 0.80627 -0.11445
 H123 H 0.16583 0.72866 -0.10687
 C124 C 0.28321 0.20568 0.00985
 C125 C 0.24355 0.20093 0.05916
 C126 C 0.20564 0.23971 0.06107
 C127 C 0.21107 0.27949 0.01350
 C128 C 0.20839 0.24593 -0.04095
 C129 C 0.24631 0.20713 -0.04287
 C130 C 0.30851 0.26152 0.01584
 C131 C 0.27053 0.30038 0.01776
 C132 C 0.32358 0.16350 0.00801
 C133 C 0.35595 0.12813 0.00711
 C134 C 0.16953 0.32058 0.01559
 C135 C 0.13366 0.35264 0.01718
 H136 H 0.24513 0.16985 0.08993
 H137 H 0.17477 0.24185 0.09350
 H138 H 0.17931 0.25216 -0.07506
 H139 H 0.24972 0.18012 -0.07859
 H140 H 0.35234 0.26980 0.01832
 H141 H 0.28180 0.34194 0.02189
 C142 C -0.32408 0.75580 0.01608
 C143 C -0.28295 0.75721 -0.03212
 C144 C -0.24537 0.71842 -0.03008
 C145 C -0.25236 0.68174 0.01998
 C146 C -0.31184 0.66084 0.01527
 C147 C -0.34969 0.69991 0.01321
 C148 C -0.28875 0.75749 0.07001
 C149 C -0.25100 0.71852 0.07207
 C150 C -0.36293 0.79903 0.01224
 C151 C -0.39107 0.83704 0.00565
 C152 C -0.21011 0.64140 0.02061
 C153 C -0.17208 0.61184 0.01788
 H154 H -0.28335 0.78621 -0.06518
 H155 H -0.21362 0.71422 -0.06139
 H156 H -0.32320 0.61920 0.01387
 H157 H -0.39351 0.69178 0.01005
 H158 H -0.29317 0.78655 0.10372
 H159 H -0.22306 0.71416 0.10754
 C160 C 0.03888 -0.32394 0.25797
 C161 C -0.01435 -0.29297 0.25268
 C162 C -0.01686 -0.25092 0.28874
 C163 C 0.03408 -0.24364 0.32682
 C164 C 0.08256 -0.24058 0.28640
 C165 C 0.08509 -0.28280 0.25020
 C166 C 0.04258 -0.33902 0.32015
 C167 C 0.04005 -0.29666 0.35647
 C168 C 0.04002 -0.36799 0.21709
 C169 C 0.03776 -0.40063 0.17957
 C170 C 0.02968 -0.19717 0.36412
 C171 C 0.02249 -0.15732 0.39130
 H172 H -0.04738 -0.30328 0.22316
 H173 H -0.05204 -0.22525 0.29006
 H174 H 0.11243 -0.20825 0.28640
 H175 H 0.11713 -0.28663 0.21919
 H176 H 0.04695 -0.37920 0.33435
 H177 H 0.04225 -0.30056 0.40182
 C178 C 0.02665 0.31973 0.76921
 C179 C 0.03917 0.33288 0.70793
 C180 C 0.04100 0.28935 0.67330
 C181 C 0.03010 0.23713 0.70352
 C182 C -0.02542 0.24404 0.73198
 C183 C -0.02724 0.28738 0.76645
 C184 C 0.07056 0.28023 0.78646
 C185 C 0.07238 0.23680 0.75189
 C186 C 0.02323 0.36523 0.80786
 C187 C 0.01693 0.39899 0.84339
 C188 C 0.03118 0.19005 0.66682
 C189 C 0.03078 0.15116 0.63688
 H190 H 0.04608 0.37268 0.69310
 H191 H 0.04947 0.29188 0.62872
 H192 H -0.06032 0.21725 0.72560
 H193 H -0.06377 0.29768 0.78958
 H194 H 0.09793 0.28596 0.82254
 H195 H 0.10127 0.20531 0.75836
 C196 C -0.01646 0.32265 0.23966
 C197 C 0.03148 0.28535 0.22962
 C198 C 0.03222 0.24362 0.26459
 C199 C -0.01504 0.24294 0.30646
 C200 C -0.06740 0.24520 0.27006
 C201 C -0.06814 0.28713 0.23492
 C202 C -0.01181 0.33881 0.30211
 C203 C -0.01107 0.29681 0.33731
 C204 C -0.01555 0.36620 0.19985
 C205 C -0.01108 0.39753 0.16259
 C206 C -0.01267 0.19708 0.34315
 C207 C -0.00753 0.15852 0.37157
 H208 H 0.06236 0.29127 0.19770
 H209 H 0.06367 0.21386 0.26259
 H210 H -0.10098 0.21656 0.27188
 H211 H -0.10240 0.29441 0.20665
 H212 H -0.00951 0.37947 0.31730
 H213 H -0.00812 0.30152 0.38272
 C214 C -0.01177 -0.27616 0.80509
 C215 C -0.06113 -0.23954 0.80866
 C216 C -0.05968 -0.19973 0.77100
 C217 C -0.00901 -0.20037 0.73339
 C218 C -0.00952 -0.25566 0.70585
 C219 C -0.01096 -0.29550 0.74354
 C220 C 0.03882 -0.23951 0.81209
 C221 C 0.04027 -0.19963 0.77437
 C222 C -0.01416 -0.31911 0.84557
 C223 C -0.01810 -0.35449 0.87857
 C224 C -0.00788 -0.15740 0.69288
 C225 C -0.00748 -0.12180 0.65995
 H226 H -0.09432 -0.24443 0.83823
 H227 H -0.09163 -0.17055 0.76830
 H228 H -0.00873 -0.26289 0.66072
 H229 H -0.01141 -0.33686 0.73069
 H230 H 0.07064 -0.24443 0.84382
 H231 H 0.07338 -0.17040 0.77378
 C232 C 0.33179 0.00587 0.74315
 C233 C 0.29330 -0.04257 0.74741
 C234 C 0.25312 -0.04514 0.70722
 C235 C 0.25515 0.00094 0.66649
 C236 C 0.31338 0.00066 0.64244
 C237 C 0.35383 0.00323 0.68291
 C238 C 0.29387 0.05342 0.74439
 C239 C 0.25366 0.05085 0.70415
 C240 C 0.37313 0.00733 0.78855
 C241 C 0.40229 0.00409 0.82962
 C242 C 0.20990 -0.00112 0.62517
 C243 C 0.16922 0.00034 0.59593
 H244 H 0.29740 -0.07247 0.77925
 H245 H 0.22291 -0.07716 0.70461
 H246 H 0.32204 -0.00139 0.59781
 H247 H 0.39716 0.00346 0.67295
 H248 H 0.29835 0.08637 0.77406
 H249 H 0.22366 0.08168 0.69945
 C250 C -0.32286 -0.00040 0.24867
 C251 C -0.34501 -0.00365 0.30879
 C252 C -0.30500 -0.01142 0.34863
 C253 C -0.24711 -0.01516 0.32408
 C254 C -0.23910 0.03579 0.29097
 C255 C -0.27877 0.04351 0.25148
 C256 C -0.29112 -0.05162 0.23969
 C257 C -0.25141 -0.05934 0.27922
 C258 C -0.36322 0.00760 0.20342
 C259 C -0.39078 0.01231 0.16140
 C260 C -0.20173 -0.02257 0.36419
 C261 C -0.15982 -0.02556 0.39135
 H262 H -0.38805 -0.00016 0.31911
 H263 H -0.31375 -0.01464 0.39307
 H264 H -0.20524 0.06367 0.29820
 H265 H -0.27888 0.07794 0.22496
 H266 H -0.29940 -0.07964 0.20537
 H267 H -0.22575 -0.09392 0.27875
 C268 C 0.32169 -0.01299 0.23017
 C269 C 0.27942 -0.05835 0.23340
 C270 C 0.23949 -0.04952 0.27188
 C271 C 0.24568 0.00387 0.30339
 C272 C 0.24796 0.04509 0.25716
 C273 C 0.28776 0.03628 0.21882
 C274 C 0.34389 -0.00491 0.29059
 C275 C 0.30382 0.00394 0.32919
 C276 C 0.36328 -0.02050 0.18676
 C277 C 0.39397 -0.02071 0.14738
 C278 C 0.20104 0.01347 0.34299
 C279 C 0.16106 0.01989 0.37153
 H280 H 0.28086 -0.09434 0.20798
 H281 H 0.20670 -0.07802 0.27935
 H282 H 0.22077 0.07847 0.25479
 H283 H 0.29452 0.06219 0.18360
 H284 H 0.38709 -0.00622 0.30202
 H285 H 0.31269 0.01029 0.37367
 C286 C -0.30935 -0.00597 0.74862
 C287 C -0.27852 0.04723 0.75654
 C288 C -0.23837 0.05552 0.71815
 C289 C -0.23292 0.00986 0.67549
 C290 C -0.29046 0.00208 0.64900
 C291 C -0.33075 -0.00624 0.68755
 C292 C -0.26451 -0.04753 0.74953
 C293 C -0.22451 -0.03926 0.71127
 C294 C -0.35075 -0.01495 0.79200
 C295 C -0.38037 -0.02078 0.83178
 C296 C -0.18791 0.01681 0.63559
 C297 C -0.14792 0.01658 0.60619
 H298 H -0.28763 0.07601 0.78936
 H299 H -0.21318 0.09131 0.71805
 H300 H -0.29882 0.00317 0.60410
 H301 H -0.37357 -0.01233 0.67567
 H302 H -0.26426 -0.08076 0.77771
 H303 H -0.19000 -0.06546 0.70682
   
