data_POSCAR
  _audit_creation_date              2014-09-24
  _audit_creation_method            'ToBaCCo'
  _symmetry_space_group_name_H-M    'P1'
  _symmetry_Int_Tables_number       1
  _symmetry_cell_setting            triclinic
  loop_
  _symmetry_equiv_pos_as_xyz
 x,y,z
_cell_length_a 23.2144
_cell_length_b 22.8264
_cell_length_c 22.0666
_cell_angle_alpha 89.547600
_cell_angle_beta 90.456100
_cell_angle_gamma 89.928100
loop_
  _atom_site_label
  _atom_site_type_symbol
  _atom_site_fract_x
  _atom_site_fract_y
  _atom_site_fract_z
C1 C 0.19591 0.20213 0.24357
 N2 N 0.23954 0.17603 0.21182
 C3 C 0.26242 0.20506 0.16261
 N4 N 0.24081 0.25824 0.14575
 C5 C 0.19759 0.28303 0.17692
 N6 N 0.17583 0.25507 0.22525
 C7 C -0.18902 0.78983 0.28237
 N8 N -0.24513 0.80596 0.27640
 C9 C -0.27248 0.80125 0.22210
 N10 N -0.24466 0.77674 0.17483
 C11 C -0.18985 0.75742 0.18161
 N12 N -0.16120 0.76590 0.23469
 C13 C -0.19332 0.18630 -0.29266
 N14 N -0.16608 0.22980 -0.26306
 C15 C -0.18342 0.24625 -0.20702
 N16 N -0.22610 0.21579 -0.17806
 C17 C -0.25282 0.17072 -0.20753
 N18 N -0.23758 0.15832 -0.26544
 C19 C 0.19226 0.81309 -0.25266
 N20 N 0.17253 0.76893 -0.21789
 C21 C 0.20389 0.74680 -0.17155
 N22 N 0.25615 0.77011 -0.15798
 C23 C 0.27724 0.81464 -0.19281
 N24 N 0.24549 0.83563 -0.24105
 C25 C 0.17423 1.19887 0.73760
 N26 N 0.15207 1.23549 0.77995
 C27 C 0.17701 1.23890 0.83600
 N28 N 0.22422 1.20573 0.84912
 C29 C 0.24757 1.17110 0.80608
 N30 N 0.22247 1.16768 0.75077
 C31 C 0.80675 0.83243 0.75738
 N32 N 0.83491 0.78047 0.76356
 C33 C 0.81298 0.73715 0.79976
 N34 N 0.76078 0.74507 0.82692
 C35 C 0.73118 0.79596 0.81688
 N36 N 0.75507 0.83929 0.78374
 C37 C 0.18417 0.79279 1.25683
 N38 N 0.16606 0.75111 1.21754
 C39 C 0.19677 0.73976 1.16669
 N40 N 0.24526 0.77099 1.15468
 C41 C 0.26368 0.81196 1.19464
 N42 N 0.23333 0.82239 1.24543
 C43 C 0.79928 1.19336 1.28637
 N44 N 0.76911 1.16591 1.24184
 C45 C 0.75555 1.19506 1.18965
 N46 N 0.77510 1.25034 1.18056
 C47 C 0.80562 1.27802 1.22438
 N48 N 0.81618 1.24997 1.27797
 O49 O 0.57118 0.96166 0.88727
 O50 O 0.46208 0.95490 1.12699
 O51 O 0.58875 0.91009 1.06822
 O52 O 0.42971 0.91377 0.96169
 O53 O 0.56843 0.96997 1.13760
 O54 O 0.46850 0.95124 0.88452
 O55 O 0.39303 0.96033 1.05717
 O56 O 0.58219 0.90661 0.96396
 C57 C 0.58437 0.91264 0.90886
 C58 C 0.41236 0.94219 1.10797
 C59 C 0.58583 0.92100 1.12268
 C60 C 0.43913 0.91122 0.90658
 O61 O 0.45012 1.06079 0.91440
 O62 O 0.56021 1.07711 1.10359
 O63 O 0.62867 1.01810 0.95279
 O64 O 0.41370 1.06510 1.01652
 O65 O 0.44868 1.06511 1.10719
 O66 O 0.55809 1.07353 0.92571
 O67 O 0.37174 1.00850 0.93803
 O68 O 0.62894 1.02369 1.06296
 Co69 Co 0.51255 1.01051 0.91265
 Co70 Co 0.51014 1.01480 1.10801
 Co71 Co 0.60021 0.96694 1.01157
 Co72 Co 0.42936 0.99017 0.98957
 O73 O 0.51456 0.99332 1.01047
 C74 C 0.39711 1.04779 0.90289
 C75 C 0.61169 1.07047 1.08771
 C76 C 0.61086 1.06400 0.92619
 C77 C 0.41345 1.08418 1.06911
 O78 O 0.05058 0.48477 0.11545
 O79 O 0.07019 0.54175 -0.09105
 O80 O 0.02236 0.37036 -0.01749
 O81 O 0.06881 0.57710 0.01006
 O82 O 0.06542 0.43179 -0.07970
 O83 O 0.03283 0.58893 0.09534
 O84 O 0.02672 0.62760 -0.07761
 O85 O 0.01305 0.39936 0.09190
 C86 C 0.05381 0.42990 0.11415
 C87 C 0.06884 0.59701 -0.10198
 C88 C 0.06112 0.38205 -0.05550
 C89 C 0.07430 0.59614 0.06146
 O90 O -0.07974 0.56703 0.08691
 O91 O -0.04242 0.43362 -0.11289
 O92 O -0.10119 0.42471 0.06609
 O93 O -0.07675 0.58395 -0.05582
 O94 O -0.03985 0.53992 -0.12869
 O95 O -0.05712 0.46925 0.13556
 O96 O -0.03595 0.62879 0.02846
 O97 O -0.08737 0.39387 -0.03703
 Co98 Co -0.01438 0.52503 0.09793
 Co99 Co 0.01041 0.48797 -0.09222
 Co100 Co -0.03627 0.40597 0.02453
 Co101 Co -0.00426 0.57647 -0.02394
 O102 O -0.01519 0.49606 0.00461
 C103 C -0.07644 0.61732 0.06407
 C104 C -0.08085 0.40085 -0.09247
 C105 C -0.09719 0.43691 0.12008
 C106 C -0.07792 0.57370 -0.11033
 O107 O 1.12171 0.03650 0.41870
 O108 O 0.89042 0.04186 0.53453
 O109 O 0.94567 0.05916 0.39662
 O110 O 1.05841 0.05351 0.60533
 O111 O 0.88382 0.00220 0.43349
 O112 O 1.10828 0.07466 0.52524
 O113 O 0.96429 0.08841 0.56470
 O114 O 1.04243 0.06651 0.38009
 C115 C 1.09508 0.07139 0.38567
 C116 C 0.91158 0.08774 0.55490
 C117 C 0.89524 0.05002 0.40906
 C118 C 1.09156 0.08731 0.57746
 O119 O 1.11409 -0.03601 0.56465
 O120 O 0.93507 -0.09638 0.47471
 O121 O 1.05477 -0.05250 0.37638
 O122 O 0.95594 0.00717 0.64476
 O123 O 0.92952 -0.06005 0.57863
 O124 O 1.11513 -0.06980 0.45327
 O125 O 1.02897 -0.05529 0.59734
 O126 O 0.94973 -0.06214 0.38480
 Co127 Co 1.10441 0.00144 0.49096
 Co128 Co 0.91871 -0.02540 0.50354
 Co129 Co 0.99853 0.00223 0.39239
 Co130 Co 0.99600 0.01535 0.57553
 O131 O 1.00857 0.00111 0.48685
 C132 C 1.08152 -0.06569 0.59761
 C133 C 0.93299 -0.10326 0.41915
 C134 C 1.09355 -0.08328 0.40240
 C135 C 0.92167 -0.03653 0.63028
 N136 N 1.10257 0.17341 0.36240
 N137 N 1.12870 0.20912 0.32441
 C138 C 1.16758 0.17740 0.29336
 C139 C 1.16509 0.11999 0.31485
 N140 N 1.12341 0.11988 0.35761
 H141 H 1.18678 0.08174 0.29739
 N142 N 0.85137 -0.16677 0.42614
 N143 N 0.81526 -0.19451 0.38979
 C144 C 0.84042 -0.19642 0.33516
 C145 C 0.89313 -0.16821 0.33884
 N146 N 0.89791 -0.14977 0.39648
 H147 H 0.92077 -0.15513 0.30183
 N148 N 0.81696 0.12649 0.56433
 N149 N 0.78567 0.14894 0.60817
 C150 C 0.82288 0.17051 0.64920
 C151 C 0.87845 0.16109 0.62865
 N152 N 0.87284 0.13195 0.57587
 H153 H 0.91792 0.16473 0.65485
 N154 N 1.07208 -0.15695 0.65185
 N155 N 1.10082 -0.19021 0.69080
 C156 C 1.15269 -0.16498 0.69992
 C157 C 1.15512 -0.11470 0.66448
 N158 N 1.10367 -0.11154 0.63550
 H159 H 1.18892 -0.08211 0.66278
 N160 N 0.36250 1.17503 1.04947
 N161 N 0.32203 1.20792 1.07381
 C162 C 0.30622 1.18203 1.12642
 C163 C 0.33936 1.13189 1.13400
 N164 N 0.37399 1.12962 1.08500
 H165 H 0.33769 1.09978 1.17031
 N166 N 0.40926 0.88613 0.80631
 N167 N 0.36377 0.86485 0.77770
 C168 C 0.33140 0.83815 0.81982
 C169 C 0.35909 0.84341 0.87582
 N170 N 0.40746 0.87467 0.86530
 H171 H 0.34215 0.83236 0.92002
 N172 N 0.60792 0.89189 1.22613
 N173 N 0.64695 0.85966 1.25516
 C174 C 0.67500 0.82895 1.21256
 C175 C 0.65108 0.84220 1.15672
 N176 N 0.61014 0.88232 1.16708
 H177 H 0.66721 0.83034 1.11253
 N178 N 0.64159 1.06659 0.82311
 N179 N 0.67723 1.09399 0.78634
 C180 C 0.70440 1.13562 0.81875
 C181 C 0.68378 1.13265 0.87804
 N182 N 0.64462 1.08864 0.87821
 H183 H 0.69662 1.15848 0.91677
 N184 N 0.15754 0.42570 0.12762
 N185 N 0.19812 0.38679 0.14133
 C186 C 0.17034 0.33707 0.15631
 C187 C 0.11195 0.34630 0.15162
 N188 N 0.10575 0.40214 0.13377
 H189 H 0.07746 0.31521 0.15903
 N190 N -0.12060 0.38663 -0.19233
 N191 N -0.14739 0.34599 -0.22401
 C192 C -0.16150 0.30258 -0.18512
 C193 C -0.14272 0.31814 -0.12778
 N194 N -0.11717 0.37094 -0.13464
 H195 H -0.14257 0.29164 -0.08688
 N196 N 0.17285 0.60634 -0.11153
 N197 N 0.21124 0.64744 -0.12473
 C198 C 0.18083 0.69561 -0.14049
 C199 C 0.12310 0.68261 -0.13777
 N200 N 0.11988 0.62664 -0.12011
 H201 H 0.08687 0.71080 -0.14880
 N202 N -0.14089 0.69886 0.04275
 N203 N -0.17131 0.73803 0.07286
 C204 C -0.16271 0.72618 0.13222
 C205 C -0.12740 0.67813 0.13790
 N206 N -0.11515 0.66231 0.08114
 H207 H -0.11188 0.65692 0.17897
 N208 N 1.07414 0.18210 0.62106
 N209 N 1.09435 0.21286 0.66730
 C210 C 1.14478 0.18790 0.68368
 C211 C 1.15528 0.14170 0.64516
 N212 N 1.11028 0.13950 0.60671
 H213 H 1.18803 0.10810 0.65008
 N214 N 0.84114 -0.03039 0.69805
 N215 N 0.80813 -0.06515 0.73100
 C216 C 0.83013 -0.11976 0.72689
 C217 C 0.87779 -0.11760 0.68987
 N218 N 0.88294 -0.06099 0.67314
 H219 H 0.90525 -0.15326 0.67571
 N220 N 1.07436 -0.17762 0.35791
 N221 N 1.09739 -0.21222 0.31668
 C222 C 1.15012 -0.19046 0.30508
 C223 C 1.15920 -0.14224 0.34132
 N224 N 1.11098 -0.13581 0.37351
 H225 H 1.19429 -0.11106 0.33934
 N226 N 0.86073 0.14742 0.42277
 N227 N 0.83845 0.18933 0.38804
 C228 C 0.81654 0.16306 0.33864
 C229 C 0.82541 0.10320 0.34490
 N230 N 0.85357 0.09516 0.39810
 H231 H 0.82055 0.07042 0.31001
 N232 N 0.13836 0.31286 -0.03223
 N233 N 0.17098 0.27432 -0.06077
 C234 C 0.15386 0.27475 -0.11945
 C235 C 0.11000 0.31521 -0.12616
 N236 N 0.10186 0.33786 -0.07083
 H237 H 0.08622 0.32698 -0.16690
 N238 N -0.11711 0.40872 0.22388
 N239 N -0.14144 0.36486 0.25388
 C240 C -0.17023 0.33278 0.21260
 C241 C -0.16342 0.35892 0.15627
 N242 N -0.12942 0.40585 0.16523
 H243 H -0.17631 0.34185 0.11256
 N244 N -0.08869 0.62187 -0.20689
 N245 N -0.11495 0.66778 -0.23150
 C246 C -0.15509 0.68558 -0.19194
 C247 C -0.15243 0.64856 -0.14152
 N248 N -0.10985 0.60959 -0.15272
 H249 H -0.17458 0.65343 -0.09885
 N250 N 0.16682 0.64382 0.04373
 N251 N 0.20067 0.68282 0.07045
 C252 C 0.17608 0.69552 0.12399
 C253 C 0.12656 0.66303 0.12953
 N254 N 0.12230 0.63145 0.07869
 H255 H 0.09535 0.66409 0.16573
 N256 N 0.38098 1.09518 0.80564
 N257 N 0.34160 1.12808 0.77804
 C258 C 0.29945 1.13699 0.81864
 C259 C 0.31345 1.10812 0.87168
 N260 N 0.36446 1.08255 0.86143
 H261 H 0.28924 1.10582 0.91337
 N262 N 0.38868 0.89925 1.20465
 N263 N 0.35049 0.86372 1.22934
 C264 C 0.31537 0.84631 1.18413
 C265 C 0.33228 0.87295 1.13086
 N266 N 0.37814 0.90577 1.14597
 H267 H 0.31249 0.87024 1.08637
 N268 N 0.65953 1.16298 1.06817
 N269 N 0.69881 1.19701 1.09374
 C270 C 0.71703 1.16901 1.14450
 C271 C 0.68775 1.11678 1.14948
 N272 N 0.65245 1.11495 1.10111
 H273 H 0.69004 1.08451 1.18565
 N274 N 0.59195 0.85184 0.81879
 N275 N 0.62938 0.81465 0.79531
 C276 C 0.67198 0.80564 0.83662
 C277 C 0.65921 0.83952 0.88623
 N278 N 0.60955 0.86754 0.87328
 H279 H 0.68748 0.84954 0.92401
   
