data_POSCAR
  _audit_creation_date              2014-09-24
  _audit_creation_method            'ToBaCCo'
  _symmetry_space_group_name_H-M    'P1'
  _symmetry_Int_Tables_number       1
  _symmetry_cell_setting            triclinic
  loop_
  _symmetry_equiv_pos_as_xyz
 x,y,z
_cell_length_a 26.9466
_cell_length_b 37.2462
_cell_length_c 25.6983
_cell_angle_alpha 90.120600
_cell_angle_beta 90.000200
_cell_angle_gamma 90.115100
loop_
  _atom_site_label
  _atom_site_type_symbol
  _atom_site_fract_x
  _atom_site_fract_y
  _atom_site_fract_z
O1 O 0.24283 0.28413 0.18298
 O2 O 0.31290 0.21441 0.25281
 O3 O 0.24303 0.21419 0.18276
 O4 O 0.31271 0.28433 0.25299
 O5 O 0.25601 0.28418 0.31520
 O6 O 0.18633 0.21403 0.24497
 O7 O 0.25620 0.21425 0.31502
 O8 O 0.18613 0.28397 0.24520
 Cu9 Cu 0.28359 0.24928 0.21161
 Cu10 Cu 0.21544 0.24909 0.28637
 C11 C 0.20266 0.29583 0.20232
 C12 C 0.29638 0.20257 0.29571
 C13 C 0.20292 0.20227 0.20201
 C14 C 0.29612 0.29610 0.29595
 O15 O 0.74396 0.21557 0.31515
 O16 O 0.81365 0.28557 0.24508
 O17 O 0.74377 0.28549 0.31510
 O18 O 0.81385 0.21564 0.24516
 O19 O 0.75716 0.21535 0.18293
 O20 O 0.68708 0.28522 0.25288
 O21 O 0.75697 0.28529 0.18286
 O22 O 0.68727 0.21529 0.25293
 Cu23 Cu 0.78453 0.25060 0.28640
 Cu24 Cu 0.71640 0.25026 0.21162
 C25 C 0.70385 0.20362 0.29587
 C26 C 0.79708 0.29726 0.20213
 C27 C 0.70359 0.29714 0.29581
 C28 C 0.79732 0.20369 0.20225
 O29 O 0.74406 0.78551 0.68489
 O30 O 0.81350 0.71554 0.75492
 O31 O 0.74366 0.71559 0.68487
 O32 O 0.81399 0.78548 0.75487
 O33 O 0.75731 0.78569 0.81710
 O34 O 0.68696 0.71578 0.74709
 O35 O 0.75680 0.71575 0.81714
 O36 O 0.68737 0.78571 0.74712
 Cu37 Cu 0.78453 0.75051 0.71362
 Cu38 Cu 0.71639 0.75076 0.78839
 C39 C 0.70398 0.79741 0.70418
 C40 C 0.79685 0.70383 0.79784
 C41 C 0.70345 0.70388 0.70416
 C42 C 0.79753 0.79739 0.79780
 O43 O 0.31285 0.78542 0.74711
 O44 O 0.24286 0.71552 0.81707
 O45 O 0.31271 0.71549 0.74704
 O46 O 0.24294 0.78546 0.81711
 O47 O 0.18625 0.78536 0.75490
 O48 O 0.25601 0.71540 0.68482
 O49 O 0.18616 0.71542 0.75485
 O50 O 0.25615 0.78532 0.68489
 Cu51 Cu 0.28356 0.75049 0.78836
 Cu52 Cu 0.21542 0.75037 0.71359
 C53 C 0.29633 0.79716 0.70418
 C54 C 0.20271 0.70366 0.79776
 C55 C 0.29613 0.70363 0.70410
 C56 C 0.20281 0.79723 0.79784
 C57 C 1.02706 0.02658 0.02645
 C58 C 0.97478 0.02661 0.02634
 C59 C 0.94893 -0.00033 -0.00051
 C60 C 0.97467 -0.02730 -0.02726
 C61 C 1.02695 -0.02733 -0.02717
 C62 C 1.05280 -0.00039 -0.00031
 H63 H 1.09306 -0.00041 -0.00023
 H64 H 0.90867 -0.00031 -0.00059
 C65 C 0.52562 0.52706 0.52703
 C66 C 0.47334 0.52697 0.52705
 C67 C 0.44756 0.50004 0.50010
 C68 C 0.47336 0.47320 0.47312
 C69 C 0.52565 0.47331 0.47309
 C70 C 0.55143 0.50024 0.50005
 H71 H 0.59169 0.50032 0.50003
 H72 H 0.40729 0.49996 0.50012
 C73 C -0.02710 0.47272 0.02716
 C74 C 0.02519 0.47269 0.02704
 C75 C 0.05103 0.49962 0.00032
 C76 C 0.02529 0.52658 -0.02629
 C77 C -0.02699 0.52660 -0.02619
 C78 C -0.05284 0.49968 0.00054
 H79 H -0.09310 0.49970 0.00062
 H80 H 0.09129 0.49960 0.00024
 C81 C 0.47434 0.97333 0.52698
 C82 C 0.52663 0.97343 0.52700
 C83 C 0.55241 1.00027 0.50002
 C84 C 0.52661 1.02700 0.47301
 C85 C 0.47432 1.02690 0.47297
 C86 C 0.44854 1.00007 0.49996
 H87 H 0.40828 0.99999 0.49993
 H88 H 0.59267 1.00034 0.50004
 C89 C 1.17724 0.17642 0.17613
 C90 C 1.15442 0.15346 0.15317
 C91 C 1.12768 0.12658 0.12631
 C92 C 1.10481 0.10365 0.10339
 C93 C 1.07796 0.07681 0.07658
 C94 C 1.05490 0.05392 0.05373
 C95 C 0.67609 0.67665 0.67689
 C96 C 0.65313 0.65376 0.65395
 C97 C 0.62627 0.62695 0.62707
 C98 C 0.60334 0.60406 0.60414
 C99 C 0.57645 0.57725 0.57730
 C100 C 0.55340 0.55439 0.55440
 C101 C -0.17725 0.32306 0.17633
 C102 C -0.15443 0.34598 0.15343
 C103 C -0.12769 0.37282 0.12664
 C104 C -0.10483 0.39573 0.10380
 C105 C -0.07798 0.42254 0.07708
 C106 C -0.05493 0.44540 0.05433
 C107 C 0.32363 0.82434 0.67690
 C108 C 0.34659 0.84716 0.65396
 C109 C 0.37349 0.87387 0.62709
 C110 C 0.39649 0.89666 0.60415
 C111 C 0.42345 0.92335 0.57730
 C112 C 0.44654 0.94611 0.55438
 C113 C -0.17617 0.67653 -0.17493
 C114 C -0.15351 0.65358 -0.15208
 C115 C -0.12698 0.62669 -0.12535
 C116 C -0.10429 0.60373 -0.10256
 C117 C -0.07763 0.57686 -0.07592
 C118 C -0.05471 0.55396 -0.05325
 C119 C 0.32370 1.17546 0.32295
 C120 C 0.34665 1.15269 0.34587
 C121 C 0.37354 1.12605 0.37274
 C122 C 0.39651 1.10332 0.39570
 C123 C 0.42343 1.07671 0.42259
 C124 C 0.44651 1.05402 0.44554
 C125 C 1.17709 -0.17699 -0.17635
 C126 C 1.15424 -0.15409 -0.15346
 C127 C 1.12745 -0.12727 -0.12667
 C128 C 1.10456 -0.10437 -0.10384
 C129 C 1.07771 -0.07756 -0.07713
 C130 C 1.05469 -0.05468 -0.05436
 C131 C 0.67628 0.32432 0.32307
 C132 C 0.65333 0.34715 0.34601
 C133 C 0.62644 0.37386 0.37289
 C134 C 0.60348 0.39666 0.39586
 C135 C 0.57654 0.42334 0.42274
 C136 C 0.55346 0.44610 0.44568
 C137 C 0.82346 -0.17685 -0.17642
 C138 C 0.84651 -0.15397 -0.15356
 C139 C 0.87351 -0.12716 -0.12682
 C140 C 0.89659 -0.10429 -0.10400
 C141 C 0.92364 -0.07750 -0.07729
 C142 C 0.94680 -0.05464 -0.05451
 C143 C 0.32326 0.32341 0.32328
 C144 C 0.34608 0.34636 0.34625
 C145 C 0.37284 0.37322 0.37312
 C146 C 0.39571 0.39615 0.39606
 C147 C 0.42256 0.42298 0.42289
 C148 C 0.44559 0.44586 0.44577
 C149 C 0.17550 0.67639 -0.17504
 C150 C 0.15265 0.65346 -0.15221
 C151 C 0.12589 0.62660 -0.12551
 C152 C 0.10302 0.60366 -0.10274
 C153 C 0.07617 0.57681 -0.07610
 C154 C 0.05312 0.55392 -0.05341
 C155 C 0.67670 1.17636 0.32316
 C156 C 0.65388 1.15347 0.34610
 C157 C 0.62712 1.12668 0.37297
 C158 C 0.60425 1.10381 0.39590
 C159 C 0.57742 1.07706 0.42275
 C160 C 0.55439 1.05425 0.44564
 C161 C 0.17541 0.32303 0.17519
 C162 C 0.15252 0.34591 0.15244
 C163 C 0.12571 0.37272 0.12584
 C164 C 0.10281 0.39563 0.10316
 C165 C 0.07596 0.42245 0.07665
 C166 C 0.05294 0.44533 0.05405
 C167 C 0.67688 0.82460 0.67687
 C168 C 0.65406 0.84743 0.65394
 C169 C 0.62729 0.87414 0.62708
 C170 C 0.60438 0.89692 0.60415
 C171 C 0.57749 0.92357 0.57730
 C172 C 0.55443 0.94628 0.55440
 C173 C 0.82458 0.17645 0.17505
 C174 C 0.84747 0.15353 0.15224
 C175 C 0.87428 0.12668 0.12555
 C176 C 0.89717 0.10375 0.10279
 C177 C 0.92402 0.07690 0.07617
 C178 C 0.94704 0.05399 0.05347
 C179 C 0.32329 0.67639 0.67681
 C180 C 0.34610 0.65348 0.65388
 C181 C 0.37284 0.62667 0.62704
 C182 C 0.39569 0.60379 0.60412
 C183 C 0.42252 0.57703 0.57729
 C184 C 0.44554 0.55421 0.55441
   
