data_POSCAR
  _audit_creation_date              2014-09-24
  _audit_creation_method            'ToBaCCo'
  _symmetry_space_group_name_H-M    'P1'
  _symmetry_Int_Tables_number       1
  _symmetry_cell_setting            triclinic
  loop_
  _symmetry_equiv_pos_as_xyz
 x,y,z
_cell_length_a 44.1559
_cell_length_b 44.1470
_cell_length_c 44.8887
_cell_angle_alpha 90.033900
_cell_angle_beta 89.965400
_cell_angle_gamma 89.924700
loop_
  _atom_site_label
  _atom_site_type_symbol
  _atom_site_fract_x
  _atom_site_fract_y
  _atom_site_fract_z
C1 C -0.06469 0.31029 0.02682
 C2 C -0.08031 0.31002 -0.00024
 C3 C -0.06485 0.31027 -0.02741
 C4 C -0.03280 0.31104 -0.02781
 C5 C -0.01666 0.31139 -0.00047
 C6 C -0.03264 0.31108 0.02699
 C7 C -0.01613 0.31119 0.05381
 C8 C 0.01539 0.31122 0.05368
 C9 C 0.03165 0.31112 0.02675
 C10 C 0.01553 0.31140 -0.00058
 C11 C -0.01646 0.31111 -0.05474
 C12 C 0.01506 0.31110 -0.05484
 C13 C 0.03154 0.31105 -0.02802
 C14 C 0.06360 0.31027 -0.02780
 C15 C 0.07917 0.31006 -0.00070
 C16 C 0.06364 0.31037 0.02640
 H17 H -0.02750 0.31112 0.07519
 H18 H 0.02692 0.31116 0.07496
 H19 H -0.02795 0.31101 -0.07604
 H20 H 0.02645 0.31100 -0.07621
 H21 H -0.10491 0.30898 -0.00016
 H22 H 0.10375 0.30902 -0.00064
 C23 C 0.43550 0.81209 0.52724
 C24 C 0.41998 0.81174 0.50014
 C25 C 0.43554 0.81200 0.47305
 C26 C 0.46753 0.81287 0.47276
 C27 C 0.48357 0.81326 0.50015
 C28 C 0.46750 0.81292 0.52753
 C29 C 0.48384 0.81302 0.55441
 C30 C 0.51538 0.81305 0.55442
 C31 C 0.53175 0.81302 0.52754
 C32 C 0.51572 0.81333 0.50016
 C33 C 0.48391 0.81295 0.44589
 C34 C 0.51545 0.81303 0.44589
 C35 C 0.53179 0.81303 0.47278
 C36 C 0.56379 0.81232 0.47307
 C37 C 0.57932 0.81205 0.50016
 C38 C 0.56375 0.81227 0.52726
 H39 H 0.47234 0.81291 0.57572
 H40 H 0.52684 0.81297 0.57573
 H41 H 0.47245 0.81280 0.42457
 H42 H 0.52694 0.81295 0.42458
 H43 H 0.39542 0.81060 0.50014
 H44 H 0.60389 0.81101 0.50016
 C45 C 0.93676 0.68865 0.02699
 C46 C 0.92131 0.68893 -0.00014
 C47 C 0.93695 0.68871 -0.02719
 C48 C 0.96895 0.68797 -0.02738
 C49 C 0.98492 0.68764 0.00004
 C50 C 0.96876 0.68792 0.02737
 C51 C 0.98499 0.68786 0.05430
 C52 C 1.01652 0.68792 0.05441
 C53 C 1.03305 0.68804 0.02759
 C54 C 1.01710 0.68770 0.00014
 C55 C 0.98538 0.68794 -0.05421
 C56 C 1.01690 0.68798 -0.05414
 C57 C 1.03325 0.68807 -0.02722
 C58 C 1.06529 0.68890 -0.02684
 C59 C 1.08074 0.68918 0.00032
 C60 C 1.06510 0.68889 0.02740
 H61 H 0.97342 0.68791 0.07557
 H62 H 1.02787 0.68802 0.07579
 H63 H 0.97396 0.68804 -0.07555
 H64 H 1.02840 0.68810 -0.07545
 H65 H 0.89674 0.68999 -0.00020
 H66 H 1.10533 0.69027 0.00039
 C67 C 0.43616 0.18874 0.47293
 C68 C 0.42062 0.18906 0.50004
 C69 C 0.43618 0.18882 0.52712
 C70 C 0.46818 0.18799 0.52737
 C71 C 0.48422 0.18762 0.49997
 C72 C 0.46816 0.18795 0.47261
 C73 C 0.48450 0.18788 0.44571
 C74 C 0.51604 0.18787 0.44567
 C75 C 0.53242 0.18792 0.47254
 C76 C 0.51638 0.18759 0.49994
 C77 C 0.48455 0.18792 0.55423
 C78 C 0.51609 0.18786 0.55420
 C79 C 0.53244 0.18789 0.52730
 C80 C 0.56443 0.18861 0.52698
 C81 C 0.57997 0.18890 0.49987
 C82 C 0.56441 0.18868 0.47279
 H83 H 0.47302 0.18798 0.42441
 H84 H 0.52751 0.18797 0.42435
 H85 H 0.47308 0.18805 0.57556
 H86 H 0.52758 0.18795 0.57550
 H87 H 0.39606 0.19016 0.50006
 H88 H 0.60453 0.18995 0.49984
 C89 C 0.68970 -0.06434 0.02704
 C90 C 0.68994 -0.08009 0.00001
 C91 C 0.68964 -0.06473 -0.02720
 C92 C 0.68887 -0.03268 -0.02770
 C93 C 0.68853 -0.01642 -0.00041
 C94 C 0.68887 -0.03229 0.02710
 C95 C 0.68874 -0.01566 0.05386
 C96 C 0.68867 0.01587 0.05363
 C97 C 0.68875 0.03202 0.02665
 C98 C 0.68850 0.01577 -0.00063
 C99 C 0.68881 -0.01645 -0.05468
 C100 C 0.68883 0.01508 -0.05489
 C101 C 0.68888 0.03167 -0.02812
 C102 C 0.68966 0.06374 -0.02800
 C103 C 0.68981 0.07942 -0.00095
 C104 C 0.68947 0.06401 0.02620
 H105 H 0.68883 -0.02693 0.07528
 H106 H 0.68871 0.02750 0.07487
 H107 H 0.68890 -0.02804 -0.07595
 H108 H 0.68894 0.02637 -0.07629
 H109 H 0.69099 -0.10469 0.00016
 H110 H 0.69085 0.10401 -0.00096
 C111 C 0.18790 0.56404 0.52765
 C112 C 0.18812 0.57974 0.50064
 C113 C 0.18777 0.56433 0.47346
 C114 C 0.18698 0.53234 0.47298
 C115 C 0.18665 0.51614 0.50026
 C116 C 0.18703 0.53204 0.52774
 C117 C 0.18694 0.51553 0.55452
 C118 C 0.18685 0.48398 0.55432
 C119 C 0.18689 0.46777 0.52734
 C120 C 0.18662 0.48397 0.50006
 C121 C 0.18693 0.51613 0.44600
 C122 C 0.18695 0.48458 0.44580
 C123 C 0.18698 0.46807 0.47258
 C124 C 0.18778 0.43606 0.47267
 C125 C 0.18795 0.42036 0.49967
 C126 C 0.18760 0.43577 0.52686
 H127 H 0.18707 0.52689 0.57590
 H128 H 0.18691 0.47238 0.57556
 H129 H 0.18704 0.52772 0.42475
 H130 H 0.18707 0.47322 0.42442
 H131 H 0.18924 0.60430 0.50078
 H132 H 0.18901 0.39580 0.49954
 C133 C 0.31124 0.93589 -0.02744
 C134 C 0.31106 0.92022 -0.00039
 C135 C 0.31142 0.93564 0.02677
 C136 C 0.31219 0.96763 0.02724
 C137 C 0.31247 0.98385 -0.00003
 C138 C 0.31208 0.96795 -0.02753
 C139 C 0.31216 0.98455 -0.05429
 C140 C 0.31222 1.01608 -0.05405
 C141 C 0.31218 1.03226 -0.02706
 C142 C 0.31249 1.01604 0.00021
 C143 C 0.31227 0.98381 0.05423
 C144 C 0.31224 1.01534 0.05448
 C145 C 0.31214 1.03194 0.02772
 C146 C 0.31133 1.06400 0.02763
 C147 C 0.31112 1.07968 0.00058
 C148 C 0.31144 1.06425 -0.02658
 H149 H 0.31203 0.97325 -0.07571
 H150 H 0.31213 1.02770 -0.07529
 H151 H 0.31220 0.97219 0.07547
 H152 H 0.31214 1.02664 0.07589
 H153 H 0.30997 0.89563 -0.00042
 H154 H 0.31005 1.10426 0.00061
 C155 C 0.81123 0.56406 0.47253
 C156 C 0.81099 0.57976 0.49955
 C157 C 0.81136 0.56435 0.52672
 C158 C 0.81216 0.53236 0.52717
 C159 C 0.81249 0.51615 0.49987
 C160 C 0.81210 0.53205 0.47240
 C161 C 0.81220 0.51554 0.44561
 C162 C 0.81231 0.48399 0.44577
 C163 C 0.81230 0.46778 0.47274
 C164 C 0.81256 0.48399 0.50004
 C165 C 0.81223 0.51615 0.55413
 C166 C 0.81224 0.48460 0.55430
 C167 C 0.81222 0.46809 0.52750
 C168 C 0.81146 0.43608 0.52738
 C169 C 0.81130 0.42038 0.50036
 C170 C 0.81162 0.43578 0.47319
 H171 H 0.81206 0.52690 0.42424
 H172 H 0.81225 0.47239 0.42452
 H173 H 0.81212 0.52775 0.57539
 H174 H 0.81213 0.47325 0.57567
 H175 H 0.80988 0.60432 0.49944
 H176 H 0.81028 0.39581 0.50047
 O177 O 0.29479 0.25265 0.26787
 O178 O 0.23821 0.27919 0.21354
 O179 O 0.25323 0.29433 0.26783
 O180 O 0.27976 0.23750 0.21358
 O181 O 0.24668 0.20455 0.23136
 O182 O 0.22016 0.26137 0.28560
 O183 O 0.20513 0.24624 0.23131
 O184 O 0.26172 0.21970 0.28564
 Cu185 Cu 0.26983 0.26924 0.23891
 Cu186 Cu 0.23009 0.22964 0.26027
 C187 C 0.28772 0.23187 0.28609
 C188 C 0.21220 0.26702 0.21310
 C189 C 0.23239 0.28736 0.28603
 C190 C 0.26752 0.21152 0.21315
 O191 O 0.70494 0.74787 0.26782
 O192 O 0.76156 0.72093 0.21361
 O193 O 0.74631 0.70600 0.26787
 O194 O 0.72018 0.76278 0.21351
 O195 O 0.75335 0.79564 0.23127
 O196 O 0.77948 0.73885 0.28564
 O197 O 0.79472 0.75378 0.23138
 O198 O 0.73811 0.78072 0.28558
 Cu199 Cu 0.72989 0.73109 0.23891
 Cu200 Cu 0.76975 0.77057 0.26026
 C201 C 0.71206 0.76865 0.28603
 C202 C 0.78762 0.73298 0.21319
 C203 C 0.76714 0.71292 0.28609
 C204 C 0.73254 0.78871 0.21304
 O205 O 0.79553 0.24660 0.23105
 O206 O 0.73895 0.22020 0.28548
 O207 O 0.75379 0.20524 0.23109
 O208 O 0.78070 0.26158 0.28547
 O209 O 0.74772 0.29484 0.26797
 O210 O 0.72081 0.23850 0.21358
 O211 O 0.70598 0.25347 0.26798
 O212 O 0.76255 0.27987 0.21355
 Cu213 Cu 0.77057 0.23005 0.26004
 Cu214 Cu 0.73094 0.27003 0.23901
 C215 C 0.78850 0.26751 0.21294
 C216 C 0.71300 0.23255 0.28607
 C217 C 0.73293 0.21244 0.21300
 C218 C 0.76856 0.28763 0.28607
 O219 O 0.27944 0.76131 0.21403
 O220 O 0.25241 0.70509 0.26844
 O221 O 0.23770 0.71994 0.21400
 O222 O 0.29415 0.74647 0.26845
 O223 O 0.26114 0.77977 0.28589
 O224 O 0.20468 0.75325 0.23145
 O225 O 0.21940 0.73840 0.28588
 O226 O 0.24643 0.79462 0.23148
 Cu227 Cu 0.26925 0.72984 0.23947
 Cu228 Cu 0.22958 0.76987 0.26043
 C229 C 0.26732 0.78737 0.21342
 C230 C 0.23152 0.71234 0.28651
 C231 C 0.21175 0.73230 0.21336
 C232 C 0.28710 0.76743 0.28651
 O233 O 0.78014 0.26147 0.71442
 O234 O 0.75390 0.20455 0.76856
 O235 O 0.73879 0.21970 0.71430
 O236 O 0.79523 0.24634 0.76869
 O237 O 0.76198 0.27920 0.78651
 O238 O 0.70555 0.25255 0.73213
 O239 O 0.72066 0.23740 0.78638
 O240 O 0.74690 0.29433 0.73224
 Cu241 Cu 0.77037 0.22970 0.73969
 Cu242 Cu 0.73042 0.26918 0.76111
 C243 C 0.76777 0.28742 0.71402
 C244 C 0.73303 0.21145 0.78677
 C245 C 0.71273 0.23181 0.71387
 C246 C 0.78805 0.26709 0.78695
 O247 O 0.29460 0.74737 0.73236
 O248 O 0.23831 0.72057 0.78685
 O249 O 0.25325 0.70559 0.73247
 O250 O 0.27964 0.76237 0.78672
 O251 O 0.24635 0.79527 0.76914
 O252 O 0.21995 0.73849 0.71490
 O253 O 0.20502 0.75347 0.76928
 O254 O 0.26131 0.78027 0.71477
 Cu255 Cu 0.26981 0.73065 0.76137
 Cu256 Cu 0.22980 0.77019 0.74025
 C257 C 0.28737 0.76817 0.71421
 C258 C 0.21225 0.73268 0.78743
 C259 C 0.23232 0.71254 0.71436
 C260 C 0.26728 0.78832 0.78725
 O261 O 0.25206 0.29480 0.73179
 O262 O 0.27919 0.23856 0.78617
 O263 O 0.29405 0.25356 0.73182
 O264 O 0.23719 0.27978 0.78614
 O265 O 0.20446 0.24640 0.76854
 O266 O 0.26131 0.22018 0.71421
 O267 O 0.24645 0.20518 0.76856
 O268 O 0.21933 0.26142 0.71418
 Cu269 Cu 0.26892 0.27004 0.76075
 Cu270 Cu 0.22958 0.22993 0.73960
 C271 C 0.23130 0.28752 0.71364
 C272 C 0.26722 0.21246 0.78670
 C273 C 0.28719 0.23261 0.71369
 C274 C 0.21132 0.26734 0.78668
 O275 O 0.73831 0.78051 0.71431
 O276 O 0.79507 0.75388 0.76843
 O277 O 0.78004 0.73901 0.71409
 O278 O 0.75332 0.79535 0.76867
 O279 O 0.72040 0.76214 0.78628
 O280 O 0.74712 0.70581 0.73171
 O281 O 0.76216 0.72068 0.78604
 O282 O 0.70539 0.74730 0.73191
 Cu283 Cu 0.77000 0.77054 0.73960
 Cu284 Cu 0.73045 0.73064 0.76076
 C285 C 0.71236 0.76822 0.71380
 C286 C 0.78812 0.73295 0.78653
 C287 C 0.76792 0.71298 0.71354
 C288 C 0.73253 0.78817 0.78686
 C289 C 0.30219 0.11446 0.10133
 N290 N 0.31641 0.14159 0.10345
 N291 N 0.31098 0.15988 0.12648
 C292 C 0.29118 0.15161 0.14809
 N293 N 0.27703 0.12443 0.14602
 N294 N 0.28245 0.10614 0.12299
 C295 C 0.30637 0.09577 0.07548
 C296 C 0.30909 0.08060 0.05329
 C297 C 0.28373 0.17221 0.17174
 C298 C 0.27673 0.18994 0.19100
 C299 C 0.80253 0.61632 0.60148
 N300 N 0.78409 0.60734 0.62397
 N301 N 0.77876 0.62563 0.64702
 C302 C 0.79170 0.65344 0.64827
 N303 N 0.81021 0.66238 0.62582
 N304 N 0.81555 0.64409 0.60278
 C305 C 0.80658 0.59752 0.57571
 C306 C 0.80919 0.58218 0.55364
 C307 C 0.78426 0.67395 0.67198
 C308 C 0.77722 0.69157 0.69130
 C309 C 0.69860 0.88541 0.10085
 N310 N 0.68421 0.85838 0.10309
 N311 N 0.68950 0.84018 0.12619
 C312 C 0.70935 0.84844 0.14776
 N313 N 0.72367 0.87551 0.14556
 N314 N 0.71838 0.89372 0.12246
 C315 C 0.69453 0.90401 0.07495
 C316 C 0.69188 0.91912 0.05272
 C317 C 0.71663 0.82792 0.17149
 C318 C 0.72349 0.81024 0.19082
 C319 C 0.19637 0.38389 0.60161
 N320 N 0.21455 0.39306 0.62421
 N321 N 0.21992 0.37483 0.64727
 C322 C 0.20725 0.34688 0.64842
 N323 N 0.18900 0.33775 0.62586
 N324 N 0.18363 0.35598 0.60280
 C325 C 0.19232 0.40264 0.57583
 C326 C 0.18974 0.41796 0.55376
 C327 C 0.21476 0.32645 0.67213
 C328 C 0.22188 0.30887 0.69144
 C329 C 0.88492 0.30157 0.10059
 N330 N 0.89358 0.28232 0.12253
 N331 N 0.87541 0.27705 0.14566
 C332 C 0.84802 0.29087 0.14756
 N333 N 0.83941 0.31020 0.12566
 N334 N 0.85758 0.31547 0.10252
 C335 C 0.90353 0.30559 0.07468
 C336 C 0.91868 0.30818 0.05246
 C337 C 0.82757 0.28355 0.17133
 C338 C 0.80995 0.27664 0.19069
 C339 C 0.38385 0.80303 0.60216
 N340 N 0.39274 0.78420 0.62437
 N341 N 0.37451 0.77879 0.64743
 C342 C 0.34682 0.79205 0.64897
 N343 N 0.33796 0.81095 0.62680
 N344 N 0.35620 0.81635 0.60375
 C345 C 0.40256 0.80717 0.57636
 C346 C 0.41782 0.80984 0.55424
 C347 C 0.32636 0.78456 0.67267
 C348 C 0.30876 0.77749 0.69198
 C349 C 0.11543 0.69782 0.10112
 N350 N 0.14282 0.68401 0.10302
 N351 N 0.16098 0.68937 0.12613
 C352 C 0.15231 0.70870 0.14804
 N353 N 0.12488 0.72244 0.14618
 N354 N 0.10672 0.71708 0.12307
 C355 C 0.09684 0.69371 0.07523
 C356 C 0.08171 0.69106 0.05303
 C357 C 0.17274 0.71611 0.17179
 C358 C 0.19033 0.72309 0.19113
 C359 C 0.61611 0.19742 0.60187
 N360 N 0.60730 0.21630 0.62411
 N361 N 0.62556 0.22160 0.64716
 C362 C 0.65316 0.20819 0.64867
 N363 N 0.66193 0.18925 0.62648
 N364 N 0.64368 0.18394 0.60343
 C365 C 0.59739 0.19338 0.57608
 C366 C 0.58213 0.19078 0.55397
 C367 C 0.67366 0.21558 0.67237
 C368 C 0.69130 0.22257 0.69167
 C369 C 0.69873 0.11421 0.89837
 N370 N 0.71870 0.10604 0.87683
 N371 N 0.72406 0.12437 0.85384
 C372 C 0.70963 0.15142 0.85169
 N373 N 0.68960 0.15954 0.87318
 N374 N 0.68423 0.14122 0.89617
 C375 C 0.69459 0.09550 0.92418
 C376 C 0.69189 0.08033 0.94635
 C377 C 0.71699 0.17206 0.82809
 C378 C 0.72391 0.18983 0.80887
 C379 C 0.19664 0.61614 0.39867
 N380 N 0.18380 0.64403 0.39740
 N381 N 0.18917 0.66222 0.37431
 C382 C 0.20754 0.65307 0.35181
 N383 N 0.22031 0.62514 0.35304
 N384 N 0.21494 0.60695 0.37612
 C385 C 0.19257 0.59743 0.42447
 C386 C 0.18995 0.58214 0.44655
 C387 C 0.21504 0.67346 0.32807
 C388 C 0.22214 0.69101 0.30874
 C389 C 0.30199 0.88542 0.89891
 N390 N 0.28211 0.89370 0.87736
 N391 N 0.27666 0.87540 0.85436
 C392 C 0.29092 0.84825 0.85221
 N393 N 0.31086 0.84001 0.87371
 N394 N 0.31631 0.85831 0.89671
 C395 C 0.30621 0.90412 0.92473
 C396 C 0.30896 0.91930 0.94691
 C397 C 0.28347 0.82763 0.82860
 C398 C 0.27647 0.80989 0.80937
 C399 C 0.80301 0.38395 0.39834
 N400 N 0.78473 0.39309 0.37579
 N401 N 0.77945 0.37488 0.35268
 C402 C 0.79231 0.34699 0.35142
 N403 N 0.81067 0.33789 0.37392
 N404 N 0.81594 0.35610 0.39703
 C405 C 0.80699 0.40266 0.42416
 C406 C 0.80952 0.41797 0.44626
 C407 C 0.78490 0.32657 0.32765
 C408 C 0.77787 0.30900 0.30830
 C409 C 0.11423 0.30143 0.89860
 N410 N 0.10586 0.28192 0.87676
 N411 N 0.12417 0.27662 0.85372
 C412 C 0.15140 0.29067 0.85181
 N413 N 0.15973 0.31025 0.87360
 N414 N 0.14142 0.31555 0.89665
 C415 C 0.09551 0.30549 0.92443
 C416 C 0.08029 0.30811 0.94660
 C417 C 0.17200 0.28334 0.82813
 C418 C 0.18974 0.27644 0.80885
 C419 C 0.61543 0.80339 0.39808
 N420 N 0.60663 0.78448 0.37590
 N421 N 0.62486 0.77912 0.35281
 C422 C 0.65245 0.79250 0.35121
 N423 N 0.66121 0.81148 0.37336
 N424 N 0.64298 0.81684 0.39644
 C425 C 0.59673 0.80748 0.42392
 C426 C 0.58148 0.81011 0.44606
 C427 C 0.67294 0.78504 0.32750
 C428 C 0.69058 0.77798 0.30820
 C429 C 0.88532 0.69799 0.89792
 N430 N 0.85806 0.68401 0.89602
 N431 N 0.83971 0.68948 0.87307
 C432 C 0.84807 0.70910 0.85134
 N433 N 0.87538 0.72301 0.85320
 N434 N 0.89372 0.71754 0.87614
 C435 C 0.90409 0.69378 0.92367
 C436 C 0.91934 0.69103 0.94578
 C437 C 0.82744 0.71661 0.82778
 C438 C 0.80969 0.72367 0.80860
 C439 C 0.38448 0.19758 0.39804
 N440 N 0.35701 0.18397 0.39639
 N441 N 0.33874 0.18927 0.37334
 C442 C 0.34739 0.20834 0.35125
 N443 N 0.37490 0.22188 0.35285
 N444 N 0.39316 0.21658 0.37590
 C445 C 0.40320 0.19354 0.42383
 C446 C 0.41847 0.19092 0.44594
 C447 C 0.32687 0.21571 0.32756
 C448 C 0.30920 0.22267 0.30827
 C449 C 0.69821 0.88441 0.89934
 N450 N 0.68530 0.85658 0.89803
 N451 N 0.69057 0.83840 0.87489
 C452 C 0.70889 0.84749 0.85236
 N453 N 0.72173 0.87536 0.85362
 N454 N 0.71646 0.89355 0.87677
 C455 C 0.69423 0.90311 0.92519
 C456 C 0.69169 0.91840 0.94732
 C457 C 0.71628 0.82709 0.82855
 C458 C 0.72328 0.80954 0.80915
 C459 C 0.19734 0.38454 0.39764
 N460 N 0.18312 0.35742 0.39549
 N461 N 0.18865 0.33909 0.37251
 C462 C 0.20856 0.34733 0.35098
 N463 N 0.22271 0.37449 0.35308
 N464 N 0.21719 0.39282 0.37606
 C465 C 0.19303 0.40328 0.42343
 C466 C 0.19020 0.41850 0.44557
 C467 C 0.21609 0.32670 0.32737
 C468 C 0.22314 0.30895 0.30815
 C469 C 0.30244 0.11610 0.89867
 N470 N 0.31522 0.14399 0.89740
 N471 N 0.30978 0.16221 0.87435
 C472 C 0.29141 0.15310 0.85188
 N473 N 0.27870 0.12517 0.85310
 N474 N 0.28414 0.10695 0.87615
 C475 C 0.30658 0.09737 0.92444
 C476 C 0.30923 0.08206 0.94651
 C477 C 0.28383 0.17353 0.82819
 C478 C 0.27667 0.19110 0.80889
 C479 C 0.80175 0.61562 0.39759
 N480 N 0.78181 0.60746 0.37606
 N481 N 0.77635 0.62582 0.35312
 C482 C 0.79066 0.65290 0.35101
 N483 N 0.81066 0.66102 0.37249
 N484 N 0.81612 0.64266 0.39543
 C485 C 0.80602 0.59685 0.42334
 C486 C 0.80882 0.58161 0.44545
 C487 C 0.78323 0.67356 0.32743
 C488 C 0.77627 0.69133 0.30822
 C489 C 0.11598 0.69785 0.89965
 N490 N 0.14368 0.68465 0.89809
 N491 N 0.16187 0.69004 0.87500
 C492 C 0.15290 0.70881 0.85276
 N493 N 0.12516 0.72194 0.85428
 N494 N 0.10697 0.71654 0.87737
 C495 C 0.09730 0.69373 0.92548
 C496 C 0.08206 0.69107 0.94762
 C497 C 0.17332 0.71630 0.82902
 C498 C 0.19088 0.72336 0.80967
 C499 C 0.61611 0.19790 0.39789
 N500 N 0.64352 0.18411 0.39607
 N501 N 0.66182 0.18953 0.37306
 C502 C 0.65327 0.20890 0.35118
 N503 N 0.62583 0.22263 0.35296
 N504 N 0.60753 0.21721 0.37596
 C505 C 0.59735 0.19372 0.42366
 C506 C 0.58208 0.19099 0.44577
 C507 C 0.67383 0.21635 0.32753
 C508 C 0.69150 0.22335 0.30825
 C509 C 0.88447 0.30150 0.89910
 N510 N 0.89336 0.28270 0.87684
 N511 N 0.87516 0.27739 0.85375
 C512 C 0.84751 0.29072 0.85223
 N513 N 0.83866 0.30959 0.87445
 N514 N 0.85686 0.31490 0.89753
 C515 C 0.90315 0.30555 0.92493
 C516 C 0.91838 0.30815 0.94706
 C517 C 0.82706 0.28332 0.82849
 C518 C 0.80946 0.27632 0.80917
 C519 C 0.38388 0.80251 0.39821
 N520 N 0.39251 0.78318 0.37629
 N521 N 0.37423 0.77767 0.35331
 C522 C 0.34675 0.79132 0.35156
 N523 N 0.33815 0.81072 0.37344
 N524 N 0.35644 0.81623 0.39641
 C525 C 0.40262 0.80680 0.42396
 C526 C 0.41788 0.80960 0.44605
 C527 C 0.32621 0.78378 0.32793
 C528 C 0.30856 0.77671 0.30868
 C529 C 0.30247 0.88378 0.10151
 N530 N 0.28411 0.89292 0.12402
 N531 N 0.27868 0.87468 0.14706
 C532 C 0.29145 0.84675 0.14827
 N533 N 0.30989 0.83765 0.12579
 N534 N 0.31531 0.85589 0.10276
 C535 C 0.30659 0.90252 0.07575
 C536 C 0.30923 0.91784 0.05368
 C537 C 0.28389 0.82631 0.17194
 C538 C 0.27675 0.80873 0.19123
 C539 C 0.80217 0.38460 0.60240
 N540 N 0.81661 0.35756 0.60458
 N541 N 0.81121 0.33924 0.62757
 C542 C 0.79120 0.34741 0.64907
 N543 N 0.77683 0.37449 0.64693
 N544 N 0.78223 0.39281 0.62394
 C545 C 0.80637 0.40332 0.57660
 C546 C 0.80912 0.41853 0.55446
 C547 C 0.78382 0.32679 0.67269
 C548 C 0.77689 0.30903 0.69191
 C549 C 0.69820 0.11592 0.10099
 N550 N 0.68526 0.14377 0.10228
 N551 N 0.69060 0.16202 0.12533
 C552 C 0.70903 0.15298 0.14780
 N553 N 0.72190 0.12509 0.14655
 N554 N 0.71656 0.10683 0.12350
 C555 C 0.69417 0.09716 0.07521
 C556 C 0.69159 0.08183 0.05313
 C557 C 0.71651 0.17344 0.17150
 C558 C 0.72358 0.19105 0.19080
 C559 C 0.19744 0.61550 0.60270
 N560 N 0.18314 0.64262 0.60492
 N561 N 0.18864 0.66091 0.62791
 C562 C 0.20861 0.65265 0.64938
 N563 N 0.22285 0.62550 0.64720
 N564 N 0.21735 0.60720 0.62421
 C565 C 0.19314 0.59679 0.57690
 C566 C 0.19032 0.58159 0.55475
 C567 C 0.21610 0.67325 0.67300
 C568 C 0.22312 0.69097 0.69223
 C569 C 0.88478 0.69777 0.10172
 N570 N 0.85717 0.68444 0.10319
 N571 N 0.83880 0.68990 0.12614
 C572 C 0.84748 0.70888 0.14832
 N573 N 0.87513 0.72214 0.14689
 N574 N 0.89351 0.71667 0.12393
 C575 C 0.90362 0.69359 0.07600
 C576 C 0.91898 0.69090 0.05394
 C577 C 0.82687 0.71645 0.17189
 C578 C 0.80914 0.72358 0.19110
 C579 C 0.38443 0.19810 0.60201
 N580 N 0.35722 0.18402 0.60396
 N581 N 0.33887 0.18943 0.62694
 C582 C 0.34717 0.20909 0.64867
 N583 N 0.37442 0.22311 0.64677
 N584 N 0.39277 0.21770 0.62378
 C585 C 0.40322 0.19390 0.57624
 C586 C 0.41851 0.19116 0.55414
 C587 C 0.32654 0.21651 0.67230
 C588 C 0.30879 0.22347 0.69154
 C589 C 0.11540 0.30148 0.10125
 N590 N 0.10668 0.28252 0.12341
 N591 N 0.12496 0.27718 0.14643
 C592 C 0.15251 0.29064 0.14799
 N593 N 0.16119 0.30967 0.12587
 N594 N 0.14291 0.31500 0.10285
 C595 C 0.09665 0.30555 0.07547
 C596 C 0.08136 0.30818 0.05338
 C597 C 0.17305 0.28323 0.17166
 C598 C 0.19072 0.27624 0.19093
 C599 C 0.61541 0.80304 0.60214
 N600 N 0.64277 0.81685 0.60398
 N601 N 0.66106 0.81141 0.62698
 C602 C 0.65255 0.79200 0.64883
 N603 N 0.62515 0.77825 0.64704
 N604 N 0.60686 0.78369 0.62404
 C605 C 0.59668 0.80724 0.57636
 C606 C 0.58142 0.80997 0.55426
 C607 C 0.67311 0.78452 0.67246
 C608 C 0.69081 0.77748 0.69169
   
