data_POSCAR
  _audit_creation_date              2014-09-24
  _audit_creation_method            'ToBaCCo'
  _symmetry_space_group_name_H-M    'P1'
  _symmetry_Int_Tables_number       1
  _symmetry_cell_setting            triclinic
  loop_
  _symmetry_equiv_pos_as_xyz
 x,y,z
_cell_length_a 36.1414
_cell_length_b 35.8628
_cell_length_c 26.7184
_cell_angle_alpha 90.520100
_cell_angle_beta 90.261900
_cell_angle_gamma 119.993300
loop_
  _atom_site_label
  _atom_site_type_symbol
  _atom_site_fract_x
  _atom_site_fract_y
  _atom_site_fract_z
O1 O 0.00728 0.55716 -0.06933
 O2 O 0.06607 0.51887 0.00956
 O3 O 0.02182 0.49287 -0.07368
 O4 O 0.05946 0.58773 0.00772
 O5 O 0.00352 0.55223 0.05636
 O6 O -0.03660 0.45784 -0.02877
 O7 O 0.00785 0.48221 0.05442
 O8 O -0.04894 0.52306 -0.02077
 Cu9 Cu 0.04425 0.54269 -0.03617
 Cu10 Cu -0.02423 0.50041 0.01993
 C11 C -0.03110 0.54627 -0.05837
 C12 C 0.04654 0.49386 0.04570
 C13 C -0.01383 0.45944 -0.06587
 C14 C 0.03880 0.58593 0.04660
 O15 O 0.47791 0.47581 0.04679
 O16 O 0.56749 0.53435 -0.03870
 O17 O 0.54536 0.55188 0.04784
 O18 O 0.49735 0.46031 -0.04219
 O19 O 0.46197 0.48857 -0.07788
 O20 O 0.51083 0.58023 0.01029
 O21 O 0.53259 0.56234 -0.07620
 O22 O 0.44322 0.50487 0.01114
 Cu23 Cu 0.52558 0.50282 0.00705
 Cu24 Cu 0.48371 0.53684 -0.03691
 C25 C 0.44571 0.48094 0.04427
 C26 C 0.56510 0.55764 -0.07259
 C27 C 0.53561 0.58131 0.04479
 C28 C 0.47156 0.45909 -0.07570
 O29 O 0.43592 0.95001 0.03786
 O30 O 0.52252 0.98507 -0.05386
 O31 O 0.51032 0.95504 0.03601
 O32 O 0.44981 0.98285 -0.05289
 O33 O 0.48112 1.04865 -0.02083
 O34 O 0.54095 1.02089 0.06813
 O35 O 0.55365 1.05095 -0.02176
 O36 O 0.46667 1.01583 0.06991
 Cu37 Cu 0.47620 0.96156 -0.01128
 Cu38 Cu 0.51331 1.04064 0.02719
 C39 C 0.43705 0.97669 0.07030
 C40 C 0.55277 1.02388 -0.05351
 C41 C 0.53612 0.98337 0.06699
 C42 C 0.45650 1.02115 -0.05324
 O43 O 1.03521 0.53248 0.46645
 O44 O 0.99034 0.43727 0.54818
 O45 O 1.02880 0.45726 0.46028
 O46 O 1.00188 0.51453 0.55429
 O47 O 0.93814 0.48891 0.51914
 O48 O 0.96609 0.43278 0.42314
 O49 O 0.92772 0.41196 0.51040
 O50 O 0.97160 0.50749 0.43116
 Cu51 Cu 1.02040 0.48740 0.51084
 Cu52 Cu 0.94449 0.45745 0.46741
 C53 C 1.01064 0.53623 0.43517
 C54 C 0.95097 0.40894 0.54390
 C55 C 1.00302 0.43670 0.42460
 C56 C 0.96552 0.51166 0.55268
 O57 O 0.52269 0.54147 0.55480
 O58 O 0.43817 0.48968 0.45859
 O59 O 0.45056 0.47002 0.54979
 O60 O 0.51221 0.55970 0.46387
 O61 O 0.54402 0.52552 0.43357
 O62 O 0.48230 0.43607 0.51870
 O63 O 0.46993 0.45571 0.42769
 O64 O 0.55433 0.50709 0.52453
 Cu65 Cu 0.47742 0.51842 0.50964
 Cu66 Cu 0.51555 0.47745 0.47296
 C67 C 0.55271 0.53284 0.55633
 C68 C 0.44012 0.46470 0.42604
 C69 C 0.45714 0.43839 0.54994
 C70 C 0.53867 0.55786 0.43418
 O71 O 0.50958 -0.07082 0.49497
 O72 O 0.45710 -0.02795 0.57537
 O73 O 0.44282 -0.06267 0.48532
 O74 O 0.52769 -0.03041 0.58113
 O75 O 0.56461 0.03225 0.54392
 O76 O 0.47857 0.00167 0.45159
 O77 O 0.49482 0.03613 0.54150
 O78 O 0.54487 -0.00818 0.45722
 Cu79 Cu 0.48055 -0.05424 0.53782
 Cu80 Cu 0.52442 0.02181 0.49505
 C81 C 0.53532 -0.04732 0.46165
 C82 C 0.46750 0.01139 0.57311
 C83 C 0.44655 -0.03607 0.45169
 C84 C 0.56065 0.00676 0.57878
 C85 C 0.13563 0.44131 0.18944
 C86 C 0.11514 0.43627 0.23522
 C87 C 0.13393 0.43455 0.28056
 C88 C 0.17421 0.43679 0.27983
 C89 C 0.19539 0.44172 0.23369
 C90 C 0.17573 0.44325 0.18823
 C91 C 0.19632 0.44583 0.14287
 C92 C 0.23656 0.44961 0.14226
 C93 C 0.25789 0.45090 0.18703
 C94 C 0.23663 0.44576 0.23311
 C95 C 0.19373 0.43375 0.32409
 C96 C 0.23418 0.43820 0.32356
 C97 C 0.25680 0.44545 0.27870
 C98 C 0.29880 0.45193 0.27835
 C99 C 0.31937 0.45715 0.23244
 C100 C 0.29964 0.45672 0.18685
 H101 H 0.18141 0.44466 0.10726
 H102 H 0.25056 0.45122 0.10610
 H103 H 0.17788 0.42747 0.35979
 H104 H 0.24725 0.43531 0.35887
 H105 H 0.08527 0.43650 0.23557
 H106 H 0.35234 0.46459 0.23243
 C107 C 0.58094 0.71242 0.20652
 C108 C 0.57810 0.69303 0.25253
 C109 C 0.57572 0.71186 0.29779
 C110 C 0.57819 0.75252 0.29706
 C111 C 0.58055 0.77247 0.25068
 C112 C 0.58242 0.75265 0.20524
 C113 C 0.58611 0.77378 0.15995
 C114 C 0.58429 0.81161 0.15884
 C115 C 0.57979 0.83043 0.20312
 C116 C 0.57988 0.81179 0.24966
 C117 C 0.57856 0.77390 0.34164
 C118 C 0.57875 0.81276 0.34068
 C119 C 0.57800 0.83163 0.29509
 C120 C 0.57551 0.86980 0.29374
 C121 C 0.57359 0.88658 0.24729
 C122 C 0.57518 0.86733 0.20199
 H123 H 0.59021 0.76119 0.12478
 H124 H 0.58691 0.82619 0.12279
 H125 H 0.57921 0.76109 0.37792
 H126 H 0.57937 0.82771 0.37625
 H127 H 0.57453 0.66117 0.25242
 H128 H 0.56742 0.91317 0.24658
 C129 C 0.13244 0.69675 0.21722
 C130 C 0.11709 0.67513 0.26245
 C131 C 0.13964 0.69100 0.30767
 C132 C 0.17903 0.73020 0.30773
 C133 C 0.19601 0.75184 0.26202
 C134 C 0.17254 0.73523 0.21669
 C135 C 0.18984 0.75760 0.17208
 C136 C 0.23025 0.79416 0.17147
 C137 C 0.25494 0.81021 0.21554
 C138 C 0.23705 0.78963 0.26150
 C139 C 0.20184 0.74845 0.35241
 C140 C 0.24151 0.78578 0.35203
 C141 C 0.26044 0.80611 0.30685
 C142 C 0.30198 0.84258 0.30604
 C143 C 0.31946 0.86210 0.26020
 C144 C 0.29685 0.84637 0.21486
 H145 H 0.17233 0.74711 0.13701
 H146 H 0.24169 0.80994 0.13598
 H147 H 0.18909 0.73435 0.38835
 H148 H 0.25703 0.79843 0.38784
 H149 H 0.08852 0.64372 0.26170
 H150 H 0.35232 0.88808 0.25947
 C151 C 0.70853 0.56914 0.79175
 C152 C 0.68497 0.56187 0.74718
 C153 C 0.70014 0.55682 0.70094
 C154 C 0.74041 0.55930 0.69892
 C155 C 0.76441 0.56574 0.74359
 C156 C 0.74884 0.57140 0.79000
 C157 C 0.77406 0.57917 0.83338
 C158 C 0.81262 0.57918 0.83169
 C159 C 0.82749 0.57117 0.78659
 C160 C 0.80357 0.56532 0.74193
 C161 C 0.75739 0.55561 0.65315
 C162 C 0.79534 0.55481 0.65158
 C163 C 0.81812 0.55796 0.69567
 C164 C 0.85505 0.55399 0.69450
 C165 C 0.87812 0.55964 0.73890
 C166 C 0.86561 0.56898 0.78475
 H167 H 0.76442 0.58562 0.86919
 H168 H 0.83059 0.58551 0.86625
 H169 H 0.74165 0.55337 0.61782
 H170 H 0.80669 0.55198 0.61515
 H171 H 0.65286 0.55682 0.74893
 H172 H 0.90477 0.55383 0.73847
 C173 C 0.44728 0.14730 0.79946
 C174 C 0.44962 0.12784 0.75468
 C175 C 0.45020 0.14552 0.70783
 C176 C 0.44737 0.18347 0.70562
 C177 C 0.44611 0.20425 0.75052
 C178 C 0.44567 0.18593 0.79749
 C179 C 0.44351 0.20676 0.84134
 C180 C 0.44476 0.24610 0.83936
 C181 C 0.44752 0.26605 0.79340
 C182 C 0.44644 0.24409 0.74846
 C183 C 0.44558 0.20114 0.65955
 C184 C 0.44499 0.23957 0.65753
 C185 C 0.44684 0.26237 0.70149
 C186 C 0.44893 0.30283 0.69961
 C187 C 0.45125 0.32462 0.74442
 C188 C 0.45114 0.30722 0.79131
 H189 H 0.44081 0.19295 0.87788
 H190 H 0.44300 0.26041 0.87443
 H191 H 0.44414 0.18523 0.62441
 H192 H 0.44307 0.25110 0.62090
 H193 H 0.45429 0.10032 0.75655
 H194 H 0.45640 0.35703 0.74255
 C195 C 0.86170 0.30215 0.80721
 C196 C 0.88203 0.31843 0.76140
 C197 C 0.86564 0.29593 0.71610
 C198 C 0.82710 0.25580 0.71641
 C199 C 0.80562 0.23908 0.76222
 C200 C 0.82341 0.26187 0.80779
 C201 C 0.80241 0.24368 0.85284
 C202 C 0.76338 0.20553 0.85294
 C203 C 0.74366 0.18386 0.80800
 C204 C 0.76565 0.19999 0.76233
 C205 C 0.80948 0.23183 0.67207
 C206 C 0.77046 0.19361 0.67219
 C207 C 0.74730 0.17776 0.71663
 C208 C 0.70635 0.14033 0.71651
 C209 C 0.68479 0.12548 0.76190
 C210 C 0.70267 0.14646 0.80762
 H211 H 0.81593 0.25856 0.88873
 H212 H 0.74901 0.19321 0.88887
 H213 H 0.82573 0.24225 0.63669
 H214 H 0.75881 0.17659 0.63686
 H215 H 0.90947 0.35060 0.76040
 H216 H 0.65220 0.09894 0.76119
 C217 C 0.06829 0.47846 0.07940
 C218 C 0.11040 0.49295 0.07823
 C219 C 0.13308 0.48208 0.11670
 C220 C 0.11423 0.44660 0.14481
 H221 H 0.12985 0.51691 0.05103
 H222 H 0.16655 0.50526 0.12304
 H223 H 0.04895 0.45673 0.10846
 H224 H 0.08074 0.42328 0.13944
 C225 C 0.55194 0.61596 0.08310
 C226 C 0.53786 0.64422 0.08558
 C227 C 0.54705 0.67519 0.12727
 C228 C 0.57853 0.68710 0.16118
 H229 H 0.51513 0.64242 0.05772
 H230 H 0.52554 0.68789 0.13076
 H231 H 0.57305 0.61565 0.11167
 H232 H 0.59971 0.67398 0.15961
 C233 C 0.40505 0.96217 0.11049
 C234 C 0.37492 0.92084 0.11568
 C235 C 0.34824 0.90601 0.16090
 C236 C 0.31969 0.86423 0.16698
 H237 H 0.37168 0.89716 0.08787
 H238 H 0.35337 0.92911 0.19039
 H239 H 0.40831 0.98566 0.13859
 H240 H 0.31436 0.84185 0.13656
 C241 C 0.95551 0.53480 0.59092
 C242 C 0.91652 0.52959 0.59577
 C243 C 0.90706 0.55023 0.63761
 C244 C 0.86676 0.53844 0.64882
 H245 H 0.89092 0.50818 0.57050
 H246 H 0.93321 0.57396 0.66057
 H247 H 0.98060 0.55533 0.61725
 H248 H 0.84127 0.51494 0.62495
 C249 C 0.43737 0.40558 0.58896
 C250 C 0.44956 0.37646 0.59650
 C251 C 0.43747 0.35008 0.64185
 C252 C 0.45485 0.32557 0.65155
 H253 H 0.47179 0.37450 0.57097
 H254 H 0.41614 0.35235 0.66850
 H255 H 0.41594 0.40826 0.61509
 H256 H 0.47576 0.32353 0.62409
 C257 C 0.59358 0.02099 0.61836
 C258 C 0.62675 0.06119 0.62004
 C259 C 0.65482 0.07790 0.66441
 C260 C 0.68294 0.12002 0.66907
 H261 H 0.63127 0.08323 0.59008
 H262 H 0.65057 0.05621 0.69465
 H263 H 0.58865 -0.00082 0.64872
 H264 H 0.68684 0.14088 0.63802
 C265 C 0.43827 0.03333 0.90865
 C266 C 0.44812 0.07432 0.90266
 C267 C 0.43619 0.08834 0.85671
 C268 C 0.45282 0.13035 0.84778
 H269 H 0.46848 0.09877 0.92987
 H270 H 0.41571 0.06451 0.82907
 H271 H 0.41840 0.00935 0.88076
 H272 H 0.47304 0.15341 0.87621
 C273 C 0.59919 0.57775 0.89009
 C274 C 0.63203 0.57042 0.88905
 C275 C 0.66011 0.58224 0.84530
 C276 C 0.68746 0.56757 0.84002
 H277 H 0.63578 0.55184 0.91840
 H278 H 0.65582 0.59994 0.81533
 H279 H 0.59513 0.59570 0.86022
 H280 H 0.69173 0.55052 0.87076
 C281 C 0.97226 0.42506 0.90043
 C282 C 0.93335 0.39015 0.90169
 C283 C 0.91926 0.35797 0.86089
 C284 C 0.87781 0.33021 0.85273
 H285 H 0.91082 0.38690 0.93037
 H286 H 0.94296 0.35877 0.83554
 H287 H 0.99348 0.42816 0.87013
 H288 H 0.85476 0.32995 0.87872
 C289 C 0.55231 0.93290 0.42693
 C290 C 0.57460 0.95304 0.38619
 C291 C 0.58602 0.93212 0.34578
 C292 C 0.56875 0.88932 0.33970
 H293 H 0.58371 0.98642 0.38057
 H294 H 0.60756 0.95329 0.31763
 H295 H 0.54375 0.89996 0.43410
 H296 H 0.54689 0.86751 0.36697
 C297 C 0.40873 0.44719 0.38446
 C298 C 0.37895 0.45852 0.37791
 C299 C 0.35197 0.44595 0.33231
 C300 C 0.32363 0.45920 0.32561
 H301 H 0.37587 0.47928 0.40529
 H302 H 0.35620 0.42697 0.30351
 H303 H 0.41199 0.42672 0.35682
 H304 H 0.31940 0.47739 0.35541
 C305 C 0.02689 0.57358 0.40206
 C306 C 0.06810 0.60386 0.40013
 C307 C 0.08269 0.63730 0.36167
 C308 C 0.12425 0.66318 0.35261
 H309 H 0.09132 0.60236 0.42459
 H310 H 0.05895 0.63899 0.33838
 H311 H 0.00422 0.57504 0.37657
 H312 H 0.14761 0.66171 0.37682
 C313 C 0.94336 0.55851 0.90976
 C314 C 0.95901 0.58212 0.86854
 C315 C 0.93294 0.58825 0.82999
 C316 C 0.89015 0.57058 0.83050
 H317 H 0.99254 0.59536 0.86009
 H318 H 0.95016 0.60587 0.79725
 H319 H 0.91017 0.54518 0.91945
 H320 H 0.87213 0.55407 0.86314
 C321 C 0.45403 0.42604 0.88834
 C322 C 0.46369 0.39458 0.88546
 C323 C 0.44807 0.36372 0.84298
 C324 C 0.46094 0.33487 0.83702
 H325 H 0.48500 0.39286 0.91287
 H326 H 0.42713 0.36576 0.81534
 H327 H 0.43289 0.42720 0.86022
 H328 H 0.48120 0.33288 0.86564
 C329 C 0.58638 0.03718 0.90863
 C330 C 0.61754 0.07804 0.90374
 C331 C 0.64774 0.09058 0.86196
 C332 C 0.67573 0.13201 0.85321
 H333 H 0.61950 0.10273 0.92915
 H334 H 0.64595 0.06571 0.83700
 H335 H 0.58429 0.01285 0.88254
 H336 H 0.67746 0.15627 0.87911
 C337 C 0.01588 0.42009 0.38516
 C338 C 0.05611 0.42794 0.38162
 C339 C 0.07209 0.41875 0.33525
 C340 C 0.11422 0.43657 0.32852
 H341 H 0.07895 0.44519 0.41154
 H342 H 0.04968 0.39952 0.30587
 H343 H -0.00644 0.40363 0.35456
 H344 H 0.13549 0.45571 0.35883
 C345 C 0.56273 0.59270 0.39866
 C346 C 0.55662 0.62629 0.39450
 C347 C 0.57604 0.65689 0.35340
 C348 C 0.56400 0.68585 0.34408
 H349 H 0.53469 0.62953 0.41930
 H350 H 0.59830 0.65396 0.32893
 H351 H 0.58415 0.58925 0.37321
 H352 H 0.54215 0.68843 0.36963
 C353 C 0.41634 0.95181 0.41324
 C354 C 0.38430 0.91139 0.40684
 C355 C 0.35637 0.89894 0.36226
 C356 C 0.32932 0.85745 0.35180
 H357 H 0.38005 0.88663 0.43303
 H358 H 0.35858 0.92367 0.33738
 H359 H 0.42073 0.97580 0.38584
 H360 H 0.32763 0.83339 0.37738
 C361 C 0.56012 0.97287 0.10323
 C362 C 0.55611 0.93384 0.10535
 C363 C 0.57535 0.92275 0.14704
 C364 C 0.56500 0.88190 0.15463
 H365 H 0.53591 0.90901 0.07845
 H366 H 0.59564 0.94772 0.17371
 H367 H 0.57997 0.99735 0.13065
 H368 H 0.54531 0.85764 0.12695
 C369 C 0.41206 0.45997 0.08183
 C370 C 0.38112 0.46965 0.08761
 C371 C 0.35242 0.45358 0.13080
 C372 C 0.32514 0.46761 0.14031
 H373 H 0.37880 0.49191 0.06236
 H374 H 0.35490 0.43153 0.15625
 H375 H 0.41482 0.43854 0.10802
 H376 H 0.32261 0.48912 0.11409
 C377 C 0.05806 0.62273 0.08166
 C378 C 0.04203 0.62121 0.12711
 C379 C 0.06605 0.65224 0.16789
 C380 C 0.10895 0.67491 0.17042
 H381 H 0.01091 0.59453 0.13644
 H382 H 0.04766 0.65234 0.19974
 H383 H 0.08825 0.65009 0.07110
 H384 H 0.12775 0.67425 0.13947
 C385 C 0.44838 0.02801 0.60923
 C386 C 0.46070 0.06978 0.61375
 C387 C 0.44528 0.08546 0.65549
 C388 C 0.45990 0.12755 0.66250
 H389 H 0.48417 0.09284 0.58842
 H390 H 0.42307 0.06247 0.68188
 H391 H 0.42531 0.00533 0.63522
 H392 H 0.48135 0.14993 0.63510
 C393 C 0.58519 0.55239 0.59641
 C394 C 0.61466 0.54089 0.60401
 C395 C 0.64447 0.55797 0.64698
 C396 C 0.67120 0.54323 0.65645
 H397 H 0.61583 0.51732 0.57936
 H398 H 0.64409 0.58213 0.67129
 H399 H 0.58359 0.57535 0.62167
 H400 H 0.67118 0.51943 0.63115
 C401 C 0.93064 0.37313 0.57940
 C402 C 0.95017 0.37199 0.62168
 C403 C 0.92853 0.34247 0.66384
 C404 C 0.88595 0.31793 0.66860
 H405 H 0.98351 0.39576 0.62768
 H406 H 0.94901 0.34390 0.69440
 H407 H 0.89760 0.34945 0.57202
 H408 H 0.86479 0.31587 0.63871
   
