data_POSCAR
  _audit_creation_date              2014-09-24
  _audit_creation_method            'ToBaCCo'
  _symmetry_space_group_name_H-M    'P1'
  _symmetry_Int_Tables_number       1
  _symmetry_cell_setting            triclinic
  loop_
  _symmetry_equiv_pos_as_xyz
 x,y,z
_cell_length_a 35.2657
_cell_length_b 37.5775
_cell_length_c 34.8657
_cell_angle_alpha 91.747100
_cell_angle_beta 88.359700
_cell_angle_gamma 92.379300
loop_
  _atom_site_label
  _atom_site_type_symbol
  _atom_site_fract_x
  _atom_site_fract_y
  _atom_site_fract_z
C1 C 0.16964 0.18239 0.23839
 N2 N 0.20041 0.16716 0.22145
 C3 C 0.21301 0.17689 0.18587
 N4 N 0.19459 0.20203 0.16729
 C5 C 0.16361 0.21714 0.18390
 N6 N 0.15127 0.20716 0.21933
 C7 C -0.17113 0.80212 0.19034
 N8 N -0.16321 0.76826 0.17911
 C9 C -0.18369 0.75076 0.15145
 N10 N -0.21194 0.76753 0.13457
 C11 C -0.22029 0.80137 0.14559
 N12 N -0.19986 0.81850 0.17363
 C13 C -0.21592 0.20897 -0.27023
 N14 N -0.19688 0.24309 -0.26356
 C15 C -0.20615 0.26451 -0.23319
 N16 N -0.23409 0.25405 -0.20783
 C17 C -0.25389 0.22247 -0.21219
 N18 N -0.24555 0.20011 -0.24236
 C19 C 0.17425 0.81962 -0.22730
 N20 N 0.15678 0.78893 -0.21515
 C21 C 0.17245 0.76987 -0.18773
 N22 N 0.20542 0.78193 -0.17191
 C23 C 0.22305 0.81261 -0.18364
 N24 N 0.20734 0.83146 -0.21140
 C25 C 0.18855 1.16220 0.76874
 N26 N 0.17195 1.19215 0.78919
 C27 C 0.18666 1.20568 0.82245
 N28 N 0.21773 1.19133 0.83685
 C29 C 0.23452 1.16302 0.81958
 N30 N 0.22060 1.14822 0.78677
 C31 C 0.83976 0.81131 0.79762
 N32 N 0.84861 0.77748 0.80552
 C33 C 0.82979 0.75903 0.83677
 N34 N 0.80206 0.77854 0.85790
 C35 C 0.79393 0.81201 0.84867
 N36 N 0.81279 0.82789 0.81906
 C37 C 0.18686 0.81823 1.20861
 N38 N 0.22346 0.82695 1.19877
 C39 C 0.24233 0.80779 1.17118
 N40 N 0.22409 0.77973 1.15300
 C41 C 0.18730 0.77076 1.16272
 N42 N 0.16896 0.79012 1.19046
 C43 C 0.80871 1.21496 1.28023
 N44 N 0.82807 1.24649 1.27423
 C45 C 0.82067 1.26612 1.24338
 N46 N 0.79404 1.25376 1.21823
 C47 C 0.77474 1.22230 1.22393
 N48 N 0.78224 1.20306 1.25492
 O49 O 0.54294 0.96653 0.95146
 O50 O 0.47693 0.98157 1.08067
 O51 O 0.58101 0.98168 1.02820
 O52 O 0.41661 0.98325 0.97784
 O53 O 0.54779 0.98838 1.08037
 O54 O 0.47114 0.96369 0.95314
 O55 O 0.45594 0.95793 1.02651
 O56 O 0.59058 1.00277 0.96513
 C57 C 0.57805 0.97390 0.94995
 C58 C 0.46045 0.95585 1.06199
 C59 C 0.57413 0.97359 1.06210
 C60 C 0.43477 0.96449 0.95147
 O61 O 0.47378 1.03351 0.93583
 O62 O 0.54676 1.05831 1.06669
 O63 O 0.56259 1.06522 0.98319
 O64 O 0.42891 1.01765 1.04921
 O65 O 0.47428 1.05286 1.06957
 O66 O 0.54240 1.03558 0.93291
 O67 O 0.44471 1.04547 0.98882
 O68 O 0.60181 1.04538 1.03616
 Co69 Co 0.50793 1.00050 0.94836
 Co70 Co 0.51119 1.01959 1.06881
 Co71 Co 0.56705 1.02304 1.00719
 Co72 Co 0.45421 1.00189 1.00588
 O73 O 0.51058 1.01141 1.00798
 C74 C 0.45134 1.05241 0.95484
 C75 C 0.58328 1.06150 1.06406
 C76 C 0.55627 1.06392 0.94807
 C77 C 0.43958 1.04456 1.06882
 O78 O 0.05908 0.45023 0.03966
 O79 O 0.05974 0.51324 -0.06602
 O80 O 0.01141 0.40726 -0.03690
 O81 O 0.02788 0.55581 0.03640
 O82 O 0.05479 0.44550 -0.05637
 O83 O 0.06547 0.51414 0.04428
 O84 O 0.03020 0.55585 -0.03421
 O85 O 0.01436 0.41081 0.03239
 C86 C 0.04870 0.41840 0.03781
 C87 C 0.05691 0.54544 -0.05621
 C88 C 0.04414 0.41403 -0.05107
 C89 C 0.06071 0.54637 0.04176
 O90 O -0.00531 0.51664 0.07887
 O91 O -0.01707 0.44600 -0.07979
 O92 O -0.05205 0.44593 0.03573
 O93 O -0.04301 0.54100 -0.03651
 O94 O -0.01222 0.51191 -0.08223
 O95 O -0.00948 0.45194 0.07762
 O96 O -0.04439 0.53295 0.03647
 O97 O -0.05617 0.43936 -0.03234
 Co98 Co 0.02551 0.48320 0.05496
 Co99 Co 0.02003 0.47906 -0.06446
 Co100 Co -0.01839 0.43048 -0.00028
 Co101 Co -0.00634 0.54026 0.00063
 O102 O 0.00547 0.48340 -0.00268
 C103 C -0.03644 0.52969 0.07073
 C104 C -0.05036 0.44012 -0.06737
 C105 C -0.04357 0.44598 0.06979
 C106 C -0.03773 0.53286 -0.07128
 O107 O 1.06884 -0.00295 0.46407
 O108 O 0.90949 0.00127 0.53791
 O109 O 0.95787 0.03785 0.43780
 O110 O 1.02315 0.03550 0.54371
 O111 O 0.91014 0.00955 0.46760
 O112 O 1.06471 -0.00352 0.53320
 O113 O 0.95552 0.03792 0.54808
 O114 O 1.02952 0.03655 0.44856
 C115 C 1.06276 0.02780 0.45284
 C116 C 0.92090 0.03197 0.54722
 C117 C 0.92359 0.03546 0.44837
 C118 C 1.05677 0.02750 0.54398
 O119 O 1.02549 -0.06835 0.52850
 O120 O 0.92259 -0.05860 0.45573
 O121 O 1.02757 -0.02926 0.41749
 O122 O 0.95118 -0.03046 0.57436
 O123 O 0.93096 -0.06523 0.52779
 O124 O 1.03293 -0.06845 0.45982
 O125 O 1.01933 -0.03018 0.57415
 O126 O 0.95786 -0.02866 0.41398
 Co127 Co 1.04289 -0.03404 0.49655
 Co128 Co 0.92498 -0.02713 0.49739
 Co129 Co 0.99298 0.00254 0.43596
 Co130 Co 0.98720 0.00169 0.55485
 O131 O 0.98670 -0.01447 0.49572
 C132 C 1.02509 -0.06150 0.56333
 C133 C 0.93348 -0.05304 0.42195
 C134 C 1.03280 -0.06082 0.42556
 C135 C 0.93905 -0.06074 0.56225
 C136 C 1.15569 0.17226 0.27444
 C137 C 1.17198 0.14619 0.29576
 C138 C 1.15393 0.13217 0.33145
 C139 C 1.16124 0.09738 0.34182
 C140 C 1.14156 0.08174 0.37279
 C141 C 1.11437 0.10085 0.39431
 C142 C 1.10865 0.13631 0.38525
 C143 C 1.12842 0.15197 0.35438
 C144 C 1.08824 0.08350 0.42271
 C145 C 1.09459 0.05079 0.43876
 H146 H 1.19675 0.13309 0.28407
 H147 H 1.18094 0.08164 0.32480
 H148 H 1.14633 0.05415 0.37831
 H149 H 1.08798 0.15164 0.40145
 H150 H 1.12310 0.17934 0.34833
 H151 H 1.06101 0.09531 0.42818
 H152 H 1.13005 0.18439 0.28519
 H153 H 1.12251 0.03985 0.43691
 C154 C 0.85071 -0.18039 0.21847
 C155 C 0.84272 -0.14660 0.23360
 C156 C 0.86560 -0.12872 0.26395
 C157 C 0.84733 -0.10798 0.29238
 C158 C 0.86805 -0.09103 0.32171
 C159 C 0.90763 -0.09385 0.32262
 C160 C 0.92618 -0.11353 0.29344
 C161 C 0.90528 -0.13125 0.26454
 C162 C 0.92965 -0.07564 0.35339
 C163 C 0.91587 -0.07499 0.39123
 H164 H 0.81727 -0.13396 0.22524
 H165 H 0.81686 -0.10530 0.29218
 H166 H 0.85318 -0.07525 0.34337
 H167 H 0.95673 -0.11562 0.29337
 H168 H 0.92019 -0.14639 0.24237
 H169 H 0.95724 -0.06341 0.34639
 H170 H 0.87422 -0.19419 0.22964
 H171 H 0.89033 -0.09065 0.39856
 C172 C 0.79635 0.18258 0.69540
 C173 C 0.82544 0.19270 0.66972
 C174 C 0.84279 0.16729 0.64192
 C175 C 0.87529 0.17844 0.62069
 C176 C 0.89497 0.15417 0.59735
 C177 C 0.88238 0.11832 0.59444
 C178 C 0.84900 0.10735 0.61469
 C179 C 0.82936 0.13163 0.63814
 C180 C 0.90657 0.09280 0.57303
 C181 C 0.89412 0.05858 0.56134
 H182 H 0.83827 0.21937 0.67233
 H183 H 0.88624 0.20575 0.62314
 H184 H 0.92066 0.16328 0.58222
 H185 H 0.83877 0.07983 0.61397
 H186 H 0.80442 0.12217 0.65421
 H187 H 0.93599 0.10095 0.56737
 H188 H 0.78986 0.19575 0.71297
 H189 H 0.86440 0.05043 0.56376
 C190 C 1.15627 -0.15849 0.74470
 C191 C 1.12197 -0.16906 0.72792
 C192 C 1.10143 -0.14579 0.70292
 C193 C 1.07707 -0.16127 0.67538
 C194 C 1.05748 -0.13987 0.65118
 C195 C 1.06167 -0.10255 0.65452
 C196 C 1.08473 -0.08712 0.68315
 C197 C 1.10458 -0.10847 0.70703
 C198 C 1.04307 -0.07885 0.62850
 C199 C 1.03544 -0.08837 0.59044
 H200 H 1.11000 -0.19564 0.73262
 H201 H 1.07357 -0.18998 0.67228
 H202 H 1.03895 -0.15258 0.63019
 H203 H 1.08793 -0.05841 0.68661
 H204 H 1.12192 -0.09563 0.72894
 H205 H 1.03952 -0.05148 0.63821
 H206 H 1.17012 -0.13315 0.73781
 H207 H 1.04087 -0.11490 0.57925
 C208 C 0.24375 1.16066 1.16759
 C209 C 0.26104 1.13155 1.18265
 C210 C 0.29112 1.11241 1.16133
 C211 C 0.29249 1.07538 1.16450
 C212 C 0.31987 1.05636 1.14375
 C213 C 0.34708 1.07417 1.12042
 C214 C 0.34619 1.11138 1.11774
 C215 C 0.31835 1.13034 1.13794
 C216 C 0.37521 1.05323 1.09835
 C217 C 0.41205 1.06627 1.09026
 H218 H 0.24978 1.12019 1.20903
 H219 H 0.27183 1.06106 1.18244
 H220 H 0.31998 1.02768 1.14613
 H221 H 0.36645 1.12577 1.09946
 H222 H 0.31836 1.15899 1.13548
 H223 H 0.36742 1.02586 1.09033
 H224 H 0.25297 1.16988 1.13956
 H225 H 0.42155 1.09220 1.10149
 C226 C 0.25510 0.82561 0.83545
 C227 C 0.27464 0.85741 0.82640
 C228 C 0.30208 0.87471 0.85293
 C229 C 0.33344 0.89473 0.83843
 C230 C 0.35839 0.91287 0.86348
 C231 C 0.35168 0.91184 0.90339
 C232 C 0.32014 0.89210 0.91777
 C233 C 0.29573 0.87344 0.89286
 C234 C 0.37507 0.93326 0.93056
 C235 C 0.41375 0.94077 0.92464
 H236 H 0.26911 0.87048 0.79997
 H237 H 0.33846 0.89649 0.80773
 H238 H 0.38199 0.92868 0.85160
 H239 H 0.31416 0.89141 0.94841
 H240 H 0.27114 0.85910 0.90486
 H241 H 0.36136 0.94251 0.95702
 H242 H 0.26409 0.81095 0.85966
 H243 H 0.42888 0.92888 0.90035
 C244 C 0.75068 0.81811 1.12755
 C245 C 0.73918 0.85221 1.13852
 C246 C 0.70924 0.87066 1.11886
 C247 C 0.68883 0.89656 1.13947
 C248 C 0.66136 0.91555 1.12163
 C249 C 0.65396 0.90927 1.08251
 C250 C 0.67475 0.88372 1.06171
 C251 C 0.70195 0.86439 1.07970
 C252 C 0.62684 0.93065 1.06222
 C253 C 0.59642 0.94719 1.08088
 H254 H 0.75143 0.86552 1.16354
 H255 H 0.69432 0.90226 1.16950
 H256 H 0.64691 0.93589 1.13831
 H257 H 0.67009 0.87886 1.03139
 H258 H 0.71794 0.84540 1.06262
 H259 H 0.63130 0.93382 1.03161
 H260 H 0.73626 0.80358 1.10457
 H261 H 0.58981 0.94215 1.11077
 C262 C 0.71851 1.21257 0.81556
 C263 C 0.69732 1.18031 0.81286
 C264 C 0.67058 1.16666 0.84312
 C265 C 0.64500 1.13856 0.83321
 C266 C 0.62140 1.12249 0.86103
 C267 C 0.62266 1.13422 0.89974
 C268 C 0.64804 1.16257 0.90970
 C269 C 0.67171 1.17878 0.88171
 C270 C 0.60071 1.11513 0.93040
 C271 C 0.56912 1.09274 0.92270
 H272 H 0.70042 1.16376 0.78704
 H273 H 0.64388 1.12835 0.80384
 H274 H 0.60351 1.09988 0.85208
 H275 H 0.65010 1.17172 0.93936
 H276 H 0.69168 1.19976 0.89076
 H277 H 0.61165 1.11641 0.95917
 H278 H 0.71392 1.23059 0.83989
 H279 H 0.55681 1.09244 0.89464
 C280 C 0.14192 0.24281 0.16343
 C281 C 0.15349 0.25595 0.12779
 C282 C 0.13017 0.28042 0.10698
 C283 C 0.14801 0.30616 0.08352
 C284 C 0.12649 0.33054 0.06488
 C285 C 0.08667 0.32918 0.06907
 C286 C 0.06883 0.30226 0.09091
 C287 C 0.09031 0.27822 0.10985
 C288 C 0.06285 0.35566 0.05198
 C289 C 0.07534 0.39088 0.04642
 H290 H 0.18111 0.24956 0.11571
 H291 H 0.17867 0.30789 0.08030
 H292 H 0.14108 0.35027 0.04724
 H293 H 0.03816 0.30035 0.09409
 H294 H 0.07562 0.25784 0.12657
 H295 H 0.03308 0.34845 0.04819
 H296 H 0.11590 0.25170 0.17714
 H297 H 0.10438 0.39934 0.05218
 C298 C -0.18305 0.29750 -0.22666
 C299 C -0.18836 0.32005 -0.19468
 C300 C -0.16006 0.34827 -0.18308
 C301 C -0.17147 0.37574 -0.15778
 C302 C -0.14471 0.40021 -0.14233
 C303 C -0.10579 0.39717 -0.15135
 C304 C -0.09459 0.37099 -0.17833
 C305 C -0.12136 0.34660 -0.19391
 C306 C -0.07616 0.41852 -0.13069
 C307 C -0.08170 0.42936 -0.09247
 H308 H -0.21348 0.31601 -0.17646
 H309 H -0.20109 0.37777 -0.14921
 H310 H -0.15455 0.42087 -0.12265
 H311 H -0.06481 0.36813 -0.18577
 H312 H -0.11120 0.32544 -0.21271
 H313 H -0.04776 0.42047 -0.14337
 H314 H -0.15981 0.30299 -0.24683
 H315 H -0.10928 0.42516 -0.07856
 C316 C 0.15181 0.73825 -0.17297
 C317 C 0.16745 0.71655 -0.14638
 C318 C 0.14469 0.68858 -0.12651
 C319 C 0.16222 0.65805 -0.11479
 C320 C 0.14114 0.63149 -0.09543
 C321 C 0.10232 0.63552 -0.08695
 C322 C 0.08518 0.66659 -0.09753
 C323 C 0.10605 0.69281 -0.11736
 C324 C 0.07888 0.60817 -0.06693
 C325 C 0.08474 0.57181 -0.07152
 H326 H 0.19729 0.72002 -0.13997
 H327 H 0.19217 0.65465 -0.12091
 H328 H 0.15533 0.60821 -0.08665
 H329 H 0.05541 0.67041 -0.09081
 H330 H 0.09206 0.71665 -0.12482
 H331 H 0.05367 0.61677 -0.05135
 H332 H 0.12310 0.73266 -0.18234
 H333 H 0.10822 0.56250 -0.08924
 C334 C -0.17528 0.71403 0.13906
 C335 C -0.14870 0.69428 0.15732
 C336 C -0.13702 0.65853 0.14347
 C337 C -0.10214 0.64633 0.15502
 C338 C -0.08838 0.61428 0.13999
 C339 C -0.10953 0.59352 0.11327
 C340 C -0.14529 0.60482 0.10329
 C341 C -0.15907 0.63681 0.11837
 C342 C -0.09341 0.56298 0.09148
 C343 C -0.06015 0.54667 0.10089
 H344 H -0.13378 0.70656 0.18136
 H345 H -0.08472 0.66238 0.17457
 H346 H -0.06042 0.60694 0.14798
 H347 H -0.16219 0.58931 0.08283
 H348 H -0.18672 0.64446 0.10980
 H349 H -0.10594 0.55579 0.06413
 H350 H -0.18983 0.70300 0.11427
 H351 H -0.04874 0.55033 0.12928
 C352 C 1.17327 0.14474 0.72963
 C353 C 1.14323 0.15783 0.71018
 C354 C 1.12847 0.13971 0.67497
 C355 C 1.09740 0.15358 0.65715
 C356 C 1.08121 0.13580 0.62544
 C357 C 1.09569 0.10372 0.61073
 C358 C 1.12763 0.09035 0.62787
 C359 C 1.14387 0.10820 0.65959
 C360 C 1.07431 0.08371 0.58034
 C361 C 1.08511 0.05160 0.56270
 H362 H 1.12956 0.18140 0.72153
 H363 H 1.08503 0.17783 0.66831
 H364 H 1.05656 0.14669 0.61299
 H365 H 1.13957 0.06560 0.61794
 H366 H 1.16791 0.09677 0.67257
 H367 H 1.04657 0.09316 0.57413
 H368 H 1.17997 0.15456 0.74952
 H369 H 1.11321 0.04194 0.56608
 C370 C 0.85836 -0.16961 0.76856
 C371 C 0.88570 -0.18317 0.74302
 C372 C 0.90399 -0.15982 0.71390
 C373 C 0.90939 -0.17240 0.67594
 C374 C 0.92243 -0.14906 0.64739
 C375 C 0.93070 -0.11287 0.65666
 C376 C 0.92787 -0.10110 0.69513
 C377 C 0.91447 -0.12423 0.72344
 C378 C 0.94155 -0.08636 0.62739
 C379 C 0.93139 -0.08986 0.58903
 H380 H 0.89150 -0.21127 0.74238
 H381 H 0.90209 -0.19990 0.66813
 H382 H 0.92566 -0.15936 0.61823
 H383 H 0.93479 -0.07356 0.70315
 H384 H 0.91169 -0.11410 0.75276
 H385 H 0.95533 -0.06155 0.63721
 H386 H 0.85047 -0.14226 0.76553
 H387 H 0.91662 -0.11381 0.57845
 C388 C 1.16791 -0.16095 0.23618
 C389 C 1.13055 -0.16869 0.24873
 C390 C 1.11022 -0.14508 0.27625
 C391 C 1.08313 -0.15984 0.30209
 C392 C 1.06413 -0.13801 0.32890
 C393 C 1.07153 -0.10095 0.32977
 C394 C 1.09738 -0.08611 0.30281
 C395 C 1.11676 -0.10793 0.27645
 C396 C 1.05322 -0.07701 0.35842
 C397 C 1.04369 -0.08721 0.39572
 H398 H 1.11626 -0.19345 0.23953
 H399 H 1.07714 -0.18835 0.30194
 H400 H 1.04353 -0.15013 0.34863
 H401 H 1.10314 -0.05756 0.30261
 H402 H 1.13651 -0.09564 0.25601
 H403 H 1.05143 -0.04924 0.35138
 H404 H 1.18317 -0.13788 0.24838
 H405 H 1.04784 -0.11420 0.40424
 C406 C 0.81702 0.19335 0.31046
 C407 C 0.84537 0.20222 0.33668
 C408 C 0.85988 0.17627 0.36333
 C409 C 0.89677 0.18207 0.37676
 C410 C 0.91343 0.15640 0.39813
 C411 C 0.89351 0.12443 0.40693
 C412 C 0.85571 0.11941 0.39546
 C413 C 0.83898 0.14518 0.37404
 C414 C 0.91451 0.09627 0.42490
 C415 C 0.89867 0.06393 0.43791
 H416 H 0.86063 0.22776 0.33461
 H417 H 0.91339 0.20590 0.36935
 H418 H 0.94254 0.16108 0.40674
 H419 H 0.83930 0.09524 0.40167
 H420 H 0.80996 0.14024 0.36554
 H421 H 0.94502 0.10071 0.42638
 H422 H 0.80206 0.16769 0.31167
 H423 H 0.86827 0.05915 0.44022
 C424 C 0.16948 0.23325 -0.15667
 C425 C 0.13473 0.24677 -0.16620
 C426 C 0.11498 0.27353 -0.14167
 C427 C 0.07524 0.27403 -0.14205
 C428 C 0.05563 0.29882 -0.11923
 C429 C 0.07538 0.32418 -0.09620
 C430 C 0.11523 0.32368 -0.09565
 C431 C 0.13484 0.29867 -0.11823
 C432 C 0.05366 0.35106 -0.07385
 C433 C 0.06837 0.38541 -0.06562
 H434 H 0.11985 0.23528 -0.19068
 H435 H 0.05927 0.25499 -0.15985
 H436 H 0.02493 0.29862 -0.12013
 H437 H 0.13135 0.34241 -0.07770
 H438 H 0.16552 0.29956 -0.11773
 H439 H 0.02380 0.34510 -0.06777
 H440 H 0.18283 0.24279 -0.13052
 H441 H 0.09719 0.39285 -0.07451
 C442 C -0.15795 0.29755 0.23660
 C443 C -0.16524 0.31942 0.20615
 C444 C -0.13926 0.34890 0.19333
 C445 C -0.15381 0.37559 0.17139
 C446 C -0.12953 0.40100 0.15398
 C447 C -0.08995 0.39968 0.15742
 C448 C -0.07556 0.37429 0.18125
 C449 C -0.09992 0.34902 0.19898
 C450 C -0.06301 0.42218 0.13424
 C451 C -0.07240 0.43447 0.09849
 H452 H -0.19087 0.31431 0.19010
 H453 H -0.18404 0.37623 0.16688
 H454 H -0.14190 0.42101 0.13715
 H455 H -0.04521 0.37278 0.18453
 H456 H -0.08762 0.32852 0.21521
 H457 H -0.03357 0.42423 0.14244
 H458 H -0.13473 0.30471 0.25536
 H459 H -0.10108 0.43056 0.08856
 C460 C -0.16120 0.71785 -0.15004
 C461 C -0.13368 0.69676 -0.16707
 C462 C -0.12489 0.66236 -0.15036
 C463 C -0.09282 0.64434 -0.16376
 C464 C -0.08158 0.61400 -0.14541
 C465 C -0.10246 0.60107 -0.11335
 C466 C -0.13546 0.61817 -0.10116
 C467 C -0.14670 0.64834 -0.11948
 C468 C -0.08838 0.57316 -0.08897
 C469 C -0.05977 0.55014 -0.10015
 H470 H -0.11660 0.70673 -0.19109
 H471 H -0.07555 0.65458 -0.18747
 H472 H -0.05557 0.60202 -0.15524
 H473 H -0.15196 0.60885 -0.07649
 H474 H -0.17183 0.66127 -0.10855
 H475 H -0.09900 0.57275 -0.05949
 H476 H -0.16418 0.73847 -0.15849
 H477 H -0.05081 0.54742 -0.13000
 C478 C 0.16723 0.74289 0.14410
 C479 C 0.18281 0.72041 0.11569
 C480 C 0.15900 0.69248 0.09601
 C481 C 0.12095 0.69825 0.08803
 C482 C 0.09812 0.67116 0.07135
 C483 C 0.11260 0.63760 0.06246
 C484 C 0.15118 0.63223 0.06884
 C485 C 0.17421 0.65961 0.08525
 C486 C 0.08612 0.60919 0.04750
 C487 C 0.09173 0.57274 0.04978
 H488 H 0.21306 0.72193 0.10925
 H489 H 0.10871 0.72373 0.09468
 H490 H 0.06870 0.67622 0.06620
 H491 H 0.16370 0.60710 0.06130
 H492 H 0.20367 0.65480 0.09050
 H493 H 0.05902 0.61735 0.03763
 H494 H 0.13766 0.73848 0.15265
 H495 H 0.11808 0.56327 0.05990
 C496 C 0.26577 1.14614 0.83800
 C497 C 0.28998 1.16469 0.86312
 C498 C 0.31730 1.14576 0.88536
 C499 C 0.35517 1.15848 0.88755
 C500 C 0.38114 1.14010 0.90836
 C501 C 0.36906 1.10952 0.92826
 C502 C 0.33092 1.09759 0.92701
 C503 C 0.30536 1.11522 0.90528
 C504 C 0.39527 1.08957 0.95076
 C505 C 0.43100 1.08038 0.93652
 H506 H 0.28944 1.19345 0.86594
 H507 H 0.36473 1.18222 0.87262
 H508 H 0.41039 1.14999 0.90941
 H509 H 0.32107 1.07417 0.94235
 H510 H 0.27609 1.10534 0.90449
 H511 H 0.38376 1.07686 0.97632
 H512 H 0.26977 1.11809 0.83179
 H513 H 0.44122 1.08968 0.90885
 C514 C 0.28157 0.81865 1.15947
 C515 C 0.30159 0.84614 1.17918
 C516 C 0.33791 0.86347 1.16556
 C517 C 0.35998 0.84978 1.13468
 C518 C 0.39204 0.86911 1.12082
 C519 C 0.40257 0.90259 1.13741
 C520 C 0.38193 0.91505 1.16969
 C521 C 0.34999 0.89575 1.18356
 C522 C 0.43290 0.92631 1.12051
 C523 C 0.44263 0.92505 1.08146
 H524 H 0.28837 0.85769 1.20482
 H525 H 0.35259 0.82446 1.12077
 H526 H 0.40813 0.85787 1.09687
 H527 H 0.38958 0.94055 1.18330
 H528 H 0.33389 0.90678 1.20771
 H529 H 0.44303 0.94909 1.13770
 H530 H 0.29360 0.80600 1.13396
 H531 H 0.43097 0.90381 1.06318
 C532 C 0.74823 1.20794 1.19495
 C533 C 0.72606 1.17691 1.20098
 C534 C 0.70331 1.15847 1.17089
 C535 C 0.67229 1.13625 1.18205
 C536 C 0.65154 1.11652 1.15466
 C537 C 0.66173 1.11834 1.11546
 C538 C 0.69304 1.14022 1.10427
 C539 C 0.71353 1.16036 1.13167
 C540 C 0.64139 1.09623 1.08622
 C541 C 0.60297 1.08661 1.09052
 H542 H 0.72522 1.16547 1.22917
 H543 H 0.66432 1.13387 1.21213
 H544 H 0.62832 1.09903 1.16441
 H545 H 0.70174 1.14160 1.07428
 H546 H 0.73803 1.17638 1.12219
 H547 H 0.65688 1.08793 1.06042
 H548 H 0.74692 1.22159 1.16816
 H549 H 0.58653 1.09759 1.11442
 C550 C 0.76522 0.83136 0.87135
 C551 C 0.74859 0.86099 0.85692
 C552 C 0.72054 0.88188 0.87898
 C553 C 0.69202 0.89792 0.85924
 C554 C 0.66584 0.91902 0.87900
 C555 C 0.66832 0.92507 0.91882
 C556 C 0.69726 0.90960 0.93855
 C557 C 0.72296 0.88777 0.91887
 C558 C 0.64196 0.94864 0.93971
 C559 C 0.60378 0.94904 0.93073
 H560 H 0.75493 0.86818 0.82748
 H561 H 0.69000 0.89408 0.82842
 H562 H 0.64432 0.93136 0.86299
 H563 H 0.69986 0.91433 0.96919
 H564 H 0.74530 0.87640 0.93463
 H565 H 0.65239 0.96487 0.96370
 H566 H 0.75613 0.82148 0.89912
 H567 H 0.59213 0.92978 0.91005
   
