data_POSCAR
  _audit_creation_date              2014-09-24
  _audit_creation_method            'ToBaCCo'
  _symmetry_space_group_name_H-M    'P1'
  _symmetry_Int_Tables_number       1
  _symmetry_cell_setting            triclinic
  loop_
  _symmetry_equiv_pos_as_xyz
 x,y,z
_cell_length_a 20.5741
_cell_length_b 20.5736
_cell_length_c 53.4174
_cell_angle_alpha 89.714300
_cell_angle_beta 90.285500
_cell_angle_gamma 119.877000
loop_
  _atom_site_label
  _atom_site_type_symbol
  _atom_site_fract_x
  _atom_site_fract_y
  _atom_site_fract_z
Si1 Si 0.00302 0.00084 0.50016
 Si2 Si 1.00094 0.00293 0.16641
 Si3 Si -0.00351 0.99640 0.83329
 O4 O 0.46411 0.06045 0.02331
 O5 O 0.59051 0.05921 -0.02542
 O6 O 0.46680 0.06540 -0.02538
 O7 O 0.59378 0.06638 0.02322
 O8 O 0.53265 -0.05759 0.02378
 O9 O 0.40422 -0.05856 -0.02507
 O10 O 0.52792 -0.06475 -0.02486
 O11 O 0.40299 -0.06351 0.02361
 Cu12 Cu 0.53499 0.07529 -0.00112
 Cu13 Cu 0.46075 -0.07353 -0.00060
 C14 C 0.41195 -0.00173 0.03160
 C15 C 0.58046 -0.00338 -0.03325
 C16 C 0.41392 0.00365 -0.03337
 C17 C 0.58515 0.00495 0.03165
 O18 O 0.06038 0.46394 0.64326
 O19 O 0.05911 0.59032 0.69198
 O20 O 0.06533 0.46663 0.69195
 O21 O 0.06628 0.59360 0.64334
 O22 O -0.05768 0.53246 0.64279
 O23 O -0.05863 0.40403 0.69163
 O24 O -0.06484 0.52772 0.69143
 O25 O -0.06359 0.40280 0.64295
 Cu26 Cu 0.07520 0.53481 0.66768
 Cu27 Cu -0.07361 0.46055 0.66716
 C28 C -0.00180 0.41178 0.63497
 C29 C -0.00348 0.58027 0.69982
 C30 C 0.00360 0.41374 0.69993
 C31 C 0.00486 0.58496 0.63491
 O32 O 0.40902 0.46762 0.35764
 O33 O 0.53595 0.59517 0.30885
 O34 O 0.40643 0.47164 0.30897
 O35 O 0.53252 0.59716 0.35751
 O36 O 0.59536 0.53581 0.35771
 O37 O 0.46783 0.40884 0.30892
 O38 O 0.59734 0.53236 0.30904
 O39 O 0.47185 0.40626 0.35759
 Cu40 Cu 0.46475 0.53912 0.33324
 Cu41 Cu 0.53932 0.46459 0.33332
 C42 C 0.41913 0.41513 0.36576
 C43 C 0.58836 0.58518 0.30081
 C44 C 0.41532 0.41893 0.30080
 C45 C 0.58535 0.58820 0.36574
 C46 C 0.01118 0.20114 0.58949
 C47 C -0.06110 0.14154 0.57623
 C48 C -0.01792 0.16021 0.55143
 C49 C 0.05433 0.21902 0.56446
 C50 C -0.01038 0.26093 0.58324
 C51 C 0.03281 0.27959 0.55845
 C52 C -0.08271 0.20219 0.57024
 C53 C -0.03949 0.21997 0.54513
 C54 C -0.01861 0.10507 0.53404
 C55 C -0.01432 0.06148 0.52014
 C56 C -0.00579 0.31644 0.60130
 C57 C -0.00289 0.36090 0.61649
 H58 H 0.03222 0.19407 0.60790
 H59 H -0.09981 0.08420 0.58332
 H60 H 0.11070 0.22531 0.56189
 H61 H 0.07156 0.33692 0.55135
 H62 H -0.13903 0.19600 0.57284
 H63 H -0.06050 0.22695 0.52671
 C64 C 0.75474 0.80749 0.24373
 C65 C 0.84001 0.83699 0.24565
 C66 C 0.84130 0.82176 0.21758
 C67 C 0.75675 0.79300 0.21541
 C68 C 0.74008 0.72799 0.24924
 C69 C 0.74126 0.71262 0.22117
 C70 C 0.82463 0.75671 0.25141
 C71 C 0.82677 0.74228 0.22304
 C72 C 0.89668 0.87653 0.20026
 C73 C 0.94037 0.92465 0.18639
 C74 C 0.68427 0.67680 0.26722
 C75 C 0.63954 0.63506 0.28236
 H76 H 0.72455 0.83378 0.25239
 H77 H 0.88133 0.88866 0.25554
 H78 H 0.72947 0.80847 0.20037
 H79 H 0.69989 0.66096 0.21130
 H80 H 0.85191 0.74127 0.26646
 H81 H 0.85706 0.71613 0.21436
 C82 C 0.27454 0.00803 -0.11356
 C83 C 0.18913 -0.04792 -0.11436
 C84 C 0.17490 0.01848 -0.11663
 C85 C 0.25946 0.07451 -0.11611
 C86 C 0.26977 0.01189 -0.08496
 C87 C 0.25561 0.07834 -0.08720
 C88 C 0.18519 -0.04405 -0.08552
 C89 C 0.17020 0.02233 -0.08803
 C90 C 0.11947 0.01845 -0.13393
 C91 C 0.07079 0.01334 -0.14778
 C92 C 0.32151 0.00761 -0.06697
 C93 C 0.36364 0.00481 -0.05182
 H94 H 0.31793 0.00192 -0.12385
 H95 H 0.16122 -0.09983 -0.12575
 H96 H 0.28933 0.12330 -0.12887
 H97 H 0.28351 0.13021 -0.07580
 H98 H 0.15517 -0.09289 -0.07279
 H99 H 0.12681 0.02841 -0.07772
 C100 C -0.04876 0.75395 0.57784
 C101 C 0.00783 0.83897 0.57952
 C102 C 0.02360 0.83984 0.55140
 C103 C -0.03302 0.75555 0.54947
 C104 C 0.01533 0.73792 0.58317
 C105 C 0.03111 0.73868 0.55505
 C106 C 0.07197 0.82220 0.58511
 C107 C 0.08780 0.82394 0.55669
 C108 C 0.02460 0.89563 0.53403
 C109 C 0.02044 0.93968 0.52014
 C110 C 0.01020 0.68170 0.60121
 C111 C 0.00675 0.63662 0.61641
 H112 H -0.10497 0.72462 0.58670
 H113 H -0.00157 0.88090 0.58941
 H114 H -0.07612 0.72877 0.53459
 H115 H 0.04046 0.69669 0.54519
 H116 H 0.11503 0.84898 0.60000
 H117 H 0.14396 0.85337 0.54781
 C118 C 0.17979 0.25475 0.24963
 C119 C 0.18197 0.26570 0.22084
 C120 C 0.16139 0.18353 0.21751
 C121 C 0.15835 0.17177 0.24600
 C122 C 0.26300 0.27685 0.24919
 C123 C 0.24230 0.19466 0.24582
 C124 C 0.26615 0.28871 0.22070
 C125 C 0.24462 0.20567 0.21709
 C126 C 0.10580 0.12898 0.20019
 C127 C 0.06190 0.08102 0.18634
 C128 C 0.31903 0.32778 0.26719
 C129 C 0.36393 0.36929 0.28235
 H130 H 0.15377 0.27547 0.26325
 H131 H 0.15647 0.29424 0.21039
 H132 H 0.11332 0.12319 0.25622
 H133 H 0.26770 0.16598 0.25624
 H134 H 0.31123 0.33730 0.21050
 H135 H 0.27067 0.18494 0.20347
 C136 C 0.70736 -0.03012 -0.11269
 C137 C 0.78830 0.03367 -0.11806
 C138 C 0.81567 -0.02337 -0.11596
 C139 C 0.73562 -0.08724 -0.11087
 C140 C 0.72236 -0.01450 -0.08454
 C141 C 0.74969 -0.07156 -0.08242
 C142 C 0.80243 0.04926 -0.08967
 C143 C 0.83054 -0.00777 -0.08780
 C144 C 0.87024 -0.02470 -0.13313
 C145 C 0.91827 -0.02077 -0.14688
 C146 C 0.67146 -0.00907 -0.06669
 C147 C 0.62999 -0.00542 -0.05163
 H148 H 0.65618 -0.03908 -0.12273
 H149 H 0.80473 0.07687 -0.13295
 H150 H 0.70881 -0.14337 -0.11977
 H151 H 0.73328 -0.11473 -0.06753
 H152 H 0.82939 0.10544 -0.08080
 H153 H 0.88171 0.00124 -0.07774
 C154 C 0.26044 -0.02715 0.11141
 C155 C 0.24491 0.03764 0.11712
 C156 C 0.16035 -0.01794 0.11514
 C157 C 0.17493 -0.08279 0.10972
 C158 C 0.26108 -0.01036 0.08332
 C159 C 0.17653 -0.06596 0.08133
 C160 C 0.24638 0.05439 0.08878
 C161 C 0.16110 -0.00116 0.08704
 C162 C 0.10519 -0.01867 0.13252
 C163 C 0.06159 -0.01440 0.14643
 C164 C 0.31660 -0.00574 0.06526
 C165 C 0.36108 -0.00283 0.05007
 H166 H 0.30205 -0.03762 0.12123
 H167 H 0.27241 0.08018 0.13207
 H168 H 0.14491 -0.13920 0.11851
 H169 H 0.14903 -0.10846 0.06637
 H170 H 0.27632 0.11084 0.08001
 H171 H 0.11955 0.00934 0.07720
 C172 C 0.75485 0.82420 0.41562
 C173 C 0.74149 0.82489 0.44414
 C174 C 0.82187 0.84120 0.44898
 C175 C 0.83603 0.84137 0.42076
 C176 C 0.72812 0.73997 0.41731
 C177 C 0.80852 0.75641 0.42219
 C178 C 0.71385 0.73969 0.44553
 C179 C 0.79511 0.75697 0.45066
 C180 C 0.87663 0.89658 0.46629
 C181 C 0.92474 0.94027 0.48017
 C182 C 0.67694 0.68414 0.39934
 C183 C 0.63522 0.63940 0.38419
 H184 H 0.73777 0.85122 0.40097
 H185 H 0.71461 0.85373 0.45334
 H186 H 0.88678 0.88389 0.41074
 H187 H 0.83556 0.72769 0.41302
 H188 H 0.66309 0.69713 0.45553
 H189 H 0.81222 0.72994 0.46530
 C190 C 0.02606 0.28348 0.77977
 C191 C -0.03829 0.20248 0.78474
 C192 C 0.01851 0.17477 0.78319
 C193 C 0.08292 0.25486 0.77851
 C194 C 0.01188 0.26961 0.75152
 C195 C 0.06871 0.24193 0.74995
 C196 C -0.05242 0.18948 0.75624
 C197 C 0.00435 0.16102 0.75494
 C198 C 0.01850 0.11935 0.80050
 C199 C 0.01341 0.07068 0.81435
 C200 C 0.00759 0.32133 0.73353
 C201 C 0.00477 0.36346 0.71838
 H202 H 0.03476 0.33437 0.78978
 H203 H -0.08222 0.18570 0.79928
 H204 H 0.13857 0.28108 0.78785
 H205 H 0.11262 0.25867 0.73541
 H206 H -0.10811 0.16312 0.74693
 H207 H -0.00439 0.11013 0.74491
 C208 C 0.73726 0.02825 0.11166
 C209 C 0.75608 -0.03488 0.11653
 C210 C 0.83997 0.02354 0.11516
 C211 C 0.82212 0.08675 0.11058
 C212 C 0.73809 0.01536 0.08339
 C213 C 0.82198 0.07382 0.08200
 C214 C 0.75608 -0.04774 0.08800
 C215 C 0.84070 0.01066 0.08688
 C216 C 0.89574 0.02452 0.13252
 C217 C 0.93978 0.02034 0.14642
 C218 C 0.68189 0.01027 0.06535
 C219 C 0.63681 0.00684 0.05015
 H220 H 0.69397 0.03526 0.12166
 H221 H 0.72959 -0.07953 0.13095
 H222 H 0.84995 0.14206 0.12005
 H223 H 0.84845 0.11842 0.06757
 H224 H 0.72834 -0.10309 0.07856
 H225 H 0.88393 0.00361 0.07686
 C226 C 0.22949 0.17873 0.41157
 C227 C 0.25142 0.16064 0.43741
 C228 C 0.18365 0.16127 0.44906
 C229 C 0.16095 0.17850 0.42349
 C230 C 0.27703 0.26282 0.41737
 C231 C 0.20922 0.26332 0.42903
 C232 C 0.29989 0.24571 0.44292
 C233 C 0.23118 0.24536 0.45485
 C234 C 0.12908 0.10569 0.46637
 C235 C 0.08111 0.06180 0.48022
 C236 C 0.32798 0.31883 0.39937
 C237 C 0.36950 0.36373 0.38421
 H238 H 0.22923 0.15195 0.39355
 H239 H 0.26817 0.11784 0.44105
 H240 H 0.10324 0.15017 0.41566
 H241 H 0.19235 0.30605 0.42541
 H242 H 0.35764 0.27412 0.45072
 H243 H 0.23135 0.27209 0.47287
 C244 C -0.07019 0.75119 0.74861
 C245 C -0.08791 0.73625 0.77693
 C246 C -0.02333 0.81554 0.78253
 C247 C -0.00568 0.83127 0.75451
 C248 C -0.01455 0.72218 0.75111
 C249 C 0.04993 0.80150 0.75675
 C250 C -0.03221 0.70632 0.77913
 C251 C 0.03230 0.78651 0.78502
 C252 C -0.02462 0.87013 0.79970
 C253 C -0.02067 0.91817 0.81346
 C254 C -0.00915 0.67126 0.73326
 C255 C -0.00552 0.62979 0.71820
 H256 H -0.11222 0.73615 0.73340
 H257 H -0.14459 0.71009 0.78541
 H258 H 0.00505 0.88318 0.74455
 H259 H 0.10665 0.82782 0.74830
 H260 H -0.04289 0.65441 0.78907
 H261 H 0.07436 0.80157 0.80022
   
