data_POSCAR
  _audit_creation_date              2014-09-24
  _audit_creation_method            'ToBaCCo'
  _symmetry_space_group_name_H-M    'P1'
  _symmetry_Int_Tables_number       1
  _symmetry_cell_setting            triclinic
  loop_
  _symmetry_equiv_pos_as_xyz
 x,y,z
_cell_length_a 24.2886
_cell_length_b 28.1056
_cell_length_c 28.3415
_cell_angle_alpha 90.198200
_cell_angle_beta 88.956100
_cell_angle_gamma 141.766600
loop_
  _atom_site_label
  _atom_site_type_symbol
  _atom_site_fract_x
  _atom_site_fract_y
  _atom_site_fract_z
O1 O 0.10775 0.55290 1.28384
 O2 O -0.05646 0.48939 1.19974
 O3 O -0.02022 0.53381 1.28605
 O4 O 0.08390 0.53437 1.19166
 O5 O -0.00801 0.41243 1.20773
 O6 O -0.10204 0.41701 1.30939
 O7 O -0.14962 0.37017 1.22417
 O8 O 0.01777 0.43096 1.29690
 Cu9 Cu 0.03851 0.53951 1.24003
 Cu10 Cu -0.06909 0.39609 1.26133
 C11 C 0.09110 0.50138 1.30275
 C12 C -0.13288 0.41783 1.19916
 C13 C -0.07895 0.47608 1.31348
 C14 C 0.05590 0.47384 1.18324
 O15 O 0.48511 0.54875 1.29897
 O16 O 0.41192 0.40957 1.21190
 O17 O 0.41191 0.41452 1.30191
 O18 O 0.47639 0.53952 1.20581
 O19 O 0.61165 0.60054 1.20333
 O20 O 0.54794 0.47706 1.30154
 O21 O 0.54770 0.47153 1.20934
 O22 O 0.62158 0.61253 1.29403
 Cu23 Cu 0.43315 0.47274 1.25497
 Cu24 Cu 0.59575 0.54652 1.25216
 C25 C 0.56622 0.60505 1.31081
 C26 C 0.46752 0.41660 1.19630
 C27 C 0.46790 0.42302 1.31726
 C28 C 0.55443 0.59060 1.18782
 O29 O 0.59468 1.03712 1.29349
 O30 O 0.52632 1.07264 1.20069
 O31 O 0.52475 1.07315 1.29425
 O32 O 0.58709 1.02682 1.20338
 O33 O 0.45036 0.90509 1.20579
 O34 O 0.38763 0.95187 1.29528
 O35 O 0.39009 0.95076 1.20358
 O36 O 0.45827 0.91531 1.29805
 Cu37 Cu 0.57116 1.06463 1.24717
 Cu38 Cu 0.40784 0.91849 1.25102
 C39 C 0.53829 0.97035 1.31179
 C40 C 0.44750 1.01813 1.18588
 C41 C 0.44540 1.01968 1.31079
 C42 C 0.52971 0.95803 1.18963
 O43 O 0.99412 0.54355 0.70201
 O44 O 1.11836 0.55998 0.78992
 O45 O 1.11185 0.55596 0.69702
 O46 O 1.00834 0.55647 0.79267
 O47 O 0.89737 0.42972 0.79777
 O48 O 1.00246 0.42942 0.70197
 O49 O 1.00841 0.43324 0.79342
 O50 O 0.88420 0.41684 0.70546
 Cu51 Cu 1.06915 0.56630 0.74480
 Cu52 Cu 0.93690 0.41452 0.75032
 C53 C 0.91855 0.47790 0.68869
 C54 C 1.08403 0.49881 0.80660
 C55 C 1.07493 0.49308 0.68284
 C56 C 0.93518 0.49334 0.81144
 O57 O 0.41157 0.40944 0.71040
 O58 O 0.48803 0.55123 0.79354
 O59 O 0.47837 0.53968 0.70208
 O60 O 0.42522 0.42384 0.80106
 O61 O 0.56144 0.48672 0.79782
 O62 O 0.61463 0.60258 0.69826
 O63 O 0.62506 0.61565 0.78850
 O64 O 0.54755 0.47193 0.70529
 Cu65 Cu 0.43708 0.47471 0.75216
 Cu66 Cu 0.60084 0.55009 0.74692
 C67 C 0.46656 0.41670 0.69349
 C68 C 0.56889 0.60724 0.80516
 C69 C 0.55615 0.59149 0.68363
 C70 C 0.48404 0.43593 0.81669
 O71 O 0.50625 0.04842 0.69294
 O72 O 0.57640 0.01690 0.78714
 O73 O 0.53288 -0.02461 0.69795
 O74 O 0.52892 0.07501 0.78267
 O75 O 0.38667 -0.03630 0.79763
 O76 O 0.39701 -0.13492 0.72319
 O77 O 0.43658 -0.09060 0.80940
 O78 O 0.36556 -0.06447 0.70957
 Cu79 Cu 0.55043 0.03983 0.73862
 Cu80 Cu 0.38290 -0.09251 0.76164
 C81 C 0.42423 -0.00189 0.68552
 C82 C 0.51934 -0.04137 0.81446
 C83 C 0.46513 -0.09786 0.69750
 C84 C 0.45482 0.03554 0.80284
 O85 O 0.58298 0.77002 0.94253
 O86 O 0.57274 0.85344 0.96229
 C87 C 0.51595 0.83973 0.94104
 O88 O 0.43308 0.78043 0.94918
 O89 O 0.28978 0.63142 0.95626
 C90 C 0.28297 0.58828 0.93275
 O91 O 0.32680 0.58066 0.94150
 O92 O 0.48011 0.64384 0.95405
 C93 C 0.54744 0.70665 0.93205
 O94 O 0.58341 0.74900 1.03465
 O95 O 0.56506 0.82683 1.05408
 C96 C 0.51737 0.83003 1.06530
 O97 O 0.44595 0.79252 1.04451
 O98 O 0.30343 0.64212 1.05166
 C99 C 0.26820 0.57768 1.05768
 O100 O 0.29221 0.55735 1.03446
 O101 O 0.44885 0.62666 1.04859
 C102 C 0.53108 0.68549 1.05683
 Cr103 Cr 0.57069 0.79598 0.99841
 Cr104 Cr 0.37094 0.71134 1.00040
 Cr105 Cr 0.38938 0.60619 0.99481
 O106 O 0.44336 0.70442 0.99782
 O107 O 0.44293 0.27062 0.96883
 O108 O 0.43978 0.17956 0.94256
 C109 C 0.47937 0.16851 0.92972
 O110 O 0.54076 0.19117 0.95320
 O111 O 0.69068 0.33834 0.94425
 C112 C 0.73861 0.40781 0.94207
 O113 O 0.72957 0.43636 0.97087
 O114 O 0.58467 0.38859 0.95566
 C115 C 0.50190 0.33562 0.94756
 O116 O 0.43476 0.23817 1.05952
 O117 O 0.42421 0.14152 1.03354
 C118 C 0.47541 0.14866 1.05567
 O119 O 0.55882 0.20369 1.04805
 O120 O 0.71389 0.35105 1.03781
 C121 C 0.71096 0.37979 1.07066
 O122 O 0.68178 0.40177 1.06476
 O123 O 0.54744 0.36550 1.04941
 C124 C 0.47735 0.30408 1.07123
 Cr125 Cr 0.43984 0.21025 1.00111
 Cr126 Cr 0.62392 0.27165 0.99614
 Cr127 Cr 0.63430 0.39503 1.00974
 O128 O 0.56563 0.29210 1.00193
 O129 O 0.55424 0.36154 0.55604
 O130 O 0.70222 0.41562 0.54191
 C131 C 0.71538 0.38629 0.56422
 O132 O 0.67425 0.31998 0.55572
 O133 O 0.52343 0.17268 0.54291
 C134 C 0.45145 0.13680 0.56369
 O135 O 0.41159 0.14820 0.55463
 O136 O 0.41569 0.24300 0.54290
 C137 C 0.47151 0.30532 0.56552
 O138 O 0.53756 0.36008 0.46185
 O139 O 0.68148 0.40772 0.44876
 C140 C 0.71939 0.39424 0.43921
 O141 O 0.70182 0.34379 0.46088
 O142 O 0.54910 0.19809 0.44833
 C143 C 0.46709 0.14525 0.43925
 O144 O 0.41319 0.13599 0.46128
 O145 O 0.42239 0.23401 0.44896
 C146 C 0.46804 0.30185 0.43991
 Cr147 Cr 0.61598 0.38188 0.50218
 Cr148 Cr 0.60962 0.25937 0.50200
 Cr149 Cr 0.42117 0.19396 0.50193
 O150 O 0.54892 0.27833 0.50210
 O151 O 0.44830 0.63239 0.54913
 O152 O 0.29387 0.56500 0.53011
 C153 C 0.27196 0.58751 0.55293
 O154 O 0.30764 0.65198 0.54544
 O155 O 0.45069 0.80199 0.53487
 C156 C 0.50171 0.82017 0.56591
 O157 O 0.55591 0.82315 0.55733
 O158 O 0.58400 0.75316 0.53477
 C159 C 0.53073 0.68975 0.55703
 O160 O 0.48787 0.65268 0.45532
 O161 O 0.33805 0.59072 0.43752
 C162 C 0.29507 0.59835 0.42639
 O163 O 0.29515 0.63664 0.45041
 O164 O 0.44041 0.78438 0.44059
 C165 C 0.52373 0.84657 0.43737
 O166 O 0.57735 0.86216 0.46453
 O167 O 0.59095 0.77951 0.44327
 C168 C 0.55461 0.71525 0.43275
 Cr169 Cr 0.39385 0.61360 0.49319
 Cr170 Cr 0.37587 0.71840 0.49302
 Cr171 Cr 0.57298 0.80196 0.49976
 O172 O 0.44723 0.71086 0.49484
 C173 C 0.59466 0.65914 0.34244
 C174 C 0.68255 0.72920 0.35150
 C175 C 0.67982 0.76302 0.38448
 C176 C 0.59066 0.71045 0.39373
 O177 O 0.53896 0.64768 0.36820
 H178 H 0.74149 0.75266 0.33607
 H179 H 0.73577 0.81733 0.40155
 C180 C 0.56467 0.95786 0.34756
 C181 C 0.65072 1.01291 0.36330
 C182 C 0.64723 0.97785 0.39866
 C183 C 0.55936 0.90429 0.40207
 O184 O 0.50904 0.89180 0.37105
 H185 H 0.70892 1.07167 0.35066
 H186 H 0.70181 1.00317 0.41993
 C187 C 0.15723 0.52102 0.32996
 C188 C 0.17357 0.48424 0.32372
 C189 C 0.22940 0.51006 0.35857
 C190 C 0.24170 0.55972 0.38396
 O191 O 0.19819 0.56692 0.36663
 H192 H 0.14619 0.44221 0.29739
 H193 H 0.25613 0.49321 0.36546
 C194 C 0.43756 0.36693 0.35203
 C195 C 0.35004 0.29327 0.35725
 C196 C 0.35028 0.25834 0.39021
 C197 C 0.43772 0.31365 0.40314
 O198 O 0.49116 0.37971 0.37994
 H199 H 0.29319 0.26771 0.33848
 H200 H 0.29348 0.19998 0.40377
 C201 C 0.42143 0.03485 0.34692
 C202 C 0.33517 -0.01724 0.36358
 C203 C 0.34108 0.01875 0.39945
 C204 C 0.43056 0.08961 0.40257
 O205 O 0.47971 0.09989 0.37057
 H206 H 0.27522 -0.07471 0.35120
 H207 H 0.28693 -0.00464 0.42164
 C208 C 0.87692 0.47685 0.34886
 C209 C 0.88825 0.53323 0.35058
 C210 C 0.83026 0.50944 0.38483
 C211 C 0.78837 0.44063 0.40169
 O212 O 0.81642 0.42050 0.37995
 H213 H 0.93191 0.58450 0.32857
 H214 H 0.81944 0.53852 0.39610
 C215 C 0.43871 0.36004 1.16318
 C216 C 0.35278 0.28488 1.16052
 C217 C 0.35604 0.25245 1.12660
 C218 C 0.44346 0.31066 1.11065
 O219 O 0.49384 0.37593 1.13290
 H220 H 0.29503 0.25701 1.18119
 H221 H 0.30105 0.19406 1.11414
 C222 C 0.79948 0.38988 1.17169
 C223 C 0.71098 0.31840 1.17951
 C224 C 0.66662 0.31073 1.14505
 C225 C 0.73100 0.37714 1.11809
 O226 O 0.81229 0.42584 1.13403
 H227 H 0.68233 0.27637 1.20680
 H228 H 0.59620 0.26044 1.13838
 C229 C 0.42325 0.03353 1.14739
 C230 C 0.33742 -0.01647 1.13347
 C231 C 0.34536 0.02037 1.09708
 C232 C 0.43553 0.08967 1.09128
 O233 O 0.48298 0.09790 1.12182
 H234 H 0.27652 -0.07270 1.14828
 H235 H 0.29198 -0.00081 1.07700
 C236 C 0.57910 0.63914 1.14867
 C237 C 0.66550 0.70650 1.13369
 C238 C 0.65892 0.73350 1.09751
 C239 C 0.56892 0.68012 1.09281
 O240 O 0.52015 0.62275 1.12390
 H241 H 0.72594 0.73291 1.14772
 H242 H 0.71313 0.78543 1.07667
 C243 C 0.10089 0.47701 1.14553
 C244 C 0.08377 0.41853 1.13452
 C245 C 0.14500 0.44858 1.09993
 C246 C 0.19469 0.52308 1.09258
 O247 O 0.16799 0.54036 1.12018
 H248 H 0.03377 0.36150 1.15031
 H249 H 0.15265 0.41978 1.08223
 C250 C 0.55624 0.93956 1.15515
 C251 C 0.64238 0.98209 1.14894
 C252 C 0.63823 0.94491 1.11522
 C253 C 0.55002 0.88311 1.10291
 O254 O 0.49975 0.87946 1.12719
 H255 H 0.70086 1.03349 1.16724
 H256 H 0.69321 0.96161 1.10058
 C257 C 0.43608 0.36110 0.65910
 C258 C 0.34788 0.29184 0.65055
 C259 C 0.34920 0.26034 0.61471
 C260 C 0.43814 0.31322 0.60396
 O261 O 0.49108 0.37434 0.63092
 H262 H 0.28977 0.26776 0.66800
 H263 H 0.29233 0.20619 0.59776
 C264 C 0.39831 0.01542 0.65009
 C265 C 0.31430 -0.02246 0.64661
 C266 C 0.32296 0.01860 0.61372
 C267 C 0.41143 0.07793 0.59944
 O268 O 0.45725 0.07615 0.62145
 H269 H 0.25488 -0.07219 0.66683
 H270 H 0.27121 0.00691 0.60165
 C271 C 0.87123 0.47374 0.65345
 C272 C 0.89430 0.53539 0.64182
 C273 C 0.83740 0.50966 0.60770
 C274 C 0.78392 0.43417 0.60056
 O275 O 0.80409 0.41185 0.62846
 H276 H 0.94675 0.59247 0.65643
 H277 H 0.83600 0.54249 0.58950
 C278 C 0.57950 0.64017 0.64527
 C279 C 0.66562 0.70759 0.63002
 C280 C 0.65845 0.73571 0.59536
 C281 C 0.56840 0.68296 0.59180
 O282 O 0.52006 0.62477 0.62213
 H283 H 0.72629 0.73337 0.64296
 H284 H 0.71233 0.78799 0.57470
 C285 C 0.46401 0.86043 0.66943
 C286 C 0.40543 0.78362 0.67781
 C287 C 0.42154 0.76276 0.64254
 C288 C 0.48738 0.82751 0.61445
 O289 O 0.51369 0.88743 0.63053
 H290 H 0.35573 0.74679 0.70596
 H291 H 0.38484 0.70546 0.63597
 C292 C 0.11428 0.49438 0.64560
 C293 C 0.08484 0.43095 0.62933
 C294 C 0.14154 0.45788 0.59276
 C295 C 0.20045 0.53540 0.58906
 O296 O 0.18432 0.55782 0.62116
 H297 H 0.02900 0.37228 0.64258
 H298 H 0.13937 0.42481 0.57088
 C299 C 0.59600 0.66166 0.83900
 C300 C 0.68045 0.73761 0.84242
 C301 C 0.67362 0.76631 0.87752
 C302 C 0.58594 0.70501 0.89303
 O303 O 0.53882 0.64173 0.86967
 H304 H 0.73919 0.76833 0.82147
 H305 H 0.72626 0.82427 0.89080
 C306 C 0.13258 0.50332 0.84098
 C307 C 0.12268 0.44808 0.84563
 C308 C 0.17957 0.47390 0.87996
 C309 C 0.21888 0.54235 0.89437
 O310 O 0.19076 0.56071 0.87064
 H311 H 0.07980 0.39572 0.82588
 H312 H 0.19010 0.44559 0.89354
 C313 C 0.54978 0.94742 0.85166
 C314 C 0.63807 0.99818 0.86015
 C315 C 0.63719 0.96465 0.89527
 C316 C 0.54841 0.89594 0.90553
 O317 O 0.49506 0.88526 0.87915
 H318 H 0.69605 1.05258 0.84238
 H319 H 0.69433 0.98718 0.91122
 C320 C 0.46074 0.38982 0.85718
 C321 C 0.37515 0.32784 0.87527
 C322 C 0.38042 0.30039 0.91158
 C323 C 0.46905 0.34795 0.91335
 O324 O 0.51848 0.40266 0.88025
 H325 H 0.31583 0.30504 0.86310
 H326 H 0.32596 0.25125 0.93415
 C327 C 0.89431 0.49432 0.84962
 C328 C 0.92574 0.55936 0.86401
 C329 C 0.87045 0.53549 0.90045
 C330 C 0.80969 0.45776 0.90561
 O331 O 0.82387 0.43255 0.87477
 H332 H 0.98248 0.61727 0.84978
 H333 H 0.87451 0.57058 0.92114
 C334 C 0.44390 0.07171 0.83094
 C335 C 0.37334 0.05442 0.82530
 C336 C 0.37891 0.09049 0.86092
 C337 C 0.45163 0.12603 0.88620
 O338 O 0.49166 0.11499 0.86804
 H339 H 0.32266 0.01819 0.79888
 H340 H 0.33385 0.08915 0.86846
   
