data_POSCAR
  _audit_creation_date              2014-09-24
  _audit_creation_method            'ToBaCCo'
  _symmetry_space_group_name_H-M    'P1'
  _symmetry_Int_Tables_number       1
  _symmetry_cell_setting            triclinic
  loop_
  _symmetry_equiv_pos_as_xyz
 x,y,z
_cell_length_a 46.7325
_cell_length_b 46.6442
_cell_length_c 50.7523
_cell_angle_alpha 89.964500
_cell_angle_beta 90.023900
_cell_angle_gamma 121.000800
loop_
  _atom_site_label
  _atom_site_type_symbol
  _atom_site_fract_x
  _atom_site_fract_y
  _atom_site_fract_z
C1 C 0.03074 0.50328 1.30798
 C2 C 0.00029 0.49030 1.32149
 C3 C -0.03018 0.47918 1.30842
 C4 C -0.02991 0.48239 1.28052
 C5 C 0.00012 0.49329 1.26628
 C6 C 0.03033 0.50310 1.27995
 C7 C 0.05887 0.51064 1.26515
 C8 C 0.05882 0.51222 1.23783
 C9 C 0.02999 0.50551 1.22403
 C10 C 0.00003 0.49478 1.23822
 C11 C -0.05812 0.47755 1.26660
 C12 C -0.05808 0.47941 1.23928
 C13 C -0.02990 0.48600 1.22447
 C14 C -0.03003 0.48671 1.19638
 C15 C 0.00048 0.49914 1.18303
 C16 C 0.03022 0.50860 1.19633
 H17 H 0.08154 0.51493 1.27450
 H18 H 0.08163 0.51846 1.22761
 H19 H -0.08035 0.47326 1.27671
 H20 H -0.08024 0.47648 1.22997
 H21 H 0.00034 0.48911 1.34281
 H22 H 0.00114 0.50023 1.16167
 C23 C 0.50182 0.53156 1.30522
 C24 C 0.51897 0.51889 1.31875
 C25 C 0.53344 0.50287 1.30566
 C26 C 0.53220 0.50145 1.27758
 C27 C 0.51484 0.51433 1.26359
 C28 C 0.49966 0.52944 1.27745
 C29 C 0.48375 0.54316 1.26316
 C30 C 0.48217 0.54155 1.23582
 C31 C 0.49653 0.52626 1.22161
 C32 C 0.51340 0.51291 1.23556
 C33 C 0.55001 0.49002 1.26295
 C34 C 0.54831 0.48832 1.23560
 C35 C 0.52955 0.49892 1.22152
 C36 C 0.52781 0.49736 1.19367
 C37 C 0.51110 0.51065 1.18025
 C38 C 0.49551 0.52502 1.19374
 H39 H 0.47281 0.55583 1.27295
 H40 H 0.47001 0.55298 1.22594
 H41 H 0.56635 0.48313 1.27236
 H42 H 0.56264 0.47937 1.22558
 H43 H 0.51907 0.51971 1.34011
 H44 H 0.50987 0.50943 1.15890
 C45 C 0.46451 0.96844 1.30504
 C46 C 0.47653 0.99911 1.31807
 C47 C 0.49210 1.02988 1.30472
 C48 C 0.49363 1.02979 1.27671
 C49 C 0.48133 0.99911 1.26294
 C50 C 0.46627 0.96836 1.27704
 C51 C 0.45068 0.93830 1.26258
 C52 C 0.45212 0.93828 1.23526
 C53 C 0.46848 0.96832 1.22100
 C54 C 0.48269 0.99908 1.23483
 C55 C 0.50398 1.05907 1.26196
 C56 C 0.50568 1.05905 1.23465
 C57 C 0.49690 1.02969 1.22059
 C58 C 0.49874 1.02955 1.19253
 C59 C 0.48409 0.99858 1.17948
 C60 C 0.46926 0.96830 1.19316
 H61 H 0.43601 0.91427 1.27208
 H62 H 0.43935 0.91429 1.22541
 H63 H 0.50972 1.08228 1.27127
 H64 H 0.51264 1.08224 1.22470
 H65 H 0.47672 0.99926 1.33945
 H66 H 0.48557 0.99781 1.15819
 C67 C 1.03032 0.49334 0.80398
 C68 C 0.99972 0.48107 0.81718
 C69 C 0.96978 0.46995 0.80364
 C70 C 0.96985 0.47115 0.77582
 C71 C 1.00006 0.48212 0.76188
 C72 C 1.03016 0.49238 0.77590
 C73 C 1.05852 0.49869 0.76145
 C74 C 1.05849 0.49886 0.73406
 C75 C 1.03013 0.49277 0.71971
 C76 C 1.00005 0.48232 0.73380
 C77 C 0.94055 0.46198 0.76162
 C78 C 0.94054 0.46219 0.73423
 C79 C 0.96982 0.47155 0.71993
 C80 C 0.96970 0.47069 0.69210
 C81 C 0.99964 0.48205 0.67848
 C82 C 1.03026 0.49417 0.69163
 H83 H 1.08087 0.50263 0.77115
 H84 H 1.08082 0.50288 0.72428
 H85 H 0.91728 0.45464 0.77153
 H86 H 0.91725 0.45502 0.72440
 H87 H 0.99911 0.48143 0.83854
 H88 H 0.99900 0.48268 0.65713
 C89 C 0.52938 0.49901 0.69444
 C90 C 0.51633 0.51601 0.68111
 C91 C 0.50205 0.53167 0.69468
 C92 C 0.50151 0.53118 0.72257
 C93 C 0.51480 0.51418 0.73641
 C94 C 0.52876 0.49801 0.72232
 C95 C 0.54223 0.48178 0.73648
 C96 C 0.54158 0.48098 0.76389
 C97 C 0.52804 0.49694 0.77828
 C98 C 0.51431 0.51353 0.76442
 C99 C 0.48880 0.54792 0.73698
 C100 C 0.48808 0.54706 0.76438
 C101 C 0.50018 0.52954 0.77851
 C102 C 0.49919 0.52819 0.80638
 C103 C 0.51295 0.51187 0.81973
 C104 C 0.52751 0.49649 0.80616
 H105 H 0.55360 0.46961 0.72654
 H106 H 0.55182 0.46760 0.77365
 H107 H 0.47956 0.56219 0.72723
 H108 H 0.47828 0.56066 0.77438
 H109 H 0.51649 0.51629 0.65973
 H110 H 0.51229 0.51108 0.84110
 C111 C 0.47802 -0.03109 0.80752
 C112 C 0.49378 -0.00016 0.82068
 C113 C 0.50639 0.03011 0.80721
 C114 C 0.50380 0.03013 0.77949
 C115 C 0.48932 -0.00055 0.76553
 C116 C 0.47661 -0.03125 0.77944
 C117 C 0.46483 -0.06086 0.76473
 C118 C 0.46280 -0.06084 0.73741
 C119 C 0.47409 -0.03095 0.72338
 C120 C 0.48787 -0.00045 0.73752
 C121 C 0.51493 0.06002 0.76541
 C122 C 0.51315 0.06003 0.73807
 C123 C 0.50032 0.03018 0.72368
 C124 C 0.49903 0.03006 0.69581
 C125 C 0.48427 -0.00037 0.68227
 C126 C 0.47202 -0.03071 0.69558
 H127 H 0.45757 -0.08448 0.77404
 H128 H 0.45251 -0.08461 0.72740
 H129 H 0.52496 0.08378 0.77540
 H130 H 0.52173 0.08375 0.72835
 H131 H 0.49507 0.00054 0.84203
 H132 H 0.48328 -0.00036 0.66091
 O133 O 0.38254 0.66778 0.96981
 O134 O 0.38083 0.72219 0.97793
 C135 C 0.35954 0.72515 0.96444
 O136 O 0.32842 0.70761 0.96873
 O137 O 0.27339 0.65056 0.97705
 C138 C 0.27014 0.62573 0.96406
 O139 O 0.28703 0.61212 0.96908
 O140 O 0.34337 0.61487 0.97818
 C141 C 0.36850 0.63671 0.96518
 O142 O 0.38385 0.65871 1.02218
 O143 O 0.37921 0.71148 1.03029
 C144 C 0.36257 0.72554 1.03456
 O145 O 0.33701 0.71915 1.02103
 O146 O 0.28367 0.66083 1.02940
 C147 C 0.26928 0.62979 1.03429
 O148 O 0.27518 0.61006 1.02132
 O149 O 0.33282 0.61561 1.03038
 C150 C 0.36383 0.63268 1.03524
 Cr151 Cr 0.37979 0.68903 1.00004
 Cr152 Cr 0.30659 0.68371 0.99907
 Cr153 Cr 0.31043 0.61499 0.99973
 O154 O 0.33227 0.66257 0.99960
 O155 O 0.62000 0.34565 0.97805
 O156 O 0.61873 0.28963 0.97036
 C157 C 0.63297 0.27315 0.96610
 O158 O 0.65780 0.27724 0.97955
 O159 O 0.71422 0.33262 0.97079
 C160 C 0.73098 0.36360 0.96554
 O161 O 0.72746 0.38513 0.97819
 O162 O 0.67247 0.38517 0.96914
 C163 C 0.64140 0.37056 0.96460
 O164 O 0.62093 0.33677 1.03048
 O165 O 0.61650 0.27923 1.02277
 C166 C 0.63628 0.27392 1.03623
 O167 O 0.66740 0.28899 1.03181
 O168 O 0.72514 0.34301 1.02310
 C169 C 0.73091 0.36900 1.03575
 O170 O 0.71657 0.38511 1.03041
 O171 O 0.66318 0.38803 1.02133
 C172 C 0.63751 0.36801 1.03473
 Cr173 Cr 0.62085 0.31369 1.00041
 Cr174 Cr 0.69031 0.31143 1.00128
 Cr175 Cr 0.69395 0.38403 0.99979
 O176 O 0.66839 0.33639 1.00050
 O177 O 0.65998 0.38543 0.52165
 O178 O 0.71234 0.38033 0.53004
 C179 C 0.72612 0.36347 0.53453
 O180 O 0.71943 0.33760 0.52128
 O181 O 0.66086 0.28445 0.52958
 C182 C 0.62985 0.27030 0.53426
 O183 O 0.61048 0.27652 0.52110
 O184 O 0.61652 0.33455 0.52982
 C185 C 0.63385 0.36561 0.53465
 O186 O 0.66908 0.38378 0.46932
 O187 O 0.72299 0.38152 0.47772
 C188 C 0.72581 0.35999 0.46442
 O189 O 0.70824 0.32885 0.46893
 O190 O 0.65095 0.27406 0.47722
 C191 C 0.62631 0.27093 0.46407
 O192 O 0.61295 0.28812 0.46882
 O193 O 0.61615 0.34485 0.47755
 C194 C 0.63812 0.36991 0.46455
 Cr195 Cr 0.69007 0.38094 0.49968
 Cr196 Cr 0.68406 0.30723 0.49926
 Cr197 Cr 0.61585 0.31183 0.49932
 O198 O 0.66333 0.33334 0.49942
 O199 O 0.34824 0.61898 0.52171
 O200 O 0.29133 0.61532 0.53029
 C201 C 0.27401 0.62854 0.53501
 O202 O 0.27724 0.65336 0.52201
 O203 O 0.33178 0.71072 0.53062
 C204 C 0.36282 0.72851 0.53517
 O205 O 0.38448 0.72600 0.52183
 O206 O 0.38694 0.67205 0.53010
 C207 C 0.37317 0.64100 0.53478
 O208 O 0.33823 0.61965 0.46940
 O209 O 0.28012 0.61328 0.47796
 C210 C 0.27382 0.63273 0.46495
 O211 O 0.28790 0.66376 0.46975
 O212 O 0.34075 0.72242 0.47835
 C213 C 0.36652 0.72919 0.46500
 O214 O 0.38352 0.71555 0.46946
 O215 O 0.38889 0.66325 0.47778
 C216 C 0.36925 0.63714 0.46467
 Cr217 Cr 0.31530 0.61864 0.49985
 Cr218 Cr 0.31043 0.68678 0.50018
 Cr219 Cr 0.38413 0.69318 0.49980
 O220 O 0.33662 0.66618 0.49995
 C221 C 0.45452 0.57053 0.35366
 C222 C 0.48938 0.58636 0.35308
 C223 C 0.50480 0.57399 0.33693
 C224 C 0.48548 0.54577 0.32110
 C225 C 0.45052 0.52999 0.32171
 C226 C 0.43511 0.54239 0.33787
 C227 C 0.43875 0.58249 0.37118
 C228 C 0.42597 0.59247 0.38634
 C229 C 0.41130 0.60441 0.40499
 C230 C 0.43159 0.63427 0.41859
 C231 C 0.41782 0.64518 0.43770
 C232 C 0.38347 0.62630 0.44351
 C233 C 0.36317 0.59655 0.42940
 C234 C 0.37704 0.58569 0.41029
 H235 H 0.50461 0.60802 0.36534
 H236 H 0.53177 0.58623 0.33689
 H237 H 0.43525 0.50788 0.30992
 H238 H 0.40812 0.52981 0.33831
 H239 H 0.45816 0.64892 0.41468
 H240 H 0.43418 0.66821 0.44812
 H241 H 0.33666 0.58143 0.43335
 H242 H 0.36112 0.56248 0.39990
 C243 C 0.43129 0.88335 0.35408
 C244 C 0.45216 0.88828 0.33265
 C245 C 0.46288 0.91609 0.31621
 C246 C 0.45256 0.93928 0.32077
 C247 C 0.43191 0.93413 0.34273
 C248 C 0.42123 0.90633 0.35906
 C249 C 0.42055 0.85519 0.37143
 C250 C 0.41113 0.83209 0.38655
 C251 C 0.39937 0.80514 0.40527
 C252 C 0.41796 0.78996 0.41050
 C253 C 0.40709 0.76486 0.42965
 C254 C 0.37749 0.75471 0.44387
 C255 C 0.35879 0.76985 0.43815
 C256 C 0.36968 0.79486 0.41901
 H257 H 0.46051 0.87090 0.32885
 H258 H 0.48013 0.92000 0.30043
 H259 H 0.42337 0.95126 0.34698
 H260 H 0.40516 0.90283 0.37566
 H261 H 0.44103 0.79779 0.40001
 H262 H 0.42208 0.75375 0.43354
 H263 H 0.33587 0.76264 0.44864
 H264 H 0.35513 0.80649 0.41515
 C265 C 0.11803 0.54704 0.35524
 C266 C 0.09060 0.51588 0.36196
 C267 C 0.06206 0.50117 0.34615
 C268 C 0.06054 0.51721 0.32305
 C269 C 0.08845 0.54872 0.31658
 C270 C 0.11696 0.56339 0.33249
 C271 C 0.14670 0.56263 0.37229
 C272 C 0.17017 0.57537 0.38715
 C273 C 0.19749 0.59015 0.40553
 C274 C 0.20654 0.56992 0.41914
 C275 C 0.23177 0.58385 0.43815
 C276 C 0.24827 0.61829 0.44385
 C277 C 0.23937 0.63852 0.42970
 C278 C 0.21411 0.62450 0.41070
 H279 H 0.09114 0.50303 0.37958
 H280 H 0.04138 0.47684 0.35179
 H281 H 0.08779 0.56268 0.29977
 H282 H 0.13790 0.58778 0.32732
 H283 H 0.19377 0.54328 0.41534
 H284 H 0.23800 0.56755 0.44861
 H285 H 0.25156 0.66510 0.43357
 H286 H 0.20722 0.64037 0.40032
 C287 C 0.57195 0.45659 0.35428
 C288 C 0.55230 0.43955 0.33241
 C289 C 0.53989 0.45487 0.31611
 C290 C 0.54726 0.48773 0.32127
 C291 C 0.56676 0.50434 0.34364
 C292 C 0.57915 0.48898 0.35984
 C293 C 0.58389 0.44057 0.37161
 C294 C 0.59370 0.42745 0.38662
 C295 C 0.60508 0.41209 0.40513
 C296 C 0.58189 0.38319 0.41864
 C297 C 0.59267 0.36916 0.43767
 C298 C 0.62688 0.38392 0.44349
 C299 C 0.65006 0.41269 0.42946
 C300 C 0.63918 0.42668 0.41044
 H301 H 0.54610 0.41422 0.32819
 H302 H 0.52355 0.44052 0.30001
 H303 H 0.57308 0.52960 0.34835
 H304 H 0.59420 0.50234 0.37682
 H305 H 0.55543 0.37174 0.41473
 H306 H 0.57415 0.34700 0.44803
 H307 H 0.67655 0.42468 0.43342
 H308 H 0.65734 0.44912 0.40013
 C309 C 0.53844 0.11655 0.35292
 C310 C 0.55516 0.11447 0.33083
 C311 C 0.53976 0.08621 0.31461
 C312 C 0.50713 0.05957 0.32008
 C313 C 0.49076 0.06203 0.34258
 C314 C 0.50620 0.09032 0.35869
 C315 C 0.55468 0.14490 0.37032
 C316 C 0.56800 0.16810 0.38544
 C317 C 0.58361 0.19512 0.40412
 C318 C 0.61207 0.20087 0.41783
 C319 C 0.62627 0.22588 0.43702
 C320 C 0.61214 0.24550 0.44283
 C321 C 0.58383 0.23987 0.42860
 C322 C 0.56965 0.21481 0.40941
 H323 H 0.58036 0.13441 0.32641
 H324 H 0.55393 0.08467 0.29836
 H325 H 0.46567 0.04228 0.34750
 H326 H 0.49307 0.09160 0.37582
 H327 H 0.62302 0.18572 0.41394
 H328 H 0.64808 0.22954 0.44753
 H329 H 0.57232 0.25450 0.43253
 H330 H 0.54756 0.21050 0.39895
 C331 C 0.88243 0.43503 0.35562
 C332 C 0.91097 0.46457 0.36370
 C333 C 0.93962 0.47925 0.34804
 C334 C 0.94019 0.46485 0.32374
 C335 C 0.91125 0.43483 0.31597
 C336 C 0.88260 0.42016 0.33175
 C337 C 0.85331 0.42006 0.37221
 C338 C 0.82961 0.40845 0.38682
 C339 C 0.80219 0.39577 0.40508
 C340 C 0.79585 0.41813 0.41845
 C341 C 0.77063 0.40641 0.43741
 C342 C 0.75137 0.37205 0.44333
 C343 C 0.75752 0.34965 0.42941
 C344 C 0.78284 0.36149 0.41044
 H345 H 0.91111 0.47630 0.38216
 H346 H 0.96106 0.50246 0.35470
 H347 H 0.91108 0.42209 0.29808
 H348 H 0.86073 0.39704 0.32547
 H349 H 0.81074 0.44473 0.41451
 H350 H 0.76655 0.42435 0.44766
 H351 H 0.74316 0.32307 0.43346
 H352 H 0.78763 0.34398 0.40025
 C353 C 0.56843 0.45161 1.14522
 C354 C 0.58010 0.48580 1.14273
 C355 C 0.56727 0.50080 1.15886
 C356 C 0.54275 0.48177 1.17773
 C357 C 0.53119 0.44750 1.18023
 C358 C 0.54405 0.43250 1.16408
 C359 C 0.58074 0.43608 1.12778
 C360 C 0.59104 0.42355 1.11266
 C361 C 0.60338 0.40924 1.09403
 C362 C 0.63272 0.43004 1.08001
 C363 C 0.64405 0.41657 1.06099
 C364 C 0.62612 0.38201 1.05566
 C365 C 0.59688 0.36121 1.07015
 C366 C 0.58559 0.37479 1.08918
 H367 H 0.59884 0.50077 1.12812
 H368 H 0.57626 0.52720 1.15652
 H369 H 0.51193 0.43236 1.19443
 H370 H 0.53470 0.40599 1.16605
 H371 H 0.64664 0.45676 1.08358
 H372 H 0.66667 0.43331 1.05027
 H373 H 0.58249 0.33453 1.06657
 H374 H 0.56280 0.35847 1.09988
 C375 C 0.88363 0.44662 1.14823
 C376 C 0.91195 0.47730 1.14188
 C377 C 0.94014 0.49084 1.15803
 C378 C 0.94046 0.47409 1.18111
 C379 C 0.91161 0.44313 1.18725
 C380 C 0.88345 0.42962 1.17099
 C381 C 0.85542 0.43210 1.13069
 C382 C 0.83242 0.42023 1.11538
 C383 C 0.80569 0.40643 1.09646
 C384 C 0.78880 0.42318 1.09056
 C385 C 0.76411 0.41077 1.07109
 C386 C 0.75605 0.38143 1.05718
 C387 C 0.77285 0.36450 1.06357
 C388 C 0.79751 0.37697 1.08306
 H389 H 0.91239 0.49064 1.12425
 H390 H 0.96156 0.51480 1.15263
 H391 H 0.91128 0.42858 1.20402
 H392 H 0.86180 0.40557 1.17587
 H393 H 0.79503 0.44608 1.10077
 H394 H 0.75167 0.42440 1.06671
 H395 H 0.76725 0.34184 1.05332
 H396 H 0.81052 0.36387 1.08741
 C397 C 0.54910 0.11653 1.14484
 C398 C 0.51795 0.08980 1.13723
 C399 C 0.50132 0.06129 1.15302
 C400 C 0.51534 0.05909 1.17703
 C401 C 0.54707 0.08609 1.18424
 C402 C 0.56368 0.11461 1.16833
 C403 C 0.56602 0.14559 1.12817
 C404 C 0.57933 0.16936 1.11358
 C405 C 0.59418 0.19700 1.09540
 C406 C 0.57389 0.20596 1.08183
 C407 C 0.58769 0.23142 1.06297
 C408 C 0.62210 0.24830 1.05735
 C409 C 0.64244 0.23955 1.07149
 C410 C 0.62853 0.21401 1.09035
 H411 H 0.50645 0.09099 1.11904
 H412 H 0.47697 0.04131 1.14673
 H413 H 0.55954 0.08479 1.20179
 H414 H 0.58803 0.13498 1.17422
 H415 H 0.54726 0.19291 1.08553
 H416 H 0.57129 0.23751 1.05253
 H417 H 0.66900 0.25201 1.06767
 H418 H 0.64446 0.20721 1.10070
 C419 C 0.44732 0.56338 1.14565
 C420 C 0.42828 0.53643 1.16264
 C421 C 0.44395 0.52411 1.17863
 C422 C 0.47879 0.53879 1.17781
 C423 C 0.49771 0.56578 1.16076
 C424 C 0.48205 0.57807 1.14481
 C425 C 0.43136 0.57546 1.12842
 C426 C 0.41870 0.58580 1.11344
 C427 C 0.40445 0.59835 1.09492
 C428 C 0.37021 0.58014 1.08949
 C429 C 0.35680 0.59157 1.07041
 C430 C 0.37756 0.62137 1.05646
 C431 C 0.41187 0.63975 1.06245
 C432 C 0.42518 0.62828 1.08152
 H433 H 0.40138 0.52476 1.16332
 H434 H 0.42899 0.50298 1.19145
 H435 H 0.52457 0.57719 1.15975
 H436 H 0.49698 0.59881 1.13163
 H437 H 0.35396 0.55689 1.09972
 H438 H 0.33030 0.57682 1.06632
 H439 H 0.42856 0.66279 1.05215
 H440 H 0.45174 0.64253 1.08554
 C441 C 0.11724 0.54870 1.14739
 C442 C 0.09138 0.51546 1.14426
 C443 C 0.06338 0.50214 1.16065
 C444 C 0.06106 0.52192 1.18039
 C445 C 0.08723 0.55516 1.18363
 C446 C 0.11523 0.56846 1.16722
 C447 C 0.14501 0.56291 1.12943
 C448 C 0.16776 0.57475 1.11389
 C449 C 0.19430 0.58879 1.09481
 C450 C 0.20225 0.56797 1.08082
 C451 C 0.22693 0.58134 1.06136
 C452 C 0.24396 0.61578 1.05557
 C453 C 0.23607 0.63657 1.07002
 C454 C 0.21138 0.62312 1.08948
 H455 H 0.09260 0.50002 1.12889
 H456 H 0.04330 0.47654 1.15776
 H457 H 0.08561 0.57090 1.19851
 H458 H 0.13500 0.59429 1.16967
 H459 H 0.18910 0.54134 1.08475
 H460 H 0.23239 0.56463 1.05067
 H461 H 0.24870 0.66317 1.06612
 H462 H 0.20535 0.63944 1.10014
 C463 C 0.43064 0.88038 1.14511
 C464 C 0.41662 0.90061 1.14377
 C465 C 0.42888 0.92891 1.15976
 C466 C 0.45517 0.93717 1.17739
 C467 C 0.46912 0.91677 1.17875
 C468 C 0.45683 0.88843 1.16271
 C469 C 0.41874 0.85208 1.12775
 C470 C 0.40863 0.82888 1.11268
 C471 C 0.39636 0.80180 1.09405
 C472 C 0.36699 0.79221 1.08004
 C473 C 0.35574 0.76707 1.06099
 C474 C 0.37378 0.75114 1.05562
 C475 C 0.40303 0.76060 1.07013
 C476 C 0.41425 0.78580 1.08919
 H477 H 0.39647 0.89472 1.13013
 H478 H 0.41804 0.94454 1.15830
 H479 H 0.48973 0.92307 1.19197
 H480 H 0.46800 0.87308 1.16379
 H481 H 0.35298 0.80447 1.08361
 H482 H 0.33311 0.76041 1.05026
 H483 H 0.41751 0.74887 1.06652
 H484 H 0.43707 0.79308 1.09988
 C485 C 0.56693 0.45070 0.64564
 C486 C 0.53911 0.43152 0.66176
 C487 C 0.52710 0.44724 0.67801
 C488 C 0.54298 0.48228 0.67836
 C489 C 0.57085 0.50136 0.66217
 C490 C 0.58282 0.48564 0.64595
 C491 C 0.57863 0.43467 0.62812
 C492 C 0.58856 0.42183 0.61296
 C493 C 0.60059 0.40725 0.59430
 C494 C 0.58197 0.37296 0.58885
 C495 C 0.59301 0.35922 0.56975
 C496 C 0.62281 0.37968 0.55580
 C497 C 0.64158 0.41405 0.56176
 C498 C 0.63051 0.42769 0.58085
 H499 H 0.52649 0.40447 0.66154
 H500 H 0.50527 0.43215 0.69010
 H501 H 0.58316 0.52839 0.66203
 H502 H 0.60424 0.50070 0.63345
 H503 H 0.55873 0.35692 0.59912
 H504 H 0.57796 0.33268 0.56567
 H505 H 0.66465 0.43053 0.55147
 H506 H 0.64508 0.45428 0.58489
 C507 C 0.54397 0.11747 0.64687
 C508 C 0.50943 0.09511 0.64593
 C509 C 0.49464 0.06702 0.66233
 C510 C 0.51426 0.06115 0.67993
 C511 C 0.54887 0.08377 0.68091
 C512 C 0.56363 0.11186 0.66450
 C513 C 0.55936 0.14532 0.62894
 C514 C 0.57209 0.16817 0.61347
 C515 C 0.58695 0.19487 0.59449
 C516 C 0.56690 0.20383 0.58055
 C517 C 0.58093 0.22867 0.56120
 C518 C 0.61529 0.24488 0.55549
 C519 C 0.63533 0.23599 0.56989
 C520 C 0.62121 0.21111 0.58924
 H521 H 0.49403 0.09912 0.63224
 H522 H 0.46797 0.04964 0.66112
 H523 H 0.56445 0.07930 0.69404
 H524 H 0.59041 0.12886 0.66524
 H525 H 0.54034 0.19136 0.58442
 H526 H 0.56477 0.23490 0.55056
 H527 H 0.66184 0.24796 0.56603
 H528 H 0.63693 0.20429 0.59988
 C529 C 0.88191 0.43388 0.64426
 C530 C 0.90724 0.46759 0.64289
 C531 C 0.93558 0.47970 0.65880
 C532 C 0.93879 0.45821 0.67633
 C533 C 0.91328 0.42444 0.67770
 C534 C 0.88493 0.41236 0.66177
 C535 C 0.85352 0.42116 0.62695
 C536 C 0.83018 0.41056 0.61199
 C537 C 0.80288 0.39795 0.59359
 C538 C 0.78697 0.41590 0.58858
 C539 C 0.76157 0.40443 0.56970
 C540 C 0.75181 0.37485 0.55552
 C541 C 0.76763 0.35672 0.56104
 C542 C 0.79298 0.36824 0.57992
 H543 H 0.90526 0.48441 0.62930
 H544 H 0.95514 0.50575 0.65735
 H545 H 0.91558 0.40744 0.69086
 H546 H 0.86560 0.38618 0.66286
 H547 H 0.79448 0.43899 0.59901
 H548 H 0.74994 0.41900 0.56597
 H549 H 0.76075 0.33384 0.55056
 H550 H 0.80516 0.35417 0.58361
 C551 C 0.45798 0.57401 0.64614
 C552 C 0.49245 0.58686 0.64516
 C553 C 0.50691 0.57351 0.66137
 C554 C 0.48704 0.54729 0.67882
 C555 C 0.45251 0.53458 0.67981
 C556 C 0.43807 0.54796 0.66359
 C557 C 0.44289 0.58655 0.62843
 C558 C 0.43025 0.59658 0.61315
 C559 C 0.41516 0.60798 0.59439
 C560 C 0.42968 0.64215 0.58909
 C561 C 0.41577 0.65301 0.56998
 C562 C 0.38717 0.62976 0.55586
 C563 C 0.37252 0.59549 0.56164
 C564 C 0.38646 0.58472 0.58075
 H565 H 0.50804 0.60686 0.63160
 H566 H 0.53353 0.58336 0.66017
 H567 H 0.43675 0.51399 0.69285
 H568 H 0.41135 0.53765 0.66435
 H569 H 0.45195 0.66036 0.59951
 H570 H 0.42768 0.67956 0.56606
 H571 H 0.35048 0.57691 0.55121
 H572 H 0.37505 0.55820 0.58467
 C573 C 0.43189 0.88206 0.64679
 C574 C 0.41509 0.89959 0.64921
 C575 C 0.42796 0.92774 0.66545
 C576 C 0.45764 0.93847 0.67953
 C577 C 0.47440 0.92082 0.67709
 C578 C 0.46150 0.89265 0.66083
 C579 C 0.41939 0.85404 0.62913
 C580 C 0.40914 0.83103 0.61387
 C581 C 0.39728 0.80417 0.59511
 C582 C 0.36308 0.78396 0.58999
 C583 C 0.35174 0.75895 0.57079
 C584 C 0.37454 0.75392 0.55639
 C585 C 0.40885 0.77407 0.56201
 C586 C 0.42009 0.79902 0.58122
 H587 H 0.39229 0.89173 0.63830
 H588 H 0.41495 0.94132 0.66694
 H589 H 0.49758 0.92910 0.68755
 H590 H 0.47482 0.87941 0.65894
 H591 H 0.34522 0.78781 0.60060
 H592 H 0.32519 0.74389 0.56698
 H593 H 0.42709 0.77086 0.55137
 H594 H 0.44663 0.81458 0.58500
 C595 C 0.11731 0.53913 0.64395
 C596 C 0.11688 0.55420 0.66764
 C597 C 0.08842 0.53918 0.68361
 C598 C 0.05989 0.50855 0.67629
 C599 C 0.06074 0.49386 0.65220
 C600 C 0.08923 0.50892 0.63632
 C601 C 0.14601 0.55521 0.62691
 C602 C 0.16954 0.56860 0.61213
 C603 C 0.19697 0.58454 0.59387
 C604 C 0.20327 0.61352 0.58060
 C605 C 0.22871 0.62815 0.56181
 C606 C 0.24823 0.61395 0.55596
 C607 C 0.24208 0.58511 0.56976
 C608 C 0.21657 0.57050 0.58856
 H609 H 0.13830 0.57790 0.67354
 H610 H 0.08834 0.55226 0.70121
 H611 H 0.03957 0.47027 0.64582
 H612 H 0.08924 0.49709 0.61796
 H613 H 0.18821 0.62457 0.58452
 H614 H 0.23276 0.65035 0.55162
 H615 H 0.25661 0.57352 0.56577
 H616 H 0.21186 0.54801 0.59868
 C617 C 0.45374 0.56900 0.85497
 C618 C 0.48811 0.58157 0.85667
 C619 C 0.50299 0.56863 0.84052
 C620 C 0.48365 0.54311 0.82241
 C621 C 0.44920 0.53063 0.82073
 C622 C 0.43433 0.54360 0.83690
 C623 C 0.43829 0.58134 0.87247
 C624 C 0.42549 0.59138 0.88757
 C625 C 0.41037 0.60297 0.90610
 C626 C 0.42507 0.63718 0.91128
 C627 C 0.41120 0.64827 0.93021
 C628 C 0.38244 0.62521 0.94427
 C629 C 0.36760 0.59090 0.93861
 C630 C 0.38151 0.57990 0.91968
 H631 H 0.50332 0.60108 0.87069
 H632 H 0.52954 0.57832 0.84222
 H633 H 0.43384 0.51060 0.80713
 H634 H 0.40768 0.53353 0.83556
 H635 H 0.44746 0.65526 0.90092
 H636 H 0.42325 0.67485 0.93405
 H637 H 0.34545 0.57246 0.94901
 H638 H 0.36997 0.55335 0.91586
 C639 C 0.11687 0.53813 0.85217
 C640 C 0.11661 0.55342 0.82853
 C641 C 0.08839 0.53836 0.81229
 C642 C 0.05992 0.50753 0.81934
 C643 C 0.06068 0.49253 0.84330
 C644 C 0.08893 0.50761 0.85943
 C645 C 0.14515 0.55428 0.86962
 C646 C 0.16822 0.56757 0.88483
 C647 C 0.19503 0.58316 0.90365
 C648 C 0.20076 0.61173 0.91724
 C649 C 0.22554 0.62589 0.93660
 C650 C 0.24493 0.61160 0.94268
 C651 C 0.23932 0.58316 0.92857
 C652 C 0.21450 0.56904 0.90922
 H653 H 0.13794 0.57733 0.82291
 H654 H 0.08836 0.55164 0.79478
 H655 H 0.03958 0.46874 0.84944
 H656 H 0.08883 0.49558 0.87773
 H657 H 0.18577 0.62281 0.91314
 H658 H 0.22919 0.64779 0.94701
 H659 H 0.25378 0.57153 0.93271
 H660 H 0.21020 0.54685 0.89886
 C661 C 0.43439 0.88225 0.85567
 C662 C 0.41646 0.88426 0.83440
 C663 C 0.43083 0.91269 0.81831
 C664 C 0.46361 0.93945 0.82306
 C665 C 0.48103 0.93723 0.84493
 C666 C 0.46664 0.90880 0.86091
 C667 C 0.41976 0.85334 0.87254
 C668 C 0.40834 0.82968 0.88725
 C669 C 0.39570 0.80219 0.90548
 C670 C 0.36141 0.78237 0.91036
 C671 C 0.34949 0.75684 0.92919
 C672 C 0.37180 0.75091 0.94345
 C673 C 0.40618 0.77064 0.93802
 C674 C 0.41800 0.79609 0.91920
 H675 H 0.39125 0.86404 0.83042
 H676 H 0.41590 0.91414 0.80262
 H677 H 0.50624 0.95716 0.84932
 H678 H 0.48069 0.90756 0.87741
 H679 H 0.34394 0.78695 0.89988
 H680 H 0.32288 0.74213 0.93286
 H681 H 0.42406 0.76674 0.94856
 H682 H 0.44461 0.81133 0.91560
 C683 C 0.56877 0.45092 0.85415
 C684 C 0.53430 0.43808 0.85400
 C685 C 0.52085 0.45268 0.83805
 C686 C 0.54175 0.48013 0.82199
 C687 C 0.57632 0.49292 0.82217
 C688 C 0.58976 0.47830 0.83814
 C689 C 0.58253 0.43659 0.87143
 C690 C 0.59349 0.42452 0.88642
 C691 C 0.60585 0.41007 0.90494
 C692 C 0.58339 0.38108 0.91871
 C693 C 0.59501 0.36788 0.93776
 C694 C 0.62935 0.38357 0.94336
 C695 C 0.65182 0.41240 0.92905
 C696 C 0.64010 0.42557 0.90999
 H697 H 0.51786 0.41703 0.86642
 H698 H 0.49417 0.44271 0.83831
 H699 H 0.59282 0.51439 0.81015
 H700 H 0.61649 0.48856 0.83825
 H701 H 0.55681 0.36892 0.91498
 H702 H 0.57701 0.34565 0.94834
 H703 H 0.67840 0.42511 0.93285
 H704 H 0.65771 0.44808 0.89948
 C705 C 0.88294 0.43302 0.85251
 C706 C 0.90819 0.46677 0.85365
 C707 C 0.93612 0.47894 0.83729
 C708 C 0.93900 0.45749 0.81953
 C709 C 0.91349 0.42371 0.81829
 C710 C 0.88553 0.41155 0.83469
 C711 C 0.85515 0.42029 0.87042
 C712 C 0.83242 0.40997 0.88594
 C713 C 0.80592 0.39808 0.90503
 C714 C 0.80024 0.42084 0.91851
 C715 C 0.77559 0.40960 0.93795
 C716 C 0.75627 0.37535 0.94424
 C717 C 0.76189 0.35260 0.93030
 C718 C 0.78658 0.36393 0.91086
 H719 H 0.90652 0.48356 0.86745
 H720 H 0.95570 0.50499 0.83864
 H721 H 0.91555 0.40673 0.80496
 H722 H 0.86624 0.38534 0.83377
 H723 H 0.81513 0.44735 0.91420
 H724 H 0.77192 0.42780 0.94823
 H725 H 0.74748 0.32609 0.93460
 H726 H 0.79084 0.34610 0.90059
 C727 C 0.55102 0.11815 0.85535
 C728 C 0.57060 0.11308 0.83723
 C729 C 0.55601 0.08465 0.82118
 C730 C 0.52169 0.06117 0.82308
 C731 C 0.50217 0.06645 0.84119
 C732 C 0.51677 0.09486 0.85720
 C733 C 0.56616 0.14650 0.87278
 C734 C 0.57857 0.16972 0.88791
 C735 C 0.59309 0.19679 0.90655
 C736 C 0.62164 0.20354 0.92063
 C737 C 0.63489 0.22869 0.93973
 C738 C 0.61968 0.24744 0.94507
 C739 C 0.59125 0.24078 0.93050
 C740 C 0.57805 0.21558 0.91139
 H741 H 0.59717 0.13085 0.83577
 H742 H 0.57146 0.08070 0.80753
 H743 H 0.47572 0.04843 0.84302
 H744 H 0.50144 0.09845 0.87126
 H745 H 0.63343 0.18909 0.91707
 H746 H 0.65682 0.23317 0.95052
 H747 H 0.57895 0.25473 0.93407
 H748 H 0.55587 0.21048 0.90064
   
