data_POSCAR
  _audit_creation_date              2014-09-24
  _audit_creation_method            'ToBaCCo'
  _symmetry_space_group_name_H-M    'P1'
  _symmetry_Int_Tables_number       1
  _symmetry_cell_setting            triclinic
  loop_
  _symmetry_equiv_pos_as_xyz
 x,y,z
_cell_length_a 51.2308
_cell_length_b 37.1385
_cell_length_c 26.0338
_cell_angle_alpha 91.018200
_cell_angle_beta 90.192400
_cell_angle_gamma 90.076500
loop_
  _atom_site_label
  _atom_site_type_symbol
  _atom_site_fract_x
  _atom_site_fract_y
  _atom_site_fract_z
O1 O 0.25689 0.30237 0.33496
 O2 O 0.20989 0.23020 0.30030
 O3 O 0.25815 0.23253 0.33410
 O4 O 0.20819 0.29983 0.30496
 O5 O 0.22199 0.30203 0.22486
 O6 O 0.27162 0.23309 0.25382
 O7 O 0.22328 0.23202 0.21997
 O8 O 0.27058 0.30253 0.25469
 Cu9 Cu 0.23193 0.26607 0.32660
 Cu10 Cu 0.24815 0.26744 0.23027
 C11 C 0.27214 0.31423 0.30068
 C12 C 0.20825 0.21928 0.25381
 C13 C 0.27382 0.22165 0.29944
 C14 C 0.20636 0.31227 0.26002
 O15 O 0.78480 0.27275 0.24911
 O16 O 0.73701 0.20449 0.28926
 O17 O 0.78433 0.20299 0.25144
 O18 O 0.73897 0.27429 0.29224
 O19 O 0.72031 0.27257 0.21568
 O20 O 0.76778 0.20363 0.17316
 O21 O 0.72043 0.20321 0.21104
 O22 O 0.76622 0.27391 0.17255
 Cu23 Cu 0.76306 0.23858 0.27821
 Cu24 Cu 0.74204 0.23825 0.18525
 C25 C 0.78355 0.28511 0.20392
 C26 C 0.72019 0.19253 0.25710
 C27 C 0.78427 0.19159 0.20521
 C28 C 0.72149 0.28500 0.26147
 O29 O 0.77612 0.73435 0.74634
 O30 O 0.72633 0.80052 0.70898
 O31 O 0.77494 0.80340 0.73990
 O32 O 0.72787 0.73089 0.71274
 O33 O 0.71391 0.73414 0.79273
 O34 O 0.76116 0.80728 0.81990
 O35 O 0.71252 0.80376 0.78907
 O36 O 0.76200 0.73724 0.82632
 Cu37 Cu 0.75265 0.76695 0.71897
 Cu38 Cu 0.73606 0.77097 0.81506
 C39 C 0.77776 0.72485 0.79290
 C40 C 0.71064 0.81307 0.74251
 C41 C 0.77654 0.81741 0.78466
 C42 C 0.71256 0.72041 0.74771
 O43 O 0.29066 0.77130 0.77346
 O44 O 0.24123 0.70523 0.81360
 O45 O 0.28899 0.70167 0.77847
 O46 O 0.24385 0.77516 0.81248
 O47 O 0.22691 0.77225 0.73460
 O48 O 0.27318 0.70006 0.69956
 O49 O 0.22561 0.70287 0.73455
 O50 O 0.27412 0.76984 0.69513
 Cu51 Cu 0.26779 0.73852 0.80236
 Cu52 Cu 0.24841 0.73619 0.70805
 C53 C 0.29101 0.78155 0.72713
 C54 C 0.22478 0.69302 0.78095
 C55 C 0.28913 0.68865 0.73304
 C56 C 0.22715 0.78573 0.77989
 C57 C 1.00432 0.04901 0.10119
 C58 C 1.02809 0.04186 0.07644
 C59 C 1.02841 0.01810 0.03375
 C60 C 1.00556 0.00004 0.01707
 C61 C 0.98228 0.00648 0.04454
 C62 C 0.98123 0.03202 0.08484
 C63 C 1.00568 -0.02372 -0.03033
 C64 C 0.98259 -0.02955 -0.05911
 C65 C 0.98244 -0.05096 -0.10419
 C66 C 1.00633 -0.06422 -0.12272
 C67 C 1.02945 -0.06038 -0.09404
 C68 C 1.02881 -0.04058 -0.04750
 H69 H 1.00362 0.06919 0.13172
 H70 H 1.04656 0.01420 0.01341
 H71 H 0.96458 -0.00796 0.03475
 H72 H 0.96451 -0.01781 -0.04626
 H73 H 1.00689 -0.07802 -0.15962
 H74 H 1.04629 -0.03912 -0.02421
 C75 C 0.50696 0.54361 0.62385
 C76 C 0.53003 0.53652 0.59662
 C77 C 0.52939 0.51204 0.55479
 C78 C 0.50633 0.49322 0.54147
 C79 C 0.48387 0.49949 0.57149
 C80 C 0.48366 0.52578 0.61087
 C81 C 0.50528 0.46881 0.49485
 C82 C 0.48142 0.46234 0.46884
 C83 C 0.48017 0.44021 0.42456
 C84 C 0.50352 0.42672 0.40401
 C85 C 0.52737 0.43139 0.42982
 C86 C 0.52803 0.45207 0.47553
 H87 H 0.50690 0.56438 0.65359
 H88 H 0.54693 0.50818 0.53246
 H89 H 0.46615 0.48442 0.56425
 H90 H 0.46362 0.47416 0.48314
 H91 H 0.50314 0.41210 0.36769
 H92 H 0.54625 0.45428 0.49643
 C93 C -0.00371 0.45347 0.10278
 C94 C -0.02653 0.45717 0.07345
 C95 C -0.02615 0.47960 0.03052
 C96 C -0.00316 0.49800 0.01677
 C97 C 0.01972 0.49248 0.04595
 C98 C 0.01989 0.46922 0.08786
 C99 C -0.00269 0.52210 -0.02868
 C100 C 0.02045 0.52662 -0.05687
 C101 C 0.02199 0.55157 -0.09649
 C102 C -0.00061 0.57006 -0.11115
 C103 C -0.02426 0.56548 -0.08470
 C104 C -0.02494 0.54190 -0.04293
 H105 H -0.00423 0.43745 0.13709
 H106 H -0.04349 0.48162 0.00689
 H107 H 0.03765 0.50572 0.03549
 H108 H 0.03762 0.51096 -0.04804
 H109 H 0.00046 0.58869 -0.14255
 H110 H -0.04258 0.53996 -0.02043
 C111 C 0.49787 0.93781 0.56905
 C112 C 0.47400 0.94542 0.54499
 C113 C 0.47347 0.96996 0.50444
 C114 C 0.49622 0.98859 0.48973
 C115 C 0.51961 0.98156 0.51644
 C116 C 0.52086 0.95529 0.55441
 C117 C 0.49586 1.01508 0.44675
 C118 C 0.51892 1.02284 0.41965
 C119 C 0.51954 1.04937 0.38202
 C120 C 0.49623 1.06642 0.36811
 C121 C 0.47264 1.05803 0.39250
 C122 C 0.47277 1.03314 0.43264
 H123 H 0.49867 0.91730 0.59808
 H124 H 0.45519 0.97441 0.48478
 H125 H 0.53717 0.99653 0.50827
 H126 H 0.53672 1.00826 0.42730
 H127 H 0.49658 1.08719 0.33943
 H128 H 0.45473 1.02801 0.45257
 C129 C 1.17070 0.17846 0.27449
 C130 C 1.15036 0.15556 0.25875
 C131 C 1.14699 0.14644 0.20674
 C132 C 1.16475 0.15963 0.17060
 C133 C 1.18512 0.18238 0.18625
 C134 C 1.18811 0.19252 0.23827
 N135 N 1.12490 0.12505 0.19135
 N136 N 1.11984 0.11807 0.14430
 C137 C 1.09738 0.09768 0.12833
 C138 C 1.09253 0.09267 0.07576
 C139 C 1.07021 0.07427 0.05873
 C140 C 1.05232 0.06043 0.09421
 C141 C 1.05747 0.06507 0.14705
 C142 C 1.07977 0.08355 0.16400
 H143 H 1.17246 0.18573 0.31482
 H144 H 1.13682 0.14555 0.28700
 H145 H 1.16264 0.15289 0.13017
 H146 H 1.19817 0.19268 0.15734
 H147 H 1.10590 0.10359 0.04790
 H148 H 1.06665 0.07165 0.01782
 H149 H 1.04424 0.05432 0.17532
 H150 H 1.08312 0.08699 0.20487
 C151 C 0.67566 0.68012 0.77354
 C152 C 0.65523 0.65656 0.76075
 C153 C 0.65107 0.64564 0.70965
 C154 C 0.66815 0.65764 0.67145
 C155 C 0.68865 0.68101 0.68419
 C156 C 0.69239 0.69299 0.73525
 N157 N 0.62883 0.62367 0.69730
 N158 N 0.62273 0.61545 0.65111
 C159 C 0.60008 0.59442 0.63842
 C160 C 0.59375 0.58837 0.58666
 C161 C 0.57115 0.56933 0.57288
 C162 C 0.55449 0.55587 0.61088
 C163 C 0.56113 0.56156 0.66288
 C164 C 0.58369 0.58070 0.67657
 H165 H 0.67803 0.68879 0.81322
 H166 H 0.64222 0.64746 0.79055
 H167 H 0.66539 0.64948 0.63167
 H168 H 0.70116 0.69041 0.65376
 H169 H 0.60617 0.59897 0.55691
 H170 H 0.56643 0.56590 0.53253
 H171 H 0.54889 0.55112 0.69301
 H172 H 0.58819 0.58493 0.71688
 C173 C -0.20230 0.33416 0.14519
 C174 C -0.18320 0.35784 0.12744
 C175 C -0.15849 0.35894 0.15046
 C176 C -0.15344 0.33727 0.19310
 C177 C -0.17265 0.31422 0.21156
 C178 C -0.19709 0.31190 0.18716
 N179 N -0.13846 0.38105 0.12915
 N180 N -0.11454 0.37408 0.13763
 C181 C -0.09342 0.39505 0.11838
 C182 C -0.06835 0.38061 0.12097
 C183 C -0.04690 0.40039 0.10476
 C184 C -0.05000 0.43564 0.08671
 C185 C -0.07537 0.44992 0.08301
 C186 C -0.09700 0.42968 0.09859
 H187 H -0.22104 0.33302 0.12587
 H188 H -0.18737 0.37447 0.09467
 H189 H -0.13454 0.33794 0.21186
 H190 H -0.16809 0.29735 0.24388
 H191 H -0.06542 0.35383 0.13575
 H192 H -0.02780 0.38804 0.10666
 H193 H -0.07841 0.47699 0.06944
 H194 H -0.11632 0.44135 0.09641
 C195 C 0.33018 0.82043 0.74500
 C196 C 0.35098 0.84145 0.72799
 C197 C 0.35387 0.84859 0.67573
 C198 C 0.33521 0.83529 0.64054
 C199 C 0.31432 0.81439 0.65750
 C200 C 0.31178 0.80629 0.70985
 N201 N 0.37635 0.86824 0.65936
 N202 N 0.38111 0.87385 0.61220
 C203 C 0.40403 0.89270 0.59618
 C204 C 0.40852 0.89708 0.54365
 C205 C 0.43114 0.91434 0.52677
 C206 C 0.44970 0.92750 0.56237
 C207 C 0.44498 0.92334 0.61513
 C208 C 0.42239 0.90610 0.63191
 H209 H 0.32879 0.81473 0.78555
 H210 H 0.36523 0.85159 0.75549
 H211 H 0.33699 0.84052 0.59993
 H212 H 0.30052 0.80389 0.62942
 H213 H 0.39458 0.88674 0.51571
 H214 H 0.43435 0.91676 0.48589
 H215 H 0.45871 0.93366 0.64350
 H216 H 0.41937 0.90313 0.67275
 C217 C -0.20378 0.67913 -0.14735
 C218 C -0.18308 0.65759 -0.13089
 C219 C -0.15929 0.65764 -0.15717
 C220 C -0.15675 0.67832 -0.20156
 C221 C -0.17762 0.69913 -0.21878
 C222 C -0.20117 0.70023 -0.19134
 N223 N -0.13782 0.63721 -0.13775
 N224 N -0.11440 0.64492 -0.14952
 C225 C -0.09244 0.62485 -0.13161
 C226 C -0.06760 0.64018 -0.13503
 C227 C -0.04561 0.62135 -0.11872
 C228 C -0.04794 0.58619 -0.09982
 C229 C -0.07305 0.57087 -0.09636
 C230 C -0.09513 0.59014 -0.11174
 H231 H -0.22177 0.67943 -0.12561
 H232 H -0.18532 0.64166 -0.09674
 H233 H -0.13861 0.67850 -0.22277
 H234 H -0.17503 0.71527 -0.25265
 H235 H -0.06532 0.66702 -0.15001
 H236 H -0.02681 0.63455 -0.12070
 H237 H -0.07562 0.54373 -0.08276
 H238 H -0.11418 0.57766 -0.10916
 C239 C 0.29720 1.18629 0.36319
 C240 C 0.31868 1.16548 0.37716
 C241 C 0.33750 1.15570 0.34082
 C242 C 0.33421 1.16605 0.28955
 C243 C 0.31271 1.18691 0.27537
 C244 C 0.29413 1.19794 0.31224
 N245 N 0.36021 1.13664 0.35753
 N246 N 0.37829 1.12705 0.32682
 C247 C 0.40136 1.10912 0.34417
 C248 C 0.41981 1.09768 0.30796
 C249 C 0.44285 1.08098 0.32365
 C250 C 0.44796 1.07558 0.37610
 C251 C 0.42933 1.08704 0.41243
 C252 C 0.40622 1.10361 0.39663
 H253 H 0.28336 1.19395 0.39278
 H254 H 0.32098 1.15759 0.41676
 H255 H 0.34850 1.15871 0.26069
 H256 H 0.31107 1.19513 0.23577
 H257 H 0.41631 1.10177 0.26743
 H258 H 0.45661 1.07200 0.29465
 H259 H 0.43280 1.08380 0.45312
 H260 H 0.39234 1.11246 0.42544
 C261 C 1.20919 -0.17181 -0.15645
 C262 C 1.18893 -0.14927 -0.13987
 C263 C 1.16707 -0.14398 -0.17108
 C264 C 1.16641 -0.15955 -0.22062
 C265 C 1.18695 -0.18125 -0.23790
 C266 C 1.20824 -0.18872 -0.20538
 N267 N 1.14514 -0.12456 -0.15084
 N268 N 1.12223 -0.13077 -0.16779
 C269 C 1.09962 -0.11251 -0.14854
 C270 C 1.07518 -0.12801 -0.15776
 C271 C 1.05259 -0.11150 -0.13919
 C272 C 1.05388 -0.07832 -0.11219
 C273 C 1.07860 -0.06268 -0.10317
 C274 C 1.10132 -0.07980 -0.12080
 H275 H 1.22533 -0.17648 -0.13043
 H276 H 1.18971 -0.13726 -0.10169
 H277 H 1.14979 -0.15539 -0.24562
 H278 H 1.18549 -0.19347 -0.27590
 H279 H 1.07368 -0.15339 -0.17872
 H280 H 1.03413 -0.12506 -0.14565
 H281 H 1.08040 -0.03698 -0.08320
 H282 H 1.12009 -0.06726 -0.11354
 C283 C 0.70645 0.33295 0.32340
 C284 C 0.68657 0.35439 0.34425
 C285 C 0.66147 0.35329 0.32292
 C286 C 0.65682 0.33213 0.27851
 C287 C 0.67680 0.31134 0.25697
 C288 C 0.70161 0.31081 0.28001
 N289 N 0.64068 0.37216 0.34824
 N290 N 0.61708 0.36256 0.34106
 C291 C 0.59544 0.38013 0.36522
 C292 C 0.57119 0.36298 0.36339
 C293 C 0.54938 0.37919 0.38564
 C294 C 0.55123 0.41350 0.40925
 C295 C 0.57578 0.43058 0.41162
 C296 C 0.59779 0.41392 0.38997
 H297 H 0.72546 0.33312 0.34176
 H298 H 0.69041 0.37068 0.37836
 H299 H 0.63762 0.33116 0.26105
 H300 H 0.67251 0.29446 0.22364
 H301 H 0.56923 0.33679 0.34480
 H302 H 0.53101 0.36475 0.38431
 H303 H 0.57786 0.45710 0.42910
 H304 H 0.61642 0.42768 0.39165
 C305 C 0.79801 -0.13993 -0.15580
 C306 C 0.81935 -0.11777 -0.14352
 C307 C 0.83946 -0.11302 -0.17902
 C308 C 0.83710 -0.12844 -0.22840
 C309 C 0.81552 -0.14976 -0.24126
 C310 C 0.79614 -0.15700 -0.20450
 N311 N 0.86304 -0.09536 -0.16294
 N312 N 0.88470 -0.10361 -0.18381
 C313 C 0.90900 -0.08808 -0.16774
 C314 C 0.93166 -0.10838 -0.17436
 C315 C 0.95542 -0.09600 -0.15466
 C316 C 0.95732 -0.06213 -0.12953
 C317 C 0.93455 -0.04086 -0.12566
 C318 C 0.91051 -0.05401 -0.14378
 H319 H 0.78339 -0.14442 -0.12662
 H320 H 0.82093 -0.10593 -0.10533
 H321 H 0.85231 -0.12473 -0.25662
 H322 H 0.81479 -0.16200 -0.27933
 H323 H 0.93064 -0.13478 -0.19262
 H324 H 0.97201 -0.11390 -0.15746
 H325 H 0.93507 -0.01425 -0.10817
 H326 H 0.89316 -0.03768 -0.13906
 C327 C 0.29291 0.35886 0.36212
 C328 C 0.31434 0.38018 0.37692
 C329 C 0.33619 0.38253 0.34496
 C330 C 0.33567 0.36541 0.29645
 C331 C 0.31416 0.34481 0.28121
 C332 C 0.29290 0.34037 0.31449
 N333 N 0.35955 0.39941 0.36381
 N334 N 0.38162 0.38908 0.34684
 C335 C 0.40590 0.40367 0.36452
 C336 C 0.42815 0.38235 0.35941
 C337 C 0.45208 0.39436 0.37861
 C338 C 0.45457 0.42880 0.40176
 C339 C 0.43215 0.45077 0.40514
 C340 C 0.40791 0.43808 0.38733
 H341 H 0.27673 0.35607 0.38840
 H342 H 0.31450 0.39326 0.41442
 H343 H 0.35225 0.36716 0.27092
 H344 H 0.31475 0.33099 0.24425
 H345 H 0.42673 0.35568 0.34209
 H346 H 0.46841 0.37597 0.37654
 H347 H 0.43319 0.47770 0.42154
 H348 H 0.39087 0.45512 0.39099
 C349 C 0.20207 0.65740 -0.15137
 C350 C 0.18082 0.63689 -0.13512
 C351 C 0.16099 0.62696 -0.16966
 C352 C 0.16307 0.63667 -0.22138
 C353 C 0.18433 0.65706 -0.23775
 C354 C 0.20382 0.66825 -0.20272
 N355 N 0.13828 0.60912 -0.15060
 N356 N 0.11874 0.60140 -0.17911
 C357 C 0.09552 0.58547 -0.15895
 C358 C 0.07400 0.57993 -0.19147
 C359 C 0.05025 0.56772 -0.17180
 C360 C 0.04771 0.56075 -0.11913
 C361 C 0.06965 0.56517 -0.08698
 C362 C 0.09331 0.57741 -0.10664
 H363 H 0.21675 0.66552 -0.12345
 H364 H 0.17942 0.62959 -0.09513
 H365 H 0.14800 0.62928 -0.24885
 H366 H 0.18508 0.66491 -0.27758
 H367 H 0.07545 0.58603 -0.23188
 H368 H 0.03378 0.56424 -0.19761
 H369 H 0.06826 0.56058 -0.04612
 H370 H 0.10962 0.58154 -0.08065
 C371 C 0.69918 1.15747 0.32428
 C372 C 0.67803 1.13698 0.34102
 C373 C 0.65792 1.12722 0.30704
 C374 C 0.65973 1.13681 0.25526
 C375 C 0.68089 1.15714 0.23831
 C376 C 0.70060 1.16861 0.27288
 N377 N 0.63525 1.10960 0.32670
 N378 N 0.61533 1.10265 0.29885
 C379 C 0.59218 1.08677 0.31939
 C380 C 0.57042 1.08170 0.28736
 C381 C 0.54691 1.06883 0.30721
 C382 C 0.54483 1.06069 0.35959
 C383 C 0.56694 1.06502 0.39135
 C384 C 0.59037 1.07793 0.37149
 H385 H 0.71396 1.16547 0.35208
 H386 H 0.67687 1.12966 0.38103
 H387 H 0.64448 1.12940 0.22817
 H388 H 0.68126 1.16484 0.19838
 H389 H 0.57156 1.08843 0.24713
 H390 H 0.53031 1.06545 0.28170
 H391 H 0.56589 1.05949 0.43199
 H392 H 0.60687 1.08172 0.39712
 C393 C 0.16272 0.33853 0.27954
 C394 C 0.14116 0.35917 0.26589
 C395 C 0.14171 0.37996 0.22171
 C396 C 0.16438 0.38055 0.19153
 C397 C 0.18586 0.35920 0.20453
 C398 C 0.18504 0.33760 0.24833
 N399 N 0.11806 0.39665 0.20541
 N400 N 0.11731 0.42232 0.17372
 C401 C 0.09271 0.43496 0.15505
 C402 C 0.09032 0.47002 0.13677
 C403 C 0.06647 0.48192 0.11666
 C404 C 0.04484 0.45845 0.11312
 C405 C 0.04766 0.42315 0.13127
 C406 C 0.07113 0.41176 0.15255
 H407 H 0.16144 0.32201 0.31333
 H408 H 0.12367 0.35825 0.28908
 H409 H 0.16502 0.39611 0.15678
 H410 H 0.20283 0.35900 0.17986
 H411 H 0.10687 0.48817 0.13835
 H412 H 0.06511 0.50940 0.10380
 H413 H 0.03201 0.40367 0.12763
 H414 H 0.07269 0.38427 0.16540
 C415 C 0.67028 0.84872 0.76247
 C416 C 0.64867 0.86863 0.74654
 C417 C 0.64574 0.87780 0.69497
 C418 C 0.66521 0.86781 0.65955
 C419 C 0.68679 0.84783 0.67538
 C420 C 0.68934 0.83750 0.72685
 N421 N 0.62220 0.89521 0.67898
 N422 N 0.61836 0.90382 0.63248
 C423 C 0.59439 0.91934 0.61518
 C424 C 0.59195 0.92802 0.56338
 C425 C 0.56826 0.94055 0.54405
 C426 C 0.54647 0.94462 0.57635
 C427 C 0.54912 0.93665 0.62873
 C428 C 0.57290 0.92414 0.64805
 H429 H 0.67164 0.84120 0.80239
 H430 H 0.63381 0.87613 0.77419
 H431 H 0.66341 0.87458 0.61942
 H432 H 0.70113 0.83968 0.64700
 H433 H 0.60832 0.92421 0.53763
 H434 H 0.56677 0.94591 0.50339
 H435 H 0.53276 0.93985 0.65463
 H436 H 0.57433 0.91757 0.68831
 C437 C 0.80558 0.15324 0.13691
 C438 C 0.82594 0.13080 0.12045
 C439 C 0.84524 0.11986 0.15500
 C440 C 0.84349 0.13063 0.20686
 C441 C 0.82315 0.15297 0.22341
 C442 C 0.80422 0.16508 0.18844
 N443 N 0.86715 0.09981 0.13593
 N444 N 0.88608 0.09079 0.16477
 C445 C 0.90868 0.07260 0.14506
 C446 C 0.92956 0.06573 0.17828
 C447 C 0.95291 0.05132 0.15926
 C448 C 0.95567 0.04342 0.10653
 C449 C 0.93429 0.04915 0.07362
 C450 C 0.91103 0.06362 0.09265
 H451 H 0.79132 0.16204 0.10904
 H452 H 0.82709 0.12272 0.08035
 H453 H 0.85815 0.12251 0.23435
 H454 H 0.82267 0.16151 0.26338
 H455 H 0.92799 0.07252 0.21877
 H456 H 0.96894 0.04690 0.18562
 H457 H 0.93590 0.04386 0.03271
 H458 H 0.89519 0.06873 0.06614
 C459 C 0.30895 0.64599 0.66855
 C460 C 0.32892 0.62258 0.65332
 C461 C 0.34896 0.61383 0.68751
 C462 C 0.34832 0.62770 0.73804
 C463 C 0.32830 0.65103 0.75342
 C464 C 0.30868 0.66100 0.71851
 N465 N 0.37054 0.59298 0.66883
 N466 N 0.39024 0.58565 0.69666
 C467 C 0.41240 0.56684 0.67618
 C468 C 0.43425 0.56156 0.70759
 C469 C 0.45720 0.54688 0.68711
 C470 C 0.45860 0.53720 0.63470
 C471 C 0.43625 0.54129 0.60380
 C472 C 0.41339 0.55593 0.62429
 H473 H 0.29411 0.65304 0.64077
 H474 H 0.32924 0.61209 0.61425
 H475 H 0.36361 0.62131 0.76518
 H476 H 0.32865 0.66209 0.79218
 H477 H 0.43374 0.56984 0.74767
 H478 H 0.47399 0.54373 0.71199
 H479 H 0.43676 0.53467 0.56314
 H480 H 0.39681 0.55981 0.59912
   
