data_POSCAR
  _audit_creation_date              2014-09-24
  _audit_creation_method            'ToBaCCo'
  _symmetry_space_group_name_H-M    'P1'
  _symmetry_Int_Tables_number       1
  _symmetry_cell_setting            triclinic
  loop_
  _symmetry_equiv_pos_as_xyz
 x,y,z
_cell_length_a 40.1125
_cell_length_b 41.6297
_cell_length_c 16.7593
_cell_angle_alpha 89.857600
_cell_angle_beta 89.948200
_cell_angle_gamma 89.999100
loop_
  _atom_site_label
  _atom_site_type_symbol
  _atom_site_fract_x
  _atom_site_fract_y
  _atom_site_fract_z
C1 C 0.30564 0.27866 0.35657
 C2 C 0.31892 0.24954 0.38305
 C3 C 0.30705 0.21978 0.35548
 C4 C 0.27808 0.21946 0.30576
 C5 C 0.26320 0.24898 0.28167
 C6 C 0.27731 0.27860 0.30650
 C7 C 0.26230 0.30747 0.28206
 C8 C 0.23468 0.30747 0.23238
 C9 C 0.21991 0.27859 0.20757
 C10 C 0.23408 0.24897 0.23260
 C11 C 0.26249 0.19072 0.28233
 C12 C 0.23485 0.19071 0.23252
 C13 C 0.21932 0.21944 0.20848
 C14 C 0.19057 0.21976 0.15804
 C15 C 0.17871 0.24953 0.13015
 C16 C 0.19180 0.27864 0.15685
 H17 H 0.27154 0.33055 0.30148
 H18 H 0.22527 0.33055 0.21321
 H19 H 0.27072 0.16752 0.30299
 H20 H 0.22661 0.16749 0.21232
 H21 H 0.34112 0.25041 0.41989
 H22 H 0.15669 0.25040 0.09267
 C23 C 0.68981 0.22140 0.32839
 C24 C 0.67617 0.25070 0.35248
 C25 C 0.68935 0.28001 0.32652
 C26 C 0.71822 0.28023 0.27768
 C27 C 0.73333 0.25075 0.25544
 C28 C 0.71890 0.22121 0.28044
 C29 C 0.73422 0.19231 0.25779
 C30 C 0.76247 0.19227 0.20986
 C31 C 0.77741 0.22113 0.18483
 C32 C 0.76278 0.25076 0.20772
 C33 C 0.73251 0.30906 0.25082
 C34 C 0.76074 0.30907 0.20263
 C35 C 0.77732 0.28034 0.18261
 C36 C 0.80676 0.28002 0.13447
 C37 C 0.81928 0.25020 0.10883
 C38 C 0.80608 0.22109 0.13578
 H39 H 0.72468 0.16928 0.27704
 H40 H 0.77216 0.16915 0.19196
 H41 H 0.72201 0.33212 0.26630
 H42 H 0.76845 0.33211 0.17968
 H43 H 0.65366 0.25068 0.38843
 H44 H 0.84179 0.24933 0.07298
 C45 C 0.80879 0.77887 0.83973
 C46 C 0.82189 0.74976 0.86690
 C47 C 0.80961 0.71995 0.84076
 C48 C 0.78049 0.71959 0.79168
 C49 C 0.76601 0.74916 0.76634
 C50 C 0.78051 0.77881 0.78952
 C51 C 0.76578 0.80766 0.76378
 C52 C 0.73761 0.80758 0.71566
 C53 C 0.72216 0.77867 0.69356
 C54 C 0.73661 0.74915 0.71854
 C55 C 0.76410 0.69083 0.77116
 C56 C 0.73591 0.69083 0.72303
 C57 C 0.72146 0.71965 0.69665
 C58 C 0.69234 0.71983 0.64880
 C59 C 0.67910 0.74912 0.62289
 C60 C 0.69287 0.77846 0.64638
 H61 H 0.77553 0.83078 0.78134
 H62 H 0.72820 0.83059 0.69595
 H63 H 0.77188 0.66777 0.79379
 H64 H 0.72554 0.66775 0.70726
 H65 H 0.84410 0.75064 0.90373
 H66 H 0.65634 0.74912 0.58795
 C67 C 0.19465 0.72087 0.86877
 C68 C 0.18284 0.75042 0.89762
 C69 C 0.19468 0.78004 0.86879
 C70 C 0.22313 0.78015 0.81774
 C71 C 0.23740 0.75051 0.79275
 C72 C 0.22313 0.72084 0.81787
 C73 C 0.23927 0.69212 0.79581
 C74 C 0.26693 0.69219 0.74602
 C75 C 0.28124 0.72105 0.71975
 C76 C 0.26653 0.75053 0.74361
 C77 C 0.23925 0.80889 0.79538
 C78 C 0.26690 0.80886 0.74552
 C79 C 0.28122 0.78002 0.71946
 C80 C 0.30989 0.77984 0.66993
 C81 C 0.32309 0.75055 0.64435
 C82 C 0.30992 0.72126 0.67028
 H83 H 0.23173 0.66901 0.81868
 H84 H 0.27705 0.66914 0.72910
 H85 H 0.23170 0.83198 0.81804
 H86 H 0.27702 0.83192 0.72838
 H87 H 0.16102 0.75038 0.93585
 H88 H 0.34539 0.75056 0.60766
 O89 O 0.96877 -0.02400 -0.08536
 O90 O 1.03231 0.03712 -0.04073
 O91 O 1.03370 -0.02354 -0.08035
 O92 O 0.96778 0.03653 -0.04586
 O93 O 0.96664 0.02325 0.08184
 O94 O 1.03129 -0.03782 0.04658
 O95 O 1.03151 0.02282 0.08631
 O96 O 0.96667 -0.03730 0.04226
 Cu97 Cu 1.00084 0.00785 -0.07591
 Cu98 Cu 0.99889 -0.00861 0.07707
 C99 C 0.95692 -0.04106 -0.02918
 C100 C 1.04259 0.04049 0.03038
 C101 C 1.04342 -0.04115 -0.02290
 C102 C 0.95626 0.04033 0.02409
 O103 O 0.46532 0.47693 0.41860
 O104 O 0.53068 0.53714 0.45707
 O105 O 0.53011 0.47707 0.41300
 O106 O 0.46596 0.53724 0.46093
 O107 O 0.46746 0.52243 0.58756
 O108 O 0.53163 0.46211 0.53952
 O109 O 0.53220 0.52219 0.58361
 O110 O 0.46687 0.46211 0.54522
 Cu111 Cu 0.49785 0.50857 0.42468
 Cu112 Cu 0.49969 0.49071 0.57669
 C113 C 0.45515 0.45914 0.47529
 C114 C 0.54238 0.54004 0.52709
 C115 C 0.54164 0.45923 0.46797
 C116 C 0.45600 0.54027 0.53244
 O117 O -0.03201 0.53714 0.03967
 O118 O 0.03205 0.47634 0.08380
 O119 O 0.03236 0.53718 0.04530
 O120 O -0.03291 0.47654 0.07960
 O121 O -0.03050 0.46262 -0.04741
 O122 O 0.03409 0.52403 -0.08229
 O123 O 0.03409 0.46331 -0.04383
 O124 O -0.03092 0.52333 -0.08752
 Cu125 Cu -0.00030 0.50806 0.07494
 Cu126 Cu 0.00184 0.49203 -0.07812
 C127 C -0.04222 0.54070 -0.03148
 C128 C 0.04390 0.45941 0.02754
 C129 C 0.04407 0.54117 -0.02442
 C130 C -0.04258 0.45906 0.02211
 O131 O 0.46753 0.96272 0.45898
 O132 O 0.53197 1.02285 0.41143
 O133 O 0.53225 0.96244 0.45403
 O134 O 0.46710 1.02298 0.41605
 O135 O 0.46926 1.03780 0.54245
 O136 O 0.53379 0.97686 0.58076
 O137 O 0.53379 1.03714 0.53823
 O138 O 0.46899 0.97741 0.58552
 Cu139 Cu 0.49956 0.99130 0.42238
 Cu140 Cu 0.50160 1.00872 0.57449
 C141 C 0.45744 0.95972 0.53045
 C142 C 0.54367 1.04037 0.46667
 C143 C 0.54390 0.95919 0.52402
 C144 C 0.45736 1.04092 0.47267
 C145 C 1.13194 0.14122 0.10149
 N146 N 1.13404 0.16680 0.05153
 N147 N 1.15329 0.19178 0.06955
 C148 C 1.17177 0.19213 0.13763
 N149 N 1.16925 0.16652 0.18781
 N150 N 1.14980 0.14157 0.17018
 C151 C 1.10984 0.11420 0.08240
 N152 N 1.10252 0.09150 0.13805
 N153 N 1.08138 0.06774 0.12132
 C154 C 1.06701 0.06573 0.04816
 N155 N 1.07458 0.08826 -0.00764
 N156 N 1.09552 0.11211 0.00925
 C157 C 0.63400 0.63937 0.59361
 N158 N 0.64321 0.66045 0.53573
 N159 N 0.66245 0.68557 0.55300
 C160 C 0.67343 0.69041 0.62865
 N161 N 0.66399 0.66944 0.68661
 N162 N 0.64476 0.64432 0.66936
 C163 C 0.61147 0.61257 0.57540
 N164 N 0.60118 0.59230 0.63404
 N165 N 0.57957 0.56886 0.61833
 C166 C 0.56746 0.56483 0.54340
 N167 N 0.57792 0.58495 0.48463
 N168 N 0.59954 0.60839 0.50034
 C169 C -0.13399 0.35871 0.08211
 N170 N -0.15360 0.35863 0.14810
 N171 N -0.17330 0.33366 0.16414
 C172 C -0.17433 0.30773 0.11499
 N173 N -0.15419 0.30785 0.04956
 N174 N -0.13467 0.33287 0.03310
 C175 C -0.11140 0.38566 0.06542
 N176 N -0.09510 0.38753 -0.00547
 N177 N -0.07363 0.41128 -0.01976
 C178 C -0.06750 0.43390 0.03653
 N179 N -0.08386 0.43209 0.10738
 N180 N -0.10552 0.40846 0.12146
 C181 C 0.36705 0.86043 0.60797
 N182 N 0.35707 0.83924 0.55137
 N183 N 0.33819 0.81407 0.57083
 C184 C 0.32834 0.80930 0.64750
 N185 N 0.33853 0.83040 0.70416
 N186 N 0.35741 0.85556 0.68472
 C187 C 0.38922 0.88725 0.58717
 N188 N 0.40067 0.90742 0.64448
 N189 N 0.42201 0.93085 0.62620
 C190 C 0.43265 0.93497 0.54993
 N191 N 0.42101 0.91495 0.49253
 N192 N 0.39969 0.89151 0.51082
 C193 C -0.13206 0.64118 -0.10219
 N194 N -0.13338 0.66707 -0.05340
 N195 N -0.15256 0.69213 -0.07152
 C196 C -0.17174 0.69225 -0.13847
 N197 N -0.17006 0.66629 -0.18744
 N198 N -0.15066 0.64127 -0.16974
 C199 C -0.10992 0.61416 -0.08314
 N200 N -0.10279 0.59142 -0.13858
 N201 N -0.08150 0.56774 -0.12197
 C202 C -0.06680 0.56583 -0.04914
 N203 N -0.07421 0.58838 0.00646
 N204 N -0.09528 0.61216 -0.01033
 C205 C 0.36662 1.14140 0.40865
 N206 N 0.34804 1.14179 0.34108
 N207 N 0.32829 1.16668 0.32462
 C208 C 0.32615 1.19218 0.37493
 N209 N 0.34533 1.19178 0.44190
 N210 N 0.36491 1.16686 0.45875
 C211 C 0.38911 1.11446 0.42617
 N212 N 0.40472 1.11250 0.49785
 N213 N 0.42601 1.08872 0.51307
 C214 C 0.43261 1.06611 0.45703
 N215 N 0.41694 1.06799 0.38538
 N216 N 0.39548 1.09169 0.37032
 C217 C 1.13528 -0.14121 -0.08093
 N218 N 1.15378 -0.14203 -0.14867
 N219 N 1.17355 -0.16699 -0.16402
 C220 C 1.17580 -0.19216 -0.11237
 N221 N 1.15678 -0.19130 -0.04509
 N222 N 1.13717 -0.16630 -0.02938
 C223 C 1.11255 -0.11433 -0.06494
 N224 N 1.09678 -0.11203 0.00650
 N225 N 1.07520 -0.08836 0.02025
 C226 C 1.06844 -0.06622 -0.03709
 N227 N 1.08428 -0.06844 -0.10850
 N228 N 1.10603 -0.09202 -0.12210
 C229 C 0.63215 0.36036 0.38905
 N230 N 0.64168 0.35571 0.31218
 N231 N 0.66060 0.33064 0.29248
 C232 C 0.67093 0.30944 0.34900
 N233 N 0.66121 0.31402 0.42578
 N234 N 0.64230 0.33908 0.44549
 C235 C 0.60990 0.38704 0.41021
 N236 N 0.59951 0.39102 0.48668
 N237 N 0.57814 0.41434 0.50533
 C238 C 0.56638 0.43452 0.44816
 N239 N 0.57694 0.43067 0.37178
 N240 N 0.59831 0.40737 0.35314
 C241 C 0.86599 -0.14031 -0.10165
 N242 N 0.85638 -0.14553 -0.17817
 N243 N 0.83743 -0.17073 -0.19651
 C244 C 0.82715 -0.19151 -0.13894
 N245 N 0.83693 -0.18636 -0.06247
 N246 N 0.85587 -0.16116 -0.04411
 C247 C 0.88834 -0.11352 -0.08215
 N248 N 0.89872 -0.10880 -0.00598
 N249 N 0.92019 -0.08539 0.01111
 C250 C 0.93209 -0.06588 -0.04736
 N251 N 0.92155 -0.07047 -0.12343
 N252 N 0.90006 -0.09386 -0.14051
 C253 C 0.36345 0.35961 0.41107
 N254 N 0.35261 0.35450 0.33547
 N255 N 0.33351 0.32925 0.31861
 C256 C 0.32425 0.30830 0.37681
 N257 N 0.33527 0.31332 0.45237
 N258 N 0.35440 0.33858 0.46924
 C259 C 0.38595 0.38650 0.42868
 N260 N 0.39799 0.39088 0.50355
 N261 N 0.41964 0.41437 0.51866
 C262 C 0.43003 0.43432 0.45946
 N263 N 0.41781 0.43009 0.38471
 N264 N 0.39616 0.40661 0.36961
 C265 C 0.13529 0.64193 -0.08168
 N266 N 0.15377 0.64302 -0.14943
 N267 N 0.17350 0.66805 -0.16455
 C268 C 0.17573 0.69303 -0.11267
 N269 N 0.15670 0.69194 -0.04542
 N270 N 0.13712 0.66685 -0.02992
 C271 C 0.11269 0.61490 -0.06591
 N272 N 0.09713 0.61214 0.00574
 N273 N 0.07572 0.58829 0.01931
 C274 C 0.06892 0.56643 -0.03841
 N275 N 0.08454 0.56913 -0.11003
 N276 N 0.10612 0.59288 -0.12344
 C277 C 0.63335 1.14034 0.39005
 N278 N 0.64373 1.14487 0.31374
 N279 N 0.66238 1.17021 0.29446
 C280 C 0.67153 1.19185 0.35086
 N281 N 0.66094 1.18741 0.42708
 N282 N 0.64232 1.16205 0.44638
 C283 C 0.61142 1.11330 0.41060
 N284 N 0.60075 1.10904 0.48678
 N285 N 0.57962 1.08542 0.50485
 C286 C 0.56836 1.06523 0.44739
 N287 N 0.57920 1.06934 0.37129
 N288 N 0.60037 1.09294 0.35323
 C289 C 0.13456 0.35964 0.09875
 N290 N 0.14433 0.35425 0.17513
 N291 N 0.16325 0.32897 0.19322
 C292 C 0.17335 0.30827 0.13555
 N293 N 0.16339 0.31356 0.05921
 N294 N 0.14448 0.33886 0.04109
 C295 C 0.11230 0.38658 0.07957
 N296 N 0.10185 0.39157 0.00352
 N297 N 0.08046 0.41512 -0.01324
 C298 C 0.06872 0.43452 0.04544
 N299 N 0.07934 0.42966 0.12140
 N300 N 0.10075 0.40613 0.13815
 C301 C 0.63509 0.85926 0.58988
 N302 N 0.64684 0.85488 0.66503
 N303 N 0.66593 0.82964 0.68252
 C304 C 0.67420 0.80797 0.62539
 N305 N 0.66224 0.81227 0.55032
 N306 N 0.64316 0.83752 0.53280
 C307 C 0.61268 0.88620 0.57169
 N308 N 0.60024 0.89026 0.49701
 N309 N 0.57873 0.91385 0.48147
 C310 C 0.56885 0.93421 0.54007
 N311 N 0.58145 0.93028 0.61460
 N312 N 0.60298 0.90672 0.63012
 C313 C 0.86443 0.14017 0.08432
 N314 N 0.85344 0.14564 0.15968
 N315 N 0.83419 0.17089 0.17562
 C316 C 0.82497 0.19150 0.11670
 N317 N 0.83616 0.18614 0.04139
 N318 N 0.85542 0.16087 0.02542
 C319 C 0.88701 0.11323 0.06771
 N320 N 0.89903 0.10833 -0.00703
 N321 N 0.92070 0.08476 -0.02123
 C322 C 0.93114 0.06526 0.03881
 N323 N 0.91895 0.07003 0.11343
 N324 N 0.89727 0.09358 0.12761
 C325 C 0.36676 0.64045 0.60935
 N326 N 0.35727 0.64543 0.68609
 N327 N 0.33855 0.67070 0.70522
 C328 C 0.32838 0.69179 0.64826
 N329 N 0.33811 0.68692 0.57161
 N330 N 0.35683 0.66165 0.55246
 C331 C 0.38866 0.61343 0.58879
 N332 N 0.39894 0.60902 0.51240
 N333 N 0.41997 0.58536 0.49427
 C334 C 0.43150 0.56525 0.55186
 N335 N 0.42105 0.56951 0.62817
 N336 N 0.40000 0.59316 0.64630
   
