data_POSCAR
  _audit_creation_date              2014-09-24
  _audit_creation_method            'ToBaCCo'
  _symmetry_space_group_name_H-M    'P1'
  _symmetry_Int_Tables_number       1
  _symmetry_cell_setting            triclinic
  loop_
  _symmetry_equiv_pos_as_xyz
 x,y,z
_cell_length_a 35.6507
_cell_length_b 35.0463
_cell_length_c 34.9530
_cell_angle_alpha 89.536500
_cell_angle_beta 89.977300
_cell_angle_gamma 89.872800
loop_
  _atom_site_label
  _atom_site_type_symbol
  _atom_site_fract_x
  _atom_site_fract_y
  _atom_site_fract_z
N1 N 0.18178 1.26248 0.15806
 N2 N 0.15345 1.25933 0.18199
 C3 C 0.12778 1.28638 0.17362
 C4 C 0.14080 1.30760 0.14287
 C5 C 0.17524 1.29181 0.13381
 H6 H 0.10130 1.29001 0.18825
 H7 H 0.19354 1.30020 0.11054
 Cu8 Cu 0.15239 1.21947 0.22100
 Cu9 Cu 0.22331 1.22623 0.15789
 Cu10 Cu 0.22098 1.15385 0.22624
 N11 N 0.15136 1.17877 0.25914
 N12 N 0.17878 1.15371 0.26164
 C13 C 0.17122 1.12878 0.29012
 C14 C 0.13707 1.13862 0.30608
 C15 C 0.12524 1.17047 0.28578
 H16 H 0.18878 1.10478 0.29804
 H17 H 0.09940 1.18612 0.28994
 N18 N 0.26128 1.15877 0.18791
 N19 N 0.26252 1.18662 0.16225
 C20 C 0.29204 1.18079 0.13890
 C21 C 0.30994 1.14761 0.15027
 C22 C 0.28981 1.13442 0.18139
 H23 H 0.29898 1.19824 0.11426
 H24 H 0.29481 1.10821 0.19712
 H25 H 0.19374 1.18100 0.18124
 H26 H 0.22018 1.21181 0.21511
 N27 N 0.81788 0.74048 0.15352
 N28 N 0.84223 0.73849 0.18170
 C29 C 0.86699 0.71033 0.17447
 C30 C 0.85762 0.69404 0.13990
 C31 C 0.82637 0.71384 0.12736
 H32 H 0.89056 0.70276 0.19247
 H33 H 0.81119 0.70940 0.10099
 Cu34 Cu 0.84067 0.77407 0.22417
 Cu35 Cu 0.77734 0.77760 0.15259
 Cu36 Cu 0.77350 0.84218 0.22684
 N37 N 0.83981 0.81307 0.26348
 N38 N 0.81308 0.83893 0.26500
 C39 C 0.82016 0.86294 0.29399
 C40 C 0.85335 0.85175 0.31124
 C41 C 0.86502 0.81995 0.29127
 H42 H 0.80333 0.88764 0.30095
 H43 H 0.89049 0.80376 0.29597
 N44 N 0.73617 0.84110 0.18535
 N45 N 0.73820 0.81701 0.15658
 C46 C 0.71060 0.82509 0.13149
 C47 C 0.69027 0.85565 0.14514
 C48 C 0.70709 0.86507 0.17936
 H49 H 0.70609 0.81050 0.10475
 H50 H 0.69951 0.88854 0.19772
 H51 H 0.80570 0.81863 0.18372
 H52 H 0.77430 0.78552 0.21102
 N53 N 0.81684 1.26316 -0.15866
 N54 N 0.84332 1.26133 -0.18480
 C55 C 0.86866 1.28898 -0.17827
 C56 C 0.85726 1.30922 -0.14655
 C57 C 0.82424 1.29220 -0.13487
 H58 H 0.89401 1.29356 -0.19466
 H59 H 0.80764 1.29952 -0.11007
 Cu60 Cu 0.84313 1.22165 -0.22340
 Cu61 Cu 0.77655 1.22584 -0.15545
 Cu62 Cu 0.77608 1.15439 -0.22353
 N63 N 0.84234 1.18171 -0.26173
 N64 N 0.81639 1.15510 -0.26114
 C65 C 0.82358 1.12969 -0.28888
 C66 C 0.85573 1.14106 -0.30791
 C67 C 0.86683 1.17428 -0.29011
 H68 H 0.80711 1.10443 -0.29432
 H69 H 0.89155 1.19096 -0.29659
 N70 N 0.73770 1.15856 -0.18316
 N71 N 0.73817 1.18549 -0.15695
 C72 C 0.70994 1.17927 -0.13206
 C73 C 0.69074 1.14708 -0.14328
 C74 C 0.70894 1.13471 -0.17579
 H75 H 0.70420 1.19629 -0.10705
 H76 H 0.70244 1.10941 -0.19199
 H77 H 0.80563 1.18159 -0.18080
 H78 H 0.77617 1.21224 -0.21285
 N79 N 0.19150 0.73726 -0.15952
 N80 N 0.16890 0.73476 -0.18911
 C81 C 0.14448 0.70603 -0.18305
 C82 C 0.15225 0.68986 -0.14770
 C83 C 0.18223 0.71031 -0.13360
 H84 H 0.12198 0.69837 -0.20224
 H85 H 0.19553 0.70657 -0.10602
 Cu86 Cu 0.17171 0.77092 -0.23146
 Cu87 Cu 0.22960 0.77673 -0.15550
 Cu88 Cu 0.22537 0.84933 -0.22278
 N89 N 0.16527 0.81492 -0.26504
 N90 N 0.18602 0.84563 -0.26118
 C91 C 0.17497 0.87214 -0.28687
 C92 C 0.14570 0.85724 -0.30793
 C93 C 0.14028 0.82080 -0.29341
 H94 H 0.18699 0.90033 -0.28971
 H95 H 0.11929 0.80044 -0.30224
 N96 N 0.26326 0.84761 -0.18181
 N97 N 0.26536 0.81948 -0.15654
 C98 C 0.29365 0.82658 -0.13208
 C99 C 0.30989 0.86090 -0.14239
 C100 C 0.29002 0.87346 -0.17398
 H101 H 0.30126 0.80873 -0.10792
 H102 H 0.29446 0.89978 -0.18968
 H103 H 0.19599 0.81523 -0.18467
 H104 H 0.23427 0.79174 -0.21274
 C105 C 0.49949 1.00458 0.00331
 C106 C 0.00168 0.50109 0.99651
 C107 C 0.99602 -0.00411 0.50080
 C108 C 0.08497 0.39326 1.08550
 N109 N 0.12027 0.38312 1.07503
 N110 N 0.13853 0.35557 1.09384
 C111 C 0.12224 0.33723 1.12390
 N112 N 0.08707 0.34768 1.13458
 N113 N 0.06874 0.37509 1.11567
 C114 C 0.06415 0.42239 1.06375
 N115 N 0.02711 0.42825 1.07049
 N116 N 0.00779 0.45359 1.04979
 C117 C 0.02483 0.47448 1.02184
 N118 N 0.06193 0.46837 1.01505
 N119 N 0.08121 0.44288 1.03563
 C120 C -0.08457 0.60833 1.08162
 N121 N -0.11348 0.62724 1.06470
 N122 N -0.13214 0.65423 1.08345
 C123 C -0.12245 0.66346 1.11976
 N124 N -0.09360 0.64449 1.13676
 N125 N -0.07504 0.61735 1.11805
 C126 C -0.06332 0.57948 1.06036
 N127 N -0.03651 0.55809 1.07793
 N128 N -0.01658 0.53272 1.05823
 C129 C -0.02275 0.52765 1.02019
 N130 N -0.04940 0.54942 1.00269
 N131 N -0.06944 0.57463 1.02241
 C132 C -0.08399 0.39537 0.90958
 N133 N -0.11949 0.38630 0.92031
 N134 N -0.13837 0.35911 0.90218
 C135 C -0.12250 0.34016 0.87255
 N136 N -0.08712 0.34946 0.86161
 N137 N -0.06817 0.37650 0.87987
 C138 C -0.06254 0.42408 0.93065
 N139 N -0.02537 0.42887 0.92382
 N140 N -0.00550 0.45375 0.94402
 C141 C -0.02207 0.47525 0.97151
 N142 N -0.05931 0.47023 0.97836
 N143 N -0.07915 0.44520 0.95830
 C144 C 0.09153 0.60553 0.91051
 N145 N 0.08314 0.61454 0.87362
 N146 N 0.10269 0.64115 0.85485
 C147 C 0.13138 0.65957 0.87228
 N148 N 0.13991 0.65034 0.90903
 N149 N 0.12031 0.62387 0.92782
 C150 C 0.06918 0.57743 0.93194
 N151 N 0.07472 0.57249 0.97005
 N152 N 0.05383 0.54798 0.98999
 C153 C 0.02681 0.52702 0.97258
 N154 N 0.02117 0.53220 0.93439
 N155 N 0.04198 0.55689 0.91445
 C156 C 1.08007 0.08188 0.39132
 N157 N 1.11487 0.07032 0.38064
 N158 N 1.13346 0.08884 0.35314
 C159 C 1.11801 0.11972 0.33542
 N160 N 1.08332 0.13145 0.34636
 N161 N 1.06465 0.11281 0.37371
 C162 C 1.05900 0.06068 0.42065
 N163 N 1.02231 0.06870 0.42719
 N164 N 1.00282 0.04873 0.45292
 C165 C 1.01935 0.02028 0.47359
 N166 N 1.05607 0.01216 0.46675
 N167 N 1.07551 0.03200 0.44085
 C168 C 1.08535 -0.08734 0.60826
 N169 N 1.11377 -0.06947 0.62665
 N170 N 1.13348 -0.08761 0.65357
 C171 C 1.12546 -0.12429 0.66326
 N172 N 1.09710 -0.14225 0.64475
 N173 N 1.07743 -0.12411 0.61771
 C174 C 1.06306 -0.06667 0.57946
 N175 N 1.03572 -0.08452 0.55941
 N176 N 1.01503 -0.06525 0.53401
 C177 C 1.02097 -0.02740 0.52755
 N178 N 1.04815 -0.00962 0.54800
 N179 N 1.06890 -0.02889 0.57325
 C180 C 0.91033 -0.09229 0.39602
 N181 N 0.87594 -0.08004 0.38457
 N182 N 0.85728 -0.09843 0.35736
 C183 C 0.87224 -0.12986 0.34069
 N184 N 0.90647 -0.14235 0.35248
 N185 N 0.92522 -0.12383 0.37954
 C186 C 0.93168 -0.07089 0.42461
 N187 N 0.96824 -0.07932 0.43146
 N188 N 0.98812 -0.05882 0.45612
 C189 C 0.97210 -0.02943 0.47541
 N190 N 0.93552 -0.02092 0.46823
 N191 N 0.91569 -0.04128 0.44341
 C192 C 0.91113 0.08340 0.60718
 N193 N 0.87961 0.06869 0.62328
 N194 N 0.86135 0.08768 0.65041
 C195 C 0.87408 0.12195 0.66269
 N196 N 0.90554 0.13674 0.64645
 N197 N 0.92368 0.11785 0.61912
 C198 C 0.93197 0.06168 0.57835
 N199 N 0.96094 0.07776 0.55890
 N200 N 0.98050 0.05752 0.53364
 C201 C 0.97178 0.02043 0.52674
 N202 N 0.94309 0.00434 0.54673
 N203 N 0.92338 0.02463 0.57177
 C204 C 0.39574 1.09029 0.09262
 N205 N 0.37786 1.07358 0.12265
 N206 N 0.35104 1.09216 0.14145
 C207 C 0.34098 1.12807 0.13081
 N208 N 0.35900 1.14490 0.10090
 N209 N 0.38597 1.12638 0.08220
 C210 C 0.42396 1.06897 0.07082
 N211 N 0.44401 1.08620 0.04257
 N212 N 0.46854 1.06634 0.02190
 C213 C 0.47406 1.02846 0.02872
 N214 N 0.45362 1.01128 0.05680
 N215 N 0.42927 1.03117 0.07758
 C216 C 0.60433 1.09151 -0.08431
 N217 N 0.62215 1.12178 -0.06860
 N218 N 0.64923 1.13989 -0.08769
 C219 C 0.65964 1.12824 -0.12309
 N220 N 0.64170 1.09809 -0.13889
 N221 N 0.61447 1.08011 -0.11989
 C222 C 0.57577 1.07048 -0.06249
 N223 N 0.55547 1.04243 -0.07915
 N224 N 0.53065 1.02235 -0.05886
 C225 C 0.52506 1.02958 -0.02110
 N226 N 0.54575 1.05746 -0.00447
 N227 N 0.57039 1.07767 -0.02480
 C228 C 0.39438 0.91938 -0.08435
 N229 N 0.37590 0.93613 -0.11402
 N230 N 0.34935 0.91728 -0.13283
 C231 C 0.34018 0.88106 -0.12254
 N232 N 0.35873 0.86424 -0.09295
 N233 N 0.38542 0.88303 -0.07425
 C234 C 0.42265 0.94072 -0.06280
 N235 N 0.44333 0.92330 -0.03510
 N236 N 0.46815 0.94303 -0.01481
 C237 C 0.47335 0.98096 -0.02146
 N238 N 0.45228 0.99833 -0.04898
 N239 N 0.42761 0.97857 -0.06939
 C240 C 0.60483 0.91492 0.08803
 N241 N 0.61424 0.92416 0.12444
 N242 N 0.64117 0.90501 0.14286
 C243 C 0.65953 0.87585 0.12558
 N244 N 0.64989 0.86643 0.08932
 N245 N 0.62310 0.88566 0.07085
 C246 C 0.57639 0.93698 0.06694
 N247 N 0.57096 0.93096 0.02906
 N248 N 0.54622 0.95180 0.00942
 C249 C 0.52552 0.97922 0.02694
 N250 N 0.53117 0.98530 0.06490
 N251 N 0.55607 0.96456 0.08452
   
