data_POSCAR
  _audit_creation_date              2014-09-24
  _audit_creation_method            'ToBaCCo'
  _symmetry_space_group_name_H-M    'P1'
  _symmetry_Int_Tables_number       1
  _symmetry_cell_setting            triclinic
  loop_
  _symmetry_equiv_pos_as_xyz
 x,y,z
_cell_length_a 19.3530
_cell_length_b 19.3530
_cell_length_c 34.2209
_cell_angle_alpha 89.962400
_cell_angle_beta 90.037600
_cell_angle_gamma 89.998600
loop_
  _atom_site_label
  _atom_site_type_symbol
  _atom_site_fract_x
  _atom_site_fract_y
  _atom_site_fract_z
O1 O 0.05655 0.43212 0.96214
 O2 O 0.05695 0.56575 1.03861
 O3 O 0.05628 0.43097 1.03810
 O4 O 0.05619 0.56674 0.96262
 O5 O -0.05776 0.56583 0.96220
 O6 O -0.05755 0.43224 1.03879
 O7 O -0.05700 0.56691 1.03817
 O8 O -0.05740 0.43117 0.96276
 Cu9 Cu 0.06790 0.49888 1.00038
 Cu10 Cu -0.06884 0.49904 1.00050
 C11 C -0.00045 0.40841 0.94952
 C12 C 0.00009 0.58964 1.05128
 C13 C -0.00065 0.40816 1.05143
 C14 C -0.00085 0.58954 0.94947
 O15 O 0.56903 -0.05627 0.53810
 O16 O 0.43326 -0.05619 0.46262
 O17 O 0.56789 -0.05654 0.46214
 O18 O 0.43426 -0.05695 0.53861
 O19 O 0.43309 0.05700 0.53817
 O20 O 0.56883 0.05741 0.46276
 O21 O 0.43417 0.05777 0.46220
 O22 O 0.56776 0.05756 0.53879
 Cu23 Cu 0.50112 -0.06789 0.50038
 Cu24 Cu 0.50097 0.06884 0.50050
 C25 C 0.59184 0.00066 0.55143
 C26 C 0.41046 0.00085 0.44947
 C27 C 0.59160 0.00046 0.44952
 C28 C 0.41037 -0.00008 0.55128
 Si29 Si 0.00075 0.00081 0.24976
 Si30 Si -0.00080 -0.00075 0.74976
 C31 C 0.00135 -0.24668 0.13655
 C32 C -0.06121 -0.27035 0.12050
 C33 C -0.06170 -0.32400 0.09318
 C34 C 0.00038 -0.35510 0.08119
 C35 C 0.06289 -0.33191 0.09750
 C36 C 0.06335 -0.27839 0.12490
 C37 C 0.00200 -0.18833 0.16476
 C38 C 0.05370 -0.13737 0.16278
 C39 C 0.05342 -0.08164 0.18870
 C40 C 0.00173 -0.07591 0.21713
 C41 C -0.05002 -0.12640 0.21925
 C42 C -0.04975 -0.18230 0.19341
 H43 H -0.11071 -0.34046 0.08106
 H44 H 0.11160 -0.35499 0.08903
 H45 H 0.09325 -0.04255 0.18630
 H46 H -0.09105 -0.12270 0.24057
 H47 H 0.11230 -0.26208 0.13715
 H48 H 0.09357 -0.13975 0.14064
 H49 H -0.10978 -0.24639 0.12842
 H50 H -0.08992 -0.22097 0.19596
 C51 C -0.00113 0.24757 0.13579
 C52 C -0.06340 0.27752 0.12313
 C53 C -0.06328 0.33075 0.09552
 C54 C -0.00073 0.35578 0.07994
 C55 C 0.06167 0.32637 0.09313
 C56 C 0.06140 0.27287 0.12058
 C57 C -0.00145 0.18937 0.16419
 C58 C 0.04982 0.18426 0.19322
 C59 C 0.05046 0.12849 0.21920
 C60 C -0.00055 0.07729 0.21690
 C61 C -0.05186 0.08216 0.18815
 C62 C -0.05238 0.13764 0.16203
 H63 H -0.11246 0.35212 0.08641
 H64 H 0.11097 0.34389 0.08189
 H65 H 0.09113 0.12549 0.24079
 H66 H -0.09115 0.04255 0.18564
 H67 H 0.11025 0.25031 0.12926
 H68 H 0.08935 0.22353 0.19598
 H69 H -0.11242 0.26006 0.13475
 H70 H -0.09184 0.13920 0.13961
 C71 C 0.24669 -0.00134 0.63655
 C72 C 0.27840 -0.06334 0.62490
 C73 C 0.33192 -0.06288 0.59750
 C74 C 0.35510 -0.00038 0.58119
 C75 C 0.32400 0.06171 0.59318
 C76 C 0.27035 0.06122 0.62050
 C77 C 0.18834 -0.00199 0.66476
 C78 C 0.18231 0.04975 0.69341
 C79 C 0.12641 0.05003 0.71925
 C80 C 0.07592 -0.00172 0.71713
 C81 C 0.08165 -0.05341 0.68870
 C82 C 0.13737 -0.05370 0.66278
 H83 H 0.35500 -0.11159 0.58903
 H84 H 0.34046 0.11072 0.58106
 H85 H 0.12270 0.09105 0.74057
 H86 H 0.04255 -0.09324 0.68630
 H87 H 0.24640 0.10978 0.62842
 H88 H 0.22097 0.08993 0.69596
 H89 H 0.26208 -0.11229 0.63715
 H90 H 0.13976 -0.09356 0.64064
 C91 C -0.24757 0.00114 0.63579
 C92 C -0.27286 -0.06139 0.62058
 C93 C -0.32637 -0.06167 0.59313
 C94 C -0.35577 0.00073 0.57994
 C95 C -0.33074 0.06329 0.59552
 C96 C -0.27751 0.06341 0.62313
 C97 C -0.18937 0.00145 0.66419
 C98 C -0.13763 0.05239 0.66203
 C99 C -0.08216 0.05186 0.68815
 C100 C -0.07728 0.00056 0.71690
 C101 C -0.12848 -0.05045 0.71920
 C102 C -0.18425 -0.04982 0.69322
 H103 H -0.34388 -0.11096 0.58189
 H104 H -0.35211 0.11247 0.58641
 H105 H -0.04254 0.09115 0.68564
 H106 H -0.12549 -0.09113 0.74079
 H107 H -0.26005 0.11242 0.63475
 H108 H -0.13920 0.09185 0.63961
 H109 H -0.25030 -0.11024 0.62926
 H110 H -0.22352 -0.08935 0.69598
 C111 C -0.00184 -0.24746 0.86367
 C112 C 0.06068 -0.27105 0.87982
 C113 C 0.06108 -0.32445 0.90734
 C114 C -0.00105 -0.35536 0.91942
 C115 C -0.06351 -0.33225 0.90301
 C116 C -0.06389 -0.27898 0.87542
 C117 C -0.00241 -0.18936 0.83525
 C118 C 0.04935 -0.18363 0.80659
 C119 C 0.04970 -0.12793 0.78056
 C120 C -0.00198 -0.07736 0.78252
 C121 C -0.05370 -0.08281 0.81097
 C122 C -0.05406 -0.13833 0.83706
 H123 H 0.11006 -0.34087 0.91952
 H124 H -0.11226 -0.35520 0.91155
 H125 H 0.09075 -0.12442 0.75925
 H126 H -0.09346 -0.04363 0.81326
 H127 H -0.11281 -0.26273 0.86310
 H128 H 0.08948 -0.22236 0.80418
 H129 H 0.10928 -0.24723 0.87183
 H130 H -0.09393 -0.14048 0.85921
 C131 C 0.00013 0.24561 0.86371
 C132 C 0.06223 0.27702 0.87548
 C133 C 0.06198 0.33021 0.90307
 C134 C -0.00042 0.35338 0.91947
 C135 C -0.06262 0.32259 0.90737
 C136 C -0.06234 0.26926 0.87984
 C137 C 0.00062 0.18755 0.83532
 C138 C -0.05107 0.18195 0.80657
 C139 C -0.05139 0.12633 0.78052
 C140 C 0.00023 0.07569 0.78258
 C141 C 0.05185 0.08100 0.81112
 C142 C 0.05219 0.13644 0.83722
 H143 H 0.11077 0.35307 0.91161
 H144 H -0.11156 0.33907 0.91954
 H145 H -0.09232 0.12295 0.75910
 H146 H 0.09158 0.04178 0.81346
 H147 H -0.11098 0.24554 0.87182
 H148 H -0.09113 0.22076 0.80409
 H149 H 0.11111 0.26072 0.86318
 H150 H 0.09200 0.13848 0.85943
 C151 C -0.24561 -0.00012 0.36371
 C152 C -0.26926 0.06235 0.37984
 C153 C -0.32259 0.06263 0.40737
 C154 C -0.35337 0.00043 0.41947
 C155 C -0.33021 -0.06197 0.40307
 C156 C -0.27702 -0.06223 0.37548
 C157 C -0.18754 -0.00062 0.33532
 C158 C -0.13643 -0.05218 0.33722
 C159 C -0.08099 -0.05184 0.31112
 C160 C -0.07569 -0.00022 0.28258
 C161 C -0.12633 0.05139 0.28052
 C162 C -0.18195 0.05107 0.30657
 H163 H -0.33906 0.11156 0.41954
 H164 H -0.35306 -0.11077 0.41161
 H165 H -0.04178 -0.09157 0.31346
 H166 H -0.12294 0.09232 0.25910
 H167 H -0.26072 -0.11111 0.36318
 H168 H -0.13848 -0.09200 0.35943
 H169 H -0.24553 0.11099 0.37182
 H170 H -0.22075 0.09114 0.30409
 C171 C 0.24747 0.00184 0.36367
 C172 C 0.27106 -0.06068 0.37982
 C173 C 0.32446 -0.06108 0.40734
 C174 C 0.35537 0.00106 0.41942
 C175 C 0.33225 0.06352 0.40301
 C176 C 0.27899 0.06389 0.37542
 C177 C 0.18937 0.00242 0.33525
 C178 C 0.13834 0.05407 0.33706
 C179 C 0.08281 0.05370 0.31097
 C180 C 0.07736 0.00199 0.28252
 C181 C 0.12793 -0.04969 0.28056
 C182 C 0.18363 -0.04934 0.30659
 H183 H 0.34088 -0.11006 0.41952
 H184 H 0.35521 0.11226 0.41155
 H185 H 0.04364 0.09347 0.31326
 H186 H 0.12443 -0.09074 0.25925
 H187 H 0.26273 0.11281 0.36310
 H188 H 0.14048 0.09393 0.35921
 H189 H 0.24724 -0.10928 0.37183
 H190 H 0.22237 -0.08947 0.30418
   
