data_POSCAR
  _audit_creation_date              2014-09-24
  _audit_creation_method            'ToBaCCo'
  _symmetry_space_group_name_H-M    'P1'
  _symmetry_Int_Tables_number       1
  _symmetry_cell_setting            triclinic
  loop_
  _symmetry_equiv_pos_as_xyz
 x,y,z
_cell_length_a 41.7574
_cell_length_b 41.0374
_cell_length_c 40.8190
_cell_angle_alpha 89.804100
_cell_angle_beta 90.084600
_cell_angle_gamma 90.021300
loop_
  _atom_site_label
  _atom_site_type_symbol
  _atom_site_fract_x
  _atom_site_fract_y
  _atom_site_fract_z
N1 N 0.18140 0.17848 0.17785
 N2 N -0.18315 0.81339 0.18077
 N3 N -0.17895 0.17546 -0.17475
 N4 N 0.18017 0.82829 -0.17413
 N5 N 0.18108 1.17614 0.82283
 N6 N 0.80881 0.81655 0.81644
 N7 N 0.17772 0.82244 1.17373
 N8 N 0.81948 1.18359 1.18295
 N9 N 0.53513 1.05921 0.96818
 N10 N 0.56093 1.07740 0.96410
 N11 N 0.46679 1.03737 0.94736
 N12 N 0.44133 1.04096 0.92839
 N13 N 0.46788 1.06053 0.96941
 N14 N 0.44350 1.08061 0.96595
 N15 N 0.53429 1.03580 0.94636
 N16 N 0.55948 1.03725 0.92702
 C17 C 0.57579 1.06341 0.93821
 C18 C 0.42713 1.06819 0.94026
 N19 N 0.46552 0.94509 0.97205
 N20 N 0.43980 0.92646 0.96894
 N21 N 0.53319 0.96577 0.94809
 N22 N 0.55792 0.96132 0.92844
 N23 N 0.53311 0.94383 0.97157
 N24 N 0.55784 0.92406 0.96871
 N25 N 0.46591 0.96755 0.94910
 N26 N 0.44063 0.96511 0.93001
 Mn27 Mn 0.50006 1.00162 0.94734
 C28 C 0.42458 0.93936 0.94249
 C29 C 0.57306 0.93513 0.94160
 N30 N 0.46890 1.06218 1.03991
 N31 N 0.44331 1.08093 1.04238
 N32 N 0.53663 1.03908 1.06189
 N33 N 0.56158 1.04389 1.08134
 N34 N 0.53600 1.06115 1.03855
 N35 N 0.56010 1.08162 1.04155
 N36 N 0.46886 1.03975 1.06294
 N37 N 0.44306 1.04228 1.08133
 Mn38 Mn 0.50198 1.06114 1.00400
 C39 C 0.42756 1.06827 1.06847
 C40 C 0.57593 1.07065 1.06827
 N41 N 0.53436 0.94551 1.04206
 N42 N 0.55865 0.92531 1.04656
 N43 N 0.46771 0.96971 1.06515
 N44 N 0.44320 0.96690 1.08540
 N45 N 0.46670 0.94679 1.04279
 N46 N 0.44143 0.92794 1.04710
 N47 N 0.53493 0.96875 1.06410
 N48 N 0.55926 0.96486 1.08432
 Mn49 Mn 0.49989 0.94484 1.00714
 Mn50 Mn 0.50209 1.00436 1.06395
 Cl51 Cl 0.50102 1.00295 1.00563
 C52 C 0.57390 0.93771 1.07312
 C53 C 0.42701 0.94069 1.07385
 N54 N 0.03798 0.46343 0.04844
 N55 N 0.04230 0.43758 0.06732
 N56 N 0.05983 0.53281 0.02732
 N57 N 0.07990 0.55725 0.03140
 N58 N 0.03823 0.53233 0.05066
 N59 N 0.04289 0.55684 0.07111
 N60 N 0.05979 0.46455 0.02531
 N61 N 0.07960 0.43966 0.02792
 C62 C 0.06843 0.42303 0.05423
 C63 C 0.06911 0.57208 0.05877
 N64 N 0.03507 0.53548 -0.06542
 N65 N 0.03736 0.56135 -0.08445
 N66 N 0.05807 0.46686 -0.04517
 N67 N 0.07685 0.44135 -0.04932
 N68 N 0.03484 0.46694 -0.06687
 N69 N 0.03693 0.44123 -0.08611
 N70 N 0.05773 0.53549 -0.04313
 N71 N 0.07603 0.56160 -0.04632
 Mn72 Mn 0.05924 0.49997 -0.00893
 C73 C 0.06303 0.57739 -0.07238
 C74 C 0.06342 0.42567 -0.07502
 N75 N -0.03068 0.53218 0.05238
 N76 N -0.03315 0.55693 0.07274
 N77 N -0.05390 0.46459 0.02794
 N78 N -0.07334 0.43944 0.03080
 N79 N -0.03133 0.46350 0.05035
 N80 N -0.03508 0.43757 0.06932
 N81 N -0.05359 0.53312 0.03032
 N82 N -0.07246 0.55845 0.03531
 Mn83 Mn 0.00356 0.49780 0.05094
 C84 C -0.05940 0.57304 0.06192
 C85 C -0.06145 0.42280 0.05674
 N86 N -0.03386 0.46762 -0.06551
 N87 N -0.03753 0.44310 -0.08588
 N88 N -0.05534 0.53543 -0.04047
 N89 N -0.07465 0.56078 -0.04331
 N90 N -0.03350 0.53595 -0.06357
 N91 N -0.03719 0.56172 -0.08258
 N92 N -0.05554 0.46668 -0.04231
 N93 N -0.07445 0.44113 -0.04611
 Mn94 Mn 0.00065 0.50147 -0.06569
 Mn95 Mn -0.05502 0.50001 -0.00610
 Cl96 Cl 0.00209 0.49981 -0.00739
 C97 C -0.06295 0.42679 -0.07357
 C98 C -0.06300 0.57696 -0.06975
 N99 N 1.03889 0.05187 0.53556
 N100 N 1.04481 0.07076 0.56095
 N101 N 1.05777 0.03019 0.46491
 N102 N 1.07719 0.03444 0.43968
 N103 N 1.03734 0.05438 0.46689
 N104 N 1.04226 0.07574 0.44327
 N105 N 1.05991 0.02820 0.53389
 N106 N 1.08080 0.03034 0.55808
 C107 C 1.07106 0.05702 0.57477
 C108 C 1.06713 0.06304 0.42643
 N109 N 1.02965 -0.06151 0.46420
 N110 N 1.03190 -0.08157 0.43910
 N111 N 1.05493 -0.04152 0.53266
 N112 N 1.07439 -0.04636 0.55769
 N113 N 1.03141 -0.06280 0.53304
 N114 N 1.03459 -0.08305 0.55807
 N115 N 1.05298 -0.04004 0.46358
 N116 N 1.07162 -0.04481 0.43796
 Mn117 Mn 1.05681 -0.00588 0.49865
 C118 C 1.05819 -0.07084 0.42292
 C119 C 1.06154 -0.07244 0.57321
 N120 N 0.96898 0.05893 0.46823
 N121 N 0.96696 0.07921 0.44319
 N122 N 0.94619 0.03598 0.53660
 N123 N 0.92761 0.04018 0.56238
 N124 N 0.97024 0.05656 0.53717
 N125 N 0.96879 0.07521 0.56338
 N126 N 0.94529 0.03792 0.46771
 N127 N 0.92632 0.04351 0.44241
 Mn128 Mn 1.00386 0.05578 0.50206
 C129 C 0.94014 0.06943 0.42738
 C130 C 0.94199 0.06479 0.57884
 N131 N 0.96207 -0.05794 0.53473
 N132 N 0.95717 -0.07755 0.56002
 N133 N 0.94056 -0.03223 0.46605
 N134 N 0.92075 -0.03394 0.44087
 N135 N 0.96080 -0.05671 0.46571
 N136 N 0.95521 -0.07579 0.44035
 N137 N 0.94152 -0.03372 0.53503
 N138 N 0.92237 -0.03599 0.56056
 Mn139 Mn 0.99595 -0.06020 0.49949
 Mn140 Mn 0.94299 0.00199 0.50127
 Cl141 Cl 0.99992 -0.00211 0.50036
 C142 C 0.93225 -0.06346 0.57590
 C143 C 0.93011 -0.06131 0.42508
 C144 C 1.17294 0.12802 0.21019
 C145 C 1.16196 0.11210 0.23832
 C146 C 1.14746 0.12971 0.26352
 C147 C 1.14453 0.16374 0.26053
 C148 C 1.15582 0.17974 0.23255
 C149 C 1.16975 0.16201 0.20684
 N150 N 1.13573 0.11256 0.29167
 N151 N 1.11894 0.12670 0.31336
 C152 C 1.10685 0.11010 0.34165
 C153 C 1.08519 0.12644 0.36180
 C154 C 1.07233 0.11102 0.38929
 C155 C 1.08129 0.07898 0.39738
 C156 C 1.10336 0.06261 0.37738
 C157 C 1.11596 0.07801 0.34955
 H158 H 1.18363 0.11369 0.19090
 H159 H 1.16442 0.08590 0.24035
 H160 H 1.13370 0.17796 0.27985
 H161 H 1.15378 0.20599 0.23099
 H162 H 1.07802 0.15115 0.35596
 H163 H 1.05542 0.12427 0.40429
 H164 H 1.11059 0.03788 0.38305
 H165 H 1.13278 0.06493 0.33431
 C166 C 0.84166 -0.19536 0.23533
 C167 C 0.85544 -0.18324 0.26404
 C168 C 0.85802 -0.14965 0.26905
 C169 C 0.84682 -0.12811 0.24476
 C170 C 0.83343 -0.14021 0.21579
 C171 C 0.83064 -0.17400 0.21075
 N172 N 0.87240 -0.13816 0.29876
 N173 N 0.87150 -0.10836 0.30727
 C174 C 0.88642 -0.09708 0.33680
 C175 C 0.87993 -0.06550 0.34780
 C176 C 0.89392 -0.05389 0.37666
 C177 C 0.91512 -0.07360 0.39471
 C178 C 0.92194 -0.10515 0.38343
 C179 C 0.90756 -0.11690 0.35483
 H180 H 0.83952 -0.22147 0.23234
 H181 H 0.86395 -0.20009 0.28258
 H182 H 0.84876 -0.10201 0.24799
 H183 H 0.82547 -0.12319 0.19717
 H184 H 0.86377 -0.04994 0.33408
 H185 H 0.88838 -0.02941 0.38469
 H186 H 0.93819 -0.12085 0.39685
 H187 H 0.91313 -0.14134 0.34673
 C188 C 0.81185 0.14982 0.77115
 C189 C 0.82348 0.13559 0.74251
 C190 C 0.85644 0.13241 0.73747
 C191 C 0.87783 0.14321 0.76174
 C192 C 0.86621 0.15703 0.79063
 C193 C 0.83309 0.16065 0.79560
 N194 N 0.86750 0.11825 0.70756
 N195 N 0.89680 0.11919 0.69908
 C196 C 0.90776 0.10486 0.66920
 C197 C 0.93877 0.11181 0.65829
 C198 C 0.94991 0.09886 0.62881
 C199 C 0.93028 0.07828 0.61005
 C200 C 0.89936 0.07081 0.62132
 C201 C 0.88808 0.08417 0.65057
 H202 H 0.78625 0.15264 0.77410
 H203 H 0.80678 0.12741 0.72395
 H204 H 0.90344 0.14079 0.75847
 H205 H 0.88308 0.16484 0.80918
 H206 H 0.95418 0.12763 0.67249
 H207 H 0.97392 0.10484 0.62078
 H208 H 0.88378 0.05496 0.60735
 H209 H 0.86408 0.07827 0.65863
 C210 C 1.14528 -0.13004 0.80106
 C211 C 1.13133 -0.11554 0.77345
 C212 C 1.13750 -0.12786 0.74213
 C213 C 1.15879 -0.15412 0.73854
 C214 C 1.17358 -0.16787 0.76606
 C215 C 1.16652 -0.15622 0.79747
 N216 N 1.12224 -0.11321 0.71432
 N217 N 1.11604 -0.12949 0.68858
 C218 C 1.10191 -0.11466 0.66023
 C219 C 1.08441 -0.13397 0.63837
 C220 C 1.07055 -0.12012 0.61036
 C221 C 1.07503 -0.08693 0.60330
 C222 C 1.09294 -0.06767 0.62502
 C223 C 1.10593 -0.08132 0.65352
 H224 H 1.13967 -0.12090 0.82523
 H225 H 1.11509 -0.09522 0.77650
 H226 H 1.16416 -0.16371 0.71450
 H227 H 1.18997 -0.18808 0.76308
 H228 H 1.08126 -0.15973 0.64323
 H229 H 1.05696 -0.13546 0.59386
 H230 H 1.09665 -0.04198 0.62010
 H231 H 1.11963 -0.06604 0.66996
 C232 C 0.24019 1.18142 1.17769
 C233 C 0.26975 1.17210 1.16478
 C234 C 0.27122 1.14906 1.13962
 C235 C 0.24272 1.13613 1.12670
 C236 C 0.21311 1.14629 1.13888
 C237 C 0.21177 1.16866 1.16469
 N238 N 0.30182 1.13897 1.12771
 N239 N 0.30597 1.11077 1.11560
 C240 C 0.33635 1.10068 1.10316
 C241 C 0.34434 1.06761 1.10416
 C242 C 0.37427 1.05715 1.09323
 C243 C 0.39615 1.07958 1.08000
 C244 C 0.38778 1.11263 1.07803
 C245 C 0.35822 1.12324 1.09003
 H246 H 0.23929 1.19882 1.19755
 H247 H 0.29157 1.18224 1.17486
 H248 H 0.24340 1.11852 1.10703
 H249 H 0.19123 1.13642 1.12866
 H250 H 0.32759 1.05003 1.11410
 H251 H 0.38018 1.03148 1.09471
 H252 H 0.40435 1.13027 1.06785
 H253 H 0.35227 1.14889 1.08877
 C254 C 0.23349 0.81511 0.84878
 C255 C 0.26236 0.82484 0.86304
 C256 C 0.26978 0.85792 0.86591
 C257 C 0.24824 0.88131 0.85358
 C258 C 0.21923 0.87160 0.83954
 C259 C 0.21125 0.83840 0.83761
 N260 N 0.29892 0.86717 0.88192
 N261 N 0.30792 0.89675 0.88309
 C262 C 0.33670 0.90673 0.89924
 C263 C 0.34770 0.93846 0.89405
 C264 C 0.37613 0.94896 0.90845
 C265 C 0.39384 0.92800 0.92887
 C266 C 0.38237 0.89639 0.93495
 C267 C 0.35405 0.88567 0.91998
 H268 H 0.22818 0.78935 0.84702
 H269 H 0.27886 0.80658 0.87217
 H270 H 0.25349 0.90707 0.85541
 H271 H 0.20264 0.89008 0.83115
 H272 H 0.33442 0.95492 0.87831
 H273 H 0.38429 0.97356 0.90356
 H274 H 0.39563 0.87983 0.95060
 H275 H 0.34577 0.86108 0.92454
 C276 C 0.78822 0.83193 1.13093
 C277 C 0.76133 0.84554 1.11577
 C278 C 0.73604 0.85760 1.13458
 C279 C 0.73799 0.85606 1.16895
 C280 C 0.76470 0.84202 1.18414
 C281 C 0.79003 0.82963 1.16528
 N282 N 0.70843 0.87059 1.11826
 N283 N 0.68674 0.88595 1.13367
 C284 C 0.65870 0.89842 1.11778
 C285 C 0.63939 0.92047 1.13471
 C286 C 0.61191 0.93329 1.12004
 C287 C 0.60292 0.92372 1.08831
 C288 C 0.62205 0.90122 1.07142
 C289 C 0.64993 0.88882 1.08595
 H290 H 0.80751 0.82278 1.11584
 H291 H 0.76014 0.84664 1.08929
 H292 H 0.71864 0.86507 1.18403
 H293 H 0.76532 0.84020 1.21060
 H294 H 0.64584 0.92795 1.15927
 H295 H 0.59755 0.95053 1.13366
 H296 H 0.61568 0.89355 1.04689
 H297 H 0.66443 0.87161 1.07248
 C298 C 0.76878 1.18735 0.85092
 C299 C 0.74031 1.17692 0.86541
 C300 C 0.73356 1.14368 0.86821
 C301 C 0.75577 1.12076 0.85654
 C302 C 0.78448 1.13117 0.84242
 C303 C 0.79123 1.16457 0.83944
 N304 N 0.70406 1.13388 0.88298
 N305 N 0.69440 1.10451 0.88215
 C306 C 0.66498 1.09465 0.89705
 C307 C 0.65282 1.06372 0.89002
 C308 C 0.62373 1.05363 0.90340
 C309 C 0.60661 1.07422 0.92450
 C310 C 0.61912 1.10503 0.93211
 C311 C 0.64803 1.11531 0.91828
 H312 H 0.77333 1.21323 0.84863
 H313 H 0.72333 1.19477 0.87426
 H314 H 0.75110 1.09489 0.85861
 H315 H 0.80157 1.11322 0.83402
 H316 H 0.66575 1.04759 0.87379
 H317 H 0.61470 1.02964 0.89734
 H318 H 0.60637 1.12129 0.94836
 H319 H 0.65714 1.13928 0.92421
 C320 C 0.13074 0.20765 0.16489
 C321 C 0.11448 0.23435 0.15143
 C322 C 0.13135 0.25912 0.13534
 C323 C 0.16481 0.25685 0.13275
 C324 C 0.18111 0.23046 0.14651
 C325 C 0.16437 0.20561 0.16312
 N326 N 0.11427 0.28656 0.12232
 N327 N 0.12799 0.30737 0.10388
 C328 C 0.11200 0.33562 0.09131
 C329 C 0.12755 0.35455 0.06765
 C330 C 0.11319 0.38277 0.05534
 C331 C 0.08312 0.39279 0.06693
 C332 C 0.06746 0.37378 0.09073
 C333 C 0.08173 0.34526 0.10274
 H334 H 0.11701 0.18860 0.17674
 H335 H 0.08866 0.23570 0.15344
 H336 H 0.17845 0.27572 0.12049
 H337 H 0.20692 0.22986 0.14449
 H338 H 0.15093 0.34740 0.05875
 H339 H 0.12581 0.39696 0.03704
 H340 H 0.04422 0.38092 0.10000
 H341 H 0.06934 0.33106 0.12118
 C342 C -0.15989 0.20478 -0.12567
 C343 C -0.14652 0.23237 -0.11114
 C344 C -0.13501 0.25793 -0.13055
 C345 C -0.13653 0.25541 -0.16487
 C346 C -0.15023 0.22798 -0.17943
 C347 C -0.16234 0.20255 -0.15995
 N348 N -0.12297 0.28658 -0.11492
 N349 N -0.10914 0.30907 -0.13106
 C350 C -0.09793 0.33829 -0.11593
 C351 C -0.07786 0.35895 -0.13380
 C352 C -0.06650 0.38773 -0.11991
 C353 C -0.07557 0.39657 -0.08803
 C354 C -0.09608 0.37605 -0.07018
 C355 C -0.10704 0.34693 -0.08395
 H356 H -0.16893 0.18538 -0.11020
 H357 H -0.14544 0.23403 -0.08469
 H358 H -0.12790 0.27496 -0.18039
 H359 H -0.15221 0.22698 -0.20585
 H360 H -0.07082 0.35258 -0.15848
 H361 H -0.05075 0.40316 -0.13422
 H362 H -0.10328 0.38229 -0.04551
 H363 H -0.12276 0.33136 -0.06978
 C364 C 0.16533 0.79776 -0.12396
 C365 C 0.15162 0.77059 -0.10878
 C366 C 0.13498 0.74754 -0.12730
 C367 C 0.13132 0.75243 -0.16120
 C368 C 0.14527 0.77941 -0.17646
 C369 C 0.16314 0.80200 -0.15814
 N370 N 0.12327 0.71871 -0.11153
 N371 N 0.10606 0.69816 -0.12677
 C372 C 0.09527 0.66848 -0.11204
 C373 C 0.07280 0.64965 -0.12886
 C374 C 0.06228 0.62011 -0.11579
 C375 C 0.07448 0.60867 -0.08579
 C376 C 0.09717 0.62751 -0.06889
 C377 C 0.10741 0.65736 -0.08185
 H378 H 0.17830 0.81515 -0.10911
 H379 H 0.15440 0.76722 -0.08261
 H380 H 0.11848 0.73495 -0.17606
 H381 H 0.14293 0.78191 -0.20273
 H382 H 0.06342 0.65793 -0.15219
 H383 H 0.04476 0.60608 -0.12934
 H384 H 0.10683 0.61927 -0.04566
 H385 H 0.12500 0.67149 -0.06854
 C386 C -0.19180 0.76012 0.15388
 C387 C -0.17992 0.73197 0.13909
 C388 C -0.14692 0.72667 0.13703
 C389 C -0.12572 0.75003 0.14986
 C390 C -0.13759 0.77843 0.16428
 C391 C -0.17077 0.78377 0.16643
 N392 N -0.13561 0.69761 0.12156
 N393 N -0.10635 0.68904 0.12268
 C394 C -0.09506 0.66016 0.10685
 C395 C -0.06420 0.64893 0.11394
 C396 C -0.05264 0.62052 0.09938
 C397 C -0.07168 0.60316 0.07702
 C398 C -0.10247 0.61474 0.06945
 C399 C -0.11419 0.64292 0.08442
 H400 H -0.21746 0.76352 0.15548
 H401 H -0.19648 0.71414 0.12934
 H402 H -0.10007 0.74653 0.14838
 H403 H -0.12091 0.79643 0.17349
 H404 H -0.04920 0.66207 0.13107
 H405 H -0.02874 0.61223 0.10550
 H406 H -0.11759 0.60182 0.05227
 H407 H -0.13808 0.65128 0.07839
 C408 C 1.13253 0.16631 0.78933
 C409 C 1.11778 0.15387 0.76132
 C410 C 1.13582 0.13785 0.73750
 C411 C 1.16910 0.13488 0.74162
 C412 C 1.18398 0.14771 0.76943
 C413 C 1.16580 0.16316 0.79387
 N414 N 1.11980 0.12510 0.70931
 N415 N 1.13366 0.10631 0.68907
 C416 C 1.11749 0.09410 0.66071
 C417 C 1.13222 0.06990 0.64195
 C418 C 1.11701 0.05753 0.61411
 C419 C 1.08697 0.06961 0.60441
 C420 C 1.07227 0.09399 0.62319
 C421 C 1.08732 0.10604 0.65121
 H422 H 1.11783 0.17810 0.80756
 H423 H 1.09213 0.15642 0.75831
 H424 H 1.18360 0.12294 0.72327
 H425 H 1.20972 0.14568 0.77182
 H426 H 1.15547 0.06053 0.64903
 H427 H 1.12886 0.03876 0.60004
 H428 H 1.04907 0.10364 0.61630
 H429 H 1.07549 0.12483 0.66527
 C430 C 0.83765 -0.19455 0.76585
 C431 C 0.85349 -0.18342 0.73784
 C432 C 0.85574 -0.15010 0.73119
 C433 C 0.84199 -0.12779 0.75308
 C434 C 0.82639 -0.13879 0.78131
 C435 C 0.82389 -0.17245 0.78832
 N436 N 0.87198 -0.13955 0.70211
 N437 N 0.87178 -0.10990 0.69291
 C438 C 0.88788 -0.09891 0.66395
 C439 C 0.88238 -0.06709 0.65299
 C440 C 0.89692 -0.05566 0.62441
 C441 C 0.91766 -0.07579 0.60647
 C442 C 0.92374 -0.10756 0.61780
 C443 C 0.90878 -0.11916 0.64625
 H444 H 0.83570 -0.22060 0.76969
 H445 H 0.86381 -0.20088 0.72105
 H446 H 0.84361 -0.10182 0.74859
 H447 H 0.81693 -0.12088 0.79814
 H448 H 0.86644 -0.05124 0.66646
 H449 H 0.89195 -0.03098 0.61638
 H450 H 0.93964 -0.12355 0.60442
 H451 H 0.91352 -0.14382 0.65439
 C452 C 1.16365 -0.12774 0.20476
 C453 C 1.15082 -0.11271 0.23248
 C454 C 1.13799 -0.13146 0.25798
 C455 C 1.13856 -0.16562 0.25569
 C456 C 1.15186 -0.18067 0.22825
 C457 C 1.16440 -0.16191 0.20238
 N458 N 1.12487 -0.11536 0.28600
 N459 N 1.10798 -0.13047 0.30708
 C460 C 1.09543 -0.11476 0.33559
 C461 C 1.07255 -0.13109 0.35454
 C462 C 1.06007 -0.11663 0.38273
 C463 C 1.07080 -0.08577 0.39272
 C464 C 1.09387 -0.06944 0.37376
 C465 C 1.10596 -0.08371 0.34528
 H466 H 1.17290 -0.11272 0.18507
 H467 H 1.15054 -0.08637 0.23397
 H468 H 1.12906 -0.18065 0.27524
 H469 H 1.15247 -0.20702 0.22720
 H470 H 1.06431 -0.15505 0.34736
 H471 H 1.04237 -0.12978 0.39694
 H472 H 1.10247 -0.04558 0.38087
 H473 H 1.12376 -0.07069 0.33110
 C474 C 0.80998 0.15608 0.23490
 C475 C 0.82165 0.14195 0.26366
 C476 C 0.85442 0.14204 0.27045
 C477 C 0.87567 0.15642 0.24802
 C478 C 0.86413 0.17029 0.21900
 C479 C 0.83101 0.17036 0.21184
 N480 N 0.86547 0.12707 0.30007
 N481 N 0.89436 0.12946 0.30969
 C482 C 0.90533 0.11403 0.33912
 C483 C 0.93585 0.12159 0.35101
 C484 C 0.94713 0.10720 0.37986
 C485 C 0.92811 0.08463 0.39700
 C486 C 0.89763 0.07672 0.38482
 C487 C 0.88622 0.09145 0.35618
 H488 H 0.78435 0.15624 0.23084
 H489 H 0.80505 0.13106 0.28088
 H490 H 0.90120 0.15652 0.25266
 H491 H 0.88120 0.18026 0.20172
 H492 H 0.95081 0.13886 0.33801
 H493 H 0.97080 0.11358 0.38862
 H494 H 0.88254 0.05936 0.39755
 H495 H 0.86259 0.08507 0.34732
 C496 C 0.18285 0.23603 -0.17857
 C497 C 0.17216 0.26625 -0.16734
 C498 C 0.14821 0.26794 -0.14345
 C499 C 0.13579 0.23902 -0.12997
 C500 C 0.14731 0.20880 -0.14040
 C501 C 0.17058 0.20719 -0.16504
 N502 N 0.13704 0.29916 -0.13302
 N503 N 0.10854 0.30332 -0.12290
 C504 C 0.09772 0.33430 -0.11137
 C505 C 0.06510 0.34195 -0.11322
 C506 C 0.05397 0.37210 -0.10215
 C507 C 0.07527 0.39451 -0.08803
 C508 C 0.10789 0.38661 -0.08567
 C509 C 0.11914 0.35689 -0.09768
 H510 H 0.20080 0.23497 -0.19765
 H511 H 0.18197 0.28839 -0.17779
 H512 H 0.11752 0.23988 -0.11121
 H513 H 0.13769 0.18662 -0.12986
 H514 H 0.04836 0.32464 -0.12359
 H515 H 0.02865 0.37760 -0.10395
 H516 H 0.12471 0.40354 -0.07480
 H517 H 0.14441 0.35128 -0.09573
 C518 C -0.15491 0.23618 0.19196
 C519 C -0.14002 0.26414 0.17970
 C520 C -0.13752 0.26929 0.14599
 C521 C -0.15040 0.24611 0.12441
 C522 C -0.16505 0.21785 0.13658
 C523 C -0.16733 0.21210 0.17069
 N524 N -0.12155 0.29806 0.13444
 N525 N -0.12161 0.30642 0.10439
 C526 C -0.10545 0.33509 0.09290
 C527 C -0.11182 0.34631 0.06118
 C528 C -0.09735 0.37475 0.04948
 C529 C -0.07571 0.39219 0.06918
 C530 C -0.06863 0.38049 0.10074
 C531 C -0.08359 0.35227 0.11266
 H532 H -0.15695 0.23356 0.21828
 H533 H -0.13047 0.28197 0.19660
 H534 H -0.14864 0.24951 0.09817
 H535 H -0.17360 0.19995 0.11922
 H536 H -0.12847 0.33324 0.04566
 H537 H -0.10309 0.38307 0.02496
 H538 H -0.05204 0.39348 0.11639
 H539 H -0.07811 0.34391 0.13721
 C540 C -0.19991 0.76657 -0.15234
 C541 C -0.18770 0.73888 -0.13665
 C542 C -0.15472 0.73314 -0.13572
 C543 C -0.13385 0.75593 -0.14998
 C544 C -0.14590 0.78382 -0.16532
 C545 C -0.17924 0.78956 -0.16721
 N546 N -0.14300 0.70383 -0.12074
 N547 N -0.11397 0.69493 -0.12387
 C548 C -0.10167 0.66569 -0.10934
 C549 C -0.07116 0.65503 -0.11844
 C550 C -0.05863 0.62616 -0.10555
 C551 C -0.07631 0.60768 -0.08288
 C552 C -0.10672 0.61869 -0.07322
 C553 C -0.11944 0.64740 -0.08654
 H554 H -0.22565 0.76948 -0.15372
 H555 H -0.20406 0.72143 -0.12582
 H556 H -0.10819 0.75224 -0.14924
 H557 H -0.12905 0.80115 -0.17549
 H558 H -0.05722 0.66897 -0.13591
 H559 H -0.03504 0.61836 -0.11326
 H560 H -0.12080 0.60490 -0.05576
 H561 H -0.14304 0.65529 -0.07902
 C562 C 0.12836 0.79228 0.15886
 C563 C 0.11310 0.76431 0.14714
 C564 C 0.13107 0.73779 0.13607
 C565 C 0.16471 0.73951 0.13698
 C566 C 0.18000 0.76730 0.14915
 C567 C 0.16200 0.79401 0.16025
 N568 N 0.11471 0.70944 0.12423
 N569 N 0.12946 0.68678 0.10932
 C570 C 0.11369 0.65810 0.09754
 C571 C 0.13014 0.63786 0.07585
 C572 C 0.11553 0.60995 0.06333
 C573 C 0.08430 0.60140 0.07284
 C574 C 0.06790 0.62138 0.09510
 C575 C 0.08240 0.64973 0.10720
 H576 H 0.11392 0.81259 0.16701
 H577 H 0.08719 0.76335 0.14650
 H578 H 0.17915 0.71924 0.12873
 H579 H 0.20590 0.76781 0.15030
 H580 H 0.15427 0.64399 0.06831
 H581 H 0.12877 0.59495 0.04629
 H582 H 0.04377 0.61537 0.10272
 H583 H 0.06929 0.66496 0.12412
 C584 C 0.20990 1.12550 0.83836
 C585 C 0.23676 1.10972 0.85138
 C586 C 0.26180 1.12776 0.86510
 C587 C 0.25948 1.16191 0.86609
 C588 C 0.23285 1.17772 0.85277
 C589 C 0.20793 1.15976 0.83819
 N590 N 0.28961 1.11112 0.87718
 N591 N 0.31133 1.12618 0.89293
 C592 C 0.33986 1.11067 0.90455
 C593 C 0.35983 1.12794 0.92581
 C594 C 0.38811 1.11398 0.93744
 C595 C 0.39718 1.08256 0.92754
 C596 C 0.37727 1.06523 0.90596
 C597 C 0.34864 1.07911 0.89466
 H598 H 0.19078 1.11094 0.82807
 H599 H 0.23813 1.08338 0.85068
 H600 H 0.27851 1.17645 0.87659
 H601 H 0.23221 1.20405 0.85328
 H602 H 0.35335 1.15230 0.93348
 H603 H 0.40301 1.12791 0.95401
 H604 H 0.38369 1.04092 0.89807
 H605 H 0.33361 1.06540 0.87805
 C606 C 0.21068 0.83528 1.12479
 C607 C 0.23864 0.84776 1.11065
 C608 C 0.26297 0.86070 1.13032
 C609 C 0.25929 0.86048 1.16453
 C610 C 0.23158 0.84753 1.17872
 C611 C 0.20680 0.83502 1.15902
 N612 N 0.29117 0.87367 1.11507
 N613 N 0.31151 0.89066 1.13082
 C614 C 0.34007 0.90316 1.11587
 C615 C 0.35850 0.92607 1.13287
 C616 C 0.38662 0.93858 1.11910
 C617 C 0.39703 0.92790 1.08824
 C618 C 0.37858 0.90480 1.07124
 C619 C 0.35022 0.89265 1.08483
 H620 H 0.19192 0.82607 1.10899
 H621 H 0.24119 0.84774 1.08425
 H622 H 0.27790 0.87004 1.18029
 H623 H 0.22948 0.84725 1.20515
 H624 H 0.35096 0.93433 1.15681
 H625 H 0.40037 0.95635 1.13274
 H626 H 0.38599 0.89622 1.04736
 H627 H 0.33646 0.87486 1.07127
 C628 C 0.79204 1.13377 1.16709
 C629 C 0.76524 1.11814 1.15407
 C630 C 0.74039 1.13618 1.14008
 C631 C 0.74304 1.17030 1.13836
 C632 C 0.76979 1.18612 1.15161
 C633 C 0.79453 1.16816 1.16693
 N634 N 0.71240 1.11933 1.12883
 N635 N 0.68996 1.13383 1.11354
 C636 C 0.66158 1.11729 1.10295
 C637 C 0.64093 1.13332 1.08131
 C638 C 0.61314 1.11803 1.07019
 C639 C 0.60516 1.08650 1.08102
 C640 C 0.62560 1.07051 1.10320
 C641 C 0.65379 1.08571 1.11394
 H642 H 0.81085 1.11890 1.17766
 H643 H 0.76364 1.09182 1.15525
 H644 H 0.72406 1.18481 1.12765
 H645 H 0.77031 1.21249 1.15133
 H646 H 0.64658 1.15767 1.07278
 H647 H 0.59779 1.13100 1.05318
 H648 H 0.62003 1.04618 1.11183
 H649 H 0.66933 1.07292 1.13089
 C650 C 0.75937 0.84660 0.80635
 C651 C 0.73201 0.86227 0.81816
 C652 C 0.72604 0.86382 0.85179
 C653 C 0.74815 0.84997 0.87372
 C654 C 0.77574 0.83465 0.86205
 C655 C 0.78184 0.83235 0.82806
 N656 N 0.69731 0.87928 0.86305
 N657 N 0.68820 0.87715 0.89273
 C658 C 0.65958 0.89244 0.90441
 C659 C 0.64850 0.88450 0.93575
 C660 C 0.62032 0.89833 0.94777
 C661 C 0.60295 0.92080 0.92873
 C662 C 0.61436 0.92924 0.89746
 C663 C 0.64237 0.91499 0.88526
 H664 H 0.76250 0.84489 0.78009
 H665 H 0.71508 0.87275 0.80099
 H666 H 0.74425 0.85118 0.89990
 H667 H 0.79263 0.82500 0.87974
 H668 H 0.66159 0.86724 0.95078
 H669 H 0.61221 0.89154 0.97205
 H670 H 0.60146 0.94655 0.88232
 H671 H 0.65059 0.92165 0.86100
   
