data_POSCAR
  _audit_creation_date              2014-09-24
  _audit_creation_method            'ToBaCCo'
  _symmetry_space_group_name_H-M    'P1'
  _symmetry_Int_Tables_number       1
  _symmetry_cell_setting            triclinic
  loop_
  _symmetry_equiv_pos_as_xyz
 x,y,z
_cell_length_a 44.9844
_cell_length_b 45.7524
_cell_length_c 45.5023
_cell_angle_alpha 84.384800
_cell_angle_beta 85.117600
_cell_angle_gamma 91.606700
loop_
  _atom_site_label
  _atom_site_type_symbol
  _atom_site_fract_x
  _atom_site_fract_y
  _atom_site_fract_z
N1 N 0.23789 0.21243 0.19112
 N2 N 0.22239 0.23229 0.17694
 C3 C 0.23857 0.24362 0.15194
 C4 C 0.26564 0.22989 0.15027
 C5 C 0.26435 0.21022 0.17555
 H6 H 0.23115 0.26052 0.13620
 H7 H 0.28157 0.19568 0.18239
 Cu8 Cu 0.18296 0.24183 0.19299
 Cu9 Cu 0.22271 0.19081 0.22864
 Cu10 Cu 0.15120 0.20630 0.25634
 N11 N 0.15034 0.25833 0.21592
 N12 N 0.13777 0.24436 0.24063
 C13 C 0.11627 0.26087 0.25211
 C14 C 0.11544 0.28685 0.23370
 C15 C 0.13747 0.28431 0.21089
 H16 H 0.10274 0.25451 0.27264
 H17 H 0.14424 0.30030 0.19229
 N18 N 0.17524 0.17595 0.27573
 N19 N 0.20298 0.17113 0.26597
 C20 C 0.21425 0.15107 0.28521
 C21 C 0.19257 0.14273 0.30811
 C22 C 0.16805 0.15885 0.30132
 H23 H 0.23661 0.14302 0.28278
 H24 H 0.14698 0.15903 0.31464
 H25 H 0.17874 0.19283 0.22114
 H26 H 0.19345 0.22210 0.24232
 N27 N 0.71689 -0.20454 0.20654
 N28 N 0.72373 -0.22884 0.19484
 C29 C 0.70635 -0.23250 0.17279
 C30 C 0.68720 -0.20921 0.17043
 C31 C 0.69479 -0.19182 0.19233
 H32 H 0.70761 -0.25101 0.15978
 H33 H 0.68465 -0.17181 0.19818
 Cu34 Cu 0.75382 -0.25430 0.21008
 Cu35 Cu 0.73590 -0.19276 0.24072
 Cu36 Cu 0.80111 -0.22814 0.25535
 N37 N 0.79123 -0.27277 0.21679
 N38 N 0.80964 -0.26264 0.23458
 C39 C 0.83325 -0.28000 0.23579
 C40 C 0.82962 -0.30229 0.21753
 C41 C 0.80257 -0.29672 0.20577
 H42 H 0.85159 -0.27647 0.24904
 H43 H 0.79147 -0.30930 0.19075
 N44 N 0.78821 -0.19303 0.27419
 N45 N 0.76328 -0.17972 0.26890
 C46 C 0.76002 -0.15760 0.28626
 C47 C 0.78399 -0.15701 0.30349
 C48 C 0.80140 -0.17980 0.29507
 H49 H 0.74111 -0.14356 0.28689
 H50 H 0.82191 -0.18669 0.30389
 H51 H 0.77508 -0.20870 0.22374
 H52 H 0.75551 -0.23120 0.25643
 N53 N 0.72613 0.20872 0.79655
 N54 N 0.74455 0.22799 0.80571
 C55 C 0.73131 0.23918 0.82959
 C56 C 0.70316 0.22594 0.83591
 C57 C 0.70068 0.20666 0.81455
 H58 H 0.74131 0.25590 0.84125
 H59 H 0.68131 0.19308 0.81157
 Cu60 Cu 0.78360 0.23756 0.78504
 Cu61 Cu 0.73544 0.18972 0.76055
 Cu62 Cu 0.79914 0.21611 0.71705
 N63 N 0.81601 0.25590 0.75815
 N64 N 0.82120 0.24842 0.73112
 C65 C 0.84293 0.26635 0.71648
 C66 C 0.85215 0.28613 0.73549
 C67 C 0.83453 0.27855 0.76188
 H68 H 0.85128 0.26496 0.69370
 H69 H 0.83393 0.28953 0.78188
 N70 N 0.77373 0.18347 0.70698
 N71 N 0.74908 0.17375 0.72323
 C72 C 0.73602 0.15235 0.70992
 C73 C 0.75352 0.14820 0.68428
 C74 C 0.77726 0.16824 0.68317
 H75 H 0.71539 0.14055 0.71827
 H76 H 0.79534 0.17195 0.66585
 H77 H 0.78152 0.19470 0.75737
 H78 H 0.76035 0.22619 0.74121
 N79 N 0.27345 -0.22780 0.83121
 N80 N 0.26082 -0.25284 0.84341
 C81 C 0.27842 -0.26536 0.86319
 C82 C 0.30318 -0.24693 0.86377
 C83 C 0.29928 -0.22323 0.84331
 H84 H 0.27350 -0.28621 0.87632
 H85 H 0.31454 -0.20454 0.83707
 Cu86 Cu 0.22248 -0.26671 0.83278
 Cu87 Cu 0.25640 -0.20420 0.79917
 Cu88 Cu 0.19327 -0.23403 0.77312
 N89 N 0.19054 -0.28559 0.81473
 N90 N 0.17962 -0.27302 0.79100
 C91 C 0.15911 -0.29138 0.78210
 C92 C 0.15679 -0.31698 0.80145
 C93 C 0.17713 -0.31227 0.82201
 H94 H 0.14687 -0.28625 0.76295
 H95 H 0.18272 -0.32740 0.84030
 N96 N 0.21071 -0.19497 0.75798
 N97 N 0.23548 -0.18406 0.76696
 C98 C 0.24315 -0.15841 0.75052
 C99 C 0.22189 -0.15277 0.73067
 C100 C 0.20163 -0.17630 0.73609
 H101 H 0.26283 -0.14490 0.75261
 H102 H 0.18244 -0.18009 0.72400
 H103 H 0.21242 -0.21841 0.80875
 H104 H 0.23648 -0.24049 0.78438
 N105 N 0.75039 -0.20580 0.81176
 N106 N 0.75724 -0.23092 0.82571
 C107 C 0.74033 -0.23538 0.85177
 C108 C 0.72224 -0.21162 0.85435
 C109 C 0.72932 -0.19322 0.82861
 H110 H 0.74069 -0.25465 0.86750
 H111 H 0.71865 -0.17304 0.82193
 Cu112 Cu 0.78692 -0.25583 0.80809
 Cu113 Cu 0.76602 -0.19362 0.77114
 Cu114 Cu 0.82223 -0.23421 0.74068
 N115 N 0.81876 -0.27833 0.79047
 N116 N 0.83186 -0.27011 0.76394
 C117 C 0.85225 -0.28977 0.75682
 C118 C 0.85236 -0.31156 0.78032
 C119 C 0.83076 -0.30335 0.80136
 H120 H 0.86630 -0.28784 0.73621
 H121 H 0.82382 -0.31490 0.82281
 N122 N 0.80919 -0.19721 0.72065
 N123 N 0.78782 -0.18162 0.73229
 C124 C 0.78355 -0.15815 0.71302
 C125 C 0.80315 -0.15900 0.68794
 C126 C 0.81908 -0.18409 0.69368
 H127 H 0.76721 -0.14179 0.71690
 H128 H 0.83608 -0.19263 0.67897
 H129 H 0.77890 -0.23420 0.75819
 H130 H 0.80661 -0.21250 0.77638
 N131 N 0.26200 0.19082 0.82154
 N132 N 0.25320 0.21440 0.83365
 C133 C 0.26956 0.21837 0.85649
 C134 C 0.28954 0.19596 0.85895
 C135 C 0.28401 0.17885 0.83642
 H136 H 0.26725 0.23629 0.87023
 H137 H 0.29588 0.15972 0.83059
 Cu138 Cu 0.22165 0.23791 0.81799
 Cu139 Cu 0.24587 0.17859 0.78612
 Cu140 Cu 0.19085 0.22106 0.75671
 N141 N 0.19094 0.26168 0.80103
 N142 N 0.17890 0.25488 0.77718
 C143 C 0.15869 0.27489 0.77001
 C144 C 0.15793 0.29553 0.79044
 C145 C 0.17879 0.28632 0.80982
 H146 H 0.14571 0.27442 0.75115
 H147 H 0.18497 0.29689 0.82873
 N148 N 0.20592 0.18602 0.73917
 N149 N 0.22688 0.16986 0.75034
 C150 C 0.23312 0.14834 0.73284
 C151 C 0.21524 0.15099 0.70947
 C152 C 0.19823 0.17512 0.71432
 H153 H 0.24969 0.13208 0.73668
 H154 H 0.18207 0.18460 0.70028
 H155 H 0.23377 0.21999 0.76985
 H156 H 0.20451 0.19640 0.79323
 N157 N 0.26749 -0.18048 0.21346
 N158 N 0.25813 -0.20395 0.20198
 C159 C 0.27756 -0.20921 0.17910
 C160 C 0.30046 -0.18780 0.17598
 C161 C 0.29306 -0.16985 0.19820
 H162 H 0.27539 -0.22771 0.16628
 H163 H 0.30563 -0.15093 0.20362
 Cu164 Cu 0.22195 -0.22602 0.21872
 Cu165 Cu 0.24653 -0.16677 0.24851
 Cu166 Cu 0.20681 -0.22361 0.29194
 N167 N 0.19231 -0.25276 0.24157
 N168 N 0.18732 -0.25237 0.27042
 C169 C 0.16817 -0.27469 0.28126
 C170 C 0.16040 -0.28970 0.25791
 C171 C 0.17606 -0.27508 0.23297
 H172 H 0.16057 -0.27969 0.30445
 H173 H 0.17663 -0.28108 0.21053
 N174 N 0.21903 -0.18659 0.30725
 N175 N 0.23349 -0.16466 0.29051
 C176 C 0.23806 -0.14243 0.30709
 C177 C 0.22566 -0.15065 0.33574
 C178 C 0.21373 -0.17879 0.33493
 H179 H 0.24951 -0.12179 0.29880
 H180 H 0.20215 -0.19269 0.35316
 H181 H 0.24336 -0.20996 0.26220
 H182 H 0.20670 -0.19327 0.25623
 N183 N 0.73230 0.23117 0.15510
 N184 N 0.75044 0.24901 0.13700
 C185 C 0.73715 0.25648 0.11201
 C186 C 0.70931 0.24220 0.11456
 C187 C 0.70708 0.22639 0.14221
 H188 H 0.74703 0.27108 0.09341
 H189 H 0.68829 0.21271 0.15242
 Cu190 Cu 0.78939 0.26093 0.14820
 Cu191 Cu 0.74263 0.21474 0.19374
 Cu192 Cu 0.81303 0.23341 0.21296
 N193 N 0.82164 0.28013 0.16588
 N194 N 0.83043 0.26962 0.19151
 C195 C 0.85217 0.28752 0.19903
 C196 C 0.85733 0.31054 0.17688
 C197 C 0.83760 0.30505 0.15612
 H198 H 0.86332 0.28404 0.21916
 H199 H 0.83447 0.31861 0.13585
 N200 N 0.78529 0.20538 0.23791
 N201 N 0.75771 0.19997 0.23153
 C202 C 0.74355 0.18183 0.25373
 C203 C 0.76328 0.17520 0.27483
 C204 C 0.78959 0.19039 0.26410
 H205 H 0.72079 0.17340 0.25426
 H206 H 0.81005 0.19106 0.27493
 H207 H 0.77313 0.24788 0.20021
 H208 H 0.78748 0.21548 0.18229
 C209 C 0.27099 -0.01088 0.54332
 C210 C 0.26811 0.01983 0.54260
 C211 C 0.26603 0.03643 0.51530
 C212 C 0.26628 0.02297 0.48890
 C213 C 0.26863 -0.00783 0.48966
 C214 C 0.27120 -0.02435 0.51693
 H215 H 0.27306 -0.04799 0.51771
 H216 H 0.26397 0.06004 0.51458
 C217 C 0.77004 0.02182 0.50984
 C218 C 0.76699 -0.00908 0.51201
 C219 C 0.76565 -0.02321 0.48614
 C220 C 0.76741 -0.00707 0.45810
 C221 C 0.77070 0.02389 0.45606
 C222 C 0.77162 0.03800 0.48196
 H223 H 0.77491 0.06170 0.48033
 H224 H 0.76304 -0.04696 0.48788
 C225 C 0.51633 0.21628 0.01374
 C226 C 0.51611 0.22033 -0.01736
 C227 C 0.48913 0.22539 -0.02994
 C228 C 0.46208 0.22497 -0.01213
 C229 C 0.46199 0.21918 0.01892
 C230 C 0.48924 0.21569 0.03151
 H231 H 0.48926 0.21166 0.05540
 H232 H 0.48896 0.22804 -0.05388
 C233 C 0.52880 0.76645 0.02517
 C234 C 0.53062 0.76331 -0.00552
 C235 C 0.50483 0.76544 -0.02070
 C236 C 0.47715 0.77039 -0.00587
 C237 C 0.47492 0.77241 0.02502
 C238 C 0.50091 0.77095 0.04008
 H239 H 0.49925 0.77223 0.06383
 H240 H 0.50645 0.76390 -0.04441
 C241 C 0.01629 0.48738 0.21977
 C242 C -0.01510 0.48648 0.22529
 C243 C -0.02994 0.51251 0.22917
 C244 C -0.01418 0.53964 0.22758
 C245 C 0.01731 0.54047 0.22263
 C246 C 0.03215 0.51437 0.21880
 H247 H 0.05628 0.51513 0.21477
 H248 H -0.05407 0.51165 0.23319
 C249 C 0.01995 0.46681 0.74374
 C250 C -0.01141 0.46669 0.74369
 C251 C -0.02601 0.49333 0.74122
 C252 C -0.00997 0.52021 0.73952
 C253 C 0.02131 0.52042 0.74081
 C254 C 0.03595 0.49369 0.74268
 H255 H 0.05999 0.49384 0.74336
 H256 H -0.05015 0.49313 0.74148
 C257 C 0.31198 0.21353 0.12328
 C258 C 0.33661 0.21864 0.10219
 C259 C 0.34038 0.24588 0.08450
 C260 C 0.31899 0.26731 0.08787
 C261 C 0.29438 0.26197 0.10889
 C262 C 0.29086 0.23520 0.12703
 C263 C 0.36557 0.25130 0.06401
 C264 C 0.38695 0.22975 0.06100
 C265 C 0.38273 0.20230 0.07836
 C266 C 0.35763 0.19694 0.09879
 C267 C 0.40393 0.18072 0.07535
 C268 C 0.42934 0.18635 0.05564
 C269 C 0.43402 0.21359 0.03856
 C270 C 0.41272 0.23526 0.04125
 H271 H 0.30930 0.19259 0.13673
 H272 H 0.32142 0.28829 0.07446
 H273 H 0.27849 0.27908 0.11136
 H274 H 0.36865 0.27230 0.05063
 H275 H 0.35463 0.17599 0.11227
 H276 H 0.40100 0.15958 0.08844
 H277 H 0.44556 0.16941 0.05378
 H278 H 0.41655 0.25652 0.02857
 C279 C 0.65805 0.77376 0.13172
 C280 C 0.63468 0.77723 0.11327
 C281 C 0.61751 0.80258 0.11348
 C282 C 0.62409 0.82407 0.13210
 C283 C 0.64717 0.82032 0.15071
 C284 C 0.66444 0.79504 0.15100
 C285 C 0.59382 0.80585 0.09536
 C286 C 0.58684 0.78382 0.07738
 C287 C 0.60406 0.75843 0.07724
 C288 C 0.62798 0.75541 0.09499
 C289 C 0.59672 0.73617 0.05974
 C290 C 0.57236 0.73887 0.04274
 C291 C 0.55529 0.76410 0.04245
 C292 C 0.56263 0.78652 0.05988
 H293 H 0.67067 0.75403 0.13124
 H294 H 0.61119 0.84370 0.13251
 H295 H 0.65126 0.83742 0.16481
 H296 H 0.58058 0.82530 0.09558
 H297 H 0.64110 0.73587 0.09491
 H298 H 0.60950 0.71645 0.05960
 H299 H 0.56647 0.72094 0.03026
 H300 H 0.54932 0.80592 0.05992
 C301 C 0.65831 0.21044 -0.12941
 C302 C 0.63528 0.21656 -0.10840
 C303 C 0.63346 0.24508 -0.09903
 C304 C 0.65535 0.26670 -0.11017
 C305 C 0.67848 0.26028 -0.13080
 C306 C 0.67987 0.23227 -0.14092
 C307 C 0.60969 0.25155 -0.07894
 C308 C 0.58795 0.22973 -0.06786
 C309 C 0.59044 0.20094 -0.07653
 C310 C 0.61397 0.19461 -0.09683
 C311 C 0.56913 0.17896 -0.06498
 C312 C 0.54535 0.18547 -0.04529
 C313 C 0.54237 0.21404 -0.03705
 C314 C 0.56360 0.23620 -0.04841
 H315 H 0.65947 0.18863 -0.13676
 H316 H 0.65443 0.28863 -0.10313
 H317 H 0.69481 0.27749 -0.13944
 H318 H 0.60803 0.27353 -0.07206
 H319 H 0.61557 0.17265 -0.10378
 H320 H 0.57077 0.15680 -0.07130
 H321 H 0.52895 0.16829 -0.03670
 H322 H 0.56103 0.25834 -0.04225
 C323 C 0.34235 0.77161 -0.10627
 C324 C 0.36627 0.76679 -0.08871
 C325 C 0.37727 0.73820 -0.08390
 C326 C 0.36353 0.71479 -0.09596
 C327 C 0.33916 0.71964 -0.11266
 C328 C 0.32862 0.74807 -0.11819
 C329 C 0.40166 0.73343 -0.06700
 C330 C 0.41469 0.75671 -0.05415
 C331 C 0.40299 0.78510 -0.05805
 C332 C 0.37914 0.79003 -0.07563
 C333 C 0.41534 0.80808 -0.04421
 C334 C 0.43916 0.80306 -0.02683
 C335 C 0.45130 0.77516 -0.02347
 C336 C 0.43912 0.75206 -0.03725
 H337 H 0.33397 0.79352 -0.11014
 H338 H 0.37152 0.69272 -0.09235
 H339 H 0.32887 0.70124 -0.12174
 H340 H 0.41032 0.71157 -0.06365
 H341 H 0.37043 0.81187 -0.07892
 H342 H 0.40655 0.82990 -0.04679
 H343 H 0.44846 0.82103 -0.01628
 H344 H 0.44845 0.73047 -0.03440
 C345 C 0.09754 0.33668 0.21648
 C346 C 0.08050 0.36133 0.22101
 C347 C 0.06178 0.36178 0.24751
 C348 C 0.06023 0.33744 0.26888
 C349 C 0.07737 0.31302 0.26425
 C350 C 0.09639 0.31239 0.23813
 C351 C 0.04512 0.38662 0.25232
 C352 C 0.04709 0.41108 0.23099
 C353 C 0.06569 0.41052 0.20438
 C354 C 0.08219 0.38563 0.19953
 C355 C 0.06770 0.43502 0.18316
 C356 C 0.05153 0.45991 0.18826
 C357 C 0.03302 0.46067 0.21457
 C358 C 0.03097 0.43622 0.23595
 H359 H 0.11178 0.33669 0.19609
 H360 H 0.04596 0.33737 0.28931
 H361 H 0.07585 0.29483 0.28142
 H362 H 0.03083 0.38700 0.27271
 H363 H 0.09655 0.38530 0.17918
 H364 H 0.08185 0.43497 0.16266
 H365 H 0.05335 0.47861 0.17158
 H366 H 0.01715 0.43697 0.25654
 C367 C 0.12262 0.65439 0.77511
 C368 C 0.10513 0.62885 0.77333
 C369 C 0.10269 0.60642 0.79715
 C370 C 0.11814 0.60972 0.82211
 C371 C 0.13605 0.63489 0.82347
 C372 C 0.13855 0.65768 0.80007
 C373 C 0.08507 0.58095 0.79553
 C374 C 0.07039 0.57735 0.77008
 C375 C 0.07329 0.59954 0.74598
 C376 C 0.09038 0.62527 0.74788
 C377 C 0.05936 0.59540 0.72019
 C378 C 0.04265 0.56955 0.71833
 C379 C 0.03899 0.54784 0.74246
 C380 C 0.05310 0.55174 0.76820
 H381 H 0.12429 0.67118 0.75652
 H382 H 0.11658 0.59270 0.84056
 H383 H 0.14752 0.63643 0.84323
 H384 H 0.08308 0.56381 0.81390
 H385 H 0.09249 0.64233 0.72944
 H386 H 0.06171 0.61196 0.70134
 H387 H 0.03297 0.56634 0.69789
 H388 H 0.05061 0.53474 0.78669
 C389 C -0.12615 0.66969 0.22870
 C390 C -0.10790 0.64577 0.22448
 C391 C -0.11445 0.62634 0.20342
 C392 C -0.13908 0.63111 0.18699
 C393 C -0.15739 0.65465 0.19158
 C394 C -0.15137 0.67430 0.21256
 C395 C -0.09653 0.60225 0.19933
 C396 C -0.07241 0.59699 0.21646
 C397 C -0.06586 0.61629 0.23768
 C398 C -0.08349 0.64071 0.24137
 C399 C -0.04205 0.61053 0.25515
 C400 C -0.02513 0.58571 0.25188
 C401 C -0.03137 0.56655 0.23071
 C402 C -0.05502 0.57241 0.21301
 H403 H -0.12084 0.68416 0.24510
 H404 H -0.14438 0.61644 0.17071
 H405 H -0.17616 0.65729 0.17837
 H406 H -0.10162 0.58735 0.18315
 H407 H -0.07850 0.65550 0.25768
 H408 H -0.03683 0.62496 0.27167
 H409 H -0.00747 0.58120 0.26623
 H410 H -0.05997 0.55764 0.19669
 C411 C -0.11672 0.32501 0.75207
 C412 C -0.09653 0.34916 0.74582
 C413 C -0.08627 0.35867 0.71612
 C414 C -0.09544 0.34306 0.69330
 C415 C -0.11509 0.31863 0.69972
 C416 C -0.12657 0.30961 0.72913
 C417 C -0.06717 0.38368 0.70975
 C418 C -0.05784 0.39899 0.73279
 C419 C -0.06718 0.38870 0.76260
 C420 C -0.08661 0.36401 0.76889
 C421 C -0.05716 0.40349 0.78566
 C422 C -0.03843 0.42853 0.77928
 C423 C -0.02973 0.43925 0.74981
 C424 C -0.03947 0.42453 0.72658
 H425 H -0.12438 0.31821 0.77498
 H426 H -0.08760 0.34988 0.67041
 H427 H -0.12194 0.30756 0.68134
 H428 H -0.05969 0.39128 0.68692
 H429 H -0.09416 0.35647 0.79172
 H430 H -0.06395 0.39582 0.80860
 H431 H -0.03105 0.43988 0.79731
 H432 H -0.03281 0.43305 0.70383
 C433 C 0.22368 0.11860 0.34580
 C434 C 0.22677 0.09959 0.37139
 C435 C 0.20158 0.08332 0.38581
 C436 C 0.17363 0.08679 0.37463
 C437 C 0.17065 0.10629 0.34949
 C438 C 0.19564 0.12219 0.33477
 C439 C 0.20468 0.06415 0.41132
 C440 C 0.23250 0.06164 0.42300
 C441 C 0.25754 0.07844 0.40887
 C442 C 0.25459 0.09699 0.38297
 C443 C 0.28508 0.07672 0.42114
 C444 C 0.28776 0.05872 0.44729
 C445 C 0.26321 0.04162 0.46109
 C446 C 0.23563 0.04301 0.44888
 H447 H 0.24302 0.13113 0.33490
 H448 H 0.15406 0.07459 0.38545
 H449 H 0.14884 0.10863 0.34131
 H450 H 0.18540 0.05154 0.42231
 H451 H 0.27384 0.10972 0.37207
 H452 H 0.30442 0.08956 0.41070
 H453 H 0.30909 0.05786 0.45670
 H454 H 0.21662 0.02999 0.45986
 C455 C 0.77175 0.11699 0.64497
 C456 C 0.76657 0.09873 0.62280
 C457 C 0.73694 0.09138 0.61730
 C458 C 0.71304 0.10164 0.63482
 C459 C 0.71843 0.11953 0.65716
 C460 C 0.74778 0.12774 0.66206
 C461 C 0.73172 0.07419 0.59422
 C462 C 0.75578 0.06407 0.57677
 C463 C 0.78540 0.07064 0.58299
 C464 C 0.79059 0.08799 0.60588
 C465 C 0.80942 0.06007 0.56589
 C466 C 0.80419 0.04359 0.54250
 C467 C 0.77495 0.03758 0.53582
 C468 C 0.75076 0.04778 0.55296
 H469 H 0.79448 0.12283 0.64894
 H470 H 0.69019 0.09610 0.63105
 H471 H 0.69961 0.12761 0.67002
 H472 H 0.70901 0.06891 0.58969
 H473 H 0.81331 0.09339 0.61031
 H474 H 0.83223 0.06479 0.57042
 H475 H 0.82296 0.03586 0.52925
 H476 H 0.72819 0.04328 0.54752
 C477 C 0.24869 -0.11781 0.69086
 C478 C 0.24835 -0.09669 0.66633
 C479 C 0.22089 -0.08521 0.65850
 C480 C 0.19428 -0.09520 0.67519
 C481 C 0.19474 -0.11695 0.69891
 C482 C 0.22186 -0.12844 0.70687
 C483 C 0.22035 -0.06457 0.63366
 C484 C 0.24675 -0.05610 0.61585
 C485 C 0.27417 -0.06789 0.62342
 C486 C 0.27486 -0.08768 0.64890
 C487 C 0.30034 -0.06025 0.60490
 C488 C 0.29927 -0.04157 0.57885
 C489 C 0.27221 -0.02969 0.57139
 C490 C 0.24606 -0.03672 0.59006
 H491 H 0.26964 -0.12696 0.69664
 H492 H 0.17305 -0.08671 0.66947
 H493 H 0.17385 -0.12485 0.71106
 H494 H 0.19929 -0.05578 0.62769
 H495 H 0.29588 -0.09673 0.65467
 H496 H 0.32150 -0.06917 0.61026
 H497 H 0.31954 -0.03632 0.56446
 H498 H 0.22513 -0.02769 0.58400
 C499 C 0.77106 -0.11336 0.33111
 C500 C 0.77483 -0.09598 0.35441
 C501 C 0.79688 -0.10290 0.37408
 C502 C 0.81500 -0.12678 0.36990
 C503 C 0.81104 -0.14402 0.34677
 C504 C 0.78890 -0.13773 0.32724
 C505 C 0.80024 -0.08611 0.39784
 C506 C 0.78167 -0.06257 0.40235
 C507 C 0.75982 -0.05537 0.38250
 C508 C 0.75662 -0.07204 0.35859
 C509 C 0.74122 -0.03186 0.38720
 C510 C 0.74393 -0.01594 0.41158
 C511 C 0.76542 -0.02309 0.43151
 C512 C 0.78432 -0.04637 0.42668
 H513 H 0.75409 -0.10790 0.31618
 H514 H 0.83203 -0.13238 0.38475
 H515 H 0.82513 -0.16258 0.34465
 H516 H 0.81704 -0.09159 0.41303
 H517 H 0.73971 -0.06665 0.34350
 H518 H 0.72431 -0.02606 0.37228
 H519 H 0.72885 0.00165 0.41522
 H520 H 0.80096 -0.05192 0.44200
 C521 C 0.68067 0.76735 -0.10912
 C522 C 0.65592 0.77092 -0.08898
 C523 C 0.64914 0.79931 -0.08112
 C524 C 0.66710 0.82363 -0.09376
 C525 C 0.69108 0.81998 -0.11454
 C526 C 0.69802 0.79189 -0.12239
 C527 C 0.62409 0.80302 -0.06144
 C528 C 0.60506 0.77889 -0.05043
 C529 C 0.61160 0.75057 -0.05869
 C530 C 0.63728 0.74669 -0.07743
 C531 C 0.59185 0.72670 -0.04874
 C532 C 0.56558 0.73093 -0.03127
 C533 C 0.55916 0.75884 -0.02271
 C534 C 0.57904 0.78273 -0.03206
 H535 H 0.68562 0.74566 -0.11546
 H536 H 0.66219 0.84555 -0.08809
 H537 H 0.70426 0.83914 -0.12451
 H538 H 0.61892 0.82479 -0.05541
 H539 H 0.64226 0.72497 -0.08373
 H540 H 0.59640 0.70491 -0.05500
 H541 H 0.55018 0.71243 -0.02436
 H542 H 0.57373 0.80437 -0.02577
 C543 C 0.32438 0.21626 -0.10732
 C544 C 0.34774 0.21292 -0.08883
 C545 C 0.35948 0.18485 -0.08258
 C546 C 0.34759 0.16065 -0.09487
 C547 C 0.32469 0.16427 -0.11365
 C548 C 0.31296 0.19207 -0.12017
 C549 C 0.38329 0.18154 -0.06467
 C550 C 0.39599 0.20604 -0.05351
 C551 C 0.38428 0.23414 -0.05978
 C552 C 0.36001 0.23733 -0.07710
 C553 C 0.39756 0.25872 -0.04924
 C554 C 0.42264 0.25561 -0.03325
 C555 C 0.43428 0.22784 -0.02695
 C556 C 0.42081 0.20307 -0.03688
 H557 H 0.31579 0.23788 -0.11243
 H558 H 0.35628 0.13898 -0.09030
 H559 H 0.31610 0.14523 -0.12301
 H560 H 0.39237 0.16003 -0.06001
 H561 H 0.35114 0.25889 -0.08203
 H562 H 0.38899 0.28042 -0.05395
 H563 H 0.43321 0.27491 -0.02602
 H564 H 0.43020 0.18170 -0.03231
 C565 C 0.33251 0.79368 0.13413
 C566 C 0.35907 0.79462 0.11539
 C567 C 0.38137 0.81657 0.11726
 C568 C 0.37653 0.83744 0.13755
 C569 C 0.35012 0.83626 0.15623
 C570 C 0.32789 0.81423 0.15501
 C571 C 0.40828 0.81708 0.09912
 C572 C 0.41326 0.79573 0.07928
 C573 C 0.39077 0.77397 0.07719
 C574 C 0.36380 0.77364 0.09513
 C575 C 0.39582 0.75254 0.05753
 C576 C 0.42305 0.75236 0.04040
 C577 C 0.44558 0.77380 0.04231
 C578 C 0.44054 0.79550 0.06180
 H579 H 0.31574 0.77662 0.13257
 H580 H 0.39333 0.85448 0.13924
 H581 H 0.34743 0.85256 0.17183
 H582 H 0.42547 0.83381 0.10074
 H583 H 0.34669 0.75679 0.09364
 H584 H 0.37890 0.73564 0.05573
 H585 H 0.42677 0.73505 0.02604
 H586 H 0.45793 0.81200 0.06343
 C587 C 0.66438 0.22111 0.09435
 C588 C 0.64100 0.22334 0.07586
 C589 C 0.63936 0.24871 0.05576
 C590 C 0.66173 0.27097 0.05389
 C591 C 0.68502 0.26853 0.07241
 C592 C 0.68621 0.24387 0.09319
 C593 C 0.61509 0.25163 0.03835
 C594 C 0.59240 0.22957 0.04099
 C595 C 0.59456 0.20384 0.06053
 C596 C 0.61891 0.20084 0.07771
 C597 C 0.57188 0.18185 0.06318
 C598 C 0.54684 0.18564 0.04728
 C599 C 0.54418 0.21134 0.02833
 C600 C 0.56715 0.23315 0.02505
 H601 H 0.66535 0.20170 0.10987
 H602 H 0.66093 0.29052 0.03851
 H603 H 0.70155 0.28637 0.07109
 H604 H 0.61356 0.27128 0.02324
 H605 H 0.62030 0.18130 0.09302
 H606 H 0.57323 0.16198 0.07799
 H607 H 0.52926 0.16867 0.05005
 H608 H 0.56479 0.25333 0.01101
 C609 C -0.11200 0.65607 0.75715
 C610 C -0.09445 0.63118 0.75882
 C611 C -0.09372 0.61376 0.78612
 C612 C -0.11104 0.62124 0.81115
 C613 C -0.12901 0.64566 0.80920
 C614 C -0.12966 0.66362 0.78224
 C615 C -0.07598 0.58899 0.78788
 C616 C -0.05957 0.58100 0.76246
 C617 C -0.06086 0.59809 0.73497
 C618 C -0.07796 0.62325 0.73341
 C619 C -0.04544 0.58941 0.70935
 C620 C -0.02895 0.56399 0.71090
 C621 C -0.02680 0.54747 0.73819
 C622 C -0.04227 0.55590 0.76391
 H623 H -0.11228 0.66896 0.73594
 H624 H -0.11084 0.60807 0.83226
 H625 H -0.14192 0.65058 0.82913
 H626 H -0.07530 0.57572 0.80890
 H627 H -0.07879 0.63641 0.71235
 H628 H -0.04654 0.60199 0.68805
 H629 H -0.01798 0.55708 0.69075
 H630 H -0.04111 0.54266 0.78487
 C631 C -0.11356 0.34625 0.20262
 C632 C -0.09441 0.37112 0.20199
 C633 C -0.08245 0.38559 0.17446
 C634 C -0.09015 0.37512 0.14806
 C635 C -0.10975 0.35075 0.14889
 C636 C -0.12157 0.33607 0.17611
 C637 C -0.06339 0.41052 0.17374
 C638 C -0.05679 0.42165 0.20020
 C639 C -0.06915 0.40744 0.22773
 C640 C -0.08754 0.38206 0.22846
 C641 C -0.06333 0.41917 0.25410
 C642 C -0.04574 0.44495 0.25321
 C643 C -0.03314 0.45892 0.22604
 C644 C -0.03851 0.44715 0.19958
 H645 H -0.12287 0.33533 0.22374
 H646 H -0.08126 0.38598 0.12676
 H647 H -0.11544 0.34321 0.12818
 H648 H -0.05416 0.42156 0.15262
 H649 H -0.09694 0.37114 0.24958
 H650 H -0.07272 0.40865 0.27537
 H651 H -0.04177 0.45396 0.27373
 H652 H -0.02894 0.45821 0.17860
 C653 C 0.12095 0.32950 0.76817
 C654 C 0.10391 0.35473 0.76831
 C655 C 0.10521 0.37284 0.79165
 C656 C 0.12337 0.36525 0.81453
 C657 C 0.14029 0.34011 0.81422
 C658 C 0.13944 0.32198 0.79101
 C659 C 0.08850 0.39830 0.79163
 C660 C 0.07058 0.40593 0.76849
 C661 C 0.06915 0.38767 0.74524
 C662 C 0.08576 0.36220 0.74533
 C663 C 0.05134 0.39538 0.72206
 C664 C 0.03526 0.42103 0.72178
 C665 C 0.03645 0.43924 0.74476
 C666 C 0.05423 0.43166 0.76805
 H667 H 0.11987 0.31599 0.75003
 H668 H 0.12459 0.37883 0.83265
 H669 H 0.15404 0.33503 0.83227
 H670 H 0.08960 0.41225 0.80949
 H671 H 0.08474 0.34831 0.72741
 H672 H 0.05011 0.38175 0.70400
 H673 H 0.02224 0.42698 0.70330
 H674 H 0.05528 0.44582 0.78573
 C675 C 0.12438 0.67749 0.23610
 C676 C 0.10622 0.65174 0.23792
 C677 C 0.10561 0.63117 0.26332
 C678 C 0.12245 0.63704 0.28673
 C679 C 0.13988 0.66298 0.28502
 C680 C 0.14124 0.68327 0.25966
 C681 C 0.08816 0.60508 0.26498
 C682 C 0.07079 0.59951 0.24185
 C683 C 0.07060 0.62045 0.21683
 C684 C 0.08856 0.64630 0.21489
 C685 C 0.05241 0.61513 0.19419
 C686 C 0.03474 0.58924 0.19624
 C687 C 0.03534 0.56819 0.22072
 C688 C 0.05346 0.57334 0.24340
 H689 H 0.12504 0.69322 0.21661
 H690 H 0.12212 0.62159 0.30641
 H691 H 0.15282 0.66687 0.30335
 H692 H 0.08801 0.58919 0.28432
 H693 H 0.08869 0.66221 0.19556
 H694 H 0.05182 0.63098 0.17496
 H695 H 0.02081 0.58544 0.17861
 H696 H 0.05371 0.55708 0.26239
 C697 C 0.78299 -0.11856 0.65463
 C698 C 0.78467 -0.10001 0.62802
 C699 C 0.80933 -0.10127 0.60679
 C700 C 0.83200 -0.12081 0.61268
 C701 C 0.83011 -0.13926 0.63916
 C702 C 0.80554 -0.13853 0.66034
 C703 C 0.81082 -0.08319 0.57993
 C704 C 0.78788 -0.06395 0.57394
 C705 C 0.76330 -0.06250 0.59527
 C706 C 0.76189 -0.08050 0.62218
 C707 C 0.74037 -0.04326 0.58916
 C708 C 0.74165 -0.02579 0.56210
 C709 C 0.76594 -0.02713 0.54087
 C710 C 0.78898 -0.04628 0.54684
 H711 H 0.76378 -0.11776 0.67052
 H712 H 0.85113 -0.12197 0.59672
 H713 H 0.84804 -0.15405 0.64295
 H714 H 0.82969 -0.08428 0.56361
 H715 H 0.74296 -0.07949 0.63844
 H716 H 0.72133 -0.04193 0.60518
 H717 H 0.72347 -0.01150 0.55753
 H718 H 0.80768 -0.04735 0.53034
 C719 C 0.24575 -0.10941 0.36183
 C720 C 0.24588 -0.09336 0.38661
 C721 C 0.22518 -0.10113 0.41151
 C722 C 0.20477 -0.12477 0.41120
 C723 C 0.20495 -0.14076 0.38657
 C724 C 0.22541 -0.13332 0.36166
 C725 C 0.22534 -0.08531 0.43639
 C726 C 0.24616 -0.06200 0.43686
 C727 C 0.26695 -0.05426 0.41202
 C728 C 0.26658 -0.06989 0.38700
 C729 C 0.28799 -0.03119 0.41279
 C730 C 0.28856 -0.01606 0.43798
 C731 C 0.26783 -0.02343 0.46263
 C732 C 0.24671 -0.04648 0.46193
 H733 H 0.26187 -0.10356 0.34296
 H734 H 0.18872 -0.13099 0.43006
 H735 H 0.18883 -0.15883 0.38703
 H736 H 0.20946 -0.09131 0.45548
 H737 H 0.28255 -0.06396 0.36797
 H738 H 0.30424 -0.02509 0.39407
 H739 H 0.30550 0.00113 0.43840
 H740 H 0.23074 -0.05231 0.48097
 C741 C 0.77900 0.13678 0.31264
 C742 C 0.77292 0.11776 0.33874
 C743 C 0.74514 0.11872 0.35569
 C744 C 0.72362 0.13800 0.34575
 C745 C 0.72952 0.15618 0.31928
 C746 C 0.75728 0.15592 0.30273
 C747 C 0.73928 0.10031 0.38218
 C748 C 0.76052 0.08043 0.39159
 C749 C 0.78785 0.07870 0.37409
 C750 C 0.79401 0.09761 0.34796
 C751 C 0.80863 0.05811 0.38310
 C752 C 0.80260 0.03974 0.40943
 C753 C 0.77591 0.04193 0.42726
 C754 C 0.75491 0.06226 0.41828
 H755 H 0.80029 0.13622 0.29965
 H756 H 0.70215 0.13889 0.35833
 H757 H 0.71253 0.17082 0.31193
 H758 H 0.71815 0.10136 0.39537
 H759 H 0.81513 0.09655 0.33476
 H760 H 0.82958 0.05634 0.36988
 H761 H 0.81900 0.02417 0.41626
 H762 H 0.73426 0.06380 0.43210
 C763 C 0.23931 0.11492 0.67747
 C764 C 0.23989 0.09871 0.65278
 C765 C 0.21606 0.10040 0.63441
 C766 C 0.19198 0.11807 0.64118
 C767 C 0.19164 0.13424 0.66569
 C768 C 0.21532 0.13301 0.68401
 C769 C 0.21678 0.08465 0.60943
 C770 C 0.24117 0.06738 0.60244
 C771 C 0.26496 0.06553 0.62089
 C772 C 0.26412 0.08113 0.64599
 C773 C 0.28936 0.04834 0.61371
 C774 C 0.29034 0.03335 0.58835
 C775 C 0.26683 0.03509 0.56992
 C776 C 0.24230 0.05215 0.57709
 H777 H 0.25788 0.11385 0.69114
 H778 H 0.17347 0.11954 0.62740
 H779 H 0.17269 0.14764 0.67028
 H780 H 0.19853 0.08606 0.59529
 H781 H 0.28244 0.07983 0.66005
 H782 H 0.30783 0.04675 0.62753
 H783 H 0.30967 0.02073 0.58285
 H784 H 0.22413 0.05354 0.56285
   
