data_POSCAR
  _audit_creation_date              2014-09-24
  _audit_creation_method            'ToBaCCo'
  _symmetry_space_group_name_H-M    'P1'
  _symmetry_Int_Tables_number       1
  _symmetry_cell_setting            triclinic
  loop_
  _symmetry_equiv_pos_as_xyz
 x,y,z
_cell_length_a 46.8628
_cell_length_b 45.1210
_cell_length_c 44.9733
_cell_angle_alpha 87.767600
_cell_angle_beta 90.341000
_cell_angle_gamma 86.878400
loop_
  _atom_site_label
  _atom_site_type_symbol
  _atom_site_fract_x
  _atom_site_fract_y
  _atom_site_fract_z
N1 N 0.59470 0.67430 0.60891
 N2 N 0.57724 0.65653 0.62257
 C3 C 0.55253 0.67180 0.62817
 C4 C 0.55468 0.70081 0.61767
 C5 C 0.58177 0.70165 0.60566
 H6 H 0.53453 0.66262 0.63949
 H7 H 0.59098 0.72049 0.59451
 Cu8 Cu 0.58860 0.61559 0.63349
 Cu9 Cu 0.63153 0.65977 0.59363
 Cu10 Cu 0.65333 0.58758 0.61494
 N11 N 0.60688 0.58151 0.65519
 N12 N 0.63294 0.57167 0.64895
 C13 C 0.64100 0.54920 0.66822
 C14 C 0.61861 0.54440 0.68766
 C15 C 0.59722 0.56538 0.67845
 H16 H 0.66143 0.53692 0.66747
 H17 H 0.57649 0.56944 0.68838
 N18 N 0.67514 0.61209 0.58728
 N19 N 0.66750 0.64001 0.57991
 C20 C 0.68591 0.65016 0.55948
 C21 C 0.70585 0.62740 0.55357
 C22 C 0.69839 0.60366 0.57171
 H23 H 0.68390 0.67182 0.54827
 H24 H 0.70867 0.58160 0.57287
 H25 H 0.62262 0.61598 0.59238
 H26 H 0.63801 0.62837 0.62798
 N27 N 0.91013 0.33334 0.11621
 N28 N 0.91773 0.34273 0.14220
 C29 C 0.94173 0.32740 0.15163
 C30 C 0.95000 0.30744 0.13011
 C31 C 0.92933 0.31206 0.10787
 H32 H 0.95261 0.33111 0.17230
 H33 H 0.92766 0.30017 0.08759
 Cu34 Cu 0.89609 0.37472 0.16091
 Cu35 Cu 0.87480 0.34788 0.09630
 Cu36 Cu 0.84008 0.41014 0.12469
 N37 N 0.88044 0.41319 0.17262
 N38 N 0.85795 0.42648 0.15925
 C39 C 0.85116 0.45206 0.17268
 C40 C 0.87077 0.45511 0.19534
 C41 C 0.88908 0.43008 0.19460
 H42 H 0.83367 0.46760 0.16609
 H43 H 0.90710 0.42438 0.20926
 N44 N 0.82575 0.38999 0.08987
 N45 N 0.83871 0.36585 0.07952
 C46 C 0.82319 0.35643 0.05680
 C47 C 0.79954 0.37578 0.05237
 C48 C 0.80189 0.39688 0.07362
 H49 H 0.82870 0.33701 0.04425
 H50 H 0.78689 0.41539 0.07741
 H51 H 0.87841 0.39029 0.11163
 H52 H 0.85331 0.36601 0.13213
 N53 N 0.41424 0.16896 -0.10693
 N54 N 0.42509 0.15813 -0.13139
 C55 C 0.44807 0.17329 -0.13920
 C56 C 0.45199 0.19441 -0.11826
 C57 C 0.43017 0.19097 -0.09808
 H58 H 0.46119 0.16912 -0.15844
 H59 H 0.42585 0.20399 -0.07877
 Cu60 Cu 0.40837 0.12498 -0.15030
 Cu61 Cu 0.37959 0.15473 -0.08905
 Cu62 Cu 0.34806 0.09725 -0.12330
 N63 N 0.39005 0.09297 -0.16951
 N64 N 0.36613 0.08281 -0.15917
 C65 C 0.35743 0.06174 -0.17696
 C66 C 0.37705 0.05826 -0.19956
 C67 C 0.39757 0.07835 -0.19409
 H68 H 0.33840 0.04957 -0.17353
 H69 H 0.41622 0.08236 -0.20738
 N70 N 0.33293 0.11482 -0.08683
 N71 N 0.34447 0.13733 -0.07431
 C72 C 0.32848 0.14538 -0.05086
 C73 C 0.30605 0.12680 -0.04831
 C74 C 0.30959 0.10763 -0.07138
 H75 H 0.33288 0.16328 -0.03651
 H76 H 0.29569 0.09026 -0.07690
 H77 H 0.38447 0.11202 -0.10389
 H78 H 0.36275 0.13957 -0.12789
 N79 N 0.09505 0.81364 0.38803
 N80 N 0.08679 0.82460 0.36171
 C81 C 0.06381 0.81057 0.35274
 C82 C 0.05697 0.78985 0.37492
 C83 C 0.07746 0.79255 0.39699
 H84 H 0.05249 0.81591 0.33205
 H85 H 0.07989 0.77992 0.41785
 Cu86 Cu 0.10610 0.85709 0.34220
 Cu87 Cu 0.12865 0.82722 0.40797
 Cu88 Cu 0.13850 0.90095 0.38946
 N89 N 0.11888 0.89574 0.32934
 N90 N 0.13021 0.91337 0.34823
 C91 C 0.13489 0.93950 0.33416
 C92 C 0.12648 0.93796 0.30474
 C93 C 0.11650 0.90983 0.30243
 H94 H 0.14413 0.95804 0.34447
 H95 H 0.10736 0.90067 0.28288
 N96 N 0.15581 0.88006 0.42515
 N97 N 0.15293 0.85159 0.43146
 C98 C 0.16983 0.84290 0.45480
 C99 C 0.18419 0.86711 0.46369
 C100 C 0.17464 0.89033 0.44445
 H101 H 0.17198 0.82043 0.46413
 H102 H 0.18219 0.91257 0.44336
 H103 H 0.11054 0.86701 0.39495
 H104 H 0.14584 0.85820 0.37723
 C105 C 0.11031 0.15045 0.12961
 N106 N 0.11134 0.12778 0.15042
 C107 C 0.13078 0.10451 0.14826
 N108 N 0.14956 0.10427 0.12535
 C109 C 0.14919 0.12724 0.10486
 N110 N 0.12935 0.15013 0.10698
 C111 C 0.39614 0.86155 0.62372
 N112 N 0.37268 0.85844 0.60648
 C113 C 0.35027 0.87880 0.60659
 N114 N 0.35124 0.90213 0.62466
 C115 C 0.37443 0.90543 0.64227
 N116 N 0.39697 0.88518 0.64151
 C117 C 0.89437 0.65389 0.37028
 N118 N 0.87407 0.65281 0.39168
 C119 C 0.85324 0.63307 0.39038
 N120 N 0.85301 0.61421 0.36756
 C121 C 0.87327 0.61501 0.34612
 N122 N 0.89391 0.63490 0.34760
 C123 C 0.60158 0.34767 -0.12127
 N124 N 0.60043 0.36880 -0.14367
 C125 C 0.62005 0.38987 -0.14521
 N126 N 0.64092 0.38977 -0.12411
 C127 C 0.64223 0.36882 -0.10154
 N128 N 0.62253 0.34781 -0.10027
 C129 C 0.02006 0.24345 0.13291
 C130 C 0.00572 0.25127 0.10575
 C131 C -0.01765 0.27212 0.10506
 C132 C -0.02634 0.28671 0.13088
 C133 C -0.01082 0.28008 0.15742
 C134 C 0.01182 0.25859 0.15852
 C135 C 0.04376 0.21974 0.13300
 C136 C 0.05677 0.20743 0.15937
 C137 C 0.07838 0.18491 0.15825
 C138 C 0.08794 0.17463 0.13086
 C139 C 0.07517 0.18669 0.10451
 C140 C 0.05269 0.20847 0.10542
 C141 C 0.01508 0.23864 0.07931
 C142 C 0.03850 0.21824 0.07906
 H143 H 0.00438 0.24493 0.05840
 H144 H 0.04513 0.20940 0.05796
 H145 H -0.02842 0.27750 0.08402
 H146 H -0.01653 0.29078 0.17781
 H147 H 0.08780 0.17563 0.17885
 H148 H 0.08199 0.17822 0.08330
 H149 H 0.02274 0.25434 0.17956
 H150 H 0.05012 0.21442 0.18105
 C151 C 0.48964 0.77182 0.62073
 C152 C 0.48216 0.74220 0.61704
 C153 C 0.50350 0.71917 0.61657
 C154 C 0.53244 0.72525 0.61848
 C155 C 0.53995 0.75471 0.62090
 C156 C 0.51885 0.77774 0.62226
 C157 C 0.46608 0.79561 0.62214
 C158 C 0.47091 0.82524 0.62873
 C159 C 0.44816 0.84656 0.62962
 C160 C 0.42018 0.83898 0.62350
 C161 C 0.41511 0.80949 0.61732
 C162 C 0.43766 0.78773 0.61721
 C163 C 0.45351 0.73577 0.61325
 C164 C 0.43179 0.75813 0.61274
 H165 H 0.44780 0.71313 0.61013
 H166 H 0.40999 0.75206 0.60926
 H167 H 0.49757 0.69652 0.61395
 H168 H 0.56220 0.75990 0.62225
 H169 H 0.45254 0.86916 0.63466
 H170 H 0.39343 0.80330 0.61323
 H171 H 0.52583 0.79998 0.62417
 H172 H 0.49201 0.83230 0.63358
 C173 C 0.98774 0.73272 0.37614
 C174 C 0.99598 0.74694 0.34921
 C175 C 1.01846 0.76632 0.34906
 C176 C 1.03416 0.77069 0.37519
 C177 C 1.02665 0.75528 0.40156
 C178 C 1.00368 0.73684 0.40212
 C179 C 0.96299 0.71306 0.37556
 C180 C 0.95092 0.70079 0.40158
 C181 C 0.92822 0.68212 0.39980
 C182 C 0.91734 0.67485 0.37209
 C183 C 0.92871 0.68749 0.34608
 C184 C 0.95091 0.70707 0.34765
 C185 C 0.98228 0.74111 0.32245
 C186 C 0.96071 0.72104 0.32160
 H187 H 0.98877 0.75171 0.30173
 H188 H 0.95123 0.71678 0.30025
 H189 H 1.02423 0.77707 0.32818
 H190 H 1.03802 0.75783 0.42221
 H191 H 0.91956 0.67278 0.42016
 H192 H 0.91989 0.68250 0.32461
 H193 H 0.99901 0.72568 0.42304
 H194 H 0.95852 0.70556 0.42348
 C195 C 0.51655 0.25870 -0.11632
 C196 C 0.50589 0.24952 -0.14381
 C197 C 0.48536 0.22799 -0.14429
 C198 C 0.47430 0.21629 -0.11769
 C199 C 0.48420 0.22609 -0.09051
 C200 C 0.50519 0.24685 -0.08974
 C201 C 0.53894 0.28123 -0.11677
 C202 C 0.55281 0.28982 -0.09083
 C203 C 0.57332 0.31113 -0.09242
 C204 C 0.58025 0.32472 -0.11980
 C205 C 0.56687 0.31604 -0.14581
 C206 C 0.54676 0.29407 -0.14456
 C207 C 0.51526 0.26238 -0.17061
 C208 C 0.53485 0.28456 -0.17095
 H209 H 0.50692 0.25556 -0.19166
 H210 H 0.54105 0.29416 -0.19226
 H211 H 0.47733 0.22099 -0.16541
 H212 H 0.47590 0.21742 -0.06969
 H213 H 0.58351 0.31732 -0.07206
 H214 H 0.57256 0.32597 -0.16716
 H215 H 0.51189 0.25362 -0.06817
 H216 H 0.54837 0.28015 -0.06916
 C217 C 0.12967 0.00669 0.23589
 C218 C 0.12364 0.01397 0.26562
 C219 C 0.12322 -0.00854 0.28804
 C220 C 0.12745 -0.03847 0.28111
 C221 C 0.13225 -0.04577 0.25150
 C222 C 0.13359 -0.02352 0.22915
 C223 C 0.13084 0.03147 0.21280
 C224 C 0.13961 0.02694 0.18332
 C225 C 0.14001 0.05076 0.16256
 C226 C 0.13127 0.07956 0.17053
 C227 C 0.12297 0.08440 0.19993
 C228 C 0.12330 0.06077 0.22120
 C229 C 0.11740 0.04357 0.27269
 C230 C 0.11664 0.06638 0.25084
 H231 H 0.11249 0.04913 0.29539
 H232 H 0.11118 0.08885 0.25735
 H233 H 0.11880 -0.00280 0.31081
 H234 H 0.13540 -0.06877 0.24566
 H235 H 0.14669 0.04655 0.14003
 H236 H 0.11681 0.10674 0.20642
 H237 H 0.13732 -0.03042 0.20675
 H238 H 0.14651 0.00527 0.17593
 C239 C 0.61611 0.47973 -0.24120
 C240 C 0.64242 0.48658 -0.25430
 C241 C 0.64303 0.50748 -0.27822
 C242 C 0.61784 0.52310 -0.28859
 C243 C 0.59195 0.51717 -0.27442
 C244 C 0.59103 0.49565 -0.25132
 C245 C 0.61627 0.45635 -0.21658
 C246 C 0.59106 0.44530 -0.20456
 C247 C 0.59238 0.42350 -0.18160
 C248 C 0.61879 0.41261 -0.16972
 C249 C 0.64401 0.42318 -0.18171
 C250 C 0.64296 0.44433 -0.20549
 C251 C 0.66807 0.47306 -0.24300
 C252 C 0.66837 0.45293 -0.21867
 H253 H 0.68830 0.47856 -0.25276
 H254 H 0.68881 0.44349 -0.21043
 H255 H 0.66345 0.51219 -0.28794
 H256 H 0.57203 0.52859 -0.28149
 H257 H 0.57266 0.41541 -0.17281
 H258 H 0.66451 0.41428 -0.17308
 H259 H 0.57052 0.49211 -0.24143
 H260 H 0.57017 0.45285 -0.21287
 C261 C 0.37342 0.99654 0.73001
 C262 C 0.40014 1.00473 0.74098
 C263 C 0.40123 1.02558 0.76334
 C264 C 0.37600 1.03753 0.77586
 C265 C 0.34960 1.02893 0.76537
 C266 C 0.34825 1.00888 0.74265
 C267 C 0.37312 0.97426 0.70616
 C268 C 0.34776 0.96623 0.69238
 C269 C 0.34844 0.94445 0.67119
 C270 C 0.37435 0.92994 0.66324
 C271 C 0.39987 0.93847 0.67610
 C272 C 0.39946 0.96074 0.69714
 C273 C 0.42553 0.99144 0.73019
 C274 C 0.42519 0.96956 0.70912
 H275 H 0.44601 0.99755 0.73868
 H276 H 0.44540 0.95949 0.70199
 H277 H 0.42174 1.03170 0.77173
 H278 H 0.32984 1.03790 0.77465
 H279 H 0.32843 0.93851 0.66150
 H280 H 0.42009 0.92782 0.66972
 H281 H 0.32731 1.00298 0.73573
 H282 H 0.32716 0.97643 0.69761
 C283 C 0.87464 0.52560 0.25678
 C284 C 0.84791 0.51641 0.24684
 C285 C 0.84679 0.49407 0.22602
 C286 C 0.87199 0.47963 0.21603
 C287 C 0.89840 0.48808 0.22660
 C288 C 0.89980 0.51093 0.24651
 C289 C 0.87493 0.54974 0.27873
 C290 C 0.90023 0.56242 0.28783
 C291 C 0.89948 0.58412 0.30914
 C292 C 0.87360 0.59348 0.32218
 C293 C 0.84817 0.58167 0.31264
 C294 C 0.84859 0.56038 0.29064
 C295 C 0.82251 0.52886 0.25846
 C296 C 0.82287 0.54991 0.28035
 H297 H 0.80204 0.52168 0.25106
 H298 H 0.80267 0.55833 0.28916
 H299 H 0.82628 0.48714 0.21842
 H300 H 0.91810 0.47714 0.21923
 H301 H 0.91936 0.59309 0.31598
 H302 H 0.82799 0.58929 0.32213
 H303 H 0.92071 0.51634 0.25402
 H304 H 0.92077 0.55598 0.27870
 C305 C 0.23818 0.13000 0.01576
 C306 C 0.24871 0.10245 0.00504
 C307 C 0.27048 0.10161 -0.01631
 C308 C 0.28287 0.12778 -0.02621
 C309 C 0.27319 0.15490 -0.01473
 C310 C 0.25100 0.15610 0.00583
 C311 C 0.21441 0.13003 0.03791
 C312 C 0.20054 0.15635 0.04766
 C313 C 0.17898 0.15525 0.06887
 C314 C 0.17089 0.12797 0.08116
 C315 C 0.18404 0.10158 0.07108
 C316 C 0.20528 0.10241 0.04917
 C317 C 0.23796 0.07590 0.01621
 C318 C 0.21713 0.07585 0.03824
 H319 H 0.24618 0.05477 0.00822
 H320 H 0.20993 0.05470 0.04659
 H321 H 0.27833 0.08048 -0.02461
 H322 H 0.28251 0.17537 -0.02200
 H323 H 0.16903 0.17593 0.07615
 H324 H 0.17749 0.08036 0.08002
 H325 H 0.24450 0.17759 0.01394
 H326 H 0.20588 0.17799 0.03908
 C327 C 0.76904 0.62680 0.48437
 C328 C 0.76167 0.65334 0.49900
 C329 C 0.74091 0.65349 0.52145
 C330 C 0.72804 0.62725 0.53033
 C331 C 0.73622 0.60079 0.51659
 C332 C 0.75632 0.60051 0.49385
 C333 C 0.79042 0.62779 0.45973
 C334 C 0.79713 0.60335 0.44198
 C335 C 0.81727 0.60531 0.41936
 C336 C 0.83148 0.63152 0.41400
 C337 C 0.82470 0.65613 0.43130
 C338 C 0.80397 0.65462 0.45368
 C339 C 0.77532 0.67941 0.49141
 C340 C 0.79637 0.67990 0.46961
 H341 H 0.76991 0.69968 0.50278
 H342 H 0.80655 0.70053 0.46484
 H343 H 0.73511 0.67393 0.53236
 H344 H 0.72661 0.58023 0.52299
 H345 H 0.82199 0.58603 0.40625
 H346 H 0.83518 0.67668 0.42696
 H347 H 0.76170 0.57947 0.48416
 H348 H 0.78690 0.58262 0.44495
 C349 C 0.73237 0.36968 -0.01249
 C350 C 0.74115 0.39777 -0.00424
 C351 C 0.76262 0.39963 0.01743
 C352 C 0.77646 0.37381 0.03014
 C353 C 0.76848 0.34603 0.02116
 C354 C 0.74659 0.34390 0.00029
 C355 C 0.70879 0.36866 -0.03506
 C356 C 0.69654 0.34206 -0.04254
 C357 C 0.67476 0.34226 -0.06389
 C358 C 0.66493 0.36885 -0.07860
 C359 C 0.67670 0.39551 -0.07105
 C360 C 0.69805 0.39568 -0.04901
 C361 C 0.72893 0.42378 -0.01817
 C362 C 0.70826 0.42272 -0.04048
 H363 H 0.73582 0.44529 -0.01209
 H364 H 0.69983 0.44345 -0.05092
 H365 H 0.76915 0.42119 0.02381
 H366 H 0.77895 0.32580 0.03061
 H367 H 0.66585 0.32144 -0.06920
 H368 H 0.66875 0.41626 -0.08186
 H369 H 0.74143 0.32193 -0.00579
 H370 H 0.70321 0.32094 -0.03196
 C371 C 0.25318 0.86809 0.52744
 C372 C 0.23653 0.89446 0.51986
 C373 C 0.21390 0.89395 0.49929
 C374 C 0.20715 0.86735 0.48643
 C375 C 0.22299 0.84106 0.49484
 C376 C 0.24572 0.84137 0.51499
 C377 C 0.27805 0.86986 0.54832
 C378 C 0.29723 0.84542 0.55545
 C379 C 0.32049 0.84838 0.57443
 C380 C 0.32515 0.87566 0.58705
 C381 C 0.30606 0.90009 0.58027
 C382 C 0.28290 0.89751 0.56074
 C383 C 0.24256 0.92116 0.53283
 C384 C 0.26503 0.92258 0.55310
 H385 H 0.22967 0.94131 0.52726
 H386 H 0.26878 0.94378 0.56253
 H387 H 0.20145 0.91431 0.49340
 H388 H 0.21831 0.82021 0.48529
 H389 H 0.33487 0.82916 0.57925
 H390 H 0.30963 0.92140 0.58958
 H391 H 0.25717 0.82047 0.52040
 H392 H 0.29495 0.82394 0.54630
   
