data_POSCAR
  _audit_creation_date              2014-09-24
  _audit_creation_method            'ToBaCCo'
  _symmetry_space_group_name_H-M    'P1'
  _symmetry_Int_Tables_number       1
  _symmetry_cell_setting            triclinic
  loop_
  _symmetry_equiv_pos_as_xyz
 x,y,z
_cell_length_a 29.0864
_cell_length_b 20.3885
_cell_length_c 27.3937
_cell_angle_alpha 91.417600
_cell_angle_beta 89.906200
_cell_angle_gamma 89.594000
loop_
  _atom_site_label
  _atom_site_type_symbol
  _atom_site_fract_x
  _atom_site_fract_y
  _atom_site_fract_z
C1 C 0.59881 0.63171 0.56890
 C2 C 0.64376 0.61349 0.55581
 C3 C 0.67075 0.57736 0.58725
 C4 C 0.65232 0.55737 0.63196
 C5 C 0.60755 0.57442 0.64417
 C6 C 0.58095 0.61243 0.61295
 C7 C 0.56668 0.67216 0.54785
 N8 N 0.53010 0.67778 0.57842
 C9 C 0.53841 0.64152 0.61828
 C10 C 0.59780 0.54719 0.68816
 N11 N 0.63544 0.51367 0.70342
 C12 C 0.66932 0.52031 0.66956
 C13 C 0.71298 0.56816 0.56490
 N14 N 0.71151 0.59689 0.52075
 C15 C 0.66950 0.62472 0.51494
 H16 H 0.57092 0.69922 0.51464
 H17 H 0.51639 0.64002 0.65015
 H18 H 0.56529 0.55120 0.70731
 H19 H 0.70317 0.49806 0.67121
 H20 H 0.74215 0.54145 0.57906
 H21 H 0.65853 0.65118 0.48315
 C22 C 0.92035 0.36411 0.06283
 C23 C 0.87537 0.36884 0.04414
 C24 C 0.84342 0.40992 0.06741
 C25 C 0.85604 0.44822 0.10830
 C26 C 0.90037 0.44451 0.12586
 C27 C 0.93210 0.40120 0.10389
 C28 C 0.95696 0.32190 0.05296
 N29 N 0.98915 0.33104 0.08849
 C30 C 0.97429 0.38004 0.11916
 C31 C 0.90310 0.48582 0.16612
 N32 N 0.86131 0.51412 0.17358
 C33 C 0.83198 0.49102 0.13887
 C34 C 0.80195 0.40082 0.04460
 N35 N 0.80778 0.35594 0.00780
 C36 C 0.85242 0.33600 0.00690
 H37 H 0.95788 0.28318 0.02520
 H38 H 0.99180 0.39698 0.15193
 H39 H 0.93305 0.49410 0.18881
 H40 H 0.79611 0.50486 0.13589
 H41 H 0.76967 0.42460 0.05426
 H42 H 0.86665 0.29908 -0.01799
 C43 C 0.40635 0.12953 -0.06664
 C44 C 0.36264 0.10958 -0.05131
 C45 C 0.33501 0.07220 -0.08243
 C46 C 0.35147 0.05248 -0.12889
 C47 C 0.39483 0.07143 -0.14327
 C48 C 0.42198 0.11069 -0.11253
 C49 C 0.43829 0.17257 -0.04703
 N50 N 0.47220 0.18030 -0.08047
 C51 C 0.46257 0.14255 -0.12047
 C52 C 0.40265 0.04562 -0.18912
 N53 N 0.36524 0.01070 -0.20348
 C54 C 0.33330 0.01529 -0.16709
 C55 C 0.29365 0.06371 -0.05881
 N56 N 0.29604 0.09399 -0.01420
 C57 C 0.33795 0.12206 -0.00925
 H58 H 0.43515 0.20032 -0.01297
 H59 H 0.48210 0.14200 -0.15417
 H60 H 0.43376 0.05167 -0.21020
 H61 H 0.29999 -0.00805 -0.16766
 H62 H 0.26404 0.03757 -0.07289
 H63 H 0.34918 0.15073 0.02227
 C64 C 0.07876 0.86967 0.43532
 C65 C 0.12490 0.86961 0.45057
 C66 C 0.15753 0.90447 0.42485
 C67 C 0.14421 0.94221 0.38500
 C68 C 0.09841 0.94494 0.37209
 C69 C 0.06608 0.90683 0.39599
 C70 C 0.04134 0.83135 0.44680
 N71 N 0.00757 0.84248 0.41357
 C72 C 0.02222 0.88971 0.38327
 C73 C 0.09445 0.98637 0.33371
 N74 N 0.13694 1.00799 0.32185
 C75 C 0.16795 0.98033 0.35242
 C76 C 0.19944 0.89306 0.44626
 N77 N 0.19292 0.85333 0.48459
 C78 C 0.14766 0.83845 0.48760
 H79 H 0.04093 0.79291 0.47337
 H80 H 0.00371 0.90701 0.35178
 H81 H 0.06288 0.99860 0.31497
 H82 H 0.20462 0.98906 0.35212
 H83 H 0.23216 0.91331 0.43556
 H84 H 0.13258 0.80734 0.51471
 N85 N 0.08217 0.21826 0.09099
 N86 N 0.07875 0.23708 0.13714
 C87 C 0.04615 0.28343 0.14236
 C88 C 0.02640 0.29233 0.09720
 C89 C 0.04946 0.24962 0.06515
 H90 H 0.03516 0.30471 0.17704
 H91 H 0.04362 0.24271 0.02638
 Cu92 Cu 0.11035 0.19077 0.18757
 Cu93 Cu 0.13065 0.15543 0.07077
 Cu94 Cu 0.21011 0.11822 0.16226
 N95 N 0.13464 0.12323 0.22878
 N96 N 0.17638 0.09922 0.22247
 C97 C 0.18520 0.05582 0.25788
 C98 C 0.14563 0.05089 0.28584
 C99 C 0.11428 0.09401 0.26634
 H100 H 0.21604 0.02608 0.26014
 H101 H 0.07946 0.10381 0.27852
 N102 N 0.22460 0.11136 0.09211
 N103 N 0.19374 0.12069 0.05740
 C104 C 0.21438 0.11212 0.01353
 C105 C 0.26014 0.09763 0.02159
 C106 C 0.26572 0.09797 0.07154
 H107 H 0.19824 0.12057 -0.02131
 H108 H 0.29735 0.09044 0.09138
 H109 H 0.14681 0.10795 0.13422
 H110 H 0.17071 0.19159 0.12650
 N111 N 0.42550 0.76935 0.56741
 N112 N 0.44829 0.80659 0.59879
 C113 C 0.49069 0.78145 0.60484
 C114 C 0.49449 0.72598 0.57538
 C115 C 0.45255 0.71874 0.55243
 H116 H 0.51572 0.79977 0.63087
 H117 H 0.44178 0.67833 0.52892
 Cu118 Cu 0.41902 0.87976 0.63413
 Cu119 Cu 0.36175 0.78961 0.55243
 Cu120 Cu 0.30155 0.85902 0.64522
 N121 N 0.38217 0.92323 0.68548
 N122 N 0.33824 0.91080 0.69305
 C123 C 0.32473 0.94159 0.73499
 C124 C 0.36228 0.97531 0.75381
 C125 C 0.39788 0.96292 0.72136
 H126 H 0.29040 0.93995 0.75010
 H127 H 0.43323 0.97836 0.72469
 N128 N 0.27282 0.83558 0.58245
 N129 N 0.29724 0.81184 0.54541
 C130 C 0.27130 0.81098 0.50482
 C131 C 0.22800 0.83330 0.51761
 C132 C 0.22984 0.84869 0.56695
 H133 H 0.28356 0.79826 0.46849
 H134 H 0.20347 0.87316 0.58870
 H135 H 0.35344 0.88944 0.60274
 H136 H 0.36680 0.81597 0.63954
 N137 N 0.91599 0.72941 0.41128
 N138 N 0.91626 0.74944 0.36598
 C139 C 0.94746 0.79695 0.36124
 C140 C 0.96949 0.80532 0.40560
 C141 C 0.94916 0.76126 0.43671
 H142 H 0.95643 0.81877 0.32697
 H143 H 0.95769 0.75285 0.47447
 Cu144 Cu 0.88380 0.70236 0.31480
 Cu145 Cu 0.87170 0.66333 0.43172
 Cu146 Cu 0.79147 0.61671 0.34340
 N147 N 0.86055 0.63443 0.27078
 N148 N 0.82258 0.60262 0.28066
 C149 C 0.81493 0.55719 0.24503
 C150 C 0.85063 0.56065 0.21190
 C151 C 0.87918 0.60955 0.22932
 H152 H 0.78779 0.52120 0.24535
 H153 H 0.91179 0.62415 0.21414
 N154 N 0.78037 0.60885 0.41347
 N155 N 0.81150 0.62287 0.44725
 C156 C 0.79228 0.61557 0.49168
 C157 C 0.74720 0.59658 0.48479
 C158 C 0.74061 0.59323 0.43504
 H159 H 0.80841 0.62890 0.52603
 H160 H 0.70874 0.58342 0.41603
 H161 H 0.85689 0.61478 0.36670
 H162 H 0.82734 0.69493 0.37950
 N163 N 0.57126 0.28300 -0.06768
 N164 N 0.55173 0.30728 -0.10665
 C165 C 0.51203 0.27607 -0.11559
 C166 C 0.50594 0.23093 -0.07963
 C167 C 0.54403 0.23591 -0.04969
 H168 H 0.49016 0.28391 -0.14684
 H169 H 0.55271 0.20513 -0.01941
 Cu170 Cu 0.58067 0.37492 -0.14414
 Cu171 Cu 0.63279 0.31139 -0.04799
 Cu172 Cu 0.69518 0.36350 -0.14837
 N173 N 0.61581 0.42237 -0.19135
 N174 N 0.66061 0.41473 -0.19564
 C175 C 0.67521 0.44706 -0.23515
 C176 C 0.63724 0.47753 -0.25549
 C177 C 0.60023 0.46111 -0.22665
 H178 H 0.71050 0.44858 -0.24756
 H179 H 0.56444 0.47341 -0.23214
 N180 N 0.72413 0.33680 -0.08629
 N181 N 0.70002 0.32016 -0.04759
 C182 C 0.72792 0.31819 -0.00861
 C183 C 0.77181 0.33311 -0.02364
 C184 C 0.76837 0.34509 -0.07289
 H185 H 0.71656 0.31182 0.02857
 H186 H 0.79471 0.36576 -0.09568
 H187 H 0.64911 0.38965 -0.09466
 H188 H 0.64430 0.30418 -0.12012
   
