data_POSCAR
  _audit_creation_date              2014-09-24
  _audit_creation_method            'ToBaCCo'
  _symmetry_space_group_name_H-M    'P1'
  _symmetry_Int_Tables_number       1
  _symmetry_cell_setting            triclinic
  loop_
  _symmetry_equiv_pos_as_xyz
 x,y,z
_cell_length_a 55.2491
_cell_length_b 53.4889
_cell_length_c 53.2635
_cell_angle_alpha 89.017400
_cell_angle_beta 91.588100
_cell_angle_gamma 89.392800
loop_
  _atom_site_label
  _atom_site_type_symbol
  _atom_site_fract_x
  _atom_site_fract_y
  _atom_site_fract_z
N1 N 0.60835 0.67297 0.61506
 N2 N 0.60234 0.66483 0.63742
 C3 C 0.58356 0.67852 0.64534
 C4 C 0.57737 0.69631 0.62694
 C5 C 0.59362 0.69217 0.60800
 H6 H 0.57479 0.67529 0.66297
 H7 H 0.59458 0.70215 0.59025
 Cu8 Cu 0.61876 0.63650 0.65386
 Cu9 Cu 0.63433 0.65752 0.59657
 Cu10 Cu 0.65606 0.60083 0.62024
 N11 N 0.62784 0.60276 0.66458
 N12 N 0.64143 0.58844 0.65084
 C13 C 0.64397 0.56583 0.66215
 C14 C 0.63145 0.56599 0.68444
 C15 C 0.62148 0.58992 0.68526
 H16 H 0.65469 0.55071 0.65489
 H17 H 0.60996 0.59741 0.69944
 N18 N 0.66864 0.61685 0.58973
 N19 N 0.66054 0.63864 0.58087
 C20 C 0.67338 0.64521 0.56073
 C21 C 0.69049 0.62668 0.55668
 C22 C 0.68686 0.60898 0.57548
 H23 H 0.67059 0.66236 0.54999
 H24 H 0.69719 0.59196 0.57902
 H25 H 0.62591 0.62289 0.61155
 H26 H 0.65281 0.63895 0.62595
 N27 N 0.90310 0.33708 0.11157
 N28 N 0.91464 0.34945 0.12922
 C29 C 0.93585 0.33774 0.13489
 C30 C 0.93761 0.31659 0.12020
 C31 C 0.91635 0.31691 0.10563
 H32 H 0.94857 0.34371 0.14927
 H33 H 0.91088 0.30367 0.09153
 Cu34 Cu 0.89955 0.37851 0.14405
 Cu35 Cu 0.87172 0.34800 0.09741
 Cu36 Cu 0.84458 0.39925 0.12490
 N37 N 0.88447 0.40708 0.15975
 N38 N 0.86270 0.41476 0.15238
 C39 C 0.85600 0.43414 0.16648
 C40 C 0.87456 0.43894 0.18371
 C41 C 0.89235 0.42134 0.17884
 H42 H 0.83893 0.44408 0.16420
 H43 H 0.90955 0.41882 0.18876
 N44 N 0.82944 0.38102 0.09675
 N45 N 0.84008 0.36199 0.08586
 C46 C 0.82605 0.35471 0.06630
 C47 C 0.80550 0.36970 0.06495
 C48 C 0.80820 0.38609 0.08459
 H49 H 0.83042 0.33964 0.05389
 H50 H 0.79595 0.40116 0.08909
 H51 H 0.87408 0.38534 0.10649
 H52 H 0.85989 0.36412 0.12985
 N53 N 0.39968 0.16324 -0.11191
 N54 N 0.41248 0.14901 -0.12657
 C55 C 0.43258 0.16124 -0.13309
 C56 C 0.43231 0.18448 -0.12203
 C57 C 0.41112 0.18510 -0.10876
 H58 H 0.44622 0.15389 -0.14522
 H59 H 0.40477 0.20011 -0.09722
 Cu60 Cu 0.40167 0.11603 -0.13618
 Cu61 Cu 0.36991 0.15175 -0.09699
 Cu62 Cu 0.34629 0.09682 -0.11985
 N63 N 0.38567 0.08846 -0.15284
 N64 N 0.36402 0.08111 -0.14656
 C65 C 0.35722 0.06211 -0.16131
 C66 C 0.37560 0.05725 -0.17781
 C67 C 0.39339 0.07441 -0.17181
 H68 H 0.34015 0.05254 -0.16003
 H69 H 0.41052 0.07688 -0.18081
 N70 N 0.33125 0.11567 -0.09282
 N71 N 0.34012 0.13678 -0.08425
 C72 C 0.32627 0.14482 -0.06555
 C73 C 0.30777 0.12793 -0.06208
 C74 C 0.31154 0.10970 -0.07978
 H75 H 0.32982 0.16138 -0.05478
 H76 H 0.30084 0.09319 -0.08286
 H77 H 0.37487 0.11357 -0.10070
 H78 H 0.36111 0.13118 -0.12840
 N79 N 0.09680 0.83229 0.38753
 N80 N 0.08765 0.84183 0.36642
 C81 C 0.06791 0.82879 0.35954
 C82 C 0.06436 0.80996 0.37734
 C83 C 0.08319 0.81292 0.39487
 H84 H 0.05693 0.83292 0.34287
 H85 H 0.08698 0.80179 0.41165
 Cu86 Cu 0.10220 0.87055 0.35001
 Cu87 Cu 0.12589 0.84544 0.40378
 Cu88 Cu 0.15177 0.89714 0.37558
 N89 N 0.11648 0.90017 0.33501
 N90 N 0.13595 0.91033 0.34500
 C91 C 0.14205 0.93033 0.33098
 C92 C 0.12546 0.93299 0.31111
 C93 C 0.10946 0.91348 0.31433
 H94 H 0.15725 0.94225 0.33519
 H95 H 0.09399 0.90919 0.30238
 N96 N 0.16515 0.88114 0.40660
 N97 N 0.15537 0.86141 0.41732
 C98 C 0.16877 0.85479 0.43793
 C99 C 0.18791 0.87118 0.44037
 C100 C 0.18497 0.88763 0.42014
 H101 H 0.16480 0.83928 0.45035
 H102 H 0.19661 0.90301 0.41541
 H103 H 0.12092 0.88162 0.39023
 H104 H 0.14062 0.86056 0.37179
 N105 N 0.12370 0.12920 0.12340
 N106 N 0.37931 0.87284 0.62901
 N107 N 0.87778 0.62586 0.37448
 N108 N 0.61713 0.37192 -0.12734
 C109 C -0.00612 0.26200 0.12138
 C110 C -0.02801 0.25771 0.10835
 C111 C -0.04640 0.27585 0.10759
 C112 C -0.04356 0.29854 0.12042
 C113 C -0.02149 0.30260 0.13362
 C114 C -0.00290 0.28464 0.13381
 C115 C 0.01325 0.24277 0.12208
 C116 C 0.03643 0.24851 0.11368
 C117 C 0.05458 0.23009 0.11380
 C118 C 0.04995 0.20587 0.12290
 C119 C 0.02687 0.20025 0.13166
 C120 C 0.00857 0.21850 0.13097
 C121 C 0.06909 0.18640 0.12308
 C122 C 0.07576 0.17363 0.14546
 C123 C 0.09386 0.15517 0.14564
 C124 C 0.10526 0.14868 0.12330
 C125 C 0.09828 0.16145 0.10087
 C126 C 0.08059 0.18031 0.10083
 H127 H -0.03078 0.24033 0.09856
 H128 H -0.06298 0.27162 0.09735
 H129 H -0.01822 0.31976 0.14354
 H130 H 0.01391 0.28826 0.14400
 H131 H 0.04033 0.26712 0.10668
 H132 H 0.07231 0.23476 0.10704
 H133 H 0.02295 0.18164 0.13864
 H134 H -0.00920 0.21377 0.13760
 H135 H 0.06717 0.17820 0.16286
 H136 H 0.09899 0.14602 0.16330
 H137 H 0.10638 0.15671 0.08327
 H138 H 0.07552 0.18984 0.08333
 C139 C 0.51846 0.74998 0.62731
 C140 C 0.52447 0.73548 0.64886
 C141 C 0.54364 0.71824 0.64880
 C142 C 0.55727 0.71501 0.62714
 C143 C 0.55131 0.72967 0.60562
 C144 C 0.53216 0.74695 0.60572
 C145 C 0.49792 0.76811 0.62732
 C146 C 0.49985 0.79180 0.61576
 C147 C 0.48052 0.80886 0.61584
 C148 C 0.45880 0.80259 0.62742
 C149 C 0.45684 0.77888 0.63891
 C150 C 0.47619 0.76185 0.63889
 C151 C 0.43829 0.82075 0.62761
 C152 C 0.41435 0.81276 0.62353
 C153 C 0.39505 0.82983 0.62390
 C154 C 0.39927 0.85523 0.62840
 C155 C 0.42316 0.86325 0.63242
 C156 C 0.44248 0.84620 0.63202
 H157 H 0.51449 0.73767 0.66592
 H158 H 0.54774 0.70756 0.66583
 H159 H 0.56120 0.72770 0.58853
 H160 H 0.52778 0.75763 0.58871
 H161 H 0.51644 0.79725 0.60689
 H162 H 0.48249 0.82689 0.60662
 H163 H 0.44043 0.77360 0.64821
 H164 H 0.47406 0.74365 0.64772
 H165 H 0.41057 0.79333 0.61981
 H166 H 0.37676 0.82323 0.62086
 H167 H 0.42683 0.88276 0.63581
 H168 H 0.46067 0.85288 0.63550
 C169 C 1.00878 0.75556 0.37777
 C170 C 1.01054 0.77262 0.35759
 C171 C 1.02873 0.79056 0.35748
 C172 C 1.04587 0.79191 0.37752
 C173 C 1.04403 0.77468 0.39771
 C174 C 1.02572 0.75684 0.39783
 C175 C 0.98939 0.73647 0.37782
 C176 C 0.99418 0.71209 0.38709
 C177 C 0.97601 0.69411 0.38694
 C178 C 0.95261 0.70003 0.37743
 C179 C 0.94781 0.72441 0.36821
 C180 C 0.96595 0.74242 0.36846
 C181 C 0.93334 0.68082 0.37696
 C182 C 0.90927 0.68729 0.38213
 C183 C 0.89111 0.66931 0.38133
 C184 C 0.89661 0.64442 0.37548
 C185 C 0.92067 0.63788 0.37051
 C186 C 0.93882 0.65587 0.37116
 H187 H 0.99803 0.77189 0.34161
 H188 H 1.02929 0.80311 0.34139
 H189 H 1.05651 0.77490 0.41368
 H190 H 1.02467 0.74423 0.41388
 H191 H 1.01210 0.70678 0.39417
 H192 H 0.98025 0.67561 0.39447
 H193 H 0.93009 0.72953 0.36047
 H194 H 0.96155 0.76109 0.36148
 H195 H 0.90447 0.70624 0.38701
 H196 H 0.87269 0.67487 0.38513
 H197 H 0.92542 0.61878 0.36611
 H198 H 0.95709 0.65030 0.36676
 C199 C 0.48647 0.24166 -0.12584
 C200 C 0.46222 0.24787 -0.12112
 C201 C 0.44466 0.22930 -0.11984
 C202 C 0.45086 0.20415 -0.12360
 C203 C 0.47496 0.19792 -0.12863
 C204 C 0.49260 0.21642 -0.12957
 C205 C 0.50531 0.26135 -0.12660
 C206 C 0.52457 0.25969 -0.14325
 C207 C 0.54254 0.27786 -0.14353
 C208 C 0.54160 0.29837 -0.12740
 C209 C 0.52217 0.30021 -0.11100
 C210 C 0.50436 0.28188 -0.11049
 C211 C 0.56091 0.31759 -0.12748
 C212 C 0.56862 0.32888 -0.10501
 C213 C 0.58679 0.34683 -0.10504
 C214 C 0.59796 0.35370 -0.12745
 C215 C 0.59039 0.34241 -0.14991
 C216 C 0.57197 0.32470 -0.14996
 H217 H 0.45670 0.26713 -0.11868
 H218 H 0.42616 0.23472 -0.11624
 H219 H 0.48035 0.17865 -0.13131
 H220 H 0.51113 0.21083 -0.13274
 H221 H 0.52573 0.24438 -0.15620
 H222 H 0.55738 0.27561 -0.15619
 H223 H 0.52061 0.31592 -0.09858
 H224 H 0.49003 0.28365 -0.09717
 H225 H 0.56086 0.32360 -0.08727
 H226 H 0.59223 0.35534 -0.08750
 H227 H 0.59882 0.34726 -0.16741
 H228 H 0.56628 0.31673 -0.16768
 C229 C 0.12394 -0.01005 0.25282
 C230 C 0.10332 -0.02443 0.25732
 C231 C 0.10384 -0.04301 0.27613
 C232 C 0.12493 -0.04750 0.29096
 C233 C 0.14554 -0.03308 0.28643
 C234 C 0.14506 -0.01462 0.26755
 C235 C 0.12342 0.00979 0.23298
 C236 C 0.14318 0.01289 0.21722
 C237 C 0.14297 0.03194 0.19893
 C238 C 0.12304 0.04839 0.19604
 C239 C 0.10317 0.04512 0.21166
 C240 C 0.10334 0.02601 0.22990
 C241 C 0.12316 0.06912 0.17709
 C242 C 0.10199 0.07579 0.16316
 C243 C 0.10214 0.09548 0.14556
 C244 C 0.12344 0.10887 0.14156
 C245 C 0.14462 0.10215 0.15528
 C246 C 0.14448 0.08253 0.17291
 H247 H 0.08685 -0.02148 0.24612
 H248 H 0.08759 -0.05363 0.27917
 H249 H 0.16215 -0.03612 0.29733
 H250 H 0.16114 -0.00365 0.26469
 H251 H 0.15873 0.00043 0.21889
 H252 H 0.15837 0.03364 0.18690
 H253 H 0.08769 0.05770 0.21017
 H254 H 0.08799 0.02427 0.24199
 H255 H 0.08538 0.06559 0.16565
 H256 H 0.08571 0.10020 0.13489
 H257 H 0.16118 0.11234 0.15250
 H258 H 0.16099 0.07814 0.18358
 C259 C 0.62577 0.50701 -0.26155
 C260 C 0.61793 0.53140 -0.25622
 C261 C 0.61947 0.55070 -0.27409
 C262 C 0.62947 0.54638 -0.29770
 C263 C 0.63750 0.52197 -0.30292
 C264 C 0.63542 0.50256 -0.28524
 C265 C 0.62408 0.48643 -0.24243
 C266 C 0.64151 0.46706 -0.24092
 C267 C 0.64003 0.44791 -0.22287
 C268 C 0.62135 0.44782 -0.20544
 C269 C 0.60394 0.46721 -0.20693
 C270 C 0.60513 0.48607 -0.22531
 C271 C 0.62021 0.42783 -0.18562
 C272 C 0.59780 0.41963 -0.17681
 C273 C 0.59681 0.40147 -0.15770
 C274 C 0.61815 0.39062 -0.14727
 C275 C 0.64052 0.39840 -0.15640
 C276 C 0.64156 0.41695 -0.17510
 H277 H 0.61093 0.53580 -0.23802
 H278 H 0.61336 0.56912 -0.26890
 H279 H 0.64495 0.51750 -0.32088
 H280 H 0.64115 0.48396 -0.29035
 H281 H 0.65659 0.46679 -0.25345
 H282 H 0.65355 0.43312 -0.22270
 H283 H 0.58948 0.46811 -0.19366
 H284 H 0.59108 0.50033 -0.22609
 H285 H 0.58094 0.42712 -0.18473
 H286 H 0.57931 0.39594 -0.15098
 H287 H 0.65726 0.39021 -0.14890
 H288 H 0.65918 0.42300 -0.18097
 C289 C 0.37672 1.00191 0.76425
 C290 C 0.39804 1.01416 0.77171
 C291 C 0.39768 1.03209 0.79048
 C292 C 0.37600 1.03816 0.80229
 C293 C 0.35469 1.02584 0.79485
 C294 C 0.35504 1.00796 0.77603
 C295 C 0.37709 0.98291 0.74426
 C296 C 0.35836 0.98214 0.72590
 C297 C 0.35870 0.96426 0.70708
 C298 C 0.37774 0.94669 0.70626
 C299 C 0.39646 0.94744 0.72464
 C300 C 0.39616 0.96537 0.74341
 C301 C 0.37807 0.92763 0.68633
 C302 C 0.38509 0.90280 0.69210
 C303 C 0.38542 0.88487 0.67335
 C304 C 0.37879 0.89138 0.64842
 C305 C 0.37179 0.91617 0.64262
 C306 C 0.37139 0.93411 0.66138
 H307 H 0.41498 1.01009 0.76279
 H308 H 0.41449 1.04104 0.79576
 H309 H 0.33762 1.03006 0.80337
 H310 H 0.33837 0.99864 0.77089
 H311 H 0.34354 0.99556 0.72592
 H312 H 0.34390 0.96400 0.69333
 H313 H 0.41150 0.93431 0.72435
 H314 H 0.41072 0.96533 0.75743
 H315 H 0.39000 0.89717 0.71121
 H316 H 0.39066 0.86582 0.67830
 H317 H 0.36687 0.92168 0.62348
 H318 H 0.36623 0.95315 0.65629
 C319 C 0.87598 0.49526 0.24068
 C320 C 0.89744 0.48311 0.23389
 C321 C 0.89699 0.46484 0.21543
 C322 C 0.87509 0.45838 0.20325
 C323 C 0.85365 0.47065 0.21000
 C324 C 0.85409 0.48883 0.22852
 C325 C 0.87639 0.51451 0.26043
 C326 C 0.85831 0.51515 0.27846
 C327 C 0.85867 0.53326 0.29706
 C328 C 0.87707 0.55119 0.29799
 C329 C 0.89513 0.55058 0.27994
 C330 C 0.89483 0.53240 0.26139
 C331 C 0.87739 0.57045 0.31773
 C332 C 0.88296 0.59540 0.31180
 C333 C 0.88308 0.61355 0.33037
 C334 C 0.87774 0.60710 0.35527
 C335 C 0.87223 0.58216 0.36122
 C336 C 0.87202 0.56403 0.34265
 H337 H 0.91455 0.48750 0.24310
 H338 H 0.91387 0.45594 0.21063
 H339 H 0.83642 0.46610 0.20118
 H340 H 0.83730 0.49807 0.23316
 H341 H 0.84401 0.50146 0.27835
 H342 H 0.84438 0.53340 0.31057
 H343 H 0.90966 0.56402 0.28032
 H344 H 0.90888 0.53252 0.24762
 H345 H 0.88685 0.60097 0.29271
 H346 H 0.88710 0.63271 0.32529
 H347 H 0.86827 0.57671 0.38033
 H348 H 0.86798 0.54490 0.34786
 C349 C 0.25308 0.12966 -0.00587
 C350 C 0.25740 0.10781 -0.01938
 C351 C 0.27499 0.10730 -0.03771
 C352 C 0.28875 0.12864 -0.04295
 C353 C 0.28432 0.15055 -0.02951
 C354 C 0.26666 0.15106 -0.01121
 C355 C 0.23452 0.13004 0.01376
 C356 C 0.21894 0.15077 0.01599
 C357 C 0.20121 0.15088 0.03421
 C358 C 0.19869 0.13026 0.05062
 C359 C 0.21446 0.10965 0.04855
 C360 C 0.23215 0.10953 0.03032
 C361 C 0.17947 0.13005 0.06959
 C362 C 0.16642 0.10813 0.07435
 C363 C 0.14822 0.10789 0.09202
 C364 C 0.14260 0.12957 0.10523
 C365 C 0.15569 0.15146 0.10066
 C366 C 0.17392 0.15172 0.08297
 H367 H 0.24701 0.09111 -0.01592
 H368 H 0.27791 0.09005 -0.04753
 H369 H 0.29441 0.16739 -0.03311
 H370 H 0.26389 0.16812 -0.00097
 H371 H 0.22013 0.16671 0.00329
 H372 H 0.18912 0.16688 0.03510
 H373 H 0.21327 0.09367 0.06120
 H374 H 0.24417 0.09348 0.02936
 H375 H 0.17000 0.09124 0.06410
 H376 H 0.13825 0.09086 0.09520
 H377 H 0.15183 0.16827 0.11093
 H378 H 0.18389 0.16879 0.08000
 C379 C 0.74579 0.62603 0.50102
 C380 C 0.73188 0.64771 0.50478
 C381 C 0.71385 0.64788 0.52268
 C382 C 0.70928 0.62635 0.53725
 C383 C 0.72308 0.60460 0.53330
 C384 C 0.74112 0.60445 0.51541
 C385 C 0.76521 0.62598 0.48228
 C386 C 0.78751 0.61394 0.48779
 C387 C 0.80586 0.61402 0.47024
 C388 C 0.80230 0.62609 0.44677
 C389 C 0.77998 0.63809 0.44124
 C390 C 0.76165 0.63806 0.45881
 C391 C 0.82179 0.62614 0.42811
 C392 C 0.81626 0.62266 0.40249
 C393 C 0.83460 0.62260 0.38495
 C394 C 0.85883 0.62605 0.39263
 C395 C 0.86439 0.62957 0.41820
 C396 C 0.84607 0.62960 0.43576
 H397 H 0.73526 0.66474 0.49422
 H398 H 0.70381 0.66506 0.52527
 H399 H 0.71995 0.58756 0.54388
 H400 H 0.75127 0.58733 0.51267
 H401 H 0.79090 0.60470 0.50581
 H402 H 0.82276 0.60439 0.47496
 H403 H 0.77678 0.64776 0.42341
 H404 H 0.74459 0.64729 0.45392
 H405 H 0.79778 0.61965 0.39604
 H406 H 0.82990 0.61995 0.36531
 H407 H 0.88297 0.63214 0.42454
 H408 H 0.85086 0.63261 0.45532
 C409 C 0.74766 0.36878 0.00909
 C410 C 0.74341 0.37697 0.03358
 C411 C 0.76220 0.37736 0.05169
 C412 C 0.78556 0.36913 0.04588
 C413 C 0.78982 0.36065 0.02160
 C414 C 0.77116 0.36068 0.00336
 C415 C 0.72780 0.36887 -0.01044
 C416 C 0.72693 0.35043 -0.02894
 C417 C 0.70872 0.35090 -0.04767
 C418 C 0.69058 0.36958 -0.04819
 C419 C 0.69122 0.38779 -0.02945
 C420 C 0.70967 0.38756 -0.01096
 C421 C 0.67129 0.37018 -0.06833
 C422 C 0.66187 0.39310 -0.07787
 C423 C 0.64394 0.39365 -0.09690
 C424 C 0.63531 0.37135 -0.10723
 C425 C 0.64467 0.34845 -0.09775
 C426 C 0.66227 0.34786 -0.07840
 H427 H 0.72549 0.38285 0.03890
 H428 H 0.75836 0.38374 0.07036
 H429 H 0.80774 0.35453 0.01649
 H430 H 0.77533 0.35478 -0.01538
 H431 H 0.74028 0.33548 -0.02896
 H432 H 0.70911 0.33677 -0.06195
 H433 H 0.67739 0.40223 -0.02893
 H434 H 0.70987 0.40230 0.00272
 H435 H 0.66858 0.41069 -0.07094
 H436 H 0.63688 0.41154 -0.10370
 H437 H 0.63838 0.33099 -0.10541
 H438 H 0.66868 0.32985 -0.07125
 C439 C 0.24493 0.87079 0.49738
 C440 C 0.23023 0.84975 0.49407
 C441 C 0.21167 0.84990 0.47568
 C442 C 0.20740 0.87108 0.46012
 C443 C 0.22205 0.89215 0.46352
 C444 C 0.24056 0.89202 0.48193
 C445 C 0.26479 0.87063 0.51679
 C446 C 0.28713 0.88173 0.51174
 C447 C 0.30576 0.88177 0.53001
 C448 C 0.30253 0.87066 0.55378
 C449 C 0.28023 0.85947 0.55881
 C450 C 0.26158 0.85945 0.54053
 C451 C 0.32231 0.87089 0.57326
 C452 C 0.31716 0.87512 0.59855
 C453 C 0.33580 0.87564 0.61681
 C454 C 0.36001 0.87201 0.61018
 C455 C 0.36517 0.86768 0.58494
 C456 C 0.34654 0.86710 0.56668
 H457 H 0.23334 0.83298 0.50542
 H458 H 0.20095 0.83324 0.47345
 H459 H 0.21912 0.90892 0.45216
 H460 H 0.25127 0.90869 0.48429
 H461 H 0.29029 0.89023 0.49354
 H462 H 0.32261 0.89079 0.52563
 H463 H 0.27726 0.85052 0.57683
 H464 H 0.24451 0.85096 0.54510
 H465 H 0.29874 0.87839 0.60419
 H466 H 0.33136 0.87886 0.63616
 H467 H 0.38369 0.86494 0.57935
 H468 H 0.35109 0.86348 0.54743
   
