data_POSCAR
  _audit_creation_date              2014-09-24
  _audit_creation_method            'ToBaCCo'
  _symmetry_space_group_name_H-M    'P1'
  _symmetry_Int_Tables_number       1
  _symmetry_cell_setting            triclinic
  loop_
  _symmetry_equiv_pos_as_xyz
 x,y,z
_cell_length_a 35.8994
_cell_length_b 36.0260
_cell_length_c 36.1803
_cell_angle_alpha 89.995400
_cell_angle_beta 89.999100
_cell_angle_gamma 90.011200
loop_
  _atom_site_label
  _atom_site_type_symbol
  _atom_site_fract_x
  _atom_site_fract_y
  _atom_site_fract_z
N1 N 0.29533 0.22245 0.19145
 N2 N 0.27925 0.25208 0.17737
 C3 C 0.29778 0.26237 0.14664
 C4 C 0.32687 0.23795 0.14151
 C5 C 0.32474 0.21304 0.17034
 H6 H 0.29075 0.28576 0.12930
 H7 H 0.34304 0.18972 0.17536
 Cu8 Cu 0.23505 0.27330 0.20026
 Cu9 Cu 0.27632 0.19763 0.23540
 Cu10 Cu 0.19731 0.23552 0.27624
 N11 N 0.19085 0.29450 0.22315
 N12 N 0.17629 0.27957 0.25304
 C13 C 0.14580 0.29895 0.26294
 C14 C 0.14104 0.32720 0.23773
 C15 C 0.16994 0.32378 0.21288
 H16 H 0.12827 0.29286 0.28648
 H17 H 0.17526 0.34129 0.18921
 N18 N 0.22268 0.19092 0.29552
 N19 N 0.25273 0.17651 0.28002
 C20 C 0.26279 0.14589 0.29900
 C21 C 0.23782 0.14094 0.32745
 C22 C 0.21289 0.16984 0.32473
 H23 H 0.28634 0.12833 0.29258
 H24 H 0.18930 0.17491 0.34262
 H25 H 0.22142 0.21355 0.22916
 H26 H 0.25135 0.24349 0.25868
 N27 N 0.70371 -0.22291 0.19089
 N28 N 0.72001 -0.25233 0.17662
 C29 C 0.70139 -0.26276 0.14597
 C30 C 0.67216 -0.23848 0.14099
 C31 C 0.67418 -0.21362 0.16988
 H32 H 0.70854 -0.28607 0.12855
 H33 H 0.65574 -0.19043 0.17506
 Cu34 Cu 0.76438 -0.27343 0.19936
 Cu35 Cu 0.72273 -0.19814 0.23488
 Cu36 Cu 0.80212 -0.23573 0.27539
 N37 N 0.80873 -0.29453 0.22213
 N38 N 0.82327 -0.27967 0.25207
 C39 C 0.85374 -0.29911 0.26199
 C40 C 0.85845 -0.32736 0.23677
 C41 C 0.82953 -0.32394 0.21191
 H42 H 0.87119 -0.29310 0.28562
 H43 H 0.82413 -0.34147 0.18827
 N44 N 0.77658 -0.19125 0.29483
 N45 N 0.74639 -0.17697 0.27948
 C46 C 0.73632 -0.14637 0.29850
 C47 C 0.76139 -0.14134 0.32686
 C48 C 0.78641 -0.17015 0.32401
 H49 H 0.71270 -0.12888 0.29217
 H50 H 0.81010 -0.17512 0.34178
 H51 H 0.77767 -0.21367 0.22852
 H52 H 0.74805 -0.24404 0.25801
 N53 N 0.70510 0.22305 0.80813
 N54 N 0.72125 0.25254 0.82239
 C55 C 0.70265 0.26271 0.85315
 C56 C 0.67355 0.23825 0.85817
 C57 C 0.67569 0.21351 0.82920
 H58 H 0.70966 0.28599 0.87067
 H59 H 0.65738 0.19023 0.82398
 Cu60 Cu 0.76549 0.27420 0.79982
 Cu61 Cu 0.72411 0.19846 0.76413
 Cu62 Cu 0.80299 0.23635 0.72338
 N63 N 0.80971 0.29518 0.77655
 N64 N 0.82415 0.28034 0.74656
 C65 C 0.85467 0.29972 0.73662
 C66 C 0.85950 0.32795 0.76189
 C67 C 0.83063 0.32452 0.78679
 H68 H 0.87207 0.29362 0.71297
 H69 H 0.82543 0.34201 0.81052
 N70 N 0.77762 0.19179 0.70403
 N71 N 0.74755 0.17741 0.71951
 C72 C 0.73744 0.14681 0.70054
 C73 C 0.76239 0.14181 0.67209
 C74 C 0.78738 0.17069 0.67483
 H75 H 0.71388 0.12925 0.70698
 H76 H 0.81100 0.17570 0.65696
 H77 H 0.77912 0.21444 0.77086
 H78 H 0.74906 0.24472 0.74138
 N79 N 0.29556 -0.22326 0.80880
 N80 N 0.27946 -0.25280 0.82305
 C81 C 0.29813 -0.26297 0.85376
 C82 C 0.32723 -0.23851 0.85875
 C83 C 0.32499 -0.21371 0.82983
 H84 H 0.29113 -0.28625 0.87128
 H85 H 0.34321 -0.19037 0.82463
 Cu86 Cu 0.23507 -0.27440 0.80067
 Cu87 Cu 0.27656 -0.19871 0.76480
 Cu88 Cu 0.19742 -0.23616 0.72442
 N89 N 0.19070 -0.29514 0.77743
 N90 N 0.17613 -0.28003 0.74763
 C91 C 0.14543 -0.29917 0.73778
 C92 C 0.14061 -0.32751 0.76291
 C93 C 0.16965 -0.32438 0.78765
 H94 H 0.12791 -0.29283 0.71428
 H95 H 0.17485 -0.34196 0.81132
 N96 N 0.22294 -0.19181 0.70487
 N97 N 0.25314 -0.17759 0.72021
 C98 C 0.26314 -0.14685 0.70137
 C99 C 0.23803 -0.14169 0.67308
 C100 C 0.21300 -0.17053 0.67585
 H101 H 0.28662 -0.12923 0.70789
 H102 H 0.18920 -0.17537 0.65817
 H103 H 0.22177 -0.21471 0.77174
 H104 H 0.25148 -0.24505 0.74201
 N105 N 0.70497 -0.22316 0.80885
 N106 N 0.72073 -0.25319 0.82246
 C107 C 0.70246 -0.26345 0.85338
 C108 C 0.67398 -0.23846 0.85917
 C109 C 0.67613 -0.21336 0.83052
 H110 H 0.70932 -0.28711 0.87046
 H111 H 0.65817 -0.18970 0.82588
 Cu112 Cu 0.76409 -0.27463 0.79833
 Cu113 Cu 0.72372 -0.19820 0.76475
 Cu114 Cu 0.80279 -0.23607 0.72364
 N115 N 0.80902 -0.29544 0.77658
 N116 N 0.82392 -0.28013 0.74703
 C117 C 0.85491 -0.29897 0.73762
 C118 C 0.85957 -0.32730 0.76277
 C119 C 0.83012 -0.32455 0.78709
 H120 H 0.87272 -0.29247 0.71439
 H121 H 0.82462 -0.34227 0.81060
 N122 N 0.77719 -0.19152 0.70441
 N123 N 0.74717 -0.17713 0.72002
 C124 C 0.73715 -0.14639 0.70124
 C125 C 0.76209 -0.14133 0.67280
 C126 C 0.78699 -0.17028 0.67533
 H127 H 0.71371 -0.12876 0.70783
 H128 H 0.81062 -0.17522 0.65745
 H129 H 0.74842 -0.24370 0.74041
 H130 H 0.77846 -0.21464 0.77078
 N131 N 0.29556 0.22314 0.80856
 N132 N 0.27985 0.25320 0.82213
 C133 C 0.29812 0.26346 0.85304
 C134 C 0.32655 0.23843 0.85887
 C135 C 0.32438 0.21331 0.83024
 H136 H 0.29127 0.28713 0.87012
 H137 H 0.34230 0.18962 0.82562
 Cu138 Cu 0.23646 0.27459 0.79810
 Cu139 Cu 0.27673 0.19808 0.76457
 Cu140 Cu 0.19762 0.23590 0.72356
 N141 N 0.19156 0.29538 0.77636
 N142 N 0.17660 0.27999 0.74689
 C143 C 0.14562 0.29881 0.73752
 C144 C 0.14097 0.32719 0.76259
 C145 C 0.17048 0.32448 0.78683
 H146 H 0.12774 0.29228 0.71434
 H147 H 0.17597 0.34224 0.81032
 N148 N 0.22311 0.19128 0.70438
 N149 N 0.25316 0.17691 0.71995
 C150 C 0.26310 0.14611 0.70121
 C151 C 0.23809 0.14102 0.67284
 C152 C 0.21322 0.17000 0.67536
 H153 H 0.28653 0.12847 0.70781
 H154 H 0.18955 0.17492 0.65753
 H155 H 0.25201 0.24354 0.74023
 H156 H 0.22203 0.21453 0.77071
 N157 N 0.29636 -0.22298 0.19188
 N158 N 0.28055 -0.25294 0.17820
 C159 C 0.29891 -0.26327 0.14736
 C160 C 0.32750 -0.23838 0.14169
 C161 C 0.32531 -0.21325 0.17031
 H162 H 0.29205 -0.28693 0.13028
 H163 H 0.34324 -0.18957 0.17498
 Cu164 Cu 0.23702 -0.27418 0.20213
 Cu165 Cu 0.27743 -0.19784 0.23578
 Cu166 Cu 0.19776 -0.23519 0.27623
 N167 N 0.19185 -0.29472 0.22351
 N168 N 0.17676 -0.27922 0.25285
 C169 C 0.14559 -0.29783 0.26201
 C170 C 0.14096 -0.32620 0.23694
 C171 C 0.17065 -0.32369 0.21289
 H172 H 0.12754 -0.29114 0.28500
 H173 H 0.17621 -0.34154 0.18949
 N174 N 0.22335 -0.19072 0.29552
 N175 N 0.25361 -0.17653 0.28019
 C176 C 0.26358 -0.14579 0.29899
 C177 C 0.23841 -0.14061 0.32720
 C178 C 0.21340 -0.16943 0.32450
 H179 H 0.28716 -0.12827 0.29258
 H180 H 0.18963 -0.17429 0.34221
 H181 H 0.25223 -0.24314 0.26009
 H182 H 0.22274 -0.21405 0.22919
 N183 N 0.70396 0.22261 0.19153
 N184 N 0.71972 0.25265 0.17796
 C185 C 0.70155 0.26289 0.14698
 C186 C 0.67312 0.23787 0.14111
 C187 C 0.67521 0.21275 0.16977
 H188 H 0.70840 0.28659 0.12994
 H189 H 0.65736 0.18899 0.17429
 Cu190 Cu 0.76300 0.27411 0.20211
 Cu191 Cu 0.72279 0.19757 0.23555
 Cu192 Cu 0.80196 0.23547 0.27655
 N193 N 0.80800 0.29486 0.22366
 N194 N 0.82296 0.27954 0.25316
 C195 C 0.85396 0.29838 0.26246
 C196 C 0.85857 0.32673 0.23735
 C197 C 0.82907 0.32395 0.21312
 H198 H 0.87190 0.29183 0.28557
 H199 H 0.82349 0.34177 0.18969
 N200 N 0.77646 0.19086 0.29573
 N201 N 0.74641 0.17645 0.28017
 C202 C 0.73654 0.14562 0.29888
 C203 C 0.76160 0.14053 0.32721
 C204 C 0.78643 0.16955 0.32469
 H205 H 0.71313 0.12793 0.29230
 H206 H 0.81013 0.17448 0.34247
 H207 H 0.74752 0.24299 0.25999
 H208 H 0.77751 0.21413 0.22938
 C209 C 0.23673 -0.01987 0.53399
 C210 C 0.23671 0.01920 0.53407
 C211 C 0.23648 0.03845 0.50044
 C212 C 0.23658 0.01942 0.46671
 C213 C 0.23664 -0.01963 0.46661
 C214 C 0.23653 -0.03890 0.50024
 H215 H 0.23645 -0.06904 0.50013
 H216 H 0.23635 0.06859 0.50052
 C217 C 0.76352 0.01928 0.53366
 C218 C 0.76339 -0.01979 0.53375
 C219 C 0.76337 -0.03904 0.50010
 C220 C 0.76315 -0.01999 0.46636
 C221 C 0.76324 0.01907 0.46629
 C222 C 0.76358 0.03832 0.49992
 H223 H 0.76375 0.06845 0.49984
 H224 H 0.76339 -0.06917 0.50017
 C225 C 0.46620 0.23721 0.01933
 C226 C 0.46608 0.23726 -0.01957
 C227 C 0.49996 0.23719 -0.03877
 C228 C 0.53398 0.23739 -0.01985
 C229 C 0.53410 0.23728 0.01905
 C230 C 0.50022 0.23705 0.03824
 H231 H 0.50032 0.23693 0.06824
 H232 H 0.49985 0.23719 -0.06877
 C233 C 0.46680 0.76265 -0.01924
 C234 C 0.46664 0.76280 0.01967
 C235 C 0.50050 0.76307 0.03889
 C236 C 0.53455 0.76290 0.02002
 C237 C 0.53471 0.76289 -0.01889
 C238 C 0.50085 0.76297 -0.03811
 H239 H 0.50100 0.76305 -0.06812
 H240 H 0.50038 0.76315 0.06889
 C241 C 0.01905 0.46707 0.23505
 C242 C -0.02014 0.46686 0.23504
 C243 C -0.03957 0.50057 0.23474
 C244 C -0.02059 0.53452 0.23486
 C245 C 0.01862 0.53471 0.23487
 C246 C 0.03804 0.50100 0.23475
 H247 H 0.06828 0.50116 0.23459
 H248 H -0.06981 0.50040 0.23462
 C249 C 0.01894 0.46669 0.76489
 C250 C -0.02027 0.46689 0.76477
 C251 C -0.03921 0.50087 0.76495
 C252 C -0.01977 0.53460 0.76494
 C253 C 0.01946 0.53437 0.76507
 C254 C 0.03838 0.50039 0.76524
 H255 H 0.06862 0.50016 0.76544
 H256 H -0.06945 0.50105 0.76487
 C257 C 0.35396 0.23828 0.11226
 C258 C 0.37745 0.23821 0.08844
 C259 C 0.40631 0.23790 0.06193
 C260 C 0.43256 0.23757 0.04114
 C261 C 0.64651 0.76120 0.11331
 C262 C 0.62312 0.76128 0.08939
 C263 C 0.59435 0.76174 0.06276
 C264 C 0.56816 0.76229 0.04189
 C265 C 0.64637 0.23848 -0.11264
 C266 C 0.62283 0.23842 -0.08885
 C267 C 0.59392 0.23815 -0.06238
 C268 C 0.56764 0.23783 -0.04163
 C269 C 0.35453 0.76119 -0.11218
 C270 C 0.37812 0.76122 -0.08846
 C271 C 0.40700 0.76156 -0.06195
 C272 C 0.43320 0.76202 -0.04110
 C273 C 0.11203 0.35468 0.23732
 C274 C 0.08831 0.37836 0.23685
 C275 C 0.06185 0.40733 0.23620
 C276 C 0.04103 0.43357 0.23564
 C277 C 0.11306 0.64651 0.76319
 C278 C 0.08923 0.62289 0.76358
 C279 C 0.06259 0.59400 0.76411
 C280 C 0.04159 0.56785 0.76459
 C281 C -0.11414 0.64656 0.23649
 C282 C -0.09033 0.62294 0.23614
 C283 C -0.06366 0.59412 0.23567
 C284 C -0.04265 0.56800 0.23526
 C285 C -0.11311 0.35409 0.76222
 C286 C -0.08945 0.37789 0.76272
 C287 C -0.06307 0.40701 0.76345
 C288 C -0.04229 0.43334 0.76409
 C289 C 0.23780 0.11186 0.35463
 C290 C 0.23756 0.08818 0.37816
 C291 C 0.23718 0.06186 0.40705
 C292 C 0.23686 0.04120 0.43325
 C293 C 0.76246 0.11254 0.64509
 C294 C 0.76267 0.08862 0.62177
 C295 C 0.76301 0.06199 0.59315
 C296 C 0.76329 0.04114 0.56708
 C297 C 0.23803 -0.11249 0.64599
 C298 C 0.23787 -0.08874 0.62250
 C299 C 0.23751 -0.06236 0.59364
 C300 C 0.23715 -0.04167 0.56744
 C301 C 0.76146 -0.11228 0.35409
 C302 C 0.76176 -0.08864 0.37768
 C303 C 0.76224 -0.06237 0.40663
 C304 C 0.76268 -0.04176 0.43288
 C305 C 0.64707 0.76132 -0.11145
 C306 C 0.62365 0.76147 -0.08759
 C307 C 0.59480 0.76192 -0.06111
 C308 C 0.56849 0.76239 -0.04043
 C309 C 0.35346 0.23863 -0.11178
 C310 C 0.37694 0.23849 -0.08799
 C311 C 0.40590 0.23810 -0.06165
 C312 C 0.43229 0.23769 -0.04109
 C313 C 0.35443 0.76136 0.11235
 C314 C 0.37781 0.76148 0.08845
 C315 C 0.40658 0.76191 0.06192
 C316 C 0.43286 0.76234 0.04121
 C317 C 0.64630 0.23814 0.11169
 C318 C 0.62295 0.23813 0.08777
 C319 C 0.59416 0.23789 0.06125
 C320 C 0.56787 0.23761 0.04058
 C321 C -0.11281 0.64687 0.76317
 C322 C -0.08890 0.62337 0.76356
 C323 C -0.06227 0.59455 0.76407
 C324 C -0.04145 0.56831 0.76450
 C325 C -0.11238 0.35409 0.23696
 C326 C -0.08867 0.37775 0.23659
 C327 C -0.06232 0.40676 0.23605
 C328 C -0.04172 0.43314 0.23557
 C329 C 0.11177 0.35440 0.76303
 C330 C 0.08793 0.37792 0.76339
 C331 C 0.06138 0.40676 0.76386
 C332 C 0.04060 0.43301 0.76433
 C333 C 0.11166 0.64673 0.23640
 C334 C 0.08771 0.62333 0.23603
 C335 C 0.06109 0.59458 0.23563
 C336 C 0.04028 0.56836 0.23526
 C337 C 0.76212 -0.11210 0.64581
 C338 C 0.76233 -0.08834 0.62237
 C339 C 0.76270 -0.06200 0.59352
 C340 C 0.76305 -0.04141 0.56728
 C341 C 0.23839 -0.11150 0.35428
 C342 C 0.23812 -0.08785 0.37781
 C343 C 0.23760 -0.06165 0.40675
 C344 C 0.23712 -0.04117 0.43306
 C345 C 0.76163 0.11135 0.35423
 C346 C 0.76184 0.08762 0.37770
 C347 C 0.76228 0.06128 0.40654
 C348 C 0.76274 0.04068 0.43276
 C349 C 0.23798 0.11172 0.64592
 C350 C 0.23774 0.08789 0.62256
 C351 C 0.23739 0.06148 0.59378
 C352 C 0.23706 0.04083 0.56759
   
