data_POSCAR
  _audit_creation_date              2014-09-24
  _audit_creation_method            'ToBaCCo'
  _symmetry_space_group_name_H-M    'P1'
  _symmetry_Int_Tables_number       1
  _symmetry_cell_setting            triclinic
  loop_
  _symmetry_equiv_pos_as_xyz
 x,y,z
_cell_length_a 64.5436
_cell_length_b 64.6776
_cell_length_c 18.0239
_cell_angle_alpha 90.025500
_cell_angle_beta 90.009100
_cell_angle_gamma 120.013500
loop_
  _atom_site_label
  _atom_site_type_symbol
  _atom_site_fract_x
  _atom_site_fract_y
  _atom_site_fract_z
C1 C 0.22678 0.50000 0.45687
 C2 C 0.22711 0.50073 0.53614
 C3 C 0.24587 0.50023 0.57423
 C4 C 0.26377 0.49788 0.53720
 C5 C 0.26284 0.49627 0.45847
 C6 C 0.24450 0.49729 0.41987
 H7 H 0.24454 0.49663 0.35975
 H8 H 0.24623 0.50121 0.63430
 C9 C 0.52465 -0.25960 0.46018
 C10 C 0.52506 -0.25972 0.53912
 C11 C 0.52511 -0.24105 0.57885
 C12 C 0.52452 -0.22202 0.54304
 C13 C 0.52483 -0.22152 0.46414
 C14 C 0.52501 -0.24007 0.42433
 H15 H 0.52475 -0.23945 0.36424
 H16 H 0.52491 -0.24188 0.63895
 C17 C 1.27392 0.76836 0.46004
 C18 C 1.27394 0.76865 0.53920
 C19 C 1.25521 0.74975 0.57814
 C20 C 1.23561 0.73141 0.54073
 C21 C 1.23455 0.73200 0.46257
 C22 C 1.25363 0.75032 0.42328
 H23 H 1.25302 0.74963 0.36319
 H24 H 1.25524 0.74996 0.63831
 C25 C 0.76639 0.49990 0.45980
 C26 C 0.77014 0.50318 0.53779
 C27 C 0.75176 0.50242 0.58196
 C28 C 0.73041 0.49956 0.55108
 C29 C 0.72789 0.49834 0.47242
 C30 C 0.74565 0.49804 0.42843
 H31 H 0.74337 0.49643 0.36870
 H32 H 0.75412 0.50416 0.64155
 C33 C 0.49009 0.26248 0.46172
 C34 C 0.49001 0.26323 0.54055
 C35 C 0.49055 0.24479 0.58046
 C36 C 0.49052 0.22537 0.54482
 C37 C 0.48999 0.22463 0.46588
 C38 C 0.48999 0.24320 0.42588
 H39 H 0.48983 0.24260 0.36572
 H40 H 0.49094 0.24559 0.64053
 C41 C 0.72498 0.23741 0.46487
 C42 C 0.72598 0.23602 0.54282
 C43 C 0.74490 0.25451 0.58208
 C44 C 0.76325 0.27470 0.54570
 C45 C 0.76216 0.27586 0.46686
 C46 C 0.74304 0.25733 0.42797
 H47 H 0.74250 0.25817 0.36794
 H48 H 0.74486 0.25325 0.64205
 N49 N 0.97483 0.52804 0.08447
 N50 N 0.95676 0.53204 0.09079
 N51 N 1.02315 0.53451 0.14035
 N52 N 1.04094 0.54413 0.18839
 N53 N 1.02511 0.55040 0.09135
 N54 N 1.04437 0.57125 0.10456
 N55 N 0.97290 0.51207 0.13309
 N56 N 0.95344 0.50474 0.17371
 C57 C 0.94359 0.51745 0.14688
 C58 C 1.05404 0.56707 0.16547
 N59 N 1.01992 0.47482 0.07819
 N60 N 1.03862 0.47175 0.08292
 N61 N 0.96991 0.46624 0.12554
 N62 N 0.95155 0.45427 0.17045
 N63 N 0.96972 0.45240 0.07197
 N64 N 0.95132 0.43058 0.07924
 N65 N 1.02026 0.48871 0.13192
 N66 N 1.03925 0.49550 0.17442
 Mn67 Mn 0.99653 0.50035 0.13367
 C68 C 1.05043 0.48460 0.14361
 C69 C 0.94006 0.43205 0.14073
 N70 N 1.02746 0.55374 -0.06816
 N71 N 1.04589 0.57556 -0.07524
 N72 N 0.97718 0.51764 -0.12884
 N73 N 0.95911 0.51205 -0.17434
 N74 N 0.97724 0.53125 -0.07469
 N75 N 0.95916 0.53520 -0.08170
 N76 N 1.02739 0.53991 -0.12161
 N77 N 1.04582 0.55189 -0.16625
 Mn78 Mn 1.00119 0.54113 0.00833
 C79 C 1.05726 0.57411 -0.13651
 C80 C 0.94808 0.52322 -0.14442
 N81 N 0.97196 0.45572 -0.08762
 N82 N 0.95282 0.43483 -0.10125
 N83 N 1.02417 0.49394 -0.12929
 N84 N 1.04247 0.49971 -0.17398
 N85 N 1.02203 0.47776 -0.08114
 N86 N 1.03867 0.47193 -0.09213
 N87 N 0.97392 0.47164 -0.13656
 N88 N 0.95615 0.46201 -0.18471
 Mn89 Mn 0.99586 0.46491 -0.00465
 Mn90 Mn 1.00071 0.50581 -0.12998
 Cl91 Cl 0.99858 0.50306 0.00182
 C92 C 0.94313 0.43901 -0.16210
 C93 C 1.05135 0.48583 -0.15001
 N94 N 0.46749 0.44556 0.07715
 N95 N 0.46256 0.42323 0.08413
 N96 N 0.46070 0.48734 0.13104
 N97 N 0.45013 0.49494 0.17747
 N98 N 0.44571 0.47388 0.07920
 N99 N 0.42448 0.47177 0.08934
 N100 N 0.48266 0.45905 0.12859
 N101 N 0.48847 0.44628 0.17189
 C102 C 0.47574 0.42394 0.14362
 C103 C 0.42751 0.48504 0.15086
 N104 N 0.52190 0.54388 0.08181
 N105 N 0.52743 0.56623 0.09414
 N106 N 0.52919 0.50177 0.13047
 N107 N 0.53999 0.49392 0.17515
 N108 N 0.54404 0.51577 0.07924
 N109 N 0.56521 0.51758 0.08700
 N110 N 0.50704 0.52971 0.13274
 N111 N 0.50205 0.54193 0.18088
 Mn112 Mn 0.49490 0.49443 0.13163
 C113 C 0.51484 0.56468 0.15622
 C114 C 0.56246 0.50393 0.14714
 N115 N 0.44591 0.47468 -0.08127
 N116 N 0.42459 0.47220 -0.09367
 N117 N 0.48303 0.46015 -0.13246
 N118 N 0.48821 0.44759 -0.17883
 N119 N 0.46753 0.44621 -0.08251
 N120 N 0.46160 0.42375 -0.09383
 N121 N 0.46120 0.48840 -0.13201
 N122 N 0.45082 0.49567 -0.18000
 Mn123 Mn 0.45636 0.45986 -0.00179
 C124 C 0.42802 0.48553 -0.15547
 C125 C 0.47469 0.42490 -0.15403
 N126 N 0.54428 0.51648 -0.07993
 N127 N 0.56547 0.51839 -0.08935
 N128 N 0.50726 0.53081 -0.13030
 N129 N 0.50174 0.54336 -0.17551
 N130 N 0.52215 0.54455 -0.07871
 N131 N 0.52736 0.56691 -0.08788
 N132 N 0.52928 0.50270 -0.13118
 N133 N 0.53979 0.49488 -0.17689
 Mn134 Mn 0.53335 0.53047 0.00065
 Mn135 Mn 0.49522 0.49550 -0.13225
 Cl136 Cl 0.49495 0.49508 -0.00041
 C137 C 0.56237 0.50480 -0.15020
 C138 C 0.51445 0.56586 -0.14855
 N139 N 0.45404 -0.02440 0.08362
 N140 N 0.43216 -0.04270 0.09065
 N141 N 0.49453 0.02527 0.13499
 N142 N 0.50152 0.04346 0.18096
 N143 N 0.48032 0.02576 0.08374
 N144 N 0.47709 0.04417 0.09383
 N145 N 0.46818 -0.02509 0.13467
 N146 N 0.45627 -0.04392 0.17785
 C147 C 0.43377 -0.05470 0.14981
 C148 C 0.49047 0.05508 0.15468
 N149 N 0.55265 0.02373 0.08307
 N150 N 0.57444 0.04221 0.09069
 N151 N 0.51222 -0.02632 0.13444
 N152 N 0.50569 -0.04435 0.18077
 N153 N 0.52663 -0.02649 0.08334
 N154 N 0.53041 -0.04453 0.09373
 N155 N 0.53840 0.02398 0.13463
 N156 N 0.55009 0.04265 0.17851
 Mn157 Mn 0.50332 -0.00057 0.13564
 C158 C 0.57259 0.05382 0.15069
 C159 C 0.51719 -0.05556 0.15464
 N160 N 0.48025 0.02573 -0.07655
 N161 N 0.47674 0.04393 -0.08814
 N162 N 0.46797 -0.02518 -0.12708
 N163 N 0.45621 -0.04429 -0.16928
 N164 N 0.45392 -0.02465 -0.07541
 N165 N 0.43228 -0.04350 -0.08059
 N166 N 0.49427 0.02497 -0.12790
 N167 N 0.50070 0.04257 -0.17563
 Mn168 Mn 0.46690 0.00067 0.00383
 C169 C 0.48970 0.05430 -0.15021
 C170 C 0.43393 -0.05550 -0.13975
 N171 N 0.52636 -0.02670 -0.07663
 N172 N 0.53043 -0.04451 -0.08871
 N173 N 0.53814 0.02385 -0.12797
 N174 N 0.54997 0.04192 -0.17381
 N175 N 0.55250 0.02351 -0.07703
 N176 N 0.57456 0.04126 -0.08718
 N177 N 0.51201 -0.02633 -0.12756
 N178 N 0.50594 -0.04381 -0.17561
 Mn179 Mn 0.53980 -0.00148 0.00324
 Mn180 Mn 0.50308 -0.00069 -0.12844
 Cl181 Cl 0.50329 -0.00051 0.00360
 C182 C 0.51746 -0.05509 -0.15059
 C183 C 0.57269 0.05261 -0.14778
 C184 C 1.20361 0.52020 0.43478
 C185 C 1.18501 0.52120 0.39876
 C186 C 1.17269 0.50568 0.33992
 C187 C 1.18022 0.48980 0.31546
 C188 C 1.19893 0.48882 0.35152
 C189 C 1.21012 0.50320 0.41412
 C190 C 1.15110 0.50548 0.31042
 C191 C 1.14051 0.49556 0.24563
 C192 C 1.11770 0.49366 0.21997
 C193 C 1.10493 0.47745 0.16285
 C194 C 1.08308 0.47448 0.13801
 C195 C 1.07350 0.48769 0.16983
 C196 C 1.08637 0.50422 0.22602
 C197 C 1.10830 0.50733 0.25055
 H198 H 1.21266 0.53255 0.47990
 H199 H 1.17987 0.53387 0.41813
 H200 H 1.17108 0.47723 0.27111
 H201 H 1.20333 0.47548 0.33367
 H202 H 1.14343 0.51341 0.34573
 H203 H 1.14826 0.48769 0.21034
 H204 H 1.11175 0.46681 0.13780
 H205 H 1.07362 0.46172 0.09418
 H206 H 1.07959 0.51495 0.25067
 H207 H 1.11775 0.52066 0.29271
 C208 C 0.53668 0.72632 0.35028
 C209 C 0.53595 0.70778 0.30830
 C210 C 0.52191 0.68396 0.33097
 C211 C 0.50777 0.67898 0.39508
 C212 C 0.50853 0.69748 0.43713
 C213 C 0.52346 0.72153 0.41666
 C214 C 0.52200 0.66483 0.28561
 C215 C 0.51643 0.64343 0.31348
 C216 C 0.51606 0.62382 0.26974
 C217 C 0.50274 0.60050 0.29748
 C218 C 0.50219 0.58137 0.25997
 C219 C 0.51518 0.58512 0.19405
 C220 C 0.52859 0.60842 0.16597
 C221 C 0.52907 0.62764 0.20346
 H222 H 0.54845 0.74449 0.33215
 H223 H 0.54676 0.71210 0.25857
 H224 H 0.49561 0.66083 0.41229
 H225 H 0.49665 0.69277 0.48430
 H226 H 0.52721 0.66885 0.22805
 H227 H 0.51154 0.63969 0.37136
 H228 H 0.49265 0.59704 0.34850
 H229 H 0.49169 0.56362 0.28308
 H230 H 0.53888 0.61182 0.11544
 H231 H 0.54007 0.64539 0.18118
 C232 C 0.31738 -0.20663 0.44135
 C233 C 0.33682 -0.18858 0.40316
 C234 C 0.33327 -0.17807 0.34014
 C235 C 0.30984 -0.18705 0.31327
 C236 C 0.29033 -0.20520 0.35136
 C237 C 0.29372 -0.21466 0.41778
 C238 C 0.35443 -0.15776 0.30490
 C239 C 0.35323 -0.14093 0.26475
 C240 C 0.37452 -0.11947 0.23478
 C241 C 0.37147 -0.10758 0.17437
 C242 C 0.39077 -0.08668 0.14636
 C243 C 0.41353 -0.07706 0.17880
 C244 C 0.41668 -0.08887 0.23930
 C245 C 0.39737 -0.10984 0.26724
 H246 H 0.32096 -0.21442 0.48934
 H247 H 0.35472 -0.18246 0.42398
 H248 H 0.30639 -0.18010 0.26312
 H249 H 0.27254 -0.21081 0.33066
 H250 H 0.37166 -0.15614 0.31588
 H251 H 0.33601 -0.14253 0.25366
 H252 H 0.35405 -0.11448 0.14877
 H253 H 0.38782 -0.07795 0.09962
 H254 H 0.43401 -0.08177 0.26559
 H255 H 0.40035 -0.11798 0.31537
 C256 C 0.78878 0.47882 0.42670
 C257 C 0.80646 0.47745 0.38601
 C258 C 0.81854 0.49363 0.32828
 C259 C 0.81141 0.51026 0.30884
 C260 C 0.79368 0.51161 0.34961
 C261 C 0.78283 0.49644 0.41043
 C262 C 0.83874 0.49287 0.29160
 C263 C 0.85674 0.51173 0.25731
 C264 C 0.87823 0.51184 0.22761
 C265 C 0.89154 0.52826 0.17172
 C266 C 0.91262 0.52989 0.14488
 C267 C 0.92101 0.51531 0.17415
 C268 C 0.90775 0.49886 0.23009
 C269 C 0.88660 0.49715 0.25673
 H270 H 0.78031 0.46667 0.47267
 H271 H 0.81132 0.46423 0.40143
 H272 H 0.81954 0.52240 0.26282
 H273 H 0.78910 0.52511 0.33559
 H274 H 0.83934 0.47652 0.29697
 H275 H 0.85621 0.52810 0.25151
 H276 H 0.88563 0.53994 0.14885
 H277 H 0.92247 0.54274 0.10171
 H278 H 0.91386 0.48747 0.25388
 H279 H 0.87733 0.48481 0.30152
 C280 C 0.51102 0.30577 0.42646
 C281 C 0.51188 0.32473 0.38683
 C282 C 0.49404 0.32073 0.33481
 C283 C 0.47586 0.29705 0.32074
 C284 C 0.47498 0.27809 0.36064
 C285 C 0.49219 0.28237 0.41511
 C286 C 0.49509 0.34175 0.29779
 C287 C 0.47645 0.34136 0.26331
 C288 C 0.47734 0.36296 0.23180
 C289 C 0.46173 0.36028 0.17363
 C290 C 0.46137 0.38012 0.14434
 C291 C 0.47640 0.40301 0.17350
 C292 C 0.49193 0.40572 0.23201
 C293 C 0.49240 0.38592 0.26101
 H294 H 0.52474 0.30940 0.46731
 H295 H 0.52627 0.34269 0.39815
 H296 H 0.46223 0.29294 0.27934
 H297 H 0.46048 0.26010 0.35041
 H298 H 0.51182 0.35846 0.30172
 H299 H 0.45971 0.32479 0.25778
 H300 H 0.44979 0.34277 0.15069
 H301 H 0.44916 0.37749 0.09936
 H302 H 0.50361 0.42315 0.25586
 H303 H 0.50409 0.38864 0.30750
 C304 C 0.68152 0.21066 0.43534
 C305 C 0.66328 0.19125 0.39734
 C306 C 0.66868 0.17882 0.34395
 C307 C 0.69288 0.18692 0.32721
 C308 C 0.71111 0.20630 0.36548
 C309 C 0.70557 0.21801 0.42083
 C310 C 0.64855 0.15764 0.30779
 C311 C 0.65085 0.14067 0.27211
 C312 C 0.63029 0.11888 0.24046
 C313 C 0.63439 0.10708 0.18180
 C314 C 0.61563 0.08605 0.15206
 C315 C 0.59242 0.07621 0.18118
 C316 C 0.58830 0.08787 0.24022
 C317 C 0.60702 0.10895 0.26972
 H318 H 0.67686 0.21975 0.47687
 H319 H 0.64484 0.18565 0.41073
 H320 H 0.69798 0.17853 0.28476
 H321 H 0.72959 0.21188 0.35297
 H322 H 0.63098 0.15574 0.31308
 H323 H 0.66830 0.14243 0.26543
 H324 H 0.65218 0.11421 0.15877
 H325 H 0.61933 0.07739 0.10666
 H326 H 0.57061 0.08062 0.26405
 H327 H 0.60325 0.11700 0.31656
 C328 C 0.47769 0.19940 -0.34515
 C329 C 0.47772 0.18132 -0.30279
 C330 C 0.49119 0.17084 -0.32488
 C331 C 0.50551 0.17956 -0.38879
 C332 C 0.50548 0.19760 -0.43122
 C333 C 0.49112 0.20746 -0.41127
 C334 C 0.49019 0.15127 -0.27925
 C335 C 0.49487 0.13476 -0.30674
 C336 C 0.49373 0.11481 -0.26291
 C337 C 0.50596 0.10356 -0.29002
 C338 C 0.50487 0.08415 -0.25268
 C339 C 0.49130 0.07538 -0.18755
 C340 C 0.47904 0.08658 -0.15996
 C341 C 0.48018 0.10611 -0.19732
 H342 H 0.46626 0.20629 -0.32754
 H343 H 0.46675 0.17515 -0.25330
 H344 H 0.51721 0.17293 -0.40559
 H345 H 0.51744 0.20439 -0.47828
 H346 H 0.48485 0.15029 -0.22191
 H347 H 0.49994 0.13573 -0.36439
 H348 H 0.51641 0.10979 -0.34051
 H349 H 0.51451 0.07589 -0.27535
 H350 H 0.46834 0.08007 -0.11007
 H351 H 0.46995 0.11381 -0.17555
 C352 C 0.71794 0.51261 -0.33759
 C353 C 0.69992 0.51213 -0.29342
 C354 C 0.67575 0.49694 -0.31095
 C355 C 0.66992 0.48108 -0.37096
 C356 C 0.68790 0.48152 -0.41510
 C357 C 0.71221 0.49789 -0.40090
 C358 C 0.65722 0.49827 -0.26603
 C359 C 0.63584 0.49297 -0.29391
 C360 C 0.61735 0.49555 -0.25277
 C361 C 0.59397 0.48406 -0.28122
 C362 C 0.57609 0.48683 -0.24723
 C363 C 0.58122 0.50131 -0.18412
 C364 C 0.60451 0.51270 -0.15495
 C365 C 0.62246 0.50993 -0.18899
 H366 H 0.73633 0.52555 -0.32434
 H367 H 0.70488 0.52430 -0.24683
 H368 H 0.65151 0.46817 -0.38383
 H369 H 0.68270 0.46876 -0.46004
 H370 H 0.66199 0.50490 -0.20994
 H371 H 0.63155 0.48672 -0.35060
 H372 H 0.58954 0.47299 -0.33038
 H373 H 0.55828 0.47780 -0.27092
 H374 H 0.60896 0.52404 -0.10646
 H375 H 0.64031 0.51962 -0.16613
 C376 C 0.79140 0.28696 -0.34957
 C377 C 0.81041 0.30467 -0.30879
 C378 C 0.82055 0.32879 -0.32820
 C379 C 0.81052 0.33498 -0.38736
 C380 C 0.79143 0.31729 -0.42804
 C381 C 0.78195 0.29289 -0.41134
 C382 C 0.84123 0.34685 -0.28473
 C383 C 0.85767 0.36806 -0.31247
 C384 C 0.87912 0.38588 -0.27102
 C385 C 0.89122 0.40957 -0.29641
 C386 C 0.91191 0.42688 -0.26076
 C387 C 0.92106 0.42080 -0.19909
 C388 C 0.90907 0.39713 -0.17358
 C389 C 0.88838 0.37980 -0.20926
 H390 H 0.78489 0.26851 -0.33451
 H391 H 0.81762 0.29943 -0.26287
 H392 H 0.81698 0.35345 -0.40161
 H393 H 0.78364 0.32289 -0.47112
 H394 H 0.84319 0.34190 -0.22899
 H395 H 0.85560 0.37276 -0.36851
 H396 H 0.88463 0.41474 -0.34411
 H397 H 0.92080 0.44500 -0.28170
 H398 H 0.91583 0.39191 -0.12646
 H399 H 0.88017 0.36166 -0.18907
 C400 C 0.53660 -0.19592 -0.34716
 C401 C 0.53574 -0.17824 -0.30486
 C402 C 0.52148 -0.16863 -0.32703
 C403 C 0.50728 -0.17780 -0.39103
 C404 C 0.50815 -0.19543 -0.43339
 C405 C 0.52327 -0.20440 -0.41333
 C406 C 0.52151 -0.14955 -0.28127
 C407 C 0.51581 -0.13373 -0.30851
 C408 C 0.51601 -0.11426 -0.26442
 C409 C 0.50299 -0.10379 -0.29132
 C410 C 0.50321 -0.08483 -0.25364
 C411 C 0.51665 -0.07575 -0.18839
 C412 C 0.52967 -0.08618 -0.16104
 C413 C 0.52942 -0.10522 -0.19873
 H414 H 0.54854 -0.20218 -0.32940
 H415 H 0.54663 -0.17172 -0.25526
 H416 H 0.49501 -0.17189 -0.40790
 H417 H 0.49620 -0.20265 -0.48039
 H418 H 0.52696 -0.14836 -0.22396
 H419 H 0.51061 -0.13491 -0.36611
 H420 H 0.49262 -0.11028 -0.34191
 H421 H 0.49301 -0.07713 -0.27612
 H422 H 0.54031 -0.07940 -0.11108
 H423 H 0.54025 -0.11228 -0.17709
 C424 C 0.27584 0.48389 -0.35315
 C425 C 0.29333 0.48257 -0.31122
 C426 C 0.31723 0.49426 -0.33457
 C427 C 0.32346 0.50809 -0.39968
 C428 C 0.30597 0.50941 -0.44172
 C429 C 0.28175 0.49694 -0.42007
 C430 C 0.33509 0.49204 -0.28869
 C431 C 0.35574 0.49506 -0.31601
 C432 C 0.37377 0.49278 -0.27133
 C433 C 0.39738 0.50401 -0.29741
 C434 C 0.41497 0.50188 -0.25898
 C435 C 0.40929 0.48822 -0.19382
 C436 C 0.38568 0.47691 -0.16733
 C437 C 0.36802 0.47911 -0.20577
 H438 H 0.25746 0.47381 -0.33438
 H439 H 0.28808 0.47200 -0.26090
 H440 H 0.34186 0.51843 -0.41766
 H441 H 0.31167 0.52102 -0.48965
 H442 H 0.33066 0.48726 -0.23101
 H443 H 0.36002 0.49967 -0.37386
 H444 H 0.40227 0.51452 -0.34786
 H445 H 0.43302 0.51080 -0.28084
 H446 H 0.38081 0.46614 -0.11748
 H447 H 0.34990 0.46960 -0.18489
 C448 C 1.21983 0.69625 -0.37449
 C449 C 1.20092 0.67738 -0.33666
 C450 C 1.17796 0.67471 -0.33771
 C451 C 1.17417 0.69116 -0.37805
 C452 C 1.19302 0.70984 -0.41661
 C453 C 1.21592 0.71241 -0.41543
 C454 C 1.15812 0.65395 -0.29975
 C455 C 1.13935 0.65452 -0.27024
 C456 C 1.11913 0.63356 -0.23430
 C457 C 1.10643 0.63723 -0.17758
 C458 C 1.08663 0.61786 -0.14457
 C459 C 1.07885 0.59447 -0.16886
 C460 C 1.09150 0.59076 -0.22578
 C461 C 1.11149 0.61010 -0.25810
 H462 H 1.23738 0.69792 -0.37342
 H463 H 1.20421 0.66481 -0.30653
 H464 H 1.15656 0.68925 -0.38168
 H465 H 1.18970 0.72213 -0.44825
 H466 H 1.15956 0.63806 -0.29354
 H467 H 1.13913 0.67116 -0.26969
 H468 H 1.11185 0.65514 -0.15876
 H469 H 1.07714 0.62124 -0.10102
 H470 H 1.08583 0.57291 -0.24574
 H471 H 1.12049 0.60668 -0.30305
 C472 C 0.81413 0.52238 -0.46122
 C473 C 0.83522 0.52550 -0.42940
 C474 C 0.83468 0.51447 -0.36205
 C475 C 0.81258 0.50028 -0.32668
 C476 C 0.79141 0.49693 -0.35888
 C477 C 0.79173 0.50744 -0.42780
 C478 C 0.85726 0.51710 -0.33254
 C479 C 0.86119 0.51580 -0.26014
 C480 C 0.88372 0.51794 -0.23202
 C481 C 0.89206 0.52778 -0.16148
 C482 C 0.91318 0.52981 -0.13326
 C483 C 0.92607 0.52158 -0.17463
 C484 C 0.91750 0.51135 -0.24466
 C485 C 0.89656 0.50957 -0.27320
 H486 H 0.81551 0.53208 -0.51159
 H487 H 0.85206 0.53671 -0.45736
 H488 H 0.81145 0.49101 -0.27554
 H489 H 0.77469 0.48500 -0.33145
 H490 H 0.87147 0.52115 -0.37194
 H491 H 0.84805 0.51424 -0.21977
 H492 H 0.88232 0.53409 -0.12843
 H493 H 0.91928 0.53757 -0.07877
 H494 H 0.92697 0.50466 -0.27740
 H495 H 0.89021 0.50121 -0.32681
 C496 C 0.50427 0.29244 -0.35797
 C497 C 0.50451 0.31157 -0.32112
 C498 C 0.48909 0.31982 -0.34304
 C499 C 0.47344 0.30870 -0.40285
 C500 C 0.47352 0.28989 -0.44072
 C501 C 0.48923 0.28172 -0.41972
 C502 C 0.49046 0.34071 -0.30507
 C503 C 0.47119 0.34293 -0.29336
 C504 C 0.47273 0.36405 -0.25652
 C505 C 0.45410 0.36114 -0.20975
 C506 C 0.45494 0.38091 -0.17527
 C507 C 0.47412 0.40399 -0.18878
 C508 C 0.49261 0.40696 -0.23645
 C509 C 0.49202 0.38714 -0.26966
 H510 H 0.51678 0.28687 -0.34036
 H511 H 0.51681 0.31999 -0.27537
 H512 H 0.46151 0.31486 -0.42152
 H513 H 0.46094 0.28148 -0.48578
 H514 H 0.50768 0.35411 -0.28337
 H515 H 0.45360 0.32838 -0.30793
 H516 H 0.43899 0.34352 -0.19941
 H517 H 0.44040 0.37819 -0.13904
 H518 H 0.50756 0.42459 -0.24783
 H519 H 0.50637 0.38995 -0.30686
 C520 C 0.69223 0.21809 -0.36679
 C521 C 0.67391 0.19830 -0.33046
 C522 C 0.67106 0.17551 -0.34070
 C523 C 0.68674 0.17279 -0.38866
 C524 C 0.70485 0.19255 -0.42576
 C525 C 0.70760 0.21527 -0.41535
 C526 C 0.65085 0.15482 -0.30395
 C527 C 0.65179 0.13547 -0.28254
 C528 C 0.63129 0.11466 -0.24721
 C529 C 0.63560 0.10123 -0.19479
 C530 C 0.61654 0.08123 -0.16151
 C531 C 0.59285 0.07401 -0.18146
 C532 C 0.58853 0.08726 -0.23464
 C533 C 0.60755 0.10745 -0.26707
 H534 H 0.69406 0.23552 -0.35856
 H535 H 0.66192 0.20077 -0.29430
 H536 H 0.68463 0.15536 -0.39924
 H537 H 0.71654 0.19010 -0.46339
 H538 H 0.63510 0.15607 -0.29143
 H539 H 0.66838 0.13522 -0.28790
 H540 H 0.65375 0.10634 -0.17917
 H541 H 0.62035 0.07124 -0.12091
 H542 H 0.57042 0.08203 -0.25121
 H543 H 0.60365 0.11706 -0.30880
 C544 C 1.21322 0.51508 -0.35965
 C545 C 1.19465 0.51532 -0.32053
 C546 C 1.17075 0.49975 -0.34002
 C547 C 1.16565 0.48384 -0.39940
 C548 C 1.18417 0.48386 -0.43940
 C549 C 1.20826 0.49986 -0.42121
 C550 C 1.15156 0.50132 -0.30040
 C551 C 1.13002 0.48222 -0.28805
 C552 C 1.11057 0.48395 -0.25092
 C553 C 1.09459 0.46522 -0.20511
 C554 C 1.07559 0.46607 -0.17105
 C555 C 1.07189 0.48539 -0.18397
 C556 C 1.08772 0.50404 -0.23047
 C557 C 1.10701 0.50342 -0.26334
 H558 H 1.23149 0.52773 -0.34412
 H559 H 1.19897 0.52781 -0.27512
 H560 H 1.14737 0.47182 -0.41638
 H561 H 1.17962 0.47129 -0.48467
 H562 H 1.15561 0.51857 -0.27864
 H563 H 1.12678 0.46459 -0.30279
 H564 H 1.09690 0.44997 -0.19537
 H565 H 1.06354 0.45141 -0.13572
 H566 H 1.08519 0.51910 -0.24138
 H567 H 1.11875 0.51785 -0.29987
 C568 C 0.54666 0.71835 -0.42767
 C569 C 0.54812 0.70056 -0.38792
 C570 C 0.52995 0.68589 -0.33809
 C571 C 0.51074 0.68999 -0.32635
 C572 C 0.50944 0.70794 -0.36542
 C573 C 0.52714 0.72194 -0.41738
 C574 C 0.53149 0.66661 -0.29885
 C575 C 0.51202 0.64575 -0.28210
 C576 C 0.51321 0.62571 -0.24696
 C577 C 0.49554 0.60228 -0.26438
 C578 C 0.49607 0.58287 -0.23261
 C579 C 0.51399 0.58652 -0.18143
 C580 C 0.53139 0.60996 -0.16250
 C581 C 0.53110 0.62943 -0.19530
 H582 H 0.56065 0.72921 -0.46685
 H583 H 0.56321 0.69789 -0.39722
 H584 H 0.49682 0.67945 -0.28668
 H585 H 0.49437 0.71064 -0.35625
 H586 H 0.54911 0.66902 -0.28868
 H587 H 0.49457 0.64249 -0.29960
 H588 H 0.48147 0.59900 -0.30350
 H589 H 0.48232 0.56498 -0.24774
 H590 H 0.54533 0.61324 -0.12288
 H591 H 0.54462 0.64731 -0.17934
 C592 C 0.29570 -0.18725 -0.43836
 C593 C 0.31386 -0.16687 -0.40423
 C594 C 0.32754 -0.16883 -0.34723
 C595 C 0.32246 -0.19167 -0.32392
 C596 C 0.30450 -0.21213 -0.35913
 C597 C 0.29141 -0.21002 -0.41797
 C598 C 0.34794 -0.14675 -0.31733
 C599 C 0.35564 -0.14448 -0.24723
 C600 C 0.37601 -0.12189 -0.21981
 C601 C 0.37530 -0.11397 -0.14794
 C602 C 0.39406 -0.09224 -0.12199
 C603 C 0.41412 -0.07842 -0.16693
 C604 C 0.41517 -0.08672 -0.23798
 C605 C 0.39622 -0.10819 -0.26442
 H606 H 0.28549 -0.18521 -0.48258
 H607 H 0.31742 -0.14948 -0.42294
 H608 H 0.33299 -0.19371 -0.28086
 H609 H 0.30146 -0.22951 -0.34247
 H610 H 0.35624 -0.13138 -0.35382
 H611 H 0.34595 -0.15883 -0.20796
 H612 H 0.35999 -0.12436 -0.11245
 H613 H 0.39296 -0.08634 -0.06663
 H614 H 0.43051 -0.07648 -0.27347
 H615 H 0.39748 -0.11418 -0.31947
 C616 C 0.54661 -0.17809 0.43098
 C617 C 0.54799 -0.15867 0.39253
 C618 C 0.52948 -0.16186 0.34458
 C619 C 0.51000 -0.18499 0.33328
 C620 C 0.50882 -0.20446 0.37084
 C621 C 0.52687 -0.20106 0.42108
 C622 C 0.53117 -0.14087 0.30616
 C623 C 0.51191 -0.13882 0.29141
 C624 C 0.51361 -0.11744 0.25569
 C625 C 0.49697 -0.11038 0.27462
 C626 C 0.49820 -0.09016 0.24215
 C627 C 0.51579 -0.07696 0.18886
 C628 C 0.53209 -0.08434 0.16856
 C629 C 0.53110 -0.10433 0.20186
 H630 H 0.56083 -0.17521 0.46895
 H631 H 0.56329 -0.14105 0.40140
 H632 H 0.49580 -0.18809 0.29503
 H633 H 0.49355 -0.22211 0.36212
 H634 H 0.54887 -0.12604 0.29446
 H635 H 0.49446 -0.15255 0.31038
 H636 H 0.48320 -0.12034 0.31542
 H637 H 0.48529 -0.08496 0.25836
 H638 H 0.54574 -0.07456 0.12728
 H639 H 0.54377 -0.10971 0.18460
 C640 C 0.28053 0.47072 0.42528
 C641 C 0.29722 0.46708 0.38660
 C642 C 0.31350 0.48455 0.33773
 C643 C 0.31208 0.50530 0.32558
 C644 C 0.29513 0.50875 0.36335
 C645 C 0.27961 0.49174 0.41467
 C646 C 0.33152 0.48057 0.29961
 C647 C 0.35369 0.49841 0.28495
 C648 C 0.37223 0.49449 0.25017
 C649 C 0.39630 0.50956 0.26940
 C650 C 0.41426 0.50636 0.23762
 C651 C 0.40851 0.48835 0.18467
 C652 C 0.38447 0.47357 0.16419
 C653 C 0.36646 0.47652 0.19688
 H654 H 0.26851 0.45730 0.46414
 H655 H 0.29781 0.45085 0.39616
 H656 H 0.32395 0.51878 0.28665
 H657 H 0.29451 0.52498 0.35408
 H658 H 0.32692 0.46231 0.28839
 H659 H 0.35901 0.51633 0.30350
 H660 H 0.40119 0.52366 0.30981
 H661 H 0.43267 0.51812 0.25399
 H662 H 0.37957 0.45963 0.12319
 H663 H 0.34813 0.46501 0.17947
 C664 C 1.20040 0.72013 0.37540
 C665 C 1.18048 0.70280 0.33685
 C666 C 1.17363 0.67853 0.34223
 C667 C 1.18762 0.67205 0.38595
 C668 C 1.20748 0.68942 0.42483
 C669 C 1.21386 0.71354 0.42036
 C670 C 1.15214 0.66090 0.30039
 C671 C 1.14056 0.63728 0.31320
 C672 C 1.11858 0.61976 0.27309
 C673 C 1.10479 0.59683 0.30346
 C674 C 1.08388 0.57970 0.26838
 C675 C 1.07628 0.58515 0.20200
 C676 C 1.09016 0.60791 0.17074
 C677 C 1.11118 0.62501 0.20553
 H678 H 1.20515 0.73869 0.37106
 H679 H 1.17024 0.70837 0.30316
 H680 H 1.18364 0.65376 0.38989
 H681 H 1.21796 0.68408 0.45821
 H682 H 1.14509 0.66809 0.25993
 H683 H 1.14655 0.63027 0.35751
 H684 H 1.11011 0.59216 0.35493
 H685 H 1.07360 0.56223 0.29354
 H686 H 1.08487 0.61246 0.11902
 H687 H 1.12157 0.64209 0.17846
 C688 C 0.46708 0.18116 0.43332
 C689 C 0.46488 0.16145 0.39447
 C690 C 0.48296 0.16402 0.34566
 C691 C 0.50289 0.18686 0.33411
 C692 C 0.50491 0.20663 0.37214
 C693 C 0.48724 0.20383 0.42306
 C694 C 0.48037 0.14271 0.30671
 C695 C 0.49913 0.13997 0.29060
 C696 C 0.49655 0.11819 0.25490
 C697 C 0.51282 0.11058 0.27289
 C698 C 0.51076 0.08997 0.24063
 C699 C 0.49269 0.07691 0.18845
 C700 C 0.47675 0.08483 0.16898
 C701 C 0.47857 0.10523 0.20215
 H702 H 0.45314 0.17875 0.47177
 H703 H 0.44926 0.14408 0.40358
 H704 H 0.51679 0.18952 0.29524
 H705 H 0.52047 0.22405 0.36306
 H706 H 0.46241 0.12821 0.29588
 H707 H 0.51686 0.15337 0.30866
 H708 H 0.52694 0.12042 0.31284
 H709 H 0.52341 0.08436 0.25615
 H710 H 0.46275 0.07516 0.12856
 H711 H 0.46615 0.11102 0.18565
 C712 C 0.70289 0.51764 0.45264
 C713 C 0.68328 0.51788 0.42087
 C714 C 0.66906 0.50070 0.36796
 C715 C 0.67477 0.48316 0.34733
 C716 C 0.69416 0.48265 0.38019
 C717 C 0.70815 0.49966 0.43406
 C718 C 0.64790 0.50100 0.33775
 C719 C 0.64002 0.49433 0.26826
 C720 C 0.61963 0.49602 0.23791
 C721 C 0.62038 0.50301 0.16390
 C722 C 0.60177 0.50558 0.13447
 C723 C 0.58174 0.50055 0.17803
 C724 C 0.58055 0.49273 0.25134
 C725 C 0.59943 0.49065 0.28130
 H726 H 0.71367 0.53119 0.49308
 H727 H 0.67923 0.53157 0.43753
 H728 H 0.66386 0.46939 0.30767
 H729 H 0.69784 0.46859 0.36514
 H730 H 0.63952 0.50844 0.37243
 H731 H 0.64987 0.48931 0.23073
 H732 H 0.63567 0.50702 0.12933
 H733 H 0.60301 0.51143 0.07753
 H734 H 0.56524 0.48863 0.28590
 H735 H 0.59815 0.48468 0.33809
 C736 C 0.77755 0.30989 0.37741
 C737 C 0.79634 0.32851 0.33850
 C738 C 0.81952 0.33178 0.34210
 C739 C 0.82363 0.31616 0.38582
 C740 C 0.80489 0.29775 0.42549
 C741 C 0.78180 0.29467 0.42222
 C742 C 0.83923 0.35234 0.30321
 C743 C 0.85827 0.35186 0.27578
 C744 C 0.87841 0.37273 0.23936
 C745 C 0.89132 0.36895 0.18358
 C746 C 0.91104 0.38828 0.15021
 C747 C 0.91854 0.41172 0.17333
 C748 C 0.90571 0.41553 0.22935
 C749 C 0.88577 0.39623 0.26195
 H750 H 0.75982 0.30775 0.37434
 H751 H 0.79281 0.34042 0.30559
 H752 H 0.84140 0.31856 0.39121
 H753 H 0.80845 0.28611 0.45974
 H754 H 0.83751 0.36800 0.29467
 H755 H 0.85881 0.33540 0.27745
 H756 H 0.88609 0.35100 0.16576
 H757 H 0.92070 0.38484 0.10738
 H758 H 0.91117 0.43343 0.24835
 H759 H 0.87658 0.39971 0.30618
   
