data_POSCAR
  _audit_creation_date              2014-09-24
  _audit_creation_method            'ToBaCCo'
  _symmetry_space_group_name_H-M    'P1'
  _symmetry_Int_Tables_number       1
  _symmetry_cell_setting            triclinic
  loop_
  _symmetry_equiv_pos_as_xyz
 x,y,z
_cell_length_a 32.2851
_cell_length_b 40.1355
_cell_length_c 17.8753
_cell_angle_alpha 89.968900
_cell_angle_beta 89.970900
_cell_angle_gamma 90.095600
loop_
  _atom_site_label
  _atom_site_type_symbol
  _atom_site_fract_x
  _atom_site_fract_y
  _atom_site_fract_z
C1 C 0.79418 0.18848 0.43262
 C2 C 0.80125 0.17293 0.50180
 C3 C 0.79434 0.18903 0.57036
 C4 C 0.77365 0.22029 0.57005
 C5 C 0.76228 0.23520 0.50075
 C6 C 0.77303 0.21954 0.43190
 C7 C 0.75945 0.23411 0.36468
 C8 C 0.73887 0.26443 0.36414
 C9 C 0.72790 0.28038 0.43105
 C10 C 0.73929 0.26557 0.50028
 C11 C 0.76140 0.23597 0.63681
 C12 C 0.74080 0.26629 0.63620
 C13 C 0.72764 0.28097 0.56895
 C14 C 0.70513 0.31149 0.56788
 C15 C 0.69698 0.32648 0.49849
 C16 C 0.70616 0.31094 0.43067
 H17 H 0.76362 0.22194 0.31135
 H18 H 0.73144 0.27506 0.31024
 H19 H 0.76675 0.22480 0.69088
 H20 H 0.73566 0.27807 0.68969
 H21 H 0.81763 0.14934 0.50230
 H22 H 0.67935 0.34948 0.49669
 C23 C 0.19997 0.80825 0.56782
 C24 C 0.18943 0.82258 0.49922
 C25 C 0.20113 0.80843 0.43109
 C26 C 0.22566 0.77923 0.43104
 C27 C 0.23752 0.76454 0.50024
 C28 C 0.22447 0.77901 0.56889
 C29 C 0.23643 0.76396 0.63635
 C30 C 0.25947 0.73474 0.63684
 C31 C 0.27409 0.72039 0.57004
 C32 C 0.26230 0.73521 0.50075
 C33 C 0.23902 0.76457 0.36398
 C34 C 0.26204 0.73535 0.36437
 C35 C 0.27445 0.72044 0.43185
 C36 C 0.29761 0.69058 0.43248
 C37 C 0.30721 0.67563 0.50081
 C38 C 0.29757 0.69038 0.56982
 H39 H 0.22784 0.77441 0.68985
 H40 H 0.26468 0.72322 0.69059
 H41 H 0.23171 0.77543 0.31025
 H42 H 0.26953 0.72440 0.31083
 H43 H 0.17001 0.84463 0.49879
 H44 H 0.32571 0.65307 0.49986
 C45 C 0.20659 0.18752 -0.43384
 C46 C 0.19963 0.17226 -0.50334
 C47 C 0.20656 0.18869 -0.57156
 C48 C 0.22710 0.22007 -0.57060
 C49 C 0.23847 0.23468 -0.50099
 C50 C 0.22781 0.21862 -0.43247
 C51 C 0.24151 0.23286 -0.36498
 C52 C 0.26197 0.26329 -0.36377
 C53 C 0.27275 0.27967 -0.43032
 C54 C 0.26137 0.26516 -0.49986
 C55 C 0.23918 0.23619 -0.63701
 C56 C 0.25965 0.26662 -0.63574
 C57 C 0.27290 0.28097 -0.56820
 C58 C 0.29541 0.31156 -0.56648
 C59 C 0.30346 0.32627 -0.49677
 C60 C 0.29430 0.31037 -0.42928
 H61 H 0.23753 0.22035 -0.31195
 H62 H 0.26947 0.27364 -0.30964
 H63 H 0.23377 0.22529 -0.69133
 H64 H 0.26460 0.27873 -0.68894
 H65 H 0.18328 0.14862 -0.50440
 H66 H 0.32101 0.34934 -0.49441
 C67 C -0.29327 0.68758 -0.43414
 C68 C -0.30021 0.67236 -0.50370
 C69 C -0.29359 0.68894 -0.57185
 C70 C -0.27338 0.72046 -0.57074
 C71 C -0.26200 0.73503 -0.50107
 C72 C -0.27234 0.71879 -0.43264
 C73 C -0.25862 0.73299 -0.36511
 C74 C -0.23849 0.76356 -0.36374
 C75 C -0.22801 0.78012 -0.43020
 C76 C -0.23941 0.76565 -0.49980
 C77 C -0.26162 0.73678 -0.63707
 C78 C -0.24148 0.76734 -0.63564
 C79 C -0.22818 0.78164 -0.56806
 C80 C -0.20590 0.81232 -0.56623
 C81 C -0.19784 0.82699 -0.49647
 C82 C -0.20673 0.81095 -0.42904
 H83 H -0.26236 0.72036 -0.31217
 H84 H -0.23102 0.77387 -0.30956
 H85 H -0.26702 0.72595 -0.69147
 H86 H -0.23679 0.77960 -0.68876
 H87 H -0.31632 0.64862 -0.50481
 H88 H -0.18046 0.85014 -0.49408
 N89 N -0.04570 0.94081 -0.07731
 N90 N -0.07372 0.91775 -0.09271
 N91 N 0.04104 0.96394 -0.13168
 N92 N 0.06902 0.95791 -0.18364
 N93 N 0.04096 0.94019 -0.08113
 N94 N 0.06841 0.91701 -0.09816
 N95 N -0.04642 0.96455 -0.12786
 N96 N -0.07547 0.95869 -0.17799
 C97 C -0.09255 0.92967 -0.15490
 C98 C 0.08613 0.92877 -0.16161
 N99 N 0.04248 1.05968 -0.08363
 N100 N 0.07026 1.08247 -0.10245
 N101 N -0.04543 1.03598 -0.12925
 N102 N -0.07402 1.04174 -0.18009
 N103 N -0.04433 1.06017 -0.07983
 N104 N -0.07178 1.08342 -0.09683
 N105 N 0.04180 1.03550 -0.13313
 N106 N 0.06942 1.04087 -0.18605
 Mn107 Mn -0.00224 0.99999 -0.13107
 C108 C 0.08727 1.07002 -0.16591
 C109 C -0.09056 1.07116 -0.15886
 N110 N 0.04324 0.94069 0.08052
 N111 N 0.07056 0.91729 0.09685
 N112 N -0.04256 0.96543 0.13437
 N113 N -0.07008 0.96003 0.18745
 N114 N -0.04349 0.94139 0.08462
 N115 N -0.07130 0.91864 0.10335
 N116 N 0.04476 0.96482 0.13000
 N117 N 0.07356 0.95882 0.18043
 Mn118 Mn -0.00128 0.94041 0.00167
 C119 C 0.08975 0.92933 0.15858
 C120 C -0.08809 0.93099 0.16704
 N121 N -0.04214 1.06065 0.08269
 N122 N -0.06989 1.08357 0.10047
 N123 N 0.04550 1.03628 0.12871
 N124 N 0.07429 1.04205 0.17923
 N125 N 0.04469 1.06025 0.07870
 N126 N 0.07256 1.08336 0.09492
 N127 N -0.04172 1.03681 0.13304
 N128 N -0.06951 1.04247 0.18541
 Mn129 Mn 0.00016 1.06061 -0.00052
 Mn130 Mn 0.00153 1.00085 0.13207
 Cl131 Cl -0.00046 1.00049 0.00052
 C132 C -0.08714 1.07149 0.16418
 C133 C 0.09127 1.07123 0.15712
 N134 N 0.45842 0.46491 0.13326
 N135 N 0.43097 0.45936 0.18637
 N136 N 0.54458 0.44053 0.07959
 N137 N 0.57233 0.41742 0.09560
 N138 N 0.54576 0.46462 0.12925
 N139 N 0.57484 0.45891 0.17937
 N140 N 0.45784 0.44077 0.08372
 N141 N 0.43029 0.41782 0.10265
 C142 C 0.41333 0.43014 0.16625
 C143 C 0.59145 0.42962 0.15724
 N144 N 0.54185 0.46380 -0.13294
 N145 N 0.56951 0.45809 -0.18550
 N146 N 0.45558 0.44023 -0.07825
 N147 N 0.42760 0.41712 -0.09350
 N148 N 0.45452 0.46408 -0.12852
 N149 N 0.42533 0.45822 -0.17835
 N150 N 0.54235 0.43999 -0.08255
 N151 N 0.57002 0.41704 -0.10044
 Mn152 Mn 0.50010 0.43999 0.00063
 C153 C 0.58715 0.42907 -0.16428
 C154 C 0.40848 0.42909 -0.15535
 N155 N 0.54617 0.53605 0.12801
 N156 N 0.57479 0.54194 0.17877
 N157 N 0.45878 0.56026 0.08124
 N158 N 0.43103 0.58324 0.09811
 N159 N 0.45882 0.53647 0.13174
 N160 N 0.43063 0.54229 0.18348
 N161 N 0.54551 0.55991 0.07773
 N162 N 0.57327 0.58310 0.09406
 Mn163 Mn 0.50228 0.50052 0.13116
 C164 C 0.59179 0.57110 0.15656
 C165 C 0.41328 0.57133 0.16141
 N166 N 0.45529 0.53553 -0.12999
 N167 N 0.42694 0.54144 -0.18117
 N168 N 0.54334 0.55927 -0.08457
 N169 N 0.57122 0.58199 -0.10321
 N170 N 0.54250 0.53518 -0.13425
 N171 N 0.57016 0.54052 -0.18713
 N172 N 0.45653 0.55979 -0.08078
 N173 N 0.42933 0.58320 -0.09816
 Mn174 Mn 0.49851 0.49964 -0.13196
 Mn175 Mn 0.50107 0.56021 -0.00159
 Cl176 Cl 0.50049 0.50009 -0.00042
 C177 C 0.41061 0.57098 -0.16029
 C178 C 0.58815 0.56957 -0.16674
 C179 C 0.33550 0.37885 0.31660
 C180 C 0.35602 0.36146 0.25966
 N181 N 0.35426 0.32765 0.25867
 C182 C 0.33308 0.31042 0.31218
 C183 C 0.31254 0.32778 0.37012
 N184 N 0.31481 0.36172 0.37012
 N185 N 0.33850 0.41249 0.32013
 C186 C 0.36186 0.42962 0.26999
 C187 C 0.38349 0.41233 0.21394
 N188 N 0.37968 0.37853 0.20955
 H189 H 0.33499 0.28352 0.31220
 H190 H 0.36433 0.45643 0.27502
 C191 C -0.16600 0.87973 0.31707
 C192 C -0.14552 0.86238 0.26003
 N193 N -0.14723 0.82858 0.25890
 C194 C -0.16834 0.81130 0.31239
 C195 C -0.18887 0.82861 0.37041
 N196 N -0.18665 0.86255 0.37056
 N197 N -0.16296 0.91337 0.32080
 C198 C -0.13958 0.93053 0.27074
 C199 C -0.11801 0.91326 0.21460
 N200 N -0.12187 0.87948 0.21001
 H201 H -0.16637 0.78440 0.31232
 H202 H -0.13705 0.95733 0.27591
 C203 C 0.67025 0.62266 0.30469
 C204 C 0.64712 0.64027 0.25148
 N205 N 0.64618 0.67407 0.25461
 C206 C 0.66703 0.69105 0.30886
 C207 C 0.68998 0.67343 0.36333
 N208 N 0.69056 0.63951 0.35905
 N209 N 0.66991 0.58889 0.30437
 C210 C 0.64661 0.57181 0.25416
 C211 C 0.62224 0.58925 0.20216
 N212 N 0.62347 0.62322 0.20138
 H213 H 0.66298 0.71775 0.31242
 H214 H 0.64616 0.54485 0.25631
 C215 C 0.17006 1.12250 0.30512
 C216 C 0.14710 1.14019 0.25177
 N217 N 0.14643 1.17400 0.25476
 C218 C 0.16737 1.19092 0.30899
 C219 C 0.19011 1.17322 0.36362
 N220 N 0.19043 1.13929 0.35949
 N221 N 0.16948 1.08874 0.30489
 C222 C 0.14610 1.07174 0.25468
 C223 C 0.12186 1.08926 0.20262
 N224 N 0.12334 1.12322 0.20171
 H225 H 0.16356 1.21764 0.31241
 H226 H 0.14545 1.04479 0.25692
 C227 C 0.66558 0.37823 -0.31371
 C228 C 0.64462 0.36062 -0.25750
 N229 N 0.64606 0.32680 -0.25733
 C230 C 0.66728 0.30978 -0.31103
 C231 C 0.68812 0.32739 -0.36835
 N232 N 0.68624 0.36133 -0.36747
 N233 N 0.66297 0.41190 -0.31645
 C234 C 0.63953 0.42884 -0.26630
 C235 C 0.61736 0.41134 -0.21113
 N236 N 0.62082 0.37751 -0.20742
 H237 H 0.66516 0.28289 -0.31173
 H238 H 0.63735 0.45569 -0.27077
 C239 C 0.16502 0.87589 -0.30657
 C240 C 0.13949 0.85877 -0.25588
 N241 N 0.13660 0.82505 -0.26009
 C242 C 0.15765 0.80771 -0.31334
 C243 C 0.18305 0.82483 -0.36461
 N244 N 0.18596 0.85861 -0.35951
 N245 N 0.16618 0.90967 -0.30561
 C246 C 0.14232 0.92723 -0.25709
 C247 C 0.11612 0.91027 -0.20716
 N248 N 0.11568 0.87632 -0.20713
 H249 H 0.15312 0.78106 -0.31777
 H250 H 0.14314 0.95420 -0.25856
 C251 C 0.33411 0.62309 -0.31054
 C252 C 0.35477 0.64035 -0.25352
 N253 N 0.35377 0.67420 -0.25296
 C254 C 0.33338 0.69156 -0.30721
 C255 C 0.31325 0.67427 -0.36570
 N256 N 0.31452 0.64032 -0.36501
 N257 N 0.33601 0.58940 -0.31337
 C258 C 0.35858 0.57208 -0.26264
 C259 C 0.38076 0.58920 -0.20697
 N260 N 0.37790 0.62307 -0.20304
 H261 H 0.33563 0.71845 -0.30742
 H262 H 0.36024 0.54522 -0.26728
 C263 C -0.16881 1.12255 -0.30747
 C264 C -0.14611 1.14018 -0.25361
 N265 N -0.14564 1.17400 -0.25598
 C266 C -0.16656 1.19100 -0.31006
 C267 C -0.18909 1.17337 -0.36516
 N268 N -0.18918 1.13942 -0.36169
 N269 N -0.16808 1.08880 -0.30777
 C270 C -0.14481 1.07174 -0.25753
 C271 C -0.12086 1.08921 -0.20488
 N272 N -0.12247 1.12316 -0.20351
 H273 H -0.16293 1.21776 -0.31294
 H274 H -0.14408 1.04480 -0.26014
 C275 C 0.66679 0.62041 -0.31640
 C276 C 0.64596 0.63793 -0.26003
 N277 N 0.64757 0.67173 -0.25954
 C278 C 0.66883 0.68885 -0.31307
 C279 C 0.68966 0.67139 -0.37054
 N280 N 0.68762 0.63743 -0.36995
 N281 N 0.66383 0.58675 -0.31954
 C282 C 0.64021 0.56974 -0.26956
 C283 C 0.61830 0.58718 -0.21410
 N284 N 0.62208 0.62098 -0.21009
 H285 H 0.66675 0.71574 -0.31348
 H286 H 0.63776 0.54292 -0.27429
 C287 C 0.16611 1.12061 -0.31586
 C288 C 0.14532 1.13824 -0.25963
 N289 N 0.14713 1.17204 -0.25929
 C290 C 0.16855 1.18904 -0.31284
 C291 C 0.18933 1.17146 -0.37020
 N292 N 0.18708 1.13751 -0.36943
 N293 N 0.16303 1.08695 -0.31879
 C294 C 0.13933 1.07005 -0.26875
 C295 C 0.11745 1.08759 -0.21340
 N296 N 0.12134 1.12140 -0.20960
 H297 H 0.16665 1.21594 -0.31337
 H298 H 0.13681 1.04323 -0.27332
 C299 C 0.32806 0.37670 -0.29863
 C300 C 0.35518 0.35942 -0.25115
 N301 N 0.35935 0.32593 -0.25877
 C302 C 0.33810 0.30899 -0.31243
 C303 C 0.31112 0.32626 -0.36062
 N304 N 0.30691 0.35981 -0.35205
 N305 N 0.32572 0.41039 -0.29450
 C306 C 0.34993 0.42773 -0.24603
 C307 C 0.37776 0.41062 -0.19947
 N308 N 0.37935 0.37673 -0.20249
 H309 H 0.34376 0.28263 -0.31977
 H310 H 0.34823 0.45466 -0.24514
 C311 C -0.17291 0.87727 -0.29834
 C312 C -0.14573 0.85999 -0.25097
 N313 N -0.14150 0.82651 -0.25870
 C314 C -0.16276 0.80957 -0.31236
 C315 C -0.18984 0.82683 -0.36038
 N316 N -0.19410 0.86037 -0.35172
 N317 N -0.17528 0.91096 -0.29416
 C318 C -0.15106 0.92830 -0.24571
 C319 C -0.12322 0.91120 -0.19919
 N320 N -0.12157 0.87731 -0.20230
 H321 H -0.15701 0.78323 -0.31981
 H322 H -0.15279 0.95523 -0.24476
 C323 C 0.33322 0.62341 0.30587
 C324 C 0.35888 0.64079 0.25583
 N325 N 0.36154 0.67450 0.26063
 C326 C 0.34017 0.69158 0.31389
 C327 C 0.31466 0.67421 0.36460
 N328 N 0.31196 0.64043 0.35883
 N329 N 0.33234 0.58962 0.30438
 C330 C 0.35657 0.57232 0.25598
 C331 C 0.38289 0.58955 0.20672
 N332 N 0.38306 0.62351 0.20719
 H333 H 0.34458 0.71823 0.31883
 H334 H 0.35596 0.54535 0.25705
 C335 C -0.16627 1.12195 0.31319
 C336 C -0.14498 1.13972 0.25764
 N337 N -0.14630 1.17353 0.25808
 C338 C -0.16766 1.19040 0.31181
 C339 C -0.18880 1.17266 0.36861
 N340 N -0.18710 1.13871 0.36701
 N341 N -0.16375 1.08826 0.31537
 C342 C -0.14008 1.07146 0.26532
 C343 C -0.11758 1.08911 0.21082
 N344 N -0.12096 1.12296 0.20765
 H345 H -0.16542 1.21729 0.31297
 H346 H -0.13798 1.04460 0.26936
 C347 C 0.67175 0.37749 0.30109
 C348 C 0.64491 0.36012 0.25316
 N349 N 0.64106 0.32657 0.26024
 C350 C 0.66239 0.30964 0.31376
 C351 C 0.68913 0.32698 0.36235
 N352 N 0.69299 0.36060 0.35437
 N353 N 0.67379 0.41121 0.29742
 C354 C 0.64957 0.42849 0.24891
 C355 C 0.62205 0.41129 0.20185
 N356 N 0.62074 0.37737 0.20447
 H357 H 0.65699 0.28319 0.32063
 H358 H 0.65107 0.45544 0.24832
 C359 C 0.16805 0.87613 0.30395
 C360 C 0.14275 0.85909 0.25281
 N361 N 0.13972 0.82537 0.25698
 C362 C 0.16031 0.80797 0.31074
 C363 C 0.18521 0.82505 0.36278
 N364 N 0.18838 0.85880 0.35759
 N365 N 0.16947 0.90989 0.30278
 C366 C 0.14603 0.92754 0.25376
 C367 C 0.11983 0.91068 0.20370
 N368 N 0.11921 0.87672 0.20375
 H369 H 0.15572 0.78132 0.31504
 H370 H 0.14701 0.95449 0.25519
   
