data_POSCAR
  _audit_creation_date              2014-09-24
  _audit_creation_method            'ToBaCCo'
  _symmetry_space_group_name_H-M    'P1'
  _symmetry_Int_Tables_number       1
  _symmetry_cell_setting            triclinic
  loop_
  _symmetry_equiv_pos_as_xyz
 x,y,z
_cell_length_a 22.9458
_cell_length_b 22.8336
_cell_length_c 25.3455
_cell_angle_alpha 89.973300
_cell_angle_beta 90.125900
_cell_angle_gamma 117.785100
loop_
  _atom_site_label
  _atom_site_type_symbol
  _atom_site_fract_x
  _atom_site_fract_y
  _atom_site_fract_z
O1 O 0.05385 0.58791 1.29577
 O2 O -0.07270 0.51528 1.19571
 O3 O -0.07010 0.50249 1.29848
 O4 O 0.05800 0.57269 1.19335
 O5 O 0.06538 0.47975 1.19605
 O6 O -0.06172 0.41001 1.29548
 O7 O -0.06370 0.42319 1.19399
 O8 O 0.06376 0.49630 1.29968
 Cu9 Cu -0.00858 0.55271 1.24510
 Cu10 Cu 0.00262 0.44463 1.24650
 C11 C 0.07992 0.55503 1.31567
 C12 C -0.09035 0.45798 1.17735
 C13 C -0.08705 0.44375 1.31492
 C14 C 0.08395 0.53706 1.17749
 O15 O 0.44712 0.51752 1.30558
 O16 O 0.51855 0.45499 1.20099
 O17 O 0.48410 0.42410 1.29835
 O18 O 0.44323 0.51321 1.19974
 O19 O 0.53948 0.60197 1.20843
 O20 O 0.57935 0.51237 1.31340
 O21 O 0.61455 0.54307 1.21382
 O22 O 0.54377 0.60639 1.31219
 Cu23 Cu 0.46392 0.47008 1.25030
 Cu24 Cu 0.57794 0.57371 1.26297
 C25 C 0.48481 0.57343 1.32713
 C26 C 0.58000 0.48900 1.19035
 C27 C 0.53764 0.45223 1.32337
 C28 C 0.48313 0.57149 1.18612
 O29 O 0.52034 0.92986 1.29087
 O30 O 0.55766 1.05957 1.19015
 O31 O 0.59821 1.05860 1.28720
 O32 O 0.50486 0.93188 1.18928
 O33 O 0.41416 0.93896 1.20698
 O34 O 0.50862 1.06705 1.30589
 O35 O 0.46780 1.06671 1.21122
 O36 O 0.43031 0.93748 1.30953
 Cu37 Cu 0.55422 0.99467 1.23763
 Cu38 Cu 0.44632 1.00251 1.26111
 C39 C 0.46713 0.91063 1.31692
 C40 C 0.51856 1.08442 1.18306
 C41 C 0.57004 1.08588 1.31256
 C42 C 0.44470 0.91464 1.18033
 O43 O 0.94400 0.52430 0.69972
 O44 O 1.06861 0.57312 0.80481
 O45 O 1.07023 0.56745 0.70176
 O46 O 0.94268 0.53411 0.80219
 O47 O 0.92614 0.43093 0.80583
 O48 O 1.05720 0.46570 0.70845
 O49 O 1.05156 0.46986 0.81098
 O50 O 0.93025 0.42196 0.70277
 Cu51 Cu 1.00818 0.56012 0.75150
 Cu52 Cu 0.98940 0.43668 0.75755
 C53 C 0.91664 0.46517 0.68276
 C54 C 1.08068 0.52962 0.82633
 C55 C 1.08542 0.52281 0.68766
 C56 C 0.91280 0.47633 0.82145
 O57 O 0.50385 0.43286 0.70200
 O58 O 0.42599 0.49167 0.80298
 O59 O 0.41192 0.47274 0.69896
 O60 O 0.47084 0.40567 0.80075
 O61 O 0.56280 0.49980 0.80852
 O62 O 0.50200 0.56898 0.70027
 O63 O 0.51770 0.58669 0.80293
 O64 O 0.59342 0.52926 0.70790
 Cu65 Cu 0.44513 0.44300 0.75021
 Cu66 Cu 0.55167 0.55407 0.75527
 C67 C 0.56348 0.47197 0.68878
 C68 C 0.46101 0.55040 0.82078
 C69 C 0.44476 0.53060 0.68144
 C70 C 0.52563 0.43971 0.82272
 O71 O 0.56658 0.05734 0.68677
 O72 O 0.50491 -0.06992 0.79396
 O73 O 0.51983 -0.07194 0.69056
 O74 O 0.59203 0.05637 0.78872
 O75 O 0.50067 0.06555 0.79439
 O76 O 0.42770 -0.06385 0.68973
 O77 O 0.41312 -0.06115 0.79380
 O78 O 0.47416 0.06448 0.69355
 Cu79 Cu 0.55390 -0.00769 0.73965
 Cu80 Cu 0.44574 0.00156 0.74350
 C81 C 0.52941 0.08240 0.67224
 C82 C 0.44725 -0.08649 0.81224
 C83 C 0.46329 -0.08903 0.67173
 C84 C 0.56013 0.08314 0.80880
 O85 O 0.41614 0.62706 0.95725
 O86 O 0.43417 0.74495 0.93378
 C87 C 0.41294 0.78534 0.92211
 O88 O 0.36748 0.78947 0.94821
 O89 O 0.24913 0.69058 0.93649
 C90 C 0.21092 0.62942 0.93001
 O91 O 0.21119 0.58463 0.95993
 O92 O 0.30891 0.55905 0.94601
 C93 C 0.36847 0.57946 0.93363
 O94 O 0.42339 0.65877 1.06069
 O95 O 0.44460 0.77770 1.03711
 C96 C 0.40977 0.79734 1.06335
 O97 O 0.34922 0.77795 1.05419
 O98 O 0.22830 0.68404 1.04169
 C99 C 0.21180 0.63322 1.07067
 O100 O 0.23589 0.59380 1.06486
 O101 O 0.33122 0.56354 1.05118
 C102 C 0.38559 0.59984 1.07441
 Cr103 Cr 0.42600 0.70090 0.99729
 Cr104 Cr 0.29990 0.73331 0.99530
 Cr105 Cr 0.27401 0.57874 1.00538
 O106 O 0.33328 0.67089 0.99911
 O107 O 0.57278 0.34114 0.94586
 O108 O 0.55883 0.22095 0.95038
 C109 C 0.59557 0.20667 0.92202
 O110 O 0.65666 0.22873 0.93107
 O111 O 0.77207 0.32747 0.95014
 C112 C 0.78917 0.38443 0.93151
 O113 O 0.76717 0.42273 0.94835
 O114 O 0.66210 0.43648 0.96528
 C115 C 0.61053 0.40268 0.93841
 O116 O 0.56840 0.34357 1.05144
 O117 O 0.56388 0.22757 1.05658
 C118 C 0.59427 0.19350 1.06265
 O119 O 0.64254 0.20043 1.03462
 O120 O 0.75680 0.30180 1.05393
 C121 C 0.78672 0.36066 1.07142
 O122 O 0.77761 0.40764 1.05323
 O123 O 0.67077 0.41955 1.07008
 C124 C 0.60915 0.39086 1.07910
 Cr125 Cr 0.56990 0.28492 1.00104
 Cr126 Cr 0.70523 0.26706 0.99280
 Cr127 Cr 0.71725 0.41759 1.00900
 O128 O 0.66428 0.32336 1.00109
 O129 O 0.66666 0.41384 0.57567
 O130 O 0.78031 0.41973 0.55677
 C131 C 0.79645 0.37571 0.56968
 O132 O 0.77414 0.32011 0.54683
 O133 O 0.66560 0.21249 0.52884
 C134 C 0.61447 0.19869 0.55628
 O135 O 0.57795 0.22667 0.55024
 O136 O 0.56812 0.33601 0.55086
 C137 C 0.60497 0.38084 0.58203
 O138 O 0.65665 0.43995 0.47326
 O139 O 0.76887 0.44263 0.45405
 C140 C 0.79424 0.41103 0.43060
 O141 O 0.78253 0.35249 0.44302
 O142 O 0.67395 0.24326 0.42481
 C143 C 0.61242 0.21665 0.41666
 O144 O 0.57381 0.22732 0.44526
 O145 O 0.57632 0.34254 0.44536
 C146 C 0.60939 0.40543 0.44252
 Cr147 Cr 0.71630 0.42498 0.51433
 Cr148 Cr 0.72211 0.28429 0.48635
 Cr149 Cr 0.57796 0.28505 0.49798
 O150 O 0.67242 0.33144 0.49942
 O151 O 0.35082 0.57873 0.55558
 O152 O 0.23710 0.57676 0.57074
 C153 C 0.20170 0.60563 0.57517
 O154 O 0.20247 0.64732 0.54186
 O155 O 0.30606 0.76211 0.55091
 C156 C 0.36683 0.79430 0.56214
 O157 O 0.41186 0.78644 0.53814
 O158 O 0.42852 0.68369 0.55770
 C159 C 0.40343 0.62509 0.57462
 O160 O 0.32522 0.56302 0.45128
 O161 O 0.20955 0.55495 0.46604
 C162 C 0.19637 0.58953 0.43346
 O163 O 0.22124 0.65209 0.43680
 O164 O 0.31953 0.77145 0.44625
 C165 C 0.37228 0.78520 0.42180
 O166 O 0.40854 0.75902 0.43290
 O167 O 0.42299 0.65462 0.45280
 C168 C 0.38319 0.59767 0.43410
 Cr169 Cr 0.28222 0.57209 0.51060
 Cr170 Cr 0.26444 0.70645 0.49406
 Cr171 Cr 0.41425 0.71881 0.49553
 O172 O 0.32076 0.66596 0.50021
 C173 C 0.46349 0.59999 0.36806
 C174 C 0.40390 0.56871 0.39023
 H175 H 0.49834 0.64822 0.38314
 H176 H 0.36871 0.52016 0.37598
 C177 C 0.44915 0.85958 0.35388
 C178 C 0.39164 0.83546 0.37993
 H179 H 0.48275 0.83936 0.36140
 H180 H 0.35761 0.85508 0.37199
 C181 C 0.12902 0.58717 0.35751
 C182 C 0.14914 0.55468 0.39060
 H183 H 0.14696 0.63994 0.36258
 H184 H 0.12984 0.50158 0.38686
 C185 C 0.54993 0.41368 0.36426
 C186 C 0.59476 0.44265 0.40189
 H187 H 0.51980 0.36038 0.36420
 H188 H 0.62360 0.49614 0.40225
 C189 C 0.60708 0.13668 0.34809
 C190 C 0.58046 0.16960 0.37346
 H191 H 0.65795 0.14864 0.35562
 H192 H 0.52955 0.15748 0.36566
 C193 C 0.86457 0.41278 0.35732
 C194 C 0.83999 0.44462 0.38667
 H195 H 0.85055 0.36137 0.36580
 H196 H 0.85373 0.49603 0.37858
 C197 C 0.61270 0.46728 1.15026
 C198 C 0.58017 0.41154 1.12275
 H199 H 0.66442 0.49912 1.14226
 H200 H 0.52816 0.38067 1.13049
 C201 C 0.86117 0.43578 1.13830
 C202 C 0.83542 0.37633 1.11463
 H203 H 0.84378 0.47062 1.12644
 H204 H 0.85024 0.33961 1.12650
 C205 C 0.53156 0.13380 1.14147
 C206 C 0.57542 0.14306 1.10390
 H207 H 0.50435 0.16188 1.14138
 H208 H 0.60140 0.11370 1.10429
 C209 C 0.46392 0.60342 1.14365
 C210 C 0.40562 0.57108 1.11857
 H211 H 0.49854 0.65343 1.13227
 H212 H 0.37152 0.52086 1.12994
 C213 C 0.13627 0.55983 1.13748
 C214 C 0.16092 0.61780 1.11183
 H215 H 0.15480 0.52517 1.12828
 H216 H 0.14226 0.65262 1.11969
 C217 C 0.41012 0.86668 1.13812
 C218 C 0.44242 0.84528 1.10588
 H219 H 0.35778 0.84964 1.13306
 H220 H 0.49485 0.86280 1.11108
 C221 C 0.59955 0.45284 0.65076
 C222 C 0.57200 0.39507 0.62587
 H223 H 0.64948 0.48918 0.64107
 H224 H 0.52130 0.35964 0.63422
 C225 C 0.54816 0.13272 0.63062
 C226 C 0.59808 0.14768 0.59744
 H227 H 0.51765 0.15712 0.62640
 H228 H 0.62830 0.12290 0.60100
 C229 C 0.86910 0.44815 0.63919
 C230 C 0.84347 0.38999 0.61366
 H231 H 0.85597 0.48602 0.62709
 H232 H 0.85715 0.35231 0.62513
 C233 C 0.41387 0.55003 0.63862
 C234 C 0.43806 0.61060 0.61802
 H235 H 0.36754 0.51137 0.62371
 H236 H 0.48387 0.65002 0.63293
 C237 C 0.44282 0.86529 0.63038
 C238 C 0.38511 0.84316 0.60536
 H239 H 0.47682 0.84732 0.61783
 H240 H 0.34934 0.85864 0.61813
 C241 C 0.13239 0.53575 0.64820
 C242 C 0.15679 0.59181 0.62007
 H243 H 0.14641 0.49782 0.63840
 H244 H 0.14000 0.62823 0.62776
 C245 C 0.43941 0.57855 0.86355
 C246 C 0.38306 0.54640 0.88970
 H247 H 0.47358 0.62886 0.87497
 H248 H 0.34699 0.49707 0.87785
 C249 C 0.12824 0.54783 0.87008
 C250 C 0.16339 0.61053 0.88623
 H251 H 0.13443 0.50866 0.88928
 H252 H 0.15839 0.64980 0.86601
 C253 C 0.41812 0.86644 0.85617
 C254 C 0.44426 0.83033 0.87704
 H255 H 0.37217 0.86149 0.87198
 H256 H 0.48898 0.83309 0.86049
 C257 C 0.54374 0.40691 0.86464
 C258 C 0.59513 0.43817 0.89658
 H259 H 0.51175 0.35436 0.86997
 H260 H 0.62699 0.49082 0.89181
 C261 C 0.86309 0.46204 0.86319
 C262 C 0.83713 0.40389 0.88823
 H263 H 0.84948 0.49982 0.87436
 H264 H 0.85232 0.36728 0.87680
 C265 C 0.59375 0.13403 0.84952
 C266 C 0.56339 0.16096 0.87766
 H267 H 0.64473 0.14739 0.85811
 H268 H 0.51196 0.14643 0.86989
   
