data_POSCAR
  _audit_creation_date              2014-09-24
  _audit_creation_method            'ToBaCCo'
  _symmetry_space_group_name_H-M    'P1'
  _symmetry_Int_Tables_number       1
  _symmetry_cell_setting            triclinic
  loop_
  _symmetry_equiv_pos_as_xyz
 x,y,z
_cell_length_a 24.0631
_cell_length_b 23.9354
_cell_length_c 23.8192
_cell_angle_alpha 90.198100
_cell_angle_beta 90.122700
_cell_angle_gamma 89.976800
loop_
  _atom_site_label
  _atom_site_type_symbol
  _atom_site_fract_x
  _atom_site_fract_y
  _atom_site_fract_z
C1 C 0.38223 1.01491 -0.55216
 C2 C 0.35471 1.00789 -0.50055
 C3 C 0.38286 0.99620 -0.45056
 C4 C 0.44139 0.99092 -0.45145
 C5 C 0.47107 1.00236 -0.50161
 C6 C 0.44161 1.01586 -0.55174
 C7 C 0.47262 1.03381 -0.59825
 C8 C 0.53032 1.03169 -0.59833
 C9 C 0.56032 1.01178 -0.55177
 C10 C 0.53046 1.00068 -0.50143
 C11 C 0.47093 0.97269 -0.40413
 C12 C 0.52858 0.97100 -0.40394
 C13 C 0.55959 0.98835 -0.45076
 C14 C 0.61873 0.99075 -0.44965
 C15 C 0.64664 0.99751 -0.50097
 C16 C 0.61932 1.00642 -0.55245
 H17 H 0.45322 1.05254 -0.63444
 H18 H 0.55071 1.04882 -0.63466
 H19 H 0.44988 0.95816 -0.36692
 H20 H 0.54796 0.95373 -0.36702
 H21 H 0.30976 1.00987 -0.49893
 H22 H 0.69156 0.99615 -0.50079
 C23 C -0.61753 1.44835 0.00757
 C24 C -0.64618 1.49909 0.00880
 C25 C -0.61935 1.55137 0.00746
 C26 C -0.55973 1.55192 0.00763
 C27 C -0.52975 1.50035 0.00634
 C28 C -0.55880 1.44863 0.00618
 C29 C -0.52826 1.39865 0.00401
 C30 C -0.47066 1.39879 0.00447
 C31 C -0.44054 1.44896 0.00382
 C32 C -0.47031 1.50039 0.00538
 C33 C -0.52867 1.60169 0.01147
 C34 C -0.47116 1.60173 0.00841
 C35 C -0.44081 1.55181 0.00619
 C36 C -0.38186 1.55170 0.00456
 C37 C -0.35366 1.50064 0.00282
 C38 C -0.38155 1.44938 0.00272
 H39 H -0.54813 1.35834 0.00188
 H40 H -0.45056 1.35857 0.00563
 H41 H -0.54708 1.64192 0.01861
 H42 H -0.45127 1.64205 0.00835
 H43 H -0.69119 1.49712 0.00908
 H44 H -0.30859 1.50082 0.00168
 C45 C 0.01295 0.38098 0.44830
 C46 C 0.00519 0.35271 0.49929
 C47 C -0.00614 0.38008 0.55033
 C48 C -0.01262 0.43923 0.54956
 C49 C -0.00078 0.46939 0.49959
 C50 C 0.01369 0.44041 0.44936
 C51 C 0.03139 0.47195 0.40295
 C52 C 0.02767 0.52976 0.40284
 C53 C 0.00754 0.55892 0.44970
 C54 C -0.00388 0.52893 0.49965
 C55 C -0.03431 0.46902 0.59560
 C56 C -0.03711 0.52696 0.59563
 C57 C -0.01867 0.55827 0.54951
 C58 C -0.01834 0.61786 0.55005
 C59 C -0.01214 0.64565 0.49847
 C60 C 0.00034 0.61746 0.44861
 H61 H 0.05028 0.45291 0.36660
 H62 H 0.04225 0.55134 0.36591
 H63 H -0.05209 0.44827 0.63141
 H64 H -0.05675 0.54638 0.63140
 H65 H 0.00762 0.30756 0.49915
 H66 H -0.01524 0.69077 0.49682
 O67 O -0.14395 1.00162 -0.07676
 O68 O 0.14376 0.99692 -0.07816
 O69 O -0.00245 1.07371 -0.14484
 O70 O -0.00017 0.92409 -0.14435
 O71 O 0.00030 0.85532 -0.07681
 O72 O -0.00152 1.14328 -0.07767
 O73 O 0.07422 0.99510 -0.14506
 O74 O -0.07516 1.00065 -0.14417
 Zr75 Zr -0.00016 0.99916 -0.09861
 O76 O 0.05062 0.94837 -0.05163
 O77 O -0.05038 1.05056 -0.05150
 C78 C -0.12672 1.00147 -0.12845
 C79 C 0.12597 0.99450 -0.12965
 C80 C -0.00323 1.12560 -0.12924
 C81 C -0.00007 0.87239 -0.12854
 H82 H 0.07449 1.07297 -0.07640
 O83 O 0.05110 1.04957 -0.05180
 H84 H -0.07462 0.92577 -0.07454
 O85 O -0.05070 0.94959 -0.05066
 O86 O 0.14486 1.00145 0.07505
 O87 O -0.14290 1.00005 0.07630
 O88 O 0.07622 1.14298 -0.00125
 O89 O 0.07414 0.85567 -0.00249
 O90 O -0.07519 0.85669 0.00068
 O91 O -0.07333 1.14412 -0.00162
 O92 O 0.00501 1.07553 0.14227
 O93 O 0.00044 0.92593 0.14310
 O94 O 0.00472 1.14426 0.07469
 O95 O -0.00189 0.85648 0.07580
 O96 O 0.14468 1.07527 0.00077
 O97 O -0.14267 1.07736 -0.00287
 O98 O -0.14366 0.92440 0.00268
 O99 O 0.14368 0.92220 -0.00351
 O100 O 0.07602 1.00322 0.14236
 O101 O -0.07331 0.99989 0.14315
 Zr102 Zr 0.09944 0.99910 -0.00141
 Zr103 Zr -0.09844 1.00060 -0.00037
 Zr104 Zr 0.00114 1.09812 -0.00137
 Zr105 Zr -0.00021 0.90158 -0.00062
 Zr106 Zr 0.00115 1.00043 0.09671
 O107 O -0.05041 0.94973 0.05020
 O108 O 0.05185 1.05039 0.04907
 C109 C 0.12757 1.00384 0.12668
 C110 C -0.12510 0.99966 0.12782
 C111 C 0.12763 1.12686 0.00026
 C112 C 0.12581 0.87087 -0.00375
 C113 C -0.12658 0.87281 0.00227
 C114 C -0.12497 1.12871 -0.00267
 C115 C 0.00665 1.12716 0.12634
 C116 C -0.00094 0.87407 0.12745
 H117 H -0.07225 1.07528 0.07387
 O118 O -0.04932 1.05102 0.04950
 H119 H 0.07480 0.92573 0.07344
 O120 O 0.05111 0.94939 0.04928
 C121 C 0.28046 1.01659 0.30696
 N122 N 0.26011 1.02826 0.35865
 N123 N 0.29334 1.02886 0.40328
 C124 C 0.34866 1.01812 0.39862
 N125 N 0.36882 1.00616 0.34653
 N126 N 0.33556 1.00565 0.30157
 C127 C 0.24212 1.01403 0.25885
 N128 N 0.26032 1.00531 0.20550
 N129 N 0.22422 1.00227 0.16287
 C130 C 0.16873 1.00752 0.17230
 N131 N 0.15088 1.01625 0.22558
 N132 N 0.18679 1.01951 0.26792
 C133 C -0.27843 1.00611 0.30731
 N134 N -0.25787 1.01580 0.35934
 N135 N -0.29124 1.01685 0.40365
 C136 C -0.34693 1.00850 0.39844
 N137 N -0.36738 0.99847 0.34597
 N138 N -0.33393 0.99756 0.30125
 C139 C -0.23989 1.00394 0.25953
 N140 N -0.25800 0.99861 0.20566
 N141 N -0.22170 0.99704 0.16330
 C142 C -0.16615 1.00045 0.17346
 N143 N -0.14837 1.00558 0.22728
 N144 N -0.18447 1.00735 0.26939
 C145 C -0.28009 0.99193 -0.30829
 N146 N -0.25959 0.97937 -0.35966
 N147 N -0.29268 0.97784 -0.40431
 C148 C -0.34802 0.98858 -0.40009
 N149 N -0.36840 1.00138 -0.34827
 N150 N -0.33526 1.00276 -0.30320
 C151 C -0.24169 0.99507 -0.26032
 N152 N -0.25977 1.00228 -0.20672
 N153 N -0.22349 1.00464 -0.16421
 C154 C -0.16798 1.00026 -0.17403
 N155 N -0.15027 0.99332 -0.22759
 N156 N -0.18634 0.99070 -0.26980
 C157 C 0.28017 0.98670 -0.30831
 N158 N 0.26427 0.96393 -0.35802
 N159 N 0.29774 0.96556 -0.40238
 C160 C 0.34855 0.99005 -0.39898
 N161 N 0.36440 1.01309 -0.34918
 N162 N 0.33100 1.01112 -0.30456
 C163 C 0.24127 0.98728 -0.26078
 N164 N 0.25793 1.00217 -0.20826
 N165 N 0.22156 1.00384 -0.16603
 C166 C 0.16719 0.99121 -0.17502
 N167 N 0.15074 0.97635 -0.22751
 N168 N 0.18708 0.97421 -0.26948
 C169 C 0.28061 1.30575 0.00199
 N170 N 0.26952 1.35101 -0.03024
 N171 N 0.30262 1.39548 -0.02892
 C172 C 0.34811 1.39672 0.00486
 N173 N 0.35871 1.35171 0.03793
 N174 N 0.32584 1.30682 0.03618
 C175 C 0.24225 1.25806 0.00119
 N176 N 0.25732 1.20702 0.02102
 N177 N 0.22138 1.16450 0.02008
 C178 C 0.16904 1.17187 -0.00015
 N179 N 0.15422 1.22290 -0.01976
 N180 N 0.19018 1.26502 -0.01944
 C181 C 0.27649 0.68969 -0.00112
 N182 N 0.25741 0.63941 0.01620
 N183 N 0.29121 0.59554 0.01900
 C184 C 0.34581 0.59961 0.00480
 N185 N 0.36418 0.64998 -0.01392
 N186 N 0.33054 0.69423 -0.01643
 C187 C 0.23845 0.73767 -0.00308
 N188 N 0.25703 0.79063 -0.01169
 N189 N 0.22155 0.83359 -0.01200
 C190 C 0.16632 0.82489 -0.00399
 N191 N 0.14806 0.77195 0.00432
 N192 N 0.18337 0.72927 0.00495
 C193 C -0.27925 0.69374 0.00189
 N194 N -0.32354 0.69189 0.03704
 N195 N -0.35654 0.64712 0.03793
 C196 C -0.34714 0.60307 0.00297
 N197 N -0.30246 0.60500 -0.03166
 N198 N -0.26916 0.64934 -0.03212
 C199 C -0.24090 0.74141 0.00184
 N200 N -0.18907 0.73476 -0.01927
 N201 N -0.15318 0.77695 -0.01901
 C202 C -0.16787 0.82771 0.00165
 N203 N -0.21999 0.83478 0.02237
 N204 N -0.25583 0.79218 0.02276
 C205 C -0.27756 1.30812 0.00114
 N206 N -0.26549 1.35332 0.03341
 N207 N -0.29920 1.39737 0.03437
 C208 C -0.34633 1.39823 0.00295
 N209 N -0.35784 1.35334 -0.03027
 N210 N -0.32439 1.30885 -0.03077
 C211 C -0.23898 1.26059 -0.00020
 N212 N -0.25498 1.20935 -0.01905
 N213 N -0.21910 1.16675 -0.01952
 C214 C -0.16590 1.17422 -0.00175
 N215 N -0.15012 1.22548 0.01679
 N216 N -0.18600 1.26771 0.01787
 C217 C 0.01864 1.28040 0.30647
 N218 N 0.03148 1.25996 0.35780
 N219 N 0.03079 1.29288 0.40278
 C220 C 0.01748 1.34794 0.39878
 N221 N 0.00439 1.36819 0.34704
 N222 N 0.00516 1.33524 0.30172
 C223 C 0.01698 1.24218 0.25825
 N224 N 0.00698 1.26043 0.20517
 N225 N 0.00416 1.22418 0.16249
 C226 C 0.01091 1.16856 0.17168
 N227 N 0.02103 1.15069 0.22467
 N228 N 0.02411 1.18675 0.26704
 C229 C -0.01013 1.27838 -0.30917
 N230 N -0.01867 1.25735 -0.36128
 N231 N -0.01821 1.29052 -0.40584
 C232 C -0.00949 1.34643 -0.40067
 N233 N -0.00051 1.36730 -0.34815
 N234 N -0.00103 1.33407 -0.30324
 C235 C -0.00923 1.24015 -0.26115
 N236 N -0.00263 1.25868 -0.20753
 N237 N -0.00106 1.22253 -0.16495
 C238 C -0.00583 1.16672 -0.17473
 N239 N -0.01249 1.14855 -0.22828
 N240 N -0.01423 1.18451 -0.27059
 C241 C -0.01585 0.71920 -0.30861
 N242 N -0.00622 0.66357 -0.30368
 N243 N -0.00831 0.63041 -0.34882
 C244 C -0.02066 0.65124 -0.40053
 N245 N -0.03030 0.70705 -0.40467
 N246 N -0.02808 0.74018 -0.35989
 C247 C -0.01132 0.75750 -0.26059
 N248 N -0.01418 0.81324 -0.26980
 N249 N -0.00993 0.84923 -0.22748
 C250 C -0.00274 0.83105 -0.17412
 N251 N 0.00011 0.77514 -0.16455
 N252 N -0.00388 0.73892 -0.20719
 C253 C 0.00664 0.71975 0.30599
 N254 N -0.01603 0.66791 0.30246
 N255 N -0.01693 0.63461 0.34727
 C256 C 0.00545 0.65166 0.39695
 N257 N 0.02824 0.70344 0.40008
 N258 N 0.02881 0.73677 0.35556
 C259 C 0.00500 0.75859 0.25851
 N260 N 0.01667 0.81330 0.26739
 N261 N 0.01438 0.84967 0.22544
 C262 C 0.00065 0.83278 0.17280
 N263 N -0.01077 0.77790 0.16359
 N264 N -0.00893 0.74143 0.20585
   
