data_POSCAR
  _audit_creation_date              2014-09-24
  _audit_creation_method            'ToBaCCo'
  _symmetry_space_group_name_H-M    'P1'
  _symmetry_Int_Tables_number       1
  _symmetry_cell_setting            triclinic
  loop_
  _symmetry_equiv_pos_as_xyz
 x,y,z
_cell_length_a 24.2860
_cell_length_b 24.2640
_cell_length_c 24.3484
_cell_angle_alpha 103.199200
_cell_angle_beta 77.567800
_cell_angle_gamma 78.976100
loop_
  _atom_site_label
  _atom_site_type_symbol
  _atom_site_fract_x
  _atom_site_fract_y
  _atom_site_fract_z
C1 C 0.55742 0.50959 0.00813
 C2 C 0.52056 0.54660 -0.01456
 C3 C 0.47021 0.53078 -0.02593
 C4 C 0.45292 0.48201 -0.01266
 C5 C 0.48948 0.44584 0.01039
 C6 C 0.54003 0.46069 0.02116
 H7 H 0.56902 0.43006 0.03489
 H8 H 0.44015 0.56097 -0.03900
 C9 C 0.00423 0.56103 0.48905
 C10 C -0.00822 0.51785 0.44637
 C11 C -0.01323 0.46447 0.45740
 C12 C -0.00719 0.45267 0.50976
 C13 C 0.00334 0.49577 0.55304
 C14 C 0.00966 0.54870 0.54186
 H15 H 0.01673 0.58159 0.57621
 H16 H -0.02098 0.43094 0.42411
 C17 C 0.48795 -0.00435 0.44717
 C18 C 0.43959 0.00506 0.49516
 C19 C 0.44798 0.00934 0.55099
 C20 C 0.50377 0.00330 0.56078
 C21 C 0.55271 -0.00512 0.51217
 C22 C 0.54352 -0.01006 0.45614
 H23 H 0.57944 -0.01361 0.41919
 H24 H 0.41054 0.01293 0.58639
 O25 O 0.46084 -0.00564 -0.06908
 O26 O 0.44588 0.01125 0.08784
 O27 O 0.44514 0.08229 0.02119
 O28 O 0.46382 -0.07675 -0.00281
 O29 O 0.55919 -0.08953 -0.01930
 O30 O 0.54050 0.06929 0.00505
 O31 O 0.54126 -0.00181 0.07166
 O32 O 0.55621 -0.01832 -0.08562
 Cu33 Cu 0.44433 0.00408 0.01088
 Cu34 Cu 0.55888 -0.01130 -0.00863
 C35 C 0.51073 -0.01396 -0.10368
 C36 C 0.49119 0.00652 0.10607
 C37 C 0.48991 0.10249 0.01629
 C38 C 0.51455 -0.10985 -0.01428
 O39 O -0.07916 0.55074 1.01305
 O40 O 0.07891 0.53315 0.99244
 O41 O 0.00919 0.53389 0.92415
 O42 O -0.00953 0.55142 1.08165
 O43 O 0.00385 0.45574 1.06564
 O44 O 0.02228 0.43820 0.90768
 O45 O 0.09214 0.43747 0.97610
 O46 O -0.06584 0.45508 0.99699
 Cu47 Cu -0.00143 0.55190 1.00440
 Cu48 Cu 0.01441 0.43699 0.98503
 C49 C -0.09907 0.50567 1.00776
 C50 C 0.11209 0.48248 0.98150
 C51 C 0.01805 0.48342 0.88946
 C52 C -0.00524 0.50642 1.10015
 O53 O 0.01146 -0.07843 0.44746
 O54 O -0.01069 0.07968 0.46695
 O55 O 0.07872 -0.00618 0.44891
 O56 O -0.07793 0.00758 0.46619
 O57 O -0.09313 0.02321 0.56200
 O58 O 0.06359 0.00931 0.54470
 O59 O -0.02573 0.09545 0.56275
 O60 O -0.00371 -0.06298 0.54325
 Cu61 Cu 0.00184 -0.00083 0.44770
 Cu62 Cu -0.01622 0.01777 0.56288
 C63 C 0.00682 -0.09730 0.49226
 C64 C -0.02107 0.11412 0.51781
 C65 C 0.09744 0.00002 0.49413
 C66 C -0.11178 0.01687 0.51675
 C67 C -0.27068 0.51786 1.01467
 C68 C -0.29222 0.53271 0.96969
 C69 C -0.34923 0.53140 0.96810
 C70 C -0.38609 0.51531 1.01176
 C71 C -0.36371 0.50117 1.05722
 C72 C -0.30675 0.50260 1.05865
 C73 C -0.21070 0.51526 1.01399
 C74 C -0.16001 0.51160 1.01212
 H75 H -0.26443 0.54389 0.93494
 H76 H -0.36325 0.54025 0.93100
 H77 H -0.39054 0.48978 1.09244
 H78 H -0.29062 0.49104 1.09374
 C79 C 0.28348 0.46952 0.97556
 C80 C 0.31991 0.48549 0.93245
 C81 C 0.37633 0.48778 0.93529
 C82 C 0.39773 0.47397 0.98142
 C83 C 0.36072 0.45654 1.02380
 C84 C 0.30426 0.45436 1.02078
 C85 C 0.22365 0.47237 0.97557
 C86 C 0.17300 0.47634 0.97719
 H87 H 0.30435 0.49723 0.89713
 H88 H 0.40337 0.50000 0.90087
 H89 H 0.37368 0.44815 1.06153
 H90 H 0.27615 0.44267 1.05489
 C91 C 0.01425 -0.26916 0.47821
 C92 C 0.05298 -0.30080 0.50147
 C93 C 0.05052 -0.35726 0.50360
 C94 C 0.00928 -0.38350 0.48219
 C95 C -0.02880 -0.35130 0.45774
 C96 C -0.02624 -0.29466 0.45581
 C97 C 0.01348 -0.20918 0.48116
 C98 C 0.01148 -0.15835 0.48550
 H99 H 0.08450 -0.28144 0.51897
 H100 H 0.08157 -0.38065 0.52154
 H101 H -0.06306 -0.36809 0.44340
 H102 H -0.05709 -0.27007 0.43852
 C103 C -0.01974 0.28259 0.52398
 C104 C -0.05771 0.33233 0.56619
 C105 C -0.05333 0.38817 0.56249
 C106 C -0.01084 0.39438 0.51661
 C107 C 0.02729 0.34425 0.47490
 C108 C 0.02291 0.28874 0.47864
 C109 C -0.02409 0.22476 0.52569
 C110 C -0.02457 0.17484 0.52373
 H111 H -0.09091 0.32797 0.60142
 H112 H -0.08353 0.42639 0.59468
 H113 H 0.06030 0.34822 0.43924
 H114 H 0.05252 0.25052 0.44583
 C115 C 0.51458 -0.00972 -0.27072
 C116 C 0.46888 0.03127 -0.27654
 C117 C 0.46581 0.03600 -0.33189
 C118 C 0.50882 -0.00001 -0.38292
 C119 C 0.55484 -0.04120 -0.37628
 C120 C 0.55770 -0.04583 -0.32063
 C121 C 0.51621 -0.01433 -0.21317
 C122 C 0.51502 -0.01572 -0.16376
 H123 H 0.43541 0.05969 -0.23814
 H124 H 0.43032 0.06907 -0.33449
 H125 H 0.58752 -0.07148 -0.41411
 H126 H 0.59307 -0.07808 -0.31663
 C127 C 0.48083 0.00250 0.27434
 C128 C 0.51661 -0.04595 0.28224
 C129 C 0.51732 -0.04909 0.33864
 C130 C 0.48206 -0.00385 0.38788
 C131 C 0.44523 0.04411 0.37974
 C132 C 0.44459 0.04721 0.32318
 C133 C 0.48286 0.00650 0.21591
 C134 C 0.48611 0.00790 0.16617
 H135 H 0.54474 -0.08085 0.24475
 H136 H 0.54612 -0.08635 0.34394
 H137 H 0.41841 0.07993 0.41705
 H138 H 0.41678 0.08493 0.31754
 C139 C 0.52962 -0.28224 -0.02268
 C140 C 0.54540 -0.30309 0.02224
 C141 C 0.54437 -0.36013 0.02406
 C142 C 0.52750 -0.39757 -0.01924
 C143 C 0.51303 -0.37609 -0.06498
 C144 C 0.51418 -0.31913 -0.06663
 C145 C 0.52586 -0.22201 -0.02172
 C146 C 0.52124 -0.17107 -0.01943
 H147 H 0.55685 -0.27467 0.05691
 H148 H 0.55374 -0.37358 0.06121
 H149 H 0.50111 -0.40352 -0.09996
 H150 H 0.50199 -0.30354 -0.10172
 C151 C 0.47778 0.27379 0.02124
 C152 C 0.48254 0.31474 0.06971
 C153 C 0.48467 0.37126 0.06680
 C154 C 0.48194 0.38752 0.01537
 C155 C 0.47627 0.34642 -0.03277
 C156 C 0.47407 0.28998 -0.02976
 C157 C 0.48013 0.21422 0.02226
 C158 C 0.48375 0.16360 0.02096
 H159 H 0.48574 0.30266 0.10930
 H160 H 0.48923 0.40216 0.10437
 H161 H 0.47508 0.35756 -0.07318
 H162 H 0.47083 0.25855 -0.06771
 C163 C -0.27869 0.00898 0.52345
 C164 C -0.32767 0.04497 0.56756
 C165 C -0.38344 0.03959 0.56487
 C166 C -0.39099 -0.00212 0.51794
 C167 C -0.34086 -0.03839 0.47428
 C168 C -0.28541 -0.03294 0.47720
 C169 C -0.22116 0.01497 0.52426
 C170 C -0.17174 0.01744 0.52212
 H171 H -0.32285 0.07785 0.60340
 H172 H -0.42061 0.06988 0.59817
 H173 H -0.34435 -0.07185 0.43813
 H174 H -0.24767 -0.06128 0.44302
 C175 C 0.26631 0.00268 0.48430
 C176 C 0.27601 0.05008 0.52266
 C177 C 0.33267 0.05178 0.52472
 C178 C 0.38029 0.00611 0.48827
 C179 C 0.37040 -0.04075 0.44887
 C180 C 0.31360 -0.04241 0.44688
 C181 C 0.20757 -0.00035 0.48548
 C182 C 0.15763 -0.00133 0.48851
 H183 H 0.23969 0.08517 0.55181
 H184 H 0.33938 0.08819 0.55546
 H185 H 0.40644 -0.07685 0.42106
 H186 H 0.30651 -0.07937 0.41719
 C187 C -0.01156 0.52199 1.27190
 C188 C -0.05955 0.51375 1.30971
 C189 C -0.05900 0.51418 1.36705
 C190 C -0.01050 0.52306 1.38731
 C191 C 0.03717 0.53231 1.34949
 C192 C 0.03656 0.53187 1.29206
 C193 C -0.01062 0.51756 1.21172
 C194 C -0.00896 0.51278 1.16097
 H195 H -0.09690 0.50590 1.29455
 H196 H -0.09607 0.50673 1.39549
 H197 H 0.07529 0.53839 1.36400
 H198 H 0.07405 0.53801 1.26304
 C199 C 0.01524 0.47926 0.72202
 C200 C -0.02721 0.52436 0.71708
 C201 C -0.03140 0.52883 0.66196
 C202 C 0.00673 0.48811 0.61097
 C203 C 0.04898 0.44245 0.61598
 C204 C 0.05317 0.43802 0.67140
 C205 C 0.01968 0.47693 0.77948
 C206 C 0.02060 0.47826 0.82906
 H207 H -0.05679 0.55647 0.75592
 H208 H -0.06425 0.56431 0.65899
 H209 H 0.07919 0.41100 0.57713
 H210 H 0.08625 0.40299 0.67476
   
