data_POSCAR
  _audit_creation_date              2014-09-24
  _audit_creation_method            'ToBaCCo'
  _symmetry_space_group_name_H-M    'P1'
  _symmetry_Int_Tables_number       1
  _symmetry_cell_setting            triclinic
  loop_
  _symmetry_equiv_pos_as_xyz
 x,y,z
_cell_length_a 47.7568
_cell_length_b 34.5540
_cell_length_c 35.2827
_cell_angle_alpha 89.956000
_cell_angle_beta 89.938600
_cell_angle_gamma 90.061800
loop_
  _atom_site_label
  _atom_site_type_symbol
  _atom_site_fract_x
  _atom_site_fract_y
  _atom_site_fract_z
C1 C 1.21309 0.26508 0.31017
 H2 H 1.21379 0.23396 0.31347
 C3 C 1.19496 0.28699 0.33254
 H4 H 1.18160 0.27274 0.35312
 C5 C 1.22906 0.32158 0.27860
 H6 H 1.24237 0.33496 0.25759
 C7 C 1.21117 0.34461 0.30041
 H8 H 1.21056 0.37561 0.29587
 N9 N 1.22915 0.28244 0.28319
 C10 C 1.23771 0.19327 0.19611
 H11 H 1.26020 0.19031 0.19384
 C12 C 1.22014 0.17062 0.17338
 H13 H 1.22906 0.15002 0.15365
 C14 C 1.19844 0.22397 0.22414
 H15 H 1.18993 0.24518 0.24338
 C16 C 1.18021 0.20202 0.20201
 H17 H 1.15781 0.20615 0.20472
 Zn18 Zn 1.25079 0.24922 0.25204
 N19 N 1.22662 0.21888 0.22132
 C20 C 1.27243 0.17831 0.28216
 N21 N 1.27248 0.21762 0.28471
 C22 C 1.28867 0.23629 0.31062
 C23 C 1.30683 0.21551 0.33395
 C24 C 1.29032 0.15632 0.30497
 C25 C 1.26374 0.30226 0.19329
 C26 C 1.28126 0.32380 0.16939
 C27 C 1.32125 0.29377 0.19919
 C28 C 1.30307 0.27292 0.22246
 N29 N 1.27488 0.27791 0.21964
 H30 H 1.25900 0.16393 0.26200
 H31 H 1.28806 0.26755 0.31230
 H32 H 1.32025 0.23091 0.35361
 H33 H 1.29072 0.12511 0.30190
 H34 H 1.24124 0.30513 0.19105
 H35 H 1.27229 0.34348 0.14882
 H36 H 1.34366 0.28980 0.20195
 H37 H 1.31162 0.25267 0.24264
 C38 C 1.19110 0.17496 0.17659
 C39 C 1.19369 0.32704 0.32723
 C40 C 1.31030 0.31961 0.17260
 C41 C 1.30799 0.17517 0.33072
 C42 C 0.71270 -0.23394 0.30899
 H43 H 0.71334 -0.26505 0.31234
 C44 C 0.69464 -0.21193 0.33134
 H45 H 0.68126 -0.22608 0.35195
 C46 C 0.72879 -0.17754 0.27732
 H47 H 0.74214 -0.16426 0.25629
 C48 C 0.71097 -0.15441 0.29911
 H49 H 0.71043 -0.12342 0.29452
 N50 N 0.72878 -0.21667 0.28197
 C51 C 0.73742 -0.30615 0.19538
 H52 H 0.75992 -0.30911 0.19323
 C53 C 0.71991 -0.32893 0.17272
 H54 H 0.72887 -0.34963 0.15314
 C55 C 0.69808 -0.27531 0.22312
 H56 H 0.68954 -0.25400 0.24222
 C57 C 0.67991 -0.29737 0.20105
 H58 H 0.65750 -0.29325 0.20365
 Zn59 Zn 0.75037 -0.25002 0.25103
 N60 N 0.72627 -0.28042 0.22043
 C61 C 0.77157 -0.32083 0.28173
 N62 N 0.77191 -0.28149 0.28387
 C63 C 0.78814 -0.26276 0.30969
 C64 C 0.80601 -0.28357 0.33338
 C65 C 0.78918 -0.34279 0.30493
 C66 C 0.76323 -0.19736 0.19210
 C67 C 0.78069 -0.17589 0.16810
 C68 C 0.82075 -0.20561 0.19804
 C69 C 0.80263 -0.22641 0.22142
 N70 N 0.77444 -0.22152 0.21856
 H71 H 0.75809 -0.33525 0.26165
 H72 H 0.78775 -0.23149 0.31107
 H73 H 0.81952 -0.26833 0.35301
 H74 H 0.78945 -0.37402 0.30233
 H75 H 0.74073 -0.19459 0.18986
 H76 H 0.77169 -0.15634 0.14743
 H77 H 0.84317 -0.20947 0.20082
 H78 H 0.81121 -0.24652 0.24171
 C79 C 0.69088 -0.32456 0.17582
 C80 C 0.69348 -0.17189 0.32596
 C81 C 0.80973 -0.17995 0.17134
 C82 C 0.80682 -0.32390 0.33059
 C83 C 0.71282 0.26677 -0.19272
 H84 H 0.71343 0.23565 -0.18942
 C85 C 0.69477 0.28877 -0.17033
 H86 H 0.68139 0.27459 -0.14974
 C87 C 0.72895 0.32319 -0.22429
 H88 H 0.74229 0.33650 -0.24531
 C89 C 0.71113 0.34632 -0.20246
 H90 H 0.71061 0.37732 -0.20699
 N91 N 0.72894 0.28405 -0.21970
 C92 C 0.73703 0.19426 -0.30633
 H93 H 0.75949 0.19089 -0.30852
 C94 C 0.71927 0.17157 -0.32878
 H95 H 0.72803 0.15056 -0.34821
 C96 C 0.69799 0.22593 -0.27873
 H97 H 0.68965 0.24751 -0.25976
 C98 C 0.67960 0.20398 -0.30060
 H99 H 0.65723 0.20848 -0.29795
 Zn100 Zn 0.75048 0.25056 -0.25075
 N101 N 0.72614 0.22035 -0.28142
 C102 C 0.77169 0.17951 -0.22013
 N103 N 0.77193 0.21885 -0.21784
 C104 C 0.78814 0.23752 -0.19193
 C105 C 0.80607 0.21667 -0.16833
 C106 C 0.78937 0.15752 -0.19702
 C107 C 0.76406 0.30364 -0.30938
 C108 C 0.78185 0.32504 -0.33304
 C109 C 0.82148 0.29406 -0.30317
 C110 C 0.80300 0.27341 -0.28015
 N111 N 0.77487 0.27895 -0.28310
 H112 H 0.75827 0.16513 -0.24029
 H113 H 0.78770 0.26879 -0.19045
 H114 H 0.81954 0.23190 -0.14864
 H115 H 0.78971 0.12630 -0.19975
 H116 H 0.74160 0.30694 -0.31171
 H117 H 0.77302 0.34500 -0.35350
 H118 H 0.84384 0.28953 -0.30014
 H119 H 0.81128 0.25287 -0.26004
 C120 C 0.69027 0.17639 -0.32565
 C121 C 0.69361 0.32883 -0.17561
 C122 C 0.81089 0.32035 -0.32969
 C123 C 0.80699 0.17636 -0.17127
 C124 C 1.21271 -0.23360 -0.19114
 H125 H 1.21324 -0.26472 -0.18780
 C126 C 1.19492 -0.21144 -0.16856
 H127 H 1.18160 -0.22548 -0.14780
 C128 C 1.22887 -0.17733 -0.22298
 H129 H 1.24215 -0.16415 -0.24413
 C130 C 1.21131 -0.15404 -0.20096
 H131 H 1.21087 -0.12304 -0.20553
 N132 N 1.22869 -0.21645 -0.21833
 C133 C 1.23687 -0.30627 -0.30459
 H134 H 1.25936 -0.30923 -0.30688
 C135 C 1.21928 -0.32917 -0.32701
 H136 H 1.22817 -0.34998 -0.34655
 C137 C 1.19763 -0.27531 -0.27671
 H138 H 1.18916 -0.25391 -0.25764
 C139 C 1.17938 -0.29750 -0.29854
 H140 H 1.15698 -0.29339 -0.29580
 Zn141 Zn 1.25004 -0.24997 -0.24932
 N142 N 1.22580 -0.28044 -0.27959
 C143 C 1.27121 -0.32067 -0.21841
 N144 N 1.27163 -0.28131 -0.21651
 C145 C 1.28796 -0.26245 -0.19090
 C146 C 1.30585 -0.28315 -0.16716
 C147 C 1.28884 -0.34251 -0.19515
 C148 C 1.26274 -0.19752 -0.30843
 C149 C 1.28015 -0.17612 -0.33256
 C150 C 1.32027 -0.20603 -0.30292
 C151 C 1.30220 -0.22674 -0.27941
 N152 N 1.27401 -0.22170 -0.28204
 H153 H 1.25765 -0.33517 -0.23832
 H154 H 1.28761 -0.23117 -0.18972
 H155 H 1.31943 -0.26782 -0.14770
 H156 H 1.28906 -0.37377 -0.19755
 H157 H 1.24024 -0.19464 -0.31048
 H158 H 1.27111 -0.15652 -0.35314
 H159 H 1.34269 -0.20997 -0.30030
 H160 H 1.31081 -0.24688 -0.25917
 C161 C 1.19026 -0.32481 -0.32371
 C162 C 1.19392 -0.17139 -0.17390
 C163 C 1.30919 -0.18031 -0.32952
 C164 C 1.30657 -0.32349 -0.16970
 C165 C 0.26269 0.19668 0.69246
 H166 H 0.24019 0.19381 0.69037
 C167 C 0.28009 0.17534 0.66832
 H168 H 0.27103 0.15580 0.64770
 C169 C 0.30217 0.22587 0.72152
 H170 H 0.31081 0.24599 0.74175
 C171 C 0.32023 0.20521 0.69800
 H172 H 0.34266 0.20919 0.70062
 N173 N 0.27397 0.22085 0.71885
 C174 C 0.21257 0.23308 0.80971
 H175 H 0.21329 0.26419 0.81304
 C176 C 0.19456 0.21106 0.83221
 H177 H 0.18132 0.22531 0.85290
 C178 C 0.22843 0.17672 0.77793
 H179 H 0.24166 0.16347 0.75680
 C180 C 0.21065 0.15356 0.79984
 H181 H 0.21007 0.12256 0.79519
 Zn182 Zn 0.25000 0.24926 0.75146
 N183 N 0.22851 0.21584 0.78257
 C184 C 0.19761 0.27450 0.72390
 N185 N 0.22580 0.27964 0.72099
 C186 C 0.23687 0.30540 0.69585
 C187 C 0.21929 0.32819 0.67330
 C188 C 0.17938 0.29657 0.70195
 C189 C 0.28799 0.26207 0.80988
 C190 C 0.30593 0.28292 0.83346
 C191 C 0.28899 0.34211 0.80506
 C192 C 0.27132 0.32012 0.78198
 N193 N 0.27166 0.28077 0.78414
 H194 H 0.18913 0.25316 0.74309
 H195 H 0.25936 0.30840 0.69353
 H196 H 0.22819 0.34893 0.65365
 H197 H 0.15697 0.29242 0.70473
 H198 H 0.28760 0.23079 0.81128
 H199 H 0.31949 0.26771 0.85302
 H200 H 0.28925 0.37335 0.80245
 H201 H 0.25777 0.33450 0.76197
 C202 C 0.19327 0.17100 0.82685
 C203 C 0.30915 0.17956 0.67136
 C204 C 0.30671 0.32325 0.83064
 C205 C 0.19026 0.32380 0.67662
 C206 C 0.76254 0.69747 0.69198
 H207 H 0.74005 0.69450 0.68971
 C208 C 0.78010 0.67588 0.66826
 H209 H 0.77118 0.65606 0.64779
 C210 C 0.80182 0.72706 0.72111
 H211 H 0.81033 0.74741 0.74122
 C212 C 0.82004 0.70617 0.69801
 H213 H 0.84244 0.71021 0.70084
 N214 N 0.77364 0.72194 0.71825
 C215 C 0.71182 0.73445 0.80874
 H216 H 0.71252 0.76557 0.81201
 C217 C 0.69370 0.71248 0.83115
 H218 H 0.68039 0.72677 0.85172
 C219 C 0.72780 0.67802 0.77721
 H220 H 0.74112 0.66471 0.75622
 C221 C 0.70993 0.65490 0.79905
 H222 H 0.70939 0.62390 0.79448
 Zn223 Zn 0.74953 0.75051 0.75065
 N224 N 0.72788 0.71716 0.78176
 C225 C 0.69718 0.77568 0.72278
 N226 N 0.72537 0.78092 0.72000
 C227 C 0.73643 0.80677 0.69493
 C228 C 0.71884 0.82954 0.67235
 C229 C 0.67894 0.79773 0.70079
 C230 C 0.78739 0.76322 0.80929
 C231 C 0.80551 0.78393 0.83273
 C232 C 0.78910 0.84320 0.80397
 C233 C 0.77122 0.82134 0.78101
 N234 N 0.77123 0.78201 0.78341
 H235 H 0.68869 0.75429 0.74189
 H236 H 0.75892 0.80985 0.69268
 H237 H 0.72774 0.85034 0.65276
 H238 H 0.65654 0.79349 0.70348
 H239 H 0.78676 0.73196 0.81085
 H240 H 0.81894 0.76862 0.85239
 H241 H 0.78963 0.87441 0.80115
 H242 H 0.75783 0.83582 0.76087
 C243 C 0.69243 0.67240 0.82589
 C244 C 0.80914 0.68015 0.67156
 C245 C 0.80667 0.82423 0.82966
 C246 C 0.68981 0.82506 0.67554
 C247 C 0.76328 0.19814 0.19099
 H248 H 0.74079 0.19526 0.18866
 C249 C 0.78082 0.17680 0.16707
 H250 H 0.77189 0.15724 0.14637
 C251 C 0.80258 0.22731 0.22053
 H252 H 0.81108 0.24741 0.24088
 C253 C 0.82078 0.20665 0.19723
 H254 H 0.84319 0.21060 0.20013
 N255 N 0.77440 0.22227 0.21753
 C256 C 0.71251 0.23400 0.30770
 H257 H 0.71309 0.26510 0.31107
 C258 C 0.69452 0.21181 0.33004
 H259 H 0.68111 0.22582 0.35066
 C260 C 0.72875 0.17777 0.27601
 H261 H 0.74214 0.16463 0.25500
 C262 C 0.71099 0.15447 0.29779
 H263 H 0.71052 0.12348 0.29321
 Zn264 Zn 0.75024 0.25047 0.24996
 N265 N 0.72864 0.21689 0.28069
 C266 C 0.69803 0.27568 0.22191
 N267 N 0.72622 0.28095 0.21939
 C268 C 0.73743 0.30689 0.19455
 C269 C 0.71997 0.32977 0.17193
 C270 C 0.67991 0.29783 0.19988
 C271 C 0.78777 0.26288 0.30886
 C272 C 0.80555 0.28355 0.33280
 C273 C 0.78884 0.34295 0.30458
 C274 C 0.77132 0.32114 0.28112
 N275 N 0.77165 0.28178 0.28303
 H276 H 0.68945 0.25419 0.24086
 H277 H 0.75993 0.30996 0.19254
 H278 H 0.72897 0.35067 0.15252
 H279 H 0.65750 0.29360 0.20234
 H280 H 0.78736 0.23160 0.31004
 H281 H 0.81897 0.26818 0.35243
 H282 H 0.78914 0.37421 0.30217
 H283 H 0.75792 0.33567 0.26103
 C284 C 0.69347 0.17177 0.32466
 C285 C 0.80985 0.18099 0.17048
 C286 C 0.80636 0.32389 0.33025
 C287 C 0.69094 0.32526 0.17486
 C288 C 0.26362 0.69814 0.19317
 H289 H 0.24113 0.69520 0.19094
 C290 C 0.28115 0.67660 0.16935
 H291 H 0.27218 0.65687 0.14883
 C292 C 0.30296 0.72758 0.22231
 H293 H 0.31150 0.74785 0.24247
 C294 C 0.32114 0.70673 0.19911
 H295 H 0.34355 0.71074 0.20190
 N296 N 0.27476 0.72253 0.21949
 C297 C 0.21299 0.73476 0.31017
 H298 H 0.21363 0.76587 0.31351
 C299 C 0.19491 0.71265 0.33253
 H300 H 0.18154 0.72675 0.35314
 C301 C 0.22906 0.67846 0.27851
 H302 H 0.24238 0.66523 0.25747
 C303 C 0.21122 0.65524 0.30030
 H304 H 0.21068 0.62425 0.29572
 Zn305 Zn 0.25065 0.75106 0.25199
 N306 N 0.22908 0.71759 0.28314
 C307 C 0.19820 0.77606 0.22422
 N308 N 0.22637 0.78140 0.22138
 C309 C 0.23734 0.80726 0.19624
 C310 C 0.21967 0.82991 0.17365
 C311 C 0.17988 0.79799 0.20223
 C312 C 0.28860 0.76397 0.31055
 C313 C 0.30671 0.78476 0.33398
 C314 C 0.29010 0.84398 0.30521
 C315 C 0.27226 0.82199 0.28230
 N316 N 0.27237 0.78266 0.28470
 H317 H 0.18978 0.75466 0.24339
 H318 H 0.25982 0.81044 0.19394
 H319 H 0.22851 0.85071 0.15400
 H320 H 0.15749 0.79365 0.20497
 H321 H 0.28804 0.73271 0.31213
 H322 H 0.32014 0.76933 0.35360
 H323 H 0.29043 0.87521 0.30226
 H324 H 0.25880 0.83639 0.26218
 C325 C 0.19372 0.67261 0.32717
 C326 C 0.31020 0.68082 0.17259
 C327 C 0.30779 0.82513 0.33093
 C328 C 0.19065 0.82530 0.17690
 O329 O 1.03964 0.06697 0.06901
 O330 O 1.07074 0.03279 0.03244
 C331 C 1.06494 0.05745 0.05906
 O332 O 0.96104 -0.07079 0.06487
 O333 O 0.93019 -0.03352 0.03117
 C334 C 0.93584 -0.06077 0.05529
 O335 O 1.03914 -0.06661 0.06933
 O336 O 1.07027 -0.03210 0.03312
 C337 C 1.06444 -0.05695 0.05959
 O338 O 0.96126 0.07156 0.06502
 O339 O 0.93028 0.03467 0.03102
 C340 C 0.93601 0.06174 0.05528
 Zr341 Zr 1.00033 0.04919 0.04732
 O342 O 0.99746 0.04869 0.10718
 O343 O 1.00364 0.11029 0.04757
 Zr344 Zr 1.00015 -0.04813 0.04751
 O345 O 0.99847 -0.04381 0.10722
 O346 O 1.00296 -0.10922 0.04966
 O347 O 1.02530 0.00047 0.05485
 O348 O 0.97564 0.00053 0.05424
 O349 O 0.96107 0.07078 -0.06633
 O350 O 0.92998 0.03379 -0.03236
 C351 C 0.93576 0.06068 -0.05684
 O352 O 1.03959 -0.06664 -0.06976
 O353 O 1.07040 -0.03209 -0.03331
 C354 C 1.06479 -0.05682 -0.05986
 O355 O 0.96131 -0.07025 -0.06647
 O356 O 0.93034 -0.03329 -0.03257
 C357 C 0.93606 -0.06022 -0.05696
 O358 O 1.03964 0.06739 -0.07003
 O359 O 1.07046 0.03287 -0.03353
 C360 C 1.06485 0.05757 -0.06015
 Zr361 Zr 1.00045 0.04930 -0.04821
 O362 O 0.99739 0.05001 -0.10806
 O363 O 1.00369 0.11043 -0.04749
 Zr364 Zr 1.00046 -0.04836 -0.04815
 O365 O 0.99745 -0.04861 -0.10801
 O366 O 1.00364 -0.10949 -0.04743
 Zr367 Zr 1.04223 0.00047 -0.00029
 Zr368 Zr 0.95844 0.00052 -0.00061
 O369 O 0.97612 0.00046 -0.05528
 O370 O 1.02549 0.00048 -0.05559
 O371 O 0.97536 0.05693 -0.00054
 O372 O 1.02470 -0.05540 -0.00020
 O373 O 1.02482 0.05639 -0.00039
 O374 O 0.97528 -0.05588 -0.00043
 H375 H 0.96286 0.00055 0.07638
 H376 H 1.03728 -0.07818 -0.00008
 H377 H 0.96360 0.00044 -0.07766
 H378 H 1.03752 0.07909 -0.00037
 H379 H 0.98940 -0.11959 0.03110
 H380 H 0.98734 -0.11967 -0.03325
 H381 H 1.01292 -0.03250 -0.11800
 H382 H 1.01243 0.03323 -0.11808
 H383 H 0.98726 0.12058 -0.03362
 H384 H 0.98861 0.12051 0.03114
 H385 H 1.01097 0.02921 0.11653
 H386 H 0.99844 -0.07073 0.11693
 O387 O 1.03885 0.56618 0.57018
 O388 O 1.06991 0.53194 0.53369
 C389 C 1.06412 0.55662 0.56027
 O390 O 0.96074 0.42809 0.56607
 O391 O 0.92974 0.46518 0.53239
 C392 C 0.93548 0.43799 0.55656
 O393 O 1.03886 0.43248 0.57018
 O394 O 1.06992 0.46685 0.53371
 C395 C 1.06413 0.44209 0.56027
 O396 O 0.96071 0.57032 0.56625
 O397 O 0.92975 0.53336 0.53233
 C398 C 0.93547 0.56043 0.55660
 Zr399 Zr 0.99978 0.54818 0.54821
 O400 O 0.99702 0.54799 0.60809
 O401 O 1.00304 0.60930 0.54778
 Zr402 Zr 0.99982 0.45085 0.54852
 O403 O 0.99829 0.45520 0.60823
 O404 O 1.00266 0.38977 0.55081
 O405 O 1.02489 0.49951 0.55567
 O406 O 0.97523 0.49944 0.55532
 O407 O 0.96082 0.57001 0.43453
 O408 O 0.92983 0.53307 0.46858
 C409 C 0.93556 0.55999 0.44413
 O410 O 1.03897 0.43219 0.43117
 O411 O 1.06994 0.46687 0.46734
 C412 C 1.06423 0.44203 0.44090
 O413 O 0.96039 0.42892 0.43509
 O414 O 0.92941 0.46596 0.46903
 C415 C 0.93513 0.43902 0.44464
 O416 O 1.03910 0.56639 0.43093
 O417 O 1.07001 0.53185 0.46726
 C418 C 1.06434 0.55663 0.44073
 Zr419 Zr 0.99993 0.54806 0.45268
 O420 O 0.99678 0.54801 0.39283
 O421 O 1.00319 0.60918 0.45293
 Zr422 Zr 0.99982 0.45044 0.45296
 O423 O 0.99667 0.44974 0.39312
 O424 O 1.00297 0.38931 0.45378
 Zr425 Zr 1.04179 0.49938 0.50049
 Zr426 Zr 0.95792 0.49930 0.50055
 O427 O 0.97551 0.49923 0.44581
 O428 O 1.02491 0.49924 0.44527
 O429 O 0.97480 0.55574 0.50041
 O430 O 1.02424 0.44351 0.50074
 O431 O 1.02431 0.55526 0.50045
 O432 O 0.97481 0.44293 0.50075
 H433 H 0.96250 0.49940 0.57752
 H434 H 1.03682 0.42072 0.50082
 H435 H 0.96294 0.49922 0.42348
 H436 H 1.03698 0.57799 0.50044
 H437 H 0.98928 0.37937 0.53204
 H438 H 0.98650 0.37914 0.46761
 H439 H 1.01184 0.46630 0.38301
 H440 H 1.01236 0.53215 0.38286
 H441 H 0.98730 0.61937 0.46787
 H442 H 0.98733 0.61945 0.53250
 H443 H 1.01017 0.52805 0.61744
 H444 H 0.99828 0.42829 0.61796
 O445 O 0.53842 0.06748 0.56807
 O446 O 0.56953 0.03307 0.53181
 C447 C 0.56371 0.05789 0.55827
 O448 O 0.46032 -0.07075 0.56408
 O449 O 0.42936 -0.03376 0.53024
 C450 C 0.43508 -0.06088 0.55446
 O451 O 0.53842 -0.06635 0.56850
 O452 O 0.56953 -0.03208 0.53204
 C453 C 0.56371 -0.05678 0.55865
 O454 O 0.46026 0.07144 0.56392
 O455 O 0.42934 0.03437 0.53004
 C456 C 0.43503 0.06149 0.55427
 Zr457 Zr 0.49936 0.04932 0.54606
 O458 O 0.49651 0.04934 0.60593
 O459 O 0.50260 0.11044 0.54543
 Zr460 Zr 0.49941 -0.04801 0.54668
 O461 O 0.49776 -0.04340 0.60636
 O462 O 0.50226 -0.10907 0.54927
 O463 O 0.52447 0.00068 0.55377
 O464 O 0.47480 0.00059 0.55324
 O465 O 0.46052 0.07075 0.43215
 O466 O 0.42950 0.03394 0.46626
 C467 C 0.43526 0.06077 0.44172
 O468 O 0.53870 -0.06701 0.42948
 O469 O 0.56960 -0.03224 0.46567
 C470 C 0.56393 -0.05712 0.43926
 O471 O 0.46011 -0.07035 0.43313
 O472 O 0.42907 -0.03322 0.46687
 C473 C 0.43482 -0.06024 0.44256
 O474 O 0.53881 0.06697 0.42874
 O475 O 0.56965 0.03264 0.46536
 C476 C 0.56401 0.05721 0.43865
 Zr477 Zr 0.49962 0.04887 0.45055
 O478 O 0.49655 0.04881 0.39069
 O479 O 0.50291 0.11000 0.45077
 Zr480 Zr 0.49952 -0.04876 0.45111
 O481 O 0.49647 -0.04971 0.39127
 O482 O 0.50267 -0.10988 0.45221
 Zr483 Zr 0.54143 0.00035 0.49864
 Zr484 Zr 0.45756 0.00026 0.49841
 O485 O 0.47522 0.00002 0.44374
 O486 O 0.52460 0.00003 0.44338
 O487 O 0.47442 0.05671 0.49818
 O488 O 0.52388 -0.05552 0.49898
 O489 O 0.52395 0.05624 0.49834
 O490 O 0.47445 -0.05610 0.49886
 H491 H 0.46204 0.00060 0.57541
 H492 H 0.53646 -0.07830 0.49918
 H493 H 0.46269 -0.00007 0.42137
 H494 H 0.53663 0.07895 0.49828
 H495 H 0.48906 -0.11956 0.53031
 H496 H 0.48612 -0.12000 0.46589
 H497 H 0.51164 -0.03317 0.38114
 H498 H 0.51195 0.03260 0.38078
 H499 H 0.48687 0.12023 0.46540
 H500 H 0.48690 0.12052 0.53007
 H501 H 0.50970 0.02949 0.61539
 H502 H 0.49772 -0.07027 0.61620
 O503 O 0.53943 0.56723 0.06898
 O504 O 0.57041 0.53318 0.03223
 C505 C 0.56468 0.55775 0.05892
 O506 O 0.46136 0.42920 0.06504
 O507 O 0.43020 0.46631 0.03163
 C508 C 0.43606 0.43910 0.05572
 O509 O 0.53952 0.43366 0.06869
 O510 O 0.57046 0.46813 0.03212
 C511 C 0.56476 0.44333 0.05868
 O512 O 0.46128 0.57126 0.06547
 O513 O 0.43016 0.53442 0.03167
 C514 C 0.43598 0.56141 0.05599
 Zr515 Zr 0.50033 0.54923 0.04714
 O516 O 0.49778 0.54900 0.10703
 O517 O 0.50355 0.61036 0.04680
 Zr518 Zr 0.50039 0.45194 0.04726
 O519 O 0.49905 0.45602 0.10700
 O520 O 0.50332 0.39085 0.04927
 O521 O 0.52548 0.50060 0.05437
 O522 O 0.47581 0.50048 0.05432
 O523 O 0.46090 0.57122 -0.06620
 O524 O 0.43003 0.53419 -0.03203
 C525 C 0.43568 0.56113 -0.05648
 O526 O 0.53925 0.43358 -0.07031
 O527 O 0.57029 0.46824 -0.03426
 C528 C 0.56452 0.44345 -0.06072
 O529 O 0.46094 0.42980 -0.06620
 O530 O 0.43004 0.46661 -0.03201
 C531 C 0.43572 0.43972 -0.05646
 O532 O 0.53921 0.56773 -0.07034
 O533 O 0.57028 0.53317 -0.03427
 C534 C 0.56449 0.55797 -0.06073
 Zr535 Zr 0.50012 0.54936 -0.04834
 O536 O 0.49675 0.54953 -0.10817
 O537 O 0.50333 0.61048 -0.04791
 Zr538 Zr 0.50015 0.45177 -0.04829
 O539 O 0.49680 0.45157 -0.10812
 O540 O 0.50341 0.39065 -0.04773
 Zr541 Zr 0.54221 0.50064 -0.00091
 Zr542 Zr 0.45826 0.50046 -0.00032
 O543 O 0.47571 0.50051 -0.05515
 O544 O 0.52514 0.50062 -0.05601
 O545 O 0.47515 0.55690 -0.00045
 O546 O 0.52470 0.44474 -0.00066
 O547 O 0.52468 0.55649 -0.00073
 O548 O 0.47524 0.44413 -0.00037
 H549 H 0.46318 0.50040 0.07662
 H550 H 0.53730 0.42198 -0.00069
 H551 H 0.46307 0.50050 -0.07740
 H552 H 0.53734 0.57922 -0.00077
 H553 H 0.48952 0.38046 0.03105
 H554 H 0.48726 0.38041 -0.03329
 H555 H 0.51219 0.46772 -0.11825
 H556 H 0.51222 0.53357 -0.11829
 H557 H 0.48741 0.62061 -0.03298
 H558 H 0.48775 0.62052 0.03169
 H559 H 0.51084 0.52889 0.11627
 H560 H 0.49909 0.42907 0.11662
 C561 C 1.13269 0.11398 0.11714
 C562 C 1.10492 0.12172 0.12712
 C563 C 1.08299 0.10314 0.10839
 C564 C 1.17212 0.15208 0.15420
 C565 C 1.11652 0.06857 0.06947
 C566 C 1.13850 0.08730 0.08834
 C567 C 1.15484 0.13403 0.13664
 C568 C 1.08847 0.07642 0.07923
 H569 H 1.10018 0.14231 0.14937
 H570 H 1.06173 0.10992 0.11673
 H571 H 1.12149 0.04817 0.04718
 H572 H 1.15994 0.08109 0.08039
 C573 C 1.13187 0.61342 0.61785
 C574 C 1.10414 0.62082 0.62824
 C575 C 1.08220 0.60210 0.60970
 C576 C 1.17128 0.65202 0.65427
 C577 C 1.11566 0.56804 0.57024
 C578 C 1.13765 0.58691 0.58890
 C579 C 1.15401 0.63372 0.63701
 C580 C 1.08764 0.57560 0.58036
 H581 H 1.09944 0.64128 0.65062
 H582 H 1.06095 0.60862 0.61831
 H583 H 1.12060 0.54780 0.54779
 H584 H 1.15908 0.58098 0.58065
 C585 C 0.63152 0.11492 0.61586
 C586 C 0.63729 0.08821 0.58707
 C587 C 0.61529 0.06931 0.56840
 C588 C 0.67109 0.15338 0.65235
 C589 C 0.58181 0.10371 0.60752
 C590 C 0.60376 0.12246 0.62606
 C591 C 0.65372 0.13519 0.63508
 C592 C 0.58725 0.07698 0.57835
 H593 H 0.65872 0.08214 0.57893
 H594 H 0.62024 0.04892 0.54609
 H595 H 0.56055 0.11034 0.61600
 H596 H 0.59904 0.14306 0.64832
 C597 C 0.63253 0.61418 0.11672
 C598 C 0.60480 0.62173 0.12701
 C599 C 0.58283 0.60318 0.10837
 C600 C 0.67195 0.65242 0.15353
 C601 C 0.61626 0.56896 0.06898
 C602 C 0.63828 0.58767 0.08775
 C603 C 0.65469 0.63428 0.13607
 C604 C 0.58825 0.57665 0.07902
 H605 H 0.60012 0.64219 0.14940
 H606 H 0.56159 0.60981 0.11692
 H607 H 0.62117 0.54870 0.04654
 H608 H 0.65970 0.58161 0.07958
 C609 C 0.86796 -0.12073 0.10981
 C610 C 0.89569 -0.13132 0.11702
 C611 C 0.91765 -0.11200 0.09905
 C612 C 0.82861 -0.15794 0.14793
 C613 C 0.88424 -0.07136 0.06606
 C614 C 0.86222 -0.09080 0.08420
 C615 C 0.84582 -0.14041 0.12973
 C616 C 0.91225 -0.08163 0.07348
 H617 H 0.90037 -0.15441 0.13682
 H618 H 0.93889 -0.12078 0.10543
 H619 H 0.87934 -0.04815 0.04653
 H620 H 0.84080 -0.08234 0.07847
 C621 C 0.86770 0.37782 0.61136
 C622 C 0.89548 0.36764 0.61884
 C623 C 0.91741 0.38703 0.60081
 C624 C 0.82831 0.34034 0.64936
 C625 C 0.88388 0.42697 0.56724
 C626 C 0.86190 0.40744 0.58543
 C627 C 0.84556 0.35798 0.63123
 C628 C 0.91193 0.41708 0.57490
 H629 H 0.90022 0.34478 0.63888
 H630 H 0.93867 0.37854 0.60740
 H631 H 0.87891 0.44992 0.54745
 H632 H 0.84045 0.41560 0.57947
 C633 C 0.36732 -0.12102 0.60894
 C634 C 0.39506 -0.13139 0.61633
 C635 C 0.41700 -0.11200 0.59839
 C636 C 0.32802 -0.15830 0.64703
 C637 C 0.38352 -0.07173 0.56508
 C638 C 0.36153 -0.09124 0.58319
 C639 C 0.34521 -0.14074 0.62883
 C640 C 0.41154 -0.08179 0.57267
 H641 H 0.39977 -0.15437 0.63625
 H642 H 0.43825 -0.12062 0.60489
 H643 H 0.37859 -0.04864 0.54543
 H644 H 0.34009 -0.08295 0.57733
 C645 C 0.36851 0.37898 0.11100
 C646 C 0.39631 0.36871 0.11820
 C647 C 0.41817 0.38808 0.10001
 C648 C 0.32923 0.34165 0.14925
 C649 C 0.38452 0.42816 0.06682
 C650 C 0.36261 0.40866 0.08517
 C651 C 0.34645 0.35921 0.13103
 C652 C 0.41260 0.41818 0.07421
 H653 H 0.40112 0.34581 0.13816
 H654 H 0.43946 0.37953 0.10639
 H655 H 0.37948 0.45116 0.04712
 H656 H 0.34115 0.41689 0.07942
 C657 C 0.86764 0.11853 -0.11276
 C658 C 0.89534 0.12889 -0.12073
 C659 C 0.91743 0.11025 -0.10237
 C660 C 0.82728 0.15488 -0.14967
 C661 C 0.88418 0.07075 -0.06761
 C662 C 0.86207 0.08950 -0.08609
 C663 C 0.84520 0.13782 -0.13237
 C664 C 0.91216 0.08085 -0.07566
 H665 H 0.89990 0.15134 -0.14130
 H666 H 0.93865 0.11884 -0.10928
 H667 H 0.87935 0.04827 -0.04722
 H668 H 0.84069 0.08126 -0.07969
 C669 C 0.86740 0.61819 0.38890
 C670 C 0.89508 0.62855 0.38080
 C671 C 0.91719 0.60978 0.39894
 C672 C 0.82705 0.65463 0.35221
 C673 C 0.88399 0.57018 0.43372
 C674 C 0.86186 0.58905 0.41546
 C675 C 0.84496 0.63754 0.36945
 C676 C 0.91195 0.58027 0.42554
 H677 H 0.89959 0.65108 0.36030
 H678 H 0.93839 0.61835 0.39195
 H679 H 0.87920 0.54761 0.45404
 H680 H 0.84048 0.58083 0.42193
 C681 C 0.36707 0.11899 0.38638
 C682 C 0.39477 0.12911 0.37807
 C683 C 0.41688 0.11032 0.39621
 C684 C 0.32662 0.15567 0.34999
 C685 C 0.38367 0.07113 0.43138
 C686 C 0.36154 0.09003 0.41313
 C687 C 0.34460 0.13847 0.36707
 C688 C 0.41164 0.08101 0.42303
 H689 H 0.39929 0.15150 0.35743
 H690 H 0.43809 0.11872 0.38907
 H691 H 0.37887 0.04873 0.45187
 H692 H 0.34016 0.08198 0.41979
 C693 C 0.36731 0.61902 -0.11143
 C694 C 0.36188 0.58984 -0.08488
 C695 C 0.38409 0.57109 -0.06668
 C696 C 0.32684 0.65516 -0.14808
 C697 C 0.41713 0.61092 -0.10150
 C698 C 0.39494 0.62956 -0.11958
 C699 C 0.34480 0.63819 -0.13084
 C700 C 0.41200 0.58135 -0.07493
 H701 H 0.34054 0.58148 -0.07838
 H702 H 0.37939 0.54847 -0.04638
 H703 H 0.43830 0.61961 -0.10854
 H704 H 0.39935 0.65212 -0.14008
 C705 C 1.13323 -0.11157 -0.11777
 C706 C 1.10560 -0.12036 -0.12761
 C707 C 1.08338 -0.10241 -0.10891
 C708 C 1.17371 -0.14883 -0.15336
 C709 C 1.11639 -0.06641 -0.07041
 C710 C 1.13863 -0.08449 -0.08922
 C711 C 1.15576 -0.13116 -0.13677
 C712 C 1.08849 -0.07531 -0.07996
 H713 H 1.10120 -0.14133 -0.14966
 H714 H 1.06222 -0.10994 -0.11707
 H715 H 1.12107 -0.04566 -0.04831
 H716 H 1.15997 -0.07752 -0.08136
 C717 C 1.13260 0.38671 0.38308
 C718 C 1.13804 0.41396 0.41148
 C719 C 1.11584 0.43223 0.43022
 C720 C 1.17322 0.34939 0.34763
 C721 C 1.08275 0.39610 0.39199
 C722 C 1.10493 0.37795 0.37335
 C723 C 1.15516 0.36701 0.36412
 C724 C 1.08790 0.42336 0.42078
 H725 H 1.15939 0.42093 0.41927
 H726 H 1.12057 0.45309 0.45220
 H727 H 1.06156 0.38857 0.38392
 H728 H 1.10049 0.35687 0.35143
 C729 C 0.63241 -0.11219 0.38161
 C730 C 0.60477 -0.12118 0.37192
 C731 C 0.58254 -0.10311 0.39052
 C732 C 0.67305 -0.14946 0.34628
 C733 C 0.61554 -0.06664 0.42860
 C734 C 0.63778 -0.08482 0.40990
 C735 C 0.65499 -0.13183 0.36272
 C736 C 0.58763 -0.07572 0.41921
 H737 H 0.60038 -0.14236 0.35008
 H738 H 0.56137 -0.11079 0.38250
 H739 H 0.62022 -0.04567 0.45050
 H740 H 0.65912 -0.07770 0.41764
 C741 C 0.63274 0.38852 -0.11929
 C742 C 0.60504 0.37970 -0.12881
 C743 C 0.58291 0.39772 -0.10992
 C744 C 0.67323 0.35127 -0.15511
 C745 C 0.61611 0.43382 -0.07185
 C746 C 0.63826 0.41569 -0.09085
 C747 C 0.65524 0.36889 -0.13847
 C748 C 0.58814 0.42490 -0.08108
 H749 H 0.60053 0.35867 -0.15075
 H750 H 0.56170 0.39015 -0.11783
 H751 H 0.62091 0.45464 -0.04986
 H752 H 0.65964 0.42270 -0.08322
 C753 C 1.13336 0.11239 -0.11825
 C754 C 1.10573 0.12106 -0.12816
 C755 C 1.08350 0.10306 -0.10942
 C756 C 1.17394 0.14975 -0.15382
 C757 C 1.11648 0.06726 -0.07075
 C758 C 1.13873 0.08538 -0.08959
 C759 C 1.15593 0.13205 -0.13725
 C760 C 1.08857 0.07605 -0.08036
 H761 H 1.10135 0.14197 -0.15028
 H762 H 1.06233 0.11051 -0.11763
 H763 H 1.12114 0.04658 -0.04856
 H764 H 1.16006 0.07850 -0.08166
 C765 C 1.13273 0.61234 0.38296
 C766 C 1.10506 0.62080 0.37304
 C767 C 1.08288 0.60250 0.39165
 C768 C 1.17330 0.65004 0.34756
 C769 C 1.11597 0.56679 0.43022
 C770 C 1.13817 0.58521 0.41151
 C771 C 1.15527 0.63224 0.36404
 C772 C 1.08803 0.57538 0.42060
 H773 H 1.10061 0.64177 0.35101
 H774 H 1.06169 0.60981 0.38343
 H775 H 1.12070 0.54605 0.45232
 H776 H 1.15952 0.57847 0.41944
 C777 C 0.63251 0.11184 0.38046
 C778 C 0.60489 0.12050 0.37050
 C779 C 0.58265 0.10256 0.38926
 C780 C 0.67311 0.14918 0.34501
 C781 C 0.61562 0.06683 0.42804
 C782 C 0.63788 0.08489 0.40917
 C783 C 0.65508 0.13148 0.36150
 C784 C 0.58772 0.07562 0.41839
 H785 H 0.60052 0.14136 0.34833
 H786 H 0.56149 0.10999 0.38103
 H787 H 0.62028 0.04621 0.45028
 H788 H 0.65921 0.07804 0.41713
 C789 C 0.63265 0.61352 -0.11907
 C790 C 0.60494 0.62215 -0.12867
 C791 C 0.58283 0.60392 -0.10986
 C792 C 0.67309 0.65114 -0.15476
 C793 C 0.61606 0.56794 -0.07175
 C794 C 0.63819 0.58630 -0.09066
 C795 C 0.65512 0.63336 -0.13816
 C796 C 0.58809 0.57669 -0.08105
 H797 H 0.60041 0.64321 -0.15059
 H798 H 0.56161 0.61135 -0.11782
 H799 H 0.62087 0.54711 -0.04976
 H800 H 0.65958 0.57943 -0.08298
 C801 C 0.86773 -0.11818 -0.11235
 C802 C 0.86228 -0.08913 -0.08573
 C803 C 0.88446 -0.07036 -0.06743
 C804 C 0.82715 -0.15444 -0.14892
 C805 C 0.91756 -0.10987 -0.10228
 C806 C 0.89540 -0.12854 -0.12046
 C807 C 0.84520 -0.13745 -0.13178
 C808 C 0.91240 -0.08044 -0.07562
 H809 H 0.84092 -0.08090 -0.07923
 H810 H 0.87971 -0.04786 -0.04707
 H811 H 0.93875 -0.11843 -0.10928
 H812 H 0.89986 -0.15100 -0.14101
 C813 C 0.86689 0.38124 0.38915
 C814 C 0.89454 0.37062 0.38131
 C815 C 0.91668 0.38922 0.39957
 C816 C 0.82655 0.34520 0.35209
 C817 C 0.88356 0.42914 0.43397
 C818 C 0.86140 0.41044 0.41559
 C819 C 0.84444 0.36212 0.36952
 C820 C 0.91149 0.41883 0.42602
 H821 H 0.89901 0.34804 0.36090
 H822 H 0.93786 0.38048 0.39277
 H823 H 0.87881 0.45179 0.45418
 H824 H 0.84005 0.41886 0.42185
 C825 C 0.36669 -0.11864 0.38706
 C826 C 0.39439 -0.12899 0.37922
 C827 C 0.41648 -0.11017 0.39744
 C828 C 0.32635 -0.15535 0.35035
 C829 C 0.38323 -0.07048 0.43181
 C830 C 0.36112 -0.08941 0.41347
 C831 C 0.34426 -0.13812 0.36758
 C832 C 0.41121 -0.08058 0.42389
 H833 H 0.39895 -0.15159 0.35885
 H834 H 0.43769 -0.11877 0.39062
 H835 H 0.37840 -0.04785 0.45200
 H836 H 0.33974 -0.08116 0.41977
 C837 C 0.36742 0.38132 -0.11134
 C838 C 0.39509 0.37108 -0.11956
 C839 C 0.41724 0.38990 -0.10153
 C840 C 0.32700 0.34477 -0.14784
 C841 C 0.38412 0.42933 -0.06660
 C842 C 0.36194 0.41040 -0.08475
 C843 C 0.34494 0.36191 -0.13068
 C844 C 0.41205 0.41936 -0.07491
 H845 H 0.39956 0.34860 -0.14008
 H846 H 0.43843 0.38143 -0.10862
 H847 H 0.37937 0.45185 -0.04626
 H848 H 0.34058 0.41853 -0.07818
 C849 C 1.13211 -0.11369 0.11765
 C850 C 1.13795 -0.08668 0.08910
 C851 C 1.11600 -0.06790 0.07024
 C852 C 1.17156 -0.15183 0.15463
 C853 C 1.08241 -0.10306 0.10867
 C854 C 1.10431 -0.12169 0.12740
 C855 C 1.15425 -0.13377 0.13714
 C856 C 1.08793 -0.07601 0.07976
 H857 H 1.15941 -0.08026 0.08132
 H858 H 1.12102 -0.04724 0.04815
 H859 H 1.06112 -0.11004 0.11682
 H860 H 1.09953 -0.14253 0.14945
 C861 C 1.13187 0.38525 0.61784
 C862 C 1.10411 0.37758 0.62803
 C863 C 1.08218 0.39628 0.60948
 C864 C 1.17128 0.34685 0.65447
 C865 C 1.11569 0.43084 0.57036
 C866 C 1.13767 0.41200 0.58905
 C867 C 1.15400 0.36504 0.63711
 C868 C 1.08765 0.42305 0.58030
 H869 H 1.09939 0.35694 0.65029
 H870 H 1.06092 0.38956 0.61794
 H871 H 1.12064 0.45128 0.54805
 H872 H 1.15910 0.41814 0.58095
 C873 C 0.63139 -0.11354 0.61657
 C874 C 0.60361 -0.12117 0.62668
 C875 C 0.58171 -0.10250 0.60803
 C876 C 0.67080 -0.15191 0.65335
 C877 C 0.61527 -0.06802 0.56895
 C878 C 0.63722 -0.08684 0.58773
 C879 C 0.65352 -0.13374 0.63593
 C880 C 0.58721 -0.07578 0.57881
 H881 H 0.59886 -0.14176 0.64897
 H882 H 0.56044 -0.10920 0.61645
 H883 H 0.62026 -0.04763 0.54661
 H884 H 0.65867 -0.08072 0.57968
 C885 C 0.63265 0.38674 0.11606
 C886 C 0.60492 0.37896 0.12630
 C887 C 0.58294 0.39757 0.10780
 C888 C 0.67206 0.34838 0.15265
 C889 C 0.61634 0.43228 0.06863
 C890 C 0.63837 0.41351 0.08726
 C891 C 0.65482 0.36659 0.13528
 C892 C 0.58833 0.42437 0.07863
 H893 H 0.60027 0.35829 0.14856
 H894 H 0.56171 0.39077 0.11631
 H895 H 0.62123 0.45275 0.04632
 H896 H 0.65979 0.41974 0.07913
 C897 C 0.86820 0.12180 0.10945
 C898 C 0.86243 0.09201 0.08373
 C899 C 0.88445 0.07252 0.06574
 C900 C 0.82879 0.15904 0.14723
 C901 C 0.91790 0.11282 0.09911
 C902 C 0.89594 0.13220 0.11694
 C903 C 0.84605 0.14152 0.12918
 C904 C 0.91247 0.08261 0.07342
 H905 H 0.84100 0.08370 0.07779
 H906 H 0.87953 0.04943 0.04610
 H907 H 0.93915 0.12147 0.10567
 H908 H 0.90063 0.15518 0.13683
 C909 C 0.86760 0.62044 0.61098
 C910 C 0.86184 0.59087 0.58500
 C911 C 0.88386 0.57137 0.56699
 C912 C 0.82813 0.65797 0.64851
 C913 C 0.91733 0.61118 0.60087
 C914 C 0.89536 0.63056 0.61872
 C915 C 0.84542 0.64030 0.63060
 C916 C 0.91190 0.58122 0.57488
 H917 H 0.84041 0.58276 0.57884
 H918 H 0.87893 0.54848 0.54712
 H919 H 0.93858 0.61965 0.60762
 H920 H 0.90006 0.65337 0.63880
 C921 C 0.36723 0.12091 0.60928
 C922 C 0.39497 0.13174 0.61620
 C923 C 0.41690 0.11261 0.59806
 C924 C 0.32796 0.15773 0.64777
 C925 C 0.38345 0.07169 0.56544
 C926 C 0.36146 0.09094 0.58376
 C927 C 0.34514 0.14037 0.62940
 C928 C 0.41146 0.08219 0.57260
 H929 H 0.39968 0.15487 0.63593
 H930 H 0.43814 0.12159 0.60423
 H931 H 0.37852 0.04842 0.54600
 H932 H 0.34004 0.08228 0.57824
 C933 C 0.36842 0.62127 0.11130
 C934 C 0.39623 0.63140 0.11871
 C935 C 0.41808 0.61208 0.10054
 C936 C 0.32914 0.65871 0.14935
 C937 C 0.38442 0.57230 0.06700
 C938 C 0.36251 0.59175 0.08532
 C939 C 0.34635 0.64109 0.13123
 C940 C 0.41251 0.58216 0.07456
 H941 H 0.40105 0.65418 0.13878
 H942 H 0.43937 0.62056 0.10706
 H943 H 0.37937 0.54945 0.04715
 H944 H 0.34104 0.58363 0.07940
   
