data_POSCAR
  _audit_creation_date              2014-09-24
  _audit_creation_method            'ToBaCCo'
  _symmetry_space_group_name_H-M    'P1'
  _symmetry_Int_Tables_number       1
  _symmetry_cell_setting            triclinic
  loop_
  _symmetry_equiv_pos_as_xyz
 x,y,z
_cell_length_a 30.4138
_cell_length_b 29.8970
_cell_length_c 8.6852
_cell_angle_alpha 90.530000
_cell_angle_beta 90.001300
_cell_angle_gamma 90.110900
loop_
  _atom_site_label
  _atom_site_type_symbol
  _atom_site_fract_x
  _atom_site_fract_y
  _atom_site_fract_z
O1 O 0.21408 0.29148 0.09134
 O2 O 0.29851 0.20563 0.15539
 O3 O 0.21377 0.20496 0.09510
 O4 O 0.29844 0.29161 0.15285
 O5 O 0.28442 0.29317 0.40257
 O6 O 0.19984 0.20652 0.34476
 O7 O 0.28453 0.20671 0.40511
 O8 O 0.20005 0.29253 0.34104
 Cu9 Cu 0.25766 0.24821 0.09898
 Cu10 Cu 0.24073 0.24982 0.39804
 C11 C 0.19201 0.30574 0.20559
 C12 C 0.30675 0.19262 0.29092
 C13 C 0.19153 0.19201 0.21013
 C14 C 0.30653 0.30622 0.28749
 O15 O 0.79848 0.29256 0.34155
 O16 O 0.71385 0.20647 0.40480
 O17 O 0.79857 0.20657 0.34453
 O18 O 0.71411 0.29299 0.40309
 O19 O 0.70010 0.29158 0.15337
 O20 O 0.78461 0.20518 0.09479
 O21 O 0.69989 0.20557 0.15515
 O22 O 0.78444 0.29166 0.09184
 Cu23 Cu 0.75772 0.24972 0.39818
 Cu24 Cu 0.74078 0.24831 0.09911
 C25 C 0.80656 0.30586 0.20618
 C26 C 0.69158 0.19240 0.29053
 C27 C 0.80681 0.19223 0.20974
 C28 C 0.69204 0.30610 0.28810
 O29 O 0.71583 0.79379 0.59449
 O30 O 0.79958 0.70715 0.65756
 O31 O 0.71521 0.70728 0.59595
 O32 O 0.80053 0.79311 0.65488
 O33 O 0.78658 0.79454 0.90454
 O34 O 0.70119 0.70870 0.84566
 O35 O 0.78553 0.70806 0.90726
 O36 O 0.70186 0.79473 0.84421
 Cu37 Cu 0.75926 0.75025 0.60103
 Cu38 Cu 0.74231 0.75171 0.90009
 C39 C 0.69375 0.80798 0.70886
 C40 C 0.80752 0.69376 0.79288
 C41 C 0.69301 0.69427 0.71087
 C42 C 0.80897 0.80738 0.78971
 O43 O 0.29897 0.79454 0.84638
 O44 O 0.21467 0.70814 0.90918
 O45 O 0.29903 0.70854 0.84758
 O46 O 0.21423 0.79467 0.90671
 O47 O 0.20029 0.79332 0.65704
 O48 O 0.28498 0.70721 0.59787
 O49 O 0.20063 0.70732 0.65948
 O50 O 0.28497 0.79367 0.59666
 Cu51 Cu 0.25819 0.75165 0.90216
 Cu52 Cu 0.24124 0.75031 0.60310
 C53 C 0.30717 0.80775 0.71103
 C54 C 0.19260 0.69390 0.79474
 C55 C 0.30712 0.69413 0.71273
 C56 C 0.19195 0.80762 0.79186
 C57 C 0.96022 -0.09056 -0.11002
 C58 C 1.00059 -0.11168 -0.13619
 C59 C 1.04094 -0.09040 -0.10940
 C60 C 1.04104 -0.04563 -0.05410
 C61 C 1.00053 -0.02327 -0.02689
 C62 C 0.96006 -0.04582 -0.05467
 C63 C 0.92061 -0.02291 -0.02613
 C64 C 0.92056 0.02099 0.02714
 C65 C 0.95996 0.04409 0.05614
 C66 C 1.00047 0.02175 0.02893
 C67 C 1.08044 -0.02253 -0.02508
 C68 C 1.08039 0.02141 0.02809
 C69 C 1.04093 0.04432 0.05661
 C70 C 1.04073 0.08909 0.11182
 C71 C 1.00034 0.11016 0.13809
 C72 C 0.96002 0.08885 0.11136
 H73 H 0.88900 -0.03837 -0.04437
 H74 H 0.88892 0.03628 0.04501
 H75 H 1.11207 -0.03786 -0.04291
 H76 H 1.11199 0.03690 0.04631
 H77 H 1.00059 -0.14569 -0.17658
 H78 H 1.00026 0.14418 0.17842
 C79 C 0.45916 0.41092 0.38605
 C80 C 0.49946 0.38981 0.35889
 C81 C 0.53984 0.41090 0.38615
 C82 C 0.54008 0.45555 0.44235
 C83 C 0.49964 0.47795 0.47044
 C84 C 0.45910 0.45555 0.44245
 C85 C 0.41971 0.47848 0.47189
 C86 C 0.41980 0.52226 0.52644
 C87 C 0.45928 0.54520 0.55577
 C88 C 0.49973 0.52282 0.52753
 C89 C 0.57957 0.47850 0.47150
 C90 C 0.57965 0.52231 0.52591
 C91 C 0.54026 0.54523 0.55544
 C92 C 0.54020 0.58986 0.61187
 C93 C 0.49990 0.61094 0.63931
 C94 C 0.45952 0.58982 0.61230
 H95 H 0.38807 0.46311 0.45334
 H96 H 0.38821 0.53762 0.54507
 H97 H 0.61115 0.46315 0.45277
 H98 H 0.61130 0.53768 0.54430
 H99 H 0.49939 0.35590 0.31758
 H100 H 0.49997 0.64485 0.68068
 C101 C 0.04021 0.58925 -0.10658
 C102 C -0.00010 0.61040 -0.13192
 C103 C -0.04050 0.58921 -0.10702
 C104 C -0.04073 0.54452 -0.05406
 C105 C -0.00028 0.52210 -0.02759
 C106 C 0.04027 0.54454 -0.05372
 C107 C 0.07966 0.52158 -0.02609
 C108 C 0.07957 0.47768 0.02470
 C109 C 0.04009 0.45471 0.05221
 C110 C -0.00037 0.47714 0.02582
 C111 C -0.08022 0.52154 -0.02667
 C112 C -0.08031 0.47766 0.02427
 C113 C -0.04091 0.45471 0.05210
 C114 C -0.04086 0.41004 0.10532
 C115 C -0.00055 0.38886 0.13042
 C116 C 0.03985 0.41001 0.10522
 H117 H 0.11130 0.53701 -0.04318
 H118 H 0.11115 0.46226 0.04188
 H119 H -0.11179 0.53695 -0.04402
 H120 H -0.11194 0.46222 0.04124
 H121 H -0.00004 0.64439 -0.17014
 H122 H -0.00062 0.35487 0.16872
 C123 C 0.46022 0.91128 0.60943
 C124 C 0.50060 0.89023 0.63488
 C125 C 0.54095 0.91144 0.60880
 C126 C 0.54104 0.95605 0.55475
 C127 C 0.50053 0.97833 0.52820
 C128 C 0.46006 0.95587 0.55534
 C129 C 0.42061 0.97869 0.52745
 C130 C 0.42056 1.02244 0.47546
 C131 C 0.45996 1.04546 0.44704
 C132 C 0.50048 1.02320 0.47368
 C133 C 0.58045 0.97907 0.52635
 C134 C 0.58040 1.02285 0.47444
 C135 C 0.54094 1.04568 0.44654
 C136 C 0.54074 1.09027 0.39238
 C137 C 0.50034 1.11128 0.36688
 C138 C 0.46001 1.09004 0.39285
 H139 H 0.38900 0.96328 0.54519
 H140 H 0.38892 1.03769 0.45815
 H141 H 0.61208 0.96378 0.54365
 H142 H 0.61199 1.03830 0.45673
 H143 H 0.50060 0.85632 0.67418
 H144 H 0.50026 1.14519 0.32752
 C145 C 1.08375 0.16464 0.20350
 C146 C 1.12153 0.15175 0.31316
 C147 C 1.15478 0.16369 0.18678
 C148 C 1.11737 0.17678 0.07748
 C149 C 1.15421 0.11548 0.12470
 C150 C 1.12015 0.10306 0.25092
 C151 C 1.08253 0.11602 0.14096
 C152 C 1.11604 0.12817 0.01482
 H153 H 1.05650 0.18709 0.23885
 H154 H 1.12387 0.16147 0.43659
 H155 H 1.11643 0.20728 0.00568
 H156 H 1.18360 0.09550 0.09268
 H157 H 1.12106 0.07259 0.32289
 H158 H 1.11354 0.11843 -0.10852
 C159 C 0.58340 0.66527 0.70388
 C160 C 0.62129 0.65221 0.81268
 C161 C 0.65442 0.66426 0.68606
 C162 C 0.61686 0.67745 0.57752
 C163 C 0.65363 0.61608 0.62344
 C164 C 0.61976 0.60358 0.75002
 C165 C 0.58203 0.61670 0.64082
 C166 C 0.61538 0.62893 0.51430
 H167 H 0.55625 0.68775 0.73993
 H168 H 0.62391 0.66187 0.93607
 H169 H 0.61592 0.70804 0.50622
 H170 H 0.68298 0.59612 0.59076
 H171 H 0.62073 0.57304 0.82163
 H172 H 0.61272 0.61931 0.39090
 C173 C -0.08394 0.33498 0.19626
 C174 C -0.12161 0.34843 0.30625
 C175 C -0.15500 0.33590 0.18022
 C176 C -0.11765 0.32233 0.07047
 C177 C -0.15435 0.38386 0.11859
 C178 C -0.12022 0.39682 0.24459
 C179 C -0.08270 0.38332 0.13418
 C180 C -0.11630 0.37064 0.00823
 H181 H -0.05675 0.31261 0.23136
 H182 H -0.12395 0.33922 0.42952
 H183 H -0.11685 0.29149 -0.00155
 H184 H -0.18376 0.40370 0.08705
 H185 H -0.12106 0.42761 0.31692
 H186 H -0.11389 0.37982 -0.11503
 C187 C 0.41696 0.83625 0.70067
 C188 C 0.37938 0.84984 0.81093
 C189 C 0.34586 0.83750 0.68508
 C190 C 0.38311 0.82376 0.57511
 C191 C 0.34671 0.88546 0.62354
 C192 C 0.38096 0.89823 0.74935
 C193 C 0.41837 0.88458 0.63869
 C194 C 0.38464 0.87206 0.51293
 H195 H 0.44417 0.81384 0.73532
 H196 H 0.37706 0.84063 0.93421
 H197 H 0.38373 0.79293 0.50300
 H198 H 0.31739 0.90545 0.59220
 H199 H 0.38029 0.92902 0.82175
 H200 H 0.38703 0.88124 0.38965
 C201 C -0.11584 0.62849 -0.00968
 C202 C -0.11692 0.67689 -0.07102
 C203 C -0.15427 0.66355 -0.18125
 C204 C -0.15390 0.61549 -0.12052
 C205 C -0.12088 0.65117 -0.30728
 C206 C -0.08321 0.66442 -0.19682
 C207 C -0.08223 0.61597 -0.13565
 C208 C -0.11976 0.60268 -0.24652
 H209 H -0.11353 0.61911 0.11342
 H210 H -0.11599 0.70759 0.00172
 H211 H -0.18342 0.59563 -0.08953
 H212 H -0.12310 0.66058 -0.43039
 H213 H -0.05592 0.68685 -0.23132
 H214 H -0.12071 0.57200 -0.31941
 C215 C 0.41658 1.16477 0.30142
 C216 C 0.37901 1.15089 0.19135
 C217 C 0.34549 1.16311 0.31719
 C218 C 0.38273 1.17713 0.42698
 C219 C 0.34644 1.11520 0.37906
 C220 C 0.38069 1.10255 0.25326
 C221 C 0.41810 1.11648 0.36373
 C222 C 0.38437 1.12888 0.48949
 H223 H 0.44374 1.18732 0.26656
 H224 H 0.37664 1.16002 0.06801
 H225 H 0.38331 1.20800 0.49890
 H226 H 0.31716 1.09505 0.41061
 H227 H 0.38006 1.07172 0.18107
 H228 H 0.38681 1.11979 0.61283
 C229 C 1.11633 -0.12909 -0.01231
 C230 C 1.11777 -0.17766 -0.07526
 C231 C 1.15516 -0.16429 -0.18444
 C232 C 1.15447 -0.11611 -0.12208
 C233 C 1.12188 -0.15248 -0.31078
 C234 C 1.08413 -0.16567 -0.20124
 C235 C 1.08280 -0.11708 -0.13842
 C236 C 1.12040 -0.10384 -0.24825
 H237 H 1.11380 -0.11943 0.11108
 H238 H 1.11688 -0.20819 -0.00361
 H239 H 1.18382 -0.09597 -0.08991
 H240 H 1.12424 -0.16212 -0.43427
 H241 H 1.05693 -0.18827 -0.23673
 H242 H 1.12125 -0.07332 -0.32004
 C243 C 0.61489 0.37192 0.48407
 C244 C 0.61610 0.32332 0.42166
 C245 C 0.65369 0.33629 0.31276
 C246 C 0.65318 0.38456 0.37457
 C247 C 0.62059 0.34822 0.18606
 C248 C 0.58266 0.33536 0.29522
 C249 C 0.58156 0.38402 0.35746
 C250 C 0.61932 0.39693 0.24792
 H251 H 0.61231 0.38172 0.60733
 H252 H 0.61501 0.29286 0.49361
 H253 H 0.68263 0.40452 0.40682
 H254 H 0.62311 0.33838 0.06281
 H255 H 0.55541 0.31283 0.25964
 H256 H 0.62043 0.42737 0.17580
 C257 C 0.88094 -0.10418 -0.25005
 C258 C 0.87936 -0.15284 -0.31247
 C259 C 0.84592 -0.16463 -0.18651
 C260 C 0.84671 -0.11644 -0.12427
 C261 C 0.88316 -0.17796 -0.07682
 C262 C 0.91698 -0.16597 -0.20240
 C263 C 0.91838 -0.11737 -0.13969
 C264 C 0.88469 -0.12938 -0.01398
 H265 H 0.88026 -0.07368 -0.32193
 H266 H 0.87709 -0.16252 -0.43595
 H267 H 0.81739 -0.09631 -0.09253
 H268 H 0.88386 -0.20847 -0.00507
 H269 H 0.94419 -0.18851 -0.23740
 H270 H 0.88712 -0.11969 0.10942
 C271 C 0.41602 0.33549 0.29416
 C272 C 0.38259 0.32331 0.42059
 C273 C 0.34500 0.33641 0.31205
 C274 C 0.37810 0.34847 0.18536
 C275 C 0.34572 0.38461 0.37452
 C276 C 0.38401 0.37184 0.48366
 C277 C 0.41733 0.38407 0.35708
 C278 C 0.37957 0.39712 0.24788
 H279 H 0.44317 0.31302 0.25812
 H280 H 0.38357 0.29274 0.49203
 H281 H 0.37548 0.33878 0.06200
 H282 H 0.31636 0.40453 0.40718
 H283 H 0.38667 0.38149 0.60704
 H284 H 0.37856 0.42764 0.17618
 C285 C 0.11562 0.62856 -0.00846
 C286 C 0.15370 0.61562 -0.11910
 C287 C 0.15426 0.66371 -0.17962
 C288 C 0.11689 0.67699 -0.06959
 C289 C 0.12090 0.65135 -0.30592
 C290 C 0.11959 0.60284 -0.24537
 C291 C 0.08204 0.61606 -0.13471
 C292 C 0.08321 0.66453 -0.19566
 H293 H 0.11322 0.61913 0.11459
 H294 H 0.18314 0.59577 -0.08798
 H295 H 0.11603 0.70767 0.00325
 H296 H 0.12321 0.66079 -0.42898
 H297 H 0.12048 0.57218 -0.31839
 H298 H 0.05601 0.68696 -0.23025
 C299 C 0.58376 1.16529 0.30025
 C300 C 0.61765 1.17804 0.42548
 C301 C 0.65483 1.16429 0.31531
 C302 C 0.62130 1.15173 0.18972
 C303 C 0.65427 1.11640 0.37739
 C304 C 0.61633 1.12976 0.48817
 C305 C 0.58256 1.11700 0.36279
 C306 C 0.61995 1.10338 0.25197
 H307 H 0.55649 1.18760 0.26551
 H308 H 0.61690 1.20890 0.49741
 H309 H 0.62340 1.16077 0.06623
 H310 H 0.68369 1.09654 0.40873
 H311 H 0.61405 1.12068 0.61156
 H312 H 0.62067 1.07253 0.17995
 C313 C 0.11910 0.39662 0.24459
 C314 C 0.12028 0.34815 0.30553
 C315 C 0.15368 0.33577 0.17952
 C316 C 0.15325 0.38381 0.11861
 C317 C 0.11633 0.32234 0.06937
 C318 C 0.08261 0.33483 0.19515
 C319 C 0.08158 0.38326 0.13380
 C320 C 0.11520 0.37073 0.00784
 H321 H 0.12003 0.42732 0.31737
 H322 H 0.12252 0.33879 0.42868
 H323 H 0.18274 0.40369 0.08752
 H324 H 0.11544 0.29161 -0.00319
 H325 H 0.05533 0.31241 0.22973
 H326 H 0.11287 0.38007 -0.11529
 C327 C 0.62040 0.89858 0.74751
 C328 C 0.62189 0.85020 0.80923
 C329 C 0.65524 0.83784 0.68299
 C330 C 0.65448 0.88578 0.62130
 C331 C 0.61783 0.82406 0.57355
 C332 C 0.58416 0.83655 0.69953
 C333 C 0.58282 0.88487 0.63741
 C334 C 0.61638 0.87235 0.51124
 H335 H 0.62125 0.92938 0.81981
 H336 H 0.62431 0.84103 0.93251
 H337 H 0.68383 0.90579 0.58949
 H338 H 0.61702 0.79320 0.50156
 H339 H 0.55697 0.81409 0.73470
 H340 H 0.61388 0.88149 0.38796
 C341 C 0.88051 0.10223 0.24975
 C342 C 0.87881 0.15092 0.31157
 C343 C 0.84553 0.16249 0.18499
 C344 C 0.84651 0.11424 0.12320
 C345 C 0.88298 0.17585 0.07597
 C346 C 0.91659 0.16413 0.20227
 C347 C 0.91813 0.11550 0.14004
 C348 C 0.88464 0.12726 0.01356
 H349 H 0.87972 0.07179 0.32193
 H350 H 0.87623 0.16073 0.43483
 H351 H 0.81724 0.09398 0.09106
 H352 H 0.88374 0.20635 0.00411
 H353 H 0.94373 0.18683 0.23763
 H354 H 0.88727 0.11749 -0.10972
 C355 C 0.38007 0.60342 0.75112
 C356 C 0.37872 0.65202 0.81405
 C357 C 0.34558 0.66410 0.68770
 C358 C 0.34617 0.61596 0.62482
 C359 C 0.38313 0.67736 0.57900
 C360 C 0.41661 0.66515 0.70509
 C361 C 0.41778 0.61661 0.64176
 C362 C 0.38441 0.62888 0.51552
 H363 H 0.37904 0.57285 0.82258
 H364 H 0.37620 0.66163 0.93751
 H365 H 0.31675 0.59600 0.59222
 H366 H 0.38413 0.70799 0.50784
 H367 H 0.44385 0.68762 0.74110
 H368 H 0.38698 0.61931 0.39205
   
