data_POSCAR
  _audit_creation_date              2014-09-24
  _audit_creation_method            'ToBaCCo'
  _symmetry_space_group_name_H-M    'P1'
  _symmetry_Int_Tables_number       1
  _symmetry_cell_setting            triclinic
  loop_
  _symmetry_equiv_pos_as_xyz
 x,y,z
_cell_length_a 58.6161
_cell_length_b 58.2492
_cell_length_c 20.0693
_cell_angle_alpha 90.064800
_cell_angle_beta 89.655000
_cell_angle_gamma 119.974500
loop_
  _atom_site_label
  _atom_site_type_symbol
  _atom_site_fract_x
  _atom_site_fract_y
  _atom_site_fract_z
C1 C 0.17577 0.49291 0.54430
 C2 C 0.17622 0.49623 0.47679
 C3 C 0.19844 0.49609 0.45242
 N4 N 0.21092 0.49190 0.50346
 C5 C 0.19728 0.49017 0.55958
 C6 C 0.20501 0.49620 0.38390
 C7 C 0.22816 0.49617 0.36232
 C8 C 0.23403 0.49350 0.29645
 C9 C 0.25948 0.49838 0.29492
 C10 C 0.26858 0.50363 0.35979
 N11 N 0.24952 0.50249 0.40039
 C12 C 0.29449 0.51097 0.37917
 C13 C 0.30175 0.51004 0.44570
 C14 C 0.32661 0.51557 0.46477
 C15 C 0.32483 0.50880 0.53062
 C16 C 0.29900 0.50001 0.55101
 N17 N 0.28494 0.50039 0.49814
 C18 C 0.28782 0.48861 0.61427
 C19 C 0.26112 0.48010 0.63146
 C20 C 0.24821 0.46595 0.68874
 C21 C 0.22434 0.46501 0.69188
 C22 C 0.22300 0.47838 0.63649
 N23 N 0.24545 0.48765 0.60021
 C24 C 0.20211 0.48318 0.62320
 H25 H 0.16042 0.49123 0.57761
 H26 H 0.16090 0.49720 0.44962
 H27 H 0.25102 0.50133 0.56170
 H28 H 0.22184 0.48956 0.25294
 H29 H 0.27011 0.49854 0.25055
 H30 H 0.34396 0.52236 0.43364
 H31 H 0.34078 0.50918 0.55808
 H32 H 0.20978 0.45585 0.73115
 H33 H 0.25235 0.50916 0.44924
 H34 H 0.25537 0.45784 0.72624
 C35 C 0.45861 -0.33633 0.53957
 C36 C 0.45797 -0.33615 0.47139
 C37 C 0.46991 -0.30980 0.45179
 N38 N 0.47735 -0.29388 0.50606
 C39 C 0.47081 -0.31011 0.55981
 C40 C 0.47435 -0.30074 0.38471
 C41 C 0.47718 -0.27590 0.36678
 C42 C 0.48686 -0.26314 0.30604
 C43 C 0.48487 -0.24063 0.30701
 C44 C 0.47424 -0.24003 0.36839
 N45 N 0.46963 -0.26158 0.40461
 C46 C 0.46816 -0.22040 0.38813
 C47 C 0.46301 -0.21689 0.45508
 C48 C 0.45302 -0.20096 0.47606
 C49 C 0.45279 -0.20158 0.54440
 C50 C 0.46262 -0.21788 0.56284
 N51 N 0.46886 -0.22723 0.50820
 C52 C 0.46759 -0.22227 0.62901
 C53 C 0.47433 -0.24155 0.64689
 C54 C 0.48534 -0.24214 0.70732
 C55 C 0.48795 -0.26428 0.70673
 C56 C 0.47818 -0.27687 0.64612
 N57 N 0.47002 -0.26274 0.60979
 C58 C 0.47581 -0.30141 0.62697
 H59 H 0.45029 -0.35387 0.57067
 H60 H 0.44913 -0.35352 0.43991
 H61 H 0.45966 -0.26865 0.56528
 H62 H 0.49474 -0.26922 0.26514
 H63 H 0.49073 -0.22626 0.26708
 H64 H 0.44666 -0.18995 0.44541
 H65 H 0.44632 -0.19105 0.57679
 H66 H 0.49626 -0.27023 0.74657
 H67 H 0.45946 -0.26765 0.44969
 H68 H 0.49106 -0.22798 0.74762
 C69 C 1.20218 0.66802 0.53347
 C70 C 1.20188 0.66816 0.46518
 C71 C 1.21787 0.69424 0.44565
 N72 N 1.22785 0.71011 0.49958
 C73 C 1.21798 0.69414 0.55351
 C74 C 1.22200 0.70336 0.37917
 C75 C 1.24300 0.72843 0.36058
 C76 C 1.24478 0.74093 0.30053
 C77 C 1.26873 0.76394 0.29996
 C78 C 1.28114 0.76474 0.35948
 N79 N 1.26517 0.74305 0.39631
 C80 C 1.30702 0.78440 0.37723
 C81 C 1.31631 0.78658 0.44333
 C82 C 1.34250 0.79731 0.46110
 C83 C 1.34309 0.79680 0.52930
 C84 C 1.31725 0.78583 0.55114
 N85 N 1.30080 0.77913 0.49846
 C86 C 1.30904 0.78285 0.61868
 C87 C 1.28317 0.76345 0.63785
 C88 C 1.27120 0.76325 0.69789
 C89 C 1.24684 0.74084 0.69832
 C90 C 1.24442 0.72780 0.63852
 N91 N 1.26663 0.74184 0.60168
 C92 C 1.22236 0.70318 0.62041
 H93 H 1.19209 0.65058 0.56468
 H94 H 1.19137 0.65098 0.43354
 H95 H 1.27121 0.73581 0.55715
 H96 H 1.23030 0.73420 0.26122
 H97 H 1.27603 0.77836 0.26000
 H98 H 1.35941 0.80430 0.42828
 H99 H 1.36054 0.80334 0.55931
 H100 H 1.23243 0.73513 0.73802
 H101 H 1.27025 0.73718 0.44012
 H102 H 1.27893 0.77791 0.73711
 C103 C 0.80461 0.47619 0.55139
 C104 C 0.80790 0.47918 0.48373
 C105 C 0.79310 0.49030 0.46302
 N106 N 0.78147 0.49494 0.51547
 C107 C 0.78894 0.48682 0.57003
 C108 C 0.79231 0.49801 0.39730
 C109 C 0.77045 0.49898 0.37163
 C110 C 0.76929 0.50874 0.30951
 C111 C 0.74403 0.50435 0.30268
 C112 C 0.73073 0.49252 0.36133
 N113 N 0.74683 0.48899 0.40262
 C114 C 0.70440 0.48531 0.37561
 C115 C 0.69431 0.48133 0.44150
 C116 C 0.66841 0.47316 0.45790
 C117 C 0.66758 0.47605 0.52541
 C118 C 0.69290 0.48497 0.54918
 N119 N 0.70916 0.48833 0.49728
 C120 C 0.70190 0.49387 0.61505
 C121 C 0.72684 0.49882 0.63816
 C122 C 0.73770 0.50984 0.69967
 C123 C 0.76004 0.50804 0.70683
 C124 C 0.76243 0.49604 0.64968
 N125 N 0.74205 0.49029 0.60841
 C126 C 0.78317 0.49088 0.63632
 H127 H 0.81310 0.46743 0.58309
 H128 H 0.81948 0.47349 0.45298
 H129 H 0.73747 0.47875 0.56561
 H130 H 0.78487 0.51792 0.27273
 H131 H 0.73651 0.50976 0.26000
 H132 H 0.65192 0.46684 0.42450
 H133 H 0.65014 0.47262 0.55211
 H134 H 0.77316 0.51509 0.74911
 H135 H 0.74135 0.47837 0.44713
 H136 H 0.73011 0.51776 0.73693
 C137 C 0.48148 0.17481 0.50897
 C138 C 0.49153 0.17989 0.44554
 C139 C 0.50364 0.20707 0.43672
 N140 N 0.50178 0.21879 0.49329
 C141 C 0.48842 0.19910 0.53779
 C142 C 0.51784 0.22091 0.37915
 C143 C 0.52651 0.24799 0.36908
 C144 C 0.54362 0.26362 0.31900
 C145 C 0.54387 0.28738 0.32043
 C146 C 0.52699 0.28554 0.37152
 N147 N 0.51659 0.26156 0.40088
 C148 C 0.51868 0.30402 0.38404
 C149 C 0.50557 0.30420 0.44333
 C150 C 0.49474 0.32027 0.45443
 C151 C 0.48515 0.31542 0.51824
 C152 C 0.49103 0.29706 0.54508
 N153 N 0.50341 0.29010 0.49900
 C154 C 0.48579 0.28777 0.61188
 C155 C 0.48473 0.26381 0.63153
 C156 C 0.48527 0.25654 0.69708
 C157 C 0.48488 0.23279 0.69536
 C158 C 0.48404 0.22591 0.62876
 N159 N 0.48371 0.24485 0.59016
 C160 C 0.48417 0.20288 0.60565
 H161 H 0.47058 0.15538 0.53163
 H162 H 0.49015 0.16514 0.41051
 H163 H 0.48131 0.24404 0.53875
 H164 H 0.55399 0.25813 0.28339
 H165 H 0.55447 0.30372 0.28613
 H166 H 0.49383 0.33421 0.42055
 H167 H 0.47491 0.32440 0.54199
 H168 H 0.48597 0.22232 0.73863
 H169 H 0.50057 0.25358 0.43337
 H170 H 0.48674 0.26757 0.74182
 C171 C 0.68202 0.19852 0.55778
 C172 C 0.67999 0.19433 0.49044
 C173 C 0.70541 0.20742 0.46535
 N174 N 0.72302 0.21900 0.51494
 C175 C 0.70873 0.21310 0.57196
 C176 C 0.71202 0.20660 0.39834
 C177 C 0.73533 0.22677 0.36860
 C178 C 0.74445 0.22597 0.30514
 C179 C 0.76653 0.25031 0.29402
 C180 C 0.77053 0.26497 0.35157
 N181 N 0.75129 0.25065 0.39632
 C182 C 0.79143 0.29093 0.36189
 C183 C 0.79967 0.30146 0.42648
 C184 C 0.81862 0.32743 0.44029
 C185 C 0.82332 0.32856 0.50733
 C186 C 0.80666 0.30342 0.53252
 N187 N 0.79220 0.28685 0.48313
 C188 C 0.80681 0.29568 0.59891
 C189 C 0.78550 0.27296 0.62862
 C190 C 0.78617 0.26245 0.69013
 C191 C 0.76134 0.24130 0.70187
 C192 C 0.74625 0.23916 0.64674
 N193 N 0.76104 0.25873 0.60275
 C194 C 0.71981 0.21893 0.63675
 H195 H 0.66563 0.19128 0.59238
 H196 H 0.66190 0.18317 0.46281
 H197 H 0.75427 0.26321 0.55960
 H198 H 0.73608 0.20967 0.27021
 H199 H 0.77858 0.25632 0.24934
 H200 H 0.82849 0.34376 0.40562
 H201 H 0.83744 0.34589 0.53454
 H202 H 0.75542 0.22841 0.74502
 H203 H 0.74792 0.25764 0.44092
 H204 H 0.80283 0.26906 0.72305
 O205 O 0.97169 0.44945 0.12490
 O206 O 0.94014 0.45064 0.06008
 C207 C 0.94747 0.44056 0.10741
 O208 O 1.03444 0.56862 0.11465
 O209 O 1.06643 0.56526 0.05599
 C210 C 1.05886 0.57670 0.09933
 O211 O 0.96088 0.52324 0.11783
 O212 O 0.93528 0.48610 0.05550
 C213 C 0.93827 0.50333 0.10024
 O214 O 1.04516 0.49102 0.11776
 O215 O 1.07137 0.52885 0.05770
 C216 C 1.06793 0.51100 0.10115
 Zr217 Zr 1.00688 0.48094 0.08548
 O218 O 1.00927 0.48198 0.19074
 O219 O 1.01013 0.44644 0.08087
 Zr220 Zr 0.99941 0.53497 0.08150
 O221 O 1.00129 0.53761 0.18673
 O222 O 0.99231 0.56717 0.07610
 O223 O 0.97981 0.49409 0.09670
 O224 O 1.02570 0.52152 0.09600
 O225 O 1.04576 0.48839 -0.11077
 O226 O 1.07164 0.52711 -0.05409
 C227 C 1.06849 0.50835 -0.09443
 O228 O 0.96359 0.52060 -0.12949
 O229 O 0.93592 0.48583 -0.06187
 C230 C 0.94047 0.50182 -0.11176
 O231 O 1.03560 0.56687 -0.12097
 O232 O 1.06698 0.56454 -0.05827
 C233 C 1.05978 0.57539 -0.10378
 O234 O 0.97152 0.44679 -0.11856
 O235 O 0.94047 0.45028 -0.05602
 C236 C 0.94729 0.43891 -0.10076
 Zr237 Zr 1.00728 0.47946 -0.08210
 O238 O 1.01071 0.48088 -0.18735
 O239 O 1.00903 0.44406 -0.07970
 Zr240 Zr 1.00052 0.53390 -0.08578
 O241 O 1.00331 0.53746 -0.19068
 O242 O 0.99273 0.56571 -0.08141
 Zr243 Zr 0.96441 0.48402 -0.00036
 Zr244 Zr 1.04263 0.53074 -0.00004
 O245 O 1.02668 0.52008 -0.09627
 O246 O 0.98074 0.49278 -0.09732
 O247 O 1.03108 0.49016 0.00217
 O248 O 0.97644 0.52461 -0.00299
 O249 O 0.98465 0.46268 0.00220
 O250 O 1.02302 0.55275 -0.00227
 H251 H 1.03707 0.52851 0.13575
 H252 H 0.96270 0.52977 -0.00475
 H253 H 1.03860 0.52662 -0.13551
 H254 H 0.97446 0.44305 0.00334
 H255 H 1.00730 0.58173 0.05186
 H256 H 1.00872 0.58145 -0.06446
 H257 H 0.99885 0.51985 -0.20819
 H258 H 0.99409 0.47865 -0.20567
 H259 H 1.02148 0.44609 -0.04402
 H260 H 1.01098 0.44148 0.12763
 H261 H 0.99521 0.48516 0.20765
 H262 H 0.98810 0.52009 0.20470
 O263 O 0.55549 0.52190 0.13830
 O264 O 0.54986 0.48646 0.07571
 C265 C 0.56118 0.50374 0.12296
 O266 O 0.43768 0.47994 0.11445
 O267 O 0.44813 0.51833 0.05824
 C268 C 0.43310 0.49870 0.09747
 O269 O 0.47462 0.44334 0.12953
 O270 O 0.51089 0.44882 0.07162
 C271 C 0.49221 0.43678 0.11517
 O272 O 0.52419 0.56346 0.12516
 O273 O 0.48925 0.55798 0.06218
 C274 C 0.50723 0.57026 0.10701
 Zr275 Zr 0.52851 0.53123 0.09483
 O276 O 0.52731 0.53403 0.19978
 O277 O 0.56593 0.56581 0.08839
 Zr278 Zr 0.46986 0.47464 0.09175
 O279 O 0.46859 0.47828 0.19660
 O280 O 0.43442 0.43784 0.09672
 O281 O 0.50989 0.49028 0.10871
 O282 O 0.48820 0.51522 0.10377
 O283 O 0.52772 0.56350 -0.10779
 O284 O 0.49111 0.55812 -0.05135
 C285 C 0.51018 0.57024 -0.09428
 O286 O 0.47902 0.44426 -0.11255
 O287 O 0.51281 0.44931 -0.04548
 C288 C 0.49631 0.43788 -0.09357
 O289 O 0.44265 0.48249 -0.11234
 O290 O 0.45089 0.51949 -0.05271
 C291 C 0.43789 0.50137 -0.09651
 O292 O 0.55960 0.52108 -0.10754
 O293 O 0.55096 0.48550 -0.04112
 C294 C 0.56378 0.50216 -0.08833
 Zr295 Zr 0.53149 0.53134 -0.07240
 O296 O 0.53304 0.53398 -0.17765
 O297 O 0.56951 0.56521 -0.06668
 Zr298 Zr 0.47233 0.47477 -0.07642
 O299 O 0.47243 0.47624 -0.18183
 O300 O 0.43683 0.43782 -0.07697
 Zr301 Zr 0.51876 0.48183 0.01306
 Zr302 Zr 0.48227 0.52423 0.00625
 O303 O 0.49156 0.51540 -0.08853
 O304 O 0.51292 0.49044 -0.08540
 O305 O 0.52353 0.54839 0.00943
 O306 O 0.47746 0.45825 0.00921
 O307 O 0.54499 0.52293 0.01366
 O308 O 0.45567 0.48297 0.00537
 H309 H 0.48179 0.52145 0.14162
 H310 H 0.46929 0.43870 0.00891
 H311 H 0.48674 0.52170 -0.12899
 H312 H 0.56415 0.52941 0.01542
 H313 H 0.42473 0.43623 0.05527
 H314 H 0.42290 0.44047 -0.05666
 H315 H 0.48919 0.47785 -0.19759
 H316 H 0.52825 0.51626 -0.19502
 H317 H 0.56807 0.57832 -0.03819
 H318 H 0.57147 0.57159 0.13484
 H319 H 0.51975 0.51585 0.21771
 H320 H 0.48188 0.47458 0.21615
 O321 O 0.48033 0.04398 0.10805
 O322 O 0.51694 0.07231 0.04672
 C323 C 0.49856 0.06749 0.09029
 O324 O 0.52420 -0.03045 0.12426
 O325 O 0.48815 -0.06079 0.06520
 C326 C 0.50617 -0.05452 0.11025
 O327 O 0.55973 0.04403 0.12079
 O328 O 0.55463 0.07210 0.05016
 C329 C 0.56598 0.06753 0.09922
 O330 O 0.44194 -0.02978 0.11222
 O331 O 0.44899 -0.06052 0.05846
 C332 C 0.43612 -0.05395 0.09979
 Zr333 Zr 0.47327 0.00651 0.07619
 O334 O 0.47015 0.00581 0.18140
 O335 O 0.43883 0.00943 0.06714
 Zr336 Zr 0.53064 0.00606 0.08559
 O337 O 0.52930 0.00548 0.19104
 O338 O 0.56700 0.00671 0.08407
 O339 O 0.51373 0.03009 0.09153
 O340 O 0.49019 -0.01646 0.09569
 O341 O 0.44448 -0.03311 -0.12157
 O342 O 0.45011 -0.06223 -0.05608
 C343 C 0.43819 -0.05684 -0.10279
 O344 O 0.56201 0.03877 -0.12286
 O345 O 0.55660 0.06995 -0.06588
 C346 C 0.56850 0.06304 -0.10964
 O347 O 0.52700 -0.03459 -0.10694
 O348 O 0.48931 -0.06285 -0.04920
 C349 C 0.50844 -0.05807 -0.09011
 O350 O 0.48383 0.04095 -0.13281
 O351 O 0.51916 0.07070 -0.07081
 C352 C 0.50211 0.06486 -0.11776
 Zr353 Zr 0.47545 0.00403 -0.09078
 O354 O 0.47562 -0.00023 -0.19557
 O355 O 0.44111 0.00729 -0.09626
 Zr356 Zr 0.53246 0.00294 -0.08118
 O357 O 0.53295 -0.00182 -0.18565
 O358 O 0.56950 0.00514 -0.07317
 Zr359 Zr 0.52312 0.04446 -0.00702
 Zr360 Zr 0.48267 -0.03493 0.00172
 O361 O 0.49239 -0.01970 -0.09591
 O362 O 0.51617 0.02683 -0.10199
 O363 O 0.45776 -0.01857 -0.00548
 O364 O 0.54751 0.02767 0.00013
 O365 O 0.48206 0.02850 -0.01032
 O366 O 0.52372 -0.01945 0.00569
 H367 H 0.48392 -0.02738 0.13671
 H368 H 0.56688 0.03952 0.00070
 H369 H 0.48699 -0.03208 -0.13413
 H370 H 0.47486 0.04065 -0.01368
 H371 H 0.57232 0.00775 0.13125
 H372 H 0.56771 -0.00794 -0.03909
 H373 H 0.52871 0.01095 -0.20649
 H374 H 0.49205 0.01494 -0.21312
 H375 H 0.42743 -0.00694 -0.06821
 H376 H 0.42512 -0.00704 0.04603
 H377 H 0.48714 0.01999 0.19880
 H378 H 0.52556 0.01952 0.20539
 C379 C 1.18713 0.49440 0.33480
 C380 C 1.17738 0.51181 0.33176
 C381 C 1.15617 0.50740 0.28611
 N382 N 1.15192 0.52762 0.27089
 N383 N 1.13181 0.52347 0.23237
 C384 C 1.11502 0.49889 0.20846
 N385 N 1.11914 0.47862 0.22411
 N386 N 1.13944 0.48282 0.26203
 C387 C 1.09213 0.49399 0.16865
 C388 C 1.09148 0.51455 0.13527
 H389 H 1.18536 0.52899 0.36406
 H390 H 1.07566 0.47395 0.16519
 H391 H 1.18284 0.48095 0.29339
 H392 H 1.10895 0.53402 0.13387
 C393 C 0.47556 0.68327 0.33316
 C394 C 0.48568 0.66630 0.34205
 C395 C 0.48689 0.64988 0.28808
 N396 N 0.50257 0.63912 0.29496
 N397 N 0.50357 0.62365 0.24765
 C398 C 0.48882 0.61814 0.19171
 N399 N 0.47294 0.62875 0.18490
 N400 N 0.47208 0.64446 0.23214
 C401 C 0.48919 0.59996 0.14113
 C402 C 0.50853 0.59274 0.14331
 H403 H 0.49465 0.66621 0.38899
 H404 H 0.47355 0.59117 0.10480
 H405 H 0.47094 0.68603 0.28266
 H406 H 0.52443 0.60251 0.17870
 C407 C 0.32371 -0.19832 0.32674
 C408 C 0.34286 -0.17199 0.33861
 C409 C 0.35909 -0.15400 0.28493
 N410 N 0.37110 -0.12746 0.29453
 N411 N 0.38602 -0.11076 0.24682
 C412 C 0.38967 -0.11994 0.18779
 N413 N 0.37790 -0.14652 0.17837
 N414 N 0.36274 -0.16327 0.22597
 C415 C 0.40703 -0.10136 0.13625
 C416 C 0.41437 -0.07465 0.13905
 H417 H 0.34453 -0.16352 0.38766
 H418 H 0.41491 -0.10851 0.09765
 H419 H 0.31986 -0.20456 0.27522
 H420 H 0.40522 -0.06817 0.17593
 C421 C 0.81651 0.50705 0.35711
 C422 C 0.81685 0.49562 0.29659
 C423 C 0.84189 0.50191 0.26428
 N424 N 0.84205 0.48727 0.21195
 N425 N 0.86473 0.49200 0.18448
 C426 C 0.88810 0.51156 0.20823
 N427 N 0.88793 0.52641 0.26005
 N428 N 0.86525 0.52163 0.28765
 C429 C 0.91326 0.51642 0.17934
 C430 C 0.91393 0.49960 0.13119
 H431 H 0.79854 0.48047 0.27516
 H432 H 0.93142 0.53311 0.19700
 H433 H 0.83501 0.52055 0.38085
 H434 H 0.89564 0.48276 0.11468
 C435 C 0.52313 0.32352 0.33137
 C436 C 0.50181 0.32197 0.29741
 C437 C 0.50427 0.34344 0.25465
 N438 N 0.48241 0.34461 0.23921
 N439 N 0.48430 0.36496 0.20458
 C440 C 0.50815 0.38480 0.18387
 N441 N 0.53001 0.38339 0.19816
 N442 N 0.52813 0.36312 0.23332
 C443 C 0.51045 0.40777 0.14801
 C444 C 0.49025 0.41378 0.14997
 H445 H 0.48219 0.30583 0.30870
 H446 H 0.52878 0.42085 0.12248
 H447 H 0.54303 0.33915 0.32063
 H448 H 0.47269 0.40165 0.17938
 C449 C 0.69400 0.18251 0.36067
 C450 C 0.68293 0.18331 0.30030
 C451 C 0.66257 0.15891 0.26874
 N452 N 0.64982 0.16035 0.21421
 N453 N 0.63072 0.13837 0.18665
 C454 C 0.62366 0.11414 0.21253
 N455 N 0.63658 0.11269 0.26670
 N456 N 0.65566 0.13467 0.29434
 C457 C 0.60222 0.08982 0.18321
 C458 C 0.58748 0.09103 0.13076
 H459 H 0.68834 0.20224 0.27760
 H460 H 0.59782 0.07083 0.20364
 H461 H 0.68694 0.16363 0.38559
 H462 H 0.59190 0.11017 0.11124
 C463 C 0.48092 0.18343 -0.34719
 C464 C 0.49581 0.17078 -0.35072
 C465 C 0.49232 0.14972 -0.30493
 N466 N 0.51236 0.14473 -0.29670
 N467 N 0.50933 0.12485 -0.25810
 C468 C 0.48599 0.10895 -0.22709
 N469 N 0.46580 0.11374 -0.23580
 N470 N 0.46894 0.13389 -0.27387
 C471 C 0.48259 0.08663 -0.18593
 C472 C 0.50423 0.08708 -0.15661
 H473 H 0.51166 0.17741 -0.38696
 H474 H 0.46294 0.07014 -0.17698
 H475 H 0.46917 0.18038 -0.30273
 H476 H 0.52336 0.10490 -0.15967
 C477 C 0.68703 0.50072 -0.34257
 C478 C 0.66095 0.48320 -0.32538
 C479 C 0.64562 0.49166 -0.28478
 N480 N 0.62369 0.47333 -0.25246
 N481 N 0.60936 0.48071 -0.21632
 C482 C 0.61626 0.50667 -0.21176
 N483 N 0.63799 0.52500 -0.24491
 N484 N 0.65250 0.51763 -0.28057
 C485 C 0.60015 0.51464 -0.17249
 C486 C 0.58343 0.49797 -0.12301
 H487 H 0.65192 0.46252 -0.33942
 H488 H 0.60138 0.53349 -0.18258
 H489 H 0.69703 0.51918 -0.31526
 H490 H 0.58396 0.48013 -0.11060
 C491 C 0.83157 0.31176 -0.36382
 C492 C 0.83216 0.32269 -0.30187
 C493 C 0.85706 0.34222 -0.27090
 N494 N 0.85651 0.35341 -0.21223
 N495 N 0.87873 0.37206 -0.18498
 C496 C 0.90240 0.38031 -0.21522
 N497 N 0.90301 0.36891 -0.27368
 N498 N 0.88073 0.35020 -0.30102
 C499 C 0.92677 0.40203 -0.18639
 C500 C 0.92522 0.41540 -0.13065
 H501 H 0.81383 0.31797 -0.27719
 H502 H 0.94554 0.40831 -0.21062
 H503 H 0.84995 0.31785 -0.38998
 H504 H 0.90607 0.40903 -0.10842
 C505 C 0.46710 -0.20494 -0.31761
 C506 C 0.48448 -0.17776 -0.31938
 C507 C 0.48552 -0.15978 -0.26668
 N508 N 0.50556 -0.13436 -0.26658
 N509 N 0.50658 -0.11743 -0.22058
 C510 C 0.48756 -0.12520 -0.17296
 N511 N 0.46745 -0.15067 -0.17299
 N512 N 0.46650 -0.16770 -0.21891
 C513 C 0.48791 -0.10589 -0.12487
 C514 C 0.50925 -0.08015 -0.12295
 H515 H 0.49826 -0.16941 -0.36065
 H516 H 0.47060 -0.11136 -0.09449
 H517 H 0.45495 -0.21397 -0.27390
 H518 H 0.52650 -0.07514 -0.15322
 C519 C 0.30307 0.48400 -0.33918
 C520 C 0.32818 0.50363 -0.32019
 C521 C 0.34537 0.49803 -0.27866
 N522 N 0.36733 0.51842 -0.25190
 N523 N 0.38395 0.51389 -0.21715
 C524 C 0.37942 0.48883 -0.20840
 N525 N 0.35751 0.46839 -0.23551
 N526 N 0.34074 0.47291 -0.26992
 C527 C 0.39826 0.48399 -0.17149
 C528 C 0.41716 0.50367 -0.13119
 H529 H 0.33561 0.52387 -0.33664
 H530 H 0.39713 0.46491 -0.17560
 H531 H 0.29420 0.46559 -0.31142
 H532 H 0.41681 0.52194 -0.12418
 C533 C 1.20462 0.68772 -0.32840
 C534 C 1.17749 0.67205 -0.33764
 C535 C 1.15949 0.65608 -0.28374
 N536 N 1.13320 0.64553 -0.29165
 N537 N 1.11647 0.63042 -0.24423
 C538 C 1.12538 0.62518 -0.18715
 N539 N 1.15171 0.63564 -0.17928
 N540 N 1.16849 0.65091 -0.22665
 C541 C 1.10676 0.60717 -0.13657
 C542 C 1.07990 0.59799 -0.14194
 H543 H 1.16883 0.67259 -0.38473
 H544 H 1.11403 0.59980 -0.09734
 H545 H 1.21173 0.69012 -0.27775
 H546 H 1.07303 0.60622 -0.18005
 C547 C 0.79889 0.49116 -0.30992
 C548 C 0.82591 0.50091 -0.31688
 C549 C 0.84255 0.49812 -0.26686
 N550 N 0.86840 0.50831 -0.28124
 N551 N 0.88408 0.50511 -0.23951
 C552 C 0.87464 0.49149 -0.18160
 N553 N 0.84867 0.48131 -0.16675
 N554 N 0.83284 0.48448 -0.20884
 C555 C 0.89270 0.48843 -0.13592
 C556 C 0.91908 0.49921 -0.15433
 H557 H 0.83573 0.51110 -0.36244
 H558 H 0.88576 0.47906 -0.08775
 H559 H 0.79044 0.48599 -0.26028
 H560 H 0.92541 0.50888 -0.20240
 C561 C 0.48177 0.30289 -0.33878
 C562 C 0.49627 0.33061 -0.33772
 C563 C 0.49151 0.34685 -0.28965
 N564 N 0.51143 0.37140 -0.27423
 N565 N 0.50729 0.38720 -0.23418
 C566 C 0.48293 0.37926 -0.20883
 N567 N 0.46287 0.35477 -0.22470
 N568 N 0.46711 0.33877 -0.26412
 C569 C 0.47823 0.39735 -0.16706
 C570 C 0.49856 0.41715 -0.12991
 H571 H 0.51275 0.34097 -0.37175
 H572 H 0.45869 0.39496 -0.16502
 H573 H 0.46933 0.29299 -0.29604
 H574 H 0.51719 0.41750 -0.12704
 C575 C 0.70484 0.20350 -0.30792
 C576 C 0.68706 0.17634 -0.31377
 C577 C 0.66730 0.15985 -0.26345
 N578 N 0.65297 0.13342 -0.27423
 N579 N 0.63332 0.11786 -0.23349
 C580 C 0.62695 0.12803 -0.18036
 N581 N 0.64137 0.15457 -0.16916
 N582 N 0.66119 0.17025 -0.21011
 C583 C 0.60447 0.11036 -0.13678
 C584 C 0.59087 0.08311 -0.14870
 H585 H 0.68713 0.16632 -0.35924
 H586 H 0.59880 0.11858 -0.09575
 H587 H 0.70887 0.21212 -0.25852
 H588 H 0.59750 0.07543 -0.18898
 C589 C 1.18284 0.47849 -0.32294
 C590 C 1.18181 0.49973 -0.29411
 C591 C 1.15913 0.49641 -0.25450
 N592 N 1.15971 0.51793 -0.22661
 N593 N 1.13867 0.51570 -0.19482
 C594 C 1.11615 0.49187 -0.19013
 N595 N 1.11560 0.47032 -0.21783
 N596 N 1.13669 0.47253 -0.24940
 C597 C 1.09232 0.48936 -0.15805
 C598 C 1.09248 0.51030 -0.12381
 H599 H 1.19730 0.51972 -0.30555
 H600 H 1.07416 0.47055 -0.16182
 H601 H 1.16813 0.45829 -0.31077
 H602 H 1.11087 0.52871 -0.11752
 C603 C 0.47765 0.68254 -0.32259
 C604 C 0.48742 0.66528 -0.33324
 C605 C 0.48929 0.64910 -0.27936
 N606 N 0.50471 0.63806 -0.28781
 N607 N 0.50627 0.62294 -0.24036
 C608 C 0.49233 0.61811 -0.18267
 N609 N 0.47676 0.62902 -0.17432
 N610 N 0.47535 0.64434 -0.22163
 C611 C 0.49299 0.60024 -0.13152
 C612 C 0.51178 0.59224 -0.13407
 H613 H 0.49562 0.66480 -0.38137
 H614 H 0.47786 0.59243 -0.09325
 H615 H 0.47363 0.68534 -0.27141
 H616 H 0.52737 0.60103 -0.17110
 C617 C 0.32645 -0.20068 -0.33100
 C618 C 0.34598 -0.17433 -0.34181
 C619 C 0.36239 -0.15680 -0.28786
 N620 N 0.37475 -0.13021 -0.29691
 N621 N 0.38967 -0.11382 -0.24911
 C622 C 0.39302 -0.12332 -0.19041
 N623 N 0.38092 -0.14999 -0.18153
 N624 N 0.36574 -0.16644 -0.22927
 C625 C 0.41013 -0.10485 -0.13844
 C626 C 0.41682 -0.07829 -0.14088
 H627 H 0.34763 -0.16526 -0.38999
 H628 H 0.41822 -0.11181 -0.10032
 H629 H 0.32276 -0.20751 -0.27980
 H630 H 0.40747 -0.07225 -0.17791
 C631 C 0.46785 -0.20245 0.33587
 C632 C 0.48357 -0.17500 0.34081
 C633 C 0.48446 -0.15652 0.28938
 N634 N 0.50240 -0.13036 0.29448
 N635 N 0.50336 -0.11315 0.24939
 C636 C 0.48634 -0.12137 0.19742
 N637 N 0.46831 -0.14756 0.19232
 N638 N 0.46742 -0.16484 0.23737
 C639 C 0.48685 -0.10213 0.14863
 C640 C 0.50633 -0.07546 0.15095
 H641 H 0.49614 -0.16670 0.38389
 H642 H 0.47132 -0.10883 0.11201
 H643 H 0.45695 -0.21110 0.29056
 H644 H 0.52192 -0.06916 0.18730
 C645 C 0.31498 0.51842 0.32688
 C646 C 0.31551 0.49914 0.28701
 C647 C 0.33795 0.50463 0.24345
 N648 N 0.33882 0.48412 0.21419
 N649 N 0.35961 0.48830 0.17783
 C650 C 0.38033 0.51318 0.16898
 N651 N 0.37926 0.53383 0.19715
 N652 N 0.35846 0.52962 0.23389
 C653 C 0.40418 0.51740 0.13315
 C654 C 0.40871 0.49629 0.12448
 H655 H 0.29958 0.47883 0.29130
 H656 H 0.41913 0.53728 0.11899
 H657 H 0.33157 0.53844 0.32670
 H658 H 0.39439 0.47697 0.14383
 C659 C 1.20400 0.68613 0.32601
 C660 C 1.17673 0.67485 0.33117
 C661 C 1.15862 0.65811 0.27846
 N662 N 1.13259 0.65008 0.28332
 N663 N 1.11578 0.63441 0.23710
 C664 C 1.12432 0.62610 0.18422
 N665 N 1.15036 0.63411 0.17935
 N666 N 1.16721 0.64989 0.22548
 C667 C 1.10562 0.60749 0.13493
 C668 C 1.07887 0.59950 0.13723
 H669 H 1.16839 0.67873 0.37515
 H670 H 1.11280 0.59874 0.09875
 H671 H 1.21258 0.68422 0.27984
 H672 H 1.07193 0.60864 0.17292
 C673 C 0.52408 0.20664 0.32741
 C674 C 0.50420 0.18709 0.28877
 C675 C 0.50853 0.16978 0.24330
 N676 N 0.48740 0.14829 0.21703
 N677 N 0.49054 0.13128 0.17920
 C678 C 0.51495 0.13512 0.16580
 N679 N 0.53619 0.15692 0.19102
 N680 N 0.53304 0.17391 0.22930
 C681 C 0.51814 0.11520 0.12763
 C682 C 0.49701 0.08947 0.12159
 H683 H 0.48416 0.18296 0.29614
 H684 H 0.53742 0.12011 0.10887
 H685 H 0.54439 0.21180 0.31975
 H686 H 0.47847 0.08448 0.14553
 C687 C 0.68738 0.48417 0.31962
 C688 C 0.67611 0.50031 0.31968
 C689 C 0.65570 0.49747 0.27272
 N690 N 0.64525 0.51346 0.27983
 N691 N 0.62568 0.51053 0.24101
 C692 C 0.61563 0.49143 0.19351
 N693 N 0.62621 0.47546 0.18588
 N694 N 0.64587 0.47838 0.22495
 C695 C 0.59353 0.48814 0.15155
 C696 C 0.58216 0.50388 0.16295
 H697 H 0.68131 0.51474 0.35924
 H698 H 0.58637 0.47362 0.11188
 H699 H 0.68424 0.47102 0.27816
 H700 H 0.58962 0.51813 0.20325
 C701 C 0.80628 0.30702 0.30308
 C702 C 0.83343 0.31766 0.29835
 C703 C 0.85023 0.33863 0.25087
 N704 N 0.87669 0.34940 0.25465
 N705 N 0.89265 0.36989 0.21633
 C706 C 0.88283 0.38052 0.17274
 N707 N 0.85628 0.36952 0.16817
 N708 N 0.84025 0.34899 0.20674
 C709 C 0.90077 0.40402 0.13265
 C710 C 0.92780 0.41721 0.14444
 H711 H 0.84314 0.31208 0.33548
 H712 H 0.89273 0.41124 0.09499
 H713 H 0.79572 0.31059 0.26412
 H714 H 0.93533 0.40990 0.18321
   
