data_POSCAR
  _audit_creation_date              2014-09-24
  _audit_creation_method            'ToBaCCo'
  _symmetry_space_group_name_H-M    'P1'
  _symmetry_Int_Tables_number       1
  _symmetry_cell_setting            triclinic
  loop_
  _symmetry_equiv_pos_as_xyz
 x,y,z
_cell_length_a 13.7505
_cell_length_b 13.4312
_cell_length_c 21.9450
_cell_angle_alpha 97.731600
_cell_angle_beta 86.485500
_cell_angle_gamma 79.897900
loop_
  _atom_site_label
  _atom_site_type_symbol
  _atom_site_fract_x
  _atom_site_fract_y
  _atom_site_fract_z
O1 O -0.13278 0.61257 0.95492
 O2 O -0.11712 0.45947 1.07864
 O3 O -0.06904 0.63431 1.06495
 O4 O -0.13977 0.42105 0.96005
 O5 O 0.01853 0.37074 0.92720
 O6 O 0.08819 0.56429 1.03862
 O7 O 0.03722 0.38681 1.04577
 O8 O 0.02771 0.56412 0.92787
 Cu9 Cu -0.12977 0.53760 1.01750
 Cu10 Cu 0.05795 0.46563 0.98193
 C11 C -0.05632 0.61810 0.92162
 C12 C -0.03944 0.39624 1.08357
 C13 C 0.02312 0.63327 1.06996
 C14 C -0.07070 0.36024 0.92491
 O15 O 0.41277 0.04114 0.58235
 O16 O 0.58719 0.12956 0.47700
 O17 O 0.39539 0.12583 0.48233
 O18 O 0.60300 0.03900 0.57400
 O19 O 0.63112 -0.11186 0.51494
 O20 O 0.42379 -0.02696 0.42582
 O21 O 0.61602 -0.02247 0.41958
 O22 O 0.44547 -0.11234 0.52642
 Cu23 Cu 0.49618 0.09952 0.53440
 Cu24 Cu 0.53059 -0.08303 0.46516
 C25 C 0.40140 -0.05126 0.57306
 C26 C 0.63413 0.06737 0.43169
 C27 C 0.37357 0.06299 0.43899
 C28 C 0.65267 -0.05133 0.55936
 C29 C 0.04727 -0.05354 0.21557
 C30 C -0.04981 -0.03581 0.25702
 C31 C -0.07046 0.05715 0.29327
 C32 C 0.00869 0.12342 0.28515
 C33 C 0.03837 0.03655 0.17911
 C34 C 0.01788 0.12909 0.21562
 C35 C 0.12667 -0.03685 0.26003
 C36 C 0.10663 0.05600 0.29656
 H37 H -0.09715 -0.09211 0.25714
 H38 H -0.00786 0.19945 0.31444
 H39 H 0.03860 0.02786 0.12932
 H40 H 0.19215 -0.09360 0.26215
 C41 C 0.11029 -0.07753 0.70946
 C42 C 0.08937 -0.15289 0.75312
 C43 C -0.00726 -0.13590 0.77649
 C44 C -0.07349 -0.04467 0.75471
 C45 C 0.03671 -0.08618 0.66064
 C46 C -0.05904 -0.06901 0.68417
 C47 C 0.07588 0.02859 0.74765
 C48 C -0.02064 0.04579 0.77166
 H49 H 0.14495 -0.21506 0.76278
 H50 H -0.15230 -0.03094 0.77340
 H51 H 0.05920 -0.11226 0.61212
 H52 H 0.12498 0.08245 0.75674
 N53 N 0.15621 -0.21335 0.16564
 N54 N 0.15197 -0.29670 0.12697
 C55 C 0.05742 -0.28880 0.11228
 C56 C 0.00368 -0.19754 0.14273
 N57 N 0.06799 -0.15297 0.17593
 H58 H -0.07400 -0.16630 0.14081
 N59 N -0.09444 0.28829 0.21405
 N60 N -0.11345 0.35986 0.17831
 C61 C -0.04116 0.33843 0.13149
 C62 C 0.02320 0.25081 0.13950
 N63 N -0.01331 0.22205 0.19149
 H64 H 0.08709 0.20970 0.10945
 N65 N 0.26265 -0.19071 0.66071
 N66 N 0.33908 -0.18743 0.62172
 C67 C 0.33606 -0.08823 0.61649
 C68 C 0.25599 -0.03082 0.65358
 N69 N 0.21228 -0.09739 0.68110
 H70 H 0.22729 0.05010 0.65588
 N71 N -0.12526 -0.18092 0.60840
 N72 N -0.20153 -0.17893 0.57445
 C73 C -0.26130 -0.08728 0.59193
 C74 C -0.21982 -0.03297 0.63827
 N75 N -0.13507 -0.09441 0.64691
 H76 H -0.24505 0.04509 0.66052
 N77 N -0.14259 -0.19236 0.82956
 N78 N -0.15825 -0.25778 0.86732
 C79 C -0.06866 -0.30932 0.87716
 C80 C 0.00307 -0.27323 0.84418
 N81 N -0.04650 -0.19992 0.81522
 H82 H 0.08275 -0.29522 0.84339
 N83 N -0.16078 0.15900 0.83491
 N84 N -0.17816 0.24343 0.87626
 C85 C -0.09064 0.27465 0.88128
 C86 C -0.01967 0.20729 0.84187
 N87 N -0.06592 0.13613 0.81368
 H88 H 0.05886 0.20835 0.83640
 N89 N -0.18156 0.18187 0.36935
 N90 N -0.26220 0.18784 0.40706
 C91 C -0.29059 0.09631 0.39667
 C92 C -0.22508 0.03420 0.35132
 N93 N -0.15771 0.09014 0.33570
 H94 H -0.22405 -0.04533 0.33398
 N95 N 0.15605 0.17916 0.37585
 N96 N 0.22632 0.18468 0.41438
 C97 C 0.28793 0.09310 0.40416
 C98 C 0.25326 0.03137 0.35842
 N99 N 0.17079 0.08765 0.34185
 H100 H 0.28434 -0.04746 0.34022
   
