data_POSCAR
  _audit_creation_date              2014-09-24
  _audit_creation_method            'ToBaCCo'
  _symmetry_space_group_name_H-M    'P1'
  _symmetry_Int_Tables_number       1
  _symmetry_cell_setting            triclinic
  loop_
  _symmetry_equiv_pos_as_xyz
 x,y,z
_cell_length_a 31.2114
_cell_length_b 33.6656
_cell_length_c 34.0217
_cell_angle_alpha 89.247300
_cell_angle_beta 90.366900
_cell_angle_gamma 89.870000
loop_
  _atom_site_label
  _atom_site_type_symbol
  _atom_site_fract_x
  _atom_site_fract_y
  _atom_site_fract_z
N1 N 0.15087 0.23771 0.26274
 N2 N 0.16510 0.20490 0.27963
 C3 C 0.14350 0.19833 0.31308
 C4 C 0.11406 0.22840 0.31727
 C5 C 0.11945 0.25308 0.28483
 H6 H 0.14767 0.17280 0.33236
 H7 H 0.10113 0.27936 0.27717
 Cu8 Cu 0.20825 0.17191 0.25591
 Cu9 Cu 0.17290 0.25662 0.21274
 Cu10 Cu 0.25591 0.20262 0.17225
 N11 N 0.25667 0.14428 0.23407
 N12 N 0.27554 0.15612 0.20158
 C13 C 0.30793 0.13104 0.19360
 C14 C 0.30919 0.10215 0.22276
 C15 C 0.27630 0.11141 0.24794
 H16 H 0.32872 0.13339 0.16836
 H17 H 0.26735 0.09525 0.27428
 N18 N 0.23137 0.25048 0.14714
 N19 N 0.19958 0.27093 0.16245
 C20 C 0.19006 0.30187 0.13846
 C21 C 0.21715 0.30073 0.10671
 C22 C 0.24295 0.26786 0.11302
 H23 H 0.16547 0.32381 0.14370
 H24 H 0.26836 0.25760 0.09420
 H25 H 0.19336 0.20232 0.19175
 H26 H 0.23290 0.23123 0.22134
 N27 N 0.63947 0.72152 0.75841
 N28 N 0.65623 0.69101 0.77750
 C29 C 0.63334 0.68438 0.81045
 C30 C 0.60100 0.71252 0.81183
 C31 C 0.60578 0.73537 0.77823
 H32 H 0.64015 0.66147 0.83220
 H33 H 0.58661 0.76057 0.76894
 Cu34 Cu 0.70711 0.66453 0.75757
 Cu35 Cu 0.66317 0.74335 0.71072
 Cu36 Cu 0.75256 0.69699 0.67332
 N37 N 0.75581 0.63731 0.73450
 N38 N 0.77348 0.65041 0.70184
 C39 C 0.80615 0.62636 0.69231
 C40 C 0.80917 0.59657 0.72037
 C41 C 0.77674 0.60433 0.74684
 H42 H 0.82617 0.63006 0.66671
 H43 H 0.76880 0.58726 0.77290
 N44 N 0.72610 0.74440 0.64883
 N45 N 0.69148 0.76154 0.66288
 C46 C 0.68104 0.79307 0.64007
 C47 C 0.71044 0.79586 0.61033
 C48 C 0.73868 0.76466 0.61659
 H49 H 0.65447 0.81302 0.64496
 H50 H 0.76641 0.75757 0.59911
 H51 H 0.69040 0.69047 0.69211
 H52 H 0.72558 0.72462 0.72082
 N53 N 0.35730 0.76128 0.74972
 N54 N 0.34489 0.79086 0.77189
 C55 C 0.37243 0.79342 0.80270
 C56 C 0.40335 0.76383 0.79896
 C57 C 0.39263 0.74438 0.76514
 H58 H 0.37095 0.81570 0.82526
 H59 H 0.41005 0.72004 0.75225
 Cu60 Cu 0.29500 0.82361 0.75602
 Cu61 Cu 0.32890 0.74659 0.70154
 Cu62 Cu 0.24181 0.80236 0.67207
 N63 N 0.24480 0.85487 0.73804
 N64 N 0.22522 0.84572 0.70501
 C65 C 0.19235 0.87061 0.69842
 C66 C 0.19067 0.89709 0.72861
 C67 C 0.22449 0.88656 0.75362
 H68 H 0.17110 0.86973 0.67321
 H69 H 0.23377 0.90103 0.78056
 N70 N 0.26280 0.75727 0.64230
 N71 N 0.29632 0.73601 0.65352
 C72 C 0.30244 0.70678 0.62762
 C73 C 0.27102 0.70990 0.59895
 C74 C 0.24637 0.74196 0.60913
 H75 H 0.32715 0.68429 0.62975
 H76 H 0.21821 0.75286 0.59374
 H77 H 0.30585 0.80266 0.68847
 H78 H 0.26939 0.76858 0.71649
 N79 N 0.85716 0.26573 0.26090
 N80 N 0.84634 0.29980 0.27635
 C81 C 0.86856 0.30559 0.30956
 C82 C 0.89571 0.27389 0.31512
 C83 C 0.88770 0.24869 0.28381
 H84 H 0.86659 0.33191 0.32740
 H85 H 0.90346 0.22088 0.27752
 Cu86 Cu 0.80806 0.33562 0.25022
 Cu87 Cu 0.83054 0.24800 0.21177
 Cu88 Cu 0.74768 0.30823 0.17406
 N89 N 0.75788 0.36474 0.23614
 N90 N 0.73427 0.35599 0.20533
 C91 C 0.70316 0.38395 0.20164
 C92 C 0.70810 0.41076 0.23223
 C93 C 0.74271 0.39729 0.25346
 H94 H 0.67914 0.38489 0.17862
 H95 H 0.75659 0.41092 0.27920
 N96 N 0.76750 0.25835 0.14820
 N97 N 0.79887 0.23594 0.16276
 C98 C 0.80489 0.20463 0.13920
 C99 C 0.77621 0.20715 0.10830
 C100 C 0.75289 0.24157 0.11479
 H101 H 0.82825 0.18130 0.14420
 H102 H 0.72697 0.25315 0.09677
 H103 H 0.81186 0.30212 0.18730
 H104 H 0.77364 0.27799 0.22182
 N105 N 0.86768 0.74660 0.25701
 N106 N 0.85277 0.71842 0.23432
 C107 C 0.87702 0.71677 0.20170
 C108 C 0.90856 0.74563 0.20431
 C109 C 0.90177 0.76375 0.23977
 H110 H 0.87229 0.69627 0.17786
 H111 H 0.92009 0.78797 0.25189
 Cu112 Cu 0.80287 0.68708 0.24989
 Cu113 Cu 0.84035 0.76099 0.30590
 Cu114 Cu 0.75042 0.70766 0.33355
 N115 N 0.75442 0.65504 0.26761
 N116 N 0.73400 0.66357 0.30014
 C117 C 0.70209 0.63729 0.30559
 C118 C 0.70237 0.61087 0.27492
 C119 C 0.73604 0.62296 0.25124
 H120 H 0.68013 0.63734 0.33005
 H121 H 0.74636 0.60950 0.22423
 N122 N 0.77264 0.75310 0.36357
 N123 N 0.80832 0.77182 0.35412
 C124 C 0.81593 0.80039 0.38057
 C125 C 0.78326 0.80015 0.40754
 C126 C 0.75625 0.76976 0.39603
 H127 H 0.84262 0.82080 0.37976
 H128 H 0.72699 0.76060 0.41032
 H129 H 0.81384 0.70544 0.31830
 H130 H 0.77926 0.74181 0.29078
 N131 N 0.35809 0.22905 -0.25765
 N132 N 0.34399 0.19627 -0.27385
 C133 C 0.36740 0.18864 -0.30605
 C134 C 0.39754 0.21830 -0.31034
 C135 C 0.39079 0.24352 -0.27909
 H136 H 0.36266 0.16363 -0.32521
 H137 H 0.40858 0.27013 -0.27229
 Cu138 Cu 0.29545 0.16706 -0.25265
 Cu139 Cu 0.33382 0.25000 -0.20950
 Cu140 Cu 0.25055 0.19626 -0.16834
 N141 N 0.24218 0.14414 -0.23346
 N142 N 0.22465 0.15614 -0.20069
 C143 C 0.19013 0.13374 -0.19266
 C144 C 0.18575 0.10610 -0.22187
 C145 C 0.21925 0.11354 -0.24750
 H146 H 0.17081 0.13613 -0.16652
 H147 H 0.22747 0.09696 -0.27338
 N148 N 0.27308 0.24493 -0.14542
 N149 N 0.30488 0.26567 -0.16062
 C150 C 0.31241 0.29732 -0.13763
 C151 C 0.28354 0.29651 -0.10699
 C152 C 0.25912 0.26289 -0.11290
 H153 H 0.33670 0.31957 -0.14291
 H154 H 0.23298 0.25250 -0.09479
 H155 H 0.31381 0.19626 -0.18906
 H156 H 0.27328 0.22606 -0.21748
 N157 N 0.64160 0.25533 -0.24805
 N158 N 0.65273 0.28420 -0.27226
 C159 C 0.62683 0.28392 -0.30412
 C160 C 0.59733 0.25356 -0.29941
 C161 C 0.60785 0.23592 -0.26355
 H162 H 0.62807 0.30547 -0.32789
 H163 H 0.59120 0.21164 -0.24921
 Cu164 Cu 0.69686 0.32243 -0.25843
 Cu165 Cu 0.66983 0.24771 -0.19691
 Cu166 Cu 0.76118 0.30387 -0.18011
 N167 N 0.74589 0.35582 -0.24650
 N168 N 0.77204 0.34777 -0.21700
 C169 C 0.80296 0.37571 -0.21599
 C170 C 0.79552 0.40272 -0.24647
 C171 C 0.75902 0.38923 -0.26499
 H172 H 0.82782 0.37724 -0.19379
 H173 H 0.74303 0.40312 -0.28990
 N174 N 0.74422 0.25855 -0.14585
 N175 N 0.70876 0.23796 -0.15148
 C176 C 0.70515 0.21055 -0.12232
 C177 C 0.74002 0.21404 -0.09719
 C178 C 0.76413 0.24460 -0.11312
 H179 H 0.67928 0.18941 -0.11960
 H180 H 0.79380 0.25607 -0.10130
 H181 H 0.69614 0.30366 -0.18836
 H182 H 0.72707 0.26815 -0.21880
 N183 N 0.14018 0.75492 0.25880
 N184 N 0.15544 0.78344 0.23613
 C185 C 0.12967 0.78710 0.20406
 C186 C 0.09666 0.75953 0.20756
 C187 C 0.10433 0.74013 0.24268
 H188 H 0.13363 0.80893 0.18078
 H189 H 0.08509 0.71667 0.25542
 Cu190 Cu 0.20580 0.81420 0.25375
 Cu191 Cu 0.16849 0.73668 0.30650
 Cu192 Cu 0.25895 0.78661 0.33692
 N193 N 0.25626 0.84384 0.27279
 N194 N 0.27624 0.83260 0.30530
 C195 C 0.30780 0.85850 0.31329
 C196 C 0.30803 0.88781 0.28453
 C197 C 0.27485 0.87754 0.25901
 H198 H 0.32862 0.85675 0.33880
 H199 H 0.26421 0.89389 0.23317
 N200 N 0.23623 0.73937 0.36520
 N201 N 0.20079 0.72136 0.35396
 C202 C 0.19267 0.69094 0.37884
 C203 C 0.22445 0.68944 0.40702
 C204 C 0.25171 0.72058 0.39767
 H205 H 0.16585 0.67084 0.37653
 H206 H 0.28042 0.72892 0.41345
 H207 H 0.19584 0.79104 0.32135
 H208 H 0.22979 0.75653 0.29216
 N209 N 0.49819 0.38538 0.47581
 N210 N 0.46853 0.39917 0.49934
 C211 C 0.46551 0.37458 0.53095
 C212 C 0.49482 0.34381 0.52664
 C213 C 0.51467 0.35165 0.49128
 H214 H 0.44321 0.37832 0.55482
 H215 H 0.53927 0.33391 0.47772
 Cu216 Cu 0.43622 0.44740 0.48498
 Cu217 Cu 0.51320 0.41138 0.42633
 Cu218 Cu 0.46565 0.50212 0.40590
 N219 N 0.40514 0.49580 0.46913
 N220 N 0.41748 0.51688 0.43842
 C221 C 0.39170 0.54864 0.43383
 C222 C 0.36152 0.54780 0.46314
 C223 C 0.37089 0.51383 0.48525
 H224 H 0.39480 0.57105 0.41098
 H225 H 0.35437 0.50329 0.51118
 N226 N 0.51453 0.48186 0.37595
 N227 N 0.53197 0.44674 0.38305
 C228 C 0.56302 0.44042 0.35649
 C229 C 0.56513 0.47302 0.33149
 C230 C 0.53397 0.49881 0.34471
 H231 H 0.58254 0.41391 0.35512
 H232 H 0.52537 0.52731 0.33196
 H233 H 0.49856 0.46692 0.44692
 H234 H 0.45653 0.44283 0.41591
 N235 N -0.03067 -0.09835 1.00114
 N236 N -0.06307 -0.08423 1.02115
 C237 C -0.07041 -0.10889 1.05218
 C238 C -0.04063 -0.13963 1.05135
 C239 C -0.01633 -0.13183 1.01832
 H240 H -0.09474 -0.10440 1.07417
 H241 H 0.01050 -0.14915 1.00808
 Cu242 Cu -0.08999 -0.03392 1.00426
 Cu243 Cu -0.00678 -0.07239 0.95546
 Cu244 Cu -0.05481 0.01440 0.92269
 N245 N -0.11766 0.01502 0.98471
 N246 N -0.10410 0.03301 0.95253
 C247 C -0.12893 0.06501 0.94496
 C248 C -0.15946 0.06771 0.97400
 C249 C -0.15147 0.03542 0.99883
 H250 H -0.12515 0.08498 0.92008
 H251 H -0.16937 0.02704 1.02472
 N252 N -0.00441 -0.00940 0.89676
 N253 N 0.01360 -0.04259 0.90972
 C254 C 0.04688 -0.05173 0.88664
 C255 C 0.05020 -0.02313 0.85770
 C256 C 0.01717 0.00345 0.86477
 H257 H 0.06725 -0.07754 0.89024
 H258 H 0.00923 0.02984 0.84779
 H259 H -0.02526 -0.01490 0.96884
 H260 H -0.06314 -0.04429 0.93797
 N261 N 1.02538 0.60876 0.99909
 N262 N 1.05810 0.59297 1.01830
 C263 C 1.06793 0.61608 1.04917
 C264 C 1.04020 0.64818 1.04917
 C265 C 1.01350 0.64244 1.01699
 H266 H 1.09336 0.61015 1.07019
 H267 H 0.98706 0.66105 1.00743
 Cu268 Cu 1.08496 0.54387 1.00084
 Cu269 Cu 1.00027 0.58477 0.95217
 Cu270 Cu 1.04615 0.49689 0.92205
 N271 N 1.10884 0.49325 0.98378
 N272 N 1.09316 0.47560 0.95264
 C273 C 1.11515 0.44210 0.94607
 C274 C 1.14625 0.43820 0.97453
 C275 C 1.14166 0.47117 0.99822
 H276 H 1.10944 0.42213 0.92196
 H277 H 1.16112 0.47887 1.02338
 N278 N 0.99839 0.52209 0.89422
 N279 N 0.98011 0.55542 0.90535
 C280 C 0.94814 0.56435 0.87970
 C281 C 0.94672 0.53523 0.85127
 C282 C 0.97900 0.50902 0.86158
 H283 H 0.92751 0.59011 0.88139
 H284 H 0.98778 0.48222 0.84652
 H285 H 1.01765 0.52823 0.96794
 H286 H 1.05499 0.55684 0.93554
 N287 N 0.51405 0.11218 0.50602
 N288 N 0.54595 0.09657 0.52649
 C289 C 0.55539 0.12057 0.55675
 C290 C 0.52795 0.15284 0.55541
 C291 C 0.50205 0.14657 0.52273
 H292 H 0.58060 0.11526 0.57815
 H293 H 0.47700 0.16588 0.51145
 Cu294 Cu 0.57286 0.04674 0.51098
 Cu295 Cu 0.49267 0.08764 0.45768
 Cu296 Cu 0.53532 -0.00397 0.43404
 N297 N 0.59858 -0.00369 0.49563
 N298 N 0.58432 -0.02240 0.46452
 C299 C 0.60989 -0.05362 0.45731
 C300 C 0.64136 -0.05516 0.48582
 C301 C 0.63339 -0.02308 0.50982
 H302 H 0.60685 -0.07295 0.43231
 H303 H 0.65323 -0.01317 0.53392
 N304 N 0.48573 0.01919 0.40637
 N305 N 0.46937 0.05425 0.41477
 C306 C 0.43686 0.06201 0.38939
 C307 C 0.43278 0.03033 0.36403
 C308 C 0.46430 0.00380 0.37573
 H309 H 0.41800 0.08901 0.38879
 H310 H 0.47185 -0.02422 0.36229
 H311 H 0.50657 0.03134 0.47673
 H312 H 0.54651 0.05538 0.44359
 N313 N -0.01432 0.10440 0.50127
 N314 N -0.05126 0.09534 0.48510
 C315 C -0.05862 0.11917 0.45381
 C316 C -0.02436 0.14448 0.45022
 C317 C 0.00327 0.13452 0.48087
 H318 H -0.08688 0.11828 0.43528
 H319 H 0.03334 0.14864 0.48806
 Cu320 Cu -0.08599 0.05345 0.50607
 Cu321 Cu 0.00689 0.07748 0.54820
 Cu322 Cu -0.04730 -0.00782 0.57706
 N323 N -0.10893 0.00142 0.51429
 N324 N -0.09496 -0.02278 0.54220
 C325 C -0.11862 -0.05626 0.54133
 C326 C -0.14834 -0.05238 0.51088
 C327 C -0.14114 -0.01558 0.49453
 H328 H -0.11509 -0.08095 0.56175
 H329 H -0.15899 -0.00163 0.47072
 N330 N 0.00252 0.01384 0.60660
 N331 N 0.02293 0.04621 0.59495
 C332 C 0.05443 0.05432 0.62065
 C333 C 0.05431 0.02580 0.64989
 C334 C 0.02092 0.00041 0.64030
 H335 H 0.07571 0.07956 0.61869
 H336 H 0.01043 -0.02540 0.65682
 H337 H -0.02085 0.02372 0.53184
 H338 H -0.05014 0.05281 0.56977
 N339 N 0.48161 0.60870 -0.00855
 N340 N 0.44836 0.59694 -0.02926
 C341 C 0.44387 0.62013 -0.06141
 C342 C 0.47532 0.64857 -0.06056
 C343 C 0.49892 0.64068 -0.02664
 H344 H 0.41882 0.61722 -0.08327
 H345 H 0.52656 0.65681 -0.01611
 Cu346 Cu 0.41161 0.55454 -0.01191
 Cu347 Cu 0.49986 0.58038 0.03946
 Cu348 Cu 0.44454 0.49341 0.06026
 N349 N 0.38594 0.50318 -0.00413
 N350 N 0.39946 0.47898 0.02387
 C351 C 0.37520 0.44612 0.02399
 C352 C 0.34482 0.45018 -0.00557
 C353 C 0.35244 0.48673 -0.02278
 H354 H 0.37818 0.42212 0.04524
 H355 H 0.33408 0.50085 -0.04615
 N356 N 0.49093 0.51310 0.09355
 N357 N 0.51218 0.54622 0.08614
 C358 C 0.54183 0.55114 0.11468
 C359 C 0.53864 0.51953 0.14104
 C360 C 0.50621 0.49621 0.12675
 H361 H 0.56422 0.57554 0.11591
 H362 H 0.49489 0.46866 0.13963
 H363 H 0.47627 0.52785 0.01834
 H364 H 0.44219 0.55513 0.05413
 N365 N 0.49537 -0.10251 0.00566
 N366 N 0.53078 -0.09426 -0.01336
 C367 C 0.53576 -0.12085 -0.04227
 C368 C 0.50146 -0.14685 -0.04071
 C369 C 0.47658 -0.13430 -0.01022
 H370 H 0.56251 -0.12162 -0.06227
 H371 H 0.44765 -0.14828 0.00041
 Cu372 Cu 0.56721 -0.05047 0.00256
 Cu373 Cu 0.47845 -0.07483 0.05195
 Cu374 Cu 0.53890 0.00549 0.08109
 N375 N 0.59750 -0.00224 0.01622
 N376 N 0.58689 0.01974 0.04638
 C377 C 0.61347 0.05135 0.04768
 C378 C 0.64199 0.04879 0.01659
 C379 C 0.63086 0.01448 -0.00251
 H380 H 0.61208 0.07437 0.06949
 H381 H 0.64596 0.00277 -0.02844
 N382 N 0.48843 -0.01462 0.11109
 N383 N 0.46507 -0.04447 0.09833
 C384 C 0.43325 -0.05197 0.12363
 C385 C 0.43637 -0.02607 0.15416
 C386 C 0.47173 -0.00242 0.14555
 H387 H 0.40973 -0.07527 0.12074
 H388 H 0.48431 0.02157 0.16298
 H389 H 0.50722 -0.02006 0.03597
 H390 H 0.53935 -0.05347 0.06933
 N391 N 1.01358 0.39282 0.49435
 N392 N 1.04925 0.40464 0.47770
 C393 C 1.05613 0.38392 0.44494
 C394 C 1.02347 0.35699 0.44090
 C395 C 0.99670 0.36331 0.47278
 H396 H 1.08420 0.38664 0.42662
 H397 H 0.96844 0.34659 0.48076
 Cu398 Cu 1.08648 0.44211 0.50237
 Cu399 Cu 0.99585 0.41483 0.54477
 Cu400 Cu 1.04852 0.50218 0.57168
 N401 N 1.11385 0.49135 0.51358
 N402 N 1.09960 0.51601 0.54016
 C403 C 1.12649 0.54751 0.54137
 C404 C 1.15872 0.54149 0.51386
 C405 C 1.14941 0.50580 0.49702
 H406 H 1.12361 0.57205 0.56140
 H407 H 1.16780 0.49099 0.47468
 N408 N 0.99656 0.48136 0.59927
 N409 N 0.97708 0.44817 0.58895
 C410 C 0.94542 0.44028 0.61458
 C411 C 0.94473 0.46955 0.64255
 C412 C 0.97753 0.49531 0.63192
 H413 H 0.92508 0.41433 0.61384
 H414 H 0.98782 0.52135 0.64761
 H415 H 1.02012 0.46898 0.52778
 H416 H 1.05117 0.44178 0.56642
 Si417 Si 0.37003 -0.00418 0.25944
 Si418 Si 0.12129 -0.00095 0.75527
 Si419 Si 0.63108 0.51432 0.23051
 Si420 Si 0.88369 0.49677 0.74924
 Si421 Si 0.25067 0.36166 0.00048
 Si422 Si 0.73464 0.14081 0.00695
 Si423 Si 0.26332 0.62153 0.50904
 Si424 Si 0.74760 0.86825 0.51271
 Si425 Si 0.00304 0.24954 0.38191
 Si426 Si 0.00612 0.75189 0.11289
 Si427 Si 0.49791 0.25745 0.61852
 Si428 Si 0.50312 0.75775 0.88298
 C429 C 0.08106 0.22945 0.34765
 C430 C 0.04979 0.25639 0.34777
 H431 H 0.08100 0.20541 0.36908
 H432 H 0.04852 0.28046 0.32640
 C433 C 0.56926 0.71788 0.84307
 C434 C 0.54429 0.75012 0.84396
 H435 H 0.56684 0.69529 0.86589
 H436 H 0.54678 0.77350 0.82206
 C437 C 0.44230 0.75497 0.82215
 C438 C 0.45047 0.76955 0.85755
 H439 H 0.46530 0.73494 0.80922
 H440 H 0.42747 0.78835 0.87209
 C441 C -0.07323 0.27209 0.34450
 C442 C -0.04355 0.24387 0.34703
 H443 H -0.07202 0.29661 0.36475
 H444 H -0.04309 0.21910 0.32713
 C445 C -0.05685 0.75527 0.17664
 C446 C -0.04573 0.73663 0.14307
 H447 H -0.06776 0.74054 0.15037
 H448 H -0.01144 0.73023 0.13656
 C449 C 0.42808 0.22130 0.66006
 C450 C 0.45453 0.25219 0.65813
 H451 H 0.43005 0.19802 0.63844
 H452 H 0.47805 0.25406 0.63707
 C453 C 0.56144 0.24482 0.67726
 C454 C 0.55225 0.26358 0.64318
 H455 H 0.53908 0.22289 0.68843
 H456 H 0.57413 0.28475 0.63013
 C457 C 0.05864 0.75278 0.18249
 C458 C 0.05810 0.75861 0.14366
 H459 H 0.03038 0.74093 0.19669
 H460 H 0.08653 0.76890 0.12866
 C461 C 0.33844 0.06819 0.22582
 C462 C 0.33385 0.04167 0.25477
 H463 H 0.36308 0.06472 0.20385
 H464 H 0.35351 0.01719 0.25724
 C465 C 0.84072 0.56402 0.72059
 C466 C 0.84275 0.53660 0.74915
 H467 H 0.86323 0.56308 0.69656
 H468 H 0.82092 0.53718 0.77369
 C469 C 0.81819 0.44010 0.74415
 C470 C 0.85752 0.44787 0.75756
 H471 H 0.80178 0.46193 0.72582
 H472 H 0.87511 0.42579 0.77455
 C473 C 0.33537 -0.07903 0.28435
 C474 C 0.33536 -0.05082 0.25625
 H475 H 0.35741 -0.07608 0.30884
 H476 H 0.31410 -0.05283 0.23111
 C477 C 0.16102 -0.07205 0.73016
 C478 C 0.15982 -0.04570 0.75880
 H479 H 0.13873 -0.06891 0.70572
 H480 H 0.13801 -0.02269 0.75676
 C481 C 0.68518 0.44749 0.24149
 C482 C 0.65728 0.46453 0.21715
 H483 H 0.69326 0.46195 0.26885
 H484 H 0.64352 0.49115 0.22471
 C485 C 0.67201 0.57779 0.26958
 C486 C 0.67216 0.55468 0.23801
 H487 H 0.64813 0.57311 0.29209
 H488 H 0.69540 0.55910 0.21494
 C489 C 0.15512 0.07297 0.77847
 C490 C 0.15514 0.04515 0.75104
 H491 H 0.13355 0.07045 0.80315
 H492 H 0.17676 0.04682 0.72637
 C493 C 0.21852 0.32930 0.07394
 C494 C 0.24695 0.32506 0.04546
 H495 H 0.19640 0.35416 0.07359
 H496 H 0.24851 0.34583 0.02413
 C497 C 0.71153 0.82650 0.57955
 C498 C 0.74321 0.82697 0.55392
 H499 H 0.68661 0.84896 0.57837
 H500 H 0.74460 0.84770 0.53299
 C501 C 0.77906 0.82770 0.44047
 C502 C 0.74460 0.83805 0.46229
 H503 H 0.74625 0.82116 0.44871
 H504 H 0.74763 0.86646 0.47797
 C505 C 0.27965 0.32548 -0.07519
 C506 C 0.24768 0.33026 -0.04856
 H507 H 0.24957 0.31500 -0.06326
 H508 H 0.24877 0.35806 -0.03132
 C509 C 0.75030 0.19068 -0.06119
 C510 C 0.72253 0.16494 -0.04559
 H511 H 0.78118 0.19504 -0.04718
 H512 H 0.72949 0.14472 -0.02404
 C513 C 0.22697 0.66026 0.43954
 C514 C 0.26058 0.65806 0.46368
 H515 H 0.20043 0.63989 0.44345
 H516 H 0.26048 0.63678 0.48502
 C517 C 0.26305 0.68352 0.56598
 C518 C 0.28591 0.65157 0.55419
 H519 H 0.29399 0.66919 0.56470
 H520 H 0.27150 0.62539 0.54034
 C521 C 0.77138 0.17738 0.07714
 C522 C 0.74324 0.18153 0.04777
 H523 H 0.79080 0.15067 0.07923
 H524 H 0.73987 0.15878 0.02922
 C525 C 0.50315 0.30856 0.55199
 C526 C 0.48734 0.30410 0.58814
 H527 H 0.52322 0.28533 0.54024
 H528 H 0.46848 0.32739 0.60123
 C529 C -0.03409 0.82705 0.07966
 C530 C -0.00011 0.80104 0.08083
 H531 H -0.00306 0.81864 0.06925
 H532 H 0.00158 0.77565 0.10172
 C533 C 0.03915 0.68049 0.07829
 C534 C 0.01350 0.71202 0.07375
 H535 H 0.05924 0.67794 0.10426
 H536 H -0.00705 0.71493 0.04817
 C537 C 0.52835 0.18660 0.58290
 C538 C 0.49785 0.21449 0.58291
 H539 H 0.55416 0.18802 0.60424
 H540 H 0.47110 0.21303 0.56262
 C541 C -0.02058 0.17663 0.42128
 C542 C 0.01097 0.20386 0.41664
 H543 H 0.01202 0.18532 0.42806
 H544 H 0.00646 0.22983 0.39686
 C545 C 0.47989 0.68089 0.91061
 C546 C 0.49977 0.71426 0.91981
 H547 H 0.46422 0.67816 0.88225
 H548 H 0.50129 0.73712 0.89948
 C549 C 0.49253 0.81780 0.93622
 C550 C 0.51844 0.80445 0.90857
 H551 H 0.46344 0.80159 0.94295
 H552 H 0.54808 0.81927 0.90114
 C553 C 0.02342 0.32494 0.41204
 C554 C -0.00474 0.29544 0.41287
 H555 H 0.04958 0.32414 0.39134
 H556 H -0.03083 0.29516 0.43364
 C557 C 0.32846 0.57850 0.46895
 C558 C 0.30198 0.57818 0.49947
 H559 H 0.32711 0.60306 0.44811
 H560 H 0.30313 0.55441 0.52115
 C561 C 0.80618 0.09804 -0.02442
 C562 C 0.78170 0.10356 0.00713
 H563 H 0.80101 0.11650 -0.05029
 H564 H 0.78681 0.08599 0.03360
 C565 C 0.67741 0.07535 0.00482
 C566 C 0.68674 0.10907 0.02307
 H567 H 0.69694 0.06647 -0.01979
 H568 H 0.66778 0.11909 0.04755
 C569 C 0.19802 0.56374 0.50506
 C570 C 0.20741 0.59922 0.51924
 H571 H 0.22095 0.54945 0.48608
 H572 H 0.18500 0.61521 0.53736
 C573 C 0.17814 0.40616 -0.02419
 C574 C 0.20711 0.40192 0.00433
 H575 H 0.17812 0.38555 -0.04836
 H576 H 0.20798 0.42176 0.02908
 C577 C 0.67971 0.91967 0.48502
 C578 C 0.70020 0.90877 0.51781
 H579 H 0.69204 0.91132 0.45660
 H580 H 0.73206 0.90306 0.51957
 C581 C 0.81553 0.92224 0.49998
 C582 C 0.80440 0.89017 0.52051
 H583 H 0.79458 0.93274 0.47650
 H584 H 0.82371 0.87922 0.54486
 C585 C 0.30813 0.42447 -0.01358
 C586 C 0.30322 0.38972 0.00484
 H587 H 0.28330 0.43547 -0.03330
 H588 H 0.32771 0.37739 0.02406
 C589 C 0.59347 0.47728 0.29713
 C590 C 0.59543 0.51044 0.27515
 H591 H 0.61317 0.45202 0.28976
 H592 H 0.57632 0.53618 0.28220
 C593 C 0.08187 -0.02373 0.82588
 C594 C 0.08350 0.00396 0.79772
 H595 H 0.10387 -0.04864 0.82511
 H596 H 0.06175 0.02902 0.79747
 C597 C 0.08368 0.02540 0.68391
 C598 C 0.08410 -0.00321 0.71128
 H599 H 0.10567 0.05006 0.68635
 H600 H 0.06247 -0.02818 0.70944
 C601 C 0.56455 0.50976 0.17599
 C602 C 0.59647 0.53242 0.18859
 H603 H 0.55785 0.48203 0.19127
 H604 H 0.60445 0.56020 0.17408
 C605 C 0.40672 -0.02628 0.18764
 C606 C 0.41147 -0.00372 0.21905
 H607 H 0.37950 -0.04611 0.18597
 H608 H 0.43805 0.01669 0.22137
 C609 C 0.91679 0.46964 0.67758
 C610 C 0.91699 0.49868 0.70394
 H611 H 0.89569 0.44450 0.68192
 H612 H 0.93745 0.52430 0.70004
 C613 C 0.91702 0.53240 0.81746
 C614 C 0.92056 0.50327 0.79122
 H615 H 0.89186 0.55442 0.81439
 H616 H 0.94564 0.48122 0.79367
 C617 C 0.40333 0.02746 0.33002
 C618 C 0.40266 -0.00406 0.30640
 H619 H 0.38292 0.05274 0.32340
 H620 H 0.42304 -0.02952 0.31203
   
