data_POSCAR
  _audit_creation_date              2014-09-24
  _audit_creation_method            'ToBaCCo'
  _symmetry_space_group_name_H-M    'P1'
  _symmetry_Int_Tables_number       1
  _symmetry_cell_setting            triclinic
  loop_
  _symmetry_equiv_pos_as_xyz
 x,y,z
_cell_length_a 38.0071
_cell_length_b 38.0159
_cell_length_c 38.0360
_cell_angle_alpha 74.971600
_cell_angle_beta 104.858900
_cell_angle_gamma 74.902900
loop_
  _atom_site_label
  _atom_site_type_symbol
  _atom_site_fract_x
  _atom_site_fract_y
  _atom_site_fract_z
O1 O 0.55759 0.48352 0.03784
 O2 O 0.45476 0.49921 0.02584
 O3 O 0.51479 0.43973 0.03850
 O4 O 0.49751 0.54302 0.02518
 O5 O 0.48312 0.55700 -0.03814
 O6 O 0.50039 0.45371 -0.02482
 O7 O 0.44036 0.51319 -0.03747
 O8 O 0.54319 0.49749 -0.02548
 Cu9 Cu 0.50761 0.48998 0.03823
 Cu10 Cu 0.49033 0.50675 -0.03786
 C11 C 0.56768 0.48817 0.00813
 C12 C 0.43026 0.50852 -0.00776
 C13 C 0.51016 0.42935 0.00901
 C14 C 0.48770 0.56738 -0.00866
 O15 O 0.02610 0.54624 0.50073
 O16 O 0.03658 0.44362 0.51720
 O17 O 0.02442 0.50301 0.45743
 O18 O 0.03825 0.48684 0.56054
 O19 O -0.02520 0.50236 0.54692
 O20 O -0.03903 0.51853 0.44380
 O21 O -0.02687 0.45913 0.50358
 O22 O -0.03734 0.56179 0.48712
 Cu23 Cu 0.03773 0.49338 0.51034
 Cu24 Cu -0.03851 0.51201 0.49400
 C25 C -0.00731 0.57129 0.49145
 C26 C 0.00655 0.43411 0.51283
 C27 C -0.00957 0.51316 0.43328
 C28 C 0.00879 0.49218 0.57107
 O29 O 0.50106 0.02378 0.54237
 O30 O 0.48628 0.03604 0.43972
 O31 O 0.44197 0.03669 0.48212
 O32 O 0.54537 0.02309 0.49999
 O33 O 0.55928 -0.04030 0.51429
 O34 O 0.45587 -0.02669 0.49641
 O35 O 0.50018 -0.02734 0.45402
 O36 O 0.51495 -0.03960 0.55668
 Cu37 Cu 0.49228 0.03629 0.48962
 Cu38 Cu 0.50896 -0.03987 0.50678
 C39 C 0.51017 -0.00991 0.56679
 C40 C 0.49107 0.00635 0.42961
 C41 C 0.43153 0.00722 0.48658
 C42 C 0.56971 -0.01083 0.50983
 C43 C 0.50409 -0.00755 -0.03696
 C44 C 0.49606 -0.03472 -0.01007
 C45 C 0.49262 -0.02837 0.02377
 C46 C 0.49701 0.00479 0.03108
 C47 C 0.50499 0.03198 0.00417
 C48 C 0.50847 0.02562 -0.02965
 H49 H 0.51454 0.04662 -0.05042
 H50 H 0.48652 -0.04936 0.04453
 C51 C -0.00705 0.50507 1.03626
 C52 C -0.03392 0.49693 1.00930
 C53 C -0.02683 0.49283 0.97595
 C54 C 0.00678 0.49664 0.96923
 C55 C 0.03369 0.50467 0.99624
 C56 C 0.02658 0.50884 1.02956
 H57 H 0.04735 0.51497 1.05042
 H58 H -0.04758 0.48667 0.95510
 C59 C 0.03356 0.00929 0.49572
 C60 C 0.00662 0.03585 0.50437
 C61 C -0.02651 0.02844 0.50881
 C62 C -0.03306 -0.00514 0.50479
 C63 C -0.00609 -0.03172 0.49621
 C64 C 0.02703 -0.02431 0.49174
 H65 H 0.04785 -0.04483 0.48518
 H66 H -0.04735 0.04896 0.51536
 C67 C -0.39263 0.48378 1.01244
 C68 C -0.35958 0.48111 1.01556
 C69 C -0.32050 0.47902 1.01860
 C70 C -0.30665 0.47338 0.98904
 C71 C -0.26939 0.47322 0.99094
 C72 C -0.24545 0.47877 1.02246
 C73 C -0.25948 0.48398 1.05227
 C74 C -0.29677 0.48411 1.05031
 C75 C -0.20646 0.48012 1.02359
 C76 C -0.19326 0.50777 1.03584
 C77 C -0.15743 0.51033 1.03495
 C78 C -0.13432 0.48528 1.02189
 C79 C -0.14686 0.45722 1.01034
 C80 C -0.18264 0.45460 1.01121
 C81 C -0.09856 0.48933 1.01870
 C82 C -0.06896 0.49280 1.01496
 H83 H -0.32486 0.46968 0.96423
 H84 H -0.25970 0.46973 0.96724
 H85 H -0.24160 0.48788 1.07711
 H86 H -0.30723 0.48855 1.07334
 H87 H -0.21111 0.52813 1.04507
 H88 H -0.14806 0.53226 1.04380
 H89 H -0.12917 0.43767 1.00021
 H90 H -0.19172 0.43266 1.00213
 C91 C 0.39273 0.51259 0.98816
 C92 C 0.35967 0.51522 0.98497
 C93 C 0.32059 0.51719 0.98183
 C94 C 0.30775 0.48773 0.97420
 C95 C 0.27047 0.48848 0.97293
 C96 C 0.24552 0.51874 0.97938
 C97 C 0.25850 0.54856 0.98644
 C98 C 0.29580 0.54775 0.98767
 C99 C 0.20672 0.51839 0.98012
 C100 C 0.19304 0.52864 1.00842
 C101 C 0.15730 0.52677 1.01028
 C102 C 0.13470 0.51469 0.98391
 C103 C 0.14776 0.50488 0.95533
 C104 C 0.18356 0.50670 0.95342
 C105 C 0.09868 0.51141 0.98707
 C106 C 0.06890 0.50843 0.99074
 H107 H 0.32677 0.46383 0.96982
 H108 H 0.26157 0.46482 0.96797
 H109 H 0.23980 0.57249 0.99103
 H110 H 0.30544 0.57073 0.99357
 H111 H 0.21040 0.53717 1.02975
 H112 H 0.14753 0.53426 1.03264
 H113 H 0.13046 0.49552 0.93474
 H114 H 0.19309 0.49905 0.93104
 C115 C -0.01080 -0.39122 0.48697
 C116 C -0.01339 -0.35819 0.48393
 C117 C -0.01569 -0.31916 0.48139
 C118 C -0.04987 -0.29245 0.47972
 C119 C -0.05140 -0.25510 0.47904
 C120 C -0.01869 -0.24401 0.48005
 C121 C 0.01539 -0.27099 0.48135
 C122 C 0.01685 -0.30828 0.48204
 C123 C -0.01965 -0.20485 0.48069
 C124 C -0.00123 -0.18443 0.45968
 C125 C -0.00036 -0.14851 0.46185
 C126 C -0.01794 -0.13244 0.48494
 C127 C -0.03699 -0.15213 0.50539
 C128 C -0.03788 -0.18810 0.50327
 C129 C -0.01500 -0.09653 0.48872
 C130 C -0.01147 -0.06684 0.49208
 H131 H -0.07522 -0.30059 0.47926
 H132 H -0.07817 -0.23486 0.47761
 H133 H 0.04124 -0.26359 0.48277
 H134 H 0.04354 -0.32881 0.48361
 H135 H 0.01257 -0.19625 0.44160
 H136 H 0.01442 -0.13348 0.44586
 H137 H -0.05057 -0.14001 0.52346
 H138 H -0.05190 -0.20329 0.52014
 C139 C 0.01028 0.39451 0.51739
 C140 C 0.01302 0.36151 0.52016
 C141 C 0.01571 0.32248 0.52233
 C142 C 0.04838 0.29762 0.51945
 C143 C 0.05011 0.26036 0.51962
 C144 C 0.01911 0.24751 0.52265
 C145 C -0.01340 0.27259 0.52598
 C146 C -0.01507 0.30981 0.52579
 C147 C 0.02010 0.20855 0.52132
 C148 C 0.00562 0.18581 0.54532
 C149 C 0.00480 0.15002 0.54271
 C150 C 0.01848 0.13640 0.51617
 C151 C 0.03356 0.15844 0.49262
 C152 C 0.03442 0.19428 0.49518
 C153 C 0.01552 0.10057 0.51212
 C154 C 0.01201 0.07092 0.50861
 H155 H 0.07236 0.30715 0.51671
 H156 H 0.07571 0.24159 0.51746
 H157 H -0.03798 0.26381 0.52777
 H158 H -0.04062 0.32891 0.52776
 H159 H -0.00511 0.19573 0.56610
 H160 H -0.00692 0.13316 0.56110
 H161 H 0.04406 0.14825 0.47184
 H162 H 0.04530 0.21129 0.47597
 C163 C 0.51390 -0.01407 -0.39576
 C164 C 0.51620 -0.01732 -0.36278
 C165 C 0.51777 -0.02052 -0.32381
 C166 C 0.48753 -0.02700 -0.31161
 C167 C 0.48796 -0.02837 -0.27442
 C168 C 0.51865 -0.02318 -0.24891
 C169 C 0.54922 -0.01725 -0.26126
 C170 C 0.54874 -0.01592 -0.29848
 C171 C 0.51805 -0.02261 -0.21015
 C172 C 0.52930 0.00489 -0.19585
 C173 C 0.52726 0.00658 -0.16014
 C174 C 0.51403 -0.01918 -0.13817
 C175 C 0.50320 -0.04697 -0.15186
 C176 C 0.50518 -0.04869 -0.18764
 C177 C 0.51068 -0.01622 -0.10212
 C178 C 0.50772 -0.01278 -0.07228
 H179 H 0.46332 -0.03042 -0.33106
 H180 H 0.46375 -0.03244 -0.26601
 H181 H 0.57349 -0.01364 -0.24213
 H182 H 0.57232 -0.01092 -0.30762
 H183 H 0.53878 0.02573 -0.21271
 H184 H 0.53555 0.02831 -0.14988
 H185 H 0.49297 -0.06709 -0.13504
 H186 H 0.49675 -0.07047 -0.19765
 C187 C 0.48715 0.01076 0.39003
 C188 C 0.48494 0.01401 0.35707
 C189 C 0.48345 0.01725 0.31812
 C190 C 0.45219 0.01330 0.29251
 C191 C 0.45174 0.01472 0.25527
 C192 C 0.48261 0.02009 0.24318
 C193 C 0.51360 0.02461 0.26897
 C194 C 0.51400 0.02315 0.30618
 C195 C 0.48319 0.01963 0.20439
 C196 C 0.49667 0.04531 0.18221
 C197 C 0.49863 0.04366 0.14640
 C198 C 0.48715 0.01635 0.13234
 C199 C 0.47330 -0.00899 0.15397
 C200 C 0.47130 -0.00738 0.18972
 C201 C 0.49047 0.01344 0.09627
 C202 C 0.49340 0.01000 0.06642
 H203 H 0.42837 0.00876 0.30143
 H204 H 0.42724 0.01164 0.23592
 H205 H 0.53805 0.02823 0.26077
 H206 H 0.53844 0.02607 0.32584
 H207 H 0.50561 0.06672 0.19251
 H208 H 0.50935 0.06346 0.12986
 H209 H 0.46451 -0.03037 0.14343
 H210 H 0.46135 -0.02793 0.20631
 C211 C 0.48269 -0.39274 -0.01348
 C212 C 0.47956 -0.35952 -0.01703
 C213 C 0.47699 -0.32025 -0.02054
 C214 C 0.46998 -0.30584 0.00827
 C215 C 0.46960 -0.26847 0.00610
 C216 C 0.47629 -0.24499 -0.02494
 C217 C 0.48278 -0.25955 -0.05405
 C218 C 0.48314 -0.29696 -0.05182
 C219 C 0.47769 -0.20603 -0.02615
 C220 C 0.50625 -0.19345 -0.03719
 C221 C 0.50899 -0.15774 -0.03612
 C222 C 0.48322 -0.13414 -0.02410
 C223 C 0.45423 -0.14601 -0.01385
 C224 C 0.45143 -0.18168 -0.01490
 C225 C 0.48758 -0.09865 -0.02045
 C226 C 0.49141 -0.06935 -0.01628
 H227 H 0.46546 -0.32373 0.03276
 H228 H 0.46510 -0.25836 0.02927
 H229 H 0.48759 -0.24203 -0.07852
 H230 H 0.48865 -0.30786 -0.07426
 H231 H 0.52719 -0.21173 -0.04552
 H232 H 0.53165 -0.14889 -0.04394
 H233 H 0.43413 -0.12794 -0.00451
 H234 H 0.42881 -0.19029 -0.00676
 C235 C 0.51496 0.38952 0.01382
 C236 C 0.51783 0.35635 0.01733
 C237 C 0.51997 0.31720 0.02077
 C238 C 0.55048 0.29247 0.01481
 C239 C 0.55130 0.25515 0.01611
 C240 C 0.52153 0.24213 0.02334
 C241 C 0.49136 0.26699 0.02997
 C242 C 0.49060 0.30427 0.02865
 C243 C 0.52103 0.20344 0.02240
 C244 C 0.50933 0.18015 0.04909
 C245 C 0.50714 0.14458 0.04686
 C246 C 0.51661 0.13188 0.01796
 C247 C 0.52877 0.15457 -0.00836
 C248 C 0.53099 0.19009 -0.00618
 C249 C 0.51280 0.09620 0.01436
 C250 C 0.50934 0.06674 0.01026
 H251 H 0.57338 0.30218 0.00871
 H252 H 0.57516 0.23652 0.01136
 H253 H 0.46774 0.25806 0.03506
 H254 H 0.46673 0.32327 0.03311
 H255 H 0.50189 0.18944 0.07167
 H256 H 0.49773 0.12720 0.06740
 H257 H 0.53598 0.14508 -0.03095
 H258 H 0.53952 0.20757 -0.02750
 C259 C -0.39039 -0.01573 0.51489
 C260 C -0.35717 -0.01928 0.51797
 C261 C -0.31795 -0.02271 0.52036
 C262 C -0.30393 -0.03280 0.49239
 C263 C -0.26666 -0.03397 0.49319
 C264 C -0.24292 -0.02497 0.52199
 C265 C -0.25701 -0.01557 0.55042
 C266 C -0.29431 -0.01442 0.54956
 C267 C -0.20433 -0.02379 0.52134
 C268 C -0.19222 0.00630 0.52890
 C269 C -0.15676 0.00860 0.52655
 C270 C -0.13287 -0.01911 0.51668
 C271 C -0.14434 -0.04948 0.50959
 C272 C -0.17987 -0.05183 0.51190
 C273 C -0.09720 -0.01548 0.51279
 C274 C -0.06778 -0.01133 0.50924
 H275 H -0.32208 -0.03906 0.46953
 H276 H -0.25689 -0.04079 0.47060
 H277 H -0.23925 -0.00897 0.57323
 H278 H -0.30487 -0.00659 0.57136
 H279 H -0.21062 0.02865 0.53564
 H280 H -0.14823 0.03232 0.53191
 H281 H -0.12601 -0.07111 0.50197
 H282 H -0.18819 -0.07556 0.50634
 C283 C 0.39162 0.01215 0.48149
 C284 C 0.35837 0.01581 0.47835
 C285 C 0.31907 0.01947 0.47583
 C286 C 0.30426 -0.00880 0.46799
 C287 C 0.26689 -0.00655 0.46773
 C288 C 0.24383 0.02404 0.47540
 C289 C 0.25879 0.05264 0.48271
 C290 C 0.29618 0.05033 0.48293
 C291 C 0.20490 0.02527 0.47699
 C292 C 0.19277 0.03536 0.50617
 C293 C 0.15706 0.03434 0.50902
 C294 C 0.13301 0.02333 0.48274
 C295 C 0.14446 0.01401 0.45316
 C296 C 0.18013 0.01500 0.45025
 C297 C 0.09750 0.01972 0.48715
 C298 C 0.06818 0.01556 0.49102
 H299 H 0.32183 -0.03296 0.46274
 H300 H 0.25647 -0.02933 0.46258
 H301 H 0.24158 0.07676 0.48827
 H302 H 0.30740 0.07235 0.48909
 H303 H 0.21137 0.04290 0.52749
 H304 H 0.14856 0.04141 0.53215
 H305 H 0.12605 0.00545 0.43266
 H306 H 0.18840 0.00760 0.42717
 C307 C -0.01460 0.51755 1.39353
 C308 C -0.01830 0.52006 1.36044
 C309 C -0.02197 0.52181 1.32137
 C310 C -0.01696 0.55255 1.29601
 C311 C -0.01850 0.55303 1.25875
 C312 C -0.02502 0.52269 1.24641
 C313 C -0.03070 0.49228 1.27191
 C314 C -0.02913 0.49186 1.30914
 C315 C -0.02434 0.52188 1.20776
 C316 C -0.05069 0.50939 1.18521
 C317 C -0.04869 0.50696 1.14965
 C318 C -0.02036 0.51696 1.13624
 C319 C 0.00561 0.52989 1.15821
 C320 C 0.00365 0.53237 1.19370
 C321 C -0.01697 0.51296 1.10056
 C322 C -0.01302 0.50941 1.07109
 H323 H -0.01142 0.57589 1.30518
 H324 H -0.01449 0.57707 1.23962
 H325 H -0.03523 0.46824 1.26350
 H326 H -0.03285 0.46782 1.32862
 H327 H -0.07283 0.50153 1.19505
 H328 H -0.06898 0.49697 1.13281
 H329 H 0.02777 0.53753 1.14816
 H330 H 0.02471 0.54152 1.21062
 C331 C 0.01383 0.48766 0.61086
 C332 C 0.01756 0.48497 0.64399
 C333 C 0.02126 0.48296 0.68313
 C334 C 0.01770 0.45134 0.70876
 C335 C 0.01933 0.45048 0.74613
 C336 C 0.02451 0.48131 0.75833
 C337 C 0.02872 0.51263 0.73254
 C338 C 0.02707 0.51343 0.69520
 C339 C 0.02396 0.48161 0.79715
 C340 C 0.04940 0.49522 0.81932
 C341 C 0.04745 0.49719 0.85503
 C342 C 0.02009 0.48559 0.86898
 C343 C -0.00495 0.47152 0.84741
 C344 C -0.00304 0.46951 0.81176
 C345 C 0.01664 0.48921 0.90477
 C346 C 0.01268 0.49250 0.93432
 H347 H 0.01322 0.42759 0.69972
 H348 H 0.01647 0.42576 0.76548
 H349 H 0.03219 0.53704 0.74083
 H350 H 0.02967 0.53813 0.67551
 H351 H 0.07078 0.50434 0.80905
 H352 H 0.06699 0.50810 0.87154
 H353 H -0.02636 0.46265 0.85787
 H354 H -0.02340 0.45946 0.79515
   
