data_POSCAR
  _audit_creation_date              2014-09-24
  _audit_creation_method            'ToBaCCo'
  _symmetry_space_group_name_H-M    'P1'
  _symmetry_Int_Tables_number       1
  _symmetry_cell_setting            triclinic
  loop_
  _symmetry_equiv_pos_as_xyz
 x,y,z
_cell_length_a 46.5573
_cell_length_b 47.7149
_cell_length_c 34.8345
_cell_angle_alpha 91.177000
_cell_angle_beta 91.446500
_cell_angle_gamma 117.068700
loop_
  _atom_site_label
  _atom_site_type_symbol
  _atom_site_fract_x
  _atom_site_fract_y
  _atom_site_fract_z
C1 C 0.02320 0.48991 0.09550
 C2 C -0.00092 0.46035 0.08232
 C3 C -0.01207 0.45592 0.04401
 C4 C 0.00087 0.48049 0.01835
 C5 C 0.02464 0.51018 0.03173
 C6 C 0.03628 0.51506 0.07022
 C7 C -0.01033 0.47429 -0.02249
 C8 C -0.02331 0.49218 -0.04065
 C9 C -0.03692 0.48408 -0.07830
 C10 C -0.03715 0.45757 -0.09755
 C11 C -0.02480 0.43897 -0.07922
 C12 C -0.01082 0.44817 -0.04208
 H13 H 0.03063 0.49337 0.12563
 H14 H -0.03104 0.43314 0.03407
 H15 H 0.03454 0.52927 0.01198
 H16 H -0.02378 0.51178 -0.02485
 H17 H -0.04941 0.44995 -0.12526
 H18 H -0.00135 0.43411 -0.02739
 C19 C 0.46498 0.54148 0.02873
 C20 C 0.49858 0.55578 0.03478
 C21 C 0.51526 0.53842 0.02665
 C22 C 0.49924 0.50772 0.00978
 C23 C 0.46536 0.49372 0.00418
 C24 C 0.44814 0.51029 0.01456
 C25 C 0.51828 0.49102 -0.00224
 C26 C 0.50496 0.45785 -0.00303
 C27 C 0.52365 0.44292 -0.01387
 C28 C 0.55615 0.46116 -0.02197
 C29 C 0.56987 0.49421 -0.02213
 C30 C 0.55035 0.50864 -0.01344
 H31 H 0.45156 0.55405 0.03691
 H32 H 0.54096 0.54924 0.03333
 H33 H 0.45234 0.47032 -0.00885
 H34 H 0.48038 0.44357 0.00515
 H35 H 0.56974 0.44901 -0.03089
 H36 H 0.56041 0.53394 -0.01552
 C37 C 0.44190 0.94184 0.05825
 C38 C 0.42070 0.95130 0.04019
 C39 C 0.42954 0.96756 0.00596
 C40 C 0.45926 0.97403 -0.01070
 C41 C 0.47985 0.96369 0.00794
 C42 C 0.47177 0.94856 0.04293
 C43 C 0.46896 0.99174 -0.04706
 C44 C 0.50182 1.01067 -0.05433
 C45 C 0.51108 1.02792 -0.08778
 C46 C 0.48726 1.02587 -0.11479
 C47 C 0.45423 1.00802 -0.10779
 C48 C 0.44547 0.99076 -0.07417
 H49 H 0.43446 0.92786 0.08358
 H50 H 0.41330 0.97550 -0.00701
 H51 H 0.50227 0.96727 -0.00455
 H52 H 0.52044 1.01326 -0.03328
 H53 H 0.49478 1.03953 -0.14025
 H54 H 0.42009 0.97633 -0.06946
 C55 C 0.94298 0.46322 0.57537
 C56 C 0.94955 0.48998 0.55413
 C57 C 0.97613 0.50149 0.53051
 C58 C 0.99734 0.48774 0.52989
 C59 C 0.99076 0.46149 0.55271
 C60 C 0.96376 0.44939 0.57562
 C61 C 1.02700 0.50156 0.50695
 C62 C 1.03953 0.48220 0.49105
 C63 C 1.06850 0.49526 0.47177
 C64 C 1.08450 0.52786 0.46697
 C65 C 1.07219 0.54775 0.48160
 C66 C 1.04340 0.53431 0.50150
 H67 H 0.92127 0.45258 0.59156
 H68 H 0.98034 0.52139 0.51303
 H69 H 1.00709 0.45105 0.55385
 H70 H 1.02678 0.45689 0.49348
 H71 H 1.10532 0.53720 0.44923
 H72 H 1.03441 0.54969 0.51380
 C73 C 0.52301 0.50880 0.61124
 C74 C 0.51304 0.48416 0.58325
 C75 C 0.50895 0.49031 0.54483
 C76 C 0.51497 0.52063 0.53413
 C77 C 0.52502 0.54496 0.56238
 C78 C 0.52915 0.53926 0.60090
 C79 C 0.50953 0.52666 0.49375
 C80 C 0.53271 0.55324 0.47594
 C81 C 0.52750 0.55946 0.43800
 C82 C 0.49827 0.53957 0.41839
 C83 C 0.47424 0.51378 0.43629
 C84 C 0.48046 0.50678 0.47353
 H85 H 0.52411 0.50407 0.64131
 H86 H 0.50092 0.47140 0.52314
 H87 H 0.52871 0.56821 0.55457
 H88 H 0.55492 0.56897 0.49151
 H89 H 0.49364 0.54486 0.38951
 H90 H 0.46198 0.48691 0.48754
 C91 C 0.52479 0.09667 0.52056
 C92 C 0.54197 0.08122 0.53535
 C93 C 0.53167 0.04942 0.52522
 C94 C 0.50510 0.03305 0.49978
 C95 C 0.48793 0.04861 0.48562
 C96 C 0.49726 0.08020 0.49630
 C97 C 0.49588 -0.00003 0.48754
 C98 C 0.46326 -0.02256 0.48502
 C99 C 0.45456 -0.05387 0.47376
 C100 C 0.47873 -0.06284 0.46643
 C101 C 0.51160 -0.04060 0.46806
 C102 C 0.51978 -0.00912 0.47814
 H103 H 0.53272 0.12130 0.52760
 H104 H 0.54475 0.03743 0.53682
 H105 H 0.46759 0.03631 0.46552
 H106 H 0.44477 -0.01576 0.49230
 H107 H 0.47129 -0.08691 0.45670
 H108 H 0.54489 0.00844 0.47878
 O109 O 0.25315 0.43138 0.24995
 O110 O 0.17488 0.40623 0.19758
 O111 O 0.23094 0.40754 0.18067
 O112 O 0.19786 0.42797 0.26576
 O113 O 0.21509 0.47634 0.24533
 O114 O 0.24643 0.45535 0.15940
 O115 O 0.19136 0.45441 0.17700
 O116 O 0.26970 0.47906 0.22765
 Cu117 Cu 0.21256 0.41321 0.22498
 Cu118 Cu 0.23226 0.47098 0.19987
 C119 C 0.27455 0.45984 0.24815
 C120 C 0.16937 0.42640 0.17984
 C121 C 0.24485 0.42814 0.15593
 C122 C 0.20113 0.45577 0.27011
 O123 O 0.60175 0.78472 0.20330
 O124 O 0.59942 0.82918 0.29109
 O125 O 0.60836 0.77947 0.27688
 O126 O 0.59646 0.83654 0.21692
 O127 O 0.54372 0.80873 0.22129
 O128 O 0.55568 0.74887 0.27388
 O129 O 0.54720 0.79726 0.29337
 O130 O 0.54857 0.75829 0.20272
 Cu131 Cu 0.60687 0.81056 0.24695
 Cu132 Cu 0.54353 0.77551 0.24799
 C133 C 0.57523 0.76394 0.18808
 C134 C 0.57262 0.82011 0.30739
 C135 C 0.58400 0.75392 0.28437
 C136 C 0.56801 0.83261 0.20957
 O137 O 0.22743 0.80394 0.22091
 O138 O 0.17636 0.75452 0.29733
 O139 O 0.22501 0.81067 0.29483
 O140 O 0.17787 0.74707 0.22296
 O141 O 0.21144 0.72664 0.23224
 O142 O 0.25825 0.78976 0.30384
 O143 O 0.21062 0.73477 0.30598
 O144 O 0.26066 0.78310 0.23030
 Cu145 Cu 0.19819 0.78101 0.25778
 Cu146 Cu 0.23858 0.75645 0.26856
 C147 C 0.25327 0.80238 0.21350
 C148 C 0.18531 0.73664 0.31510
 C149 C 0.24953 0.81078 0.31181
 C150 C 0.18627 0.72567 0.21598
 O151 O 0.79085 0.56931 0.68326
 O152 O 0.76638 0.58656 0.77750
 O153 O 0.81369 0.57601 0.75317
 O154 O 0.74324 0.57942 0.70679
 O155 O 0.71320 0.52901 0.71740
 O156 O 0.78431 0.52491 0.76030
 O157 O 0.73886 0.53543 0.78590
 O158 O 0.75964 0.51858 0.69071
 Cu159 Cu 0.78141 0.58301 0.72933
 Cu160 Cu 0.74596 0.52185 0.73910
 C161 C 0.77952 0.54081 0.67130
 C162 C 0.74886 0.56370 0.79795
 C163 C 0.81098 0.54980 0.76446
 C164 C 0.71612 0.55496 0.70490
 O165 O 0.40786 0.17853 0.75967
 O166 O 0.44108 0.25625 0.71530
 O167 O 0.42924 0.20009 0.69244
 O168 O 0.41816 0.23582 0.78164
 O169 O 0.46804 0.24797 0.80131
 O170 O 0.47715 0.20719 0.71422
 O171 O 0.49028 0.26502 0.73386
 O172 O 0.45665 0.19047 0.78356
 Cu173 Cu 0.41901 0.21644 0.73539
 Cu174 Cu 0.47788 0.22844 0.76036
 C175 C 0.42685 0.17159 0.77952
 C176 C 0.47145 0.27371 0.71683
 C177 C 0.45490 0.19753 0.68802
 C178 C 0.44155 0.24905 0.80599
 O179 O 0.75197 0.19659 0.72475
 O180 O 0.81518 0.21737 0.80108
 O181 O 0.75246 0.17606 0.79392
 O182 O 0.81315 0.23342 0.73209
 O183 O 0.80292 0.27079 0.75692
 O184 O 0.73944 0.21264 0.81467
 O185 O 0.80078 0.25190 0.82589
 O186 O 0.74113 0.23436 0.74671
 Cu187 Cu 0.78400 0.20167 0.76117
 Cu188 Cu 0.76976 0.24595 0.78849
 C189 C 0.73625 0.21243 0.72233
 C190 C 0.81948 0.23923 0.82546
 C191 C 0.73485 0.18427 0.81374
 C192 C 0.81894 0.26208 0.73482
 C193 C -0.01713 0.43448 0.10862
 C194 C -0.00234 0.42208 0.13376
 C195 C 0.03194 0.42819 0.13573
 C196 C 0.04306 0.41963 0.16914
 C197 C 0.07420 0.42241 0.17203
 C198 C 0.09512 0.43405 0.14155
 C199 C 0.08436 0.44299 0.10822
 C200 C 0.05279 0.43941 0.10490
 C201 C 0.12864 0.43853 0.14527
 C202 C 0.13642 0.41756 0.16497
 H203 H -0.01830 0.40501 0.15328
 H204 H 0.02748 0.41055 0.19317
 H205 H 0.08209 0.41600 0.19846
 H206 H 0.10016 0.45202 0.08437
 H207 H 0.04483 0.44464 0.07784
 H208 H 0.14765 0.45947 0.13371
 H209 H -0.04324 0.42395 0.10831
 H210 H 0.11727 0.39526 0.17327
 C211 C 0.51648 0.58827 0.05136
 C212 C 0.50661 0.61136 0.04419
 C213 C 0.52027 0.64277 0.06415
 C214 C 0.54876 0.65516 0.08756
 C215 C 0.55861 0.68357 0.10865
 C216 C 0.54018 0.70011 0.10664
 C217 C 0.51267 0.68843 0.08197
 C218 C 0.50297 0.66025 0.06080
 C219 C 0.54620 0.72703 0.13307
 C220 C 0.57503 0.74496 0.15413
 H221 H 0.48627 0.60543 0.02426
 H222 H 0.56325 0.64289 0.09047
 H223 H 0.57972 0.69165 0.12776
 H224 H 0.49798 0.70064 0.08000
 H225 H 0.48107 0.65147 0.04284
 H226 H 0.52585 0.73167 0.13817
 H227 H 0.53783 0.59374 0.06915
 H228 H 0.59691 0.74356 0.14736
 C229 C 0.38849 0.94210 0.05597
 C230 C 0.38453 0.94027 0.09563
 C231 C 0.35441 0.91881 0.11406
 C232 C 0.35731 0.90940 0.15125
 C233 C 0.33059 0.88658 0.16878
 C234 C 0.30013 0.87285 0.14975
 C235 C 0.29661 0.88347 0.11348
 C236 C 0.32365 0.90607 0.09547
 C237 C 0.27238 0.84740 0.16787
 C238 C 0.27643 0.82395 0.18694
 H239 H 0.40615 0.95127 0.11411
 H240 H 0.38062 0.91896 0.16638
 H241 H 0.33382 0.87948 0.19725
 H242 H 0.27319 0.87352 0.09861
 H243 H 0.32039 0.91322 0.06711
 H244 H 0.24908 0.84733 0.16657
 H245 H 0.36783 0.93375 0.03610
 H246 H 0.29915 0.82297 0.18477
 C247 C 0.92886 0.50604 0.55685
 C248 C 0.91227 0.50459 0.59015
 C249 C 0.88770 0.51566 0.59384
 C250 C 0.86204 0.49894 0.61757
 C251 C 0.83961 0.50976 0.62539
 C252 C 0.84258 0.53792 0.61001
 C253 C 0.86813 0.55463 0.58585
 C254 C 0.89040 0.54335 0.57734
 C255 C 0.82169 0.55170 0.62331
 C256 C 0.79100 0.53249 0.63620
 H257 H 0.91586 0.49286 0.61472
 H258 H 0.85973 0.47771 0.63086
 H259 H 0.82100 0.49681 0.64524
 H260 H 0.87123 0.57670 0.57432
 H261 H 0.91042 0.55696 0.55950
 H262 H 0.83284 0.57682 0.62975
 H263 H 0.92680 0.51907 0.53275
 H264 H 0.77911 0.50790 0.62681
 C265 C 0.50409 0.45133 0.59352
 C266 C 0.51442 0.44340 0.62774
 C267 C 0.50245 0.41055 0.63990
 C268 C 0.52059 0.40380 0.66759
 C269 C 0.50944 0.37337 0.68105
 C270 C 0.47974 0.34898 0.66706
 C271 C 0.46140 0.35583 0.63976
 C272 C 0.47258 0.38625 0.62624
 C273 C 0.46643 0.31672 0.68168
 C274 C 0.48544 0.30473 0.69953
 H275 H 0.53265 0.46183 0.64606
 H276 H 0.54337 0.42223 0.67911
 H277 H 0.52380 0.36941 0.70312
 H278 H 0.43820 0.33761 0.62904
 H279 H 0.45730 0.39071 0.60595
 H280 H 0.44068 0.30170 0.67783
 H281 H 0.48923 0.43279 0.57286
 H282 H 0.51142 0.31847 0.70152
 C283 C 0.57080 0.09703 0.56135
 C284 C 0.59104 0.12941 0.56306
 C285 C 0.62116 0.14333 0.58720
 C286 C 0.63276 0.17408 0.60260
 C287 C 0.66037 0.18715 0.62700
 C288 C 0.67692 0.16960 0.63620
 C289 C 0.66624 0.13952 0.61907
 C290 C 0.63870 0.12649 0.59480
 C291 C 0.70490 0.18129 0.66382
 C292 C 0.71139 0.20501 0.69168
 H293 H 0.58472 0.14512 0.54706
 H294 H 0.62006 0.18777 0.59638
 H295 H 0.66851 0.21089 0.63841
 H296 H 0.67891 0.12576 0.62504
 H297 H 0.63136 0.10329 0.58196
 H298 H 0.71937 0.16880 0.66442
 H299 H 0.57717 0.08199 0.57875
 H300 H 0.69685 0.21733 0.69278
 C301 C 0.42997 0.00966 0.86881
 C302 C 0.43528 0.02291 0.83265
 C303 C 0.41759 0.03960 0.81744
 C304 C 0.41875 0.04582 0.77814
 C305 C 0.40922 0.06777 0.76438
 C306 C 0.39924 0.08440 0.78992
 C307 C 0.39563 0.07643 0.82869
 C308 C 0.40459 0.05409 0.84235
 C309 C 0.39777 0.11299 0.77701
 C310 C 0.41504 0.14126 0.79793
 H311 H 0.45520 0.02402 0.81628
 H312 H 0.42879 0.03505 0.75846
 H313 H 0.41220 0.07363 0.73438
 H314 H 0.38770 0.08884 0.84882
 H315 H 0.40373 0.05019 0.87288
 H316 H 0.39021 0.11362 0.74748
 H317 H 0.40627 0.00202 0.88039
 H318 H 0.42662 0.14104 0.82522
 C319 C 0.60172 0.51316 0.96698
 C320 C 0.62488 0.50236 0.96318
 C321 C 0.65507 0.51923 0.94248
 C322 C 0.65897 0.54230 0.91571
 C323 C 0.68518 0.55345 0.89162
 C324 C 0.70782 0.54160 0.89374
 C325 C 0.70493 0.52006 0.92201
 C326 C 0.67885 0.50902 0.94614
 C327 C 0.73097 0.54662 0.86326
 C328 C 0.73879 0.56944 0.83564
 H329 H 0.62075 0.48015 0.97510
 H330 H 0.64086 0.55031 0.91135
 H331 H 0.68622 0.56955 0.86966
 H332 H 0.72195 0.51043 0.92406
 H333 H 0.67641 0.49123 0.96643
 H334 H 0.73917 0.52883 0.85942
 H335 H 0.60883 0.53768 0.96163
 H336 H 0.73495 0.58996 0.84025
 C337 C 0.97099 0.40969 0.90559
 C338 C 0.95641 0.39633 0.86978
 C339 C 0.94143 0.36193 0.86146
 C340 C 0.93548 0.35062 0.82312
 C341 C 0.91688 0.31848 0.81434
 C342 C 0.90329 0.29722 0.84375
 C343 C 0.91053 0.30819 0.88217
 C344 C 0.92943 0.34026 0.89099
 C345 C 0.87829 0.26497 0.83344
 C346 C 0.84849 0.25310 0.85066
 H347 H 0.95421 0.41080 0.84756
 H348 H 0.94418 0.36682 0.79988
 H349 H 0.91134 0.31053 0.78447
 H350 H 0.90042 0.29219 0.90534
 H351 H 0.93281 0.34808 0.92087
 H352 H 0.87919 0.25558 0.80512
 H353 H 0.97774 0.39544 0.92400
 H354 H 0.84667 0.26405 0.87741
 C355 C 0.53601 0.95139 0.45732
 C356 C 0.53149 0.92033 0.45454
 C357 C 0.55252 0.91022 0.43331
 C358 C 0.54997 0.88031 0.44001
 C359 C 0.56421 0.86702 0.41570
 C360 C 0.58091 0.88324 0.38373
 C361 C 0.58574 0.91418 0.37875
 C362 C 0.57151 0.92757 0.40321
 C363 C 0.59022 0.86709 0.35336
 C364 C 0.56981 0.83570 0.34281
 H365 H 0.51104 0.90197 0.46792
 H366 H 0.53570 0.86656 0.46315
 H367 H 0.56096 0.84351 0.42104
 H368 H 0.59868 0.92718 0.35441
 H369 H 0.57370 0.95055 0.39692
 H370 H 0.60999 0.88094 0.33527
 H371 H 0.55955 0.97017 0.45127
 H372 H 0.54799 0.82303 0.35835
 C373 C 0.44210 0.49531 0.41690
 C374 C 0.42837 0.51027 0.39421
 C375 C 0.39732 0.49445 0.37189
 C376 C 0.38401 0.51335 0.35734
 C377 C 0.35604 0.50034 0.33382
 C378 C 0.34085 0.46800 0.32375
 C379 C 0.35351 0.44879 0.33922
 C380 C 0.38166 0.46188 0.36292
 C381 C 0.31159 0.45399 0.29791
 C382 C 0.30523 0.47159 0.27048
 H383 H 0.44100 0.53572 0.39331
 H384 H 0.39541 0.53845 0.36403
 H385 H 0.34633 0.51575 0.32389
 H386 H 0.34202 0.42375 0.33223
 H387 H 0.39140 0.44661 0.37323
 H388 H 0.29487 0.42930 0.30031
 H389 H 0.42851 0.47059 0.42273
 H390 H 0.32291 0.49563 0.26605
 C391 C 0.08707 0.58023 0.47478
 C392 C 0.11918 0.59659 0.46427
 C393 C 0.13313 0.62754 0.44631
 C394 C 0.11428 0.63753 0.42371
 C395 C 0.12910 0.66384 0.40084
 C396 C 0.16300 0.68058 0.40046
 C397 C 0.18152 0.67154 0.42488
 C398 C 0.16678 0.64525 0.44734
 C399 C 0.18037 0.70517 0.37262
 C400 C 0.16623 0.71747 0.34645
 H401 H 0.13523 0.58609 0.46883
 H402 H 0.08826 0.62398 0.42177
 H403 H 0.11394 0.66984 0.38226
 H404 H 0.20765 0.68399 0.42526
 H405 H 0.18183 0.63794 0.46438
 H406 H 0.20610 0.71287 0.37112
 H407 H 0.07333 0.59326 0.47834
 H408 H 0.14137 0.71296 0.34843
 C409 C 0.94722 0.50059 0.90606
 C410 C 0.93692 0.49809 0.86745
 C411 C 0.91314 0.50864 0.85406
 C412 C 0.91442 0.51935 0.81661
 C413 C 0.89014 0.52618 0.80190
 C414 C 0.86367 0.52158 0.82414
 C415 C 0.86244 0.51098 0.86162
 C416 C 0.88714 0.50495 0.87667
 C417 C 0.83592 0.52511 0.80782
 C418 C 0.83929 0.54830 0.78206
 H419 H 0.94656 0.48835 0.84595
 H420 H 0.93397 0.52189 0.79848
 H421 H 0.89135 0.53369 0.77261
 H422 H 0.84208 0.50695 0.87908
 H423 H 0.88508 0.49597 0.90530
 H424 H 0.81208 0.50959 0.81748
 H425 H 0.94233 0.51604 0.92510
 H426 H 0.86314 0.56634 0.77569
 C427 C 0.51003 0.40833 0.98086
 C428 C 0.48009 0.39009 0.96216
 C429 C 0.47226 0.35971 0.94157
 C430 C 0.45036 0.35029 0.90981
 C431 C 0.44591 0.32451 0.88607
 C432 C 0.46313 0.30735 0.89383
 C433 C 0.48367 0.31570 0.92676
 C434 C 0.48795 0.34135 0.95066
 C435 C 0.46273 0.28296 0.86638
 C436 C 0.43794 0.26703 0.83881
 H437 H 0.46451 0.40095 0.95637
 H438 H 0.43788 0.36390 0.90215
 H439 H 0.43030 0.31926 0.86063
 H440 H 0.49705 0.30275 0.93355
 H441 H 0.50410 0.34699 0.97564
 H442 H 0.48351 0.27839 0.86688
 H443 H 0.52689 0.39866 0.98402
 H444 H 0.41586 0.26926 0.83975
 C445 C 0.54573 0.04893 0.90652
 C446 C 0.55584 0.07790 0.88917
 C447 C 0.58991 0.10015 0.88243
 C448 C 0.61429 0.09058 0.87962
 C449 C 0.64568 0.11226 0.87044
 C450 C 0.65317 0.14384 0.86392
 C451 C 0.62894 0.15335 0.86780
 C452 C 0.59768 0.13174 0.87658
 C453 C 0.68529 0.16752 0.85191
 C454 C 0.70774 0.16020 0.83414
 H455 H 0.53784 0.08553 0.88164
 H456 H 0.60905 0.06630 0.88341
 H457 H 0.66381 0.10411 0.86838
 H458 H 0.63399 0.17750 0.86301
 H459 H 0.57936 0.13973 0.87848
 H460 H 0.68992 0.19194 0.85318
 H461 H 0.56346 0.04263 0.91891
 H462 H 0.70363 0.13605 0.83121
 C463 C 0.08083 0.47464 0.45398
 C464 C 0.11393 0.48507 0.45040
 C465 C 0.12812 0.47180 0.42223
 C466 C 0.15999 0.49085 0.41193
 C467 C 0.17356 0.48126 0.38240
 C468 C 0.15555 0.45221 0.36266
 C469 C 0.12441 0.43221 0.37447
 C470 C 0.11064 0.44195 0.40386
 C471 C 0.16862 0.44273 0.32942
 C472 C 0.18885 0.46476 0.30413
 H473 H 0.13037 0.50675 0.46568
 H474 H 0.17416 0.51377 0.42592
 H475 H 0.19807 0.49673 0.37489
 H476 H 0.11034 0.40945 0.36005
 H477 H 0.08634 0.42622 0.41162
 H478 H 0.16016 0.41785 0.32299
 H479 H 0.06344 0.45207 0.44170
 H480 H 0.19483 0.48938 0.30835
 C481 C 0.55077 0.58865 0.42041
 C482 C 0.55422 0.59008 0.38070
 C483 C 0.56220 0.61899 0.35935
 C484 C 0.57960 0.64946 0.37614
 C485 C 0.58230 0.67574 0.35632
 C486 C 0.56750 0.67186 0.31957
 C487 C 0.55146 0.64162 0.30230
 C488 C 0.54917 0.61552 0.32179
 C489 C 0.56569 0.69807 0.29982
 C490 C 0.58853 0.72952 0.30479
 H491 H 0.54449 0.56806 0.36404
 H492 H 0.59049 0.65306 0.40477
 H493 H 0.59459 0.69878 0.37050
 H494 H 0.53992 0.63809 0.27398
 H495 H 0.53569 0.59234 0.30817
 H496 H 0.54571 0.69211 0.27925
 H497 H 0.56203 0.60979 0.43860
 H498 H 0.61061 0.73601 0.32170
 C499 C 0.42053 0.92223 0.46760
 C500 C 0.39642 0.92946 0.45349
 C501 C 0.36586 0.90500 0.43546
 C502 C 0.35097 0.91320 0.40521
 C503 C 0.32503 0.88993 0.38360
 C504 C 0.31338 0.85801 0.39219
 C505 C 0.32697 0.85007 0.42393
 C506 C 0.35272 0.87331 0.44564
 C507 C 0.28972 0.83235 0.36663
 C508 C 0.26843 0.83587 0.34059
 H509 H 0.40217 0.95387 0.44951
 H510 H 0.36054 0.93747 0.39694
 H511 H 0.31546 0.89692 0.35904
 H512 H 0.31820 0.82566 0.43132
 H513 H 0.36272 0.86621 0.46972
 H514 H 0.28956 0.80959 0.36783
 H515 H 0.41578 0.89783 0.46788
 H516 H 0.26545 0.85708 0.34126
 C517 C 0.49368 0.93824 0.06265
 C518 C 0.49501 0.93740 0.10271
 C519 C 0.50778 0.91893 0.12437
 C520 C 0.53109 0.91080 0.11007
 C521 C 0.54062 0.89146 0.13102
 C522 C 0.52676 0.87984 0.16633
 C523 C 0.50401 0.88850 0.18074
 C524 C 0.49494 0.90814 0.16023
 C525 C 0.53368 0.85712 0.18774
 C526 C 0.56308 0.85604 0.18739
 H527 H 0.48238 0.94768 0.11895
 H528 H 0.54186 0.91913 0.08280
 H529 H 0.55794 0.88481 0.11897
 H530 H 0.49299 0.87979 0.20784
 H531 H 0.47697 0.91410 0.17190
 H532 H 0.51520 0.84148 0.20622
 H533 H 0.50740 0.92992 0.04533
 H534 H 0.58308 0.87336 0.17221
 C535 C 0.41251 0.49577 0.01238
 C536 C 0.39315 0.46473 0.02246
 C537 C 0.35999 0.45454 0.03582
 C538 C 0.34874 0.43265 0.06496
 C539 C 0.32033 0.42694 0.08340
 C540 C 0.30244 0.44285 0.07263
 C541 C 0.31241 0.46284 0.04146
 C542 C 0.34074 0.46846 0.02299
 C543 C 0.27627 0.44267 0.09617
 C544 C 0.26106 0.42089 0.12430
 H545 H 0.40445 0.44968 0.02799
 H546 H 0.36302 0.42146 0.07521
 H547 H 0.31379 0.41165 0.10754
 H548 H 0.29895 0.47519 0.03238
 H549 H 0.34803 0.48456 -0.00038
 H550 H 0.27087 0.46240 0.09362
 H551 H 0.40189 0.51172 0.01054
 H552 H 0.26352 0.39945 0.12542
 C553 C 0.06097 0.54690 0.08345
 C554 C 0.08186 0.55218 0.11532
 C555 C 0.10533 0.58393 0.13048
 C556 C 0.10204 0.61120 0.12271
 C557 C 0.12377 0.64043 0.13942
 C558 C 0.14907 0.64297 0.16454
 C559 C 0.15262 0.61583 0.17159
 C560 C 0.13090 0.58666 0.15499
 C561 C 0.17179 0.67297 0.18464
 C562 C 0.16580 0.69896 0.18976
 H563 H 0.08189 0.53213 0.12926
 H564 H 0.08232 0.61006 0.10457
 H565 H 0.12049 0.66079 0.13255
 H566 H 0.17192 0.61706 0.19070
 H567 H 0.13397 0.56606 0.16158
 H568 H 0.19301 0.67361 0.19901
 H569 H 0.06356 0.56655 0.06639
 H570 H 0.14427 0.69881 0.17720
 C571 C 0.47979 0.09593 0.47786
 C572 C 0.47570 0.12133 0.49252
 C573 C 0.48059 0.13387 0.53277
 C574 C 0.48567 0.16498 0.53880
 C575 C 0.48598 0.17697 0.57575
 C576 C 0.48139 0.15812 0.60766
 C577 C 0.47754 0.12737 0.60208
 C578 C 0.47645 0.11506 0.56481
 C579 C 0.47869 0.17000 0.64624
 C580 C 0.45864 0.18424 0.65118
 H581 H 0.46616 0.13216 0.47216
 H582 H 0.48851 0.17985 0.51464
 H583 H 0.48928 0.20086 0.57939
 H584 H 0.47367 0.11238 0.62634
 H585 H 0.47107 0.09058 0.56115
 H586 H 0.49040 0.16552 0.67094
 H587 H 0.47022 0.08773 0.44885
 H588 H 0.44396 0.18478 0.62683
 C589 C 0.53563 0.56427 0.63049
 C590 C 0.55396 0.56877 0.66448
 C591 C 0.57790 0.55688 0.67069
 C592 C 0.60024 0.55999 0.64266
 C593 C 0.62561 0.55275 0.65102
 C594 C 0.62868 0.54186 0.68732
 C595 C 0.60546 0.53737 0.71460
 C596 C 0.58062 0.54542 0.70660
 C597 C 0.65649 0.53626 0.69795
 C598 C 0.68784 0.55721 0.68859
 H599 H 0.55212 0.58381 0.68698
 H600 H 0.59887 0.56928 0.61494
 H601 H 0.64302 0.55602 0.62934
 H602 H 0.60737 0.52893 0.74272
 H603 H 0.56376 0.54312 0.72865
 H604 H 0.65287 0.51792 0.71791
 H605 H 0.52337 0.57870 0.62681
 H606 H 0.69192 0.57767 0.67222
 C607 C 0.95670 0.42224 0.60008
 C608 C 0.94587 0.42224 0.63713
 C609 C 0.92777 0.39381 0.65938
 C610 C 0.91212 0.36344 0.64200
 C611 C 0.89048 0.33800 0.66259
 C612 C 0.88420 0.34250 0.70097
 C613 C 0.90095 0.37257 0.71864
 C614 C 0.92244 0.39791 0.69809
 C615 C 0.85873 0.31743 0.72258
 C616 C 0.84487 0.28539 0.71246
 H617 H 0.94837 0.44437 0.64931
 H618 H 0.91507 0.35951 0.61198
 H619 H 0.87763 0.31536 0.64767
 H620 H 0.89664 0.37670 0.74815
 H621 H 0.93402 0.42109 0.71209
 H622 H 0.85070 0.32461 0.74822
 H623 H 0.95886 0.40212 0.58842
 H624 H 0.85421 0.27691 0.68929
   
