data_POSCAR
  _audit_creation_date              2014-09-24
  _audit_creation_method            'ToBaCCo'
  _symmetry_space_group_name_H-M    'P1'
  _symmetry_Int_Tables_number       1
  _symmetry_cell_setting            triclinic
  loop_
  _symmetry_equiv_pos_as_xyz
 x,y,z
_cell_length_a 64.7726
_cell_length_b 60.8394
_cell_length_c 64.7236
_cell_angle_alpha 89.781900
_cell_angle_beta 90.228000
_cell_angle_gamma 90.259000
loop_
  _atom_site_label
  _atom_site_type_symbol
  _atom_site_fract_x
  _atom_site_fract_y
  _atom_site_fract_z
C1 C 0.61618 0.64274 0.61305
 C2 C 0.63397 0.63361 0.60435
 C3 C 0.64355 0.61602 0.61389
 C4 C 0.63545 0.60727 0.63225
 C5 C 0.61800 0.61628 0.64084
 C6 C 0.60824 0.63412 0.63116
 C7 C 0.60371 0.65994 0.60723
 N8 N 0.58835 0.66200 0.62136
 C9 C 0.59106 0.64621 0.63605
 C10 C 0.61367 0.60453 0.65849
 N11 N 0.62803 0.58834 0.66097
 C12 C 0.64142 0.59012 0.64477
 C13 C 0.66045 0.61069 0.60216
 N14 N 0.66140 0.62461 0.58567
 C15 C 0.64518 0.63867 0.58695
 H16 H 0.60558 0.67004 0.59356
 H17 H 0.58145 0.64387 0.64953
 H18 H 0.60056 0.60752 0.66833
 H19 H 0.65485 0.58007 0.64214
 H20 H 0.67143 0.59784 0.60566
 H21 H 0.64156 0.65152 0.57594
 C22 C 0.88367 0.35777 0.11388
 C23 C 0.86543 0.36644 0.10548
 C24 C 0.85563 0.38367 0.11517
 C25 C 0.86395 0.39252 0.13338
 C26 C 0.88193 0.38397 0.14163
 C27 C 0.89185 0.36648 0.13177
 C28 C 0.89639 0.34093 0.10791
 N29 N 0.91229 0.33901 0.12174
 C30 C 0.90941 0.35483 0.13638
 C31 C 0.88646 0.39575 0.15918
 N32 N 0.87169 0.41131 0.16179
 C33 C 0.85785 0.40939 0.14603
 C34 C 0.83837 0.38867 0.10367
 N35 N 0.83741 0.37491 0.08716
 C36 C 0.85397 0.36125 0.08821
 H37 H 0.89397 0.33110 0.09425
 H38 H 0.91897 0.35775 0.14981
 H39 H 0.89978 0.39340 0.16908
 H40 H 0.84421 0.41937 0.14397
 H41 H 0.82720 0.40123 0.10730
 H42 H 0.85767 0.34865 0.07710
 C43 C 0.38139 0.14270 -0.11359
 C44 C 0.36332 0.13363 -0.10518
 C45 C 0.35392 0.11583 -0.11460
 C46 C 0.36250 0.10679 -0.13252
 C47 C 0.38026 0.11571 -0.14076
 C48 C 0.38981 0.13377 -0.13124
 C49 C 0.39383 0.16001 -0.10776
 N50 N 0.40964 0.16182 -0.12145
 C51 C 0.40724 0.14578 -0.13586
 C52 C 0.38505 0.10367 -0.15800
 N53 N 0.37064 0.08742 -0.16062
 C54 C 0.35678 0.08945 -0.14487
 C55 C 0.33674 0.11054 -0.10315
 N56 N 0.33548 0.12467 -0.08697
 C57 C 0.35173 0.13885 -0.08814
 H58 H 0.39165 0.17031 -0.09436
 H59 H 0.41726 0.14319 -0.14896
 H60 H 0.39841 0.10668 -0.16754
 H61 H 0.34325 0.07938 -0.14233
 H62 H 0.32612 0.09715 -0.10623
 H63 H 0.35479 0.15220 -0.07754
 C64 C 0.11673 0.85691 0.38665
 C65 C 0.13497 0.86589 0.39485
 C66 C 0.14442 0.88347 0.38509
 C67 C 0.13575 0.89234 0.36702
 C68 C 0.11781 0.88351 0.35901
 C69 C 0.10820 0.86568 0.36893
 C70 C 0.10431 0.83971 0.39273
 N71 N 0.08821 0.83766 0.37915
 C72 C 0.09067 0.85373 0.36454
 C73 C 0.11293 0.89538 0.34157
 N74 N 0.12747 0.91143 0.33858
 C75 C 0.14149 0.90945 0.35432
 C76 C 0.16175 0.88875 0.39642
 N77 N 0.16307 0.87483 0.41287
 C78 C 0.14668 0.86079 0.41196
 H79 H 0.10695 0.82981 0.40637
 H80 H 0.08089 0.85653 0.35125
 H81 H 0.09946 0.89235 0.33211
 H82 H 0.15512 0.91944 0.35666
 H83 H 0.17271 0.90164 0.39272
 H84 H 0.14325 0.84798 0.42309
 N85 N 0.10156 0.15927 0.11250
 N86 N 0.09409 0.15094 0.12968
 C87 C 0.07715 0.16227 0.13507
 C88 C 0.07378 0.17865 0.12050
 C89 C 0.08965 0.17619 0.10639
 H90 H 0.06807 0.15897 0.14871
 H91 H 0.09234 0.18587 0.09262
 Cu92 Cu 0.10725 0.12616 0.14342
 Cu93 Cu 0.12618 0.14762 0.09938
 Cu94 Cu 0.14947 0.10285 0.12301
 N95 N 0.12021 0.10069 0.15618
 N96 N 0.13669 0.09165 0.14814
 C97 C 0.14239 0.07439 0.15987
 C98 C 0.12873 0.07243 0.17623
 C99 C 0.11485 0.08946 0.17332
 H100 H 0.15557 0.06413 0.15673
 H101 H 0.10169 0.09328 0.18282
 N102 N 0.16008 0.11652 0.09749
 N103 N 0.15120 0.13353 0.08848
 C104 C 0.16203 0.13903 0.07150
 C105 C 0.17858 0.12481 0.06967
 C106 C 0.17678 0.11076 0.08648
 H107 H 0.15808 0.15237 0.06119
 H108 H 0.18697 0.09740 0.09053
 H109 H 0.12272 0.11594 0.11058
 H110 H 0.13953 0.13493 0.12587
 N111 N 0.39878 0.84271 0.61260
 N112 N 0.40642 0.85109 0.62968
 C113 C 0.42348 0.83984 0.63509
 C114 C 0.42675 0.82348 0.62061
 C115 C 0.41070 0.82588 0.60655
 H116 H 0.43267 0.84319 0.64868
 H117 H 0.40780 0.81614 0.59291
 Cu118 Cu 0.39324 0.87577 0.64328
 Cu119 Cu 0.37377 0.85397 0.59966
 Cu120 Cu 0.34919 0.89702 0.62429
 N121 N 0.37916 0.89979 0.65702
 N122 N 0.36195 0.90800 0.64954
 C123 C 0.35564 0.92446 0.66179
 C124 C 0.36965 0.92675 0.67791
 C125 C 0.38436 0.91074 0.67433
 H126 H 0.34186 0.93401 0.65912
 H127 H 0.39802 0.90750 0.68346
 N128 N 0.33874 0.88370 0.59855
 N129 N 0.34828 0.86755 0.58901
 C130 C 0.33761 0.86233 0.57180
 C131 C 0.32047 0.87578 0.57045
 C132 C 0.32171 0.88910 0.58770
 H133 H 0.34183 0.84948 0.56117
 H134 H 0.31110 0.90199 0.59190
 H135 H 0.37601 0.88562 0.61099
 H136 H 0.36080 0.86549 0.62665
 N137 N 0.89873 0.65665 0.38952
 N138 N 0.90707 0.64743 0.37326
 C139 C 0.92438 0.65852 0.36821
 C140 C 0.92704 0.67565 0.38203
 C141 C 0.91041 0.67391 0.39535
 H142 H 0.93410 0.65466 0.35520
 H143 H 0.90705 0.68435 0.40837
 Cu144 Cu 0.89433 0.62216 0.35988
 Cu145 Cu 0.87327 0.64575 0.40177
 Cu146 Cu 0.84916 0.60193 0.37744
 N147 N 0.88019 0.59796 0.34616
 N148 N 0.86254 0.59020 0.35302
 C149 C 0.85624 0.57365 0.34073
 C150 C 0.87071 0.57084 0.32525
 C151 C 0.88569 0.58663 0.32924
 H152 H 0.84211 0.56445 0.34293
 H153 H 0.89966 0.58959 0.32057
 N154 N 0.83805 0.61598 0.40239
 N155 N 0.84740 0.63246 0.41183
 C156 C 0.83634 0.63807 0.42856
 C157 C 0.81914 0.62454 0.42970
 C158 C 0.82074 0.61076 0.41281
 H159 H 0.84039 0.65118 0.43906
 H160 H 0.81024 0.59765 0.40864
 H161 H 0.87562 0.61368 0.39161
 H162 H 0.86137 0.63327 0.37449
 N163 N 0.60110 0.34207 -0.11220
 N164 N 0.59345 0.35066 -0.12921
 C165 C 0.57631 0.33944 -0.13461
 C166 C 0.57296 0.32288 -0.12020
 C167 C 0.58909 0.32513 -0.10619
 H168 H 0.56704 0.34303 -0.14811
 H169 H 0.59198 0.31522 -0.09261
 Cu170 Cu 0.60670 0.37564 -0.14265
 Cu171 Cu 0.62619 0.35329 -0.09923
 Cu172 Cu 0.65057 0.39720 -0.12343
 N173 N 0.62063 0.40013 -0.15618
 N174 N 0.63770 0.40858 -0.14850
 C175 C 0.64389 0.42543 -0.16053
 C176 C 0.62998 0.42768 -0.17671
 C177 C 0.61543 0.41128 -0.17343
 H178 H 0.65758 0.43522 -0.15773
 H179 H 0.60189 0.40796 -0.18272
 N180 N 0.66116 0.38343 -0.09792
 N181 N 0.65174 0.36692 -0.08855
 C182 C 0.66257 0.36140 -0.07151
 C183 C 0.67969 0.37502 -0.07010
 C184 C 0.67828 0.38876 -0.08713
 H185 H 0.65846 0.34823 -0.06104
 H186 H 0.68883 0.40187 -0.09123
 H187 H 0.62382 0.38511 -0.11023
 H188 H 0.63916 0.36553 -0.12606
 C189 C -0.03965 0.29234 0.12043
 C190 C -0.03960 0.30919 0.13514
 C191 C -0.05542 0.32471 0.13554
 C192 C -0.07194 0.32390 0.12119
 C193 C -0.07169 0.30691 0.10632
 C194 C -0.05582 0.29143 0.10599
 C195 C -0.02296 0.27567 0.12027
 C196 C -0.01458 0.26835 0.10153
 C197 C 0.00109 0.25262 0.10143
 C198 C 0.00867 0.24380 0.12006
 C199 C 0.00028 0.25113 0.13879
 C200 C -0.01534 0.26688 0.13890
 C201 C 0.02525 0.22702 0.11999
 C202 C 0.02448 0.20901 0.13362
 C203 C 0.04015 0.19331 0.13373
 C204 C 0.05701 0.19523 0.12021
 C205 C 0.05772 0.21321 0.10650
 C206 C 0.04202 0.22890 0.10639
 H207 H -0.02714 0.31056 0.14627
 H208 H -0.05427 0.33737 0.14711
 H209 H -0.08382 0.30501 0.09500
 H210 H -0.05643 0.27844 0.09461
 H211 H -0.01998 0.27496 0.08694
 H212 H 0.00710 0.24715 0.08674
 H213 H 0.00595 0.24483 0.15341
 H214 H -0.02164 0.27201 0.15358
 H215 H 0.01159 0.20690 0.14406
 H216 H 0.03888 0.17961 0.14434
 H217 H 0.07050 0.21540 0.09598
 H218 H 0.04319 0.24275 0.09589
 C219 C 0.54041 0.70996 0.62033
 C220 C 0.55957 0.71440 0.61106
 C221 C 0.57524 0.69869 0.61135
 C222 C 0.57214 0.67817 0.62094
 C223 C 0.55295 0.67373 0.63018
 C224 C 0.53727 0.68943 0.62987
 C225 C 0.52378 0.72670 0.62012
 C226 C 0.50312 0.72050 0.61674
 C227 C 0.48746 0.73623 0.61666
 C228 C 0.49211 0.75853 0.61998
 C229 C 0.51278 0.76474 0.62332
 C230 C 0.52843 0.74901 0.62338
 C231 C 0.47544 0.77523 0.62005
 C232 C 0.47563 0.79235 0.63456
 C233 C 0.45990 0.80799 0.63471
 C234 C 0.44357 0.80692 0.62036
 C235 C 0.44344 0.78980 0.60581
 C236 C 0.45918 0.77416 0.60567
 H237 H 0.56240 0.72997 0.60340
 H238 H 0.58989 0.70274 0.60429
 H239 H 0.54995 0.65802 0.63748
 H240 H 0.52276 0.68560 0.63733
 H241 H 0.49906 0.70348 0.61396
 H242 H 0.47167 0.73089 0.61426
 H243 H 0.51688 0.78182 0.62571
 H244 H 0.54417 0.75429 0.62625
 H245 H 0.48782 0.79349 0.64601
 H246 H 0.46066 0.82089 0.64613
 H247 H 0.43119 0.78831 0.59451
 H248 H 0.45873 0.76133 0.59412
 C249 C 1.04052 0.79019 0.38125
 C250 C 1.03952 0.80786 0.36731
 C251 C 1.05528 0.82360 0.36660
 C252 C 1.07260 0.82224 0.37992
 C253 C 1.07332 0.80442 0.39400
 C254 C 1.05757 0.78866 0.39458
 C255 C 1.02388 0.77335 0.38178
 C256 C 1.02871 0.75092 0.38355
 C257 C 1.01306 0.73504 0.38379
 C258 C 0.99222 0.74124 0.38237
 C259 C 0.98738 0.76367 0.38072
 C260 C 1.00304 0.77955 0.38039
 C261 C 0.97560 0.72436 0.38245
 C262 C 0.95742 0.72766 0.39376
 C263 C 0.94172 0.71182 0.39372
 C264 C 0.94380 0.69236 0.38228
 C265 C 0.96202 0.68907 0.37099
 C266 C 0.97775 0.70486 0.37111
 H267 H 1.02662 0.80938 0.35671
 H268 H 1.05345 0.83690 0.35568
 H269 H 1.08614 0.80211 0.40447
 H270 H 1.05867 0.77531 0.40563
 H271 H 1.04463 0.74563 0.38446
 H272 H 1.01725 0.71789 0.38527
 H273 H 0.97148 0.76893 0.37941
 H274 H 0.99884 0.79672 0.37921
 H275 H 0.95541 0.74242 0.40281
 H276 H 0.92789 0.71500 0.40250
 H277 H 0.96426 0.67424 0.36213
 H278 H 0.99150 0.70196 0.36208
 C279 C 0.45808 0.20966 -0.11994
 C280 C 0.43867 0.21431 -0.11140
 C281 C 0.42283 0.19864 -0.11184
 C282 C 0.42602 0.17794 -0.12085
 C283 C 0.44545 0.17328 -0.12934
 C284 C 0.46129 0.18895 -0.12888
 C285 C 0.47487 0.22637 -0.11962
 C286 C 0.49535 0.22020 -0.11544
 C287 C 0.51118 0.23589 -0.11533
 C288 C 0.50688 0.25811 -0.11943
 C289 C 0.48639 0.26429 -0.12354
 C290 C 0.47056 0.24860 -0.12363
 C291 C 0.52374 0.27476 -0.11953
 C292 C 0.52415 0.29147 -0.13456
 C293 C 0.54006 0.30706 -0.13476
 C294 C 0.55598 0.30635 -0.11992
 C295 C 0.55550 0.28962 -0.10486
 C296 C 0.53959 0.27403 -0.10467
 H297 H 0.43577 0.23003 -0.10421
 H298 H 0.40801 0.20285 -0.10536
 H299 H 0.44851 0.15744 -0.13618
 H300 H 0.47600 0.18493 -0.13578
 H301 H 0.49914 0.20323 -0.11208
 H302 H 0.52684 0.23057 -0.11232
 H303 H 0.48255 0.28132 -0.12653
 H304 H 0.45498 0.25385 -0.12711
 H305 H 0.51231 0.29232 -0.14639
 H306 H 0.53977 0.31961 -0.14662
 H307 H 0.56739 0.28843 -0.09315
 H308 H 0.53957 0.26152 -0.09273
 C309 C 0.12839 -0.04150 0.29043
 C310 C 0.14324 -0.04090 0.30624
 C311 C 0.14300 -0.05647 0.32216
 C312 C 0.12784 -0.07328 0.32282
 C313 C 0.11302 -0.07373 0.30670
 C314 C 0.11332 -0.05810 0.29083
 C315 C 0.12854 -0.02479 0.27364
 C316 C 0.10997 -0.01562 0.26642
 C317 C 0.11009 0.00015 0.25067
 C318 C 0.12877 0.00708 0.24174
 C319 C 0.14734 -0.00213 0.24892
 C320 C 0.14722 -0.01786 0.26471
 C321 C 0.12887 0.02386 0.22502
 C322 C 0.14196 0.02166 0.20791
 C323 C 0.14194 0.03740 0.19211
 C324 C 0.12884 0.05574 0.19306
 C325 C 0.11580 0.05795 0.21024
 C326 C 0.11581 0.04220 0.22602
 H327 H 0.15491 -0.02809 0.30651
 H328 H 0.15471 -0.05485 0.33395
 H329 H 0.10113 -0.08616 0.30590
 H330 H 0.10184 -0.05921 0.27866
 H331 H 0.09534 -0.02045 0.27313
 H332 H 0.09551 0.00676 0.24533
 H333 H 0.16199 0.00303 0.24249
 H334 H 0.16176 -0.02478 0.26980
 H335 H 0.15200 0.00756 0.20656
 H336 H 0.15207 0.03497 0.17909
 H337 H 0.10566 0.07191 0.21171
 H338 H 0.10577 0.04453 0.23916
 C339 C 0.62997 0.54124 -0.29103
 C340 C 0.64286 0.53928 -0.30827
 C341 C 0.64234 0.55493 -0.32412
 C342 C 0.62876 0.57305 -0.32331
 C343 C 0.61589 0.57482 -0.30580
 C344 C 0.61655 0.55920 -0.28994
 C345 C 0.63043 0.52451 -0.27428
 C346 C 0.62980 0.53092 -0.25345
 C347 C 0.63006 0.51516 -0.23769
 C348 C 0.63083 0.49265 -0.24241
 C349 C 0.63149 0.48625 -0.26324
 C350 C 0.63135 0.50201 -0.27900
 C351 C 0.63080 0.47591 -0.22568
 C352 C 0.61867 0.45680 -0.22743
 C353 C 0.61842 0.44116 -0.21156
 C354 C 0.63038 0.44421 -0.19362
 C355 C 0.64263 0.46326 -0.19195
 C356 C 0.64278 0.47896 -0.20777
 H357 H 0.65351 0.52568 -0.30944
 H358 H 0.65242 0.55229 -0.33710
 H359 H 0.60539 0.58838 -0.30391
 H360 H 0.60631 0.56105 -0.27688
 H361 H 0.62929 0.54814 -0.24935
 H362 H 0.62935 0.52057 -0.22179
 H363 H 0.63228 0.46903 -0.26734
 H364 H 0.63165 0.49659 -0.29491
 H365 H 0.60912 0.45410 -0.24096
 H366 H 0.60893 0.42663 -0.21347
 H367 H 0.65194 0.46625 -0.17833
 H368 H 0.65244 0.49342 -0.20608
 C369 C 0.36960 1.03979 0.79205
 C370 C 0.35520 1.03895 0.80816
 C371 C 0.35548 1.05471 0.82381
 C372 C 0.37023 1.07194 0.82390
 C373 C 0.38459 1.07262 0.80749
 C374 C 0.38425 1.05682 0.79189
 C375 C 0.36939 1.02295 0.77550
 C376 C 0.38798 1.01430 0.76799
 C377 C 0.38783 0.99852 0.75236
 C378 C 0.36909 0.99103 0.74386
 C379 C 0.35049 0.99966 0.75139
 C380 C 0.35064 1.01542 0.76705
 C381 C 0.36897 0.97438 0.72714
 C382 C 0.35535 0.97631 0.71029
 C383 C 0.35549 0.96083 0.69439
 C384 C 0.36925 0.94302 0.69496
 C385 C 0.38277 0.94103 0.71192
 C386 C 0.38263 0.95652 0.72780
 H387 H 0.34387 1.02583 0.80886
 H388 H 0.34417 1.05288 0.83589
 H389 H 0.39611 1.08541 0.80624
 H390 H 0.39536 1.05813 0.77947
 H391 H 0.40267 1.01959 0.77434
 H392 H 0.40242 0.99236 0.74675
 H393 H 0.33579 0.99407 0.74529
 H394 H 0.33607 1.02192 0.77238
 H395 H 0.34483 0.99006 0.70920
 H396 H 0.34497 0.96308 0.68155
 H397 H 0.39342 0.92744 0.71309
 H398 H 0.39309 0.95438 0.74074
 C399 C 0.87003 0.45857 0.21037
 C400 C 0.87944 0.43804 0.21347
 C401 C 0.87992 0.42255 0.19760
 C402 C 0.87099 0.42721 0.17825
 C403 C 0.86149 0.44770 0.17519
 C404 C 0.86103 0.46320 0.19106
 C405 C 0.86975 0.47513 0.22717
 C406 C 0.87325 0.49749 0.22280
 C407 C 0.87320 0.51305 0.23862
 C408 C 0.86964 0.50662 0.25919
 C409 C 0.86605 0.48428 0.26355
 C410 C 0.86611 0.46872 0.24773
 C411 C 0.86981 0.52314 0.27604
 C412 C 0.85531 0.52198 0.29209
 C413 C 0.85556 0.53745 0.30800
 C414 C 0.87034 0.55446 0.30826
 C415 C 0.88481 0.55561 0.29215
 C416 C 0.88455 0.54015 0.27624
 H417 H 0.88669 0.43406 0.22811
 H418 H 0.88714 0.40685 0.20055
 H419 H 0.85467 0.45192 0.16042
 H420 H 0.85347 0.47878 0.18825
 H421 H 0.87631 0.50292 0.20715
 H422 H 0.87580 0.53016 0.23473
 H423 H 0.86346 0.47878 0.27926
 H424 H 0.86315 0.45166 0.25157
 H425 H 0.84360 0.50922 0.29224
 H426 H 0.84419 0.53591 0.32011
 H427 H 0.89639 0.56846 0.29168
 H428 H 0.89609 0.54134 0.26423
 C429 C 0.28879 0.12453 -0.04059
 C430 C 0.30881 0.13216 -0.03609
 C431 C 0.32409 0.13223 -0.05128
 C432 C 0.31971 0.12461 -0.07131
 C433 C 0.29969 0.11694 -0.07579
 C434 C 0.28440 0.11694 -0.06062
 C435 C 0.27256 0.12450 -0.02446
 C436 C 0.25227 0.13090 -0.02928
 C437 C 0.23702 0.13094 -0.01407
 C438 C 0.24168 0.12451 0.00629
 C439 C 0.26196 0.11807 0.01111
 C440 C 0.27723 0.11809 -0.00409
 C441 C 0.22548 0.12455 0.02246
 C442 C 0.22420 0.10736 0.03695
 C443 C 0.20900 0.10741 0.05221
 C444 C 0.19470 0.12469 0.05338
 C445 C 0.19600 0.14189 0.03884
 C446 C 0.21119 0.14180 0.02356
 H447 H 0.31262 0.13832 -0.02086
 H448 H 0.33940 0.13802 -0.04726
 H449 H 0.29576 0.11119 -0.09111
 H450 H 0.26917 0.11076 -0.06451
 H451 H 0.24825 0.13613 -0.04479
 H452 H 0.22150 0.13578 -0.01830
 H453 H 0.26608 0.11324 0.02670
 H454 H 0.29266 0.11286 0.00006
 H455 H 0.23481 0.09367 0.03632
 H456 H 0.20845 0.09376 0.06294
 H457 H 0.18544 0.15559 0.03927
 H458 H 0.21195 0.15543 0.01279
 C459 C 0.70772 0.62462 0.53878
 C460 C 0.70334 0.60543 0.55012
 C461 C 0.68813 0.60539 0.56538
 C462 C 0.67697 0.62458 0.56976
 C463 C 0.68136 0.64378 0.55840
 C464 C 0.69650 0.64378 0.54307
 C465 C 0.72397 0.62469 0.52261
 C466 C 0.73701 0.64302 0.52000
 C467 C 0.75232 0.64308 0.50485
 C468 C 0.75506 0.62475 0.49200
 C469 C 0.74203 0.60641 0.49461
 C470 C 0.72664 0.60640 0.50969
 C471 C 0.77147 0.62474 0.47598
 C472 C 0.76794 0.61504 0.45660
 C473 C 0.78341 0.61492 0.44161
 C474 C 0.80273 0.62465 0.44559
 C475 C 0.80625 0.63443 0.46492
 C476 C 0.79083 0.63441 0.47996
 H477 H 0.71185 0.59045 0.54740
 H478 H 0.68503 0.59023 0.57360
 H479 H 0.67329 0.65893 0.56147
 H480 H 0.69928 0.65879 0.53445
 H481 H 0.73556 0.65728 0.52985
 H482 H 0.76191 0.65758 0.50310
 H483 H 0.74386 0.59192 0.48515
 H484 H 0.71672 0.59212 0.51110
 H485 H 0.75310 0.60778 0.45288
 H486 H 0.78009 0.60749 0.42680
 H487 H 0.82103 0.64181 0.46861
 H488 H 0.79421 0.64168 0.49485
 C489 C 0.79066 0.37475 0.04033
 C490 C 0.79485 0.39385 0.05178
 C491 C 0.81017 0.39392 0.06704
 C492 C 0.82163 0.37485 0.07134
 C493 C 0.81740 0.35573 0.05990
 C494 C 0.80215 0.35569 0.04457
 C495 C 0.77439 0.37471 0.02405
 C496 C 0.76152 0.35628 0.02126
 C497 C 0.74623 0.35625 0.00596
 C498 C 0.74337 0.37470 -0.00687
 C499 C 0.75622 0.39314 -0.00405
 C500 C 0.77157 0.39313 0.01118
 C501 C 0.72705 0.37472 -0.02310
 C502 C 0.73064 0.38464 -0.04242
 C503 C 0.71527 0.38478 -0.05763
 C504 C 0.69598 0.37489 -0.05394
 C505 C 0.69240 0.36489 -0.03468
 C506 C 0.70773 0.36486 -0.01941
 H507 H 0.78614 0.40874 0.04910
 H508 H 0.81314 0.40902 0.07532
 H509 H 0.82571 0.34067 0.06292
 H510 H 0.79950 0.34076 0.03588
 H511 H 0.76311 0.34192 0.03106
 H512 H 0.73678 0.34167 0.00406
 H513 H 0.75428 0.40773 -0.01349
 H514 H 0.78137 0.40749 0.01273
 H515 H 0.74546 0.39203 -0.04592
 H516 H 0.71866 0.39238 -0.07238
 H517 H 0.67765 0.35736 -0.03121
 H518 H 0.70432 0.35741 -0.00459
 C519 C 0.21007 0.87529 0.45945
 C520 C 0.20559 0.89441 0.44807
 C521 C 0.19021 0.89428 0.43286
 C522 C 0.17898 0.87497 0.42857
 C523 C 0.18353 0.85583 0.43991
 C524 C 0.19884 0.85600 0.45519
 C525 C 0.22637 0.87545 0.47571
 C526 C 0.23945 0.85729 0.47843
 C527 C 0.25469 0.85739 0.49377
 C528 C 0.25730 0.87571 0.50672
 C529 C 0.24426 0.89390 0.50395
 C530 C 0.22895 0.89376 0.48867
 C531 C 0.27353 0.87581 0.52304
 C532 C 0.26973 0.88530 0.54242
 C533 C 0.28498 0.88538 0.55776
 C534 C 0.30434 0.87585 0.55413
 C535 C 0.30814 0.86634 0.53478
 C536 C 0.29294 0.86638 0.51939
 H537 H 0.21411 0.90949 0.45077
 H538 H 0.18700 0.90939 0.42464
 H539 H 0.17541 0.84060 0.43689
 H540 H 0.20171 0.84104 0.46383
 H541 H 0.23806 0.84303 0.46855
 H542 H 0.26429 0.84299 0.49563
 H543 H 0.24600 0.90839 0.51348
 H544 H 0.21899 0.90792 0.48717
 H545 H 0.25484 0.89237 0.54588
 H546 H 0.28143 0.89260 0.57257
 H547 H 0.32297 0.85911 0.53135
 H548 H 0.29652 0.85928 0.50452
   
