data_POSCAR
  _audit_creation_date              2014-09-24
  _audit_creation_method            'ToBaCCo'
  _symmetry_space_group_name_H-M    'P1'
  _symmetry_Int_Tables_number       1
  _symmetry_cell_setting            triclinic
  loop_
  _symmetry_equiv_pos_as_xyz
 x,y,z
_cell_length_a 34.4186
_cell_length_b 34.2731
_cell_length_c 43.3453
_cell_angle_alpha 88.805800
_cell_angle_beta 90.090300
_cell_angle_gamma 90.204200
loop_
  _atom_site_label
  _atom_site_type_symbol
  _atom_site_fract_x
  _atom_site_fract_y
  _atom_site_fract_z
C1 C 1.18348 0.27029 0.29911
 H2 H 1.18317 0.23877 0.30108
 C3 C 1.15928 0.29226 0.31785
 H4 H 1.14020 0.27764 0.33428
 C5 C 1.20956 0.32798 0.27603
 H6 H 1.22975 0.34186 0.26019
 C7 C 1.18585 0.35105 0.29436
 H8 H 1.18768 0.38257 0.29240
 N9 N 1.20785 0.28833 0.27861
 C10 C 1.23395 0.20165 0.20914
 H11 H 1.26536 0.20266 0.20992
 C12 C 1.21521 0.17822 0.18771
 H13 H 1.23218 0.16103 0.17198
 C14 C 1.17342 0.22377 0.22801
 H15 H 1.15727 0.24215 0.24330
 C16 C 1.15350 0.20073 0.20688
 H17 H 1.12204 0.20122 0.20613
 Zn18 Zn 1.24150 0.25655 0.25531
 N19 N 1.21297 0.22368 0.22883
 C20 C 1.27107 0.18662 0.28294
 N21 N 1.27174 0.22633 0.28348
 C22 C 1.29327 0.24559 0.30472
 C23 C 1.31605 0.22485 0.32610
 C24 C 1.29339 0.16472 0.30390
 C25 C 1.25631 0.30914 0.20679
 C26 C 1.27844 0.33086 0.18559
 C27 C 1.33663 0.30810 0.21141
 C28 C 1.31340 0.28678 0.23219
 N29 N 1.27398 0.28777 0.22956
 H30 H 1.25310 0.17180 0.26641
 H31 H 1.29282 0.27714 0.30492
 H32 H 1.33319 0.24059 0.34280
 H33 H 1.29264 0.13312 0.30317
 H34 H 1.22497 0.30880 0.20488
 H35 H 1.26413 0.34746 0.16734
 H36 H 1.36799 0.30680 0.21337
 H37 H 1.32695 0.26885 0.24989
 C38 C 1.17462 0.17785 0.18650
 C39 C 1.16053 0.33302 0.31550
 C40 C 1.31895 0.33019 0.18785
 C41 C 1.31622 0.18400 0.32564
 C42 C 0.68294 -0.23163 0.29085
 H43 H 0.68156 -0.26317 0.29099
 C44 C 0.66073 -0.21080 0.31173
 H45 H 0.64202 -0.22629 0.32795
 C46 C 0.71047 -0.17292 0.27061
 H47 H 0.73067 -0.15838 0.25515
 C48 C 0.68877 -0.15096 0.29116
 H49 H 0.69205 -0.11952 0.29129
 N50 N 0.70721 -0.21253 0.27088
 C51 C 0.73013 -0.29599 0.19877
 H52 H 0.76155 -0.29615 0.19945
 C53 C 0.71038 -0.31860 0.17739
 H54 H 0.72657 -0.33631 0.16150
 C55 C 0.67055 -0.27217 0.21827
 H56 H 0.65520 -0.25359 0.23392
 C57 C 0.64965 -0.29435 0.19722
 H58 H 0.61821 -0.29302 0.19682
 Zn59 Zn 0.73957 -0.24365 0.24641
 N60 N 0.71006 -0.27369 0.21883
 C61 C 0.76546 -0.31600 0.27234
 N62 N 0.76759 -0.27640 0.27382
 C63 C 0.78860 -0.25865 0.29616
 C64 C 0.80925 -0.28090 0.31786
 C65 C 0.78570 -0.33936 0.29364
 C66 C 0.75830 -0.18821 0.20069
 C67 C 0.78230 -0.16620 0.18105
 C68 C 0.83826 -0.19471 0.20651
 C69 C 0.81321 -0.21619 0.22571
 N70 N 0.77402 -0.21249 0.22253
 H71 H 0.74781 -0.32954 0.25492
 H72 H 0.78919 -0.22713 0.29707
 H73 H 0.82599 -0.26656 0.33555
 H74 H 0.78393 -0.37086 0.29240
 H75 H 0.72706 -0.18642 0.19831
 H76 H 0.76957 -0.14726 0.16348
 H77 H 0.86941 -0.19817 0.20886
 H78 H 0.82516 -0.23639 0.24261
 C79 C 0.66980 -0.31780 0.17667
 C80 C 0.66394 -0.17015 0.31204
 C81 C 0.82262 -0.16963 0.18393
 C82 C 0.80778 -0.32158 0.31654
 C83 C 0.69319 0.25771 -0.19996
 H84 H 0.69326 0.22614 -0.19911
 C85 C 0.67091 0.27831 -0.17892
 H86 H 0.65362 0.26261 -0.16185
 C87 C 0.71657 0.31689 -0.22256
 H88 H 0.73505 0.33184 -0.23911
 C89 C 0.69475 0.33860 -0.20194
 H90 H 0.69619 0.37018 -0.20288
 N91 N 0.71527 0.27717 -0.22130
 C92 C 0.73519 0.19436 -0.29464
 H93 H 0.76660 0.19511 -0.29548
 C94 C 0.71442 0.17235 -0.31584
 H95 H 0.72984 0.15592 -0.33301
 C96 C 0.67660 0.21600 -0.27197
 H97 H 0.66198 0.23375 -0.25532
 C98 C 0.65470 0.19438 -0.29280
 H99 H 0.62326 0.19526 -0.29195
 Zn100 Zn 0.74682 0.24720 -0.24746
 N101 N 0.71613 0.21552 -0.27322
 C102 C 0.78031 0.17684 -0.22341
 N103 N 0.77967 0.21647 -0.22186
 C104 C 0.80172 0.23571 -0.20095
 C105 C 0.82614 0.21505 -0.18080
 C106 C 0.80435 0.15504 -0.20363
 C107 C 0.75723 0.30269 -0.29473
 C108 C 0.77757 0.32648 -0.31569
 C109 C 0.83777 0.30308 -0.29327
 C110 C 0.81626 0.27974 -0.27271
 N111 N 0.77673 0.28015 -0.27369
 H112 H 0.76194 0.16205 -0.23969
 H113 H 0.80019 0.26718 -0.19994
 H114 H 0.84348 0.23059 -0.16414
 H115 H 0.80456 0.12350 -0.20481
 H116 H 0.72581 0.30189 -0.29531
 H117 H 0.76167 0.34412 -0.33246
 H118 H 0.86925 0.30227 -0.29244
 H119 H 0.83123 0.26089 -0.25639
 C120 C 0.67382 0.17252 -0.31501
 C121 C 0.67181 0.31911 -0.17989
 C122 C 0.81823 0.32662 -0.31499
 C123 C 0.82747 0.17437 -0.18217
 C124 C 1.18880 -0.24087 -0.20504
 H125 H 1.18718 -0.27240 -0.20379
 C126 C 1.16936 -0.21873 -0.18327
 H127 H 1.15245 -0.23321 -0.16531
 C128 C 1.21398 -0.18347 -0.22924
 H129 H 1.23217 -0.16988 -0.24670
 C130 C 1.19501 -0.16022 -0.20788
 H131 H 1.19825 -0.12878 -0.20919
 N132 N 1.21049 -0.22305 -0.22748
 C133 C 1.22268 -0.31078 -0.29854
 H134 H 1.25401 -0.31140 -0.30044
 C135 C 1.19990 -0.33394 -0.31762
 H136 H 1.21370 -0.35248 -0.33429
 C137 C 1.16633 -0.28511 -0.27506
 H138 H 1.15336 -0.26555 -0.25883
 C139 C 1.14246 -0.30781 -0.29375
 H140 H 1.11116 -0.30581 -0.29176
 Zn141 Zn 1.23916 -0.25575 -0.25374
 N142 N 1.20570 -0.28716 -0.27766
 C143 C 1.26861 -0.32690 -0.22766
 N144 N 1.27093 -0.28723 -0.22780
 C145 C 1.29472 -0.26831 -0.20792
 C146 C 1.31780 -0.28938 -0.18704
 C147 C 1.29122 -0.34912 -0.20709
 C148 C 1.25177 -0.20201 -0.30237
 C149 C 1.27319 -0.17983 -0.32379
 C150 C 1.33212 -0.20721 -0.30222
 C151 C 1.30962 -0.22886 -0.28118
 N152 N 1.27020 -0.22564 -0.28144
 H153 H 1.24884 -0.34138 -0.24308
 H154 H 1.29547 -0.23674 -0.20817
 H155 H 1.33648 -0.27406 -0.17117
 H156 H 1.28903 -0.38067 -0.20689
 H157 H 1.22038 -0.20048 -0.30239
 H158 H 1.25830 -0.16106 -0.34035
 H159 H 1.36347 -0.20998 -0.30190
 H160 H 1.32372 -0.24850 -0.26495
 C161 C 1.15943 -0.33243 -0.31522
 C162 C 1.17268 -0.17806 -0.18459
 C163 C 1.31374 -0.18245 -0.32367
 C164 C 1.31596 -0.33014 -0.18659
 C165 C 0.26738 0.19300 0.70281
 H166 H 0.23613 0.19491 0.70055
 C167 C 0.28841 0.16913 0.68333
 H168 H 0.27338 0.15249 0.66597
 C169 C 0.32539 0.21373 0.72734
 H170 H 0.33969 0.23190 0.74398
 C171 C 0.34757 0.19023 0.70822
 H172 H 0.37894 0.19012 0.71030
 N173 N 0.28603 0.21465 0.72426
 C174 C 0.19518 0.23971 0.79075
 H175 H 0.19500 0.27128 0.78982
 C176 C 0.17170 0.21952 0.81204
 H177 H 0.15319 0.23563 0.82743
 C178 C 0.22106 0.18019 0.77301
 H179 H 0.24120 0.16495 0.75853
 C180 C 0.19808 0.15889 0.79390
 H181 H 0.20037 0.12736 0.79507
 Zn182 Zn 0.25475 0.24880 0.74689
 N183 N 0.21936 0.21988 0.77188
 C184 C 0.18963 0.28128 0.71470
 N185 N 0.22904 0.28069 0.71722
 C186 C 0.25204 0.30016 0.69648
 C187 C 0.23555 0.32125 0.67189
 C188 C 0.17195 0.30206 0.69041
 C189 C 0.30464 0.25986 0.79665
 C190 C 0.32638 0.28050 0.81812
 C191 C 0.30801 0.34057 0.79186
 C192 C 0.28659 0.31879 0.77083
 N193 N 0.28544 0.27916 0.77353
 H194 H 0.17195 0.26486 0.73097
 H195 H 0.28330 0.29853 0.69872
 H196 H 0.25411 0.33623 0.65528
 H197 H 0.14059 0.30199 0.68826
 H198 H 0.30268 0.22839 0.79852
 H199 H 0.34133 0.26492 0.83659
 H200 H 0.30853 0.37212 0.78978
 H201 H 0.27043 0.33362 0.75274
 C202 C 0.17347 0.17873 0.81383
 C203 C 0.32884 0.16796 0.68593
 C204 C 0.32798 0.32121 0.81574
 C205 C 0.19516 0.32194 0.66869
 C206 C 0.76627 0.70387 0.70272
 H207 H 0.73488 0.70223 0.70330
 C208 C 0.78679 0.68473 0.67980
 H209 H 0.77120 0.66788 0.66287
 C210 C 0.82491 0.72886 0.72342
 H211 H 0.83959 0.74687 0.73998
 C212 C 0.84657 0.71016 0.70084
 H213 H 0.87789 0.71329 0.70039
 N214 N 0.78549 0.72530 0.72400
 C215 C 0.70329 0.73814 0.79983
 H216 H 0.70392 0.76960 0.80146
 C217 C 0.68060 0.71593 0.82031
 H218 H 0.66367 0.73038 0.83775
 C219 C 0.72512 0.68096 0.77539
 H220 H 0.74292 0.66748 0.75812
 C221 C 0.70280 0.65757 0.79548
 H222 H 0.70334 0.62611 0.79346
 Zn223 Zn 0.75490 0.75389 0.75187
 N224 N 0.72470 0.72051 0.77778
 C225 C 0.68276 0.78323 0.72921
 N226 N 0.72216 0.78634 0.72753
 C227 C 0.73956 0.81073 0.70656
 C228 C 0.71716 0.83334 0.68620
 C229 C 0.65925 0.80533 0.70923
 C230 C 0.81089 0.76441 0.79764
 C231 C 0.83392 0.78475 0.81847
 C232 C 0.80689 0.84514 0.79840
 C233 C 0.78435 0.82367 0.77791
 N234 N 0.78686 0.78404 0.77782
 H235 H 0.66947 0.76294 0.74544
 H236 H 0.77094 0.81204 0.70533
 H237 H 0.73126 0.85227 0.66927
 H238 H 0.62795 0.80225 0.71032
 H239 H 0.81181 0.73287 0.79741
 H240 H 0.85274 0.76888 0.83433
 H241 H 0.80448 0.87665 0.79857
 H242 H 0.76442 0.83868 0.76254
 C243 C 0.68027 0.67527 0.81812
 C244 C 0.82727 0.68807 0.67874
 C245 C 0.83181 0.82547 0.81889
 C246 C 0.67666 0.83042 0.68744
 C247 C 0.76804 0.19517 0.20010
 H248 H 0.73667 0.19620 0.19883
 C249 C 0.78887 0.17298 0.17918
 H250 H 0.77354 0.15674 0.16175
 C251 C 0.82654 0.21593 0.22381
 H252 H 0.84115 0.23329 0.24083
 C253 C 0.84848 0.19413 0.20332
 H254 H 0.87990 0.19451 0.20476
 N255 N 0.78705 0.21587 0.22195
 C256 C 0.70248 0.23425 0.29460
 H257 H 0.70438 0.26568 0.29602
 C258 C 0.67867 0.21323 0.31499
 H259 H 0.66210 0.22845 0.33221
 C260 C 0.72273 0.17583 0.27107
 H261 H 0.74055 0.16136 0.25434
 C262 C 0.69927 0.15365 0.29110
 H263 H 0.69888 0.12213 0.28964
 Zn264 Zn 0.75681 0.24685 0.24825
 N265 N 0.72374 0.21541 0.27312
 C266 C 0.68740 0.27934 0.22357
 N267 N 0.72693 0.28111 0.22289
 C268 C 0.74587 0.30516 0.20251
 C269 C 0.72491 0.32879 0.18178
 C270 C 0.66538 0.30246 0.20327
 C271 C 0.80938 0.25285 0.29680
 C272 C 0.83157 0.27106 0.31936
 C273 C 0.81160 0.33359 0.29806
 C274 C 0.78975 0.31420 0.27587
 N275 N 0.78905 0.27451 0.27566
 H276 H 0.67282 0.25931 0.23926
 H277 H 0.77730 0.30544 0.20202
 H278 H 0.74020 0.34747 0.16535
 H279 H 0.63396 0.30042 0.20367
 H280 H 0.80772 0.22133 0.29641
 H281 H 0.84718 0.25360 0.33637
 H282 H 0.81155 0.36518 0.29843
 H283 H 0.77270 0.33086 0.25935
 C284 C 0.67716 0.17258 0.31328
 C285 C 0.82944 0.17253 0.18080
 C286 C 0.83249 0.31179 0.32009
 C287 C 0.68429 0.32724 0.18209
 C288 C 0.27084 0.68970 0.20966
 H289 H 0.23952 0.68800 0.21130
 C290 C 0.29048 0.66725 0.18819
 H291 H 0.27429 0.64802 0.17333
 C292 C 0.33015 0.71802 0.22612
 H293 H 0.34538 0.73856 0.24037
 C294 C 0.35092 0.69609 0.20492
 H295 H 0.38215 0.69952 0.20314
 N296 N 0.29080 0.71446 0.22807
 C297 C 0.21236 0.73703 0.30470
 H298 H 0.21055 0.76849 0.30269
 C299 C 0.19416 0.71734 0.32926
 H300 H 0.17772 0.73361 0.34594
 C301 C 0.23699 0.67747 0.28599
 H302 H 0.25453 0.66218 0.26954
 C303 C 0.21921 0.65663 0.31024
 H304 H 0.22244 0.62524 0.31204
 Zn305 Zn 0.26126 0.74692 0.25389
 N306 N 0.23320 0.71697 0.28364
 C307 C 0.18848 0.77573 0.23054
 N308 N 0.22788 0.77658 0.22774
 C309 C 0.24550 0.79771 0.20479
 C310 C 0.22343 0.81950 0.18366
 C311 C 0.16524 0.79716 0.20979
 C312 C 0.31850 0.76315 0.29720
 C313 C 0.34053 0.78586 0.31710
 C314 C 0.31172 0.84373 0.29392
 C315 C 0.29023 0.81987 0.27442
 N316 N 0.29390 0.78036 0.27648
 H317 H 0.17501 0.75815 0.24857
 H318 H 0.27684 0.79742 0.20286
 H319 H 0.23780 0.83611 0.16543
 H320 H 0.13391 0.79625 0.21200
 H321 H 0.32019 0.73166 0.29876
 H322 H 0.35947 0.77170 0.33389
 H323 H 0.30795 0.87512 0.29253
 H324 H 0.26975 0.83292 0.25840
 C325 C 0.19782 0.67681 0.33219
 C326 C 0.33086 0.67068 0.18566
 C327 C 0.33683 0.82652 0.31567
 C328 C 0.18295 0.81922 0.18613
 O329 O 1.08204 0.04395 0.02322
 O330 O 0.93490 -0.04606 0.02237
 O331 O 0.96302 0.07324 0.02111
 O332 O 1.05347 -0.07536 0.02253
 O333 O 0.94209 0.01913 0.03875
 O334 O 1.07491 -0.02218 0.03976
 O335 O 0.98803 -0.06799 0.04013
 O336 O 1.02800 0.06564 0.03902
 C337 C 1.06308 0.06091 0.04355
 C338 C 0.95295 -0.06259 0.04388
 C339 C 0.94622 0.05450 0.04218
 C340 C 1.07003 -0.05759 0.04367
 O341 O 1.08223 -0.04505 -0.02035
 O342 O 0.93514 0.04424 -0.02127
 O343 O 1.05383 0.07405 -0.01983
 O344 O 0.96325 -0.07496 -0.01957
 O345 O 0.94273 -0.02096 -0.03754
 O346 O 1.07543 0.02111 -0.03701
 O347 O 1.02835 -0.06696 -0.03664
 O348 O 0.98864 0.06656 -0.03819
 Co349 Co 1.07195 -0.00056 0.00137
 Co350 Co 0.94538 -0.00089 0.00063
 Co351 Co 1.00834 0.06303 0.00052
 Co352 Co 1.00826 -0.06446 0.00162
 O353 O 1.00851 -0.00071 0.00104
 C354 C 1.06344 -0.06195 -0.04091
 C355 C 0.95356 0.06129 -0.04234
 C356 C 1.07017 0.05642 -0.04102
 C357 C 0.94686 -0.05632 -0.04089
 O358 O 1.04911 0.51430 0.54088
 O359 O 0.91760 0.45640 0.52373
 O360 O 0.95608 0.57788 0.51831
 O361 O 1.03883 0.44403 0.53319
 O362 O 0.92023 0.52843 0.53494
 O363 O 1.09008 0.46851 0.51073
 O364 O 0.97184 0.44081 0.54383
 O365 O 1.02674 0.57060 0.52531
 C366 C 1.04326 0.54968 0.54587
 C367 C 0.93612 0.44252 0.54601
 C368 C 0.93159 0.56312 0.53731
 C369 C 1.07518 0.44163 0.52871
 O370 O 1.05207 0.48430 0.46105
 O371 O 0.91411 0.54407 0.47721
 O372 O 1.03186 0.55654 0.46235
 O373 O 0.95531 0.42385 0.48310
 O374 O 0.92086 0.47293 0.46519
 O375 O 1.07819 0.54092 0.49073
 O376 O 1.02445 0.43004 0.47222
 O377 O 0.96672 0.56308 0.45641
 Co378 Co 1.04808 0.49802 0.50108
 Co379 Co 0.92499 0.50044 0.50011
 Co380 Co 0.99514 0.56212 0.49143
 Co381 Co 0.99693 0.44035 0.50716
 O382 O 0.98906 0.50205 0.49903
 C383 C 1.04418 0.45040 0.45378
 C384 C 0.93112 0.56017 0.45520
 C385 C 1.06680 0.56036 0.46810
 C386 C 0.93211 0.43839 0.46316
 O387 O 0.56596 0.02130 0.53846
 O388 O 0.43331 -0.02163 0.53719
 O389 O 0.48096 0.06691 0.53837
 O390 O 0.51935 -0.06666 0.53871
 O391 O 0.42716 0.04469 0.52200
 O392 O 0.57315 -0.04376 0.52252
 O393 O 0.45432 -0.07445 0.51945
 O394 O 0.54600 0.07533 0.52048
 C395 C 0.56203 0.05663 0.54189
 C396 C 0.43690 -0.05721 0.54030
 C397 C 0.44603 0.06089 0.54285
 C398 C 0.55430 -0.06093 0.54336
 O399 O 0.56663 -0.01867 0.46212
 O400 O 0.43429 0.02390 0.46134
 O401 O 0.52013 0.06898 0.46131
 O402 O 0.48132 -0.06486 0.46115
 O403 O 0.42725 -0.04261 0.47648
 O404 O 0.57360 0.04641 0.47816
 O405 O 0.54604 -0.07267 0.47990
 O406 O 0.45500 0.07672 0.47966
 Co407 Co 0.56333 0.00131 0.50027
 Co408 Co 0.43711 0.00109 0.49930
 Co409 Co 0.50053 0.06502 0.49990
 Co410 Co 0.50029 -0.06274 0.49985
 O411 O 0.50029 0.00116 0.49983
 C412 C 0.56197 -0.05390 0.45846
 C413 C 0.43785 0.05957 0.45851
 C414 C 0.55508 0.06328 0.45702
 C415 C 0.44644 -0.05935 0.45618
 O416 O 0.57105 0.54541 0.01795
 O417 O 0.42389 0.45252 0.02117
 O418 O 0.45207 0.57219 0.01885
 O419 O 0.54279 0.42551 0.02265
 O420 O 0.43127 0.51824 0.03718
 O421 O 0.56464 0.48005 0.03744
 O422 O 0.47742 0.43250 0.03931
 O423 O 0.51753 0.56629 0.03484
 C424 C 0.55280 0.56244 0.03851
 C425 C 0.44219 0.43683 0.04290
 C426 C 0.43605 0.55360 0.04045
 C427 C 0.56053 0.44472 0.04246
 O428 O 0.57157 0.45365 -0.02108
 O429 O 0.42257 0.54268 -0.02265
 O430 O 0.54089 0.57275 -0.02540
 O431 O 0.45308 0.42370 -0.02061
 O432 O 0.43080 0.47712 -0.03868
 O433 O 0.56335 0.51883 -0.04055
 O434 O 0.51817 0.43108 -0.03733
 O435 O 0.47546 0.56383 -0.04130
 Co436 Co 0.56078 0.49940 -0.00153
 Co437 Co 0.43391 0.49774 -0.00078
 Co438 Co 0.49653 0.56202 -0.00308
 Co439 Co 0.49777 0.43494 0.00083
 O440 O 0.49728 0.49852 -0.00114
 C441 C 0.55329 0.43592 -0.04137
 C442 C 0.44022 0.55892 -0.04450
 C443 C 0.55859 0.55408 -0.04544
 C444 C 0.43616 0.44188 -0.04197
 C445 C 1.11947 0.11591 0.11972
 C446 C 1.07922 0.11905 0.11588
 C447 C 1.06077 0.10050 0.09142
 C448 C 1.15490 0.15529 0.16354
 C449 C 1.12273 0.07495 0.07479
 C450 C 1.14113 0.09354 0.09930
 C451 C 1.13869 0.13697 0.14382
 C452 C 1.08240 0.07864 0.07039
 H453 H 1.06217 0.13631 0.13151
 H454 H 1.02965 0.10380 0.08870
 H455 H 1.14010 0.05819 0.05906
 H456 H 1.17231 0.09094 0.10204
 C457 C 1.09457 0.60598 0.62345
 C458 C 1.06759 0.62587 0.60483
 C459 C 1.04955 0.60696 0.58037
 C460 C 1.13561 0.64517 0.66424
 C461 C 1.08423 0.54752 0.59379
 C462 C 1.10234 0.56657 0.61823
 C463 C 1.11644 0.62691 0.64618
 C464 C 1.05834 0.56784 0.57416
 H465 H 1.06140 0.65638 0.60860
 H466 H 1.02961 0.62333 0.56576
 H467 H 1.09165 0.51742 0.58955
 H468 H 1.12328 0.55091 0.63243
 C469 C 0.61437 0.11457 0.61835
 C470 C 0.59238 0.13582 0.59667
 C471 C 0.57478 0.11687 0.57203
 C472 C 0.65204 0.15164 0.66223
 C473 C 0.60053 0.05511 0.59099
 C474 C 0.61814 0.07414 0.61561
 C475 C 0.63448 0.13454 0.64254
 C476 C 0.57907 0.07638 0.56874
 H477 H 0.58932 0.16714 0.59856
 H478 H 0.55824 0.13395 0.55535
 H479 H 0.60422 0.02387 0.58911
 H480 H 0.63516 0.05743 0.63222
 C481 C 0.61182 0.61970 0.11205
 C482 C 0.57144 0.62269 0.10920
 C483 C 0.55208 0.60344 0.08557
 C484 C 0.64904 0.65973 0.15436
 C485 C 0.61346 0.57758 0.06786
 C486 C 0.63275 0.59685 0.09152
 C487 C 0.63194 0.64121 0.13529
 C488 C 0.57298 0.58107 0.06444
 H489 H 0.55500 0.64033 0.12497
 H490 H 0.52086 0.60655 0.08356
 H491 H 0.63024 0.56040 0.05201
 H492 H 0.66403 0.59437 0.09356
 C493 C 0.89027 -0.11253 0.12038
 C494 C 0.92994 -0.12041 0.11709
 C495 C 0.95084 -0.10343 0.09258
 C496 C 0.84763 -0.14902 0.16262
 C497 C 0.89250 -0.07018 0.07505
 C498 C 0.87176 -0.08703 0.09955
 C499 C 0.86772 -0.13218 0.14389
 C500 C 0.93209 -0.07865 0.07103
 H501 H 0.94448 -0.14022 0.13308
 H502 H 0.98134 -0.11035 0.09007
 H503 H 0.87737 -0.05096 0.05896
 H504 H 0.84108 -0.08079 0.10188
 C505 C 0.87608 0.38753 0.62183
 C506 C 0.91666 0.38583 0.62035
 C507 C 0.93642 0.40453 0.59603
 C508 C 0.83776 0.34740 0.66472
 C509 C 0.87501 0.42726 0.57498
 C510 C 0.85535 0.40860 0.59931
 C511 C 0.85548 0.36607 0.64551
 C512 C 0.91571 0.42497 0.57286
 H513 H 0.93295 0.36949 0.63765
 H514 H 0.96777 0.40230 0.59502
 H515 H 0.85831 0.44293 0.55756
 H516 H 0.82393 0.41003 0.60024
 C517 C 0.37718 -0.12059 0.61239
 C518 C 0.40059 -0.14041 0.59153
 C519 C 0.42066 -0.11971 0.56840
 C520 C 0.33635 -0.16040 0.65411
 C521 C 0.39449 -0.05910 0.58725
 C522 C 0.37444 -0.07988 0.61036
 C523 C 0.35513 -0.14215 0.63526
 C524 C 0.41746 -0.07888 0.56581
 H525 H 0.40295 -0.17192 0.59292
 H526 H 0.43824 -0.13570 0.55230
 H527 H 0.39154 -0.02766 0.58587
 H528 H 0.35641 -0.06424 0.62638
 C529 C 0.38191 0.38667 0.12074
 C530 C 0.42202 0.38121 0.11772
 C531 C 0.44195 0.39814 0.09268
 C532 C 0.34212 0.35064 0.16508
 C533 C 0.38173 0.42651 0.07389
 C534 C 0.36192 0.40965 0.09894
 C535 C 0.36074 0.36732 0.14527
 C536 C 0.42186 0.42054 0.07029
 H537 H 0.43775 0.36340 0.13444
 H538 H 0.47288 0.39314 0.09054
 H539 H 0.36554 0.44383 0.05714
 H540 H 0.33088 0.41403 0.10103
 C541 C 0.89235 0.11422 -0.11845
 C542 C 0.87316 0.08845 -0.09816
 C543 C 0.89340 0.07057 -0.07381
 C544 C 0.85122 0.15260 -0.16065
 C545 C 0.95255 0.10336 -0.09043
 C546 C 0.93217 0.12134 -0.11477
 C547 C 0.87047 0.13486 -0.14187
 C548 C 0.93316 0.07829 -0.06941
 H549 H 0.84235 0.08277 -0.10078
 H550 H 0.87776 0.05117 -0.05814
 H551 H 0.98319 0.10975 -0.08763
 H552 H 0.94727 0.14133 -0.13034
 C553 C 0.86749 0.61539 0.38150
 C554 C 0.84770 0.59439 0.40465
 C555 C 0.86843 0.57579 0.42843
 C556 C 0.82855 0.65521 0.33896
 C557 C 0.92888 0.59869 0.40561
 C558 C 0.90809 0.61725 0.38187
 C559 C 0.84618 0.63656 0.35816
 C560 C 0.90922 0.57814 0.42932
 H561 H 0.81625 0.59289 0.40456
 H562 H 0.85254 0.56006 0.44632
 H563 H 0.96028 0.60093 0.40565
 H564 H 0.92364 0.63353 0.36408
 C565 C 0.37828 0.12374 0.38682
 C566 C 0.37546 0.08298 0.38844
 C567 C 0.39554 0.06192 0.41136
 C568 C 0.33707 0.16400 0.34562
 C569 C 0.42190 0.12234 0.43082
 C570 C 0.40183 0.14331 0.40787
 C571 C 0.35607 0.14558 0.36423
 C572 C 0.41860 0.08145 0.43303
 H573 H 0.35732 0.06753 0.37226
 H574 H 0.39248 0.03046 0.41246
 H575 H 0.43954 0.13816 0.44710
 H576 H 0.40425 0.17484 0.40682
 C577 C 0.37822 0.61010 -0.12097
 C578 C 0.41846 0.61534 -0.11855
 C579 C 0.43890 0.59799 -0.09400
 C580 C 0.33830 0.64788 -0.16424
 C581 C 0.37894 0.56952 -0.07452
 C582 C 0.35859 0.58684 -0.09910
 C583 C 0.35671 0.63022 -0.14488
 C584 C 0.41921 0.57536 -0.07149
 H585 H 0.43391 0.63338 -0.13532
 H586 H 0.46993 0.60290 -0.09230
 H587 H 0.36306 0.55205 -0.05764
 H588 H 0.32744 0.58266 -0.10073
 C589 C 1.11965 -0.11569 -0.11740
 C590 C 1.14153 -0.09405 -0.09647
 C591 C 1.12323 -0.07585 -0.07182
 C592 C 1.15415 -0.15501 -0.16147
 C593 C 1.06099 -0.10036 -0.08934
 C594 C 1.07933 -0.11849 -0.11392
 C595 C 1.13857 -0.13656 -0.14161
 C596 C 1.08281 -0.07925 -0.06779
 H597 H 1.17278 -0.09174 -0.09893
 H598 H 1.14074 -0.05965 -0.05569
 H599 H 1.02980 -0.10340 -0.08693
 H600 H 1.06211 -0.13520 -0.12993
 C601 C 1.09631 0.39595 0.37602
 C602 C 1.06640 0.37705 0.39234
 C603 C 1.04805 0.39563 0.41671
 C604 C 1.13725 0.35613 0.33578
 C605 C 1.08826 0.45295 0.40772
 C606 C 1.10668 0.43422 0.38336
 C607 C 1.11827 0.37481 0.35358
 C608 C 1.05943 0.43342 0.42514
 H609 H 1.05815 0.34743 0.38692
 H610 H 1.02587 0.37988 0.42962
 H611 H 1.09772 0.48200 0.41374
 H612 H 1.12988 0.44910 0.37095
 C613 C 0.60930 -0.11129 0.38015
 C614 C 0.61463 -0.07108 0.38337
 C615 C 0.59879 -0.05220 0.40869
 C616 C 0.64377 -0.14861 0.33513
 C617 C 0.57180 -0.11371 0.42742
 C618 C 0.58761 -0.13249 0.40208
 C619 C 0.62764 -0.13124 0.35527
 C620 C 0.57760 -0.07346 0.43115
 H621 H 0.63148 -0.05443 0.36656
 H622 H 0.60356 -0.02113 0.41090
 H623 H 0.55538 -0.13074 0.44424
 H624 H 0.58340 -0.16365 0.39982
 C625 C 0.61256 0.37982 -0.11514
 C626 C 0.57235 0.37530 -0.11179
 C627 C 0.55287 0.39416 -0.08810
 C628 C 0.65043 0.34086 -0.15758
 C629 C 0.61374 0.42264 -0.07133
 C630 C 0.63315 0.40378 -0.09505
 C631 C 0.63295 0.35883 -0.13848
 C632 C 0.57347 0.41765 -0.06740
 H633 H 0.55615 0.35680 -0.12721
 H634 H 0.52181 0.38986 -0.08569
 H635 H 0.63032 0.44070 -0.05584
 H636 H 0.66428 0.40748 -0.09746
 C637 C 1.11815 0.11888 -0.11898
 C638 C 1.09562 0.13843 -0.09740
 C639 C 1.07956 0.11796 -0.07224
 C640 C 1.15345 0.15853 -0.16390
 C641 C 1.10795 0.05804 -0.09046
 C642 C 1.12404 0.07860 -0.11559
 C643 C 1.13680 0.14045 -0.14371
 C644 C 1.08593 0.07763 -0.06832
 H645 H 1.09095 0.16959 -0.09976
 H646 H 1.06251 0.13377 -0.05569
 H647 H 1.11322 0.02698 -0.08810
 H648 H 1.14152 0.06320 -0.13212
 C649 C 1.13911 0.62075 0.40206
 C650 C 1.15645 0.59857 0.42590
 C651 C 1.13324 0.57951 0.44822
 C652 C 1.17902 0.65618 0.35739
 C653 C 1.07564 0.60537 0.42300
 C654 C 1.09872 0.62433 0.40094
 C655 C 1.16192 0.63963 0.37817
 C656 C 1.09254 0.58244 0.44671
 H657 H 1.18775 0.59563 0.42700
 H658 H 1.14695 0.56189 0.46615
 H659 H 1.04438 0.60826 0.42123
 H660 H 1.08495 0.64144 0.38270
 C661 C 0.61475 0.11314 0.37892
 C662 C 0.57501 0.12005 0.38280
 C663 C 0.55522 0.10317 0.40790
 C664 C 0.65443 0.15056 0.33534
 C665 C 0.61482 0.07185 0.42494
 C666 C 0.63449 0.08868 0.39982
 C667 C 0.63594 0.13302 0.35473
 C668 C 0.57513 0.07939 0.42948
 H669 H 0.55952 0.13908 0.36678
 H670 H 0.52461 0.10935 0.41076
 H671 H 0.63082 0.05342 0.44105
 H672 H 0.66527 0.08323 0.39706
 C673 C 0.61737 0.61387 -0.11993
 C674 C 0.62176 0.57350 -0.11575
 C675 C 0.60182 0.55375 -0.09200
 C676 C 0.65877 0.65332 -0.16156
 C677 C 0.57239 0.61461 -0.07691
 C678 C 0.59231 0.63426 -0.10068
 C679 C 0.63977 0.63482 -0.14297
 C680 C 0.57737 0.57424 -0.07203
 H681 H 0.64111 0.55742 -0.13048
 H682 H 0.60620 0.52264 -0.08884
 H683 H 0.55365 0.63113 -0.06202
 H684 H 0.58868 0.66550 -0.10369
 C685 C 0.89269 -0.11532 -0.11600
 C686 C 0.91564 -0.13617 -0.09473
 C687 C 0.93391 -0.11682 -0.07060
 C688 C 0.85393 -0.15322 -0.15881
 C689 C 0.90697 -0.05546 -0.08931
 C690 C 0.88868 -0.07489 -0.11341
 C691 C 0.87193 -0.13573 -0.13960
 C692 C 0.92935 -0.07635 -0.06741
 H693 H 0.91891 -0.16747 -0.09651
 H694 H 0.95114 -0.13362 -0.05419
 H695 H 0.90303 -0.02425 -0.08749
 H696 H 0.87094 -0.05849 -0.12973
 C697 C 0.88587 0.37059 0.38930
 C698 C 0.91254 0.35363 0.41001
 C699 C 0.92786 0.37553 0.43417
 C700 C 0.85292 0.33126 0.34438
 C701 C 0.88993 0.43125 0.41670
 C702 C 0.87477 0.40942 0.39270
 C703 C 0.86876 0.34845 0.36489
 C704 C 0.91651 0.41456 0.43784
 H705 H 0.92130 0.32353 0.40758
 H706 H 0.94842 0.36196 0.44996
 H707 H 0.88066 0.46126 0.41871
 H708 H 0.85414 0.42282 0.37686
 C709 C 0.39078 -0.11193 0.37881
 C710 C 0.43090 -0.11576 0.38302
 C711 C 0.44919 -0.09784 0.40782
 C712 C 0.35507 -0.15209 0.33570
 C713 C 0.38735 -0.07143 0.42393
 C714 C 0.36911 -0.08938 0.39908
 C715 C 0.37151 -0.13318 0.35493
 C716 C 0.42748 -0.07601 0.42882
 H717 H 0.44790 -0.13325 0.36752
 H718 H 0.48018 -0.10176 0.41092
 H719 H 0.36995 -0.05463 0.43962
 H720 H 0.33801 -0.08634 0.39606
 C721 C 0.38516 0.38162 -0.11782
 C722 C 0.40826 0.36135 -0.09630
 C723 C 0.42540 0.38108 -0.07185
 C724 C 0.34879 0.34298 -0.16148
 C725 C 0.39695 0.44168 -0.09070
 C726 C 0.37980 0.42187 -0.11511
 C727 C 0.36570 0.36081 -0.14186
 C728 C 0.41955 0.42137 -0.06861
 H729 H 0.41256 0.33019 -0.09818
 H730 H 0.44284 0.36474 -0.05530
 H731 H 0.39204 0.47275 -0.08885
 H732 H 0.36193 0.43782 -0.13162
 C733 C 1.12173 -0.11970 0.12035
 C734 C 1.12661 -0.07923 0.11719
 C735 C 1.10919 -0.05880 0.09256
 C736 C 1.16002 -0.15920 0.16380
 C737 C 1.08134 -0.11922 0.07442
 C738 C 1.09876 -0.13956 0.09907
 C739 C 1.14200 -0.14113 0.14436
 C740 C 1.08679 -0.07870 0.07067
 H741 H 1.14443 -0.06355 0.13345
 H742 H 1.11381 -0.02759 0.09035
 H743 H 1.06408 -0.13530 0.05805
 H744 H 1.09484 -0.17088 0.10122
 C745 C 1.14156 0.37701 0.59591
 C746 C 1.16046 0.40363 0.57598
 C747 C 1.13939 0.42368 0.55295
 C748 C 1.17755 0.34189 0.64270
 C749 C 1.08087 0.38966 0.56937
 C750 C 1.10190 0.36967 0.59217
 C751 C 1.16195 0.35812 0.62108
 C752 C 1.09919 0.41737 0.54985
 H753 H 1.19121 0.40951 0.57868
 H754 H 1.15421 0.44498 0.53835
 H755 H 1.04995 0.38417 0.56760
 H756 H 1.08697 0.34913 0.60740
 C757 C 0.61346 -0.11170 0.62141
 C758 C 0.57380 -0.11908 0.61707
 C759 C 0.55414 -0.10191 0.59201
 C760 C 0.65333 -0.14857 0.66518
 C761 C 0.61369 -0.06944 0.57593
 C762 C 0.63321 -0.08653 0.60099
 C763 C 0.63460 -0.13149 0.64569
 C764 C 0.57409 -0.07737 0.57093
 H765 H 0.55827 -0.13863 0.63272
 H766 H 0.52360 -0.10844 0.58877
 H767 H 0.62974 -0.05043 0.56023
 H768 H 0.66391 -0.08067 0.60412
 C769 C 0.62081 0.38703 0.11708
 C770 C 0.62447 0.42745 0.11269
 C771 C 0.60413 0.44648 0.08883
 C772 C 0.66202 0.34934 0.15971
 C773 C 0.57584 0.38473 0.07401
 C774 C 0.59616 0.36580 0.09789
 C775 C 0.64320 0.36696 0.14054
 C776 C 0.57999 0.42520 0.06899
 H777 H 0.64346 0.44417 0.12741
 H778 H 0.60786 0.47769 0.08555
 H779 H 0.55735 0.36761 0.05921
 H780 H 0.59307 0.33451 0.10110
 C781 C 0.89062 0.11323 0.11638
 C782 C 0.88651 0.07279 0.11372
 C783 C 0.90527 0.05344 0.08992
 C784 C 0.85144 0.15107 0.15869
 C785 C 0.93284 0.11490 0.07168
 C786 C 0.91411 0.13416 0.09551
 C787 C 0.86954 0.13356 0.13969
 C788 C 0.92821 0.07442 0.06842
 H789 H 0.86836 0.05632 0.12975
 H790 H 0.90127 0.02222 0.08802
 H791 H 0.95050 0.13177 0.05557
 H792 H 0.91747 0.16547 0.09738
 C793 C 0.88325 0.63005 0.61063
 C794 C 0.87223 0.59119 0.60677
 C795 C 0.88817 0.56963 0.58302
 C796 C 0.84861 0.66891 0.65488
 C797 C 0.92679 0.62564 0.56675
 C798 C 0.91068 0.64727 0.59066
 C799 C 0.86523 0.65195 0.63470
 C800 C 0.91547 0.58659 0.56258
 H801 H 0.85102 0.57757 0.62202
 H802 H 0.87886 0.53962 0.58061
 H803 H 0.94786 0.63945 0.55151
 H804 H 0.91939 0.67740 0.59344
 C805 C 0.38873 0.10885 0.62095
 C806 C 0.36785 0.08605 0.60021
 C807 C 0.38668 0.06971 0.57508
 C808 C 0.35092 0.14605 0.66425
 C809 C 0.44759 0.09819 0.59184
 C810 C 0.42868 0.11454 0.61693
 C811 C 0.36857 0.12855 0.64502
 C812 C 0.42661 0.07614 0.57039
 H813 H 0.33688 0.08160 0.60310
 H814 H 0.36987 0.05263 0.55906
 H815 H 0.47842 0.10348 0.58887
 H816 H 0.44503 0.13229 0.63281
 C817 C 0.38657 0.61221 0.11757
 C818 C 0.38182 0.57186 0.11478
 C819 C 0.39842 0.55263 0.08992
 C820 C 0.35124 0.64959 0.16231
 C821 C 0.42507 0.61403 0.07072
 C822 C 0.40848 0.63319 0.09562
 C823 C 0.36769 0.63236 0.14220
 C824 C 0.41986 0.57361 0.06744
 H825 H 0.36488 0.55533 0.13160
 H826 H 0.39402 0.52145 0.08807
 H827 H 0.44161 0.63091 0.05389
 H828 H 0.41231 0.66443 0.09754
   
