data_POSCAR
  _audit_creation_date              2014-09-24
  _audit_creation_method            'ToBaCCo'
  _symmetry_space_group_name_H-M    'P1'
  _symmetry_Int_Tables_number       1
  _symmetry_cell_setting            triclinic
  loop_
  _symmetry_equiv_pos_as_xyz
 x,y,z
_cell_length_a 22.5587
_cell_length_b 22.5327
_cell_length_c 57.0145
_cell_angle_alpha 90.672700
_cell_angle_beta 89.574100
_cell_angle_gamma 120.098000
loop_
  _atom_site_label
  _atom_site_type_symbol
  _atom_site_fract_x
  _atom_site_fract_y
  _atom_site_fract_z
C1 C -0.04254 0.03698 0.51544
 C2 C -0.09869 -0.01304 0.49852
 C3 C -0.07970 -0.05278 0.48581
 C4 C -0.00704 -0.03882 0.49109
 C5 C -0.02560 -0.00830 0.53048
 C6 C -0.00761 -0.04842 0.51777
 C7 C 0.02067 0.07828 0.50013
 C8 C 0.03920 0.03885 0.48736
 H9 H -0.14944 -0.01894 0.49756
 H10 H 0.00868 -0.07076 0.48072
 H11 H -0.03502 -0.01420 0.54928
 H12 H 0.04626 0.13375 0.49852
 C13 C 0.95355 -0.08412 0.18277
 C14 C 1.00463 -0.08965 0.16607
 C15 C 1.04366 -0.03092 0.15357
 C16 C 1.02791 0.02695 0.15894
 C17 C 0.99475 -0.02420 0.19733
 C18 C 1.03615 0.03678 0.18428
 C19 C 0.91140 -0.06458 0.16709
 C20 C 0.95022 -0.00651 0.15456
 H21 H 1.01148 -0.13401 0.16506
 H22 H 1.05916 0.07454 0.14872
 H23 H 1.00201 -0.02730 0.21603
 H24 H 0.85607 -0.09551 0.16526
 C25 C 0.08925 1.05030 0.84952
 C26 C 0.09574 1.10589 0.83257
 C27 C 0.03731 1.08618 0.81992
 C28 C -0.02147 1.01342 0.82526
 C29 C 0.02647 1.03337 0.86461
 C30 C -0.03134 1.01466 0.85195
 C31 C 0.06794 0.98667 0.83425
 C32 C 0.01027 0.96741 0.82153
 H33 H 0.14054 1.15685 0.83159
 H34 H -0.06887 0.99712 0.81493
 H35 H 0.02940 1.04332 0.88340
 H36 H 0.09794 0.96122 0.83266
 O37 O 0.62180 0.11056 -0.02056
 O38 O 0.50770 0.10743 0.02704
 O39 O 0.62516 0.10949 0.02514
 O40 O 0.51091 0.11846 -0.01840
 O41 O 0.45159 0.00516 -0.02061
 O42 O 0.56691 -0.00380 0.02306
 O43 O 0.44974 -0.00585 0.02483
 O44 O 0.56220 -0.00278 -0.02239
 Cu45 Cu 0.57238 0.12287 0.00363
 Cu46 Cu 0.50162 -0.01317 0.00114
 C47 C 0.61070 0.05400 -0.02955
 C48 C 0.45882 0.04983 0.03374
 C49 C 0.61612 0.05166 0.03124
 C50 C 0.46229 0.06360 -0.02696
 O51 O 0.00314 0.45174 0.64578
 O52 O 0.01058 0.57754 0.68952
 O53 O 0.01368 0.46293 0.69126
 O54 O 0.01012 0.56992 0.64405
 O55 O -0.10312 0.51521 0.64544
 O56 O -0.09949 0.40667 0.69304
 O57 O -0.10261 0.52156 0.69117
 O58 O -0.11006 0.39685 0.64758
 Cu59 Cu 0.02073 0.52102 0.66761
 Cu60 Cu -0.11519 0.45461 0.66960
 C61 C -0.05500 0.40328 0.63921
 C62 C -0.04509 0.57105 0.69750
 C63 C -0.04186 0.41623 0.69994
 C64 C -0.04669 0.56071 0.63665
 O65 O 0.59266 0.48548 0.35787
 O66 O 0.48132 0.37268 0.31012
 O67 O 0.59966 0.48457 0.31233
 O68 O 0.47774 0.36712 0.35584
 O69 O 0.42177 0.42431 0.35544
 O70 O 0.54474 0.54284 0.31180
 O71 O 0.42662 0.43118 0.30997
 O72 O 0.53634 0.54232 0.35734
 Cu73 Cu 0.54331 0.42154 0.33420
 Cu74 Cu 0.47686 0.49099 0.33371
 C75 C 0.58355 0.53364 0.36542
 C76 C 0.43535 0.38349 0.30194
 C77 C 0.59280 0.53328 0.30464
 C78 C 0.42875 0.37515 0.36279
 C79 C -0.05951 0.08103 0.52965
 C80 C -0.06826 0.11941 0.54217
 C81 C -0.07352 0.16698 0.55784
 C82 C -0.10107 0.14605 0.58034
 C83 C -0.09882 0.19409 0.59659
 C84 C -0.06881 0.26327 0.59042
 C85 C -0.04254 0.28398 0.56777
 C86 C -0.04479 0.23593 0.55152
 C87 C -0.06338 0.31316 0.60753
 C88 C -0.05895 0.35463 0.62197
 H89 H -0.12263 0.09302 0.58550
 H90 H -0.11923 0.17757 0.61407
 H91 H -0.01917 0.33737 0.56284
 H92 H -0.02258 0.25279 0.53426
 C93 C 0.91013 0.85468 0.19668
 C94 C 0.87231 0.80725 0.20892
 C95 C 0.82542 0.75391 0.22427
 C96 C 0.84715 0.74696 0.24650
 C97 C 0.79981 0.70048 0.26249
 C98 C 0.73055 0.66095 0.25634
 C99 C 0.70905 0.66688 0.23394
 C100 C 0.75640 0.71336 0.21794
 C101 C 0.68138 0.61584 0.27323
 C102 C 0.64057 0.57833 0.28753
 H103 H 0.90025 0.77865 0.25167
 H104 H 0.81694 0.69633 0.27979
 H105 H 0.65559 0.63660 0.22901
 H106 H 0.73893 0.71893 0.20090
 C107 C 0.14992 0.06800 -0.13631
 C108 C 0.19670 0.07724 -0.12383
 C109 C 0.24901 0.08294 -0.10818
 C110 C 0.29011 0.05513 -0.11471
 C111 C 0.33519 0.05299 -0.09849
 C112 C 0.33915 0.07845 -0.07567
 C113 C 0.29913 0.10761 -0.06930
 C114 C 0.25406 0.10975 -0.08552
 C115 C 0.38262 0.07281 -0.05860
 C116 C 0.41876 0.06809 -0.04418
 H117 H 0.28597 0.03347 -0.13209
 H118 H 0.36585 0.03025 -0.10358
 H119 H 0.30175 0.12736 -0.05169
 H120 H 0.22187 0.13057 -0.08020
 C121 C -0.00809 0.89391 0.52858
 C122 C -0.01183 0.84601 0.53904
 C123 C -0.01902 0.79003 0.55301
 C124 C -0.08460 0.73625 0.55868
 C125 C -0.09239 0.68608 0.57461
 C126 C -0.03459 0.68960 0.58495
 C127 C 0.03105 0.74239 0.57882
 C128 C 0.03883 0.79257 0.56291
 C129 C -0.04222 0.64158 0.60278
 C130 C -0.04613 0.60344 0.61812
 H131 H -0.12973 0.73425 0.55132
 H132 H -0.14336 0.64568 0.57930
 H133 H 0.07609 0.74573 0.58680
 H134 H 0.08971 0.83433 0.55887
 C135 C 0.09254 0.08982 0.19456
 C136 C 0.14192 0.13337 0.20490
 C137 C 0.19957 0.18157 0.21870
 C138 C 0.20169 0.24048 0.22791
 C139 C 0.25338 0.28279 0.24366
 C140 C 0.30305 0.26627 0.25031
 C141 C 0.30195 0.20831 0.24064
 C142 C 0.25027 0.16602 0.22488
 C143 C 0.35233 0.30671 0.26806
 C144 C 0.39149 0.34108 0.28338
 H145 H 0.16234 0.25257 0.22346
 H146 H 0.25358 0.32734 0.25112
 H147 H 0.33987 0.19487 0.24575
 H148 H 0.24866 0.12015 0.21805
 C149 C 0.91099 0.01501 -0.13723
 C150 C 0.86631 0.01868 -0.12677
 C151 C 0.81679 0.02583 -0.11285
 C152 C 0.82815 0.09147 -0.10723
 C153 C 0.78490 0.09930 -0.09137
 C154 C 0.73017 0.04149 -0.08106
 C155 C 0.71779 -0.02422 -0.08714
 C156 C 0.76106 -0.03204 -0.10298
 C157 C 0.68882 0.04923 -0.06331
 C158 C 0.65379 0.05326 -0.04803
 H159 H 0.87158 0.13662 -0.11457
 H160 H 0.79512 0.15034 -0.08672
 H161 H 0.67576 -0.06926 -0.07918
 H162 H 0.75226 -0.08296 -0.10699
 C163 C 0.09974 -0.02079 0.13862
 C164 C 0.14744 -0.01018 0.12616
 C165 C 0.20473 0.00395 0.11121
 C166 C 0.23977 -0.03220 0.11395
 C167 C 0.29475 -0.01900 0.09915
 C168 C 0.31507 0.03054 0.08159
 C169 C 0.28045 0.06715 0.07900
 C170 C 0.22549 0.05396 0.09380
 C171 C 0.36855 0.04073 0.06535
 C172 C 0.41127 0.04672 0.05123
 H173 H 0.22423 -0.07092 0.12736
 H174 H 0.32079 -0.04800 0.10120
 H175 H 0.29534 0.10519 0.06538
 H176 H 0.19883 0.08229 0.09153
 C177 C 0.87403 0.89156 0.47072
 C178 C 0.83667 0.84410 0.45815
 C179 C 0.79322 0.78702 0.44308
 C180 C 0.72207 0.75133 0.44640
 C181 C 0.68001 0.69644 0.43153
 C182 C 0.70891 0.67687 0.41332
 C183 C 0.78012 0.71216 0.41015
 C184 C 0.82216 0.76703 0.42502
 C185 C 0.66529 0.62350 0.39705
 C186 C 0.62830 0.58093 0.38291
 H187 H 0.69913 0.76625 0.46033
 H188 H 0.62498 0.66987 0.43404
 H189 H 0.80302 0.69786 0.39603
 H190 H 0.87713 0.79419 0.42231
 C191 C 0.02810 0.13189 0.80487
 C192 C 0.01801 0.16868 0.79234
 C193 C 0.00425 0.21133 0.77733
 C194 C -0.04670 0.18119 0.76011
 C195 C -0.05979 0.22239 0.74531
 C196 C -0.02212 0.29395 0.74771
 C197 C 0.02841 0.32408 0.76507
 C198 C 0.04150 0.28286 0.77987
 C199 C -0.03241 0.33652 0.73150
 C200 C -0.03854 0.37260 0.71740
 H201 H -0.07591 0.12593 0.75801
 H202 H -0.09861 0.19853 0.73184
 H203 H 0.05821 0.37937 0.76697
 H204 H 0.08093 0.30673 0.79315
 C205 C 0.91923 0.01568 0.13734
 C206 C 0.88827 0.02922 0.12326
 C207 C 0.84665 0.04032 0.10687
 C208 C 0.80414 0.06513 0.11486
 C209 C 0.75795 0.06870 0.09951
 C210 C 0.75389 0.04726 0.07612
 C211 C 0.79728 0.02365 0.06802
 C212 C 0.84346 0.02007 0.08336
 C213 C 0.70450 0.04832 0.06053
 C214 C 0.66350 0.04930 0.04732
 H215 H 0.80557 0.08014 0.13306
 H216 H 0.72467 0.08705 0.10597
 H217 H 0.79459 0.00695 0.04996
 H218 H 0.87546 0.00003 0.07706
 C219 C 0.09252 0.06943 0.46994
 C220 C 0.13703 0.10023 0.45567
 C221 C 0.18962 0.14183 0.43906
 C222 C 0.25667 0.18607 0.44682
 C223 C 0.30602 0.23254 0.43129
 C224 C 0.28848 0.23515 0.40796
 C225 C 0.22180 0.18996 0.40008
 C226 C 0.17245 0.14349 0.41560
 C227 C 0.33829 0.28515 0.39224
 C228 C 0.37969 0.32679 0.37895
 H229 H 0.27030 0.18585 0.46499
 H230 H 0.35739 0.26725 0.43758
 H231 H 0.20766 0.19154 0.38207
 H232 H 0.12058 0.11016 0.40948
 C233 C -0.01207 0.91333 0.80422
 C234 C -0.02557 0.86820 0.79005
 C235 C -0.03645 0.81485 0.77355
 C236 C -0.06021 0.74793 0.78142
 C237 C -0.06332 0.69775 0.76597
 C238 C -0.04246 0.71432 0.74260
 C239 C -0.01993 0.78090 0.73461
 C240 C -0.01681 0.83108 0.75006
 C241 C -0.04290 0.66352 0.72692
 C242 C -0.04335 0.62123 0.71365
 H243 H -0.07472 0.73500 0.79961
 H244 H -0.08083 0.64644 0.77234
 H245 H -0.00367 0.79429 0.71657
 H246 H 0.00245 0.88285 0.74385
   
