data_POSCAR
  _audit_creation_date              2014-09-24
  _audit_creation_method            'ToBaCCo'
  _symmetry_space_group_name_H-M    'P1'
  _symmetry_Int_Tables_number       1
  _symmetry_cell_setting            triclinic
  loop_
  _symmetry_equiv_pos_as_xyz
 x,y,z
_cell_length_a 34.0804
_cell_length_b 34.3846
_cell_length_c 13.6718
_cell_angle_alpha 89.888200
_cell_angle_beta 90.163900
_cell_angle_gamma 119.620500
loop_
  _atom_site_label
  _atom_site_type_symbol
  _atom_site_fract_x
  _atom_site_fract_y
  _atom_site_fract_z
O1 O 0.32334 0.56498 0.59166
 O2 O 0.24611 0.56531 0.39896
 O3 O 0.32292 0.56374 0.40118
 O4 O 0.24552 0.56365 0.59106
 O5 O 0.28322 0.63755 0.59022
 O6 O 0.35939 0.63763 0.40334
 O7 O 0.28445 0.63913 0.39957
 O8 O 0.35919 0.63888 0.59151
 Cu9 Cu 0.28054 0.55687 0.49545
 Cu10 Cu 0.32502 0.64562 0.49590
 C11 C 0.35449 0.60226 0.62398
 C12 C 0.25258 0.60271 0.36623
 C13 C 0.35473 0.60101 0.37117
 C14 C 0.25184 0.60088 0.62361
 O15 O 0.56297 -0.18246 0.59424
 O16 O 0.60565 -0.23198 0.41011
 O17 O 0.56725 -0.18190 0.40362
 O18 O 0.60465 -0.23049 0.59961
 O19 O 0.53796 -0.29183 0.59652
 O20 O 0.50142 -0.24437 0.40056
 O21 O 0.53869 -0.29315 0.40741
 O22 O 0.49735 -0.24496 0.59027
 Cu23 Cu 0.59187 -0.20033 0.50267
 Cu24 Cu 0.51221 -0.27454 0.49900
 C25 C 0.52232 -0.20571 0.62291
 C26 C 0.57910 -0.27114 0.37786
 C27 C 0.52799 -0.20547 0.36800
 C28 C 0.57785 -0.26987 0.62983
 O29 O 1.16393 0.77114 0.58813
 O30 O 1.25626 0.81977 0.40416
 O31 O 1.16677 0.77337 0.39780
 O32 O 1.25229 0.82008 0.59454
 O33 O 1.25449 0.75691 0.59743
 O34 O 1.17139 0.71149 0.39987
 O35 O 1.25863 0.75678 0.40823
 O36 O 1.16858 0.70925 0.58975
 Cu37 Cu 1.20946 0.80247 0.49546
 Cu38 Cu 1.21374 0.72746 0.49848
 C39 C 1.15093 0.73184 0.62029
 C40 C 1.27335 0.79616 0.37574
 C41 C 1.15426 0.73421 0.36642
 C42 C 1.26735 0.79590 0.63012
 O43 O 0.75806 0.43221 0.40711
 O44 O 0.67846 0.43175 0.59329
 O45 O 0.75589 0.43166 0.59766
 O46 O 0.68052 0.43155 0.40120
 O47 O 0.64497 0.35766 0.40138
 O48 O 0.71819 0.35776 0.59712
 O49 O 0.64280 0.35793 0.59185
 O50 O 0.72072 0.35831 0.40871
 Cu51 Cu 0.72183 0.43935 0.49994
 Cu52 Cu 0.67788 0.35061 0.49979
 C53 C 0.75272 0.39495 0.37685
 C54 C 0.64716 0.39438 0.62460
 C55 C 0.74973 0.39439 0.63017
 C56 C 0.65023 0.39426 0.36728
 O57 O 0.43014 0.17425 0.59608
 O58 O 0.38993 0.22304 0.40420
 O59 O 0.43025 0.17466 0.40433
 O60 O 0.38932 0.22279 0.59450
 O61 O 0.45585 0.28447 0.59436
 O62 O 0.49604 0.23713 0.40687
 O63 O 0.45673 0.28437 0.40458
 O64 O 0.49527 0.23733 0.59718
 Cu65 Cu 0.40319 0.19228 0.49991
 Cu66 Cu 0.48262 0.26687 0.50092
 C67 C 0.46983 0.19814 0.62981
 C68 C 0.41678 0.26208 0.37201
 C69 C 0.47027 0.19836 0.37271
 C70 C 0.41578 0.26207 0.62588
 O71 O 0.74882 0.17605 0.40082
 O72 O 0.83582 0.22635 0.59546
 O73 O 0.74707 0.17575 0.59327
 O74 O 0.83732 0.22627 0.40639
 O75 O 0.83016 0.28677 0.40438
 O76 O 0.74201 0.23735 0.58999
 O77 O 0.82863 0.28676 0.59348
 O78 O 0.74395 0.23777 0.39922
 Cu79 Cu 0.79261 0.19470 0.49930
 Cu80 Cu 0.78523 0.26799 0.49674
 C81 C 0.73230 0.19914 0.36587
 C82 C 0.84740 0.26546 0.62644
 C83 C 0.72971 0.19868 0.62410
 C84 C 0.84921 0.26534 0.37464
 O85 O 0.99454 0.40842 0.17671
 O86 O 0.92911 0.38346 0.08785
 C87 C 0.95343 0.37858 0.15452
 O88 O 1.01016 0.59272 0.16742
 O89 O 1.07550 0.61607 0.07998
 C90 C 1.05108 0.62230 0.14357
 O91 O 0.90721 0.47826 0.18107
 O92 O 0.88876 0.41620 0.08734
 C93 C 0.88041 0.43688 0.15627
 O94 O 1.10181 0.51910 0.16814
 O95 O 1.11790 0.58159 0.07782
 C96 C 1.12813 0.56046 0.14273
 Zr97 Zr 1.03508 0.47398 0.12035
 O98 O 1.04079 0.47637 0.27469
 O99 O 1.07306 0.44087 0.10655
 Zr100 Zr 0.97123 0.52515 0.12218
 O101 O 0.97456 0.53095 0.27643
 O102 O 0.92973 0.55465 0.11187
 O103 O 0.97023 0.46442 0.14189
 O104 O 1.03551 0.53394 0.13847
 O105 O 1.09952 0.51807 -0.17578
 O106 O 1.11687 0.58108 -0.08650
 C107 C 1.12635 0.55946 -0.15102
 O108 O 0.90428 0.47729 -0.17752
 O109 O 0.88726 0.41578 -0.08267
 C110 C 0.87779 0.43615 -0.15067
 O111 O 1.00775 0.59166 -0.17203
 O112 O 1.07447 0.61563 -0.08873
 C113 C 1.04913 0.62138 -0.15132
 O114 O 0.99108 0.40729 -0.18040
 O115 O 0.92748 0.38281 -0.08593
 C116 C 0.95039 0.37757 -0.15495
 Zr117 Zr 1.03305 0.47309 -0.12591
 O118 O 1.03645 0.47610 -0.28050
 O119 O 1.06895 0.43745 -0.12283
 Zr120 Zr 0.96944 0.52430 -0.12419
 O121 O 0.97197 0.52822 -0.27880
 O122 O 0.92635 0.55227 -0.12034
 Zr123 Zr 0.94665 0.44006 0.00017
 Zr124 Zr 1.05797 0.55847 -0.00351
 O125 O 1.03346 0.53302 -0.14414
 O126 O 0.96790 0.46335 -0.14329
 O127 O 1.07252 0.50563 -0.00388
 O128 O 0.93303 0.49339 0.00035
 O129 O 1.00556 0.43489 -0.00175
 O130 O 0.99938 0.56446 -0.00189
 H131 H 1.05245 0.55175 0.19623
 H132 H 0.90122 0.48670 0.00156
 H133 H 1.04981 0.55056 -0.20259
 H134 H 1.00252 0.40469 -0.00184
 H135 H 0.92401 0.56023 0.18003
 H136 H 0.93965 0.57749 -0.07349
 H137 H 0.96179 0.49773 -0.30392
 H138 H 1.00534 0.46446 -0.30520
 H139 H 1.09526 0.45397 -0.07908
 H140 H 1.07986 0.43553 0.17414
 H141 H 1.01032 0.46641 0.30127
 H142 H 0.96929 0.50198 0.30290
 O143 O 0.42689 0.51774 0.17958
 O144 O 0.46999 0.57959 0.08483
 C145 C 0.44117 0.55902 0.15401
 O146 O 0.57985 0.47628 0.16740
 O147 O 0.53390 0.41375 0.07689
 C148 C 0.56534 0.43507 0.14129
 O149 O 0.58321 0.58730 0.17628
 O150 O 0.54268 0.61220 0.08722
 C151 C 0.57172 0.61707 0.15428
 O152 O 0.41573 0.40333 0.16757
 O153 O 0.45722 0.37948 0.07969
 C154 C 0.42682 0.37352 0.14384
 Zr155 Zr 0.44332 0.47054 0.11979
 O156 O 0.43775 0.46506 0.27366
 O157 O 0.37241 0.44274 0.11027
 Zr158 Zr 0.55829 0.52163 0.12034
 O159 O 0.56095 0.51887 0.27482
 O160 O 0.62935 0.55472 0.10822
 O161 O 0.50288 0.53111 0.14075
 O162 O 0.49884 0.46173 0.13776
 O163 O 0.41383 0.40405 -0.17185
 O164 O 0.45678 0.38020 -0.08885
 C165 C 0.42550 0.37432 -0.15080
 O166 O 0.58206 0.58854 -0.18053
 O167 O 0.54281 0.61305 -0.08630
 C168 C 0.57110 0.61831 -0.15494
 O169 O 0.57981 0.47787 -0.17628
 O170 O 0.53387 0.41475 -0.08745
 C171 C 0.56493 0.43632 -0.15230
 O172 O 0.42502 0.51858 -0.17981
 O173 O 0.46954 0.58023 -0.08556
 C174 C 0.43984 0.55987 -0.15382
 Zr175 Zr 0.44380 0.47183 -0.12697
 O176 O 0.45047 0.47415 -0.28078
 O177 O 0.37270 0.44041 -0.13977
 Zr178 Zr 0.55814 0.52269 -0.12603
 O179 O 0.55882 0.52045 -0.28064
 O180 O 0.62957 0.55802 -0.12141
 Zr181 Zr 0.50424 0.55572 -0.00122
 Zr182 Zr 0.49736 0.43725 -0.00400
 O183 O 0.49883 0.46260 -0.14504
 O184 O 0.50296 0.53275 -0.14454
 O185 O 0.43278 0.43149 -0.00429
 O186 O 0.56828 0.56080 -0.00194
 O187 O 0.43744 0.50249 -0.00257
 O188 O 0.56461 0.49005 -0.00353
 H189 H 0.49807 0.44390 0.19546
 H190 H 0.59540 0.59096 -0.00162
 H191 H 0.49766 0.44488 -0.20315
 H192 H 0.41267 0.50969 -0.00147
 H193 H 0.64115 0.55975 0.17608
 H194 H 0.63910 0.54137 -0.07723
 H195 H 0.53620 0.52832 -0.30457
 H196 H 0.41935 0.45965 -0.30739
 H197 H 0.36114 0.44695 -0.07951
 H198 H 0.36020 0.41403 0.07460
 H199 H 0.46881 0.48062 0.29996
 H200 H 0.54323 0.53213 0.30146
 O201 O 0.53746 -0.06655 0.17294
 O202 O 0.47716 -0.11403 0.07767
 C203 C 0.50674 -0.10628 0.14513
 O204 O 0.46196 0.06109 0.17429
 O205 O 0.52306 0.10856 0.08126
 C206 C 0.49304 0.10082 0.14749
 O207 O 0.40209 -0.06577 0.18402
 O208 O 0.41364 -0.11371 0.08760
 C209 C 0.39356 -0.10561 0.15832
 O210 O 0.60413 0.06054 0.16588
 O211 O 0.58899 0.10822 0.07669
 C212 C 0.61251 0.10036 0.13996
 Zr213 Zr 0.55077 -0.00288 0.11866
 O214 O 0.55732 0.00097 0.27281
 O215 O 0.61138 -0.00486 0.10238
 Zr216 Zr 0.45078 -0.00251 0.12550
 O217 O 0.45347 0.00229 0.27990
 O218 O 0.38672 -0.00662 0.12480
 O219 O 0.48132 -0.04203 0.14143
 O220 O 0.52016 0.03554 0.13978
 O221 O 0.60025 0.06029 -0.17847
 O222 O 0.58688 0.10810 -0.08591
 C223 C 0.60905 0.10014 -0.15200
 O224 O 0.39717 -0.06637 -0.17549
 O225 O 0.40978 -0.11403 -0.07989
 C226 C 0.38802 -0.10616 -0.14737
 O227 O 0.45811 0.06081 -0.17062
 O228 O 0.52092 0.10829 -0.08166
 C229 C 0.48991 0.10057 -0.14576
 O230 O 0.53280 -0.06663 -0.18675
 O231 O 0.47336 -0.11410 -0.08980
 C232 C 0.50143 -0.10634 -0.16056
 Zr233 Zr 0.54767 -0.00311 -0.12901
 O234 O 0.54956 0.00144 -0.28347
 O235 O 0.60739 -0.00765 -0.12840
 Zr236 Zr 0.44765 -0.00269 -0.12204
 O237 O 0.44455 0.00076 -0.27620
 O238 O 0.38539 -0.00403 -0.10546
 Zr239 Zr 0.46635 -0.06834 -0.00138
 Zr240 Zr 0.53212 0.06277 -0.00211
 O241 O 0.51663 0.03528 -0.14369
 O242 O 0.47764 -0.04224 -0.14447
 O243 O 0.57664 0.03690 -0.00578
 O244 O 0.42275 -0.04147 0.00254
 O245 O 0.53667 -0.04190 -0.00556
 O246 O 0.46188 0.03740 0.00188
 H247 H 0.53088 0.05558 0.19745
 H248 H 0.38973 -0.06213 0.00501
 H249 H 0.52599 0.05515 -0.20168
 H250 H 0.54889 -0.06272 -0.00779
 H251 H 0.38900 0.01767 0.08203
 H252 H 0.37428 -0.00432 -0.17265
 H253 H 0.45274 -0.02091 -0.30332
 H254 H 0.51941 -0.02100 -0.30786
 H255 H 0.62935 0.01643 -0.08531
 H256 H 0.62226 -0.00497 0.16960
 H257 H 0.52763 -0.02086 0.30016
 H258 H 0.46132 -0.02007 0.30453
 C259 C 1.22478 0.60458 0.29324
 C260 C 1.23229 0.64398 0.24989
 C261 C 1.19795 0.63211 0.18519
 C262 C 1.17159 0.58633 0.19392
 O263 O 1.18776 0.56933 0.25950
 H264 H 1.25937 0.67749 0.26446
 H265 H 1.19202 0.65435 0.13919
 C266 C 0.59463 0.70731 0.30731
 C267 C 0.63869 0.71671 0.29638
 C268 C 0.63641 0.68419 0.23522
 C269 C 0.59132 0.65826 0.21213
 O270 O 0.56594 0.67199 0.25611
 H271 H 0.66841 0.74253 0.33274
 H272 H 0.66402 0.67937 0.21182
 C273 C 0.30868 -0.18721 0.30844
 C274 C 0.32629 -0.21270 0.27148
 C275 C 0.35938 -0.18545 0.20926
 C276 C 0.36034 -0.14492 0.21345
 O277 O 0.32952 -0.14567 0.27377
 H278 H 0.31637 -0.24707 0.28836
 H279 H 0.38096 -0.19385 0.16706
 C280 C 0.78337 0.39309 0.30393
 C281 C 0.77589 0.35367 0.26159
 C282 C 0.81105 0.36520 0.19991
 C283 C 0.83777 0.41090 0.20952
 O284 O 0.82112 0.42815 0.27283
 H285 H 0.74811 0.32045 0.27500
 H286 H 0.81689 0.34287 0.15429
 C287 C 0.40211 0.28305 0.29771
 C288 C 0.35807 0.27267 0.28072
 C289 C 0.36096 0.30488 0.21746
 C290 C 0.40642 0.33161 0.19927
 O291 O 0.43138 0.31865 0.24823
 H292 H 0.32786 0.24642 0.31457
 H293 H 0.33349 0.30913 0.19007
 C294 C 0.69994 0.18227 0.28433
 C295 C 0.69180 0.21017 0.22579
 C296 C 0.65937 0.18294 0.16214
 C297 C 0.64964 0.14013 0.18651
 O298 O 0.67442 0.13945 0.26083
 H299 H 0.70739 0.24614 0.22969
 H300 H 0.64368 0.19302 0.10612
 C301 C 0.48645 0.18217 -0.29632
 C302 C 0.52712 0.20884 -0.25008
 C303 C 0.53191 0.18194 -0.18471
 C304 C 0.49426 0.14035 -0.19634
 O305 O 0.46618 0.14022 -0.26405
 H306 H 0.55080 0.24375 -0.26308
 H307 H 0.56041 0.19121 -0.13648
 C308 C 0.61701 0.39248 -0.30415
 C309 C 0.58463 0.35294 -0.26275
 C310 C 0.56219 0.36467 -0.19815
 C311 C 0.58214 0.41057 -0.20498
 O312 O 0.61560 0.42778 -0.26941
 H313 H 0.57799 0.31947 -0.27858
 H314 H 0.53377 0.34229 -0.15326
 C315 C 0.88163 0.28626 -0.30434
 C316 C 0.90929 0.27030 -0.27069
 C317 C 0.93976 0.30300 -0.21009
 C318 C 0.92775 0.33581 -0.21042
 O319 O 0.89267 0.32586 -0.26726
 H320 H 0.90819 0.23926 -0.29001
 H321 H 0.96717 0.30290 -0.17017
 C322 C 0.50403 -0.18875 -0.30950
 C323 C 0.46116 -0.21397 -0.27153
 C324 C 0.45561 -0.18638 -0.20969
 C325 C 0.49511 -0.14593 -0.21504
 O326 O 0.52489 -0.14706 -0.27572
 H327 H 0.43667 -0.24843 -0.28738
 H328 H 0.42586 -0.19453 -0.16693
 C329 C 0.38605 0.60399 -0.30023
 C330 C 0.41639 0.64300 -0.25372
 C331 C 0.43992 0.63126 -0.19156
 C332 C 0.42245 0.58592 -0.20497
 O333 O 0.38963 0.56909 -0.27107
 H334 H 0.42099 0.67614 -0.26450
 H335 H 0.46710 0.65325 -0.14328
 C336 C 1.11459 0.71096 -0.30727
 C337 C 1.08013 0.72057 -0.29463
 C338 C 1.05068 0.68857 -0.23133
 C339 C 1.07015 0.66279 -0.20869
 O340 O 1.10861 0.67608 -0.25509
 H341 H 1.07576 0.74609 -0.33134
 H342 H 1.01847 0.68388 -0.20664
 C343 C 0.77919 0.39273 -0.29336
 C344 C 0.76951 0.35413 -0.24364
 C345 C 0.80509 0.36558 -0.18275
 C346 C 0.83404 0.41041 -0.20001
 O347 O 0.81846 0.42717 -0.26724
 H348 H 0.73996 0.32155 -0.25131
 H349 H 0.80965 0.34378 -0.13244
 C350 C 0.40060 0.28331 -0.30210
 C351 C 0.35668 0.27423 -0.28997
 C352 C 0.35953 0.30691 -0.22845
 C353 C 0.40478 0.33256 -0.20647
 O354 O 0.42966 0.31850 -0.25133
 H355 H 0.32674 0.24868 -0.32621
 H356 H 0.33225 0.31219 -0.20469
 C357 C 0.69560 0.18170 -0.29817
 C358 C 0.68491 0.20936 -0.24587
 C359 C 0.65238 0.18233 -0.18250
 C360 C 0.64498 0.13980 -0.20118
 O361 O 0.67138 0.13914 -0.27153
 H362 H 0.69901 0.24504 -0.25366
 H363 H 0.63527 0.19231 -0.13016
 C364 C 1.22329 0.60247 -0.29820
 C365 C 1.23426 0.64079 -0.24632
 C366 C 1.19970 0.62930 -0.18288
 C367 C 1.17003 0.58465 -0.20073
 O368 O 1.18427 0.56807 -0.27078
 H369 H 1.26409 0.67317 -0.25421
 H370 H 1.19618 0.65103 -0.13075
 C371 C 0.59201 0.70964 -0.30186
 C372 C 0.63571 0.72624 -0.26841
 C373 C 0.63429 0.69345 -0.20911
 C374 C 0.58982 0.65998 -0.21025
 O375 O 0.56419 0.66963 -0.26604
 H376 H 0.66515 0.75779 -0.28696
 H377 H 0.66204 0.69400 -0.16926
 C378 C 0.29961 -0.18776 -0.28883
 C379 C 0.30572 -0.21597 -0.22706
 C380 C 0.33888 -0.18879 -0.16470
 C381 C 0.35088 -0.14582 -0.19339
 O382 O 0.32684 -0.14492 -0.26869
 H383 H 0.28795 -0.25208 -0.22749
 H384 H 0.35306 -0.19907 -0.10581
 C385 C 0.51256 -0.18855 0.28692
 C386 C 0.47830 -0.21636 0.22478
 C387 C 0.47284 -0.18887 0.16233
 C388 C 0.50396 -0.14609 0.19130
 O389 O 0.52857 -0.14560 0.26690
 H390 H 0.45960 -0.25240 0.22482
 H391 H 0.44857 -0.19883 0.10321
 C392 C 0.38726 0.60286 0.29877
 C393 C 0.41923 0.64224 0.25671
 C394 C 0.44330 0.63076 0.19625
 C395 C 0.42441 0.58505 0.20642
 O396 O 0.39027 0.56782 0.26886
 H397 H 0.42433 0.67535 0.26970
 H398 H 0.47164 0.65307 0.15104
 C399 C 1.11837 0.71343 0.29302
 C400 C 1.08456 0.72384 0.27801
 C401 C 1.05442 0.69123 0.21685
 C402 C 1.07287 0.66429 0.19797
 O403 O 1.11136 0.67746 0.24439
 H404 H 1.08097 0.75027 0.31220
 H405 H 1.02242 0.68687 0.19126
 C406 C 0.48765 0.18198 0.29427
 C407 C 0.52578 0.20994 0.24177
 C408 C 0.53159 0.18311 0.17809
 C409 C 0.49672 0.14046 0.19669
 O410 O 0.46968 0.13952 0.26733
 H411 H 0.54698 0.24566 0.24968
 H412 H 0.55871 0.19327 0.12572
 C413 C 0.62068 0.39263 0.28711
 C414 C 0.59466 0.35468 0.23277
 C415 C 0.57119 0.36596 0.16929
 C416 C 0.58464 0.41009 0.18954
 O417 O 0.61489 0.42656 0.26100
 H418 H 0.59311 0.32263 0.23910
 H419 H 0.54667 0.34442 0.11564
 C420 C 0.88636 0.28743 0.30484
 C421 C 0.92148 0.27862 0.29473
 C422 C 0.95177 0.31162 0.23468
 C423 C 0.93216 0.33721 0.21150
 O424 O 0.89273 0.32283 0.25428
 H425 H 0.92561 0.25287 0.33108
 H426 H 0.98448 0.31697 0.21212
   
