data_POSCAR
  _audit_creation_date              2014-09-24
  _audit_creation_method            'ToBaCCo'
  _symmetry_space_group_name_H-M    'P1'
  _symmetry_Int_Tables_number       1
  _symmetry_cell_setting            triclinic
  loop_
  _symmetry_equiv_pos_as_xyz
 x,y,z
_cell_length_a 43.1045
_cell_length_b 42.7975
_cell_length_c 42.9313
_cell_angle_alpha 90.119100
_cell_angle_beta 89.969500
_cell_angle_gamma 90.283200
loop_
  _atom_site_label
  _atom_site_type_symbol
  _atom_site_fract_x
  _atom_site_fract_y
  _atom_site_fract_z
N1 N 0.18191 1.24534 0.16084
 N2 N 0.15808 1.24215 0.17963
 C3 C 0.13777 1.26529 0.17423
 C4 C 0.14935 1.28414 0.15052
 C5 C 0.17759 1.27059 0.14276
 H6 H 0.11603 1.26775 0.18648
 H7 H 0.19374 1.27805 0.12500
 Cu8 Cu 0.15490 1.20745 0.20862
 Cu9 Cu 0.21601 1.21570 0.16027
 Cu10 Cu 0.21552 1.15877 0.21734
 N11 N 0.15753 1.17857 0.24338
 N12 N 0.18117 1.15966 0.24677
 C13 C 0.17645 1.14167 0.27201
 C14 C 0.14813 1.14960 0.28533
 C15 C 0.13694 1.17332 0.26638
 H16 H 0.19235 1.12381 0.27959
 H17 H 0.11528 1.18568 0.26867
 N18 N 0.24814 1.16179 0.18532
 N19 N 0.24834 1.18349 0.16357
 C20 C 0.27262 1.17858 0.14446
 C21 C 0.28856 1.15242 0.15457
 C22 C 0.27228 1.14250 0.18064
 H23 H 0.27776 1.19259 0.12419
 H24 H 0.27712 1.12227 0.19478
 H25 H 0.19311 1.17753 0.17920
 H26 H 0.21122 1.20576 0.20725
 N27 N 0.81634 0.75093 0.16157
 N28 N 0.83777 0.75131 0.18330
 C29 C 0.85794 0.72800 0.17787
 C30 C 0.84870 0.71209 0.15124
 C31 C 0.82210 0.72738 0.14162
 H32 H 0.87802 0.72319 0.19207
 H33 H 0.80834 0.72232 0.12118
 Cu34 Cu 0.83798 0.78308 0.21579
 Cu35 Cu 0.78332 0.78180 0.15992
 Cu36 Cu 0.78325 0.83871 0.21754
 N37 N 0.83763 0.81512 0.24801
 N38 N 0.81618 0.83678 0.24854
 C39 C 0.82178 0.85644 0.27240
 C40 C 0.84838 0.84674 0.28784
 C41 C 0.85767 0.82026 0.27154
 H42 H 0.80766 0.87656 0.27762
 H43 H 0.87776 0.80600 0.27602
 N44 N 0.75191 0.83671 0.18416
 N45 N 0.75191 0.81504 0.16227
 C46 C 0.72828 0.82048 0.14253
 C47 C 0.71261 0.84692 0.15237
 C48 C 0.72831 0.85650 0.17890
 H49 H 0.72334 0.80665 0.12203
 H50 H 0.72311 0.87659 0.19322
 H51 H 0.80769 0.81711 0.18208
 H52 H 0.78278 0.79157 0.20702
 N53 N 0.81617 1.24955 -0.16377
 N54 N 0.83690 1.24942 -0.18621
 C55 C 0.85736 1.27279 -0.18128
 C56 C 0.84900 1.28851 -0.15430
 C57 C 0.82265 1.27304 -0.14390
 H58 H 0.87704 1.27777 -0.19608
 H59 H 0.80960 1.27789 -0.12296
 Cu60 Cu 0.83613 1.21806 -0.21913
 Cu61 Cu 0.78323 1.21848 -0.16116
 Cu62 Cu 0.78247 1.16048 -0.21743
 N63 N 0.83590 1.18430 -0.24962
 N64 N 0.81498 1.16193 -0.24883
 C65 C 0.82072 1.14139 -0.27186
 C66 C 0.84687 1.15125 -0.28815
 C67 C 0.85575 1.17873 -0.27319
 H68 H 0.80697 1.12063 -0.27598
 H69 H 0.87545 1.19343 -0.27860
 N70 N 0.75145 1.16291 -0.18383
 N71 N 0.75174 1.18502 -0.16240
 C72 C 0.72824 1.17991 -0.14234
 C73 C 0.71232 1.15323 -0.15150
 C74 C 0.72776 1.14315 -0.17797
 H75 H 0.72329 1.19445 -0.12237
 H76 H 0.72258 1.12255 -0.19161
 H77 H 0.80797 1.18374 -0.18360
 H78 H 0.78143 1.20787 -0.20807
 N79 N 0.18910 0.74961 -0.16843
 N80 N 0.16445 0.75243 -0.18617
 C81 C 0.14380 0.73001 -0.17866
 C82 C 0.15615 0.71202 -0.15490
 C83 C 0.18508 0.72517 -0.14915
 H84 H 0.12120 0.72748 -0.18927
 H85 H 0.20194 0.71786 -0.13205
 Cu86 Cu 0.16162 0.78543 -0.21709
 Cu87 Cu 0.22420 0.77834 -0.17141
 Cu88 Cu 0.20667 0.84850 -0.20765
 N89 N 0.16096 0.81958 -0.24690
 N90 N 0.17859 0.84436 -0.24295
 C91 C 0.17261 0.86516 -0.26556
 C92 C 0.14987 0.85280 -0.28507
 C93 C 0.14316 0.82366 -0.27231
 H94 H 0.18382 0.88774 -0.26712
 H95 H 0.12627 0.80679 -0.28041
 N96 N 0.24269 0.84315 -0.18008
 N97 N 0.24994 0.81627 -0.16708
 C98 C 0.27577 0.82017 -0.14986
 C99 C 0.28539 0.85107 -0.15219
 C100 C 0.26378 0.86484 -0.17167
 H101 H 0.28641 0.80187 -0.13631
 H102 H 0.26312 0.88894 -0.17904
 H103 H 0.19258 0.81237 -0.17767
 H104 H 0.21566 0.80249 -0.21311
 Si105 Si 0.50028 1.00005 0.00181
 Si106 Si 0.00362 0.49999 1.00004
 Si107 Si 0.99909 -0.00048 0.50027
 C108 C 0.10565 0.36134 1.10752
 C109 C 0.13491 0.35167 1.09747
 C110 C 0.14958 0.32648 1.11190
 C111 C 0.13513 0.31035 1.13669
 C112 C 0.10578 0.32081 1.14687
 C113 C 0.09124 0.34602 1.13236
 C114 C 0.08988 0.38619 1.09158
 C115 C 0.07627 0.40646 1.07782
 C116 C 0.05953 0.42996 1.06090
 C117 C 0.07543 0.45141 1.04208
 C118 C 0.05893 0.47308 1.02431
 C119 C 0.02640 0.47350 1.02538
 C120 C 0.01060 0.45210 1.04440
 C121 C 0.02709 0.43050 1.06217
 H122 H 0.14627 0.36336 1.07818
 H123 H 0.17206 0.31968 1.10315
 H124 H 0.09363 0.30955 1.16582
 H125 H 0.06853 0.35331 1.14032
 H126 H 0.10053 0.45103 1.04072
 H127 H 0.07161 0.48893 1.00936
 H128 H -0.01452 0.45184 1.04519
 H129 H 0.01452 0.41389 1.07648
 C130 C -0.10452 0.63658 1.10484
 C131 C -0.13445 0.64504 1.09570
 C132 C -0.14984 0.66934 1.11098
 C133 C -0.13543 0.68559 1.13565
 C134 C -0.10543 0.67659 1.14486
 C135 C -0.09011 0.65230 1.12953
 C136 C -0.08818 0.61245 1.08831
 C137 C -0.07412 0.59268 1.07420
 C138 C -0.05693 0.56964 1.05701
 C139 C -0.05791 0.56952 1.02442
 C140 C -0.04014 0.54812 1.00760
 C141 C -0.02140 0.52652 1.02320
 C142 C -0.02053 0.52662 1.05587
 C143 C -0.03831 0.54807 1.07271
 H144 H -0.14582 0.63302 1.07658
 H145 H -0.17296 0.67532 1.10336
 H146 H -0.09344 0.68854 1.16355
 H147 H -0.06688 0.64601 1.13672
 H148 H -0.07207 0.58624 1.01203
 H149 H -0.04076 0.54862 0.98238
 H150 H -0.00579 0.51063 1.06842
 H151 H -0.03718 0.54814 1.09792
 C152 C -0.10265 0.36393 0.89132
 C153 C -0.08847 0.34766 0.86692
 C154 C -0.10430 0.32341 0.85180
 C155 C -0.13457 0.31500 0.86096
 C156 C -0.14875 0.33180 0.88531
 C157 C -0.13287 0.35607 0.90036
 C158 C -0.08583 0.38798 0.90771
 C159 C -0.07148 0.40771 0.92179
 C160 C -0.05405 0.43071 0.93901
 C161 C -0.02160 0.43066 0.93779
 C162 C -0.00455 0.45200 0.95564
 C163 C -0.01979 0.47368 0.97472
 C164 C -0.05232 0.47377 0.97580
 C165 C -0.06938 0.45240 0.95794
 H166 H -0.06502 0.35347 0.85981
 H167 H -0.09250 0.31096 0.83336
 H168 H -0.17209 0.32629 0.89282
 H169 H -0.14408 0.36851 0.91923
 H170 H -0.00948 0.41385 0.92340
 H171 H 0.02056 0.45134 0.95485
 H172 H -0.06461 0.48983 0.99080
 H173 H -0.09449 0.45247 0.95926
 C174 C 0.11127 0.63666 0.89399
 C175 C 0.09873 0.64785 0.86615
 C176 C 0.11351 0.67207 0.85005
 C177 C 0.14108 0.68553 0.86162
 C178 C 0.15368 0.67380 0.88948
 C179 C 0.13883 0.64957 0.90555
 C180 C 0.09533 0.61254 0.91108
 C181 C 0.08153 0.59271 0.92548
 C182 C 0.06451 0.56952 0.94279
 C183 C 0.04539 0.54805 0.92721
 C184 C 0.02766 0.52652 0.94414
 C185 C 0.02903 0.52625 0.97678
 C186 C 0.04832 0.54770 0.99228
 C187 C 0.06606 0.56918 0.97536
 H188 H 0.07739 0.63803 0.85699
 H189 H 0.10321 0.68018 0.82860
 H190 H 0.17471 0.68359 0.89926
 H191 H 0.14869 0.64115 0.92716
 H192 H 0.04380 0.54830 0.90202
 H193 H 0.01247 0.51067 0.93168
 H194 H 0.04931 0.54810 1.01749
 H195 H 0.08059 0.58583 0.98767
 C196 C 1.10309 0.10664 0.36198
 C197 C 1.13253 0.09669 0.35278
 C198 C 1.14765 0.11113 0.32780
 C199 C 1.13349 0.13583 0.31140
 C200 C 1.10397 0.14595 0.32142
 C201 C 1.08896 0.13142 0.34641
 C202 C 1.08686 0.09068 0.38659
 C203 C 1.07290 0.07692 0.40671
 C204 C 1.05583 0.06002 0.43010
 C205 C 1.07146 0.04127 0.45163
 C206 C 1.05469 0.02362 0.47331
 C207 C 1.02217 0.02472 0.47369
 C208 C 1.00663 0.04365 0.45218
 C209 C 1.02339 0.06129 0.43053
 H210 H 1.14369 0.07748 0.36469
 H211 H 1.17028 0.10247 0.32137
 H212 H 1.09201 0.16483 0.30995
 H213 H 1.06612 0.13930 0.35334
 H214 H 1.09655 0.03991 0.45132
 H215 H 1.06719 0.00871 0.48922
 H216 H 0.98152 0.04444 0.45187
 H217 H 1.01104 0.07553 0.41383
 C218 C 1.10668 -0.10337 0.63800
 C219 C 1.09762 -0.13344 0.64691
 C220 C 1.11212 -0.14815 0.67201
 C221 C 1.13597 -0.13291 0.68883
 C222 C 1.14517 -0.10274 0.67913
 C223 C 1.13061 -0.08817 0.65401
 C224 C 1.09066 -0.08758 0.61326
 C225 C 1.07687 -0.07388 0.59309
 C226 C 1.05995 -0.05697 0.56974
 C227 C 1.04098 -0.07293 0.54847
 C228 C 1.02320 -0.05625 0.52697
 C229 C 1.02439 -0.02349 0.52655
 C230 C 1.04357 -0.00763 0.54776
 C231 C 1.06135 -0.02429 0.56919
 H232 H 1.07905 -0.14542 0.63469
 H233 H 1.10416 -0.17129 0.67822
 H234 H 1.16341 -0.08997 0.69091
 H235 H 1.13780 -0.06483 0.64730
 H236 H 1.03953 -0.09821 0.54886
 H237 H 1.00815 -0.06899 0.51126
 H238 H 1.04448 0.01767 0.54799
 H239 H 1.07578 -0.01168 0.58566
 C240 C 0.89394 -0.10892 0.36355
 C241 C 0.90596 -0.13640 0.35084
 C242 C 0.89076 -0.15130 0.32612
 C243 C 0.86320 -0.13886 0.31352
 C244 C 0.85115 -0.11134 0.32701
 C245 C 0.86644 -0.09655 0.35172
 C246 C 0.91041 -0.09281 0.38797
 C247 C 0.92452 -0.07892 0.40794
 C248 C 0.94175 -0.06185 0.43114
 C249 C 0.97419 -0.06329 0.43144
 C250 C 0.99111 -0.04541 0.45281
 C251 C 0.97576 -0.02607 0.47419
 C252 C 0.94325 -0.02483 0.47399
 C253 C 0.92630 -0.04271 0.45257
 H254 H 0.92729 -0.14618 0.35981
 H255 H 0.90105 -0.17236 0.31693
 H256 H 0.83008 -0.10078 0.31851
 H257 H 0.85695 -0.07522 0.36139
 H258 H 0.98640 -0.07784 0.41484
 H259 H 1.01622 -0.04632 0.45236
 H260 H 0.93091 -0.00962 0.48981
 H261 H 0.90122 -0.04121 0.45235
 C262 C 0.89202 0.10528 0.63706
 C263 C 0.90359 0.13368 0.64833
 C264 C 0.88855 0.14908 0.67277
 C265 C 0.86158 0.13624 0.68652
 C266 C 0.84999 0.10774 0.67450
 C267 C 0.86512 0.09245 0.65007
 C268 C 0.90827 0.08878 0.61283
 C269 C 0.92215 0.07459 0.59297
 C270 C 0.93906 0.05722 0.56985
 C271 C 0.93755 0.02454 0.56966
 C272 C 0.95508 0.00750 0.54821
 C273 C 0.97412 0.02298 0.52663
 C274 C 0.97547 0.05574 0.52676
 C275 C 0.95795 0.07279 0.54826
 H276 H 0.92444 0.14383 0.63842
 H277 H 0.89846 0.17088 0.68082
 H278 H 0.82939 0.09681 0.68393
 H279 H 0.85597 0.07041 0.64154
 H280 H 0.92319 0.01222 0.58637
 H281 H 0.95408 -0.01779 0.54870
 H282 H 0.99045 0.06819 0.51078
 H283 H 0.95949 0.09807 0.54838
 C284 C 0.36539 1.10674 0.10969
 C285 C 0.35268 1.09429 0.13697
 C286 C 0.32808 1.10938 0.15186
 C287 C 0.31571 1.13718 0.13960
 C288 C 0.32912 1.14977 0.11241
 C289 C 0.35372 1.13461 0.09757
 C290 C 0.38955 1.09025 0.09348
 C291 C 0.40926 1.07599 0.07958
 C292 C 0.43211 1.05845 0.06258
 C293 C 0.43212 1.02579 0.06428
 C294 C 0.45319 1.00855 0.04656
 C295 C 0.47456 1.02381 0.02712
 C296 C 0.47464 1.05656 0.02560
 C297 C 0.45351 1.07381 0.04333
 H298 H 0.36151 1.07268 0.14653
 H299 H 0.31864 1.09890 0.17271
 H300 H 0.32051 1.17111 0.10224
 H301 H 0.36337 1.14444 0.07642
 H302 H 0.41554 1.01364 0.07892
 H303 H 0.45254 0.98328 0.04768
 H304 H 0.49045 1.06883 0.01032
 H305 H 0.45353 1.09907 0.04163
 C306 C 0.63620 1.10775 -0.10475
 C307 C 0.65155 1.13287 -0.09057
 C308 C 0.67602 1.14792 -0.10589
 C309 C 0.68557 1.13799 -0.13568
 C310 C 0.66964 1.11294 -0.14989
 C311 C 0.64517 1.09793 -0.13450
 C312 C 0.61203 1.09137 -0.08828
 C313 C 0.59228 1.07738 -0.07404
 C314 C 0.56936 1.06033 -0.05650
 C315 C 0.56956 1.06179 -0.02393
 C316 C 0.54829 1.04415 -0.00671
 C317 C 0.52653 1.02503 -0.02190
 C318 C 0.52628 1.02369 -0.05456
 C319 C 0.54759 1.04135 -0.07180
 H320 H 0.64486 1.14060 -0.06749
 H321 H 0.68768 1.16695 -0.09405
 H322 H 0.67602 1.10474 -0.17284
 H323 H 0.63345 1.07847 -0.14570
 H324 H 0.58642 1.07623 -0.01184
 H325 H 0.54906 1.04514 0.01849
 H326 H 0.51014 1.00865 -0.06679
 H327 H 0.54740 1.03985 -0.09699
 C328 C 0.36182 0.89619 -0.10548
 C329 C 0.35411 0.86522 -0.09838
 C330 C 0.32950 0.85039 -0.11377
 C331 C 0.31218 0.86639 -0.13647
 C332 C 0.32042 0.89745 -0.14362
 C333 C 0.34501 0.91220 -0.12821
 C334 C 0.38634 0.91194 -0.08889
 C335 C 0.40642 0.92571 -0.07486
 C336 C 0.42977 0.94283 -0.05793
 C337 C 0.45116 0.92708 -0.03917
 C338 C 0.47293 0.94397 -0.02170
 C339 C 0.47352 0.97673 -0.02302
 C340 C 0.45214 0.99236 -0.04193
 C341 C 0.43042 0.97550 -0.05938
 H342 H 0.36691 0.85263 -0.08073
 H343 H 0.32391 0.82657 -0.10747
 H344 H 0.30793 0.91056 -0.16103
 H345 H 0.35076 0.93621 -0.13386
 H346 H 0.45070 0.90182 -0.03770
 H347 H 0.48877 0.93141 -0.00682
 H348 H 0.45201 1.01765 -0.04289
 H349 H 0.41387 0.98793 -0.07366
 C350 C 0.63658 0.89260 0.10656
 C351 C 0.64518 0.86240 0.09765
 C352 C 0.66965 0.84737 0.11276
 C353 C 0.68592 0.86240 0.13702
 C354 C 0.67677 0.89264 0.14603
 C355 C 0.65232 0.90760 0.13087
 C356 C 0.61233 0.90862 0.09011
 C357 C 0.59247 0.92242 0.07605
 C358 C 0.56936 0.93937 0.05889
 C359 C 0.56867 0.93751 0.02634
 C360 C 0.54735 0.95521 0.00949
 C361 C 0.52641 0.97478 0.02504
 C362 C 0.52702 0.97646 0.05767
 C363 C 0.54839 0.95876 0.07453
 H364 H 0.63316 0.85056 0.07883
 H365 H 0.67573 0.82404 0.10532
 H366 H 0.68876 0.90510 0.16439
 H367 H 0.64593 0.93104 0.13788
 H368 H 0.58493 0.92276 0.01398
 H369 H 0.54747 0.95397 -0.01571
 H370 H 0.51154 0.99186 0.07016
 H371 H 0.54891 0.96059 0.09970
   
