data_POSCAR
  _audit_creation_date              2014-09-24
  _audit_creation_method            'ToBaCCo'
  _symmetry_space_group_name_H-M    'P1'
  _symmetry_Int_Tables_number       1
  _symmetry_cell_setting            triclinic
  loop_
  _symmetry_equiv_pos_as_xyz
 x,y,z
_cell_length_a 33.0082
_cell_length_b 31.9495
_cell_length_c 32.3323
_cell_angle_alpha 90.278700
_cell_angle_beta 89.407900
_cell_angle_gamma 91.827600
loop_
  _atom_site_label
  _atom_site_type_symbol
  _atom_site_fract_x
  _atom_site_fract_y
  _atom_site_fract_z
C1 C 0.27207 0.22395 0.21912
 C2 C 0.25372 0.20365 0.25309
 C3 C 0.21820 0.21844 0.26999
 C4 C 0.20067 0.25388 0.25318
 C5 C 0.21888 0.27403 0.21962
 C6 C 0.25487 0.25896 0.20249
 C7 C 0.30721 0.21703 0.19730
 N8 N 0.31209 0.24736 0.16827
 C9 C 0.28004 0.27289 0.17081
 C10 C 0.19635 0.30845 0.21115
 N11 N 0.16520 0.30947 0.23877
 C12 C 0.16744 0.27636 0.26459
 C13 C 0.20811 0.19358 0.30346
 N14 N 0.23668 0.16426 0.30699
 C15 C 0.26482 0.17021 0.27661
 H16 H 0.32796 0.19202 0.20232
 H17 H 0.27575 0.29989 0.15142
 H18 H 0.20266 0.33169 0.18749
 H19 H 0.14702 0.26989 0.29036
 H20 H 0.18241 0.19689 0.32416
 H21 H 0.29157 0.15185 0.27237
 C22 C 0.71194 -0.25478 0.24402
 C23 C 0.72767 -0.23746 0.28067
 C24 C 0.76497 -0.24966 0.29484
 C25 C 0.78720 -0.27880 0.27214
 C26 C 0.77228 -0.29455 0.23542
 C27 C 0.73424 -0.28285 0.22150
 C28 C 0.67655 -0.24918 0.22290
 N29 N 0.67624 -0.27399 0.18841
 C30 C 0.71226 -0.29372 0.18706
 C31 C 0.80047 -0.32105 0.21953
 N32 N 0.83255 -0.32243 0.24577
 C33 C 0.82393 -0.29680 0.27845
 C34 C 0.77448 -0.22493 0.32856
 N35 N 0.74424 -0.19767 0.33455
 C36 C 0.71518 -0.20547 0.30595
 H37 H 0.65230 -0.22933 0.23285
 H38 H 0.72290 -0.31314 0.16194
 H39 H 0.79759 -0.33758 0.19038
 H40 H 0.84134 -0.29344 0.30649
 H41 H 0.80263 -0.22450 0.34549
 H42 H 0.68846 -0.18715 0.30203
 C43 C 0.70735 0.24664 0.76003
 C44 C 0.72451 0.22804 0.72479
 C45 C 0.76203 0.24225 0.71014
 C46 C 0.78244 0.27589 0.72984
 C47 C 0.76555 0.29389 0.76457
 C48 C 0.72803 0.27891 0.77994
 C49 C 0.67085 0.24057 0.78057
 N50 N 0.66853 0.26881 0.81230
 C51 C 0.70414 0.29165 0.81231
 C52 C 0.78966 0.32804 0.77500
 N53 N 0.82018 0.33254 0.74654
 C54 C 0.81666 0.29965 0.71962
 C55 C 0.77104 0.21876 0.67569
 N56 N 0.73954 0.19134 0.66836
 C57 C 0.71114 0.19656 0.69855
 H58 H 0.64722 0.21805 0.77191
 H59 H 0.71321 0.31484 0.83519
 H60 H 0.78492 0.34831 0.80143
 H61 H 0.83573 0.29502 0.69263
 H62 H 0.79877 0.22112 0.65756
 H63 H 0.68276 0.17877 0.70114
 C64 C 0.30118 -0.22961 0.77222
 C65 C 0.28256 -0.21001 0.73901
 C66 C 0.24777 -0.22792 0.72197
 C67 C 0.23128 -0.26555 0.73781
 C68 C 0.24947 -0.28468 0.77061
 C69 C 0.28468 -0.26656 0.78795
 C70 C 0.33545 -0.21983 0.79457
 N71 N 0.34098 -0.25055 0.82289
 C72 C 0.30931 -0.27875 0.81940
 C73 C 0.22674 -0.32040 0.77958
 N74 N 0.19558 -0.32416 0.75229
 C75 C 0.19805 -0.29004 0.72711
 C76 C 0.23638 -0.20257 0.69018
 N77 N 0.26346 -0.16988 0.68759
 C78 C 0.29201 -0.17414 0.71700
 H79 H 0.35405 -0.19150 0.79128
 H80 H 0.30511 -0.30707 0.83740
 H81 H 0.23162 -0.34090 0.80549
 H82 H 0.17775 -0.28378 0.70195
 H83 H 0.21049 -0.20747 0.67024
 H84 H 0.31756 -0.15268 0.72195
 C85 C 0.72125 -0.23742 0.76955
 C86 C 0.73774 -0.21864 0.73378
 C87 C 0.77560 -0.22979 0.71933
 C88 C 0.79750 -0.25963 0.74074
 C89 C 0.78173 -0.27692 0.77663
 C90 C 0.74326 -0.26605 0.79092
 C91 C 0.68477 -0.23382 0.79007
 N92 N 0.68360 -0.26035 0.82305
 C93 C 0.72003 -0.27924 0.82411
 C94 C 0.80902 -0.30499 0.79058
 N95 N 0.84132 -0.30590 0.76391
 C96 C 0.83381 -0.27830 0.73295
 C97 C 0.78479 -0.20516 0.68546
 N98 N 0.75364 -0.17921 0.67953
 C99 C 0.72448 -0.18754 0.70843
 H100 H 0.66036 -0.21431 0.78057
 H101 H 0.72994 -0.29992 0.84814
 H102 H 0.80517 -0.32328 0.81848
 H103 H 0.85150 -0.27422 0.70482
 H104 H 0.81268 -0.20479 0.66753
 H105 H 0.69656 -0.17091 0.71175
 C106 C 0.28194 0.24113 0.76332
 C107 C 0.26277 0.22137 0.72965
 C108 C 0.22672 0.23631 0.71502
 C109 C 0.20941 0.27110 0.73387
 C110 C 0.22838 0.29064 0.76711
 C111 C 0.26495 0.27551 0.78186
 C112 C 0.31756 0.23399 0.78341
 N113 N 0.32335 0.26377 0.81330
 C114 C 0.29066 0.28883 0.81280
 C115 C 0.20587 0.32467 0.77780
 N116 N 0.17401 0.32602 0.75176
 C117 C 0.17579 0.29354 0.72479
 C118 C 0.21609 0.21267 0.68092
 N119 N 0.24502 0.18415 0.67446
 C120 C 0.27362 0.18895 0.70407
 H121 H 0.33684 0.20778 0.77761
 H122 H 0.28628 0.31571 0.83267
 H123 H 0.21270 0.34748 0.80181
 H124 H 0.15480 0.28753 0.69978
 H125 H 0.18996 0.21657 0.66151
 H126 H 0.30071 0.17086 0.70608
 C127 C 0.29496 -0.24297 0.23681
 C128 C 0.27623 -0.22551 0.27168
 C129 C 0.24118 -0.24420 0.28789
 C130 C 0.22451 -0.28050 0.26947
 C131 C 0.24283 -0.29759 0.23506
 C132 C 0.27833 -0.27865 0.21858
 C133 C 0.32986 -0.23236 0.21522
 N134 N 0.33567 -0.26138 0.18487
 C135 C 0.30354 -0.28926 0.18635
 C136 C 0.22022 -0.33281 0.22418
 N137 N 0.18901 -0.33823 0.25180
 C138 C 0.19133 -0.30568 0.27918
 C139 C 0.23024 -0.22143 0.32221
 N140 N 0.25810 -0.18982 0.32737
 C141 C 0.28626 -0.19178 0.29662
 H142 H 0.34886 -0.20467 0.22061
 H143 H 0.29950 -0.31646 0.16654
 H144 H 0.22531 -0.35186 0.19696
 H145 H 0.17102 -0.30109 0.30521
 H146 H 0.20439 -0.22768 0.34239
 H147 H 0.31224 -0.17050 0.29307
 C148 C 0.70488 0.22985 0.22417
 C149 C 0.72183 0.20955 0.25796
 C150 C 0.75606 0.22674 0.27674
 C151 C 0.77377 0.26433 0.26204
 C152 C 0.75711 0.28426 0.22881
 C153 C 0.72249 0.26696 0.20967
 C154 C 0.67089 0.22141 0.20083
 N155 N 0.66739 0.25274 0.17305
 C156 C 0.69888 0.28058 0.17792
 C157 C 0.77993 0.32033 0.22193
 N158 N 0.80973 0.32349 0.25077
 C159 C 0.80647 0.28864 0.27488
 C160 C 0.76496 0.20143 0.30948
 N161 N 0.73725 0.16918 0.31076
 C162 C 0.71047 0.17402 0.27969
 H163 H 0.64974 0.19503 0.20430
 H164 H 0.70369 0.30897 0.16013
 H165 H 0.77584 0.34186 0.19666
 H166 H 0.82563 0.28198 0.30086
 H167 H 0.78944 0.20632 0.33120
 H168 H 0.68430 0.15361 0.27392
 O169 O 0.21377 0.03108 0.45612
 O170 O 0.22105 -0.03971 0.54472
 O171 O 0.21545 0.04058 0.53612
 O172 O 0.21934 -0.04937 0.46479
 O173 O 0.28605 -0.04250 0.46225
 O174 O 0.28217 0.04726 0.53343
 O175 O 0.28778 -0.03296 0.54229
 O176 O 0.28047 0.03783 0.45327
 Cu177 Cu 0.21069 -0.00503 0.50067
 Cu178 Cu 0.29084 0.00313 0.49750
 C179 C 0.24586 0.04610 0.43917
 C180 C 0.25554 -0.04796 0.55904
 C181 C 0.24820 0.05933 0.54690
 C182 C 0.25342 -0.06146 0.45156
 O183 O 0.77489 0.04661 0.53388
 O184 O 0.77755 -0.04156 0.46064
 O185 O 0.77020 0.03878 0.45378
 O186 O 0.77791 -0.03478 0.54058
 O187 O 0.71122 -0.04228 0.54260
 O188 O 0.70333 0.03377 0.45808
 O189 O 0.71079 -0.04696 0.46204
 O190 O 0.70821 0.03914 0.53855
 Cu191 Cu 0.78181 0.00296 0.49704
 Cu192 Cu 0.70169 -0.00475 0.50075
 C193 C 0.74120 0.05791 0.54866
 C194 C 0.74476 -0.05870 0.44801
 C195 C 0.73546 0.04874 0.44125
 C196 C 0.74578 -0.05125 0.55626
 O197 O 0.45239 0.22319 0.02999
 O198 O 0.53630 0.23138 -0.04610
 O199 O 0.53099 0.22719 0.03408
 O200 O 0.45744 0.22799 -0.05079
 O201 O 0.45377 0.29669 -0.04449
 O202 O 0.53215 0.29619 0.03562
 O203 O 0.53225 0.29990 -0.04506
 O204 O 0.45325 0.29219 0.03579
 Cu205 Cu 0.49430 0.22047 -0.00865
 Cu206 Cu 0.49279 0.30315 -0.00412
 C207 C 0.43919 0.25635 0.04634
 C208 C 0.54857 0.26719 -0.05892
 C209 C 0.54419 0.26163 0.04940
 C210 C 0.44304 0.26251 -0.06194
 O211 O 0.55258 0.76780 0.04554
 O212 O 0.47555 0.77831 -0.03515
 O213 O 0.47428 0.77546 0.04645
 O214 O 0.55385 0.77071 -0.03401
 O215 O 0.54450 0.70226 -0.03728
 O216 O 0.46524 0.70669 0.04300
 O217 O 0.46659 0.70949 -0.03717
 O218 O 0.54306 0.69934 0.04347
 Cu219 Cu 0.51457 0.78009 0.00598
 Cu220 Cu 0.50400 0.69757 0.00272
 C221 C 0.56140 0.73158 0.05803
 C222 C 0.45850 0.74557 -0.05029
 C223 C 0.45676 0.74176 0.05884
 C224 C 0.56323 0.73547 -0.04909
 O225 O 0.03373 0.44974 0.21204
 O226 O -0.03657 0.53681 0.21061
 O227 O 0.04205 0.53032 0.21081
 O228 O -0.04533 0.45533 0.21394
 O229 O -0.04407 0.45636 0.28228
 O230 O 0.04085 0.53358 0.27915
 O231 O -0.03727 0.53847 0.27890
 O232 O 0.03501 0.45284 0.28026
 Cu233 Cu -0.00180 0.49271 0.20499
 Cu234 Cu -0.00166 0.49535 0.28701
 C235 C 0.04748 0.43748 0.24629
 C236 C -0.04846 0.55287 0.24443
 C237 C 0.05636 0.54445 0.24463
 C238 C -0.05936 0.44302 0.24870
 O239 O 0.04774 0.54409 0.78993
 O240 O -0.03841 0.46771 0.78589
 O241 O 0.04063 0.46373 0.78596
 O242 O -0.03106 0.54956 0.79075
 O243 O -0.03117 0.55255 0.72253
 O244 O 0.04216 0.46807 0.71781
 O245 O -0.03681 0.47014 0.71759
 O246 O 0.04714 0.54861 0.72170
 Cu247 Cu 0.00430 0.50585 0.79500
 Cu248 Cu 0.00500 0.51006 0.71304
 C249 C 0.06232 0.55889 0.75634
 C250 C -0.05191 0.45567 0.75103
 C251 C 0.05475 0.45238 0.75114
 C252 C -0.04273 0.56621 0.75753
 C253 C 0.36697 0.25238 0.06684
 C254 C 0.33602 0.25109 0.09654
 C255 C 0.34494 0.25092 0.13882
 C256 C 0.38595 0.25307 0.15142
 C257 C 0.41739 0.25356 0.12121
 C258 C 0.40763 0.25339 0.07871
 C259 C 0.45777 0.25446 0.13466
 N260 N 0.46592 0.25623 0.17566
 N261 N 0.43641 0.25718 0.20401
 C262 C 0.39675 0.25582 0.19332
 H263 H 0.35917 0.25259 0.03436
 H264 H 0.30478 0.24963 0.08657
 H265 H 0.48284 0.25372 0.11298
 H266 H 0.37421 0.25755 0.21767
 C267 C 0.59744 0.76146 0.11844
 C268 C 0.62416 0.75995 0.15127
 C269 C 0.64658 0.72414 0.15885
 C270 C 0.63905 0.68802 0.13354
 C271 C 0.61421 0.69071 0.09798
 C272 C 0.59213 0.72758 0.09109
 C273 C 0.61264 0.65610 0.07074
 N274 N 0.62986 0.61981 0.08134
 N275 N 0.64870 0.61575 0.11718
 C276 C 0.65340 0.64836 0.14381
 H277 H 0.58086 0.78984 0.11433
 H278 H 0.62851 0.78806 0.16968
 H279 H 0.59856 0.65729 0.04090
 H280 H 0.66733 0.64249 0.17319
 C281 C 0.58690 0.23449 -0.11611
 C282 C 0.61478 0.23486 -0.14866
 C283 C 0.63751 0.27132 -0.15909
 C284 C 0.62904 0.30898 -0.13713
 C285 C 0.60344 0.30770 -0.10140
 C286 C 0.58087 0.27018 -0.09162
 C287 C 0.60164 0.34439 -0.07706
 N288 N 0.61891 0.38079 -0.09091
 N289 N 0.63809 0.38306 -0.12723
 C290 C 0.64326 0.34859 -0.15100
 H291 H 0.57004 0.20551 -0.10993
 H292 H 0.61967 0.20554 -0.16452
 H293 H 0.58756 0.34482 -0.04689
 H294 H 0.65756 0.35278 -0.18095
 C295 C 0.39018 0.73184 -0.07753
 C296 C 0.36169 0.73160 -0.10887
 C297 C 0.37114 0.74805 -0.14827
 C298 C 0.41179 0.76289 -0.15623
 C299 C 0.44035 0.76453 -0.12353
 C300 C 0.42915 0.74892 -0.08400
 C301 C 0.48011 0.77949 -0.13215
 N302 N 0.49103 0.79025 -0.17126
 N303 N 0.46512 0.78639 -0.20238
 C304 C 0.42627 0.77251 -0.19638
 H305 H 0.38153 0.71899 -0.04763
 H306 H 0.33139 0.71980 -0.10150
 H307 H 0.50291 0.78192 -0.10846
 H308 H 0.40796 0.76742 -0.22346
 C309 C 0.07254 0.36997 0.22069
 C310 C 0.10099 0.33870 0.21871
 C311 C 0.13635 0.34191 0.24202
 C312 C 0.14349 0.37723 0.26762
 C313 C 0.11476 0.40927 0.26965
 C314 C 0.07860 0.40519 0.24624
 C315 C 0.12417 0.44489 0.29400
 N316 N 0.15928 0.44730 0.31543
 N317 N 0.18577 0.41674 0.31404
 C318 C 0.17910 0.38182 0.29082
 H319 H 0.04537 0.36651 0.20229
 H320 H 0.09556 0.31177 0.19883
 H321 H 0.10455 0.47122 0.29577
 H322 H 0.20179 0.35811 0.29045
 C323 C 0.09304 0.62866 0.74294
 C324 C 0.12579 0.65698 0.74073
 C325 C 0.16504 0.64560 0.75206
 C326 C 0.17094 0.60311 0.76366
 C327 C 0.13691 0.57489 0.76777
 C328 C 0.09783 0.58799 0.75713
 C329 C 0.14344 0.53358 0.78038
 N330 N 0.18167 0.52065 0.78595
 N331 N 0.21374 0.54609 0.77929
 C332 C 0.20975 0.58649 0.76779
 H333 H 0.06347 0.63893 0.73410
 H334 H 0.11975 0.68870 0.73165
 H335 H 0.11863 0.51117 0.78505
 H336 H 0.23707 0.60438 0.76029
 C337 C -0.11054 0.58398 0.21839
 C338 C -0.13971 0.61433 0.21836
 C339 C -0.13515 0.65145 0.24188
 C340 C -0.09736 0.65896 0.26231
 C341 C -0.06912 0.62631 0.26501
 C342 C -0.07642 0.58814 0.24342
 C343 C -0.03320 0.63400 0.28721
 N344 N -0.02477 0.67259 0.30304
 N345 N -0.04956 0.70410 0.29768
 C346 C -0.08506 0.69881 0.27731
 H347 H -0.11565 0.55613 0.19978
 H348 H -0.16700 0.60704 0.20127
 H349 H -0.01117 0.61017 0.29123
 H350 H -0.10224 0.72631 0.27149
 C351 C -0.07968 0.38512 0.73358
 C352 C -0.11123 0.35513 0.73157
 C353 C -0.15075 0.36424 0.74496
 C354 C -0.15867 0.40628 0.75720
 C355 C -0.12605 0.43610 0.76086
 C356 C -0.08634 0.42516 0.74929
 C357 C -0.13448 0.47688 0.77412
 N358 N -0.17329 0.48786 0.78091
 N359 N -0.20419 0.46088 0.77473
 C360 C -0.19830 0.42086 0.76250
 H361 H -0.04951 0.37666 0.72378
 H362 H -0.10407 0.32389 0.72134
 H363 H -0.11062 0.50031 0.77821
 H364 H -0.22481 0.40168 0.75537
 C365 C 0.26944 0.10966 0.40175
 C366 C 0.26714 0.13869 0.36996
 C367 C 0.23824 0.13347 0.33893
 C368 C 0.21198 0.09773 0.33903
 C369 C 0.21462 0.06763 0.37093
 C370 C 0.24304 0.07437 0.40325
 C371 C 0.18955 0.03121 0.36832
 N372 N 0.16300 0.02637 0.33678
 N373 N 0.16004 0.05516 0.30742
 C374 C 0.18373 0.09060 0.30739
 H375 H 0.29155 0.11525 0.42586
 H376 H 0.28763 0.16585 0.36974
 H377 H 0.19124 0.00604 0.39030
 H378 H 0.18059 0.11261 0.28240
 C379 C 0.72572 0.08633 0.61798
 C380 C 0.72510 0.11873 0.64698
 C381 C 0.73795 0.15963 0.63640
 C382 C 0.75035 0.16805 0.59499
 C383 C 0.75299 0.13462 0.56608
 C384 C 0.74035 0.09354 0.57780
 C385 C 0.76712 0.14376 0.52584
 N386 N 0.77619 0.18391 0.51491
 N387 N 0.77189 0.21549 0.54144
 C388 C 0.75901 0.20900 0.58092
 H389 H 0.71576 0.05510 0.62729
 H390 H 0.71527 0.11165 0.67830
 H391 H 0.77072 0.11949 0.50286
 H392 H 0.75476 0.23605 0.60041
 C393 C 0.28837 -0.10628 0.59411
 C394 C 0.29039 -0.13613 0.62523
 C395 C 0.26234 -0.13684 0.65788
 C396 C 0.23285 -0.10586 0.66046
 C397 C 0.23102 -0.07499 0.62924
 C398 C 0.25828 -0.07621 0.59495
 C399 C 0.20256 -0.04337 0.63423
 N400 N 0.17715 -0.04379 0.66748
 N401 N 0.17844 -0.07336 0.69627
 C402 C 0.20549 -0.10435 0.69396
 H403 H 0.30969 -0.10754 0.56846
 H404 H 0.31323 -0.15968 0.62330
 H405 H 0.20072 -0.01780 0.61273
 H406 H 0.20575 -0.12713 0.71858
 C407 C 0.71783 -0.12678 0.42185
 C408 C 0.71768 -0.16076 0.39469
 C409 C 0.74555 -0.16221 0.36197
 C410 C 0.77335 -0.12818 0.35555
 C411 C 0.77375 -0.09346 0.38317
 C412 C 0.74590 -0.09316 0.41713
 C413 C 0.80108 -0.05970 0.37461
 N414 N 0.82617 -0.06113 0.34120
 N415 N 0.82570 -0.09376 0.31547
 C416 C 0.80004 -0.12718 0.32136
 H417 H 0.69615 -0.12710 0.44726
 H418 H 0.69590 -0.18642 0.39933
 H419 H 0.80235 -0.03161 0.39318
 H420 H 0.80040 -0.15224 0.29883
 C421 C 0.60090 0.76930 -0.10690
 C422 C 0.62906 0.77021 -0.13915
 C423 C 0.65263 0.73543 -0.14836
 C424 C 0.64478 0.69780 -0.12560
 C425 C 0.61828 0.69791 -0.09058
 C426 C 0.59519 0.73386 -0.08186
 C427 C 0.61616 0.66177 -0.06568
 N428 N 0.63465 0.62655 -0.07813
 N429 N 0.65525 0.62498 -0.11363
 C430 C 0.66048 0.65914 -0.13798
 H431 H 0.58355 0.79703 -0.10136
 H432 H 0.63359 0.79937 -0.15567
 H433 H 0.60062 0.66092 -0.03625
 H434 H 0.67591 0.65529 -0.16729
 C435 C 0.37530 0.27848 -0.08739
 C436 C 0.34619 0.27984 -0.11812
 C437 C 0.35444 0.26624 -0.15878
 C438 C 0.39478 0.25431 -0.16873
 C439 C 0.42390 0.25145 -0.13683
 C440 C 0.41366 0.26319 -0.09588
 C441 C 0.46323 0.23900 -0.14741
 N442 N 0.47322 0.23189 -0.18751
 N443 N 0.44679 0.23700 -0.21772
 C444 C 0.40829 0.24855 -0.20982
 H445 H 0.36740 0.28840 -0.05630
 H446 H 0.31623 0.28958 -0.10919
 H447 H 0.48642 0.23577 -0.12441
 H448 H 0.38942 0.25481 -0.23597
 C449 C 0.38762 0.72652 0.08465
 C450 C 0.35822 0.72454 0.11573
 C451 C 0.36667 0.73841 0.15625
 C452 C 0.40723 0.75213 0.16555
 C453 C 0.43673 0.75561 0.13324
 C454 C 0.42652 0.74281 0.09259
 C455 C 0.47637 0.76949 0.14320
 N456 N 0.48626 0.77746 0.18307
 N457 N 0.45943 0.77181 0.21367
 C458 C 0.42064 0.75883 0.20640
 H459 H 0.37973 0.71575 0.05384
 H460 H 0.32804 0.71358 0.10737
 H461 H 0.49986 0.77325 0.11989
 H462 H 0.40149 0.75213 0.23292
 C463 C 0.60303 0.22925 0.08150
 C464 C 0.63295 0.22677 0.11132
 C465 C 0.63551 0.25595 0.14353
 C466 C 0.60660 0.28755 0.14663
 C467 C 0.57568 0.29005 0.11654
 C468 C 0.57448 0.26092 0.08303
 C469 C 0.54638 0.32077 0.12227
 N470 N 0.54872 0.34732 0.15507
 N471 N 0.57805 0.34515 0.18284
 C472 C 0.60694 0.31608 0.17985
 H473 H 0.60261 0.20647 0.05656
 H474 H 0.65479 0.20225 0.10902
 H475 H 0.52099 0.32359 0.10191
 H476 H 0.62949 0.31518 0.20380
 C477 C -0.10546 0.59684 0.78413
 C478 C -0.13375 0.62805 0.78622
 C479 C -0.12743 0.66656 0.76558
 C480 C -0.08905 0.67409 0.74558
 C481 C -0.06166 0.64080 0.74077
 C482 C -0.07042 0.60168 0.75988
 C483 C -0.02512 0.64867 0.71898
 N484 N -0.01534 0.68785 0.70560
 N485 N -0.03936 0.71974 0.71301
 C486 C -0.07540 0.71436 0.73309
 H487 H -0.11187 0.56798 0.80061
 H488 H -0.16170 0.62054 0.80260
 H489 H -0.00376 0.62441 0.71327
 H490 H -0.09196 0.74200 0.74062
 C491 C -0.08887 0.37271 0.26353
 C492 C -0.12117 0.34360 0.26507
 C493 C -0.16052 0.35437 0.25339
 C494 C -0.16740 0.39704 0.24347
 C495 C -0.13408 0.42616 0.24064
 C496 C -0.09461 0.41356 0.25018
 C497 C -0.14156 0.46779 0.23014
 N498 N -0.18007 0.48003 0.22481
 N499 N -0.21157 0.45346 0.22986
 C500 C -0.20664 0.41272 0.23959
 H501 H -0.05888 0.36296 0.27180
 H502 H -0.11467 0.31175 0.27335
 H503 H -0.11716 0.49082 0.22712
 H504 H -0.23357 0.39369 0.24583
 C505 C 0.08106 0.38514 0.77466
 C506 C 0.10994 0.35428 0.77501
 C507 C 0.14503 0.35835 0.75068
 C508 C 0.15154 0.39413 0.72578
 C509 C 0.12238 0.42576 0.72539
 C510 C 0.08644 0.42076 0.74974
 C511 C 0.13113 0.46184 0.70163
 N512 N 0.16604 0.46505 0.67920
 N513 N 0.19293 0.43486 0.67903
 C514 C 0.18689 0.39953 0.70160
 H515 H 0.05406 0.38098 0.79373
 H516 H 0.10498 0.32694 0.79429
 H517 H 0.11118 0.48792 0.70111
 H518 H 0.20989 0.37615 0.70070
 C519 C 0.08668 0.61375 0.26044
 C520 C 0.11927 0.64213 0.26338
 C521 C 0.15860 0.63144 0.25079
 C522 C 0.16477 0.58952 0.23692
 C523 C 0.13091 0.56123 0.23226
 C524 C 0.09174 0.57369 0.24429
 C525 C 0.13769 0.52042 0.21778
 N526 N 0.17601 0.50801 0.21073
 N527 N 0.20792 0.53346 0.21766
 C528 C 0.20369 0.57339 0.23105
 H529 H 0.05702 0.62348 0.27036
 H530 H 0.11306 0.67341 0.27416
 H531 H 0.11303 0.49797 0.21282
 H532 H 0.23092 0.59119 0.23863
 C533 C 0.72314 -0.11838 0.58767
 C534 C 0.72519 -0.14980 0.61720
 C535 C 0.75268 -0.14622 0.64967
 C536 C 0.77770 -0.10964 0.65339
 C537 C 0.77543 -0.07731 0.62361
 C538 C 0.74842 -0.08229 0.58988
 C539 C 0.79929 -0.04050 0.62971
 N540 N 0.82424 -0.03711 0.66270
 N541 N 0.82669 -0.06774 0.69025
 C542 C 0.80415 -0.10378 0.68684
 H543 H 0.70208 -0.12265 0.56240
 H544 H 0.70554 -0.17746 0.61456
 H545 H 0.79783 -0.01397 0.60930
 H546 H 0.80674 -0.12719 0.71061
 C547 C 0.22563 -0.09926 0.39091
 C548 C 0.22689 -0.13003 0.36034
 C549 C 0.25750 -0.15923 0.35991
 C550 C 0.28647 -0.15866 0.39179
 C551 C 0.28499 -0.12776 0.42339
 C552 C 0.25484 -0.09700 0.42214
 C553 C 0.31302 -0.12979 0.45582
 N554 N 0.34106 -0.15992 0.45562
 N555 N 0.34277 -0.18841 0.42551
 C556 C 0.31634 -0.18892 0.39369
 H557 H 0.20217 -0.07637 0.38954
 H558 H 0.20431 -0.13068 0.33627
 H559 H 0.31249 -0.10855 0.48187
 H560 H 0.31859 -0.21330 0.37055
 C561 C 0.72953 0.12069 0.41525
 C562 C 0.73085 0.15008 0.38356
 C563 C 0.73493 0.13756 0.34219
 C564 C 0.73733 0.09444 0.33255
 C565 C 0.73566 0.06451 0.36482
 C566 C 0.73269 0.07801 0.40646
 C567 C 0.73718 0.02189 0.35425
 N568 N 0.74144 0.01029 0.31408
 N569 N 0.74425 0.03847 0.28387
 C570 C 0.74248 0.08013 0.29172
 H571 H 0.72649 0.13143 0.44687
 H572 H 0.72878 0.18298 0.39123
 H573 H 0.73472 -0.00222 0.37754
 H574 H 0.74541 0.10154 0.26603
 C575 C 0.21922 0.09043 0.61018
 C576 C 0.21872 0.12029 0.64165
 C577 C 0.24581 0.15475 0.64093
 C578 C 0.27278 0.16038 0.60706
 C579 C 0.27303 0.13039 0.57457
 C580 C 0.24675 0.09434 0.57693
 C581 C 0.29877 0.13843 0.54032
 N582 N 0.32324 0.17335 0.53965
 N583 N 0.32348 0.20099 0.57062
 C584 C 0.29899 0.19577 0.60423
 H585 H 0.19867 0.06341 0.61246
 H586 H 0.19763 0.11617 0.66731
 H587 H 0.29913 0.11805 0.51360
 H588 H 0.29987 0.21957 0.62812
   
