data_POSCAR
  _audit_creation_date              2014-09-24
  _audit_creation_method            'ToBaCCo'
  _symmetry_space_group_name_H-M    'P1'
  _symmetry_Int_Tables_number       1
  _symmetry_cell_setting            triclinic
  loop_
  _symmetry_equiv_pos_as_xyz
 x,y,z
_cell_length_a 40.8363
_cell_length_b 40.8358
_cell_length_c 42.2681
_cell_angle_alpha 89.962300
_cell_angle_beta 89.962900
_cell_angle_gamma 89.996300
loop_
  _atom_site_label
  _atom_site_type_symbol
  _atom_site_fract_x
  _atom_site_fract_y
  _atom_site_fract_z
O1 O 0.03095 0.27210 -0.03027
 O2 O -0.03267 0.27228 0.03144
 O3 O 0.03101 0.27215 0.03131
 O4 O -0.03273 0.27213 -0.03016
 O5 O -0.03283 0.21797 -0.03008
 O6 O 0.03098 0.21799 0.03146
 O7 O -0.03278 0.21812 0.03160
 O8 O 0.03093 0.21794 -0.03021
 Cu9 Cu -0.00086 0.27763 0.00057
 Cu10 Cu -0.00094 0.21253 0.00070
 C11 C 0.04165 0.24502 -0.04070
 C12 C -0.04343 0.24526 0.04199
 C13 C 0.04172 0.24509 0.04179
 C14 C -0.04349 0.24507 -0.04054
 O15 O 0.53189 0.77302 0.46910
 O16 O 0.46816 0.77303 0.53073
 O17 O 0.53188 0.77304 0.53073
 O18 O 0.46817 0.77306 0.46910
 O19 O 0.46812 0.71890 0.46909
 O20 O 0.53190 0.71888 0.53080
 O21 O 0.46811 0.71888 0.53080
 O22 O 0.53192 0.71886 0.46909
 Cu23 Cu 0.50002 0.77849 0.49991
 Cu24 Cu 0.50001 0.71341 0.49995
 C25 C 0.54262 0.74596 0.45865
 C26 C 0.45742 0.74598 0.54121
 C27 C 0.54261 0.74598 0.54122
 C28 C 0.45742 0.74600 0.45865
 O29 O 1.03319 0.72714 0.03081
 O30 O 0.96955 0.72712 -0.03089
 O31 O 1.03326 0.72714 -0.03084
 O32 O 0.96949 0.72714 0.03074
 O33 O 0.96944 0.78130 0.03073
 O34 O 1.03329 0.78129 -0.03093
 O35 O 0.96950 0.78127 -0.03098
 O36 O 1.03323 0.78129 0.03080
 Cu37 Cu 1.00138 0.72168 -0.00004
 Cu38 Cu 1.00137 0.78676 -0.00010
 C39 C 1.04391 0.75420 0.04128
 C40 C 0.95881 0.75417 -0.04139
 C41 C 1.04400 0.75419 -0.04134
 C42 C 0.95874 0.75421 0.04117
 O43 O 0.53161 0.22716 0.53076
 O44 O 0.46799 0.22721 0.46920
 O45 O 0.53166 0.22727 0.46917
 O46 O 0.46795 0.22716 0.53080
 O47 O 0.46787 0.28132 0.53087
 O48 O 0.53167 0.28143 0.46916
 O49 O 0.46791 0.28138 0.46919
 O50 O 0.53163 0.28133 0.53084
 Cu51 Cu 0.49981 0.22174 0.49998
 Cu52 Cu 0.49977 0.28684 0.50002
 C53 C 0.54232 0.25421 0.54124
 C54 C 0.45725 0.25428 0.45876
 C55 C 0.54239 0.25435 0.45872
 C56 C 0.45720 0.25420 0.54129
 O57 O 0.72803 -0.03137 0.03033
 O58 O 0.72772 0.03226 -0.03137
 O59 O 0.72793 -0.03141 -0.03126
 O60 O 0.72784 0.03230 0.03023
 O61 O 0.78200 0.03250 0.03015
 O62 O 0.78209 -0.03129 -0.03142
 O63 O 0.78188 0.03247 -0.03154
 O64 O 0.78219 -0.03125 0.03025
 Cu65 Cu 0.72242 0.00043 -0.00051
 Cu66 Cu 0.78752 0.00063 -0.00066
 C67 C 0.75514 -0.04202 0.04075
 C68 C 0.75472 0.04308 -0.04192
 C69 C 0.75500 -0.04207 -0.04176
 C70 C 0.75488 0.04311 0.04061
 O71 O 0.22674 0.53183 0.46933
 O72 O 0.22671 0.46812 0.53096
 O73 O 0.22674 0.53183 0.53097
 O74 O 0.22676 0.46812 0.46933
 O75 O 0.28091 0.46807 0.46928
 O76 O 0.28089 0.53186 0.53099
 O77 O 0.28087 0.46807 0.53099
 O78 O 0.28089 0.53186 0.46927
 Cu79 Cu 0.22128 0.49998 0.50015
 Cu80 Cu 0.28636 0.49997 0.50013
 C81 C 0.25380 0.54256 0.45884
 C82 C 0.25377 0.45737 0.54142
 C83 C 0.25379 0.54256 0.54143
 C84 C 0.25382 0.45737 0.45886
 O85 O 0.27282 1.03310 0.03097
 O86 O 0.27274 0.96946 -0.03072
 O87 O 0.27282 1.03317 -0.03068
 O88 O 0.27274 0.96939 0.03090
 O89 O 0.21858 0.96942 0.03097
 O90 O 0.21867 1.03328 -0.03068
 O91 O 0.21859 0.96949 -0.03073
 O92 O 0.21868 1.03321 0.03105
 Cu93 Cu 0.27823 1.00128 0.00012
 Cu94 Cu 0.21316 1.00137 0.00016
 C95 C 0.24579 1.04386 0.04149
 C96 C 0.24567 0.95876 -0.04118
 C97 C 0.24578 1.04394 -0.04114
 C98 C 0.24567 0.95866 0.04136
 O99 O 0.77250 0.53161 0.53082
 O100 O 0.77243 0.46798 0.46927
 O101 O 0.77254 0.53165 0.46923
 O102 O 0.77236 0.46794 0.53087
 O103 O 0.71820 0.46800 0.53089
 O104 O 0.71838 0.53180 0.46918
 O105 O 0.71827 0.46804 0.46921
 O106 O 0.71834 0.53176 0.53086
 Cu107 Cu 0.77792 0.49978 0.50005
 Cu108 Cu 0.71282 0.49991 0.50003
 C109 C 0.74545 0.54239 0.54127
 C110 C 0.74537 0.45731 0.45880
 C111 C 0.74551 0.54244 0.45876
 C112 C 0.74527 0.45725 0.54133
 C113 C 0.25022 0.22550 0.22615
 C114 C 0.22576 0.24982 0.22628
 C115 C 0.22561 0.27381 0.24995
 C116 C 0.24969 0.27374 0.27353
 C117 C 0.27414 0.24940 0.27341
 C118 C 0.27429 0.22542 0.24973
 H119 H 0.29314 0.20669 0.24966
 H120 H 0.20677 0.29253 0.25002
 C121 C 0.75047 0.77448 0.22621
 C122 C 0.77479 0.75002 0.22622
 C123 C 0.77480 0.72596 0.24985
 C124 C 0.75072 0.72611 0.27347
 C125 C 0.72640 0.75056 0.27346
 C126 C 0.72639 0.77463 0.24983
 H127 H 0.70766 0.79346 0.24982
 H128 H 0.79353 0.70712 0.24986
 C129 C 0.77434 0.25044 0.22608
 C130 C 0.74991 0.22609 0.22606
 C131 C 0.72584 0.22598 0.24968
 C132 C 0.72594 0.24999 0.27332
 C133 C 0.75035 0.27435 0.27332
 C134 C 0.77443 0.27446 0.24971
 H135 H 0.79323 0.29322 0.24973
 H136 H 0.70704 0.20721 0.24966
 C137 C 0.22550 0.74994 0.22598
 C138 C 0.24986 0.77437 0.22608
 C139 C 0.27384 0.77446 0.24977
 C140 C 0.27373 0.75037 0.27338
 C141 C 0.24937 0.72594 0.27329
 C142 C 0.22539 0.72585 0.24959
 H143 H 0.20665 0.70703 0.24953
 H144 H 0.29258 0.79328 0.24983
 C145 C 0.72532 0.24921 0.72669
 C146 C 0.74966 0.27365 0.72670
 C147 C 0.77365 0.27378 0.75034
 C148 C 0.77356 0.24971 0.77396
 C149 C 0.74924 0.22526 0.77394
 C150 C 0.72523 0.22513 0.75030
 H151 H 0.70649 0.20631 0.75028
 H152 H 0.79240 0.29260 0.75037
 C153 C 0.27390 0.75067 0.72664
 C154 C 0.24958 0.72620 0.72676
 C155 C 0.22563 0.72606 0.75050
 C156 C 0.22573 0.75014 0.77409
 C157 C 0.25003 0.77464 0.77395
 C158 C 0.27399 0.77476 0.75022
 H159 H 0.29272 0.79360 0.75011
 H160 H 0.20691 0.70722 0.75061
 C161 C 0.24933 0.27380 0.72680
 C162 C 0.27381 0.24949 0.72685
 C163 C 0.27399 0.22550 0.75055
 C164 C 0.24993 0.22556 0.77418
 C165 C 0.22543 0.24984 0.77411
 C166 C 0.22526 0.27384 0.75042
 H167 H 0.20641 0.29256 0.75037
 H168 H 0.29284 0.20679 0.75060
 C169 C 0.75085 0.72579 0.72634
 C170 C 0.72648 0.75020 0.72632
 C171 C 0.72646 0.77427 0.74991
 C172 C 0.75056 0.77416 0.77348
 C173 C 0.77493 0.74975 0.77350
 C174 C 0.77495 0.72568 0.74991
 H175 H 0.79371 0.70687 0.74990
 H176 H 0.70771 0.79308 0.74992
 C177 C 0.23162 0.16074 0.12426
 C178 C 0.26186 0.14652 0.10687
 C179 C 0.24722 0.11204 0.11035
 C180 C 0.21696 0.12589 0.12733
 C181 C 0.24936 0.15579 0.15596
 C182 C 0.23469 0.12133 0.15942
 C183 C 0.27960 0.14196 0.13897
 C184 C 0.26494 0.10712 0.14206
 C185 C 0.24634 0.08746 0.08510
 C186 C 0.24593 0.06705 0.06450
 C187 C 0.25042 0.18021 0.18130
 C188 C 0.25077 0.20058 0.20191
 H189 H 0.21793 0.18309 0.11725
 H190 H 0.27299 0.15662 0.08498
 H191 H 0.19118 0.11906 0.12226
 H192 H 0.22355 0.11124 0.18132
 H193 H 0.30537 0.14882 0.14404
 H194 H 0.27862 0.08479 0.14911
 C195 C 0.71821 0.64592 0.63899
 C196 C 0.73713 0.64801 0.60726
 C197 C 0.74715 0.61197 0.61116
 C198 C 0.72821 0.60950 0.64248
 C199 C 0.74961 0.65585 0.65656
 C200 C 0.75960 0.61982 0.66045
 C201 C 0.76852 0.65834 0.62524
 C202 C 0.77852 0.62192 0.62874
 C203 C 0.74612 0.58735 0.58602
 C204 C 0.74562 0.56692 0.56550
 C205 C 0.75083 0.68034 0.68176
 C206 C 0.75129 0.70079 0.70226
 H207 H 0.69345 0.65612 0.64352
 H208 H 0.72783 0.65933 0.58513
 H209 H 0.71160 0.58915 0.64927
 H210 H 0.76887 0.60852 0.68260
 H211 H 0.78512 0.67869 0.61846
 H212 H 0.80330 0.61178 0.62422
 C213 C 0.72134 0.85973 0.14056
 C214 C 0.73768 0.89385 0.14319
 C215 C 0.75384 0.88836 0.11079
 C216 C 0.73753 0.85460 0.10778
 C217 C 0.75160 0.84445 0.15628
 C218 C 0.76780 0.83892 0.12389
 C219 C 0.76794 0.87819 0.15929
 C220 C 0.78413 0.87306 0.12650
 C221 C 0.75473 0.91300 0.08561
 C222 C 0.75511 0.93345 0.06504
 C223 C 0.75048 0.81994 0.18153
 C224 C 0.75004 0.79948 0.20207
 H225 H 0.69552 0.85399 0.14664
 H226 H 0.72531 0.91673 0.15086
 H227 H 0.72507 0.84516 0.08631
 H228 H 0.78017 0.81603 0.11628
 H229 H 0.78040 0.88760 0.18077
 H230 H 0.80996 0.87876 0.12043
 C231 C 0.27187 0.34107 0.62722
 C232 C 0.24234 0.35170 0.60663
 C233 C 0.25230 0.38765 0.61135
 C234 C 0.28186 0.37740 0.63154
 C235 C 0.25014 0.34370 0.65681
 C236 C 0.26012 0.37963 0.66152
 C237 C 0.22061 0.35393 0.63661
 C238 C 0.23059 0.39025 0.64095
 C239 C 0.25320 0.41232 0.58620
 C240 C 0.25363 0.43279 0.56566
 C241 C 0.24909 0.31919 0.68206
 C242 C 0.24876 0.29875 0.70262
 H243 H 0.28883 0.32054 0.62190
 H244 H 0.23507 0.34048 0.58377
 H245 H 0.30706 0.38729 0.62916
 H246 H 0.26740 0.39084 0.68438
 H247 H 0.19541 0.34402 0.63900
 H248 H 0.21362 0.41075 0.64632
 C249 C 0.85761 0.27941 0.13853
 C250 C 0.89273 0.26554 0.14202
 C251 C 0.88828 0.24694 0.11073
 C252 C 0.85352 0.26078 0.10686
 C253 C 0.84436 0.24932 0.15619
 C254 C 0.83987 0.23069 0.12491
 C255 C 0.87909 0.23545 0.16006
 C256 C 0.87501 0.21682 0.12838
 C257 C 0.91292 0.24594 0.08555
 C258 C 0.93337 0.24545 0.06499
 C259 C 0.81983 0.25049 0.18143
 C260 C 0.79937 0.25093 0.20196
 H261 H 0.85020 0.30515 0.14300
 H262 H 0.91475 0.27985 0.14878
 H263 H 0.84327 0.27115 0.08469
 H264 H 0.81783 0.21638 0.11820
 H265 H 0.88933 0.22508 0.18223
 H266 H 0.88239 0.19107 0.12392
 C267 C 0.37961 0.76043 0.66032
 C268 C 0.39052 0.72900 0.64272
 C269 C 0.38771 0.74747 0.61116
 C270 C 0.37717 0.77888 0.62838
 C271 C 0.34377 0.74972 0.65662
 C272 C 0.34094 0.76817 0.62505
 C273 C 0.35429 0.71829 0.63941
 C274 C 0.35186 0.73674 0.60745
 C275 C 0.41238 0.74655 0.58600
 C276 C 0.43285 0.74611 0.56546
 C277 C 0.31926 0.75082 0.68187
 C278 C 0.29884 0.75120 0.70244
 H279 H 0.39074 0.77020 0.68233
 H280 H 0.41117 0.71285 0.64969
 H281 H 0.38684 0.80380 0.62355
 H282 H 0.32028 0.78430 0.61810
 H283 H 0.34455 0.69340 0.64426
 H284 H 0.34070 0.72694 0.58546
 C285 C 0.16050 0.76906 0.12430
 C286 C 0.14676 0.73883 0.10656
 C287 C 0.11206 0.75289 0.11017
 C288 C 0.12541 0.78313 0.12750
 C289 C 0.15580 0.75081 0.15579
 C290 C 0.12111 0.76489 0.15939
 C291 C 0.14246 0.72059 0.13844
 C292 C 0.10739 0.73466 0.14167
 C293 C 0.08749 0.75372 0.08491
 C294 C 0.06709 0.75409 0.06430
 C295 C 0.18022 0.74977 0.18113
 C296 C 0.20059 0.74942 0.20175
 H297 H 0.18263 0.78319 0.11747
 H298 H 0.15706 0.72816 0.08455
 H299 H 0.11818 0.80887 0.12273
 H300 H 0.11083 0.77556 0.18141
 H301 H 0.14973 0.69486 0.14323
 H302 H 0.08528 0.72053 0.14855
 C303 C 0.64217 0.22010 0.63929
 C304 C 0.60713 0.23421 0.64264
 C305 C 0.61179 0.25258 0.61123
 C306 C 0.64646 0.23849 0.60749
 C307 C 0.65556 0.25022 0.65674
 C308 C 0.66026 0.26861 0.62533
 C309 C 0.62092 0.26434 0.66047
 C310 C 0.62521 0.28273 0.62866
 C311 C 0.58723 0.25357 0.58604
 C312 C 0.56682 0.25405 0.56549
 C313 C 0.67999 0.24907 0.68200
 C314 C 0.70039 0.24867 0.70255
 H315 H 0.64942 0.19435 0.64397
 H316 H 0.58500 0.22009 0.64947
 H317 H 0.65669 0.22791 0.58541
 H318 H 0.68241 0.28274 0.61855
 H319 H 0.61070 0.27492 0.68256
 H320 H 0.61800 0.30849 0.62400
 C321 C 0.76565 0.16124 0.87660
 C322 C 0.73550 0.14461 0.89203
 C323 C 0.75292 0.11138 0.88935
 C324 C 0.78310 0.12763 0.87432
 C325 C 0.75045 0.15527 0.84386
 C326 C 0.76790 0.12206 0.84118
 C327 C 0.72030 0.13904 0.85889
 C328 C 0.73775 0.10544 0.85659
 C329 C 0.75397 0.08674 0.91453
 C330 C 0.75449 0.06629 0.93509
 C331 C 0.74923 0.17978 0.81861
 C332 C 0.74877 0.20024 0.79807
 H333 H 0.77712 0.18449 0.88450
 H334 H 0.72222 0.15362 0.91323
 H335 H 0.80894 0.12272 0.88095
 H336 H 0.78118 0.11307 0.81998
 H337 H 0.69447 0.14399 0.85225
 H338 H 0.72630 0.08220 0.84864
 C339 C 0.26487 0.62152 0.33969
 C340 C 0.28264 0.62598 0.37178
 C341 C 0.25238 0.61213 0.38876
 C342 C 0.23463 0.60730 0.35707
 C343 C 0.25023 0.65598 0.34323
 C344 C 0.21999 0.64215 0.36022
 C345 C 0.26801 0.66084 0.37491
 C346 C 0.23778 0.64661 0.39230
 C347 C 0.25327 0.58752 0.41398
 C348 C 0.25368 0.56709 0.43455
 C349 C 0.24918 0.68047 0.31796
 C350 C 0.24882 0.70092 0.29741
 H351 H 0.27597 0.61149 0.31777
 H352 H 0.30842 0.61911 0.37682
 H353 H 0.22092 0.58500 0.35001
 H354 H 0.19423 0.64905 0.35517
 H355 H 0.28174 0.68315 0.38192
 H356 H 0.22668 0.65665 0.41422
 C357 C 0.23431 0.87922 0.84003
 C358 C 0.21673 0.87486 0.87225
 C359 C 0.24701 0.88894 0.88896
 C360 C 0.26458 0.89368 0.85712
 C361 C 0.24912 0.84484 0.84367
 C362 C 0.27938 0.85891 0.86039
 C363 C 0.23153 0.84008 0.87550
 C364 C 0.26180 0.85454 0.89261
 C365 C 0.24616 0.91368 0.91407
 C366 C 0.24577 0.93418 0.93457
 C367 C 0.25016 0.82022 0.81851
 C368 C 0.25053 0.79970 0.79803
 H369 H 0.22304 0.88910 0.81811
 H370 H 0.19095 0.88163 0.87740
 H371 H 0.27815 0.91600 0.84983
 H372 H 0.30515 0.85210 0.85523
 H373 H 0.21795 0.81774 0.88274
 H374 H 0.27306 0.84465 0.91452
 C375 C 0.77944 0.35778 0.36046
 C376 C 0.76494 0.39268 0.35724
 C377 C 0.74692 0.38783 0.38882
 C378 C 0.76140 0.35331 0.39243
 C379 C 0.74928 0.34409 0.34328
 C380 C 0.73125 0.33921 0.37486
 C381 C 0.73478 0.37859 0.33968
 C382 C 0.71675 0.37412 0.37166
 C383 C 0.74595 0.41240 0.41401
 C384 C 0.74549 0.43280 0.43456
 C385 C 0.75044 0.31967 0.31801
 C386 C 0.75086 0.29928 0.29746
 H387 H 0.80522 0.35080 0.35554
 H388 H 0.77877 0.41495 0.35028
 H389 H 0.77230 0.34319 0.41441
 H390 H 0.71741 0.31691 0.38176
 H391 H 0.72388 0.38870 0.31770
 H392 H 0.69096 0.38106 0.37656
 C393 C 0.15978 0.23012 0.87528
 C394 C 0.14614 0.26024 0.89325
 C395 C 0.11138 0.24644 0.88936
 C396 C 0.12464 0.21630 0.87179
 C397 C 0.15537 0.24872 0.84396
 C398 C 0.12062 0.23490 0.84007
 C399 C 0.14213 0.27884 0.86153
 C400 C 0.10699 0.26502 0.85803
 C401 C 0.08669 0.24551 0.91450
 C402 C 0.06621 0.24510 0.93504
 C403 C 0.17992 0.24986 0.81874
 C404 C 0.20040 0.25029 0.79823
 H405 H 0.18180 0.21578 0.88205
 H406 H 0.15637 0.27062 0.91541
 H407 H 0.11722 0.19056 0.87630
 H408 H 0.11041 0.22451 0.81791
 H409 H 0.14958 0.30457 0.85702
 H410 H 0.08500 0.27936 0.85121
 C411 C 0.62037 0.75974 0.33940
 C412 C 0.60992 0.72842 0.35747
 C413 C 0.61237 0.74742 0.38874
 C414 C 0.62246 0.77872 0.37105
 C415 C 0.65636 0.74965 0.34333
 C416 C 0.65884 0.76863 0.37460
 C417 C 0.64631 0.71833 0.36101
 C418 C 0.64838 0.73730 0.39268
 C419 C 0.58768 0.74651 0.41388
 C420 C 0.56720 0.74608 0.43441
 C421 C 0.68091 0.75075 0.31811
 C422 C 0.70138 0.75112 0.29759
 H423 H 0.60914 0.76899 0.31721
 H424 H 0.58954 0.71185 0.35072
 H425 H 0.61239 0.80355 0.37547
 H426 H 0.67923 0.78519 0.38134
 H427 H 0.65644 0.69352 0.35657
 H428 H 0.65964 0.72803 0.41484
 C429 C 0.85199 0.72246 0.86644
 C430 C 0.88918 0.72786 0.86143
 C431 C 0.88907 0.75275 0.88868
 C432 C 0.85224 0.74737 0.89408
 C433 C 0.84505 0.75064 0.84331
 C434 C 0.84490 0.77555 0.87055
 C435 C 0.88186 0.75604 0.83792
 C436 C 0.88211 0.78095 0.86555
 C437 C 0.91377 0.75362 0.91382
 C438 C 0.93424 0.75403 0.93435
 C439 C 0.82047 0.74960 0.81811
 C440 C 0.79997 0.74924 0.79761
 H441 H 0.83935 0.69840 0.86652
 H442 H 0.90766 0.70825 0.85794
 H443 H 0.84032 0.74385 0.91744
 H444 H 0.82637 0.79514 0.87399
 H445 H 0.89377 0.75957 0.81455
 H446 H 0.89473 0.80503 0.86547
 C447 C 0.34233 0.23006 0.37381
 C448 C 0.37913 0.22177 0.36992
 C449 C 0.38777 0.25274 0.38878
 C450 C 0.35134 0.26105 0.39306
 C451 C 0.34398 0.25042 0.34328
 C452 C 0.35259 0.28140 0.36213
 C453 C 0.38039 0.24213 0.33901
 C454 C 0.38940 0.27312 0.35826
 C455 C 0.41234 0.25370 0.41396
 C456 C 0.43275 0.25415 0.43451
 C457 C 0.31953 0.24928 0.31804
 C458 C 0.29912 0.24888 0.29751
 H459 H 0.32270 0.21233 0.37989
 H460 H 0.39032 0.19726 0.37343
 H461 H 0.33966 0.26887 0.41554
 H462 H 0.34135 0.30589 0.35861
 H463 H 0.39204 0.23433 0.31651
 H464 H 0.40902 0.29086 0.35217
 C465 C 0.78302 0.86064 0.85506
 C466 C 0.76523 0.89415 0.85438
 C467 C 0.75364 0.88821 0.88849
 C468 C 0.77145 0.85509 0.88956
 C469 C 0.75151 0.84420 0.84318
 C470 C 0.73994 0.83823 0.87729
 C471 C 0.73372 0.87730 0.84211
 C472 C 0.72215 0.87173 0.87661
 C473 C 0.75451 0.91289 0.91357
 C474 C 0.75491 0.93337 0.93405
 C475 C 0.75046 0.81964 0.81803
 C476 C 0.75008 0.79917 0.79756
 H477 H 0.80803 0.85574 0.84590
 H478 H 0.77567 0.91742 0.84526
 H479 H 0.78701 0.84621 0.90932
 H480 H 0.72952 0.81495 0.88639
 H481 H 0.71819 0.88614 0.82233
 H482 H 0.69713 0.87656 0.88578
 C483 C 0.26661 0.37751 0.34040
 C484 C 0.23627 0.39302 0.35655
 C485 C 0.25251 0.38764 0.38892
 C486 C 0.28286 0.37251 0.37317
 C487 C 0.25048 0.34368 0.34350
 C488 C 0.26674 0.33827 0.37587
 C489 C 0.22015 0.35879 0.35927
 C490 C 0.23640 0.35378 0.39203
 C491 C 0.25333 0.41232 0.41408
 C492 C 0.25371 0.43280 0.43461
 C493 C 0.24948 0.31914 0.31826
 C494 C 0.24915 0.29870 0.29771
 H495 H 0.27899 0.38701 0.31889
 H496 H 0.22376 0.41581 0.34886
 H497 H 0.30867 0.37836 0.37915
 H498 H 0.27927 0.31546 0.38350
 H499 H 0.19435 0.35290 0.35327
 H500 H 0.22402 0.34427 0.41354
 C501 C 0.26726 0.15916 0.87611
 C502 C 0.23579 0.14781 0.89345
 C503 C 0.24716 0.11212 0.89002
 C504 C 0.27861 0.12310 0.87307
 C505 C 0.24925 0.15586 0.84438
 C506 C 0.26060 0.12019 0.84096
 C507 C 0.21779 0.14492 0.86132
 C508 C 0.22913 0.10885 0.85829
 C509 C 0.24631 0.08756 0.91527
 C510 C 0.24592 0.06714 0.93587
 C511 C 0.25025 0.18028 0.81904
 C512 C 0.25055 0.20065 0.79841
 H513 H 0.28296 0.18011 0.88313
 H514 H 0.22555 0.15892 0.91528
 H515 H 0.30362 0.11386 0.87821
 H516 H 0.27082 0.10911 0.81910
 H517 H 0.19280 0.15422 0.85617
 H518 H 0.21342 0.08791 0.85125
 C519 C 0.73173 0.66097 0.37509
 C520 C 0.71697 0.62617 0.37188
 C521 C 0.74717 0.61216 0.38881
 C522 C 0.76190 0.64657 0.39242
 C523 C 0.74952 0.65612 0.34338
 C524 C 0.77969 0.64213 0.36033
 C525 C 0.73476 0.62173 0.33978
 C526 C 0.76493 0.60735 0.35710
 C527 C 0.74619 0.58749 0.41397
 C528 C 0.74570 0.56701 0.43450
 C529 C 0.75069 0.68065 0.31815
 C530 C 0.75115 0.70110 0.29761
 H531 H 0.71809 0.68332 0.38216
 H532 H 0.69117 0.61939 0.37691
 H533 H 0.77302 0.65652 0.41437
 H534 H 0.80548 0.64895 0.35528
 H535 H 0.72364 0.61179 0.31783
 H536 H 0.77856 0.58501 0.34997
 C537 C 0.15866 0.73171 0.87550
 C538 C 0.14829 0.76296 0.89372
 C539 C 0.11226 0.75288 0.88989
 C540 C 0.12225 0.72166 0.87206
 C541 C 0.15606 0.75084 0.84430
 C542 C 0.12004 0.74079 0.84048
 C543 C 0.14609 0.78208 0.86212
 C544 C 0.10968 0.77203 0.85869
 C545 C 0.08766 0.75370 0.91511
 C546 C 0.06722 0.75408 0.93569
 C547 C 0.18049 0.74985 0.81897
 C548 C 0.20085 0.74955 0.79835
 H549 H 0.17906 0.71511 0.88211
 H550 H 0.15964 0.77211 0.91587
 H551 H 0.11218 0.69681 0.87644
 H552 H 0.10871 0.73165 0.81831
 H553 H 0.15622 0.80691 0.85772
 H554 H 0.08928 0.78865 0.85207
 C555 C 0.62006 0.24051 0.33946
 C556 C 0.62236 0.22172 0.37122
 C557 C 0.61206 0.25303 0.38873
 C558 C 0.60940 0.27185 0.35735
 C559 C 0.65598 0.25089 0.34326
 C560 C 0.64572 0.28223 0.36077
 C561 C 0.65867 0.23211 0.37465
 C562 C 0.64800 0.26345 0.39255
 C563 C 0.58741 0.25389 0.41391
 C564 C 0.56694 0.25427 0.43446
 C565 C 0.68050 0.24983 0.31801
 C566 C 0.70094 0.24946 0.29747
 H567 H 0.60886 0.23105 0.31735
 H568 H 0.61249 0.19683 0.37582
 H569 H 0.58888 0.28822 0.35053
 H570 H 0.65565 0.30710 0.35616
 H571 H 0.67920 0.21574 0.38146
 H572 H 0.65922 0.27293 0.41463
 C573 C 0.85131 0.21800 0.86339
 C574 C 0.88826 0.22557 0.85937
 C575 C 0.88699 0.24653 0.88951
 C576 C 0.85042 0.23894 0.89394
 C577 C 0.84324 0.24879 0.84397
 C578 C 0.84195 0.26972 0.87412
 C579 C 0.87979 0.25635 0.83956
 C580 C 0.87889 0.27729 0.87009
 C581 C 0.91156 0.24561 0.91470
 C582 C 0.93198 0.24519 0.93523
 C583 C 0.81884 0.24989 0.81869
 C584 C 0.79847 0.25027 0.79812
 H585 H 0.83965 0.19365 0.86031
 H586 H 0.90756 0.20738 0.85362
 H587 H 0.83861 0.23173 0.91656
 H588 H 0.82263 0.28790 0.87986
 H589 H 0.89157 0.26354 0.81692
 H590 H 0.89050 0.30166 0.87314
 C591 C 0.35372 0.71823 0.36112
 C592 C 0.39011 0.72831 0.35752
 C593 C 0.38766 0.74740 0.38874
 C594 C 0.35164 0.73730 0.39274
 C595 C 0.34366 0.74949 0.34336
 C596 C 0.34118 0.76856 0.37458
 C597 C 0.37966 0.75958 0.33937
 C598 C 0.37756 0.77865 0.37097
 C599 C 0.41236 0.74654 0.41388
 C600 C 0.43284 0.74613 0.43440
 C601 C 0.31911 0.75053 0.31813
 C602 C 0.29868 0.75088 0.29757
 H603 H 0.34360 0.69340 0.35677
 H604 H 0.41049 0.71172 0.35079
 H605 H 0.34037 0.72809 0.41494
 H606 H 0.32079 0.78514 0.38131
 H607 H 0.39090 0.76876 0.31715
 H608 H 0.38762 0.80350 0.37531
 C609 C 0.26803 0.84213 0.12507
 C610 C 0.23675 0.85275 0.10705
 C611 C 0.24698 0.88871 0.11108
 C612 C 0.27824 0.87847 0.12872
 C613 C 0.24905 0.84457 0.15636
 C614 C 0.25925 0.88052 0.16039
 C615 C 0.21777 0.85478 0.13873
 C616 C 0.22797 0.89113 0.14237
 C617 C 0.24615 0.91348 0.08602
 C618 C 0.24576 0.93402 0.06555
 C619 C 0.25006 0.81995 0.18152
 C620 C 0.25040 0.79943 0.20199
 H621 H 0.28453 0.82170 0.11826
 H622 H 0.22746 0.84158 0.08486
 H623 H 0.30311 0.88847 0.12431
 H624 H 0.26852 0.89166 0.18260
 H625 H 0.19292 0.84472 0.14316
 H626 H 0.21146 0.91154 0.14919
 C627 C 0.75945 0.37946 0.66049
 C628 C 0.77794 0.37700 0.62857
 C629 C 0.74657 0.38758 0.61132
 C630 C 0.72805 0.39040 0.64285
 C631 C 0.74872 0.34363 0.65677
 C632 C 0.71732 0.35417 0.63952
 C633 C 0.76720 0.34079 0.62523
 C634 C 0.73580 0.35173 0.60759
 C635 C 0.74571 0.41224 0.58615
 C636 C 0.74533 0.43270 0.56560
 C637 C 0.74979 0.31910 0.68201
 C638 C 0.75016 0.29865 0.70255
 H639 H 0.76920 0.39057 0.68252
 H640 H 0.80287 0.38666 0.62377
 H641 H 0.71192 0.41106 0.64981
 H642 H 0.69241 0.34446 0.64433
 H643 H 0.78333 0.32012 0.61829
 H644 H 0.72603 0.34059 0.58558
 C645 C 0.73304 0.15961 0.12430
 C646 C 0.76459 0.14831 0.10709
 C647 C 0.75328 0.11261 0.11057
 C648 C 0.72175 0.12353 0.12737
 C649 C 0.75094 0.15637 0.15609
 C650 C 0.73965 0.12068 0.15956
 C651 C 0.78249 0.14548 0.13929
 C652 C 0.77120 0.10939 0.14236
 C653 C 0.75425 0.08804 0.08539
 C654 C 0.75472 0.06763 0.06484
 C655 C 0.74979 0.18079 0.18136
 C656 C 0.74939 0.20117 0.20192
 H657 H 0.71732 0.18054 0.11719
 H658 H 0.77489 0.15941 0.08527
 H659 H 0.69678 0.11424 0.12217
 H660 H 0.72937 0.10961 0.18141
 H661 H 0.80743 0.15484 0.14451
 H662 H 0.78693 0.08848 0.14948
 C663 C 0.26430 0.62147 0.66064
 C664 C 0.23408 0.60780 0.64287
 C665 C 0.25244 0.61225 0.61141
 C666 C 0.28268 0.62555 0.62880
 C667 C 0.25039 0.65620 0.65685
 C668 C 0.26877 0.66068 0.62540
 C669 C 0.22017 0.64292 0.63945
 C670 C 0.23855 0.64701 0.60761
 C671 C 0.25328 0.58758 0.58624
 C672 C 0.25367 0.56712 0.56570
 C673 C 0.24938 0.68073 0.68209
 C674 C 0.24904 0.70119 0.70263
 H675 H 0.27485 0.61124 0.68274
 H676 H 0.21983 0.58578 0.64979
 H677 H 0.30840 0.61819 0.62414
 H678 H 0.28302 0.68273 0.61853
 H679 H 0.19446 0.65032 0.64412
 H680 H 0.22801 0.65725 0.58552
 C681 C 0.85360 0.78167 0.13738
 C682 C 0.89040 0.77339 0.14144
 C683 C 0.88893 0.75285 0.11103
 C684 C 0.85252 0.76115 0.10658
 C685 C 0.84488 0.75078 0.15639
 C686 C 0.84338 0.73027 0.12598
 C687 C 0.88127 0.74250 0.16084
 C688 C 0.88017 0.72199 0.13005
 C689 C 0.91364 0.75370 0.08591
 C690 C 0.93414 0.75409 0.06540
 C691 C 0.82029 0.74977 0.18159
 C692 C 0.79981 0.74945 0.20210
 H693 H 0.84236 0.80618 0.14071
 H694 H 0.90998 0.79115 0.14750
 H695 H 0.84096 0.76888 0.08401
 H696 H 0.82378 0.71252 0.11993
 H697 H 0.89280 0.73481 0.18343
 H698 H 0.89136 0.69745 0.12674
 C699 C 0.37836 0.23604 0.65929
 C700 C 0.37408 0.22095 0.62592
 C701 C 0.38760 0.25268 0.61134
 C702 C 0.39223 0.26778 0.64432
 C703 C 0.34372 0.25047 0.65686
 C704 C 0.35720 0.28221 0.64228
 C705 C 0.33906 0.23539 0.62388
 C706 C 0.35295 0.26713 0.60891
 C707 C 0.41222 0.25359 0.58614
 C708 C 0.43266 0.25403 0.56557
 C709 C 0.31923 0.24938 0.68213
 C710 C 0.29880 0.24900 0.70269
 H711 H 0.38852 0.22323 0.68027
 H712 H 0.38129 0.19577 0.61890
 H713 H 0.41436 0.28114 0.65243
 H714 H 0.34993 0.30738 0.64931
 H715 H 0.31692 0.22204 0.61579
 H716 H 0.34275 0.27996 0.58795
 C717 C 0.14585 0.21755 0.13881
 C718 C 0.10937 0.22724 0.14257
 C719 C 0.11156 0.24656 0.11144
 C720 C 0.14765 0.23684 0.10728
 C721 C 0.15563 0.24880 0.15668
 C722 C 0.15784 0.26810 0.12555
 C723 C 0.11955 0.25850 0.16083
 C724 C 0.12137 0.27780 0.12932
 C725 C 0.08684 0.24565 0.08640
 C726 C 0.06632 0.24522 0.06595
 C727 C 0.18022 0.24991 0.18180
 C728 C 0.20072 0.25031 0.20224
 H729 H 0.15624 0.19280 0.14303
 H730 H 0.08917 0.21041 0.14926
 H731 H 0.15893 0.22789 0.08500
 H732 H 0.17805 0.28492 0.11887
 H733 H 0.10830 0.26743 0.18313
 H734 H 0.11104 0.30256 0.12512
 C735 C 0.62189 0.73483 0.66017
 C736 C 0.60769 0.76510 0.64284
 C737 C 0.61237 0.74732 0.61113
 C738 C 0.62620 0.71703 0.62807
 C739 C 0.65638 0.74937 0.65650
 C740 C 0.66109 0.73157 0.62480
 C741 C 0.64257 0.77964 0.63954
 C742 C 0.64688 0.76183 0.60745
 C743 C 0.58767 0.74649 0.58599
 C744 C 0.56718 0.74610 0.56547
 C745 C 0.68096 0.75038 0.68170
 C746 C 0.70145 0.75073 0.70221
 H747 H 0.61189 0.72376 0.68214
 H748 H 0.58545 0.77888 0.65000
 H749 H 0.61925 0.69127 0.62308
 H750 H 0.68335 0.71778 0.61769
 H751 H 0.64955 0.80539 0.64455
 H752 H 0.65690 0.77290 0.58549
   
