data_POSCAR
  _audit_creation_date              2014-09-24
  _audit_creation_method            'ToBaCCo'
  _symmetry_space_group_name_H-M    'P1'
  _symmetry_Int_Tables_number       1
  _symmetry_cell_setting            triclinic
  loop_
  _symmetry_equiv_pos_as_xyz
 x,y,z
_cell_length_a 19.5926
_cell_length_b 19.3764
_cell_length_c 26.1716
_cell_angle_alpha 90.707300
_cell_angle_beta 91.754600
_cell_angle_gamma 86.807500
loop_
  _atom_site_label
  _atom_site_type_symbol
  _atom_site_fract_x
  _atom_site_fract_y
  _atom_site_fract_z
C1 C -0.00871 0.56559 1.02689
 C2 C 0.00970 0.56337 0.97436
 C3 C 0.02314 0.49844 0.95085
 C4 C 0.01432 0.43639 0.97605
 C5 C -0.00650 0.43772 1.02754
 C6 C -0.01942 0.50266 1.05127
 H7 H -0.03329 0.50406 1.09102
 H8 H 0.03570 0.49560 0.91074
 C9 C 0.43932 0.00093 0.52574
 C10 C 0.43737 -0.00741 0.47208
 C11 C 0.49873 -0.01091 0.44570
 C12 C 0.56277 -0.00372 0.47095
 C13 C 0.56432 0.00253 0.52543
 C14 C 0.50256 0.00619 0.55149
 H15 H 0.50391 0.01010 0.59289
 H16 H 0.49550 -0.01526 0.40437
 C17 C 0.11716 -0.05305 0.28776
 H18 H 0.10722 -0.09477 0.26132
 C19 C 0.17774 -0.05575 0.31733
 H20 H 0.21342 -0.10011 0.31356
 C21 C 0.08366 0.05587 0.32388
 H22 H 0.04690 0.09956 0.32569
 C23 C 0.14327 0.05495 0.35460
 H24 H 0.15193 0.09827 0.38005
 N25 N 0.07118 0.00182 0.29195
 C26 C -0.00800 -0.06988 0.15720
 H27 H -0.00437 -0.02048 0.13932
 C28 C -0.00668 -0.12953 0.12682
 H29 H -0.00154 -0.12516 0.08592
 C30 C -0.02080 -0.13588 0.23159
 H31 H -0.02576 -0.13775 0.27260
 C32 C -0.02117 -0.19677 0.20246
 H33 H -0.02639 -0.24557 0.22129
 Zn34 Zn -0.01066 0.00560 0.25136
 N35 N -0.01334 -0.07415 0.20877
 C36 C 0.04040 0.09411 0.17955
 N37 N -0.01211 0.08654 0.21146
 C38 C -0.06384 0.13600 0.21528
 C39 C -0.06517 0.19489 0.18493
 C40 C 0.04019 0.15125 0.14760
 C41 C -0.08192 0.01157 0.34475
 C42 C -0.13980 0.01252 0.37459
 C43 C -0.20962 0.00242 0.29745
 C44 C -0.15044 0.00253 0.26904
 N45 N -0.08824 0.00744 0.29292
 H46 H 0.08185 0.05489 0.17826
 H47 H -0.10417 0.12997 0.24181
 H48 H -0.10694 0.23357 0.18812
 H49 H 0.08181 0.15586 0.12179
 H50 H -0.03208 0.01373 0.36322
 H51 H -0.13360 0.01579 0.41579
 H52 H -0.25864 -0.00151 0.27769
 H53 H -0.15392 -0.00147 0.22778
 C54 C -0.01297 -0.19399 0.14946
 C55 C 0.19123 -0.00150 0.35159
 C56 C -0.20472 0.00777 0.35098
 C57 C -0.01325 0.20235 0.15000
 C58 C -0.03410 0.13090 0.78041
 H59 H -0.06914 0.12907 0.74781
 C60 C -0.03381 0.19046 0.81093
 H61 H -0.06950 0.23353 0.80177
 C62 C 0.05643 0.07820 0.83078
 H63 H 0.09154 0.03410 0.83807
 C64 C 0.05929 0.13733 0.86180
 H65 H 0.09644 0.13816 0.89327
 N66 N 0.01021 0.07605 0.79099
 C67 C 0.10318 -0.05867 0.67388
 H68 H 0.06979 -0.10129 0.67128
 C69 C 0.16024 -0.05872 0.64310
 H70 H 0.17031 -0.10171 0.61708
 C71 C 0.13047 0.04887 0.71084
 H72 H 0.11853 0.09130 0.73676
 C73 C 0.18834 0.05057 0.68122
 H74 H 0.22023 0.09433 0.68503
 Zn75 Zn 0.01079 -0.00425 0.74863
 N76 N 0.08924 -0.00532 0.70698
 C77 C -0.06855 -0.01449 0.65557
 N78 N -0.07114 -0.00328 0.70697
 C79 C -0.13225 0.00824 0.72995
 C80 C -0.19351 0.00911 0.70119
 C81 C -0.12870 -0.01627 0.62563
 C82 C 0.06352 -0.13502 0.78634
 C83 C 0.06280 -0.19466 0.81574
 C84 C -0.03797 -0.14616 0.85662
 C85 C -0.03562 -0.08771 0.82615
 N86 N 0.01387 -0.08355 0.79115
 H87 H -0.02009 -0.02213 0.63739
 H88 H -0.13359 0.01841 0.77056
 H89 H -0.24157 0.01904 0.72004
 H90 H -0.12569 -0.02559 0.58485
 H91 H 0.10383 -0.13034 0.75969
 H92 H 0.10251 -0.23514 0.81088
 H93 H -0.07823 -0.14838 0.88389
 H94 H -0.07334 -0.04552 0.83067
 C95 C 0.20384 -0.00362 0.64669
 C96 C 0.01349 0.19433 0.85213
 C97 C 0.01120 -0.20108 0.85117
 C98 C -0.19203 -0.00404 0.64848
 N99 N -0.04147 -0.37107 0.10332
 C100 C -0.01023 -0.37331 0.05750
 N101 N 0.02279 -0.31688 0.04374
 N102 N 0.02182 -0.26003 0.07284
 C103 C -0.01098 -0.25756 0.11777
 N104 N -0.04195 -0.31450 0.13277
 N105 N -0.04219 0.38045 0.10291
 C106 C -0.01184 0.37715 0.05676
 N107 N 0.01674 0.31514 0.04140
 N108 N 0.01592 0.25956 0.07075
 C109 C -0.01414 0.26338 0.11678
 N110 N -0.04376 0.32479 0.13210
 N111 N 0.32873 -0.04571 0.54624
 C112 C 0.37716 0.00046 0.55645
 N113 N 0.36883 0.04463 0.59670
 N114 N 0.31371 0.04343 0.62515
 C115 C 0.26499 -0.00242 0.61483
 N116 N 0.27373 -0.04709 0.57484
 N117 N -0.31956 -0.04653 0.54814
 C118 C -0.37185 0.00050 0.55750
 N119 N -0.36602 0.04362 0.59853
 N120 N -0.30920 0.04154 0.62789
 C121 C -0.25596 -0.00369 0.61729
 N122 N -0.26235 -0.04796 0.57704
 N123 N -0.03409 -0.32167 0.95151
 C124 C 0.00937 -0.37755 0.94312
 N125 N 0.05057 -0.37643 0.90226
 N126 N 0.05095 -0.32069 0.87299
 C127 C 0.00930 -0.26396 0.88271
 N128 N -0.03391 -0.26602 0.92216
 N129 N -0.04090 0.35901 0.91503
 C130 C 0.01512 0.37310 0.94416
 N131 N 0.07136 0.32899 0.94255
 N132 N 0.07088 0.27193 0.91353
 C133 C 0.01452 0.25742 0.88459
 N134 N -0.04116 0.30235 0.88576
 N135 N -0.38086 -0.01821 0.39037
 C136 C -0.37859 0.00013 0.44076
 N137 N -0.31933 0.02410 0.46039
 N138 N -0.26439 0.02691 0.43195
 C139 C -0.26648 0.00687 0.38210
 N140 N -0.32611 -0.01507 0.36173
 N141 N 0.32016 0.03949 0.45188
 C142 C 0.37230 -0.00736 0.44186
 N143 N 0.36500 -0.05187 0.40187
 N144 N 0.30737 -0.05028 0.37346
 C145 C 0.25501 -0.00363 0.38354
 N146 N 0.26264 0.04127 0.42332
   
