data_POSCAR
  _audit_creation_date              2014-09-24
  _audit_creation_method            'ToBaCCo'
  _symmetry_space_group_name_H-M    'P1'
  _symmetry_Int_Tables_number       1
  _symmetry_cell_setting            triclinic
  loop_
  _symmetry_equiv_pos_as_xyz
 x,y,z
_cell_length_a 57.3833
_cell_length_b 57.8677
_cell_length_c 56.1776
_cell_angle_alpha 89.168300
_cell_angle_beta 88.184200
_cell_angle_gamma 91.255600
loop_
  _atom_site_label
  _atom_site_type_symbol
  _atom_site_fract_x
  _atom_site_fract_y
  _atom_site_fract_z
N1 N 0.25026 0.21869 0.19412
 N2 N 0.24244 0.23812 0.18535
 C3 C 0.25605 0.24482 0.16641
 C4 C 0.27325 0.22867 0.16307
 C5 C 0.26896 0.21228 0.18096
 H6 H 0.25375 0.26038 0.15595
 H7 H 0.27920 0.19727 0.18469
 Cu8 Cu 0.21576 0.25305 0.20014
 Cu9 Cu 0.23674 0.20404 0.22297
 Cu10 Cu 0.18975 0.23110 0.25011
 N11 N 0.18877 0.26754 0.21487
 N12 N 0.17908 0.25919 0.23478
 C13 C 0.16129 0.27266 0.24152
 C14 C 0.15961 0.29032 0.22483
 C15 C 0.17733 0.28650 0.20815
 H16 H 0.15017 0.26961 0.25720
 H17 H 0.18175 0.29698 0.19250
 N18 N 0.20303 0.20247 0.26275
 N19 N 0.22074 0.19203 0.25232
 C20 C 0.22569 0.17307 0.26523
 C21 C 0.21035 0.17143 0.28476
 C22 C 0.19624 0.19041 0.28253
 H23 H 0.23947 0.16133 0.26072
 H24 H 0.18223 0.19529 0.29459
 H25 H 0.20358 0.21665 0.21954
 H26 H 0.22406 0.23391 0.23778
 N27 N 0.74452 -0.21018 0.18845
 N28 N 0.75243 -0.22915 0.17886
 C29 C 0.73843 -0.23552 0.16120
 C30 C 0.72064 -0.21969 0.15957
 C31 C 0.72526 -0.20381 0.17725
 H32 H 0.74097 -0.25070 0.15056
 H33 H 0.71531 -0.18884 0.18199
 Cu34 Cu 0.77991 -0.24393 0.19094
 Cu35 Cu 0.75920 -0.19549 0.21530
 Cu36 Cu 0.80845 -0.22134 0.23672
 N37 N 0.80782 -0.25805 0.20284
 N38 N 0.81880 -0.24912 0.22080
 C39 C 0.83699 -0.26235 0.22594
 C40 C 0.83759 -0.28078 0.21035
 C41 C 0.81870 -0.27732 0.19589
 H42 H 0.84870 -0.25877 0.24016
 H43 H 0.81301 -0.28813 0.18159
 N44 N 0.79528 -0.19316 0.25044
 N45 N 0.77653 -0.18332 0.24233
 C46 C 0.77156 -0.16490 0.25582
 C47 C 0.78797 -0.16302 0.27329
 C48 C 0.80274 -0.18126 0.26925
 H49 H 0.75695 -0.15378 0.25319
 H50 H 0.81752 -0.18589 0.27961
 H51 H 0.79229 -0.20723 0.20770
 H52 H 0.77357 -0.22504 0.22904
 N53 N 0.74927 0.20207 0.80764
 N54 N 0.76048 0.21766 0.81992
 C55 C 0.74673 0.22419 0.83837
 C56 C 0.72572 0.21194 0.83769
 C57 C 0.72804 0.19805 0.81789
 H58 H 0.75172 0.23687 0.85131
 H59 H 0.71514 0.18616 0.81115
 Cu60 Cu 0.79183 0.22809 0.81051
 Cu61 Cu 0.76293 0.18831 0.77920
 Cu62 Cu 0.81573 0.21179 0.75801
 N63 N 0.81871 0.24433 0.79598
 N64 N 0.82808 0.23793 0.77557
 C65 C 0.84580 0.25264 0.76933
 C66 C 0.84767 0.26934 0.78678
 C67 C 0.83008 0.26331 0.80346
 H68 H 0.85615 0.25139 0.75301
 H69 H 0.82537 0.27221 0.81962
 N70 N 0.80002 0.18535 0.74296
 N71 N 0.77966 0.17676 0.75081
 C72 C 0.77301 0.15959 0.73645
 C73 C 0.79001 0.15714 0.71871
 C74 C 0.80693 0.17373 0.72346
 H75 H 0.75702 0.14948 0.73880
 H76 H 0.82283 0.17740 0.71313
 H77 H 0.79790 0.19442 0.78563
 H78 H 0.78221 0.21804 0.77015
 N79 N 0.26164 -0.21416 0.80700
 N80 N 0.25625 -0.23563 0.81324
 C81 C 0.27110 -0.24281 0.82973
 C82 C 0.28676 -0.22487 0.83405
 C83 C 0.28014 -0.20697 0.81924
 H84 H 0.27060 -0.25990 0.83779
 H85 H 0.28805 -0.18988 0.81754
 Cu86 Cu 0.23048 -0.25240 0.79926
 Cu87 Cu 0.24447 -0.19729 0.78330
 Cu88 Cu 0.19288 -0.22282 0.76613
 N89 N 0.19975 -0.26485 0.79239
 N90 N 0.18463 -0.25276 0.78067
 C91 C 0.16482 -0.26540 0.77882
 C92 C 0.16775 -0.28686 0.78963
 C93 C 0.19025 -0.28575 0.79807
 H94 H 0.14990 -0.25974 0.76923
 H95 H 0.19912 -0.29899 0.80780
 N96 N 0.20460 -0.19280 0.75320
 N97 N 0.22446 -0.18318 0.75953
 C98 C 0.22874 -0.16395 0.74620
 C99 C 0.21075 -0.16131 0.73054
 C100 C 0.19573 -0.17997 0.73563
 H101 H 0.24427 -0.15319 0.74728
 H102 H 0.18003 -0.18452 0.72652
 H103 H 0.21392 -0.21457 0.79415
 H104 H 0.22887 -0.22492 0.76619
 N105 N 0.75459 -0.21758 0.80723
 N106 N 0.75954 -0.23879 0.81363
 C107 C 0.74519 -0.24562 0.83193
 C108 C 0.73044 -0.22767 0.83737
 C109 C 0.73699 -0.21012 0.82134
 H110 H 0.74537 -0.26245 0.84051
 H111 H 0.72893 -0.19351 0.81943
 Cu112 Cu 0.78360 -0.25591 0.79694
 Cu113 Cu 0.76989 -0.20212 0.77978
 Cu114 Cu 0.81696 -0.22959 0.75365
 N115 N 0.81272 -0.26884 0.78543
 N116 N 0.82563 -0.25874 0.76842
 C117 C 0.84439 -0.27170 0.76376
 C118 C 0.84330 -0.29107 0.77877
 C119 C 0.82284 -0.28847 0.79231
 H120 H 0.85777 -0.26720 0.75043
 H121 H 0.81559 -0.29997 0.80607
 N122 N 0.80529 -0.19996 0.74158
 N123 N 0.78751 -0.18941 0.75173
 C124 C 0.78311 -0.17021 0.73901
 C125 C 0.79884 -0.16850 0.71980
 C126 C 0.81269 -0.18770 0.72210
 H127 H 0.76913 -0.15861 0.74319
 H128 H 0.82667 -0.19280 0.71010
 H129 H 0.78156 -0.23091 0.76179
 H130 H 0.80101 -0.21879 0.78489
 N131 N 0.25620 0.20799 0.80731
 N132 N 0.25098 0.22930 0.81269
 C133 C 0.26562 0.23703 0.82921
 C134 C 0.28097 0.21961 0.83447
 C135 C 0.27436 0.20142 0.82017
 H136 H 0.26522 0.25417 0.83658
 H137 H 0.28215 0.18462 0.81907
 Cu138 Cu 0.22589 0.24522 0.79739
 Cu139 Cu 0.23955 0.19067 0.78352
 Cu140 Cu 0.18911 0.21474 0.76338
 N141 N 0.19574 0.25687 0.78889
 N142 N 0.18098 0.24460 0.77655
 C143 C 0.16163 0.25691 0.77339
 C144 C 0.16458 0.27811 0.78413
 C145 C 0.18644 0.27747 0.79378
 H146 H 0.14692 0.25127 0.76323
 H147 H 0.19493 0.29100 0.80362
 N148 N 0.20073 0.18487 0.75205
 N149 N 0.22024 0.17597 0.75945
 C150 C 0.22494 0.15698 0.74679
 C151 C 0.20757 0.15371 0.73056
 C152 C 0.19242 0.17167 0.73452
 H153 H 0.24029 0.14671 0.74870
 H154 H 0.17728 0.17562 0.72437
 H155 H 0.22496 0.21788 0.76489
 H156 H 0.20873 0.20703 0.79249
 N157 N 0.25170 -0.20177 0.18939
 N158 N 0.24260 -0.22046 0.18005
 C159 C 0.25664 -0.22730 0.16195
 C160 C 0.27548 -0.21200 0.15969
 C161 C 0.27171 -0.19595 0.17737
 H162 H 0.25347 -0.24237 0.15128
 H163 H 0.28308 -0.18157 0.18169
 Cu164 Cu 0.21366 -0.23466 0.19264
 Cu165 Cu 0.23768 -0.18734 0.21729
 Cu166 Cu 0.18738 -0.21334 0.24188
 N167 N 0.18587 -0.24933 0.20735
 N168 N 0.17592 -0.24123 0.22679
 C169 C 0.15782 -0.25525 0.23363
 C170 C 0.15625 -0.27305 0.21751
 C171 C 0.17433 -0.26869 0.20105
 H172 H 0.14662 -0.25268 0.24916
 H173 H 0.17910 -0.27922 0.18601
 N174 N 0.20157 -0.18501 0.25463
 N175 N 0.22094 -0.17530 0.24552
 C176 C 0.22679 -0.15698 0.25880
 C177 C 0.21022 -0.15496 0.27705
 C178 C 0.19447 -0.17299 0.27379
 H179 H 0.24201 -0.14593 0.25550
 H180 H 0.17934 -0.17743 0.28502
 H181 H 0.22186 -0.21740 0.23092
 H182 H 0.20382 -0.19846 0.21195
 N183 N 0.73293 0.21779 0.19568
 N184 N 0.74003 0.23867 0.18892
 C185 C 0.72654 0.24623 0.17139
 C186 C 0.71009 0.22912 0.16683
 C187 C 0.71473 0.21129 0.18260
 H188 H 0.72869 0.26286 0.16249
 H189 H 0.70531 0.19497 0.18472
 Cu190 Cu 0.76614 0.25422 0.20356
 Cu191 Cu 0.74736 0.20098 0.22141
 Cu192 Cu 0.79841 0.22487 0.24234
 N193 N 0.79675 0.26541 0.21248
 N194 N 0.80930 0.25396 0.22763
 C195 C 0.82924 0.26595 0.23112
 C196 C 0.82925 0.28602 0.21734
 C197 C 0.80832 0.28502 0.20570
 H198 H 0.84266 0.26047 0.24289
 H199 H 0.80170 0.29782 0.19361
 N200 N 0.78441 0.19564 0.25498
 N201 N 0.76467 0.18677 0.24737
 C202 C 0.75895 0.16762 0.26036
 C203 C 0.77599 0.16419 0.27686
 C204 C 0.79188 0.18227 0.27287
 H205 H 0.74347 0.15700 0.25809
 H206 H 0.80732 0.18584 0.28285
 H207 H 0.76293 0.22855 0.23838
 H208 H 0.77973 0.21580 0.21283
 C209 C 0.20769 -0.01303 0.52513
 C210 C 0.20738 0.01137 0.52553
 C211 C 0.20713 0.02391 0.50402
 C212 C 0.20730 0.01271 0.48204
 C213 C 0.20810 -0.01168 0.48159
 C214 C 0.20819 -0.02425 0.50314
 H215 H 0.20863 -0.04297 0.50278
 H216 H 0.20678 0.04263 0.50441
 C217 C 0.78965 -0.01551 0.47488
 C218 C 0.78487 0.00836 0.47502
 C219 C 0.78320 0.01983 0.49679
 C220 C 0.78665 0.00819 0.51842
 C221 C 0.79140 -0.01570 0.51834
 C222 C 0.79295 -0.02719 0.49654
 H223 H 0.79606 -0.04560 0.49647
 H224 H 0.78006 0.03825 0.49683
 C225 C 0.47722 0.23107 -0.01497
 C226 C 0.47633 0.23524 0.00978
 C227 C 0.49718 0.23754 0.02199
 C228 C 0.51891 0.23493 0.01027
 C229 C 0.51982 0.23061 -0.01445
 C230 C 0.49896 0.22884 -0.02674
 H231 H 0.49967 0.22601 -0.04578
 H232 H 0.49646 0.24019 0.04107
 C233 C 0.48092 0.77388 0.01107
 C234 C 0.48216 0.77339 -0.01408
 C235 C 0.50406 0.77255 -0.02585
 C236 C 0.52472 0.77265 -0.01316
 C237 C 0.52348 0.77353 0.01199
 C238 C 0.50156 0.77392 0.02377
 H239 H 0.50056 0.77447 0.04307
 H240 H 0.50506 0.77204 -0.04515
 C241 C 0.00845 0.48278 0.22226
 C242 C -0.01565 0.48227 0.21771
 C243 C -0.02730 0.50318 0.21512
 C244 C -0.01553 0.52455 0.21699
 C245 C 0.00859 0.52502 0.22144
 C246 C 0.02020 0.50414 0.22435
 H247 H 0.03880 0.50451 0.22726
 H248 H -0.04589 0.50281 0.21220
 C249 C 0.01666 0.51566 0.78397
 C250 C -0.00805 0.51515 0.78513
 C251 C -0.02004 0.49373 0.78588
 C252 C -0.00817 0.47280 0.78500
 C253 C 0.01650 0.47323 0.78359
 C254 C 0.02848 0.49465 0.78321
 H255 H 0.04739 0.49495 0.78295
 H256 H -0.03896 0.49334 0.78649
 C257 C 0.33131 0.23112 0.11257
 C258 C 0.32341 0.20997 0.12284
 C259 C 0.30447 0.20916 0.13912
 C260 C 0.29284 0.22944 0.14526
 C261 C 0.30043 0.25052 0.13463
 C262 C 0.31955 0.25138 0.11857
 C263 C 0.35201 0.23211 0.09612
 N264 N 0.36314 0.25257 0.09073
 N265 N 0.38216 0.25338 0.07649
 C266 C 0.39078 0.23377 0.06695
 N267 N 0.37955 0.21334 0.07220
 N268 N 0.36060 0.21252 0.08652
 C269 C 0.41228 0.23453 0.05163
 C270 C 0.41847 0.21532 0.03795
 C271 C 0.43911 0.21574 0.02407
 C272 C 0.45400 0.23530 0.02369
 C273 C 0.44790 0.25451 0.03727
 C274 C 0.42713 0.25422 0.05098
 H275 H 0.33210 0.19405 0.11862
 H276 H 0.29891 0.19262 0.14682
 H277 H 0.29197 0.26648 0.13910
 H278 H 0.32514 0.26794 0.11091
 H279 H 0.40742 0.19992 0.03801
 H280 H 0.44366 0.20065 0.01389
 H281 H 0.45925 0.26973 0.03723
 H282 H 0.42292 0.26926 0.06138
 C283 C 0.66346 0.77911 0.11325
 C284 C 0.66610 0.79692 0.12972
 C285 C 0.68496 0.79741 0.14483
 C286 C 0.70183 0.78005 0.14395
 C287 C 0.69922 0.76234 0.12718
 C288 C 0.68031 0.76189 0.11208
 C289 C 0.64311 0.77842 0.09762
 N290 N 0.64015 0.76103 0.08193
 N291 N 0.62166 0.76029 0.06818
 C292 C 0.60533 0.77692 0.06954
 N293 N 0.60835 0.79433 0.08518
 N294 N 0.62682 0.79506 0.09892
 C295 C 0.58455 0.77603 0.05453
 C296 C 0.56768 0.79325 0.05632
 C297 C 0.54793 0.79235 0.04247
 C298 C 0.54463 0.77429 0.02645
 C299 C 0.56136 0.75702 0.02461
 C300 C 0.58117 0.75790 0.03847
 H301 H 0.65348 0.81052 0.13110
 H302 H 0.68603 0.81148 0.15721
 H303 H 0.71160 0.74861 0.12560
 H304 H 0.67886 0.74792 0.09956
 H305 H 0.56967 0.80745 0.06848
 H306 H 0.53523 0.80586 0.04412
 H307 H 0.55898 0.74277 0.01258
 H308 H 0.59375 0.74432 0.03668
 C309 C 0.66551 0.21660 -0.11482
 C310 C 0.66773 0.19800 -0.13049
 C311 C 0.68728 0.19647 -0.14578
 C312 C 0.70515 0.21347 -0.14577
 C313 C 0.70305 0.23197 -0.12996
 C314 C 0.68344 0.23354 -0.11468
 C315 C 0.64447 0.21837 -0.09897
 N316 N 0.64166 0.23674 -0.08444
 N317 N 0.62254 0.23844 -0.07054
 C318 C 0.60543 0.22183 -0.07056
 N319 N 0.60830 0.20344 -0.08502
 N320 N 0.62739 0.20175 -0.09892
 C321 C 0.58387 0.22387 -0.05553
 C322 C 0.56627 0.20658 -0.05585
 C323 C 0.54564 0.20873 -0.04230
 C324 C 0.54217 0.22814 -0.02807
 C325 C 0.55973 0.24539 -0.02755
 C326 C 0.58041 0.24325 -0.04111
 H327 H 0.65430 0.18459 -0.13106
 H328 H 0.68836 0.18183 -0.15748
 H329 H 0.71637 0.24546 -0.12954
 H330 H 0.68231 0.24810 -0.10285
 H331 H 0.56832 0.19140 -0.06670
 H332 H 0.53233 0.19521 -0.04292
 H333 H 0.55727 0.26067 -0.01694
 H334 H 0.59356 0.25692 -0.04048
 C335 C 0.34419 0.77510 -0.11815
 C336 C 0.32709 0.75731 -0.11687
 C337 C 0.30844 0.75732 -0.13232
 C338 C 0.30643 0.77513 -0.14939
 C339 C 0.32350 0.79294 -0.15057
 C340 C 0.34213 0.79292 -0.13516
 C341 C 0.36417 0.77504 -0.10202
 N342 N 0.38104 0.79184 -0.10391
 N343 N 0.39915 0.79174 -0.08967
 C344 C 0.40118 0.77483 -0.07289
 N345 N 0.38427 0.75805 -0.07093
 N346 N 0.36615 0.75814 -0.08520
 C347 C 0.42161 0.77461 -0.05736
 C348 C 0.42363 0.75743 -0.03960
 C349 C 0.44320 0.75706 -0.02537
 C350 C 0.46105 0.77389 -0.02859
 C351 C 0.45905 0.79105 -0.04623
 C352 C 0.43953 0.79147 -0.06042
 H353 H 0.32810 0.74332 -0.10397
 H354 H 0.29558 0.74340 -0.13073
 H355 H 0.32271 0.80686 -0.16355
 H356 H 0.35498 0.80689 -0.13670
 H357 H 0.41020 0.74416 -0.03678
 H358 H 0.44455 0.74347 -0.01206
 H359 H 0.47264 0.80420 -0.04898
 H360 H 0.43859 0.80494 -0.07390
 C361 C 0.11074 0.34570 0.22489
 C362 C 0.11614 0.33441 0.24627
 C363 C 0.13182 0.31626 0.24622
 C364 C 0.14266 0.30922 0.22485
 C365 C 0.13727 0.32050 0.20348
 C366 C 0.12137 0.33844 0.20347
 C367 C 0.09440 0.36516 0.22492
 N368 N 0.08535 0.37289 0.20429
 N369 N 0.07101 0.39068 0.20422
 C370 C 0.06521 0.40157 0.22476
 N371 N 0.07421 0.39381 0.24540
 N372 N 0.08845 0.37593 0.24548
 C373 C 0.04991 0.42184 0.22451
 C374 C 0.04859 0.43659 0.24418
 C375 C 0.03498 0.45631 0.24349
 C376 C 0.02217 0.46144 0.22331
 C377 C 0.02316 0.44661 0.20380
 C378 C 0.03695 0.42702 0.20436
 H379 H 0.10822 0.33956 0.26307
 H380 H 0.13574 0.30801 0.26300
 H381 H 0.14516 0.31532 0.18668
 H382 H 0.11763 0.34680 0.18670
 H383 H 0.05842 0.43315 0.25993
 H384 H 0.03444 0.46761 0.25870
 H385 H 0.01355 0.45042 0.18798
 H386 H 0.03752 0.41599 0.18896
 C387 C 0.12059 0.65563 0.79091
 C388 C 0.11296 0.67772 0.78481
 C389 C 0.12847 0.69671 0.78438
 C390 C 0.15189 0.69416 0.79069
 C391 C 0.15917 0.67200 0.79759
 C392 C 0.14380 0.65295 0.79732
 C393 C 0.10465 0.63533 0.78996
 N394 N 0.11295 0.61439 0.78375
 N395 N 0.09861 0.59610 0.78240
 C396 C 0.07544 0.59794 0.78748
 N397 N 0.06714 0.61883 0.79388
 N398 N 0.08145 0.63722 0.79493
 C399 C 0.05971 0.57753 0.78605
 C400 C 0.04028 0.57470 0.80173
 C401 C 0.02620 0.55468 0.80111
 C402 C 0.03082 0.53752 0.78423
 C403 C 0.04998 0.54071 0.76822
 C404 C 0.06441 0.56037 0.76929
 H405 H 0.09511 0.68022 0.77977
 H406 H 0.12187 0.71338 0.77933
 H407 H 0.17694 0.66900 0.80247
 H408 H 0.15008 0.63606 0.80222
 H409 H 0.03645 0.58760 0.81498
 H410 H 0.01198 0.55243 0.81411
 H411 H 0.05391 0.52783 0.75496
 H412 H 0.07921 0.56223 0.75689
 C413 C -0.11546 0.66342 0.20948
 C414 C -0.11359 0.68092 0.22640
 C415 C -0.12886 0.69938 0.22655
 C416 C -0.14659 0.70087 0.20980
 C417 C -0.14820 0.68337 0.19268
 C418 C -0.13284 0.66495 0.19252
 C419 C -0.09966 0.64349 0.20982
 N420 N -0.10070 0.62703 0.19287
 N421 N -0.08686 0.60887 0.19351
 C422 C -0.07140 0.60637 0.21114
 N423 N -0.07030 0.62288 0.22803
 N424 N -0.08412 0.64105 0.22737
 C425 C -0.05647 0.58582 0.21224
 C426 C -0.04208 0.58223 0.23171
 C427 C -0.02863 0.56245 0.23316
 C428 C -0.02912 0.54598 0.21508
 C429 C -0.04332 0.54958 0.19555
 C430 C -0.05684 0.56931 0.19412
 H431 H -0.10035 0.68034 0.23970
 H432 H -0.12668 0.71227 0.24007
 H433 H -0.16132 0.68363 0.17931
 H434 H -0.13478 0.65178 0.17919
 H435 H -0.04144 0.59451 0.24604
 H436 H -0.01812 0.55982 0.24860
 H437 H -0.04394 0.53709 0.18141
 H438 H -0.06769 0.57153 0.17886
 C439 C -0.10647 0.32804 0.78720
 C440 C -0.12254 0.32360 0.80616
 C441 C -0.13743 0.30419 0.80615
 C442 C -0.13675 0.28858 0.78711
 C443 C -0.12031 0.29293 0.76829
 C444 C -0.10542 0.31239 0.76834
 C445 C -0.09121 0.34908 0.78700
 N446 N -0.07565 0.35364 0.76871
 N447 N -0.06229 0.37279 0.76840
 C448 C -0.06395 0.38819 0.78637
 N449 N -0.07946 0.38358 0.80467
 N450 N -0.09279 0.36445 0.80498
 C451 C -0.04941 0.40972 0.78596
 C452 C -0.05194 0.42587 0.80428
 C453 C -0.03852 0.44629 0.80386
 C454 C -0.02219 0.45097 0.78522
 C455 C -0.01964 0.43497 0.76683
 C456 C -0.03308 0.41450 0.76722
 H457 H -0.12379 0.33522 0.82106
 H458 H -0.14951 0.30172 0.82117
 H459 H -0.11888 0.28153 0.75327
 H460 H -0.09319 0.31523 0.75346
 H461 H -0.06434 0.42281 0.81897
 H462 H -0.04075 0.45843 0.81822
 H463 H -0.00731 0.43840 0.75214
 H464 H -0.03073 0.40249 0.75279
 C465 C 0.20797 0.12017 0.34143
 C466 C 0.18972 0.13574 0.33892
 C467 C 0.19044 0.15221 0.32048
 C468 C 0.20944 0.15358 0.30406
 C469 C 0.22761 0.13786 0.30643
 C470 C 0.22688 0.12136 0.32490
 C471 C 0.20738 0.10308 0.36139
 N472 N 0.22492 0.08794 0.36403
 N473 N 0.22453 0.07296 0.38228
 C474 C 0.20659 0.07247 0.39867
 N475 N 0.18902 0.08754 0.39594
 N476 N 0.18940 0.10250 0.37770
 C477 C 0.20641 0.05635 0.41944
 C478 C 0.18839 0.05703 0.43697
 C479 C 0.18862 0.04260 0.45707
 C480 C 0.20674 0.02706 0.46003
 C481 C 0.22463 0.02607 0.44248
 C482 C 0.22446 0.04056 0.42234
 H483 H 0.17484 0.13530 0.35127
 H484 H 0.17599 0.16379 0.31917
 H485 H 0.24259 0.13841 0.29426
 H486 H 0.24126 0.10967 0.32630
 H487 H 0.17422 0.06894 0.43536
 H488 H 0.17466 0.04361 0.47044
 H489 H 0.23894 0.01440 0.44459
 H490 H 0.23861 0.03959 0.40921
 C491 C 0.78899 0.10960 0.66045
 C492 C 0.76818 0.11568 0.67240
 C493 C 0.76857 0.13098 0.69139
 C494 C 0.78974 0.14073 0.69873
 C495 C 0.81056 0.13472 0.68678
 C496 C 0.81020 0.11921 0.66792
 C497 C 0.78847 0.09355 0.64015
 N498 N 0.80840 0.08428 0.63123
 N499 N 0.80790 0.07009 0.61278
 C500 C 0.78746 0.06465 0.60242
 N501 N 0.76754 0.07389 0.61136
 N502 N 0.76802 0.08799 0.62987
 C503 C 0.78697 0.04944 0.58145
 C504 C 0.76705 0.04808 0.56752
 C505 C 0.76690 0.03451 0.54716
 C506 C 0.78651 0.02177 0.54055
 C507 C 0.80630 0.02278 0.55457
 C508 C 0.80656 0.03653 0.57481
 H509 H 0.75154 0.10858 0.66713
 H510 H 0.75219 0.13541 0.70004
 H511 H 0.82717 0.14180 0.69212
 H512 H 0.82654 0.11493 0.65906
 H513 H 0.75170 0.05784 0.57208
 H514 H 0.75150 0.03395 0.53651
 H515 H 0.82168 0.01322 0.54960
 H516 H 0.82214 0.03713 0.58518
 C517 C 0.20723 -0.11229 0.67212
 C518 C 0.18889 -0.12831 0.67702
 C519 C 0.18980 -0.14384 0.69623
 C520 C 0.20912 -0.14382 0.71102
 C521 C 0.22720 -0.12738 0.70645
 C522 C 0.22627 -0.11182 0.68725
 C523 C 0.20680 -0.09666 0.65099
 N524 N 0.22432 -0.08091 0.64633
 N525 N 0.22428 -0.06740 0.62692
 C526 C 0.20673 -0.06909 0.61132
 N527 N 0.18916 -0.08475 0.61606
 N528 N 0.18919 -0.09823 0.63546
 C529 C 0.20693 -0.05449 0.58939
 C530 C 0.18952 -0.05746 0.57256
 C531 C 0.18988 -0.04401 0.55170
 C532 C 0.20754 -0.02723 0.54730
 C533 C 0.22501 -0.02424 0.56397
 C534 C 0.22469 -0.03771 0.58485
 H535 H 0.17387 -0.12907 0.66584
 H536 H 0.17539 -0.15599 0.69919
 H537 H 0.24234 -0.12665 0.71740
 H538 H 0.24068 -0.09967 0.68408
 H539 H 0.17562 -0.07025 0.57542
 H540 H 0.17625 -0.04657 0.53903
 H541 H 0.23898 -0.01159 0.56075
 H542 H 0.23842 -0.03501 0.59737
 C543 C 0.79034 -0.11455 0.33084
 C544 C 0.80947 -0.12853 0.32551
 C545 C 0.80879 -0.14403 0.30670
 C546 C 0.78896 -0.14596 0.29274
 C547 C 0.76995 -0.13172 0.29785
 C548 C 0.77063 -0.11622 0.31667
 C549 C 0.79077 -0.09872 0.35135
 N550 N 0.77226 -0.08529 0.35672
 N551 N 0.77244 -0.07153 0.37551
 C552 C 0.79112 -0.07060 0.38975
 N553 N 0.80967 -0.08394 0.38431
 N554 N 0.80950 -0.09770 0.36551
 C555 C 0.79106 -0.05583 0.41110
 C556 C 0.81007 -0.05570 0.42632
 C557 C 0.80966 -0.04242 0.44689
 C558 C 0.79034 -0.02890 0.45259
 C559 C 0.77141 -0.02886 0.43739
 C560 C 0.77177 -0.04213 0.41681
 H561 H 0.82498 -0.12766 0.33598
 H562 H 0.82389 -0.15447 0.30319
 H563 H 0.75433 -0.13276 0.28762
 H564 H 0.75557 -0.10572 0.32026
 H565 H 0.82520 -0.06603 0.42249
 H566 H 0.82445 -0.04269 0.45840
 H567 H 0.75617 -0.01880 0.44164
 H568 H 0.75682 -0.04185 0.40554
 C569 C 0.67195 0.77201 -0.11259
 C570 C 0.68131 0.75115 -0.12059
 C571 C 0.70058 0.75125 -0.13644
 C572 C 0.71080 0.77222 -0.14485
 C573 C 0.70165 0.79308 -0.13663
 C574 C 0.68252 0.79298 -0.12058
 C575 C 0.65092 0.77186 -0.09657
 N576 N 0.64397 0.79144 -0.08561
 N577 N 0.62468 0.79139 -0.07176
 C578 C 0.61146 0.77178 -0.06838
 N579 N 0.61847 0.75219 -0.07927
 N580 N 0.63780 0.75222 -0.09302
 C581 C 0.58955 0.77184 -0.05368
 C582 C 0.57335 0.75332 -0.05471
 C583 C 0.55233 0.75365 -0.04151
 C584 C 0.54723 0.77233 -0.02676
 C585 C 0.56339 0.79077 -0.02548
 C586 C 0.58436 0.79057 -0.03887
 H587 H 0.67365 0.73468 -0.11474
 H588 H 0.70708 0.73487 -0.14252
 H589 H 0.70927 0.80952 -0.14258
 H590 H 0.67576 0.80936 -0.11477
 H591 H 0.57674 0.73868 -0.06600
 H592 H 0.54003 0.73928 -0.04272
 H593 H 0.55965 0.80541 -0.01430
 H594 H 0.59647 0.80508 -0.03763
 C595 C 0.33822 0.22214 -0.11747
 C596 C 0.33513 0.20325 -0.13258
 C597 C 0.31654 0.20239 -0.14802
 C598 C 0.30052 0.22041 -0.14879
 C599 C 0.30353 0.23925 -0.13356
 C600 C 0.32214 0.24010 -0.11809
 C601 C 0.35824 0.22315 -0.10142
 N602 N 0.36158 0.24148 -0.08698
 N603 N 0.37980 0.24250 -0.07286
 C604 C 0.39544 0.22521 -0.07257
 N605 N 0.39204 0.20686 -0.08695
 N606 N 0.37384 0.20585 -0.10105
 C607 C 0.41602 0.22650 -0.05727
 C608 C 0.43244 0.20879 -0.05761
 C609 C 0.45216 0.21024 -0.04371
 C610 C 0.45585 0.22935 -0.02910
 C611 C 0.43947 0.24701 -0.02861
 C612 C 0.41971 0.24558 -0.04250
 H613 H 0.34716 0.18910 -0.13261
 H614 H 0.31498 0.18764 -0.15949
 H615 H 0.29153 0.25340 -0.13347
 H616 H 0.32395 0.25491 -0.10668
 H617 H 0.43018 0.19385 -0.06874
 H618 H 0.46457 0.19641 -0.04433
 H619 H 0.44214 0.26206 -0.01771
 H620 H 0.40748 0.25955 -0.04183
 C621 C 0.33508 0.78402 0.11147
 C622 C 0.32160 0.76413 0.11762
 C623 C 0.30208 0.76550 0.13301
 C624 C 0.29579 0.78674 0.14286
 C625 C 0.30923 0.80664 0.13672
 C626 C 0.32857 0.80533 0.12104
 C627 C 0.35602 0.78239 0.09552
 N628 N 0.36584 0.80157 0.08475
 N629 N 0.38489 0.80007 0.07071
 C630 C 0.39499 0.77936 0.06697
 N631 N 0.38515 0.76020 0.07773
 N632 N 0.36603 0.76168 0.09163
 C633 C 0.41660 0.77774 0.05201
 C634 C 0.43073 0.75828 0.05389
 C635 C 0.45158 0.75706 0.04049
 C636 C 0.45847 0.77504 0.02464
 C637 C 0.44429 0.79434 0.02240
 C638 C 0.42358 0.79574 0.03607
 H639 H 0.32609 0.74745 0.11051
 H640 H 0.29221 0.74981 0.13753
 H641 H 0.30471 0.82328 0.14388
 H642 H 0.33863 0.82096 0.11670
 H643 H 0.42592 0.74418 0.06607
 H644 H 0.46237 0.74206 0.04244
 H645 H 0.44945 0.80843 0.01034
 H646 H 0.41303 0.81091 0.03416
 C647 C 0.65493 0.23148 0.11660
 C648 C 0.66569 0.25197 0.12433
 C649 C 0.68375 0.25119 0.14042
 C650 C 0.69131 0.22991 0.14934
 C651 C 0.68060 0.20942 0.14158
 C652 C 0.66269 0.21019 0.12531
 C653 C 0.63552 0.23233 0.09982
 N654 N 0.62764 0.21282 0.08927
 N655 N 0.60996 0.21352 0.07449
 C656 C 0.59935 0.23374 0.06970
 N657 N 0.60726 0.25326 0.08022
 N658 N 0.62501 0.25258 0.09492
 C659 C 0.57925 0.23439 0.05379
 C660 C 0.56525 0.25402 0.05273
 C661 C 0.54575 0.25425 0.03844
 C662 C 0.54007 0.23502 0.02469
 C663 C 0.55413 0.21550 0.02548
 C664 C 0.57351 0.21517 0.03991
 H665 H 0.66018 0.26867 0.11795
 H666 H 0.69150 0.26731 0.14616
 H667 H 0.68614 0.19274 0.14792
 H668 H 0.65477 0.19408 0.11976
 H669 H 0.56912 0.26907 0.06324
 H670 H 0.53504 0.26943 0.03810
 H671 H 0.54986 0.20039 0.01519
 H672 H 0.58393 0.19980 0.04026
 C673 C -0.10964 0.65323 0.78175
 C674 C -0.12903 0.65405 0.79758
 C675 C -0.14441 0.67238 0.79665
 C676 C -0.14087 0.69059 0.77988
 C677 C -0.12121 0.68982 0.76420
 C678 C -0.10587 0.67138 0.76510
 C679 C -0.09369 0.63341 0.78257
 N680 N -0.07588 0.63142 0.76625
 N681 N -0.06188 0.61334 0.76686
 C682 C -0.06509 0.59650 0.78384
 N683 N -0.08283 0.59857 0.80020
 N684 N -0.09682 0.61660 0.79957
 C685 C -0.04990 0.57607 0.78437
 C686 C -0.05301 0.55922 0.80257
 C687 C -0.03925 0.53963 0.80284
 C688 C -0.02201 0.53645 0.78500
 C689 C -0.01876 0.55323 0.76683
 C690 C -0.03250 0.57291 0.76656
 H691 H -0.13250 0.64040 0.81068
 H692 H -0.15905 0.67202 0.80924
 H693 H -0.11757 0.70329 0.75099
 H694 H -0.09106 0.67134 0.75266
 H695 H -0.06618 0.56107 0.81660
 H696 H -0.04203 0.52691 0.81704
 H697 H -0.00574 0.55097 0.75272
 H698 H -0.02967 0.58549 0.75226
 C699 C -0.11964 0.34183 0.21457
 C700 C -0.11959 0.32503 0.23289
 C701 C -0.13596 0.30676 0.23362
 C702 C -0.15283 0.30490 0.21610
 C703 C -0.15268 0.32154 0.19762
 C704 C -0.13627 0.33975 0.19683
 C705 C -0.10283 0.36169 0.21422
 N706 N -0.10247 0.37758 0.19618
 N707 N -0.08788 0.39579 0.19619
 C708 C -0.07301 0.39893 0.21426
 N709 N -0.07326 0.38297 0.23225
 N710 N -0.08785 0.36473 0.23222
 C711 C -0.05742 0.41970 0.21469
 C712 C -0.04314 0.42377 0.23416
 C713 C -0.02931 0.44391 0.23502
 C714 C -0.02936 0.46031 0.21636
 C715 C -0.04335 0.45617 0.19678
 C716 C -0.05720 0.43607 0.19591
 H717 H -0.10703 0.32607 0.24684
 H718 H -0.13561 0.29438 0.24821
 H719 H -0.16522 0.32053 0.18367
 H720 H -0.13680 0.35233 0.18241
 H721 H -0.04291 0.41158 0.24896
 H722 H -0.01891 0.44692 0.25048
 H723 H -0.04362 0.46859 0.18218
 H724 H -0.06792 0.43350 0.18062
 C725 C 0.11820 0.33547 0.78346
 C726 C 0.10926 0.31267 0.78342
 C727 C 0.12433 0.29397 0.78343
 C728 C 0.14856 0.29776 0.78406
 C729 C 0.15746 0.32054 0.78443
 C730 C 0.14246 0.33920 0.78386
 C731 C 0.10245 0.35533 0.78295
 N732 N 0.11014 0.37610 0.77388
 N733 N 0.09611 0.39411 0.77352
 C734 C 0.07386 0.39216 0.78241
 N735 N 0.06616 0.37141 0.79156
 N736 N 0.08014 0.35331 0.79171
 C737 C 0.05854 0.41238 0.78233
 C738 C 0.04012 0.41416 0.79924
 C739 C 0.02641 0.43387 0.79976
 C740 C 0.03045 0.45185 0.78293
 C741 C 0.04866 0.44985 0.76583
 C742 C 0.06265 0.43042 0.76563
 H743 H 0.09064 0.30930 0.78302
 H744 H 0.11703 0.27656 0.78325
 H745 H 0.17607 0.32396 0.78470
 H746 H 0.14984 0.35658 0.78399
 H747 H 0.03672 0.40062 0.81248
 H748 H 0.01289 0.43520 0.81351
 H749 H 0.05211 0.46343 0.75263
 H750 H 0.07664 0.42946 0.75231
 C751 C 0.10845 0.66848 0.21926
 C752 C 0.11307 0.68056 0.24019
 C753 C 0.12830 0.69977 0.23957
 C754 C 0.13948 0.70711 0.21808
 C755 C 0.13480 0.69510 0.19716
 C756 C 0.11934 0.67609 0.19771
 C757 C 0.09267 0.64785 0.21992
 N758 N 0.08420 0.63919 0.19950
 N759 N 0.07038 0.62038 0.20000
 C760 C 0.06456 0.60935 0.22093
 N761 N 0.07300 0.61803 0.24136
 N762 N 0.08672 0.63692 0.24087
 C763 C 0.04971 0.58807 0.22135
 C764 C 0.04850 0.57341 0.24157
 C765 C 0.03512 0.55292 0.24160
 C766 C 0.02242 0.54692 0.22160
 C767 C 0.02340 0.56160 0.20148
 C768 C 0.03696 0.58195 0.20132
 H769 H 0.10490 0.67518 0.25707
 H770 H 0.13167 0.70856 0.25603
 H771 H 0.14296 0.70046 0.18028
 H772 H 0.11620 0.66716 0.18127
 H773 H 0.05817 0.57757 0.25723
 H774 H 0.03459 0.54176 0.25726
 H775 H 0.01387 0.55714 0.18580
 H776 H 0.03747 0.59288 0.18550
 C777 C 0.80007 -0.11825 0.66213
 C778 C 0.78188 -0.11877 0.67949
 C779 C 0.78165 -0.13484 0.69829
 C780 C 0.79960 -0.15085 0.70026
 C781 C 0.81800 -0.15009 0.68309
 C782 C 0.81823 -0.13399 0.66427
 C783 C 0.79975 -0.10176 0.64168
 N784 N 0.81704 -0.10141 0.62459
 N785 N 0.81634 -0.08708 0.60585
 C786 C 0.79831 -0.07249 0.60340
 N787 N 0.78110 -0.07274 0.62057
 N788 N 0.78181 -0.08705 0.63930
 C789 C 0.79705 -0.05715 0.58210
 C790 C 0.77779 -0.04288 0.57913
 C791 C 0.77610 -0.02920 0.55858
 C792 C 0.79370 -0.02935 0.54067
 C793 C 0.81305 -0.04339 0.54367
 C794 C 0.81475 -0.05711 0.56419
 H795 H 0.76760 -0.10691 0.67845
 H796 H 0.76712 -0.13483 0.71101
 H797 H 0.83225 -0.16195 0.68406
 H798 H 0.83256 -0.13405 0.65127
 H799 H 0.76379 -0.04252 0.59249
 H800 H 0.76082 -0.01880 0.55646
 H801 H 0.82682 -0.04378 0.53004
 H802 H 0.82983 -0.06787 0.56588
 C803 C 0.20962 -0.10696 0.33496
 C804 C 0.23059 -0.11193 0.32264
 C805 C 0.23072 -0.12716 0.30354
 C806 C 0.20994 -0.13800 0.29655
 C807 C 0.18895 -0.13289 0.30871
 C808 C 0.18877 -0.11741 0.32760
 C809 C 0.20961 -0.09147 0.35575
 N810 N 0.18944 -0.08252 0.36449
 N811 N 0.18938 -0.06915 0.38360
 C812 C 0.20947 -0.06429 0.39487
 N813 N 0.22964 -0.07318 0.38609
 N814 N 0.22972 -0.08643 0.36689
 C815 C 0.20931 -0.05019 0.41669
 C816 C 0.22820 -0.05074 0.43202
 C817 C 0.22773 -0.03819 0.45308
 C818 C 0.20857 -0.02455 0.45902
 C819 C 0.18981 -0.02366 0.44365
 C820 C 0.19011 -0.03647 0.42271
 H821 H 0.24694 -0.10410 0.32781
 H822 H 0.24719 -0.13084 0.29464
 H823 H 0.17262 -0.14079 0.30360
 H824 H 0.17233 -0.11398 0.33672
 H825 H 0.24319 -0.06119 0.42798
 H826 H 0.24235 -0.03905 0.46477
 H827 H 0.17483 -0.01329 0.44803
 H828 H 0.17534 -0.03562 0.41123
 C829 C 0.77768 0.11236 0.33252
 C830 C 0.75646 0.11822 0.32243
 C831 C 0.75594 0.13473 0.30403
 C832 C 0.77660 0.14595 0.29557
 C833 C 0.79783 0.13996 0.30552
 C834 C 0.79838 0.12325 0.32369
 C835 C 0.77822 0.09543 0.35251
 N836 N 0.79866 0.08625 0.35910
 N837 N 0.79928 0.07158 0.37754
 C838 C 0.77950 0.06556 0.39027
 N839 N 0.75903 0.07466 0.38362
 N840 N 0.75839 0.08924 0.36510
 C841 C 0.78040 0.05002 0.41139
 C842 C 0.76156 0.04846 0.42802
 C843 C 0.76295 0.03476 0.44861
 C844 C 0.78302 0.02209 0.45274
 C845 C 0.80168 0.02328 0.43600
 C846 C 0.80042 0.03715 0.41555
 H847 H 0.74021 0.11010 0.32878
 H848 H 0.73929 0.13907 0.29685
 H849 H 0.81406 0.14813 0.29923
 H850 H 0.81502 0.11917 0.33109
 H851 H 0.74593 0.05821 0.42541
 H852 H 0.74839 0.03407 0.46137
 H853 H 0.81740 0.01377 0.43901
 H854 H 0.81520 0.03791 0.40307
 C855 C 0.20635 0.10565 0.67276
 C856 C 0.18560 0.11547 0.68136
 C857 C 0.18591 0.13089 0.70032
 C858 C 0.20692 0.13655 0.71126
 C859 C 0.22755 0.12625 0.70304
 C860 C 0.22729 0.11109 0.68394
 C861 C 0.20643 0.09045 0.65177
 N862 N 0.22668 0.08631 0.63956
 N863 N 0.22681 0.07329 0.62022
 C864 C 0.20672 0.06375 0.61231
 N865 N 0.18647 0.06771 0.62462
 N866 N 0.18631 0.08086 0.64391
 C867 C 0.20691 0.04987 0.59037
 C868 C 0.18801 0.03504 0.58531
 C869 C 0.18822 0.02226 0.56435
 C870 C 0.20719 0.02431 0.54804
 C871 C 0.22600 0.03913 0.55298
 C872 C 0.22597 0.05164 0.57404
 H873 H 0.16918 0.11165 0.67312
 H874 H 0.16970 0.13841 0.70637
 H875 H 0.24408 0.13035 0.71090
 H876 H 0.24357 0.10375 0.67782
 H877 H 0.17311 0.03326 0.59757
 H878 H 0.17351 0.01094 0.56072
 H879 H 0.24078 0.04090 0.54055
 H880 H 0.24074 0.06298 0.57734
   
