data_POSCAR
  _audit_creation_date              2014-09-24
  _audit_creation_method            'ToBaCCo'
  _symmetry_space_group_name_H-M    'P1'
  _symmetry_Int_Tables_number       1
  _symmetry_cell_setting            triclinic
  loop_
  _symmetry_equiv_pos_as_xyz
 x,y,z
_cell_length_a 42.1216
_cell_length_b 44.9497
_cell_length_c 9.1780
_cell_angle_alpha 88.906500
_cell_angle_beta 87.988700
_cell_angle_gamma 89.862600
loop_
  _atom_site_label
  _atom_site_type_symbol
  _atom_site_fract_x
  _atom_site_fract_y
  _atom_site_fract_z
O1 O 0.21491 0.22114 0.39311
 O2 O 0.27755 0.27829 0.38041
 O3 O 0.21551 0.27875 0.39593
 O4 O 0.27668 0.22032 0.38011
 O5 O 0.27642 0.22166 0.13967
 O6 O 0.21489 0.28015 0.15544
 O7 O 0.27697 0.27927 0.13990
 O8 O 0.21457 0.22206 0.15253
 Cu9 Cu 0.24628 0.24955 0.41115
 Cu10 Cu 0.24556 0.25096 0.12308
 C11 C 0.20411 0.21186 0.27494
 C12 C 0.28809 0.28832 0.25775
 C13 C 0.20460 0.28925 0.27859
 C14 C 0.28708 0.21105 0.25749
 O15 O 0.71562 0.27451 0.17756
 O16 O 0.77654 0.21642 0.12911
 O17 O 0.71710 0.21699 0.21384
 O18 O 0.77588 0.27398 0.09676
 O19 O 0.78815 0.27995 0.32621
 O20 O 0.73081 0.22180 0.44228
 O21 O 0.79042 0.22211 0.35677
 O22 O 0.72841 0.27940 0.40717
 Cu23 Cu 0.74492 0.24505 0.13127
 Cu24 Cu 0.76083 0.25133 0.40604
 C25 C 0.71142 0.28666 0.30061
 C26 C 0.79389 0.20940 0.23463
 C27 C 0.71409 0.20957 0.34794
 C28 C 0.79200 0.28676 0.19174
 O29 O 0.77805 0.78119 0.82229
 O30 O 0.71436 0.72515 0.84394
 O31 O 0.77558 0.72429 0.88153
 O32 O 0.71714 0.78194 0.78385
 O33 O 0.72473 0.77152 0.55097
 O34 O 0.78468 0.71562 0.64789
 O35 O 0.72356 0.71488 0.61190
 O36 O 0.78603 0.77221 0.58808
 Cu37 Cu 0.74543 0.75408 0.85638
 Cu38 Cu 0.75559 0.74261 0.57624
 C39 C 0.79289 0.78624 0.70150
 C40 C 0.70809 0.71050 0.73170
 C41 C 0.79045 0.71041 0.78093
 C42 C 0.71075 0.78628 0.65083
 O43 O 0.28151 0.71898 0.56479
 O44 O 0.21904 0.77655 0.54107
 O45 O 0.28126 0.77620 0.52163
 O46 O 0.21954 0.71920 0.57219
 O47 O 0.22042 0.72397 0.81099
 O48 O 0.28177 0.78234 0.75973
 O49 O 0.21982 0.78167 0.77969
 O50 O 0.28255 0.72509 0.80275
 Cu51 Cu 0.25029 0.74720 0.52629
 Cu52 Cu 0.25118 0.75383 0.81208
 C53 C 0.29287 0.71252 0.68801
 C54 C 0.20860 0.78868 0.65716
 C55 C 0.29221 0.78885 0.63141
 C56 C 0.20928 0.71190 0.69932
 C57 C 1.02886 0.05930 0.05809
 C58 C 1.00010 0.07389 0.08881
 C59 C 0.97085 0.05943 0.08010
 C60 C 0.97019 0.02929 0.03796
 C61 C 0.99917 0.01392 0.00950
 C62 C 1.02858 0.02900 0.01937
 C63 C 1.05697 0.01322 -0.00698
 C64 C 1.05659 -0.01667 -0.04287
 C65 C 1.02779 -0.03215 -0.05298
 C66 C 0.99878 -0.01664 -0.02811
 C67 C 0.94139 0.01394 0.02597
 C68 C 0.94100 -0.01579 -0.01365
 C69 C 0.96940 -0.03167 -0.03962
 C70 C 0.96922 -0.06204 -0.07848
 C71 C 0.99814 -0.07693 -0.10316
 C72 C 1.02732 -0.06261 -0.08894
 H73 H 1.07992 0.02367 0.00144
 H74 H 1.07926 -0.02738 -0.06379
 H75 H 0.91875 0.02467 0.04725
 H76 H 0.91804 -0.02609 -0.02380
 H77 H 1.00044 0.09734 0.11443
 H78 H 0.99795 -0.10050 -0.12598
 C79 C 0.53197 0.55759 0.52591
 C80 C 0.50320 0.57325 0.53710
 C81 C 0.47392 0.55893 0.52601
 C82 C 0.47318 0.52774 0.50817
 C83 C 0.50205 0.51151 0.49585
 C84 C 0.53156 0.52651 0.50294
 C85 C 0.55983 0.50992 0.48872
 C86 C 0.55919 0.47946 0.46452
 C87 C 0.53026 0.46410 0.45762
 C88 C 0.50140 0.48022 0.47517
 C89 C 0.44424 0.51230 0.50407
 C90 C 0.44360 0.48169 0.48585
 C91 C 0.47186 0.46519 0.47098
 C92 C 0.47133 0.43415 0.44894
 C93 C 0.49996 0.41875 0.42737
 C94 C 0.52935 0.43319 0.43074
 H95 H 0.58286 0.52025 0.49584
 H96 H 0.58177 0.46815 0.45136
 H97 H 0.42165 0.52362 0.51639
 H98 H 0.42057 0.47122 0.48150
 H99 H 0.50369 0.59724 0.54685
 H100 H 0.49940 0.39488 0.41285
 C101 C -0.03147 0.44464 0.12130
 C102 C -0.00266 0.42906 0.12166
 C103 C 0.02649 0.44363 0.09917
 C104 C 0.02701 0.47486 0.07682
 C105 C -0.00202 0.49092 0.07331
 C106 C -0.03136 0.47576 0.09504
 C107 C -0.05983 0.49196 0.08545
 C108 C -0.05953 0.52238 0.05388
 C109 C -0.03075 0.53795 0.03382
 C110 C -0.00171 0.52217 0.04613
 C111 C 0.05579 0.49053 0.05980
 C112 C 0.05612 0.52120 0.03669
 C113 C 0.02766 0.53747 0.02857
 C114 C 0.02782 0.56847 -0.00090
 C115 C -0.00099 0.58344 -0.01878
 C116 C -0.03016 0.56866 -0.00300
 H117 H -0.08270 0.48115 0.09861
 H118 H -0.08220 0.53347 0.04448
 H119 H 0.07848 0.47930 0.06510
 H120 H 0.07902 0.53189 0.02234
 H121 H -0.00297 0.40514 0.13947
 H122 H -0.00081 0.60719 -0.04198
 C123 C 0.52456 1.06440 0.44074
 C124 C 0.49489 1.07813 0.43263
 C125 C 0.46696 1.06355 0.48015
 C126 C 0.46860 1.03383 0.53309
 C127 C 0.49854 1.01935 0.53976
 C128 C 0.52669 1.03477 0.49476
 C129 C 0.55598 1.01981 0.50013
 C130 C 0.55769 0.99041 0.54955
 C131 C 0.53012 0.97457 0.59316
 C132 C 0.50023 0.98913 0.58775
 C133 C 0.44098 1.01780 0.57412
 C134 C 0.44261 0.98814 0.61920
 C135 C 0.47195 0.97330 0.62630
 C136 C 0.47368 0.94275 0.66519
 C137 C 0.50332 0.92872 0.66970
 C138 C 0.53152 0.94422 0.63637
 H139 H 0.57791 1.03048 0.46380
 H140 H 0.58087 0.97998 0.54907
 H141 H 0.41764 1.02773 0.56801
 H142 H 0.42046 0.97687 0.64597
 H143 H 0.49369 1.10097 0.39281
 H144 H 0.50448 0.90547 0.70311
 C145 C 1.17888 0.18933 0.28178
 C146 C 1.16881 0.17520 0.15775
 C147 C 1.14230 0.15395 0.16370
 N148 N 1.13571 0.13807 0.04423
 N149 N 1.11126 0.11931 0.04698
 C150 C 1.09240 0.11584 0.16923
 N151 N 1.09895 0.13176 0.28858
 N152 N 1.12350 0.15040 0.28607
 C153 C 1.06452 0.09624 0.17227
 C154 C 1.05863 0.07676 0.06007
 H155 H 1.18065 0.17984 0.05312
 H156 H 1.04802 0.09723 0.26534
 H157 H 1.16803 0.18369 0.38741
 H158 H 1.07607 0.07431 -0.02843
 C159 C 0.68210 0.68868 0.74152
 C160 C 0.67507 0.67049 0.62564
 C161 C 0.64736 0.65057 0.63056
 N162 N 0.64292 0.63162 0.51977
 N163 N 0.61744 0.61409 0.52053
 C164 C 0.59538 0.61496 0.63194
 N165 N 0.59981 0.63391 0.74270
 N166 N 0.62535 0.65135 0.74222
 C167 C 0.56656 0.59654 0.63220
 C168 C 0.56203 0.57465 0.52936
 H169 H 0.69005 0.67113 0.52724
 H170 H 0.54836 0.60022 0.71635
 H171 H 0.66778 0.68735 0.84178
 H172 H 0.58088 0.56988 0.44995
 C173 C -0.18571 0.30818 0.14643
 C174 C -0.16917 0.32500 0.24510
 C175 C -0.14395 0.34596 0.19793
 N176 N -0.13397 0.36673 0.29131
 N177 N -0.11027 0.38511 0.25238
 C178 C -0.09548 0.38320 0.11901
 N179 N -0.10536 0.36234 0.02582
 N180 N -0.12927 0.34414 0.06422
 C181 C -0.06805 0.40209 0.07819
 C182 C -0.06116 0.42785 0.15293
 H183 H -0.17502 0.32308 0.36082
 H184 H -0.05268 0.39552 -0.01280
 H185 H -0.18139 0.31199 0.03046
 H186 H -0.07781 0.43600 0.23554
 C187 C 0.31799 0.81051 0.60720
 C188 C 0.32977 0.82758 0.71829
 C189 C 0.35796 0.84652 0.69328
 N190 N 0.36550 0.86724 0.79203
 N191 N 0.39132 0.88410 0.77080
 C192 C 0.41067 0.88063 0.65066
 N193 N 0.40326 0.85976 0.55278
 N194 N 0.37735 0.84309 0.57340
 C195 C 0.43949 0.89861 0.62552
 C196 C 0.44493 0.92474 0.69968
 H197 H 0.31823 0.82695 0.82565
 H198 H 0.45635 0.89184 0.54050
 H199 H 0.32854 0.81255 0.49808
 H200 H 0.42713 0.93299 0.77679
 C201 C -0.18637 0.68964 -0.18214
 C202 C -0.16742 0.67549 -0.28793
 C203 C -0.14087 0.65573 -0.25142
 N204 N -0.11928 0.64817 -0.35747
 N205 N -0.09454 0.63097 -0.32683
 C206 C -0.09061 0.62043 -0.18922
 N207 N -0.11233 0.62777 -0.08290
 N208 N -0.13700 0.64519 -0.11340
 C209 C -0.06252 0.60230 -0.15773
 C210 C -0.05945 0.58597 -0.02842
 H211 H -0.17076 0.68041 -0.40244
 H212 H -0.04368 0.60126 -0.24103
 H213 H -0.18217 0.68541 -0.06777
 H214 H -0.07897 0.58495 0.05149
 C215 C 0.31071 1.18931 0.25057
 C216 C 0.32283 1.17591 0.37538
 C217 C 0.34950 1.15477 0.36878
 N218 N 0.35816 1.14013 0.49177
 N219 N 0.38300 1.12173 0.48911
 C220 C 0.40019 1.11740 0.36333
 N221 N 0.39154 1.13205 0.24027
 N222 N 0.36660 1.15035 0.24278
 C223 C 0.42856 1.09829 0.36017
 C224 C 0.43667 1.08037 0.47885
 H225 H 0.31275 1.18121 0.48202
 H226 H 0.44367 1.09852 0.26217
 H227 H 0.32000 1.18286 0.14418
 H228 H 0.42060 1.07870 0.57333
 C229 C 1.18264 -0.18943 -0.35051
 C230 C 1.17216 -0.17386 -0.22789
 C231 C 1.14420 -0.15423 -0.22719
 N232 N 1.13726 -0.13759 -0.10848
 N233 N 1.11147 -0.12040 -0.10329
 C234 C 1.09152 -0.11934 -0.21636
 N235 N 1.09841 -0.13604 -0.33507
 N236 N 1.12431 -0.15314 -0.34057
 C237 C 1.06255 -0.10096 -0.21011
 C238 C 1.05687 -0.08051 -0.09989
 H239 H 1.18462 -0.17647 -0.12713
 H240 H 1.04557 -0.10320 -0.29512
 H241 H 1.17114 -0.18606 -0.45325
 H242 H 1.07473 -0.07722 -0.01975
 C243 C 0.68647 0.30928 0.32163
 C244 C 0.66478 0.31583 0.21429
 C245 C 0.63852 0.33707 0.23645
 N246 N 0.61586 0.33956 0.13553
 N247 N 0.59150 0.35818 0.15484
 C248 C 0.58898 0.37514 0.27535
 N249 N 0.61175 0.37281 0.37621
 N250 N 0.63607 0.35409 0.35716
 C251 C 0.56135 0.39483 0.29613
 C252 C 0.55857 0.41511 0.40896
 H253 H 0.66632 0.30418 0.11200
 H254 H 0.54248 0.39339 0.21933
 H255 H 0.68450 0.32025 0.42563
 H256 H 0.57805 0.41791 0.48127
 C257 C 0.81879 -0.19184 -0.30799
 C258 C 0.82640 -0.17451 -0.18979
 C259 C 0.85390 -0.15435 -0.19403
 N260 N 0.85896 -0.13663 -0.07913
 N261 N 0.88427 -0.11892 -0.07905
 C262 C 0.90554 -0.11834 -0.19376
 N263 N 0.90047 -0.13604 -0.30877
 N264 N 0.87510 -0.15369 -0.30907
 C265 C 0.93417 -0.09967 -0.19313
 C266 C 0.93934 -0.07934 -0.08354
 H267 H 0.81204 -0.17605 -0.08963
 H268 H 0.95168 -0.10194 -0.28152
 H269 H 0.83254 -0.18974 -0.40959
 H270 H 0.92114 -0.07609 0.00088
 C271 C 0.31400 0.31016 0.24972
 C272 C 0.32546 0.32351 0.37309
 C273 C 0.35340 0.34311 0.36483
 N274 N 0.36113 0.35916 0.48216
 N275 N 0.38687 0.37639 0.47701
 C276 C 0.40592 0.37803 0.35457
 N277 N 0.39827 0.36188 0.23759
 N278 N 0.37244 0.34481 0.24242
 C279 C 0.43492 0.39618 0.34825
 C280 C 0.44132 0.41700 0.45375
 H281 H 0.31383 0.31935 0.47861
 H282 H 0.45152 0.39346 0.25656
 H283 H 0.32469 0.31551 0.14338
 H284 H 0.42381 0.42124 0.54011
 C285 C 0.18510 0.69087 -0.28711
 C286 C 0.17227 0.68056 -0.15347
 C287 C 0.14454 0.66064 -0.14617
 N288 N 0.13624 0.64596 -0.02000
 N289 N 0.11080 0.62834 -0.01229
 C290 C 0.09260 0.62496 -0.13022
 N291 N 0.10077 0.63980 -0.25589
 N292 N 0.12632 0.65721 -0.26390
 C293 C 0.06390 0.60639 -0.12287
 C294 C 0.05761 0.58596 -0.00961
 H295 H 0.18257 0.68720 -0.05262
 H296 H 0.04749 0.60841 -0.21089
 H297 H 0.17559 0.68250 -0.38654
 H298 H 0.07507 0.58223 0.07267
 C299 C 0.69099 1.18665 0.39618
 C300 C 0.67102 1.17317 0.29928
 C301 C 0.64700 1.15101 0.34688
 N302 N 0.62642 1.14065 0.24955
 N303 N 0.60407 1.12106 0.29105
 C304 C 0.60152 1.11100 0.43146
 N305 N 0.62228 1.12117 0.52867
 N306 N 0.64460 1.14084 0.48722
 C307 C 0.57632 1.09001 0.47933
 C308 C 0.55234 1.08191 0.38730
 H309 H 0.67243 1.17955 0.18482
 H310 H 0.57573 1.08178 0.59112
 H311 H 0.68936 1.18063 0.51104
 H312 H 0.55139 1.09209 0.27962
 C313 C 0.17926 0.31172 0.28797
 C314 C 0.16820 0.32678 0.16575
 C315 C 0.14102 0.34736 0.17596
 N316 N 0.13379 0.36493 0.05988
 N317 N 0.10878 0.38312 0.06684
 C318 C 0.08996 0.38426 0.18991
 N319 N 0.09711 0.36660 0.30570
 N320 N 0.12222 0.34855 0.29907
 C321 C 0.06169 0.40347 0.19804
 C322 C 0.05590 0.42549 0.09338
 H323 H 0.17964 0.32336 0.05985
 H324 H 0.04514 0.40051 0.29021
 H325 H 0.16880 0.31629 0.39469
 H326 H 0.07343 0.42987 0.00651
 C327 C 0.68631 0.80801 0.61061
 C328 C 0.67428 0.82893 0.70818
 C329 C 0.64735 0.84835 0.67302
 N330 N 0.64025 0.87214 0.75705
 N331 N 0.61514 0.88919 0.72976
 C332 C 0.59606 0.88290 0.61812
 N333 N 0.60309 0.85906 0.53448
 N334 N 0.62835 0.84217 0.56098
 C335 C 0.56726 0.90043 0.59174
 C336 C 0.56206 0.92831 0.65204
 H337 H 0.68472 0.83101 0.81370
 H338 H 0.54957 0.89116 0.52281
 H339 H 0.67740 0.80735 0.50142
 H340 H 0.58074 0.93882 0.71060
 C341 C 0.81821 0.18625 0.21303
 C342 C 0.83954 0.17861 0.32020
 C343 C 0.86468 0.15627 0.29646
 N344 N 0.88712 0.15222 0.39740
 N345 N 0.91052 0.13263 0.37608
 C346 C 0.91223 0.11622 0.25349
 N347 N 0.88965 0.12011 0.15275
 N348 N 0.86631 0.13978 0.17385
 C349 C 0.93909 0.09578 0.22925
 C350 C 0.94153 0.07691 0.11048
 H351 H 0.83847 0.18999 0.42325
 H352 H 0.95800 0.09601 0.30627
 H353 H 0.81971 0.17538 0.10865
 H354 H 0.92197 0.07530 0.03760
 C355 C 0.31883 0.69081 0.69987
 C356 C 0.33035 0.67453 0.58158
 C357 C 0.35818 0.65486 0.59247
 N358 N 0.36604 0.63621 0.48238
 N359 N 0.39152 0.61870 0.48999
 C360 C 0.41021 0.61934 0.60760
 N361 N 0.40246 0.63811 0.71721
 N362 N 0.37688 0.65549 0.71001
 C363 C 0.43876 0.60057 0.61640
 C364 C 0.44467 0.57728 0.52123
 H365 H 0.31880 0.67632 0.47814
 H366 H 0.45516 0.60472 0.70200
 H367 H 0.32958 0.68802 0.80480
 H368 H 0.42719 0.57204 0.44191
   
