data_POSCAR
  _audit_creation_date              2014-09-24
  _audit_creation_method            'ToBaCCo'
  _symmetry_space_group_name_H-M    'P1'
  _symmetry_Int_Tables_number       1
  _symmetry_cell_setting            triclinic
  loop_
  _symmetry_equiv_pos_as_xyz
 x,y,z
_cell_length_a 48.6230
_cell_length_b 47.8192
_cell_length_c 48.4478
_cell_angle_alpha 90.075200
_cell_angle_beta 89.840400
_cell_angle_gamma 89.978300
loop_
  _atom_site_label
  _atom_site_type_symbol
  _atom_site_fract_x
  _atom_site_fract_y
  _atom_site_fract_z
C1 C 0.60366 0.64411 0.62775
 N2 N 0.60363 0.62432 0.64781
 C3 C 0.62349 0.60438 0.64817
 N4 N 0.64339 0.60423 0.62846
 C5 C 0.64343 0.62401 0.60841
 N6 N 0.62356 0.64395 0.60806
 C7 C 0.89523 0.35364 0.12599
 N8 N 0.87545 0.35358 0.10627
 C9 C 0.85554 0.37347 0.10649
 N10 N 0.85540 0.39342 0.12643
 C11 C 0.87517 0.39350 0.14615
 N12 N 0.89508 0.37360 0.14592
 C13 C 0.39457 0.14302 -0.12440
 N14 N 0.37466 0.14267 -0.10472
 C15 C 0.35478 0.12277 -0.10537
 N16 N 0.35480 0.10322 -0.12571
 C17 C 0.37472 0.10357 -0.14538
 N18 N 0.39459 0.12348 -0.14473
 C19 C 0.10263 0.85457 0.37611
 N20 N 0.10266 0.87435 0.35604
 C21 C 0.12258 0.89422 0.35557
 N22 N 0.14247 0.89430 0.37516
 C23 C 0.14244 0.87453 0.39523
 N24 N 0.12252 0.85466 0.39570
 N25 N 0.09205 0.16810 0.11334
 N26 N 0.08156 0.15712 0.13586
 C27 C 0.05928 0.17203 0.14347
 C28 C 0.05559 0.19359 0.12473
 C29 C 0.07686 0.19036 0.10588
 H30 H 0.04683 0.16763 0.16144
 H31 H 0.08094 0.20307 0.08791
 Cu32 Cu 0.09802 0.12443 0.15309
 Cu33 Cu 0.12456 0.15274 0.09531
 Cu34 Cu 0.15359 0.09369 0.12472
 N35 N 0.11421 0.09087 0.16892
 N36 N 0.13592 0.07900 0.15776
 C37 C 0.14286 0.05637 0.17268
 C38 C 0.12448 0.05380 0.19446
 C39 C 0.10656 0.07613 0.19133
 H40 H 0.15991 0.04271 0.16784
 H41 H 0.08935 0.08142 0.20449
 N42 N 0.16850 0.11165 0.09129
 N43 N 0.15748 0.13415 0.08013
 C44 C 0.17233 0.14143 0.05776
 C45 C 0.19379 0.12260 0.05461
 C46 C 0.19063 0.10402 0.07630
 H47 H 0.16773 0.15905 0.04463
 H48 H 0.20366 0.08637 0.08104
 H49 H 0.11860 0.11216 0.10877
 H50 H 0.14154 0.13480 0.13010
 N51 N 0.40967 0.83422 0.60823
 N52 N 0.42345 0.84865 0.62667
 C53 C 0.44563 0.83389 0.63457
 C54 C 0.44589 0.80876 0.62023
 C55 C 0.42266 0.80979 0.60369
 H56 H 0.46053 0.84111 0.64947
 H57 H 0.41569 0.79403 0.58933
 Cu58 Cu 0.41115 0.88525 0.63879
 Cu59 Cu 0.37660 0.84871 0.59067
 Cu60 Cu 0.35432 0.91418 0.61220
 N61 N 0.39206 0.91554 0.65749
 N62 N 0.36979 0.92682 0.64703
 C63 C 0.36121 0.94766 0.66363
 C64 C 0.37903 0.94953 0.68588
 C65 C 0.39838 0.92870 0.68120
 H66 H 0.34349 0.96064 0.65950
 H67 H 0.41578 0.92339 0.69400
 N68 N 0.33572 0.89247 0.58319
 N69 N 0.34384 0.86736 0.57533
 C70 C 0.32690 0.85808 0.55537
 C71 C 0.30706 0.87828 0.55044
 C72 C 0.31335 0.89977 0.56857
 H73 H 0.32893 0.83809 0.54517
 H74 H 0.30263 0.91944 0.57087
 H75 H 0.38593 0.89005 0.59510
 H76 H 0.36490 0.87434 0.62332
 N77 N 0.90572 0.66932 0.38930
 N78 N 0.91617 0.65831 0.36674
 C79 C 0.93846 0.67317 0.35914
 C80 C 0.94220 0.69473 0.37792
 C81 C 0.92094 0.69156 0.39678
 H82 H 0.95090 0.66872 0.34115
 H83 H 0.91689 0.70428 0.41479
 Cu84 Cu 0.89967 0.62563 0.34947
 Cu85 Cu 0.87323 0.65402 0.40734
 Cu86 Cu 0.84413 0.59499 0.37788
 N87 N 0.88344 0.59208 0.33361
 N88 N 0.86174 0.58024 0.34479
 C89 C 0.85477 0.55762 0.32983
 C90 C 0.87311 0.55500 0.30802
 C91 C 0.89105 0.57731 0.31117
 H92 H 0.83771 0.54398 0.33468
 H93 H 0.90824 0.58256 0.29799
 N94 N 0.82928 0.61300 0.41136
 N95 N 0.84033 0.63550 0.42254
 C96 C 0.82552 0.64281 0.44494
 C97 C 0.80407 0.62401 0.44810
 C98 C 0.80718 0.60540 0.42637
 H99 H 0.83015 0.66044 0.45809
 H100 H 0.79413 0.58776 0.42164
 H101 H 0.87915 0.61343 0.39381
 H102 H 0.85618 0.63607 0.37254
 N103 N 0.59270 0.32923 -0.11093
 N104 N 0.58208 0.34050 -0.13320
 C105 C 0.55968 0.32578 -0.14066
 C106 C 0.55605 0.30404 -0.12209
 C107 C 0.57748 0.30697 -0.10349
 H108 H 0.54711 0.33043 -0.15842
 H109 H 0.58166 0.29404 -0.08572
 Cu110 Cu 0.59858 0.37327 -0.15031
 Cu111 Cu 0.62541 0.34423 -0.09319
 Cu112 Cu 0.65456 0.40335 -0.12247
 N113 N 0.61484 0.40684 -0.16610
 N114 N 0.63673 0.41844 -0.15515
 C115 C 0.64370 0.44113 -0.17000
 C116 C 0.62516 0.44403 -0.19149
 C117 C 0.60710 0.42182 -0.18828
 H118 H 0.66090 0.45461 -0.16529
 H119 H 0.58975 0.41678 -0.20124
 N120 N 0.66960 0.38501 -0.08938
 N121 N 0.65853 0.36249 -0.07826
 C122 C 0.67345 0.35497 -0.05610
 C123 C 0.69500 0.37366 -0.05303
 C124 C 0.69183 0.39242 -0.07456
 H125 H 0.66882 0.33730 -0.04303
 H126 H 0.70490 0.41005 -0.07928
 H127 H 0.61962 0.38499 -0.10618
 H128 H 0.64223 0.36239 -0.12804
 C129 C 0.01499 0.25914 0.10742
 C130 C -0.00765 0.25659 0.12511
 C131 C -0.00968 0.23348 0.14266
 C132 C 0.01085 0.21299 0.14256
 C133 C -0.08485 0.33373 0.12577
 C134 C 0.03554 0.23868 0.10726
 C135 C -0.02877 0.27769 0.12527
 C136 C -0.04646 0.29536 0.12542
 C137 C -0.06716 0.31605 0.12560
 C138 C 0.03375 0.21532 0.12485
 H139 H 0.01680 0.27699 0.09378
 H140 H -0.02715 0.23127 0.15642
 H141 H 0.00856 0.19529 0.15623
 H142 H 0.05288 0.24139 0.09350
 C143 C 0.50670 0.76507 0.64387
 C144 C 0.50665 0.74345 0.62441
 C145 C 0.48662 0.74298 0.60374
 C146 C 0.46678 0.76410 0.60245
 C147 C 0.58269 0.66522 0.62734
 C148 C 0.48689 0.78624 0.64262
 C149 C 0.52731 0.72191 0.62544
 C150 C 0.54469 0.70396 0.62617
 C151 C 0.56515 0.68303 0.62687
 C152 C 0.46671 0.78608 0.62183
 H153 H 0.52210 0.76563 0.65999
 H154 H 0.48642 0.72635 0.58853
 H155 H 0.45177 0.76327 0.58605
 H156 H 0.48744 0.80259 0.65804
 C157 C 1.00747 0.73449 0.35997
 C158 C 1.00551 0.75760 0.37759
 C159 C 0.98292 0.76019 0.39534
 C160 C 0.96235 0.73976 0.39550
 C161 C 1.08272 0.83467 0.37654
 C162 C 0.98693 0.71404 0.36006
 C163 C 1.02664 0.77868 0.37739
 C164 C 1.04433 0.79633 0.37717
 C165 C 1.06504 0.81700 0.37686
 C166 C 0.96408 0.71641 0.37783
 H167 H 1.02490 0.73225 0.34615
 H168 H 0.98117 0.77803 0.40904
 H169 H 0.94505 0.74250 0.40931
 H170 H 0.98916 0.69634 0.34633
 C171 C 0.49059 0.26456 -0.13968
 C172 C 0.49267 0.24125 -0.12241
 C173 C 0.51539 0.23844 -0.10498
 C174 C 0.53598 0.25885 -0.10483
 C175 C 0.41556 0.16410 -0.12378
 C176 C 0.51115 0.28500 -0.13957
 C177 C 0.47155 0.22016 -0.12265
 C178 C 0.45388 0.20250 -0.12293
 C179 C 0.43320 0.18179 -0.12334
 C180 C 0.53414 0.28240 -0.12215
 H181 H 0.47306 0.26697 -0.15323
 H182 H 0.51723 0.22044 -0.09156
 H183 H 0.55338 0.25594 -0.09128
 H184 H 0.50882 0.30285 -0.15304
 C185 C 0.10110 0.00891 0.25477
 C186 C 0.12345 -0.00923 0.25778
 C187 C 0.14613 -0.00684 0.24011
 C188 C 0.14648 0.01361 0.21951
 C189 C 0.12265 -0.08601 0.33547
 C190 C 0.10139 0.02939 0.23420
 C191 C 0.12316 -0.03026 0.27901
 C192 C 0.12295 -0.04785 0.29680
 C193 C 0.12276 -0.06844 0.31765
 C194 C 0.12410 0.03202 0.21629
 H195 H 0.08341 0.00722 0.26832
 H196 H 0.16358 -0.02075 0.24229
 H197 H 0.16441 0.01505 0.20634
 H198 H 0.08370 0.04295 0.23230
 C199 C 0.60166 0.48951 -0.25121
 C200 C 0.62412 0.50751 -0.25437
 C201 C 0.64688 0.50485 -0.23698
 C202 C 0.64722 0.48426 -0.21651
 C203 C 0.62348 0.58457 -0.33177
 C204 C 0.60195 0.46889 -0.23077
 C205 C 0.62384 0.52864 -0.27549
 C206 C 0.62367 0.54631 -0.29321
 C207 C 0.62354 0.56696 -0.31399
 C208 C 0.62476 0.46598 -0.21315
 H209 H 0.58391 0.49141 -0.26454
 H210 H 0.66440 0.51865 -0.23927
 H211 H 0.66523 0.48262 -0.20356
 H212 H 0.58420 0.45544 -0.22875
 C213 C 0.35406 1.00631 0.73484
 C214 C 0.37632 1.00861 0.75292
 C215 C 0.39935 0.99146 0.74929
 C216 C 0.40020 0.97215 0.72762
 C217 C 0.37476 1.08298 0.83304
 C218 C 0.35485 0.98703 0.71313
 C219 C 0.37568 1.02878 0.77500
 C220 C 0.37526 1.04577 0.79339
 C221 C 0.37492 1.06579 0.81483
 C222 C 0.37799 0.96974 0.70918
 H223 H 0.33610 1.01948 0.73748
 H224 H 0.41674 0.99310 0.76315
 H225 H 0.41843 0.95940 0.72523
 H226 H 0.33726 0.98570 0.69959
 C227 C 0.85138 0.49431 0.26235
 C228 C 0.87405 0.49183 0.24468
 C229 C 0.89642 0.50996 0.24767
 C230 C 0.89614 0.53050 0.26824
 C231 C 0.87499 0.41458 0.16725
 C232 C 0.85106 0.51481 0.28295
 C233 C 0.87435 0.47071 0.22348
 C234 C 0.87457 0.45302 0.20574
 C235 C 0.87481 0.43229 0.18498
 C236 C 0.87345 0.53319 0.28616
 H237 H 0.83392 0.48041 0.26019
 H238 H 0.91410 0.50820 0.23411
 H239 H 0.91384 0.54404 0.27013
 H240 H 0.83313 0.51631 0.29613
 C241 C 0.25326 0.09909 0.00912
 C242 C 0.25658 0.12224 -0.00817
 C243 C 0.23939 0.14549 -0.00503
 C244 C 0.21896 0.14563 0.01534
 C245 C 0.33369 0.12246 -0.08458
 C246 C 0.23286 0.09917 0.02952
 C247 C 0.27765 0.12218 -0.02910
 C248 C 0.29531 0.12220 -0.04662
 C249 C 0.31600 0.12230 -0.06710
 C250 C 0.21543 0.12246 0.03291
 H251 H 0.26643 0.08095 0.00684
 H252 H 0.24181 0.16357 -0.01828
 H253 H 0.20617 0.16402 0.01739
 H254 H 0.23070 0.08086 0.04242
 C255 C 0.74469 0.60059 0.49367
 C256 C 0.74141 0.62376 0.51101
 C257 C 0.75860 0.64700 0.50787
 C258 C 0.77898 0.64709 0.48746
 C259 C 0.66446 0.62387 0.58758
 C260 C 0.76506 0.60063 0.47324
 C261 C 0.72039 0.62373 0.53198
 C262 C 0.70277 0.62374 0.54953
 C263 C 0.68212 0.62379 0.57006
 C264 C 0.78247 0.62390 0.46985
 H265 H 0.73153 0.58246 0.49596
 H266 H 0.75620 0.66508 0.52116
 H267 H 0.79177 0.66547 0.48542
 H268 H 0.76719 0.58230 0.46031
 C269 C 0.74059 0.35027 0.00618
 C270 C 0.75781 0.37347 0.00937
 C271 C 0.75453 0.39674 -0.00778
 C272 C 0.73413 0.39683 -0.02806
 C273 C 0.83462 0.37340 0.08565
 C274 C 0.72017 0.35031 -0.01408
 C275 C 0.77883 0.37341 0.03023
 C276 C 0.79643 0.37338 0.04770
 C277 C 0.81704 0.37338 0.06817
 C278 C 0.71667 0.37360 -0.03148
 H279 H 0.74298 0.33212 0.01932
 H280 H 0.76772 0.41484 -0.00545
 H281 H 0.73200 0.41522 -0.04083
 H282 H 0.70735 0.33196 -0.01616
 C283 C 0.24211 0.89671 0.51101
 C284 C 0.24178 0.87592 0.49068
 C285 C 0.26262 0.85576 0.48998
 C286 C 0.28377 0.85642 0.50946
 C287 C 0.16353 0.87462 0.41590
 C288 C 0.26324 0.89744 0.53051
 C289 C 0.22022 0.87542 0.47038
 C290 C 0.20226 0.87508 0.45329
 C291 C 0.18133 0.87479 0.43317
 C292 C 0.28440 0.87733 0.52995
 H293 H 0.22604 0.91241 0.51176
 H294 H 0.26261 0.83959 0.47429
 H295 H 0.29972 0.84071 0.50817
 H296 H 0.26282 0.91370 0.54603
   
