data_POSCAR
  _audit_creation_date              2014-09-24
  _audit_creation_method            'ToBaCCo'
  _symmetry_space_group_name_H-M    'P1'
  _symmetry_Int_Tables_number       1
  _symmetry_cell_setting            triclinic
  loop_
  _symmetry_equiv_pos_as_xyz
 x,y,z
_cell_length_a 36.0258
_cell_length_b 36.4590
_cell_length_c 32.5116
_cell_angle_alpha 90.398800
_cell_angle_beta 85.990000
_cell_angle_gamma 95.525700
loop_
  _atom_site_label
  _atom_site_type_symbol
  _atom_site_fract_x
  _atom_site_fract_y
  _atom_site_fract_z
Si1 Si 0.24909 0.24087 0.27886
 Si2 Si 0.74167 0.73630 0.26133
 Si3 Si 0.75963 0.24026 0.76609
 Si4 Si 0.24809 0.74066 0.77206
 C5 C 0.05300 0.06382 0.02317
 H6 H 0.06164 0.06606 -0.00933
 C7 C 0.07042 0.08757 0.05131
 H8 H 0.09257 0.10813 0.04042
 C9 C 0.01320 0.03460 0.07689
 H10 H -0.00936 0.01419 0.08665
 C11 C 0.02935 0.05834 0.10601
 H12 H 0.01950 0.05569 0.13819
 N13 N 0.02564 0.03738 0.03642
 C14 C 0.02970 -0.04495 -0.06143
 H15 H 0.00045 -0.04888 -0.06755
 C16 C 0.05547 -0.06530 -0.08330
 H17 H 0.04599 -0.08472 -0.10658
 C18 C 0.07764 -0.01493 -0.02348
 H19 H 0.08616 0.00394 0.00055
 C20 C 0.10439 -0.03430 -0.04501
 H21 H 0.13332 -0.02985 -0.03758
 Zn22 Zn 0.00426 0.00599 -0.00400
 N23 N 0.04118 -0.02005 -0.03250
 C24 C -0.00592 0.03894 -0.08125
 N25 N -0.01751 0.03639 -0.04054
 C26 C -0.04434 0.05691 -0.02388
 C27 C -0.06159 0.08030 -0.04865
 C28 C -0.02217 0.06237 -0.10712
 C29 C -0.02143 -0.05324 0.04825
 C30 C -0.04722 -0.08019 0.06692
 C31 C -0.09495 -0.05844 0.02726
 C32 C -0.06830 -0.03184 0.00946
 N33 N -0.03242 -0.02941 0.02055
 H34 H 0.01606 0.02304 -0.09369
 H35 H -0.05244 0.05488 0.00876
 H36 H -0.08296 0.09638 -0.03486
 H37 H -0.01296 0.06391 -0.13954
 H38 H 0.00745 -0.05119 0.05587
 H39 H -0.03792 -0.09898 0.08881
 H40 H -0.12349 -0.05954 0.01851
 H41 H -0.07633 -0.01337 -0.01343
 C42 C 0.09338 -0.05977 -0.07538
 C43 C 0.05865 0.08484 0.09328
 C44 C -0.08458 -0.08297 0.05653
 C45 C -0.05059 0.08316 -0.09085
 C46 C 0.05125 0.57607 0.50923
 H47 H 0.05901 0.57717 0.47647
 C48 C 0.06924 0.60108 0.53577
 H49 H 0.09107 0.62137 0.52350
 C50 C 0.01321 0.54845 0.56527
 H51 H -0.00881 0.52809 0.57662
 C52 C 0.02980 0.57353 0.59274
 H53 H 0.02084 0.57207 0.62524
 N54 N 0.02461 0.54972 0.52445
 C55 C 0.02673 0.46023 0.43441
 H56 H -0.00289 0.45427 0.43098
 C57 C 0.05223 0.43900 0.41340
 H58 H 0.04214 0.41691 0.39340
 C59 C 0.07593 0.49605 0.46495
 H60 H 0.08518 0.51753 0.48588
 C61 C 0.10238 0.47586 0.44411
 H62 H 0.13174 0.48234 0.44892
 Zn63 Zn 0.00239 0.51556 0.48707
 N64 N 0.03892 0.48848 0.45916
 C65 C -0.01738 0.53783 0.40800
 N66 N -0.02209 0.54261 0.44950
 C67 C -0.04474 0.56741 0.46604
 C68 C -0.06426 0.58824 0.44064
 C69 C -0.03678 0.55776 0.38144
 C70 C -0.01991 0.45831 0.54311
 C71 C -0.04446 0.43151 0.56383
 C72 C -0.09474 0.45173 0.52689
 C73 C -0.06928 0.47829 0.50708
 N74 N -0.03268 0.48117 0.51557
 H75 H 0.00106 0.51830 0.39539
 H76 H -0.04764 0.57094 0.49914
 H77 H -0.08166 0.60819 0.45460
 H78 H -0.03345 0.55272 0.34861
 H79 H 0.00947 0.46083 0.54875
 H80 H -0.03375 0.41330 0.58534
 H81 H -0.12381 0.44995 0.51994
 H82 H -0.07877 0.49628 0.48459
 C83 C 0.09061 0.44703 0.41786
 C84 C 0.05854 0.59977 0.57802
 C85 C -0.08240 0.42789 0.55566
 C86 C -0.06078 0.58332 0.39767
 C87 C 0.55247 0.06353 0.52011
 H88 H 0.55937 0.06629 0.48728
 C89 C 0.57068 0.08757 0.54748
 H90 H 0.59172 0.10879 0.53557
 C91 C 0.51606 0.03303 0.57550
 H92 H 0.49449 0.01202 0.58632
 C93 C 0.53319 0.05682 0.60389
 H94 H 0.52510 0.05346 0.63646
 N95 N 0.52629 0.03642 0.53450
 C96 C 0.52414 -0.05029 0.44065
 H97 H 0.49430 -0.05559 0.43821
 C98 C 0.54863 -0.07119 0.41751
 H99 H 0.53749 -0.09227 0.39689
 C100 C 0.57489 -0.01623 0.47039
 H101 H 0.58512 0.00467 0.49153
 C102 C 0.60035 -0.03622 0.44758
 H103 H 0.62996 -0.03029 0.45133
 Zn104 Zn 0.50254 0.00468 0.49571
 N105 N 0.53758 -0.02298 0.46591
 C106 C 0.48196 0.02944 0.41807
 N107 N 0.47928 0.03446 0.45963
 C108 C 0.45960 0.06122 0.47712
 C109 C 0.44120 0.08397 0.45268
 C110 C 0.46347 0.05120 0.39250
 C111 C 0.47770 -0.05458 0.54841
 C112 C 0.45180 -0.08046 0.56873
 C113 C 0.40249 -0.05403 0.53579
 C114 C 0.42930 -0.02857 0.51625
 N115 N 0.46607 -0.02914 0.52305
 H116 H 0.49796 0.00828 0.40464
 H117 H 0.45821 0.06485 0.51023
 H118 H 0.42627 0.10544 0.46739
 H119 H 0.46502 0.04585 0.35967
 H120 H 0.50718 -0.05472 0.55277
 H121 H 0.46157 -0.10067 0.58859
 H122 H 0.37331 -0.05288 0.53040
 H123 H 0.42067 -0.00845 0.49558
 C124 C 0.58732 -0.06389 0.42046
 C125 C 0.56114 0.08425 0.58997
 C126 C 0.41362 -0.08039 0.56249
 C127 C 0.44257 0.07889 0.40970
 C128 C 0.55199 0.54959 0.00375
 H129 H 0.56053 0.54968 -0.02882
 C130 C 0.57076 0.57409 0.03031
 H131 H 0.59394 0.59292 0.01811
 C132 C 0.51032 0.52611 0.05909
 H133 H 0.48623 0.50801 0.07009
 C134 C 0.52784 0.55054 0.08651
 H135 H 0.51753 0.55052 0.11862
 N136 N 0.52257 0.52601 0.01854
 C137 C 0.50979 0.44286 -0.07859
 H138 H 0.48002 0.44250 -0.08147
 C139 C 0.53081 0.42043 -0.10398
 H140 H 0.51708 0.40277 -0.12641
 C141 C 0.56371 0.46591 -0.04534
 H142 H 0.57635 0.48337 -0.02215
 C143 C 0.58573 0.44346 -0.06970
 H144 H 0.61537 0.44429 -0.06557
 Zn145 Zn 0.49540 0.49580 -0.01892
 N146 N 0.52657 0.46571 -0.05073
 C147 C 0.47811 0.52647 -0.09514
 N148 N 0.47275 0.52764 -0.05334
 C149 C 0.45142 0.55244 -0.03437
 C150 C 0.43364 0.57670 -0.05760
 C151 C 0.46048 0.54991 -0.11958
 C152 C 0.47057 0.43890 0.03613
 C153 C 0.44497 0.41427 0.05863
 C154 C 0.39489 0.44061 0.02703
 C155 C 0.42148 0.46486 0.00523
 N156 N 0.45850 0.46379 0.01042
 H157 H 0.49592 0.50734 -0.10978
 H158 H 0.44819 0.55327 -0.00105
 H159 H 0.41715 0.59644 -0.04173
 H160 H 0.46425 0.54763 -0.15279
 H161 H 0.50023 0.43832 0.03918
 H162 H 0.45516 0.39452 0.07876
 H163 H 0.36551 0.44216 0.02295
 H164 H 0.41247 0.48439 -0.01590
 C165 C 0.56932 0.42076 -0.09986
 C166 C 0.55837 0.57498 0.07215
 C167 C 0.40654 0.41497 0.05429
 C168 C 0.43769 0.57540 -0.10090
 C169 C 0.22158 -0.19635 -0.19294
 C170 C 0.19528 -0.17696 -0.17020
 C171 C 0.16222 -0.19613 -0.15217
 C172 C 0.15636 -0.23444 -0.15666
 C173 C 0.18282 -0.25355 -0.17907
 C174 C 0.21562 -0.23480 -0.19765
 C175 C 0.13551 -0.17669 -0.13017
 C176 C 0.14162 -0.13833 -0.12566
 C177 C 0.17502 -0.11925 -0.14308
 C178 C 0.20152 -0.13865 -0.16541
 C179 C 0.18137 -0.08102 -0.13786
 C180 C 0.15487 -0.06181 -0.11564
 C181 C 0.12140 -0.08040 -0.09866
 C182 C 0.11491 -0.11872 -0.10385
 H183 H 0.24642 -0.18110 -0.20698
 H184 H 0.13118 -0.24961 -0.14310
 H185 H 0.17713 -0.28308 -0.18265
 H186 H 0.11002 -0.19139 -0.11660
 H187 H 0.22699 -0.12395 -0.17902
 H188 H 0.20682 -0.06598 -0.15093
 H189 H 0.16027 -0.03225 -0.11216
 H190 H 0.08932 -0.13327 -0.09038
 C191 C 0.21955 0.30620 0.30931
 C192 C 0.19339 0.32641 0.33111
 C193 C 0.16207 0.30770 0.35322
 C194 C 0.15784 0.26907 0.35363
 C195 C 0.18420 0.24920 0.33204
 C196 C 0.21503 0.26755 0.30950
 C197 C 0.13546 0.32787 0.37436
 C198 C 0.13996 0.36653 0.37398
 C199 C 0.17164 0.38520 0.35243
 C200 C 0.19803 0.36504 0.33098
 C201 C 0.17643 0.42381 0.35272
 C202 C 0.15011 0.44379 0.37415
 C203 C 0.11835 0.42556 0.39528
 C204 C 0.11338 0.38686 0.39498
 H205 H 0.24321 0.32073 0.29209
 H206 H 0.13407 0.25423 0.37043
 H207 H 0.18011 0.21939 0.33232
 H208 H 0.11132 0.31350 0.39109
 H209 H 0.22217 0.37940 0.31422
 H210 H 0.20055 0.43855 0.33642
 H211 H 0.15431 0.47361 0.37381
 H212 H 0.08914 0.37263 0.41164
 C213 C 0.71149 -0.19974 0.29517
 C214 C 0.68562 -0.18053 0.31882
 C215 C 0.65395 -0.20009 0.33933
 C216 C 0.64886 -0.23859 0.33591
 C217 C 0.67502 -0.25750 0.31262
 C218 C 0.70655 -0.23830 0.29220
 C219 C 0.62802 -0.18088 0.36297
 C220 C 0.63361 -0.14238 0.36670
 C221 C 0.66551 -0.12293 0.34642
 C222 C 0.69115 -0.14208 0.32244
 C223 C 0.67136 -0.08457 0.35060
 C224 C 0.64596 -0.06558 0.37476
 C225 C 0.61407 -0.08450 0.39495
 C226 C 0.60798 -0.12298 0.39062
 H227 H 0.73546 -0.18447 0.27937
 H228 H 0.62474 -0.25408 0.35132
 H229 H 0.67049 -0.28722 0.31036
 H230 H 0.60367 -0.19588 0.37863
 H231 H 0.71555 -0.12710 0.30683
 H232 H 0.69563 -0.06925 0.33525
 H233 H 0.65100 -0.03590 0.37727
 H234 H 0.58365 -0.13785 0.40642
 C235 C 0.70445 0.28912 -0.21535
 C236 C 0.68231 0.31045 -0.18936
 C237 C 0.68532 0.30957 -0.14622
 C238 C 0.71005 0.28702 -0.12987
 C239 C 0.73170 0.26565 -0.15596
 C240 C 0.72889 0.26642 -0.19874
 C241 C 0.66383 0.33141 -0.12019
 C242 C 0.63906 0.35386 -0.13667
 C243 C 0.63556 0.35423 -0.17974
 C244 C 0.65736 0.33270 -0.20582
 C245 C 0.61024 0.37615 -0.19602
 C246 C 0.58861 0.39755 -0.16994
 C247 C 0.59220 0.39775 -0.12718
 C248 C 0.61759 0.37587 -0.11073
 H249 H 0.70277 0.29022 -0.24848
 H250 H 0.71287 0.28613 -0.09694
 H251 H 0.75117 0.24919 -0.14257
 H252 H 0.66638 0.33092 -0.08715
 H253 H 0.65486 0.33322 -0.23887
 H254 H 0.60714 0.37673 -0.22892
 H255 H 0.56936 0.41441 -0.18323
 H256 H 0.62017 0.37559 -0.07771
 C257 C -0.17723 0.20714 -0.20832
 C258 C -0.15972 0.18196 -0.18560
 C259 C -0.18164 0.15678 -0.15876
 C260 C -0.22065 0.15663 -0.15583
 C261 C -0.23779 0.18152 -0.17884
 C262 C -0.21622 0.20733 -0.20447
 C263 C -0.16428 0.13216 -0.13528
 C264 C -0.12528 0.13217 -0.13845
 C265 C -0.10335 0.15674 -0.16592
 C266 C -0.12070 0.18157 -0.18924
 C267 C -0.06438 0.15615 -0.16939
 C268 C -0.04725 0.13179 -0.14550
 C269 C -0.06877 0.10785 -0.11751
 C270 C -0.10784 0.10804 -0.11438
 H271 H -0.16051 0.22626 -0.22904
 H272 H -0.23789 0.13731 -0.13574
 H273 H -0.26798 0.18096 -0.17621
 H274 H -0.18111 0.11310 -0.11445
 H275 H -0.10387 0.20065 -0.21004
 H276 H -0.04713 0.17470 -0.19036
 H277 H -0.01708 0.13222 -0.14822
 H278 H -0.12466 0.08926 -0.09326
 C279 C -0.19810 0.69669 0.28101
 C280 C -0.17816 0.67566 0.30615
 C281 C -0.19402 0.66435 0.34558
 C282 C -0.22926 0.67472 0.35932
 C283 C -0.24857 0.69622 0.33435
 C284 C -0.23331 0.70714 0.29497
 C285 C -0.17427 0.64325 0.37079
 C286 C -0.13853 0.63388 0.35742
 C287 C -0.12245 0.64559 0.31823
 C288 C -0.14248 0.66615 0.29269
 C289 C -0.08644 0.63674 0.30537
 C290 C -0.06644 0.61664 0.33114
 C291 C -0.08217 0.60460 0.37013
 C292 C -0.11849 0.61323 0.38284
 H293 H -0.18585 0.70550 0.25088
 H294 H -0.24172 0.66652 0.38956
 H295 H -0.27535 0.70417 0.34614
 H296 H -0.18653 0.63449 0.40099
 H297 H -0.13018 0.67504 0.26256
 H298 H -0.07358 0.64568 0.27554
 H299 H -0.03835 0.61102 0.32070
 H300 H -0.13138 0.60366 0.41243
 C301 C 0.30876 0.19986 0.29740
 C302 C 0.32874 0.17867 0.32237
 C303 C 0.31444 0.16988 0.36309
 C304 C 0.28094 0.18316 0.37838
 C305 C 0.26162 0.20474 0.35353
 C306 C 0.27505 0.21283 0.31276
 C307 C 0.33392 0.14819 0.38794
 C308 C 0.36791 0.13569 0.37287
 C309 C 0.38265 0.14512 0.33249
 C310 C 0.36285 0.16633 0.30737
 C311 C 0.41702 0.13322 0.31796
 C312 C 0.43659 0.11208 0.34310
 C313 C 0.42199 0.10198 0.38316
 C314 C 0.38742 0.11395 0.39769
 H315 H 0.31975 0.20665 0.26623
 H316 H 0.26976 0.17700 0.40965
 H317 H 0.23616 0.21485 0.36648
 H318 H 0.32275 0.14125 0.41907
 H319 H 0.37403 0.17333 0.27626
 H320 H 0.42891 0.14045 0.28721
 H321 H 0.46342 0.10400 0.33122
 H322 H 0.37533 0.10598 0.42814
 C323 C 0.30677 0.70121 -0.21052
 C324 C 0.32582 0.67852 -0.18631
 C325 C 0.30902 0.66538 -0.14797
 C326 C 0.27383 0.67572 -0.13423
 C327 C 0.25534 0.69882 -0.15819
 C328 C 0.27138 0.71161 -0.19672
 C329 C 0.32770 0.64230 -0.12390
 C330 C 0.36330 0.63263 -0.13737
 C331 C 0.38043 0.64630 -0.17537
 C332 C 0.36149 0.66896 -0.19974
 C333 C 0.41629 0.63711 -0.18832
 C334 C 0.43497 0.61446 -0.16398
 C335 C 0.41805 0.60019 -0.12636
 C336 C 0.38205 0.60951 -0.11336
 H337 H 0.31985 0.71102 -0.23996
 H338 H 0.26065 0.66611 -0.10477
 H339 H 0.22854 0.70633 -0.14603
 H340 H 0.31465 0.63204 -0.09460
 H341 H 0.37456 0.67926 -0.22902
 H342 H 0.42997 0.64758 -0.21720
 H343 H 0.46291 0.60843 -0.17450
 H344 H 0.36829 0.59835 -0.08482
 C345 C -0.22164 -0.22302 0.19325
 C346 C -0.19443 -0.19719 0.17437
 C347 C -0.16766 -0.17789 0.19840
 C348 C -0.16858 -0.18479 0.24085
 C349 C -0.19577 -0.21050 0.25934
 C350 C -0.22235 -0.22973 0.23572
 C351 C -0.14057 -0.15191 0.17970
 C352 C -0.13992 -0.14488 0.13728
 C353 C -0.16666 -0.16417 0.11325
 C354 C -0.19370 -0.19025 0.13193
 C355 C -0.16601 -0.15693 0.07091
 C356 C -0.13927 -0.13068 0.05254
 C357 C -0.11260 -0.11123 0.07610
 C358 C -0.11306 -0.11864 0.11854
 H359 H -0.24234 -0.23755 0.17494
 H360 H -0.14834 -0.17024 0.25975
 H361 H -0.19613 -0.21535 0.29220
 H362 H -0.12009 -0.13710 0.19816
 H363 H -0.21422 -0.20501 0.11348
 H364 H -0.18621 -0.17153 0.05201
 H365 H -0.13921 -0.12583 0.01971
 H366 H -0.09295 -0.10348 0.13712
 C367 C -0.20785 0.28228 0.69702
 C368 C -0.18293 0.30970 0.67741
 C369 C -0.15680 0.33092 0.70055
 C370 C -0.15637 0.32457 0.74301
 C371 C -0.18146 0.29735 0.76228
 C372 C -0.20689 0.27574 0.73936
 C373 C -0.13176 0.35826 0.68098
 C374 C -0.13266 0.36482 0.63860
 C375 C -0.15902 0.34381 0.61556
 C376 C -0.18390 0.31633 0.63508
 C377 C -0.16009 0.35067 0.57332
 C378 C -0.13529 0.37808 0.55400
 C379 C -0.10884 0.39903 0.57649
 C380 C -0.10769 0.39218 0.61888
 H381 H -0.22820 0.26652 0.67936
 H382 H -0.13675 0.34072 0.76130
 H383 H -0.18091 0.29303 0.79515
 H384 H -0.11168 0.37448 0.69872
 H385 H -0.20404 0.30017 0.61736
 H386 H -0.18007 0.33481 0.55520
 H387 H -0.13642 0.38255 0.52124
 H388 H -0.08769 0.40849 0.63659
 C389 C 0.28009 -0.21893 0.70472
 C390 C 0.30700 -0.19351 0.68474
 C391 C 0.33637 -0.17634 0.70684
 C392 C 0.33818 -0.18479 0.74860
 C393 C 0.31123 -0.21006 0.76829
 C394 C 0.28215 -0.22753 0.74650
 C395 C 0.36329 -0.15089 0.68691
 C396 C 0.36115 -0.14229 0.64520
 C397 C 0.33169 -0.15938 0.62316
 C398 C 0.30487 -0.18492 0.64304
 C399 C 0.32949 -0.15056 0.58158
 C400 C 0.35613 -0.12495 0.56196
 C401 C 0.38555 -0.10775 0.58349
 C402 C 0.38790 -0.11669 0.62519
 H403 H 0.25747 -0.23159 0.68762
 H404 H 0.36037 -0.17177 0.76608
 H405 H 0.31311 -0.21587 0.80067
 H406 H 0.38581 -0.13773 0.70388
 H407 H 0.28230 -0.19803 0.62609
 H408 H 0.30716 -0.16346 0.56421
 H409 H 0.35396 -0.11888 0.52971
 H410 H 0.41021 -0.10326 0.64223
 C411 C 0.27918 0.28124 0.20788
 C412 C 0.30500 0.30625 0.18573
 C413 C 0.33563 0.32394 0.20547
 C414 C 0.33971 0.31645 0.24709
 C415 C 0.31376 0.29159 0.26891
 C416 C 0.28361 0.27368 0.24938
 C417 C 0.36158 0.34887 0.18335
 C418 C 0.35725 0.35640 0.14177
 C419 C 0.32649 0.33888 0.12215
 C420 C 0.30060 0.31389 0.14422
 C421 C 0.32214 0.34666 0.08069
 C422 C 0.34804 0.37148 0.05878
 C423 C 0.37885 0.38894 0.07785
 C424 C 0.38320 0.38124 0.11949
 H425 H 0.25555 0.26794 0.19286
 H426 H 0.36289 0.32986 0.26278
 H427 H 0.31723 0.28631 0.30109
 H428 H 0.38510 0.36237 0.19847
 H429 H 0.27706 0.30040 0.12912
 H430 H 0.29876 0.33344 0.06516
 H431 H 0.34429 0.37661 0.02664
 H432 H 0.40657 0.39492 0.13468
 C433 C 0.18631 0.20786 0.23852
 C434 C 0.16863 0.18398 0.21034
 C435 C 0.19025 0.16229 0.18366
 C436 C 0.22909 0.16445 0.18616
 C437 C 0.24631 0.18772 0.21497
 C438 C 0.22511 0.20947 0.24140
 C439 C 0.17272 0.13887 0.15494
 C440 C 0.13376 0.13633 0.15314
 C441 C 0.11205 0.15736 0.18053
 C442 C 0.12966 0.18135 0.20863
 C443 C 0.07301 0.15390 0.17945
 C444 C 0.05562 0.12993 0.15140
 C445 C 0.07701 0.10954 0.12355
 C446 C 0.11610 0.11288 0.12453
 H447 H 0.16967 0.22519 0.25779
 H448 H 0.24613 0.14808 0.16593
 H449 H 0.27633 0.18902 0.21617
 H450 H 0.18935 0.12249 0.13420
 H451 H 0.11303 0.19772 0.22938
 H452 H 0.05594 0.16968 0.20033
 H453 H 0.02545 0.12772 0.15094
 H454 H 0.13264 0.09681 0.10336
 C455 C 0.18786 0.71645 0.72669
 C456 C 0.16997 0.69385 0.69751
 C457 C 0.19022 0.66860 0.67419
 C458 C 0.22793 0.66618 0.68080
 C459 C 0.24524 0.68808 0.71074
 C460 C 0.22530 0.71303 0.73441
 C461 C 0.17244 0.64612 0.64482
 C462 C 0.13437 0.64785 0.63932
 C463 C 0.11391 0.67259 0.66329
 C464 C 0.13198 0.69584 0.69174
 C465 C 0.07553 0.67328 0.65880
 C466 C 0.05749 0.64944 0.63109
 C467 C 0.07772 0.62525 0.60681
 C468 C 0.11621 0.62474 0.61074
 H469 H 0.17236 0.73671 0.74289
 H470 H 0.24397 0.64713 0.66306
 H471 H 0.27435 0.68548 0.71502
 H472 H 0.18806 0.62691 0.62673
 H473 H 0.11633 0.71496 0.70994
 H474 H 0.05940 0.69191 0.67707
 H475 H 0.02776 0.65002 0.62833
 H476 H 0.13170 0.60569 0.59228
 C477 C 0.69430 0.20639 0.73107
 C478 C 0.67543 0.18372 0.70253
 C479 C 0.69617 0.16599 0.67100
 C480 C 0.73532 0.17072 0.66895
 C481 C 0.75378 0.19290 0.69774
 C482 C 0.73349 0.21129 0.72845
 C483 C 0.67753 0.14356 0.64225
 C484 C 0.63839 0.13811 0.64491
 C485 C 0.61759 0.15532 0.67677
 C486 C 0.63623 0.17823 0.70521
 C487 C 0.57846 0.14910 0.67977
 C488 C 0.56013 0.12594 0.65161
 C489 C 0.58055 0.10900 0.61965
 C490 C 0.61972 0.11535 0.61641
 H491 H 0.67850 0.21966 0.75546
 H492 H 0.75165 0.15711 0.64524
 H493 H 0.78406 0.19596 0.69584
 H494 H 0.69349 0.13012 0.61802
 H495 H 0.62027 0.19156 0.72953
 H496 H 0.56206 0.16199 0.70400
 H497 H 0.52989 0.12155 0.65449
 H498 H 0.63567 0.10196 0.59215
 C499 C 0.68112 0.70456 0.21652
 C500 C 0.66467 0.68042 0.18769
 C501 C 0.68722 0.65827 0.16263
 C502 C 0.72581 0.66057 0.16704
 C503 C 0.74178 0.68411 0.19644
 C504 C 0.71959 0.70600 0.22158
 C505 C 0.67080 0.63399 0.13390
 C506 C 0.63200 0.63098 0.13055
 C507 C 0.60943 0.65284 0.15602
 C508 C 0.62595 0.67772 0.18403
 C509 C 0.57058 0.64912 0.15341
 C510 C 0.55414 0.62375 0.12616
 C511 C 0.57626 0.60205 0.10057
 C512 C 0.61527 0.60604 0.10262
 H513 H 0.66382 0.72194 0.23495
 H514 H 0.74357 0.64391 0.14806
 H515 H 0.77158 0.68523 0.19943
 H516 H 0.68813 0.61708 0.11462
 H517 H 0.60860 0.69450 0.20345
 H518 H 0.55288 0.66561 0.17271
 H519 H 0.52405 0.62126 0.12476
 H520 H 0.63242 0.58910 0.08318
   
