data_POSCAR
  _audit_creation_date              2014-09-24
  _audit_creation_method            'ToBaCCo'
  _symmetry_space_group_name_H-M    'P1'
  _symmetry_Int_Tables_number       1
  _symmetry_cell_setting            triclinic
  loop_
  _symmetry_equiv_pos_as_xyz
 x,y,z
_cell_length_a 34.4166
_cell_length_b 34.4228
_cell_length_c 13.4879
_cell_angle_alpha 89.769000
_cell_angle_beta 90.718000
_cell_angle_gamma 120.755300
loop_
  _atom_site_label
  _atom_site_type_symbol
  _atom_site_fract_x
  _atom_site_fract_y
  _atom_site_fract_z
C1 C 0.16714 0.45488 0.55822
 C2 C 0.15018 0.44059 0.46206
 C3 C 0.17883 0.45585 0.38025
 C4 C 0.22538 0.48728 0.39399
 C5 C 0.24327 0.50066 0.49124
 C6 C 0.21397 0.48472 0.57358
 C7 C 0.23246 0.49741 0.66973
 C8 C 0.27903 0.52361 0.68483
 C9 C 0.30876 0.53839 0.60428
 C10 C 0.29077 0.52784 0.50650
 C11 C 0.25461 0.50524 0.31321
 C12 C 0.30104 0.53332 0.32809
 C13 C 0.32025 0.54236 0.42424
 C14 C 0.36784 0.56503 0.44155
 C15 C 0.38480 0.57602 0.53841
 C16 C 0.35605 0.56235 0.61937
 H17 H 0.21100 0.48635 0.73423
 H18 H 0.29167 0.53172 0.76039
 H19 H 0.24167 0.49769 0.23778
 H20 H 0.32131 0.54782 0.26292
 H21 H 0.11465 0.41559 0.45124
 H22 H 0.42098 0.59218 0.55122
 C23 C 0.46381 -0.19675 0.39828
 C24 C 0.45376 -0.18763 0.49179
 C25 C 0.47307 -0.19336 0.57868
 C26 C 0.49744 -0.21592 0.57259
 C27 C 0.50679 -0.22726 0.47812
 C28 C 0.49057 -0.21708 0.39000
 C29 C 0.50139 -0.22789 0.29780
 C30 C 0.53084 -0.24430 0.29179
 C31 C 0.54833 -0.25312 0.37788
 C32 C 0.53448 -0.24664 0.47176
 C33 C 0.51358 -0.22642 0.65848
 C34 C 0.53845 -0.24798 0.65209
 C35 C 0.54983 -0.25776 0.55935
 C36 C 0.57751 -0.27689 0.55198
 C37 C 0.59282 -0.28092 0.45913
 C38 C 0.57963 -0.26793 0.37264
 H39 H 0.48728 -0.22420 0.22907
 H40 H 0.53933 -0.25072 0.21899
 H41 H 0.50646 -0.21855 0.73128
 H42 H 0.54973 -0.25591 0.72044
 H43 H 0.43457 -0.17066 0.49508
 H44 H 0.61651 -0.29278 0.45448
 C45 C 1.19076 0.64813 0.45622
 C46 C 1.18465 0.63224 0.55359
 C47 C 1.19821 0.66180 0.63401
 C48 C 1.21972 0.70883 0.61789
 C49 C 1.22761 0.72571 0.51967
 C50 C 1.21447 0.69548 0.43817
 C51 C 1.22528 0.71361 0.34180
 C52 C 1.24319 0.75963 0.32521
 C53 C 1.25279 0.78949 0.40471
 C54 C 1.24678 0.77274 0.50287
 C55 C 1.23254 0.73932 0.69769
 C56 C 1.25134 0.78542 0.68114
 C57 C 1.25793 0.80267 0.58420
 C58 C 1.27406 0.84889 0.56665
 C59 C 1.27869 0.86482 0.46958
 C60 C 1.26780 0.83559 0.38876
 H61 H 1.22046 0.69273 0.27793
 H62 H 1.24947 0.77173 0.24949
 H63 H 1.22751 0.72760 0.77367
 H64 H 1.26006 0.80746 0.74499
 H65 H 1.16582 0.59609 0.56678
 H66 H 1.28927 0.89999 0.45681
 C67 C 0.87183 0.54234 0.41889
 C68 C 0.89451 0.54623 0.50954
 C69 C 0.87378 0.54226 0.60013
 C70 C 0.82926 0.53388 0.60174
 C71 C 0.80674 0.53227 0.51165
 C72 C 0.82837 0.53729 0.41983
 C73 C 0.80530 0.53544 0.33167
 C74 C 0.76202 0.52980 0.33370
 C75 C 0.73994 0.52503 0.42412
 C76 C 0.76228 0.52504 0.51375
 C77 C 0.80692 0.52743 0.69208
 C78 C 0.76299 0.51891 0.69410
 C79 C 0.74014 0.51751 0.60602
 C80 C 0.69549 0.50848 0.60843
 C81 C 0.67402 0.50907 0.52117
 C82 C 0.69574 0.51869 0.42976
 H83 H 0.82073 0.53852 0.26034
 H84 H 0.74586 0.52776 0.26333
 H85 H 0.82304 0.52819 0.76210
 H86 H 0.74707 0.51356 0.76560
 H87 H 0.92861 0.55213 0.50939
 H88 H 0.64002 0.50343 0.52462
 C89 C 0.44617 0.17068 0.40494
 C90 C 0.45659 0.15622 0.49327
 C91 C 0.45724 0.17457 0.58475
 C92 C 0.44934 0.21083 0.59086
 C93 C 0.44065 0.22767 0.50183
 C94 C 0.43871 0.20729 0.40867
 C95 C 0.43051 0.22473 0.32196
 C96 C 0.42563 0.26252 0.32589
 C97 C 0.42784 0.28339 0.41689
 C98 C 0.43473 0.26546 0.50571
 C99 C 0.45166 0.23183 0.68144
 C100 C 0.44511 0.26848 0.68515
 C101 C 0.43706 0.28608 0.59815
 C102 C 0.43173 0.32407 0.60163
 C103 C 0.42642 0.34236 0.51338
 C104 C 0.42560 0.32312 0.42066
 H105 H 0.42885 0.20984 0.25029
 H106 H 0.42022 0.27544 0.25699
 H107 H 0.45951 0.22095 0.75013
 H108 H 0.44753 0.28371 0.75678
 H109 H 0.46246 0.12815 0.49278
 H110 H 0.42365 0.37232 0.51645
 C111 C 0.67979 0.11345 0.39053
 C112 C 0.65527 0.09308 0.47702
 C113 C 0.66683 0.11472 0.56812
 C114 C 0.70731 0.15665 0.57799
 C115 C 0.73471 0.17690 0.49311
 C116 C 0.72072 0.15535 0.39886
 C117 C 0.74668 0.17730 0.31541
 C118 C 0.78608 0.21972 0.32374
 C119 C 0.80095 0.24191 0.41610
 C120 C 0.77449 0.22019 0.50144
 C121 C 0.72014 0.17960 0.66898
 C122 C 0.75943 0.22143 0.67761
 C123 C 0.78677 0.24236 0.59501
 C124 C 0.82554 0.28554 0.60377
 C125 C 0.85144 0.30641 0.52093
 C126 C 0.84019 0.28572 0.42759
 H127 H 0.73643 0.16177 0.24274
 H128 H 0.80373 0.23472 0.25609
 H129 H 0.70003 0.16571 0.73464
 H130 H 0.76787 0.23769 0.74966
 H131 H 0.62364 0.06106 0.47207
 H132 H 0.88111 0.33991 0.52886
 N133 N 0.97771 0.51973 0.13417
 N134 N 0.95334 0.53589 0.17251
 N135 N 1.07010 0.52703 0.18361
 N136 N 1.10010 0.54543 0.25637
 N137 N 1.07212 0.55830 0.12439
 N138 N 1.10355 0.59886 0.15502
 N139 N 0.97615 0.48821 0.19209
 N140 N 0.95078 0.48152 0.26939
 C141 C 0.93606 0.51044 0.25568
 C142 C 1.12128 0.59006 0.23570
 N143 N 1.05233 0.41202 0.08670
 N144 N 1.08376 0.40070 0.09121
 N145 N 0.96392 0.40124 0.16999
 N146 N 0.93452 0.38020 0.24056
 N147 N 0.95740 0.37376 0.09630
 N148 N 0.92318 0.33254 0.11551
 N149 N 1.05750 0.43897 0.16064
 N150 N 1.09186 0.44658 0.21807
 Mn151 Mn 1.01706 0.46386 0.17656
 C152 C 1.10782 0.42260 0.17388
 C153 C 0.90907 0.33770 0.20541
 N154 N 1.06980 0.56585 -0.08618
 N155 N 1.11008 0.60286 -0.08429
 N156 N 0.97133 0.50418 -0.16001
 N157 N 0.94770 0.51044 -0.23031
 N158 N 0.97554 0.52855 -0.08107
 N159 N 0.95505 0.55160 -0.09558
 N160 N 1.06553 0.54058 -0.16341
 N161 N 1.10262 0.56045 -0.21741
 Mn162 Mn 1.02355 0.54332 0.02250
 C163 C 1.12959 0.59943 -0.16721
 C164 C 0.93711 0.53935 -0.18732
 N165 N 0.95366 0.38228 -0.11698
 N166 N 0.91383 0.34498 -0.12598
 N167 N 1.05164 0.44985 -0.18784
 N168 N 1.07907 0.45410 -0.26085
 N169 N 1.04732 0.41847 -0.12531
 N170 N 1.07136 0.40069 -0.15342
 N171 N 0.95726 0.41321 -0.18029
 N172 N 0.91998 0.39742 -0.23480
 Mn173 Mn 1.00248 0.39609 -0.01521
 Mn174 Mn 1.01148 0.47699 -0.17442
 Cl175 Cl 1.01349 0.47005 0.00189
 C176 C 0.89383 0.35469 -0.20085
 C177 C 1.09133 0.42347 -0.23666
 N178 N 0.47959 0.55090 0.17391
 N179 N 0.46472 0.56560 0.24600
 N180 N 0.46967 0.45733 0.12989
 N181 N 0.44657 0.41666 0.17139
 N182 N 0.50352 0.48475 0.18822
 N183 N 0.50505 0.46418 0.26874
 N184 N 0.44629 0.52433 0.11364
 N185 N 0.40799 0.52033 0.14267
 C186 C 0.42031 0.54710 0.22348
 C187 C 0.47026 0.42200 0.25701
 N188 N 0.48621 0.46463 -0.16483
 N189 N 0.47736 0.43269 -0.23139
 N190 N 0.43817 0.51483 -0.09655
 N191 N 0.40585 0.52471 -0.09685
 N192 N 0.46507 0.53368 -0.17264
 N193 N 0.45094 0.55598 -0.22810
 N194 N 0.46066 0.44680 -0.08636
 N195 N 0.43416 0.40279 -0.09719
 Mn196 Mn 0.45341 0.48529 0.01471
 C197 C 0.44531 0.39437 -0.18660
 C198 C 0.41370 0.54939 -0.17996
 N199 N 0.59558 0.55026 0.16809
 N200 N 0.61212 0.53674 0.23964
 N201 N 0.60214 0.63660 0.08137
 N202 N 0.62237 0.68119 0.08769
 N203 N 0.57315 0.61761 0.15345
 N204 N 0.57276 0.64802 0.21126
 N205 N 0.62432 0.56814 0.09529
 N206 N 0.66204 0.56804 0.11641
 Mn207 Mn 0.53801 0.55110 0.17079
 C208 C 0.65320 0.54746 0.20617
 C209 C 0.60337 0.68732 0.16922
 N210 N 0.56119 0.60185 -0.19384
 N211 N 0.56117 0.62857 -0.26519
 N212 N 0.61476 0.55645 -0.11817
 N213 N 0.64716 0.54685 -0.12487
 N214 N 0.58199 0.53250 -0.18262
 N215 N 0.59153 0.50629 -0.23557
 N216 N 0.59433 0.62548 -0.13019
 N217 N 0.61739 0.66837 -0.15545
 Mn218 Mn 0.52355 0.53321 -0.18015
 Mn219 Mn 0.60945 0.59691 -0.01836
 Cl220 Cl 0.53106 0.54147 -0.00365
 C221 C 0.59634 0.66993 -0.23868
 C222 C 0.63249 0.51634 -0.19941
 N223 N 0.36009 -0.04939 0.08605
 N224 N 0.31585 -0.07381 0.09794
 N225 N 0.44593 0.02863 0.18339
 N226 N 0.46131 0.05524 0.26136
 N227 N 0.42571 0.04220 0.12118
 N228 N 0.42612 0.07837 0.15619
 N229 N 0.38088 -0.06237 0.14822
 N230 N 0.35170 -0.09530 0.20545
 C231 C 0.31143 -0.10237 0.17201
 C232 C 0.44931 0.08616 0.24299
 N233 N 0.54273 0.00818 0.10691
 N234 N 0.58554 0.03431 0.13694
 N235 N 0.45173 -0.08357 0.13844
 N236 N 0.44187 -0.11547 0.20467
 N237 N 0.47897 -0.08391 0.07133
 N238 N 0.48843 -0.11585 0.09130
 N239 N 0.51521 0.00783 0.17392
 N240 N 0.53762 0.03362 0.24943
 Mn241 Mn 0.44825 -0.02767 0.16113
 C242 C 0.58093 0.05015 0.22579
 C243 C 0.46398 -0.13604 0.17295
 N244 N 0.43206 0.05863 -0.09043
 N245 N 0.42565 0.09288 -0.10756
 N246 N 0.39135 -0.03541 -0.19277
 N247 N 0.36493 -0.06109 -0.26627
 N248 N 0.36704 -0.03213 -0.12266
 N249 N 0.32369 -0.05492 -0.14613
 N250 N 0.45758 0.05644 -0.15942
 N251 N 0.46981 0.08952 -0.22340
 Mn252 Mn 0.39601 0.00509 -0.00130
 C253 C 0.45060 0.11257 -0.18913
 C254 C 0.32297 -0.07291 -0.23512
 N255 N 0.48480 -0.06804 -0.14045
 N256 N 0.48592 -0.10338 -0.17575
 N257 N 0.52812 0.03470 -0.17125
 N258 N 0.55645 0.06172 -0.23912
 N259 N 0.54953 0.02365 -0.10591
 N260 N 0.59289 0.04302 -0.12779
 N261 N 0.46223 -0.05662 -0.20157
 N262 N 0.44712 -0.08372 -0.27889
 Mn263 Mn 0.51452 -0.03000 -0.01711
 Mn264 Mn 0.45979 -0.00023 -0.18203
 Cl265 Cl 0.45469 -0.01321 -0.01011
 C266 C 0.46144 -0.11293 -0.26131
 C267 C 0.59678 0.06745 -0.20955
 N268 N 1.16221 0.43793 0.29295
 N269 N 1.14552 0.42047 0.21195
 N270 N 0.59788 0.73157 0.28821
 N271 N 0.61495 0.73017 0.20946
 N272 N 0.26864 -0.14880 0.29958
 N273 N 0.26940 -0.13314 0.21687
 N274 N 0.89140 0.53862 0.32837
 N275 N 0.91333 0.51816 0.33369
 N276 N 0.43052 0.34827 0.33178
 N277 N 0.45833 0.39047 0.33577
 N278 N 0.65767 0.09456 0.29642
 N279 N 0.61479 0.07502 0.29871
 N280 N 0.46519 0.15295 -0.33341
 N281 N 0.44460 0.14275 -0.25138
 N282 N 0.67401 0.50039 -0.30756
 N283 N 0.65500 0.49309 -0.22719
 N284 N 0.83751 0.30678 -0.31085
 N285 N 0.84778 0.32556 -0.22931
 N286 N 0.47455 -0.16919 -0.33268
 N287 N 0.45815 -0.14343 -0.33655
 N288 N 0.37338 0.56717 -0.29140
 N289 N 0.38819 0.57008 -0.20656
 N290 N 1.18643 0.64518 -0.27662
 N291 N 1.17540 0.63122 -0.19147
 N292 N 0.89716 0.55099 -0.31694
 N293 N 0.91721 0.56197 -0.23637
 N294 N 0.42793 0.33979 -0.31272
 N295 N 0.42137 0.35012 -0.22980
 N296 N 0.63162 0.09719 -0.35985
 N297 N 0.63573 0.08705 -0.27123
 N298 N 1.14095 0.43383 -0.36655
 N299 N 1.11817 0.41185 -0.29538
 N300 N 0.59442 0.71515 -0.36829
 N301 N 0.61253 0.71102 -0.29298
 N302 N 0.27941 -0.12401 -0.35994
 N303 N 0.28209 -0.09997 -0.28985
 N304 N 0.45238 -0.17669 0.31822
 N305 N 0.47343 -0.16330 0.23699
 N306 N 0.39976 0.57016 0.36759
 N307 N 0.38805 0.54549 0.29056
 N308 N 1.16546 0.61496 0.38119
 N309 N 1.15043 0.62427 0.30384
 N310 N 0.44161 0.14617 0.31468
 N311 N 0.45439 0.11741 0.31775
 N312 N 0.67060 0.52325 0.34959
 N313 N 0.68522 0.54351 0.26740
 N314 N 0.86987 0.31334 0.35035
 N315 N 0.87519 0.30209 0.26417
   
