data_POSCAR
  _audit_creation_date              2014-09-24
  _audit_creation_method            'ToBaCCo'
  _symmetry_space_group_name_H-M    'P1'
  _symmetry_Int_Tables_number       1
  _symmetry_cell_setting            triclinic
  loop_
  _symmetry_equiv_pos_as_xyz
 x,y,z
_cell_length_a 31.4241
_cell_length_b 32.3081
_cell_length_c 15.0807
_cell_angle_alpha 89.666100
_cell_angle_beta 88.101100
_cell_angle_gamma 118.263800
loop_
  _atom_site_label
  _atom_site_type_symbol
  _atom_site_fract_x
  _atom_site_fract_y
  _atom_site_fract_z
C1 C 0.45354 0.87475 0.49324
 C2 C 0.47775 0.89843 0.56929
 C3 C 0.50343 0.94772 0.56567
 C4 C 0.50143 0.97344 0.49177
 C5 C 0.47637 0.94912 0.41742
 C6 C 0.45358 0.89986 0.41659
 C7 C 0.52339 1.02553 0.49491
 C8 C 0.54847 1.05424 0.42010
 C9 C 0.56866 1.10362 0.42369
 C10 C 0.56369 1.12341 0.50356
 C11 C 0.54028 1.09545 0.57935
 C12 C 0.51908 1.04662 0.57379
 H13 H 0.43487 0.83680 0.49258
 H14 H 0.52324 0.96636 0.62268
 H15 H 0.47438 0.96843 0.36014
 H16 H 0.55167 1.03770 0.36002
 H17 H 0.57819 1.16119 0.50689
 H18 H 0.49970 1.02507 0.63168
 C19 C 0.12407 0.58877 0.51530
 C20 C 0.09782 0.55946 0.58833
 C21 C 0.04789 0.52978 0.58115
 C22 C 0.02310 0.53330 0.50712
 C23 C 0.05044 0.56557 0.43775
 C24 C 0.10080 0.59082 0.43939
 C25 C -0.03069 0.50320 0.50143
 C26 C -0.05257 0.49360 0.41822
 C27 C -0.10289 0.46695 0.41148
 C28 C -0.13159 0.44907 0.49011
 C29 C -0.11091 0.45603 0.57285
 C30 C -0.06075 0.48387 0.57869
 H31 H 0.16312 0.60870 0.51472
 H32 H 0.02855 0.50470 0.63460
 H33 H 0.03340 0.57031 0.38031
 H34 H -0.03060 0.50558 0.35741
 H35 H -0.17056 0.43020 0.48895
 H36 H -0.04594 0.49164 0.64380
 C37 C 0.45141 0.57898 0.47193
 C38 C 0.44673 0.55733 0.55526
 C39 C 0.46740 0.52718 0.56546
 C40 C 0.49228 0.51924 0.49356
 C41 C 0.49666 0.54189 0.41118
 C42 C 0.47519 0.57063 0.39961
 C43 C 0.51175 0.48561 0.50279
 C44 C 0.50586 0.45395 0.43474
 C45 C 0.52528 0.42299 0.44021
 C46 C 0.54876 0.42210 0.51766
 C47 C 0.55424 0.45291 0.58745
 C48 C 0.53642 0.48510 0.57861
 H49 H 0.43547 0.60193 0.46213
 H50 H 0.46431 0.50948 0.62819
 H51 H 0.51541 0.53597 0.35510
 H52 H 0.48678 0.45396 0.37618
 H53 H 0.56326 0.39785 0.52349
 H54 H 0.54157 0.50962 0.63110
 O55 O 0.40121 0.66585 -0.12420
 O56 O 0.41030 0.74739 -0.08522
 C57 C 0.37967 0.75753 -0.11935
 O58 O 0.33686 0.74235 -0.08845
 O59 O 0.25334 0.67006 -0.05997
 C60 C 0.24495 0.63767 -0.11504
 O61 O 0.26332 0.61023 -0.11098
 O62 O 0.33827 0.59498 -0.10018
 C63 C 0.37672 0.62321 -0.14331
 O64 O 0.40330 0.64436 0.05015
 O65 O 0.41054 0.72512 0.08983
 C66 C 0.39108 0.74865 0.12046
 O67 O 0.35431 0.74843 0.08724
 O68 O 0.27163 0.67205 0.11441
 C69 C 0.24647 0.62782 0.12274
 O70 O 0.24840 0.59949 0.06675
 O71 O 0.32582 0.59055 0.07670
 C72 C 0.37029 0.60858 0.09253
 Cr73 Cr 0.40374 0.69474 -0.01694
 Cr74 Cr 0.30525 0.70686 0.01275
 Cr75 Cr 0.29539 0.60134 -0.01681
 O76 O 0.33498 0.66773 -0.00682
 O77 O 0.58907 0.31331 -0.08364
 O78 O 0.59948 0.23868 -0.07011
 C79 C 0.63364 0.23976 -0.12069
 O80 O 0.67806 0.26366 -0.10498
 O81 O 0.75479 0.34247 -0.06987
 C82 C 0.75636 0.37699 -0.11384
 O83 O 0.72711 0.39274 -0.09866
 O84 O 0.64351 0.38814 -0.06420
 C85 C 0.60778 0.35644 -0.10399
 O86 O 0.58687 0.32197 0.09603
 O87 O 0.59985 0.24910 0.10996
 C88 C 0.62448 0.22801 0.11762
 O89 O 0.66143 0.23730 0.06759
 O90 O 0.73248 0.31935 0.10418
 C91 C 0.75001 0.36218 0.12370
 O92 O 0.74441 0.39238 0.07718
 O93 O 0.65963 0.38381 0.11185
 C94 C 0.61660 0.35734 0.13882
 Cr95 Cr 0.59619 0.28211 0.01271
 Cr96 Cr 0.70533 0.29174 -0.00066
 Cr97 Cr 0.69255 0.38698 0.00642
 O98 O 0.66444 0.32034 0.00554
 C99 C 0.47590 0.87493 -0.35023
 C100 C 0.44107 0.83147 -0.32829
 C101 C 0.43614 0.81053 -0.23899
 C102 C 0.39183 0.78604 -0.20174
 H103 H 0.41176 0.81250 -0.37207
 H104 H 0.46778 0.81492 -0.20491
 H105 H 0.50083 0.89461 -0.29947
 H106 H 0.36154 0.78503 -0.23610
 C107 C 0.12058 0.55849 -0.33325
 C108 C 0.16233 0.59467 -0.30948
 C109 C 0.18658 0.59357 -0.22856
 C110 C 0.21387 0.63381 -0.18829
 H111 H 0.17840 0.62747 -0.34744
 H112 H 0.18312 0.56056 -0.20351
 H113 H 0.10208 0.52888 -0.28706
 H114 H 0.21403 0.66584 -0.21076
 C115 C 0.42173 0.56745 -0.37612
 C116 C 0.40907 0.54646 -0.29531
 C117 C 0.38538 0.56156 -0.22565
 C118 C 0.39525 0.60653 -0.21797
 H119 H 0.41414 0.51654 -0.27904
 H120 H 0.36273 0.53580 -0.17522
 H121 H 0.41092 0.59396 -0.39076
 H122 H 0.42170 0.63317 -0.26311
 C123 C 0.53930 0.11708 -0.33461
 C124 C 0.57740 0.15683 -0.31117
 C125 C 0.58034 0.17908 -0.22498
 C126 C 0.62348 0.21299 -0.20253
 H127 H 0.60905 0.17281 -0.35590
 H128 H 0.54865 0.16793 -0.18106
 H129 H 0.50896 0.09859 -0.28784
 H130 H 0.65454 0.22180 -0.24723
 C131 C 0.85608 0.43510 -0.34845
 C132 C 0.86720 0.41860 -0.27582
 C133 C 0.83120 0.39360 -0.20226
 C134 C 0.79358 0.40141 -0.18453
 H135 H 0.90230 0.42015 -0.27269
 H136 H 0.83666 0.36915 -0.16087
 H137 H 0.81934 0.42886 -0.35519
 H138 H 0.79019 0.42844 -0.22153
 C139 C 0.57918 0.45246 -0.33073
 C140 C 0.57449 0.41236 -0.29565
 C141 C 0.59859 0.40987 -0.21460
 C142 C 0.58547 0.36743 -0.17871
 H143 H 0.55105 0.37960 -0.32693
 H144 H 0.62679 0.44135 -0.18664
 H145 H 0.59959 0.48509 -0.29665
 H146 H 0.55648 0.33713 -0.20862
 C147 C 0.87709 0.45938 0.32677
 C148 C 0.83197 0.42629 0.31126
 C149 C 0.81160 0.41827 0.22270
 C150 C 0.77622 0.37549 0.20596
 H151 H 0.80960 0.40161 0.36312
 H152 H 0.82514 0.44623 0.17263
 H153 H 0.89997 0.47974 0.27041
 H154 H 0.76595 0.34757 0.25558
 C155 C 0.59245 0.13476 0.35118
 C156 C 0.60286 0.12355 0.27045
 C157 C 0.62281 0.15924 0.19701
 C158 C 0.60784 0.19152 0.18809
 H159 H 0.59773 0.08874 0.25686
 H160 H 0.64745 0.15709 0.14762
 H161 H 0.60335 0.17158 0.36167
 H162 H 0.57984 0.19035 0.23363
 C163 C 0.52232 0.39392 0.36203
 C164 C 0.55679 0.38213 0.34122
 C165 C 0.56036 0.36269 0.25433
 C166 C 0.60379 0.36901 0.22632
 H167 H 0.58659 0.39194 0.38487
 H168 H 0.52974 0.34716 0.21193
 H169 H 0.49465 0.38723 0.31479
 H170 H 0.63409 0.38773 0.26866
 C171 C 0.12965 0.61615 0.35891
 C172 C 0.16436 0.60683 0.32737
 C173 C 0.19353 0.62917 0.24597
 C174 C 0.21406 0.60725 0.20118
 H175 H 0.17041 0.58043 0.36117
 H176 H 0.19809 0.66290 0.22281
 H177 H 0.11999 0.63916 0.32204
 H178 H 0.20623 0.57209 0.22218
 C179 C 0.42880 0.87517 0.33598
 C180 C 0.42811 0.83525 0.31057
 C181 C 0.40431 0.81063 0.22988
 C182 C 0.41298 0.77651 0.19907
 H183 H 0.44695 0.82090 0.34867
 H184 H 0.38048 0.82046 0.19582
 H185 H 0.41313 0.89143 0.29429
 H186 H 0.43849 0.76877 0.23271
 C187 C 0.47396 0.58906 0.31050
 C188 C 0.43167 0.58194 0.28022
 C189 C 0.42673 0.60136 0.19512
 C190 C 0.38231 0.58656 0.16603
 H191 H 0.39904 0.56132 0.32098
 H192 H 0.45813 0.62898 0.16013
 H193 H 0.50682 0.60651 0.26921
 H194 H 0.35192 0.55830 0.20230
   
