data_POSCAR
  _audit_creation_date              2014-09-24
  _audit_creation_method            'ToBaCCo'
  _symmetry_space_group_name_H-M    'P1'
  _symmetry_Int_Tables_number       1
  _symmetry_cell_setting            triclinic
  loop_
  _symmetry_equiv_pos_as_xyz
 x,y,z
_cell_length_a 28.6564
_cell_length_b 28.5087
_cell_length_c 36.3132
_cell_angle_alpha 90.030900
_cell_angle_beta 89.942600
_cell_angle_gamma 88.743700
loop_
  _atom_site_label
  _atom_site_type_symbol
  _atom_site_fract_x
  _atom_site_fract_y
  _atom_site_fract_z
C1 C 1.18877 0.26539 0.30563
 H2 H 1.18837 0.22749 0.30691
 C3 C 1.16404 0.29216 0.33162
 H4 H 1.14397 0.27446 0.35251
 C5 C 1.21643 0.33427 0.27741
 H6 H 1.23758 0.35065 0.25664
 C7 C 1.19243 0.36237 0.30294
 H8 H 1.19461 0.39989 0.30007
 N9 N 1.21480 0.28673 0.27951
 C10 C 1.24546 0.18454 0.19338
 H11 H 1.28297 0.18804 0.19283
 C12 C 1.22366 0.15777 0.16659
 H13 H 1.24553 0.14186 0.14568
 C14 C 1.17255 0.20600 0.21983
 H15 H 1.15273 0.22622 0.23985
 C16 C 1.14921 0.17918 0.19364
 H17 H 1.11143 0.17886 0.19395
 Zn18 Zn 1.25416 0.24922 0.24917
 N19 N 1.21988 0.20820 0.21911
 C20 C 1.29573 0.16733 0.28080
 N21 N 1.29503 0.21499 0.28062
 C22 C 1.31968 0.23959 0.30570
 C23 C 1.34641 0.21631 0.33243
 C24 C 1.32210 0.14253 0.30694
 C25 C 1.26070 0.30891 0.18996
 C26 C 1.28128 0.33589 0.16271
 C27 C 1.35638 0.31964 0.19055
 C28 C 1.33428 0.29251 0.21722
 N29 N 1.28717 0.28798 0.21650
 H30 H 1.27442 0.14838 0.26158
 H31 H 1.31711 0.27752 0.30579
 H32 H 1.36324 0.23738 0.35309
 H33 H 1.32005 0.10466 0.30734
 H34 H 1.22344 0.30358 0.18950
 H35 H 1.25908 0.34982 0.14117
 H36 H 1.39404 0.32193 0.19097
 H37 H 1.35484 0.27443 0.23795
 C38 C 1.17468 0.15450 0.16635
 C39 C 1.16702 0.34140 0.33150
 C40 C 1.32982 0.34243 0.16296
 C41 C 1.34891 0.16671 0.33321
 C42 C 0.68201 -0.23764 0.30229
 H43 H 0.68288 -0.27557 0.30353
 C44 C 0.65656 -0.21177 0.32845
 H45 H 0.63771 -0.23020 0.34965
 C46 C 0.70843 -0.16781 0.27479
 H47 H 0.73011 -0.15076 0.25471
 C48 C 0.68374 -0.14058 0.30050
 H49 H 0.68756 -0.10309 0.29926
 N50 N 0.70748 -0.21540 0.27628
 C51 C 0.74222 -0.31671 0.19016
 H52 H 0.77956 -0.31191 0.18957
 C53 C 0.72138 -0.34473 0.16369
 H54 H 0.74358 -0.36019 0.14275
 C55 C 0.66865 -0.29740 0.21647
 H56 H 0.64817 -0.27759 0.23632
 C57 C 0.64629 -0.32544 0.19058
 H58 H 0.60856 -0.32683 0.19082
 Zn59 Zn 0.74836 -0.25161 0.24606
 N60 N 0.71584 -0.29360 0.21572
 C61 C 0.79340 -0.33225 0.27729
 N62 N 0.78946 -0.28465 0.27779
 C63 C 0.81159 -0.25890 0.30363
 C64 C 0.83872 -0.28091 0.33066
 C65 C 0.82053 -0.35575 0.30369
 C66 C 0.75610 -0.19072 0.18715
 C67 C 0.77775 -0.16376 0.16036
 C68 C 0.85186 -0.18084 0.18951
 C69 C 0.82874 -0.20786 0.21566
 N70 N 0.78162 -0.21209 0.21405
 H71 H 0.77437 -0.35220 0.25721
 H72 H 0.80669 -0.22116 0.30398
 H73 H 0.85346 -0.25918 0.35183
 H74 H 0.82196 -0.39373 0.30360
 H75 H 0.71882 -0.19576 0.18598
 H76 H 0.75619 -0.14942 0.13862
 H77 H 0.88951 -0.17871 0.19073
 H78 H 0.84858 -0.22620 0.23667
 C79 C 0.67261 -0.34983 0.16364
 C80 C 0.65735 -0.16242 0.32813
 C81 C 0.82642 -0.15790 0.16140
 C82 C 0.84390 -0.33016 0.33092
 C83 C 0.69067 0.25784 -0.19556
 H84 H 0.69606 0.22018 -0.19449
 C85 C 0.66314 0.28034 -0.16893
 H86 H 0.64849 0.25927 -0.14726
 C87 C 0.70796 0.33059 -0.22325
 H88 H 0.72680 0.35012 -0.24374
 C89 C 0.68050 0.35457 -0.19721
 H90 H 0.67890 0.39252 -0.19791
 N91 N 0.71243 0.28305 -0.22196
 C92 C 0.74612 0.18639 -0.31106
 H93 H 0.78337 0.19156 -0.31253
 C94 C 0.72441 0.15868 -0.33733
 H95 H 0.74584 0.14390 -0.35904
 C96 C 0.67357 0.20405 -0.28246
 H97 H 0.65376 0.22295 -0.26168
 C98 C 0.65040 0.17630 -0.30808
 H99 H 0.61275 0.17428 -0.30672
 Zn100 Zn 0.75373 0.24942 -0.25340
 N101 N 0.72065 0.20847 -0.28442
 C102 C 0.79506 0.16698 -0.22361
 N103 N 0.79510 0.21463 -0.22277
 C104 C 0.82012 0.23800 -0.19714
 C105 C 0.84631 0.21328 -0.17083
 C106 C 0.82055 0.14088 -0.19775
 C107 C 0.75988 0.31184 -0.31134
 C108 C 0.78081 0.33874 -0.33852
 C109 C 0.85561 0.32215 -0.31029
 C110 C 0.83313 0.29498 -0.28386
 N111 N 0.78603 0.29056 -0.28481
 H112 H 0.77349 0.14902 -0.24323
 H113 H 0.81831 0.27594 -0.19630
 H114 H 0.86447 0.23264 -0.14979
 H115 H 0.81734 0.10323 -0.19809
 H116 H 0.72265 0.30632 -0.31219
 H117 H 0.75858 0.35231 -0.36021
 H118 H 0.89332 0.32383 -0.30954
 H119 H 0.85353 0.27637 -0.26332
 C120 C 0.67576 0.15280 -0.33602
 C121 C 0.65703 0.32948 -0.16969
 C122 C 0.82960 0.34536 -0.33819
 C123 C 0.84706 0.16389 -0.17086
 C124 C 1.18601 -0.23440 -0.19432
 H125 H 1.18619 -0.27230 -0.19282
 C126 C 1.16126 -0.20781 -0.16829
 H127 H 1.14230 -0.22562 -0.14681
 C128 C 1.21266 -0.16542 -0.22305
 H129 H 1.23388 -0.14907 -0.24380
 C130 C 1.18864 -0.13743 -0.19744
 H131 H 1.19236 -0.10000 -0.19947
 N132 N 1.21107 -0.21294 -0.22096
 C133 C 1.23334 -0.32059 -0.30458
 H134 H 1.27108 -0.32227 -0.30537
 C135 C 1.20764 -0.34675 -0.32952
 H136 H 1.22597 -0.36898 -0.34921
 C137 C 1.16391 -0.28781 -0.27906
 H138 H 1.14703 -0.26379 -0.26000
 C139 C 1.13678 -0.31310 -0.30373
 H140 H 1.09944 -0.30831 -0.30219
 Zn141 Zn 1.24853 -0.25126 -0.25201
 N142 N 1.21126 -0.29154 -0.28023
 C143 C 1.29074 -0.33278 -0.21955
 N144 N 1.28982 -0.28514 -0.22102
 C145 C 1.31529 -0.25925 -0.19730
 C146 C 1.34293 -0.28109 -0.17051
 C147 C 1.31815 -0.35615 -0.19327
 C148 C 1.25532 -0.19122 -0.31146
 C149 C 1.27647 -0.16479 -0.33883
 C150 C 1.35155 -0.18568 -0.31273
 C151 C 1.32888 -0.21205 -0.28595
 N152 N 1.28154 -0.21401 -0.28570
 H153 H 1.26899 -0.35271 -0.23781
 H154 H 1.31270 -0.22136 -0.19838
 H155 H 1.36053 -0.25906 -0.15101
 H156 H 1.31712 -0.39404 -0.19166
 H157 H 1.21776 -0.19436 -0.31108
 H158 H 1.25415 -0.14890 -0.35940
 H159 H 1.38932 -0.18505 -0.31286
 H160 H 1.34920 -0.23146 -0.26582
 C161 C 1.15863 -0.34235 -0.33017
 C162 C 1.16250 -0.15852 -0.16929
 C163 C 1.32541 -0.16115 -0.33962
 C164 C 1.34496 -0.33039 -0.16822
 C165 C 0.26338 0.17901 0.69817
 H166 H 0.22567 0.17802 0.69744
 C167 C 0.28977 0.15281 0.67282
 H168 H 0.27194 0.13167 0.65269
 C169 C 0.33193 0.21103 0.72324
 H170 H 0.34817 0.23531 0.74183
 C171 C 0.35964 0.18566 0.69829
 H172 H 0.39668 0.19162 0.69843
 N173 N 0.28472 0.20749 0.72265
 C174 C 0.18496 0.24217 0.80929
 H175 H 0.18877 0.27985 0.80900
 C176 C 0.15879 0.22138 0.83693
 H177 H 0.14413 0.24435 0.85776
 C178 C 0.20516 0.16794 0.78407
 H179 H 0.22470 0.14722 0.76421
 C180 C 0.17867 0.14555 0.81092
 H181 H 0.17826 0.10756 0.81116
 Zn182 Zn 0.24703 0.24848 0.75162
 N183 N 0.20759 0.21548 0.78369
 C184 C 0.16451 0.28909 0.71970
 N185 N 0.21190 0.28619 0.71866
 C186 C 0.23649 0.30786 0.69187
 C187 C 0.21351 0.33399 0.66473
 C188 C 0.14004 0.31526 0.69316
 C189 C 0.31064 0.26418 0.80792
 C190 C 0.33598 0.28998 0.83328
 C191 C 0.30709 0.36129 0.80462
 C192 C 0.28250 0.33399 0.77956
 N193 N 0.28449 0.28638 0.78180
 H194 H 0.14556 0.27037 0.74059
 H195 H 0.27410 0.30377 0.69112
 H196 H 0.23419 0.34875 0.64289
 H197 H 0.10228 0.31596 0.69383
 H198 H 0.31112 0.22626 0.80938
 H199 H 0.35636 0.27154 0.85403
 H200 H 0.30434 0.39889 0.80193
 H201 H 0.26093 0.35097 0.75890
 C202 C 0.15435 0.17208 0.83802
 C203 C 0.33872 0.15584 0.67247
 C204 C 0.33378 0.33934 0.83253
 C205 C 0.16453 0.33898 0.66544
 C206 C 0.75877 0.68695 0.69581
 H207 H 0.72117 0.69128 0.69532
 C208 C 0.78128 0.65987 0.66889
 H209 H 0.76020 0.64454 0.64760
 C210 C 0.83124 0.70655 0.72232
 H211 H 0.85063 0.72613 0.74241
 C212 C 0.85523 0.67959 0.69599
 H213 H 0.89301 0.67901 0.69611
 N214 N 0.78384 0.70964 0.72175
 C215 C 0.69079 0.74101 0.81313
 H216 H 0.69636 0.77834 0.81509
 C217 C 0.66413 0.71872 0.83972
 H218 H 0.65094 0.73993 0.86226
 C219 C 0.70668 0.66881 0.78301
 H220 H 0.72460 0.64933 0.76153
 C221 C 0.67971 0.64501 0.80880
 H222 H 0.67769 0.60721 0.80673
 Zn223 Zn 0.75020 0.75030 0.75368
 N224 N 0.71132 0.71604 0.78549
 C225 C 0.66618 0.78932 0.72540
 N226 N 0.71349 0.79084 0.72363
 C227 C 0.73511 0.81654 0.69743
 C228 C 0.70889 0.84149 0.67126
 C229 C 0.63861 0.81352 0.69970
 C230 C 0.81448 0.75747 0.80982
 C231 C 0.84182 0.77879 0.83646
 C232 C 0.82189 0.85402 0.80960
 C233 C 0.79449 0.83117 0.78356
 N234 N 0.79132 0.78367 0.78422
 H235 H 0.64964 0.76754 0.74571
 H236 H 0.77283 0.81618 0.69601
 H237 H 0.72684 0.86051 0.64989
 H238 H 0.60138 0.80932 0.70124
 H239 H 0.81027 0.71984 0.81029
 H240 H 0.85744 0.75651 0.85723
 H241 H 0.82304 0.89196 0.80930
 H242 H 0.77477 0.85149 0.76360
 C243 C 0.65686 0.66987 0.83756
 C244 C 0.83032 0.65530 0.66887
 C245 C 0.84615 0.82792 0.83670
 C246 C 0.65981 0.83998 0.67179
 C247 C 0.76270 0.18116 0.19798
 H248 H 0.72500 0.17982 0.19779
 C249 C 0.78877 0.15514 0.17234
 H250 H 0.77071 0.13388 0.15243
 C251 C 0.83149 0.21370 0.22225
 H252 H 0.84788 0.23799 0.24076
 C253 C 0.85888 0.18853 0.19700
 H254 H 0.89588 0.19476 0.19665
 N255 N 0.78433 0.20973 0.22223
 C256 C 0.68581 0.24201 0.30983
 H257 H 0.68864 0.27979 0.30925
 C258 C 0.65939 0.22093 0.33712
 H259 H 0.64314 0.24361 0.35734
 C260 C 0.70772 0.16793 0.28500
 H261 H 0.72766 0.14747 0.26522
 C262 C 0.68126 0.14527 0.31173
 H263 H 0.68099 0.10729 0.31218
 Zn264 Zn 0.74713 0.24963 0.25220
 N265 N 0.70930 0.21553 0.28456
 C266 C 0.66228 0.28317 0.22155
 N267 N 0.70947 0.28669 0.22054
 C268 C 0.73074 0.31325 0.19471
 C269 C 0.70423 0.33765 0.16848
 C270 C 0.63443 0.30677 0.19575
 C271 C 0.80979 0.26360 0.30866
 C272 C 0.83576 0.28811 0.33437
 C273 C 0.81057 0.36063 0.30553
 C274 C 0.78473 0.33461 0.28039
 N275 N 0.78504 0.28698 0.28232
 H276 H 0.64611 0.26070 0.24157
 H277 H 0.76843 0.31452 0.19398
 H278 H 0.72189 0.35784 0.14763
 H279 H 0.59735 0.30145 0.19690
 H280 H 0.80838 0.22576 0.31014
 H281 H 0.85414 0.26869 0.35571
 H282 H 0.80816 0.39840 0.30394
 H283 H 0.76346 0.35259 0.26005
 C284 C 0.65643 0.17172 0.33837
 C285 C 0.83769 0.15838 0.17155
 C286 C 0.83702 0.33736 0.33295
 C287 C 0.65528 0.33455 0.16850
 C288 C 0.26713 0.68201 0.19713
 H289 H 0.22942 0.68128 0.19623
 C290 C 0.29358 0.65661 0.17131
 H291 H 0.27581 0.63626 0.15063
 C292 C 0.33576 0.71207 0.22360
 H293 H 0.35206 0.73501 0.24320
 C294 C 0.36353 0.68747 0.19821
 H295 H 0.40065 0.69264 0.19917
 N296 N 0.28850 0.70923 0.22248
 C297 C 0.18876 0.74098 0.30996
 H298 H 0.19263 0.77865 0.31031
 C299 C 0.16164 0.71959 0.33670
 H300 H 0.14597 0.74159 0.35775
 C301 C 0.20927 0.66728 0.28383
 H302 H 0.22915 0.64701 0.26388
 C303 C 0.18206 0.64433 0.31001
 H304 H 0.18152 0.60638 0.30992
 Zn305 Zn 0.25140 0.74908 0.25282
 N306 N 0.21185 0.71484 0.28422
 C307 C 0.16800 0.78590 0.22191
 N308 N 0.21529 0.78843 0.22143
 C309 C 0.23745 0.81529 0.19625
 C310 C 0.21177 0.84113 0.17027
 C311 C 0.14100 0.81092 0.19635
 C312 C 0.31136 0.75852 0.31124
 C313 C 0.33809 0.78035 0.33795
 C314 C 0.32148 0.85469 0.30836
 C315 C 0.29434 0.83130 0.28244
 N316 N 0.29017 0.78397 0.28423
 H317 H 0.15108 0.76300 0.24122
 H318 H 0.27519 0.81559 0.19572
 H319 H 0.23016 0.86129 0.14981
 H320 H 0.10381 0.80593 0.19668
 H321 H 0.30620 0.72107 0.31263
 H322 H 0.35165 0.75864 0.36001
 H323 H 0.32320 0.89255 0.30691
 H324 H 0.27591 0.85113 0.26146
 C325 C 0.15710 0.67052 0.33674
 C326 C 0.34259 0.65924 0.17130
 C327 C 0.34484 0.82930 0.33656
 C328 C 0.16271 0.83944 0.17002
 O329 O 1.07974 0.02453 0.04759
 O330 O 0.92119 -0.02302 0.04596
 O331 O 0.97565 0.08077 0.04742
 O332 O 1.02633 -0.07947 0.04607
 O333 O 0.91166 0.05633 0.02644
 O334 O 1.09051 -0.05397 0.02631
 O335 O 0.94831 -0.08783 0.02544
 O336 O 1.05389 0.09005 0.02787
 C337 C 1.07540 0.06720 0.05207
 C338 C 0.92598 -0.06580 0.04971
 C339 C 0.93353 0.07527 0.05195
 C340 C 1.06835 -0.07396 0.05115
 O341 O 1.08164 -0.02228 -0.04445
 O342 O 0.92181 0.02710 -0.04504
 O343 O 1.02497 0.08168 -0.04371
 O344 O 0.97825 -0.07789 -0.04557
 O345 O 0.91323 -0.05181 -0.02537
 O346 O 1.08970 0.05586 -0.02317
 O347 O 1.05683 -0.08740 -0.02527
 O348 O 0.94635 0.09127 -0.02396
 Co349 Co 1.07721 0.00107 0.00154
 Co350 Co 0.92514 0.00217 0.00054
 Co351 Co 1.00030 0.07779 0.00181
 Co352 Co 1.00238 -0.07495 0.00025
 O353 O 1.00125 0.00150 0.00104
 C354 C 1.07660 -0.06452 -0.04986
 C355 C 0.92780 0.06935 -0.04965
 C356 C 1.06752 0.07744 -0.04770
 C357 C 0.93573 -0.07346 -0.04973
 O358 O 1.07693 0.52257 0.54695
 O359 O 0.91781 0.47662 0.54349
 O360 O 0.97144 0.57891 0.54681
 O361 O 1.02501 0.41857 0.54344
 O362 O 0.90835 0.55565 0.52378
 O363 O 1.08813 0.44503 0.52278
 O364 O 0.94613 0.41167 0.52379
 O365 O 1.05002 0.58836 0.52857
 C366 C 1.07079 0.56485 0.55272
 C367 C 0.92334 0.43393 0.54779
 C368 C 0.92911 0.57349 0.55023
 C369 C 1.06707 0.42468 0.54790
 O370 O 1.07993 0.47912 0.45382
 O371 O 0.91970 0.52742 0.45248
 O372 O 1.02300 0.58178 0.45607
 O373 O 0.97484 0.42177 0.45225
 O374 O 0.91020 0.44786 0.47281
 O375 O 1.08739 0.55692 0.47740
 O376 O 1.05350 0.41315 0.47088
 O377 O 0.94463 0.59085 0.47489
 Co378 Co 1.07481 0.50104 0.50022
 Co379 Co 0.92237 0.50187 0.49817
 Co380 Co 0.99744 0.57696 0.50137
 Co381 Co 0.99981 0.42442 0.49783
 O382 O 0.99859 0.50100 0.49939
 C383 C 1.07540 0.43683 0.44779
 C384 C 0.92590 0.56992 0.44883
 C385 C 1.06559 0.57788 0.45248
 C386 C 0.93234 0.42646 0.44826
 O387 O 0.57945 0.02041 0.54690
 O388 O 0.42008 -0.02589 0.54532
 O389 O 0.47644 0.07749 0.54793
 O390 O 0.52388 -0.08343 0.54523
 O391 O 0.41175 0.05379 0.52736
 O392 O 0.58846 -0.05828 0.52586
 O393 O 0.44579 -0.09061 0.52384
 O394 O 0.55469 0.08614 0.52709
 C395 C 0.57595 0.06316 0.55126
 C396 C 0.42416 -0.06876 0.54852
 C397 C 0.43424 0.07242 0.55273
 C398 C 0.56587 -0.07791 0.55066
 O399 O 0.57989 -0.02671 0.45475
 O400 O 0.42071 0.02658 0.45495
 O401 O 0.52439 0.07901 0.45628
 O402 O 0.47640 -0.07998 0.45337
 O403 O 0.41159 -0.05281 0.47341
 O404 O 0.58902 0.05110 0.47578
 O405 O 0.55485 -0.09143 0.47417
 O406 O 0.44622 0.08943 0.47737
 Co407 Co 0.57613 -0.00323 0.50083
 Co408 Co 0.42416 0.00029 0.50026
 Co409 Co 0.50041 0.07477 0.50202
 Co410 Co 0.50030 -0.07810 0.49929
 O411 O 0.50025 -0.00158 0.50059
 C412 C 0.57436 -0.06886 0.44931
 C413 C 0.42747 0.06888 0.45113
 C414 C 0.56676 0.07365 0.45184
 C415 C 0.43389 -0.07487 0.44910
 O416 O 0.57982 0.51896 0.04397
 O417 O 0.41933 0.47635 0.04384
 O418 O 0.47863 0.57853 0.04582
 O419 O 0.52003 0.41625 0.04353
 O420 O 0.41295 0.55600 0.02619
 O421 O 0.58568 0.43992 0.02444
 O422 O 0.44160 0.41118 0.02157
 O423 O 0.55691 0.58483 0.02352
 C424 C 0.57706 0.56175 0.04812
 C425 C 0.42213 0.43343 0.04701
 C426 C 0.43635 0.57448 0.05111
 C427 C 0.56225 0.42048 0.04892
 O428 O 0.57829 0.46945 -0.04756
 O429 O 0.42045 0.52893 -0.04645
 O430 O 0.52490 0.57812 -0.04648
 O431 O 0.47332 0.42034 -0.04842
 O432 O 0.40940 0.45032 -0.02874
 O433 O 0.58920 0.54785 -0.02796
 O434 O 0.55108 0.40649 -0.02665
 O435 O 0.44736 0.59113 -0.02415
 Co436 Co 0.57522 0.49446 -0.00177
 Co437 Co 0.42352 0.50248 -0.00131
 Co438 Co 0.50165 0.57482 -0.00043
 Co439 Co 0.49678 0.42188 -0.00241
 O440 O 0.49930 0.49840 -0.00155
 C441 C 0.57145 0.42729 -0.05194
 C442 C 0.42749 0.57110 -0.05003
 C443 C 0.56719 0.57181 -0.05135
 C444 C 0.43125 0.42805 -0.05318
 C445 C 1.14873 0.12950 0.13561
 C446 C 1.17830 0.09746 0.10988
 C447 C 1.15358 0.07779 0.08221
 C448 C 1.10133 0.09070 0.08269
 C449 C 1.08486 0.07719 0.12146
 C450 C 1.10965 0.09737 0.14912
 C451 C 1.12399 0.16470 0.10965
 C452 C 1.09923 0.14457 0.08213
 H453 H 1.21449 0.08729 0.11415
 H454 H 1.16945 0.05302 0.06298
 H455 H 1.05662 0.05331 0.12669
 H456 H 1.10261 0.09041 0.17796
 H457 H 1.12584 0.20250 0.11272
 H458 H 1.07998 0.16527 0.06192
 C459 C 1.13216 0.63279 0.63938
 C460 C 1.13905 0.57911 0.64066
 C461 C 1.11867 0.55605 0.61227
 C462 C 1.09301 0.58867 0.58490
 C463 C 1.05838 0.61728 0.60862
 C464 C 1.07858 0.64038 0.63710
 C465 C 1.14971 0.64710 0.60098
 C466 C 1.12954 0.62394 0.57269
 H467 H 1.15767 0.56073 0.66252
 H468 H 1.11989 0.51809 0.61010
 H469 H 1.02116 0.61963 0.60329
 H470 H 1.05755 0.66199 0.65545
 H471 H 1.17564 0.67369 0.59640
 H472 H 1.13846 0.63054 0.54411
 C473 C 0.64973 0.12686 0.63384
 C474 C 0.67934 0.09449 0.60840
 C475 C 0.65454 0.07411 0.58105
 C476 C 0.60224 0.08682 0.58160
 C477 C 0.58605 0.07392 0.62056
 C478 C 0.61092 0.09471 0.64789
 C479 C 0.62468 0.16144 0.60764
 C480 C 0.59990 0.14070 0.58048
 H481 H 0.71565 0.08478 0.61278
 H482 H 0.67037 0.04898 0.56208
 H483 H 0.55806 0.04987 0.62617
 H484 H 0.60423 0.08805 0.67683
 H485 H 0.62631 0.19931 0.61030
 H486 H 0.58041 0.16101 0.56017
 C487 C 0.64771 0.62449 0.13279
 C488 C 0.67797 0.59108 0.10864
 C489 C 0.65430 0.57102 0.08052
 C490 C 0.60235 0.58507 0.07912
 C491 C 0.58359 0.57303 0.11753
 C492 C 0.60734 0.59352 0.14562
 C493 C 0.62509 0.65935 0.10550
 C494 C 0.60141 0.63893 0.07760
 H495 H 0.71373 0.58047 0.11445
 H496 H 0.67053 0.54523 0.06229
 H497 H 0.55474 0.54971 0.12226
 H498 H 0.59882 0.58735 0.17432
 H499 H 0.62754 0.69718 0.10799
 H500 H 0.58369 0.65946 0.05645
 C501 C 0.85235 -0.13165 0.13133
 C502 C 0.87896 -0.16567 0.10550
 C503 C 0.90377 -0.14433 0.07859
 C504 C 0.89987 -0.09051 0.07961
 C505 C 0.84728 -0.07931 0.07838
 C506 C 0.82246 -0.10025 0.10543
 C507 C 0.88989 -0.09834 0.14579
 C508 C 0.91478 -0.07700 0.11875
 H509 H 0.87829 -0.20358 0.10822
 H510 H 0.92428 -0.16412 0.05854
 H511 H 0.83119 -0.05478 0.05911
 H512 H 0.78582 -0.09152 0.10923
 H513 H 0.89580 -0.09144 0.17479
 H514 H 0.94204 -0.05224 0.12467
 C515 C 0.85343 0.36984 0.63231
 C516 C 0.82416 0.40166 0.60982
 C517 C 0.84872 0.42287 0.58013
 C518 C 0.89820 0.40963 0.57873
 C519 C 0.91643 0.42117 0.61509
 C520 C 0.89165 0.39948 0.64469
 C521 C 0.87485 0.33666 0.60618
 C522 C 0.89954 0.35846 0.57681
 H523 H 0.79001 0.41534 0.61778
 H524 H 0.83278 0.45034 0.56331
 H525 H 0.94449 0.44548 0.61972
 H526 H 0.89916 0.40713 0.67336
 H527 H 0.87240 0.29877 0.60836
 H528 H 0.91706 0.33823 0.55533
 C529 C 0.35085 -0.13489 0.63008
 C530 C 0.32085 -0.10331 0.60437
 C531 C 0.34559 -0.08224 0.57733
 C532 C 0.39814 -0.09359 0.57835
 C533 C 0.41335 -0.08036 0.61746
 C534 C 0.38858 -0.10179 0.64450
 C535 C 0.37719 -0.16884 0.60401
 C536 C 0.40190 -0.14740 0.57709
 H537 H 0.28418 -0.09475 0.60806
 H538 H 0.32944 -0.05770 0.55809
 H539 H 0.44076 -0.05576 0.62337
 H540 H 0.39477 -0.09518 0.67351
 H541 H 0.37639 -0.20676 0.60655
 H542 H 0.42221 -0.16712 0.55687
 C543 C 0.35410 0.36855 0.13203
 C544 C 0.39446 0.39973 0.14454
 C545 C 0.41735 0.42085 0.11630
 C546 C 0.39783 0.40921 0.07807
 C547 C 0.39924 0.35537 0.07599
 C548 C 0.37642 0.33429 0.10408
 C549 C 0.32301 0.40207 0.10870
 C550 C 0.34582 0.42276 0.08042
 H551 H 0.40353 0.40568 0.17315
 H552 H 0.44606 0.44440 0.12081
 H553 H 0.41672 0.33536 0.05438
 H554 H 0.37444 0.29640 0.10630
 H555 H 0.28732 0.41225 0.11525
 H556 H 0.32894 0.44869 0.06271
 C557 C 0.87055 0.13720 -0.13933
 C558 C 0.88036 0.08428 -0.14552
 C559 C 0.89934 0.06190 -0.11586
 C560 C 0.90756 0.09415 -0.08264
 C561 C 0.93767 0.13359 -0.09805
 C562 C 0.91843 0.15600 -0.12774
 C563 C 0.84066 0.13979 -0.10415
 C564 C 0.85995 0.11742 -0.07465
 H565 H 0.87664 0.06626 -0.17160
 H566 H 0.91016 0.02520 -0.11683
 H567 H 0.97163 0.14239 -0.08721
 H568 H 0.93637 0.18356 -0.14227
 H569 H 0.80692 0.15778 -0.10264
 H570 H 0.84279 0.11634 -0.04801
 C571 C 0.86839 0.64381 0.36228
 C572 C 0.89924 0.60147 0.35022
 C573 C 0.91871 0.57690 0.37880
 C574 C 0.90564 0.59677 0.41686
 C575 C 0.92036 0.64830 0.41515
 C576 C 0.90128 0.67279 0.38659
 C577 C 0.83282 0.62329 0.38921
 C578 C 0.85220 0.59876 0.41758
 H579 H 0.90671 0.59272 0.32170
 H580 H 0.94278 0.54746 0.37463
 H581 H 0.94630 0.66344 0.43310
 H582 H 0.91258 0.70793 0.38039
 H583 H 0.79529 0.62782 0.38620
 H584 H 0.83130 0.58235 0.43872
 C585 C 0.37165 0.14141 0.36326
 C586 C 0.39247 0.09563 0.35311
 C587 C 0.41211 0.07030 0.38371
 C588 C 0.40774 0.09554 0.41862
 C589 C 0.42969 0.14058 0.41198
 C590 C 0.41015 0.16573 0.38132
 C591 C 0.33833 0.13152 0.39264
 C592 C 0.35815 0.10630 0.42298
 H593 H 0.39732 0.08353 0.32497
 H594 H 0.43163 0.03749 0.38033
 H595 H 0.46132 0.15168 0.42559
 H596 H 0.42768 0.19578 0.36986
 H597 H 0.30170 0.14225 0.39202
 H598 H 0.33780 0.09654 0.44693
 C599 C 0.36976 0.64419 -0.13675
 C600 C 0.39704 0.59931 -0.14829
 C601 C 0.41655 0.57516 -0.11958
 C602 C 0.40722 0.59801 -0.08187
 C603 C 0.42520 0.64813 -0.08599
 C604 C 0.40595 0.67222 -0.11474
 C605 C 0.33456 0.62772 -0.10778
 C606 C 0.35406 0.60363 -0.07925
 H607 H 0.40181 0.58822 -0.17667
 H608 H 0.43770 0.54347 -0.12345
 H609 H 0.45300 0.66242 -0.06940
 H610 H 0.41889 0.70622 -0.12256
 H611 H 0.29722 0.63463 -0.10956
 H612 H 0.33345 0.58996 -0.05673
 C613 C 1.13882 -0.13068 -0.13839
 C614 C 1.16193 -0.14128 -0.10096
 C615 C 1.14104 -0.11934 -0.07189
 C616 C 1.09887 -0.08833 -0.08252
 C617 C 1.11740 -0.05462 -0.11191
 C618 C 1.13807 -0.07656 -0.14114
 C619 C 1.08711 -0.14282 -0.13293
 C620 C 1.06629 -0.12078 -0.10373
 H621 H 1.19255 -0.16400 -0.09767
 H622 H 1.15369 -0.12339 -0.04387
 H623 H 1.11305 -0.01674 -0.11069
 H624 H 1.14992 -0.05640 -0.16444
 H625 H 1.06825 -0.16619 -0.15092
 H626 H 1.02987 -0.12554 -0.09680
 C627 C 1.14342 0.36966 0.36225
 C628 C 1.15495 0.42232 0.36548
 C629 C 1.13228 0.44497 0.39352
 C630 C 1.10036 0.41324 0.41617
 C631 C 1.06747 0.39192 0.38776
 C632 C 1.08986 0.36903 0.35974
 C633 C 1.15499 0.34998 0.40076
 C634 C 1.13241 0.37253 0.42876
 H635 H 1.18041 0.44039 0.34902
 H636 H 1.13803 0.48165 0.39971
 H637 H 1.02989 0.39672 0.38849
 H638 H 1.07115 0.35354 0.33694
 H639 H 1.17982 0.32137 0.40570
 H640 H 1.13781 0.36297 0.45741
 C641 C 0.63400 -0.13510 0.35955
 C642 C 0.65945 -0.14402 0.39628
 C643 C 0.63942 -0.12212 0.42575
 C644 C 0.59564 -0.09285 0.41623
 C645 C 0.61121 -0.05919 0.38573
 C646 C 0.63096 -0.08106 0.35608
 C647 C 0.58316 -0.14899 0.36696
 C648 C 0.56318 -0.12700 0.39658
 H649 H 0.69091 -0.16570 0.39881
 H650 H 0.65367 -0.12515 0.45337
 H651 H 0.60499 -0.02150 0.38639
 H652 H 0.63985 -0.06117 0.33180
 H653 H 0.56417 -0.17336 0.34992
 H654 H 0.52738 -0.13284 0.40478
 C655 C 0.63169 0.35549 -0.13864
 C656 C 0.66610 0.37147 -0.10897
 C657 C 0.64584 0.39518 -0.08048
 C658 C 0.59274 0.40100 -0.08386
 C659 C 0.58457 0.42445 -0.12147
 C660 C 0.60479 0.40064 -0.15015
 C661 C 0.59481 0.32730 -0.11756
 C662 C 0.57484 0.35094 -0.08884
 H663 H 0.70348 0.36460 -0.11030
 H664 H 0.66585 0.40853 -0.05753
 H665 H 0.56355 0.45621 -0.12534
 H666 H 0.60041 0.41202 -0.17847
 H667 H 0.58250 0.29322 -0.12592
 H668 H 0.54678 0.33628 -0.07270
 C669 C 1.13036 0.14826 -0.13224
 C670 C 1.09948 0.17765 -0.10897
 C671 C 1.07876 0.15270 -0.07927
 C672 C 1.09140 0.10285 -0.07864
 C673 C 1.07899 0.08524 -0.11503
 C674 C 1.10027 0.11036 -0.14463
 C675 C 1.16368 0.12598 -0.10677
 C676 C 1.14231 0.10089 -0.07740
 H677 H 1.08558 0.21201 -0.11639
 H678 H 1.05200 0.16871 -0.06186
 H679 H 1.05467 0.05715 -0.11965
 H680 H 1.09246 0.10304 -0.17330
 H681 H 1.20136 0.12812 -0.10938
 H682 H 1.16266 0.08261 -0.05644
 C683 C 1.13093 0.64577 0.36747
 C684 C 1.16444 0.62778 0.39760
 C685 C 1.14323 0.60509 0.42574
 C686 C 1.09002 0.60228 0.42151
 C687 C 1.07303 0.65330 0.41649
 C688 C 1.09383 0.67588 0.38813
 C689 C 1.10392 0.60211 0.35542
 C690 C 1.08270 0.57936 0.38371
 H691 H 1.20191 0.63256 0.39682
 H692 H 1.16271 0.59060 0.44886
 H693 H 1.04500 0.66951 0.43250
 H694 H 1.08185 0.71058 0.37976
 H695 H 1.10072 0.59069 0.32704
 H696 H 1.06200 0.54837 0.37949
 C697 C 0.63085 0.14643 0.36906
 C698 C 0.66515 0.12020 0.39479
 C699 C 0.64438 0.09560 0.42209
 C700 C 0.59084 0.09941 0.42155
 C701 C 0.57958 0.15223 0.42250
 C702 C 0.59995 0.17682 0.39507
 C703 C 0.59767 0.10839 0.35524
 C704 C 0.57684 0.08378 0.38270
 H705 H 0.70283 0.12100 0.39174
 H706 H 0.66439 0.07540 0.44215
 H707 H 0.55556 0.16866 0.44200
 H708 H 0.59120 0.21362 0.39136
 H709 H 0.59059 0.10188 0.32635
 H710 H 0.55223 0.05621 0.37726
 C711 C 0.63207 0.64475 -0.13383
 C712 C 0.60285 0.60669 -0.14733
 C713 C 0.58080 0.58080 -0.11848
 C714 C 0.59166 0.59799 -0.08165
 C715 C 0.64254 0.59666 -0.07928
 C716 C 0.66468 0.62244 -0.10788
 C717 C 0.59998 0.67338 -0.11107
 C718 C 0.57843 0.64775 -0.08213
 H719 H 0.59563 0.60013 -0.17621
 H720 H 0.55674 0.55271 -0.12392
 H721 H 0.66236 0.57836 -0.05802
 H722 H 0.70240 0.62496 -0.10967
 H723 H 0.58656 0.70799 -0.11842
 H724 H 0.55079 0.66323 -0.06529
 C725 C 0.87187 -0.14648 -0.13276
 C726 C 0.83755 -0.12070 -0.10672
 C727 C 0.85827 -0.09609 -0.07940
 C728 C 0.91184 -0.09936 -0.08019
 C729 C 0.92358 -0.15211 -0.07959
 C730 C 0.90325 -0.17673 -0.10707
 C731 C 0.90465 -0.10805 -0.14655
 C732 C 0.92544 -0.08340 -0.11907
 H733 H 0.79988 -0.12176 -0.10960
 H734 H 0.83818 -0.07616 -0.05917
 H735 H 0.94803 -0.16842 -0.06043
 H736 H 0.91244 -0.21337 -0.11124
 H737 H 0.91169 -0.10146 -0.17544
 H738 H 0.95002 -0.05581 -0.12452
 C739 C 0.86340 0.36326 0.36283
 C740 C 0.83811 0.36061 0.40016
 C741 C 0.86106 0.38118 0.42843
 C742 C 0.90742 0.40297 0.41709
 C743 C 0.93519 0.36252 0.39875
 C744 C 0.91251 0.34223 0.37021
 C745 C 0.87200 0.41606 0.35705
 C746 C 0.89475 0.43663 0.38553
 H747 H 0.80480 0.34383 0.40398
 H748 H 0.84743 0.38172 0.45634
 H749 H 0.96909 0.34975 0.40807
 H750 H 0.92798 0.31334 0.35461
 H751 H 0.86373 0.43554 0.33223
 H752 H 0.90433 0.47319 0.38503
 C753 C 0.36952 -0.14612 0.36550
 C754 C 0.39864 -0.10768 0.35255
 C755 C 0.42057 -0.08238 0.38179
 C756 C 0.40965 -0.10040 0.41837
 C757 C 0.35876 -0.09927 0.42072
 C758 C 0.33679 -0.12448 0.39175
 C759 C 0.40168 -0.17513 0.38787
 C760 C 0.42301 -0.15008 0.41721
 H761 H 0.40584 -0.10045 0.32376
 H762 H 0.44466 -0.05420 0.37675
 H763 H 0.33879 -0.08141 0.44217
 H764 H 0.29907 -0.12702 0.38988
 H765 H 0.41537 -0.20947 0.38000
 H766 H 0.45053 -0.16586 0.43394
 C767 C 0.35951 0.36617 -0.13767
 C768 C 0.34522 0.35049 -0.09875
 C769 C 0.36950 0.37088 -0.07116
 C770 C 0.40576 0.40577 -0.08455
 C771 C 0.43678 0.37779 -0.11174
 C772 C 0.41262 0.35722 -0.13938
 C773 C 0.35391 0.42029 -0.13645
 C774 C 0.37818 0.44075 -0.10868
 H775 H 0.31780 0.32573 -0.09332
 H776 H 0.36301 0.36328 -0.04233
 H777 H 0.47453 0.37504 -0.10994
 H778 H 0.42987 0.33699 -0.16099
 H779 H 0.33233 0.44137 -0.15475
 H780 H 0.37715 0.47836 -0.10399
 C781 C 1.13547 -0.13607 0.13921
 C782 C 1.14302 -0.16130 0.10215
 C783 C 1.12081 -0.14044 0.07324
 C784 C 1.09267 -0.09608 0.08363
 C785 C 1.05968 -0.11150 0.11456
 C786 C 1.08188 -0.13206 0.14366
 C787 C 1.14998 -0.08510 0.13203
 C788 C 1.12770 -0.06428 0.10295
 H789 H 1.16409 -0.19317 0.09898
 H790 H 1.12294 -0.15442 0.04545
 H791 H 1.02232 -0.10429 0.11471
 H792 H 1.06273 -0.14060 0.16839
 H793 H 1.17486 -0.06659 0.14888
 H794 H 1.13386 -0.02827 0.09498
 C795 C 1.13832 0.36409 0.63447
 C796 C 1.12322 0.32951 0.60448
 C797 C 1.09955 0.34980 0.57603
 C798 C 1.09295 0.40306 0.57979
 C799 C 1.06916 0.41056 0.61735
 C800 C 1.09290 0.39031 0.64598
 C801 C 1.16593 0.40183 0.61380
 C802 C 1.14241 0.42175 0.58513
 H803 H 1.13058 0.29201 0.60560
 H804 H 1.08673 0.32971 0.55288
 H805 H 1.03724 0.43118 0.62123
 H806 H 1.08126 0.39426 0.67428
 H807 H 1.19946 0.41480 0.62246
 H808 H 1.15672 0.45036 0.56932
 C809 C 0.63221 -0.13712 0.64040
 C810 C 0.64498 -0.08568 0.63327
 C811 C 0.62292 -0.06591 0.60368
 C812 C 0.58978 -0.09914 0.58375
 C813 C 0.61988 -0.14248 0.57412
 C814 C 0.64188 -0.16231 0.60357
 C815 C 0.57839 -0.13528 0.64367
 C816 C 0.55642 -0.11571 0.61404
 H817 H 0.66874 -0.06618 0.65044
 H818 H 0.62819 -0.02978 0.59564
 H819 H 0.62337 -0.15662 0.54645
 H820 H 0.66409 -0.19348 0.60096
 H821 H 0.55859 -0.14506 0.66776
 H822 H 0.51881 -0.11039 0.61322
 C823 C 0.62762 0.35806 0.13753
 C824 C 0.63833 0.41045 0.13286
 C825 C 0.61647 0.43124 0.10365
 C826 C 0.58558 0.39798 0.08163
 C827 C 0.61781 0.35661 0.07091
 C828 C 0.63962 0.33576 0.09999
 C829 C 0.57373 0.35725 0.13961
 C830 C 0.55197 0.37789 0.11033
 H831 H 0.66057 0.42978 0.15139
 H832 H 0.62030 0.46813 0.09728
 H833 H 0.62275 0.34444 0.04280
 H834 H 0.66314 0.30567 0.09664
 H835 H 0.55353 0.34442 0.16252
 H836 H 0.51423 0.38111 0.10862
 C837 C 0.86520 0.13461 0.14059
 C838 C 0.91873 0.13091 0.14528
 C839 C 0.94137 0.11126 0.11598
 C840 C 0.90879 0.09633 0.08465
 C841 C 0.87385 0.06376 0.10327
 C842 C 0.85116 0.08368 0.13258
 C843 C 0.85777 0.16067 0.10391
 C844 C 0.88041 0.14070 0.07480
 H845 H 0.93744 0.13901 0.17031
 H846 H 0.97877 0.10435 0.11620
 H847 H 0.86813 0.02786 0.09474
 H848 H 0.82643 0.06449 0.14910
 H849 H 0.83645 0.19243 0.10114
 H850 H 0.87842 0.15532 0.04722
 C851 C 0.85645 0.63083 0.63751
 C852 C 0.82876 0.59457 0.61530
 C853 C 0.85282 0.57550 0.58646
 C854 C 0.90270 0.59366 0.58245
 C855 C 0.89706 0.64713 0.58019
 C856 C 0.87294 0.66646 0.60882
 C857 C 0.90113 0.60333 0.64895
 C858 C 0.92531 0.58397 0.62012
 H859 H 0.79489 0.58157 0.62311
 H860 H 0.83869 0.54761 0.56976
 H861 H 0.91085 0.66806 0.55788
 H862 H 0.86614 0.70399 0.61090
 H863 H 0.91190 0.59799 0.67731
 H864 H 0.95669 0.56248 0.62390
 C865 C 0.36646 0.13213 0.64156
 C866 C 0.42011 0.12935 0.64580
 C867 C 0.44267 0.10957 0.61647
 C868 C 0.40989 0.09367 0.58558
 C869 C 0.37571 0.06086 0.60481
 C870 C 0.35310 0.08088 0.63412
 C871 C 0.35819 0.15754 0.60471
 C872 C 0.38074 0.13749 0.57559
 H873 H 0.43909 0.13825 0.67052
 H874 H 0.48017 0.10334 0.61636
 H875 H 0.37039 0.02475 0.59665
 H876 H 0.32880 0.06160 0.65098
 H877 H 0.33644 0.18899 0.60183
 H878 H 0.37823 0.15174 0.54792
 C879 C 0.37031 0.63565 0.14025
 C880 C 0.35837 0.58374 0.13430
 C881 C 0.38049 0.56333 0.10495
 C882 C 0.41284 0.59644 0.08409
 C883 C 0.38193 0.63897 0.07384
 C884 C 0.35988 0.65942 0.10304
 C885 C 0.42418 0.63484 0.14314
 C886 C 0.44621 0.61462 0.11372
 H887 H 0.33520 0.56441 0.15211
 H888 H 0.37596 0.52677 0.09775
 H889 H 0.37801 0.65216 0.04594
 H890 H 0.33716 0.69015 0.09998
 H891 H 0.44400 0.64586 0.16684
 H892 H 0.48388 0.61007 0.11262
   
