data_POSCAR
  _audit_creation_date              2014-09-24
  _audit_creation_method            'ToBaCCo'
  _symmetry_space_group_name_H-M    'P1'
  _symmetry_Int_Tables_number       1
  _symmetry_cell_setting            triclinic
  loop_
  _symmetry_equiv_pos_as_xyz
 x,y,z
_cell_length_a 38.5985
_cell_length_b 33.1877
_cell_length_c 27.1274
_cell_angle_alpha 90.053300
_cell_angle_beta 90.228800
_cell_angle_gamma 90.334800
loop_
  _atom_site_label
  _atom_site_type_symbol
  _atom_site_fract_x
  _atom_site_fract_y
  _atom_site_fract_z
C1 C 1.19772 0.25596 0.32940
 H2 H 1.20138 0.22379 0.33277
 C3 C 1.16996 0.27437 0.35353
 H4 H 1.15260 0.25635 0.37584
 C5 C 1.21476 0.31813 0.29386
 H6 H 1.23210 0.33519 0.27069
 C7 C 1.18716 0.33755 0.31664
 H8 H 1.18372 0.36954 0.31062
 N9 N 1.21857 0.27768 0.29869
 C10 C 1.23555 0.18502 0.18855
 H11 H 1.26332 0.18074 0.18880
 C12 C 1.21404 0.15772 0.16336
 H13 H 1.22534 0.13247 0.14406
 C14 C 1.18683 0.22232 0.21489
 H15 H 1.17617 0.24771 0.23437
 C16 C 1.16457 0.19597 0.19058
 H17 H 1.13697 0.20148 0.19211
 Zn18 Zn 1.24899 0.24802 0.25743
 N19 N 1.22148 0.21552 0.21534
 C20 C 1.26953 0.17434 0.30224
 N21 N 1.27604 0.21460 0.29929
 C22 C 1.30175 0.23193 0.32645
 C23 C 1.32456 0.20812 0.35359
 C24 C 1.29096 0.14941 0.33030
 C25 C 1.26415 0.31112 0.18786
 C26 C 1.28579 0.33668 0.16023
 C27 C 1.33497 0.29941 0.19027
 C28 C 1.31258 0.27490 0.21720
 N29 N 1.27791 0.28183 0.21715
 H30 H 1.24782 0.16132 0.28254
 H31 H 1.30552 0.26424 0.32516
 H32 H 1.34573 0.22291 0.37286
 H33 H 1.28548 0.11736 0.33075
 H34 H 1.23637 0.31506 0.18640
 H35 H 1.27443 0.36042 0.13824
 H36 H 1.36246 0.29326 0.19195
 H37 H 1.32316 0.25006 0.23780
 C38 C 1.17796 0.16241 0.16577
 C39 C 1.16367 0.31537 0.34555
 C40 C 1.32187 0.33138 0.16192
 C41 C 1.32001 0.16587 0.35494
 C42 C 0.70137 -0.22744 0.32619
 H43 H 0.69844 -0.25981 0.32876
 C44 C 0.67945 -0.20237 0.35286
 H45 H 0.65948 -0.21563 0.37573
 C46 C 0.73052 -0.17086 0.29260
 H47 H 0.75074 -0.15864 0.26959
 C48 C 0.70968 -0.14462 0.31962
 H49 H 0.71337 -0.11238 0.31601
 N50 N 0.72496 -0.21141 0.29461
 C51 C 0.73338 -0.31234 0.18898
 H52 H 0.76120 -0.31424 0.18506
 C53 C 0.71188 -0.33992 0.16407
 H54 H 0.72336 -0.36302 0.14127
 C55 C 0.68467 -0.27966 0.22300
 H56 H 0.67385 -0.25551 0.24451
 C57 C 0.66237 -0.30656 0.19918
 H58 H 0.63471 -0.30283 0.20373
 Zn59 Zn 0.74981 -0.24769 0.25386
 N60 N 0.71956 -0.28360 0.21887
 C61 C 0.78134 -0.31695 0.29531
 N62 N 0.78105 -0.27606 0.29507
 C63 C 0.80534 -0.25428 0.32037
 C64 C 0.83290 -0.27366 0.34405
 C65 C 0.80847 -0.33743 0.31794
 C66 C 0.76271 -0.18833 0.18009
 C67 C 0.78438 -0.16471 0.15043
 C68 C 0.83178 -0.20882 0.17149
 C69 C 0.80950 -0.23099 0.20102
 N70 N 0.77609 -0.21941 0.20665
 H71 H 0.76136 -0.33379 0.27628
 H72 H 0.80436 -0.22171 0.31975
 H73 H 0.85295 -0.25592 0.36194
 H74 H 0.80892 -0.37002 0.31601
 H75 H 0.73565 -0.18064 0.18389
 H76 H 0.77391 -0.13867 0.13170
 H77 H 0.85858 -0.21806 0.16921
 H78 H 0.81924 -0.25703 0.22032
 C79 C 0.67581 -0.33760 0.16972
 C80 C 0.68293 -0.16041 0.34866
 C81 C 0.81971 -0.17421 0.14731
 C82 C 0.83530 -0.31571 0.34125
 C83 C 0.70423 0.27536 -0.18517
 H84 H 0.70115 0.24300 -0.18271
 C85 C 0.68064 0.30046 -0.16160
 H86 H 0.65955 0.28713 -0.14092
 C87 C 0.73501 0.33176 -0.21618
 H88 H 0.75614 0.34383 -0.23771
 C89 C 0.71235 0.35815 -0.19199
 H90 H 0.71599 0.39039 -0.19559
 N91 N 0.72995 0.29113 -0.21345
 C92 C 0.73959 0.18799 -0.31384
 H93 H 0.76694 0.18125 -0.31153
 C94 C 0.71709 0.16157 -0.33874
 H95 H 0.72731 0.13458 -0.35562
 C96 C 0.69290 0.23072 -0.29331
 H97 H 0.68345 0.25790 -0.27628
 C98 C 0.66962 0.20526 -0.31748
 H99 H 0.64246 0.21324 -0.31819
 Zn100 Zn 0.75658 0.25216 -0.24860
 N101 N 0.72694 0.22088 -0.28997
 C102 C 0.76995 0.17858 -0.19777
 N103 N 0.77757 0.21858 -0.20109
 C104 C 0.80222 0.23585 -0.17196
 C105 C 0.82305 0.21198 -0.14197
 C106 C 0.78986 0.15359 -0.16764
 C107 C 0.78259 0.30498 -0.32111
 C108 C 0.80770 0.32398 -0.34999
 C109 C 0.85114 0.28099 -0.31370
 C110 C 0.82510 0.26296 -0.28541
 N111 N 0.79173 0.27594 -0.28847
 H112 H 0.74929 0.16567 -0.21969
 H113 H 0.80716 0.26791 -0.17454
 H114 H 0.84398 0.22593 -0.12131
 H115 H 0.78477 0.12146 -0.16748
 H116 H 0.75575 0.31390 -0.32412
 H117 H 0.79935 0.34769 -0.37467
 H118 H 0.87748 0.27040 -0.30947
 H119 H 0.83175 0.23846 -0.26106
 C120 C 0.68141 0.16949 -0.33930
 C121 C 0.68417 0.34242 -0.16548
 C122 C 0.84293 0.31280 -0.34597
 C123 C 0.81776 0.17011 -0.14104
 C124 C 1.19876 -0.22931 -0.17745
 H125 H 1.19347 -0.26134 -0.17893
 C126 C 1.17746 -0.20418 -0.15003
 H127 H 1.15579 -0.21706 -0.13014
 C128 C 1.23223 -0.17333 -0.20401
 H129 H 1.25345 -0.16143 -0.22544
 C130 C 1.21195 -0.14709 -0.17619
 H131 H 1.21726 -0.11503 -0.17717
 N132 N 1.22416 -0.21330 -0.20600
 C133 C 1.21913 -0.30204 -0.32380
 H134 H 1.24579 -0.31179 -0.32554
 C135 C 1.19410 -0.32021 -0.35397
 H136 H 1.20190 -0.34436 -0.37830
 C137 C 1.17696 -0.25846 -0.29033
 H138 H 1.17042 -0.23355 -0.26660
 C139 C 1.15108 -0.27582 -0.31980
 H140 H 1.12482 -0.26477 -0.31715
 Zn141 Zn 1.24511 -0.24860 -0.25138
 N142 N 1.21008 -0.27248 -0.29177
 C143 C 1.26598 -0.32764 -0.21589
 N144 N 1.27092 -0.28697 -0.21395
 C145 C 1.29597 -0.27058 -0.18464
 C146 C 1.31882 -0.29515 -0.15866
 C147 C 1.28801 -0.35349 -0.18955
 C148 C 1.26280 -0.18701 -0.31872
 C149 C 1.28541 -0.16174 -0.34472
 C150 C 1.33266 -0.20495 -0.32057
 C151 C 1.30927 -0.22919 -0.29512
 N152 N 1.27528 -0.21903 -0.29295
 H153 H 1.24543 -0.34015 -0.23844
 H154 H 1.29900 -0.23818 -0.18298
 H155 H 1.33928 -0.28129 -0.13698
 H156 H 1.28446 -0.38579 -0.19255
 H157 H 1.23547 -0.18007 -0.31722
 H158 H 1.27528 -0.13539 -0.36321
 H159 H 1.35977 -0.21314 -0.32041
 H160 H 1.31854 -0.25567 -0.27627
 C161 C 1.15936 -0.30758 -0.35166
 C162 C 1.18324 -0.16243 -0.15078
 C163 C 1.32103 -0.17001 -0.34457
 C164 C 1.31543 -0.33721 -0.16152
 C165 C 0.26153 0.18427 0.68191
 H166 H 0.23457 0.17566 0.68538
 C167 C 0.28439 0.15943 0.65615
 H168 H 0.27485 0.13168 0.63990
 C169 C 0.30687 0.23040 0.70011
 H170 H 0.31553 0.25832 0.71664
 C171 C 0.33049 0.20663 0.67488
 H172 H 0.35723 0.21655 0.67290
 N173 N 0.27344 0.21811 0.70495
 C174 C 0.19564 0.22968 0.81767
 H175 H 0.18999 0.26138 0.81338
 C176 C 0.17448 0.20564 0.84687
 H177 H 0.15270 0.21954 0.86516
 C178 C 0.23053 0.17362 0.79731
 H179 H 0.25241 0.16139 0.77776
 C180 C 0.21042 0.14843 0.82712
 H181 H 0.21691 0.11679 0.82951
 Zn182 Zn 0.24352 0.24766 0.74631
 N183 N 0.22190 0.21305 0.79173
 C184 C 0.17674 0.25392 0.70303
 N185 N 0.20872 0.27148 0.70623
 C186 C 0.21623 0.30565 0.68085
 C187 C 0.19019 0.32573 0.65510
 C188 C 0.15003 0.27260 0.67672
 C189 C 0.29609 0.26940 0.81059
 C190 C 0.31928 0.29385 0.83659
 C191 C 0.28578 0.35188 0.81269
 C192 C 0.26343 0.32620 0.78618
 N193 N 0.26965 0.28583 0.78431
 H194 H 0.17165 0.22575 0.72166
 H195 H 0.24218 0.31808 0.68204
 H196 H 0.19617 0.35408 0.63719
 H197 H 0.12433 0.25931 0.67637
 H198 H 0.29996 0.23714 0.80971
 H199 H 0.34088 0.28007 0.85564
 H200 H 0.28117 0.38403 0.81264
 H201 H 0.24147 0.33871 0.76691
 C202 C 0.18093 0.16402 0.85060
 C203 C 0.31961 0.16999 0.65377
 C204 C 0.31471 0.33576 0.83712
 C205 C 0.15643 0.30968 0.65391
 C206 C 0.77748 0.69515 0.67321
 H207 H 0.75073 0.68527 0.67213
 C208 C 0.80189 0.67697 0.64261
 H209 H 0.79354 0.65271 0.61857
 C210 C 0.82050 0.73900 0.70560
 H211 H 0.82758 0.76395 0.72919
 C212 C 0.84576 0.72169 0.67558
 H213 H 0.87215 0.73283 0.67764
 N214 N 0.78727 0.72484 0.70492
 C215 C 0.70081 0.72667 0.80998
 H216 H 0.69781 0.75905 0.81100
 C217 C 0.67747 0.70215 0.83529
 H218 H 0.65680 0.71644 0.85562
 C219 C 0.73147 0.66974 0.78156
 H220 H 0.75254 0.65727 0.76044
 C221 C 0.70924 0.64390 0.80785
 H222 H 0.71346 0.61170 0.80608
 Zn223 Zn 0.75316 0.74876 0.74596
 N224 N 0.72636 0.71032 0.78222
 C225 C 0.68952 0.77116 0.70239
 N226 N 0.72381 0.78029 0.70531
 C227 C 0.73717 0.81298 0.68154
 C228 C 0.71521 0.84005 0.65736
 C229 C 0.66674 0.79731 0.67896
 C230 C 0.80087 0.76560 0.82011
 C231 C 0.82239 0.78981 0.84907
 C232 C 0.78803 0.84755 0.82610
 C233 C 0.76748 0.82225 0.79685
 N234 N 0.77530 0.78245 0.79263
 H235 H 0.67952 0.74408 0.71928
 H236 H 0.76470 0.81911 0.68352
 H237 H 0.72600 0.86694 0.64067
 H238 H 0.63936 0.79000 0.67864
 H239 H 0.80596 0.73368 0.81690
 H240 H 0.84402 0.77628 0.86834
 H241 H 0.78273 0.87955 0.82699
 H242 H 0.74609 0.83477 0.77631
 C243 C 0.68104 0.65995 0.83414
 C244 C 0.83674 0.68977 0.64407
 C245 C 0.81678 0.83153 0.85081
 C246 C 0.67934 0.83297 0.65747
 C247 C 0.76468 0.18853 0.17716
 H248 H 0.73709 0.18275 0.17855
 C249 C 0.78626 0.16264 0.15054
 H250 H 0.77514 0.13695 0.13147
 C251 C 0.81302 0.22795 0.20217
 H252 H 0.82353 0.25348 0.22196
 C253 C 0.83528 0.20332 0.17602
 H254 H 0.86271 0.21034 0.17652
 N255 N 0.77868 0.21909 0.20439
 C256 C 0.70363 0.23015 0.32311
 H257 H 0.70138 0.26257 0.32537
 C258 C 0.68134 0.20561 0.35027
 H259 H 0.66179 0.21933 0.37327
 C260 C 0.73133 0.17287 0.28962
 H261 H 0.75110 0.16014 0.26644
 C262 C 0.71013 0.14716 0.31716
 H263 H 0.71313 0.11485 0.31380
 Zn264 Zn 0.75232 0.24897 0.25005
 N265 N 0.72670 0.21352 0.29140
 C266 C 0.68739 0.27927 0.21834
 N267 N 0.72223 0.28425 0.21399
 C268 C 0.73550 0.31311 0.18354
 C269 C 0.71347 0.33987 0.15861
 C270 C 0.66461 0.30522 0.19443
 C271 C 0.80499 0.25474 0.32080
 C272 C 0.83347 0.27232 0.34483
 C273 C 0.81717 0.33635 0.30969
 C274 C 0.78874 0.31778 0.28715
 N275 N 0.78401 0.27735 0.29134
 H276 H 0.67695 0.25495 0.24011
 H277 H 0.76325 0.31570 0.17901
 H278 H 0.72453 0.36309 0.13539
 H279 H 0.63705 0.30057 0.19931
 H280 H 0.80069 0.22258 0.32339
 H281 H 0.85079 0.25370 0.36638
 H282 H 0.82134 0.36834 0.30427
 H283 H 0.77153 0.33543 0.26453
 C284 C 0.68394 0.16357 0.34645
 C285 C 0.82223 0.16915 0.15156
 C286 C 0.84051 0.31333 0.33771
 C287 C 0.67743 0.33649 0.16460
 C288 C 0.26562 0.68727 0.18726
 H289 H 0.23779 0.68344 0.18571
 C290 C 0.28702 0.66098 0.16070
 H291 H 0.27544 0.63682 0.13931
 C292 C 0.31443 0.72374 0.21622
 H293 H 0.32525 0.74893 0.23626
 C294 C 0.33661 0.69838 0.19048
 H295 H 0.36420 0.70429 0.19238
 N296 N 0.27965 0.71711 0.21578
 C297 C 0.19783 0.74480 0.32406
 H298 H 0.20053 0.77725 0.32521
 C299 C 0.17015 0.72615 0.34844
 H300 H 0.15180 0.74429 0.36865
 C301 C 0.21741 0.68194 0.29388
 H302 H 0.23572 0.66474 0.27266
 C303 C 0.18998 0.66221 0.31705
 H304 H 0.18762 0.62981 0.31330
 Zn305 Zn 0.25068 0.75174 0.25429
 N306 N 0.21993 0.72272 0.29589
 C307 C 0.18939 0.77244 0.20702
 N308 N 0.22345 0.78248 0.21046
 C309 C 0.23679 0.81428 0.18495
 C310 C 0.21477 0.83970 0.15825
 C311 C 0.16668 0.79667 0.18087
 C312 C 0.30267 0.76931 0.32376
 C313 C 0.32514 0.79349 0.35140
 C314 C 0.29204 0.85173 0.32677
 C315 C 0.27092 0.82641 0.29828
 N316 N 0.27739 0.78621 0.29577
 H317 H 0.17951 0.74601 0.22552
 H318 H 0.26420 0.82102 0.18732
 H319 H 0.22536 0.86606 0.14014
 H320 H 0.13948 0.78852 0.18011
 H321 H 0.30630 0.73702 0.32294
 H322 H 0.34595 0.77900 0.37143
 H323 H 0.28663 0.88372 0.32691
 H324 H 0.24944 0.83906 0.27806
 C325 C 0.16527 0.68450 0.34336
 C326 C 0.32316 0.66595 0.16288
 C327 C 0.32067 0.83569 0.35239
 C328 C 0.17902 0.83161 0.15751
 O329 O 1.04800 0.06545 0.09453
 O330 O 1.08701 0.03211 0.04578
 C331 C 1.07927 0.05716 0.08079
 O332 O 0.95165 -0.08016 0.07794
 O333 O 0.91258 -0.03955 0.03814
 C334 C 0.92041 -0.07004 0.06590
 O335 O 1.04738 -0.07558 0.08550
 O336 O 1.08668 -0.03745 0.04232
 C337 C 1.07873 -0.06555 0.07364
 O338 O 0.95218 0.07001 0.08829
 O339 O 0.91290 0.03367 0.04234
 C340 C 0.92090 0.06141 0.07426
 Zr341 Zr 0.99989 0.04604 0.06630
 O342 O 0.99544 0.03919 0.14367
 O343 O 1.00347 0.10933 0.07465
 Zr344 Zr 0.99953 -0.05399 0.05987
 O345 O 0.99495 -0.05349 0.13768
 O346 O 1.00269 -0.11761 0.06048
 O347 O 1.03122 -0.00432 0.07300
 O348 O 0.96877 -0.00440 0.07164
 O349 O 0.95250 0.07941 -0.07403
 O350 O 0.91308 0.03651 -0.03829
 C351 C 0.92108 0.06814 -0.06400
 O352 O 1.04807 -0.07010 -0.08975
 O353 O 1.08697 -0.03437 -0.04238
 C354 C 1.07931 -0.06098 -0.07578
 O355 O 0.95205 -0.07585 -0.08361
 O356 O 0.91286 -0.03648 -0.04255
 C357 C 0.92071 -0.06594 -0.07185
 O358 O 1.04869 0.07480 -0.08008
 O359 O 1.08739 0.03495 -0.03821
 C360 C 1.07986 0.06423 -0.06794
 Zr361 Zr 1.00012 0.05132 -0.05851
 O362 O 0.99628 0.04797 -0.13631
 O363 O 1.00246 0.11468 -0.06547
 Zr364 Zr 0.99980 -0.04868 -0.06500
 O365 O 0.99586 -0.03865 -0.14191
 O366 O 1.00174 -0.11106 -0.08029
 Zr367 Zr 1.05199 -0.00127 0.00125
 Zr368 Zr 0.94761 -0.00142 0.00018
 O369 O 0.96888 0.00162 -0.07106
 O370 O 1.03166 0.00178 -0.07110
 O371 O 0.96963 0.05683 0.00420
 O372 O 1.02943 -0.05911 -0.00263
 O373 O 1.02982 0.05651 0.00480
 O374 O 0.96927 -0.05958 -0.00330
 H375 H 0.95250 -0.00561 0.09978
 H376 H 1.04416 -0.08344 -0.00338
 H377 H 0.95231 0.00270 -0.09905
 H378 H 1.04469 0.08087 0.00705
 H379 H 0.98875 -0.12757 0.03227
 H380 H 1.00354 -0.12484 -0.04812
 H381 H 1.01934 -0.03198 -0.15409
 H382 H 1.01974 0.04247 -0.14920
 H383 H 1.00409 0.12561 -0.03165
 H384 H 0.98890 0.12144 0.04856
 H385 H 1.01725 0.02726 0.15600
 H386 H 1.01695 -0.04293 0.15154
 O387 O 0.94193 0.44177 0.40312
 O388 O 0.96996 0.39704 0.45390
 C389 C 0.94849 0.40568 0.41827
 O390 O 1.06453 0.55437 0.41080
 O391 O 1.03209 0.60140 0.45203
 C392 C 1.05688 0.59109 0.42204
 O393 O 1.06240 0.44416 0.40994
 O394 O 1.03262 0.39823 0.45716
 C395 C 1.05555 0.40776 0.42389
 O396 O 0.93723 0.55212 0.40439
 O397 O 0.96687 0.60015 0.44906
 C398 C 0.94339 0.58905 0.41707
 Zr399 Zr 0.95836 0.49802 0.42954
 O400 O 0.96337 0.50137 0.35186
 O401 O 0.90382 0.49320 0.42307
 Zr402 Zr 1.04370 0.49962 0.43456
 O403 O 1.04312 0.50261 0.35652
 O404 O 1.09849 0.49710 0.43542
 O405 O 1.00158 0.46156 0.42366
 O406 O 1.00093 0.53490 0.42214
 O407 O 0.92991 0.55548 0.56764
 O408 O 0.96503 0.60207 0.52958
 C409 C 0.93804 0.59205 0.55571
 O410 O 1.05914 0.44815 0.58724
 O411 O 1.03074 0.40005 0.54117
 C412 C 1.05324 0.41116 0.57456
 O413 O 1.06475 0.55789 0.57389
 O414 O 1.03059 0.60325 0.53256
 C415 C 1.05677 0.59415 0.56082
 O416 O 0.93503 0.44570 0.57929
 O417 O 0.96774 0.39899 0.53779
 C418 C 0.94272 0.40905 0.56742
 Zr419 Zr 0.95512 0.50084 0.55420
 O420 O 0.96032 0.50505 0.63156
 O421 O 0.90066 0.49818 0.56195
 Zr422 Zr 1.04031 0.50261 0.55924
 O423 O 1.03260 0.50988 0.63600
 O424 O 1.09412 0.50070 0.57368
 Zr425 Zr 0.99994 0.43882 0.49633
 Zr426 Zr 0.99891 0.56167 0.49238
 O427 O 0.99716 0.53863 0.56459
 O428 O 0.99776 0.46464 0.56756
 O429 O 0.94933 0.53467 0.49017
 O430 O 1.04915 0.46653 0.49837
 O431 O 0.95026 0.46462 0.49247
 O432 O 1.04890 0.53655 0.49590
 H433 H 1.00139 0.55286 0.39297
 H434 H 1.07041 0.44999 0.49957
 H435 H 0.99633 0.55866 0.59170
 H436 H 0.92922 0.44744 0.49110
 H437 H 1.10675 0.51663 0.46050
 H438 H 1.10569 0.49829 0.54138
 H439 H 1.02551 0.48337 0.64944
 H440 H 0.93644 0.50678 0.64457
 H441 H 0.89097 0.49397 0.52856
 H442 H 0.89370 0.51140 0.44800
 H443 H 0.97357 0.47583 0.34015
 H444 H 1.03300 0.47719 0.34376
 O445 O 0.54893 0.07334 0.59249
 O446 O 0.58786 0.03710 0.54679
 C447 C 0.58020 0.06421 0.57956
 O448 O 0.45310 -0.07361 0.58753
 O449 O 0.41365 -0.03556 0.54474
 C450 C 0.42173 -0.06451 0.57486
 O451 O 0.54875 -0.06898 0.59253
 O452 O 0.58779 -0.03253 0.54674
 C453 C 0.58003 -0.05966 0.57950
 O454 O 0.45306 0.07674 0.58739
 O455 O 0.41368 0.03782 0.54482
 C456 C 0.42170 0.06701 0.57478
 Zr457 Zr 0.50081 0.05200 0.56630
 O458 O 0.49704 0.04831 0.64407
 O459 O 0.50407 0.11559 0.57037
 Zr460 Zr 0.50075 -0.04830 0.56626
 O461 O 0.49698 -0.04457 0.64403
 O462 O 0.50396 -0.11185 0.57026
 O463 O 0.53237 0.00204 0.57581
 O464 O 0.46994 0.00166 0.57527
 O465 O 0.45234 0.07963 0.42559
 O466 O 0.41327 0.03756 0.46356
 C467 C 0.42101 0.06840 0.43625
 O468 O 0.54819 -0.07064 0.41708
 O469 O 0.58745 -0.03237 0.46078
 C470 C 0.57955 -0.06050 0.42931
 O471 O 0.45225 -0.07658 0.42535
 O472 O 0.41321 -0.03502 0.46342
 C473 C 0.42093 -0.06572 0.43598
 O474 O 0.54833 0.07470 0.41714
 O475 O 0.58750 0.03685 0.46080
 C476 C 0.57967 0.06482 0.42930
 Zr477 Zr 0.50018 0.05194 0.44154
 O478 O 0.49552 0.04532 0.36412
 O479 O 0.50237 0.11492 0.43054
 Zr480 Zr 0.50011 -0.04838 0.44146
 O481 O 0.49550 -0.04183 0.36406
 O482 O 0.50220 -0.11134 0.43038
 Zr483 Zr 0.55284 0.00209 0.50376
 Zr484 Zr 0.44822 0.00145 0.50404
 O485 O 0.46908 0.00159 0.43248
 O486 O 0.53174 0.00196 0.43171
 O487 O 0.47002 0.05991 0.50413
 O488 O 0.53035 -0.05590 0.50383
 O489 O 0.53045 0.05984 0.50389
 O490 O 0.46996 -0.05672 0.50406
 H491 H 0.45389 0.00156 0.60371
 H492 H 0.54517 -0.08016 0.50422
 H493 H 0.45233 0.00149 0.40467
 H494 H 0.54533 0.08425 0.50428
 H495 H 0.48911 -0.12289 0.54362
 H496 H 0.50453 -0.12364 0.46337
 H497 H 0.51878 -0.03518 0.35112
 H498 H 0.51878 0.03891 0.35116
 H499 H 0.50483 0.12726 0.46354
 H500 H 0.48925 0.12642 0.54372
 H501 H 0.51909 0.03728 0.65677
 H502 H 0.51897 -0.03306 0.65673
 O503 O 0.54707 0.56862 0.08681
 O504 O 0.58645 0.53416 0.03984
 C505 C 0.57846 0.55993 0.07417
 O506 O 0.45143 0.42346 0.07794
 O507 O 0.41175 0.46167 0.03574
 C508 C 0.41994 0.43277 0.06607
 O509 O 0.54703 0.42750 0.08302
 O510 O 0.58643 0.46408 0.03799
 C511 C 0.57846 0.43707 0.07092
 O512 O 0.45175 0.57224 0.08178
 O513 O 0.41198 0.53550 0.03716
 C514 C 0.42027 0.56340 0.06899
 Zr515 Zr 0.49926 0.54855 0.05859
 O516 O 0.49530 0.54499 0.13635
 O517 O 0.50278 0.61218 0.06210
 Zr518 Zr 0.49917 0.44810 0.05596
 O519 O 0.49532 0.44891 0.13384
 O520 O 0.50239 0.38443 0.05604
 O521 O 0.53070 0.49832 0.06706
 O522 O 0.46849 0.49804 0.06635
 O523 O 0.45111 0.57717 -0.08415
 O524 O 0.41189 0.53513 -0.04643
 C525 C 0.41968 0.56576 -0.07421
 O526 O 0.54718 0.42851 -0.09365
 O527 O 0.58637 0.46573 -0.04843
 C528 C 0.57860 0.43849 -0.08120
 O529 O 0.45078 0.42363 -0.08749
 O530 O 0.41161 0.46305 -0.04624
 C531 C 0.41937 0.43374 -0.07600
 O532 O 0.54737 0.57393 -0.08951
 O533 O 0.58646 0.53529 -0.04668
 C534 C 0.57874 0.56364 -0.07781
 Zr535 Zr 0.49902 0.55055 -0.06590
 O536 O 0.49525 0.54536 -0.14359
 O537 O 0.50063 0.61386 -0.07393
 Zr538 Zr 0.49888 0.45022 -0.06843
 O539 O 0.49489 0.45758 -0.14581
 O540 O 0.50048 0.38723 -0.07956
 Zr541 Zr 0.55165 0.49961 -0.00468
 Zr542 Zr 0.44656 0.49916 -0.00469
 O543 O 0.46794 0.50034 -0.07605
 O544 O 0.53059 0.50070 -0.07677
 O545 O 0.46840 0.55761 -0.00340
 O546 O 0.52913 0.44165 -0.00626
 O547 O 0.52925 0.55734 -0.00325
 O548 O 0.46827 0.44091 -0.00634
 H549 H 0.45265 0.49756 0.09501
 H550 H 0.54416 0.41756 -0.00632
 H551 H 0.45160 0.50055 -0.10434
 H552 H 0.54431 0.58158 -0.00198
 H553 H 0.48494 0.37412 0.03228
 H554 H 0.50359 0.37488 -0.04675
 H555 H 0.51803 0.46551 -0.15818
 H556 H 0.51857 0.53880 -0.15625
 H557 H 0.50406 0.62520 -0.04058
 H558 H 0.48564 0.62314 0.03851
 H559 H 0.51626 0.53133 0.14894
 H560 H 0.51634 0.46231 0.14711
 N561 N 1.12051 0.13164 0.16098
 C562 C 1.15368 0.13239 0.14484
 N563 N 1.16324 0.10584 0.10919
 N564 N 1.14003 0.08040 0.08952
 C565 C 1.10666 0.08042 0.10538
 N566 N 1.09752 0.10630 0.14163
 N567 N 1.09793 0.68101 0.62295
 C568 C 1.13204 0.67073 0.61993
 N569 N 1.14056 0.63766 0.59343
 N570 N 1.11618 0.61507 0.57231
 C571 C 1.08220 0.62468 0.57610
 N572 N 1.07338 0.65835 0.60148
 N573 N 0.66545 0.11007 0.60906
 C574 C 0.65595 0.14049 0.63983
 N575 N 0.62206 0.14401 0.65186
 N576 N 0.59852 0.11877 0.63352
 C577 C 0.60774 0.08877 0.60237
 N578 N 0.64171 0.08477 0.59036
 N579 N 0.61805 0.63246 0.15940
 C580 C 0.65175 0.63327 0.14564
 N581 N 0.66211 0.60778 0.10915
 N582 N 0.63935 0.58320 0.08678
 C583 C 0.60549 0.58309 0.10045
 N584 N 0.59550 0.60803 0.13730
 N585 N 0.83513 -0.11279 0.09954
 C586 C 0.84488 -0.14738 0.12261
 N587 N 0.87908 -0.15591 0.12591
 N588 N 0.90265 -0.13104 0.10746
 C589 C 0.89313 -0.09647 0.08487
 N590 N 0.85888 -0.08778 0.08071
 N591 N 0.90221 0.32374 0.63332
 C592 C 0.86790 0.33317 0.62903
 N593 N 0.85929 0.36536 0.60081
 N594 N 0.88354 0.38785 0.57958
 C595 C 0.91759 0.37902 0.58474
 N596 N 0.92665 0.34625 0.61167
 N597 N 0.33669 -0.10994 0.60516
 C598 C 0.34653 -0.14195 0.63322
 N599 N 0.38075 -0.14737 0.64216
 N600 N 0.40421 -0.12220 0.62383
 C601 C 0.39457 -0.09039 0.59576
 N602 N 0.36032 -0.08467 0.58651
 N603 N 0.33554 0.38927 0.10589
 C604 C 0.34639 0.35852 0.13543
 N605 N 0.38091 0.35306 0.14135
 N606 N 0.40364 0.37694 0.11905
 C607 C 0.39308 0.40755 0.08965
 N608 N 0.35848 0.41335 0.08328
 N609 N 0.83568 0.10542 -0.10379
 C610 C 0.84356 0.14386 -0.11724
 N611 N 0.87672 0.15699 -0.11229
 N612 N 0.90115 0.13269 -0.09504
 C613 C 0.89339 0.09433 -0.08181
 N614 N 0.86014 0.08114 -0.08595
 N615 N 0.88646 0.67667 0.39680
 C616 C 0.86616 0.66254 0.35927
 N617 N 0.87411 0.62670 0.33851
 N618 N 0.90032 0.60506 0.35548
 C619 C 0.91999 0.61823 0.39383
 N620 N 0.91280 0.65470 0.41414
 N621 N 0.37383 0.15772 0.39483
 C622 C 0.34353 0.14197 0.37755
 N623 N 0.33844 0.10141 0.38157
 N624 N 0.36260 0.07781 0.40149
 C625 C 0.39307 0.09380 0.41743
 N626 N 0.39816 0.13413 0.41390
 N627 N 0.33447 0.59868 -0.12252
 C628 C 0.34185 0.63687 -0.13768
 N629 N 0.37458 0.65114 -0.13130
 N630 N 0.39899 0.62833 -0.11101
 C631 C 0.39171 0.59034 -0.09565
 N632 N 0.35891 0.57590 -0.10158
 N633 N 1.12309 -0.14602 -0.13347
 C634 C 1.15696 -0.13532 -0.13034
 N635 N 1.16548 -0.09896 -0.11039
 N636 N 1.14088 -0.07462 -0.09324
 C637 C 1.10697 -0.08550 -0.09666
 N638 N 1.09861 -0.12157 -0.11705
 N639 N 1.11930 0.36717 0.33942
 C640 C 1.13212 0.33521 0.36432
 N641 N 1.11623 0.32357 0.40684
 N642 N 1.08964 0.34461 0.42488
 C643 C 1.07768 0.37748 0.40038
 N644 N 1.09281 0.38784 0.35714
 N645 N 0.66498 -0.09622 0.38739
 C646 C 0.65682 -0.13386 0.37092
 N647 N 0.62343 -0.14651 0.37333
 N648 N 0.59909 -0.12261 0.39140
 C649 C 0.60712 -0.08518 0.40815
 N650 N 0.64059 -0.07240 0.40621
 N651 N 0.66490 0.40542 -0.12436
 C652 C 0.65717 0.36875 -0.14422
 N653 N 0.62371 0.35599 -0.14391
 N654 N 0.59897 0.37874 -0.12458
 C655 C 0.60659 0.41509 -0.10422
 N656 N 0.64008 0.42805 -0.10433
 N657 N 1.12569 0.15345 -0.11223
 C658 C 1.15699 0.13873 -0.12569
 N659 N 1.16328 0.09880 -0.11857
 N660 N 1.13916 0.07472 -0.09907
 C661 C 1.10767 0.08967 -0.08694
 N662 N 1.10149 0.12941 -0.09359
 N663 N 1.11639 0.67702 0.40263
 C664 C 1.13390 0.66393 0.36215
 N665 N 1.12279 0.63000 0.33923
 N666 N 1.09633 0.60898 0.35695
 C667 C 1.07953 0.62091 0.39822
 N668 N 1.08980 0.65564 0.42071
 N669 N 0.62441 0.15046 0.37251
 C670 C 0.65757 0.13749 0.36949
 N671 N 0.66526 0.09986 0.38597
 N672 N 0.64065 0.07633 0.40532
 C673 C 0.60742 0.08940 0.40783
 N674 N 0.59984 0.12683 0.39112
 N675 N 0.66102 0.59467 -0.13681
 C676 C 0.65626 0.63509 -0.14238
 N677 N 0.62622 0.65123 -0.12568
 N678 N 0.60191 0.62824 -0.10516
 C679 C 0.60671 0.58809 -0.09949
 N680 N 0.63686 0.57165 -0.11535
 N681 N 0.87653 -0.15357 -0.12521
 C682 C 0.84297 -0.14181 -0.12645
 N683 N 0.83482 -0.10443 -0.10966
 N684 N 0.85941 -0.07993 -0.09186
 C685 C 0.89303 -0.09178 -0.09123
 N686 N 0.90106 -0.12903 -0.10804
 N687 N 0.88719 0.32170 0.40050
 C688 C 0.87259 0.33240 0.35664
 N689 N 0.88687 0.36322 0.33100
 N690 N 0.91349 0.38387 0.34931
 C691 C 0.92725 0.37461 0.39395
 N692 N 0.91389 0.34273 0.41912
 N693 N 0.37383 -0.15555 0.39404
 C694 C 0.34390 -0.14010 0.37566
 N695 N 0.33894 -0.09956 0.37930
 N696 N 0.36290 -0.07569 0.39985
 C697 C 0.39302 -0.09139 0.41687
 N698 N 0.39797 -0.13170 0.41374
 N699 N 0.37451 0.34897 -0.13613
 C700 C 0.34128 0.36189 -0.13924
 N701 N 0.33354 0.39900 -0.12107
 N702 N 0.35812 0.42204 -0.10034
 C703 C 0.39140 0.40897 -0.09764
 N704 N 0.39904 0.37206 -0.11602
 N705 N 1.11982 -0.14470 0.14603
 C706 C 1.15387 -0.14028 0.13531
 N707 N 1.16371 -0.10961 0.10502
 N708 N 1.14011 -0.08488 0.08562
 C709 C 1.10599 -0.08981 0.09640
 N710 N 1.09642 -0.12009 0.12697
 N711 N 1.12871 0.37444 0.64198
 C712 C 1.12794 0.33426 0.63393
 N713 N 1.10086 0.31815 0.60798
 N714 N 1.07602 0.34187 0.58957
 C715 C 1.07716 0.38231 0.59764
 N716 N 1.10388 0.39783 0.62434
 N717 N 0.66438 -0.10732 0.60632
 C718 C 0.65454 -0.13721 0.63778
 N719 N 0.62088 -0.13946 0.65150
 N720 N 0.59782 -0.11363 0.63397
 C721 C 0.60732 -0.08424 0.60202
 N722 N 0.64111 -0.08142 0.58843
 N723 N 0.66289 0.39197 0.10584
 C724 C 0.65274 0.36466 0.14051
 N725 N 0.61876 0.36294 0.15276
 N726 N 0.59580 0.38681 0.13111
 C727 C 0.60565 0.41370 0.09620
 N728 N 0.63974 0.41601 0.08393
 N729 N 0.83680 0.10975 0.09966
 C730 C 0.84689 0.13987 0.13078
 N731 N 0.88068 0.14241 0.14413
 N732 N 0.90364 0.11656 0.12677
 C733 C 0.89388 0.08683 0.09538
 N734 N 0.85999 0.08377 0.08194
 N735 N 0.89746 0.67951 0.61588
 C736 C 0.86346 0.66800 0.61534
 N737 N 0.85462 0.63373 0.59111
 N738 N 0.87864 0.61121 0.56983
 C739 C 0.91256 0.62208 0.57119
 N740 N 0.92164 0.65694 0.59421
 N741 N 0.33616 0.10962 0.60517
 C742 C 0.34554 0.14263 0.63204
 N743 N 0.37970 0.14971 0.64022
 N744 N 0.40355 0.12513 0.62227
 C745 C 0.39433 0.09233 0.59537
 N746 N 0.36016 0.08498 0.58689
 N747 N 0.38182 0.64148 0.14668
 C748 C 0.34738 0.63798 0.13769
 N749 N 0.33635 0.60869 0.10587
 N750 N 0.35905 0.58427 0.08378
 C751 C 0.39357 0.58822 0.09303
 N752 N 0.40430 0.61724 0.12491
   
