data_POSCAR
  _audit_creation_date              2014-09-24
  _audit_creation_method            'ToBaCCo'
  _symmetry_space_group_name_H-M    'P1'
  _symmetry_Int_Tables_number       1
  _symmetry_cell_setting            triclinic
  loop_
  _symmetry_equiv_pos_as_xyz
 x,y,z
_cell_length_a 44.4544
_cell_length_b 44.4546
_cell_length_c 46.3463
_cell_angle_alpha 89.866300
_cell_angle_beta 90.034000
_cell_angle_gamma 89.696600
loop_
  _atom_site_label
  _atom_site_type_symbol
  _atom_site_fract_x
  _atom_site_fract_y
  _atom_site_fract_z
N1 N 0.14020 0.14907 0.22464
 N2 N 0.16580 0.13432 0.22520
 C3 C 0.16684 0.11679 0.24880
 C4 C 0.14030 0.12046 0.26408
 C5 C 0.12373 0.14103 0.24783
 H6 H 0.18547 0.10216 0.25410
 H7 H 0.10193 0.15040 0.25305
 Cu8 Cu 0.19526 0.13908 0.19498
 Cu9 Cu 0.13220 0.17944 0.19505
 Cu10 Cu 0.18479 0.18646 0.13934
 N11 N 0.22498 0.14349 0.16510
 N12 N 0.21994 0.15933 0.14160
 C13 C 0.24386 0.15611 0.12375
 C14 C 0.26533 0.13840 0.13769
 C15 C 0.25236 0.13093 0.16375
 H16 H 0.24636 0.16746 0.10324
 H17 H 0.26189 0.11658 0.18026
 N18 N 0.14791 0.21191 0.14221
 N19 N 0.12828 0.20890 0.16341
 C20 C 0.10706 0.23032 0.16093
 C21 C 0.11327 0.24797 0.13707
 C22 C 0.13946 0.23560 0.12568
 H23 H 0.08907 0.23354 0.17625
 H24 H 0.15187 0.24369 0.10720
 H25 H 0.15692 0.15918 0.16245
 H26 H 0.17656 0.18904 0.18302
 N27 N -0.12837 0.84256 0.21654
 N28 N -0.14801 0.86466 0.21903
 C29 C -0.14232 0.87997 0.24354
 C30 C -0.11811 0.86641 0.25725
 C31 C -0.10992 0.84273 0.23956
 H32 H -0.15578 0.89837 0.25176
 H33 H -0.09223 0.82643 0.24352
 Cu34 Cu -0.18115 0.86784 0.19164
 Cu35 Cu -0.12878 0.81421 0.18419
 Cu36 Cu -0.18185 0.82864 0.13051
 N37 N -0.21531 0.87040 0.16535
 N38 N -0.21444 0.85619 0.14054
 C39 C -0.23976 0.86213 0.12564
 C40 C -0.25820 0.88032 0.14240
 C41 C -0.24182 0.88504 0.16757
 H42 H -0.24495 0.85243 0.10486
 H43 H -0.24845 0.89840 0.18597
 N44 N -0.15352 0.79440 0.12926
 N45 N -0.13308 0.78894 0.14934
 C46 C -0.11879 0.76293 0.14298
 C47 C -0.13129 0.75133 0.11810
 C48 C -0.15332 0.77170 0.11011
 H49 H -0.10202 0.75213 0.15642
 H50 H -0.16897 0.76940 0.09238
 H51 H -0.14707 0.84447 0.15680
 H52 H -0.17409 0.81748 0.17327
 N53 N -0.14489 0.16114 -0.22846
 N54 N -0.16276 0.13801 -0.22503
 C55 C -0.16234 0.12109 -0.24899
 C56 C -0.14258 0.13406 -0.26815
 C57 C -0.13173 0.15938 -0.25455
 H58 H -0.17530 0.10085 -0.25220
 H59 H -0.11629 0.17572 -0.26337
 Cu60 Cu -0.18407 0.13177 -0.18946
 Cu61 Cu -0.14223 0.19238 -0.19941
 Cu62 Cu -0.19173 0.18767 -0.14117
 N63 N -0.21473 0.13097 -0.16045
 N64 N -0.21895 0.15262 -0.14163
 C65 C -0.24230 0.14488 -0.12439
 C66 C -0.25264 0.11659 -0.13289
 C67 C -0.23459 0.10902 -0.15606
 H68 H -0.25043 0.15833 -0.10658
 H69 H -0.23594 0.08930 -0.16951
 N70 N -0.16158 0.22053 -0.14567
 N71 N -0.14309 0.22166 -0.16798
 C72 C -0.12335 0.24392 -0.16413
 C73 C -0.12920 0.25763 -0.13815
 C74 C -0.15383 0.24251 -0.12694
 H75 H -0.10499 0.24902 -0.17858
 H76 H -0.16392 0.24593 -0.10597
 H77 H -0.15600 0.16884 -0.16231
 H78 H -0.18642 0.18589 -0.18496
 N79 N 0.14151 0.84190 -0.22726
 N80 N 0.15995 0.86435 -0.22286
 C81 C 0.15773 0.88416 -0.24446
 C82 C 0.13597 0.87438 -0.26338
 C83 C 0.12625 0.84711 -0.25205
 H84 H 0.16997 0.90508 -0.24539
 H85 H 0.10821 0.83325 -0.26015
 Cu86 Cu 0.18104 0.86942 -0.18731
 Cu87 Cu 0.13849 0.80967 -0.19852
 Cu88 Cu 0.18846 0.81311 -0.13996
 N89 N 0.21240 0.86912 -0.15921
 N90 N 0.21639 0.84740 -0.14038
 C91 C 0.24060 0.85425 -0.12393
 C92 C 0.25182 0.88202 -0.13311
 C93 C 0.23327 0.89022 -0.15573
 H94 H 0.24895 0.84042 -0.10641
 H95 H 0.23493 0.90970 -0.16954
 N96 N 0.15791 0.78094 -0.14459
 N97 N 0.13958 0.77965 -0.16707
 C98 C 0.12224 0.75516 -0.16464
 C99 C 0.12972 0.74029 -0.13947
 C100 C 0.15226 0.75730 -0.12709
 H101 H 0.10534 0.74847 -0.18008
 H102 H 0.16423 0.75226 -0.10732
 H103 H 0.15233 0.83202 -0.16137
 H104 H 0.18255 0.81509 -0.18417
 N105 N 0.15301 1.12376 0.78761
 N106 N 0.13146 1.14419 0.78638
 C107 C 0.11524 1.13996 0.76207
 C108 C 0.12744 1.11575 0.74725
 C109 C 0.15133 1.10609 0.76413
 H110 H 0.09744 1.15470 0.75457
 H111 H 0.16721 1.08837 0.75901
 Cu112 Cu 0.13036 1.17704 0.81448
 Cu113 Cu 0.18325 1.12272 0.81854
 Cu114 Cu 0.19169 1.19098 0.85297
 N115 N 0.12979 1.20798 0.84467
 N116 N 0.15429 1.21231 0.86000
 C117 C 0.15083 1.23680 0.87646
 C118 C 0.12273 1.24889 0.87138
 C119 C 0.10980 1.23009 0.85095
 H120 H 0.16856 1.24681 0.88916
 H121 H 0.08890 1.23397 0.83954
 N122 N 0.22234 1.15925 0.85418
 N123 N 0.21872 1.13233 0.84279
 C124 C 0.24343 1.11552 0.84867
 C125 C 0.26346 1.13313 0.86410
 C126 C 0.24931 1.16058 0.86713
 H127 H 0.24713 1.09275 0.84126
 H128 H 0.25803 1.18007 0.87821
 H129 H 0.16610 1.15412 0.84800
 H130 H 0.18460 1.16772 0.81433
 N131 N 0.84201 0.87662 0.78581
 N132 N 0.86555 0.85872 0.78372
 C133 C 0.87952 0.86397 0.75838
 C134 C 0.86360 0.88611 0.74375
 C135 C 0.83996 0.89359 0.76181
 H136 H 0.89903 0.85180 0.75065
 H137 H 0.82240 0.90999 0.75769
 Cu138 Cu 0.87443 0.82911 0.81367
 Cu139 Cu 0.81602 0.87672 0.81966
 Cu140 Cu 0.81956 0.81157 0.86079
 N141 N 0.87672 0.79320 0.83775
 N142 N 0.85557 0.78687 0.85660
 C143 C 0.86272 0.76107 0.87033
 C144 C 0.88953 0.75039 0.85915
 C145 C 0.89773 0.77126 0.83840
 H146 H 0.84889 0.75024 0.88644
 H147 H 0.91734 0.77034 0.82462
 N148 N 0.78532 0.83990 0.86217
 N149 N 0.78495 0.86574 0.84807
 C150 C 0.75916 0.88049 0.85420
 C151 C 0.74244 0.86279 0.87267
 C152 C 0.75952 0.83720 0.87712
 H153 H 0.75231 0.90172 0.84475
 H154 H 0.75340 0.81801 0.89019
 H155 H 0.83996 0.85081 0.84979
 H156 H 0.82027 0.83087 0.81997
 N157 N 0.15979 0.86401 1.22627
 N158 N 0.13906 0.84313 1.22824
 C159 C 0.12209 0.84820 1.25168
 C160 C 0.13257 0.87358 1.26528
 C161 C 0.15670 0.88311 1.24872
 H162 H 0.10486 0.83324 1.25963
 H163 H 0.17223 0.90097 1.25387
 Cu164 Cu 0.13891 0.80819 1.20348
 Cu165 Cu 0.19147 0.86125 1.19703
 Cu166 Cu 0.17693 0.81087 1.14125
 N167 N 0.13082 0.78027 1.17260
 N168 N 0.14515 0.78155 1.14787
 C169 C 0.13590 0.75869 1.13100
 C170 C 0.11480 0.74217 1.14622
 C171 C 0.11209 0.75669 1.17245
 H172 H 0.14501 0.75351 1.10995
 H173 H 0.09792 0.75026 1.19036
 N174 N 0.20837 0.84195 1.13925
 N175 N 0.21486 0.86036 1.16069
 C176 C 0.23830 0.87774 1.15279
 C177 C 0.24662 0.86999 1.12498
 C178 C 0.22720 0.84728 1.11718
 H179 H 0.24805 0.89525 1.16592
 H180 H 0.22710 0.83528 1.09693
 H181 H 0.16042 0.84349 1.16935
 H182 H 0.18925 0.81668 1.18344
 N183 N 0.85914 1.13717 1.21487
 N184 N 0.87459 1.16220 1.21259
 C185 C 0.89433 1.16362 1.23458
 C186 C 0.89128 1.13795 1.25125
 C187 C 0.86888 1.12159 1.23801
 H188 H 0.90889 1.18248 1.23893
 H189 H 0.85869 1.10119 1.24608
 Cu190 Cu 0.86561 1.19161 1.18256
 Cu191 Cu 0.82372 1.12951 1.19155
 Cu192 Cu 0.80400 1.18378 1.14111
 N193 N 0.85582 1.22044 1.15224
 N194 N 0.83106 1.21770 1.13698
 C195 C 0.82909 1.24062 1.11812
 C196 C 0.85403 1.25870 1.12154
 C197 C 0.87061 1.24519 1.14337
 H198 H 0.81115 1.24356 1.10259
 H199 H 0.89160 1.25306 1.15232
 N200 N 0.77992 1.14755 1.14822
 N201 N 0.78835 1.12621 1.16637
 C202 C 0.76873 1.10336 1.16482
 C203 C 0.74685 1.11067 1.14480
 C204 C 0.75455 1.13889 1.13475
 H205 H 0.77024 1.08283 1.17728
 H206 H 0.74322 1.15153 1.11797
 H207 H 0.83663 1.15457 1.15586
 H208 H 0.81372 1.17436 1.18389
 O209 O 0.46622 1.05740 1.05349
 O210 O 0.42927 1.03559 1.02609
 C211 C 0.43830 1.05394 1.04602
 O212 O 0.55145 1.04324 0.95229
 O213 O 0.57863 1.00947 0.97959
 C214 C 0.57634 1.03007 0.95982
 O215 O 0.46850 1.05887 0.95230
 O216 O 0.43049 1.03556 0.97701
 C217 C 0.44023 1.05502 0.95844
 O218 O 0.54901 1.04036 1.05801
 O219 O 0.57759 1.00786 1.03074
 C220 C 0.57429 1.02720 1.05136
 Zr221 Zr 0.50532 1.03422 1.04019
 O222 O 0.51601 1.08049 1.04223
 O223 O 0.50243 1.03021 1.08555
 Zr224 Zr 0.50731 1.03563 0.96757
 O225 O 0.51813 1.08189 0.97033
 O226 O 0.50601 1.03796 0.92199
 O227 O 0.48064 1.04538 1.00329
 O228 O 0.53318 1.03569 1.00464
 O229 O 0.53118 0.94065 1.05881
 O230 O 0.56905 0.95984 1.03072
 C231 C 0.55938 0.94386 1.05221
 O232 O 0.45127 0.95056 0.95115
 O233 O 0.42283 0.98522 0.97593
 C234 C 0.42602 0.96378 0.95729
 O235 O 0.53480 0.93869 0.95140
 O236 O 0.57110 0.96025 0.97962
 C237 C 0.56256 0.94195 0.95952
 O238 O 0.44703 0.94874 1.04997
 O239 O 0.42054 0.98347 1.02320
 C240 C 0.42206 0.96070 1.04063
 Zr241 Zr 0.49238 0.95959 1.03922
 O242 O 0.48885 0.91214 1.04003
 O243 O 0.48860 0.96255 1.08459
 Zr244 Zr 0.49513 0.96023 0.96635
 O245 O 0.49050 0.91286 0.96620
 O246 O 0.49335 0.96163 0.92070
 Zr247 Zr 0.45590 1.00508 1.00190
 Zr248 Zr 0.54418 0.98964 1.00429
 O249 O 0.51873 0.94995 1.00359
 O250 O 0.46645 0.95876 1.00179
 O251 O 0.52500 0.99228 1.04576
 O252 O 0.47588 1.00234 0.96083
 O253 O 0.47264 1.00130 1.04414
 O254 O 0.52770 0.99347 0.96183
 H255 H 0.54970 1.05055 1.00543
 H256 H 0.46326 1.00479 0.94334
 H257 H 0.52953 0.93041 1.00418
 H258 H 0.45839 1.00293 1.06051
 H259 H 0.51862 1.02128 0.91461
 H260 H 0.51268 0.96988 0.91377
 H261 H 0.47208 0.90796 0.97717
 H262 H 0.47316 0.90660 1.02591
 H263 H 0.48449 0.94186 1.09149
 H264 H 0.50552 1.05072 1.09331
 H265 H 0.50225 1.09115 1.02886
 H266 H 0.50063 1.09253 0.97876
 O267 O 0.06179 0.45691 -0.04159
 O268 O 0.02892 0.42346 -0.02125
 C269 C 0.05247 0.42974 -0.03665
 O270 O 0.03940 0.54005 0.06121
 O271 O 0.01972 0.57431 0.02908
 C272 C 0.03363 0.56736 0.05286
 O273 O 0.04318 0.45610 0.05846
 O274 O 0.02028 0.42350 0.02708
 C275 C 0.03631 0.42927 0.04968
 O276 O 0.05834 0.54060 -0.04653
 O277 O 0.02836 0.57460 -0.02266
 C278 C 0.04908 0.56773 -0.04131
 Zr279 Zr 0.04308 0.49910 -0.03046
 O280 O 0.08990 0.50238 -0.02295
 O281 O 0.04892 0.49731 -0.07572
 Zr282 Zr 0.03074 0.49862 0.04089
 O283 O 0.07814 0.50170 0.04466
 O284 O 0.02695 0.49559 0.08624
 O285 O 0.04270 0.47167 0.00607
 O286 O 0.04241 0.52552 0.00620
 O287 O -0.04093 0.54188 -0.06225
 O288 O -0.02069 0.57509 -0.02971
 C289 C -0.03477 0.56890 -0.05351
 O290 O -0.06533 0.45803 0.03695
 O291 O -0.03144 0.42422 0.01820
 C292 C -0.05619 0.43087 0.03161
 O293 O -0.06231 0.54167 0.04121
 O294 O -0.03009 0.57506 0.01974
 C295 C -0.05333 0.56876 0.03553
 O296 O -0.04578 0.45727 -0.05952
 O297 O -0.02135 0.42422 -0.02927
 C298 C -0.03831 0.43030 -0.05118
 Zr299 Zr -0.03153 0.49965 -0.04299
 O300 O -0.07816 0.50357 -0.05172
 O301 O -0.02039 0.49828 -0.08731
 Zr302 Zr -0.04427 0.49957 0.02872
 O303 O -0.09150 0.50279 0.02449
 O304 O -0.04972 0.49595 0.07402
 Zr305 Zr -0.00071 0.45426 -0.00099
 Zr306 Zr -0.00046 0.54447 -0.00059
 O307 O -0.04328 0.52593 -0.00805
 O308 O -0.04387 0.47286 -0.00819
 O309 O 0.00674 0.52614 -0.04192
 O310 O -0.00803 0.47291 0.04008
 O311 O 0.00667 0.47319 -0.04197
 O312 O -0.00779 0.52583 0.04070
 H313 H 0.05946 0.53951 0.00882
 H314 H -0.01161 0.45924 0.05664
 H315 H -0.06070 0.53953 -0.01130
 H316 H 0.00969 0.46000 -0.05894
 H317 H 0.00649 0.50273 0.09110
 H318 H -0.04343 0.51523 0.08273
 H319 H -0.09626 0.49715 0.00442
 H320 H -0.08825 0.48629 -0.04244
 H321 H -0.03975 0.49823 -0.09792
 H322 H 0.07093 0.49692 -0.07917
 H323 H 0.09558 0.48558 -0.00999
 H324 H 0.08681 0.48167 0.04028
 O325 O 0.93913 0.05791 0.53430
 O326 O 0.96605 0.03302 0.56932
 C327 C 0.94504 0.05145 0.56100
 O328 O 0.94592 -0.05306 0.45971
 O329 O 0.97419 -0.02574 0.42764
 C330 C 0.95510 -0.04678 0.43379
 O331 O 0.93652 -0.04391 0.53977
 O332 O 0.96510 -0.01742 0.57213
 C333 C 0.94332 -0.03558 0.56582
 O334 O 0.95042 0.05999 0.45486
 O335 O 0.97670 0.02790 0.42533
 C336 C 0.95944 0.05112 0.42968
 Zr337 Zr 0.96017 0.04286 0.49615
 O338 O 0.91330 0.04704 0.48930
 O339 O 0.96573 0.09004 0.49687
 Zr340 Zr 0.95668 -0.03280 0.49967
 O341 O 0.90967 -0.02947 0.49276
 O342 O 0.95279 -0.07981 0.50563
 O343 O 0.95100 0.00654 0.52321
 O344 O 0.95429 0.00402 0.47231
 O345 O 1.05445 0.05217 0.46048
 O346 O 1.02685 0.02449 0.42817
 C347 C 1.04788 0.04343 0.43454
 O348 O 1.04750 -0.04870 0.54593
 O349 O 1.01798 -0.01842 0.57447
 C350 C 1.03918 -0.03810 0.57078
 O351 O 1.04855 -0.05540 0.46512
 O352 O 1.02469 -0.02730 0.43033
 C353 C 1.04304 -0.04850 0.43836
 O354 O 1.05259 0.05296 0.54088
 O355 O 1.01974 0.03102 0.57264
 C356 C 1.04310 0.04745 0.56684
 Zr357 Zr 1.03523 0.03965 0.50045
 O358 O 1.08262 0.04320 0.50219
 O359 O 1.03086 0.08696 0.49877
 Zr360 Zr 1.03222 -0.03639 0.50404
 O361 O 1.07972 -0.03975 0.50400
 O362 O 1.02866 -0.08356 0.50955
 Zr363 Zr 0.99364 0.00556 0.54323
 Zr364 Zr 0.99865 0.00105 0.45690
 O365 O 1.04081 0.00004 0.47766
 O366 O 1.03823 0.00270 0.52795
 O367 O 0.99959 0.04568 0.47218
 O368 O 0.99278 -0.03876 0.52733
 O369 O 0.99644 0.04808 0.52364
 O370 O 0.99581 -0.04181 0.47639
 H371 H 0.93771 0.00425 0.45800
 H372 H 0.99147 -0.05562 0.54129
 H373 H 1.05940 -0.00165 0.46600
 H374 H 0.99635 0.06598 0.53635
 H375 H 0.96892 -0.08940 0.49417
 H376 H 1.02014 -0.09197 0.49159
 H377 H 1.08733 -0.02435 0.51752
 H378 H 1.09087 0.02297 0.49811
 H379 H 1.05154 0.09492 0.50057
 H380 H 0.94522 0.09883 0.49587
 H381 H 0.90355 0.03147 0.50126
 H382 H 0.90082 -0.01873 0.50942
 C383 C 1.09696 0.09425 0.32817
 C384 C 1.11955 0.08010 0.34328
 C385 C 1.14887 0.07813 0.33342
 C386 C 1.15541 0.09140 0.30680
 C387 C 1.13282 0.10686 0.29060
 C388 C 1.10305 0.10833 0.30180
 O389 O 1.07041 0.09265 0.34131
 C390 C 1.07662 0.07733 0.36530
 C391 C 1.10650 0.06947 0.36754
 C392 C 1.11838 0.05403 0.39104
 C393 C 1.09861 0.04630 0.41328
 C394 C 1.06762 0.05349 0.41128
 C395 C 1.05629 0.06907 0.38690
 H396 H 1.16617 0.06665 0.34573
 H397 H 1.17844 0.09004 0.29953
 H398 H 1.08500 0.11949 0.29025
 H399 H 1.14203 0.04826 0.39225
 H400 H 1.10725 0.03414 0.43183
 H401 H 1.03264 0.07474 0.38504
 C402 C 0.90983 -0.09245 0.32340
 C403 C 0.91489 -0.11637 0.34168
 C404 C 0.91016 -0.14607 0.33360
 C405 C 0.89973 -0.15139 0.30550
 C406 C 0.89364 -0.12716 0.28639
 C407 C 0.89863 -0.09721 0.29554
 O408 O 0.91661 -0.06608 0.33519
 C409 C 0.92593 -0.07356 0.36154
 C410 C 0.92495 -0.10404 0.36663
 C411 C 0.93281 -0.11685 0.39297
 C412 C 0.94214 -0.09748 0.41501
 C413 C 0.94409 -0.06603 0.41022
 C414 C 0.93600 -0.05387 0.38300
 H415 H 0.91451 -0.16451 0.34834
 H416 H 0.89583 -0.17436 0.29880
 H417 H 0.89436 -0.07833 0.28129
 H418 H 0.93162 -0.14089 0.39650
 H419 H 0.94843 -0.10702 0.43570
 H420 H 0.93709 -0.02991 0.37887
 C421 C 0.89878 0.10498 0.66709
 C422 C 0.87525 0.10159 0.64809
 C423 C 0.84564 0.10867 0.65508
 C424 C 0.84004 0.11954 0.68293
 C425 C 0.86400 0.12369 0.70262
 C426 C 0.89381 0.11659 0.69460
 O427 O 0.92495 0.09558 0.65656
 C428 C 0.91778 0.08622 0.63029
 C429 C 0.88770 0.08971 0.62399
 C430 C 0.87527 0.08164 0.59765
 C431 C 0.89467 0.06949 0.57688
 C432 C 0.92566 0.06517 0.58301
 C433 C 0.93738 0.07352 0.61017
 H434 H 0.82748 0.10544 0.63986
 H435 H 0.81715 0.12483 0.68920
 H436 H 0.91230 0.11912 0.70961
 H437 H 0.85153 0.08462 0.59323
 H438 H 0.88546 0.06287 0.55622
 H439 H 0.96097 0.07046 0.61533
 C440 C 1.09772 -0.10045 0.66735
 C441 C 1.10030 -0.06985 0.67056
 C442 C 1.11339 -0.05641 0.69430
 C443 C 1.12469 -0.07527 0.71577
 C444 C 1.12282 -0.10706 0.71330
 C445 C 1.10878 -0.11992 0.68878
 O446 O 1.08388 -0.10805 0.64294
 C447 C 1.07762 -0.08155 0.63076
 C448 C 1.08727 -0.05765 0.64707
 C449 C 1.08256 -0.02786 0.63946
 C450 C 1.06677 -0.02229 0.61404
 C451 C 1.05644 -0.04622 0.59661
 C452 C 1.06225 -0.07643 0.60476
 H453 H 1.11476 -0.03220 0.69629
 H454 H 1.13453 -0.06479 0.73455
 H455 H 1.10692 -0.14406 0.68636
 H456 H 1.09039 -0.00955 0.65282
 H457 H 1.06257 0.00077 0.60787
 H458 H 1.05428 -0.09504 0.59187
 C459 C 0.33068 1.11417 1.09279
 C460 C 0.35095 1.10821 1.11447
 C461 C 0.34482 1.11273 1.14340
 C462 C 0.31626 1.12332 1.15061
 C463 C 0.29444 1.12997 1.12897
 C464 C 0.30222 1.12624 1.09940
 O465 O 0.34074 1.10567 1.06692
 C466 C 0.36795 1.09434 1.07265
 C467 C 0.37512 1.09586 1.10147
 C468 C 0.40190 1.08512 1.11288
 C469 C 0.42248 1.07229 1.09383
 C470 C 0.41587 1.06968 1.06399
 C471 C 0.38801 1.08073 1.05312
 H472 H 0.36117 1.10744 1.15999
 H473 H 0.31149 1.12672 1.17325
 H474 H 0.28607 1.13050 1.08237
 H475 H 0.40673 1.08640 1.13572
 H476 H 0.44339 1.06356 1.10255
 H477 H 0.38223 1.07877 1.03050
 C478 C 0.32117 0.90554 0.90623
 C479 C 0.32386 0.93427 0.89560
 C480 C 0.30382 0.94692 0.87627
 C481 C 0.27988 0.92925 0.86717
 C482 C 0.27609 0.89914 0.87735
 C483 C 0.29714 0.88731 0.89759
 O484 O 0.34315 0.89826 0.92452
 C485 C 0.35980 0.92307 0.92534
 C486 C 0.34871 0.94570 0.90800
 C487 C 0.36195 0.97380 0.90558
 C488 C 0.38777 0.97898 0.92192
 C489 C 0.39964 0.95629 0.94011
 C490 C 0.38581 0.92772 0.94172
 H491 H 0.30650 0.96970 0.86840
 H492 H 0.26421 0.93982 0.85249
 H493 H 0.29534 0.86462 0.90589
 H494 H 0.35270 0.99113 0.89169
 H495 H 0.39880 1.00057 0.92028
 H496 H 0.39462 0.91016 0.95563
 C497 C 0.67227 0.89947 1.10137
 C498 C 0.65392 0.90883 1.12345
 C499 C 0.66356 0.91031 1.15193
 C500 C 0.69324 0.90141 1.15799
 C501 C 0.71251 0.89046 1.13580
 C502 C 0.70154 0.88957 1.10699
 O503 O 0.65930 0.90148 1.07559
 C504 C 0.63202 0.91203 1.08160
 C505 C 0.62746 0.91646 1.11065
 C506 C 0.60045 0.92714 1.12182
 C507 C 0.57738 0.93411 1.10221
 C508 C 0.58195 0.93102 1.07206
 C509 C 0.60964 0.91959 1.06162
 H510 H 0.64882 0.91828 1.16888
 H511 H 0.70066 0.90224 1.18020
 H512 H 0.71548 0.88219 1.08921
 H513 H 0.59740 0.93040 1.14477
 H514 H 0.55651 0.94341 1.11042
 H515 H 0.61385 0.91743 1.03871
 C516 C 0.68037 1.09044 0.90883
 C517 C 0.67910 1.06123 0.89928
 C518 C 0.69950 1.04910 0.88004
 C519 C 0.72219 1.06781 0.86982
 C520 C 0.72442 1.09843 0.87881
 C521 C 0.70320 1.10969 0.89912
 O522 O 0.65807 1.09724 0.92689
 C523 C 0.64264 1.07167 0.92863
 C524 C 0.65481 1.04902 0.91213
 C525 C 0.64252 1.02043 0.91029
 C526 C 0.61652 1.01480 0.92628
 C527 C 0.60356 1.03748 0.94366
 C528 C 0.61651 1.06651 0.94474
 H529 H 0.69797 1.02594 0.87303
 H530 H 0.73821 1.05769 0.85525
 H531 H 0.70381 1.13274 0.90653
 H532 H 0.65247 1.00315 0.89688
 H533 H 0.60599 0.99299 0.92470
 H534 H 0.60673 1.08421 0.95777
 C535 C 0.09069 0.32075 0.09918
 C536 C 0.06369 0.32644 0.11258
 C537 C 0.05148 0.30749 0.13321
 C538 C 0.06781 0.28162 0.14060
 C539 C 0.09610 0.27512 0.12762
 C540 C 0.10756 0.29508 0.10637
 O541 O 0.09777 0.34157 0.07968
 C542 C 0.07469 0.36073 0.08092
 C543 C 0.05333 0.35242 0.10085
 C544 C 0.02712 0.36883 0.10568
 C545 C 0.02258 0.39485 0.08914
 C546 C 0.04397 0.40372 0.06824
 C547 C 0.07048 0.38657 0.06400
 H548 H 0.03003 0.31239 0.14324
 H549 H 0.05806 0.26676 0.15648
 H550 H 0.12896 0.29102 0.09594
 H551 H 0.01063 0.36170 0.12141
 H552 H 0.00214 0.40786 0.09218
 H553 H 0.08684 0.39285 0.04780
 C554 C -0.10175 0.32749 -0.09989
 C555 C -0.07158 0.32536 -0.10618
 C556 C -0.05891 0.30128 -0.12077
 C557 C -0.07824 0.27865 -0.13008
 C558 C -0.10965 0.28038 -0.12471
 C559 C -0.12157 0.30486 -0.10877
 O560 O -0.10878 0.35270 -0.08591
 C561 C -0.08244 0.36662 -0.08349
 C562 C -0.05909 0.35067 -0.09566
 C563 C -0.02953 0.36054 -0.09570
 C564 C -0.02354 0.38783 -0.08203
 C565 C -0.04694 0.40452 -0.06878
 C566 C -0.07695 0.39412 -0.06979
 H567 H -0.03504 0.30018 -0.12522
 H568 H -0.06867 0.25987 -0.14181
 H569 H -0.14545 0.30677 -0.10453
 H570 H -0.01165 0.34740 -0.10538
 H571 H -0.00054 0.39573 -0.08123
 H572 H -0.09497 0.40640 -0.05933
 C573 C 0.10010 0.67669 -0.09322
 C574 C 0.09292 0.65645 -0.11449
 C575 C 0.09750 0.66194 -0.14363
 C576 C 0.10982 0.68966 -0.15136
 C577 C 0.11764 0.71107 -0.13003
 C578 C 0.11301 0.70438 -0.10044
 O579 O 0.09328 0.66685 -0.06686
 C580 C 0.08171 0.63976 -0.07174
 C581 C 0.08126 0.63247 -0.10058
 C582 C 0.07081 0.60524 -0.11092
 C583 C 0.06060 0.58437 -0.09071
 C584 C 0.06052 0.59110 -0.06081
 C585 C 0.07089 0.61939 -0.05106
 H586 H 0.09158 0.64556 -0.15989
 H587 H 0.11351 0.69433 -0.17402
 H588 H 0.11860 0.72043 -0.08378
 H589 H 0.07074 0.60014 -0.13375
 H590 H 0.05236 0.56292 -0.09838
 H591 H 0.07109 0.62498 -0.02833
 C592 C -0.09361 0.68259 0.08651
 C593 C -0.11830 0.66469 0.08197
 C594 C -0.14744 0.67370 0.08871
 C595 C -0.15136 0.70251 0.10042
 C596 C -0.12628 0.72127 0.10570
 C597 C -0.09693 0.71107 0.09891
 O598 O -0.06801 0.66989 0.07788
 C599 C -0.07677 0.64337 0.06780
 C600 C -0.10730 0.63904 0.07009
 C601 C -0.12134 0.61268 0.06154
 C602 C -0.10315 0.58972 0.05027
 C603 C -0.07164 0.59367 0.04720
 C604 C -0.05828 0.62104 0.05595
 H605 H -0.16649 0.65918 0.08491
 H606 H -0.17386 0.71009 0.10578
 H607 H -0.07746 0.72508 0.10264
 H608 H -0.14539 0.60977 0.06374
 H609 H -0.11364 0.56888 0.04375
 H610 H -0.03426 0.62452 0.05420
 C611 C 1.08656 0.09082 0.67947
 C612 C 1.11050 0.08833 0.66082
 C613 C 1.13998 0.09422 0.66901
 C614 C 1.14510 0.10298 0.69764
 C615 C 1.12090 0.10626 0.71731
 C616 C 1.09111 0.10032 0.70801
 O617 O 1.06050 0.08318 0.66737
 C618 C 1.06820 0.07593 0.64048
 C619 C 1.09851 0.07902 0.63542
 C620 C 1.11160 0.07315 0.60882
 C621 C 1.09277 0.06360 0.58644
 C622 C 1.06144 0.05951 0.59094
 C623 C 1.04898 0.06574 0.61853
 H624 H 1.15844 0.09192 0.65394
 H625 H 1.16792 0.10764 0.70443
 H626 H 1.07227 0.10244 0.72268
 H627 H 1.13552 0.07581 0.60539
 H628 H 1.10281 0.05867 0.56569
 H629 H 1.02521 0.06280 0.62269
 C630 C 0.90193 -0.08473 0.67642
 C631 C 0.87739 -0.08055 0.65873
 C632 C 0.84814 -0.08670 0.66748
 C633 C 0.84395 -0.09741 0.69569
 C634 C 0.86886 -0.10246 0.71423
 C635 C 0.89834 -0.09627 0.70434
 O636 O 0.92765 -0.07652 0.66412
 C637 C 0.91913 -0.06712 0.63809
 C638 C 0.88863 -0.06944 0.63365
 C639 C 0.87488 -0.06147 0.60777
 C640 C 0.89330 -0.05074 0.58547
 C641 C 0.92473 -0.04746 0.58961
 C642 C 0.93781 -0.05567 0.61641
 H643 H 0.82918 -0.08310 0.65320
 H644 H 0.82133 -0.10218 0.70298
 H645 H 0.91772 -0.09971 0.71815
 H646 H 0.85083 -0.06362 0.60479
 H647 H 0.88303 -0.04452 0.56510
 H648 H 0.96178 -0.05365 0.62006
 C649 C 1.09947 -0.08722 0.33000
 C650 C 1.10576 -0.10825 0.35103
 C651 C 1.12190 -0.13450 0.34564
 C652 C 1.13160 -0.13952 0.31729
 C653 C 1.12536 -0.11830 0.29520
 C654 C 1.10931 -0.09161 0.30162
 O655 O 1.08274 -0.06447 0.33957
 C656 C 1.07841 -0.07132 0.36720
 C657 C 1.09207 -0.09788 0.37523
 C658 C 1.09001 -0.10971 0.40291
 C659 C 1.07355 -0.09331 0.42336
 C660 C 1.05933 -0.06569 0.41587
 C661 C 1.06165 -0.05470 0.38718
 H662 H 1.12621 -0.15088 0.36247
 H663 H 1.14338 -0.16026 0.31230
 H664 H 1.10355 -0.07556 0.28487
 H665 H 1.10068 -0.13084 0.40861
 H666 H 1.07179 -0.10226 0.44504
 H667 H 1.05108 -0.03376 0.38066
 C668 C 0.92115 0.09720 0.31685
 C669 C 0.92532 0.12105 0.33523
 C670 C 0.92005 0.15076 0.32718
 C671 C 0.90982 0.15615 0.29902
 C672 C 0.90456 0.13193 0.27984
 C673 C 0.91043 0.10202 0.28889
 O674 O 0.92752 0.07075 0.32889
 C675 C 0.93570 0.07808 0.35553
 C676 C 0.93443 0.10859 0.36047
 C677 C 0.94073 0.12132 0.38708
 C678 C 0.94877 0.10184 0.40956
 C679 C 0.95071 0.07029 0.40509
 C680 C 0.94431 0.05821 0.37756
 H681 H 0.92347 0.16911 0.34212
 H682 H 0.90505 0.17909 0.29250
 H683 H 0.90660 0.08314 0.27466
 H684 H 0.93917 0.14535 0.39051
 H685 H 0.95379 0.11139 0.43049
 H686 H 0.94532 0.03422 0.37365
 C687 C 0.08565 0.31607 -0.09331
 C688 C 0.10645 0.33775 -0.10017
 C689 C 0.13107 0.33236 -0.11786
 C690 C 0.13495 0.30314 -0.12838
 C691 C 0.11441 0.28003 -0.12116
 C692 C 0.08899 0.28666 -0.10383
 O693 O 0.06446 0.32605 -0.07536
 C694 C 0.07224 0.35455 -0.07078
 C695 C 0.09784 0.36260 -0.08545
 C696 C 0.11065 0.39088 -0.08342
 C697 C 0.09616 0.41214 -0.06607
 C698 C 0.06910 0.40509 -0.05128
 C699 C 0.05724 0.37553 -0.05330
 H700 H 0.14718 0.34980 -0.12277
 H701 H 0.15453 0.29819 -0.14148
 H702 H 0.07335 0.26924 -0.09758
 H703 H 0.13097 0.39653 -0.09504
 H704 H 0.10582 0.43440 -0.06475
 H705 H 0.03666 0.36931 -0.04237
 C706 C -0.10364 0.32232 0.08594
 C707 C -0.12721 0.33851 0.07442
 C708 C -0.15704 0.32997 0.07744
 C709 C -0.16289 0.30354 0.09293
 C710 C -0.13907 0.28647 0.10532
 C711 C -0.10897 0.29614 0.10181
 O712 O -0.07699 0.33454 0.08057
 C713 C -0.08397 0.35905 0.06547
 C714 C -0.11445 0.36252 0.06129
 C715 C -0.12697 0.38713 0.04709
 C716 C -0.10731 0.40933 0.03709
 C717 C -0.07582 0.40629 0.04102
 C718 C -0.06388 0.38057 0.05505
 H719 H -0.17517 0.34318 0.06821
 H720 H -0.18604 0.29667 0.09559
 H721 H -0.09030 0.28355 0.11085
 H722 H -0.15104 0.38943 0.04427
 H723 H -0.11654 0.42893 0.02626
 H724 H -0.03992 0.37797 0.05861
 C725 C -0.08134 0.68250 -0.10007
 C726 C -0.06915 0.66610 -0.12236
 C727 C -0.06903 0.67628 -0.15076
 C728 C -0.08204 0.70451 -0.15645
 C729 C -0.09546 0.72153 -0.13401
 C730 C -0.09510 0.71030 -0.10538
 O731 O -0.07874 0.66889 -0.07461
 C732 C -0.06481 0.64324 -0.08102
 C733 C -0.05873 0.64034 -0.11000
 C734 C -0.04526 0.61483 -0.12167
 C735 C -0.03784 0.59130 -0.10271
 C736 C -0.04336 0.59393 -0.07268
 C737 C -0.05682 0.62040 -0.06162
 H738 H -0.05928 0.66296 -0.16792
 H739 H -0.08237 0.71276 -0.17845
 H740 H -0.10506 0.72290 -0.08781
 H741 H -0.04091 0.61298 -0.14457
 H742 H -0.02739 0.57116 -0.11131
 H743 H -0.06145 0.62280 -0.03880
 C744 C 0.08214 0.67815 0.10250
 C745 C 0.07397 0.65902 0.12445
 C746 C 0.07842 0.66555 0.15338
 C747 C 0.09172 0.69310 0.16014
 C748 C 0.10058 0.71340 0.13806
 C749 C 0.09586 0.70567 0.10873
 O750 O 0.07589 0.66728 0.07645
 C751 C 0.06364 0.64068 0.08222
 C752 C 0.06215 0.63465 0.11131
 C753 C 0.05116 0.60787 0.12243
 C754 C 0.04154 0.58614 0.10275
 C755 C 0.04278 0.59158 0.07259
 C756 C 0.05361 0.61947 0.06214
 H757 H 0.07192 0.64995 0.17019
 H758 H 0.09555 0.69827 0.18263
 H759 H 0.10237 0.72067 0.09142
 H760 H 0.05046 0.60367 0.14543
 H761 H 0.03308 0.56500 0.11104
 H762 H 0.05505 0.62403 0.03922
 C763 C 0.32955 1.09535 0.90091
 C764 C 0.35159 1.11635 0.89587
 C765 C 0.34648 1.14245 0.88001
 C766 C 0.31738 1.14732 0.86921
 C767 C 0.29427 1.12596 0.87388
 C768 C 0.30055 1.09938 0.88967
 O769 O 0.33890 1.07272 0.91749
 C770 C 0.36744 1.07957 0.92287
 C771 C 0.37635 1.10591 0.90996
 C772 C 0.40540 1.11712 0.91246
 C773 C 0.42625 1.10031 0.92869
 C774 C 0.41765 1.07313 0.94245
 C775 C 0.38760 1.06287 0.93970
 H776 H 0.36410 1.15879 0.87657
 H777 H 0.31273 1.16782 0.85731
 H778 H 0.28313 1.08305 0.89403
 H779 H 0.41190 1.13788 0.90202
 H780 H 0.44906 1.10849 0.93055
 H781 H 0.38027 1.04222 0.94985
 C782 C 0.31884 0.90619 1.09936
 C783 C 0.31337 0.90726 1.07017
 C784 C 0.28697 0.89686 1.05777
 C785 C 0.26523 0.88470 1.07619
 C786 C 0.26999 0.88352 1.10646
 C787 C 0.29717 0.89465 1.11825
 O788 O 0.34574 0.91694 1.10646
 C789 C 0.35734 0.92510 1.08117
 C790 C 0.33821 0.91979 1.05840
 C791 C 0.34515 0.92716 1.03007
 C792 C 0.37288 0.94085 1.02496
 C793 C 0.39332 0.94629 1.04784
 C794 C 0.38561 0.93804 1.07642
 H795 H 0.28328 0.89793 1.03470
 H796 H 0.24452 0.87649 1.06686
 H797 H 0.30150 0.89380 1.14122
 H798 H 0.32970 0.92277 1.01255
 H799 H 0.37864 0.94700 1.00305
 H800 H 0.40076 0.94219 1.09426
 C801 C 0.67371 1.08490 1.11191
 C802 C 0.67767 1.05423 1.11321
 C803 C 0.70303 1.04070 1.12513
 C804 C 0.72538 1.05958 1.13612
 C805 C 0.72221 1.09132 1.13457
 C806 C 0.69588 1.10413 1.12235
 O807 O 0.64817 1.09304 1.09910
 C808 C 0.63590 1.06691 1.09199
 C809 C 0.65324 1.04254 1.10002
 C810 C 0.64578 1.01311 1.09328
 C811 C 0.61950 1.00860 1.07731
 C812 C 0.60103 1.03323 1.06896
 C813 C 0.60909 1.06284 1.07674
 H814 H 0.70566 1.01649 1.12565
 H815 H 0.74550 1.04939 1.14506
 H816 H 0.69281 1.12826 1.12086
 H817 H 0.66001 0.99435 1.09951
 H818 H 0.61355 0.98591 1.07134
 H819 H 0.59559 1.08202 1.07019
 C820 C 0.67569 0.89921 0.90888
 C821 C 0.65388 0.87807 0.90355
 C822 C 0.65967 0.85156 0.88862
 C823 C 0.68914 0.84665 0.87876
 C824 C 0.71176 0.86847 0.88331
 C825 C 0.70493 0.89519 0.89848
 O826 O 0.66572 0.92229 0.92438
 C827 C 0.63695 0.91571 0.92868
 C828 C 0.62850 0.88908 0.91608
 C829 C 0.59920 0.87835 0.91719
 C830 C 0.57764 0.89596 0.93158
 C831 C 0.58579 0.92341 0.94502
 C832 C 0.61612 0.93301 0.94401
 H833 H 0.64223 0.83509 0.88502
 H834 H 0.69431 0.82606 0.86730
 H835 H 0.72201 0.91193 0.90258
 H836 H 0.59308 0.85737 0.90701
 H837 H 0.55466 0.88804 0.93248
 H838 H 0.62324 0.95354 0.95440
   
