data_POSCAR
  _audit_creation_date              2014-09-24
  _audit_creation_method            'ToBaCCo'
  _symmetry_space_group_name_H-M    'P1'
  _symmetry_Int_Tables_number       1
  _symmetry_cell_setting            triclinic
  loop_
  _symmetry_equiv_pos_as_xyz
 x,y,z
_cell_length_a 35.3217
_cell_length_b 35.3342
_cell_length_c 81.8051
_cell_angle_alpha 86.655200
_cell_angle_beta 91.750900
_cell_angle_gamma 120.183400
loop_
  _atom_site_label
  _atom_site_type_symbol
  _atom_site_fract_x
  _atom_site_fract_y
  _atom_site_fract_z
C1 C 0.00810 0.07786 0.52263
 H2 H 0.03884 0.07845 0.52151
 C3 C 0.00505 0.10621 0.53294
 H4 H 0.03379 0.12880 0.53966
 C5 C -0.06611 0.04865 0.51461
 H6 H -0.09352 0.02648 0.50728
 C7 C -0.07058 0.07668 0.52478
 H8 H -0.10180 0.07537 0.52539
 N9 N -0.02721 0.04964 0.51382
 C10 C 0.00065 -0.05375 0.50407
 H11 H 0.00121 -0.05183 0.49082
 C12 C 0.00396 -0.08728 0.51270
 H13 H 0.00796 -0.11059 0.50601
 C14 C -0.00691 -0.02659 0.52883
 H15 H -0.01276 -0.00393 0.53508
 C16 C -0.00362 -0.05945 0.53794
 H17 H -0.00677 -0.06145 0.55113
 Zn18 Zn -0.01732 0.01494 0.49977
 N19 N -0.00500 -0.02447 0.51220
 C20 C 0.06785 0.05305 0.48534
 N21 N 0.03012 0.05433 0.48619
 C22 C 0.02522 0.08592 0.47777
 C23 C 0.05872 0.11751 0.46776
 C24 C 0.10240 0.08421 0.47548
 C25 C -0.10352 -0.05200 0.49455
 C26 C -0.13871 -0.08277 0.48552
 C27 C -0.09876 -0.04570 0.46075
 C28 C -0.06438 -0.01590 0.47030
 N29 N -0.06709 -0.01979 0.48687
 H30 H 0.07134 0.02812 0.49238
 H31 H -0.00487 0.08658 0.47892
 H32 H 0.05426 0.14264 0.46133
 H33 H 0.13208 0.08255 0.47479
 H34 H -0.10476 -0.05451 0.50779
 H35 H -0.16715 -0.10679 0.49237
 H36 H -0.09296 -0.04220 0.44772
 H37 H -0.03462 0.00906 0.46438
 C38 C 0.00122 -0.09078 0.52987
 C39 C -0.03466 0.10589 0.53414
 C40 C -0.13685 -0.08114 0.46817
 C41 C 0.09796 0.11692 0.46649
 C42 C 1.10134 0.03791 0.14510
 H43 H 1.10183 0.06860 0.14595
 C44 C 1.13160 0.03587 0.13521
 H45 H 1.15558 0.06532 0.12856
 C46 C 1.07017 -0.03730 0.15329
 H47 H 1.04639 -0.06556 0.16049
 C48 C 1.10003 -0.04081 0.14354
 H49 H 1.09853 -0.07211 0.14311
 N50 N 1.07117 0.00161 0.15375
 C51 C 0.96459 0.02714 0.16092
 H52 H 0.96347 0.02640 0.17414
 C53 C 0.93223 0.02993 0.15156
 H54 H 0.90633 0.03142 0.15770
 C55 C 0.99784 0.02254 0.13697
 H56 H 1.02254 0.01822 0.13131
 C57 C 0.96625 0.02534 0.12716
 H58 H 0.96783 0.02433 0.11400
 Zn59 Zn 1.03316 0.00987 0.16692
 N60 N 0.99621 0.02298 0.15354
 C61 C 1.06764 0.09364 0.18080
 N62 N 1.06926 0.05602 0.18057
 C63 C 1.09902 0.05038 0.18968
 C64 C 1.12838 0.08302 0.19975
 C65 C 1.09660 0.12734 0.19071
 C66 C 0.96565 -0.07714 0.17193
 C67 C 0.93309 -0.11342 0.18080
 C68 C 0.96381 -0.07562 0.20570
 C69 C 0.99566 -0.04006 0.19636
 N70 N 0.99581 -0.04127 0.17978
 H71 H 1.04419 0.09771 0.17323
 H72 H 1.10004 0.02041 0.18902
 H73 H 1.15218 0.07800 0.20673
 H74 H 1.09474 0.15697 0.19089
 H75 H 0.96599 -0.07690 0.15870
 H76 H 0.90895 -0.14143 0.17432
 H77 H 0.96326 -0.07326 0.21882
 H78 H 1.01899 -0.01083 0.20236
 C79 C 0.93228 0.02807 0.13445
 C80 C 1.13114 -0.00390 0.13427
 C81 C 0.93147 -0.11263 0.19790
 C82 C 1.12744 0.12215 0.20038
 C83 C 0.03790 0.95033 0.85447
 H84 H 0.00739 0.91963 0.85371
 C85 C 0.07242 0.95207 0.86375
 H86 H 0.06793 0.92261 0.87033
 C87 C 0.08036 1.02597 0.84679
 H88 H 0.08345 1.05444 0.83991
 C89 C 0.11586 1.02922 0.85598
 H90 H 0.14614 1.06036 0.85611
 N91 N 0.04231 0.98692 0.84629
 C92 C -0.09146 0.96041 0.83980
 H93 H -0.09371 0.96202 0.82658
 C94 C -0.12541 0.95677 0.84933
 H95 H -0.15291 0.95626 0.84296
 C96 C -0.05009 0.96389 0.86352
 H97 H -0.02030 0.96767 0.86903
 C98 C -0.08315 0.96025 0.87353
 H99 H -0.07837 0.95905 0.88662
 Zn100 Zn -0.00628 0.97876 0.83340
 N101 N -0.05450 0.96451 0.84697
 C102 C -0.05734 0.89545 0.81905
 N103 N -0.01817 0.93343 0.81938
 C104 C 0.01613 0.94004 0.81013
 C105 C 0.01176 0.90807 0.79982
 C106 C -0.06312 0.86235 0.80891
 C107 C 0.01234 1.06574 0.82903
 C108 C 0.01525 1.10245 0.82042
 C109 C 0.00477 1.06587 0.79523
 C110 C 0.00192 1.02986 0.80432
 N111 N 0.00545 1.03030 0.82092
 H112 H -0.08391 0.89061 0.82674
 H113 H 0.04713 0.97025 0.81089
 H114 H 0.03975 0.91384 0.79274
 H115 H -0.09451 0.83237 0.80868
 H116 H 0.01417 1.06489 0.84226
 H117 H 0.02023 1.13017 0.82710
 H118 H 0.00032 1.06419 0.78209
 H119 H -0.00490 1.00096 0.79810
 C120 C -0.12138 0.95786 0.86657
 C121 C 0.11216 0.99182 0.86454
 C122 C 0.01084 1.10254 0.80329
 C123 C -0.02824 0.86857 0.79910
 O124 O 0.45744 -0.04346 -0.01463
 O125 O 0.53567 -0.03982 0.01717
 O126 O 0.46098 -0.04162 0.01709
 O127 O 0.53014 -0.04576 -0.01447
 O128 O 0.56709 0.02645 -0.01704
 O129 O 0.49668 0.03060 0.01449
 O130 O 0.57141 0.03240 0.01460
 O131 O 0.49441 0.02875 -0.01723
 Cu132 Cu 0.49246 -0.04988 0.00154
 Cu133 Cu 0.53606 0.03676 -0.00155
 C134 C 0.46254 -0.00776 -0.02131
 C135 C 0.56702 -0.00288 0.02130
 C136 C 0.46659 -0.00501 0.02114
 C137 C 0.56058 -0.01057 -0.02112
 O138 O 0.00887 0.47100 0.65135
 O139 O 0.00921 0.54409 0.68195
 O140 O 0.01182 0.47156 0.68313
 O141 O 0.01067 0.54575 0.65017
 O142 O -0.06155 0.50993 0.65038
 O143 O -0.06040 0.43419 0.68333
 O144 O -0.06301 0.50682 0.68221
 O145 O -0.06335 0.43507 0.65150
 Cu146 Cu 0.01734 0.51174 0.66663
 Cu147 Cu -0.06930 0.46784 0.66687
 C148 C -0.02750 0.44038 0.64623
 C149 C -0.02705 0.53791 0.68728
 C150 C -0.02385 0.44002 0.68882
 C151 C -0.02539 0.54096 0.64468
 O152 O 0.53150 0.57110 0.31582
 O153 O 0.45075 0.49819 0.34726
 O154 O 0.52391 0.57314 0.34729
 O155 O 0.45634 0.49831 0.31569
 O156 O 0.49111 0.46128 0.31951
 O157 O 0.56003 0.53743 0.35107
 O158 O 0.48695 0.46257 0.35107
 O159 O 0.56634 0.53413 0.31960
 Cu160 Cu 0.48715 0.53889 0.33114
 Cu161 Cu 0.52972 0.49529 0.33568
 C162 C 0.56279 0.56493 0.31234
 C163 C 0.45503 0.46766 0.35447
 C164 C 0.55360 0.56838 0.35456
 C165 C 0.46168 0.46673 0.31227
 C166 C -0.06033 0.19009 0.54929
 C167 C -0.03914 0.19878 0.56451
 C168 C -0.01804 0.17590 0.57005
 C169 C -0.01741 0.14504 0.56032
 C170 C -0.03787 0.13663 0.54487
 C171 C -0.05979 0.15912 0.53953
 C172 C -0.03811 0.23174 0.57436
 C173 C -0.03657 0.25937 0.58277
 C174 C -0.03440 0.29155 0.59282
 C175 C -0.03262 0.31867 0.60158
 C176 C -0.03099 0.35038 0.61228
 C177 C 0.00931 0.38405 0.61774
 C178 C 0.01063 0.41382 0.62863
 C179 C -0.02842 0.41016 0.63421
 C180 C -0.06871 0.37648 0.62848
 C181 C -0.06994 0.34684 0.61761
 H182 H -0.07673 0.20765 0.54488
 H183 H -0.00170 0.18222 0.58183
 H184 H -0.00082 0.12779 0.56486
 H185 H -0.07544 0.15369 0.52763
 H186 H 0.03967 0.38704 0.61371
 H187 H 0.04215 0.43933 0.63281
 H188 H -0.09938 0.37273 0.63252
 H189 H -0.10130 0.32087 0.61349
 C190 C 0.86713 0.80584 0.23267
 C191 C 0.82420 0.78797 0.22678
 C192 C 0.81651 0.80099 0.21114
 C193 C 0.85153 0.83241 0.20155
 C194 C 0.89475 0.85133 0.20751
 C195 C 0.90220 0.83731 0.22311
 C196 C 0.78801 0.75752 0.23703
 C197 C 0.75797 0.73258 0.24583
 C198 C 0.72325 0.70377 0.25639
 C199 C 0.69414 0.67929 0.26562
 C200 C 0.66019 0.64998 0.27692
 C201 C 0.62610 0.65741 0.28064
 C202 C 0.59402 0.62954 0.29205
 C203 C 0.59577 0.59392 0.29989
 C204 C 0.62998 0.58657 0.29594
 C205 C 0.66192 0.61441 0.28455
 H206 H 0.87346 0.79594 0.24475
 H207 H 0.78339 0.78748 0.20648
 H208 H 0.84464 0.84298 0.18970
 H209 H 0.93512 0.85091 0.22796
 H210 H 0.62452 0.68493 0.27483
 H211 H 0.56814 0.63609 0.29483
 H212 H 0.63231 0.55947 0.30173
 H213 H 0.68819 0.60839 0.28178
 C214 C 0.20906 0.03018 -0.10637
 C215 C 0.21723 -0.00470 -0.10639
 C216 C 0.19203 -0.03994 -0.11628
 C217 C 0.15836 -0.04069 -0.12592
 C218 C 0.14935 -0.00616 -0.12579
 C219 C 0.17537 0.02953 -0.11604
 C220 C 0.25062 -0.00507 -0.09596
 C221 C 0.27810 -0.00593 -0.08710
 C222 C 0.30990 -0.00719 -0.07658
 C223 C 0.33691 -0.00807 -0.06745
 C224 C 0.36916 -0.00846 -0.05636
 C225 C 0.36320 -0.04806 -0.04920
 C226 C 0.39388 -0.04806 -0.03796
 C227 C 0.43088 -0.00837 -0.03373
 C228 C 0.43679 0.03118 -0.04118
 C229 C 0.40613 0.03108 -0.05239
 H230 H 0.22832 0.05759 -0.09873
 H231 H 0.19814 -0.06706 -0.11642
 H232 H 0.13937 -0.06829 -0.13350
 H233 H 0.16897 0.05637 -0.11556
 H234 H 0.33463 -0.07888 -0.05217
 H235 H 0.38837 -0.07903 -0.03244
 H236 H 0.46489 0.06231 -0.03821
 H237 H 0.41105 0.06192 -0.05785
 C238 C -0.02599 0.79349 0.54306
 C239 C -0.00511 0.79998 0.55830
 C240 C 0.01939 0.84238 0.56394
 C241 C 0.02237 0.87808 0.55452
 C242 C 0.00082 0.87183 0.53932
 C243 C -0.02302 0.82916 0.53361
 C244 C -0.00979 0.76313 0.56840
 C245 C -0.01368 0.73269 0.57713
 C246 C -0.01779 0.69773 0.58765
 C247 C -0.02053 0.66863 0.59690
 C248 C -0.02243 0.63503 0.60826
 C249 C 0.01644 0.63681 0.61353
 C250 C 0.01531 0.60576 0.62517
 C251 C -0.02482 0.57237 0.63175
 C252 C -0.06387 0.57036 0.62619
 C253 C -0.06263 0.60159 0.61453
 H254 H -0.04515 0.76079 0.53860
 H255 H 0.03578 0.84779 0.57570
 H256 H 0.04136 0.91056 0.55916
 H257 H -0.04049 0.82318 0.52208
 H258 H 0.04773 0.66259 0.60879
 H259 H 0.04597 0.60826 0.62915
 H260 H -0.09525 0.54510 0.63103
 H261 H -0.09293 0.59998 0.61056
 C262 C 0.21154 0.23439 0.21479
 C263 C 0.22250 0.22341 0.23023
 C264 C 0.20136 0.17963 0.23612
 C265 C 0.16989 0.14684 0.22653
 C266 C 0.15912 0.15738 0.21088
 C267 C 0.17999 0.20159 0.20516
 C268 C 0.25575 0.25680 0.24002
 C269 C 0.28354 0.28425 0.24840
 C270 C 0.31576 0.31596 0.25842
 C271 C 0.34279 0.34285 0.26718
 C272 C 0.37421 0.37489 0.27787
 C273 C 0.37157 0.41205 0.28089
 C274 C 0.40056 0.44228 0.29186
 C275 C 0.43267 0.43575 0.30000
 C276 C 0.43557 0.39866 0.29669
 C277 C 0.40645 0.36839 0.28570
 H278 H 0.22773 0.26820 0.21011
 H279 H 0.20943 0.17078 0.24809
 H280 H 0.15395 0.11319 0.23137
 H281 H 0.17274 0.21068 0.19310
 H282 H 0.34672 0.41738 0.27492
 H283 H 0.39742 0.47047 0.29411
 H284 H 0.45986 0.39267 0.30277
 H285 H 0.40872 0.33967 0.28348
 C286 C 0.77197 -0.05541 -0.11945
 C287 C 0.78394 -0.03642 -0.10427
 C288 C 0.82665 -0.02049 -0.09853
 C289 C 0.85754 -0.02298 -0.10797
 C290 C 0.84648 -0.04151 -0.12351
 C291 C 0.80277 -0.05797 -0.12898
 C292 C 0.75274 -0.03276 -0.09455
 C293 C 0.72731 -0.02925 -0.08615
 C294 C 0.69815 -0.02504 -0.07601
 C295 C 0.67352 -0.02173 -0.06709
 C296 C 0.64425 -0.01855 -0.05612
 C297 C 0.65192 0.02248 -0.05176
 C298 C 0.62438 0.02526 -0.04053
 C299 C 0.58888 -0.01303 -0.03351
 C300 C 0.58119 -0.05407 -0.03815
 C301 C 0.60870 -0.05675 -0.04936
 H302 H 0.73877 -0.06829 -0.12394
 H303 H 0.83637 -0.00543 -0.08682
 H304 H 0.89057 -0.00814 -0.10323
 H305 H 0.79149 -0.07410 -0.14040
 H306 H 0.67944 0.05228 -0.05689
 H307 H 0.63119 0.05732 -0.03721
 H308 H 0.55415 -0.08419 -0.03300
 H309 H 0.60250 -0.08866 -0.05262
 C310 C 0.21595 -0.03021 0.11958
 C311 C 0.22710 -0.00740 0.10430
 C312 C 0.20603 0.01541 0.09864
 C313 C 0.17437 0.01595 0.10829
 C314 C 0.16332 -0.00633 0.12377
 C315 C 0.18420 -0.02975 0.12926
 C316 C 0.26038 -0.00689 0.09442
 C317 C 0.28814 -0.00598 0.08592
 C318 C 0.32030 -0.00475 0.07573
 C319 C 0.34727 -0.00395 0.06682
 C320 C 0.37863 -0.00372 0.05592
 C321 C 0.41161 0.03578 0.04875
 C322 C 0.44080 0.03559 0.03760
 C323 C 0.43723 -0.00419 0.03348
 C324 C 0.40432 -0.04363 0.04095
 C325 C 0.37526 -0.04335 0.05208
 H326 H 0.23209 -0.04797 0.12408
 H327 H 0.21423 0.03299 0.08680
 H328 H 0.15841 0.03371 0.10361
 H329 H 0.17673 -0.04683 0.14119
 H330 H 0.41444 0.06666 0.05161
 H331 H 0.46573 0.06648 0.03206
 H332 H 0.40065 -0.07483 0.03807
 H333 H 0.34981 -0.07411 0.05753
 C334 C 0.76991 0.81138 0.45651
 C335 C 0.76792 0.81875 0.43965
 C336 C 0.79593 0.86009 0.43244
 C337 C 0.82672 0.89371 0.44191
 C338 C 0.83072 0.88690 0.45902
 C339 C 0.80058 0.84485 0.46610
 C340 C 0.73812 0.78365 0.42962
 C341 C 0.71384 0.75460 0.42096
 C342 C 0.68598 0.72113 0.41052
 C343 C 0.66241 0.69317 0.40135
 C344 C 0.63432 0.66071 0.39008
 C345 C 0.59982 0.66365 0.38248
 C346 C 0.57336 0.63332 0.37107
 C347 C 0.58103 0.59954 0.36706
 C348 C 0.61551 0.59653 0.37490
 C349 C 0.64202 0.62699 0.38633
 H350 H 0.74840 0.77931 0.46223
 H351 H 0.79416 0.86640 0.41939
 H352 H 0.84610 0.92525 0.43558
 H353 H 0.80184 0.83588 0.47886
 H354 H 0.59362 0.68965 0.38527
 H355 H 0.54709 0.63659 0.36528
 H356 H 0.62228 0.57094 0.37208
 H357 H 0.66873 0.62449 0.39212
 C358 C 0.02641 0.18644 0.76910
 C359 C 0.00275 0.20473 0.77507
 C360 C -0.01659 0.19105 0.79057
 C361 C -0.01299 0.15861 0.79995
 C362 C 0.00995 0.13936 0.79391
 C363 C 0.03001 0.15399 0.77844
 C364 C -0.00267 0.23653 0.76503
 C365 C -0.00721 0.26274 0.75635
 C366 C -0.01210 0.29316 0.74586
 C367 C -0.01552 0.31914 0.73662
 C368 C -0.01827 0.35036 0.72527
 C369 C -0.05889 0.34284 0.71922
 C370 C -0.06097 0.37235 0.70755
 C371 C -0.02237 0.40966 0.70176
 C372 C 0.01819 0.41718 0.70812
 C373 C 0.02017 0.38774 0.71977
 H374 H 0.04161 0.19687 0.75713
 H375 H -0.03508 0.20490 0.79529
 H376 H -0.02933 0.14763 0.81170
 H377 H 0.04829 0.14016 0.77354
 H378 H -0.08886 0.31391 0.72337
 H379 H -0.09267 0.36562 0.70289
 H380 H 0.04854 0.44558 0.70396
 H381 H 0.05178 0.39385 0.72434
 C382 C 0.84354 -0.00523 0.10205
 C383 C 0.82517 0.02044 0.10549
 C384 C 0.84203 0.04907 0.11833
 C385 C 0.87708 0.05191 0.12773
 C386 C 0.89576 0.02619 0.12434
 C387 C 0.87851 -0.00244 0.11140
 C388 C 0.78921 0.01729 0.09572
 C389 C 0.75935 0.01418 0.08723
 C390 C 0.72488 0.01036 0.07697
 C391 C 0.69600 0.00734 0.06792
 C392 C 0.66239 0.00442 0.05678
 C393 C 0.66485 0.04276 0.04990
 C394 C 0.63348 0.04030 0.03852
 C395 C 0.59914 -0.00064 0.03384
 C396 C 0.59658 -0.03906 0.04099
 C397 C 0.62809 -0.03650 0.05238
 H398 H 0.83068 -0.02759 0.09218
 H399 H 0.82812 0.06920 0.12106
 H400 H 0.88983 0.07446 0.13753
 H401 H 0.89154 -0.02331 0.10867
 H402 H 0.69131 0.07459 0.05318
 H403 H 0.63641 0.07051 0.03327
 H404 H 0.57059 -0.07104 0.03764
 H405 H 0.62595 -0.06639 0.05761
 C406 C 0.21140 0.20372 0.45173
 C407 C 0.20168 0.21759 0.43661
 C408 C 0.15833 0.19774 0.43107
 C409 C 0.12473 0.16456 0.44068
 C410 C 0.13403 0.15075 0.45600
 C411 C 0.17780 0.17045 0.46137
 C412 C 0.23595 0.25236 0.42677
 C413 C 0.26423 0.28138 0.41836
 C414 C 0.29704 0.31500 0.40830
 C415 C 0.32498 0.34319 0.39952
 C416 C 0.35844 0.37593 0.38882
 C417 C 0.35306 0.40922 0.38098
 C418 C 0.38484 0.43971 0.37000
 C419 C 0.42232 0.43711 0.36671
 C420 C 0.42766 0.40390 0.37487
 C421 C 0.39594 0.37356 0.38583
 H422 H 0.24487 0.21888 0.45613
 H423 H 0.15046 0.20805 0.41935
 H424 H 0.09146 0.14960 0.43610
 H425 H 0.18592 0.16087 0.47317
 H426 H 0.32408 0.41129 0.38319
 H427 H 0.37974 0.46484 0.36390
 H428 H 0.45612 0.40096 0.37264
 H429 H 0.40040 0.34790 0.39181
 C430 C -0.05570 0.75767 0.78431
 C431 C -0.03592 0.76952 0.76885
 C432 C -0.01536 0.81334 0.76303
 C433 C -0.01379 0.84535 0.77272
 C434 C -0.03275 0.83399 0.78842
 C435 C -0.05422 0.78969 0.79404
 C436 C -0.03558 0.73715 0.75906
 C437 C -0.03450 0.71077 0.75067
 C438 C -0.03273 0.68053 0.74064
 C439 C -0.03120 0.65506 0.73188
 C440 C -0.02980 0.62485 0.72119
 C441 C 0.01036 0.63192 0.71551
 C442 C 0.01145 0.60334 0.70463
 C443 C -0.02770 0.56736 0.69928
 C444 C -0.06785 0.56031 0.70523
 C445 C -0.06884 0.58887 0.71609
 H446 H -0.07165 0.72382 0.78895
 H447 H -0.00010 0.82285 0.75106
 H448 H 0.00243 0.87908 0.76797
 H449 H -0.06871 0.78002 0.80613
 H450 H 0.04079 0.65974 0.71936
 H451 H 0.04286 0.60969 0.70028
 H452 H -0.09859 0.53294 0.70137
 H453 H -0.10011 0.58313 0.72038
   
