data_POSCAR
  _audit_creation_date              2014-09-24
  _audit_creation_method            'ToBaCCo'
  _symmetry_space_group_name_H-M    'P1'
  _symmetry_Int_Tables_number       1
  _symmetry_cell_setting            triclinic
  loop_
  _symmetry_equiv_pos_as_xyz
 x,y,z
_cell_length_a 48.6067
_cell_length_b 48.8314
_cell_length_c 48.8934
_cell_angle_alpha 89.538700
_cell_angle_beta 90.542600
_cell_angle_gamma 89.839700
loop_
  _atom_site_label
  _atom_site_type_symbol
  _atom_site_fract_x
  _atom_site_fract_y
  _atom_site_fract_z
N1 N 0.29960 0.24047 0.21920
 N2 N 0.28921 0.26288 0.20820
 C3 C 0.30394 0.26965 0.18594
 C4 C 0.32471 0.25040 0.18282
 C5 C 0.32123 0.23223 0.20441
 H6 H 0.29959 0.28702 0.17275
 H7 H 0.33345 0.21426 0.20910
 Cu8 Cu 0.25704 0.28056 0.22377
 Cu9 Cu 0.28415 0.22327 0.25154
 Cu10 Cu 0.22591 0.25297 0.27895
 N11 N 0.22376 0.29637 0.23893
 N12 N 0.21168 0.28565 0.26042
 C13 C 0.18913 0.30053 0.26621
 C14 C 0.18685 0.32174 0.24727
 C15 C 0.20926 0.31837 0.23030
 H16 H 0.17525 0.29598 0.28276
 H17 H 0.21467 0.33099 0.21294
 N18 N 0.24352 0.21984 0.29470
 N19 N 0.26575 0.20871 0.28419
 C20 C 0.27300 0.18665 0.29927
 C21 C 0.25451 0.18359 0.32042
 C22 C 0.23603 0.20505 0.31682
 H23 H 0.29041 0.17363 0.29500
 H24 H 0.21858 0.20970 0.32951
 H25 H 0.24416 0.23700 0.24467
 H26 H 0.26628 0.25813 0.26772
 N27 N 0.70323 -0.24034 0.22272
 N28 N 0.71304 -0.26271 0.21169
 C29 C 0.69747 -0.26918 0.18974
 C30 C 0.67668 -0.24974 0.18671
 C31 C 0.68115 -0.23175 0.20819
 H32 H 0.70130 -0.28657 0.17680
 H33 H 0.66937 -0.21369 0.21306
 Cu34 Cu 0.74564 -0.28090 0.22668
 Cu35 Cu 0.71980 -0.22386 0.25503
 Cu36 Cu 0.77835 -0.25508 0.28174
 N37 N 0.77926 -0.29742 0.24133
 N38 N 0.79176 -0.28747 0.26298
 C39 C 0.81433 -0.30262 0.26861
 C40 C 0.81633 -0.32327 0.24931
 C41 C 0.79355 -0.31917 0.23232
 H42 H 0.82838 -0.29849 0.28531
 H43 H 0.78772 -0.33100 0.21464
 N44 N 0.76167 -0.22212 0.29783
 N45 N 0.73940 -0.21022 0.28764
 C46 C 0.73332 -0.18818 0.30286
 C47 C 0.75270 -0.18599 0.32369
 C48 C 0.77035 -0.20793 0.31979
 H49 H 0.71620 -0.17453 0.29884
 H50 H 0.78822 -0.21323 0.33202
 H51 H 0.75928 -0.23784 0.24771
 H52 H 0.73747 -0.25925 0.27070
 N53 N 0.70162 0.24008 0.77563
 N54 N 0.71257 0.26168 0.78725
 C55 C 0.69782 0.26813 0.80951
 C56 C 0.67648 0.24952 0.81204
 C57 C 0.67962 0.23203 0.79008
 H58 H 0.70255 0.28484 0.82311
 H59 H 0.66691 0.21466 0.78494
 Cu60 Cu 0.74536 0.27880 0.77235
 Cu61 Cu 0.71704 0.22357 0.74301
 Cu62 Cu 0.77528 0.25401 0.71589
 N63 N 0.77764 0.29610 0.75658
 N64 N 0.78921 0.28644 0.73449
 C65 C 0.81098 0.30215 0.72807
 C66 C 0.81334 0.32292 0.74725
 C67 C 0.79166 0.31825 0.76502
 H68 H 0.82413 0.29847 0.71078
 H69 H 0.78635 0.33002 0.78281
 N70 N 0.75801 0.22110 0.70005
 N71 N 0.73561 0.20982 0.71017
 C72 C 0.72879 0.18797 0.69494
 C73 C 0.74783 0.18520 0.67427
 C74 C 0.76608 0.20658 0.67819
 H75 H 0.71151 0.17468 0.69890
 H76 H 0.78384 0.21131 0.66591
 H77 H 0.75719 0.23612 0.74960
 H78 H 0.73500 0.25890 0.72786
 N79 N 0.29490 -0.24191 0.77830
 N80 N 0.28496 -0.26415 0.78977
 C81 C 0.30048 -0.27063 0.81190
 C82 C 0.32128 -0.25138 0.81447
 C83 C 0.31699 -0.23350 0.79267
 H84 H 0.29669 -0.28787 0.82532
 H85 H 0.32892 -0.21558 0.78758
 Cu86 Cu 0.25242 -0.28202 0.77476
 Cu87 Cu 0.27824 -0.22497 0.74595
 Cu88 Cu 0.22042 -0.25646 0.71882
 N89 N 0.21985 -0.29946 0.75930
 N90 N 0.20767 -0.28947 0.73729
 C91 C 0.18580 -0.30508 0.73096
 C92 C 0.18390 -0.32614 0.75013
 C93 C 0.20603 -0.32179 0.76781
 H94 H 0.17215 -0.30099 0.71385
 H95 H 0.21169 -0.33382 0.78562
 N96 N 0.23642 -0.22290 0.70306
 N97 N 0.25847 -0.21095 0.71333
 C98 C 0.26412 -0.18847 0.69829
 C99 C 0.24465 -0.18604 0.67754
 C100 C 0.22743 -0.20829 0.68125
 H101 H 0.28094 -0.17465 0.70242
 H102 H 0.20968 -0.21353 0.66892
 H103 H 0.23879 -0.23901 0.75275
 H104 H 0.26118 -0.26041 0.73056
 N105 N 0.70622 -0.23841 0.78696
 N106 N 0.71839 -0.26021 0.79742
 C107 C 0.70442 -0.26859 0.81960
 C108 C 0.68228 -0.25109 0.82330
 C109 C 0.68416 -0.23217 0.80213
 H110 H 0.71006 -0.28602 0.83222
 H111 H 0.67036 -0.21525 0.79783
 Cu112 Cu 0.75124 -0.27555 0.78095
 Cu113 Cu 0.71972 -0.21979 0.75440
 Cu114 Cu 0.77875 -0.24614 0.72524
 N115 N 0.78472 -0.28974 0.76469
 N116 N 0.79523 -0.27816 0.74284
 C117 C 0.81782 -0.29208 0.73543
 C118 C 0.82192 -0.31374 0.75363
 C119 C 0.80038 -0.31145 0.77201
 H120 H 0.83013 -0.28673 0.71793
 H121 H 0.79612 -0.32471 0.78922
 N122 N 0.75914 -0.21388 0.71039
 N123 N 0.73661 -0.20388 0.72141
 C124 C 0.72807 -0.18208 0.70654
 C125 C 0.74611 -0.17808 0.68512
 C126 C 0.76554 -0.19868 0.68827
 H127 H 0.71013 -0.16989 0.71110
 H128 H 0.78292 -0.20253 0.67523
 H129 H 0.73886 -0.25343 0.73763
 H130 H 0.76037 -0.23108 0.76002
 N131 N 0.28953 0.23585 0.78378
 N132 N 0.27792 0.25755 0.79449
 C133 C 0.29241 0.26507 0.81676
 C134 C 0.31435 0.24717 0.82026
 C135 C 0.31179 0.22883 0.79890
 H136 H 0.28731 0.28231 0.82947
 H137 H 0.32531 0.21189 0.79437
 Cu138 Cu 0.24526 0.27428 0.77823
 Cu139 Cu 0.27518 0.21857 0.75083
 Cu140 Cu 0.21634 0.24734 0.72207
 N141 N 0.21178 0.28967 0.76218
 N142 N 0.20070 0.27891 0.74018
 C143 C 0.17814 0.29331 0.73299
 C144 C 0.17476 0.31440 0.75144
 C145 C 0.19656 0.31139 0.76976
 H146 H 0.16524 0.28868 0.71554
 H147 H 0.20121 0.32425 0.78707
 N148 N 0.23501 0.21537 0.70663
 N149 N 0.25737 0.20424 0.71747
 C150 C 0.26475 0.18254 0.70227
 C151 C 0.24607 0.17989 0.68084
 C152 C 0.22759 0.20116 0.68434
 H153 H 0.28222 0.16946 0.70670
 H154 H 0.20991 0.20598 0.67165
 H155 H 0.25675 0.25320 0.73475
 H156 H 0.23506 0.23060 0.75671
 N157 N 0.29506 -0.23503 0.21933
 N158 N 0.28471 -0.25716 0.20816
 C159 C 0.29902 -0.26308 0.18549
 C160 C 0.31944 -0.24358 0.18225
 C161 C 0.31623 -0.22611 0.20418
 H162 H 0.29475 -0.28018 0.17223
 H163 H 0.32849 -0.20834 0.20900
 Cu164 Cu 0.25353 -0.27602 0.22436
 Cu165 Cu 0.28048 -0.21929 0.25265
 Cu166 Cu 0.22451 -0.25189 0.28151
 N167 N 0.22142 -0.29346 0.24037
 N168 N 0.21053 -0.28409 0.26295
 C169 C 0.18887 -0.29970 0.26975
 C170 C 0.18584 -0.31997 0.25036
 C171 C 0.20687 -0.31534 0.23195
 H172 H 0.17596 -0.29618 0.28726
 H173 H 0.21133 -0.32711 0.21389
 N174 N 0.24148 -0.21901 0.29729
 N175 N 0.26280 -0.20654 0.28634
 C176 C 0.26910 -0.18445 0.30148
 C177 C 0.25079 -0.18287 0.32296
 C178 C 0.23363 -0.20519 0.31960
 H179 H 0.28542 -0.17021 0.29686
 H180 H 0.21656 -0.21092 0.33240
 H181 H 0.26469 -0.25522 0.26828
 H182 H 0.24091 -0.23357 0.24698
 N183 N 0.71005 0.23673 0.21543
 N184 N 0.72075 0.25889 0.20452
 C185 C 0.70581 0.26628 0.18238
 C186 C 0.68448 0.24783 0.17912
 C187 C 0.68787 0.22927 0.20054
 H188 H 0.71027 0.28376 0.16953
 H189 H 0.67505 0.21181 0.20516
 Cu190 Cu 0.75310 0.27614 0.22015
 Cu191 Cu 0.72585 0.21953 0.24817
 Cu192 Cu 0.78392 0.25031 0.27632
 N193 N 0.78547 0.29323 0.23597
 N194 N 0.79753 0.28311 0.25798
 C195 C 0.81955 0.29859 0.26428
 C196 C 0.82145 0.31956 0.24510
 C197 C 0.79939 0.31545 0.22749
 H198 H 0.83336 0.29456 0.28130
 H199 H 0.79385 0.32770 0.20978
 N200 N 0.76700 0.21705 0.29182
 N201 N 0.74494 0.20537 0.28120
 C202 C 0.73865 0.18311 0.29631
 C203 C 0.75768 0.18057 0.31746
 C204 C 0.77532 0.20250 0.31390
 H205 H 0.72164 0.16957 0.29202
 H206 H 0.79290 0.20761 0.32652
 H207 H 0.74326 0.25458 0.26407
 H208 H 0.76567 0.23291 0.24222
 O209 O 0.27027 0.02634 0.47549
 O210 O 0.26593 -0.02811 0.52763
 O211 O 0.26821 -0.02705 0.47448
 O212 O 0.26779 0.02513 0.52867
 O213 O 0.22248 0.02676 0.52602
 O214 O 0.22291 -0.02502 0.47213
 O215 O 0.22062 -0.02640 0.52515
 O216 O 0.22499 0.02830 0.47289
 Cu217 Cu 0.27260 -0.00109 0.50178
 Cu218 Cu 0.21821 0.00112 0.49877
 C219 C 0.24845 0.03671 0.46529
 C220 C 0.24255 -0.03662 0.53533
 C221 C 0.24555 -0.03505 0.46415
 C222 C 0.24495 0.03482 0.53662
 O223 O 0.72901 0.02714 0.52333
 O224 O 0.73159 -0.02759 0.47181
 O225 O 0.72744 -0.02612 0.52488
 O226 O 0.73250 0.02581 0.47024
 O227 O 0.77776 0.02464 0.47379
 O228 O 0.77268 -0.02710 0.52872
 O229 O 0.77682 -0.02868 0.47567
 O230 O 0.77429 0.02625 0.52674
 Cu231 Cu 0.72560 -0.00009 0.49718
 Cu232 Cu 0.77992 -0.00136 0.50160
 C233 C 0.75123 0.03613 0.53378
 C234 C 0.75469 -0.03754 0.46496
 C235 C 0.74917 -0.03547 0.53620
 C236 C 0.75597 0.03418 0.46270
 O237 O 0.47441 0.26979 0.02445
 O238 O 0.52772 0.26947 -0.02904
 O239 O 0.47420 0.27038 -0.02872
 O240 O 0.52785 0.27010 0.02431
 O241 O 0.52809 0.22494 0.02498
 O242 O 0.47385 0.22521 -0.02857
 O243 O 0.52744 0.22431 -0.02842
 O244 O 0.47457 0.22462 0.02462
 Cu245 Cu 0.50110 0.27445 -0.00231
 Cu246 Cu 0.50102 0.22024 -0.00183
 C247 C 0.46540 0.24713 0.03367
 C248 C 0.53660 0.24672 -0.03794
 C249 C 0.46472 0.24797 -0.03772
 C250 C 0.53710 0.24764 0.03389
 O251 O 0.52488 0.73134 0.02979
 O252 O 0.47208 0.73111 -0.02511
 O253 O 0.52566 0.72867 -0.02341
 O254 O 0.47126 0.73307 0.02818
 O255 O 0.47286 0.77816 0.02585
 O256 O 0.52745 0.77377 -0.02564
 O257 O 0.47401 0.77620 -0.02727
 O258 O 0.52625 0.77644 0.02751
 Cu259 Cu 0.49830 0.72652 0.00258
 Cu260 Cu 0.50032 0.78064 -0.00013
 C261 C 0.53452 0.75402 0.03808
 C262 C 0.46405 0.75371 -0.03560
 C263 C 0.53589 0.75045 -0.03336
 C264 C 0.46276 0.75636 0.03589
 O265 O 0.02927 0.47392 0.26409
 O266 O -0.02481 0.52717 0.26428
 O267 O -0.02430 0.47379 0.26360
 O268 O 0.02890 0.52729 0.26493
 O269 O 0.02908 0.52829 0.21982
 O270 O -0.02414 0.47489 0.21849
 O271 O -0.02467 0.52808 0.21917
 O272 O 0.02925 0.47510 0.21898
 Cu273 Cu 0.00226 0.50048 0.26875
 Cu274 Cu 0.00239 0.50176 0.21461
 C275 C 0.03848 0.46538 0.24144
 C276 C -0.03410 0.53661 0.24171
 C277 C -0.03330 0.46515 0.24078
 C278 C 0.03821 0.53684 0.24262
 O279 O 0.02483 0.52615 0.73079
 O280 O -0.03076 0.47468 0.72995
 O281 O -0.02862 0.52807 0.72987
 O282 O 0.02272 0.47306 0.72961
 O283 O 0.02309 0.47189 0.77472
 O284 O -0.02861 0.52756 0.77498
 O285 O -0.03052 0.47419 0.77506
 O286 O 0.02502 0.52503 0.77590
 Cu287 Cu -0.00303 0.50058 0.72555
 Cu288 Cu -0.00279 0.49959 0.77969
 C289 C 0.03454 0.53425 0.75357
 C290 C -0.04011 0.46561 0.75247
 C291 C -0.03737 0.53736 0.75234
 C292 C 0.03180 0.46307 0.75198
 C293 C 0.38470 0.24637 0.11923
 C294 C 0.38176 0.22427 0.13750
 C295 C 0.36226 0.22562 0.15815
 C296 C 0.34566 0.24899 0.16094
 C297 C 0.34954 0.27085 0.14250
 N298 N 0.36871 0.26904 0.12248
 C299 C 0.40510 0.24587 0.09689
 N300 N 0.41492 0.26997 0.08676
 C301 C 0.43394 0.27099 0.06651
 C302 C 0.44420 0.24669 0.05522
 C303 C 0.43394 0.22168 0.06502
 C304 C 0.41439 0.22117 0.08567
 H305 H 0.36024 0.20823 0.17179
 H306 H 0.33752 0.28942 0.14398
 H307 H 0.44112 0.29074 0.05943
 H308 H 0.44097 0.20243 0.05671
 H309 H 0.39460 0.20621 0.13628
 H310 H 0.40647 0.20159 0.09237
 C311 C 0.61547 0.75449 0.12494
 C312 C 0.61686 0.77498 0.14484
 C313 C 0.63698 0.77353 0.16533
 C314 C 0.65595 0.75168 0.16629
 C315 C 0.65345 0.73135 0.14610
 N316 N 0.63358 0.73323 0.12639
 C317 C 0.59459 0.75514 0.10267
 N318 N 0.58632 0.73116 0.09120
 C319 C 0.56725 0.73023 0.07068
 C320 C 0.55544 0.75451 0.06031
 C321 C 0.56399 0.77947 0.07156
 C322 C 0.58349 0.77988 0.09266
 H323 H 0.63747 0.78973 0.18026
 H324 H 0.66710 0.71387 0.14579
 H325 H 0.56141 0.71055 0.06246
 H326 H 0.55561 0.79872 0.06409
 H327 H 0.60233 0.79180 0.14497
 H328 H 0.59008 0.79944 0.10059
 C329 C 0.61641 0.24548 -0.12437
 C330 C 0.61887 0.22373 -0.14282
 C331 C 0.63835 0.22510 -0.16354
 C332 C 0.65541 0.24810 -0.16617
 C333 C 0.65198 0.26962 -0.14757
 N334 N 0.63282 0.26781 -0.12752
 C335 C 0.59612 0.24503 -0.10192
 N336 N 0.58702 0.26918 -0.09149
 C337 C 0.56827 0.27031 -0.07103
 C338 C 0.55756 0.24609 -0.05974
 C339 C 0.56706 0.22099 -0.06984
 C340 C 0.58632 0.22036 -0.09077
 H341 H 0.64005 0.20799 -0.17733
 H342 H 0.66433 0.28794 -0.14892
 H343 H 0.56167 0.29011 -0.06374
 H344 H 0.55962 0.20178 -0.06158
 H345 H 0.60569 0.20597 -0.14169
 H346 H 0.59365 0.20070 -0.09772
 C347 C 0.38303 0.75353 -0.12246
 C348 C 0.38063 0.77461 -0.14205
 C349 C 0.36060 0.77295 -0.16256
 C350 C 0.34293 0.75028 -0.16391
 C351 C 0.34635 0.72939 -0.14421
 N352 N 0.36602 0.73150 -0.12435
 C353 C 0.40381 0.75438 -0.10009
 N354 N 0.41231 0.73047 -0.08814
 C355 C 0.43137 0.72968 -0.06757
 C356 C 0.44304 0.75403 -0.05775
 C357 C 0.43425 0.77891 -0.06949
 C358 C 0.41465 0.77920 -0.09050
 H359 H 0.35906 0.78956 -0.17725
 H360 H 0.33352 0.71135 -0.14449
 H361 H 0.43739 0.71004 -0.05898
 H362 H 0.44245 0.79822 -0.06241
 H363 H 0.39426 0.79207 -0.14196
 H364 H 0.40785 0.79873 -0.09867
 C365 C 0.12377 0.38316 0.24159
 C366 C 0.14253 0.38015 0.22015
 C367 C 0.16301 0.36015 0.22202
 C368 C 0.16510 0.34311 0.24522
 C369 C 0.14612 0.34700 0.26635
 N370 N 0.12633 0.36668 0.26407
 C371 C 0.10169 0.40416 0.24071
 N372 N 0.09108 0.41336 0.26464
 C373 C 0.07094 0.43274 0.26544
 C374 C 0.06017 0.44403 0.24107
 C375 C 0.07050 0.43451 0.21617
 C376 C 0.09111 0.41460 0.21589
 H377 H 0.17708 0.35811 0.20516
 H378 H 0.14704 0.33464 0.28478
 H379 H 0.06345 0.43933 0.28510
 H380 H 0.06262 0.44239 0.19686
 H381 H 0.14187 0.39331 0.20227
 H382 H 0.09823 0.40728 0.19637
 C383 C 0.12259 0.61295 0.75446
 C384 C 0.14332 0.61381 0.77460
 C385 C 0.16373 0.63381 0.77310
 C386 C 0.16373 0.65314 0.75157
 C387 C 0.14277 0.65110 0.73156
 N388 N 0.12318 0.63139 0.73349
 C389 C 0.10026 0.59238 0.75508
 N390 N 0.08748 0.58549 0.73121
 C391 C 0.06659 0.56703 0.73016
 C392 C 0.05719 0.55446 0.75423
 C393 C 0.06985 0.56152 0.77911
 C394 C 0.09132 0.58041 0.77963
 H395 H 0.17933 0.63395 0.78900
 H396 H 0.14170 0.66502 0.71430
 H397 H 0.05733 0.56232 0.71055
 H398 H 0.06315 0.55248 0.79821
 H399 H 0.14414 0.59903 0.79119
 H400 H 0.10031 0.58588 0.79915
 C401 C -0.12130 0.61678 0.24303
 C402 C -0.14240 0.61801 0.22329
 C403 C -0.16309 0.63771 0.22541
 C404 C -0.16302 0.65645 0.24717
 C405 C -0.14158 0.65417 0.26669
 N406 N -0.12174 0.63469 0.26419
 C407 C -0.09888 0.59621 0.24182
 N408 N -0.08605 0.58819 0.26545
 C409 C -0.06537 0.56935 0.26595
 C410 C -0.05626 0.55751 0.24155
 C411 C -0.06888 0.56584 0.21691
 C412 C -0.09012 0.58512 0.21694
 H413 H -0.17898 0.63809 0.20980
 H414 H -0.14043 0.66766 0.28407
 H415 H -0.05610 0.56368 0.28540
 H416 H -0.06241 0.55742 0.19758
 H417 H -0.14332 0.60365 0.20658
 H418 H -0.09917 0.59151 0.19762
 C419 C -0.12615 0.38466 0.75168
 C420 C -0.14660 0.38320 0.77167
 C421 C -0.16666 0.36290 0.77014
 C422 C -0.16667 0.34383 0.74867
 C423 C -0.14600 0.34643 0.72878
 N424 N -0.12668 0.36645 0.73076
 C425 C -0.10421 0.40565 0.75259
 N426 N -0.09212 0.41381 0.72886
 C427 C -0.07180 0.43292 0.72823
 C428 C -0.06231 0.44489 0.75258
 C429 C -0.07424 0.43649 0.77728
 C430 C -0.09508 0.41694 0.77739
 H431 H -0.18200 0.36238 0.78597
 H432 H -0.14497 0.33268 0.71162
 H433 H -0.06304 0.43863 0.70875
 H434 H -0.06742 0.44496 0.79658
 H435 H -0.14749 0.39778 0.78818
 H436 H -0.10347 0.41044 0.79679
 C437 C 0.25507 0.12130 0.38277
 C438 C 0.27797 0.12452 0.36578
 C439 C 0.27778 0.14486 0.34563
 C440 C 0.25480 0.16205 0.34205
 C441 C 0.23219 0.15802 0.35932
 N442 N 0.23285 0.13799 0.37885
 C443 C 0.25416 0.09980 0.40433
 N444 N 0.22930 0.09046 0.41293
 C445 C 0.22691 0.07050 0.43235
 C446 C 0.25052 0.05871 0.44440
 C447 C 0.27632 0.06838 0.43617
 C448 C 0.27824 0.08891 0.41630
 H449 H 0.29576 0.14701 0.33296
 H450 H 0.21389 0.17052 0.35721
 H451 H 0.20658 0.06382 0.43824
 H452 H 0.29509 0.06015 0.44512
 H453 H 0.29574 0.11123 0.36752
 H454 H 0.29841 0.09631 0.41082
 C455 C 0.74947 0.12253 0.61345
 C456 C 0.77341 0.13759 0.61901
 C457 C 0.77288 0.15821 0.63865
 C458 C 0.74862 0.16375 0.65297
 C459 C 0.72512 0.14823 0.64677
 N460 N 0.72612 0.12840 0.62745
 C461 C 0.74933 0.10035 0.59287
 N462 N 0.77345 0.09153 0.58198
 C463 C 0.77454 0.07113 0.56326
 C464 C 0.75030 0.05831 0.55425
 C465 C 0.72519 0.06713 0.56511
 C466 C 0.72464 0.08800 0.58445
 H467 H 0.79156 0.16948 0.64285
 H468 H 0.70588 0.15193 0.65703
 H469 H 0.79435 0.06506 0.55537
 H470 H 0.70599 0.05781 0.55877
 H471 H 0.79237 0.13355 0.60830
 H472 H 0.70505 0.09446 0.59262
 C473 C 0.23916 -0.12273 0.61645
 C474 C 0.21704 -0.14084 0.61996
 C475 C 0.21880 -0.16146 0.63985
 C476 C 0.24253 -0.16425 0.65626
 C477 C 0.26425 -0.14587 0.65191
 N478 N 0.26207 -0.12599 0.63238
 C479 C 0.23884 -0.10063 0.59549
 N480 N 0.26329 -0.09017 0.58705
 C481 C 0.26495 -0.06985 0.56800
 C482 C 0.24094 -0.05864 0.55623
 C483 C 0.21546 -0.06885 0.56483
 C484 C 0.21430 -0.08975 0.58445
 H485 H 0.20149 -0.17509 0.64233
 H486 H 0.28310 -0.14732 0.66374
 H487 H 0.28505 -0.06252 0.56210
 H488 H 0.19641 -0.06065 0.55648
 H489 H 0.19874 -0.13959 0.60727
 H490 H 0.19437 -0.09681 0.59110
 C491 C 0.75730 -0.12373 0.38505
 C492 C 0.77903 -0.14254 0.38242
 C493 C 0.77753 -0.16281 0.36249
 C494 C 0.75441 -0.16463 0.34515
 C495 C 0.73297 -0.14566 0.34874
 N496 N 0.73492 -0.12609 0.36829
 C497 C 0.75764 -0.10171 0.40579
 N498 N 0.73332 -0.09024 0.41338
 C499 C 0.73185 -0.06986 0.43211
 C500 C 0.75591 -0.05966 0.44442
 C501 C 0.78123 -0.07094 0.43668
 C502 C 0.78221 -0.09183 0.41739
 H503 H 0.79458 -0.17692 0.36072
 H504 H 0.71456 -0.14633 0.33619
 H505 H 0.71188 -0.06168 0.43734
 H506 H 0.80034 -0.06354 0.44543
 H507 H 0.79687 -0.14206 0.39577
 H508 H 0.80208 -0.09964 0.41142
 C509 C 0.62078 0.74556 -0.11455
 C510 C 0.63888 0.72335 -0.11774
 C511 C 0.65891 0.72444 -0.13797
 C512 C 0.66116 0.74758 -0.15502
 C513 C 0.64287 0.76946 -0.15092
 N514 N 0.62354 0.76793 -0.13107
 C515 C 0.59914 0.74576 -0.09343
 N516 N 0.58890 0.77029 -0.08516
 C517 C 0.56888 0.77230 -0.06605
 C518 C 0.55776 0.74860 -0.05412
 C519 C 0.56779 0.72307 -0.06253
 C520 C 0.58837 0.72154 -0.08216
 H521 H 0.67251 0.70705 -0.14021
 H522 H 0.64395 0.78788 -0.16325
 H523 H 0.56167 0.79241 -0.06030
 H524 H 0.55964 0.70424 -0.05405
 H525 H 0.63803 0.70548 -0.10458
 H526 H 0.59522 0.70158 -0.08870
 C527 C 0.37793 0.24986 -0.11859
 C528 C 0.35933 0.27178 -0.12128
 C529 C 0.33861 0.27083 -0.14111
 C530 C 0.33612 0.24806 -0.15829
 C531 C 0.35484 0.22632 -0.15460
 N532 N 0.37492 0.22773 -0.13510
 C533 C 0.40047 0.25005 -0.09803
 N534 N 0.41079 0.22581 -0.08846
 C535 C 0.43135 0.22453 -0.06939
 C536 C 0.44278 0.24868 -0.05889
 C537 C 0.43277 0.27385 -0.06888
 C538 C 0.41178 0.27463 -0.08844
 H539 H 0.32473 0.28810 -0.14298
 H540 H 0.35356 0.20818 -0.16705
 H541 H 0.43860 0.20468 -0.06240
 H542 H 0.44117 0.29301 -0.06163
 H543 H 0.36038 0.28937 -0.10802
 H544 H 0.40490 0.29433 -0.09617
 C545 C 0.37982 0.76080 0.11907
 C546 C 0.37619 0.78314 0.13660
 C547 C 0.35644 0.78176 0.15707
 C548 C 0.34028 0.75819 0.16032
 C549 C 0.34465 0.73627 0.14244
 N550 N 0.36407 0.73807 0.12269
 C551 C 0.40088 0.76073 0.09737
 N552 N 0.41008 0.73623 0.08792
 C553 C 0.42958 0.73434 0.06828
 C554 C 0.44107 0.75811 0.05685
 C555 C 0.43158 0.78360 0.06594
 C556 C 0.41148 0.78501 0.08607
 H557 H 0.35393 0.79922 0.17029
 H558 H 0.33296 0.71755 0.14426
 H559 H 0.43614 0.71425 0.06175
 H560 H 0.43966 0.80247 0.05750
 H561 H 0.38876 0.80131 0.13508
 H562 H 0.40420 0.80493 0.09229
 C563 C 0.62157 0.24964 0.11716
 C564 C 0.63952 0.27191 0.11998
 C565 C 0.65990 0.27125 0.14015
 C566 C 0.66278 0.24840 0.15755
 C567 C 0.64467 0.22632 0.15380
 N568 N 0.62487 0.22745 0.13394
 C569 C 0.59948 0.24965 0.09610
 N570 N 0.59016 0.22540 0.08607
 C571 C 0.57024 0.22411 0.06635
 C572 C 0.55849 0.24826 0.05560
 C573 C 0.56745 0.27339 0.06608
 C574 C 0.58775 0.27418 0.08631
 H575 H 0.67324 0.28881 0.14201
 H576 H 0.64626 0.20812 0.16647
 H577 H 0.56376 0.20427 0.05902
 H578 H 0.55871 0.29254 0.05874
 H579 H 0.63827 0.28957 0.10654
 H580 H 0.59379 0.29386 0.09436
 C581 C -0.11670 0.62510 0.75144
 C582 C -0.11720 0.64582 0.73143
 C583 C -0.13732 0.66616 0.73228
 C584 C -0.15716 0.66617 0.75309
 C585 C -0.15541 0.64531 0.77314
 N586 N -0.13556 0.62569 0.77181
 C587 C -0.09615 0.60270 0.75103
 N588 N -0.08869 0.59009 0.77494
 C589 C -0.07001 0.56929 0.77596
 C590 C -0.05782 0.55987 0.75186
 C591 C -0.06554 0.57233 0.72698
 C592 C -0.08464 0.59364 0.72647
 H593 H -0.13715 0.68168 0.71641
 H594 H -0.16973 0.64430 0.78987
 H595 H -0.06480 0.56011 0.79557
 H596 H -0.05686 0.56561 0.70785
 H597 H -0.10204 0.64663 0.71538
 H598 H -0.09064 0.60247 0.70693
 C599 C -0.11699 0.38198 0.23992
 C600 C -0.13567 0.37844 0.21818
 C601 C -0.15567 0.35813 0.21990
 C602 C -0.15736 0.34131 0.24325
 C603 C -0.13851 0.34576 0.26470
 N604 N -0.11917 0.36572 0.26255
 C605 C -0.09539 0.40329 0.23923
 N606 N -0.08491 0.41272 0.26329
 C607 C -0.06514 0.43234 0.26432
 C608 C -0.05464 0.44363 0.24007
 C609 C -0.06486 0.43392 0.21504
 C610 C -0.08510 0.41376 0.21452
 H611 H -0.16969 0.35569 0.20280
 H612 H -0.13914 0.33359 0.28325
 H613 H -0.05773 0.43910 0.28408
 H614 H -0.05715 0.44181 0.19583
 H615 H -0.13532 0.39142 0.20017
 H616 H -0.09214 0.40627 0.19492
 C617 C 0.11274 0.37690 0.74976
 C618 C 0.11469 0.35850 0.72796
 C619 C 0.13480 0.33816 0.72860
 C620 C 0.15300 0.33579 0.75097
 C621 C 0.15000 0.35426 0.77265
 N622 N 0.13021 0.37402 0.77153
 C623 C 0.09200 0.39913 0.74972
 N624 N 0.08293 0.40911 0.77397
 C625 C 0.06379 0.42945 0.77531
 C626 C 0.05271 0.44103 0.75122
 C627 C 0.06214 0.43132 0.72605
 C628 C 0.08176 0.41054 0.72520
 H629 H 0.13603 0.32446 0.71140
 H630 H 0.16326 0.35309 0.79049
 H631 H 0.05726 0.43648 0.79516
 H632 H 0.05445 0.43984 0.70693
 H633 H 0.10066 0.35946 0.71067
 H634 H 0.08909 0.40393 0.70550
 C635 C 0.12330 0.61858 0.24709
 C636 C 0.12881 0.63200 0.27181
 C637 C 0.14925 0.65194 0.27288
 C638 C 0.16442 0.65852 0.24946
 C639 C 0.15849 0.64443 0.22519
 N640 N 0.13832 0.62520 0.22461
 C641 C 0.10145 0.59753 0.24528
 N642 N 0.08869 0.58878 0.26843
 C643 C 0.06853 0.56956 0.26806
 C644 C 0.05997 0.55796 0.24324
 C645 C 0.07276 0.56672 0.21909
 C646 C 0.09352 0.58640 0.22004
 H647 H 0.15325 0.66200 0.29214
 H648 H 0.16951 0.64893 0.20659
 H649 H 0.05923 0.56345 0.28717
 H650 H 0.06684 0.55828 0.19949
 H651 H 0.11736 0.62729 0.29013
 H652 H 0.10315 0.59288 0.20119
 C653 C 0.74319 -0.11646 0.62221
 C654 C 0.72033 -0.12031 0.63917
 C655 C 0.72126 -0.14036 0.65967
 C656 C 0.74489 -0.15659 0.66348
 C657 C 0.76740 -0.15186 0.64628
 N658 N 0.76601 -0.13220 0.62649
 C659 C 0.74365 -0.09546 0.60019
 N660 N 0.76843 -0.08652 0.59097
 C661 C 0.77070 -0.06746 0.57071
 C662 C 0.74704 -0.05626 0.55827
 C663 C 0.72126 -0.06538 0.56722
 C664 C 0.71946 -0.08496 0.58807
 H665 H 0.70338 -0.14313 0.67238
 H666 H 0.78621 -0.16353 0.64858
 H667 H 0.79101 -0.06116 0.56436
 H668 H 0.70246 -0.05748 0.55803
 H669 H 0.70204 -0.10779 0.63710
 H670 H 0.69933 -0.09203 0.59409
 C671 C 0.24585 -0.12019 0.38346
 C672 C 0.22401 -0.13867 0.38024
 C673 C 0.22570 -0.15914 0.36063
 C674 C 0.24911 -0.16145 0.34421
 C675 C 0.27070 -0.14283 0.34839
 N676 N 0.26859 -0.12304 0.36768
 C677 C 0.24502 -0.09802 0.40389
 N678 N 0.26910 -0.08805 0.41416
 C679 C 0.26985 -0.06787 0.43318
 C680 C 0.24531 -0.05644 0.44290
 C681 C 0.22030 -0.06606 0.43217
 C682 C 0.22005 -0.08671 0.41268
 H683 H 0.20850 -0.17295 0.35830
 H684 H 0.28931 -0.14400 0.33653
 H685 H 0.28961 -0.06094 0.44076
 H686 H 0.20087 -0.05768 0.43886
 H687 H 0.20593 -0.13771 0.39291
 H688 H 0.20049 -0.09336 0.40440
 C689 C 0.76118 0.11806 0.37945
 C690 C 0.78339 0.13613 0.37641
 C691 C 0.78227 0.15645 0.35621
 C692 C 0.75908 0.15902 0.33902
 C693 C 0.73721 0.14069 0.34293
 N694 N 0.73877 0.12108 0.36278
 C695 C 0.76093 0.09630 0.40074
 N696 N 0.73627 0.08613 0.40896
 C697 C 0.73420 0.06629 0.42847
 C698 C 0.75795 0.05536 0.44100
 C699 C 0.78363 0.06521 0.43255
 C700 C 0.78523 0.08555 0.41243
 H701 H 0.79966 0.17004 0.35413
 H702 H 0.71875 0.14198 0.33049
 H703 H 0.71397 0.05920 0.43423
 H704 H 0.80250 0.05719 0.44147
 H705 H 0.80127 0.13510 0.38970
 H706 H 0.80531 0.09234 0.40595
 C707 C 0.24345 0.11815 0.61911
 C708 C 0.22191 0.13721 0.62094
 C709 C 0.22285 0.15727 0.64098
 C710 C 0.24527 0.15871 0.65923
 C711 C 0.26669 0.13957 0.65637
 N712 N 0.26528 0.12011 0.63664
 C713 C 0.24316 0.09635 0.59827
 N714 N 0.26745 0.08583 0.58941
 C715 C 0.26861 0.06608 0.56997
 C716 C 0.24429 0.05577 0.55828
 C717 C 0.21907 0.06595 0.56755
 C718 C 0.21840 0.08607 0.58754
 H719 H 0.20585 0.17151 0.64204
 H720 H 0.28456 0.13999 0.66969
 H721 H 0.28852 0.05865 0.56357
 H722 H 0.19978 0.05834 0.55941
 H723 H 0.20463 0.13704 0.60685
 H724 H 0.19863 0.09313 0.59466
   
