data_POSCAR
  _audit_creation_date              2014-09-24
  _audit_creation_method            'ToBaCCo'
  _symmetry_space_group_name_H-M    'P1'
  _symmetry_Int_Tables_number       1
  _symmetry_cell_setting            triclinic
  loop_
  _symmetry_equiv_pos_as_xyz
 x,y,z
_cell_length_a 18.9980
_cell_length_b 19.3921
_cell_length_c 17.7828
_cell_angle_alpha 90.026600
_cell_angle_beta 90.025300
_cell_angle_gamma 89.851700
loop_
  _atom_site_label
  _atom_site_type_symbol
  _atom_site_fract_x
  _atom_site_fract_y
  _atom_site_fract_z
Si1 Si 1.24842 0.25083 0.24747
 Si2 Si 0.75021 -0.25098 0.25015
 Si3 Si 0.75286 0.25204 -0.25192
 Si4 Si 1.24908 -0.24991 -0.24999
 Si5 Si 0.24711 0.25097 0.75104
 Si6 Si 0.74965 0.74867 0.75027
 Si7 Si 0.75208 0.25187 0.25092
 Si8 Si 0.25049 0.75110 0.24860
 O9 O 1.12942 -0.09669 0.13218
 O10 O 1.06302 -0.17494 0.06657
 C11 C 1.11183 -0.15941 0.11512
 O12 O 0.87124 0.09442 0.13044
 O13 O 0.93866 0.17221 0.06563
 C14 C 0.88907 0.15698 0.11279
 O15 O 0.87759 -0.09734 0.13679
 O16 O 0.94067 -0.17545 0.06694
 C17 C 0.89400 -0.15995 0.11753
 O18 O 1.13128 0.09458 0.12570
 O19 O 1.06054 0.17238 0.06441
 C20 C 1.11168 0.15710 0.10973
 Zr21 Zr 1.08877 -0.00130 0.09479
 O22 O 1.08014 0.00498 0.21344
 O23 O 1.19950 -0.00254 0.10635
 Zr24 Zr 0.91302 -0.00144 0.09661
 O25 O 0.91894 0.00600 0.21532
 O26 O 0.80209 -0.00836 0.10365
 O27 O 1.00135 -0.06405 0.11077
 O28 O 1.00080 0.05956 0.10933
 O29 O 1.12716 0.09434 -0.12972
 O30 O 1.06146 0.17219 -0.06257
 C31 C 1.11009 0.15687 -0.11094
 O32 O 0.87525 -0.09717 -0.13316
 O33 O 0.93911 -0.17522 -0.06402
 C34 C 0.89200 -0.15975 -0.11437
 O35 O 0.87011 0.09442 -0.12803
 O36 O 0.93797 0.17226 -0.06377
 C37 C 0.88824 0.15703 -0.11087
 O38 O 1.12215 -0.09705 -0.13542
 O39 O 1.06068 -0.17532 -0.06466
 C40 C 1.10647 -0.15963 -0.11595
 Zr41 Zr 1.08719 -0.00141 -0.09424
 O42 O 1.08399 0.00561 -0.21307
 O43 O 1.19846 -0.00756 -0.09758
 Zr44 Zr 0.91080 -0.00154 -0.09251
 O45 O 0.91166 0.00534 -0.21138
 O46 O 0.79957 -0.00863 -0.09296
 Zr47 Zr 1.00048 -0.10589 0.00116
 Zr48 Zr 0.99939 0.10275 0.00062
 O49 O 0.99870 0.05896 -0.10763
 O50 O 0.99913 -0.06385 -0.10833
 O51 O 1.10191 0.06028 0.00001
 O52 O 0.89903 -0.06154 0.00221
 O53 O 1.10153 -0.06136 0.00001
 O54 O 0.89725 0.06030 0.00207
 H55 H 1.00108 0.09092 0.15336
 H56 H 0.85681 -0.09142 0.00254
 H57 H 0.99849 0.08981 -0.15204
 H58 H 1.14391 -0.09119 -0.00105
 H59 H 0.78237 0.02268 0.06489
 H60 H 0.78100 0.02946 -0.06168
 H61 H 0.93749 -0.03522 -0.23094
 H62 H 1.05831 -0.03511 -0.23217
 H63 H 1.21709 0.02891 -0.06414
 H64 H 1.21918 -0.01078 0.05574
 H65 H 1.06638 -0.04102 0.23243
 H66 H 0.94185 -0.03648 0.23420
 O67 O 0.87826 0.40734 0.36322
 O68 O 0.94295 0.32896 0.43077
 C69 C 0.89541 0.34480 0.38119
 O70 O 1.13206 0.60212 0.36964
 O71 O 1.06365 0.67582 0.43975
 C72 C 1.11344 0.66348 0.39169
 O73 O 1.12646 0.40930 0.36259
 O74 O 1.06413 0.33013 0.43161
 C75 C 1.11036 0.34651 0.38110
 O76 O 0.86912 0.59659 0.37373
 O77 O 0.93787 0.67533 0.43560
 C78 C 0.88721 0.65918 0.38981
 Zr79 Zr 0.91523 0.50255 0.40274
 O80 O 0.92663 0.51141 0.28455
 O81 O 0.80504 0.49802 0.38739
 Zr82 Zr 1.09072 0.50488 0.40397
 O83 O 1.08772 0.51358 0.28527
 O84 O 1.20198 0.49837 0.40218
 O85 O 1.00369 0.44113 0.38786
 O86 O 1.00200 0.56500 0.39068
 O87 O 0.87076 0.59487 0.62825
 O88 O 0.93628 0.67437 0.56380
 C89 C 0.88711 0.65766 0.61107
 O90 O 1.12547 0.40671 0.63334
 O91 O 1.06344 0.32875 0.56275
 C92 C 1.10946 0.34432 0.61401
 O93 O 1.13006 0.59650 0.62826
 O94 O 1.06258 0.67540 0.56442
 C95 C 1.11227 0.65911 0.61149
 O96 O 0.87759 0.40584 0.63229
 O97 O 0.94133 0.32840 0.56234
 C98 C 0.89432 0.34359 0.61305
 Zr99 Zr 0.91334 0.50082 0.59236
 O100 O 0.91639 0.50712 0.71128
 O101 O 0.80214 0.49365 0.59426
 Zr102 Zr 1.08910 0.50184 0.59327
 O103 O 1.08437 0.50866 0.71210
 O104 O 1.20019 0.49500 0.59868
 Zr105 Zr 1.00271 0.39821 0.49715
 Zr106 Zr 1.00043 0.60639 0.50006
 O107 O 1.00056 0.56194 0.60781
 O108 O 1.00173 0.43875 0.60714
 O109 O 0.89893 0.56278 0.49825
 O110 O 1.10362 0.44338 0.49789
 O111 O 0.90123 0.44188 0.49681
 O112 O 1.10322 0.56493 0.49993
 H113 H 1.00185 0.59728 0.34748
 H114 H 1.14611 0.41365 0.49808
 H115 H 1.00014 0.59286 0.65220
 H116 H 0.85916 0.41181 0.49660
 H117 H 1.22033 0.53488 0.43564
 H118 H 1.21936 0.52788 0.56156
 H119 H 1.06198 0.46610 0.73111
 H120 H 0.94080 0.46552 0.73030
 H121 H 0.78337 0.52910 0.55956
 H122 H 0.78399 0.49513 0.43805
 H123 H 0.93973 0.46552 0.26452
 H124 H 1.06374 0.47219 0.26533
 O125 O 0.62393 -0.09473 0.63345
 O126 O 0.55960 -0.17281 0.56516
 C127 C 0.60722 -0.15733 0.61510
 O128 O 0.36777 0.09656 0.62668
 O129 O 0.43470 0.17511 0.56211
 C130 C 0.38496 0.15929 0.60937
 O131 O 0.37279 -0.09415 0.63206
 O132 O 0.43670 -0.17253 0.56333
 C133 C 0.38943 -0.15680 0.61347
 O134 O 0.63053 0.09565 0.62638
 O135 O 0.56270 0.17454 0.56298
 C136 C 0.61305 0.15854 0.60953
 Zr137 Zr 0.58527 0.00085 0.59504
 O138 O 0.57307 0.00781 0.71329
 O139 O 0.69555 -0.00272 0.61023
 Zr140 Zr 0.40977 0.00119 0.59213
 O141 O 0.41265 0.00811 0.71100
 O142 O 0.29857 -0.00556 0.59445
 O143 O 0.49740 -0.06187 0.60814
 O144 O 0.49751 0.06228 0.60777
 O145 O 0.63025 0.09651 0.37185
 O146 O 0.56176 0.17479 0.43530
 C147 C 0.61240 0.15917 0.38903
 O148 O 0.37523 -0.09302 0.36022
 O149 O 0.43743 -0.17169 0.43026
 C150 C 0.39091 -0.15581 0.37903
 O151 O 0.36990 0.09715 0.36977
 O152 O 0.43573 0.17536 0.43620
 C153 C 0.38662 0.15975 0.38813
 O154 O 0.62505 -0.09425 0.36557
 O155 O 0.56056 -0.17261 0.43322
 C156 C 0.60827 -0.15689 0.38376
 Zr157 Zr 0.58772 0.00131 0.40540
 O158 O 0.58405 0.00896 0.28660
 O159 O 0.69896 -0.00520 0.40256
 Zr160 Zr 0.41217 0.00164 0.40287
 O161 O 0.41951 0.01010 0.28432
 O162 O 0.30122 -0.00519 0.39557
 Zr163 Zr 0.49874 -0.10353 0.49835
 Zr164 Zr 0.49893 0.10575 0.49946
 O165 O 0.50004 0.06265 0.39076
 O166 O 0.50015 -0.06124 0.38900
 O167 O 0.60094 0.06239 0.50060
 O168 O 0.39769 -0.05859 0.49707
 O169 O 0.59979 -0.05887 0.50008
 O170 O 0.39679 0.06307 0.49761
 H171 H 0.49741 0.09412 0.65138
 H172 H 0.35535 -0.08829 0.49626
 H173 H 0.50033 0.09422 0.34696
 H174 H 0.64220 -0.08867 0.50017
 H175 H 0.27982 0.02983 0.55975
 H176 H 0.28138 0.02599 0.43414
 H177 H 0.44118 -0.03284 0.26502
 H178 H 0.56335 -0.03418 0.26687
 H179 H 0.71742 0.02863 0.43923
 H180 H 0.71657 -0.00716 0.55969
 H181 H 0.56027 -0.03845 0.73230
 H182 H 0.43616 -0.03389 0.73030
 O183 O 0.59387 0.62192 0.13738
 O184 O 0.67494 0.56072 0.06825
 C185 C 0.65795 0.60697 0.11838
 O186 O 0.40315 0.36886 0.12420
 O187 O 0.32138 0.43602 0.06328
 C188 C 0.33896 0.38591 0.10839
 O189 O 0.59460 0.37552 0.13406
 O190 O 0.67532 0.43851 0.06715
 C191 C 0.65856 0.39134 0.11627
 O192 O 0.40060 0.62384 0.13565
 O193 O 0.32024 0.56339 0.06541
 C194 C 0.33651 0.60971 0.11589
 Zr195 Zr 0.49751 0.58489 0.09696
 O196 O 0.49244 0.57899 0.21581
 O197 O 0.50203 0.69397 0.10068
 Zr198 Zr 0.49872 0.41394 0.09431
 O199 O 0.49620 0.42639 0.21235
 O200 O 0.50026 0.30545 0.10689
 O201 O 0.56260 0.49928 0.11033
 O202 O 0.43515 0.49885 0.10956
 O203 O 0.40282 0.63236 -0.12269
 O204 O 0.32164 0.56373 -0.06374
 C205 C 0.33877 0.61437 -0.10837
 O206 O 0.59443 0.37757 -0.13560
 O207 O 0.67511 0.43935 -0.06714
 C208 C 0.65845 0.39285 -0.11728
 O209 O 0.40270 0.37311 -0.12884
 O210 O 0.32143 0.43648 -0.06254
 C211 C 0.33864 0.38827 -0.11046
 O212 O 0.59400 0.62572 -0.13065
 O213 O 0.67518 0.56180 -0.06505
 C214 C 0.65811 0.60941 -0.11357
 Zr215 Zr 0.49791 0.58646 -0.09240
 O216 O 0.49005 0.57690 -0.21088
 O217 O 0.50174 0.69483 -0.10415
 Zr218 Zr 0.49850 0.41549 -0.09456
 O219 O 0.49105 0.42298 -0.21320
 O220 O 0.50445 0.30657 -0.10027
 Zr221 Zr 0.60567 0.50022 0.00090
 Zr222 Zr 0.39088 0.50032 0.00120
 O223 O 0.43515 0.50115 -0.10722
 O224 O 0.56267 0.50124 -0.10856
 O225 O 0.43488 0.60001 0.00248
 O226 O 0.56004 0.40153 -0.00029
 O227 O 0.55888 0.59888 0.00247
 O228 O 0.43600 0.40075 -0.00025
 H229 H 0.40293 0.49773 0.15337
 H230 H 0.59039 0.35996 -0.00089
 H231 H 0.40267 0.50151 -0.15086
 H232 H 0.58863 0.64074 0.00304
 H233 H 0.51476 0.28566 0.05811
 H234 H 0.47315 0.28800 -0.06073
 H235 H 0.53544 0.44318 -0.23206
 H236 H 0.53723 0.56506 -0.23071
 H237 H 0.50141 0.71424 -0.05280
 H238 H 0.46416 0.71204 0.06786
 H239 H 0.53430 0.55311 0.23343
 H240 H 0.49301 0.37933 0.23369
 N241 N 1.19493 0.19397 0.19405
 N242 N 1.14887 0.21157 0.14603
 N243 N 1.19834 0.69309 0.69414
 N244 N 1.15008 0.71222 0.64916
 N245 N 0.70169 0.19534 0.68992
 N246 N 0.65139 0.21262 0.64640
 N247 N 0.69270 0.69793 0.19367
 N248 N 0.71191 0.64593 0.15487
 N249 N 0.80536 -0.19586 0.19602
 N250 N 0.85582 -0.21411 0.15353
 N251 N 0.80706 0.30830 0.69409
 N252 N 0.85624 0.28974 0.64979
 N253 N 0.30131 -0.19321 0.69374
 N254 N 0.35179 -0.21085 0.65072
 N255 N 0.30605 0.29885 0.18902
 N256 N 0.28569 0.34733 0.14586
 N257 N 0.80483 0.19491 -0.19581
 N258 N 0.85155 0.21180 -0.14816
 N259 N 0.80134 0.69290 0.30688
 N260 N 0.84905 0.71230 0.35227
 N261 N 0.29926 0.19555 0.30687
 N262 N 0.34881 0.21373 0.35072
 N263 N 0.30564 0.70048 -0.19081
 N264 N 0.28531 0.65246 -0.14702
 N265 N 1.19329 -0.19468 -0.19695
 N266 N 1.14477 -0.21347 -0.15241
 N267 N 1.19671 0.31030 0.29939
 N268 N 1.14791 0.29277 0.34408
 N269 N 0.69792 -0.19363 0.30559
 N270 N 0.64642 -0.21100 0.34709
 N271 N 0.69413 0.30370 -0.19617
 N272 N 0.71272 0.35409 -0.15446
 N273 N 1.19393 0.19404 -0.19488
 N274 N 1.14744 0.21140 -0.14717
 N275 N 1.19322 0.72573 0.31318
 N276 N 1.14900 0.72300 0.36387
 N277 N 0.70129 0.19586 0.30973
 N278 N 0.65027 0.21335 0.35210
 N279 N 0.69241 0.69824 -0.19214
 N280 N 0.71193 0.64779 -0.15110
 N281 N 0.80497 -0.19586 -0.19557
 N282 N 0.85398 -0.21394 -0.15093
 N283 N 0.80580 0.30935 0.30335
 N284 N 0.85690 0.29113 0.34506
 N285 N 0.30683 -0.19349 0.29229
 N286 N 0.35132 -0.20986 0.34312
 N287 N 0.30481 0.30078 -0.19120
 N288 N 0.28499 0.34934 -0.14763
 N289 N 1.20662 -0.19841 0.18598
 N290 N 1.14868 -0.21359 0.15388
 N291 N 1.19451 0.30872 0.69750
 N292 N 1.14689 0.29052 0.65141
 N293 N 0.69693 -0.19434 0.69396
 N294 N 0.64544 -0.21155 0.65206
 N295 N 0.69358 0.30223 0.19447
 N296 N 0.71262 0.35271 0.15337
 N297 N 0.80451 0.19463 0.19596
 N298 N 0.85183 0.21170 0.14922
 N299 N 0.80093 0.69163 0.69427
 N300 N 0.84867 0.71065 0.64876
 N301 N 0.29843 0.19523 0.69215
 N302 N 0.34720 0.21323 0.64720
 N303 N 0.29976 0.68827 0.20665
 N304 N 0.28204 0.65047 0.15097
   
