data_POSCAR
  _audit_creation_date              2014-09-24
  _audit_creation_method            'ToBaCCo'
  _symmetry_space_group_name_H-M    'P1'
  _symmetry_Int_Tables_number       1
  _symmetry_cell_setting            triclinic
  loop_
  _symmetry_equiv_pos_as_xyz
 x,y,z
_cell_length_a 21.8949
_cell_length_b 22.0196
_cell_length_c 21.7481
_cell_angle_alpha 89.778400
_cell_angle_beta 89.989200
_cell_angle_gamma 90.029200
loop_
  _atom_site_label
  _atom_site_type_symbol
  _atom_site_fract_x
  _atom_site_fract_y
  _atom_site_fract_z
N1 N 0.56337 0.12060 0.03468
 N2 N 0.60491 0.15838 0.05619
 N3 N 0.43576 0.12074 -0.02686
 N4 N 0.39014 0.15339 -0.04889
 N5 N 0.43493 0.12058 0.03349
 N6 N 0.38875 0.15313 0.05419
 N7 N 0.56414 0.12035 -0.02569
 N8 N 0.60617 0.15797 -0.04685
 C9 C 0.63171 0.18086 0.00479
 C10 C 0.36120 0.17334 0.00223
 N11 N 0.43579 -0.03134 -0.11918
 N12 N 0.38867 -0.05212 -0.15056
 N13 N 0.56487 0.02751 -0.11870
 N14 N 0.61124 0.04823 -0.15152
 N15 N 0.56429 -0.03204 -0.11816
 N16 N 0.61315 -0.05404 -0.15244
 N17 N 0.43635 0.02825 -0.11967
 N18 N 0.38968 0.04970 -0.15134
 Mn19 Mn 0.50036 0.07467 -0.07327
 C20 C 0.36042 -0.00098 -0.17046
 C21 C 0.64050 -0.00218 -0.17208
 N22 N 0.43399 0.02820 0.12768
 N23 N 0.38753 0.04929 0.15984
 N24 N 0.56269 -0.03139 0.12923
 N25 N 0.60884 -0.05229 0.16226
 N26 N 0.56250 0.02818 0.12861
 N27 N 0.61147 0.04996 0.16293
 N28 N 0.43410 -0.03140 0.12816
 N29 N 0.38774 -0.05253 0.16058
 Mn30 Mn 0.49868 0.07486 0.08166
 C31 C 0.35910 -0.00166 0.18010
 C32 C 0.63841 -0.00200 0.18280
 N33 N 0.56303 -0.12449 -0.02439
 N34 N 0.60490 -0.16222 -0.04531
 N35 N 0.43430 -0.12395 0.03507
 N36 N 0.38821 -0.15670 0.05610
 N37 N 0.43471 -0.12382 -0.02530
 N38 N 0.38906 -0.15649 -0.04698
 N39 N 0.56282 -0.12427 0.03598
 N40 N 0.60456 -0.16183 0.05774
 Mn41 Mn 0.49945 -0.07838 -0.07230
 Mn42 Mn 0.49853 -0.07825 0.08267
 Cl43 Cl 0.49929 -0.00178 0.00472
 C44 C 0.63090 -0.18469 0.00647
 C45 C 0.36038 -0.17671 0.00433
 N46 N 0.12446 0.43322 0.03178
 N47 N 0.15681 0.38705 0.05278
 N48 N 0.12504 0.56154 -0.02779
 N49 N 0.15708 0.60790 -0.04904
 N50 N 0.12524 0.56107 0.03259
 N51 N 0.15735 0.60710 0.05405
 N52 N 0.12413 0.43367 -0.02858
 N53 N 0.15634 0.38783 -0.05030
 C54 C 0.17647 0.35915 0.00106
 C55 C 0.17705 0.63587 0.00257
 N56 N -0.02854 0.56368 -0.12033
 N57 N -0.04966 0.61040 -0.15209
 N58 N 0.03024 0.43508 -0.12150
 N59 N 0.05058 0.38841 -0.15344
 N60 N -0.02971 0.43587 -0.12117
 N61 N -0.05180 0.38986 -0.15287
 N62 N 0.03135 0.56297 -0.12074
 N63 N 0.05316 0.61217 -0.15467
 Mn64 Mn 0.07824 0.49830 -0.07524
 C65 C 0.00082 0.63979 -0.17307
 C66 C -0.00118 0.36069 -0.17286
 N67 N 0.03286 0.56049 0.12707
 N68 N 0.05427 0.60183 0.16524
 N69 N -0.02793 0.43316 0.12597
 N70 N -0.04951 0.38687 0.15797
 N71 N 0.03201 0.43273 0.12586
 N72 N 0.05290 0.38610 0.15784
 N73 N -0.02708 0.56079 0.12714
 N74 N -0.04809 0.60231 0.16523
 Mn75 Mn 0.07921 0.49690 0.07981
 C76 C 0.00317 0.62799 0.18821
 C77 C 0.00145 0.35794 0.17763
 N78 N -0.12211 0.43564 -0.02710
 N79 N -0.16020 0.39416 -0.04823
 N80 N -0.12042 0.56257 0.03425
 N81 N -0.15793 0.60395 0.05636
 N82 N -0.12107 0.56325 -0.02612
 N83 N -0.15916 0.60508 -0.04669
 N84 N -0.12144 0.43506 0.03325
 N85 N -0.15901 0.39328 0.05482
 Mn86 Mn -0.07579 0.49965 -0.07424
 Mn87 Mn -0.07461 0.49790 0.08060
 Cl88 Cl 0.00178 0.49821 0.00274
 C89 C -0.18239 0.36769 0.00349
 C90 C -0.18126 0.63058 0.00533
 N91 N 0.02775 0.12032 0.43942
 N92 N 0.04947 0.15242 0.39297
 N93 N -0.03337 0.12151 0.56815
 N94 N -0.05489 0.15413 0.61414
 N95 N 0.02658 0.12141 0.56871
 N96 N 0.04749 0.15381 0.61506
 N97 N -0.03220 0.12014 0.43870
 N98 N -0.05293 0.15217 0.39172
 C99 C -0.00139 0.17203 0.36361
 C100 C -0.00384 0.17402 0.64299
 N101 N -0.12594 -0.03090 0.56937
 N102 N -0.15800 -0.05161 0.61637
 N103 N -0.12502 0.02727 0.43905
 N104 N -0.15775 0.04776 0.39243
 N105 N -0.12494 -0.03236 0.43994
 N106 N -0.15771 -0.05404 0.39402
 N107 N -0.12619 0.02872 0.56847
 N108 N -0.15851 0.05020 0.61478
 Mn109 Mn -0.07976 0.07495 0.50356
 C110 C -0.17814 -0.00048 0.64423
 C111 C -0.17788 -0.00348 0.36473
 N112 N 0.11971 0.02936 0.57074
 N113 N 0.15217 0.05079 0.61698
 N114 N 0.12088 -0.03133 0.44207
 N115 N 0.15335 -0.05267 0.39580
 N116 N 0.12078 0.02828 0.44141
 N117 N 0.15315 0.04916 0.39472
 N118 N 0.11972 -0.03023 0.57140
 N119 N 0.15208 -0.05103 0.61807
 Mn120 Mn 0.07421 0.07536 0.50508
 C121 C 0.17205 0.00003 0.64610
 C122 C 0.17326 -0.00187 0.36672
 N123 N -0.03157 -0.12476 0.44221
 N124 N -0.05193 -0.16311 0.40041
 N125 N 0.02718 -0.12282 0.57198
 N126 N 0.04828 -0.15540 0.61836
 N127 N -0.03277 -0.12322 0.57156
 N128 N -0.05411 -0.15620 0.61765
 N129 N 0.02840 -0.12421 0.44283
 N130 N 0.05042 -0.16207 0.40156
 Mn131 Mn -0.07938 -0.07830 0.50575
 Mn132 Mn 0.07454 -0.07759 0.50706
 Cl133 Cl -0.00263 -0.00141 0.50533
 C134 C -0.00017 -0.18554 0.37497
 C135 C -0.00294 -0.17592 0.64649
 C136 C -0.29955 0.25356 -0.05024
 C137 C -0.32241 0.22976 0.00491
 C138 C -0.30317 0.25685 0.06023
 C139 C -0.25800 0.30234 0.05985
 C140 C -0.23121 0.32168 0.00416
 C141 C -0.25503 0.29848 -0.05061
 C142 C -0.22280 0.27091 -0.10418
 C143 C -0.27156 0.22171 -0.10377
 H144 H -0.32164 0.24179 0.10389
 H145 H -0.24294 0.32103 0.10327
 H146 H -0.17651 0.25380 -0.09217
 H147 H -0.22472 0.30051 -0.14565
 H148 H -0.25362 0.17599 -0.09153
 H149 H -0.30151 0.22302 -0.14501
 C150 C 0.28014 0.76178 0.05829
 C151 C 0.30600 0.78369 0.00370
 C152 C 0.27933 0.76476 -0.05212
 C153 C 0.23446 0.71878 -0.05259
 C154 C 0.21551 0.69092 0.00274
 C155 C 0.23602 0.71653 0.05782
 C156 C 0.26114 0.68731 0.11447
 C157 C 0.30950 0.73692 0.11498
 H158 H 0.29581 0.78248 -0.09558
 H159 H 0.21771 0.70249 -0.09639
 H160 H 0.28010 0.64130 0.10569
 H161 H 0.22888 0.69018 0.15383
 H162 H 0.35646 0.71965 0.10650
 H163 H 0.30503 0.76833 0.15463
 C164 C 0.28095 0.23402 0.05619
 C165 C 0.30668 0.21266 0.00150
 C166 C 0.27970 0.23174 -0.05424
 C167 C 0.23441 0.27730 -0.05455
 C168 C 0.21540 0.30451 0.00087
 C169 C 0.23645 0.27882 0.05588
 C170 C 0.26184 0.30817 0.11212
 C171 C 0.31062 0.25907 0.11246
 H172 H 0.29617 0.21445 -0.09773
 H173 H 0.21732 0.29376 -0.09826
 H174 H 0.23002 0.30488 0.15179
 H175 H 0.28030 0.35439 0.10292
 H176 H 0.30679 0.22759 0.15232
 H177 H 0.35734 0.27682 0.10345
 C178 C -0.30199 0.74124 -0.04795
 C179 C -0.32291 0.76674 0.00696
 C180 C -0.30114 0.74176 0.06258
 C181 C -0.25532 0.69689 0.06230
 C182 C -0.23041 0.67616 0.00638
 C183 C -0.25683 0.69712 -0.04824
 C184 C -0.22759 0.72289 -0.10461
 C185 C -0.27727 0.77113 -0.10442
 H186 H -0.31805 0.75811 0.10628
 H187 H -0.23824 0.67988 0.10580
 H188 H -0.23081 0.69151 -0.14439
 H189 H -0.18116 0.74137 -0.09566
 H190 H -0.30924 0.76715 -0.14387
 H191 H -0.25976 0.81772 -0.09564
 C192 C -0.05200 -0.30395 0.26106
 C193 C 0.00302 -0.32621 0.23738
 C194 C 0.05774 -0.30619 0.26474
 C195 C 0.05683 -0.26084 0.31021
 C196 C 0.00118 -0.23464 0.32920
 C197 C -0.05290 -0.25928 0.30589
 C198 C -0.10663 -0.22829 0.27750
 C199 C -0.10566 -0.27723 0.22838
 H200 H 0.10131 -0.32415 0.24982
 H201 H 0.09977 -0.24511 0.32905
 H202 H -0.09541 -0.18226 0.25954
 H203 H -0.14771 -0.23054 0.30746
 H204 H -0.09387 -0.25965 0.18185
 H205 H -0.14618 -0.30762 0.23009
 C206 C 0.05155 0.27814 0.76865
 C207 C -0.00244 0.30555 0.78887
 C208 C -0.05815 0.27959 0.76956
 C209 C -0.05887 0.23383 0.72435
 C210 C -0.00389 0.21326 0.69780
 C211 C 0.05083 0.23315 0.72424
 C212 C 0.10826 0.25601 0.69522
 C213 C 0.10902 0.30537 0.74395
 H214 H -0.10122 0.29729 0.78616
 H215 H -0.10244 0.21766 0.70745
 H216 H 0.10090 0.27385 0.64789
 H217 H 0.14648 0.22311 0.70004
 H218 H 0.10209 0.35177 0.72483
 H219 H 0.14767 0.30084 0.77680
 C220 C 0.05507 0.27790 0.23921
 C221 C 0.00087 0.30287 0.21634
 C222 C -0.05450 0.27483 0.23370
 C223 C -0.05524 0.22920 0.27933
 C224 C -0.00063 0.21095 0.30835
 C225 C 0.05434 0.23304 0.28416
 C226 C 0.10889 0.25895 0.31584
 C227 C 0.10970 0.30808 0.26657
 H228 H -0.09752 0.29077 0.21514
 H229 H -0.09879 0.21132 0.29459
 H230 H 0.14895 0.22810 0.31350
 H231 H 0.09814 0.27652 0.36248
 H232 H 0.15021 0.30542 0.23594
 H233 H 0.09942 0.35414 0.28465
 C234 C 0.05319 -0.28244 0.77037
 C235 C -0.00073 -0.30985 0.79167
 C236 C -0.05654 -0.28277 0.77332
 C237 C -0.05744 -0.23636 0.72837
 C238 C -0.00270 -0.21593 0.70105
 C239 C 0.05216 -0.23680 0.72631
 C240 C 0.10875 -0.25957 0.69592
 C241 C 0.11007 -0.30961 0.74421
 H242 H -0.09980 -0.29971 0.79050
 H243 H -0.10107 -0.21941 0.71237
 H244 H 0.14730 -0.22709 0.70023
 H245 H 0.10029 -0.27664 0.64862
 H246 H 0.14941 -0.30583 0.77629
 H247 H 0.10247 -0.35566 0.72482
 C248 C 0.27868 -0.05456 0.77060
 C249 C 0.30466 -0.00048 0.79170
 C250 C 0.27693 0.05452 0.77343
 C251 C 0.23065 0.05481 0.72838
 C252 C 0.21149 0.00011 0.70094
 C253 C 0.23325 -0.05427 0.72621
 C254 C 0.25836 -0.10951 0.69567
 C255 C 0.30807 -0.10990 0.74445
 H256 H 0.29364 0.09749 0.79071
 H257 H 0.21304 0.09797 0.71225
 H258 H 0.27589 -0.10005 0.64860
 H259 H 0.22684 -0.14887 0.69936
 H260 H 0.35442 -0.10074 0.72562
 H261 H 0.30499 -0.14943 0.77625
 C262 C -0.28350 0.05052 0.23878
 C263 C -0.31151 -0.00328 0.21879
 C264 C -0.28507 -0.05857 0.23896
 C265 C -0.23877 -0.05886 0.28416
 C266 C -0.21779 -0.00402 0.31003
 C267 C -0.23794 0.05010 0.28303
 C268 C -0.26005 0.10766 0.31134
 C269 C -0.31011 0.10824 0.26289
 H270 H -0.30244 -0.10179 0.22295
 H271 H -0.22235 -0.10204 0.30148
 H272 H -0.22666 0.14532 0.30572
 H273 H -0.27763 0.10099 0.35887
 H274 H -0.30555 0.14632 0.22948
 H275 H -0.35664 0.10194 0.28243
 C276 C 0.27902 0.05241 0.24104
 C277 C 0.30411 -0.00179 0.21916
 C278 C 0.27620 -0.05663 0.23777
 C279 C 0.23066 -0.05672 0.28360
 C280 C 0.21231 -0.00198 0.31152
 C281 C 0.23421 0.05231 0.28612
 C282 C 0.26030 0.10716 0.31658
 C283 C 0.30940 0.10727 0.26716
 H284 H 0.29220 -0.09966 0.22002
 H285 H 0.21290 -0.09980 0.29982
 H286 H 0.27830 0.09732 0.36338
 H287 H 0.22914 0.14685 0.31347
 H288 H 0.35586 0.09749 0.28531
 H289 H 0.30641 0.14702 0.23569
 C290 C -0.28244 -0.05492 0.77093
 C291 C -0.30959 -0.00104 0.79179
 C292 C -0.28274 0.05423 0.77206
 C293 C -0.23703 0.05456 0.72631
 C294 C -0.21706 -0.00019 0.69956
 C295 C -0.23737 -0.05443 0.72617
 C296 C -0.26062 -0.11123 0.69719
 C297 C -0.31022 -0.11181 0.74608
 H298 H -0.29943 0.09744 0.78879
 H299 H -0.22038 0.09777 0.70924
 H300 H -0.22777 -0.14945 0.70193
 H301 H -0.27851 -0.10362 0.64993
 H302 H -0.30599 -0.15047 0.77872
 H303 H -0.35681 -0.10449 0.72709
   
