data_POSCAR
  _audit_creation_date              2014-09-24
  _audit_creation_method            'ToBaCCo'
  _symmetry_space_group_name_H-M    'P1'
  _symmetry_Int_Tables_number       1
  _symmetry_cell_setting            triclinic
  loop_
  _symmetry_equiv_pos_as_xyz
 x,y,z
_cell_length_a 40.3295
_cell_length_b 41.5882
_cell_length_c 39.9149
_cell_angle_alpha 88.858700
_cell_angle_beta 89.202200
_cell_angle_gamma 89.133200
loop_
  _atom_site_label
  _atom_site_type_symbol
  _atom_site_fract_x
  _atom_site_fract_y
  _atom_site_fract_z
N1 N 0.19659 1.20027 0.19378
 N2 N 0.80020 0.78880 0.20860
 N3 N 0.80657 1.20362 -0.19000
 N4 N 0.20299 0.80676 -0.19951
 C5 C 0.55401 1.04031 -0.00973
 H6 H 0.55241 1.04223 0.01723
 C7 C 0.57780 1.05768 -0.02786
 H8 H 0.59453 1.07296 -0.01466
 C9 C 0.53517 1.01672 -0.05944
 H10 H 0.51902 1.00018 -0.07155
 C11 C 0.55882 1.03342 -0.07852
 H12 H 0.56021 1.03007 -0.10534
 N13 N 0.53319 1.02046 -0.02568
 C14 C 0.45218 1.00723 0.04667
 H15 H 0.45213 0.98125 0.04865
 C16 C 0.42890 1.02527 0.06474
 H17 H 0.41152 1.01288 0.08117
 C18 C 0.47502 1.05464 0.02265
 H19 H 0.49248 1.06597 0.00558
 C20 C 0.45193 1.07363 0.04001
 H21 H 0.45199 1.09944 0.03599
 Zn22 Zn 0.50402 0.99548 0.00128
 N23 N 0.47487 1.02206 0.02642
 C24 C 0.52747 0.96929 0.06356
 N25 N 0.53092 0.96943 0.02962
 C26 C 0.55559 0.95230 0.01438
 C27 C 0.57830 0.93437 0.03338
 C28 C 0.54929 0.95119 0.08354
 C29 C 0.45636 0.98547 -0.04698
 C30 C 0.43392 0.96834 -0.06569
 C31 C 0.45452 0.91915 -0.03971
 C32 C 0.47682 0.93726 -0.02167
 N33 N 0.47720 0.96981 -0.02552
 H34 H 0.50814 0.98351 0.07533
 H35 H 0.55809 0.95327 -0.01264
 H36 H 0.59840 0.92197 0.02058
 H37 H 0.54570 0.95110 0.11046
 H38 H 0.45696 1.01143 -0.04923
 H39 H 0.41777 0.98135 -0.08283
 H40 H 0.45387 0.89337 -0.03551
 H41 H 0.49312 0.92537 -0.00391
 C42 C 0.42837 1.05898 0.06140
 C43 C 0.58060 1.05411 -0.06269
 C44 C 0.43241 0.93472 -0.06186
 C45 C 0.57547 0.93368 0.06855
 C46 C -0.01095 0.55279 1.03893
 H47 H 0.01573 0.55507 1.03776
 C48 C -0.02998 0.57375 1.05848
 H49 H -0.01759 0.59237 1.07188
 C50 C -0.05927 0.52674 1.02116
 H51 H -0.07073 0.50887 1.00607
 C52 C -0.07924 0.54689 1.04078
 H53 H -0.10580 0.54353 1.04111
 N54 N -0.02574 0.52985 1.02080
 C55 C 0.05254 0.45847 1.00441
 H56 H 0.05452 0.45982 0.97736
 C57 C 0.07200 0.43633 1.02235
 H58 H 0.08946 0.42121 1.00883
 C59 C 0.02702 0.47660 1.05457
 H60 H 0.00883 0.49179 1.06689
 C61 C 0.04575 0.45449 1.07351
 H62 H 0.04163 0.45293 1.10034
 Zn63 Zn 0.00246 0.50407 0.99372
 N64 N 0.03059 0.47800 1.02065
 C65 C 0.06088 0.53483 0.97000
 N66 N 0.02757 0.53235 0.96601
 C67 C 0.01100 0.55170 0.94383
 C68 C 0.02806 0.57433 0.92416
 C69 C 0.07885 0.55738 0.95111
 C70 C -0.04133 0.45395 0.98511
 C71 C -0.05903 0.43093 0.96816
 C72 C -0.03629 0.45178 0.91595
 C73 C -0.01933 0.47473 0.93394
 N74 N -0.02229 0.47550 0.96790
 H75 H 0.07349 0.51990 0.98841
 H76 H -0.01561 0.54974 0.94172
 H77 H 0.01441 0.58982 0.90694
 H78 H 0.10532 0.55915 0.95470
 H79 H -0.04265 0.45461 1.01218
 H80 H -0.07457 0.41455 0.98247
 H81 H -0.03289 0.45108 0.88903
 H82 H -0.00316 0.49131 0.92078
 C83 C 0.06836 0.43366 1.05736
 C84 C -0.06469 0.57100 1.05967
 C85 C -0.05646 0.42938 0.93307
 C86 C 0.06239 0.57753 0.92791
 C87 C 1.03670 -0.01055 0.54993
 H88 H 1.03855 0.01538 0.55007
 C89 C 1.05447 -0.02937 0.57302
 H90 H 1.06997 -0.01777 0.59097
 C91 C 1.01296 -0.05703 0.52729
 H92 H 0.99629 -0.06763 0.50981
 C93 C 1.02997 -0.07676 0.55023
 H94 H 1.02666 -0.10254 0.54989
 N95 N 1.01653 -0.02457 0.52765
 C96 C 1.00245 0.05053 0.45126
 H97 H 0.97566 0.05243 0.45185
 C98 C 1.02067 0.06955 0.42875
 H99 H 1.00762 0.08654 0.41261
 C100 C 1.05167 0.02589 0.47178
 H101 H 1.06357 0.00824 0.48800
 C102 C 1.07089 0.04419 0.44933
 H103 H 1.09748 0.04030 0.44860
 Zn104 Zn 0.99078 0.00276 0.49961
 N105 N 1.01809 0.02939 0.47234
 C106 C 0.96706 0.06033 0.52918
 N107 N 0.96327 0.02792 0.52800
 C108 C 0.94170 0.01244 0.54902
 C109 C 0.92249 0.02971 0.57205
 C110 C 0.94857 0.07848 0.55202
 C111 C 0.98371 -0.03733 0.44598
 C112 C 0.96783 -0.05421 0.42117
 C113 C 0.91510 -0.03986 0.44670
 C114 C 0.93202 -0.02269 0.47075
 N115 N 0.96575 -0.02183 0.46997
 H116 H 0.98504 0.07213 0.51308
 H117 H 0.93987 -0.01346 0.54825
 H118 H 0.90584 0.01693 0.58896
 H119 H 0.95202 0.10423 0.55272
 H120 H 1.01048 -0.03600 0.44580
 H121 H 0.98248 -0.06610 0.40199
 H122 H 0.88825 -0.04010 0.44725
 H123 H 0.91814 -0.00966 0.48955
 C124 C 1.05540 0.06628 0.42723
 C125 C 1.05091 -0.06290 0.57358
 C126 C 0.93312 -0.05546 0.42129
 C127 C 0.92606 0.06314 0.57393
 C128 C 0.18340 0.22789 1.14010
 C129 C 0.17046 0.25433 1.12228
 C130 C 0.15940 0.28174 1.13910
 C131 C 0.16176 0.28264 1.17417
 C132 C 0.17450 0.25606 1.19208
 C133 C 0.18526 0.22838 1.17521
 N134 N 0.14464 0.30759 1.12005
 N135 N 0.13601 0.33426 1.13288
 C136 C 0.12007 0.35918 1.11337
 C137 C 0.11442 0.38937 1.12740
 C138 C 0.09808 0.41380 1.10916
 C139 C 0.08681 0.40827 1.07658
 C140 C 0.09258 0.37783 1.06265
 C141 C 0.10916 0.35362 1.08076
 H142 H 0.19115 0.20669 1.12658
 H143 H 0.16859 0.25331 1.09528
 H144 H 0.15322 0.30354 1.18773
 H145 H 0.17574 0.25690 1.21913
 H146 H 0.12269 0.39397 1.15253
 H147 H 0.09442 0.43702 1.12052
 H148 H 0.08362 0.37240 1.03799
 H149 H 0.11290 0.33037 1.06945
 C150 C -0.14820 0.75639 1.20090
 C151 C -0.13137 0.72979 1.18776
 C152 C -0.14850 0.70661 1.17028
 C153 C -0.18312 0.70943 1.16748
 C154 C -0.20011 0.73571 1.18124
 C155 C -0.18274 0.76002 1.19725
 N156 N -0.13001 0.68132 1.15446
 N157 N -0.14248 0.66402 1.13206
 C158 C -0.12357 0.63940 1.11559
 C159 C -0.13579 0.62643 1.08626
 C160 C -0.11690 0.60404 1.06825
 C161 C -0.08552 0.59374 1.07964
 C162 C -0.07384 0.60611 1.10980
 C163 C -0.09255 0.62889 1.12747
 H164 H -0.13403 0.77462 1.21304
 H165 H -0.10469 0.72782 1.19013
 H166 H -0.19694 0.69154 1.15444
 H167 H -0.22678 0.73745 1.17873
 H168 H -0.15961 0.63445 1.07678
 H169 H -0.12656 0.59556 1.04492
 H170 H -0.05020 0.59825 1.11981
 H171 H -0.08272 0.63836 1.15031
 C172 C -0.17795 0.22958 0.86133
 C173 C -0.16288 0.25486 0.87748
 C174 C -0.14967 0.28064 0.85902
 C175 C -0.15169 0.28099 0.82392
 C176 C -0.16638 0.25550 0.80760
 C177 C -0.17970 0.22925 0.82602
 N178 N -0.13355 0.30558 0.87653
 N179 N -0.12447 0.33169 0.86226
 C180 C -0.10752 0.35583 0.88024
 C181 C -0.10331 0.38632 0.86547
 C182 C -0.08693 0.41032 0.88258
 C183 C -0.07403 0.40404 0.91470
 C184 C -0.07795 0.37316 0.92917
 C185 C -0.09469 0.34939 0.91225
 H186 H -0.18722 0.20965 0.87641
 H187 H -0.16127 0.25427 0.90455
 H188 H -0.14158 0.30070 0.80912
 H189 H -0.16771 0.25643 0.78051
 H190 H -0.11307 0.39158 0.84080
 H191 H -0.08478 0.43388 0.87081
 H192 H -0.06768 0.36713 0.95344
 H193 H -0.09724 0.32587 0.92403
 C194 C 0.18846 0.77674 0.85278
 C195 C 0.17457 0.75016 0.86929
 C196 C 0.16123 0.72520 0.85106
 C197 C 0.16268 0.72667 0.81586
 C198 C 0.17699 0.75309 0.79928
 C199 C 0.18964 0.77866 0.81755
 N200 N 0.14590 0.69908 0.86897
 N201 N 0.12921 0.67780 0.85447
 C202 C 0.11372 0.65208 0.87294
 C203 C 0.09157 0.63230 0.85661
 C204 C 0.07498 0.60790 0.87435
 C205 C 0.08068 0.60265 0.90871
 C206 C 0.10342 0.62214 0.92489
 C207 C 0.11969 0.64674 0.90724
 H208 H 0.19773 0.79611 0.86757
 H209 H 0.17358 0.74929 0.89642
 H210 H 0.15274 0.70751 0.80124
 H211 H 0.17799 0.75372 0.77215
 H212 H 0.08680 0.63613 0.83019
 H213 H 0.05779 0.59305 0.86123
 H214 H 0.10803 0.61884 0.95142
 H215 H 0.13674 0.66167 0.92043
 C216 C 1.14265 0.18720 0.22041
 C217 C 1.12423 0.17352 0.24677
 C218 C 1.14009 0.16105 0.27524
 C219 C 1.17479 0.16276 0.27733
 C220 C 1.19328 0.17622 0.25082
 C221 C 1.17739 0.18837 0.22204
 N222 N 1.12051 0.14557 0.30084
 N223 N 1.13251 0.13585 0.32864
 C224 C 1.11264 0.11923 0.35326
 C225 C 1.12557 0.11281 0.38508
 C226 C 1.10695 0.09597 0.40931
 C227 C 1.07509 0.08492 0.40193
 C228 C 1.06230 0.09137 0.36982
 C229 C 1.08078 0.10848 0.34581
 H230 H 1.12991 0.19604 0.19830
 H231 H 1.09753 0.17218 0.24481
 H232 H 1.18761 0.15314 0.29906
 H233 H 1.22004 0.17689 0.25250
 H234 H 1.15012 0.12094 0.39114
 H235 H 1.11742 0.09182 0.43387
 H236 H 1.03824 0.08265 0.36292
 H237 H 1.07036 0.11281 0.32125
 C238 C 1.20752 -0.16624 0.74486
 C239 C 1.19288 -0.15183 0.71669
 C240 C 1.15839 -0.15135 0.71338
 C241 C 1.13855 -0.16566 0.73860
 C242 C 1.15315 -0.17976 0.76698
 C243 C 1.18782 -0.18016 0.77045
 N244 N 1.14413 -0.13508 0.68495
 N245 N 1.11337 -0.13652 0.67855
 C246 C 1.09887 -0.11909 0.65098
 C247 C 1.06576 -0.12459 0.64311
 C248 C 1.05039 -0.10690 0.61738
 C249 C 1.06787 -0.08306 0.59935
 C250 C 1.10122 -0.07778 0.60706
 C251 C 1.11667 -0.09575 0.63255
 H252 H 1.23426 -0.16626 0.74689
 H253 H 1.20842 -0.14080 0.69748
 H254 H 1.11180 -0.16531 0.73676
 H255 H 1.13734 -0.18975 0.78656
 H256 H 1.05174 -0.14239 0.65723
 H257 H 1.02456 -0.11120 0.61221
 H258 H 1.11529 -0.05970 0.59340
 H259 H 1.14228 -0.09098 0.63824
 C260 C 0.81532 -0.20982 0.26827
 C261 C 0.82825 -0.19357 0.29541
 C262 C 0.83932 -0.16195 0.29129
 C263 C 0.83655 -0.14641 0.25982
 C264 C 0.82315 -0.16246 0.23288
 C265 C 0.81272 -0.19434 0.23684
 N266 N 0.85379 -0.14629 0.31908
 N267 N 0.87029 -0.12064 0.31495
 C268 C 0.88503 -0.10437 0.34214
 C269 C 0.90862 -0.08086 0.33481
 C270 C 0.92425 -0.06502 0.36059
 C271 C 0.91598 -0.07202 0.39421
 C272 C 0.89172 -0.09508 0.40162
 C273 C 0.87653 -0.11141 0.37575
 H274 H 0.80732 -0.23442 0.27164
 H275 H 0.83023 -0.20580 0.31952
 H276 H 0.84477 -0.12193 0.25604
 H277 H 0.82142 -0.15028 0.20872
 H278 H 0.91525 -0.07516 0.30901
 H279 H 0.94267 -0.04711 0.35431
 H280 H 0.88504 -0.10086 0.42739
 H281 H 0.85818 -0.12937 0.38195
 C282 C 0.85671 0.19179 0.77757
 C283 C 0.87220 0.17821 0.74963
 C284 C 0.85351 0.16376 0.72506
 C285 C 0.81880 0.16392 0.72809
 C286 C 0.80313 0.17786 0.75582
 C287 C 0.82181 0.19152 0.78154
 N288 N 0.87051 0.14841 0.69786
 N289 N 0.85572 0.13097 0.67709
 C290 C 0.87332 0.11528 0.65045
 C291 C 0.85680 0.09289 0.63126
 C292 C 0.87379 0.07605 0.60618
 C293 C 0.90757 0.08169 0.59965
 C294 C 0.92392 0.10465 0.61852
 C295 C 0.90701 0.12122 0.64378
 H296 H 0.87226 0.20139 0.79676
 H297 H 0.89901 0.17816 0.74756
 H298 H 0.80380 0.15323 0.70912
 H299 H 0.77630 0.17802 0.75713
 H300 H 0.83084 0.08812 0.63613
 H301 H 0.86054 0.05867 0.59182
 H302 H 0.95003 0.10922 0.61428
 H303 H 0.92035 0.13842 0.65825
 C304 C 0.22090 1.14776 0.17794
 C305 C 0.24666 1.12949 0.16386
 C306 C 0.27592 1.14418 0.15283
 C307 C 0.27931 1.17755 0.15623
 C308 C 0.25340 1.19592 0.17008
 C309 C 0.22394 1.18118 0.18096
 N310 N 0.30118 1.12479 0.13733
 N311 N 0.32957 1.13562 0.12913
 C312 C 0.35407 1.11596 0.11270
 C313 C 0.38622 1.12757 0.10809
 C314 C 0.41048 1.10903 0.09174
 C315 C 0.40285 1.07859 0.07936
 C316 C 0.37041 1.06714 0.08394
 C317 C 0.34632 1.08554 0.10057
 H318 H 0.19826 1.13595 0.18577
 H319 H 0.24371 1.10383 0.16121
 H320 H 0.30168 1.18945 0.14774
 H321 H 0.25617 1.22165 0.17219
 H322 H 0.39251 1.15098 0.11733
 H323 H 0.43528 1.11844 0.08908
 H324 H 0.36340 1.04417 0.07415
 H325 H 0.32153 1.07616 0.10351
 C326 C 0.75360 1.20787 -0.16033
 C327 C 0.72578 1.19334 -0.14574
 C328 C 0.72188 1.16008 -0.14707
 C329 C 0.74622 1.14130 -0.16324
 C330 C 0.77423 1.15568 -0.17762
 C331 C 0.77851 1.18932 -0.17652
 N332 N 0.69353 1.14588 -0.13099
 N333 N 0.68702 1.11621 -0.13373
 C334 C 0.65934 1.10170 -0.11679
 C335 C 0.65213 1.06962 -0.12315
 C336 C 0.62610 1.05433 -0.10610
 C337 C 0.60701 1.07089 -0.08208
 C338 C 0.61409 1.10322 -0.07593
 C339 C 0.63996 1.11857 -0.09323
 H340 H 0.75547 1.23378 -0.15930
 H341 H 0.70716 1.20808 -0.13333
 H342 H 0.74395 1.11543 -0.16422
 H343 H 0.79309 1.14026 -0.18869
 H344 H 0.66698 1.05635 -0.14114
 H345 H 0.62147 1.02930 -0.11104
 H346 H 0.59960 1.11661 -0.05775
 H347 H 0.64508 1.14339 -0.08783
 C348 C 0.22657 0.85715 -0.17938
 C349 C 0.25197 0.87372 -0.16416
 C350 C 0.28094 0.85753 -0.15416
 C351 C 0.28433 0.82433 -0.15959
 C352 C 0.25878 0.80765 -0.17464
 C353 C 0.22970 0.82396 -0.18463
 N354 N 0.30606 0.87531 -0.13799
 N355 N 0.33414 0.86312 -0.13029
 C356 C 0.35851 0.88140 -0.11348
 C357 C 0.39020 0.86811 -0.10857
 C358 C 0.41436 0.88540 -0.09205
 C359 C 0.40709 0.91630 -0.07992
 C360 C 0.37511 0.92943 -0.08477
 C361 C 0.35113 0.91225 -0.10148
 H362 H 0.20421 0.87006 -0.18665
 H363 H 0.24903 0.89927 -0.15998
 H364 H 0.30648 0.81128 -0.15196
 H365 H 0.26158 0.78206 -0.17853
 H366 H 0.39622 0.84435 -0.11771
 H367 H 0.43881 0.87470 -0.08909
 H368 H 0.36837 0.95282 -0.07515
 H369 H 0.32672 0.92297 -0.10466
 C370 C 0.77327 0.80268 0.15453
 C371 C 0.74736 0.81708 0.13652
 C372 C 0.72141 0.83300 0.15324
 C373 C 0.72131 0.83392 0.18841
 C374 C 0.74689 0.81900 0.20648
 C375 C 0.77320 0.80322 0.18977
 N376 N 0.69572 0.84825 0.13398
 N377 N 0.67544 0.86850 0.14666
 C378 C 0.64970 0.88364 0.12736
 C379 C 0.63393 0.91126 0.13957
 C380 C 0.60973 0.92740 0.12067
 C381 C 0.60032 0.91577 0.08934
 C382 C 0.61563 0.88738 0.07766
 C383 C 0.64028 0.87163 0.09633
 H384 H 0.79357 0.79143 0.14089
 H385 H 0.74780 0.81638 0.10941
 H386 H 0.70140 0.84598 0.20189
 H387 H 0.74620 0.81978 0.23358
 H388 H 0.64104 0.92076 0.16345
 H389 H 0.59907 0.94944 0.13031
 H390 H 0.60856 0.87721 0.05410
 H391 H 0.65185 0.85003 0.08659
   
