data_POSCAR
  _audit_creation_date              2014-09-24
  _audit_creation_method            'ToBaCCo'
  _symmetry_space_group_name_H-M    'P1'
  _symmetry_Int_Tables_number       1
  _symmetry_cell_setting            triclinic
  loop_
  _symmetry_equiv_pos_as_xyz
 x,y,z
_cell_length_a 22.8449
_cell_length_b 22.5050
_cell_length_c 24.5934
_cell_angle_alpha 91.620800
_cell_angle_beta 89.037100
_cell_angle_gamma 120.669100
loop_
  _atom_site_label
  _atom_site_type_symbol
  _atom_site_fract_x
  _atom_site_fract_y
  _atom_site_fract_z
O1 O 0.06849 0.59300 1.31584
 O2 O -0.05514 0.53786 1.20473
 O3 O -0.06291 0.54047 1.31046
 O4 O 0.07293 0.58554 1.21025
 O5 O 0.05857 0.48089 1.21470
 O6 O -0.08213 0.43373 1.30937
 O7 O -0.06950 0.43299 1.20301
 O8 O 0.04815 0.48609 1.31959
 Cu9 Cu 0.00730 0.57490 1.26050
 Cu10 Cu -0.01350 0.44744 1.26243
 C11 C 0.07923 0.54853 1.33670
 C12 C -0.08030 0.47799 1.18314
 C13 C -0.09560 0.47898 1.32684
 C14 C 0.08813 0.54066 1.19494
 O15 O 0.38161 0.43206 1.29557
 O16 O 0.49058 0.42106 1.18879
 O17 O 0.48082 0.40614 1.29369
 O18 O 0.39213 0.44740 1.19011
 O19 O 0.46789 0.55826 1.20189
 O20 O 0.55565 0.51730 1.30546
 O21 O 0.56680 0.53177 1.20061
 O22 O 0.45522 0.54332 1.30832
 Cu23 Cu 0.42883 0.41571 1.24102
 Cu24 Cu 0.51859 0.54884 1.25550
 C25 C 0.39926 0.48911 1.32000
 C26 C 0.54713 0.47393 1.17640
 C27 C 0.53363 0.45476 1.31677
 C28 C 0.41573 0.51003 1.17782
 O29 O 0.55549 0.92754 1.29480
 O30 O 0.63061 1.08017 1.20956
 O31 O 0.60218 1.05942 1.31790
 O32 O 0.56268 0.94942 1.19403
 O33 O 0.46137 0.93981 1.19380
 O34 O 0.50122 1.04985 1.31437
 O35 O 0.53156 1.07481 1.20590
 O36 O 0.45550 0.92081 1.29432
 Cu37 Cu 0.59828 1.00755 1.25595
 Cu38 Cu 0.47958 0.99889 1.25136
 C39 C 0.49308 0.89693 1.30798
 C40 C 0.59338 1.10115 1.19058
 C41 C 0.55679 1.07000 1.33844
 C42 C 0.50371 0.92475 1.17357
 O43 O 0.93446 0.54549 0.68492
 O44 O 1.05882 0.62613 0.79792
 O45 O 1.06750 0.63342 0.69169
 O46 O 0.92708 0.55759 0.78962
 O47 O 0.93740 0.46555 0.79495
 O48 O 1.08402 0.54534 0.69719
 O49 O 1.06709 0.53259 0.80083
 O50 O 0.94954 0.45624 0.68709
 Cu51 Cu 0.99626 0.59971 0.74008
 Cu52 Cu 1.00938 0.49016 0.74403
 C53 C 0.92036 0.48578 0.66760
 C54 C 1.08285 0.59199 0.81916
 C55 C 1.10180 0.60505 0.67958
 C56 C 0.90928 0.49993 0.81024
 O57 O 0.43092 0.38434 0.69837
 O58 O 0.40093 0.47894 0.80863
 O59 O 0.39849 0.47853 0.70157
 O60 O 0.43523 0.38372 0.80331
 O61 O 0.54295 0.46741 0.80135
 O62 O 0.50614 0.56278 0.70253
 O63 O 0.50915 0.56161 0.80815
 O64 O 0.53810 0.46973 0.69628
 Cu65 Cu 0.40507 0.42335 0.75362
 Cu66 Cu 0.53505 0.52361 0.75239
 C67 C 0.49004 0.41247 0.67787
 C68 C 0.44954 0.53583 0.82724
 C69 C 0.44639 0.53565 0.68377
 C70 C 0.49630 0.40969 0.81902
 O71 O 0.63282 0.07755 0.71002
 O72 O 0.56256 -0.06991 0.80000
 O73 O 0.57265 -0.05803 0.69116
 O74 O 0.59609 0.05785 0.80884
 O75 O 0.49422 0.04267 0.79328
 O76 O 0.46997 -0.07539 0.67658
 O77 O 0.45917 -0.08822 0.78690
 O78 O 0.52905 0.05712 0.69431
 Cu79 Cu 0.60007 0.00149 0.75258
 Cu80 Cu 0.47740 -0.02010 0.73683
 C81 C 0.59328 0.09330 0.68761
 C82 C 0.49966 -0.10200 0.81085
 C83 C 0.51820 -0.08535 0.66323
 C84 C 0.54913 0.07104 0.82037
 O85 O 0.41169 0.63621 0.95388
 O86 O 0.42162 0.75350 0.93223
 C87 C 0.39405 0.78818 0.92112
 O88 O 0.34595 0.78623 0.94884
 O89 O 0.22809 0.67453 0.93981
 C90 C 0.19140 0.60965 0.93403
 O91 O 0.19623 0.56740 0.96438
 O92 O 0.30176 0.55472 0.94703
 C93 C 0.36310 0.58137 0.93226
 O94 O 0.42061 0.67020 1.06111
 O95 O 0.43413 0.78852 1.03958
 C96 C 0.39585 0.80435 1.06667
 O97 O 0.33314 0.77830 1.05740
 O98 O 0.21219 0.67092 1.04839
 C99 C 0.20083 0.62224 1.07949
 O100 O 0.22629 0.58424 1.07203
 O101 O 0.32841 0.56517 1.05450
 C102 C 0.38497 0.60863 1.07641
 Cr103 Cr 0.41832 0.71049 0.99679
 Cr104 Cr 0.28146 0.72538 0.99871
 Cr105 Cr 0.26524 0.57161 1.00925
 O106 O 0.32183 0.66911 1.00135
 O107 O 0.56900 0.32013 0.93006
 O108 O 0.57991 0.21237 0.94679
 C109 C 0.62708 0.20118 0.93196
 O110 O 0.68608 0.23280 0.95248
 O111 O 0.79214 0.35711 0.95644
 C112 C 0.79771 0.40474 0.92593
 O113 O 0.76376 0.43527 0.93329
 O114 O 0.64663 0.42929 0.94725
 C115 C 0.59676 0.38377 0.92058
 O116 O 0.56082 0.33833 1.03893
 O117 O 0.57031 0.22969 1.05552
 C118 C 0.61004 0.21415 1.07800
 O119 O 0.67064 0.23565 1.06177
 O120 O 0.77797 0.35971 1.06680
 C121 C 0.80712 0.42476 1.06622
 O122 O 0.78518 0.45545 1.03877
 O123 O 0.66080 0.43610 1.05505
 C124 C 0.59755 0.39513 1.06497
 Cr125 Cr 0.57424 0.27761 0.99315
 Cr126 Cr 0.72905 0.29783 1.00901
 Cr127 Cr 0.71209 0.43473 0.99412
 O128 O 0.67163 0.33626 0.99885
 O129 O 0.62362 0.42986 0.53068
 O130 O 0.74313 0.45043 0.55227
 C131 C 0.78097 0.42929 0.56930
 O132 O 0.77610 0.37325 0.55232
 O133 O 0.66749 0.25839 0.58323
 C134 C 0.60413 0.21759 0.59008
 O135 O 0.55920 0.21491 0.55886
 O136 O 0.54601 0.32283 0.55579
 C137 C 0.57489 0.38805 0.56055
 O138 O 0.63991 0.40653 0.42534
 O139 O 0.76092 0.42721 0.44650
 C140 C 0.77642 0.38289 0.42968
 O141 O 0.75283 0.32378 0.44985
 O142 O 0.65005 0.20655 0.48288
 C143 C 0.59605 0.18029 0.45514
 O144 O 0.56148 0.20942 0.44980
 O145 O 0.54078 0.31410 0.44684
 C146 C 0.57695 0.36554 0.41733
 Cr147 Cr 0.69043 0.42465 0.48905
 Cr148 Cr 0.70962 0.29225 0.51633
 Cr149 Cr 0.55548 0.26783 0.50266
 O150 O 0.65181 0.32846 0.50248
 O151 O 0.30421 0.54885 0.55720
 O152 O 0.23705 0.61354 0.57409
 C153 C 0.24186 0.67167 0.58256
 O154 O 0.27425 0.72242 0.55118
 O155 O 0.40689 0.79311 0.54489
 C156 C 0.46292 0.79425 0.54718
 O157 O 0.47441 0.75271 0.51963
 O158 O 0.41608 0.62444 0.55057
 C159 C 0.36513 0.57403 0.57321
 O160 O 0.27102 0.53463 0.45040
 O161 O 0.20419 0.59723 0.46772
 C162 C 0.21495 0.64609 0.43682
 O163 O 0.26642 0.70668 0.44111
 O164 O 0.39926 0.78211 0.43315
 C165 C 0.42551 0.75535 0.40232
 O166 O 0.43284 0.70608 0.41677
 O167 O 0.38299 0.58034 0.44554
 C168 C 0.32323 0.53720 0.42965
 Cr169 Cr 0.25766 0.57719 0.51186
 Cr170 Cr 0.33667 0.74763 0.49285
 Cr171 Cr 0.42330 0.66602 0.48390
 O172 O 0.33915 0.66360 0.49689
 N173 N 0.35725 0.49143 0.35590
 N174 N 0.31261 0.48797 0.38702
 N175 N 0.46663 0.83685 0.33115
 N176 N 0.44567 0.77808 0.34774
 N177 N 0.12706 0.56811 0.37981
 N178 N 0.16749 0.63087 0.39400
 N179 N 0.56838 0.43973 0.35691
 N180 N 0.54362 0.37916 0.37506
 N181 N 0.56414 0.09430 0.38795
 N182 N 0.56933 0.11115 0.43628
 N183 N 0.85349 0.46103 0.36720
 N184 N 0.82490 0.40127 0.38727
 N185 N 0.58841 0.46760 1.13456
 N186 N 0.56361 0.41091 1.10742
 N187 N 0.89105 0.46720 1.13566
 N188 N 0.87329 0.46711 1.08872
 N189 N 0.62073 0.15163 1.14893
 N190 N 0.58371 0.16811 1.12276
 N191 N 0.38427 0.52631 1.13551
 N192 N 0.41170 0.58816 1.11947
 N193 N 0.13652 0.55605 1.15275
 N194 N 0.15513 0.60839 1.12358
 N195 N 0.48356 0.87825 1.12796
 N196 N 0.42342 0.85342 1.11024
 N197 N 0.50325 0.38003 0.63308
 N198 N 0.55412 0.41698 0.60302
 N199 N 0.62081 0.15060 0.65255
 N200 N 0.58117 0.16689 0.63070
 N201 N 0.87003 0.44950 0.62669
 N202 N 0.83152 0.47018 0.60920
 N203 N 0.43431 0.56890 0.64048
 N204 N 0.37614 0.54252 0.61840
 N205 N 0.51394 0.87750 0.61972
 N206 N 0.51817 0.84522 0.57985
 N207 N 0.15892 0.64141 0.65261
 N208 N 0.21295 0.68373 0.63071
 N209 N 0.43719 0.57152 0.87030
 N210 N 0.37753 0.54710 0.88940
 N211 N 0.12867 0.62075 0.86391
 N212 N 0.14270 0.58234 0.89119
 N213 N 0.47486 0.84909 0.85310
 N214 N 0.41918 0.83379 0.87666
 N215 N 0.51308 0.37536 0.85855
 N216 N 0.57239 0.40825 0.87891
 N217 N 0.85862 0.47580 0.85230
 N218 N 0.84630 0.42558 0.88233
 N219 N 0.55860 0.11924 0.86354
 N220 N 0.61449 0.15115 0.88954
   
