data_POSCAR
  _audit_creation_date              2014-09-24
  _audit_creation_method            'ToBaCCo'
  _symmetry_space_group_name_H-M    'P1'
  _symmetry_Int_Tables_number       1
  _symmetry_cell_setting            triclinic
  loop_
  _symmetry_equiv_pos_as_xyz
 x,y,z
_cell_length_a 23.6796
_cell_length_b 23.7541
_cell_length_c 23.7222
_cell_angle_alpha 85.740100
_cell_angle_beta 94.262300
_cell_angle_gamma 92.929600
loop_
  _atom_site_label
  _atom_site_type_symbol
  _atom_site_fract_x
  _atom_site_fract_y
  _atom_site_fract_z
C1 C 0.62242 0.55219 -0.00198
 C2 C 0.60820 0.60836 -0.00000
 C3 C 0.55187 0.62261 0.00197
 C4 C 0.50808 0.57972 0.00207
 C5 C 0.52194 0.52249 0.00001
 C6 C 0.57934 0.50859 -0.00206
 C7 C 0.59201 0.45155 -0.00415
 C8 C 0.54928 0.40906 -0.00423
 C9 C 0.49219 0.42187 -0.00217
 C10 C 0.47833 0.47906 0.00001
 C11 C 0.45089 0.59242 0.00416
 C12 C 0.40821 0.54988 0.00425
 C13 C 0.42093 0.49287 0.00219
 C14 C 0.37791 0.44919 0.00223
 C15 C 0.39223 0.39307 0.00000
 C16 C 0.44853 0.37900 -0.00221
 H17 H 0.63523 0.43927 -0.00578
 H18 H 0.56145 0.36594 -0.00591
 H19 H 0.43863 0.63553 0.00579
 H20 H 0.36497 0.56211 0.00593
 H21 H 0.64154 0.64156 -0.00001
 H22 H 0.35910 0.35971 -0.00001
 C23 C -0.00194 0.62224 0.44610
 C24 C 0.00036 0.60851 0.39012
 C25 C 0.00238 0.55235 0.37677
 C26 C 0.00211 0.50834 0.42043
 C27 C -0.00019 0.52188 0.47748
 C28 C -0.00220 0.57907 0.49040
 C29 C -0.00442 0.59156 0.54721
 C30 C -0.00466 0.54871 0.59056
 C31 C -0.00273 0.49174 0.57874
 C32 C -0.00048 0.47818 0.52171
 C33 C 0.00402 0.45126 0.40872
 C34 C 0.00370 0.40843 0.45210
 C35 C 0.00147 0.42097 0.50887
 C36 C 0.00113 0.37785 0.55324
 C37 C -0.00105 0.39171 0.60920
 C38 C -0.00295 0.44787 0.62239
 H39 H -0.00599 0.63470 0.55868
 H40 H -0.00641 0.56067 0.63353
 H41 H 0.00580 0.43921 0.36578
 H42 H 0.00524 0.36527 0.44068
 H43 H 0.00054 0.64214 0.35650
 H44 H -0.00126 0.35829 0.64299
 C45 C 0.55300 0.00224 0.62316
 C46 C 0.60936 0.00033 0.60989
 C47 C 0.62326 -0.00186 0.55388
 C48 C 0.57991 -0.00218 0.50948
 C49 C 0.52251 -0.00023 0.52241
 C50 C 0.50890 0.00201 0.57946
 C51 C 0.45164 0.00393 0.59118
 C52 C 0.40868 0.00367 0.54782
 C53 C 0.42124 0.00147 0.49105
 C54 C 0.47863 -0.00052 0.47819
 C55 C 0.59231 -0.00439 0.45256
 C56 C 0.54928 -0.00469 0.40927
 C57 C 0.49217 -0.00278 0.42115
 C58 C 0.44813 -0.00305 0.37753
 C59 C 0.39182 -0.00107 0.39074
 C60 C 0.37796 0.00119 0.44670
 H61 H 0.43955 0.00567 0.63412
 H62 H 0.36539 0.00523 0.55925
 H63 H 0.63555 -0.00594 0.44099
 H64 H 0.56124 -0.00645 0.36629
 H65 H 0.64296 0.00052 0.64370
 H66 H 0.35826 -0.00126 0.35697
 O67 O 0.46290 -0.00376 -0.08633
 O68 O 0.44567 -0.01131 0.06714
 O69 O 0.44605 0.06938 -0.01309
 O70 O 0.46242 -0.08448 -0.00604
 O71 O 0.55504 -0.07072 0.01063
 O72 O 0.53867 0.08316 0.00358
 O73 O 0.53830 0.00245 0.08381
 O74 O 0.55552 0.01001 -0.06964
 Cu75 Cu 0.44492 -0.00891 -0.01126
 Cu76 Cu 0.55622 0.00759 0.00874
 C77 C 0.51220 0.00410 -0.10386
 C78 C 0.48900 -0.00540 0.10135
 C79 C 0.48950 0.10222 -0.00561
 C80 C 0.51157 -0.10355 0.00323
 O81 O -0.07001 0.55486 0.98929
 O82 O 0.08432 0.53842 0.99633
 O83 O 0.00332 0.53803 0.91612
 O84 O 0.01093 0.55518 1.06959
 O85 O -0.00294 0.46285 1.08624
 O86 O -0.01055 0.44570 0.93278
 O87 O 0.07044 0.44610 1.01298
 O88 O -0.08390 0.46254 1.00595
 Cu89 Cu 0.00853 0.55594 0.99119
 Cu90 Cu -0.00811 0.44499 1.01116
 C91 C -0.10299 0.51156 0.99669
 C92 C 0.10341 0.48940 1.00551
 C93 C -0.00462 0.48889 0.89857
 C94 C 0.00495 0.51199 1.10379
 O95 O -0.01290 -0.06771 0.44458
 O96 O -0.00675 0.08500 0.46320
 O97 O 0.06677 0.01166 0.44462
 O98 O -0.08643 0.00558 0.46339
 O99 O -0.06881 -0.01188 0.55574
 O100 O 0.08435 -0.00578 0.53698
 O101 O 0.01084 0.06756 0.55555
 O102 O 0.00470 -0.08518 0.53692
 Cu103 Cu -0.01160 0.01039 0.44461
 Cu104 Cu 0.00953 -0.01057 0.55564
 C105 C -0.00486 -0.10219 0.48753
 C106 C 0.00286 0.10204 0.51257
 C107 C 0.10139 0.00372 0.48758
 C108 C -0.10344 -0.00394 0.51280
 C109 C -0.32145 0.54155 0.99659
 C110 C -0.27170 0.53330 0.99569
 C111 C -0.21315 0.52481 0.99521
 C112 C -0.16295 0.51838 0.99545
 C113 C 0.32180 0.45969 1.00408
 C114 C 0.27206 0.46782 1.00540
 C115 C 0.21354 0.47621 1.00635
 C116 C 0.16336 0.48258 1.00646
 C117 C -0.00370 -0.31873 0.45645
 C118 C -0.00485 -0.26931 0.46440
 C119 C -0.00566 -0.21127 0.47305
 C120 C -0.00573 -0.16154 0.47992
 C121 C 0.00265 0.31877 0.54302
 C122 C 0.00356 0.26929 0.53523
 C123 C 0.00408 0.21118 0.52680
 C124 C 0.00393 0.16140 0.52009
 C125 C 0.54263 0.00388 -0.32103
 C126 C 0.53446 0.00495 -0.27156
 C127 C 0.52589 0.00557 -0.21338
 C128 C 0.51930 0.00538 -0.16347
 C129 C 0.45898 -0.00491 0.31855
 C130 C 0.46701 -0.00606 0.26908
 C131 C 0.47543 -0.00676 0.21087
 C132 C 0.48193 -0.00663 0.16096
 C133 C 0.54128 -0.32141 0.00339
 C134 C 0.53310 -0.27179 0.00428
 C135 C 0.52470 -0.21341 0.00474
 C136 C 0.51834 -0.16334 0.00449
 C137 C 0.45971 0.31991 -0.00419
 C138 C 0.46786 0.27034 -0.00550
 C139 C 0.47629 0.21201 -0.00644
 C140 C 0.48268 0.16198 -0.00655
 C141 C -0.32068 -0.00334 0.54407
 C142 C -0.27108 -0.00434 0.53607
 C143 C -0.21286 -0.00497 0.52736
 C144 C -0.16297 -0.00490 0.52045
 C145 C 0.31872 0.00287 0.45695
 C146 C 0.26911 0.00395 0.46476
 C147 C 0.21084 0.00467 0.47324
 C148 C 0.16092 0.00465 0.48000
 C149 C 0.00419 0.54209 1.32096
 C150 C 0.00541 0.53402 1.27149
 C151 C 0.00621 0.52557 1.21331
 C152 C 0.00614 0.51905 1.16340
 C153 C -0.00467 0.45876 0.68136
 C154 C -0.00568 0.46682 0.73084
 C155 C -0.00621 0.47530 0.78904
 C156 C -0.00596 0.48183 0.83896
   
