data_POSCAR
  _audit_creation_date              2014-09-24
  _audit_creation_method            'ToBaCCo'
  _symmetry_space_group_name_H-M    'P1'
  _symmetry_Int_Tables_number       1
  _symmetry_cell_setting            triclinic
  loop_
  _symmetry_equiv_pos_as_xyz
 x,y,z
_cell_length_a 21.3626
_cell_length_b 21.9890
_cell_length_c 21.8685
_cell_angle_alpha 89.655900
_cell_angle_beta 78.367200
_cell_angle_gamma 100.532200
loop_
  _atom_site_label
  _atom_site_type_symbol
  _atom_site_fract_x
  _atom_site_fract_y
  _atom_site_fract_z
O1 O 0.57691 0.52968 0.06289
 O2 O 0.41353 0.49551 0.02861
 O3 O 0.49762 0.43049 0.04795
 O4 O 0.49602 0.59680 0.03728
 O5 O 0.54071 0.59968 -0.06329
 O6 O 0.53857 0.43297 -0.05342
 O7 O 0.45534 0.50260 -0.07238
 O8 O 0.62031 0.53196 -0.03799
 Cu9 Cu 0.49160 0.51308 0.05432
 Cu10 Cu 0.54293 0.51681 -0.06700
 C11 C 0.62637 0.53576 0.01858
 C12 C 0.40594 0.49323 -0.02743
 C13 C 0.51937 0.40366 -0.00086
 C14 C 0.51766 0.62640 -0.01504
 O15 O -0.07507 0.55753 0.53715
 O16 O -0.05167 0.39645 0.51949
 O17 O -0.04539 0.47439 0.60725
 O18 O -0.07140 0.48057 0.44523
 O19 O 0.03386 0.51363 0.41095
 O20 O 0.05940 0.50901 0.57197
 O21 O 0.05365 0.42964 0.48491
 O22 O 0.02915 0.59169 0.50062
 Cu23 Cu -0.07139 0.47447 0.53068
 Cu24 Cu 0.05441 0.51466 0.48884
 C25 C -0.02754 0.60248 0.52252
 C26 C 0.00492 0.38545 0.49915
 C27 C 0.01210 0.48906 0.61689
 C28 C -0.02277 0.49666 0.40026
 O29 O 0.50333 0.03478 0.58012
 O30 O 0.51930 0.05259 0.41051
 O31 O 0.43125 0.06394 0.50555
 O32 O 0.59353 0.02228 0.48233
 O33 O 0.54907 -0.07658 0.48151
 O34 O 0.38704 -0.03516 0.50485
 O35 O 0.47462 -0.04604 0.40820
 O36 O 0.45877 -0.06322 0.57808
 Cu37 Cu 0.51694 0.05319 0.49516
 Cu38 Cu 0.46364 -0.06541 0.49283
 C39 C 0.47646 -0.01679 0.60884
 C40 C 0.49706 0.00692 0.38100
 C41 C 0.38169 0.02132 0.50838
 C42 C 0.59889 -0.03417 0.47779
 C43 C 0.50258 -0.10502 -0.12140
 C44 C 0.48893 -0.04739 -0.13570
 C45 C 0.49096 -0.00112 -0.09175
 C46 C 0.50799 -0.01168 -0.03394
 C47 C 0.52179 -0.07021 -0.02115
 C48 C 0.51628 -0.11712 -0.06345
 C49 C 0.50915 0.03680 0.01377
 C50 C 0.50002 0.01989 0.07778
 C51 C 0.50295 0.06482 0.12255
 C52 C 0.51175 0.12723 0.10451
 C53 C 0.51854 0.14505 0.04174
 C54 C 0.51877 0.10028 -0.00362
 H55 H 0.50018 -0.14142 -0.15455
 H56 H 0.47762 0.04217 -0.10270
 H57 H 0.53561 -0.08083 0.02201
 H58 H 0.48991 -0.02810 0.09402
 H59 H 0.51255 0.16197 0.13948
 H60 H 0.52643 0.11569 -0.05206
 C61 C -0.11060 0.53250 1.13389
 C62 C -0.11980 0.54124 1.07312
 C63 C -0.06997 0.53540 1.02212
 C64 C -0.01173 0.51799 1.03054
 C65 C -0.00426 0.50844 1.09258
 C66 C -0.05304 0.51635 1.14390
 C67 C 0.03911 0.50708 0.97511
 C68 C 0.10375 0.50702 0.98080
 C69 C 0.14965 0.49049 0.93111
 C70 C 0.13327 0.48158 0.87241
 C71 C 0.07065 0.48511 0.86440
 C72 C 0.02349 0.49543 0.91590
 H73 H -0.14895 0.53682 1.17355
 H74 H -0.07837 0.54339 0.97599
 H75 H 0.03809 0.49283 1.10204
 H76 H 0.11917 0.51876 1.02405
 H77 H 0.16892 0.47129 0.83301
 H78 H -0.02515 0.49402 0.90842
 C79 C -0.13282 -0.14317 0.48889
 C80 C -0.07495 -0.14993 0.50674
 C81 C -0.02872 -0.09684 0.51188
 C82 C -0.03839 -0.03667 0.49766
 C83 C -0.09797 -0.03171 0.48127
 C84 C -0.14544 -0.08423 0.47775
 C85 C 0.01301 0.02015 0.50002
 C86 C -0.00095 0.08086 0.50054
 C87 C 0.04822 0.13320 0.49951
 C88 C 0.11086 0.12550 0.50331
 C89 C 0.12538 0.06626 0.50519
 C90 C 0.07769 0.01445 0.50063
 H91 H -0.16882 -0.18388 0.48504
 H92 H 0.01390 -0.10374 0.52835
 H93 H -0.10901 0.01277 0.47140
 H94 H -0.04937 0.08894 0.50122
 H95 H 0.14828 0.16572 0.50491
 H96 H 0.09261 -0.02992 0.49745
 C97 C -0.23805 0.50213 1.09030
 C98 C -0.29900 0.50043 1.07653
 C99 C -0.30864 0.54369 1.03384
 C100 C -0.25644 0.59183 1.00699
 C101 C -0.19437 0.59431 1.02197
 C102 C -0.18481 0.54774 1.06255
 C103 C -0.14429 0.64418 0.99671
 N104 N -0.15556 0.68764 0.95813
 N105 N -0.21358 0.68493 0.94358
 C106 C -0.26443 0.63870 0.96681
 H107 H -0.23190 0.46597 1.12123
 H108 H -0.33856 0.46348 1.09767
 H109 H -0.09666 0.64960 1.00803
 H110 H -0.31072 0.63962 0.95439
 C111 C 0.27029 0.51427 0.89805
 C112 C 0.33279 0.51303 0.90699
 C113 C 0.34264 0.48318 0.96032
 C114 C 0.28764 0.44717 1.00130
 C115 C 0.22398 0.44687 0.99080
 C116 C 0.21525 0.48352 0.94052
 C117 C 0.17113 0.40774 1.02968
 N118 N 0.18125 0.37228 1.07627
 N119 N 0.24070 0.37217 1.08597
 C120 C 0.29408 0.40763 1.04990
 H121 H 0.26492 0.54142 0.85857
 H122 H 0.37352 0.53981 0.87416
 H123 H 0.12196 0.40337 1.02259
 H124 H 0.34084 0.40219 1.05828
 C125 C -0.00524 -0.22926 0.48434
 C126 C 0.00697 -0.28904 0.48923
 C127 C -0.03782 -0.33562 0.52787
 C128 C -0.09285 -0.31816 0.56802
 C129 C -0.10495 -0.25684 0.56277
 C130 C -0.06199 -0.21290 0.51872
 C131 C -0.15858 -0.24060 0.60376
 N132 N -0.19714 -0.28249 0.64739
 N133 N -0.18514 -0.33919 0.65361
 C134 C -0.13424 -0.35820 0.61623
 H135 H 0.02896 -0.19596 0.45142
 H136 H 0.05021 -0.29961 0.45919
 H137 H -0.16938 -0.19453 0.60284
 H138 H -0.12561 -0.40342 0.62702
 C139 C -0.00736 0.21738 0.54424
 C140 C -0.01752 0.27823 0.54395
 C141 C 0.01412 0.32034 0.49398
 C142 C 0.05412 0.29937 0.44151
 C143 C 0.06467 0.23743 0.44199
 C144 C 0.03466 0.19666 0.49450
 C145 C 0.10400 0.21784 0.38898
 N146 N 0.13051 0.25760 0.33901
 N147 N 0.12001 0.31541 0.33822
 C148 C 0.08256 0.33755 0.38747
 H149 H -0.03105 0.18667 0.58445
 H150 H -0.04893 0.29305 0.58410
 H151 H 0.11314 0.17107 0.38633
 H152 H 0.07446 0.38430 0.38312
 C153 C 0.51232 0.01480 -0.23476
 C154 C 0.50900 0.02196 -0.29707
 C155 C 0.46886 -0.02231 -0.32551
 C156 C 0.42458 -0.07093 -0.28659
 C157 C 0.42725 -0.07685 -0.22237
 C158 C 0.47423 -0.03575 -0.19768
 C159 C 0.38155 -0.12299 -0.18401
 N160 N 0.33662 -0.16130 -0.20835
 N161 N 0.33363 -0.15604 -0.26823
 C162 C 0.37534 -0.11227 -0.30788
 H163 H 0.54764 0.04737 -0.21628
 H164 H 0.54204 0.06053 -0.32415
 H165 H 0.38003 -0.12811 -0.13450
 H166 H 0.36713 -0.10974 -0.35462
 C167 C 0.55427 0.06306 0.21344
 C168 C 0.55309 0.04839 0.27559
 C169 C 0.49607 0.01673 0.31459
 C170 C 0.43854 0.00020 0.29052
 C171 C 0.43999 0.01500 0.22696
 C172 C 0.49844 0.04668 0.18852
 C173 C 0.38209 -0.00048 0.20453
 N174 N 0.32648 -0.02865 0.24348
 N175 N 0.32479 -0.04190 0.30333
 C176 C 0.37861 -0.02819 0.32827
 H177 H 0.59916 0.08763 0.18445
 H178 H 0.59705 0.06219 0.29354
 H179 H 0.38024 0.01021 0.15668
 H180 H 0.37342 -0.03892 0.37744
 C181 C 0.57235 -0.20573 -0.06483
 C182 C 0.57212 -0.26799 -0.05320
 C183 C 0.51577 -0.30736 -0.02087
 C184 C 0.45831 -0.28336 0.00057
 C185 C 0.45888 -0.21976 -0.01081
 C186 C 0.51625 -0.18128 -0.04430
 C187 C 0.40106 -0.19704 0.00990
 N188 N 0.34634 -0.23591 0.03936
 N189 N 0.34538 -0.29591 0.04905
 C190 C 0.39917 -0.32105 0.03040
 H191 H 0.61612 -0.17668 -0.09116
 H192 H 0.61610 -0.28588 -0.07049
 H193 H 0.39867 -0.14891 0.00262
 H194 H 0.39449 -0.37029 0.03839
 C195 C 0.46557 0.23551 0.04686
 C196 C 0.46584 0.29795 0.03685
 C197 C 0.52181 0.33743 0.00439
 C198 C 0.57898 0.31330 -0.01855
 C199 C 0.57847 0.24937 -0.00848
 C200 C 0.52128 0.21063 0.02487
 C201 C 0.63612 0.22683 -0.03013
 N202 N 0.69059 0.26597 -0.05976
 N203 N 0.69140 0.32609 -0.06864
 C204 C 0.63775 0.35116 -0.04880
 H205 H 0.42164 0.20633 0.07281
 H206 H 0.42200 0.31578 0.05504
 H207 H 0.63861 0.17866 -0.02331
 H208 H 0.64215 0.40048 -0.05618
 C209 C -0.26504 -0.10434 0.51499
 C210 C -0.32670 -0.09194 0.51527
 C211 C -0.33625 -0.05085 0.47042
 C212 C -0.28340 -0.02514 0.42161
 C213 C -0.22075 -0.03886 0.42048
 C214 C -0.21107 -0.07682 0.46922
 C215 C -0.17005 -0.01479 0.36985
 N216 N -0.18130 0.02164 0.32451
 N217 N -0.23984 0.03518 0.32606
 C218 C -0.29128 0.01294 0.37288
 H219 H -0.25894 -0.13360 0.55259
 H220 H -0.36678 -0.11234 0.55262
 H221 H -0.12191 -0.02539 0.36532
 H222 H -0.33796 0.02442 0.37098
 C223 C 0.24423 0.08338 0.46373
 C224 C 0.30642 0.07316 0.46499
 C225 C 0.31700 0.03734 0.51372
 C226 C 0.26471 0.01398 0.56377
 C227 C 0.20145 0.02442 0.56267
 C228 C 0.19110 0.05808 0.51124
 C229 C 0.15079 0.00158 0.61386
 N230 N 0.16314 -0.02986 0.66229
 N231 N 0.22266 -0.03956 0.66326
 C232 C 0.27385 -0.01852 0.61581
 H233 H 0.23710 0.10960 0.42440
 H234 H 0.34614 0.09129 0.42640
 H235 H 0.10176 0.00911 0.61635
 H236 H 0.32140 -0.02618 0.61970
 C237 C -0.00155 0.55126 1.23236
 C238 C 0.00494 0.54670 1.29426
 C239 C -0.03146 0.49716 1.33459
 C240 C -0.07352 0.44973 1.31066
 C241 C -0.08073 0.45501 1.24770
 C242 C -0.04483 0.50658 1.20870
 C243 C -0.12275 0.40752 1.22527
 N244 N -0.15451 0.35769 1.26311
 N245 N -0.14676 0.35198 1.32163
 C246 C -0.10719 0.39593 1.34656
 H247 H 0.02639 0.59081 1.20298
 H248 H 0.03793 0.58301 1.31118
 H249 H -0.12998 0.40909 1.17778
 H250 H -0.10171 0.38741 1.39366
 C251 C 0.08634 0.52927 0.75716
 C252 C 0.07148 0.53059 0.69811
 C253 C 0.02493 0.48389 0.68085
 C254 C -0.00575 0.43343 0.72414
 C255 C 0.00905 0.43265 0.78472
 C256 C 0.05511 0.48132 0.80124
 C257 C -0.02149 0.38202 0.82638
 N258 N -0.06356 0.33511 0.80835
 N259 N -0.07669 0.33517 0.75139
 C260 C -0.04905 0.38231 0.70865
 H261 H 0.12177 0.56679 0.76905
 H262 H 0.09606 0.56914 0.66580
 H263 H -0.01162 0.37879 0.87276
 H264 H -0.06049 0.37832 0.66287
   
