data_POSCAR
  _audit_creation_date              2014-09-24
  _audit_creation_method            'ToBaCCo'
  _symmetry_space_group_name_H-M    'P1'
  _symmetry_Int_Tables_number       1
  _symmetry_cell_setting            triclinic
  loop_
  _symmetry_equiv_pos_as_xyz
 x,y,z
_cell_length_a 43.2277
_cell_length_b 42.3367
_cell_length_c 16.0825
_cell_angle_alpha 89.931600
_cell_angle_beta 90.095700
_cell_angle_gamma 119.266900
loop_
  _atom_site_label
  _atom_site_type_symbol
  _atom_site_fract_x
  _atom_site_fract_y
  _atom_site_fract_z
C1 C 0.16206 0.45132 0.42223
 C2 C 0.14707 0.45240 0.49858
 C3 C 0.16471 0.45647 0.57405
 C4 C 0.19890 0.45979 0.57417
 C5 C 0.21485 0.45915 0.49750
 C6 C 0.19665 0.45536 0.42112
 C7 C 0.21292 0.45413 0.34637
 C8 C 0.24677 0.45792 0.34609
 C9 C 0.26530 0.46211 0.42067
 C10 C 0.24914 0.46236 0.49723
 C11 C 0.21791 0.46477 0.64855
 C12 C 0.25136 0.46764 0.64823
 C13 C 0.26722 0.46579 0.57350
 C14 C 0.30121 0.46840 0.57259
 C15 C 0.31711 0.46948 0.49611
 C16 C 0.29961 0.46594 0.42087
 H17 H 0.19955 0.44998 0.28720
 H18 H 0.25823 0.45723 0.28677
 H19 H 0.20700 0.46640 0.70789
 H20 H 0.26482 0.47146 0.70724
 H21 H 0.12106 0.45046 0.49930
 H22 H 0.34321 0.47166 0.49504
 C23 C 0.53936 -0.29163 0.42215
 C24 C 0.53553 -0.30908 0.49803
 C25 C 0.53918 -0.29137 0.57388
 C26 C 0.54481 -0.25543 0.57355
 C27 C 0.54944 -0.23712 0.49667
 C28 C 0.54722 -0.25516 0.42066
 C29 C 0.55200 -0.23665 0.34521
 C30 C 0.55825 -0.20118 0.34410
 C31 C 0.55921 -0.18323 0.41830
 C32 C 0.55519 -0.20110 0.49556
 C33 C 0.54425 -0.23803 0.64747
 C34 C 0.54883 -0.20312 0.64623
 C35 C 0.55513 -0.18374 0.57124
 C36 C 0.55911 -0.14838 0.56877
 C37 C 0.56329 -0.13132 0.49162
 C38 C 0.56335 -0.14808 0.41705
 H39 H 0.55072 -0.24955 0.28625
 H40 H 0.56185 -0.18807 0.28430
 H41 H 0.53950 -0.25165 0.70691
 H42 H 0.54711 -0.19160 0.70484
 H43 H 0.53034 -0.33690 0.49780
 H44 H 0.56529 -0.10475 0.48925
 C45 C 1.16581 0.69626 0.57828
 C46 C 1.14880 0.68263 0.50217
 C47 C 1.16623 0.69648 0.42680
 C48 C 1.20092 0.72633 0.42652
 C49 C 1.21830 0.74119 0.50303
 C50 C 1.20078 0.72592 0.57923
 C51 C 1.21892 0.74000 0.65435
 C52 C 1.25384 0.76793 0.65480
 C53 C 1.27193 0.78342 0.58015
 C54 C 1.25398 0.76988 0.50330
 C55 C 1.21914 0.74054 0.35169
 C56 C 1.25405 0.76855 0.35176
 C57 C 1.27205 0.78375 0.42672
 C58 C 1.30840 0.81055 0.42742
 C59 C 1.32574 0.82287 0.50394
 C60 C 1.30824 0.81024 0.58009
 H61 H 1.20638 0.72903 0.71362
 H62 H 1.26680 0.77651 0.71455
 H63 H 1.20667 0.72967 0.29227
 H64 H 1.26708 0.77738 0.29221
 H65 H 1.12270 0.65876 0.50143
 H66 H 1.35325 0.84423 0.50421
 C67 C 0.70318 0.53475 0.57503
 C68 C 0.68792 0.53456 0.49806
 C69 C 0.70426 0.53486 0.42323
 C70 C 0.73684 0.53480 0.42391
 C71 C 0.75253 0.53424 0.50115
 C72 C 0.73565 0.53405 0.57710
 C73 C 0.75080 0.53151 0.65253
 C74 C 0.78241 0.53034 0.65367
 C75 C 0.80010 0.53155 0.57942
 C76 C 0.78475 0.53301 0.50232
 C77 C 0.75380 0.53478 0.34951
 C78 C 0.78548 0.53374 0.35068
 C79 C 0.80121 0.53258 0.42629
 C80 C 0.83281 0.53054 0.42799
 C81 C 0.84740 0.52872 0.50405
 C82 C 0.83205 0.52986 0.57979
 H83 H 0.73815 0.53011 0.71147
 H84 H 0.79275 0.52815 0.71346
 H85 H 0.74253 0.53531 0.28970
 H86 H 0.79742 0.53349 0.29172
 H87 H 0.66288 0.53474 0.49619
 H88 H 0.87183 0.52732 0.50419
 C89 C 0.42438 0.14605 0.58210
 C90 C 0.42102 0.12787 0.50728
 C91 C 0.42569 0.14511 0.43050
 C92 C 0.43308 0.18150 0.42771
 C93 C 0.43632 0.20030 0.50308
 C94 C 0.43195 0.18252 0.58054
 C95 C 0.43592 0.20179 0.65442
 C96 C 0.44525 0.23823 0.65256
 C97 C 0.45027 0.25667 0.57662
 C98 C 0.44546 0.23740 0.50104
 C99 C 0.43783 0.19968 0.35166
 C100 C 0.44669 0.23602 0.34957
 C101 C 0.45106 0.25545 0.42346
 C102 C 0.46192 0.29277 0.42202
 C103 C 0.46759 0.31160 0.49670
 C104 C 0.46205 0.29433 0.57389
 H105 H 0.43229 0.18893 0.71455
 H106 H 0.44914 0.25194 0.71152
 H107 H 0.43496 0.18596 0.29304
 H108 H 0.45070 0.24895 0.28942
 H109 H 0.41675 0.10040 0.50896
 H110 H 0.47627 0.34038 0.49458
 C111 C 0.68229 0.18461 0.57427
 C112 C 0.66587 0.17066 0.49794
 C113 C 0.68366 0.18393 0.42271
 C114 C 0.71952 0.21155 0.42322
 C115 C 0.73675 0.22580 0.50039
 C116 C 0.71802 0.21247 0.57623
 C117 C 0.73534 0.22754 0.65172
 C118 C 0.77058 0.25489 0.65298
 C119 C 0.78974 0.26846 0.57871
 C120 C 0.77273 0.25359 0.50170
 C121 C 0.73841 0.22555 0.34892
 C122 C 0.77383 0.25256 0.35026
 C123 C 0.79146 0.26683 0.42591
 C124 C 0.82740 0.29405 0.42787
 C125 C 0.84416 0.30765 0.50412
 C126 C 0.82565 0.29627 0.57933
 H127 H 0.72175 0.21838 0.71062
 H128 H 0.78279 0.26531 0.71285
 H129 H 0.72598 0.21570 0.28901
 H130 H 0.78735 0.26213 0.29137
 H131 H 0.63857 0.14891 0.49705
 H132 H 0.87153 0.32929 0.50439
 N133 N 1.03788 0.56843 -0.08979
 N134 N 1.06319 0.60170 -0.10699
 N135 N 0.96281 0.51069 -0.14505
 N136 N 0.93830 0.50455 -0.20108
 N137 N 0.96325 0.53287 -0.08763
 N138 N 0.93880 0.54228 -0.10325
 N139 N 1.03715 0.54560 -0.14600
 N140 N 1.06206 0.56245 -0.20212
 C141 C 1.07842 0.59727 -0.17647
 C142 C 0.92337 0.52433 -0.17456
 N143 N 0.95978 0.41872 -0.09122
 N144 N 0.93368 0.38571 -0.10738
 N145 N 1.03460 0.47664 -0.14820
 N146 N 1.05880 0.48303 -0.20513
 N147 N 1.03442 0.45412 -0.09197
 N148 N 1.05874 0.44477 -0.10926
 N149 N 0.96020 0.44185 -0.14627
 N150 N 0.93429 0.42553 -0.20044
 Mn151 Mn 0.99871 0.49370 -0.14700
 C152 C 0.91773 0.39069 -0.17497
 C153 C 1.07386 0.46306 -0.18034
 N154 N 0.96409 0.53254 0.09190
 N155 N 0.94064 0.54291 0.11056
 N156 N 1.03816 0.54493 0.14595
 N157 N 1.06342 0.56152 0.20144
 N158 N 1.03863 0.56798 0.09060
 N159 N 1.06423 0.60113 0.10769
 N160 N 0.96377 0.50985 0.14806
 N161 N 0.94022 0.50423 0.20630
 Mn162 Mn 1.00097 0.55090 0.00129
 C163 C 0.92594 0.52497 0.18223
 C164 C 1.07988 0.59640 0.17621
 N165 N 1.03503 0.45347 0.08735
 N166 N 1.05796 0.44224 0.10489
 N167 N 0.96161 0.44085 0.14614
 N168 N 0.93803 0.42351 0.20470
 N169 N 0.96058 0.41819 0.08906
 N170 N 0.93631 0.38468 0.10775
 N171 N 1.03613 0.47619 0.14432
 N172 N 1.05993 0.48123 0.20169
 Mn173 Mn 0.99742 0.43570 -0.00175
 Mn174 Mn 0.99991 0.49296 0.14673
 Cl175 Cl 0.99924 0.49331 -0.00011
 C176 C 1.07373 0.46042 0.17555
 C177 C 0.92236 0.38858 0.17992
 N178 N 0.46768 0.42560 0.08549
 N179 N 0.46026 0.39195 0.10132
 N180 N 0.44985 0.48446 0.14426
 N181 N 0.43155 0.49004 0.20222
 N182 N 0.42862 0.46264 0.08668
 N183 N 0.39524 0.45276 0.10410
 N184 N 0.48924 0.44773 0.14226
 N185 N 0.49741 0.42994 0.19738
 C186 C 0.47966 0.39529 0.17045
 C187 C 0.39756 0.47016 0.17644
 N188 N 0.53643 0.57527 0.09018
 N189 N 0.54361 0.60872 0.10699
 N190 N 0.55398 0.51582 0.14485
 N191 N 0.57220 0.50996 0.20271
 N192 N 0.57531 0.53809 0.08815
 N193 N 0.60866 0.54797 0.10599
 N194 N 0.51463 0.55261 0.14572
 N195 N 0.50609 0.56989 0.20130
 Mn196 Mn 0.50191 0.50015 0.14500
 C197 C 0.52392 0.60476 0.17566
 C198 C 0.60627 0.53014 0.17774
 N199 N 0.42892 0.46407 -0.09275
 N200 N 0.39569 0.45499 -0.11007
 N201 N 0.48944 0.44962 -0.15045
 N202 N 0.49788 0.43252 -0.20667
 N203 N 0.46796 0.42684 -0.09464
 N204 N 0.46098 0.39347 -0.11196
 N205 N 0.45035 0.48656 -0.14897
 N206 N 0.43231 0.49314 -0.20592
 Mn207 Mn 0.44791 0.44438 -0.00384
 C208 C 0.39813 0.47337 -0.18111
 C209 C 0.48045 0.39761 -0.18127
 N210 N 0.57552 0.53916 -0.09115
 N211 N 0.60877 0.54835 -0.10851
 N212 N 0.51551 0.55472 -0.14687
 N213 N 0.51018 0.57342 -0.20522
 N214 N 0.53653 0.57641 -0.08887
 N215 N 0.54571 0.61038 -0.10609
 N216 N 0.55416 0.51761 -0.14878
 N217 N 0.57221 0.51177 -0.20672
 Mn218 Mn 0.55631 0.55757 -0.00040
 Mn219 Mn 0.50232 0.50212 -0.14940
 Cl220 Cl 0.50210 0.50104 -0.00214
 C221 C 0.60632 0.53098 -0.18109
 C222 C 0.52906 0.60817 -0.17899
 N223 N 0.42213 -0.05284 0.09262
 N224 N 0.39202 -0.08234 0.11093
 N225 N 0.46902 0.02667 0.15063
 N226 N 0.47068 0.04909 0.20944
 N227 N 0.44445 0.02166 0.09588
 N228 N 0.42866 0.04054 0.11628
 N229 N 0.44668 -0.04776 0.14747
 N230 N 0.43410 -0.07364 0.20386
 C231 C 0.40020 -0.09546 0.17962
 C232 C 0.44544 0.05757 0.18728
 N233 N 0.56537 0.04765 0.08778
 N234 N 0.59588 0.07695 0.10405
 N235 N 0.51923 -0.03202 0.14237
 N236 N 0.51852 -0.05508 0.19837
 N237 N 0.54249 -0.02679 0.08405
 N238 N 0.55853 -0.04594 0.09932
 N239 N 0.54185 0.04262 0.14526
 N240 N 0.55556 0.06847 0.20163
 Mn241 Mn 0.49423 -0.00257 0.14711
 C242 C 0.58906 0.09002 0.17443
 C243 C 0.54298 -0.06364 0.17057
 N244 N 0.44298 0.02302 -0.08399
 N245 N 0.42696 0.04221 -0.09961
 N246 N 0.44438 -0.04544 -0.14568
 N247 N 0.43162 -0.07143 -0.20163
 N248 N 0.42074 -0.05150 -0.08780
 N249 N 0.39097 -0.08179 -0.10352
 N250 N 0.46686 0.02895 -0.14120
 N251 N 0.46791 0.05228 -0.19679
 Mn252 Mn 0.43210 -0.01505 0.00419
 C253 C 0.44306 0.06045 -0.17011
 C254 C 0.39852 -0.09421 -0.17410
 N255 N 0.54075 -0.02573 -0.09583
 N256 N 0.55451 -0.04669 -0.11496
 N257 N 0.53947 0.04475 -0.14580
 N258 N 0.55258 0.07091 -0.20157
 N259 N 0.56385 0.04899 -0.09133
 N260 N 0.59428 0.07811 -0.10890
 N261 N 0.51651 -0.02986 -0.15037
 N262 N 0.51294 -0.05375 -0.20704
 Mn263 Mn 0.55352 0.01105 -0.00387
 Mn264 Mn 0.49182 -0.00032 -0.14636
 Cl265 Cl 0.49289 -0.00172 0.00036
 C266 C 0.53660 -0.06445 -0.18454
 C267 C 0.58660 0.09195 -0.17688
 C268 C 1.10662 0.41939 0.34038
 C269 C 1.14210 0.44808 0.34987
 C270 C 1.15513 0.47733 0.29403
 C271 C 1.13301 0.47986 0.23435
 C272 C 1.09745 0.45308 0.22785
 C273 C 1.08412 0.42206 0.27937
 C274 C 1.09314 0.38789 0.39022
 C275 C 1.05803 0.36049 0.38237
 C276 C 1.03574 0.36372 0.32465
 C277 C 1.04851 0.39411 0.27341
 H278 H 1.10972 0.38410 0.43515
 H279 H 1.04807 0.33664 0.42133
 H280 H 1.00845 0.34248 0.31925
 H281 H 1.03028 0.39535 0.22913
 H282 H 1.18179 0.49985 0.30088
 H283 H 1.14326 0.50381 0.19555
 C284 C 0.49923 0.65966 0.32180
 C285 C 0.53366 0.68646 0.34614
 C286 C 0.56331 0.68898 0.30521
 C287 C 0.55941 0.66373 0.24479
 C288 C 0.52579 0.63505 0.22481
 C289 C 0.49521 0.63375 0.26040
 C290 C 0.46872 0.65786 0.35817
 C291 C 0.43494 0.63145 0.33343
 C292 C 0.43094 0.60648 0.27231
 C293 C 0.46070 0.60740 0.23612
 H294 H 0.47073 0.67712 0.40503
 H295 H 0.41174 0.63055 0.36129
 H296 H 0.40462 0.58647 0.25251
 H297 H 0.45641 0.58784 0.18799
 H298 H 0.58975 0.70940 0.32358
 H299 H 0.58300 0.66514 0.21780
 C300 C 0.36100 -0.17234 0.33850
 C301 C 0.32820 -0.17333 0.35453
 C302 C 0.31767 -0.15356 0.30263
 C303 C 0.34038 -0.13044 0.24161
 C304 C 0.37431 -0.12631 0.23048
 C305 C 0.38407 -0.14891 0.27575
 C306 C 0.37073 -0.19523 0.38191
 C307 C 0.40262 -0.19458 0.36517
 C308 C 0.42507 -0.17181 0.30382
 C309 C 0.41597 -0.14930 0.25904
 H310 H 0.35338 -0.21445 0.42766
 H311 H 0.40965 -0.21231 0.39893
 H312 H 0.44934 -0.17215 0.28996
 H313 H 0.43364 -0.13315 0.20977
 H314 H 0.29284 -0.15378 0.31364
 H315 H 0.33231 -0.11370 0.20702
 C316 C 0.87758 0.56305 0.31374
 C317 C 0.85222 0.53049 0.35210
 C318 C 0.84938 0.49757 0.32738
 C319 C 0.87240 0.49656 0.26860
 C320 C 0.89908 0.52843 0.23255
 C321 C 0.90147 0.56221 0.25367
 C322 C 0.88060 0.59661 0.33663
 C323 C 0.90656 0.62876 0.30139
 C324 C 0.93026 0.62815 0.24391
 C325 C 0.92806 0.59539 0.22061
 H326 H 0.86296 0.59829 0.38189
 H327 H 0.90853 0.65431 0.31940
 H328 H 0.95069 0.65328 0.21762
 H329 H 0.94769 0.59680 0.17735
 H330 H 0.83030 0.47257 0.35705
 H331 H 0.87024 0.47061 0.25353
 C332 C 0.50310 0.34072 0.32115
 C333 C 0.46848 0.31396 0.34419
 C334 C 0.43925 0.31096 0.29993
 C335 C 0.44367 0.33589 0.23798
 C336 C 0.47740 0.36471 0.21955
 C337 C 0.50766 0.36628 0.25816
 C338 C 0.53329 0.34284 0.36038
 C339 C 0.56727 0.36931 0.33726
 C340 C 0.57180 0.39397 0.27474
 C341 C 0.54237 0.39267 0.23551
 H342 H 0.53087 0.32375 0.40818
 H343 H 0.59021 0.37048 0.36744
 H344 H 0.59828 0.41401 0.25619
 H345 H 0.54708 0.41196 0.18632
 H346 H 0.41265 0.29056 0.31712
 H347 H 0.42032 0.33425 0.20883
 C348 C 0.63284 0.16971 0.32421
 C349 C 0.66330 0.16708 0.34566
 C350 C 0.67120 0.14347 0.30134
 C351 C 0.64806 0.12064 0.24064
 C352 C 0.61611 0.12036 0.22383
 C353 C 0.60898 0.14612 0.26288
 C354 C 0.62540 0.19506 0.36344
 C355 C 0.59520 0.19723 0.34237
 C356 C 0.57204 0.17444 0.28179
 C357 C 0.57871 0.14905 0.24225
 H358 H 0.64309 0.21369 0.40975
 H359 H 0.58990 0.21690 0.37268
 H360 H 0.54896 0.17670 0.26493
 H361 H 0.56038 0.13233 0.19447
 H362 H 0.69434 0.14112 0.31747
 H363 H 0.65391 0.10118 0.21109
 C364 C 0.39530 0.09492 -0.31290
 C365 C 0.42507 0.12731 -0.34036
 C366 C 0.45801 0.13904 -0.30225
 C367 C 0.46238 0.11802 -0.24195
 C368 C 0.43400 0.08466 -0.21760
 C369 C 0.39973 0.07321 -0.25116
 C370 C 0.36141 0.08317 -0.34753
 C371 C 0.33252 0.05049 -0.32278
 C372 C 0.33689 0.02891 -0.26375
 C373 C 0.37013 0.03994 -0.22840
 H374 H 0.35702 0.09920 -0.39370
 H375 H 0.30665 0.04176 -0.34986
 H376 H 0.31441 0.00341 -0.24534
 H377 H 0.37217 0.02208 -0.18348
 H378 H 0.48106 0.16357 -0.32328
 H379 H 0.48870 0.12693 -0.21723
 C380 C 0.69516 0.56331 -0.29740
 C381 C 0.68393 0.53364 -0.35328
 C382 C 0.64995 0.50389 -0.34472
 C383 C 0.62680 0.50337 -0.28488
 C384 C 0.63610 0.53266 -0.23104
 C385 C 0.67117 0.56283 -0.23518
 C386 C 0.72883 0.59446 -0.30551
 C387 C 0.73939 0.62382 -0.25213
 C388 C 0.71649 0.62319 -0.19088
 C389 C 0.68270 0.59335 -0.18274
 H390 H 0.74727 0.59662 -0.35343
 H391 H 0.76538 0.64733 -0.25882
 H392 H 0.72481 0.64623 -0.14993
 H393 H 0.66628 0.59515 -0.13505
 H394 H 0.64076 0.48107 -0.38691
 H395 H 0.60043 0.48014 -0.28330
 C396 C 0.83540 0.34077 -0.30979
 C397 C 0.84331 0.31529 -0.34829
 C398 C 0.87289 0.31272 -0.32114
 C399 C 0.89489 0.33514 -0.25847
 C400 C 0.88873 0.36166 -0.22297
 C401 C 0.85828 0.36397 -0.24638
 C402 C 0.80664 0.34540 -0.33626
 C403 C 0.79983 0.37107 -0.29890
 C404 C 0.82156 0.39288 -0.23523
 C405 C 0.85061 0.38955 -0.20920
 H406 H 0.78929 0.32952 -0.38628
 H407 H 0.77760 0.37413 -0.31963
 H408 H 0.81607 0.41269 -0.20633
 H409 H 0.86689 0.40707 -0.15956
 H410 H 0.87961 0.29386 -0.35062
 H411 H 0.91839 0.33352 -0.24192
 C412 C 0.57726 -0.11789 -0.29252
 C413 C 0.55373 -0.13135 -0.36155
 C414 C 0.52484 -0.12515 -0.36508
 C415 C 0.51948 -0.10525 -0.30451
 C416 C 0.54271 -0.09018 -0.23680
 C417 C 0.57125 -0.09799 -0.22818
 C418 C 0.60748 -0.12243 -0.28787
 C419 C 0.63010 -0.10989 -0.21953
 C420 C 0.62332 -0.09239 -0.15493
 C421 C 0.59438 -0.08638 -0.15891
 H422 H 0.61383 -0.13580 -0.33688
 H423 H 0.65291 -0.11399 -0.21641
 H424 H 0.64072 -0.08323 -0.10135
 H425 H 0.59050 -0.07328 -0.10599
 H426 H 0.50631 -0.13540 -0.41667
 H427 H 0.49702 -0.10083 -0.31291
 C428 C 0.30975 0.43955 -0.30084
 C429 C 0.32031 0.46976 -0.35494
 C430 C 0.35356 0.50036 -0.34369
 C431 C 0.37668 0.50131 -0.28278
 C432 C 0.36815 0.47144 -0.23114
 C433 C 0.33368 0.44041 -0.23779
 C434 C 0.27691 0.40754 -0.31171
 C435 C 0.26697 0.37776 -0.26000
 C436 C 0.28969 0.37879 -0.19767
 C437 C 0.32273 0.40945 -0.18696
 H438 H 0.25865 0.40494 -0.36060
 H439 H 0.24160 0.35361 -0.26881
 H440 H 0.28183 0.35545 -0.15789
 H441 H 0.33897 0.40788 -0.13837
 H442 H 0.36219 0.52360 -0.38441
 H443 H 0.40242 0.52544 -0.27858
 C444 C 1.15739 0.64905 -0.32015
 C445 C 1.14931 0.67577 -0.35030
 C446 C 1.12094 0.67840 -0.31557
 C447 C 1.10006 0.65462 -0.25335
 C448 C 1.10627 0.62682 -0.22595
 C449 C 1.13575 0.62452 -0.25721
 C450 C 1.18555 0.64511 -0.35367
 C451 C 1.19272 0.61835 -0.32430
 C452 C 1.17211 0.59501 -0.26134
 C453 C 1.14388 0.59794 -0.22793
 H454 H 1.20222 0.66254 -0.40285
 H455 H 1.21443 0.61576 -0.35044
 H456 H 1.17797 0.57445 -0.23842
 H457 H 1.12872 0.57943 -0.17861
 H458 H 1.11417 0.69831 -0.33881
 H459 H 1.07737 0.65638 -0.23060
 C460 C 0.86824 0.55888 -0.29423
 C461 C 0.84925 0.52839 -0.34701
 C462 C 0.85199 0.49720 -0.33379
 C463 C 0.87401 0.49611 -0.27266
 C464 C 0.89502 0.52637 -0.22300
 C465 C 0.89125 0.55790 -0.23117
 C466 C 0.86667 0.59115 -0.30629
 C467 C 0.88606 0.62126 -0.25604
 C468 C 0.90793 0.62022 -0.19401
 C469 C 0.91085 0.58917 -0.18196
 H470 H 0.85065 0.59358 -0.35486
 H471 H 0.88433 0.64566 -0.26574
 H472 H 0.92308 0.64382 -0.15543
 H473 H 0.92865 0.59058 -0.13362
 H474 H 0.83775 0.47369 -0.37340
 H475 H 0.87599 0.47164 -0.26719
 C476 C 0.50384 0.34532 -0.33847
 C477 C 0.46938 0.31595 -0.35439
 C478 C 0.44112 0.31103 -0.30319
 C479 C 0.44580 0.33654 -0.24263
 C480 C 0.47886 0.36752 -0.23118
 C481 C 0.50869 0.37094 -0.27548
 C482 C 0.53378 0.34900 -0.38221
 C483 C 0.56766 0.37700 -0.36371
 C484 C 0.57248 0.40157 -0.30099
 C485 C 0.54339 0.39881 -0.25734
 H486 H 0.53138 0.32973 -0.42940
 H487 H 0.59036 0.37923 -0.39715
 H488 H 0.59899 0.42255 -0.28537
 H489 H 0.54851 0.41794 -0.20763
 H490 H 0.41467 0.28873 -0.31422
 H491 H 0.42282 0.33327 -0.20853
 C492 C 0.62974 0.16972 -0.33249
 C493 C 0.66095 0.16789 -0.34990
 C494 C 0.66924 0.14548 -0.30175
 C495 C 0.64593 0.12306 -0.24099
 C496 C 0.61339 0.12196 -0.22765
 C497 C 0.60576 0.14663 -0.27070
 C498 C 0.62178 0.19387 -0.37592
 C499 C 0.59094 0.19536 -0.35857
 C500 C 0.56772 0.17318 -0.29740
 C501 C 0.57496 0.14907 -0.25355
 H502 H 0.63953 0.21208 -0.42272
 H503 H 0.58521 0.21408 -0.39216
 H504 H 0.54414 0.17493 -0.28341
 H505 H 0.55662 0.13302 -0.20518
 H506 H 0.69298 0.14378 -0.31470
 H507 H 0.65227 0.10454 -0.20837
 C508 C 1.13098 0.42969 -0.29611
 C509 C 1.14765 0.45874 -0.35355
 C510 C 1.14274 0.48885 -0.34565
 C511 C 1.12078 0.49016 -0.28485
 C512 C 1.10194 0.46109 -0.23021
 C513 C 1.10799 0.43078 -0.23337
 C514 C 1.13520 0.39872 -0.30264
 C515 C 1.11820 0.36990 -0.24763
 C516 C 1.09629 0.37099 -0.18599
 C517 C 1.09095 0.40080 -0.17902
 H518 H 1.15158 0.39643 -0.35037
 H519 H 1.12191 0.34648 -0.25312
 H520 H 1.08308 0.34841 -0.14354
 H521 H 1.07343 0.39942 -0.13026
 H522 H 1.15523 0.51126 -0.38900
 H523 H 1.11728 0.51381 -0.28332
 C524 C 0.56650 0.69816 -0.30043
 C525 C 0.53679 0.68911 -0.35304
 C526 C 0.50550 0.65636 -0.34039
 C527 C 0.50337 0.63218 -0.27962
 C528 C 0.53257 0.63918 -0.22956
 C529 C 0.56444 0.67306 -0.23787
 C530 C 0.59908 0.73034 -0.31271
 C531 C 0.62842 0.73848 -0.26307
 C532 C 0.62639 0.71448 -0.20171
 C533 C 0.59506 0.68200 -0.18965
 H534 H 0.60249 0.74943 -0.36121
 H535 H 0.65304 0.76337 -0.27300
 H536 H 0.64944 0.72080 -0.16390
 H537 H 0.59592 0.66445 -0.14257
 H538 H 0.48265 0.64886 -0.38009
 H539 H 0.47880 0.60677 -0.27419
 C540 C 0.36074 -0.17183 -0.32963
 C541 C 0.32767 -0.17352 -0.34666
 C542 C 0.31641 -0.15422 -0.29543
 C543 C 0.33869 -0.13076 -0.23435
 C544 C 0.37285 -0.12587 -0.22268
 C545 C 0.38334 -0.14805 -0.26682
 C546 C 0.37129 -0.19423 -0.37214
 C547 C 0.40348 -0.19282 -0.35409
 C548 C 0.42547 -0.16969 -0.29249
 C549 C 0.41562 -0.14753 -0.24898
 H550 H 0.35434 -0.21364 -0.41813
 H551 H 0.41111 -0.21021 -0.38709
 H552 H 0.45005 -0.16933 -0.27747
 H553 H 0.43301 -0.13086 -0.19978
 H554 H 0.29137 -0.15497 -0.30723
 H555 H 0.33018 -0.11422 -0.20057
 C556 C 0.59183 -0.09561 0.31575
 C557 C 0.56289 -0.12939 0.33934
 C558 C 0.53048 -0.14265 0.29761
 C559 C 0.52558 -0.12177 0.23781
 C560 C 0.55289 -0.08713 0.21789
 C561 C 0.58681 -0.07410 0.25466
 C562 C 0.62536 -0.08232 0.35363
 C563 C 0.65330 -0.04837 0.33250
 C564 C 0.64829 -0.02701 0.27397
 C565 C 0.61539 -0.03955 0.23554
 H566 H 0.63019 -0.09816 0.39949
 H567 H 0.67891 -0.03848 0.36199
 H568 H 0.67002 -0.00055 0.25835
 H569 H 0.61272 -0.02189 0.19105
 H570 H 0.50813 -0.16837 0.31550
 H571 H 0.49965 -0.13189 0.20979
 C572 C 0.31288 0.43269 0.30773
 C573 C 0.31853 0.46550 0.34445
 C574 C 0.34702 0.49833 0.31833
 C575 C 0.37101 0.49901 0.26005
 C576 C 0.36728 0.46697 0.22561
 C577 C 0.33749 0.43329 0.24777
 C578 C 0.28412 0.39915 0.33228
 C579 C 0.27950 0.36686 0.29842
 C580 C 0.30362 0.36728 0.24071
 C581 C 0.33250 0.40001 0.21597
 H582 H 0.26502 0.39760 0.37779
 H583 H 0.25726 0.34133 0.31764
 H584 H 0.30011 0.34204 0.21542
 H585 H 0.35072 0.39855 0.17254
 H586 H 0.35186 0.52352 0.34690
 H587 H 0.39372 0.52478 0.24425
 C588 C 1.15567 0.64556 0.32939
 C589 C 1.14967 0.67450 0.35148
 C590 C 1.12494 0.68013 0.30703
 C591 C 1.10448 0.65614 0.24453
 C592 C 1.10804 0.62575 0.22574
 C593 C 1.13498 0.62121 0.26531
 C594 C 1.18128 0.63980 0.37118
 C595 C 1.18687 0.61117 0.34894
 C596 C 1.16730 0.58791 0.28476
 C597 C 1.14165 0.59282 0.24301
 H598 H 1.19729 0.65740 0.42097
 H599 H 1.20666 0.60716 0.38130
 H600 H 1.17208 0.56601 0.26713
 H601 H 1.12758 0.57453 0.19244
 H602 H 1.12023 0.70220 0.32370
 H603 H 1.08401 0.65992 0.21488
 C604 C 0.39762 0.09357 0.32640
 C605 C 0.42748 0.12535 0.35609
 C606 C 0.46106 0.13555 0.32362
 C607 C 0.46571 0.11388 0.26576
 C608 C 0.43699 0.08143 0.23804
 C609 C 0.40232 0.07120 0.26712
 C610 C 0.36327 0.08316 0.35618
 C611 C 0.33417 0.05111 0.32927
 C612 C 0.33874 0.02880 0.27295
 C613 C 0.37241 0.03851 0.24234
 H614 H 0.35870 0.09974 0.40027
 H615 H 0.30795 0.04341 0.35268
 H616 H 0.31607 0.00374 0.25304
 H617 H 0.37453 0.01995 0.19989
 H618 H 0.48418 0.15954 0.34666
 H619 H 0.49228 0.12182 0.24452
 C620 C 0.69200 0.56719 0.30610
 C621 C 0.68539 0.53470 0.34614
 C622 C 0.65599 0.50199 0.32301
 C623 C 0.63197 0.50130 0.26462
 C624 C 0.63651 0.53318 0.22723
 C625 C 0.66729 0.56665 0.24630
 C626 C 0.72195 0.60045 0.32717
 C627 C 0.72757 0.63262 0.29035
 C628 C 0.70330 0.63236 0.23311
 C629 C 0.67332 0.59989 0.21162
 H630 H 0.74124 0.60184 0.37212
 H631 H 0.75070 0.65795 0.30692
 H632 H 0.70758 0.65752 0.20558
 H633 H 0.65514 0.60162 0.16845
 H634 H 0.65047 0.47705 0.35409
 H635 H 0.60860 0.47568 0.25115
 C636 C 0.87518 0.30584 0.32175
 C637 C 0.84787 0.31202 0.35193
 C638 C 0.84339 0.33994 0.31805
 C639 C 0.86679 0.36309 0.25853
 C640 C 0.89521 0.35886 0.23047
 C641 C 0.89925 0.32952 0.26059
 C642 C 0.87962 0.27718 0.35303
 C643 C 0.90735 0.27202 0.32520
 C644 C 0.93125 0.29543 0.26661
 C645 C 0.92755 0.32409 0.23493
 H646 H 0.86165 0.25854 0.39892
 H647 H 0.91044 0.24988 0.34957
 H648 H 0.95290 0.29143 0.24581
 H649 H 0.94715 0.34179 0.19075
 H650 H 0.82278 0.34511 0.34140
 H651 H 0.86356 0.38553 0.23666
   
