data_POSCAR
  _audit_creation_date              2014-09-24
  _audit_creation_method            'ToBaCCo'
  _symmetry_space_group_name_H-M    'P1'
  _symmetry_Int_Tables_number       1
  _symmetry_cell_setting            triclinic
  loop_
  _symmetry_equiv_pos_as_xyz
 x,y,z
_cell_length_a 38.8134
_cell_length_b 38.3408
_cell_length_c 38.4244
_cell_angle_alpha 89.853800
_cell_angle_beta 89.815500
_cell_angle_gamma 89.898300
loop_
  _atom_site_label
  _atom_site_type_symbol
  _atom_site_fract_x
  _atom_site_fract_y
  _atom_site_fract_z
N1 N 0.19058 1.26335 0.16775
 N2 N 0.16680 1.26297 0.19222
 C3 C 0.14378 1.28854 0.18585
 C4 C 0.15398 1.30572 0.15601
 C5 C 0.18359 1.28917 0.14501
 H6 H 0.12076 1.29352 0.20101
 H7 H 0.19819 1.29466 0.12161
 Cu8 Cu 0.16656 1.22779 0.22882
 Cu9 Cu 0.22722 1.22877 0.16565
 Cu10 Cu 0.22629 1.16371 0.22820
 N11 N 0.16580 1.18988 0.26258
 N12 N 0.18921 1.16501 0.26230
 C13 C 0.18174 1.14157 0.28736
 C14 C 0.15221 1.15251 0.30407
 C15 C 0.14257 1.18308 0.28784
 H16 H 0.19612 1.11790 0.29238
 H17 H 0.11992 1.19860 0.29339
 N18 N 0.26180 1.16670 0.19161
 N19 N 0.26218 1.19155 0.16774
 C20 C 0.28824 1.18540 0.14531
 C21 C 0.30489 1.15541 0.15573
 C22 C 0.28761 1.14409 0.18499
 H23 H 0.29396 1.20078 0.12238
 H24 H 0.29273 1.12047 0.19953
 H25 H 0.19903 1.18971 0.18977
 H26 H 0.22765 1.21660 0.21803
 N27 N 0.80920 0.73878 0.16850
 N28 N 0.83573 0.74216 0.18944
 C29 C 0.85866 0.71662 0.18276
 C30 C 0.84567 0.69631 0.15634
 C31 C 0.81439 0.71101 0.14772
 H32 H 0.88345 0.71374 0.19523
 H33 H 0.79752 0.70309 0.12685
 Cu34 Cu 0.83912 0.78078 0.22185
 Cu35 Cu 0.77201 0.77288 0.16692
 Cu36 Cu 0.77743 0.84216 0.22441
 N37 N 0.83511 0.81298 0.26067
 N38 N 0.81087 0.83699 0.26162
 C39 C 0.81570 0.85746 0.28959
 C40 C 0.84431 0.84533 0.30705
 C41 C 0.85619 0.81726 0.28811
 H42 H 0.80053 0.88032 0.29582
 H43 H 0.87923 0.80214 0.29303
 N44 N 0.73968 0.83711 0.19073
 N45 N 0.73728 0.81043 0.16918
 C46 C 0.70999 0.81549 0.14815
 C47 C 0.69459 0.84659 0.15717
 C48 C 0.71391 0.85973 0.18410
 H49 H 0.70282 0.79874 0.12677
 H50 H 0.71026 0.88455 0.19690
 H51 H 0.80036 0.81431 0.18389
 H52 H 0.77713 0.78908 0.21826
 N53 N 0.80860 1.26253 -0.16812
 N54 N 0.83297 1.26162 -0.19201
 C55 C 0.85621 1.28677 -0.18528
 C56 C 0.84553 1.30431 -0.15587
 C57 C 0.81539 1.28837 -0.14551
 H58 H 0.87968 1.29126 -0.19984
 H59 H 0.80026 1.29431 -0.12259
 Cu60 Cu 0.83266 1.22589 -0.22780
 Cu61 Cu 0.77140 1.22836 -0.16641
 Cu62 Cu 0.77222 1.16381 -0.22982
 N63 N 0.83382 1.18955 -0.26296
 N64 N 0.80980 1.16537 -0.26367
 C65 C 0.81708 1.14251 -0.28923
 C66 C 0.84717 1.15309 -0.30515
 C67 C 0.85734 1.18282 -0.28794
 H68 H 0.80225 1.11938 -0.29502
 H69 H 0.88059 1.19767 -0.29256
 N70 N 0.73648 1.16686 -0.19327
 N71 N 0.73615 1.19143 -0.16919
 C72 C 0.70999 1.18520 -0.14689
 C73 C 0.69322 1.15551 -0.15759
 C74 C 0.71054 1.14439 -0.18687
 H75 H 0.70435 1.20026 -0.12381
 H76 H 0.70540 1.12095 -0.20153
 H77 H 0.79849 1.18826 -0.19001
 H78 H 0.77130 1.21625 -0.21861
 N79 N 0.19088 0.73850 -0.16609
 N80 N 0.16666 0.73948 -0.18996
 C81 C 0.14348 0.71419 -0.18325
 C82 C 0.15397 0.69659 -0.15381
 C83 C 0.18399 0.71256 -0.14344
 H84 H 0.12021 0.70956 -0.19793
 H85 H 0.19903 0.70648 -0.12056
 Cu86 Cu 0.16701 0.77512 -0.22618
 Cu87 Cu 0.22818 0.77245 -0.16468
 Cu88 Cu 0.22876 0.83621 -0.22905
 N89 N 0.16737 0.81076 -0.26215
 N90 N 0.19175 0.83457 -0.26322
 C91 C 0.18540 0.85683 -0.28961
 C92 C 0.15557 0.84622 -0.30576
 C93 C 0.14460 0.81711 -0.28782
 H94 H 0.20074 0.87953 -0.29592
 H95 H 0.12136 0.80234 -0.29254
 N96 N 0.26390 0.83336 -0.19215
 N97 N 0.26369 0.80907 -0.16768
 C98 C 0.28961 0.81531 -0.14530
 C99 C 0.30679 0.84473 -0.15636
 C100 C 0.28996 0.85566 -0.18594
 H101 H 0.29482 0.80045 -0.12194
 H102 H 0.29552 0.87887 -0.20097
 H103 H 0.20176 0.81265 -0.18899
 H104 H 0.22853 0.78379 -0.21726
 Si105 Si 0.49975 1.00000 -0.00013
 Si106 Si -0.00075 0.49926 1.00076
 Si107 Si 0.99946 -0.00255 0.49979
 C108 C 0.13628 0.33097 1.13872
 C109 C 0.12026 0.35284 1.12298
 C110 C 0.10067 0.37817 1.10365
 C111 C 0.07349 0.36710 1.08251
 C112 C 0.05447 0.39143 1.06339
 C113 C 0.06250 0.42697 1.06528
 C114 C 0.08965 0.43812 1.08646
 C115 C 0.10872 0.41374 1.10563
 C116 C 0.04288 0.45167 1.04519
 C117 C 0.02589 0.47143 1.02784
 H118 H 0.06707 0.33968 1.08075
 H119 H 0.03356 0.38252 1.04706
 H120 H 0.09611 0.46554 1.08807
 H121 H 0.12972 0.42258 1.12186
 C122 C -0.13662 0.66893 1.13812
 C123 C -0.12122 0.64669 1.12228
 C124 C -0.10218 0.62108 1.10275
 C125 C -0.07790 0.63205 1.07802
 C126 C -0.05916 0.60749 1.05894
 C127 C -0.06456 0.57179 1.06447
 C128 C -0.08887 0.56073 1.08917
 C129 C -0.10767 0.58536 1.10829
 C130 C -0.04490 0.54684 1.04472
 C131 C -0.02776 0.52700 1.02760
 H132 H -0.07345 0.65959 1.07352
 H133 H -0.04042 0.61632 1.03992
 H134 H -0.09325 0.53318 1.09364
 H135 H -0.12639 0.57659 1.12736
 C136 C -0.13597 0.33090 0.86248
 C137 C -0.12015 0.35269 0.87834
 C138 C -0.10087 0.37798 0.89782
 C139 C -0.10563 0.41376 0.89194
 C140 C -0.08682 0.43813 0.91115
 C141 C -0.06322 0.42677 0.93629
 C142 C -0.05847 0.39100 0.94210
 C143 C -0.07724 0.36668 0.92293
 C144 C -0.04379 0.45151 0.95630
 C145 C -0.02702 0.47133 0.97363
 H146 H -0.12384 0.42277 0.87258
 H147 H -0.09068 0.46573 0.90644
 H148 H -0.04027 0.38193 0.96146
 H149 H -0.07336 0.33909 0.92769
 C150 C 0.13551 0.66970 0.86441
 C151 C 0.11967 0.64765 0.88010
 C152 C 0.10033 0.62202 0.89933
 C153 C 0.10628 0.58633 0.89416
 C154 C 0.08738 0.56162 0.91309
 C155 C 0.06249 0.57256 0.93723
 C156 C 0.05658 0.60823 0.94235
 C157 C 0.07544 0.63289 0.92345
 C158 C 0.04290 0.54748 0.95692
 C159 C 0.02592 0.52743 0.97398
 H160 H 0.12549 0.57765 0.87557
 H161 H 0.09217 0.53409 0.90895
 H162 H 0.03741 0.61698 0.96095
 H163 H 0.07063 0.66041 0.92767
 C164 C 1.13456 0.13503 0.32924
 C165 C 1.11882 0.11910 0.35120
 C166 C 1.09993 0.09952 0.37691
 C167 C 1.08417 0.11654 0.40502
 C168 C 1.06532 0.09738 0.42957
 C169 C 1.06219 0.06114 0.42609
 C170 C 1.07807 0.04415 0.39806
 C171 C 1.09689 0.06329 0.37354
 C172 C 1.04222 0.04133 0.45076
 C173 C 1.02532 0.02420 0.47083
 H174 H 1.08631 0.14456 0.40783
 H175 H 1.05306 0.11079 0.45110
 H176 H 1.07573 0.01617 0.39506
 H177 H 1.10891 0.04987 0.35188
 C178 C 1.13866 -0.13708 0.66814
 C179 C 1.12332 -0.12200 0.64538
 C180 C 1.10461 -0.10357 0.61879
 C181 C 1.11337 -0.06910 0.61054
 C182 C 1.09413 -0.05052 0.58597
 C183 C 1.06605 -0.06634 0.56955
 C184 C 1.05755 -0.10097 0.57746
 C185 C 1.07680 -0.11956 0.60204
 C186 C 1.04508 -0.04649 0.54587
 C187 C 1.02715 -0.02934 0.52682
 H188 H 1.13473 -0.05644 0.62344
 H189 H 1.10082 -0.02370 0.58017
 H190 H 1.03578 -0.11340 0.56505
 H191 H 1.06973 -0.14617 0.60833
 C192 C 0.86067 -0.13878 0.33390
 C193 C 0.87570 -0.12416 0.35705
 C194 C 0.89430 -0.10605 0.38381
 C195 C 0.88158 -0.07451 0.39702
 C196 C 0.90086 -0.05563 0.42119
 C197 C 0.93293 -0.06822 0.43225
 C198 C 0.94537 -0.10005 0.41950
 C199 C 0.92610 -0.11894 0.39533
 C200 C 0.95383 -0.04761 0.45518
 C201 C 0.97176 -0.02992 0.47359
 H202 H 0.85712 -0.06421 0.38815
 H203 H 0.89108 -0.03095 0.43075
 H204 H 0.97022 -0.10993 0.42774
 H205 H 0.93627 -0.14320 0.38514
 C206 C 0.86499 0.13577 0.66976
 C207 C 0.88105 0.12008 0.64791
 C208 C 0.90053 0.10087 0.62243
 C209 C 0.92766 0.07931 0.63317
 C210 C 0.94642 0.06017 0.60866
 C211 C 0.93814 0.06249 0.57328
 C212 C 0.91109 0.08416 0.56246
 C213 C 0.89230 0.10334 0.58702
 C214 C 0.95729 0.04225 0.54836
 C215 C 0.97377 0.02476 0.52830
 H216 H 0.93422 0.07719 0.66049
 H217 H 0.96728 0.04348 0.61731
 H218 H 0.90447 0.08613 0.53516
 H219 H 0.87134 0.11993 0.57843
 C220 C 0.33170 1.13724 0.13734
 C221 C 0.35356 1.12147 0.12149
 C222 C 0.37883 1.10202 0.10207
 C223 C 0.36809 1.07552 0.07958
 C224 C 0.39236 1.05648 0.06053
 C225 C 0.42753 1.06382 0.06384
 C226 C 0.43835 1.09030 0.08636
 C227 C 0.41403 1.10938 0.10546
 C228 C 0.45221 1.04407 0.04395
 C229 C 0.47195 1.02692 0.02677
 H230 H 0.34095 1.06959 0.07678
 H231 H 0.38370 1.03606 0.04320
 H232 H 0.46550 1.09618 0.08913
 H233 H 0.42261 1.12981 0.12280
 C234 C 0.66645 1.13725 -0.13923
 C235 C 0.64466 1.12148 -0.12327
 C236 C 0.61955 1.10208 -0.10356
 C237 C 0.63060 1.07817 -0.07833
 C238 C 0.60651 1.05920 -0.05898
 C239 C 0.57121 1.06401 -0.06473
 C240 C 0.56007 1.08792 -0.08997
 C241 C 0.58422 1.10694 -0.10937
 C242 C 0.54673 1.04422 -0.04463
 C243 C 0.52721 1.02703 -0.02724
 H244 H 0.65784 1.07420 -0.07363
 H245 H 0.61541 1.04078 -0.03954
 H246 H 0.53282 1.09183 -0.09463
 H247 H 0.57539 1.12536 -0.12884
 C248 C 0.33351 0.86291 -0.13812
 C249 C 0.35525 0.87862 -0.12226
 C250 C 0.38031 0.89794 -0.10267
 C251 C 0.41565 0.89314 -0.10865
 C252 C 0.43975 0.91214 -0.08942
 C253 C 0.42855 0.93595 -0.06417
 C254 C 0.39323 0.94069 -0.05823
 C255 C 0.36919 0.92175 -0.07742
 C256 C 0.45297 0.95573 -0.04425
 C257 C 0.47243 0.97293 -0.02700
 H258 H 0.42453 0.87479 -0.12812
 H259 H 0.46702 0.90829 -0.09423
 H260 H 0.38430 0.95906 -0.03879
 H261 H 0.34195 0.92566 -0.07257
 C262 C 0.66754 0.86430 0.13876
 C263 C 0.64559 0.87973 0.12277
 C264 C 0.62032 0.89884 0.10305
 C265 C 0.58503 0.89300 0.10827
 C266 C 0.56074 0.91182 0.08892
 C267 C 0.57170 0.93651 0.06431
 C268 C 0.60697 0.94229 0.05914
 C269 C 0.63120 0.92352 0.07844
 C270 C 0.54707 0.95611 0.04428
 C271 C 0.52740 0.97316 0.02696
 H272 H 0.57634 0.87397 0.12723
 H273 H 0.53353 0.90715 0.09312
 H274 H 0.61573 0.96131 0.04019
 H275 H 0.65841 0.92824 0.07419
   
