data_POSCAR
  _audit_creation_date              2014-09-24
  _audit_creation_method            'ToBaCCo'
  _symmetry_space_group_name_H-M    'P1'
  _symmetry_Int_Tables_number       1
  _symmetry_cell_setting            triclinic
  loop_
  _symmetry_equiv_pos_as_xyz
 x,y,z
_cell_length_a 47.3535
_cell_length_b 48.3916
_cell_length_c 47.6291
_cell_angle_alpha 89.859000
_cell_angle_beta 90.042500
_cell_angle_gamma 90.083800
loop_
  _atom_site_label
  _atom_site_type_symbol
  _atom_site_fract_x
  _atom_site_fract_y
  _atom_site_fract_z
C1 C 0.29729 0.33537 0.01330
 C2 C 0.29684 0.33552 -0.01661
 C3 C 0.31417 0.31633 -0.03088
 C4 C 0.33304 0.29857 -0.01656
 C5 C 0.33244 0.29836 0.01333
 C6 C 0.31465 0.31662 0.02751
 H7 H 0.31391 0.31589 0.05027
 H8 H 0.31538 0.31748 -0.05356
 C9 C 0.70302 0.66934 0.01223
 C10 C 0.70300 0.66770 -0.01745
 C11 C 0.68625 0.68626 -0.03294
 C12 C 0.66956 0.70655 -0.01974
 C13 C 0.66878 0.70716 0.01017
 C14 C 0.68580 0.68886 0.02550
 H15 H 0.68510 0.68929 0.04826
 H16 H 0.68686 0.68525 -0.05566
 C17 C 0.71538 0.32139 0.98981
 C18 C 0.71116 0.32444 1.01926
 C19 C 0.69168 0.30667 1.03268
 C20 C 0.67659 0.28652 1.01781
 C21 C 0.68088 0.28386 0.98865
 C22 C 0.70056 0.30085 0.97511
 H23 H 0.70279 0.29947 0.95249
 H24 H 0.68873 0.30778 1.05522
 C25 C 0.28940 0.67347 0.98661
 C26 C 0.29252 0.66933 1.01596
 C27 C 0.31125 0.68664 1.03070
 C28 C 0.32730 0.70739 1.01742
 C29 C 0.32478 0.71056 0.98779
 C30 C 0.30523 0.69413 0.97311
 H31 H 0.30402 0.69581 0.95043
 H32 H 0.31195 0.68506 1.05339
 C33 C 0.01153 0.28648 0.32166
 C34 C -0.01829 0.28534 0.31955
 C35 C -0.03228 0.30360 0.30140
 C36 C -0.01741 0.32291 0.28504
 C37 C 0.01250 0.32359 0.28657
 C38 C 0.02647 0.30519 0.30471
 H39 H 0.04925 0.30638 0.30669
 H40 H -0.05513 0.30277 0.29996
 C41 C 0.01057 0.71346 0.67980
 C42 C -0.01925 0.71136 0.67649
 C43 C -0.03364 0.69013 0.69094
 C44 C -0.01977 0.67178 0.70941
 C45 C 0.00986 0.67480 0.71309
 C46 C 0.02438 0.69562 0.69855
 H47 H 0.04720 0.69655 0.70029
 H48 H -0.05646 0.68924 0.68949
 C49 C 0.98634 0.70292 0.33398
 C50 C 1.01620 0.70335 0.33448
 C51 C 1.03116 0.68641 0.31575
 C52 C 1.01735 0.66777 0.29745
 C53 C 0.98721 0.66725 0.29757
 C54 C 0.97243 0.68499 0.31557
 H55 H 0.94952 0.68505 0.31504
 H56 H 1.05399 0.68624 0.31721
 C57 C 0.98652 0.29637 0.66628
 C58 C 1.01663 0.29707 0.66603
 C59 C 1.03033 0.31537 0.68462
 C60 C 1.01535 0.33320 0.70239
 C61 C 0.98549 0.33253 0.70230
 C62 C 0.97162 0.31404 0.68430
 H63 H 0.94873 0.31336 0.68425
 H64 H 1.05316 0.31694 0.68445
 C65 C 0.32787 0.01157 0.29505
 C66 C 0.33102 -0.01768 0.29573
 C67 C 0.31344 -0.03296 0.31395
 C68 C 0.29343 -0.02038 0.33172
 C69 C 0.29111 0.00895 0.33126
 C70 C 0.30822 0.02426 0.31282
 H71 H 0.30647 0.04660 0.31248
 H72 H 0.31553 -0.05523 0.31455
 C73 C 0.67174 0.01351 0.70956
 C74 C 0.67326 -0.01572 0.70867
 C75 C 0.69287 -0.02836 0.69075
 C76 C 0.71074 -0.01279 0.67327
 C77 C 0.70905 0.01642 0.67404
 C78 C 0.68981 0.02906 0.69233
 H79 H 0.68843 0.05143 0.69264
 H80 H 0.69375 -0.05073 0.68994
 C81 C 0.32520 0.99041 0.71127
 C82 C 0.33039 1.01906 0.70738
 C83 C 0.31440 1.03328 0.68704
 C84 C 0.29367 1.02019 0.67052
 C85 C 0.28947 0.99124 0.67394
 C86 C 0.30480 0.97707 0.69475
 H87 H 0.30240 0.95486 0.69675
 H88 H 0.31667 1.05552 0.68555
 C89 C 0.67363 0.98554 0.28843
 C90 C 0.67377 1.01478 0.28873
 C91 C 0.69075 1.02875 0.30828
 C92 C 0.70772 1.01446 0.32790
 C93 C 0.70819 0.98501 0.32665
 C94 C 0.69103 0.97118 0.30722
 H95 H 0.69132 0.94878 0.30671
 H96 H 0.68961 1.05110 0.30884
 O97 O 0.84835 0.88808 0.52552
 O98 O 0.88645 0.84575 0.47330
 O99 O 0.84941 0.88556 0.47105
 O100 O 0.88636 0.84904 0.52793
 O101 O 0.85278 0.81741 0.52886
 O102 O 0.81478 0.85509 0.47309
 O103 O 0.85177 0.81529 0.47440
 O104 O 0.81514 0.85607 0.52791
 Cu105 Cu 0.87108 0.87022 0.49930
 Cu106 Cu 0.83017 0.83289 0.50113
 C107 C 0.82536 0.87902 0.53583
 C108 C 0.87548 0.82323 0.46490
 C109 C 0.82567 0.87676 0.46248
 C110 C 0.87604 0.82691 0.53805
 O111 O 0.15353 0.11897 0.52778
 O112 O 0.11293 0.15281 0.47141
 O113 O 0.15187 0.11408 0.47373
 O114 O 0.11515 0.15768 0.52537
 O115 O 0.14900 0.18893 0.52176
 O116 O 0.18456 0.14630 0.46860
 O117 O 0.14620 0.18458 0.46723
 O118 O 0.18708 0.15031 0.52296
 Cu119 Cu 0.13000 0.13270 0.49992
 Cu120 Cu 0.17003 0.17072 0.49470
 C121 C 0.17741 0.12874 0.53483
 C122 C 0.12246 0.17466 0.45997
 C123 C 0.17457 0.12271 0.46249
 C124 C 0.12586 0.18072 0.53242
 O125 O 0.15381 0.88061 0.47514
 O126 O 0.11497 0.84638 0.53275
 O127 O 0.15377 0.88512 0.52939
 O128 O 0.11470 0.84245 0.47872
 O129 O 0.14821 0.81081 0.48065
 O130 O 0.18644 0.85277 0.53296
 O131 O 0.14823 0.81452 0.53542
 O132 O 0.18704 0.84886 0.47837
 Cu133 Cu 0.13100 0.86687 0.50375
 Cu134 Cu 0.17080 0.82853 0.50707
 C135 C 0.17723 0.87062 0.46705
 C136 C 0.12493 0.82451 0.54374
 C137 C 0.17672 0.87625 0.53985
 C138 C 0.12473 0.81935 0.47107
 O139 O 0.88651 0.15290 0.52563
 O140 O 0.84524 0.11278 0.47441
 O141 O 0.88524 0.14996 0.47078
 O142 O 0.84662 0.11599 0.52859
 O143 O 0.81442 0.14885 0.52669
 O144 O 0.85341 0.18318 0.46991
 O145 O 0.81369 0.14626 0.47220
 O146 O 0.85431 0.18577 0.52451
 Cu147 Cu 0.86922 0.12966 0.49993
 Cu148 Cu 0.83079 0.16936 0.49820
 C149 C 0.87733 0.17609 0.53406
 C150 C 0.82237 0.12259 0.46465
 C151 C 0.87591 0.17242 0.46048
 C152 C 0.82370 0.12655 0.53732
 O153 O 0.52616 0.84712 0.88285
 O154 O 0.46939 0.88472 0.84647
 O155 O 0.47160 0.84657 0.88537
 O156 O 0.52460 0.88460 0.84371
 O157 O 0.52395 0.85136 0.81210
 O158 O 0.46851 0.81521 0.85191
 O159 O 0.46932 0.85333 0.81291
 O160 O 0.52379 0.81396 0.85124
 Cu161 Cu 0.49801 0.86907 0.86780
 Cu162 Cu 0.49615 0.83017 0.82883
 C163 C 0.53454 0.82401 0.87346
 C164 C 0.46001 0.87571 0.82324
 C165 C 0.46100 0.82443 0.87569
 C166 C 0.53363 0.87424 0.82092
 O167 O 0.52360 0.15101 0.11275
 O168 O 0.46871 0.11278 0.15140
 O169 O 0.46866 0.15227 0.11400
 O170 O 0.52386 0.11206 0.15050
 O171 O 0.52502 0.14335 0.18408
 O172 O 0.47028 0.18339 0.14773
 O173 O 0.46998 0.14396 0.18508
 O174 O 0.52496 0.18234 0.14629
 Cu175 Cu 0.49604 0.12886 0.12882
 Cu176 Cu 0.49767 0.16633 0.16920
 C177 C 0.53362 0.17325 0.12281
 C178 C 0.45992 0.12179 0.17484
 C179 C 0.46024 0.17490 0.12458
 C180 C 0.53393 0.12093 0.17353
 O181 O 0.52641 0.11481 0.84785
 O182 O 0.47556 0.15715 0.88708
 O183 O 0.47224 0.11886 0.84820
 O184 O 0.53053 0.15262 0.88657
 O185 O 0.53103 0.18617 0.85509
 O186 O 0.47583 0.15042 0.81488
 O187 O 0.47620 0.18849 0.85334
 O188 O 0.53056 0.14815 0.81635
 Cu189 Cu 0.50089 0.13272 0.87084
 Cu190 Cu 0.50365 0.17158 0.83167
 C191 C 0.53716 0.12428 0.82539
 C192 C 0.46700 0.17992 0.87683
 C193 C 0.46467 0.12849 0.82452
 C194 C 0.54045 0.17537 0.87754
 O195 O 0.47009 0.84684 0.11552
 O196 O 0.52819 0.88501 0.14958
 O197 O 0.52469 0.84602 0.11141
 O198 O 0.47388 0.88575 0.15346
 O199 O 0.47544 0.85372 0.18654
 O200 O 0.52740 0.81468 0.14509
 O201 O 0.53031 0.85306 0.18272
 O202 O 0.47258 0.81509 0.14875
 Cu203 Cu 0.49903 0.86908 0.12910
 Cu204 Cu 0.50159 0.83095 0.16911
 C205 C 0.46156 0.82427 0.12628
 C206 C 0.53895 0.87561 0.17210
 C207 C 0.53468 0.82357 0.12105
 C208 C 0.46611 0.87659 0.17724
 O209 O 0.87894 0.52495 0.84249
 O210 O 0.84310 0.46847 0.88081
 O211 O 0.88084 0.47159 0.84088
 O212 O 0.84122 0.52213 0.88284
 O213 O 0.80836 0.52403 0.84997
 O214 O 0.84557 0.46970 0.81058
 O215 O 0.80780 0.47047 0.85058
 O216 O 0.84569 0.52353 0.81006
 Cu217 Cu 0.86443 0.49682 0.86497
 Cu218 Cu 0.82346 0.49687 0.82710
 C219 C 0.86870 0.53347 0.81936
 C220 C 0.81895 0.46034 0.87255
 C221 C 0.86988 0.46190 0.81865
 C222 C 0.81814 0.53184 0.87349
 O223 O 0.15595 0.47222 0.11976
 O224 O 0.11795 0.52658 0.15883
 O225 O 0.15667 0.52602 0.11935
 O226 O 0.11667 0.47312 0.15844
 O227 O 0.15008 0.47212 0.19082
 O228 O 0.18956 0.52539 0.15217
 O229 O 0.15134 0.52609 0.19122
 O230 O 0.18884 0.47197 0.15258
 Cu231 Cu 0.13347 0.49959 0.13579
 Cu232 Cu 0.17321 0.49887 0.17501
 C233 C 0.17906 0.46292 0.12955
 C234 C 0.12819 0.53548 0.18178
 C235 C 0.18010 0.53460 0.12901
 C236 C 0.12661 0.46357 0.18125
 O237 O 0.88248 0.47479 0.15386
 O238 O 0.84257 0.52919 0.11652
 O239 O 0.88285 0.52891 0.15431
 O240 O 0.84208 0.47535 0.11659
 O241 O 0.81048 0.47541 0.15059
 O242 O 0.85090 0.52855 0.18798
 O243 O 0.81089 0.52901 0.15045
 O244 O 0.85061 0.47502 0.18761
 Cu245 Cu 0.86573 0.50213 0.13193
 Cu246 Cu 0.82756 0.50207 0.17252
 C247 C 0.87327 0.46557 0.17714
 C248 C 0.81971 0.53821 0.12704
 C249 C 0.87384 0.53773 0.17777
 C250 C 0.81926 0.46624 0.12723
 O251 O 0.15757 0.53044 0.87891
 O252 O 0.11865 0.47551 0.84129
 O253 O 0.15763 0.47684 0.88067
 O254 O 0.11879 0.52948 0.84046
 O255 O 0.15174 0.52855 0.80771
 O256 O 0.19026 0.47519 0.84763
 O257 O 0.15184 0.47509 0.80883
 O258 O 0.19106 0.52877 0.84673
 Cu259 Cu 0.13479 0.50304 0.86358
 Cu260 Cu 0.17453 0.50191 0.82445
 C261 C 0.18120 0.53866 0.86936
 C262 C 0.12855 0.46611 0.81840
 C263 C 0.18066 0.46720 0.87119
 C264 C 0.12859 0.53795 0.81718
 C265 C 0.24631 0.38708 0.06538
 C266 C 0.27579 0.38691 0.06858
 C267 C 0.29216 0.37000 0.05156
 C268 C 0.27939 0.35339 0.03112
 C269 C 0.24988 0.35414 0.02838
 N270 N 0.23427 0.37092 0.04524
 C271 C 0.22836 0.40508 0.08295
 N272 N 0.20379 0.41533 0.07229
 C273 C 0.18723 0.43318 0.08697
 C274 C 0.19529 0.44183 0.11395
 C275 C 0.22002 0.43072 0.12562
 C276 C 0.23646 0.41233 0.11032
 H277 H 0.31490 0.37014 0.05404
 H278 H 0.23934 0.34150 0.01285
 H279 H 0.16817 0.44104 0.07729
 H280 H 0.22687 0.43645 0.14651
 H281 H 0.28629 0.40011 0.08365
 H282 H 0.25530 0.40392 0.11992
 C283 C 0.75187 0.61536 0.06432
 C284 C 0.72247 0.61703 0.06796
 C285 C 0.70673 0.63474 0.05101
 C286 C 0.72002 0.65064 0.03025
 C287 C 0.74939 0.64839 0.02713
 N288 N 0.76436 0.63092 0.04390
 C289 C 0.76942 0.59647 0.08152
 N290 N 0.79417 0.58681 0.07082
 C291 C 0.81086 0.56870 0.08509
 C292 C 0.80283 0.55917 0.11181
 C293 C 0.77779 0.56945 0.12351
 C294 C 0.76115 0.58812 0.10856
 H295 H 0.68404 0.63573 0.05377
 H296 H 0.76035 0.66046 0.01137
 H297 H 0.83011 0.56148 0.07535
 H298 H 0.77092 0.56296 0.14418
 H299 H 0.71151 0.60439 0.08322
 H300 H 0.74217 0.59598 0.11829
 C301 C 0.75844 0.38114 0.93948
 C302 C 0.73418 0.38887 0.95443
 C303 C 0.72040 0.36941 0.97117
 C304 C 0.73056 0.34229 0.97277
 C305 C 0.75472 0.33527 0.95736
 N306 N 0.76813 0.35473 0.94154
 C307 C 0.77357 0.40125 0.92166
 N308 N 0.80232 0.40186 0.92186
 C309 C 0.81731 0.42043 0.90633
 C310 C 0.80325 0.43945 0.88897
 C311 C 0.77365 0.43869 0.88800
 C312 C 0.75875 0.41981 0.90448
 H313 H 0.70169 0.37539 0.98272
 H314 H 0.76304 0.31446 0.95819
 H315 H 0.84014 0.42024 0.90746
 H316 H 0.76202 0.45304 0.87491
 H317 H 0.72621 0.40981 0.95347
 H318 H 0.73590 0.41954 0.90360
 C319 C 0.24519 0.61628 0.93454
 C320 C 0.26960 0.60774 0.94884
 C321 C 0.28389 0.62641 0.96601
 C322 C 0.27409 0.65357 0.96861
 C323 C 0.24990 0.66149 0.95366
 N324 N 0.23594 0.64276 0.93749
 C325 C 0.22917 0.59683 0.91685
 N326 N 0.20045 0.59645 0.91822
 C327 C 0.18466 0.57825 0.90313
 C328 C 0.19779 0.55935 0.88505
 C329 C 0.22732 0.55993 0.88280
 C330 C 0.24308 0.57845 0.89885
 H331 H 0.30259 0.61975 0.97723
 H332 H 0.24188 0.68235 0.95528
 H333 H 0.16190 0.57857 0.90523
 H334 H 0.23824 0.54565 0.86913
 H335 H 0.27721 0.58671 0.94719
 H336 H 0.26588 0.57853 0.89709
 C337 C 0.05733 0.23713 0.38075
 C338 C 0.03393 0.25237 0.38986
 C339 C 0.01940 0.26897 0.37079
 C340 C 0.02751 0.26967 0.34245
 C341 C 0.05139 0.25451 0.33432
 N342 N 0.06563 0.23893 0.35345
 C343 C 0.07353 0.21988 0.40051
 N344 N 0.10225 0.22043 0.39967
 C345 C 0.11831 0.20582 0.41814
 C346 C 0.10542 0.18918 0.43865
 C347 C 0.07586 0.18768 0.43930
 C348 C 0.05983 0.20321 0.42043
 H349 H 0.00180 0.28121 0.37815
 H350 H 0.05852 0.25483 0.31274
 H351 H 0.14108 0.20729 0.41687
 H352 H 0.06517 0.17513 0.45487
 H353 H 0.02734 0.25191 0.41163
 H354 H 0.03700 0.20216 0.42132
 C355 C 0.06180 0.76333 0.62552
 C356 C 0.06711 0.76343 0.65449
 C357 C 0.05031 0.74734 0.67227
 C358 C 0.02853 0.73095 0.66116
 C359 C 0.02455 0.73089 0.63192
 N360 N 0.04073 0.74718 0.61513
 C361 C 0.07854 0.78030 0.60595
 N362 N 0.06516 0.79403 0.58481
 C363 C 0.07951 0.80912 0.56537
 C364 C 0.10910 0.81014 0.56603
 C365 C 0.12332 0.79604 0.58755
 C366 C 0.10808 0.78140 0.60781
 H367 H 0.05410 0.74788 0.69469
 H368 H 0.00848 0.71801 0.62244
 H369 H 0.06787 0.81952 0.54887
 H370 H 0.14616 0.79633 0.58865
 H371 H 0.08367 0.77621 0.66329
 H372 H 0.11925 0.77031 0.62416
 C373 C 0.93612 0.75337 0.38811
 C374 C 0.93178 0.72464 0.38738
 C375 C 0.94805 0.70839 0.36955
 C376 C 0.96883 0.72051 0.35260
 C377 C 0.97265 0.74925 0.35392
 N378 N 0.95653 0.76473 0.37152
 C379 C 0.91958 0.77140 0.40703
 N380 N 0.93108 0.79561 0.41611
 C381 C 0.91735 0.81273 0.43416
 C382 C 0.89038 0.80573 0.44421
 C383 C 0.87790 0.78121 0.43454
 C384 C 0.89231 0.76412 0.41595
 H385 H 0.94479 0.68623 0.36935
 H386 H 0.98844 0.75931 0.34104
 H387 H 0.92767 0.83155 0.44090
 H388 H 0.85700 0.77513 0.44142
 H389 H 0.91650 0.71460 0.40085
 H390 H 0.88196 0.74558 0.40854
 C391 C 0.93967 0.24045 0.61469
 C392 C 0.95961 0.22988 0.63381
 C393 C 0.97450 0.24799 0.65118
 C394 C 0.96965 0.27652 0.64948
 C395 C 0.94877 0.28613 0.63103
 N396 N 0.93464 0.26815 0.61425
 C397 C 0.92392 0.22265 0.59481
 N398 N 0.89960 0.23251 0.58331
 C399 C 0.88435 0.21802 0.56415
 C400 C 0.89357 0.19194 0.55518
 C401 C 0.91867 0.18138 0.56663
 C402 C 0.93390 0.19663 0.58637
 H403 H 0.99008 0.23985 0.66565
 H404 H 0.94430 0.30801 0.62937
 H405 H 0.86517 0.22702 0.55585
 H406 H 0.92667 0.16143 0.56019
 H407 H 0.96365 0.20796 0.63557
 H408 H 0.95356 0.18830 0.59423
 C409 C 0.37747 0.06053 0.23873
 C410 C 0.35925 0.04021 0.22782
 C411 C 0.34231 0.02480 0.24605
 C412 C 0.34346 0.02956 0.27505
 C413 C 0.36068 0.05101 0.28496
 N414 N 0.37719 0.06556 0.26686
 C415 C 0.39751 0.07630 0.22088
 N416 N 0.40869 0.10024 0.23102
 C417 C 0.42821 0.11525 0.21662
 C418 C 0.43796 0.10618 0.19039
 C419 C 0.42675 0.08157 0.17950
 C420 C 0.40664 0.06658 0.19462
 H421 H 0.32878 0.00875 0.23767
 H422 H 0.36184 0.05543 0.30720
 H423 H 0.43630 0.13407 0.22587
 H424 H 0.43378 0.07367 0.15944
 H425 H 0.35798 0.03609 0.20556
 H426 H 0.39914 0.04725 0.18605
 C427 C 0.61284 0.05838 0.75989
 C428 C 0.60309 0.03640 0.74336
 C429 C 0.62214 0.02187 0.72667
 C430 C 0.65098 0.02858 0.72720
 C431 C 0.65977 0.05085 0.74394
 N432 N 0.64072 0.06514 0.75949
 C433 C 0.59331 0.07476 0.77715
 N434 N 0.59594 0.10277 0.77762
 C435 C 0.57830 0.11902 0.79287
 C436 C 0.55696 0.10704 0.80929
 C437 C 0.55430 0.07817 0.80957
 C438 C 0.57225 0.06197 0.79328
 H439 H 0.61432 0.00556 0.71323
 H440 H 0.68179 0.05685 0.74467
 H441 H 0.58108 0.14122 0.79232
 H442 H 0.53800 0.06820 0.82193
 H443 H 0.58089 0.03102 0.74280
 H444 H 0.56994 0.03970 0.79354
 C445 C 0.37930 0.93989 0.76133
 C446 C 0.35092 0.94305 0.76918
 C447 C 0.33303 0.95922 0.75260
 C448 C 0.34367 0.97278 0.72883
 C449 C 0.37207 0.96896 0.72159
 N450 N 0.38893 0.95265 0.73769
 C451 C 0.39893 0.92282 0.77796
 N452 N 0.41803 0.90665 0.76440
 C453 C 0.43719 0.89094 0.77847
 C454 C 0.43838 0.89163 0.80789
 C455 C 0.41908 0.90838 0.82228
 C456 C 0.39910 0.92376 0.80740
 H457 H 0.31109 0.96158 0.75851
 H458 H 0.38075 0.97885 0.70310
 H459 H 0.45193 0.87848 0.76664
 H460 H 0.41941 0.90948 0.84499
 H461 H 0.34259 0.93277 0.78763
 H462 H 0.38446 0.93680 0.81871
 C463 C 0.62010 0.93783 0.23478
 C464 C 0.64897 0.93166 0.23629
 C465 C 0.66647 0.94751 0.25348
 C466 C 0.65519 0.96924 0.26936
 C467 C 0.62610 0.97449 0.26745
 N468 N 0.60955 0.95907 0.25019
 C469 C 0.60078 0.92140 0.21728
 N470 N 0.58020 0.93441 0.20232
 C471 C 0.56097 0.92022 0.18677
 C472 C 0.56127 0.89125 0.18659
 C473 C 0.58224 0.87744 0.20192
 C474 C 0.60227 0.89246 0.21701
 H475 H 0.68882 0.94286 0.25435
 H476 H 0.61647 0.99064 0.27983
 H477 H 0.54487 0.93153 0.17542
 H478 H 0.58301 0.85507 0.20233
 H479 H 0.65792 0.91499 0.22408
 H480 H 0.61812 0.88157 0.22913
 C481 C 0.39080 0.24951 0.93798
 C482 C 0.39951 0.26225 0.96285
 C483 C 0.38081 0.27919 0.97730
 C484 C 0.35287 0.28285 0.96778
 C485 C 0.34561 0.27073 0.94181
 N486 N 0.36441 0.25452 0.92789
 C487 C 0.40993 0.23090 0.92262
 N488 N 0.41127 0.23225 0.89410
 C489 C 0.42915 0.21607 0.87902
 C490 C 0.44666 0.19687 0.89270
 C491 C 0.44501 0.19467 0.92201
 C492 C 0.42687 0.21179 0.93704
 H493 H 0.38858 0.28984 0.99570
 H494 H 0.32459 0.27295 0.93319
 H495 H 0.42965 0.21817 0.85640
 H496 H 0.45818 0.18013 0.93333
 H497 H 0.42077 0.25953 0.97079
 H498 H 0.42591 0.20998 0.95969
 C499 C 0.61923 0.76170 0.93316
 C500 C 0.63514 0.77170 0.95588
 C501 C 0.65247 0.75370 0.97090
 C502 C 0.65426 0.72562 0.96351
 C503 C 0.63975 0.71704 0.93922
 N504 N 0.62254 0.73487 0.92525
 C505 C 0.59840 0.77906 0.91790
 N506 N 0.58825 0.77007 0.89275
 C507 C 0.56817 0.78408 0.87807
 C508 C 0.55687 0.80872 0.88873
 C509 C 0.56699 0.81839 0.91459
 C510 C 0.58754 0.80365 0.92927
 H511 H 0.66460 0.76184 0.98831
 H512 H 0.64047 0.69575 0.93236
 H513 H 0.56098 0.77584 0.85821
 H514 H 0.55870 0.83716 0.92376
 H515 H 0.63444 0.79311 0.96221
 H516 H 0.59405 0.81126 0.94957
 C517 C 0.38055 0.75715 0.06766
 C518 C 0.37773 0.72887 0.07353
 C519 C 0.36000 0.71265 0.05709
 C520 C 0.34515 0.72418 0.03426
 C521 C 0.34858 0.75271 0.02920
 N522 N 0.36600 0.76813 0.04565
 C523 C 0.39989 0.77499 0.08405
 N524 N 0.41077 0.79814 0.07183
 C525 C 0.42977 0.81469 0.08514
 C526 C 0.43912 0.80804 0.11232
 C527 C 0.42747 0.78480 0.12562
 C528 C 0.40777 0.76839 0.11171
 H529 H 0.35902 0.69071 0.06155
 H530 H 0.33695 0.76295 0.01263
 H531 H 0.43806 0.83256 0.07419
 H532 H 0.43373 0.77914 0.14674
 H533 H 0.38970 0.71897 0.09006
 H534 H 0.39891 0.75080 0.12265
 C535 C 0.61755 0.23518 0.06173
 C536 C 0.63888 0.22294 0.04548
 C537 C 0.65827 0.23966 0.03138
 C538 C 0.65640 0.26850 0.03319
 C539 C 0.63525 0.27994 0.05015
 N540 N 0.61663 0.26324 0.06381
 C541 C 0.59635 0.21844 0.07706
 N542 N 0.58412 0.22910 0.10052
 C543 C 0.56432 0.21505 0.11554
 C544 C 0.55545 0.18868 0.10694
 C545 C 0.56755 0.17744 0.08264
 C546 C 0.58795 0.19219 0.06768
 H547 H 0.67493 0.23008 0.01929
 H548 H 0.63335 0.30213 0.05226
 H549 H 0.55539 0.22461 0.13403
 H550 H 0.56121 0.15726 0.07511
 H551 H 0.64101 0.20073 0.04407
 H552 H 0.59651 0.18329 0.04870
 C553 C 0.24569 0.06975 0.61498
 C554 C 0.27470 0.07470 0.61824
 C555 C 0.29038 0.05841 0.63664
 C556 C 0.27759 0.03664 0.65167
 C557 C 0.24842 0.03237 0.64764
 N558 N 0.23354 0.04870 0.62968
 C559 C 0.22811 0.08616 0.59531
 N560 N 0.20341 0.07517 0.58578
 C561 C 0.18658 0.08858 0.56705
 C562 C 0.19445 0.11463 0.55658
 C563 C 0.21943 0.12665 0.56665
 C564 C 0.23617 0.11264 0.58609
 H565 H 0.31287 0.06222 0.63814
 H566 H 0.23720 0.01662 0.65934
 H567 H 0.16739 0.07861 0.55997
 H568 H 0.22611 0.14687 0.55944
 H569 H 0.28559 0.09043 0.60627
 H570 H 0.25502 0.12270 0.59380
 C571 C 0.75482 0.05950 0.38782
 C572 C 0.74208 0.03456 0.39569
 C573 C 0.72588 0.02007 0.37623
 C574 C 0.72294 0.02975 0.34843
 C575 C 0.73523 0.05559 0.34194
 N576 N 0.75066 0.06949 0.36145
 C577 C 0.77248 0.07521 0.40770
 N578 N 0.77109 0.10330 0.40790
 C579 C 0.78675 0.11885 0.42588
 C580 C 0.80554 0.10611 0.44468
 C581 C 0.80771 0.07721 0.44438
 C582 C 0.79107 0.06169 0.42610
 H583 H 0.71504 0.00167 0.38334
 H584 H 0.73380 0.06425 0.32103
 H585 H 0.78468 0.14112 0.42533
 H586 H 0.82197 0.06662 0.45856
 H587 H 0.74410 0.02662 0.41687
 H588 H 0.79301 0.03940 0.42607
 C589 C 0.76360 0.94173 0.61716
 C590 C 0.76354 0.93521 0.64585
 C591 C 0.74679 0.95051 0.66415
 C592 C 0.72988 0.97209 0.65393
 C593 C 0.73054 0.97790 0.62501
 N594 N 0.74735 0.96294 0.60760
 C595 C 0.78020 0.92533 0.59707
 N596 N 0.79499 0.93830 0.57635
 C597 C 0.81018 0.92401 0.55696
 C598 C 0.81024 0.89502 0.55736
 C599 C 0.79490 0.88132 0.57836
 C600 C 0.78013 0.89639 0.59844
 H601 H 0.74691 0.94542 0.68631
 H602 H 0.71734 0.99394 0.61616
 H603 H 0.82159 0.93524 0.54088
 H604 H 0.79445 0.85895 0.57930
 H605 H 0.77642 0.91855 0.65401
 H606 H 0.76819 0.88555 0.61443
 C607 C 0.24424 0.92891 0.38520
 C608 C 0.27298 0.92313 0.38118
 C609 C 0.28896 0.93964 0.36322
 C610 C 0.27677 0.96246 0.34941
 C611 C 0.24776 0.96729 0.35381
 N612 N 0.23259 0.95078 0.37141
 C613 C 0.22660 0.91262 0.40498
 N614 N 0.20287 0.92431 0.41589
 C615 C 0.18637 0.91111 0.43510
 C616 C 0.19363 0.88458 0.44468
 C617 C 0.21751 0.87185 0.43312
 C618 C 0.23387 0.88563 0.41319
 H619 H 0.31130 0.93527 0.36135
 H620 H 0.23696 0.98380 0.34289
 H621 H 0.16800 0.92162 0.44331
 H622 H 0.22366 0.85123 0.43955
 H623 H 0.28351 0.90666 0.39241
 H624 H 0.25188 0.87505 0.40439
 C625 C 0.06462 0.38903 0.75185
 C626 C 0.06746 0.38880 0.72250
 C627 C 0.05121 0.37068 0.70659
 C628 C 0.03191 0.35290 0.71968
 C629 C 0.02922 0.35402 0.74901
 N630 N 0.04538 0.37190 0.76418
 C631 C 0.08194 0.40776 0.76940
 N632 N 0.07141 0.41751 0.79407
 C633 C 0.08602 0.43562 0.81046
 C634 C 0.11286 0.44500 0.80216
 C635 C 0.12436 0.43449 0.77725
 C636 C 0.10911 0.41588 0.76095
 H637 H 0.05354 0.37065 0.68396
 H638 H 0.01451 0.34055 0.75979
 H639 H 0.07646 0.44302 0.82965
 H640 H 0.14512 0.44081 0.77015
 H641 H 0.08176 0.40271 0.71178
 H642 H 0.11866 0.40790 0.74201
 C643 C 0.06704 0.61419 0.24789
 C644 C 0.07613 0.64133 0.25254
 C645 C 0.05970 0.65895 0.26890
 C646 C 0.03407 0.64975 0.28080
 C647 C 0.02641 0.62193 0.27618
 N648 N 0.04261 0.60531 0.25984
 C649 C 0.08343 0.59497 0.23033
 N650 N 0.06953 0.57714 0.21309
 C651 C 0.08341 0.55854 0.19680
 C652 C 0.11295 0.55668 0.19797
 C653 C 0.12766 0.57471 0.21578
 C654 C 0.11301 0.59408 0.23177
 H655 H 0.06665 0.68015 0.27128
 H656 H 0.00816 0.61293 0.28628
 H657 H 0.07133 0.54476 0.18353
 H658 H 0.15046 0.57383 0.21731
 H659 H 0.09536 0.64908 0.24306
 H660 H 0.12460 0.60767 0.24566
 C661 C 0.93517 0.38135 0.23669
 C662 C 0.95619 0.36567 0.22335
 C663 C 0.97144 0.34613 0.23882
 C664 C 0.96604 0.34252 0.26756
 C665 C 0.94463 0.35830 0.27995
 N666 N 0.93003 0.37704 0.26448
 C667 C 0.91877 0.40268 0.22134
 N668 N 0.92660 0.41070 0.19501
 C669 C 0.91249 0.43063 0.18047
 C670 C 0.88894 0.44374 0.19241
 C671 C 0.88046 0.43563 0.21942
 C672 C 0.89530 0.41526 0.23392
 H673 H 0.98758 0.33403 0.22848
 H674 H 0.93986 0.35610 0.30207
 H675 H 0.91969 0.43618 0.15965
 H676 H 0.86244 0.44514 0.22948
 H677 H 0.96077 0.36844 0.20125
 H678 H 0.88839 0.40943 0.25477
 C679 C 0.93055 0.61325 0.75350
 C680 C 0.92465 0.61910 0.72522
 C681 C 0.94109 0.63835 0.71076
 C682 C 0.96400 0.65161 0.72398
 C683 C 0.96930 0.64483 0.75230
 N684 N 0.95274 0.62621 0.76602
 C685 C 0.91366 0.59318 0.77012
 N686 N 0.92494 0.58245 0.79410
 C687 C 0.91092 0.56380 0.81037
 C688 C 0.88380 0.55475 0.80274
 C689 C 0.87155 0.56592 0.77841
 C690 C 0.88624 0.58517 0.76219
 H691 H 0.93637 0.64209 0.68883
 H692 H 0.98561 0.65526 0.76410
 H693 H 0.92115 0.55581 0.82902
 H694 H 0.85054 0.55979 0.77187
 H695 H 0.90793 0.60869 0.71396
 H696 H 0.87590 0.59377 0.74393
 C697 C 0.75242 0.60837 0.93775
 C698 C 0.73565 0.59954 0.96030
 C699 C 0.71904 0.61869 0.97458
 C700 C 0.71986 0.64675 0.96706
 C701 C 0.73669 0.65461 0.94410
 N702 N 0.75220 0.63547 0.93009
 C703 C 0.76983 0.58871 0.92182
 N704 N 0.77013 0.59008 0.89328
 C705 C 0.78545 0.57221 0.87744
 C706 C 0.80216 0.55193 0.89038
 C707 C 0.80268 0.55060 0.91979
 C708 C 0.78628 0.56875 0.93558
 H709 H 0.70555 0.61158 0.99146
 H710 H 0.73774 0.67600 0.93749
 H711 H 0.78470 0.57396 0.85478
 H712 H 0.81527 0.53515 0.93049
 H713 H 0.73496 0.57798 0.96641
 H714 H 0.78667 0.56745 0.95829
 C715 C 0.24786 0.39213 0.93639
 C716 C 0.26108 0.40097 0.96107
 C717 C 0.27789 0.38260 0.97617
 C718 C 0.28090 0.35493 0.96749
 C719 C 0.26808 0.34742 0.94183
 N720 N 0.25211 0.36588 0.92724
 C721 C 0.22977 0.41101 0.92004
 N722 N 0.23144 0.41115 0.89151
 C723 C 0.21580 0.42868 0.87545
 C724 C 0.19682 0.44710 0.88811
 C725 C 0.19424 0.44673 0.91743
 C726 C 0.21084 0.42890 0.93347
 H727 H 0.28918 0.39051 0.99418
 H728 H 0.26967 0.32655 0.93387
 H729 H 0.21819 0.42822 0.85286
 H730 H 0.17988 0.46066 0.92798
 H731 H 0.25900 0.42208 0.96825
 H732 H 0.20877 0.42895 0.95611
 C733 C 0.24714 0.61098 0.06434
 C734 C 0.27592 0.61549 0.06961
 C735 C 0.29081 0.63446 0.05336
 C736 C 0.27753 0.64881 0.03125
 C737 C 0.24884 0.64292 0.02611
 N738 N 0.23462 0.62459 0.04260
 C739 C 0.23007 0.59183 0.08178
 N740 N 0.20581 0.58101 0.07100
 C741 C 0.18926 0.56314 0.08576
 C742 C 0.19690 0.55510 0.11308
 C743 C 0.22146 0.56648 0.12479
 C744 C 0.23794 0.58491 0.10937
 H745 H 0.31307 0.63736 0.05774
 H746 H 0.23715 0.65400 0.01020
 H747 H 0.17040 0.55495 0.07597
 H748 H 0.22799 0.56116 0.14592
 H749 H 0.28713 0.60435 0.08584
 H750 H 0.25638 0.59377 0.11927
 C751 C 0.75451 0.38414 0.06779
 C752 C 0.72607 0.37816 0.07353
 C753 C 0.71193 0.35832 0.05766
 C754 C 0.72564 0.34458 0.03549
 C755 C 0.75419 0.35129 0.03053
 N756 N 0.76757 0.37054 0.04648
 C757 C 0.77068 0.40507 0.08388
 N758 N 0.79445 0.41613 0.07228
 C759 C 0.81036 0.43549 0.08566
 C760 C 0.80260 0.44485 0.11243
 C761 C 0.77842 0.43344 0.12495
 C762 C 0.76254 0.41353 0.11089
 H763 H 0.68980 0.35468 0.06207
 H764 H 0.76633 0.34048 0.01483
 H765 H 0.82893 0.44361 0.07528
 H766 H 0.77180 0.43979 0.14572
 H767 H 0.71445 0.38902 0.08959
 H768 H 0.74443 0.40470 0.12143
 C769 C 0.93563 0.76547 0.62310
 C770 C 0.95712 0.77605 0.64034
 C771 C 0.97163 0.75836 0.65845
 C772 C 0.96502 0.72999 0.65955
 C773 C 0.94218 0.72070 0.64309
 N774 N 0.92859 0.73829 0.62540
 C775 C 0.92047 0.78269 0.60221
 N776 N 0.89528 0.77350 0.59203
 C777 C 0.88059 0.78738 0.57194
 C778 C 0.89135 0.81202 0.56055
 C779 C 0.91728 0.82190 0.57069
 C780 C 0.93192 0.80733 0.59140
 H781 H 0.98778 0.76704 0.67190
 H782 H 0.93606 0.69914 0.64296
 H783 H 0.86070 0.77896 0.56472
 H784 H 0.92648 0.84071 0.56237
 H785 H 0.96264 0.79773 0.64021
 H786 H 0.95227 0.81502 0.59810
 C787 C 0.93542 0.23124 0.37359
 C788 C 0.95583 0.22008 0.35544
 C789 C 0.97032 0.23752 0.33700
 C790 C 0.96459 0.26595 0.33668
 C791 C 0.94320 0.27604 0.35414
 N792 N 0.92949 0.25873 0.37200
 C793 C 0.92026 0.21443 0.39478
 N794 N 0.89587 0.22461 0.40570
 C795 C 0.88127 0.21138 0.42625
 C796 C 0.89129 0.18638 0.43743
 C797 C 0.91638 0.17539 0.42650
 C798 C 0.93095 0.18933 0.40524
 H799 H 0.98639 0.22898 0.32338
 H800 H 0.93812 0.29785 0.35434
 H801 H 0.86202 0.22066 0.43402
 H802 H 0.92495 0.15624 0.43462
 H803 H 0.96063 0.19825 0.35533
 H804 H 0.95068 0.18084 0.39784
 C805 C 0.06625 0.24910 0.61072
 C806 C 0.07600 0.25431 0.63794
 C807 C 0.05960 0.27010 0.65615
 C808 C 0.03336 0.28094 0.64743
 C809 C 0.02503 0.27582 0.61947
 N810 N 0.04120 0.25999 0.60231
 C811 C 0.08232 0.23163 0.59112
 N812 N 0.06812 0.21374 0.57420
 C813 C 0.08163 0.19703 0.55567
 C814 C 0.11111 0.19827 0.55298
 C815 C 0.12613 0.21687 0.56990
 C816 C 0.11184 0.23338 0.58922
 H817 H 0.06708 0.27278 0.67746
 H818 H 0.00621 0.28508 0.61076
 H819 H 0.06930 0.18316 0.54274
 H820 H 0.14890 0.21845 0.56835
 H821 H 0.09570 0.24558 0.64535
 H822 H 0.12365 0.24773 0.60211
 C823 C 0.06246 0.75145 0.39427
 C824 C 0.03989 0.73500 0.40343
 C825 C 0.02526 0.71881 0.38411
 C826 C 0.03237 0.71973 0.35551
 C827 C 0.05555 0.73603 0.34734
 N828 N 0.06990 0.75122 0.36667
 C829 C 0.07809 0.76905 0.41411
 N830 N 0.10684 0.76933 0.41368
 C831 C 0.12222 0.78502 0.43180
 C832 C 0.10855 0.80215 0.45125
 C833 C 0.07895 0.80252 0.45164
 C834 C 0.06366 0.78576 0.43334
 H835 H 0.00832 0.70563 0.39150
 H836 H 0.06196 0.73698 0.32555
 H837 H 0.14505 0.78441 0.43077
 H838 H 0.06769 0.81544 0.46640
 H839 H 0.03393 0.73439 0.42537
 H840 H 0.04079 0.78612 0.43389
 C841 C 0.61618 0.93350 0.75551
 C842 C 0.61834 0.93036 0.72627
 C843 C 0.63733 0.94665 0.71124
 C844 C 0.65404 0.96625 0.72511
 C845 C 0.65149 0.96870 0.75434
 N846 N 0.63271 0.95263 0.76860
 C847 C 0.59562 0.91731 0.77225
 N848 N 0.58575 0.92794 0.79680
 C849 C 0.56624 0.91456 0.81282
 C850 C 0.55545 0.88886 0.80430
 C851 C 0.56580 0.87728 0.77937
 C852 C 0.58588 0.89132 0.76340
 H853 H 0.63851 0.94446 0.68864
 H854 H 0.66417 0.98355 0.76573
 H855 H 0.55904 0.92414 0.83203
 H856 H 0.55837 0.85735 0.77215
 H857 H 0.60500 0.91612 0.71486
 H858 H 0.59381 0.88165 0.74454
 C859 C 0.39038 0.93928 0.24608
 C860 C 0.39798 0.96466 0.25796
 C861 C 0.37870 0.97864 0.27484
 C862 C 0.35134 0.96798 0.27932
 C863 C 0.34508 0.94195 0.26749
 N864 N 0.36442 0.92854 0.25148
 C865 C 0.41010 0.92376 0.22817
 N866 N 0.41115 0.89572 0.23032
 C867 C 0.42889 0.88025 0.21437
 C868 C 0.44644 0.89298 0.19444
 C869 C 0.44528 0.92181 0.19152
 C870 C 0.42732 0.93729 0.20851
 H871 H 0.38570 0.99736 0.28507
 H872 H 0.32443 0.93264 0.26991
 H873 H 0.42906 0.85803 0.21707
 H874 H 0.45855 0.93238 0.17640
 H875 H 0.41887 0.97325 0.25484
 H876 H 0.42658 0.95952 0.20600
 C877 C 0.61869 0.06030 0.23460
 C878 C 0.63831 0.04191 0.22279
 C879 C 0.65687 0.02753 0.24031
 C880 C 0.65583 0.03133 0.26947
 C881 C 0.63667 0.05057 0.28032
 N882 N 0.61880 0.06429 0.26289
 C883 C 0.59777 0.07562 0.21749
 N884 N 0.58613 0.09893 0.22842
 C885 C 0.56605 0.11374 0.21470
 C886 C 0.55617 0.10510 0.18834
 C887 C 0.56775 0.08106 0.17665
 C888 C 0.58851 0.06626 0.19112
 H889 H 0.67181 0.01319 0.23120
 H890 H 0.63536 0.05412 0.30271
 H891 H 0.55768 0.13210 0.22458
 H892 H 0.56064 0.07357 0.15643
 H893 H 0.63958 0.03874 0.20036
 H894 H 0.59654 0.04742 0.18198
 C895 C 0.38742 0.06682 0.75543
 C896 C 0.38503 0.07137 0.72644
 C897 C 0.36648 0.05535 0.71068
 C898 C 0.35044 0.03420 0.72336
 C899 C 0.35411 0.02990 0.75241
 N900 N 0.37212 0.04609 0.76741
 C901 C 0.40635 0.08375 0.77326
 N902 N 0.41571 0.07320 0.79811
 C903 C 0.43363 0.08733 0.81521
 C904 C 0.44334 0.11371 0.80750
 C905 C 0.43333 0.12528 0.78238
 C906 C 0.41477 0.11052 0.76535
 H907 H 0.36530 0.05910 0.68828
 H908 H 0.34155 0.01486 0.76364
 H909 H 0.44073 0.07767 0.83448
 H910 H 0.43997 0.14570 0.77575
 H911 H 0.39757 0.08683 0.71574
 H912 H 0.40706 0.12022 0.74637
 C913 C 0.61037 0.75710 0.05607
 C914 C 0.60061 0.74127 0.03344
 C915 C 0.61948 0.72450 0.01888
 C916 C 0.64821 0.72423 0.02618
 C917 C 0.65698 0.74003 0.04931
 N918 N 0.63807 0.75576 0.06359
 C919 C 0.59100 0.77477 0.07218
 N920 N 0.59274 0.77508 0.10070
 C921 C 0.57505 0.79055 0.11671
 C922 C 0.55457 0.80735 0.10396
 C923 C 0.55290 0.80785 0.07457
 C924 C 0.57089 0.79135 0.05861
 H925 H 0.61171 0.71191 0.00176
 H926 H 0.67889 0.74011 0.05579
 H927 H 0.57709 0.78985 0.13934
 H928 H 0.53732 0.82052 0.06400
 H929 H 0.57855 0.74148 0.02744
 H930 H 0.56932 0.79175 0.03593
 C931 C 0.38202 0.24298 0.06322
 C932 C 0.36502 0.23220 0.04168
 C933 C 0.34824 0.25005 0.02571
 C934 C 0.34884 0.27859 0.03085
 C935 C 0.36569 0.28842 0.05289
 N936 N 0.38165 0.27067 0.06821
 C937 C 0.40093 0.22507 0.08004
 N938 N 0.40722 0.19905 0.07116
 C939 C 0.42563 0.18245 0.08521
 C940 C 0.43900 0.19191 0.10972
 C941 C 0.43240 0.21846 0.11946
 C942 C 0.41351 0.23506 0.10469
 H943 H 0.33516 0.24171 0.00910
 H944 H 0.36667 0.31029 0.05751
 H945 H 0.43002 0.16205 0.07705
 H946 H 0.44217 0.22663 0.13825
 H947 H 0.36471 0.21027 0.03721
 H948 H 0.40898 0.25560 0.11243
 C949 C 0.62480 0.23424 0.94014
 C950 C 0.65224 0.22453 0.94551
 C951 C 0.67097 0.24094 0.96090
 C952 C 0.66206 0.26650 0.97136
 C953 C 0.63462 0.27550 0.96543
 N954 N 0.61696 0.25946 0.94998
 C955 C 0.60425 0.21811 0.92364
 N956 N 0.58614 0.23179 0.90633
 C957 C 0.56607 0.21847 0.89109
 C958 C 0.56287 0.18973 0.89340
 C959 C 0.58110 0.17520 0.91135
 C960 C 0.60203 0.18929 0.92631
 H961 H 0.69217 0.23360 0.96505
 H962 H 0.62728 0.29527 0.97309
 H963 H 0.55225 0.23044 0.87766
 H964 H 0.57924 0.15301 0.91371
 H965 H 0.65923 0.20477 0.93754
 H966 H 0.61577 0.17791 0.94034
 C967 C 0.38294 0.75965 0.94018
 C968 C 0.39317 0.74177 0.96097
 C969 C 0.37430 0.72528 0.97594
 C970 C 0.34513 0.72733 0.97102
 C971 C 0.33582 0.74506 0.94952
 N972 N 0.35472 0.76052 0.93473
 C973 C 0.40247 0.77726 0.92406
 N974 N 0.40070 0.77801 0.89555
 C975 C 0.41901 0.79308 0.87967
 C976 C 0.44022 0.80890 0.89256
 C977 C 0.44187 0.80897 0.92195
 C978 C 0.42324 0.79292 0.93776
 H979 H 0.38246 0.71110 0.99158
 H980 H 0.31355 0.74688 0.94479
 H981 H 0.41699 0.79274 0.85703
 H982 H 0.45801 0.82087 0.93262
 H983 H 0.41558 0.74028 0.96527
 H984 H 0.42492 0.79280 0.96044
 C985 C 0.76333 0.93751 0.37890
 C986 C 0.77481 0.95754 0.36071
 C987 C 0.75693 0.97266 0.34317
 C988 C 0.72775 0.96786 0.34366
 C989 C 0.71726 0.94684 0.36107
 N990 N 0.73502 0.93255 0.37815
 C991 C 0.78079 0.92184 0.39926
 N992 N 0.77010 0.89814 0.41055
 C993 C 0.78414 0.88321 0.43032
 C994 C 0.81054 0.89213 0.44018
 C995 C 0.82201 0.91647 0.42884
 C996 C 0.80724 0.93140 0.40851
 H997 H 0.76576 0.98836 0.32949
 H998 H 0.69485 0.94242 0.36174
 H999 H 0.77446 0.86459 0.43851
 H1000 H 0.84222 0.92426 0.43598
 H1001 H 0.79724 0.96158 0.35982
 H1002 H 0.81623 0.95054 0.40093
 C1003 C 0.24102 0.94285 0.61608
 C1004 C 0.25966 0.96296 0.60581
 C1005 C 0.27585 0.97830 0.62461
 C1006 C 0.27271 0.97443 0.65368
 C1007 C 0.25411 0.95372 0.66304
 N1008 N 0.23902 0.93853 0.64426
 C1009 C 0.22384 0.92619 0.59669
 N1010 N 0.22312 0.89821 0.59960
 C1011 C 0.20824 0.88183 0.58170
 C1012 C 0.19249 0.89366 0.55980
 C1013 C 0.19244 0.92249 0.55688
 C1014 C 0.20839 0.93881 0.57507
 H1015 H 0.29073 0.99331 0.61644
 H1016 H 0.25137 0.94983 0.68526
 H1017 H 0.20854 0.85965 0.58470
 H1018 H 0.18058 0.93232 0.54017
 H1019 H 0.26203 0.96638 0.58345
 H1020 H 0.20848 0.96105 0.57248
 C1021 C 0.23980 0.05516 0.38823
 C1022 C 0.25737 0.03426 0.39876
 C1023 C 0.27448 0.01946 0.38033
 C1024 C 0.27332 0.02476 0.35135
 C1025 C 0.25562 0.04606 0.34177
 N1026 N 0.23967 0.06068 0.36021
 C1027 C 0.22215 0.07186 0.40711
 N1028 N 0.22128 0.09977 0.40361
 C1029 C 0.20600 0.11637 0.42084
 C1030 C 0.18998 0.10487 0.44272
 C1031 C 0.18996 0.07609 0.44620
 C1032 C 0.20630 0.05953 0.42863
 H1033 H 0.28853 0.00382 0.38865
 H1034 H 0.25437 0.05097 0.31962
 H1035 H 0.20634 0.13849 0.41744
 H1036 H 0.17794 0.06652 0.46296
 H1037 H 0.25833 0.02990 0.42105
 H1038 H 0.20641 0.03734 0.43165
 C1039 C 0.75752 0.06786 0.61917
 C1040 C 0.72797 0.07031 0.61986
 C1041 C 0.71238 0.05368 0.63802
 C1042 C 0.72601 0.03447 0.65537
 C1043 C 0.75555 0.03268 0.65426
 N1044 N 0.77037 0.04905 0.63625
 C1045 C 0.77480 0.08427 0.59937
 N1046 N 0.79978 0.07377 0.59014
 C1047 C 0.81607 0.08713 0.57090
 C1048 C 0.80732 0.11257 0.55965
 C1049 C 0.78208 0.12413 0.56952
 C1050 C 0.76586 0.11016 0.58940
 H1051 H 0.68957 0.05537 0.63810
 H1052 H 0.76676 0.01817 0.66751
 H1053 H 0.83554 0.07759 0.56407
 H1054 H 0.77469 0.14388 0.56171
 H1055 H 0.71682 0.08428 0.60601
 H1056 H 0.74663 0.11967 0.59686
 C1057 C 0.93775 0.61486 0.24441
 C1058 C 0.93309 0.61501 0.27350
 C1059 C 0.94916 0.63221 0.29060
 C1060 C 0.96986 0.64944 0.27889
 C1061 C 0.97350 0.64928 0.24962
 N1062 N 0.95774 0.63203 0.23334
 C1063 C 0.92131 0.59604 0.22609
 N1064 N 0.89793 0.58329 0.23657
 C1065 C 0.88235 0.56516 0.22136
 C1066 C 0.89020 0.55850 0.19379
 C1067 C 0.91411 0.57152 0.18236
 C1068 C 0.92963 0.59042 0.19839
 H1069 H 0.94577 0.63177 0.31308
 H1070 H 0.98906 0.66257 0.23984
 H1071 H 0.86410 0.55564 0.23108
 H1072 H 0.92089 0.56701 0.16116
 H1073 H 0.91747 0.60162 0.28310
 H1074 H 0.94817 0.60010 0.18940
 C1075 C 0.93407 0.38574 0.75244
 C1076 C 0.92840 0.35732 0.75187
 C1077 C 0.94550 0.34000 0.73588
 C1078 C 0.96797 0.35095 0.72016
 C1079 C 0.97259 0.37962 0.72098
 N1080 N 0.95600 0.39603 0.73718
 C1081 C 0.91694 0.40466 0.76956
 N1082 N 0.93004 0.42478 0.78464
 C1083 C 0.91542 0.44289 0.80082
 C1084 C 0.88583 0.44175 0.80182
 C1085 C 0.87186 0.42146 0.78608
 C1086 C 0.88738 0.40263 0.77018
 H1087 H 0.94126 0.31800 0.73585
 H1088 H 0.98918 0.38902 0.70860
 H1089 H 0.92689 0.45850 0.81244
 H1090 H 0.84903 0.42002 0.78631
 H1091 H 0.91128 0.34857 0.76407
 H1092 H 0.87641 0.38704 0.75807
 C1093 C 0.06174 0.61578 0.75518
 C1094 C 0.04661 0.60783 0.73116
 C1095 C 0.02922 0.62698 0.71770
 C1096 C 0.02726 0.65402 0.72795
 C1097 C 0.04293 0.66127 0.75180
 N1098 N 0.05929 0.64210 0.76492
 C1099 C 0.07971 0.59597 0.77045
 N1100 N 0.07931 0.59578 0.79902
 C1101 C 0.09490 0.57760 0.81432
 C1102 C 0.11256 0.55854 0.80082
 C1103 C 0.11386 0.55887 0.77142
 C1104 C 0.09723 0.57738 0.75614
 H1105 H 0.01750 0.62086 0.69919
 H1106 H 0.04187 0.68203 0.76012
 H1107 H 0.09354 0.57809 0.83700
 H1108 H 0.12720 0.54443 0.76027
 H1109 H 0.04785 0.58693 0.72319
 H1110 H 0.09824 0.57734 0.73342
 C1111 C 0.06322 0.38193 0.24162
 C1112 C 0.07031 0.35383 0.24104
 C1113 C 0.05351 0.33484 0.25542
 C1114 C 0.02990 0.34382 0.27065
 C1115 C 0.02392 0.37224 0.27115
 N1116 N 0.04026 0.39031 0.25648
 C1117 C 0.08007 0.40251 0.22621
 N1118 N 0.06667 0.42250 0.21113
 C1119 C 0.08112 0.44197 0.19634
 C1120 C 0.11073 0.44235 0.19684
 C1121 C 0.12493 0.42223 0.21265
 C1122 C 0.10967 0.40206 0.22710
 H1123 H 0.05884 0.31310 0.25457
 H1124 H 0.00637 0.38009 0.28326
 H1125 H 0.06948 0.45738 0.18458
 H1126 H 0.14779 0.42193 0.21352
 H1127 H 0.08833 0.34661 0.22915
 H1128 H 0.12081 0.38657 0.23924
   
