data_POSCAR
  _audit_creation_date              2014-09-24
  _audit_creation_method            'ToBaCCo'
  _symmetry_space_group_name_H-M    'P1'
  _symmetry_Int_Tables_number       1
  _symmetry_cell_setting            triclinic
  loop_
  _symmetry_equiv_pos_as_xyz
 x,y,z
_cell_length_a 47.5915
_cell_length_b 46.8507
_cell_length_c 46.8634
_cell_angle_alpha 89.528300
_cell_angle_beta 89.805300
_cell_angle_gamma 90.010700
loop_
  _atom_site_label
  _atom_site_type_symbol
  _atom_site_fract_x
  _atom_site_fract_y
  _atom_site_fract_z
N1 N 0.18649 1.24223 0.16177
 N2 N 0.16780 1.24301 0.18243
 C3 C 0.14992 1.26476 0.17752
 C4 C 0.15758 1.27830 0.15215
 C5 C 0.18101 1.26324 0.14286
 H6 H 0.13219 1.26972 0.19102
 H7 H 0.19330 1.26710 0.12380
 Cu8 Cu 0.16792 1.21440 0.21275
 Cu9 Cu 0.21634 1.21374 0.16059
 Cu10 Cu 0.21716 1.16328 0.21529
 N11 N 0.16810 1.18580 0.24308
 N12 N 0.18785 1.16626 0.24428
 C13 C 0.18306 1.14898 0.26683
 C14 C 0.15866 1.15786 0.28052
 C15 C 0.14984 1.18141 0.26469
 H16 H 0.19593 1.13070 0.27209
 H17 H 0.13145 1.19437 0.26841
 N18 N 0.24491 1.16387 0.18394
 N19 N 0.24478 1.18322 0.16330
 C20 C 0.26595 1.17760 0.14503
 C21 C 0.27994 1.15344 0.15447
 C22 C 0.26600 1.14533 0.17919
 H23 H 0.27038 1.18969 0.12579
 H24 H 0.27084 1.12717 0.19267
 H25 H 0.19471 1.18215 0.18250
 H26 H 0.21770 1.20597 0.20396
 N27 N 0.81453 0.75492 0.16928
 N28 N 0.83718 0.75926 0.18459
 C29 C 0.85566 0.73811 0.17976
 C30 C 0.84407 0.71944 0.16025
 C31 C 0.81785 0.73084 0.15415
 H32 H 0.87614 0.73665 0.18956
 H33 H 0.80267 0.72281 0.13912
 Cu34 Cu 0.84127 0.79266 0.20850
 Cu35 Cu 0.78342 0.78195 0.16858
 Cu36 Cu 0.78643 0.83717 0.21700
 N37 N 0.84008 0.82035 0.23912
 N38 N 0.81851 0.83744 0.24262
 C39 C 0.82332 0.85441 0.26510
 C40 C 0.84952 0.84777 0.27641
 C41 C 0.85943 0.82589 0.25919
 H42 H 0.80889 0.87068 0.27220
 H43 H 0.87919 0.81469 0.26095
 N44 N 0.75578 0.83311 0.18923
 N45 N 0.75425 0.81170 0.17118
 C46 C 0.73151 0.81538 0.15450
 C47 C 0.71826 0.84045 0.16224
 C48 C 0.73424 0.85109 0.18435
 H49 H 0.72573 0.80157 0.13710
 H50 H 0.73067 0.87074 0.19573
 H51 H 0.80482 0.81781 0.18188
 H52 H 0.79032 0.79365 0.21039
 N53 N 0.81102 1.24824 -0.16855
 N54 N 0.83105 1.24686 -0.18788
 C55 C 0.84960 1.26805 -0.18337
 C56 C 0.84058 1.28366 -0.16013
 C57 C 0.81596 1.27052 -0.15133
 H58 H 0.86839 1.27177 -0.19589
 H59 H 0.80321 1.27606 -0.13306
 Cu60 Cu 0.83117 1.21693 -0.21641
 Cu61 Cu 0.78132 1.21970 -0.16562
 Cu62 Cu 0.78177 1.16582 -0.21601
 N63 N 0.83085 1.18714 -0.24510
 N64 N 0.81170 1.16696 -0.24449
 C65 C 0.81684 1.14842 -0.26563
 C66 C 0.84056 1.15741 -0.28058
 C67 C 0.84874 1.18225 -0.26685
 H68 H 0.80414 1.12977 -0.26960
 H69 H 0.86677 1.19543 -0.27173
 N70 N 0.75325 1.16842 -0.18552
 N71 N 0.75318 1.18882 -0.16625
 C72 C 0.73206 1.18396 -0.14764
 C73 C 0.71806 1.15940 -0.15559
 C74 C 0.73205 1.15019 -0.17976
 H75 H 0.72736 1.19718 -0.12944
 H76 H 0.72768 1.13107 -0.19169
 H77 H 0.80350 1.18679 -0.18429
 H78 H 0.78114 1.20913 -0.20830
 N79 N 0.18946 0.75369 -0.16883
 N80 N 0.17093 0.75383 -0.18955
 C81 C 0.15171 0.73330 -0.18449
 C82 C 0.15866 0.71940 -0.15929
 C83 C 0.18282 0.73290 -0.15001
 H84 H 0.13389 0.72901 -0.19805
 H85 H 0.19410 0.72868 -0.13044
 Cu86 Cu 0.17305 0.78125 -0.22078
 Cu87 Cu 0.21935 0.78198 -0.16652
 Cu88 Cu 0.21648 0.83753 -0.21557
 N89 N 0.16932 0.81437 -0.24565
 N90 N 0.18599 0.83653 -0.24317
 C91 C 0.17857 0.85655 -0.26243
 C92 C 0.15593 0.84645 -0.27810
 C93 C 0.15075 0.81944 -0.26669
 H94 H 0.18916 0.87682 -0.26484
 H95 H 0.13448 0.80463 -0.27277
 N96 N 0.24583 0.83451 -0.18614
 N97 N 0.24730 0.81302 -0.16784
 C98 C 0.26948 0.81706 -0.15055
 C99 C 0.28256 0.84240 -0.15825
 C100 C 0.26696 0.85283 -0.18093
 H101 H 0.27522 0.80300 -0.13313
 H102 H 0.27075 0.87232 -0.19281
 H103 H 0.19477 0.81256 -0.18622
 H104 H 0.22133 0.79406 -0.20906
 C105 C 0.54265 1.03687 -0.00636
 H106 H 0.54115 1.03762 0.01667
 C107 C 0.56242 1.05372 -0.02068
 H108 H 0.57569 1.06783 -0.00847
 C109 C 0.52701 1.01742 -0.05003
 H110 H 0.51363 1.00273 -0.06131
 C111 C 0.54666 1.03375 -0.06521
 H112 H 0.54814 1.03137 -0.08812
 N113 N 0.52533 1.01932 -0.02113
 C114 C 0.45674 1.00379 0.03907
 H115 H 0.45695 0.98071 0.03990
 C116 C 0.43678 1.01889 0.05476
 H117 H 0.42166 1.00730 0.06771
 C118 C 0.47542 1.04687 0.02011
 H119 H 0.49011 1.05768 0.00613
 C120 C 0.45560 1.06280 0.03519
 H121 H 0.45559 1.08584 0.03312
 Zn122 Zn 0.50082 0.99567 0.00040
 N123 N 0.47576 1.01790 0.02245
 C124 C 0.52104 0.97156 0.05274
 N125 N 0.52377 0.97235 0.02385
 C126 C 0.54447 0.95759 0.01043
 C127 C 0.56360 0.94134 0.02614
 C128 C 0.53951 0.95524 0.06928
 C129 C 0.46053 0.98699 -0.04159
 C130 C 0.44169 0.97171 -0.05834
 C131 C 0.45987 0.92794 -0.03795
 C132 C 0.47854 0.94408 -0.02171
 N133 N 0.47844 0.97305 -0.02376
 H134 H 0.50484 0.98385 0.06312
 H135 H 0.54644 0.95898 -0.01254
 H136 H 0.58043 0.93059 0.01495
 H137 H 0.53671 0.95467 0.09220
 H138 H 0.46054 1.01007 -0.04234
 H139 H 0.42716 0.98322 -0.07194
 H140 H 0.46003 0.90490 -0.03593
 H141 H 0.49258 0.93346 -0.00699
 C142 C 0.43598 1.04878 0.05281
 C143 C 0.56482 1.05214 -0.05052
 C144 C 0.44100 0.94180 -0.05641
 C145 C 0.56139 0.94005 0.05604
 C146 C -0.01154 0.54077 1.04302
 H147 H 0.01118 0.54125 1.04347
 C148 C -0.02696 0.55932 1.06016
 H149 H -0.01589 0.57417 1.07368
 C150 C -0.05342 0.52176 1.02360
 H151 H -0.06360 0.50745 1.00892
 C152 C -0.06967 0.54006 1.04030
 H153 H -0.09235 0.53930 1.03867
 N154 N -0.02489 0.52253 1.02520
 C155 C 0.03938 0.45896 1.00698
 H156 H 0.04080 0.46125 0.98403
 C157 C 0.05597 0.43879 1.02108
 H158 H 0.07059 0.42616 1.00876
 C159 C 0.01847 0.47289 1.05064
 H160 H 0.00332 0.48574 1.06197
 C161 C 0.03438 0.45267 1.06557
 H162 H 0.03116 0.45025 1.08834
 Zn163 Zn -0.00218 0.50050 1.00066
 N164 N 0.02125 0.47564 1.02186
 C165 C 0.04796 0.52729 0.98074
 N166 N 0.01947 0.52653 0.97859
 C167 C 0.00544 0.54566 0.96197
 C168 C 0.02014 0.56606 0.94598
 C169 C 0.06349 0.54750 0.96531
 C170 C -0.03893 0.45575 0.99080
 C171 C -0.05487 0.43636 0.97526
 C172 C -0.04165 0.46144 0.93203
 C173 C -0.02563 0.48015 0.94840
 N174 N -0.02472 0.47710 0.97727
 H175 H 0.05870 0.51265 0.99488
 H176 H -0.01726 0.54504 0.96116
 H177 H 0.00851 0.58064 0.93243
 H178 H 0.08608 0.54806 0.96781
 H179 H -0.03744 0.45352 1.01374
 H180 H -0.06527 0.41907 0.98654
 H181 H -0.04242 0.46457 0.90914
 H182 H -0.01375 0.49685 0.93792
 C183 C 0.05340 0.43515 1.05078
 C184 C -0.05643 0.55933 1.05872
 C185 C -0.05643 0.43900 0.94541
 C186 C 0.04961 0.56725 0.94756
 C187 C 1.03915 -0.00555 0.54299
 H188 H 1.04133 0.01736 0.54086
 C189 C 1.05473 -0.02031 0.56347
 H190 H 1.06933 -0.00858 0.57658
 C191 C 1.01736 -0.04841 0.52823
 H192 H 1.00220 -0.05912 0.51495
 C193 C 1.03232 -0.06402 0.54869
 H194 H 1.02848 -0.08671 0.55086
 N195 N 1.02107 -0.01971 0.52575
 C196 C 1.01009 0.04611 0.46057
 H197 H 0.98759 0.04913 0.46190
 C198 C 1.02595 0.06241 0.44136
 H199 H 1.01555 0.07803 0.42791
 C200 C 1.05079 0.02102 0.47554
 H201 H 1.06025 0.00437 0.48836
 C202 C 1.06739 0.03657 0.45630
 H203 H 1.08968 0.03215 0.45489
 Zn204 Zn 0.99932 0.00292 0.50061
 N205 N 1.02268 0.02606 0.47733
 C206 C 0.98004 0.05382 0.52718
 N207 N 0.97572 0.02533 0.52398
 C208 C 0.95595 0.01123 0.53962
 C209 C 0.93927 0.02585 0.55917
 C210 C 0.96407 0.06924 0.54682
 C211 C 0.99255 -0.03907 0.45949
 C212 C 0.97869 -0.05537 0.43911
 C213 C 0.93535 -0.03172 0.45173
 C214 C 0.95003 -0.01602 0.47207
 N215 N 0.97812 -0.02001 0.47560
 H216 H 0.99656 0.06443 0.51532
 H217 H 0.95336 -0.01155 0.53708
 H218 H 0.92341 0.01416 0.57104
 H219 H 0.96852 0.09169 0.54971
 H220 H 1.01498 -0.04143 0.46237
 H221 H 0.99059 -0.07067 0.42681
 H222 H 0.91317 -0.02763 0.44872
 H223 H 0.93911 -0.00004 0.48434
 C224 C 1.05493 0.05749 0.43887
 C225 C 1.05123 -0.04994 0.56680
 C226 C 0.94971 -0.05162 0.43478
 C227 C 0.94345 0.05522 0.56334
 C228 C 0.11576 0.34674 1.11026
 C229 C 0.13812 0.33261 1.09689
 C230 C 0.15226 0.31045 1.11086
 C231 C 0.14406 0.30146 1.13847
 C232 C 0.12169 0.31599 1.15183
 C233 C 0.10788 0.33846 1.13796
 C234 C 0.10024 0.36959 1.09504
 C235 C 0.09094 0.36532 1.06702
 C236 C 0.07573 0.38651 1.05275
 C237 C 0.06981 0.41269 1.06603
 C238 C 0.07939 0.41698 1.09406
 C239 C 0.09427 0.39557 1.10847
 H240 H 0.16921 0.30013 1.09953
 H241 H 0.11468 0.31029 1.17308
 H242 H 0.06816 0.38211 1.03149
 H243 H 0.07567 0.43699 1.10480
 H244 H 0.09059 0.34898 1.14866
 H245 H 0.09493 0.34528 1.05637
 H246 H 0.14472 0.33880 1.07557
 H247 H 0.10145 0.39943 1.13000
 C248 C -0.11634 0.64693 1.12068
 C249 C -0.14547 0.65122 1.11828
 C250 C -0.15839 0.67450 1.13142
 C251 C -0.14249 0.69403 1.14729
 C252 C -0.11343 0.68942 1.15007
 C253 C -0.10053 0.66619 1.13691
 C254 C -0.10225 0.62308 1.10557
 C255 C -0.08000 0.60808 1.11845
 C256 C -0.06554 0.58695 1.10350
 C257 C -0.07304 0.58027 1.07535
 C258 C -0.09577 0.59472 1.06274
 C259 C -0.11019 0.61590 1.07766
 H260 H -0.18085 0.67711 1.12910
 H261 H -0.10040 0.70408 1.16185
 H262 H -0.04840 0.57586 1.11393
 H263 H -0.10179 0.59035 1.04095
 H264 H -0.07798 0.66378 1.13880
 H265 H -0.07370 0.61274 1.14009
 H266 H -0.15830 0.63652 1.10628
 H267 H -0.12695 0.62733 1.06698
 C268 C -0.11713 0.35300 0.88158
 C269 C -0.14654 0.35021 0.88327
 C270 C -0.16027 0.32779 0.86962
 C271 C -0.14499 0.30790 0.85357
 C272 C -0.11572 0.31097 0.85130
 C273 C -0.10193 0.33311 0.86532
 C274 C -0.10228 0.37601 0.89730
 C275 C -0.07791 0.38881 0.88594
 C276 C -0.06322 0.40937 0.90136
 C277 C -0.07271 0.41799 0.92841
 C278 C -0.09749 0.40573 0.93944
 C279 C -0.11196 0.38489 0.92420
 H280 H -0.18290 0.32617 0.87143
 H281 H -0.10333 0.29576 0.83939
 H282 H -0.04406 0.41803 0.89228
 H283 H -0.10575 0.41215 0.95995
 H284 H -0.07924 0.33416 0.86396
 H285 H -0.07006 0.38290 0.86510
 H286 H -0.15903 0.36543 0.89507
 H287 H -0.13041 0.37532 0.93385
 C288 C 0.11250 0.65325 0.88467
 C289 C 0.09917 0.67077 0.86438
 C290 C 0.11424 0.69196 0.84979
 C291 C 0.14291 0.69628 0.85543
 C292 C 0.15627 0.67865 0.87565
 C293 C 0.14125 0.65725 0.89000
 C294 C 0.09637 0.63114 0.90053
 C295 C 0.10739 0.60358 0.90438
 C296 C 0.09217 0.58281 0.91944
 C297 C 0.06569 0.58922 0.93121
 C298 C 0.05479 0.61690 0.92740
 C299 C 0.06990 0.63756 0.91211
 H300 H 0.10327 0.70528 0.83450
 H301 H 0.17837 0.68128 0.88032
 H302 H 0.10101 0.56161 0.92153
 H303 H 0.03477 0.62280 0.93665
 H304 H 0.15200 0.64416 0.90569
 H305 H 0.12762 0.59799 0.89538
 H306 H 0.07707 0.66797 0.85970
 H307 H 0.06111 0.65878 0.90982
 C308 C 1.11736 0.11777 0.35075
 C309 C 1.14439 0.10912 0.34235
 C310 C 1.15807 0.12241 0.31939
 C311 C 1.14526 0.14506 0.30431
 C312 C 1.11847 0.15420 0.31335
 C313 C 1.10467 0.14061 0.33606
 C314 C 1.10216 0.10256 0.37418
 C315 C 1.08411 0.11740 0.39272
 C316 C 1.06893 0.10283 0.41388
 C317 C 1.07177 0.07317 0.41724
 C318 C 1.09016 0.05837 0.39916
 C319 C 1.10504 0.07285 0.37776
 H320 H 1.17880 0.11484 0.31381
 H321 H 1.10753 0.17134 0.30255
 H322 H 1.05507 0.11475 0.42776
 H323 H 1.09240 0.03542 0.40104
 H324 H 1.08368 0.14759 0.34159
 H325 H 1.08175 0.14033 0.39098
 H326 H 1.15512 0.09206 0.35358
 H327 H 1.11826 0.06059 0.36357
 C328 C 1.11200 -0.11080 0.65537
 C329 C 1.10554 -0.13920 0.66246
 C330 C 1.11992 -0.15331 0.68439
 C331 C 1.14144 -0.13945 0.69962
 C332 C 1.14803 -0.11102 0.69203
 C333 C 1.13340 -0.09689 0.67034
 C334 C 1.09625 -0.09550 0.63272
 C335 C 1.08656 -0.06762 0.63730
 C336 C 1.07182 -0.05300 0.61603
 C337 C 1.06667 -0.06580 0.58950
 C338 C 1.07634 -0.09379 0.58497
 C339 C 1.09086 -0.10853 0.60641
 H340 H 1.11406 -0.17513 0.68913
 H341 H 1.16426 -0.09925 0.70290
 H342 H 1.06412 -0.03178 0.62057
 H343 H 1.07311 -0.10416 0.56469
 H344 H 1.13899 -0.07506 0.66509
 H345 H 1.09005 -0.05725 0.65756
 H346 H 1.08897 -0.15035 0.65135
 H347 H 1.09835 -0.12992 0.60225
 C348 C 0.89129 -0.11205 0.34526
 C349 C 0.86359 -0.10457 0.33830
 C350 C 0.84977 -0.11786 0.31574
 C351 C 0.86322 -0.13923 0.29962
 C352 C 0.89089 -0.14697 0.30714
 C353 C 0.90474 -0.13345 0.32954
 C354 C 0.90632 -0.09713 0.36845
 C355 C 0.89289 -0.09157 0.39457
 C356 C 0.90701 -0.07710 0.41620
 C357 C 0.93481 -0.06766 0.41211
 C358 C 0.94818 -0.07327 0.38593
 C359 C 0.93414 -0.08793 0.36442
 H360 H 0.82853 -0.11115 0.31114
 H361 H 0.90228 -0.16321 0.29564
 H362 H 0.89624 -0.07354 0.43624
 H363 H 0.96934 -0.06581 0.38178
 H364 H 0.92601 -0.13985 0.33467
 H365 H 0.87155 -0.09872 0.39835
 H366 H 0.85279 -0.08796 0.34995
 H367 H 0.94484 -0.09153 0.34434
 C368 C 0.88175 0.11568 0.65093
 C369 C 0.85864 0.10294 0.66460
 C370 C 0.84473 0.11689 0.68677
 C371 C 0.85386 0.14386 0.69620
 C372 C 0.87693 0.15666 0.68206
 C373 C 0.89056 0.14281 0.65962
 C374 C 0.89714 0.10029 0.62825
 C375 C 0.90461 0.11413 0.60264
 C376 C 0.91933 0.09949 0.58141
 C377 C 0.92720 0.07079 0.58552
 C378 C 0.91979 0.05711 0.61132
 C379 C 0.90478 0.07163 0.63232
 H380 H 0.82718 0.10601 0.69671
 H381 H 0.88469 0.17742 0.68813
 H382 H 0.92429 0.11059 0.56168
 H383 H 0.92605 0.03529 0.61560
 H384 H 0.90845 0.15302 0.64948
 H385 H 0.89873 0.13618 0.59891
 H386 H 0.85129 0.08211 0.65809
 H387 H 0.89966 0.06062 0.65208
 C388 C 0.34847 1.11029 0.11274
 C389 C 0.33090 1.09559 0.13206
 C390 C 0.30890 1.10968 0.14586
 C391 C 0.30376 1.13874 0.14046
 C392 C 0.32132 1.15351 0.12124
 C393 C 0.34351 1.13949 0.10765
 C394 C 0.37154 1.09510 0.09765
 C395 C 0.37803 1.10174 0.06904
 C396 C 0.39924 1.08701 0.05465
 C397 C 0.41425 1.06513 0.06843
 C398 C 0.40795 1.05855 0.09703
 C399 C 0.38695 1.07347 0.11153
 H400 H 0.29555 1.09758 0.16025
 H401 H 0.31814 1.17600 0.11689
 H402 H 0.40342 1.09224 0.03248
 H403 H 0.41947 1.04200 0.10824
 H404 H 0.35692 1.15162 0.09332
 H405 H 0.36629 1.11788 0.05751
 H406 H 0.33373 1.07299 0.13610
 H407 H 0.38291 1.06816 0.13369
 C408 C 0.65070 1.11618 -0.11139
 C409 C 0.66745 1.13622 -0.09719
 C410 C 0.68899 1.15061 -0.11166
 C411 C 0.69443 1.14507 -0.14058
 C412 C 0.67748 1.12522 -0.15485
 C413 C 0.65576 1.11103 -0.14044
 C414 C 0.62850 1.10020 -0.09575
 C415 C 0.63396 1.08865 -0.06859
 C416 C 0.61332 1.07311 -0.05398
 C417 C 0.58664 1.06895 -0.06607
 C418 C 0.58116 1.08068 -0.09322
 C419 C 0.60191 1.09604 -0.10795
 H420 H 0.70172 1.16561 -0.09995
 H421 H 0.68094 1.12063 -0.17718
 H422 H 0.61850 1.06389 -0.03341
 H423 H 0.56072 1.07826 -0.10299
 H424 H 0.64330 1.09554 -0.15186
 H425 H 0.65442 1.09113 -0.05889
 H426 H 0.66383 1.14080 -0.07486
 H427 H 0.59706 1.10499 -0.12873
 C428 C 0.35320 0.88231 -0.11724
 C429 C 0.33526 0.89823 -0.13504
 C430 C 0.31256 0.88522 -0.14857
 C431 C 0.30712 0.85598 -0.14449
 C432 C 0.32514 0.83999 -0.12684
 C433 C 0.34795 0.85299 -0.11343
 C434 C 0.37681 0.89646 -0.10220
 C435 C 0.38341 0.88891 -0.07390
 C436 C 0.40470 0.90316 -0.05929
 C437 C 0.41978 0.92538 -0.07258
 C438 C 0.41358 0.93260 -0.10102
 C439 C 0.39240 0.91825 -0.11570
 H440 H 0.29895 0.89829 -0.16170
 H441 H 0.32179 0.81736 -0.12351
 H442 H 0.40874 0.89741 -0.03725
 H443 H 0.42513 0.94939 -0.11192
 H444 H 0.36160 0.84001 -0.10021
 H445 H 0.37154 0.87255 -0.06271
 H446 H 0.33835 0.92096 -0.13803
 H447 H 0.38824 0.92422 -0.13764
 C448 C 0.64813 0.88071 0.12019
 C449 C 0.66781 0.89700 0.13537
 C450 C 0.69024 0.88386 0.14943
 C451 C 0.69380 0.85414 0.14833
 C452 C 0.67416 0.83776 0.13330
 C453 C 0.65147 0.85087 0.11955
 C454 C 0.62473 0.89494 0.10453
 C455 C 0.61553 0.88447 0.07812
 C456 C 0.59453 0.89863 0.06278
 C457 C 0.58240 0.92387 0.07325
 C458 C 0.59127 0.93405 0.09990
 C459 C 0.61200 0.91968 0.11540
 H460 H 0.70523 0.89713 0.16048
 H461 H 0.67619 0.81477 0.13235
 H462 H 0.58792 0.88984 0.04260
 H463 H 0.58273 0.95358 0.10855
 H464 H 0.63647 0.83756 0.10854
 H465 H 0.62501 0.86567 0.06888
 H466 H 0.66635 0.92004 0.13585
 H467 H 0.61814 0.92811 0.13589
   
