data_POSCAR
  _audit_creation_date              2014-09-24
  _audit_creation_method            'ToBaCCo'
  _symmetry_space_group_name_H-M    'P1'
  _symmetry_Int_Tables_number       1
  _symmetry_cell_setting            triclinic
  loop_
  _symmetry_equiv_pos_as_xyz
 x,y,z
_cell_length_a 10.2597
_cell_length_b 37.1162
_cell_length_c 10.2857
_cell_angle_alpha 88.328800
_cell_angle_beta 116.783100
_cell_angle_gamma 88.077400
loop_
  _atom_site_label
  _atom_site_type_symbol
  _atom_site_fract_x
  _atom_site_fract_y
  _atom_site_fract_z
N1 N 0.27025 0.03813 0.19359
 N2 N 0.33284 0.06904 0.20271
 N3 N 0.20986 -0.03684 0.28307
 N4 N 0.22539 -0.06849 0.35164
 N5 N 0.28438 -0.03731 0.20736
 N6 N 0.35042 -0.06924 0.22196
 N7 N 0.19026 0.03897 0.26362
 N8 N 0.19488 0.07066 0.31966
 C9 C 0.28632 0.08886 0.28303
 C10 C 0.31502 -0.08823 0.31426
 N11 N -0.21927 -0.03780 0.08523
 N12 N -0.28429 -0.06838 0.07806
 N13 N -0.11739 0.03907 0.18896
 N14 N -0.11096 0.07026 0.25054
 N15 N -0.23799 0.03856 0.06593
 N16 N -0.31763 0.07144 0.04029
 N17 N -0.09662 -0.03783 0.20682
 N18 N -0.07429 -0.06870 0.28323
 Mn19 Mn 0.04720 0.00090 0.23738
 C20 C -0.19342 -0.08722 0.20295
 C21 C -0.23425 0.09000 0.15834
 N22 N 0.21729 -0.03758 -0.09788
 N23 N 0.29961 -0.06978 -0.07755
 N24 N 0.08091 0.03851 -0.23405
 N25 N 0.06134 0.06971 -0.30796
 N26 N 0.20092 0.03841 -0.10989
 N27 N 0.26398 0.06941 -0.09595
 N28 N 0.09497 -0.03827 -0.21911
 N29 N 0.08775 -0.06923 -0.28244
 Mn30 Mn 0.24451 0.00032 0.04887
 C31 C 0.21384 -0.08843 -0.19482
 C32 C 0.17748 0.08849 -0.22087
 N33 N -0.30505 0.03807 -0.23819
 N34 N -0.37257 0.07001 -0.25439
 N35 N -0.21250 -0.03786 -0.29481
 N36 N -0.21010 -0.06997 -0.34578
 N37 N -0.28793 -0.03797 -0.21995
 N38 N -0.33737 -0.07235 -0.21726
 N39 N -0.22687 0.03812 -0.31026
 N40 N -0.23917 0.07004 -0.37559
 Mn41 Mn -0.26388 0.00019 -0.07740
 Mn42 Mn -0.06686 0.00014 -0.26641
 Cl43 Cl -0.00976 0.00036 -0.01438
 C44 C -0.33191 0.08956 -0.34170
 C45 C -0.28593 -0.09095 -0.29697
 N46 N 0.79369 0.53510 0.72219
 N47 N 0.85119 0.56659 0.72717
 N48 N 0.72179 0.45924 0.80440
 N49 N 0.73067 0.42721 0.86750
 N50 N 0.79983 0.45898 0.73219
 N51 N 0.86400 0.42667 0.74606
 N52 N 0.72006 0.53500 0.79880
 N53 N 0.72774 0.56633 0.85856
 C54 C 0.81117 0.58560 0.81444
 C55 C 0.82142 0.40728 0.83228
 N56 N 0.29320 0.46358 0.60628
 N57 N 0.22458 0.43332 0.58966
 N58 N 0.41381 0.53835 0.72458
 N59 N 0.42762 0.56853 0.79381
 N60 N 0.29151 0.53994 0.60238
 N61 N 0.21898 0.57120 0.58682
 N62 N 0.41414 0.46194 0.72985
 N63 N 0.42881 0.43055 0.80077
 Mn64 Mn 0.56826 0.49856 0.76609
 C65 C 0.30882 0.41316 0.71250
 C66 C 0.30449 0.58868 0.70780
 N67 N 0.73041 0.46011 0.42747
 N68 N 0.80467 0.42895 0.44768
 N69 N 0.60053 0.53797 0.29547
 N70 N 0.58046 0.56958 0.22453
 N71 N 0.72395 0.53652 0.41671
 N72 N 0.79166 0.56687 0.42878
 N73 N 0.60889 0.46103 0.30466
 N74 N 0.59863 0.43040 0.23857
 Mn75 Mn 0.76373 0.49769 0.57536
 C76 C 0.72252 0.41074 0.32837
 C77 C 0.70160 0.58710 0.30751
 N78 N 0.22048 0.54067 0.29618
 N79 N 0.15611 0.57283 0.28180
 N80 N 0.30131 0.46412 0.23079
 N81 N 0.29258 0.43272 0.17175
 N82 N 0.22239 0.46522 0.30199
 N83 N 0.15693 0.43465 0.29105
 N84 N 0.29407 0.53972 0.21969
 N85 N 0.27967 0.57122 0.15053
 Mn86 Mn 0.25528 0.50246 0.45122
 Mn87 Mn 0.45067 0.50065 0.26096
 Cl88 Cl 0.50943 0.49984 0.51331
 C89 C 0.19172 0.59142 0.18869
 C90 C 0.20025 0.41487 0.20805
 C91 C 0.41974 0.14476 0.30151
 C92 C 0.42054 0.18236 0.29403
 C93 C 0.29360 0.20338 0.26412
 C94 C 0.16546 0.18656 0.24253
 C95 C 0.16622 0.14916 0.25567
 C96 C 0.29326 0.12807 0.28564
 N97 N 0.29680 0.24170 0.25534
 N98 N 0.18533 0.26205 0.23136
 C99 C 0.18891 0.30038 0.22244
 C100 C 0.06410 0.32157 0.19853
 C101 C 0.06581 0.35918 0.19181
 C102 C 0.19111 0.37570 0.20321
 C103 C 0.31570 0.35439 0.22610
 C104 C 0.31557 0.31702 0.23818
 H105 H 0.51760 0.12875 0.32093
 H106 H 0.51961 0.19521 0.31110
 H107 H 0.06529 0.20225 0.21706
 H108 H 0.06610 0.13661 0.23733
 H109 H -0.03379 0.30885 0.18596
 H110 H -0.03032 0.37531 0.17685
 H111 H 0.41506 0.36669 0.23990
 H112 H 0.41421 0.30118 0.25906
 C113 C 0.66596 0.86371 0.24205
 C114 C 0.64370 0.82707 0.25507
 C115 C 0.74445 0.80045 0.25696
 C116 C 0.87290 0.81113 0.25251
 C117 C 0.89625 0.84792 0.24132
 C118 C 0.79100 0.87441 0.23247
 N119 N 0.71208 0.76313 0.26143
 N120 N 0.80091 0.73734 0.26957
 C121 C 0.76918 0.69994 0.27223
 C122 C 0.88067 0.67376 0.29939
 C123 C 0.85747 0.63702 0.30650
 C124 C 0.72070 0.62569 0.28455
 C125 C 0.60592 0.65177 0.25107
 C126 C 0.63008 0.68873 0.24599
 H127 H 0.58477 0.88374 0.23785
 H128 H 0.54684 0.81919 0.26216
 H129 H 0.95361 0.79118 0.25521
 H130 H 0.99375 0.85566 0.23422
 H131 H 0.98695 0.68214 0.31823
 H132 H 0.94678 0.61740 0.33027
 H133 H 0.49929 0.64359 0.23387
 H134 H 0.54095 0.70838 0.22244
 C135 C 0.54917 0.14780 0.67201
 C136 C 0.55570 0.18484 0.69145
 C137 C 0.67148 0.20349 0.69121
 C138 C 0.77512 0.18541 0.65906
 C139 C 0.76695 0.14851 0.63623
 C140 C 0.65694 0.12920 0.64816
 N141 N 0.68520 0.24019 0.73112
 N142 N 0.80152 0.25653 0.76099
 C143 C 0.81449 0.29330 0.80028
 C144 C 0.93635 0.31125 0.81164
 C145 C 0.94316 0.34837 0.82980
 C146 C 0.82948 0.36767 0.84132
 C147 C 0.71249 0.34911 0.84156
 C148 C 0.70422 0.31219 0.81982
 H149 H 0.46372 0.13337 0.68138
 H150 H 0.47510 0.19881 0.71446
 H151 H 0.86466 0.19948 0.65629
 H152 H 0.85180 0.13477 0.61834
 H153 H 1.02232 0.29664 0.79919
 H154 H 1.03428 0.36225 0.82997
 H155 H 0.62284 0.36346 0.84921
 H156 H 0.60955 0.29875 0.81326
 C157 C 0.37245 0.85830 0.89192
 C158 C 0.39499 0.82107 0.88965
 C159 C 0.29009 0.80104 0.78388
 C160 C 0.16469 0.81919 0.67350
 C161 C 0.14244 0.85674 0.67471
 C162 C 0.24303 0.87659 0.78868
 N163 N 0.31443 0.76252 0.79247
 N164 N 0.21463 0.74159 0.71801
 C165 C 0.23930 0.70304 0.72775
 C166 C 0.12172 0.68198 0.64778
 C167 C 0.14174 0.64452 0.64821
 C168 C 0.28046 0.62736 0.72736
 C169 C 0.39753 0.64819 0.81493
 C170 C 0.37742 0.68580 0.81498
 H171 H 0.45540 0.87270 0.97686
 H172 H 0.49340 0.80749 0.97263
 H173 H 0.08447 0.80441 0.58689
 H174 H 0.04520 0.86996 0.58836
 H175 H 0.01466 0.69489 0.58322
 H176 H 0.04945 0.62879 0.58542
 H177 H 0.50530 0.63554 0.87936
 H178 H 0.46987 0.70136 0.88060
 C179 C 0.17060 0.14194 0.62264
 C180 C 0.17820 0.17910 0.60225
 C181 C 0.20715 0.20215 0.71613
 C182 C 0.22795 0.18756 0.85219
 C183 C 0.22034 0.15039 0.87275
 C184 C 0.19036 0.12738 0.75759
 N185 N 0.21837 0.23992 0.69136
 N186 N 0.26188 0.26173 0.79408
 C187 C 0.27232 0.29958 0.76989
 C188 C 0.31811 0.32172 0.88858
 C189 C 0.32620 0.35891 0.86978
 C190 C 0.28982 0.37447 0.73143
 C191 C 0.24183 0.35240 0.61140
 C192 C 0.23370 0.31517 0.63033
 H193 H 0.15341 0.12443 0.53468
 H194 H 0.16373 0.19010 0.49823
 H195 H 0.25058 0.20476 0.94235
 H196 H 0.23572 0.13964 0.97793
 H197 H 0.34705 0.30994 0.99574
 H198 H 0.35842 0.37566 0.96249
 H199 H 0.21368 0.36388 0.50359
 H200 H 0.19729 0.29869 0.53639
 C201 C 0.76995 0.85571 0.61017
 C202 C 0.78496 0.81820 0.61447
 C203 C 0.74242 0.79721 0.70169
 C204 C 0.68033 0.81398 0.78260
 C205 C 0.66402 0.85158 0.77789
 C206 C 0.71211 0.87300 0.69409
 N207 N 0.76671 0.75899 0.70852
 N208 N 0.75483 0.73868 0.80377
 C209 C 0.77901 0.70045 0.80931
 C210 C 0.77677 0.67984 0.92377
 C211 C 0.79496 0.64231 0.92997
 C212 C 0.81560 0.62500 0.82096
 C213 C 0.82025 0.64575 0.70696
 C214 C 0.80130 0.68324 0.70068
 H215 H 0.80561 0.87116 0.54252
 H216 H 0.83377 0.80535 0.55292
 H217 H 0.64717 0.79804 0.85116
 H218 H 0.62044 0.86375 0.84538
 H219 H 0.75686 0.69302 1.00563
 H220 H 0.78836 0.62668 1.01700
 H221 H 0.83083 0.63294 0.61879
 H222 H 0.79914 0.69865 0.60878
 C223 C 0.34389 0.85224 0.44483
 C224 C 0.33275 0.81485 0.44074
 C225 C 0.28882 0.79791 0.30873
 C226 C 0.25792 0.81844 0.18067
 C227 C 0.27318 0.85545 0.18561
 C228 C 0.31667 0.87250 0.31750
 N229 N 0.27409 0.75992 0.30637
 N230 N 0.23444 0.74327 0.18932
 C231 C 0.21931 0.70528 0.18805
 C232 C 0.18032 0.68774 0.05795
 C233 C 0.16842 0.65035 0.05569
 C234 C 0.18983 0.63071 0.18272
 C235 C 0.22780 0.64839 0.31243
 C236 C 0.24433 0.68533 0.31572
 H237 H 0.37300 0.86533 0.54627
 H238 H 0.35650 0.79906 0.53965
 H239 H 0.22226 0.80597 0.07708
 H240 H 0.24589 0.87098 0.08526
 H241 H 0.16097 0.70304 -0.04075
 H242 H 0.14254 0.63683 -0.04427
 H243 H 0.24918 0.63346 0.41267
 H244 H 0.27553 0.69825 0.41785
 C245 C 0.62659 0.14620 0.05729
 C246 C 0.61388 0.18374 0.06437
 C247 C 0.70911 0.20112 0.18788
 C248 C 0.81326 0.18016 0.30792
 C249 C 0.82775 0.14271 0.30030
 C250 C 0.73881 0.12527 0.17284
 N251 N 0.69763 0.23984 0.18868
 N252 N 0.77955 0.25721 0.29871
 C253 C 0.77007 0.29591 0.30047
 C254 C 0.85245 0.31247 0.43109
 C255 C 0.84229 0.35000 0.43857
 C256 C 0.74869 0.37173 0.31504
 C257 C 0.67265 0.35530 0.18213
 C258 C 0.68213 0.31768 0.17475
 H259 H 0.55269 0.13398 -0.04173
 H260 H 0.53122 0.19952 -0.02761
 H261 H 0.88445 0.19277 0.40678
 H262 H 0.90903 0.12734 0.39406
 H263 H 0.92279 0.29609 0.52792
 H264 H 0.90445 0.36193 0.54200
 H265 H 0.60594 0.37170 0.08453
 H266 H 0.62142 0.30562 0.07132
   
