data_POSCAR
  _audit_creation_date              2014-09-24
  _audit_creation_method            'ToBaCCo'
  _symmetry_space_group_name_H-M    'P1'
  _symmetry_Int_Tables_number       1
  _symmetry_cell_setting            triclinic
  loop_
  _symmetry_equiv_pos_as_xyz
 x,y,z
_cell_length_a 40.4010
_cell_length_b 39.8649
_cell_length_c 40.4345
_cell_angle_alpha 89.895000
_cell_angle_beta 89.989700
_cell_angle_gamma 90.002700
loop_
  _atom_site_label
  _atom_site_type_symbol
  _atom_site_fract_x
  _atom_site_fract_y
  _atom_site_fract_z
N1 N 0.58728 0.67833 0.61101
 N2 N 0.57476 0.66506 0.63808
 C3 C 0.54788 0.68281 0.64717
 C4 C 0.54357 0.70837 0.62459
 C5 C 0.56885 0.70496 0.60198
 H6 H 0.53256 0.67761 0.66850
 H7 H 0.57345 0.72064 0.58060
 Cu8 Cu 0.59477 0.62588 0.65872
 Cu9 Cu 0.62646 0.66013 0.58952
 Cu10 Cu 0.66187 0.58948 0.62499
 N11 N 0.61448 0.58578 0.67788
 N12 N 0.64073 0.57167 0.66456
 C13 C 0.64924 0.54450 0.68250
 C14 C 0.62709 0.54163 0.70826
 C15 C 0.60534 0.56803 0.70479
 H16 H 0.66990 0.52810 0.67719
 H17 H 0.58452 0.57378 0.72060
 N18 N 0.67966 0.61118 0.58493
 N19 N 0.66616 0.63810 0.57141
 C20 C 0.68391 0.64692 0.54454
 C21 C 0.70959 0.62448 0.54119
 C22 C 0.70634 0.60217 0.56701
 H23 H 0.67865 0.66807 0.52860
 H24 H 0.72226 0.58103 0.57229
 H25 H 0.61965 0.61138 0.60570
 H26 H 0.64708 0.63869 0.63128
 N27 N 0.91435 0.32176 0.10972
 N28 N 0.92767 0.33581 0.13598
 C29 C 0.95453 0.31801 0.14514
 C30 C 0.95797 0.29165 0.12341
 C31 C 0.93224 0.29459 0.10125
 H32 H 0.97035 0.32371 0.16597
 H33 H 0.92693 0.27826 0.08058
 Cu34 Cu 0.90859 0.37591 0.15562
 Cu35 Cu 0.87485 0.33968 0.08853
 Cu36 Cu 0.83953 0.41035 0.12381
 N37 N 0.88804 0.41512 0.17555
 N38 N 0.86103 0.42846 0.16298
 C39 C 0.85207 0.45510 0.18135
 C40 C 0.87467 0.45845 0.20664
 C41 C 0.89717 0.43283 0.20240
 H42 H 0.83076 0.47084 0.17670
 H43 H 0.91848 0.42758 0.21774
 N44 N 0.82141 0.38839 0.08412
 N45 N 0.83487 0.36146 0.07068
 C46 C 0.81696 0.35252 0.04400
 C47 C 0.79119 0.37488 0.04070
 C48 C 0.79458 0.39728 0.06635
 H49 H 0.82220 0.33139 0.02811
 H50 H 0.77869 0.41844 0.07157
 H51 H 0.88130 0.38886 0.10330
 H52 H 0.85553 0.36156 0.13066
 N53 N 0.41298 0.17866 -0.11061
 N54 N 0.42591 0.16497 -0.13723
 C55 C 0.45280 0.18272 -0.14638
 C56 C 0.45670 0.20870 -0.12429
 C57 C 0.43117 0.20554 -0.10191
 H58 H 0.46839 0.17724 -0.16744
 H59 H 0.42623 0.22157 -0.08093
 Cu60 Cu 0.40626 0.12532 -0.15720
 Cu61 Cu 0.37360 0.16064 -0.08920
 Cu62 Cu 0.33820 0.08994 -0.12445
 N63 N 0.38621 0.08567 -0.17676
 N64 N 0.35956 0.07196 -0.16379
 C65 C 0.35083 0.04505 -0.18190
 C66 C 0.37321 0.04191 -0.20741
 C67 C 0.39534 0.06792 -0.20359
 H68 H 0.32983 0.02899 -0.17689
 H69 H 0.41643 0.07338 -0.21917
 N70 N 0.32024 0.11181 -0.08462
 N71 N 0.33373 0.13874 -0.07120
 C72 C 0.31589 0.14763 -0.04444
 C73 C 0.29016 0.12524 -0.04107
 C74 C 0.29348 0.10287 -0.06676
 H75 H 0.32115 0.16877 -0.02856
 H76 H 0.27757 0.08172 -0.07196
 H77 H 0.38013 0.11165 -0.10450
 H78 H 0.35357 0.13895 -0.13105
 N79 N 0.08571 0.82079 0.38988
 N80 N 0.07272 0.83457 0.36327
 C81 C 0.04585 0.81681 0.35413
 C82 C 0.04208 0.79073 0.37623
 C83 C 0.06761 0.79382 0.39860
 H84 H 0.03025 0.82234 0.33308
 H85 H 0.07263 0.77771 0.41956
 Cu86 Cu 0.09226 0.87434 0.34329
 Cu87 Cu 0.12508 0.83880 0.41122
 Cu88 Cu 0.16030 0.90973 0.37594
 N89 N 0.11221 0.91412 0.32372
 N90 N 0.13885 0.92783 0.33664
 C91 C 0.14753 0.95481 0.31852
 C92 C 0.12512 0.95800 0.29303
 C93 C 0.10303 0.93194 0.29689
 H94 H 0.16852 0.97087 0.32347
 H95 H 0.08196 0.92648 0.28132
 N96 N 0.17835 0.88773 0.41573
 N97 N 0.16494 0.86071 0.42917
 C98 C 0.18283 0.85175 0.45589
 C99 C 0.20852 0.87418 0.45923
 C100 C 0.20512 0.89664 0.43356
 H101 H 0.17763 0.83054 0.47178
 H102 H 0.22098 0.91785 0.42834
 H103 H 0.11844 0.88785 0.39595
 H104 H 0.14502 0.86071 0.36935
 C105 C 0.09912 0.12535 0.14996
 C106 C 0.07452 0.15019 0.14955
 C107 C 0.07444 0.17483 0.12480
 C108 C 0.09893 0.17485 0.10028
 C109 C 0.12372 0.15020 0.10031
 C110 C 0.12385 0.12531 0.12525
 C111 C 0.09944 0.10056 0.17463
 C112 C 0.12413 0.07588 0.17479
 C113 C 0.14868 0.07578 0.15031
 C114 C 0.14873 0.10039 0.12547
 C115 C 0.17319 0.10054 0.10083
 C116 C 0.17300 0.12524 0.07614
 C117 C 0.14837 0.14997 0.07587
 H118 H 0.05544 0.15040 0.16843
 H119 H 0.09865 0.19403 0.08122
 H120 H 0.08055 0.10041 0.19369
 H121 H 0.16768 0.05657 0.15066
 H122 H 0.19237 0.08150 0.10082
 H123 H 0.14844 0.16898 0.05664
 C124 C 0.39970 0.87477 0.65005
 C125 C 0.42445 0.85009 0.64972
 C126 C 0.42467 0.82545 0.62507
 C127 C 0.40016 0.82526 0.60056
 C128 C 0.37522 0.84975 0.60052
 C129 C 0.37495 0.87465 0.62536
 C130 C 0.39925 0.89957 0.67462
 C131 C 0.37442 0.92410 0.67471
 C132 C 0.34985 0.92404 0.65026
 C133 C 0.34993 0.89942 0.62551
 C134 C 0.32545 0.89911 0.60090
 C135 C 0.32578 0.87441 0.57631
 C136 C 0.35055 0.84982 0.57610
 H137 H 0.44354 0.85001 0.66858
 H138 H 0.40055 0.80607 0.58158
 H139 H 0.41815 0.89985 0.69366
 H140 H 0.33073 0.94314 0.65055
 H141 H 0.30616 0.91804 0.60084
 H142 H 0.35058 0.83081 0.55695
 C143 C 0.90052 0.62488 0.35004
 C144 C 0.92516 0.64968 0.35044
 C145 C 0.92529 0.67422 0.37520
 C146 C 0.90081 0.67417 0.39974
 C147 C 0.87599 0.64956 0.39972
 C148 C 0.87580 0.62478 0.37477
 C149 C 0.90014 0.60019 0.32537
 C150 C 0.87541 0.57555 0.32520
 C151 C 0.85088 0.57539 0.34969
 C152 C 0.85088 0.59989 0.37455
 C153 C 0.82643 0.59999 0.39920
 C154 C 0.82668 0.62458 0.42390
 C155 C 0.85135 0.64928 0.42417
 H156 H 0.94422 0.64993 0.33155
 H157 H 0.90114 0.69329 0.41880
 H158 H 0.91902 0.60009 0.30629
 H159 H 0.83184 0.55621 0.34934
 H160 H 0.80722 0.58098 0.39921
 H161 H 0.85132 0.66821 0.44340
 C162 C 0.60024 0.37549 -0.15036
 C163 C 0.57552 0.35078 -0.15000
 C164 C 0.57527 0.32612 -0.12527
 C165 C 0.59973 0.32595 -0.10071
 C166 C 0.62464 0.35047 -0.10069
 C167 C 0.62494 0.37538 -0.12561
 C168 C 0.60073 0.40030 -0.17500
 C169 C 0.62554 0.42486 -0.17511
 C170 C 0.65005 0.42480 -0.15061
 C171 C 0.64994 0.40017 -0.12578
 C172 C 0.67436 0.39988 -0.10112
 C173 C 0.67401 0.37516 -0.07645
 C174 C 0.64926 0.35055 -0.07622
 H175 H 0.55647 0.35068 -0.16890
 H176 H 0.59932 0.30675 -0.08167
 H177 H 0.58186 0.40057 -0.19408
 H178 H 0.66915 0.44393 -0.15092
 H179 H 0.69364 0.41882 -0.10108
 H180 H 0.64920 0.33153 -0.05701
 C181 C -0.01813 0.26766 0.12376
 C182 C 0.00307 0.24638 0.12404
 C183 C 0.02789 0.22148 0.12434
 C184 C 0.04910 0.20021 0.12456
 C185 C 0.51803 0.73343 0.62465
 C186 C 0.49662 0.75448 0.62471
 C187 C 0.47156 0.77915 0.62481
 C188 C 0.45018 0.80024 0.62491
 C189 C 1.01808 0.76683 0.37599
 C190 C 0.99681 0.74563 0.37579
 C191 C 0.97191 0.72079 0.37557
 C192 C 0.95066 0.69957 0.37540
 C193 C 0.48213 0.23387 -0.12454
 C194 C 0.50348 0.25499 -0.12473
 C195 C 0.52847 0.27973 -0.12493
 C196 C 0.54980 0.30087 -0.12509
 C197 C 0.12485 -0.01673 0.26767
 C198 C 0.12465 0.00448 0.24639
 C199 C 0.12445 0.02932 0.22148
 C200 C 0.12429 0.05054 0.20020
 C201 C 0.62674 0.51764 -0.26781
 C202 C 0.62644 0.49637 -0.24659
 C203 C 0.62611 0.47148 -0.22172
 C204 C 0.62584 0.45023 -0.20048
 C205 C 0.37346 1.01667 0.76728
 C206 C 0.37367 0.99549 0.74606
 C207 C 0.37392 0.97066 0.72122
 C208 C 0.37414 0.94945 0.70002
 C209 C 0.87479 0.48351 0.23211
 C210 C 0.87491 0.50457 0.25346
 C211 C 0.87506 0.52924 0.27845
 C212 C 0.87521 0.55033 0.29977
 C213 C 0.26505 0.12520 -0.01592
 C214 C 0.24397 0.12518 0.00518
 C215 C 0.21928 0.12518 0.02987
 C216 C 0.19819 0.12520 0.05096
 C217 C 0.73468 0.62445 0.51601
 C218 C 0.75574 0.62444 0.49490
 C219 C 0.78041 0.62446 0.47018
 C220 C 0.80149 0.62450 0.44908
 C221 C 0.76604 0.37490 0.01560
 C222 C 0.74494 0.37493 -0.00547
 C223 C 0.72025 0.37499 -0.03016
 C224 C 0.69917 0.37506 -0.05125
 C225 C 0.23366 0.87418 0.48434
 C226 C 0.25476 0.87420 0.50541
 C227 C 0.27947 0.87424 0.53008
 C228 C 0.30058 0.87431 0.55114
   
