data_POSCAR
  _audit_creation_date              2014-09-24
  _audit_creation_method            'ToBaCCo'
  _symmetry_space_group_name_H-M    'P1'
  _symmetry_Int_Tables_number       1
  _symmetry_cell_setting            triclinic
  loop_
  _symmetry_equiv_pos_as_xyz
 x,y,z
_cell_length_a 33.4529
_cell_length_b 33.6164
_cell_length_c 25.5993
_cell_angle_alpha 90.339400
_cell_angle_beta 90.324500
_cell_angle_gamma 86.404200
loop_
  _atom_site_label
  _atom_site_type_symbol
  _atom_site_fract_x
  _atom_site_fract_y
  _atom_site_fract_z
O1 O 0.03110 0.29796 -0.05173
 O2 O -0.05463 0.31410 0.03813
 O3 O 0.02378 0.30345 0.05003
 O4 O -0.04647 0.31250 -0.06116
 O5 O -0.05433 0.24772 -0.05898
 O6 O 0.01541 0.23884 0.05289
 O7 O -0.06156 0.24921 0.04107
 O8 O 0.02276 0.23334 -0.04923
 Cu9 Cu -0.01047 0.31348 -0.00620
 Cu10 Cu -0.01967 0.23570 -0.00340
 C11 C 0.04107 0.26251 -0.06618
 C12 C -0.07333 0.28455 0.05364
 C13 C 0.03125 0.26957 0.07066
 C14 C -0.06316 0.28202 -0.07795
 O15 O 0.49004 0.81705 0.56346
 O16 O 0.55147 0.79362 0.44583
 O17 O 0.47876 0.82720 0.46264
 O18 O 0.56306 0.78956 0.54586
 O19 O 0.53894 0.72983 0.54406
 O20 O 0.45717 0.76653 0.45718
 O21 O 0.52814 0.73355 0.44380
 O22 O 0.46515 0.75785 0.55688
 Cu23 Cu 0.52292 0.81310 0.50446
 Cu24 Cu 0.49509 0.74097 0.50021
 C25 C 0.46696 0.79119 0.57976
 C26 C 0.55055 0.75902 0.42556
 C27 C 0.45368 0.80328 0.44585
 C28 C 0.56518 0.75321 0.55919
 O29 O 1.00258 0.67741 -0.06407
 O30 O 1.05263 0.68416 0.06328
 O31 O 0.97865 0.66880 0.03112
 O32 O 1.07097 0.69619 -0.03560
 O33 O 1.04275 0.75725 -0.04012
 O34 O 0.96399 0.73223 0.04988
 O35 O 1.03924 0.74929 0.06293
 O36 O 0.97093 0.73605 -0.04923
 Cu37 Cu 1.02846 0.67494 -0.00026
 Cu38 Cu 1.00281 0.75036 0.00735
 C39 C 0.97700 0.70497 -0.07747
 C40 C 1.05618 0.71826 0.08343
 C41 C 0.95574 0.69605 0.05193
 C42 C 1.07027 0.73153 -0.05324
 O43 O 0.43898 0.21942 0.45087
 O44 O 0.51573 0.17332 0.53971
 O45 O 0.44656 0.21309 0.55192
 O46 O 0.50906 0.18224 0.43754
 O47 O 0.53626 0.24041 0.44132
 O48 O 0.47933 0.26796 0.55912
 O49 O 0.54664 0.22953 0.53969
 O50 O 0.46600 0.27738 0.46051
 Cu51 Cu 0.47475 0.19113 0.49440
 Cu52 Cu 0.51003 0.25954 0.50010
 C53 C 0.43866 0.25659 0.44247
 C54 C 0.54445 0.19376 0.55438
 C55 C 0.45284 0.24570 0.57522
 C56 C 0.53332 0.20653 0.42013
 O57 O 0.68812 -0.05407 0.02184
 O58 O 0.71496 0.01254 -0.08599
 O59 O 0.70160 -0.06414 -0.07738
 O60 O 0.68904 0.02226 0.00774
 O61 O 0.75276 0.01590 0.03108
 O62 O 0.76565 -0.07298 -0.05580
 O63 O 0.77886 -0.00016 -0.06634
 O64 O 0.75260 -0.06449 0.04015
 Cu65 Cu 0.69217 -0.02019 -0.03600
 Cu66 Cu 0.76838 -0.02986 -0.00937
 C67 C 0.71640 -0.07115 0.04859
 C68 C 0.75189 0.01771 -0.09385
 C69 C 0.73492 -0.08392 -0.08020
 C70 C 0.71825 0.03420 0.03364
 O71 O 0.18284 0.49828 0.57441
 O72 O 0.20896 0.57279 0.47604
 O73 O 0.17623 0.50430 0.47123
 O74 O 0.21360 0.56828 0.57737
 O75 O 0.27290 0.53571 0.57241
 O76 O 0.23667 0.47432 0.46476
 O77 O 0.26941 0.54264 0.47063
 O78 O 0.24238 0.46694 0.56446
 Cu79 Cu 0.18920 0.53877 0.52554
 Cu80 Cu 0.26135 0.50206 0.51718
 C81 C 0.20829 0.46992 0.58596
 C82 C 0.24405 0.57037 0.45707
 C83 C 0.20042 0.47859 0.44977
 C84 C 0.24960 0.56257 0.59309
 O85 O 0.30300 0.97426 -0.02441
 O86 O 0.31637 1.04983 0.07842
 O87 O 0.29167 0.97713 0.07666
 O88 O 0.32450 1.04846 -0.02179
 O89 O 0.26137 1.07003 -0.03354
 O90 O 0.22937 1.00199 0.06694
 O91 O 0.25381 1.07349 0.06697
 O92 O 0.24033 0.99769 -0.03482
 Cu93 Cu 0.31514 1.00981 0.02825
 Cu94 Cu 0.23987 1.03779 0.01532
 C95 C 0.26935 0.97339 -0.04742
 C96 C 0.28764 1.07492 0.08945
 C97 C 0.25488 0.97818 0.08913
 C98 C 0.29825 1.07175 -0.04393
 O99 O 0.81031 0.48722 0.53176
 O100 O 0.76786 0.42637 0.42865
 O101 O 0.80247 0.49418 0.43263
 O102 O 0.77206 0.42185 0.53060
 O103 O 0.71374 0.45599 0.53838
 O104 O 0.74328 0.52687 0.43984
 O105 O 0.70943 0.46050 0.43543
 O106 O 0.75171 0.52102 0.53920
 Cu107 Cu 0.79389 0.45355 0.47998
 Cu108 Cu 0.72340 0.49405 0.48931
 C109 C 0.78839 0.51527 0.55189
 C110 C 0.73196 0.43360 0.41370
 C111 C 0.77808 0.52322 0.42038
 C112 C 0.73789 0.42729 0.55185
 C113 C 0.18214 0.23641 0.12651
 C114 C 0.21752 0.21336 0.12755
 C115 C 0.23517 0.21999 0.17572
 N116 N 0.21254 0.24748 0.20316
 C117 C 0.18023 0.25745 0.17307
 C118 C 0.26925 0.19855 0.19668
 C119 C 0.28783 0.21192 0.24251
 C120 C 0.31010 0.18808 0.27723
 C121 C 0.32386 0.21308 0.31534
 C122 C 0.31063 0.25161 0.30168
 N123 N 0.28812 0.25042 0.25767
 C124 C 0.32030 0.28737 0.32696
 C125 C 0.29651 0.32278 0.31809
 C126 C 0.30831 0.36103 0.32671
 C127 C 0.27444 0.38602 0.32203
 C128 C 0.24321 0.36206 0.31114
 N129 N 0.25682 0.32347 0.30803
 C130 C 0.20217 0.37453 0.31190
 C131 C 0.17396 0.35262 0.28431
 C132 C 0.13265 0.35645 0.28965
 C133 C 0.11701 0.32986 0.25472
 C134 C 0.14925 0.31052 0.22949
 N135 N 0.18365 0.32491 0.24715
 C136 C 0.14676 0.28146 0.18984
 H137 H 0.16028 0.23764 0.09512
 H138 H 0.22853 0.19393 0.09633
 H139 H 0.21208 0.31822 0.23181
 H140 H 0.31500 0.15596 0.27599
 H141 H 0.34076 0.20343 0.34955
 H142 H 0.33804 0.36992 0.33617
 H143 H 0.27279 0.41805 0.32736
 H144 H 0.08561 0.32512 0.24879
 H145 H 0.27682 0.27491 0.23612
 H146 H 0.11546 0.37584 0.31618
 C147 C 0.82324 0.77428 0.12279
 C148 C 0.79455 0.80514 0.12795
 C149 C 0.76302 0.79039 0.15514
 N150 N 0.77227 0.75190 0.16824
 C151 C 0.80922 0.74209 0.14904
 C152 C 0.72540 0.81101 0.16490
 C153 C 0.69665 0.79485 0.19739
 C154 C 0.65593 0.80547 0.19613
 C155 C 0.63883 0.78497 0.23576
 C156 C 0.66965 0.76262 0.26004
 N157 N 0.70483 0.76884 0.23660
 C158 C 0.66503 0.73917 0.30467
 C159 C 0.69532 0.71225 0.32373
 C160 C 0.69546 0.69504 0.37265
 C161 C 0.72807 0.66810 0.37411
 C162 C 0.74581 0.66896 0.32531
 N163 N 0.72585 0.69623 0.29478
 C164 C 0.77742 0.64260 0.30753
 C165 C 0.79603 0.64770 0.25889
 C166 C 0.81899 0.61822 0.23302
 C167 C 0.83332 0.63531 0.18890
 C168 C 0.81833 0.67478 0.18860
 N169 N 0.79583 0.68214 0.23173
 C170 C 0.82898 0.70365 0.15210
 H171 H 0.85126 0.77593 0.10243
 H172 H 0.79717 0.83494 0.11334
 H173 H 0.78501 0.71005 0.24498
 H174 H 0.64011 0.82573 0.16932
 H175 H 0.60741 0.78670 0.24596
 H176 H 0.67429 0.70131 0.40390
 H177 H 0.73716 0.64975 0.40718
 H178 H 0.85326 0.62016 0.16119
 H179 H 0.73326 0.75944 0.25002
 H180 H 0.82498 0.58752 0.24462
 C181 C 0.64199 0.31717 0.30095
 C182 C 0.62054 0.28372 0.30150
 C183 C 0.64640 0.25234 0.28524
 N184 N 0.68254 0.26561 0.27378
 C185 C 0.67987 0.30520 0.28299
 C186 C 0.63796 0.21173 0.28512
 C187 C 0.66218 0.18298 0.25731
 C188 C 0.66016 0.14205 0.26123
 C189 C 0.68523 0.12520 0.22352
 C190 C 0.70248 0.15628 0.19867
 N191 N 0.68839 0.19131 0.21936
 C192 C 0.72466 0.15225 0.15223
 C193 C 0.75101 0.18094 0.13624
 C194 C 0.76921 0.18204 0.08789
 C195 C 0.79199 0.21479 0.08852
 C196 C 0.78677 0.23253 0.13722
 N197 N 0.76198 0.21157 0.16644
 C198 C 0.80454 0.26736 0.15471
 C199 C 0.79009 0.28889 0.19904
 C200 C 0.81073 0.31737 0.22541
 C201 C 0.78447 0.33558 0.26054
 C202 C 0.74871 0.31715 0.25543
 N203 N 0.75242 0.28870 0.21785
 C204 C 0.71268 0.32930 0.28112
 H205 H 0.63076 0.34663 0.31292
 H206 H 0.58954 0.28277 0.31294
 H207 H 0.72905 0.27402 0.20102
 H208 H 0.64181 0.12591 0.28737
 H209 H 0.68949 0.09376 0.21431
 H210 H 0.76594 0.16185 0.05528
 H211 H 0.80928 0.22493 0.05618
 H212 H 0.79102 0.36026 0.28574
 H213 H 0.69191 0.21905 0.20281
 H214 H 0.84127 0.32503 0.21922
 C215 C 0.14669 0.81860 0.18616
 C216 C 0.16874 0.85163 0.18457
 C217 C 0.20545 0.84100 0.20753
 N218 N 0.20687 0.80225 0.22182
 C219 C 0.17094 0.78849 0.20877
 C220 C 0.23782 0.86604 0.21143
 C221 C 0.27265 0.85615 0.24141
 C222 C 0.30781 0.87587 0.23949
 C223 C 0.33291 0.85939 0.27742
 C224 C 0.31216 0.83064 0.30225
 N225 N 0.27544 0.82889 0.28014
 C226 C 0.32642 0.80851 0.34609
 C227 C 0.30749 0.77481 0.36410
 C228 C 0.31531 0.75603 0.41150
 C229 C 0.29441 0.72220 0.41112
 C230 C 0.27389 0.72205 0.36412
 N231 N 0.28190 0.75407 0.33532
 C232 C 0.25123 0.69079 0.34658
 C233 C 0.22461 0.69469 0.30383
 C234 C 0.20797 0.66316 0.27857
 C235 C 0.18259 0.67947 0.24077
 C236 C 0.18434 0.72053 0.24429
 N237 N 0.21000 0.72957 0.28294
 C238 C 0.16080 0.74849 0.21430
 H239 H 0.11626 0.81722 0.17215
 H240 H 0.15860 0.88002 0.16804
 H241 H 0.21398 0.75791 0.29787
 H242 H 0.31487 0.90000 0.21416
 H243 H 0.36287 0.86805 0.28592
 H244 H 0.33424 0.76545 0.44305
 H245 H 0.29429 0.70020 0.44182
 H246 H 0.16508 0.66285 0.21362
 H247 H 0.25195 0.81351 0.29465
 H248 H 0.21355 0.63171 0.28654
 C249 C 0.79676 0.16806 0.86271
 C250 C 0.81510 0.20345 0.86506
 C251 C 0.80786 0.22214 0.81750
 N252 N 0.78498 0.19976 0.78671
 C253 C 0.77813 0.16683 0.81440
 C254 C 0.82336 0.25836 0.80166
 C255 C 0.80811 0.27906 0.75728
 C256 C 0.82683 0.30909 0.73207
 C257 C 0.79994 0.32512 0.69587
 C258 C 0.76578 0.30401 0.69949
 N259 N 0.77107 0.27599 0.73699
 C260 C 0.72920 0.31373 0.67349
 C261 C 0.69775 0.28775 0.67237
 C262 C 0.65882 0.29803 0.65669
 C263 C 0.63876 0.26372 0.65794
 C264 C 0.66643 0.23337 0.67266
 N265 N 0.70242 0.24821 0.68178
 C266 C 0.65950 0.19229 0.67295
 C267 C 0.68531 0.16422 0.69932
 C268 C 0.68546 0.12323 0.69309
 C269 C 0.71338 0.10681 0.72789
 C270 C 0.72937 0.13831 0.75415
 N271 N 0.71204 0.17313 0.73673
 C272 C 0.75728 0.13452 0.79548
 H273 H 0.79642 0.14611 0.89345
 H274 H 0.83122 0.21418 0.89848
 H275 H 0.71521 0.20107 0.75339
 H276 H 0.85641 0.31913 0.73973
 H277 H 0.80486 0.35026 0.67111
 H278 H 0.64592 0.32700 0.64542
 H279 H 0.60738 0.26156 0.64872
 H280 H 0.72085 0.07532 0.73343
 H281 H 0.74872 0.25980 0.75308
 H282 H 0.66739 0.10681 0.66638
 C283 C 0.34656 0.68073 0.69227
 C284 C 0.37112 0.71195 0.69252
 C285 C 0.34901 0.74466 0.71273
 N286 N 0.31198 0.73411 0.72598
 C287 C 0.31051 0.69490 0.71382
 C288 C 0.36188 0.78411 0.71491
 C289 C 0.34110 0.81475 0.74377
 C290 C 0.34478 0.85527 0.73681
 C291 C 0.32126 0.87482 0.77411
 C292 C 0.30389 0.84568 0.80253
 N293 N 0.31637 0.80914 0.78419
 C294 C 0.27765 0.85319 0.84476
 C295 C 0.25400 0.82391 0.86481
 C296 C 0.23089 0.82869 0.90932
 C297 C 0.20670 0.79728 0.91001
 C298 C 0.21593 0.77462 0.86581
 N299 N 0.24496 0.79083 0.83834
 C300 C 0.19254 0.74438 0.84677
 C301 C 0.20512 0.71799 0.80618
 C302 C 0.18124 0.69107 0.78214
 C303 C 0.20486 0.67053 0.74570
 C304 C 0.24226 0.68618 0.74777
 N305 N 0.24235 0.71441 0.78561
 C306 C 0.27600 0.67268 0.71799
 H307 H 0.35467 0.65114 0.67759
 H308 H 0.40177 0.71046 0.67910
 H309 H 0.26743 0.72787 0.79972
 H310 H 0.36212 0.86944 0.70749
 H311 H 0.31717 0.90678 0.77945
 H312 H 0.23029 0.85318 0.93701
 H313 H 0.18359 0.79263 0.93838
 H314 H 0.19528 0.64683 0.72080
 H315 H 0.31135 0.78182 0.80110
 H316 H 0.15020 0.68637 0.79044
 C317 C 0.29387 0.36476 0.68566
 C318 C 0.32821 0.34018 0.68431
 C319 C 0.31832 0.30372 0.70356
 N320 N 0.27884 0.30485 0.71520
 C321 C 0.26368 0.34214 0.70390
 C322 C 0.34475 0.26931 0.70646
 C323 C 0.33668 0.23592 0.73689
 C324 C 0.35835 0.19940 0.73542
 C325 C 0.34380 0.17666 0.77481
 C326 C 0.31405 0.20015 0.79961
 N327 N 0.30998 0.23620 0.77629
 C328 C 0.29287 0.18907 0.84433
 C329 C 0.25721 0.21054 0.86008
 C330 C 0.23808 0.20658 0.90756
 C331 C 0.20192 0.22804 0.90381
 C332 C 0.20095 0.24548 0.85505
 N333 N 0.23455 0.23478 0.82827
 C334 C 0.16745 0.26690 0.83375
 C335 C 0.17034 0.29331 0.79159
 C336 C 0.13813 0.31069 0.76409
 C337 C 0.15371 0.33576 0.72801
 C338 C 0.19498 0.33274 0.73451
 N339 N 0.20482 0.30704 0.77360
 C340 C 0.22242 0.35471 0.70652
 H341 H 0.29179 0.39582 0.67464
 H342 H 0.35711 0.34856 0.67103
 H343 H 0.23312 0.30210 0.79033
 H344 H 0.38261 0.19016 0.70945
 H345 H 0.35424 0.14642 0.78413
 H346 H 0.24868 0.18973 0.94130
 H347 H 0.17893 0.23062 0.93346
 H348 H 0.13657 0.35377 0.69990
 H349 H 0.29345 0.26120 0.79039
 H350 H 0.10673 0.30597 0.76964
 C351 C 0.72474 0.68742 0.58637
 C352 C 0.75715 0.66028 0.58585
 C353 C 0.77616 0.66366 0.63380
 N354 N 0.75727 0.69256 0.66289
 C355 C 0.72586 0.70695 0.63399
 C356 C 0.80690 0.63723 0.65335
 C357 C 0.82931 0.64656 0.69786
 C358 C 0.85160 0.61906 0.72781
 C359 C 0.87042 0.64038 0.76563
 C360 C 0.85929 0.68031 0.75726
 N361 N 0.83391 0.68379 0.71609
 C362 C 0.87403 0.71262 0.78533
 C363 C 0.85172 0.74967 0.78796
 C364 C 0.86474 0.78455 0.80927
 C365 C 0.83173 0.81091 0.81210
 C366 C 0.80007 0.79180 0.79040
 N367 N 0.81234 0.75441 0.77578
 C368 C 0.75956 0.80597 0.79168
 C369 C 0.73002 0.79061 0.75880
 C370 C 0.68907 0.79939 0.76332
 C371 C 0.67084 0.77900 0.72389
 C372 C 0.70117 0.75862 0.69630
 N373 N 0.73718 0.76658 0.71696
 C374 C 0.69527 0.73340 0.65313
 H375 H 0.70250 0.69187 0.55574
 H376 H 0.76509 0.63978 0.55430
 H377 H 0.76516 0.75810 0.70149
 H378 H 0.85375 0.58698 0.72333
 H379 H 0.88955 0.62765 0.79621
 H380 H 0.89459 0.79043 0.82236
 H381 H 0.83145 0.84058 0.82854
 H382 H 0.63893 0.77895 0.71670
 H383 H 0.82374 0.71029 0.69806
 H384 H 0.67371 0.81862 0.79178
 N385 N 0.32419 0.15196 0.16892
 N386 N 0.33043 0.11862 0.14146
 C387 C 0.29412 0.10716 0.12688
 C388 C 0.26543 0.13425 0.14674
 N389 N 0.28536 0.16220 0.17213
 H390 H 0.23328 0.13385 0.14222
 N391 N 0.84945 0.58140 0.61878
 N392 N 0.84569 0.54762 0.59275
 C393 C 0.80606 0.54329 0.58763
 C394 C 0.78571 0.57502 0.61148
 N395 N 0.81371 0.59852 0.62970
 H396 H 0.75362 0.58153 0.61276
 N397 N 0.69521 0.87923 0.16596
 N398 N 0.69053 0.91094 0.13547
 C399 C 0.70783 0.90064 0.08962
 C400 C 0.72344 0.86181 0.09296
 N401 N 0.71520 0.84940 0.14142
 H402 H 0.73945 0.84459 0.06299
 N403 N 0.18022 0.41687 0.69854
 N404 N 0.17469 0.44780 0.66674
 C405 C 0.19940 0.44062 0.62592
 C406 C 0.21985 0.40423 0.63342
 N407 N 0.20756 0.39045 0.67955
 H408 H 0.24231 0.38980 0.60823
 N409 N 0.84078 0.32159 0.11817
 N410 N 0.87406 0.32744 0.09231
 C411 C 0.89209 0.29115 0.08310
 C412 C 0.86884 0.26278 0.10427
 N413 N 0.83697 0.28303 0.12579
 H414 H 0.87467 0.23073 0.10437
 N415 N 0.42382 0.81830 0.70259
 N416 N 0.45197 0.82197 0.66695
 C417 C 0.44213 0.79920 0.62597
 C418 C 0.40712 0.78173 0.63729
 N419 N 0.39668 0.79406 0.68568
 H420 H 0.39086 0.76201 0.61256
 N421 N 0.10072 0.71069 0.20958
 N422 N 0.07259 0.70162 0.17569
 C423 C 0.07962 0.72146 0.13149
 C424 C 0.11320 0.74257 0.13891
 N425 N 0.12550 0.73520 0.18837
 H426 H 0.12809 0.76016 0.11052
 N427 N 0.59968 0.15417 0.66256
 N428 N 0.56840 0.15284 0.63058
 C429 C 0.57520 0.17726 0.59042
 C430 C 0.61165 0.19295 0.59830
 N431 N 0.62575 0.17862 0.64414
 H432 H 0.62499 0.21534 0.57498
 N433 N 0.80292 0.08098 0.82732
 N434 N 0.80243 0.04936 0.85773
 C435 C 0.76371 0.04436 0.86887
 C436 C 0.74026 0.07378 0.84382
 N437 N 0.76603 0.09617 0.81872
 H438 H 0.70832 0.08055 0.84746
 N439 N 0.29397 0.63230 0.36967
 N440 N 0.29323 0.60006 0.39902
 C441 C 0.25616 0.60005 0.41941
 C442 C 0.23395 0.63329 0.40141
 N443 N 0.25870 0.65248 0.37043
 H444 H 0.20356 0.64337 0.41135
 N445 N 0.23362 0.91264 0.85454
 N446 N 0.22966 0.94468 0.88478
 C447 C 0.26358 0.94552 0.91332
 C448 C 0.28884 0.91311 0.89912
 N449 N 0.26891 0.89341 0.86229
 H450 H 0.31724 0.90310 0.91660
 N451 N 0.68367 0.39618 0.30138
 N452 N 0.68700 0.42425 0.33745
 C453 C 0.71672 0.41099 0.36991
 C454 C 0.73151 0.37417 0.35293
 N455 N 0.71029 0.36606 0.30998
 H456 H 0.75495 0.35487 0.37047
 N457 N 0.11622 0.22060 0.84890
 N458 N 0.08290 0.21808 0.87590
 C459 C 0.07422 0.25430 0.89727
 C460 C 0.10327 0.27941 0.88223
 N461 N 0.12880 0.25709 0.85194
 H462 H 0.10686 0.30985 0.89452
 N463 N 0.60268 0.70896 0.32171
 N464 N 0.57171 0.71328 0.35355
 C465 C 0.57603 0.74704 0.38116
 C466 C 0.61075 0.76346 0.36528
 N467 N 0.62631 0.73873 0.32808
 H468 H 0.62472 0.78901 0.38148
 N469 N 0.94037 0.67992 0.80022
 N470 N 0.96801 0.67590 0.83731
 C471 C 0.95604 0.70094 0.87617
 C472 C 0.92010 0.72024 0.86207
 N473 N 0.91108 0.70613 0.81428
 H474 H 0.90110 0.74002 0.88609
 N475 N 0.35114 0.31396 0.40527
 N476 N 0.38285 0.30767 0.43589
 C477 C 0.40456 0.27648 0.41537
 C478 C 0.38536 0.26387 0.37102
 N479 N 0.35180 0.28804 0.36598
 H480 H 0.39534 0.23982 0.34506
 N481 N 0.72243 0.81891 0.87160
 N482 N 0.71543 0.84743 0.90672
 C483 C 0.73638 0.87827 0.89179
 C484 C 0.75609 0.86827 0.84603
 N485 N 0.74650 0.83086 0.83478
 H486 H 0.77453 0.88655 0.82268
 N487 N 0.15991 0.43505 0.33489
 N488 N 0.15801 0.46321 0.37167
 C489 C 0.18730 0.45336 0.40655
 C490 C 0.20673 0.41830 0.39038
 N491 N 0.18929 0.40785 0.34522
 H492 H 0.23199 0.40249 0.40926
 N493 N 0.34466 0.14393 0.88498
 N494 N 0.34733 0.11157 0.91463
 C495 C 0.30959 0.10077 0.92159
 C496 C 0.28395 0.12686 0.89450
 N497 N 0.30675 0.15385 0.87289
 H498 H 0.25161 0.12686 0.89212
 N499 N 0.82714 0.59474 0.34640
 N500 N 0.82863 0.56199 0.37516
 C501 C 0.79040 0.55403 0.38478
 C502 C 0.76547 0.58268 0.36106
 N503 N 0.78947 0.60781 0.33784
 H504 H 0.73305 0.58515 0.36109
 N505 N 0.12789 0.77920 0.85710
 N506 N 0.09544 0.77770 0.88593
 C507 C 0.09876 0.74275 0.91153
 C508 C 0.13425 0.72240 0.89698
 N509 N 0.15151 0.74642 0.86298
 H510 H 0.14748 0.69459 0.91220
 N511 N 0.57855 0.17367 0.30035
 N512 N 0.55012 0.17096 0.33595
 C513 C 0.55881 0.19604 0.37511
 C514 C 0.59347 0.21363 0.36288
 N515 N 0.60478 0.19938 0.31570
 H516 H 0.60848 0.23552 0.38570
 N517 N 0.85471 0.31477 0.84171
 N518 N 0.88529 0.32242 0.87242
 C519 C 0.90503 0.28717 0.88267
 C520 C 0.88574 0.25761 0.85702
 N521 N 0.85418 0.27602 0.83217
 H522 H 0.89343 0.22585 0.85749
 N523 N 0.37011 0.85632 0.38633
 N524 N 0.40453 0.85627 0.41238
 C525 C 0.41922 0.81803 0.41433
 C526 C 0.39308 0.79478 0.38841
 N527 N 0.36256 0.81959 0.37194
 H528 H 0.39532 0.76268 0.38368
 N529 N 0.20646 0.93217 0.19409
 N530 N 0.20969 0.96227 0.16156
 C531 C 0.24126 0.95244 0.13056
 C532 C 0.25722 0.91524 0.14476
 N533 N 0.23462 0.90363 0.18462
 H534 H 0.28206 0.89795 0.12718
 N535 N 0.69592 0.37969 0.66051
 N536 N 0.69684 0.41018 0.62809
 C537 C 0.72620 0.40077 0.59348
 C538 C 0.74325 0.36355 0.60546
 N539 N 0.72353 0.35147 0.64758
 H540 H 0.76724 0.34674 0.58537
 N541 N 0.67599 0.11868 0.10143
 N542 N 0.67317 0.08747 0.07047
 C543 C 0.71030 0.06988 0.06596
 C544 C 0.73642 0.09155 0.09512
 N545 N 0.71354 0.12182 0.11647
 H546 H 0.76836 0.08585 0.10066
 N547 N 0.30133 0.60412 0.70061
 N548 N 0.29557 0.57450 0.66757
 C549 C 0.26481 0.58674 0.63613
 C550 C 0.25194 0.62505 0.65081
 N551 N 0.27556 0.63480 0.69121
 H552 H 0.22869 0.64434 0.63291
 N553 N 0.86028 0.66249 0.08271
 N554 N 0.89463 0.65808 0.05718
 C555 C 0.91783 0.68644 0.07550
 C556 C 0.89660 0.70857 0.11279
 N557 N 0.86080 0.69272 0.11612
 H558 H 0.90622 0.73372 0.13514
 N559 N 0.41118 0.29227 0.68955
 N560 N 0.44045 0.28680 0.65514
 C561 C 0.42937 0.25859 0.62127
 C562 C 0.39219 0.24699 0.63578
 N563 N 0.38194 0.26878 0.67852
 H564 H 0.37385 0.22590 0.61640
 N565 N 0.09288 0.23740 0.17779
 N566 N 0.06246 0.23257 0.14556
 C567 C 0.05881 0.26530 0.11538
 C568 C 0.08788 0.29063 0.13036
 N569 N 0.10835 0.27211 0.16961
 H570 H 0.09547 0.31802 0.11189
 N571 N 0.63796 0.69519 0.63223
 N572 N 0.60316 0.69922 0.60739
 C573 C 0.59866 0.73743 0.59169
 C574 C 0.63182 0.75691 0.60785
 N575 N 0.65555 0.72940 0.63301
 H576 H 0.63878 0.78735 0.60030
   
