data_POSCAR
  _audit_creation_date              2014-09-24
  _audit_creation_method            'ToBaCCo'
  _symmetry_space_group_name_H-M    'P1'
  _symmetry_Int_Tables_number       1
  _symmetry_cell_setting            triclinic
  loop_
  _symmetry_equiv_pos_as_xyz
 x,y,z
_cell_length_a 31.0685
_cell_length_b 31.3321
_cell_length_c 31.7294
_cell_angle_alpha 88.511600
_cell_angle_beta 90.736300
_cell_angle_gamma 89.618300
loop_
  _atom_site_label
  _atom_site_type_symbol
  _atom_site_fract_x
  _atom_site_fract_y
  _atom_site_fract_z
C1 C 0.16616 0.54981 1.02817
 H2 H 0.16904 0.56919 0.99965
 C3 C 0.12902 0.55269 1.05221
 H4 H 0.10394 0.57510 1.04226
 C5 C 0.19412 0.49489 1.07354
 H6 H 0.21840 0.47077 1.08038
 C7 C 0.15802 0.49759 1.09933
 H8 H 0.15581 0.47536 1.12582
 N9 N 0.19727 0.52057 1.03853
 C10 C 0.30651 0.55149 0.95875
 H11 H 0.30012 0.52897 0.93421
 C12 C 0.34618 0.57193 0.96026
 H13 H 0.36925 0.56635 0.93566
 C14 C 0.28607 0.58198 1.02311
 H15 H 0.26370 0.58331 1.04890
 C16 C 0.32564 0.60294 1.02602
 H17 H 0.33220 0.62121 1.05375
 Zn18 Zn 0.23807 0.51126 0.99591
 N19 N 0.27778 0.55612 0.99027
 C20 C 0.20399 0.53340 0.91415
 N21 N 0.20487 0.50379 0.94630
 C22 C 0.17593 0.47146 0.94802
 C23 C 0.14318 0.46907 0.91768
 C24 C 0.17193 0.53195 0.88285
 C25 C 0.30063 0.46886 1.04268
 C26 C 0.33884 0.44549 1.04683
 C27 C 0.32157 0.41111 0.98151
 C28 C 0.28360 0.43533 0.97852
 N29 N 0.27457 0.46431 1.00836
 H30 H 0.22646 0.55958 0.91405
 H31 H 0.17697 0.44880 0.97433
 H32 H 0.12005 0.44348 0.92015
 H33 H 0.17063 0.55654 0.85822
 H34 H 0.29371 0.49348 1.06494
 H35 H 0.36032 0.45125 1.07322
 H36 H 0.32950 0.39050 0.95588
 H37 H 0.26354 0.43378 0.95051
 C38 C 0.35686 0.59700 0.99477
 C39 C 0.12417 0.52616 1.08816
 C40 C 0.35040 0.41715 1.01545
 C41 C 0.14006 0.50051 0.88537
 C42 C 0.80585 0.54052 -0.04444
 H43 H 0.80009 0.56401 -0.02073
 C44 C 0.84118 0.54481 -0.07082
 H45 H 0.86184 0.57232 -0.06792
 C46 C 0.78868 0.47372 -0.07352
 H47 H 0.76978 0.44486 -0.07244
 C48 C 0.82374 0.47680 -0.10070
 H49 H 0.83079 0.45028 -0.12069
 N50 N 0.78127 0.50484 -0.04536
 C51 C 0.68414 0.53201 0.04846
 H52 H 0.69400 0.50843 0.07222
 C53 C 0.64523 0.55391 0.05260
 H54 H 0.62602 0.54810 0.08040
 C55 C 0.69540 0.56516 -0.01844
 H56 H 0.71374 0.56733 -0.04714
 C57 C 0.65661 0.58776 -0.01560
 H58 H 0.64628 0.60772 -0.04219
 Zn59 Zn 0.74869 0.49413 0.00343
 N60 N 0.70794 0.53746 0.01310
 C61 C 0.79677 0.51965 0.07552
 N62 N 0.79064 0.48871 0.04681
 C63 C 0.82033 0.45728 0.04169
 C64 C 0.85877 0.45691 0.06487
 C65 C 0.83485 0.52040 0.09958
 C66 C 0.68341 0.44779 -0.03144
 C67 C 0.64805 0.42067 -0.02997
 C68 C 0.67870 0.38657 0.03281
 C69 C 0.71338 0.41473 0.03040
 N70 N 0.71444 0.44519 -0.00088
 H71 H 0.77356 0.54532 0.07776
 H72 H 0.81523 0.43393 0.01762
 H73 H 0.88267 0.43245 0.05923
 H74 H 0.83995 0.54660 0.12056
 H75 H 0.68467 0.47297 -0.05537
 H76 H 0.62321 0.42400 -0.05407
 H77 H 0.67726 0.36346 0.05873
 H78 H 0.73770 0.41419 0.05509
 C79 C 0.63055 0.58163 0.02008
 C80 C 0.85138 0.51215 -0.09843
 C81 C 0.64461 0.39071 0.00347
 C82 C 0.86686 0.48911 0.09370
 C83 C -0.03967 0.31187 0.44855
 H84 H -0.05929 0.31253 0.47644
 C85 C -0.04017 0.34671 0.42039
 H86 H -0.06176 0.37306 0.42630
 C87 C 0.01323 0.27693 0.40855
 H88 H 0.03578 0.25087 0.40530
 C89 C 0.01247 0.31048 0.37852
 H90 H 0.03394 0.30924 0.35193
 N91 N -0.01183 0.27888 0.44330
 C92 C -0.04683 0.18397 0.53904
 H93 H -0.02282 0.19131 0.56272
 C94 C -0.07031 0.14632 0.54290
 H95 H -0.06533 0.12569 0.57049
 C96 C -0.07866 0.19956 0.47207
 H97 H -0.07945 0.21890 0.44334
 C98 C -0.10280 0.16205 0.47461
 H99 H -0.12264 0.15388 0.44783
 Zn100 Zn -0.00305 0.24432 0.49231
 N101 N -0.05054 0.20906 0.50358
 C102 C -0.02390 0.29334 0.56343
 N103 N 0.00733 0.28408 0.53537
 C104 C 0.04175 0.31014 0.52993
 C105 C 0.04491 0.34807 0.55198
 C106 C -0.02203 0.33104 0.58614
 C107 C 0.03507 0.17580 0.45528
 C108 C 0.05891 0.13804 0.45439
 C109 C 0.09747 0.15971 0.51678
 C110 C 0.07283 0.19737 0.51639
 N111 N 0.04195 0.20430 0.48620
 H112 H -0.05197 0.27325 0.56583
 H113 H 0.06528 0.30290 0.50627
 H114 H 0.07179 0.36913 0.54602
 H115 H -0.04865 0.33859 0.60629
 H116 H 0.00903 0.18115 0.43278
 H117 H 0.05191 0.11525 0.43017
 H118 H 0.12024 0.15410 0.54238
 H119 H 0.07632 0.21950 0.54177
 C120 C -0.09772 0.13418 0.50995
 C121 C -0.01232 0.34723 0.38575
 C122 C 0.08999 0.12902 0.48578
 C123 C 0.01238 0.35954 0.57988
 C124 C 0.96202 0.68333 0.53108
 H125 H 0.93739 0.69262 0.50817
 C126 C 0.95944 0.64386 0.55239
 H127 H 0.93200 0.62358 0.54664
 C128 C 1.02951 0.69691 0.56341
 H129 H 1.05790 0.71655 0.56562
 C130 C 1.02817 0.65763 0.58553
 H131 H 1.05550 0.64820 0.60514
 N132 N 0.99699 0.70860 0.53631
 C133 C 0.96388 0.82087 0.45743
 H134 H 0.98797 0.81585 0.43371
 C135 C 0.94018 0.85875 0.45669
 H136 H 0.94529 0.88210 0.43150
 C137 C 0.93100 0.79795 0.52100
 H138 H 0.92949 0.77519 0.54714
 C139 C 0.90650 0.83569 0.52153
 H140 H 0.88575 0.84087 0.54802
 Zn141 Zn 1.00483 0.75151 0.49390
 N142 N 0.95939 0.79165 0.48946
 C143 C 0.97900 0.72066 0.41389
 N144 N 1.01043 0.72057 0.44415
 C145 C 1.04290 0.69127 0.44474
 C146 C 1.04313 0.65864 0.41572
 C147 C 0.97833 0.68880 0.38383
 C148 C 1.05133 0.80912 0.53975
 C149 C 1.07493 0.84663 0.54317
 C150 C 1.10329 0.83527 0.47377
 C151 C 1.07903 0.79789 0.47165
 N152 N 1.05289 0.78629 0.50396
 H153 H 0.95278 0.74343 0.41480
 H154 H 1.06699 0.69158 0.46965
 H155 H 1.06835 0.63463 0.41767
 H156 H 0.95204 0.68788 0.36111
 H157 H 1.02884 0.80020 0.56414
 H158 H 1.07161 0.86553 0.57107
 H159 H 1.12149 0.84524 0.44648
 H160 H 1.07808 0.78044 0.44270
 C161 C 0.91165 0.86708 0.48933
 C162 C 0.99307 0.63007 0.57945
 C163 C 1.10032 0.86088 0.50948
 C164 C 1.00950 0.65622 0.38592
 C165 C 0.45640 -0.03645 0.31957
 H166 H 0.48228 -0.05970 0.31904
 C167 C 0.42975 -0.03481 0.35454
 H168 H 0.43439 -0.05801 0.38007
 C169 C 0.42020 0.02290 0.28721
 H170 H 0.41779 0.04635 0.26168
 C171 C 0.39248 0.02541 0.32145
 H172 H 0.36813 0.05031 0.32159
 N173 N 0.45178 -0.00734 0.28727
 C174 C 0.52885 -0.05091 0.18403
 H175 H 0.55064 -0.02415 0.18232
 C176 C 0.52711 -0.07936 0.15116
 H177 H 0.54929 -0.07497 0.12543
 C178 C 0.47325 -0.08771 0.21987
 H179 H 0.45101 -0.08954 0.24576
 C180 C 0.47137 -0.11793 0.18815
 H181 H 0.44807 -0.14344 0.19047
 Zn182 Zn 0.49743 -0.00505 0.24872
 N183 N 0.50106 -0.05451 0.21658
 C184 C 0.57854 -0.02863 0.28473
 N185 N 0.54710 0.00176 0.28233
 C186 C 0.54559 0.03401 0.31013
 C187 C 0.57484 0.03500 0.34378
 C188 C 0.60887 -0.02850 0.31764
 C189 C 0.45684 0.03511 0.18063
 C190 C 0.45540 0.05850 0.14264
 C191 C 0.52237 0.09186 0.16230
 C192 C 0.52258 0.06768 0.20000
 N193 N 0.49050 0.03941 0.20795
 H194 H 0.57853 -0.05444 0.26277
 H195 H 0.51982 0.05737 0.30771
 H196 H 0.57225 0.06012 0.36641
 H197 H 0.63270 -0.05386 0.32034
 H198 H 0.43259 0.01128 0.18710
 H199 H 0.42915 0.05345 0.12057
 H200 H 0.54948 0.11232 0.15569
 H201 H 0.54986 0.06926 0.22140
 C202 C 0.49676 -0.11251 0.15201
 C203 C 0.39810 -0.00271 0.35627
 C204 C 0.48880 0.08667 0.13261
 C205 C 0.60591 0.00244 0.34866
 C206 C 0.56034 -0.03759 0.69834
 H207 H 0.53369 -0.05940 0.70180
 C208 C 0.58737 -0.04060 0.66384
 H209 H 0.58233 -0.06589 0.64174
 C210 C 0.59714 0.02378 0.72155
 H211 H 0.59912 0.05021 0.74271
 C212 C 0.62524 0.02169 0.68761
 H213 H 0.64957 0.04600 0.68349
 N214 N 0.56477 -0.00498 0.72544
 C215 C 0.46664 -0.03520 0.81699
 H216 H 0.44421 -0.00970 0.80872
 C217 C 0.46092 -0.05933 0.85391
 H218 H 0.43324 -0.05309 0.87330
 C219 C 0.53258 -0.07085 0.80414
 H220 H 0.56178 -0.07307 0.78612
 C221 C 0.52812 -0.09581 0.84095
 H222 H 0.55391 -0.11756 0.85018
 Zn223 Zn 0.51607 0.00577 0.75791
 N224 N 0.50254 -0.04057 0.79365
 C225 C 0.44167 -0.01191 0.70957
 N226 N 0.47250 0.01746 0.71751
 C227 C 0.48000 0.05059 0.69013
 C228 C 0.45744 0.05397 0.65187
 C229 C 0.41815 -0.00961 0.67176
 C230 C 0.55693 0.04458 0.82391
 C231 C 0.55736 0.06685 0.86137
 C232 C 0.49101 0.10183 0.83910
 C233 C 0.49198 0.07895 0.80187
 N234 N 0.52417 0.05038 0.79550
 H235 H 0.43767 -0.03904 0.73086
 H236 H 0.50581 0.07257 0.69666
 H237 H 0.46521 0.07937 0.62950
 H238 H 0.39582 -0.03495 0.66503
 H239 H 0.58100 0.02018 0.81892
 H240 H 0.58283 0.06052 0.88437
 H241 H 0.46355 0.12225 0.84437
 H242 H 0.46518 0.08133 0.77982
 C243 C 0.49246 -0.08912 0.86701
 C244 C 0.61903 -0.00949 0.65721
 C245 C 0.52359 0.09507 0.86997
 C246 C 0.42676 0.02314 0.64186
 C247 C 0.21844 -0.03952 0.49266
 C248 C 0.23949 -0.00117 0.50025
 C249 C 0.21573 0.03611 0.50635
 C250 C 0.17074 0.03573 0.50394
 C251 C 0.14946 -0.00340 0.49793
 C252 C 0.17346 -0.04128 0.49278
 C253 C 0.28652 -0.00029 0.50352
 C254 C 0.31159 -0.00441 0.46759
 C255 C 0.35676 -0.00333 0.47069
 C256 C 0.37631 0.00057 0.51072
 C257 C 0.35099 0.00428 0.54704
 C258 C 0.30615 0.00399 0.54297
 H259 H 0.23719 -0.06839 0.48851
 H260 H 0.23248 0.06573 0.51195
 H261 H 0.29556 -0.00909 0.43759
 H262 H 0.28632 0.00652 0.57069
 H263 H 0.11463 -0.00445 0.49732
 H264 H 0.41108 -0.00021 0.51355
 C265 C 0.78656 -0.04110 0.50733
 C266 C 0.76275 -0.00368 0.49952
 C267 C 0.78379 0.03500 0.49212
 C268 C 0.82873 0.03695 0.49396
 C269 C 0.85278 -0.00106 0.50062
 C270 C 0.83158 -0.04046 0.50654
 C271 C 0.71565 -0.00471 0.50026
 C272 C 0.69478 -0.01261 0.53838
 C273 C 0.64969 -0.01147 0.54010
 C274 C 0.62579 -0.00462 0.50257
 C275 C 0.64654 0.00217 0.46385
 C276 C 0.69171 0.00312 0.46321
 H277 H 0.76988 -0.07102 0.51265
 H278 H 0.76499 0.06395 0.48661
 H279 H 0.71398 -0.01928 0.56653
 H280 H 0.70853 0.01005 0.43417
 H281 H 0.88761 0.00004 0.50107
 H282 H 0.59092 -0.00444 0.50350
 C283 C 0.53056 0.30529 1.00119
 C284 C 0.49352 0.28034 1.00144
 C285 C 0.45288 0.29954 1.00006
 C286 C 0.44878 0.34399 0.99944
 C287 C 0.48621 0.36927 0.99919
 C288 C 0.52739 0.35006 1.00001
 C289 C 0.49733 0.23386 1.00151
 C290 C 0.50357 0.21096 1.03943
 C291 C 0.50589 0.16634 1.03985
 C292 C 0.50412 0.14481 1.00133
 C293 C 0.49905 0.16815 0.96289
 C294 C 0.49462 0.21256 0.96354
 H295 H 0.56153 0.28935 1.00030
 H296 H 0.42439 0.27973 0.99971
 H297 H 0.50533 0.22791 1.06876
 H298 H 0.49008 0.23083 0.93429
 H299 H 0.48336 0.40375 0.99732
 H300 H 0.50657 0.11032 1.00131
 C301 C 0.53561 0.70485 0.00872
 C302 C 0.49828 0.72847 0.01575
 C303 C 0.45943 0.70772 0.02327
 C304 C 0.45722 0.66317 0.02196
 C305 C 0.49523 0.63920 0.01589
 C306 C 0.53478 0.66025 0.00977
 C307 C 0.49936 0.77498 0.01105
 C308 C 0.50431 0.79334 -0.02914
 C309 C 0.50621 0.83754 -0.03466
 C310 C 0.50527 0.86344 0.00086
 C311 C 0.50074 0.84537 0.04173
 C312 C 0.49701 0.80070 0.04635
 H313 H 0.56552 0.72143 0.00259
 H314 H 0.43038 0.72644 0.02749
 H315 H 0.50598 0.77306 -0.05627
 H316 H 0.49469 0.78522 0.07710
 H317 H 0.49385 0.60470 0.01515
 H318 H 0.50849 0.89772 -0.00336
 C319 C 1.00788 0.54005 0.30561
 C320 C 1.00166 0.50223 0.28391
 C321 C 0.99449 0.46377 0.30611
 C322 C 0.99283 0.46293 0.35045
 C323 C 0.99791 0.50147 0.37177
 C324 C 1.00582 0.54000 0.34974
 C325 C 1.00102 0.50351 0.23769
 C326 C 1.03958 0.50397 0.21547
 C327 C 1.03940 0.50871 0.17131
 C328 C 0.99932 0.51096 0.14957
 C329 C 0.96037 0.50898 0.17194
 C330 C 0.96168 0.50618 0.21599
 H331 H 1.01446 0.56922 0.28788
 H332 H 0.98889 0.43522 0.28840
 H333 H 1.06980 0.50208 0.23297
 H334 H 0.93196 0.50567 0.23355
 H335 H 0.99652 0.50148 0.40592
 H336 H 0.99803 0.51345 0.11552
 C337 C 0.00531 0.53032 0.69886
 C338 C -0.00292 0.49201 0.72070
 C339 C -0.00791 0.45430 0.69864
 C340 C -0.00385 0.45423 0.65468
 C341 C 0.00304 0.49332 0.63256
 C342 C 0.00715 0.53167 0.65474
 C343 C -0.00724 0.49159 0.76674
 C344 C -0.04823 0.49076 0.78457
 C345 C -0.05284 0.49165 0.82835
 C346 C -0.01574 0.49166 0.85433
 C347 C 0.02564 0.49181 0.83685
 C348 C 0.02955 0.49208 0.79272
 H349 H 0.00875 0.55947 0.71626
 H350 H -0.01412 0.42474 0.71597
 H351 H -0.07654 0.49027 0.76425
 H352 H 0.06088 0.49135 0.77823
 H353 H 0.00500 0.49398 0.59851
 H354 H -0.01903 0.49084 0.88830
 C355 C 0.11170 0.08656 0.48586
 C356 C 0.14759 0.07686 0.50795
 H357 H 0.09862 0.06293 0.46499
 H358 H 0.16330 0.10107 0.52619
 C359 C 0.58731 0.60167 0.02368
 C360 C 0.57576 0.63752 0.00257
 H361 H 0.56532 0.58797 0.04649
 H362 H 0.59894 0.65375 -0.01719
 C363 C 0.89012 -0.09043 0.48928
 C364 C 0.85494 -0.08167 0.51146
 H365 H 0.90240 -0.06597 0.46793
 H366 H 0.83981 -0.10668 0.53001
 C367 C 0.39423 0.39810 1.01714
 C368 C 0.40497 0.36264 0.99711
 H369 H 0.41827 0.41334 1.03660
 H370 H 0.38038 0.34475 0.98094
 C371 C 0.88275 0.09102 0.51234
 C372 C 0.84909 0.07924 0.48872
 H373 H 0.89576 0.06846 0.53574
 H374 H 0.83298 0.10238 0.46800
 C375 C 0.40142 0.61390 -0.00243
 C376 C 0.41426 0.64341 0.02470
 H377 H 0.42434 0.60290 -0.02532
 H378 H 0.39143 0.65777 0.04558
 C379 C 0.11989 -0.09607 0.51150
 C380 C 0.15291 -0.08329 0.48772
 H381 H 0.10762 -0.07457 0.53480
 H382 H 0.16844 -0.10556 0.46721
 C383 C 0.60591 0.36389 1.00866
 C384 C 0.56627 0.37717 0.99656
 H385 H 0.61020 0.33344 1.02508
 H386 H 0.56177 0.40948 0.98425
 C387 C 0.48860 0.10775 1.09017
 C388 C 0.51002 0.14368 1.08116
 H389 H 0.46802 0.09444 1.06607
 H390 H 0.52731 0.15972 1.10591
 C391 C -0.00875 0.58617 0.59857
 C392 C 0.01329 0.57384 0.63343
 H393 H -0.03117 0.56395 0.58482
 H394 H 0.03263 0.59684 0.64990
 C395 C 0.48922 0.89125 -0.09025
 C396 C 0.51020 0.85566 -0.07778
 H397 H 0.46797 0.90652 -0.06827
 H398 H 0.52821 0.83751 -0.10024
 C399 C 0.99294 0.38385 0.35982
 C400 C 0.98568 0.42527 0.37429
 H401 H 1.00912 0.38015 0.33010
 H402 H 0.97855 0.42882 0.40736
 C403 C 0.49081 0.86054 0.11773
 C404 C 0.50237 0.87237 0.07638
 H405 H 0.47271 0.83154 0.12297
 H406 H 0.51119 0.90528 0.07003
 C407 C 0.01432 0.40227 0.59947
 C408 C -0.00816 0.41273 0.63354
 H409 H 0.03662 0.42533 0.58632
 H410 H -0.02759 0.38880 0.64925
 C411 C 0.52224 0.11413 0.91233
 C412 C 0.49765 0.14778 0.92142
 H413 H 0.54373 0.10088 0.93654
 H414 H 0.47890 0.16387 0.89677
 C415 C 1.00472 0.61870 0.35899
 C416 C 1.01322 0.57905 0.37400
 H417 H 0.98993 0.62347 0.32813
 H418 H 1.02358 0.57466 0.40659
 C419 C 1.08500 0.52753 0.10999
 C420 C 1.07927 0.51030 0.15072
 H421 H 1.05855 0.54527 0.09527
 H422 H 1.10764 0.50103 0.16899
 C423 C 0.64397 -0.00726 0.61789
 C424 C 0.62680 -0.01753 0.58044
 H425 H 0.67540 0.00736 0.61937
 H426 H 0.59358 -0.02769 0.57874
 C427 C -0.10643 0.51370 0.88024
 C428 C -0.09657 0.49111 0.84639
 H429 H -0.08222 0.53453 0.89329
 H430 H -0.12124 0.47327 0.83030
 C431 C 0.37073 0.00225 0.39371
 C432 C 0.38408 -0.00836 0.43310
 H433 H 0.33973 0.01763 0.38869
 H434 H 0.41681 -0.01954 0.43842
 C435 C 0.10342 0.50196 0.85493
 C436 C 0.06364 0.48957 0.86572
 H437 H 0.10886 0.51667 0.82425
 H438 H 0.05797 0.47897 0.89792
 C439 C 0.63406 -0.00114 0.38653
 C440 C 0.62029 0.00909 0.42495
 H441 H 0.66511 -0.01648 0.38318
 H442 H 0.58743 0.02008 0.42857
 C443 C 0.90991 0.49044 0.11448
 C444 C 0.91772 0.51036 0.15056
 H445 H 0.93573 0.47249 0.10043
 H446 H 0.89139 0.52486 0.16717
 C447 C 0.40758 0.02364 0.59883
 C448 C 0.36977 0.00554 0.59003
 H449 H 0.42483 0.04014 0.57389
 H450 H 0.35049 -0.00724 0.61552
   
