data_POSCAR
  _audit_creation_date              2014-09-24
  _audit_creation_method            'ToBaCCo'
  _symmetry_space_group_name_H-M    'P1'
  _symmetry_Int_Tables_number       1
  _symmetry_cell_setting            triclinic
  loop_
  _symmetry_equiv_pos_as_xyz
 x,y,z
_cell_length_a 30.9044
_cell_length_b 30.7742
_cell_length_c 39.7789
_cell_angle_alpha 89.659600
_cell_angle_beta 90.000300
_cell_angle_gamma 90.000400
loop_
  _atom_site_label
  _atom_site_type_symbol
  _atom_site_fract_x
  _atom_site_fract_y
  _atom_site_fract_z
B1 B 0.26519 0.24239 0.27936
 B2 B 0.21387 0.23427 0.26767
 B3 B 0.23065 0.28451 0.27698
 B4 B 0.28222 0.29062 0.26360
 B5 B 0.29668 0.24265 0.24495
 B6 B 0.25400 0.20760 0.24792
 B7 B 0.22834 0.27680 0.20975
 B8 B 0.27997 0.28518 0.22150
 B9 B 0.26295 0.23498 0.21202
 B10 B 0.21151 0.22864 0.22562
 B11 B 0.19716 0.27637 0.24399
 B12 B 0.23985 0.31169 0.24128
 B13 B 0.73901 0.78343 0.21738
 B14 B 0.72394 0.73258 0.22753
 B15 B 0.77598 0.74381 0.21940
 B16 B 0.78802 0.79356 0.23445
 B17 B 0.74177 0.81293 0.25257
 B18 B 0.70174 0.77502 0.24776
 B19 B 0.76569 0.73920 0.28642
 B20 B 0.78048 0.78990 0.27631
 B21 B 0.72832 0.77884 0.28428
 B22 B 0.71653 0.72896 0.26937
 B23 B 0.76281 0.70964 0.25131
 B24 B 0.80266 0.74766 0.25586
 B25 B 0.72833 0.22120 -0.28427
 B26 B 0.78049 0.21014 -0.27630
 B27 B 0.76570 0.26084 -0.28641
 B28 B 0.71654 0.27108 -0.26937
 B29 B 0.70175 0.22502 -0.24775
 B30 B 0.74179 0.18711 -0.25256
 B31 B 0.77599 0.25623 -0.21939
 B32 B 0.72394 0.26745 -0.22752
 B33 B 0.73901 0.21660 -0.21737
 B34 B 0.78803 0.20649 -0.23444
 B35 B 0.80267 0.25239 -0.25585
 B36 B 0.76281 0.29040 -0.25130
 B37 B 0.26519 0.75762 -0.27933
 B38 B 0.21387 0.76573 -0.26765
 B39 B 0.23065 0.71550 -0.27695
 B40 B 0.28222 0.70939 -0.26356
 B41 B 0.29668 0.75736 -0.24492
 B42 B 0.25399 0.79241 -0.24790
 B43 B 0.22834 0.72321 -0.20973
 B44 B 0.27997 0.71484 -0.22146
 B45 B 0.26294 0.76503 -0.21199
 B46 B 0.21151 0.77137 -0.22560
 B47 B 0.19716 0.72363 -0.24396
 B48 B 0.23985 0.68832 -0.24125
 B49 B 1.23901 1.28343 0.71738
 B50 B 1.22394 1.23258 0.72753
 B51 B 1.27598 1.24381 0.71940
 B52 B 1.28802 1.29356 0.73445
 B53 B 1.24177 1.31293 0.75257
 B54 B 1.20174 1.27502 0.74776
 B55 B 1.26569 1.23920 0.78642
 B56 B 1.28048 1.28990 0.77631
 B57 B 1.22832 1.27884 0.78427
 B58 B 1.21653 1.22896 0.76937
 B59 B 1.26281 1.20964 0.75131
 B60 B 1.30266 1.24766 0.75586
 B61 B 0.76519 0.74239 0.77936
 B62 B 0.71387 0.73427 0.76767
 B63 B 0.73065 0.78451 0.77698
 B64 B 0.78222 0.79062 0.76359
 B65 B 0.79668 0.74265 0.74495
 B66 B 0.75400 0.70760 0.74792
 B67 B 0.72834 0.77680 0.70975
 B68 B 0.77997 0.78518 0.72150
 B69 B 0.76295 0.73498 0.71202
 B70 B 0.71151 0.72864 0.72562
 B71 B 0.69716 0.77637 0.74399
 B72 B 0.73985 0.81169 0.74128
 B73 B 1.22833 0.72120 0.21573
 B74 B 1.28049 0.71014 0.22370
 B75 B 1.26570 0.76084 0.21359
 B76 B 1.21654 0.77108 0.23063
 B77 B 1.20175 0.72502 0.25225
 B78 B 1.24179 0.68711 0.24744
 B79 B 1.27599 0.75623 0.28061
 B80 B 1.22394 0.76745 0.27248
 B81 B 1.23901 0.71660 0.28262
 B82 B 1.28803 0.70649 0.26556
 B83 B 1.30267 0.75239 0.24415
 B84 B 1.26281 0.79040 0.24870
 B85 B 0.76519 1.25762 0.22067
 B86 B 0.71387 1.26573 0.23235
 B87 B 0.73065 1.21550 0.22305
 B88 B 0.78222 1.20939 0.23644
 B89 B 0.79668 1.25736 0.25508
 B90 B 0.75399 1.29241 0.25210
 B91 B 0.72834 1.22321 0.29027
 B92 B 0.77997 1.21484 0.27854
 B93 B 0.76294 1.26503 0.28801
 B94 B 0.71151 1.27137 0.27440
 B95 B 0.69716 1.22363 0.25604
 B96 B 0.73985 1.18832 0.25875
 O97 O 0.44947 1.08158 0.02540
 O98 O 0.54462 0.91957 0.02750
 O99 O 0.41242 0.94860 0.02053
 O100 O 0.58125 1.05234 0.01852
 O101 O 0.47088 0.92558 0.04150
 O102 O 0.52329 1.07382 0.04038
 O103 O 0.57061 0.98073 0.04289
 O104 O 0.42123 1.02169 0.04220
 C105 C 0.42661 1.06124 0.04616
 C106 C 0.56672 0.94120 0.04782
 C107 C 0.43114 0.92860 0.04338
 C108 C 0.56306 1.07141 0.04182
 O109 O 0.54462 1.08049 -0.02749
 O110 O 0.44947 0.91848 -0.02539
 O111 O 0.41242 1.05145 -0.02052
 O112 O 0.58126 0.94771 -0.01851
 O113 O 0.52329 0.92624 -0.04037
 O114 O 0.47088 1.07447 -0.04150
 O115 O 0.57060 1.01933 -0.04288
 O116 O 0.42122 0.97836 -0.04219
 Co117 Co 0.49713 1.07027 -0.00065
 Co118 Co 0.49713 0.92978 0.00066
 Co119 Co 0.42521 1.00003 0.00000
 Co120 Co 0.56749 1.00003 0.00000
 O121 O 0.49661 1.00003 0.00000
 C122 C 0.56671 1.05885 -0.04781
 C123 C 0.42661 0.93881 -0.04615
 C124 C 0.43114 1.07145 -0.04337
 C125 C 0.56306 0.92864 -0.04181
 O126 O 0.94947 0.58158 0.52540
 O127 O 1.04462 0.41957 0.52750
 O128 O 0.91242 0.44860 0.52053
 O129 O 1.08125 0.55234 0.51852
 O130 O 0.97088 0.42558 0.54150
 O131 O 1.02329 0.57382 0.54038
 O132 O 1.07061 0.48073 0.54289
 O133 O 0.92123 0.52169 0.54220
 C134 C 0.92661 0.56123 0.54616
 C135 C 1.06672 0.44120 0.54782
 C136 C 0.93114 0.42860 0.54338
 C137 C 1.06306 0.57141 0.54182
 O138 O 1.04462 0.58049 0.47251
 O139 O 0.94947 0.41848 0.47461
 O140 O 0.91242 0.55145 0.47948
 O141 O 1.08126 0.44771 0.48149
 O142 O 1.02329 0.42624 0.45963
 O143 O 0.97088 0.57447 0.45850
 O144 O 1.07060 0.51933 0.45712
 O145 O 0.92122 0.47836 0.45781
 Co146 Co 0.99713 0.57027 0.49935
 Co147 Co 0.99713 0.42978 0.50066
 Co148 Co 0.92521 0.50002 0.50000
 Co149 Co 1.06749 0.50003 0.50000
 O150 O 0.99661 0.50003 0.50000
 C151 C 1.06671 0.55885 0.45219
 C152 C 0.92661 0.43881 0.45385
 C153 C 0.93114 0.57144 0.45663
 C154 C 1.06306 0.42864 0.45819
 O155 O 1.02066 0.44990 0.06013
 O156 O 1.02066 0.55012 -0.06010
 O157 O 1.00814 0.41693 -0.04329
 O158 O 1.00814 0.58309 0.04332
 O159 O 1.03658 0.47610 -0.05770
 O160 O 1.03658 0.52392 0.05773
 O161 O 1.04007 0.57656 -0.01263
 O162 O 1.04007 0.42345 0.01266
 C163 C 1.04747 0.42898 0.04298
 C164 C 1.04746 0.57104 -0.04295
 C165 C 1.03802 0.43614 -0.05770
 C166 C 1.03802 0.56387 0.05773
 O167 O 0.94887 0.54258 0.06277
 O168 O 0.94887 0.45743 -0.06274
 O169 O 0.96160 0.41174 0.03830
 O170 O 0.96159 0.58827 -0.03827
 O171 O 0.93249 0.53124 -0.05601
 O172 O 0.93249 0.46877 0.05604
 O173 O 0.92941 0.57507 0.01730
 O174 O 0.92942 0.42494 -0.01727
 Co175 Co 0.98456 0.49663 0.05379
 Co176 Co 0.98456 0.50338 -0.05376
 Co177 Co 0.98473 0.42798 -0.00212
 Co178 Co 0.98472 0.57204 0.00215
 O179 O 0.98460 0.50001 0.00002
 C180 C 0.92310 0.56726 0.04756
 C181 C 0.92310 0.43275 -0.04753
 C182 C 0.93204 0.42881 0.05450
 C183 C 0.93203 0.57120 -0.05447
 O184 O 0.52066 0.94990 0.56013
 O185 O 0.52066 1.05012 0.43990
 O186 O 0.50814 0.91693 0.45671
 O187 O 0.50814 1.08309 0.54332
 O188 O 0.53658 0.97610 0.44230
 O189 O 0.53658 1.02392 0.55773
 O190 O 0.54007 1.07656 0.48737
 O191 O 0.54007 0.92345 0.51266
 C192 C 0.54747 0.92898 0.54298
 C193 C 0.54746 1.07104 0.45705
 C194 C 0.53802 0.93614 0.44230
 C195 C 0.53802 1.06387 0.55773
 O196 O 0.44887 1.04258 0.56277
 O197 O 0.44887 0.95743 0.43726
 O198 O 0.46160 0.91174 0.53830
 O199 O 0.46159 1.08827 0.46173
 O200 O 0.43249 1.03124 0.44399
 O201 O 0.43249 0.96877 0.55604
 O202 O 0.42941 1.07507 0.51730
 O203 O 0.42941 0.92494 0.48273
 Co204 Co 0.48456 0.99663 0.55379
 Co205 Co 0.48456 1.00338 0.44624
 Co206 Co 0.48473 0.92798 0.49788
 Co207 Co 0.48472 1.07204 0.50215
 O208 O 0.48460 1.00001 0.50002
 C209 C 0.42310 1.06726 0.54756
 C210 C 0.42310 0.93275 0.45247
 C211 C 0.43204 0.92881 0.55450
 C212 C 0.43203 1.07120 0.44553
 O213 O 1.09177 1.04996 0.47443
 O214 O 0.94401 1.05330 0.52030
 O215 O 1.00171 1.05075 0.43856
 O216 O 1.03550 1.06119 0.55395
 O217 O 0.94073 1.03655 0.46339
 O218 O 1.09685 1.04272 0.53226
 O219 O 0.96576 1.02474 0.56459
 O220 O 1.07244 1.01291 0.43392
 C221 C 1.08919 1.04644 0.44374
 C222 C 0.94722 1.05525 0.55103
 C223 C 0.96289 1.05977 0.44350
 C224 C 1.07447 1.06900 0.54931
 O225 O 1.09176 0.95004 0.52560
 O226 O 0.94399 0.94671 0.47973
 O227 O 1.03550 0.93881 0.44607
 O228 O 1.00171 0.94925 0.56147
 O229 O 0.94073 0.96346 0.53664
 O230 O 1.09685 0.95728 0.46776
 O231 O 1.07244 0.98709 0.56610
 O232 O 0.96576 0.97526 0.43544
 Co233 Co 1.08789 1.00000 0.50001
 Co234 Co 0.94900 1.00000 0.50001
 Co235 Co 1.01893 0.99500 0.44486
 Co236 Co 1.01893 1.00499 0.55517
 O237 O 1.01866 1.00000 0.50001
 C238 C 1.08918 0.95356 0.55628
 C239 C 0.94722 0.94476 0.44900
 C240 C 1.07447 0.93100 0.45071
 C241 C 0.96289 0.94023 0.55652
 O242 O 0.59177 0.54996 -0.02557
 O243 O 0.44401 0.55330 0.02030
 O244 O 0.50171 0.55075 -0.06144
 O245 O 0.53550 0.56119 0.05395
 O246 O 0.44073 0.53655 -0.03661
 O247 O 0.59685 0.54272 0.03226
 O248 O 0.46576 0.52474 0.06459
 O249 O 0.57244 0.51291 -0.06608
 C250 C 0.58919 0.54644 -0.05626
 C251 C 0.44722 0.55525 0.05103
 C252 C 0.46289 0.55977 -0.05650
 C253 C 0.57447 0.56900 0.04931
 O254 O 0.59176 0.45004 0.02560
 O255 O 0.44399 0.44671 -0.02027
 O256 O 0.53550 0.43881 -0.05393
 O257 O 0.50171 0.44925 0.06147
 O258 O 0.44073 0.46346 0.03664
 O259 O 0.59685 0.45728 -0.03224
 O260 O 0.57244 0.48709 0.06610
 O261 O 0.46576 0.47526 -0.06456
 Co262 Co 0.58789 0.50000 0.00001
 Co263 Co 0.44900 0.50000 0.00001
 Co264 Co 0.51893 0.49500 -0.05514
 Co265 Co 0.51893 0.50499 0.05517
 O266 O 0.51866 0.50000 0.00001
 C267 C 0.58918 0.45356 0.05628
 C268 C 0.44722 0.44476 -0.05100
 C269 C 0.57447 0.43100 -0.04929
 C270 C 0.46289 0.44023 0.05652
 C271 C 0.32480 1.15993 0.13559
 N272 N 0.32975 1.20375 0.13636
 N273 N 0.30841 1.22757 0.15875
 C274 C 0.28103 1.20860 0.18109
 N275 N 0.27538 1.16483 0.17979
 N276 N 0.29670 1.14095 0.15739
 C277 C 0.35130 1.13360 0.11276
 N278 N 0.34725 1.08962 0.11176
 N279 N 0.37193 1.06608 0.09120
 C280 C 0.40183 1.08571 0.07121
 N281 N 0.40597 1.12958 0.07245
 N282 N 0.38133 1.15305 0.09289
 C283 C 0.82480 0.65993 0.63559
 N284 N 0.79670 0.64095 0.65739
 N285 N 0.77538 0.66483 0.67979
 C286 C 0.78103 0.70860 0.68109
 N287 N 0.80840 0.72757 0.65875
 N288 N 0.82974 0.70375 0.63636
 C289 C 0.85130 0.63359 0.61276
 N290 N 0.88133 0.65305 0.59289
 N291 N 0.90597 0.62958 0.57245
 C292 C 0.90183 0.58571 0.57121
 N293 N 0.87193 0.56608 0.59120
 N294 N 0.84725 0.58962 0.61176
 C295 C 0.67788 0.85183 0.13686
 N296 N 0.70194 0.87348 0.15983
 N297 N 0.72395 0.85178 0.18331
 C298 C 0.72308 0.80765 0.18455
 N299 N 0.70026 0.78609 0.16077
 N300 N 0.67817 0.80773 0.13732
 C301 C 0.64915 0.87548 0.11379
 N302 N 0.62109 0.85338 0.09402
 N303 N 0.59389 0.87458 0.07383
 C304 C 0.59346 0.91867 0.07284
 N305 N 0.62142 0.94087 0.09271
 N306 N 0.64856 0.91962 0.11302
 C307 C 1.17788 0.35183 0.63686
 N308 N 1.17817 0.30772 0.63732
 N309 N 1.20026 0.28609 0.66077
 C310 C 1.22308 0.30765 0.68455
 N311 N 1.22395 0.35178 0.68331
 N312 N 1.20194 0.37348 0.65983
 C313 C 1.14915 0.37548 0.61379
 N314 N 1.14857 0.41962 0.61302
 N315 N 1.12142 0.44087 0.59271
 C316 C 1.09346 0.41867 0.57284
 N317 N 1.09389 0.37458 0.57383
 N318 N 1.12109 0.35338 0.59402
 C319 C 0.67788 1.14822 -0.13685
 N320 N 0.70194 1.12656 -0.15982
 N321 N 0.72394 1.14826 -0.18331
 C322 C 0.72308 1.19239 -0.18454
 N323 N 0.70028 1.21395 -0.16076
 N324 N 0.67818 1.19232 -0.13731
 C325 C 0.64915 1.12457 -0.11378
 N326 N 0.62109 1.14667 -0.09401
 N327 N 0.59390 1.12547 -0.07382
 C328 C 0.59346 1.08138 -0.07283
 N329 N 0.62141 1.05918 -0.09270
 N330 N 0.64856 1.08042 -0.11302
 C331 C 1.17788 0.64821 0.36315
 N332 N 1.17818 0.69232 0.36269
 N333 N 1.20028 0.71395 0.33924
 C334 C 1.22308 0.69239 0.31546
 N335 N 1.22394 0.64826 0.31669
 N336 N 1.20194 0.62656 0.34017
 C337 C 1.14915 0.62457 0.38622
 N338 N 1.14856 0.58042 0.38698
 N339 N 1.12141 0.55918 0.40730
 C340 C 1.09346 0.58138 0.42717
 N341 N 1.09390 0.62547 0.42618
 N342 N 1.12109 0.64667 0.40599
 C343 C 0.32479 0.84009 -0.13557
 N344 N 0.32975 0.79628 -0.13634
 N345 N 0.30841 0.77245 -0.15873
 C346 C 0.28103 0.79142 -0.18106
 N347 N 0.27536 0.83518 -0.17976
 N348 N 0.29668 0.85907 -0.15736
 C349 C 0.35130 0.86644 -0.11274
 N350 N 0.34724 0.91042 -0.11174
 N351 N 0.37192 0.93396 -0.09119
 C352 C 0.40182 0.91433 -0.07120
 N353 N 0.40598 0.87046 -0.07244
 N354 N 0.38133 0.84699 -0.09288
 C355 C 0.82479 0.34009 0.36443
 N356 N 0.82976 0.29628 0.36366
 N357 N 0.80842 0.27245 0.34127
 C358 C 0.78103 0.29142 0.31894
 N359 N 0.77536 0.33518 0.32024
 N360 N 0.79668 0.35907 0.34264
 C361 C 0.85130 0.36644 0.38726
 N362 N 0.84724 0.41042 0.38826
 N363 N 0.87192 0.43396 0.40881
 C364 C 0.90182 0.41433 0.42880
 N365 N 0.90598 0.37046 0.42756
 N366 N 0.88134 0.34699 0.40712
 C367 C 1.16616 0.34033 0.12604
 N368 N 1.17184 0.29641 0.12541
 N369 N 1.19236 0.27596 0.15060
 C370 C 1.20784 0.29881 0.17721
 N371 N 1.20230 0.34254 0.17738
 N372 N 1.18204 0.36281 0.15243
 C373 C 1.13945 0.36390 0.10120
 N374 N 1.12767 0.40539 0.10801
 N375 N 1.10005 0.42662 0.08828
 C376 C 1.08355 0.40757 0.06049
 N377 N 1.09596 0.36629 0.05302
 N378 N 1.12341 0.34474 0.07309
 C379 C 0.66616 0.84033 0.62604
 N380 N 0.67184 0.79641 0.62541
 N381 N 0.69236 0.77596 0.65060
 C382 C 0.70784 0.79881 0.67721
 N383 N 0.70230 0.84254 0.67738
 N384 N 0.68204 0.86280 0.65243
 C385 C 0.63945 0.86390 0.60120
 N386 N 0.62767 0.90539 0.60801
 N387 N 0.60005 0.92661 0.58828
 C388 C 0.58355 0.90756 0.56049
 N389 N 0.59596 0.86629 0.55302
 N390 N 0.62341 0.84474 0.57309
 C391 C 1.16616 0.65969 -0.12601
 N392 N 1.17183 0.70360 -0.12538
 N393 N 1.19235 0.72406 -0.15058
 C394 C 1.20783 0.70120 -0.17719
 N395 N 1.20230 0.65747 -0.17735
 N396 N 1.18205 0.63721 -0.15240
 C397 C 1.13944 0.63612 -0.10117
 N398 N 1.12767 0.59462 -0.10798
 N399 N 1.10005 0.57340 -0.08825
 C400 C 1.08354 0.59245 -0.06046
 N401 N 1.09596 0.63373 -0.05299
 N402 N 1.12340 0.65528 -0.07306
 C403 C 0.66616 1.15969 0.37399
 N404 N 0.68204 1.13721 0.34760
 N405 N 0.70230 1.15747 0.32265
 C406 C 0.70783 1.20120 0.32281
 N407 N 0.69235 1.22406 0.34942
 N408 N 0.67183 1.20360 0.37462
 C409 C 0.63944 1.13612 0.39883
 N410 N 0.62340 1.15528 0.42693
 N411 N 0.59596 1.13373 0.44701
 C412 C 0.58354 1.09245 0.43954
 N413 N 0.60005 1.07340 0.41175
 N414 N 0.62767 1.09462 0.39202
 C415 C 0.83318 0.67310 0.13826
 N416 N 0.80815 0.70838 0.13117
 N417 N 0.79165 0.73233 0.15607
 C418 C 0.80033 0.72219 0.18875
 N419 N 0.82613 0.68762 0.19545
 N420 N 0.84218 0.66366 0.17081
 C421 C 0.85046 0.64409 0.11223
 N422 N 0.86587 0.60475 0.12194
 N423 N 0.88614 0.57919 0.10030
 C424 C 0.89182 0.59168 0.06789
 N425 N 0.87538 0.63064 0.05767
 N426 N 0.85476 0.65635 0.07947
 C427 C 0.33319 1.17310 0.63826
 N428 N 0.34218 1.16366 0.67081
 N429 N 0.32613 1.18762 0.69545
 C430 C 0.30033 1.22219 0.68875
 N431 N 0.29165 1.23233 0.65607
 N432 N 0.30815 1.20838 0.63117
 C433 C 0.35046 1.14408 0.61223
 N434 N 0.35476 1.15635 0.57947
 N435 N 0.37538 1.13064 0.55767
 C436 C 0.39182 1.09168 0.56789
 N437 N 0.38614 1.07919 0.60030
 N438 N 0.36587 1.10475 0.62194
 C439 C 0.83318 0.32693 -0.13824
 N440 N 0.80816 0.29164 -0.13116
 N441 N 0.79167 0.26770 -0.15606
 C442 C 0.80033 0.27785 -0.18874
 N443 N 0.82612 0.31244 -0.19543
 N444 N 0.84216 0.33639 -0.17079
 C445 C 0.85046 0.35594 -0.11220
 N446 N 0.86585 0.39528 -0.12190
 N447 N 0.88612 0.42084 -0.10026
 C448 C 0.89182 0.40834 -0.06785
 N449 N 0.87539 0.36937 -0.05765
 N450 N 0.85477 0.34366 -0.07945
 C451 C 0.33318 0.82693 0.36176
 N452 N 0.30816 0.79164 0.36884
 N453 N 0.29167 0.76770 0.34394
 C454 C 0.30033 0.77785 0.31126
 N455 N 0.32612 0.81244 0.30457
 N456 N 0.34216 0.83639 0.32921
 C457 C 0.35046 0.85594 0.38780
 N458 N 0.36585 0.89528 0.37810
 N459 N 0.38612 0.92084 0.39974
 C460 C 0.39182 0.90834 0.43215
 N461 N 0.37539 0.86937 0.44235
 N462 N 0.35477 0.84366 0.42055
 C463 C 1.14641 1.16055 0.34216
 N464 N 1.16045 1.20117 0.34890
 N465 N 1.17873 1.22500 0.32484
 C466 C 1.18357 1.20941 0.29318
 N467 N 1.16875 1.16898 0.28628
 N468 N 1.15024 1.14509 0.31034
 C469 C 1.13038 1.13248 0.36917
 N470 N 1.11524 1.09254 0.36160
 N471 N 1.10256 1.06571 0.38587
 C472 C 1.10485 1.07746 0.41865
 N473 N 1.11996 1.11753 0.42647
 N474 N 1.13264 1.14460 0.40201
 C475 C 0.64641 0.66055 -0.15784
 N476 N 0.66045 0.70117 -0.15110
 N477 N 0.67873 0.72500 -0.17516
 C478 C 0.68357 0.70941 -0.20682
 N479 N 0.66875 0.66898 -0.21372
 N480 N 0.65024 0.64509 -0.18966
 C481 C 0.63038 0.63248 -0.13083
 N482 N 0.61524 0.59254 -0.13840
 N483 N 0.60256 0.56572 -0.11413
 C484 C 0.60485 0.57746 -0.08135
 N485 N 0.61996 0.61753 -0.07353
 N486 N 0.63264 0.64460 -0.09799
 C487 C 0.85722 1.15130 0.64684
 N488 N 0.87328 1.15517 0.67853
 N489 N 0.84907 1.17165 0.70313
 C490 C 0.80769 1.18404 0.69695
 N491 N 0.79190 1.17986 0.66527
 N492 N 0.81596 1.16357 0.64074
 C493 C 0.88310 1.13215 0.61995
 N494 N 0.86669 1.12767 0.58839
 N495 N 0.88844 1.10583 0.56495
 C496 C 0.92743 1.08802 0.57240
 N497 N 0.94417 1.09364 0.60362
 N498 N 0.92261 1.11550 0.62692
 C499 C 0.35722 0.65130 0.14684
 N500 N 0.37328 0.65517 0.17853
 N501 N 0.34907 0.67165 0.20313
 C502 C 0.30769 0.68404 0.19695
 N503 N 0.29190 0.67986 0.16527
 N504 N 0.31596 0.66357 0.14074
 C505 C 0.38310 0.63215 0.11995
 N506 N 0.36669 0.62767 0.08839
 N507 N 0.38844 0.60583 0.06495
 C508 C 0.42743 0.58802 0.07240
 N509 N 0.44417 0.59364 0.10362
 N510 N 0.42261 0.61551 0.12692
 C511 C 1.14640 0.83945 0.65786
 N512 N 1.16045 0.79883 0.65113
 N513 N 1.17874 0.77500 0.67518
 C514 C 1.18357 0.79059 0.70685
 N515 N 1.16874 0.83102 0.71374
 N516 N 1.15023 0.85490 0.68968
 C517 C 1.13037 0.86751 0.63086
 N518 N 1.11523 0.90745 0.63842
 N519 N 1.10255 0.93428 0.61415
 C520 C 1.10484 0.92253 0.58138
 N521 N 1.11996 0.88246 0.57355
 N522 N 1.13263 0.85539 0.59801
 C523 C 0.64640 0.33945 0.15786
 N524 N 0.66045 0.29883 0.15113
 N525 N 0.67874 0.27500 0.17518
 C526 C 0.68357 0.29059 0.20685
 N527 N 0.66875 0.33102 0.21374
 N528 N 0.65023 0.35490 0.18968
 C529 C 0.63038 0.36751 0.13086
 N530 N 0.61523 0.40745 0.13842
 N531 N 0.60255 0.43428 0.11415
 C532 C 0.60484 0.42253 0.08138
 N533 N 0.61996 0.38246 0.07355
 N534 N 0.63263 0.35539 0.09801
 C535 C 0.85720 0.84873 0.35318
 N536 N 0.87327 0.84485 0.32149
 N537 N 0.84907 0.82838 0.29689
 C538 C 0.80767 0.81601 0.30306
 N539 N 0.79188 0.82020 0.33473
 N540 N 0.81593 0.83649 0.35926
 C541 C 0.88308 0.86787 0.38007
 N542 N 0.86666 0.87236 0.41163
 N543 N 0.88841 0.89419 0.43507
 C544 C 0.92741 0.91198 0.42763
 N545 N 0.94417 0.90635 0.39641
 N546 N 0.92260 0.88450 0.37311
 C547 C 0.35720 0.34873 -0.14682
 N548 N 0.31593 0.33649 -0.14074
 N549 N 0.29187 0.32020 -0.16527
 C550 C 0.30767 0.31601 -0.19694
 N551 N 0.34907 0.32838 -0.20311
 N552 N 0.37327 0.34485 -0.17851
 C553 C 0.38308 0.36787 -0.11993
 N554 N 0.42260 0.38450 -0.12689
 N555 N 0.44417 0.40635 -0.10359
 C556 C 0.42741 0.41198 -0.07237
 N557 N 0.38841 0.39420 -0.06493
 N558 N 0.36666 0.37237 -0.08837
 C559 C 1.15504 0.34265 -0.13875
 N560 N 1.15372 0.29854 -0.14119
 N561 N 1.17748 0.27790 -0.16419
 C562 C 1.20340 0.30074 -0.18548
 N563 N 1.20454 0.34471 -0.18283
 N564 N 1.18109 0.36521 -0.15989
 C565 C 1.12674 0.36647 -0.11556
 N566 N 1.12823 0.41060 -0.11461
 N567 N 1.10067 0.43294 -0.09561
 C568 C 1.07050 0.41189 -0.07688
 N569 N 1.06929 0.36774 -0.07751
 N570 N 1.09689 0.34540 -0.09651
 C571 C 0.65504 0.84265 0.36125
 N572 N 0.65372 0.79854 0.35881
 N573 N 0.67748 0.77790 0.33581
 C574 C 0.70340 0.80074 0.31452
 N575 N 0.70455 0.84470 0.31717
 N576 N 0.68109 0.86521 0.34011
 C577 C 0.62674 0.86647 0.38444
 N578 N 0.62823 0.91060 0.38539
 N579 N 0.60067 0.93293 0.40439
 C580 C 0.57050 0.91189 0.42312
 N581 N 0.56929 0.86774 0.42249
 N582 N 0.59688 0.84540 0.40349
 C583 C 0.82569 0.67535 -0.13820
 N584 N 0.83768 0.71676 -0.14599
 N585 N 0.81742 0.73900 -0.17026
 C586 C 0.78406 0.72080 -0.18739
 N587 N 0.77176 0.67971 -0.17909
 N588 N 0.79202 0.65748 -0.15500
 C589 C 0.85099 0.64873 -0.11430
 N590 N 0.84426 0.60512 -0.11190
 N591 N 0.86932 0.58029 -0.09236
 C592 C 0.90197 0.59823 -0.07432
 N593 N 0.90831 0.64188 -0.07639
 N594 N 0.88344 0.66664 -0.09606
 C595 C 0.32569 1.17535 0.36180
 N596 N 0.33768 1.21676 0.35401
 N597 N 0.31742 1.23900 0.32974
 C598 C 0.28406 1.22080 0.31261
 N599 N 0.27176 1.17971 0.32091
 N600 N 0.29202 1.15748 0.34500
 C601 C 0.35099 1.14873 0.38570
 N602 N 0.34426 1.10512 0.38810
 N603 N 0.36932 1.08029 0.40764
 C604 C 0.40197 1.09823 0.42568
 N605 N 0.40831 1.14188 0.42361
 N606 N 0.38344 1.16664 0.40394
 C607 C 1.15505 0.65739 0.13876
 N608 N 1.18112 0.63483 0.15989
 N609 N 1.20458 0.65534 0.18282
 C610 C 1.20341 0.69930 0.18548
 N611 N 1.17748 0.72214 0.16420
 N612 N 1.15371 0.70149 0.14120
 C613 C 1.12675 0.63356 0.11557
 N614 N 1.09688 0.65462 0.09653
 N615 N 1.06929 0.63228 0.07754
 C616 C 1.07051 0.58813 0.07690
 N617 N 1.10068 0.56709 0.09563
 N618 N 1.12825 0.58943 0.11462
 C619 C 0.65505 1.15738 0.63876
 N620 N 0.65371 1.20149 0.64120
 N621 N 0.67748 1.22214 0.66420
 C622 C 0.70341 1.19930 0.68549
 N623 N 0.70458 1.15533 0.68282
 N624 N 0.68112 1.13482 0.65989
 C625 C 0.62675 1.13356 0.61557
 N626 N 0.62825 1.08942 0.61462
 N627 N 0.60068 1.06709 0.59563
 C628 C 0.57051 1.08813 0.57690
 N629 N 0.56929 1.13228 0.57754
 N630 N 0.59688 1.15462 0.59653
 C631 C 0.82570 0.32466 0.13823
 N632 N 0.79202 0.34253 0.15502
 N633 N 0.77176 0.32029 0.17911
 C634 C 0.78406 0.27920 0.18742
 N635 N 0.81743 0.26100 0.17030
 N636 N 0.83769 0.28324 0.14602
 C637 C 0.85100 0.35128 0.11433
 N638 N 0.88345 0.33337 0.09609
 N639 N 0.90832 0.35813 0.07642
 C640 C 0.90198 0.40178 0.07435
 N641 N 0.86933 0.41972 0.09239
 N642 N 0.84426 0.39489 0.11193
 C643 C 0.32570 0.82466 0.63823
 N644 N 0.29202 0.84253 0.65502
 N645 N 0.27176 0.82029 0.67911
 C646 C 0.28406 0.77920 0.68742
 N647 N 0.31743 0.76100 0.67030
 N648 N 0.33769 0.78324 0.64602
 C649 C 0.35100 0.85128 0.61433
 N650 N 0.38345 0.83337 0.59609
 N651 N 0.40832 0.85813 0.57642
 C652 C 0.40198 0.90177 0.57435
 N653 N 0.36933 0.91972 0.59239
 N654 N 0.34426 0.89489 0.61193
 C655 C 0.32981 1.16913 -0.13469
 N656 N 0.28922 1.15707 -0.14418
 N657 N 0.26740 1.18013 -0.16721
 C658 C 0.28514 1.21651 -0.18101
 N659 N 0.32536 1.22853 -0.17094
 N660 N 0.34715 1.20557 -0.14824
 C661 C 0.35609 1.14265 -0.11156
 N662 N 0.39916 1.15074 -0.10833
 N663 N 0.42353 1.12735 -0.08735
 C664 C 0.40565 1.09499 -0.06873
 N665 N 0.36262 1.08677 -0.07203
 N666 N 0.33830 1.10994 -0.09322
 C667 C 0.82981 0.66913 0.36531
 N668 N 0.78922 0.65707 0.35582
 N669 N 0.76740 0.68013 0.33280
 C670 C 0.78514 0.71651 0.31899
 N671 N 0.82536 0.72852 0.32906
 N672 N 0.84715 0.70557 0.35176
 C673 C 0.85609 0.64265 0.38844
 N674 N 0.89916 0.65074 0.39166
 N675 N 0.92353 0.62735 0.41265
 C676 C 0.90565 0.59499 0.43127
 N677 N 0.86262 0.58677 0.42797
 N678 N 0.83830 0.60994 0.40678
 C679 C 0.66361 1.15083 0.14297
 N680 N 0.70545 1.16354 0.13826
 N681 N 0.72752 1.18283 0.16299
 C682 C 0.70850 1.18952 0.19333
 N683 N 0.66701 1.17611 0.19784
 N684 N 0.64503 1.15731 0.17327
 C685 C 0.63773 1.13096 0.11613
 N686 N 0.59415 1.12697 0.11987
 N687 N 0.57006 1.10842 0.09617
 C688 C 0.58882 1.09282 0.06792
 N689 N 0.63240 1.09676 0.06416
 N690 N 0.65645 1.11564 0.08775
 C691 C 1.16361 0.65083 0.64297
 N692 N 1.20545 0.66354 0.63826
 N693 N 1.22752 0.68282 0.66299
 C694 C 1.20850 0.68952 0.69333
 N695 N 1.16701 0.67611 0.69784
 N696 N 1.14503 0.65731 0.67327
 C697 C 1.13773 0.63095 0.61613
 N698 N 1.09415 0.62697 0.61987
 N699 N 1.07006 0.60842 0.59617
 C700 C 1.08882 0.59282 0.56792
 N701 N 1.13240 0.59676 0.56416
 N702 N 1.15645 0.61564 0.58775
 C703 C 0.66360 0.84918 -0.14295
 N704 N 0.64502 0.84268 -0.17324
 N705 N 0.66700 0.82386 -0.19780
 C706 C 0.70849 0.81048 -0.19330
 N707 N 0.72752 0.81721 -0.16297
 N708 N 0.70545 0.83649 -0.13824
 C709 C 0.63773 0.86907 -0.11611
 N710 N 0.65645 0.88441 -0.08774
 N711 N 0.63240 0.90329 -0.06415
 C712 C 0.58882 0.90722 -0.06791
 N713 N 0.57006 0.89160 -0.09615
 N714 N 0.59415 0.87305 -0.11985
 C715 C 1.16361 0.34918 0.35705
 N716 N 1.14502 0.34268 0.32676
 N717 N 1.16700 0.32386 0.30220
 C718 C 1.20849 0.31048 0.30670
 N719 N 1.22752 0.31721 0.33703
 N720 N 1.20545 0.33649 0.36176
 C721 C 1.13773 0.36907 0.38389
 N722 N 1.15645 0.38441 0.41226
 N723 N 1.13240 0.40329 0.43585
 C724 C 1.08882 0.40722 0.43209
 N725 N 1.07006 0.39160 0.40385
 N726 N 1.09415 0.37305 0.38015
 C727 C 0.32982 0.83091 0.13470
 N728 N 0.28923 0.84297 0.14419
 N729 N 0.26741 0.81991 0.16721
 C730 C 0.28515 0.78353 0.18102
 N731 N 0.32538 0.77153 0.17096
 N732 N 0.34717 0.79449 0.14826
 C733 C 0.35610 0.85740 0.11157
 N734 N 0.39916 0.84931 0.10835
 N735 N 0.42354 0.87271 0.08736
 C736 C 0.40565 0.90506 0.06874
 N737 N 0.36262 0.91328 0.07203
 N738 N 0.33830 0.89010 0.09323
 C739 C 0.82982 0.33091 0.63470
 N740 N 0.78923 0.34297 0.64419
 N741 N 0.76741 0.31991 0.66721
 C742 C 0.78515 0.28353 0.68102
 N743 N 0.82538 0.27153 0.67096
 N744 N 0.84717 0.29449 0.64825
 C745 C 0.85610 0.35740 0.61157
 N746 N 0.89916 0.34931 0.60835
 N747 N 0.92354 0.37271 0.58736
 C748 C 0.90565 0.40506 0.56874
 N749 N 0.86262 0.41328 0.57203
 N750 N 0.83830 0.39010 0.59323
 C751 C 1.15596 1.16597 0.64968
 N752 N 1.19751 1.15570 0.65716
 N753 N 1.21758 1.17456 0.68276
 C754 C 1.19702 1.20447 0.70190
 N755 N 1.15495 1.21387 0.69504
 N756 N 1.13466 1.19472 0.66950
 C757 C 1.13482 1.14567 0.62075
 N758 N 1.09133 1.14815 0.61643
 N759 N 1.07213 1.12614 0.59182
 C760 C 1.09580 1.10151 0.57033
 N761 N 1.13941 1.10024 0.57407
 N762 N 1.15855 1.12200 0.59875
 C763 C 0.65596 0.66597 0.14968
 N764 N 0.63466 0.69472 0.16950
 N765 N 0.65495 0.71387 0.19504
 C766 C 0.69702 0.70447 0.20190
 N767 N 0.71758 0.67456 0.18276
 N768 N 0.69751 0.65570 0.15716
 C769 C 0.63482 0.64567 0.12075
 N770 N 0.65855 0.62200 0.09875
 N771 N 0.63941 0.60024 0.07407
 C772 C 0.59580 0.60151 0.07033
 N773 N 0.57213 0.62614 0.09182
 N774 N 0.59133 0.64815 0.11643
 C775 C 1.15596 0.83405 0.35033
 N776 N 1.19750 0.84433 0.34285
 N777 N 1.21758 0.82547 0.31725
 C778 C 1.19702 0.79556 0.29811
 N779 N 1.15495 0.78616 0.30496
 N780 N 1.13466 0.80531 0.33050
 C781 C 1.13482 0.85434 0.37926
 N782 N 1.09133 0.85186 0.38358
 N783 N 1.07213 0.87387 0.40819
 C784 C 1.09580 0.89849 0.42969
 N785 N 1.13940 0.89976 0.42595
 N786 N 1.15855 0.87801 0.40126
 C787 C 0.65596 0.33405 -0.14967
 N788 N 0.63466 0.30531 -0.16950
 N789 N 0.65495 0.28616 -0.19504
 C790 C 0.69702 0.29556 -0.20189
 N791 N 0.71758 0.32547 -0.18275
 N792 N 0.69750 0.34433 -0.15715
 C793 C 0.63482 0.35434 -0.12074
 N794 N 0.65855 0.37801 -0.09874
 N795 N 0.63940 0.39976 -0.07405
 C796 C 0.59580 0.39849 -0.07031
 N797 N 0.57213 0.37387 -0.09181
 N798 N 0.59133 0.35186 -0.11642
 C799 C 0.86555 1.15534 0.35000
 N800 N 0.82207 1.15201 0.35317
 N801 N 0.79598 1.16904 0.33012
 C802 C 0.81208 1.19003 0.30286
 N803 N 0.85576 1.19315 0.29940
 N804 N 0.88211 1.17577 0.32247
 C805 C 0.89311 1.13581 0.37599
 N806 N 0.93636 1.13041 0.37154
 N807 N 0.95965 1.10839 0.39420
 C808 C 0.94051 1.09148 0.42215
 N809 N 0.89760 1.09804 0.42689
 N810 N 0.87441 1.11985 0.40431
 C811 C 0.36555 0.65534 -0.15000
 N812 N 0.32207 0.65202 -0.14683
 N813 N 0.29598 0.66904 -0.16988
 C814 C 0.31208 0.69003 -0.19714
 N815 N 0.35576 0.69315 -0.20060
 N816 N 0.38211 0.67577 -0.17753
 C817 C 0.39311 0.63581 -0.12401
 N818 N 0.43636 0.63041 -0.12846
 N819 N 0.45965 0.60839 -0.10580
 C820 C 0.44051 0.59148 -0.07785
 N821 N 0.39760 0.59804 -0.07311
 N822 N 0.37441 0.61986 -0.09569
 C823 C 0.86554 0.84468 0.65004
 N824 N 0.82207 0.84804 0.64688
 N825 N 0.79598 0.83101 0.66993
 C826 C 0.81208 0.80999 0.69718
 N827 N 0.85576 0.80683 0.70062
 N828 N 0.88211 0.82421 0.67755
 C829 C 0.89311 0.86420 0.62404
 N830 N 0.93636 0.86959 0.62848
 N831 N 0.95965 0.89160 0.60582
 C832 C 0.94050 0.90852 0.57787
 N833 N 0.89759 0.90198 0.57314
 N834 N 0.87440 0.88017 0.59572
 C835 C 0.36554 0.34468 0.15004
 N836 N 0.32207 0.34804 0.14688
 N837 N 0.29598 0.33102 0.16993
 C838 C 0.31208 0.30999 0.19718
 N839 N 0.35576 0.30683 0.20062
 N840 N 0.38211 0.32421 0.17755
 C841 C 0.39311 0.36420 0.12404
 N842 N 0.43636 0.36959 0.12848
 N843 N 0.45965 0.39160 0.10581
 C844 C 0.44050 0.40852 0.07787
 N845 N 0.39759 0.40198 0.07314
 N846 N 0.37440 0.38017 0.09572
   
