data_POSCAR
  _audit_creation_date              2014-09-24
  _audit_creation_method            'ToBaCCo'
  _symmetry_space_group_name_H-M    'P1'
  _symmetry_Int_Tables_number       1
  _symmetry_cell_setting            triclinic
  loop_
  _symmetry_equiv_pos_as_xyz
 x,y,z
_cell_length_a 22.6781
_cell_length_b 22.6780
_cell_length_c 22.7292
_cell_angle_alpha 90.136100
_cell_angle_beta 90.136200
_cell_angle_gamma 90.000100
loop_
  _atom_site_label
  _atom_site_type_symbol
  _atom_site_fract_x
  _atom_site_fract_y
  _atom_site_fract_z
O1 O 0.44392 1.04915 -0.55626
 O2 O 0.55878 1.04902 -0.44160
 O3 O 0.55872 1.04823 -0.55625
 O4 O 0.44391 1.04812 -0.44169
 O5 O 0.44401 0.95060 -0.44211
 O6 O 0.55863 0.95071 -0.55647
 O7 O 0.55887 0.95152 -0.44183
 O8 O 0.44382 0.95162 -0.55668
 Cu9 Cu 0.50135 1.05847 -0.49890
 Cu10 Cu 0.50135 0.94128 -0.49929
 C11 C 0.42448 1.00047 -0.57585
 C12 C 0.57823 1.00031 -0.42232
 C13 C 0.57798 0.99943 -0.57573
 C14 C 0.42458 0.99927 -0.42261
 O15 O -0.55980 1.44216 -0.04835
 O16 O -0.44484 1.55711 -0.04860
 O17 O -0.44495 1.44232 -0.04938
 O18 O -0.55970 1.55708 -0.04940
 O19 O -0.55947 1.55752 0.04789
 O20 O -0.44453 1.44256 0.04792
 O21 O -0.44462 1.55736 0.04870
 O22 O -0.55938 1.44261 0.04894
 Cu23 Cu -0.50239 1.49963 -0.05874
 Cu24 Cu -0.50200 1.50004 0.05817
 C25 C -0.57895 1.42295 0.00040
 C26 C -0.42531 1.57658 0.00008
 C27 C -0.42532 1.42309 -0.00079
 C28 C -0.57895 1.57674 -0.00082
 O29 O 0.04947 0.44359 0.44373
 O30 O 0.04937 0.55844 0.55840
 O31 O 0.04845 0.44357 0.55829
 O32 O 0.04856 0.55839 0.44375
 O33 O -0.04896 0.55831 0.44354
 O34 O -0.04907 0.44368 0.55789
 O35 O -0.04813 0.55855 0.55818
 O36 O -0.04805 0.44351 0.44332
 Cu37 Cu 0.05880 0.50102 0.50109
 Cu38 Cu -0.05839 0.50103 0.50071
 C39 C 0.00078 0.42416 0.42414
 C40 C 0.00067 0.57789 0.57769
 C41 C -0.00039 0.42424 0.57738
 C42 C -0.00024 0.57767 0.42428
 O43 O -0.15176 1.00162 -0.08008
 O44 O 0.15192 0.99786 -0.07972
 O45 O -0.00190 1.07946 -0.15168
 O46 O 0.00188 0.91984 -0.15184
 O47 O 0.00195 0.84790 -0.08006
 O48 O -0.00183 1.15158 -0.07974
 O49 O 0.07981 0.99776 -0.15167
 O50 O -0.07982 1.00153 -0.15185
 Zr51 Zr 0.00004 0.99971 -0.10387
 O52 O 0.05363 0.94624 -0.05367
 O53 O -0.05344 1.05330 -0.05369
 C54 C -0.13417 1.00239 -0.13431
 C55 C 0.13420 0.99696 -0.13399
 C56 C -0.00271 1.13386 -0.13401
 C57 C 0.00273 0.86549 -0.13429
 H58 H 0.07845 1.07813 -0.07831
 O59 O 0.05332 1.05300 -0.05325
 H60 H -0.07832 0.92135 -0.07865
 O61 O -0.05312 0.94654 -0.05349
 O62 O 0.15211 1.00184 0.07954
 O63 O -0.15156 0.99805 0.07922
 O64 O 0.07995 1.15170 0.00184
 O65 O 0.07996 0.84799 -0.00221
 O66 O -0.07967 0.84801 0.00138
 O67 O -0.07968 1.15167 -0.00209
 O68 O 0.00225 1.07986 0.15130
 O69 O -0.00152 0.92028 0.15114
 O70 O 0.00213 1.15179 0.07952
 O71 O -0.00163 0.84812 0.07924
 O72 O 0.15200 1.07969 0.00185
 O73 O -0.15169 1.07963 -0.00223
 O74 O -0.15167 0.92005 0.00137
 O75 O 0.15200 0.92001 -0.00206
 O76 O 0.08017 1.00194 0.15130
 O77 O -0.07941 0.99816 0.15113
 Zr78 Zr 0.10401 0.99985 -0.00015
 Zr79 Zr -0.10367 0.99984 -0.00038
 Zr80 Zr 0.00015 1.10368 -0.00016
 Zr81 Zr 0.00016 0.89600 -0.00037
 Zr82 Zr 0.00031 0.99999 0.10331
 O83 O -0.05329 0.94639 0.05303
 O84 O 0.05377 1.05346 0.05325
 C85 C 0.13452 1.00274 0.13377
 C86 C -0.13381 0.99729 0.13348
 C87 C 0.13433 1.13407 0.00271
 C88 C 0.13434 0.86563 -0.00296
 C89 C -0.13404 0.86567 0.00217
 C90 C -0.13406 1.13400 -0.00299
 C91 C 0.00304 1.13421 0.13375
 C92 C -0.00239 0.86588 0.13350
 H93 H -0.07813 1.07834 0.07794
 O94 O -0.05300 1.05314 0.05283
 H95 H 0.07866 0.92156 0.07795
 O96 O 0.05346 0.94669 0.05283
 C97 C 0.37978 1.00076 0.37940
 C98 C 0.34224 1.00133 0.34178
 C99 C 0.29830 1.00217 0.29772
 C100 C 0.26078 1.00284 0.26009
 C101 C 0.21682 1.00337 0.21604
 C102 C 0.17925 1.00341 0.17845
 C103 C -0.37756 0.99922 0.37949
 C104 C -0.34027 0.99871 0.34179
 C105 C -0.29666 0.99791 0.29760
 C106 C -0.25942 0.99727 0.25987
 C107 C -0.21576 0.99674 0.21573
 C108 C -0.17840 0.99668 0.17811
 C109 C -0.37947 1.00050 -0.37998
 C110 C -0.34193 1.00096 -0.34234
 C111 C -0.29799 1.00171 -0.29826
 C112 C -0.26046 1.00237 -0.26064
 C113 C -0.21649 1.00291 -0.21658
 C114 C -0.17892 1.00298 -0.17899
 C115 C 0.37983 0.99898 -0.37812
 C116 C 0.34220 0.99841 -0.34076
 C117 C 0.29813 0.99756 -0.29703
 C118 C 0.26051 0.99689 -0.25968
 C119 C 0.21646 0.99635 -0.21593
 C120 C 0.17887 0.99631 -0.17853
 C121 C 0.37886 1.38049 0.00070
 C122 C 0.34145 1.34274 0.00128
 C123 C 0.29767 1.29850 0.00213
 C124 C 0.26028 1.26073 0.00280
 C125 C 0.21647 1.21653 0.00334
 C126 C 0.17900 1.17883 0.00338
 C127 C 0.37887 0.61921 -0.00105
 C128 C 0.34146 0.65696 -0.00157
 C129 C 0.29768 0.70120 -0.00236
 C130 C 0.26029 0.73897 -0.00301
 C131 C 0.21648 0.78318 -0.00353
 C132 C 0.17901 0.82087 -0.00359
 C133 C -0.38043 0.62115 0.00024
 C134 C -0.34267 0.65855 0.00071
 C135 C -0.29843 0.70233 0.00146
 C136 C -0.26067 0.73972 0.00211
 C137 C -0.21647 0.78354 0.00266
 C138 C -0.17878 0.82101 0.00274
 C139 C -0.38045 1.37851 -0.00103
 C140 C -0.34270 1.34110 -0.00157
 C141 C -0.29847 1.29732 -0.00238
 C142 C -0.26070 1.25994 -0.00304
 C143 C -0.21650 1.21613 -0.00357
 C144 C -0.17881 1.17866 -0.00362
 C145 C 0.00106 1.37947 0.37939
 C146 C 0.00163 1.34193 0.34177
 C147 C 0.00247 1.29799 0.29770
 C148 C 0.00313 1.26047 0.26007
 C149 C 0.00366 1.21651 0.21602
 C150 C 0.00370 1.17895 0.17843
 C151 C -0.00068 1.37948 -0.37814
 C152 C -0.00126 1.34186 -0.34078
 C153 C -0.00211 1.29778 -0.29705
 C154 C -0.00278 1.26016 -0.25970
 C155 C -0.00332 1.21611 -0.21595
 C156 C -0.00337 1.17852 -0.17855
 C157 C 0.00086 0.62019 -0.37996
 C158 C 0.00135 0.65773 -0.34233
 C159 C 0.00211 0.70166 -0.29824
 C160 C 0.00275 0.73919 -0.26061
 C161 C 0.00327 0.78316 -0.21656
 C162 C 0.00333 0.82074 -0.17897
 C163 C -0.00045 0.62213 0.37951
 C164 C -0.00097 0.65942 0.34181
 C165 C -0.00176 0.70304 0.29762
 C166 C -0.00241 0.74028 0.25989
 C167 C -0.00293 0.78394 0.21575
 C168 C -0.00299 0.82130 0.17813
   
