data_POSCAR
  _audit_creation_date              2014-09-24
  _audit_creation_method            'ToBaCCo'
  _symmetry_space_group_name_H-M    'P1'
  _symmetry_Int_Tables_number       1
  _symmetry_cell_setting            triclinic
  loop_
  _symmetry_equiv_pos_as_xyz
 x,y,z
_cell_length_a 38.2403
_cell_length_b 37.4605
_cell_length_c 37.1234
_cell_angle_alpha 88.211000
_cell_angle_beta 88.266100
_cell_angle_gamma 87.799100
loop_
  _atom_site_label
  _atom_site_type_symbol
  _atom_site_fract_x
  _atom_site_fract_y
  _atom_site_fract_z
C1 C 0.11405 0.11291 0.16855
 C2 C 0.14353 0.09590 0.15186
 C3 C 0.16147 0.11154 0.12184
 C4 C 0.14907 0.14525 0.10854
 C5 C 0.11906 0.16199 0.12398
 C6 C 0.10212 0.14606 0.15401
 H7 H 0.15459 0.07186 0.16453
 H8 H 0.16121 0.15772 0.08487
 H9 H 0.07875 0.15933 0.16514
 C10 C -0.13891 0.85696 0.19099
 C11 C -0.17353 0.87044 0.18612
 C12 C -0.19494 0.85675 0.15985
 C13 C -0.18131 0.82906 0.13819
 C14 C -0.14677 0.81609 0.14179
 C15 C -0.12596 0.82998 0.16794
 H16 H -0.18350 0.89272 0.20170
 H17 H -0.19747 0.81737 0.11856
 H18 H -0.10032 0.81744 0.17166
 C19 C -0.15499 0.15454 -0.19326
 C20 C -0.18946 0.15052 -0.17950
 C21 C -0.20627 0.17647 -0.15719
 C22 C -0.18828 0.20813 -0.15175
 C23 C -0.15397 0.21256 -0.16495
 C24 C -0.13725 0.18519 -0.18457
 H25 H -0.20162 0.12565 -0.18425
 H26 H -0.20119 0.23057 -0.13869
 H27 H -0.11086 0.18899 -0.19495
 C28 C 0.16242 0.85398 -0.18813
 C29 C 0.19054 0.87091 -0.17343
 C30 C 0.21243 0.85348 -0.14801
 C31 C 0.20575 0.81771 -0.13813
 C32 C 0.17788 0.79989 -0.15287
 C33 C 0.15635 0.81832 -0.17794
 H34 H 0.19647 0.89737 -0.18379
 H35 H 0.22109 0.80408 -0.11751
 H36 H 0.13500 0.80496 -0.18966
 C37 C 0.13670 1.15868 0.79347
 C38 C 0.16593 1.13705 0.80288
 C39 C 0.19302 1.15060 0.82239
 C40 C 0.18960 1.18589 0.83407
 C41 C 0.16035 1.20811 0.82518
 C42 C 0.13421 1.19430 0.80421
 H43 H 0.16783 1.10968 0.79420
 H44 H 0.21005 1.19618 0.84984
 H45 H 0.11193 1.21106 0.79614
 C46 C 0.89641 0.87399 0.84486
 C47 C 0.86393 0.89049 0.85434
 C48 C 0.84493 0.87996 0.88564
 C49 C 0.85774 0.85096 0.90704
 C50 C 0.89085 0.83487 0.89913
 C51 C 0.91000 0.84713 0.86844
 H52 H 0.85339 0.91233 0.83775
 H53 H 0.84298 0.84241 0.93093
 H54 H 0.93391 0.83253 0.86086
 C55 C 0.16921 0.84648 1.19724
 C56 C 0.20126 0.85047 1.17790
 C57 C 0.20985 0.83078 1.14703
 C58 C 0.18583 0.80648 1.13544
 C59 C 0.15463 0.80031 1.15516
 C60 C 0.14661 0.82037 1.18594
 H61 H 0.22062 0.86758 1.18800
 H62 H 0.19128 0.79240 1.11077
 H63 H 0.12215 0.81607 1.20039
 C64 C 0.80467 1.15148 1.20910
 C65 C 0.77896 1.14169 1.18522
 C66 C 0.77184 1.16183 1.15361
 C67 C 0.79232 1.19127 1.14427
 C68 C 0.81969 1.20095 1.16619
 C69 C 0.82418 1.18171 1.19925
 H70 H 0.76512 1.11732 1.18997
 H71 H 0.78743 1.20567 1.11918
 H72 H 0.84151 1.19197 1.21848
 N73 N 0.55323 0.97503 0.92791
 N74 N 0.58428 0.98045 0.91275
 N75 N 0.48335 0.93483 0.94430
 N76 N 0.45503 0.91556 0.94350
 N77 N 0.48237 0.96003 0.91878
 N78 N 0.45377 0.95803 0.90020
 N79 N 0.55516 0.94895 0.95230
 N80 N 0.58760 0.93570 0.95411
 C81 C 0.60535 0.95541 0.92901
 C82 C 0.43719 0.92994 0.91527
 N83 N 0.46513 0.95486 1.04617
 N84 N 0.43682 0.94501 1.06451
 N85 N 0.54523 0.94624 1.02950
 N86 N 0.57467 0.92887 1.03829
 N87 N 0.53591 0.96955 1.05405
 N88 N 0.55838 0.96835 1.08034
 N89 N 0.47427 0.93133 1.02181
 N90 N 0.45264 0.90466 1.02321
 Mn91 Mn 0.51462 0.93983 0.98685
 C92 C 0.42941 0.91356 1.04998
 C93 C 0.58255 0.94307 1.07009
 N94 N 0.46444 1.03526 0.91775
 N95 N 0.44065 1.03410 0.89287
 N96 N 0.52474 1.07380 0.95080
 N97 N 0.54640 1.10037 0.95056
 N98 N 0.53500 1.05035 0.92677
 N99 N 0.56388 1.06042 0.90950
 N100 N 0.45422 1.05778 0.94269
 N101 N 0.42313 1.07238 0.93554
 Mn102 Mn 0.50902 1.00507 0.92241
 C103 C 0.41503 1.05733 0.90430
 C104 C 0.57060 1.09182 0.92459
 N105 N 0.51834 1.04533 1.05272
 N106 N 0.54655 1.05035 1.07149
 N107 N 0.44377 1.05500 1.01998
 N108 N 0.41091 1.06730 1.01866
 N109 N 0.44702 1.02976 1.04512
 N110 N 0.41649 1.02384 1.06114
 N111 N 0.51467 1.07064 1.02761
 N112 N 0.54021 1.09314 1.02867
 Mn113 Mn 0.49159 0.99998 1.04996
 Mn114 Mn 0.48408 1.06469 0.98533
 Cl115 Cl 0.49984 1.00238 0.98617
 C116 C 0.55950 1.08070 1.05649
 C117 C 0.39433 1.04771 1.04478
 N118 N -0.06187 0.45841 0.04247
 N119 N -0.08065 0.42929 0.04509
 N120 N -0.04401 0.53390 0.07074
 N121 N -0.04636 0.56454 0.08741
 N122 N -0.06693 0.53373 0.04506
 N123 N -0.08573 0.56405 0.04431
 N124 N -0.04027 0.45891 0.06926
 N125 N -0.04360 0.43053 0.09057
 C126 C -0.06874 0.41219 0.07548
 C127 C -0.07307 0.58270 0.07124
 N128 N 0.05799 0.53539 0.05432
 N129 N 0.07480 0.56516 0.05813
 N130 N 0.03424 0.45880 0.07440
 N131 N 0.03178 0.42628 0.08859
 N132 N 0.06095 0.45994 0.05128
 N133 N 0.07725 0.42823 0.04954
 N134 N 0.03082 0.53420 0.07671
 N135 N 0.02838 0.56304 0.09622
 Mn136 Mn -0.00479 0.49658 0.07315
 C137 C 0.05617 0.58191 0.08467
 C138 C 0.05915 0.40773 0.07358
 N139 N -0.05870 0.53991 -0.03233
 N140 N -0.07469 0.57170 -0.02917
 N141 N -0.02768 0.46758 -0.05885
 N142 N -0.02844 0.44354 -0.08391
 N143 N -0.05409 0.46416 -0.03574
 N144 N -0.07352 0.43742 -0.04450
 N145 N -0.03128 0.54244 -0.05450
 N146 N -0.02802 0.57574 -0.06621
 Mn147 Mn -0.06093 0.49876 0.00473
 C148 C -0.05554 0.59364 -0.05081
 C149 C -0.05705 0.42483 -0.07470
 N150 N 0.06893 0.46588 -0.02626
 N151 N 0.09337 0.44063 -0.03174
 N152 N 0.04390 0.54287 -0.04916
 N153 N 0.05254 0.56910 -0.07206
 N154 N 0.06589 0.54025 -0.02264
 N155 N 0.09020 0.56412 -0.02693
 N156 N 0.04679 0.46749 -0.05268
 N157 N 0.05503 0.44280 -0.07641
 Mn158 Mn 0.06379 0.50028 0.01435
 Mn159 Mn 0.00782 0.50517 -0.05419
 Cl160 Cl 0.00144 0.50017 0.00948
 C161 C 0.08411 0.42631 -0.06293
 C162 C 0.08127 0.58230 -0.05748
 N163 N 0.97628 -0.07738 0.54327
 N164 N 0.98342 -0.09330 0.57445
 N165 N 0.94395 -0.05992 0.46907
 N166 N 0.92709 -0.06429 0.43903
 N167 N 0.97489 -0.07648 0.46743
 N168 N 0.97975 -0.09231 0.43635
 N169 N 0.94605 -0.05954 0.54547
 N170 N 0.93210 -0.06301 0.57839
 C171 C 0.95561 -0.08455 0.59601
 C172 C 0.94956 -0.08499 0.41911
 N173 N 0.93729 0.04388 0.46440
 N174 N 0.92538 0.06355 0.43695
 N175 N 0.92273 0.01511 0.54356
 N176 N 0.90697 0.01187 0.57569
 N177 N 0.93810 0.04590 0.54015
 N178 N 0.93324 0.06408 0.56981
 N179 N 0.92066 0.01389 0.46784
 N180 N 0.89686 0.01244 0.44296
 Mn181 Mn 0.93289 -0.02287 0.50668
 C182 C 0.90023 0.04350 0.42379
 C183 C 0.91314 0.04307 0.59141
 N184 N 1.04700 -0.05616 0.46384
 N185 N 1.05640 -0.07458 0.43506
 N186 N 1.06232 -0.02582 0.53958
 N187 N 1.07899 -0.02190 0.56973
 N188 N 1.04782 -0.05705 0.53978
 N189 N 1.05475 -0.07530 0.56992
 N190 N 1.06332 -0.02599 0.46372
 N191 N 1.08418 -0.02305 0.43498
 Mn192 Mn 1.01150 -0.06723 0.50339
 C193 C 1.07971 -0.05346 0.41733
 C194 C 1.07443 -0.05317 0.58819
 N195 N 1.00976 0.06655 0.53639
 N196 N 1.00516 0.08513 0.56600
 N197 N 1.04056 0.04764 0.46137
 N198 N 1.05648 0.04852 0.42947
 N199 N 1.00956 0.06403 0.45981
 N200 N 1.00383 0.07600 0.42645
 N201 N 1.03982 0.04844 0.53699
 N202 N 1.05632 0.05417 0.56681
 Mn203 Mn 0.97359 0.05558 0.49998
 Mn204 Mn 1.05180 0.01123 0.50062
 Cl205 Cl 0.99239 -0.00579 0.50269
 C206 C 1.03479 0.07769 0.58424
 C207 C 1.03383 0.06682 0.40811
 C208 C 1.06746 0.10300 0.25795
 C209 C 1.06883 0.06647 0.26254
 C210 C 1.08368 0.04385 0.23692
 C211 C 1.09803 0.05949 0.20531
 C212 C 1.09746 0.09736 0.19961
 C213 C 1.08107 0.11918 0.22649
 O214 O 1.05512 0.11976 0.28698
 C215 C 1.04858 0.09318 0.31041
 C216 C 1.05640 0.06001 0.29660
 C217 C 1.05442 0.02851 0.31716
 C218 C 1.04477 0.03136 0.35364
 C219 C 1.03740 0.06523 0.36876
 C220 C 1.03847 0.09659 0.34672
 H221 H 1.08481 0.01514 0.24140
 H222 H 1.10899 0.04173 0.18512
 H223 H 1.08112 0.14805 0.22456
 H224 H 1.06139 0.00280 0.30590
 H225 H 1.04422 0.00726 0.37053
 H226 H 1.03405 0.12275 0.35800
 C227 C 0.88803 -0.11080 0.28010
 C228 C 0.92372 -0.11565 0.27656
 C229 C 0.94037 -0.12684 0.24499
 C230 C 0.91938 -0.13433 0.21608
 C231 C 0.88203 -0.13122 0.21904
 C232 C 0.86649 -0.11807 0.25166
 O233 O 0.87746 -0.10096 0.31288
 C234 C 0.90719 -0.09975 0.33036
 C235 C 0.93624 -0.10867 0.30932
 C236 C 0.96990 -0.11085 0.32252
 C237 C 0.97384 -0.10340 0.35892
 C238 C 0.94438 -0.09369 0.38119
 C239 C 0.91056 -0.09168 0.36657
 H240 H 0.96860 -0.13002 0.24274
 H241 H 0.93273 -0.14211 0.19130
 H242 H 0.83843 -0.11592 0.25618
 H243 H 0.99231 -0.11833 0.30550
 H244 H 0.99991 -0.10485 0.36962
 H245 H 0.88760 -0.08459 0.38298
 C246 C 0.86012 0.09303 0.73040
 C247 C 0.89577 0.08731 0.73183
 C248 C 0.91562 0.10091 0.75854
 C249 C 0.89822 0.12210 0.78439
 C250 C 0.86136 0.12919 0.78354
 C251 C 0.84199 0.11301 0.75669
 O252 O 0.84694 0.08157 0.70027
 C253 C 0.87492 0.06841 0.68232
 C254 C 0.90540 0.07108 0.70072
 C255 C 0.93824 0.06235 0.68576
 C256 C 0.93982 0.05112 0.65013
 C257 C 0.90904 0.04891 0.63025
 C258 C 0.87596 0.05687 0.64672
 H259 H 0.94377 0.09659 0.75865
 H260 H 0.91371 0.13301 0.80506
 H261 H 0.81420 0.11872 0.75400
 H262 H 0.96189 0.06551 0.70046
 H263 H 0.96507 0.04538 0.63732
 H264 H 0.85223 0.05656 0.63156
 C265 C 1.11654 -0.12020 0.72537
 C266 C 1.11071 -0.08417 0.73017
 C267 C 1.11773 -0.06774 0.76202
 C268 C 1.13246 -0.08906 0.78970
 C269 C 1.14073 -0.12598 0.78488
 C270 C 1.13154 -0.14195 0.75253
 O271 O 1.10945 -0.13005 0.69237
 C272 C 1.09936 -0.09950 0.67596
 C273 C 1.10005 -0.07060 0.69786
 C274 C 1.09375 -0.03563 0.68538
 C275 C 1.08621 -0.03024 0.64885
 C276 C 1.08421 -0.05962 0.62595
 C277 C 1.09070 -0.09480 0.63977
 H278 H 1.11290 -0.03932 0.76511
 H279 H 1.13866 -0.07651 0.81449
 H280 H 1.13802 -0.16980 0.74768
 H281 H 1.09539 -0.01324 0.70292
 H282 H 1.08166 -0.00322 0.63846
 H283 H 1.08996 -0.11763 0.62266
 C284 C 0.24965 1.09453 1.07789
 C285 C 0.25249 1.05798 1.08181
 C286 C 0.22587 1.03762 1.09662
 C287 C 0.19521 1.05565 1.10867
 C288 C 0.19148 1.09374 1.10629
 C289 C 0.21917 1.11317 1.08945
 O290 O 0.27900 1.10886 1.06516
 C291 C 0.30079 1.08066 1.06115
 C292 C 0.28572 1.04891 1.07103
 C293 C 0.30426 1.01629 1.07165
 C294 C 0.33996 1.01642 1.06212
 C295 C 0.35627 1.04870 1.05202
 C296 C 0.33628 1.08127 1.05082
 H297 H 0.22880 1.00881 1.09935
 H298 H 0.17427 1.03949 1.11944
 H299 H 0.21845 1.14207 1.08774
 H300 H 0.29192 0.99175 1.08007
 H301 H 0.35502 0.99139 1.06280
 H302 H 0.34832 1.10635 1.04385
 C303 C 0.30004 0.87291 0.88792
 C304 C 0.29709 0.90952 0.88846
 C305 C 0.26680 0.92881 0.87956
 C306 C 0.23840 0.90974 0.86877
 C307 C 0.24053 0.87173 0.86643
 C308 C 0.27190 0.85315 0.87741
 O309 O 0.33198 0.86012 0.89577
 C310 C 0.34948 0.88943 0.90119
 C311 C 0.32913 0.92028 0.89690
 C312 C 0.34220 0.95418 0.89883
 C313 C 0.37784 0.95648 0.90526
 C314 C 0.39965 0.92526 0.90984
 C315 C 0.38519 0.89111 0.90838
 H316 H 0.26520 0.95769 0.88045
 H317 H 0.21458 0.92501 0.86278
 H318 H 0.27555 0.82450 0.87542
 H319 H 0.32572 0.97803 0.89481
 H320 H 0.38848 0.98272 0.90669
 H321 H 0.40140 0.86693 0.91133
 C322 C 0.71952 0.88742 1.11715
 C323 C 0.70077 0.89950 1.14678
 C324 C 0.71407 0.89795 1.18125
 C325 C 0.74817 0.88345 1.18535
 C326 C 0.76856 0.87135 1.15513
 C327 C 0.75368 0.87346 1.12049
 O328 O 0.70190 0.89099 1.08685
 C329 C 0.67137 0.90575 1.09762
 C330 C 0.66948 0.91174 1.13402
 C331 C 0.64029 0.92783 1.15090
 C332 C 0.61188 0.93818 1.12939
 C333 C 0.61291 0.93182 1.09187
 C334 C 0.64312 0.91522 1.07580
 H335 H 0.69865 0.90731 1.20423
 H336 H 0.75841 0.88134 1.21222
 H337 H 0.76834 0.86506 1.09664
 H338 H 0.63950 0.93250 1.17954
 H339 H 0.58895 0.95087 1.14205
 H340 H 0.64478 0.91040 1.04718
 C341 C 0.70526 1.13997 0.86596
 C342 C 0.69515 1.16073 0.89449
 C343 C 0.71601 1.18654 0.90746
 C344 C 0.74869 1.19133 0.89032
 C345 C 0.76014 1.17105 0.85975
 C346 C 0.73732 1.14481 0.84777
 O347 O 0.68197 1.11589 0.85883
 C348 C 0.65664 1.12175 0.88346
 C349 C 0.66336 1.14915 0.90573
 C350 C 0.64039 1.16004 0.93330
 C351 C 0.60929 1.14168 0.93837
 C352 C 0.60216 1.11249 0.91659
 C353 C 0.62613 1.10262 0.88847
 H354 H 0.70780 1.20190 0.93066
 H355 H 0.76523 1.21000 0.90250
 H356 H 0.74327 1.12884 0.82452
 H357 H 0.64624 1.18181 0.95037
 H358 H 0.59114 1.14980 0.95979
 H359 H 0.62143 1.08050 0.87138
 C360 C 0.10700 0.25869 0.09387
 C361 C 0.07194 0.25978 0.08639
 C362 C 0.05163 0.22979 0.08861
 C363 C 0.06796 0.19737 0.09966
 C364 C 0.10390 0.19555 0.10823
 C365 C 0.12391 0.22652 0.10457
 O366 O 0.12083 0.29074 0.09226
 C367 C 0.09386 0.31248 0.08374
 C368 C 0.06337 0.29475 0.07990
 C369 C 0.03144 0.31223 0.07319
 C370 C 0.03083 0.34959 0.07058
 C371 C 0.06169 0.36855 0.07491
 C372 C 0.09387 0.34980 0.08086
 H373 H 0.02399 0.23149 0.08301
 H374 H 0.05249 0.17376 0.10241
 H375 H 0.15118 0.22592 0.11171
 H376 H 0.00777 0.29769 0.07062
 H377 H 0.00634 0.36387 0.06505
 H378 H 0.11768 0.36383 0.08451
 C379 C -0.12210 0.29586 -0.12247
 C380 C -0.10143 0.30925 -0.15025
 C381 C -0.09716 0.29295 -0.18327
 C382 C -0.11483 0.26139 -0.18789
 C383 C -0.13598 0.24646 -0.15954
 C384 C -0.13971 0.26426 -0.12636
 O385 O -0.12249 0.31559 -0.09329
 C386 C -0.10152 0.34196 -0.10290
 C387 C -0.08790 0.33913 -0.13746
 C388 C -0.06465 0.36317 -0.15286
 C389 C -0.05490 0.39128 -0.13176
 C390 C -0.06868 0.39512 -0.09608
 C391 C -0.09254 0.37013 -0.08149
 H392 H -0.08090 0.30420 -0.20479
 H393 H -0.11226 0.24883 -0.21375
 H394 H -0.15536 0.25356 -0.10405
 H395 H -0.05413 0.36020 -0.18004
 H396 H -0.03663 0.41014 -0.14333
 H397 H -0.10318 0.37216 -0.05425
 C398 C 0.13176 0.71519 -0.12381
 C399 C 0.16009 0.69284 -0.11618
 C400 C 0.19446 0.70308 -0.12124
 C401 C 0.19995 0.73798 -0.13433
 C402 C 0.17127 0.76218 -0.14151
 C403 C 0.13661 0.75023 -0.13651
 O404 O 0.10126 0.70031 -0.11626
 C405 C 0.11062 0.66793 -0.10342
 C406 C 0.14637 0.66221 -0.10261
 C407 C 0.16208 0.63115 -0.08816
 C408 C 0.14008 0.60495 -0.07371
 C409 C 0.10317 0.60989 -0.07457
 C410 C 0.08815 0.64168 -0.09002
 H411 H 0.21631 0.68491 -0.11511
 H412 H 0.22663 0.74614 -0.13871
 H413 H 0.11406 0.76796 -0.14112
 H414 H 0.19027 0.62756 -0.08731
 H415 H 0.15178 0.58075 -0.06178
 H416 H 0.06003 0.64636 -0.09024
 C417 C -0.13133 0.72444 0.10416
 C418 C -0.09880 0.72817 0.08787
 C419 C -0.08201 0.76047 0.08581
 C420 C -0.09905 0.78992 0.10203
 C421 C -0.13220 0.78656 0.11977
 C422 C -0.14895 0.75354 0.12004
 O423 O -0.14139 0.69088 0.10572
 C424 C -0.11457 0.67302 0.09032
 C425 C -0.08781 0.69464 0.07895
 C426 C -0.05611 0.68126 0.06461
 C427 C -0.05177 0.64408 0.06209
 C428 C -0.07890 0.62138 0.07380
 C429 C -0.11095 0.63596 0.08755
 H430 H -0.05618 0.76259 0.07338
 H431 H -0.08597 0.81506 0.10192
 H432 H -0.17374 0.75003 0.13433
 H433 H -0.03523 0.69873 0.05637
 H434 H -0.02729 0.63287 0.05119
 H435 H -0.13181 0.61894 0.09695
 C436 C 1.08169 0.14257 0.71361
 C437 C 1.06949 0.10937 0.72307
 C438 C 1.07579 0.09247 0.75624
 C439 C 1.09625 0.11010 0.78031
 C440 C 1.10999 0.14387 0.77081
 C441 C 1.10176 0.16076 0.73736
 O442 O 1.07584 0.15225 0.67953
 C443 C 1.05985 0.12449 0.66714
 C444 C 1.05539 0.09752 0.69275
 C445 C 1.04290 0.06441 0.68469
 C446 C 1.03501 0.05878 0.64875
 C447 C 1.03923 0.08616 0.62201
 C448 C 1.05141 0.11965 0.63130
 H449 H 1.06657 0.06602 0.76274
 H450 H 1.10261 0.09688 0.80577
 H451 H 1.11292 0.18594 0.72899
 H452 H 1.04071 0.04319 0.70501
 H453 H 1.02653 0.03279 0.64145
 H454 H 1.05615 0.14037 0.61093
 C455 C 0.91297 -0.09994 0.74811
 C456 C 0.94839 -0.10699 0.74500
 C457 C 0.96847 -0.11814 0.77404
 C458 C 0.95121 -0.12307 0.80758
 C459 C 0.91417 -0.11730 0.81173
 C460 C 0.89520 -0.10458 0.78115
 O461 O 0.89850 -0.09089 0.71690
 C462 C 0.92544 -0.09242 0.69355
 C463 C 0.95656 -0.10227 0.70941
 C464 C 0.98779 -0.10727 0.68984
 C465 C 0.98691 -0.10186 0.65236
 C466 C 0.95520 -0.09135 0.63532
 C467 C 0.92405 -0.08636 0.65632
 H468 H 0.99644 -0.12324 0.77093
 H469 H 0.96718 -0.13093 0.83025
 H470 H 0.86702 -0.10086 0.78186
 H471 H 1.01190 -0.11535 0.70287
 H472 H 1.01106 -0.10552 0.63669
 H473 H 0.89949 -0.07853 0.64404
 C474 C 1.12858 -0.12105 0.28387
 C475 C 1.14219 -0.08772 0.28460
 C476 C 1.16467 -0.07462 0.25778
 C477 C 1.17361 -0.09677 0.22892
 C478 C 1.16009 -0.13169 0.22704
 C479 C 1.13695 -0.14357 0.25540
 O480 O 1.10821 -0.12863 0.31251
 C481 C 1.10899 -0.09934 0.33169
 C482 C 1.12939 -0.07351 0.31569
 C483 C 1.13437 -0.04091 0.33122
 C484 C 1.11781 -0.03474 0.36475
 C485 C 1.09670 -0.06098 0.38200
 C486 C 1.09208 -0.09371 0.36503
 H487 H 1.17487 -0.04813 0.25890
 H488 H 1.19003 -0.08572 0.20746
 H489 H 1.12672 -0.17010 0.25653
 H490 H 1.15054 -0.02100 0.31807
 H491 H 1.12143 -0.00944 0.37719
 H492 H 1.07613 -0.11421 0.37748
 C493 C 0.84842 0.11319 0.29164
 C494 C 0.82319 0.09107 0.30531
 C495 C 0.79125 0.08807 0.28919
 C496 C 0.78503 0.10860 0.25759
 C497 C 0.81092 0.13140 0.24183
 C498 C 0.84323 0.13328 0.25987
 O499 O 0.87679 0.11273 0.31142
 C500 C 0.86926 0.08973 0.33820
 C501 C 0.83687 0.07545 0.33556
 C502 C 0.82404 0.05022 0.36034
 C503 C 0.84542 0.03944 0.38911
 C504 C 0.87858 0.05442 0.39285
 C505 C 0.89064 0.07993 0.36695
 H506 H 0.77148 0.07093 0.30087
 H507 H 0.75932 0.10722 0.24659
 H508 H 0.86473 0.14870 0.24930
 H509 H 0.79856 0.03915 0.35758
 H510 H 0.83591 0.01987 0.40876
 H511 H 0.91598 0.09155 0.36893
 C512 C 0.12247 0.29474 -0.13701
 C513 C 0.15260 0.31231 -0.13117
 C514 C 0.18563 0.29859 -0.14100
 C515 C 0.18778 0.26506 -0.15687
 C516 C 0.15723 0.24536 -0.16166
 C517 C 0.12402 0.26099 -0.15199
 O518 O 0.09369 0.31247 -0.12567
 C519 C 0.10598 0.34172 -0.11213
 C520 C 0.14191 0.34271 -0.11443
 C521 C 0.16040 0.36985 -0.09992
 C522 C 0.14101 0.39714 -0.08243
 C523 C 0.10396 0.39717 -0.08068
 C524 C 0.08617 0.36918 -0.09591
 H525 H 0.20895 0.31314 -0.13656
 H526 H 0.21340 0.25450 -0.16515
 H527 H 0.10012 0.24688 -0.15467
 H528 H 0.18871 0.36972 -0.10152
 H529 H 0.15475 0.41851 -0.07071
 H530 H 0.05788 0.36839 -0.09433
 C531 C -0.14332 0.28319 0.12100
 C532 C -0.11076 0.28192 0.13552
 C533 C -0.09946 0.25514 0.15944
 C534 C -0.12273 0.22836 0.16911
 C535 C -0.15728 0.22867 0.15540
 C536 C -0.16724 0.25682 0.13041
 O537 O -0.14882 0.31176 0.09929
 C538 C -0.11895 0.32880 0.10035
 C539 C -0.09500 0.31147 0.12231
 C540 C -0.06275 0.32496 0.12924
 C541 C -0.05484 0.35797 0.11321
 C542 C -0.07862 0.37663 0.08998
 C543 C -0.11117 0.36162 0.08312
 H544 H -0.07343 0.25470 0.17015
 H545 H -0.11280 0.20677 0.18639
 H546 H -0.19318 0.25947 0.11965
 H547 H -0.04464 0.31098 0.14710
 H548 H -0.03009 0.36914 0.11932
 H549 H -0.13012 0.37554 0.06615
 C550 C -0.10053 0.74448 -0.05756
 C551 C -0.06481 0.74193 -0.05406
 C552 C -0.04323 0.77029 -0.06157
 C553 C -0.05878 0.80221 -0.07486
 C554 C -0.09548 0.80553 -0.08030
 C555 C -0.11686 0.77665 -0.06946
 O556 O -0.11540 0.71296 -0.05408
 C557 C -0.08842 0.69013 -0.04867
 C558 C -0.05694 0.70670 -0.04832
 C559 C -0.02486 0.68805 -0.04780
 C560 C -0.02511 0.65076 -0.04808
 C561 C -0.05708 0.63285 -0.04874
 C562 C -0.08930 0.65275 -0.04810
 H563 H -0.01510 0.76733 -0.05934
 H564 H -0.04194 0.82409 -0.08203
 H565 H -0.14464 0.77754 -0.07444
 H566 H -0.00042 0.70175 -0.04858
 H567 H -0.00029 0.63580 -0.04823
 H568 H -0.11397 0.63966 -0.04938
 C569 C 0.12228 0.71357 0.12105
 C570 C 0.08682 0.71820 0.12733
 C571 C 0.07162 0.74937 0.14117
 C572 C 0.09395 0.77674 0.14924
 C573 C 0.13087 0.77226 0.14411
 C574 C 0.14498 0.74010 0.12946
 O575 O 0.13149 0.68192 0.10793
 C576 C 0.10118 0.66609 0.10609
 C577 C 0.07305 0.68704 0.11794
 C578 C 0.03907 0.67505 0.11999
 C579 C 0.03394 0.64003 0.10943
 C580 C 0.06244 0.61823 0.09638
 C581 C 0.09652 0.63157 0.09450
 H582 H 0.04358 0.75251 0.14561
 H583 H 0.08235 0.80134 0.15948
 H584 H 0.17291 0.73524 0.12570
 H585 H 0.01738 0.69183 0.12981
 H586 H 0.00773 0.63004 0.11109
 H587 H 0.11876 0.61532 0.08505
 C588 C 0.27600 1.11256 0.86463
 C589 C 0.28863 1.09043 0.83799
 C590 C 0.27108 1.08600 0.80632
 C591 C 0.23936 1.10545 0.80176
 C592 C 0.22559 1.12856 0.82884
 C593 C 0.24424 1.13167 0.86096
 O594 O 0.29755 1.11434 0.89182
 C595 C 0.32441 1.09295 0.88205
 C596 C 0.32017 1.07751 0.84941
 C597 C 0.34551 1.05492 0.83364
 C598 C 0.37662 1.04815 0.85218
 C599 C 0.38184 1.06417 0.88565
 C600 C 0.35515 1.08669 0.90088
 H601 H 0.28185 1.06890 0.78546
 H602 H 0.22620 1.10327 0.77656
 H603 H 0.23465 1.14878 0.88233
 H604 H 0.34162 1.04319 0.80786
 H605 H 0.39672 1.03071 0.84026
 H606 H 0.35835 1.09931 0.92636
 C607 C 0.29382 0.87058 1.10982
 C608 C 0.30941 0.84169 1.09296
 C609 C 0.29403 0.80871 1.09250
 C610 C 0.26134 0.80534 1.11031
 C611 C 0.24428 0.83493 1.12757
 C612 C 0.26099 0.86814 1.12684
 O613 O 0.31327 0.89919 1.10822
 C614 C 0.34173 0.88815 1.08984
 C615 C 0.34059 0.85327 1.07955
 C616 C 0.36755 0.83657 1.05959
 C617 C 0.39678 0.85671 1.04979
 C618 C 0.39874 0.89256 1.06063
 C619 C 0.37084 0.90831 1.08117
 H620 H 0.30703 0.78617 1.07951
 H621 H 0.24984 0.77938 1.11122
 H622 H 0.24894 0.89157 1.13908
 H623 H 0.36603 0.80913 1.05165
 H624 H 0.41795 0.84433 1.03402
 H625 H 0.37161 0.93551 1.08996
 C626 C 0.68606 1.12730 1.12301
 C627 C 0.69023 1.13131 1.08624
 C628 C 0.72021 1.14486 1.06965
 C629 C 0.74705 1.15468 1.09191
 C630 C 0.74331 1.15131 1.13008
 C631 C 0.71211 1.13743 1.14563
 O632 O 0.65570 1.11360 1.13334
 C633 C 0.64028 1.10894 1.10236
 C634 C 0.66028 1.11960 1.07276
 C635 C 0.64896 1.11793 1.03768
 C636 C 0.61558 1.10496 1.03297
 C637 C 0.59449 1.09370 1.06298
 C638 C 0.60717 1.09529 1.09820
 H639 H 0.72297 1.14747 1.04060
 H640 H 0.77088 1.16436 1.07928
 H641 H 0.70797 1.13488 1.17456
 H642 H 0.66510 1.12649 1.01480
 H643 H 0.60629 1.10313 1.00589
 H644 H 0.59148 1.08696 1.12152
 C645 C 0.75056 0.90233 0.91315
 C646 C 0.74945 0.93870 0.90662
 C647 C 0.77868 0.95751 0.89573
 C648 C 0.81027 0.93795 0.89057
 C649 C 0.81202 0.90013 0.89557
 C650 C 0.78175 0.88220 0.90786
 O651 O 0.71949 0.88968 0.92250
 C652 C 0.69836 0.91868 0.92154
 C653 C 0.71542 0.94930 0.91168
 C654 C 0.69812 0.98234 0.90673
 C655 C 0.66167 0.98391 0.91221
 C656 C 0.64353 0.95286 0.92302
 C657 C 0.66218 0.91982 0.92804
 H658 H 0.77714 0.98616 0.89092
 H659 H 0.83330 0.95227 0.88206
 H660 H 0.78205 0.85341 0.91157
 H661 H 0.71209 1.00593 0.89839
 H662 H 0.64762 1.00934 0.90839
 H663 H 0.64883 0.89567 0.93580
   
