data_POSCAR
  _audit_creation_date              2014-09-24
  _audit_creation_method            'ToBaCCo'
  _symmetry_space_group_name_H-M    'P1'
  _symmetry_Int_Tables_number       1
  _symmetry_cell_setting            triclinic
  loop_
  _symmetry_equiv_pos_as_xyz
 x,y,z
_cell_length_a 34.0899
_cell_length_b 33.7195
_cell_length_c 33.2913
_cell_angle_alpha 91.152800
_cell_angle_beta 90.640700
_cell_angle_gamma 88.158500
loop_
  _atom_site_label
  _atom_site_type_symbol
  _atom_site_fract_x
  _atom_site_fract_y
  _atom_site_fract_z
C1 C 0.20739 1.24976 0.19263
 C2 C 0.24239 1.23145 0.17804
 C3 C 0.26108 1.19959 0.19787
 C4 C 0.24483 1.18580 0.23330
 C5 C 0.20891 1.20177 0.24768
 C6 C 0.19094 1.23401 0.22743
 H7 H 0.25402 1.23984 0.14948
 H8 H 0.25897 1.16072 0.24799
 H9 H 0.16526 1.24823 0.24079
 C10 C 0.81578 0.76366 0.19505
 C11 C 0.77959 0.77715 0.17791
 C12 C 0.75825 0.81011 0.19410
 C13 C 0.77314 0.82994 0.22817
 C14 C 0.80860 0.81732 0.24582
 C15 C 0.82914 0.78410 0.22987
 H16 H 0.76810 0.76337 0.15099
 H17 H 0.75818 0.85644 0.23997
 H18 H 0.85528 0.77434 0.24593
 C19 C 0.80736 1.22871 -0.16908
 C20 C 0.82286 1.20896 -0.20356
 C21 C 0.80554 1.17499 -0.22049
 C22 C 0.77214 1.16038 -0.20209
 C23 C 0.75693 1.17829 -0.16698
 C24 C 0.77423 1.21253 -0.15120
 H25 H 0.84822 1.22025 -0.21796
 H26 H 0.75829 1.13440 -0.21450
 H27 H 0.76241 1.22532 -0.12373
 C28 C 0.17345 0.75407 -0.19538
 C29 C 0.15549 0.77479 -0.22754
 C30 C 0.17046 0.81034 -0.24141
 C31 C 0.20495 0.82469 -0.22383
 C32 C 0.22407 0.80447 -0.19239
 C33 C 0.20811 0.76945 -0.17839
 H34 H 0.12855 0.76454 -0.24090
 H35 H 0.21670 0.85203 -0.23428
 H36 H 0.22342 0.75404 -0.15446
 C37 C 0.53258 1.05486 -0.02571
 H38 H 0.51997 1.06652 0.00190
 C39 C 0.55824 1.07782 -0.04710
 H40 H 0.56462 1.10743 -0.03621
 C41 C 0.54149 1.00141 -0.07241
 H42 H 0.53553 0.97119 -0.08145
 C43 C 0.56686 1.02351 -0.09499
 H44 H 0.58043 1.01012 -0.12144
 N45 N 0.52463 1.01744 -0.03873
 C46 C 0.45931 1.00072 0.06789
 H47 H 0.47466 0.97387 0.07723
 C48 C 0.43449 1.02124 0.09478
 H49 H 0.43153 1.01047 0.12499
 C50 C 0.44269 1.04629 0.01666
 H51 H 0.44532 1.05522 -0.01420
 C52 C 0.41797 1.06798 0.04269
 H53 H 0.40158 1.09366 0.03169
 Zn54 Zn 0.49366 0.98399 -0.00809
 N55 N 0.46317 1.01368 0.02973
 C56 C 0.55071 0.96516 0.04888
 N57 N 0.52927 0.94894 0.01843
 C58 C 0.53591 0.91069 0.00583
 C59 C 0.56493 0.88704 0.02456
 C60 C 0.57933 0.94244 0.06890
 C61 C 0.44671 0.97282 -0.07738
 C62 C 0.41652 0.95629 -0.10018
 C63 C 0.40985 0.90693 -0.04928
 C64 C 0.43983 0.92476 -0.02717
 N65 N 0.45778 0.95689 -0.04162
 H66 H 0.54572 0.99602 0.05741
 H67 H 0.51953 0.89883 -0.01942
 H68 H 0.57034 0.85676 0.01408
 H69 H 0.59629 0.95592 0.09294
 H70 H 0.46027 0.99930 -0.08757
 H71 H 0.40765 0.96965 -0.12831
 H72 H 0.39535 0.88181 -0.03705
 H73 H 0.44814 0.91358 0.00205
 C74 C 0.41347 1.05533 0.08223
 C75 C 0.57578 1.06209 -0.08216
 C76 C 0.39752 0.92311 -0.08600
 C77 C 0.58687 0.90296 0.05660
 C78 C -0.01752 0.56439 1.04319
 H79 H 0.01337 0.56945 1.03937
 C80 C -0.04103 0.59263 1.06354
 H81 H -0.02773 0.61956 1.07434
 C82 C -0.07215 0.52409 1.03114
 H83 H -0.08446 0.49774 1.01794
 C84 C -0.09655 0.55099 1.05238
 H85 H -0.12705 0.54405 1.05601
 N86 N -0.03329 0.53101 1.02728
 C87 C 0.05861 0.43885 1.01848
 H88 H 0.06261 0.43749 0.98628
 C89 C 0.07978 0.41265 1.04303
 H90 H 0.10014 0.39109 1.02956
 C91 C 0.02567 0.46745 1.07491
 H92 H 0.00405 0.48846 1.08699
 C93 C 0.04579 0.44129 1.10055
 H94 H 0.03990 0.44261 1.13245
 Zn95 Zn 0.00174 0.49631 0.99858
 N96 N 0.03226 0.46555 1.03469
 C97 C 0.07332 0.52997 0.97613
 N98 N 0.03422 0.52841 0.96784
 C99 C 0.01674 0.55270 0.94035
 C100 C 0.03873 0.58008 0.92007
 C101 C 0.09635 0.55706 0.95673
 C102 C -0.04786 0.43352 0.98485
 C103 C -0.06742 0.40430 0.96313
 C104 C -0.03923 0.42823 0.90226
 C105 C -0.02072 0.45757 0.92514
 N106 N -0.02558 0.45984 0.96566
 H107 H 0.08653 0.51125 0.99883
 H108 H -0.01457 0.55153 0.93504
 H109 H 0.02410 0.59993 0.89913
 H110 H 0.12732 0.55824 0.96409
 H111 H -0.04994 0.43492 1.01725
 H112 H -0.08490 0.38347 0.97892
 H113 H -0.03503 0.42652 0.87007
 H114 H -0.00186 0.47790 0.91058
 C115 C 0.07308 0.41337 1.08453
 C116 C -0.08122 0.58612 1.06879
 C117 C -0.06306 0.40133 0.92136
 C118 C 0.07898 0.58289 0.92866
 C119 C 1.06789 0.00703 0.54946
 H120 H 1.07169 0.03862 0.54706
 C121 C 1.09145 -0.01500 0.57608
 H122 H 1.11354 -0.00031 0.59408
 C123 C 1.03317 -0.05032 0.53049
 H124 H 1.00969 -0.06378 0.51358
 C125 C 1.05549 -0.07323 0.55726
 H126 H 1.04956 -0.10440 0.56017
 N127 N 1.03965 -0.01092 0.52706
 C128 C 1.01263 0.07862 0.43656
 H129 H 0.98102 0.08076 0.43892
 C130 C 1.03142 0.10196 0.40905
 H131 H 1.01374 0.12337 0.39252
 C132 C 1.07301 0.04751 0.45536
 H133 H 1.08897 0.02538 0.47259
 C134 C 1.09283 0.06897 0.42683
 H135 H 1.12380 0.06249 0.42278
 Zn136 Zn 1.00528 0.02057 0.49469
 N137 N 1.03361 0.05291 0.45996
 C138 C 0.96426 0.09031 0.52661
 N139 N 0.97233 0.05079 0.53038
 C140 C 0.95853 0.03072 0.56197
 C141 C 0.93647 0.05044 0.59175
 C142 C 0.94077 0.11084 0.55472
 C143 C 0.99653 -0.03763 0.43620
 C144 C 0.97771 -0.06087 0.40734
 C145 C 0.91560 -0.03142 0.42856
 C146 C 0.93568 -0.00920 0.45774
 N147 N 0.97547 -0.01247 0.46063
 H148 H 0.97608 0.10635 0.50212
 H149 H 0.96575 -0.00058 0.56472
 H150 H 0.92803 0.03370 0.61742
 H151 H 0.93386 0.14187 0.54975
 H152 H 1.02819 -0.03929 0.43894
 H153 H 0.99528 -0.08109 0.38876
 H154 H 0.88410 -0.02725 0.42562
 H155 H 0.91967 0.01163 0.47706
 C156 C 1.07215 0.09704 0.40315
 C157 C 1.08491 -0.05552 0.58052
 C158 C 0.93674 -0.05735 0.40244
 C159 C 0.92695 0.09124 0.58851
 C160 C 0.21062 0.30658 1.14696
 C161 C 0.18890 0.28230 1.17222
 C162 C 0.14821 0.29130 1.17610
 C163 C 0.12998 0.32269 1.15514
 C164 C 0.15220 0.34553 1.12922
 C165 C 0.19248 0.33746 1.12566
 C166 C 0.13366 0.37575 1.10690
 C167 C 0.09312 0.38366 1.11041
 C168 C 0.07141 0.36154 1.13713
 C169 C 0.08963 0.33117 1.15916
 H170 H 0.12975 0.27301 1.19373
 H171 H 0.21011 0.35516 1.10641
 H172 H 0.15064 0.39295 1.08656
 H173 H 0.07208 0.31402 1.17898
 H174 H 0.24209 0.30285 1.14418
 H175 H 0.04007 0.36697 1.14002
 C176 C -0.12068 0.72659 1.18613
 C177 C -0.16131 0.73167 1.17723
 C178 C -0.17777 0.70449 1.14915
 C179 C -0.15450 0.67471 1.13006
 C180 C -0.11438 0.67027 1.14008
 C181 C -0.09791 0.69608 1.16839
 C182 C -0.09108 0.64057 1.12112
 C183 C -0.10682 0.61601 1.09065
 C184 C -0.14696 0.62097 1.08072
 C185 C -0.17062 0.64957 1.10061
 H186 H -0.20879 0.70536 1.14216
 H187 H -0.06694 0.69348 1.17597
 H188 H -0.06061 0.63685 1.13020
 H189 H -0.20135 0.65268 1.09220
 H190 H -0.10513 0.74695 1.20544
 H191 H -0.16014 0.60338 1.05696
 C192 C -0.19711 0.29069 0.87198
 C193 C -0.17508 0.26322 0.84784
 C194 C -0.13501 0.27110 0.84162
 C195 C -0.11764 0.30439 0.85949
 C196 C -0.14006 0.33033 0.88458
 C197 C -0.17979 0.32346 0.89025
 C198 C -0.12227 0.36247 0.90402
 C199 C -0.08232 0.36928 0.89837
 C200 C -0.06044 0.34411 0.87236
 C201 C -0.07789 0.31176 0.85326
 H202 H -0.11623 0.25061 0.82471
 H203 H -0.19762 0.34354 0.90881
 H204 H -0.13937 0.38206 0.92382
 H205 H -0.06019 0.29226 0.83398
 H206 H -0.22829 0.28798 0.87618
 H207 H -0.02953 0.34878 0.86783
 C208 C 0.13168 0.69567 0.79621
 C209 C 0.15620 0.71974 0.82032
 C210 C 0.16192 0.70930 0.86100
 C211 C 0.14292 0.67704 0.87718
 C212 C 0.11772 0.65428 0.85275
 C213 C 0.11273 0.66354 0.81222
 C214 C 0.09747 0.62303 0.86939
 C215 C 0.10212 0.61422 0.91031
 C216 C 0.12789 0.63662 0.93418
 C217 C 0.14805 0.66775 0.91781
 H218 H 0.17920 0.72740 0.88121
 H219 H 0.09398 0.64600 0.79283
 H220 H 0.07796 0.60570 0.85062
 H221 H 0.16724 0.68491 0.93708
 H222 H 0.12764 0.70067 0.76443
 H223 H 0.13162 0.63076 0.96588
 C224 C 1.21181 0.16807 0.31273
 C225 C 1.19009 0.18448 0.28042
 C226 C 1.14888 0.18155 0.28037
 C227 C 1.13008 0.16156 0.31085
 C228 C 1.15209 0.14617 0.34342
 C229 C 1.19293 0.14996 0.34429
 C230 C 1.13305 0.12648 0.37410
 C231 C 1.09238 0.11979 0.37160
 C232 C 1.07127 0.13433 0.33799
 C233 C 1.08970 0.15562 0.30851
 H234 H 1.13146 0.19243 0.25522
 H235 H 1.21039 0.13822 0.36898
 H236 H 1.15019 0.11637 0.39967
 H237 H 1.07248 0.16653 0.28325
 H238 H 1.24339 0.17033 0.31444
 H239 H 1.04046 0.12877 0.33363
 C240 C 1.10762 -0.16458 0.72640
 C241 C 1.14895 -0.16662 0.72701
 C242 C 1.16936 -0.14589 0.69788
 C243 C 1.14885 -0.12348 0.66885
 C244 C 1.10737 -0.12248 0.66825
 C245 C 1.08708 -0.14310 0.69713
 C246 C 1.08680 -0.10056 0.63903
 C247 C 1.10708 -0.07885 0.61083
 C248 C 1.14827 -0.07934 0.61198
 C249 C 1.16904 -0.10181 0.64053
 H250 H 1.20115 -0.14733 0.69758
 H251 H 1.05528 -0.14223 0.69738
 H252 H 1.05497 -0.09979 0.63859
 H253 H 1.20083 -0.10206 0.64061
 H254 H 1.09095 -0.17911 0.74901
 H255 H 1.16434 -0.06275 0.59041
 C256 C 0.80545 -0.15112 0.31472
 C257 C 0.82614 -0.15940 0.27915
 C258 C 0.86404 -0.14513 0.27500
 C259 C 0.88136 -0.12296 0.30606
 C260 C 0.86089 -0.11547 0.34227
 C261 C 0.82285 -0.12962 0.34625
 C262 C 0.87889 -0.09407 0.37375
 C263 C 0.91688 -0.07953 0.36922
 C264 C 0.93618 -0.08630 0.33241
 C265 C 0.91880 -0.10806 0.30137
 H266 H 0.87985 -0.15099 0.24730
 H267 H 0.80657 -0.12403 0.37366
 H268 H 0.86356 -0.08934 0.40186
 H269 H 0.93462 -0.11307 0.27358
 H270 H 0.77611 -0.16186 0.31828
 H271 H 0.96481 -0.07449 0.32732
 C272 C 0.82047 0.11256 0.73838
 C273 C 0.82321 0.15400 0.74360
 C274 C 0.84425 0.17487 0.71499
 C275 C 0.86353 0.15468 0.68324
 C276 C 0.85989 0.11336 0.67816
 C277 C 0.83787 0.09265 0.70562
 C278 C 0.87906 0.09320 0.64632
 C279 C 0.90404 0.11329 0.62059
 C280 C 0.90785 0.15454 0.62672
 C281 C 0.88721 0.17505 0.65706
 H282 H 0.84609 0.20681 0.71733
 H283 H 0.83517 0.06080 0.70253
 H284 H 0.87449 0.06180 0.64206
 H285 H 0.89082 0.20673 0.66085
 H286 H 0.80569 0.09502 0.76006
 H287 H 0.92746 0.17126 0.60881
 C288 C 0.32431 1.19974 0.15974
 C289 C 0.29543 1.17846 0.17912
 C290 C 0.29794 1.13670 0.17791
 C291 C 0.32790 1.11655 0.15647
 C292 C 0.35585 1.13831 0.13583
 C293 C 0.35421 1.17987 0.13825
 C294 C 0.38436 1.11815 0.11237
 C295 C 0.38540 1.07649 0.10941
 C296 C 0.35828 1.05512 0.13109
 C297 C 0.32970 1.07497 0.15433
 H298 H 0.27562 1.11982 0.19216
 H299 H 0.37560 1.19702 0.12293
 H300 H 0.40546 1.13482 0.09605
 H301 H 0.30856 1.05782 0.17003
 H302 H 0.32342 1.23188 0.16069
 H303 H 0.35841 1.02302 0.12901
 C304 C 0.72546 1.15796 -0.10312
 C305 C 0.72433 1.15997 -0.14531
 C306 C 0.69269 1.14328 -0.16648
 C307 C 0.66303 1.12439 -0.14586
 C308 C 0.66459 1.12273 -0.10347
 C309 C 0.69578 1.13980 -0.08242
 C310 C 0.63539 1.10332 -0.08286
 C311 C 0.60494 1.08481 -0.10404
 C312 C 0.60352 1.08666 -0.14616
 C313 C 0.63216 1.10655 -0.16690
 H314 H 0.69118 1.14488 -0.19894
 H315 H 0.69759 1.13851 -0.04995
 H316 H 0.63702 1.10151 -0.05039
 H317 H 0.63046 1.10750 -0.19939
 H318 H 0.74983 1.16969 -0.08603
 H319 H 0.58018 1.07272 -0.16302
 C320 C 0.29117 0.79489 -0.16097
 C321 C 0.26011 0.82054 -0.17325
 C322 C 0.26338 0.86165 -0.16650
 C323 C 0.29685 0.87686 -0.14764
 C324 C 0.32744 0.85069 -0.13467
 C325 C 0.32439 0.80978 -0.14169
 C326 C 0.36042 0.86588 -0.11476
 C327 C 0.36345 0.90698 -0.10816
 C328 C 0.33320 0.93275 -0.12184
 C329 C 0.30010 0.91783 -0.14122
 H330 H 0.23955 0.88185 -0.17518
 H331 H 0.34769 0.78930 -0.13229
 H332 H 0.38380 0.84585 -0.10455
 H333 H 0.27696 0.93833 -0.15100
 H334 H 0.28991 0.76320 -0.16644
 H335 H 0.33478 0.96449 -0.11671
 C336 C 0.69041 0.84156 0.19730
 C337 C 0.72156 0.82540 0.17418
 C338 C 0.71802 0.82542 0.13196
 C339 C 0.68443 0.84205 0.11324
 C340 C 0.65410 0.85951 0.13690
 C341 C 0.65714 0.85864 0.17887
 C342 C 0.62167 0.87833 0.11819
 C343 C 0.61894 0.87957 0.07609
 C344 C 0.64843 0.86076 0.05279
 C345 C 0.68104 0.84233 0.07120
 H346 H 0.74186 0.81376 0.11351
 H347 H 0.63396 0.87151 0.19747
 H348 H 0.59880 0.89254 0.13630
 H349 H 0.70392 0.82891 0.05258
 H350 H 0.69184 0.84125 0.22980
 H351 H 0.64692 0.86163 0.02030
   
