data_POSCAR
  _audit_creation_date              2014-09-24
  _audit_creation_method            'ToBaCCo'
  _symmetry_space_group_name_H-M    'P1'
  _symmetry_Int_Tables_number       1
  _symmetry_cell_setting            triclinic
  loop_
  _symmetry_equiv_pos_as_xyz
 x,y,z
_cell_length_a 61.1372
_cell_length_b 26.3137
_cell_length_c 20.9297
_cell_angle_alpha 90.411100
_cell_angle_beta 89.413900
_cell_angle_gamma 90.126200
loop_
  _atom_site_label
  _atom_site_type_symbol
  _atom_site_fract_x
  _atom_site_fract_y
  _atom_site_fract_z
C1 C 0.74569 0.25216 0.47347
 C2 C 0.74415 0.24747 0.53826
 C3 C 0.72361 0.25994 0.57361
 C4 C 0.76306 0.23022 0.57652
 C5 C 0.76468 0.23125 0.43729
 C6 C 0.72831 0.27760 0.43620
 C7 C 0.72412 0.29269 0.62665
 C8 C 0.70476 0.30703 0.65789
 C9 C 0.68429 0.28882 0.63645
 C10 C 0.68408 0.25470 0.58426
 C11 C 0.70348 0.23987 0.55394
 C12 C 0.78334 0.25511 0.57183
 C13 C 0.80127 0.23788 0.60638
 C14 C 0.79915 0.19573 0.64701
 C15 C 0.77877 0.17127 0.65209
 C16 C 0.76083 0.18863 0.61762
 C17 C 0.77052 0.17996 0.44338
 C18 C 0.78907 0.16103 0.41198
 C19 C 0.80215 0.19297 0.37409
 C20 C 0.79575 0.24388 0.36590
 C21 C 0.77713 0.26275 0.39719
 C22 C 0.71808 0.25114 0.38655
 C23 C 0.70044 0.27187 0.35423
 C24 C 0.69153 0.32386 0.37061
 C25 C 0.70428 0.35030 0.42173
 C26 C 0.72176 0.32712 0.45210
 H27 H 0.73951 0.30840 0.64280
 H28 H 0.70619 0.33377 0.69698
 H29 H 0.66882 0.23933 0.56647
 H30 H 0.70275 0.21334 0.51422
 H31 H 0.78534 0.28761 0.54082
 H32 H 0.81680 0.25696 0.59983
 H33 H 0.74530 0.16900 0.62199
 H34 H 0.76084 0.15478 0.47308
 H35 H 0.79346 0.12153 0.41828
 H36 H 0.80492 0.26918 0.33514
 H37 H 0.77267 0.30223 0.39118
 H38 H 0.72338 0.21305 0.37407
 H39 H 0.69275 0.24942 0.31722
 H40 H 0.69947 0.38817 0.43664
 H41 H 0.73007 0.34775 0.48972
 H42 H 0.77674 0.13856 0.68274
 C43 C 0.24418 0.74453 0.47785
 C44 C 0.24395 0.73741 0.54234
 C45 C 0.22392 0.74555 0.58200
 C46 C 0.26398 0.72157 0.57635
 C47 C 0.26295 0.72692 0.43773
 C48 C 0.22587 0.77018 0.44482
 C49 C 0.22492 0.77562 0.63752
 C50 C 0.20622 0.78356 0.67519
 C51 C 0.18612 0.76146 0.65799
 C52 C 0.18533 0.73005 0.60356
 C53 C 0.20404 0.72216 0.56585
 C54 C 0.28342 0.74967 0.57013
 C55 C 0.30233 0.73433 0.60135
 C56 C 0.30204 0.69091 0.64021
 C57 C 0.28253 0.66310 0.64668
 C58 C 0.26360 0.67853 0.61547
 C59 C 0.26983 0.67613 0.43993
 C60 C 0.28801 0.66007 0.40437
 C61 C 0.29972 0.69438 0.36590
 C62 C 0.29233 0.74492 0.36194
 C63 C 0.27406 0.76093 0.39748
 C64 C 0.21686 0.74840 0.38965
 C65 C 0.19949 0.77196 0.35872
 C66 C 0.19071 0.81783 0.38270
 C67 C 0.20026 0.84031 0.43673
 C68 C 0.21772 0.81691 0.46730
 H69 H 0.24017 0.79334 0.65144
 H70 H 0.20769 0.80651 0.71802
 H71 H 0.17012 0.71205 0.58976
 H72 H 0.20302 0.69776 0.52409
 H73 H 0.28396 0.78332 0.54065
 H74 H 0.31717 0.75598 0.59374
 H75 H 0.24873 0.65646 0.62096
 H76 H 0.26121 0.64901 0.46971
 H77 H 0.29316 0.62082 0.40773
 H78 H 0.30040 0.77218 0.33131
 H79 H 0.26880 0.80011 0.39448
 H80 H 0.22316 0.71283 0.37080
 H81 H 0.19328 0.75418 0.31591
 H82 H 0.19411 0.87600 0.45566
 H83 H 0.22485 0.83526 0.50865
 H84 H 0.28193 0.62936 0.67600
 C85 C 0.25689 0.21290 -0.46818
 C86 C 0.25841 0.20596 -0.53279
 C87 C 0.27836 0.22005 -0.56969
 C88 C 0.23944 0.18766 -0.57069
 C89 C 0.23552 0.20806 -0.43406
 C90 C 0.27625 0.22631 -0.42878
 C91 C 0.28712 0.26919 -0.56514
 C92 C 0.30468 0.28378 -0.60414
 C93 C 0.31373 0.24952 -0.64951
 C94 C 0.30513 0.19990 -0.65254
 C95 C 0.28754 0.18550 -0.61353
 C96 C 0.23193 0.21650 -0.62203
 C97 C 0.21326 0.20178 -0.65538
 C98 C 0.20157 0.15753 -0.63799
 C99 C 0.20980 0.12766 -0.58809
 C100 C 0.22854 0.14242 -0.55501
 C101 C 0.23335 0.17499 -0.38218
 C102 C 0.21302 0.16787 -0.35234
 C103 C 0.19435 0.19392 -0.37396
 C104 C 0.19685 0.22812 -0.42489
 C105 C 0.21724 0.23568 -0.45392
 C106 C 0.29573 0.19823 -0.43341
 C107 C 0.31372 0.21117 -0.39581
 C108 C 0.31263 0.25233 -0.35279
 C109 C 0.29288 0.27948 -0.34692
 C110 C 0.27493 0.26659 -0.38459
 H111 H 0.28006 0.29669 -0.53222
 H112 H 0.31084 0.32190 -0.59777
 H113 H 0.31169 0.17231 -0.68628
 H114 H 0.28091 0.14745 -0.61801
 H115 H 0.24025 0.25131 -0.63533
 H116 H 0.20826 0.22582 -0.69408
 H117 H 0.23432 0.11903 -0.51633
 H118 H 0.24731 0.15353 -0.36596
 H119 H 0.21211 0.14053 -0.31417
 H120 H 0.18296 0.24910 -0.44261
 H121 H 0.21867 0.26240 -0.49287
 H122 H 0.29696 0.16613 -0.46591
 H123 H 0.32860 0.18914 -0.40064
 H124 H 0.29104 0.31021 -0.31275
 H125 H 0.25998 0.28830 -0.37945
 H126 H 0.20152 0.09306 -0.57373
 C127 C -0.24158 0.72025 -0.48156
 C128 C -0.24153 0.71424 -0.54626
 C129 C -0.22193 0.72595 -0.58606
 C130 C -0.26168 0.69876 -0.58019
 C131 C -0.26021 0.70176 -0.44178
 C132 C -0.22381 0.74828 -0.44861
 C133 C -0.22359 0.75934 -0.63764
 C134 C -0.20513 0.77193 -0.67417
 C135 C -0.18450 0.75095 -0.66011
 C136 C -0.18318 0.71593 -0.60974
 C137 C -0.20165 0.70376 -0.57295
 C138 C -0.28079 0.72761 -0.57326
 C139 C -0.29992 0.71307 -0.60421
 C140 C -0.30030 0.66930 -0.64366
 C141 C -0.28095 0.64068 -0.65052
 C142 C -0.26178 0.65555 -0.61961
 C143 C -0.26689 0.65082 -0.44514
 C144 C -0.28542 0.63443 -0.41150
 C145 C -0.29782 0.66855 -0.37377
 C146 C -0.29050 0.71945 -0.36892
 C147 C -0.27184 0.73560 -0.40232
 C148 C -0.21315 0.72649 -0.39657
 C149 C -0.19643 0.75288 -0.36549
 C150 C -0.19015 0.80173 -0.38591
 C151 C -0.20136 0.82400 -0.43670
 C152 C -0.21802 0.79757 -0.46779
 H153 H -0.23917 0.77637 -0.64903
 H154 H -0.20746 0.79755 -0.71355
 H155 H -0.16771 0.69850 -0.59787
 H156 H -0.20011 0.67714 -0.53404
 H157 H -0.28091 0.76142 -0.54340
 H158 H -0.31424 0.73605 -0.59541
 H159 H -0.24711 0.63294 -0.62563
 H160 H -0.25794 0.62392 -0.47475
 H161 H -0.29031 0.59497 -0.41618
 H162 H -0.29892 0.74757 -0.34021
 H163 H -0.26686 0.77505 -0.39892
 H164 H -0.21770 0.68890 -0.38032
 H165 H -0.18877 0.73519 -0.32498
 H166 H -0.19708 0.86184 -0.45272
 H167 H -0.22647 0.81565 -0.50675
 H168 H -0.28058 0.60677 -0.68021
 N169 N 0.02173 1.11136 -0.07049
 N170 N 0.03978 1.13852 -0.07697
 N171 N -0.02546 1.07741 -0.10675
 N172 N -0.04300 1.08343 -0.14207
 N173 N -0.02433 1.11302 -0.06262
 N174 N -0.04110 1.14434 -0.06682
 N175 N 0.02055 1.07649 -0.11554
 N176 N 0.03776 1.07919 -0.15403
 C177 C 0.04946 1.11839 -0.12964
 C178 C -0.05257 1.12537 -0.11663
 N179 N -0.02521 0.93240 -0.06447
 N180 N -0.04152 0.89998 -0.07116
 N181 N 0.01987 0.96729 -0.11680
 N182 N 0.03655 0.96364 -0.15691
 N183 N 0.02083 0.93182 -0.07307
 N184 N 0.03828 0.90296 -0.08248
 N185 N -0.02603 0.96788 -0.10817
 N186 N -0.04293 0.96047 -0.14596
 Mn187 Mn -0.00283 1.02230 -0.11256
 C188 C -0.05246 0.91806 -0.12196
 C189 C 0.04777 0.92323 -0.13536
 N190 N -0.02182 1.11278 0.07460
 N191 N -0.03845 1.14381 0.08449
 N192 N 0.02459 1.07555 0.11044
 N193 N 0.04255 1.07900 0.14459
 N194 N 0.02417 1.11116 0.06685
 N195 N 0.04185 1.14003 0.07045
 N196 N -0.02144 1.07728 0.11833
 N197 N -0.03786 1.08317 0.15919
 Mn198 Mn -0.00005 1.11274 0.00206
 C199 C -0.04825 1.12494 0.13744
 C200 C 0.05309 1.11952 0.11932
 N201 N 0.02303 0.93122 0.06468
 N202 N 0.03932 0.89879 0.07039
 N203 N -0.02207 0.96790 0.11704
 N204 N -0.03886 0.96441 0.15680
 N205 N -0.02297 0.93221 0.07293
 N206 N -0.04044 0.90329 0.08175
 N207 N 0.02392 0.96641 0.10937
 N208 N 0.04090 0.95900 0.14661
 Mn209 Mn -0.00106 0.93124 -0.00001
 Mn210 Mn 0.00125 1.02180 0.11456
 Cl211 Cl -0.00068 1.02199 0.00102
 C212 C 0.05034 0.91672 0.12155
 C213 C -0.05005 0.92377 0.13458
 N214 N 0.47199 0.43980 -0.07362
 N215 N 0.45420 0.41228 -0.08375
 N216 N 0.51989 0.46564 -0.11484
 N217 N 0.53762 0.45817 -0.15012
 N218 N 0.51795 0.43027 -0.07117
 N219 N 0.53442 0.39801 -0.07527
 N220 N 0.47414 0.47492 -0.11756
 N221 N 0.45790 0.47250 -0.15840
 C222 C 0.44564 0.43331 -0.13694
 C223 C 0.54639 0.41564 -0.12509
 N224 N 0.52464 0.61051 -0.06945
 N225 N 0.54266 0.63786 -0.07485
 N226 N 0.47818 0.58352 -0.11642
 N227 N 0.46150 0.59089 -0.15466
 N228 N 0.47874 0.61868 -0.07164
 N229 N 0.46247 0.65111 -0.07841
 N230 N 0.52407 0.57496 -0.11376
 N231 N 0.54170 0.57730 -0.15070
 Mn232 Mn 0.49913 0.52474 -0.11639
 C233 C 0.55309 0.61684 -0.12579
 C234 C 0.45194 0.63330 -0.13058
 N235 N 0.51686 0.43025 0.06602
 N236 N 0.53286 0.39707 0.07193
 N237 N 0.47243 0.47520 0.10953
 N238 N 0.45560 0.47300 0.14918
 N239 N 0.47097 0.43989 0.06511
 N240 N 0.45309 0.41226 0.07381
 N241 N 0.51827 0.46590 0.11003
 N242 N 0.53526 0.45790 0.14710
 Mn243 Mn 0.49432 0.43435 -0.00345
 C244 C 0.54412 0.41467 0.12282
 C245 C 0.44374 0.43363 0.12654
 N246 N 0.47755 0.61877 0.06627
 N247 N 0.46118 0.65121 0.07241
 N248 N 0.52223 0.57500 0.11098
 N249 N 0.53912 0.57746 0.14966
 N250 N 0.52346 0.61076 0.06768
 N251 N 0.54120 0.63864 0.07575
 N252 N 0.47632 0.58370 0.11047
 N253 N 0.45907 0.59118 0.14770
 Mn254 Mn 0.50106 0.61534 -0.00180
 Mn255 Mn 0.49737 0.52494 0.11098
 Cl256 Cl 0.49795 0.52481 -0.00267
 C257 C 0.44986 0.63355 0.12361
 C258 C 0.55076 0.61739 0.12701
 C259 C 0.33082 0.26269 0.30792
 C260 C 0.33913 0.31196 0.30026
 C261 C 0.35723 0.32526 0.25569
 C262 C 0.36012 0.37654 0.23970
 C263 C 0.37767 0.39176 0.20125
 C264 C 0.39292 0.35596 0.17833
 C265 C 0.38969 0.30443 0.19221
 C266 C 0.37213 0.28913 0.23107
 C267 C 0.41266 0.37200 0.14232
 C268 C 0.42315 0.41764 0.15665
 H269 H 0.33161 0.34343 0.32538
 H270 H 0.34884 0.40514 0.25756
 H271 H 0.37934 0.43165 0.18985
 H272 H 0.40124 0.27621 0.17498
 H273 H 0.37082 0.24937 0.24314
 H274 H 0.42022 0.34564 0.10882
 H275 H 0.33725 0.23295 0.27715
 H276 H 0.41681 0.44168 0.19470
 C277 C -0.16521 0.76353 0.30602
 C278 C -0.16337 0.80333 0.26217
 C279 C -0.14237 0.81714 0.23114
 C280 C -0.13829 0.86833 0.21705
 C281 C -0.11845 0.88306 0.18916
 C282 C -0.10239 0.84666 0.17393
 C283 C -0.10681 0.79519 0.18552
 C284 C -0.12656 0.78050 0.21443
 C285 C -0.08113 0.86174 0.14554
 C286 C -0.07092 0.90713 0.16268
 H287 H -0.17688 0.82895 0.25493
 H288 H -0.15037 0.89713 0.22858
 H289 H -0.11580 0.92289 0.17897
 H290 H -0.09479 0.76644 0.17324
 H291 H -0.12952 0.74054 0.22295
 H292 H -0.07277 0.83543 0.11366
 H293 H -0.15043 0.74297 0.31742
 H294 H -0.07819 0.93116 0.19931
 C295 C 0.68079 0.65266 0.32445
 C296 C 0.66134 0.68048 0.32095
 C297 C 0.64152 0.66115 0.28897
 C298 C 0.62657 0.69625 0.26472
 C299 C 0.60738 0.67971 0.23555
 C300 C 0.60269 0.62752 0.23046
 C301 C 0.61739 0.59239 0.25597
 C302 C 0.63670 0.60894 0.28477
 C303 C 0.58228 0.60891 0.20112
 C304 C 0.57131 0.63587 0.15423
 H305 H 0.66066 0.71922 0.33814
 H306 H 0.62974 0.73669 0.26841
 H307 H 0.59607 0.70796 0.21842
 H308 H 0.61393 0.55205 0.25348
 H309 H 0.64749 0.58089 0.30490
 H310 H 0.57617 0.57186 0.21504
 H311 H 0.68159 0.61665 0.29913
 H312 H 0.57814 0.67070 0.13539
 C313 C 0.18197 1.14212 0.33257
 C314 C 0.17094 1.16950 0.28549
 C315 C 0.14965 1.15333 0.25857
 C316 C 0.13625 1.19008 0.23046
 C317 C 0.11585 1.17679 0.20566
 C318 C 0.10851 1.12616 0.20794
 C319 C 0.12202 1.08933 0.23520
 C320 C 0.14244 1.10253 0.25977
 C321 C 0.08672 1.11044 0.18464
 C322 C 0.07457 1.13783 0.14055
 H323 H 0.17702 1.20598 0.27011
 H324 H 0.14142 1.22946 0.22871
 H325 H 0.10575 1.20650 0.18625
 H326 H 0.11678 1.05006 0.23716
 H327 H 0.15250 1.07264 0.27886
 H328 H 0.08028 1.07443 0.20133
 H329 H 0.17442 1.10755 0.34985
 H330 H 0.08107 1.17205 0.11921
 C331 C 0.66493 0.30364 -0.33780
 C332 C 0.66230 0.33422 -0.28320
 C333 C 0.64057 0.35270 -0.26248
 C334 C 0.63574 0.35721 -0.19707
 C335 C 0.61530 0.37497 -0.17650
 C336 C 0.59952 0.38945 -0.22122
 C337 C 0.60461 0.38640 -0.28659
 C338 C 0.62488 0.36775 -0.30716
 C339 C 0.57802 0.40964 -0.20097
 C340 C 0.56728 0.39337 -0.14579
 H341 H 0.67587 0.34247 -0.25212
 H342 H 0.64774 0.34659 -0.16189
 H343 H 0.61207 0.37837 -0.12571
 H344 H 0.59281 0.39814 -0.32179
 H345 H 0.62843 0.36609 -0.35792
 H346 H 0.56997 0.43643 -0.23196
 H347 H 0.65004 0.29055 -0.36053
 H348 H 0.57416 0.36332 -0.11726
 C349 C 0.16585 0.77009 -0.30414
 C350 C 0.16244 0.81388 -0.26728
 C351 C 0.14153 0.82539 -0.23406
 C352 C 0.13612 0.87640 -0.22247
 C353 C 0.11628 0.88920 -0.19306
 C354 C 0.10147 0.85110 -0.17406
 C355 C 0.10728 0.79997 -0.18292
 C356 C 0.12709 0.78712 -0.21307
 C357 C 0.08003 0.86422 -0.14506
 C358 C 0.06865 0.90726 -0.16401
 H359 H 0.17478 0.84344 -0.26764
 H360 H 0.14713 0.90654 -0.23714
 H361 H 0.11264 0.92897 -0.18489
 H362 H 0.09628 0.77000 -0.16765
 H363 H 0.13109 0.74735 -0.21935
 H364 H 0.07258 0.83839 -0.11111
 H365 H 0.15253 0.74336 -0.31014
 H366 H 0.07516 0.93048 -0.20227
 C367 C 0.32192 0.67247 -0.32768
 C368 C 0.33966 0.70384 -0.31309
 C369 C 0.36003 0.68473 -0.28436
 C370 C 0.37357 0.71880 -0.25124
 C371 C 0.39319 0.70232 -0.22471
 C372 C 0.39968 0.65127 -0.23118
 C373 C 0.38634 0.61747 -0.26536
 C374 C 0.36671 0.63390 -0.29168
 C375 C 0.42045 0.63208 -0.20505
 C376 C 0.43190 0.65585 -0.15583
 H377 H 0.33833 0.74440 -0.32028
 H378 H 0.36896 0.75835 -0.24594
 H379 H 0.40333 0.72992 -0.20045
 H380 H 0.39114 0.57814 -0.27184
 H381 H 0.35714 0.60690 -0.31883
 H382 H 0.42649 0.59611 -0.22351
 H383 H 0.32210 0.63318 -0.31272
 H384 H 0.42576 0.69012 -0.13328
 C385 C -0.18201 1.17496 -0.31775
 C386 C -0.16356 1.20377 -0.30214
 C387 C -0.14407 1.18231 -0.27071
 C388 C -0.12981 1.21524 -0.23835
 C389 C -0.11079 1.19676 -0.21020
 C390 C -0.10559 1.14478 -0.21421
 C391 C -0.11972 1.11196 -0.24721
 C392 C -0.13878 1.13040 -0.27511
 C393 C -0.08518 1.12379 -0.18755
 C394 C -0.07301 1.14765 -0.13984
 H395 H -0.16362 1.24424 -0.31099
 H396 H -0.13333 1.25552 -0.23517
 H397 H -0.10002 1.22359 -0.18694
 H398 H -0.11593 1.07188 -0.25183
 H399 H -0.14894 1.10406 -0.30143
 H400 H -0.07978 1.08703 -0.20523
 H401 H -0.18318 1.13608 -0.30151
 H402 H -0.07863 1.18260 -0.11779
 C403 C 0.68293 0.65034 -0.34383
 C404 C 0.66814 0.68016 -0.30822
 C405 C 0.64721 0.66099 -0.28056
 C406 C 0.63587 0.69224 -0.23692
 C407 C 0.61579 0.67708 -0.21077
 C408 C 0.60654 0.62983 -0.22744
 C409 C 0.61776 0.59872 -0.27153
 C410 C 0.63782 0.61401 -0.29798
 C411 C 0.58510 0.61233 -0.20168
 C412 C 0.57442 0.63485 -0.14946
 H413 H 0.67167 0.71974 -0.29935
 H414 H 0.64249 0.72892 -0.22323
 H415 H 0.60757 0.70316 -0.17858
 H416 H 0.61092 0.56243 -0.28592
 H417 H 0.64549 0.58914 -0.33275
 H418 H 0.57755 0.57955 -0.22413
 H419 H 0.67929 0.61039 -0.34977
 H420 H 0.58180 0.66608 -0.12374
 C421 C 0.17323 1.18603 -0.34848
 C422 C 0.16846 1.15793 -0.29357
 C423 C 0.14572 1.14794 -0.27250
 C424 C 0.14092 1.14487 -0.20700
 C425 C 0.11959 1.13487 -0.18589
 C426 C 0.10275 1.12687 -0.23014
 C427 C 0.10768 1.12851 -0.29566
 C428 C 0.12894 1.13939 -0.31676
 C429 C 0.08023 1.11462 -0.20915
 C430 C 0.07118 1.13396 -0.15271
 H431 H 0.18137 1.14559 -0.26247
 H432 H 0.15369 1.15051 -0.17211
 H433 H 0.11644 1.13228 -0.13503
 H434 H 0.09503 1.12162 -0.33055
 H435 H 0.13230 1.13999 -0.36764
 H436 H 0.07024 1.09111 -0.24004
 H437 H 0.15962 1.20381 -0.37242
 H438 H 0.08025 1.16112 -0.12423
 C439 C 0.33214 0.26517 -0.31414
 C440 C 0.33564 0.31334 -0.28740
 C441 C 0.35549 0.32765 -0.25122
 C442 C 0.36088 0.37933 -0.24573
 C443 C 0.37955 0.39479 -0.21287
 C444 C 0.39327 0.35876 -0.18444
 C445 C 0.38747 0.30718 -0.18776
 C446 C 0.36880 0.29164 -0.22102
 C447 C 0.41352 0.37413 -0.15091
 C448 C 0.42534 0.41735 -0.16827
 H449 H 0.32412 0.34338 -0.29725
 H450 H 0.35070 0.40795 -0.26745
 H451 H 0.38300 0.43504 -0.20928
 H452 H 0.39756 0.27877 -0.16530
 H453 H 0.36479 0.25160 -0.22224
 H454 H 0.41998 0.34937 -0.11455
 H455 H 0.34480 0.23671 -0.31065
 H456 H 0.42005 0.43994 -0.20822
 C457 C -0.17248 0.83103 -0.35465
 C458 C -0.15526 0.80803 -0.32238
 C459 C -0.13701 0.83598 -0.29162
 C460 C -0.12258 0.80844 -0.25338
 C461 C -0.10495 0.83242 -0.22377
 C462 C -0.10136 0.88484 -0.23153
 C463 C -0.11555 0.91235 -0.27049
 C464 C -0.13322 0.88835 -0.30018
 C465 C -0.08261 0.91141 -0.20178
 C466 C -0.07181 0.89288 -0.14846
 H467 H -0.15489 0.76700 -0.31972
 H468 H -0.12488 0.76800 -0.24655
 H469 H -0.09399 0.80935 -0.19608
 H470 H -0.11296 0.95264 -0.27796
 H471 H -0.14350 0.91114 -0.33020
 H472 H -0.07742 0.94741 -0.22177
 H473 H -0.17285 0.87181 -0.35989
 H474 H -0.07754 0.85891 -0.12479
 C475 C 0.31935 0.67563 0.33092
 C476 C 0.33617 0.70706 0.30827
 C477 C 0.35666 0.68733 0.27875
 C478 C 0.36932 0.71968 0.24011
 C479 C 0.38906 0.70296 0.21288
 C480 C 0.39661 0.65335 0.22408
 C481 C 0.38409 0.62132 0.26346
 C482 C 0.36439 0.63799 0.29059
 C483 C 0.41761 0.63381 0.19772
 C484 C 0.42947 0.65642 0.14808
 H485 H 0.33455 0.74785 0.31243
 H486 H 0.36393 0.75813 0.23107
 H487 H 0.39842 0.72941 0.18427
 H488 H 0.38965 0.58318 0.27366
 H489 H 0.35565 0.61240 0.32197
 H490 H 0.42371 0.59859 0.21722
 H491 H 0.32090 0.63490 0.32535
 H492 H 0.42357 0.69023 0.12494
 C493 C -0.17787 1.17174 0.34367
 C494 C -0.15974 1.20145 0.32705
 C495 C -0.13927 1.18053 0.29902
 C496 C -0.12497 1.21370 0.26698
 C497 C -0.10540 1.19591 0.24014
 C498 C -0.09968 1.14434 0.24488
 C499 C -0.11367 1.11141 0.27842
 C500 C -0.13328 1.12918 0.30519
 C501 C -0.07915 1.12392 0.21680
 C502 C -0.06815 1.14687 0.16593
 H503 H -0.16043 1.24214 0.33441
 H504 H -0.12898 1.25360 0.26257
 H505 H -0.09471 1.22294 0.21675
 H506 H -0.10945 1.07170 0.28368
 H507 H -0.14337 1.10266 0.33149
 H508 H -0.07311 1.08805 0.23457
 H509 H -0.17728 1.13101 0.33678
 H510 H -0.07462 1.18073 0.14416
 C511 C 0.66955 0.35080 0.33751
 C512 C 0.65568 0.32450 0.29672
 C513 C 0.63564 0.34755 0.27054
 C514 C 0.62172 0.31745 0.23311
 C515 C 0.60241 0.33751 0.20862
 C516 C 0.59668 0.38851 0.22067
 C517 C 0.61057 0.41853 0.25846
 C518 C 0.62989 0.39842 0.28302
 C519 C 0.57626 0.41137 0.19614
 C520 C 0.56405 0.39036 0.14645
 H521 H 0.65917 0.28511 0.28521
 H522 H 0.62568 0.27803 0.22329
 H523 H 0.59196 0.31246 0.18143
 H524 H 0.60648 0.45775 0.26896
 H525 H 0.64021 0.42268 0.31190
 H526 H 0.57100 0.44731 0.21668
 H527 H 0.68054 0.33561 0.35281
 H528 H 0.56940 0.35614 0.12219
 C529 C 0.17199 0.84389 0.35262
 C530 C 0.15774 0.82021 0.30975
 C531 C 0.13851 0.84537 0.28105
 C532 C 0.12316 0.81500 0.24896
 C533 C 0.10471 0.83661 0.22126
 C534 C 0.10126 0.88937 0.22475
 C535 C 0.11651 0.91976 0.25698
 C536 C 0.13506 0.89825 0.28427
 C537 C 0.08174 0.91364 0.19707
 C538 C 0.06993 0.89224 0.14693
 H539 H 0.15995 0.78035 0.29874
 H540 H 0.12532 0.77420 0.24580
 H541 H 0.09304 0.81167 0.19843
 H542 H 0.11415 0.96044 0.26058
 H543 H 0.14658 0.92351 0.30708
 H544 H 0.07696 0.95069 0.21529
 H545 H 0.16874 0.88238 0.36821
 H546 H 0.07528 0.85722 0.12446
   
