data_POSCAR
  _audit_creation_date              2014-09-24
  _audit_creation_method            'ToBaCCo'
  _symmetry_space_group_name_H-M    'P1'
  _symmetry_Int_Tables_number       1
  _symmetry_cell_setting            triclinic
  loop_
  _symmetry_equiv_pos_as_xyz
 x,y,z
_cell_length_a 21.3686
_cell_length_b 21.3080
_cell_length_c 54.1742
_cell_angle_alpha 81.674100
_cell_angle_beta 94.190800
_cell_angle_gamma 119.968100
loop_
  _atom_site_label
  _atom_site_type_symbol
  _atom_site_fract_x
  _atom_site_fract_y
  _atom_site_fract_z
C1 C -0.00397 0.15565 0.52547
 H2 H 0.05047 0.16648 0.52300
 C3 C -0.01670 0.19378 0.54142
 H4 H 0.02810 0.23425 0.55120
 C5 C -0.12925 0.08691 0.51677
 H6 H -0.17286 0.04430 0.50744
 C7 C -0.14445 0.12371 0.53276
 H8 H -0.19984 0.10934 0.53577
 N9 N -0.05994 0.10260 0.51385
 C10 C -0.01731 -0.07483 0.50977
 H11 H -0.01580 -0.07512 0.48987
 C12 C -0.01580 -0.13087 0.52639
 H13 H -0.01271 -0.17427 0.51933
 C14 C -0.02705 -0.02029 0.54341
 H15 H -0.03310 0.02174 0.55006
 C16 C -0.02546 -0.07489 0.56059
 H17 H -0.02990 -0.07430 0.58034
 Zn18 Zn -0.03582 0.04810 0.49576
 N19 N -0.02338 -0.02129 0.51851
 C20 C 0.10638 0.10106 0.47745
 N21 N 0.05037 0.11423 0.47791
 C22 C 0.05271 0.17481 0.46475
 C23 C 0.11173 0.22350 0.44954
 C24 C 0.16654 0.14843 0.46236
 C25 C -0.17151 -0.06452 0.48177
 C26 C -0.22133 -0.11024 0.46524
 C27 C -0.14412 -0.02841 0.43097
 C28 C -0.09579 0.01524 0.44808
 N29 N -0.10959 -0.00377 0.47299
 H30 H 0.10364 0.05290 0.48819
 H31 H 0.00751 0.18400 0.46553
 H32 H 0.11199 0.27031 0.43851
 H33 H 0.20990 0.13647 0.46138
 H34 H -0.18049 -0.07930 0.50168
 H35 H -0.26898 -0.16002 0.47250
 H36 H -0.13095 -0.01366 0.41125
 H37 H -0.04591 0.06265 0.44138
 C38 C -0.02061 -0.13109 0.55203
 C39 C -0.08757 0.17692 0.54544
 C40 C -0.20679 -0.09252 0.43959
 C41 C 0.16865 0.20966 0.44804
 C42 C 1.20817 0.08244 0.13629
 H43 H 1.21727 0.13710 0.13644
 C44 C 1.25085 0.07075 0.12135
 H45 H 1.29297 0.11652 0.10992
 C46 C 1.13992 -0.04443 0.15012
 H47 H 1.09602 -0.08911 0.16113
 C48 C 1.18134 -0.05859 0.13531
 H49 H 1.16905 -0.11426 0.13483
 N50 N 1.15302 0.02510 0.14986
 C51 C 0.97573 0.06935 0.15156
 H52 H 0.96937 0.06711 0.17135
 C53 C 0.92391 0.07217 0.13479
 H54 H 0.87774 0.07256 0.14163
 C55 C 1.04060 0.06615 0.11850
 H56 H 1.08466 0.06147 0.11220
 C57 C 0.99042 0.06930 0.10117
 H58 H 0.99648 0.06748 0.08164
 Zn59 Zn 1.09304 0.04687 0.16671
 N60 N 1.03216 0.06544 0.14322
 C61 C 1.14002 0.18514 0.18334
 N62 N 1.15319 0.12879 0.18354
 C63 C 1.20850 0.12678 0.19707
 C64 C 1.25127 0.18125 0.21202
 C65 C 1.18153 0.24079 0.19816
 C66 C 0.97584 -0.09307 0.18193
 C67 C 0.92416 -0.14772 0.19873
 C68 C 0.99102 -0.07805 0.23231
 C69 C 1.04106 -0.02472 0.21495
 N70 N 1.03236 -0.03260 0.19024
 H71 H 1.09598 0.18576 0.17238
 H72 H 1.21765 0.08129 0.19688
 H73 H 1.29352 0.17773 0.22340
 H74 H 1.16918 0.28409 0.19869
 H75 H 0.96928 -0.09730 0.16214
 H76 H 0.87791 -0.19439 0.19192
 H77 H 0.99728 -0.07005 0.25184
 H78 H 1.08520 0.02414 0.22123
 C79 C 0.93093 0.07109 0.10939
 C80 C 1.23658 -0.00047 0.12052
 C81 C 0.93143 -0.13947 0.22412
 C82 C 1.23693 0.23809 0.21291
 C83 C 0.05185 0.87723 0.86852
 H84 H 0.00666 0.82276 0.86771
 C85 C 0.11082 0.88767 0.88380
 H86 H 0.11106 0.84113 0.89484
 C87 C 0.10552 1.00473 0.85584
 H88 H 0.10281 1.05013 0.84508
 C89 C 0.16564 1.01763 0.87100
 H90 H 0.20899 1.07303 0.87200
 N91 N 0.04953 0.93545 0.85534
 C92 C -0.17241 0.89178 0.85124
 H93 H -0.18134 0.89755 0.83133
 C94 C -0.22232 0.88751 0.86772
 H95 H -0.26999 0.88951 0.86046
 C96 C -0.09674 0.88799 0.88502
 H97 H -0.04684 0.89064 0.89177
 C98 C -0.14519 0.88315 0.90207
 H99 H -0.13220 0.88166 0.92179
 Zn100 Zn -0.03660 0.91524 0.83740
 N101 N -0.11048 0.89313 0.86009
 C102 C -0.12987 0.78288 0.81629
 N103 N -0.06059 0.83663 0.81929
 C104 C -0.00456 0.83970 0.80772
 C105 C -0.01719 0.78887 0.79175
 C106 C -0.14497 0.73090 0.80029
 C107 C -0.01810 1.05670 0.82341
 C108 C -0.01655 1.11426 0.80678
 C109 C -0.02606 1.04868 0.77258
 C110 C -0.02770 0.99246 0.78975
 N111 N -0.02412 0.99711 0.81466
 H112 H -0.17354 0.78175 0.82559
 H113 H 0.04986 0.88341 0.81025
 H114 H 0.02766 0.79333 0.78202
 H115 H -0.20035 0.68977 0.79722
 H116 H -0.01667 1.05846 0.84331
 H117 H -0.01349 1.16074 0.81385
 H118 H -0.03042 1.04368 0.75282
 H119 H -0.03372 0.94439 0.78310
 C120 C -0.20785 0.88436 0.89337
 C121 C 0.16772 0.95853 0.88534
 C122 C -0.02125 1.10972 0.78114
 C123 C -0.08803 0.73473 0.78767
 C124 C 0.36223 -0.02333 0.00276
 C125 C 0.39224 -0.01855 -0.01993
 C126 C 0.45818 -0.01753 -0.02033
 C127 C 0.49377 -0.02377 0.00215
 C128 C 0.46182 -0.02978 0.02495
 C129 C 0.39708 -0.02831 0.02516
 C130 C 0.56371 -0.02383 0.00180
 C131 C 0.61511 0.00293 0.02105
 C132 C 0.68002 0.00180 0.02086
 C133 C 0.69551 -0.02367 0.00111
 C134 C 0.64604 -0.04922 -0.01830
 C135 C 0.57997 -0.05053 -0.01781
 H136 H 0.31161 -0.02310 0.00300
 H137 H 0.48145 -0.01133 -0.03822
 H138 H 0.48653 -0.03603 0.04261
 H139 H 0.60548 0.02522 0.03614
 H140 H 0.74628 -0.02359 0.00085
 H141 H 0.54158 -0.07282 -0.03266
 C142 C -0.08286 0.62522 0.66764
 C143 C -0.09885 0.57594 0.68937
 C144 C -0.10181 0.50899 0.68888
 C145 C -0.08606 0.49176 0.66672
 C146 C -0.06880 0.54300 0.64503
 C147 C -0.06832 0.60877 0.64546
 C148 C -0.08609 0.42164 0.66637
 C149 C -0.10175 0.38869 0.64420
 C150 C -0.09885 0.32468 0.64371
 C151 C -0.08299 0.29133 0.66546
 C152 C -0.06853 0.32229 0.68765
 C153 C -0.06895 0.38762 0.68808
 H154 H -0.08082 0.67698 0.66806
 H155 H -0.11612 0.47097 0.70583
 H156 H -0.05450 0.53290 0.62785
 H157 H -0.11597 0.41244 0.62723
 H158 H -0.08098 0.24161 0.66504
 H159 H -0.05471 0.41200 0.70528
 C160 C 0.69701 0.72010 0.33253
 C161 C 0.68125 0.67908 0.31276
 C162 C 0.61620 0.61306 0.31256
 C163 C 0.56493 0.58851 0.33181
 C164 C 0.58147 0.63152 0.35144
 C165 C 0.64767 0.69626 0.35195
 C166 C 0.49483 0.51854 0.33144
 C167 C 0.45925 0.47670 0.35391
 C168 C 0.39319 0.41179 0.35347
 C169 C 0.36304 0.38660 0.33076
 C170 C 0.39786 0.42645 0.30838
 C171 C 0.46273 0.49265 0.30862
 H172 H 0.74789 0.77078 0.33280
 H173 H 0.60637 0.58110 0.29745
 H174 H 0.54318 0.61549 0.36630
 H175 H 0.48264 0.49374 0.37180
 H176 H 0.31233 0.33575 0.33050
 H177 H 0.48742 0.52363 0.29097
 C178 C -0.10087 0.21001 0.56428
 C179 C -0.10727 0.23750 0.58117
 C180 C -0.10941 0.26903 0.60205
 C181 C -0.10690 0.29505 0.62068
 C182 C 0.87515 0.81072 0.24163
 C183 C 0.82876 0.77348 0.25705
 C184 C 0.77570 0.73518 0.27585
 C185 C 0.73177 0.70705 0.29243
 C186 C 0.22454 -0.02996 -0.09680
 C187 C 0.26875 -0.02321 -0.08072
 C188 C 0.31632 -0.01855 -0.06069
 C189 C 0.35314 -0.01718 -0.04261
 C190 C -0.02538 0.80944 0.56976
 C191 C -0.03194 0.76080 0.58571
 C192 C -0.04231 0.70562 0.60551
 C193 C -0.05318 0.66032 0.62329
 C194 C 0.27482 0.28890 0.23071
 C195 C 0.30549 0.32733 0.24686
 C196 C 0.33980 0.36725 0.26708
 C197 C 0.36737 0.39683 0.28539
 C198 C 0.75038 -0.10998 -0.09021
 C199 C 0.71828 -0.10140 -0.07480
 C200 C 0.68691 -0.08714 -0.05583
 C201 C 0.66540 -0.07160 -0.03899
 C202 C 0.27440 -0.01344 0.10274
 C203 C 0.30501 -0.02124 0.08662
 C204 C 0.33923 -0.02695 0.06642
 C205 C 0.36672 -0.02904 0.04813
 C206 C 0.75314 0.86187 0.42380
 C207 C 0.72075 0.82104 0.40842
 C208 C 0.68907 0.77526 0.38947
 C209 C 0.66731 0.73809 0.37264
 C210 C -0.02595 0.16445 0.76340
 C211 C -0.03244 0.20655 0.74745
 C212 C -0.04271 0.25140 0.72763
 C213 C -0.05350 0.28585 0.70984
 C214 C 0.87450 0.06448 0.09192
 C215 C 0.82798 0.05523 0.07652
 C216 C 0.77476 0.04036 0.05775
 C217 C 0.73069 0.02445 0.04118
 C218 C 0.22551 0.25512 0.43023
 C219 C 0.26975 0.29271 0.41419
 C220 C 0.31733 0.33575 0.39419
 C221 C 0.35413 0.37127 0.37613
 C222 C -0.10122 0.68838 0.76880
 C223 C -0.10753 0.65454 0.75190
 C224 C -0.10959 0.62091 0.73102
 C225 C -0.10699 0.59746 0.71239
   
