data_POSCAR
  _audit_creation_date              2014-09-24
  _audit_creation_method            'ToBaCCo'
  _symmetry_space_group_name_H-M    'P1'
  _symmetry_Int_Tables_number       1
  _symmetry_cell_setting            triclinic
  loop_
  _symmetry_equiv_pos_as_xyz
 x,y,z
_cell_length_a 29.3442
_cell_length_b 29.3430
_cell_length_c 29.4631
_cell_angle_alpha 89.921000
_cell_angle_beta 90.094700
_cell_angle_gamma 89.935000
loop_
  _atom_site_label
  _atom_site_type_symbol
  _atom_site_fract_x
  _atom_site_fract_y
  _atom_site_fract_z
O1 O 0.56366 0.11381 0.00350
 O2 O 0.61388 0.05411 -0.00031
 C3 C 0.60478 0.09721 0.00187
 O4 O 0.44032 -0.00656 0.11754
 O5 O 0.38789 -0.00351 0.05982
 C6 C 0.39870 -0.00625 0.10249
 O7 O 0.56763 0.00079 0.11438
 O8 O 0.61592 -0.00051 0.05362
 C9 C 0.60833 0.00090 0.09698
 O10 O 0.43519 0.11269 0.00094
 O11 O 0.38604 0.05216 0.00402
 C12 C 0.39438 0.09543 0.00211
 Zr13 Zr 0.49972 0.07966 0.00231
 O14 O 0.49564 0.12958 0.05396
 O15 O 0.50276 0.13125 -0.04788
 Zr16 Zr 0.50303 -0.00248 0.08255
 O17 O 0.49874 0.04797 0.13368
 O18 O 0.51045 -0.05393 0.13250
 O19 O 0.54225 0.04527 0.04770
 O20 O 0.46179 0.04404 0.04944
 O21 O 0.43313 0.00117 -0.11090
 O22 O 0.38461 -0.00236 -0.05002
 C23 C 0.39252 -0.00013 -0.09330
 O24 O 0.56436 -0.11589 -0.00609
 O25 O 0.61476 -0.05639 -0.00380
 C26 C 0.60526 -0.09946 -0.00713
 O27 O 0.43898 -0.11718 0.00712
 O28 O 0.38741 -0.05853 0.00656
 C29 C 0.39778 -0.10148 0.00887
 O30 O 0.56205 -0.00256 -0.11421
 O31 O 0.61327 -0.00128 -0.05535
 C32 C 0.60349 -0.00219 -0.09816
 Zr33 Zr 0.49822 -0.00081 -0.07943
 O34 O 0.49230 -0.05124 -0.13043
 O35 O 0.50102 0.05089 -0.12955
 Zr36 Zr 0.50135 -0.08264 0.00094
 O37 O 0.49423 -0.13330 -0.04966
 O38 O 0.50973 -0.13381 0.05104
 Zr39 Zr 0.56863 -0.00113 -0.00016
 Zr40 Zr 0.43235 -0.00241 0.00353
 O41 O 0.45993 -0.04813 -0.04405
 O42 O 0.54027 -0.04768 -0.04677
 O43 O 0.45790 0.04534 -0.04366
 O44 O 0.54221 -0.04838 0.04651
 O45 O 0.53837 0.04570 -0.04540
 O46 O 0.46176 -0.04939 0.04923
 H47 H 0.44161 0.06266 0.06898
 H48 H 0.56367 -0.06744 0.06432
 H49 H 0.43899 -0.06741 -0.06214
 H50 H 0.55811 0.06504 -0.06469
 H51 H 0.48451 -0.07517 0.12921
 H52 H 0.48576 -0.12925 0.07415
 H53 H 0.51662 -0.12650 -0.07377
 H54 H 0.51927 -0.07135 -0.12809
 H55 H 0.47473 0.07140 -0.12459
 H56 H 0.47734 0.12594 -0.06930
 H57 H 0.52223 0.12527 0.07420
 H58 H 0.52399 0.06970 0.12872
 O59 O -0.00319 0.43775 -0.11598
 O60 O -0.00329 0.38756 -0.05644
 C61 C -0.00343 0.39662 -0.09939
 O62 O 0.11523 0.56445 -0.00235
 O63 O 0.05534 0.61460 -0.00122
 C64 C 0.09844 0.60550 -0.00148
 O65 O 0.11446 0.43684 -0.01133
 O66 O 0.05509 0.38625 -0.00648
 C67 C 0.09814 0.39578 -0.01100
 O68 O -0.00717 0.56640 -0.11392
 O69 O -0.00106 0.61553 -0.05391
 C70 C -0.00509 0.60742 -0.09709
 Zr71 Zr -0.00329 0.50167 -0.08169
 O72 O 0.04606 0.50677 -0.13384
 O73 O -0.05609 0.49816 -0.13056
 Zr74 Zr 0.08164 0.50024 -0.00412
 O75 O 0.13167 0.50589 -0.05546
 O76 O 0.13350 0.49345 0.04554
 O77 O 0.04484 0.46026 -0.04993
 O78 O 0.04513 0.54051 -0.04859
 O79 O -0.11334 0.56665 0.00215
 O80 O -0.05260 0.61556 0.00172
 C81 C -0.09587 0.60733 0.00175
 O82 O 0.00214 0.43465 0.11249
 O83 O 0.00058 0.38544 0.05219
 C84 C 0.00083 0.39389 0.09532
 O85 O 0.01061 0.56196 0.11449
 O86 O 0.00539 0.61364 0.05633
 C87 C 0.00976 0.60337 0.09903
 O88 O -0.11477 0.43925 0.00831
 O89 O -0.05646 0.38743 0.00268
 C90 C -0.09931 0.39786 0.00731
 Zr91 Zr -0.08070 0.50204 0.00271
 O92 O -0.13032 0.50746 0.05448
 O93 O -0.13280 0.49760 -0.04695
 Zr94 Zr 0.00424 0.49928 0.08019
 O95 O -0.04493 0.50462 0.13247
 O96 O 0.05664 0.49247 0.12917
 Zr97 Zr -0.00021 0.43259 -0.00143
 Zr98 Zr 0.00109 0.56865 0.00031
 O99 O -0.04352 0.54025 0.04835
 O100 O -0.04480 0.46005 0.04754
 O101 O -0.04812 0.54276 -0.04506
 O102 O 0.04886 0.45977 0.04306
 O103 O -0.04864 0.46218 -0.04535
 O104 O 0.04995 0.54032 0.04469
 H105 H 0.06347 0.56102 -0.06808
 H106 H 0.06842 0.43849 0.06054
 H107 H -0.06122 0.56091 0.06824
 H108 H -0.06884 0.44202 -0.06330
 H109 H 0.13296 0.52112 0.06467
 H110 H 0.08035 0.51516 0.12172
 H111 H -0.06538 0.47794 0.13011
 H112 H -0.12246 0.48477 0.07809
 H113 H -0.13115 0.52531 -0.06602
 H114 H -0.07833 0.52233 -0.12315
 H115 H 0.06565 0.47938 -0.13211
 H116 H 0.12296 0.48465 -0.07999
 O117 O -0.11503 -0.00755 0.56477
 O118 O -0.05493 -0.00616 0.61468
 C119 C -0.09822 -0.00921 0.60543
 O120 O 0.00035 -0.11197 0.43197
 O121 O -0.00356 -0.05052 0.38402
 C122 C -0.00105 -0.09398 0.39164
 O123 O -0.00191 -0.11627 0.55908
 O124 O 0.00139 -0.05885 0.61177
 C125 C -0.00033 -0.10169 0.60067
 O126 O -0.11849 0.00560 0.43928
 O127 O -0.06057 0.00462 0.38720
 C128 C -0.10340 0.00677 0.39792
 Zr129 Zr -0.08305 0.00005 0.50148
 O130 O -0.13445 -0.05013 0.49530
 O131 O -0.13328 0.05111 0.51055
 Zr132 Zr -0.00170 -0.08052 0.49671
 O133 O -0.05328 -0.13066 0.49116
 O134 O 0.04898 -0.13188 0.49867
 O135 O -0.04744 -0.04803 0.53975
 O136 O -0.04940 -0.04480 0.45942
 O137 O -0.00789 0.11757 0.44041
 O138 O -0.00705 0.06009 0.38789
 C139 C -0.00909 0.10283 0.39894
 O140 O 0.11454 0.00276 0.55962
 O141 O 0.05695 -0.00260 0.61190
 C142 C 0.09975 0.00085 0.60111
 O143 O 0.11031 0.00060 0.43216
 O144 O 0.04914 0.00405 0.38369
 C145 C 0.09258 0.00212 0.39167
 O146 O 0.00400 0.11331 0.56563
 O147 O 0.00135 0.05297 0.61508
 C148 C 0.00475 0.09630 0.60618
 Zr149 Zr -0.00252 0.08149 0.50220
 O150 O 0.04711 0.13354 0.49678
 O151 O -0.05436 0.13093 0.51120
 Zr152 Zr 0.07909 0.00074 0.49714
 O153 O 0.13058 0.05093 0.49196
 O154 O 0.12936 -0.05108 0.49938
 Zr155 Zr -0.00013 -0.00172 0.56784
 Zr156 Zr -0.00397 0.00304 0.43151
 O157 O 0.04313 0.04866 0.46024
 O158 O 0.04587 0.04615 0.54031
 O159 O -0.05042 0.04865 0.46165
 O160 O 0.04574 -0.04701 0.53627
 O161 O -0.04773 0.04534 0.54208
 O162 O 0.04393 -0.04477 0.45595
 H163 H -0.06878 -0.06313 0.43881
 H164 H 0.06559 -0.06653 0.55540
 H165 H 0.06131 0.06852 0.43995
 H166 H -0.06612 0.06318 0.56396
 H167 H 0.07124 -0.12493 0.47448
 H168 H 0.12604 -0.06974 0.47164
 H169 H 0.12587 0.07288 0.51695
 H170 H 0.07123 0.12693 0.51932
 H171 H -0.07588 0.12812 0.48549
 H172 H -0.13057 0.07288 0.48504
 H173 H -0.12713 -0.07478 0.51704
 H174 H -0.07206 -0.12922 0.51897
 C175 C -0.31116 0.11215 -0.00181
 C176 C -0.27399 0.14184 -0.00234
 C177 C -0.28056 0.18899 0.00133
 C178 C -0.32538 0.20601 0.00435
 C179 C -0.36263 0.17632 0.00471
 C180 C -0.35597 0.12901 0.00181
 C181 C -0.24027 0.21947 0.00018
 C182 C -0.23982 0.26016 0.02076
 C183 C -0.20186 0.29339 0.01795
 C184 C -0.21167 0.33887 0.02846
 C185 C -0.17819 0.37226 0.02532
 C186 C -0.13357 0.36109 0.01191
 C187 C -0.12307 0.31531 0.00257
 C188 C -0.15694 0.28167 0.00548
 H189 H -0.30467 0.07590 -0.00444
 H190 H -0.23991 0.12790 -0.00526
 H191 H -0.33197 0.24227 0.00545
 H192 H -0.39664 0.19049 0.00694
 H193 H -0.21053 0.20761 -0.01795
 H194 H -0.26965 0.27080 0.03959
 H195 H -0.24575 0.34887 0.03848
 H196 H -0.18753 0.40704 0.03332
 H197 H -0.08894 0.30560 -0.00749
 H198 H -0.14761 0.24680 -0.00173
 C199 C 0.37200 0.82005 0.02773
 C200 C 0.33820 0.78717 0.03194
 C201 C 0.29270 0.79785 0.02232
 C202 C 0.28126 0.84286 0.01000
 C203 C 0.31524 0.87606 0.00610
 C204 C 0.36103 0.86471 0.01427
 C205 C 0.25897 0.76066 0.02522
 C206 C 0.21977 0.76016 0.00198
 C207 C 0.18944 0.72001 0.00161
 C208 C 0.14264 0.72654 -0.00501
 C209 C 0.11313 0.68932 -0.00598
 C210 C 0.13000 0.64466 -0.00096
 C211 C 0.17703 0.63806 0.00473
 C212 C 0.20650 0.67533 0.00589
 H213 H 0.40688 0.81030 0.03500
 H214 H 0.34783 0.75290 0.04186
 H215 H 0.24631 0.85270 0.00362
 H216 H 0.30581 0.91035 -0.00386
 H217 H 0.26836 0.73124 0.04543
 H218 H 0.20940 0.78953 -0.01774
 H219 H 0.12882 0.76058 -0.00899
 H220 H 0.07707 0.69563 -0.01080
 H221 H 0.19110 0.60411 0.00836
 H222 H 0.24266 0.66888 0.00929
 C223 C 0.31008 0.10963 0.00587
 C224 C 0.27253 0.13900 0.00516
 C225 C 0.27853 0.18604 -0.00056
 C226 C 0.32315 0.20333 -0.00431
 C227 C 0.36074 0.17400 -0.00342
 C228 C 0.35468 0.12677 0.00147
 C229 C 0.23793 0.21627 -0.00066
 C230 C 0.23712 0.25611 -0.02299
 C231 C 0.19925 0.28966 -0.02109
 C232 C 0.20888 0.33447 -0.03439
 C233 C 0.17574 0.36832 -0.03172
 C234 C 0.13166 0.35830 -0.01601
 C235 C 0.12119 0.31311 -0.00411
 C236 C 0.15472 0.27901 -0.00651
 H237 H 0.30407 0.07345 0.01002
 H238 H 0.23863 0.12489 0.00870
 H239 H 0.32933 0.23957 -0.00699
 H240 H 0.39456 0.18841 -0.00644
 H241 H 0.20838 0.20501 0.01812
 H242 H 0.26673 0.26593 -0.04257
 H243 H 0.24263 0.34365 -0.04612
 H244 H 0.18492 0.40262 -0.04179
 H245 H 0.08743 0.30431 0.00783
 H246 H 0.14547 0.24464 0.00293
 C247 C -0.36743 0.82314 -0.02789
 C248 C -0.33312 0.79081 -0.03249
 C249 C -0.28798 0.80165 -0.02168
 C250 C -0.27738 0.84628 -0.00757
 C251 C -0.31189 0.87899 -0.00336
 C252 C -0.35734 0.86744 -0.01288
 C253 C -0.25378 0.76494 -0.02522
 C254 C -0.21536 0.76356 -0.00081
 C255 C -0.18535 0.72318 -0.00085
 C256 C -0.13843 0.72906 0.00525
 C257 C -0.10938 0.69140 0.00603
 C258 C -0.12688 0.64700 0.00138
 C259 C -0.17404 0.64109 -0.00385
 C260 C -0.20303 0.67879 -0.00492
 H261 H -0.40202 0.81324 -0.03612
 H262 H -0.34207 0.75681 -0.04368
 H263 H -0.24268 0.85617 -0.00010
 H264 H -0.30314 0.91300 0.00791
 H265 H -0.26230 0.73628 -0.04676
 H266 H -0.20564 0.79206 0.02033
 H267 H -0.12422 0.76292 0.00898
 H268 H -0.07319 0.69714 0.01044
 H269 H -0.18863 0.60736 -0.00712
 H270 H -0.23933 0.67298 -0.00803
 C271 C 0.02531 -0.37005 0.17798
 C272 C 0.02762 -0.33610 0.21087
 C273 C 0.01812 -0.29057 0.19994
 C274 C 0.00719 -0.27949 0.15461
 C275 C 0.00511 -0.31369 0.12138
 C276 C 0.01366 -0.35946 0.13290
 C277 C 0.02038 -0.25670 0.23727
 C278 C 0.00155 -0.21503 0.23620
 C279 C 0.00158 -0.18451 0.27639
 C280 C -0.00004 -0.13714 0.27003
 C281 C -0.00059 -0.10764 0.30734
 C282 C -0.00007 -0.12500 0.35192
 C283 C 0.00091 -0.17246 0.35822
 C284 C 0.00148 -0.20185 0.32099
 H285 H 0.03256 -0.40479 0.18812
 H286 H 0.03631 -0.34568 0.24535
 H287 H 0.00059 -0.24469 0.14446
 H288 H -0.00366 -0.30437 0.08687
 H289 H 0.03740 -0.26770 0.26801
 H290 H -0.01445 -0.20255 0.20552
 H291 H -0.00051 -0.12291 0.23609
 H292 H -0.00148 -0.07125 0.30120
 H293 H 0.00085 -0.18706 0.39199
 H294 H 0.00083 -0.23814 0.32745
 C295 C -0.01243 0.31297 0.88624
 C296 C -0.01307 0.27536 0.85726
 C297 C -0.00502 0.28072 0.81074
 C298 C 0.00242 0.32490 0.79343
 C299 C 0.00266 0.36270 0.82242
 C300 C -0.00445 0.35714 0.86922
 C301 C -0.00632 0.23990 0.78109
 C302 C 0.01882 0.23653 0.74335
 C303 C 0.01635 0.19809 0.71072
 C304 C 0.03279 0.20587 0.66682
 C305 C 0.02965 0.17232 0.63368
 C306 C 0.01033 0.12960 0.64350
 C307 C -0.00452 0.12071 0.68793
 C308 C -0.00171 0.15477 0.72134
 H309 H -0.01840 0.30734 0.92207
 H310 H -0.01937 0.24183 0.87133
 H311 H 0.00720 0.33052 0.75746
 H312 H 0.00857 0.39622 0.80819
 H313 H -0.02827 0.21214 0.79122
 H314 H 0.04132 0.26442 0.73459
 H315 H 0.04730 0.23857 0.65772
 H316 H 0.04217 0.18011 0.59999
 H317 H -0.01923 0.08799 0.69650
 H318 H -0.01359 0.14689 0.75515
 C319 C -0.00088 0.30964 0.11041
 C320 C -0.00193 0.27270 0.14043
 C321 C -0.00297 0.27989 0.18747
 C322 C -0.00177 0.32487 0.20398
 C323 C -0.00065 0.36174 0.17405
 C324 C -0.00028 0.35462 0.12692
 C325 C -0.00328 0.24006 0.21847
 C326 C -0.02144 0.24195 0.26015
 C327 C -0.01876 0.20472 0.29407
 C328 C -0.02471 0.21620 0.33983
 C329 C -0.02160 0.18309 0.37361
 C330 C -0.01288 0.13736 0.36245
 C331 C -0.00781 0.12546 0.31652
 C332 C -0.01068 0.15882 0.28257
 H333 H -0.00049 0.30288 0.07428
 H334 H -0.00230 0.23839 0.12689
 H335 H -0.00070 0.33186 0.24000
 H336 H 0.00018 0.39588 0.18797
 H337 H 0.01220 0.20890 0.20639
 H338 H -0.03772 0.27318 0.27110
 H339 H -0.03119 0.25119 0.34965
 H340 H -0.02606 0.19349 0.40858
 H341 H -0.00134 0.09045 0.30682
 H342 H -0.00702 0.14832 0.24761
 C343 C -0.00415 -0.31120 0.88998
 C344 C -0.00481 -0.27423 0.85984
 C345 C -0.00756 -0.28122 0.81283
 C346 C -0.01106 -0.32620 0.79665
 C347 C -0.01041 -0.36320 0.82660
 C348 C -0.00661 -0.35656 0.87392
 C349 C -0.00817 -0.24106 0.78181
 C350 C 0.00489 -0.24357 0.73821
 C351 C 0.00263 -0.20554 0.70483
 C352 C 0.00562 -0.21679 0.65870
 C353 C 0.00430 -0.18311 0.62534
 C354 C 0.00037 -0.13684 0.63705
 C355 C -0.00250 -0.12521 0.68330
 C356 C -0.00145 -0.15922 0.71693
 H357 H -0.00154 -0.30389 0.92593
 H358 H -0.00266 -0.23997 0.87334
 H359 H -0.01513 -0.33324 0.76087
 H360 H -0.01296 -0.39708 0.81224
 H361 H -0.01945 -0.20890 0.79574
 H362 H 0.01734 -0.27576 0.72533
 H363 H 0.00884 -0.25204 0.64825
 H364 H 0.00671 -0.19355 0.59018
 H365 H -0.00552 -0.08989 0.69349
 H366 H -0.00309 -0.14888 0.75208
 C367 C 0.30793 0.00084 0.89167
 C368 C 0.27085 0.00016 0.86162
 C369 C 0.27782 -0.00095 0.81449
 C370 C 0.32287 -0.00233 0.79809
 C371 C 0.35983 -0.00155 0.82802
 C372 C 0.35292 0.00005 0.87518
 C373 C 0.23776 -0.00254 0.78344
 C374 C 0.23968 0.01209 0.74026
 C375 C 0.20219 0.00839 0.70642
 C376 C 0.21353 0.01403 0.66054
 C377 C 0.18035 0.01120 0.62677
 C378 C 0.13449 0.00299 0.63784
 C379 C 0.12276 -0.00237 0.68384
 C380 C 0.15627 0.00023 0.71787
 H381 H 0.30130 0.00188 0.92781
 H382 H 0.23659 0.00071 0.87525
 H383 H 0.32997 -0.00514 0.76221
 H384 H 0.39392 -0.00282 0.81404
 H385 H 0.20633 -0.01619 0.79685
 H386 H 0.27110 0.02693 0.72807
 H387 H 0.24848 0.02047 0.65061
 H388 H 0.19083 0.01578 0.59184
 H389 H 0.08772 -0.00849 0.69358
 H390 H 0.14581 -0.00348 0.75283
 C391 C -0.31027 0.00170 0.10888
 C392 C -0.27311 0.00233 0.13869
 C393 C -0.27989 0.00397 0.18573
 C394 C -0.32470 0.00392 0.20254
 C395 C -0.36185 0.00324 0.17298
 C396 C -0.35547 0.00210 0.12552
 C397 C -0.23991 0.00355 0.21657
 C398 C -0.24128 0.02211 0.25812
 C399 C -0.20435 0.01839 0.29227
 C400 C -0.21589 0.02514 0.33791
 C401 C -0.18312 0.02120 0.37194
 C402 C -0.13763 0.01089 0.36117
 C403 C -0.12564 0.00495 0.31536
 C404 C -0.15870 0.00858 0.28116
 H405 H -0.30328 0.00068 0.07279
 H406 H -0.23890 0.00178 0.12494
 H407 H -0.33142 0.00329 0.23862
 H408 H -0.39564 0.00317 0.18777
 H409 H -0.20925 -0.01297 0.20463
 H410 H -0.27199 0.03948 0.26885
 H411 H -0.25068 0.03297 0.34743
 H412 H -0.19356 0.02645 0.40679
 H413 H -0.09080 -0.00274 0.30596
 H414 H -0.14814 0.00423 0.24630
 C415 C 0.37250 -0.01823 0.18225
 C416 C 0.33837 -0.02075 0.21498
 C417 C 0.29255 -0.01378 0.20331
 C418 C 0.28141 -0.00504 0.15756
 C419 C 0.31575 -0.00277 0.12455
 C420 C 0.36173 -0.00907 0.13665
 C421 C 0.25832 -0.01637 0.24026
 C422 C 0.21598 0.00088 0.23811
 C423 C 0.18480 0.00079 0.27779
 C424 C 0.13749 0.00121 0.27067
 C425 C 0.10739 0.00152 0.30752
 C426 C 0.12408 0.00191 0.35234
 C427 C 0.17145 0.00227 0.35935
 C428 C 0.20141 0.00199 0.32262
 H429 H 0.40745 -0.02358 0.19287
 H430 H 0.34799 -0.02773 0.24983
 H431 H 0.24646 -0.00045 0.14687
 H432 H 0.30629 0.00412 0.08966
 H433 H 0.26956 -0.03221 0.27154
 H434 H 0.20344 0.01569 0.20687
 H435 H 0.12379 0.00089 0.23650
 H436 H 0.07108 0.00139 0.30084
 H437 H 0.18556 0.00312 0.39332
 H438 H 0.23755 0.00366 0.32967
 C439 C -0.31293 0.00504 0.88661
 C440 C -0.27566 0.00548 0.85727
 C441 C -0.28166 -0.00191 0.81073
 C442 C -0.32612 -0.00863 0.79381
 C443 C -0.36361 -0.00871 0.82320
 C444 C -0.35740 -0.00209 0.87000
 C445 C -0.24113 -0.00062 0.78075
 C446 C -0.23860 -0.02462 0.74221
 C447 C -0.20023 -0.02199 0.70954
 C448 C -0.20859 -0.03642 0.66505
 C449 C -0.17499 -0.03299 0.63198
 C450 C -0.13170 -0.01537 0.64249
 C451 C -0.12233 -0.00256 0.68746
 C452 C -0.15638 -0.00569 0.72079
 H453 H -0.30677 0.01063 0.92243
 H454 H -0.24191 0.01121 0.87106
 H455 H -0.33223 -0.01288 0.75785
 H456 H -0.39737 -0.01392 0.80927
 H457 H -0.21281 0.02043 0.79131
 H458 H -0.26703 -0.04617 0.73284
 H459 H -0.24174 -0.04955 0.65547
 H460 H -0.18324 -0.04389 0.59783
 H461 H -0.08917 0.01082 0.69657
 H462 H -0.14809 0.00457 0.75504
   
