data_POSCAR
  _audit_creation_date              2014-09-24
  _audit_creation_method            'ToBaCCo'
  _symmetry_space_group_name_H-M    'P1'
  _symmetry_Int_Tables_number       1
  _symmetry_cell_setting            triclinic
  loop_
  _symmetry_equiv_pos_as_xyz
 x,y,z
_cell_length_a 28.5672
_cell_length_b 28.9245
_cell_length_c 28.7818
_cell_angle_alpha 90.232100
_cell_angle_beta 90.045400
_cell_angle_gamma 90.444200
loop_
  _atom_site_label
  _atom_site_type_symbol
  _atom_site_fract_x
  _atom_site_fract_y
  _atom_site_fract_z
C1 C 0.73336 0.61657 1.06025
 C2 C 0.75517 0.64226 1.02550
 C3 C 0.80012 0.66072 1.03271
 C4 C 0.82424 0.65299 1.07472
 C5 C 0.80184 0.62548 1.10885
 C6 C 0.75658 0.60685 1.10206
 C7 C 0.73505 0.64023 0.97861
 C8 C 0.69164 0.66020 0.96823
 C9 C 0.67099 0.65303 0.92432
 C10 C 0.69364 0.62380 0.89212
 C11 C 0.73724 0.60437 0.90228
 C12 C 0.75764 0.61294 0.94559
 H13 H 0.70000 0.60036 1.05225
 H14 H 0.81698 0.67842 1.00412
 H15 H 0.67471 0.68175 0.99396
 H16 H 0.79055 0.59676 0.95449
 H17 H 0.81799 0.62127 1.14250
 H18 H 0.67790 0.61684 0.85856
 C19 C 0.73931 0.38369 0.44675
 C20 C 0.76170 0.35622 0.47966
 C21 C 0.80522 0.33614 0.46917
 C22 C 0.82632 0.34382 0.42557
 C23 C 0.80435 0.37414 0.39422
 C24 C 0.76068 0.39333 0.40425
 C25 C 0.74249 0.35593 0.52701
 C26 C 0.69785 0.33719 0.53655
 C27 C 0.67629 0.34546 0.57983
 C28 C 0.69914 0.37506 0.61179
 C29 C 0.74401 0.39249 0.60290
 C30 C 0.76578 0.38222 0.56076
 H31 H 0.70620 0.39972 0.45532
 H32 H 0.82204 0.31444 0.49469
 H33 H 0.68043 0.31627 0.51038
 H34 H 0.79982 0.39717 0.55305
 H35 H 0.82061 0.38218 0.36122
 H36 H 0.68258 0.38403 0.64438
 C37 C 0.23093 -0.11956 -0.05924
 C38 C 0.25546 -0.14312 -0.02462
 C39 C 0.29956 -0.16218 -0.03457
 C40 C 0.31933 -0.15810 -0.07942
 C41 C 0.29487 -0.13121 -0.11247
 C42 C 0.25074 -0.11266 -0.10314
 C43 C 0.23611 -0.14356 0.02296
 C44 C 0.19102 -0.16134 0.03159
 C45 C 0.16889 -0.15401 0.07478
 C46 C 0.19366 -0.12885 0.10936
 C47 C 0.23910 -0.11187 0.10139
 C48 C 0.26019 -0.11986 0.05816
 H49 H 0.19689 -0.10530 -0.05128
 H50 H 0.31697 -0.18138 -0.00753
 H51 H 0.17241 -0.17834 0.00344
 H52 H 0.29488 -0.10617 0.05115
 H53 H 0.31088 -0.12237 -0.14529
 H54 H 0.17818 -0.12307 0.14317
 C55 C 0.23704 0.11135 0.55626
 C56 C 0.25978 0.13824 0.52282
 C57 C 0.30337 0.15896 0.53317
 C58 C 0.32413 0.15268 0.57713
 C59 C 0.30146 0.12352 0.60933
 C60 C 0.25769 0.10365 0.59965
 C61 C 0.24038 0.13860 0.47541
 C62 C 0.19725 0.15963 0.46529
 C63 C 0.17694 0.15455 0.42087
 C64 C 0.19953 0.12625 0.38787
 C65 C 0.24257 0.10551 0.39767
 C66 C 0.26285 0.11223 0.44147
 H67 H 0.20400 0.09474 0.54759
 H68 H 0.32047 0.18018 0.50722
 H69 H 0.18015 0.18021 0.49171
 H70 H 0.29535 0.09512 0.45008
 H71 H 0.31736 0.11695 0.64276
 H72 H 0.18395 0.12081 0.35397
 C73 C 0.11345 0.56270 0.23546
 C74 C 0.13796 0.52837 0.25916
 C75 C 0.15766 0.53806 0.30298
 C76 C 0.15217 0.58201 0.32335
 C77 C 0.12400 0.61464 0.30051
 C78 C 0.10545 0.60617 0.25595
 C79 C 0.13746 0.48112 0.23975
 C80 C 0.15900 0.47114 0.19692
 C81 C 0.15319 0.42732 0.17603
 C82 C 0.12358 0.39469 0.19782
 C83 C 0.10256 0.40410 0.24080
 C84 C 0.11006 0.44736 0.26169
 H85 H 0.09745 0.55374 0.20246
 H86 H 0.17772 0.51171 0.32049
 H87 H 0.18062 0.49728 0.18051
 H88 H 0.09285 0.45564 0.29420
 H89 H 0.11862 0.64792 0.31677
 H90 H 0.11746 0.36128 0.18178
 C91 C -0.12314 -0.06419 0.23929
 C92 C -0.14593 -0.02759 0.26143
 C93 C -0.16369 -0.03360 0.30671
 C94 C -0.15617 -0.07525 0.33098
 C95 C -0.13104 -0.11080 0.30835
 C96 C -0.11536 -0.10554 0.26271
 C97 C -0.14351 0.01856 0.23979
 C98 C -0.16028 0.02583 0.19446
 C99 C -0.15034 0.06741 0.17066
 C100 C -0.12287 0.10140 0.19390
 C101 C -0.10663 0.09464 0.23938
 C102 C -0.11748 0.05325 0.26210
 H103 H -0.10900 -0.05960 0.20463
 H104 H -0.18061 -0.00478 0.32380
 H105 H -0.17885 -0.00216 0.17728
 H106 H -0.10346 0.04691 0.29649
 H107 H -0.12548 -0.14380 0.32506
 H108 H -0.11613 0.13465 0.17806
 C109 C 0.37492 0.44199 0.73375
 C110 C 0.34897 0.47664 0.75539
 C111 C 0.33058 0.46923 0.80018
 C112 C 0.34025 0.42808 0.82451
 C113 C 0.36785 0.39419 0.80208
 C114 C 0.38495 0.40082 0.75691
 C115 C 0.35209 0.52354 0.73579
 C116 C 0.33443 0.53414 0.69135
 C117 C 0.34500 0.57718 0.67069
 C118 C 0.37583 0.60763 0.69414
 C119 C 0.39223 0.59777 0.73876
 C120 C 0.37983 0.55592 0.75951
 H121 H 0.39045 0.44866 0.70005
 H122 H 0.31219 0.49717 0.81722
 H123 H 0.31230 0.50920 0.67356
 H124 H 0.39390 0.54744 0.79341
 H125 H 0.37453 0.36141 0.81876
 H126 H 0.38630 0.63999 0.67835
 C127 C 0.61298 1.05982 0.73888
 C128 C 0.63694 1.02418 0.76068
 C129 C 0.65581 1.03102 0.80529
 C130 C 0.65071 1.07373 0.82881
 C131 C 0.62527 1.10898 0.80603
 C132 C 0.60641 1.10217 0.76142
 C133 C 0.63451 0.97771 0.73991
 C134 C 0.65568 0.96769 0.69697
 C135 C 0.64906 0.92401 0.67599
 C136 C 0.61902 0.89178 0.69777
 C137 C 0.59870 0.90134 0.74100
 C138 C 0.60677 0.94437 0.76184
 H139 H 0.59699 1.05351 0.70525
 H140 H 0.67210 1.00188 0.82214
 H141 H 0.67791 0.99347 0.68079
 H142 H 0.59010 0.95265 0.79464
 H143 H 0.62171 1.14288 0.82152
 H144 H 0.61228 0.85845 0.68177
 C145 C -0.05605 0.23579 -0.11749
 C146 C -0.02145 0.26139 -0.14044
 C147 C -0.03161 0.30600 -0.15712
 C148 C -0.07650 0.32547 -0.15070
 C149 C -0.10909 0.30001 -0.12361
 C150 C -0.09947 0.25539 -0.10820
 C151 C 0.02662 0.24306 -0.14172
 C152 C 0.03607 0.19931 -0.16106
 C153 C 0.08108 0.17959 -0.15733
 C154 C 0.11513 0.20430 -0.13095
 C155 C 0.10607 0.24798 -0.11188
 C156 C 0.06192 0.26748 -0.11834
 H157 H -0.04827 0.20159 -0.10440
 H158 H -0.00463 0.32414 -0.17619
 H159 H 0.00828 0.18193 -0.17988
 H160 H 0.05423 0.30107 -0.10351
 H161 H -0.14237 0.31444 -0.11348
 H162 H 0.14840 0.18887 -0.12258
 C163 C 0.56356 0.23320 0.11695
 C164 C 0.52843 0.25685 0.14075
 C165 C 0.53810 0.30046 0.16063
 C166 C 0.58292 0.32072 0.15623
 C167 C 0.61687 0.29723 0.12961
 C168 C 0.60783 0.25328 0.11084
 C169 C 0.48041 0.23797 0.13919
 C170 C 0.46935 0.19471 0.15866
 C171 C 0.42454 0.17496 0.15228
 C172 C 0.39186 0.19870 0.12450
 C173 C 0.40242 0.24216 0.10551
 C174 C 0.44686 0.26149 0.11325
 H175 H 0.55555 0.20004 0.10101
 H176 H 0.51083 0.31797 0.17978
 H177 H 0.49546 0.17711 0.17919
 H178 H 0.45628 0.29417 0.09736
 H179 H 0.65094 0.31272 0.12378
 H180 H 0.35765 0.18372 0.11809
 C181 C 1.06045 0.73725 0.61921
 C182 C 1.02521 0.75753 0.64565
 C183 C 1.03237 0.80141 0.66556
 C184 C 1.07422 0.82634 0.65747
 C185 C 1.10884 0.80556 0.62914
 C186 C 1.10238 0.76096 0.61054
 C187 C 0.97810 0.73688 0.64382
 C188 C 0.96810 0.69378 0.66394
 C189 C 0.92374 0.67307 0.65772
 C190 C 0.89059 0.69553 0.62936
 C191 C 0.90019 0.73892 0.60989
 C192 C 0.94418 0.75918 0.61732
 H193 H 1.05394 0.70395 0.60291
 H194 H 1.00377 0.81719 0.68438
 H195 H 0.99447 0.67718 0.68499
 H196 H 0.95286 0.79187 0.60105
 H197 H 1.14204 0.82283 0.62322
 H198 H 0.85669 0.67976 0.62315
 C199 C 0.44717 0.73937 0.37693
 C200 C 0.48241 0.76099 0.35102
 C201 C 0.47418 0.80437 0.33085
 C202 C 0.43090 0.82631 0.33713
 C203 C 0.39612 0.80440 0.36412
 C204 C 0.40404 0.76098 0.38419
 C205 C 0.52976 0.74130 0.35233
 C206 C 0.53901 0.69737 0.33344
 C207 C 0.58281 0.67651 0.34059
 C208 C 0.61600 0.69959 0.36891
 C209 C 0.60732 0.74365 0.38724
 C210 C 0.56422 0.76450 0.37815
 H211 H 0.45448 0.70676 0.39378
 H212 H 0.50191 0.82162 0.31179
 H213 H 0.51230 0.68003 0.31296
 H214 H 0.55670 0.79836 0.39245
 H215 H 0.36253 0.82089 0.36892
 H216 H 0.64864 0.68294 0.37760
 C217 C 0.41329 -0.07738 0.24980
 H218 H 0.41595 -0.07204 0.21271
 C219 C 0.42996 -0.11846 0.26947
 H220 H 0.44616 -0.14417 0.24741
 C221 C 0.38451 -0.05300 0.32298
 H222 H 0.36497 -0.02886 0.34378
 C223 C 0.40033 -0.09336 0.34381
 H224 H 0.39384 -0.09882 0.38046
 N225 N 0.38974 -0.04628 0.27645
 C226 C 0.34967 0.08359 0.21012
 H227 H 0.31342 0.07912 0.22002
 C228 C 0.36386 0.12482 0.18994
 H229 H 0.33821 0.15185 0.18606
 C230 C 0.42656 0.05390 0.20603
 H231 H 0.45073 0.02612 0.21282
 C232 C 0.44221 0.09470 0.18423
 H233 H 0.47848 0.09757 0.17373
 Zn234 Zn 0.35049 -0.00133 0.24815
 N235 N 0.38070 0.04914 0.21806
 C236 C 0.33853 0.05643 0.32293
 N237 N 0.31414 0.02685 0.29501
 C238 C 0.26696 0.02170 0.29898
 C239 C 0.24257 0.04684 0.33267
 C240 C 0.31569 0.08216 0.35676
 C241 C 0.28779 -0.07103 0.21739
 C242 C 0.26296 -0.09720 0.18450
 C243 C 0.28934 -0.04438 0.12505
 C244 C 0.31364 -0.01935 0.15894
 N245 N 0.31253 -0.03294 0.20412
 H246 H 0.37592 0.06045 0.31827
 H247 H 0.24821 -0.00134 0.27577
 H248 H 0.20507 0.04219 0.33583
 H249 H 0.33578 0.10613 0.37796
 H250 H 0.28825 -0.08164 0.25339
 H251 H 0.24425 -0.12796 0.19549
 H252 H 0.29050 -0.03272 0.08937
 H253 H 0.33412 0.01045 0.14878
 C254 C 0.41045 0.13090 0.17569
 C255 C 0.42168 -0.12753 0.31672
 C256 C 0.26394 -0.08417 0.13751
 C257 C 0.26709 0.07762 0.36201
 C258 C 0.06831 1.06154 0.78598
 H259 H 0.04195 1.03649 0.77559
 C260 C 0.05570 1.10168 0.80634
 H261 H 0.01894 1.10741 0.81276
 C262 C 0.14919 1.08119 0.79086
 H263 H 0.18563 1.07340 0.78467
 C264 C 0.13725 1.12544 0.81228
 H265 H 0.16614 1.14903 0.81825
 N266 N 0.11699 1.05158 0.77865
 C267 C 0.12245 0.94554 0.67067
 H268 H 0.14439 0.96929 0.65162
 C269 C 0.11121 0.90519 0.65100
 H270 H 0.12299 0.89837 0.61591
 C271 C 0.07901 0.92895 0.73933
 H272 H 0.07088 0.93582 0.77539
 C273 C 0.06338 0.88469 0.71763
 H274 H 0.04208 0.86152 0.73831
 Zn275 Zn 0.14610 1.00044 0.74900
 N276 N 0.10788 0.95618 0.71733
 C277 C 0.17798 0.98010 0.83963
 N278 N 0.18099 0.96773 0.79405
 C279 C 0.20546 0.92985 0.78065
 C280 C 0.22846 0.90294 0.81368
 C281 C 0.20078 0.95453 0.87367
 C282 C 0.16095 1.05776 0.67573
 C283 C 0.18428 1.08222 0.64128
 C284 C 0.25634 1.04585 0.66507
 C285 C 0.23147 1.02208 0.69950
 N286 N 0.18458 1.02838 0.70385
 H287 H 0.15729 1.00945 0.84998
 H288 H 0.20632 0.92003 0.74435
 H289 H 0.24701 0.87241 0.80237
 H290 H 0.19856 0.96565 0.90955
 H291 H 0.12370 1.06230 0.68042
 H292 H 0.16480 1.10613 0.62000
 H293 H 0.29359 1.04024 0.66151
 H294 H 0.24951 0.99886 0.72262
 C295 C 0.08147 0.87131 0.67625
 C296 C 0.09227 1.13641 0.82113
 C297 C 0.23258 1.07645 0.63549
 C298 C 0.22629 0.91519 0.86100
 C299 C 0.57740 0.55417 0.28864
 H300 H 0.55250 0.52658 0.28205
 C301 C 0.56256 0.59597 0.30907
 H302 H 0.52613 0.59987 0.31849
 C303 C 0.65543 0.58225 0.28661
 H304 H 0.69184 0.57681 0.27821
 C305 C 0.64215 0.62431 0.30524
 H306 H 0.66870 0.65089 0.30943
 N307 N 0.62345 0.54826 0.27818
 C308 C 0.65544 0.41374 0.21511
 H309 H 0.69166 0.41907 0.22485
 C310 C 0.64212 0.37215 0.19490
 H311 H 0.66842 0.34570 0.19112
 C312 C 0.57795 0.44182 0.21128
 H313 H 0.55327 0.46925 0.21769
 C314 C 0.56318 0.40065 0.18906
 H315 H 0.52705 0.39717 0.17821
 Zn316 Zn 0.65617 0.49771 0.25195
 N317 N 0.62368 0.44741 0.22361
 C318 C 0.66744 0.43834 0.32459
 N319 N 0.69124 0.47176 0.30112
 C320 C 0.73592 0.48358 0.31291
 C321 C 0.75963 0.45844 0.34688
 C322 C 0.68945 0.41287 0.35900
 C323 C 0.66555 0.54950 0.17465
 C324 C 0.68605 0.57667 0.14046
 C325 C 0.76188 0.55011 0.16568
 C326 C 0.73961 0.52263 0.19900
 N327 N 0.69234 0.52423 0.20388
 H328 H 0.63146 0.43058 0.31561
 H329 H 0.75326 0.51234 0.29629
 H330 H 0.79552 0.46732 0.35542
 H331 H 0.67037 0.38530 0.37614
 H332 H 0.62797 0.54994 0.17927
 H333 H 0.66334 0.59816 0.11976
 H334 H 0.79954 0.54791 0.16242
 H335 H 0.76022 0.50025 0.22064
 C336 C 0.59573 0.36507 0.18032
 C337 C 0.59544 0.63169 0.31797
 C338 C 0.73513 0.57829 0.13592
 C339 C 0.73640 0.42213 0.36971
 C340 C 0.93156 0.44269 0.79129
 H341 H 0.95701 0.46795 0.77968
 C342 C 0.94582 0.40347 0.81203
 H343 H 0.98291 0.39867 0.81736
 C344 C 0.85133 0.42180 0.79999
 H345 H 0.81455 0.42838 0.79450
 C346 C 0.86505 0.37858 0.82197
 H347 H 0.83682 0.35470 0.82937
 N348 N 0.88238 0.45118 0.78512
 C349 C 0.85010 0.58293 0.71806
 H350 H 0.81386 0.57846 0.72791
 C351 C 0.86393 0.62378 0.69712
 H352 H 0.83810 0.65058 0.69277
 C353 C 0.92710 0.55347 0.71413
 H354 H 0.95132 0.52571 0.72054
 C355 C 0.94241 0.59391 0.69146
 H356 H 0.97852 0.59671 0.68044
 Zn357 Zn 0.84914 0.49903 0.75503
 N358 N 0.88138 0.54891 0.72672
 C359 C 0.83461 0.55698 0.82850
 N360 N 0.81118 0.52597 0.80142
 C361 C 0.76462 0.51762 0.80736
 C362 C 0.73937 0.54289 0.84028
 C363 C 0.81091 0.58288 0.86158
 C364 C 0.83666 0.43455 0.68582
 C365 C 0.81437 0.40923 0.65102
 C366 C 0.74682 0.45840 0.65958
 C367 C 0.77080 0.48335 0.69391
 N368 N 0.81432 0.47003 0.70732
 H369 H 0.87172 0.56254 0.82330
 H370 H 0.74699 0.49145 0.78683
 H371 H 0.70231 0.53614 0.84469
 H372 H 0.83006 0.60851 0.88165
 H373 H 0.87183 0.42558 0.69613
 H374 H 0.83225 0.38038 0.63500
 H375 H 0.71186 0.46863 0.64958
 H376 H 0.75462 0.51314 0.70973
 C377 C 0.91033 0.62967 0.68238
 C378 C 0.91062 0.36845 0.82876
 C379 C 0.76866 0.42062 0.63815
 C380 C 0.76259 0.57633 0.86750
 C381 C 0.25878 0.42433 -0.07332
 H382 H 0.22395 0.43488 -0.06329
 C383 C 0.27699 0.43847 -0.11405
 H384 H 0.25627 0.46032 -0.13637
 C385 C 0.32695 0.38127 -0.05475
 H386 H 0.34535 0.35621 -0.03419
 C387 C 0.34793 0.39523 -0.09917
 H388 H 0.38271 0.38280 -0.10696
 N389 N 0.28448 0.39331 -0.04394
 C390 C 0.21574 0.35450 0.08669
 H391 H 0.22576 0.31876 0.08256
 C392 C 0.19399 0.36826 0.12746
 H393 H 0.18909 0.34288 0.15458
 C394 C 0.21201 0.43035 0.05638
 H395 H 0.21929 0.45425 0.02846
 C396 C 0.18877 0.44558 0.09676
 H397 H 0.17784 0.48124 0.09924
 Zn398 Zn 0.25442 0.35511 0.00131
 N399 N 0.22444 0.38517 0.05206
 C400 C 0.32995 0.34017 0.05855
 N401 N 0.30023 0.31737 0.02938
 C402 C 0.30237 0.27074 0.02364
 C403 C 0.33589 0.24524 0.04781
 C404 C 0.36351 0.31614 0.08357
 C405 C 0.22271 0.29584 -0.06988
 C406 C 0.18957 0.27208 -0.09678
 C407 C 0.12963 0.29627 -0.04294
 C408 C 0.16382 0.31970 -0.01724
 N409 N 0.20936 0.31907 -0.03097
 H410 H 0.32692 0.37720 0.06286
 H411 H 0.27798 0.25329 0.00069
 H412 H 0.33760 0.20823 0.04244
 H413 H 0.38594 0.33503 0.10745
 H414 H 0.25903 0.29662 -0.08051
 H415 H 0.20070 0.25455 -0.12814
 H416 H 0.09369 0.29684 -0.03105
 H417 H 0.15368 0.33896 0.01331
 C418 C 0.17902 0.41404 0.13287
 C419 C 0.32341 0.42076 -0.12964
 C420 C 0.14221 0.27236 -0.08355
 C421 C 0.36693 0.26800 0.07843
 C422 C 0.76655 0.06925 1.06965
 H423 H 0.73330 0.05478 1.05864
 C424 C 0.78657 0.05457 1.10914
 H425 H 0.76820 0.02904 1.12970
 C426 C 0.83021 0.11996 1.05300
 H427 H 0.84642 0.14716 1.03315
 C428 C 0.85357 0.10489 1.09586
 H429 H 0.88764 0.11967 1.10344
 N430 N 0.78825 0.10530 1.04269
 C431 C 0.67349 0.13046 0.94348
 H432 H 0.65931 0.15767 0.96496
 C433 C 0.65104 0.11826 0.90464
 H434 H 0.61810 0.13481 0.89703
 C435 C 0.73210 0.07330 0.93289
 H436 H 0.76548 0.05840 0.94198
 C437 C 0.70803 0.05818 0.88961
 H438 H 0.72498 0.03182 0.86906
 Zn439 Zn 0.75369 0.14249 0.99989
 N440 N 0.71662 0.10866 0.95623
 C441 C 0.81092 0.16500 0.92323
 N442 N 0.79688 0.18000 0.96589
 C443 C 0.81596 0.21880 0.98541
 C444 C 0.84970 0.24451 0.96145
 C445 C 0.84525 0.18906 0.89861
 C446 C 0.68451 0.15705 1.06659
 C447 C 0.65090 0.18072 1.09213
 C448 C 0.67258 0.25067 1.05176
 C449 C 0.70583 0.22553 1.02679
 N450 N 0.71164 0.17958 1.03500
 H451 H 0.79632 0.13383 0.90841
 H452 H 0.80576 0.22924 1.02004
 H453 H 0.86460 0.27537 0.97718
 H454 H 0.85630 0.17660 0.86485
 H455 H 0.68819 0.12037 1.07146
 H456 H 0.62998 0.16206 1.11732
 H457 H 0.66788 0.28701 1.04432
 H458 H 0.72572 0.24251 0.99985
 C459 C 0.67033 0.08163 0.87376
 C460 C 0.83170 0.07566 1.12531
 C461 C 0.64451 0.22812 1.08482
 C462 C 0.86480 0.22927 0.91776
 C463 C 0.28960 0.57876 0.54925
 H464 H 0.28014 0.55527 0.52147
 C465 C 0.31049 0.56169 0.59006
 H466 H 0.31736 0.52508 0.59293
 C467 C 0.29401 0.65509 0.57898
 H468 H 0.28739 0.69159 0.57466
 C469 C 0.31321 0.63965 0.62023
 H470 H 0.31986 0.66486 0.64736
 N471 N 0.28176 0.62494 0.54476
 C472 C 0.21415 0.65653 0.41236
 H473 H 0.22493 0.69230 0.41578
 C474 C 0.19330 0.64179 0.37140
 H475 H 0.18988 0.66649 0.34349
 C476 C 0.20812 0.58150 0.44444
 H477 H 0.21374 0.55833 0.47321
 C478 C 0.18538 0.56537 0.40395
 H479 H 0.17348 0.52979 0.40214
 Zn480 Zn 0.25238 0.65911 0.49679
 N481 N 0.22189 0.62662 0.44770
 C482 C 0.32595 0.66933 0.43692
 N483 N 0.30057 0.69445 0.46784
 C484 C 0.30906 0.74042 0.47421
 C485 C 0.34254 0.76321 0.44690
 C486 C 0.35965 0.69055 0.40917
 C487 C 0.18244 0.67054 0.56049
 C488 C 0.14920 0.69188 0.58839
 C489 C 0.16215 0.76276 0.54608
 C490 C 0.19529 0.73982 0.51864
 N491 N 0.20562 0.69475 0.52715
 H492 H 0.31892 0.63273 0.43289
 H493 H 0.29029 0.75948 0.50046
 H494 H 0.34895 0.79980 0.45220
 H495 H 0.37843 0.66998 0.38390
 H496 H 0.19044 0.63449 0.56598
 H497 H 0.13200 0.67202 0.61534
 H498 H 0.15410 0.79857 0.53900
 H499 H 0.21211 0.75793 0.49042
 C500 C 0.17736 0.59599 0.36679
 C501 C 0.32267 0.59250 0.62635
 C502 C 0.13887 0.73866 0.58165
 C503 C 0.36796 0.73820 0.41352
 C504 C 0.76026 0.92132 0.43096
 H505 H 0.72536 0.93226 0.44029
 C506 C 0.78000 0.93634 0.39129
 H507 H 0.76049 0.95928 0.36900
 C508 C 0.82711 0.87658 0.45035
 H509 H 0.84446 0.85067 0.47073
 C510 C 0.84963 0.89130 0.40699
 H511 H 0.88421 0.87811 0.39956
 N512 N 0.78449 0.88897 0.46011
 C513 C 0.71158 0.85008 0.58776
 H514 H 0.72112 0.81419 0.58379
 C515 C 0.68921 0.86416 0.62803
 H516 H 0.68337 0.83882 0.65501
 C517 C 0.71007 0.92610 0.55759
 H518 H 0.71860 0.94994 0.52997
 C519 C 0.68617 0.94167 0.59740
 H520 H 0.67594 0.97754 0.59975
 Zn521 Zn 0.75285 0.85052 0.50387
 N522 N 0.72171 0.88071 0.55351
 C523 C 0.82645 0.83578 0.56300
 N524 N 0.79760 0.81271 0.53323
 C525 C 0.80025 0.76610 0.52753
 C526 C 0.83372 0.74094 0.55212
 C527 C 0.85991 0.81211 0.58842
 C528 C 0.72306 0.79050 0.43241
 C529 C 0.69058 0.76646 0.40497
 C530 C 0.62915 0.79235 0.45630
 C531 C 0.66271 0.81593 0.48263
 N532 N 0.70866 0.81463 0.47037
 H533 H 0.82299 0.87277 0.56725
 H534 H 0.77647 0.74844 0.50411
 H535 H 0.83603 0.70397 0.54673
 H536 H 0.88181 0.83123 0.61260
 H537 H 0.75971 0.79072 0.42298
 H538 H 0.70252 0.74822 0.37431
 H539 H 0.59282 0.79359 0.46689
 H540 H 0.65176 0.83587 0.51245
 C541 C 0.67506 0.91023 0.63319
 C542 C 0.82639 0.91795 0.37656
 C543 C 0.64283 0.76753 0.41663
 C544 C 0.86415 0.76408 0.58301
 C545 C -0.05312 0.28650 0.42522
 H546 H -0.02465 0.27895 0.44867
 C547 C -0.09365 0.30855 0.44191
 H548 H -0.09582 0.31796 0.47827
 C549 C -0.08434 0.28589 0.34899
 H550 H -0.08049 0.27737 0.31258
 C551 C -0.12525 0.30644 0.36411
 H552 H -0.15277 0.31215 0.33897
 N553 N -0.04940 0.27585 0.37922
 C554 C 0.08744 0.21563 0.34719
 H555 H 0.08400 0.22646 0.31145
 C556 C 0.12891 0.19565 0.36166
 H557 H 0.15721 0.19269 0.33686
 C558 C 0.05454 0.20779 0.42223
 H559 H 0.02514 0.21207 0.44541
 C560 C 0.09566 0.18631 0.43813
 H561 H 0.09737 0.17411 0.47359
 Zn562 Zn -0.00002 0.24838 0.34499
 N563 N 0.05129 0.22170 0.37718
 C564 C 0.05491 0.32541 0.33407
 N565 N 0.02588 0.29725 0.30916
 C566 C 0.01809 0.30462 0.26314
 C567 C 0.04233 0.33990 0.23996
 C568 C 0.07961 0.36099 0.31245
 C569 C -0.06214 0.17620 0.33248
 C570 C -0.08801 0.14167 0.31017
 C571 C -0.04231 0.15483 0.24085
 C572 C -0.01697 0.18914 0.26473
 N573 N -0.02824 0.20005 0.30937
 H574 H 0.05990 0.31925 0.37078
 H575 H -0.00682 0.28344 0.24433
 H576 H 0.03624 0.34511 0.20323
 H577 H 0.10385 0.38178 0.33274
 H578 H -0.06974 0.18467 0.36830
 H579 H -0.11567 0.12410 0.32898
 H580 H -0.03327 0.14665 0.20524
 H581 H 0.01165 0.20674 0.24761
 C582 C 0.13340 0.17947 0.40731
 C583 C -0.13030 0.31920 0.41089
 C584 C -0.07868 0.13095 0.26358
 C585 C 0.07411 0.36815 0.26463
 C586 C 1.06661 0.76437 0.07769
 H587 H 1.05522 0.73154 0.06339
 C588 C 1.10653 0.78399 0.06265
 H589 H 1.12724 0.76582 0.03708
 C590 C 1.04999 0.82782 0.12770
 H591 H 1.02947 0.84450 0.15409
 C592 C 1.09391 0.85028 0.11298
 H593 H 1.10226 0.88381 0.12778
 N594 N 1.03932 0.78629 0.11345
 C595 C 0.93963 0.67230 0.13214
 H596 H 0.96104 0.65669 0.15862
 C597 C 0.90097 0.65041 0.11810
 H598 H 0.89363 0.61648 0.13214
 C599 C 0.92849 0.73435 0.07915
 H600 H 0.93726 0.76863 0.06688
 C601 C 0.88514 0.71114 0.06232
 H602 H 0.86411 0.72961 0.03738
 Zn603 Zn 0.99530 0.75162 0.14969
 N604 N 0.95202 0.71670 0.11345
 C605 C 0.91421 0.79880 0.17948
 N606 N 0.96039 0.79222 0.18912
 C607 C 0.98177 0.81582 0.22443
 C608 C 0.95703 0.84849 0.25034
 C609 C 0.88849 0.83160 0.20397
 C610 C 1.05539 0.67741 0.16074
 C611 C 1.08021 0.64295 0.18342
 C612 C 1.05301 0.67361 0.25664
 C613 C 1.02785 0.70692 0.23234
 N614 N 1.02991 0.70861 0.18521
 H615 H 0.89729 0.77970 0.15194
 H616 H 1.01851 0.81040 0.23152
 H617 H 0.97463 0.86798 0.27750
 H618 H 0.85222 0.83759 0.19493
 H619 H 1.05559 0.67852 0.12329
 H620 H 1.10088 0.61959 0.16251
 H621 H 1.04933 0.67259 0.29403
 H622 H 1.00585 0.73053 0.25129
 C623 C 0.86958 0.67200 0.08318
 C624 C 1.12321 0.82845 0.08360
 C625 C 1.07975 0.64057 0.23229
 C626 C 0.91016 0.85707 0.23937
 C627 C 0.55398 0.28992 0.57696
 H628 H 0.52647 0.28146 0.55253
 C629 C 0.59557 0.31131 0.56138
 H630 H 0.59931 0.31953 0.52492
 C631 C 0.58211 0.29159 0.65433
 H632 H 0.57679 0.28394 0.69070
 C633 C 0.62409 0.31124 0.64034
 H634 H 0.65080 0.31708 0.66643
 N635 N 0.54827 0.28061 0.62297
 C636 C 0.41487 0.21151 0.65267
 H637 H 0.41896 0.22061 0.68893
 C638 C 0.37352 0.19092 0.63794
 H639 H 0.34602 0.18585 0.66328
 C640 C 0.44552 0.21021 0.57629
 H641 H 0.47377 0.21783 0.55254
 C642 C 0.40465 0.18774 0.56007
 H643 H 0.40218 0.17786 0.52384
 Zn644 Zn 0.49845 0.25166 0.65557
 N645 N 0.44966 0.22144 0.62214
 C646 C 0.43562 0.32191 0.66557
 N647 N 0.46870 0.29899 0.69024
 C648 C 0.47728 0.30954 0.73559
 C649 C 0.45005 0.34262 0.75843
 C650 C 0.40779 0.35505 0.68687
 C651 C 0.55957 0.18078 0.66844
 C652 C 0.58627 0.14750 0.69067
 C653 C 0.54464 0.16382 0.76183
 C654 C 0.51845 0.19695 0.73803
 N655 N 0.52712 0.20544 0.69234
 H656 H 0.43007 0.31353 0.62932
 H657 H 0.50525 0.29270 0.75405
 H658 H 0.45712 0.35071 0.79453
 H659 H 0.38079 0.37186 0.66679
 H660 H 0.56530 0.18768 0.63197
 H661 H 0.61254 0.12899 0.67106
 H662 H 0.53735 0.15713 0.79811
 H663 H 0.49105 0.21526 0.75598
 C664 C 0.36797 0.17755 0.59134
 C665 C 0.63137 0.32241 0.59349
 C666 C 0.57921 0.13881 0.73802
 C667 C 0.41442 0.36543 0.73402
 C668 C 0.43757 0.78418 0.92951
 H669 H 0.46345 0.77411 0.95486
 C670 C 0.39773 0.80486 0.94338
 H671 H 0.39294 0.81158 0.98002
 C672 C 0.41577 0.78912 0.84987
 H673 H 0.42256 0.78283 0.81345
 C674 C 0.37181 0.81077 0.86321
 H675 H 0.34727 0.81683 0.83535
 N676 N 0.44606 0.77640 0.88083
 C677 C 0.58165 0.71317 0.85018
 H678 H 0.57788 0.72314 0.81422
 C679 C 0.62263 0.69223 0.86439
 H680 H 0.65032 0.68773 0.83917
 C681 C 0.55001 0.70877 0.92608
 H682 H 0.52128 0.71481 0.94967
 C683 C 0.59064 0.68644 0.94181
 H684 H 0.59273 0.67542 0.97763
 Zn685 Zn 0.49617 0.74856 0.84822
 N686 N 0.54644 0.72141 0.88072
 C687 C 0.55334 0.82373 0.83582
 N688 N 0.52280 0.79631 0.81198
 C689 C 0.51368 0.80353 0.76617
 C690 C 0.53785 0.83809 0.74203
 C691 C 0.57806 0.85857 0.81323
 C692 C 0.43396 0.67729 0.83396
 C693 C 0.40905 0.64287 0.81066
 C694 C 0.45838 0.65524 0.74355
 C695 C 0.48279 0.68930 0.76846
 N696 N 0.46910 0.70066 0.81228
 H697 H 0.55934 0.81764 0.87240
 H698 H 0.48769 0.78279 0.74831
 H699 H 0.53067 0.84334 0.70550
 H700 H 0.60343 0.87894 0.83258
 H701 H 0.42465 0.68611 0.86929
 H702 H 0.38016 0.62572 0.82801
 H703 H 0.46886 0.64696 0.70836
 H704 H 0.51235 0.70666 0.75270
 C705 C 0.62749 0.67753 0.91045
 C706 C 0.36213 0.81986 0.90822
 C707 C 0.42062 0.63211 0.76462
 C708 C 0.57090 0.86571 0.76561
   
