data_POSCAR
  _audit_creation_date              2014-09-24
  _audit_creation_method            'ToBaCCo'
  _symmetry_space_group_name_H-M    'P1'
  _symmetry_Int_Tables_number       1
  _symmetry_cell_setting            triclinic
  loop_
  _symmetry_equiv_pos_as_xyz
 x,y,z
_cell_length_a 34.9413
_cell_length_b 34.9396
_cell_length_c 34.9676
_cell_angle_alpha 76.857600
_cell_angle_beta 103.121300
_cell_angle_gamma 102.652700
loop_
  _atom_site_label
  _atom_site_type_symbol
  _atom_site_fract_x
  _atom_site_fract_y
  _atom_site_fract_z
C1 C 0.59203 0.59172 -0.00028
 C2 C 0.59922 0.55286 0.00305
 C3 C 0.56684 0.52078 0.00471
 C4 C 0.52745 0.52712 0.00012
 C5 C 0.52114 0.56655 -0.00468
 C6 C 0.55323 0.59895 -0.00342
 C7 C 0.49304 0.49272 0.00031
 C8 C 0.45777 0.49494 0.01234
 C9 C 0.42502 0.46337 0.01143
 C10 C 0.42851 0.42819 0.00064
 C11 C 0.46355 0.42458 -0.01032
 C12 C 0.49512 0.45732 -0.01156
 H13 H 0.61682 0.61653 -0.00043
 H14 H 0.57251 0.49067 0.00980
 H15 H 0.49106 0.57223 -0.00963
 H16 H 0.45559 0.52106 0.02280
 H17 H 0.40372 0.40340 0.00076
 H18 H 0.52113 0.45504 -0.02216
 C19 C -0.00063 0.57311 0.42660
 C20 C -0.01067 0.57709 0.46206
 C21 C -0.01174 0.54404 0.49376
 C22 C -0.00028 0.50840 0.49160
 C23 C 0.01100 0.50599 0.45605
 C24 C 0.00958 0.53756 0.42284
 C25 C -0.00013 0.47388 0.52628
 C26 C -0.00499 0.43440 0.52026
 C27 C -0.00353 0.40205 0.55258
 C28 C 0.00008 0.40905 0.59134
 C29 C 0.00357 0.44786 0.59819
 C30 C 0.00484 0.48007 0.56574
 H31 H -0.00076 0.59798 0.40163
 H32 H -0.02181 0.54616 0.52010
 H33 H 0.02119 0.47956 0.45410
 H34 H -0.01018 0.42848 0.49033
 H35 H 0.00015 0.38417 0.61630
 H36 H 0.00993 0.51002 0.57155
 C37 C 0.57350 0.00186 0.57203
 C38 C 0.53803 0.01228 0.57537
 C39 C 0.50620 0.01277 0.54263
 C40 C 0.50840 0.00059 0.50751
 C41 C 0.54407 -0.01095 0.50549
 C42 C 0.57730 -0.00916 0.53700
 C43 C 0.47365 -0.00005 0.47314
 C44 C 0.47956 0.00433 0.43370
 C45 C 0.44716 0.00250 0.40150
 C46 C 0.40843 -0.00106 0.40857
 C47 C 0.40171 -0.00411 0.44734
 C48 C 0.43427 -0.00495 0.47945
 H49 H 0.59829 0.00227 0.59705
 H50 H 0.47983 0.02299 0.54470
 H51 H 0.54605 -0.02166 0.47947
 H52 H 0.50944 0.00943 0.42770
 H53 H 0.38341 -0.00143 0.38378
 H54 H 0.42863 -0.00962 0.50944
 O55 O 0.47126 0.01005 -0.07255
 O56 O 0.46244 -0.00469 0.03278
 O57 O 0.46352 0.05552 -0.02660
 O58 O 0.47212 -0.05025 -0.01338
 O59 O 0.53760 -0.03409 0.00385
 O60 O 0.52910 0.07139 -0.00979
 O61 O 0.52793 0.01162 0.04986
 O62 O 0.53684 0.02593 -0.05576
 Cu63 Cu 0.46074 0.00088 -0.02145
 Cu64 Cu 0.53946 0.02012 -0.00110
 C65 C 0.50549 0.02055 -0.08211
 C66 C 0.49351 0.00169 0.05913
 C67 C 0.49492 0.08143 -0.02055
 C68 C 0.50648 -0.06001 -0.00315
 O69 O -0.03381 0.53731 0.99598
 O70 O 0.07183 0.52899 1.01061
 O71 O 0.01258 0.52802 0.95043
 O72 O 0.02563 0.53632 1.05613
 O73 O 0.00975 0.47070 1.07258
 O74 O -0.00373 0.46249 0.96715
 O75 O 0.05597 0.46337 1.02707
 O76 O -0.04998 0.47179 1.01287
 Cu77 Cu 0.02048 0.53925 1.00147
 Cu78 Cu 0.00125 0.46050 1.02139
 C79 C -0.05977 0.50614 1.00267
 C80 C 0.08190 0.49482 1.02134
 C81 C 0.00284 0.49369 0.94097
 C82 C 0.01998 0.50486 1.08231
 O83 O -0.02653 -0.05584 0.46348
 O84 O -0.01324 0.04972 0.47222
 O85 O 0.03287 0.00377 0.46268
 O86 O -0.07244 -0.00994 0.47113
 O87 O -0.05589 -0.02667 0.53679
 O88 O 0.04971 -0.01335 0.52825
 O89 O 0.00373 0.03274 0.53779
 O90 O -0.00996 -0.07255 0.52915
 Cu91 Cu -0.02133 -0.00123 0.46078
 Cu92 Cu -0.00128 -0.02146 0.53959
 C93 C -0.02059 -0.08213 0.49490
 C94 C -0.00313 0.05903 0.50664
 C95 C 0.05910 -0.00317 0.49386
 C96 C -0.08212 -0.02066 0.50534
 N97 N -0.31892 0.50292 1.00562
 C98 C -0.28814 0.53406 1.00300
 N99 N -0.29464 0.57131 1.00116
 N100 N -0.33087 0.57730 1.00167
 C101 C -0.36207 0.54629 1.00407
 N102 N -0.35516 0.50893 1.00613
 C103 C -0.24920 0.52783 1.00170
 C104 C -0.21630 0.52319 1.00053
 C105 C -0.17679 0.51846 0.99938
 N106 N -0.14891 0.55094 0.98993
 N107 N -0.11181 0.54687 0.99020
 C108 C -0.10134 0.51017 0.99984
 N109 N -0.12940 0.47765 1.00909
 N110 N -0.16653 0.48173 1.00883
 N111 N 0.34494 0.50676 1.03031
 C112 C 0.31453 0.47510 1.03138
 N113 N 0.32070 0.43945 1.02723
 N114 N 0.35610 0.43560 1.02190
 C115 C 0.38667 0.46724 1.02045
 N116 N 0.38041 0.50288 1.02500
 C117 C 0.27542 0.47967 1.03385
 C118 C 0.24191 0.48283 1.03442
 C119 C 0.20148 0.48605 1.03343
 N120 N 0.17371 0.45274 1.04040
 N121 N 0.13562 0.45553 1.03708
 C122 C 0.12404 0.49173 1.02656
 N123 N 0.15196 0.52504 1.01976
 N124 N 0.19004 0.52224 1.02308
 N125 N -0.02199 -0.31884 0.43912
 C126 C -0.02921 -0.31388 0.47394
 N127 N -0.03138 -0.34549 0.50461
 N128 N -0.02622 -0.38097 0.50058
 C129 C -0.01853 -0.38614 0.46580
 N130 N -0.01681 -0.35425 0.43513
 C131 C -0.03184 -0.27494 0.47881
 C132 C -0.03257 -0.24156 0.48219
 C133 C -0.03182 -0.20127 0.48562
 N134 N -0.02150 -0.19039 0.52191
 N135 N -0.01844 -0.15244 0.52488
 C136 C -0.02547 -0.12411 0.49164
 N137 N -0.03596 -0.13514 0.45533
 N138 N -0.03902 -0.17309 0.45238
 N139 N -0.00607 0.31819 0.50300
 C140 C -0.00394 0.28719 0.53430
 N141 N -0.00249 0.29356 0.57146
 N142 N -0.00293 0.32988 0.57716
 C143 C -0.00490 0.36119 0.54594
 N144 N -0.00651 0.35451 0.50873
 C145 C -0.00267 0.24817 0.52836
 C146 C -0.00152 0.21526 0.52384
 C147 C -0.00035 0.17578 0.51912
 N148 N 0.00911 0.14752 0.55161
 N149 N 0.00896 0.11050 0.54751
 C150 C -0.00056 0.10048 0.51075
 N151 N -0.00983 0.12891 0.47822
 N152 N -0.00969 0.16596 0.48233
 N153 N 0.49430 0.03066 -0.34485
 C154 C 0.52612 0.03211 -0.31434
 N155 N 0.56198 0.02843 -0.32034
 N156 N 0.56588 0.02316 -0.35569
 C157 C 0.53409 0.02130 -0.38637
 N158 N 0.49824 0.02541 -0.38026
 C159 C 0.52150 0.03438 -0.27527
 C160 C 0.51823 0.03473 -0.24180
 C161 C 0.51482 0.03345 -0.20144
 N162 N 0.54802 0.03994 -0.17320
 N163 N 0.54505 0.03634 -0.13517
 C164 C 0.50878 0.02598 -0.12414
 N165 N 0.47559 0.01964 -0.15252
 N166 N 0.47856 0.02324 -0.19054
 N167 N 0.42818 0.00049 0.29334
 C168 C 0.46536 0.00205 0.28694
 N169 N 0.49670 0.00453 0.31781
 N170 N 0.49098 0.00520 0.35403
 C171 C 0.45374 0.00350 0.36074
 N172 N 0.42248 0.00117 0.32956
 C173 C 0.47134 0.00064 0.24803
 C174 C 0.47593 -0.00057 0.21520
 C175 C 0.48076 -0.00172 0.17581
 N176 N 0.51754 0.00737 0.16606
 N177 N 0.52175 0.00767 0.12904
 C178 C 0.48932 -0.00119 0.10057
 N179 N 0.45257 -0.01049 0.11053
 N180 N 0.44837 -0.01078 0.14752
 N181 N 0.57176 -0.29476 -0.00221
 C182 C 0.53455 -0.28824 -0.00384
 N183 N 0.50343 -0.31906 -0.00612
 N184 N 0.50939 -0.35535 -0.00648
 C185 C 0.54669 -0.36229 -0.00462
 N186 N 0.57770 -0.33105 -0.00258
 C187 C 0.52837 -0.24927 -0.00262
 C188 C 0.52373 -0.21636 -0.00150
 C189 C 0.51897 -0.17688 -0.00034
 N190 N 0.48223 -0.16662 -0.00987
 N191 N 0.47810 -0.12954 -0.01002
 C192 C 0.51057 -0.10152 -0.00058
 N193 N 0.54727 -0.11197 0.00914
 N194 N 0.55139 -0.14902 0.00930
 N195 N 0.50661 0.34438 -0.02940
 C196 C 0.47500 0.31391 -0.03002
 N197 N 0.43949 0.32005 -0.02548
 N198 N 0.43572 0.35550 -0.02020
 C199 C 0.46730 0.38615 -0.01921
 N200 N 0.50281 0.37990 -0.02415
 C201 C 0.47952 0.27479 -0.03248
 C202 C 0.48269 0.24129 -0.03306
 C203 C 0.48597 0.20088 -0.03212
 N204 N 0.45271 0.17313 -0.03932
 N205 N 0.45555 0.13507 -0.03613
 C206 C 0.49176 0.12352 -0.02550
 N207 N 0.52502 0.15142 -0.01846
 N208 N 0.52216 0.18947 -0.02165
 N209 N -0.31864 -0.02037 0.56018
 C210 C -0.31382 -0.02859 0.52574
 N211 N -0.34554 -0.03144 0.49526
 N212 N -0.38097 -0.02599 0.49910
 C213 C -0.38599 -0.01731 0.53349
 N214 N -0.35400 -0.01490 0.56398
 C215 C -0.27494 -0.03150 0.52099
 C216 C -0.24158 -0.03241 0.51771
 C217 C -0.20130 -0.03181 0.51437
 N218 N -0.19031 -0.02144 0.47811
 N219 N -0.15236 -0.01843 0.47523
 C220 C -0.12412 -0.02554 0.50851
 N221 N -0.13525 -0.03607 0.54478
 N222 N -0.17321 -0.03908 0.54765
 N223 N 0.29318 -0.00360 0.42901
 C224 C 0.28708 -0.00442 0.46612
 N225 N 0.31828 -0.00598 0.49725
 N226 N 0.35453 -0.00646 0.49137
 C227 C 0.36094 -0.00547 0.45419
 N228 N 0.32944 -0.00407 0.42316
 C229 C 0.24815 -0.00306 0.47220
 C230 C 0.21528 -0.00182 0.47677
 C231 C 0.17583 -0.00054 0.48148
 N232 N 0.16595 -0.00997 0.51825
 N233 N 0.12891 -0.01004 0.52234
 C234 C 0.10056 -0.00062 0.48980
 N235 N 0.11064 0.00899 0.45306
 N236 N 0.14765 0.00907 0.44898
 N237 N 0.02040 0.56010 1.31883
 C238 C 0.02783 0.52523 1.31403
 N239 N 0.03028 0.49463 1.34575
 N240 N 0.02519 0.49878 1.38115
 C241 C 0.01731 0.53363 1.38615
 N242 N 0.01530 0.56421 1.35416
 C243 C 0.03051 0.52030 1.27516
 C244 C 0.03132 0.51696 1.24182
 C245 C 0.03071 0.51368 1.20153
 N246 N 0.02081 0.47748 1.19049
 N247 N 0.01792 0.47466 1.15254
 C248 C 0.02470 0.50795 1.12434
 N249 N 0.03476 0.54415 1.13552
 N250 N 0.03765 0.54696 1.17348
 N251 N 0.00593 0.49771 0.68180
 C252 C 0.00406 0.46650 0.71288
 N253 N 0.00287 0.42933 0.70663
 N254 N 0.00329 0.42352 0.67038
 C255 C 0.00500 0.45464 0.63900
 N256 N 0.00635 0.49188 0.64554
 C257 C 0.00276 0.47253 0.75183
 C258 C 0.00157 0.47703 0.78471
 C259 C 0.00033 0.48163 0.82419
 N260 N -0.00885 0.44910 0.85232
 N261 N -0.00879 0.45307 0.88934
 C262 C 0.00037 0.48973 0.89949
 N263 N 0.00936 0.52231 0.87119
 N264 N 0.00931 0.51832 0.83414
   
