data_POSCAR
  _audit_creation_date              2014-09-24
  _audit_creation_method            'ToBaCCo'
  _symmetry_space_group_name_H-M    'P1'
  _symmetry_Int_Tables_number       1
  _symmetry_cell_setting            triclinic
  loop_
  _symmetry_equiv_pos_as_xyz
 x,y,z
_cell_length_a 32.9985
_cell_length_b 28.3492
_cell_length_c 28.4287
_cell_angle_alpha 89.897800
_cell_angle_beta 90.023300
_cell_angle_gamma 89.963700
loop_
  _atom_site_label
  _atom_site_type_symbol
  _atom_site_fract_x
  _atom_site_fract_y
  _atom_site_fract_z
C1 C 0.32391 0.29337 0.21864
 H2 H 0.33916 0.27034 0.24320
 C3 C 0.34679 0.32271 0.18929
 H4 H 0.37954 0.32144 0.19135
 C5 C 0.26291 0.32385 0.18678
 H6 H 0.23013 0.32395 0.18605
 C7 C 0.28451 0.35373 0.15696
 H8 H 0.26793 0.37675 0.13338
 N9 N 0.28272 0.29382 0.21618
 C10 C 0.17508 0.29429 0.28750
 H11 H 0.15966 0.27178 0.26269
 C12 C 0.15244 0.32391 0.31675
 H13 H 0.11970 0.32336 0.31438
 C14 C 0.23631 0.32330 0.31992
 H15 H 0.26909 0.32278 0.32085
 C16 C 0.21496 0.35339 0.34971
 H17 H 0.23171 0.37595 0.37346
 Zn18 Zn 0.24930 0.25391 0.25306
 N19 N 0.21626 0.29391 0.29023
 C20 C 0.27214 0.21223 0.33951
 N21 N 0.28045 0.21402 0.29267
 C22 C 0.30953 0.18606 0.27337
 C23 C 0.33279 0.15623 0.30183
 C24 C 0.29409 0.18230 0.36905
 C25 C 0.18831 0.18720 0.23176
 C26 C 0.16514 0.15783 0.20284
 C27 C 0.20498 0.18365 0.13636
 C28 C 0.22679 0.21316 0.16632
 N29 N 0.21791 0.21483 0.21302
 H30 H 0.24805 0.23348 0.35404
 H31 H 0.31478 0.18713 0.23582
 H32 H 0.35602 0.13449 0.28593
 H33 H 0.28700 0.18147 0.40623
 H34 H 0.18261 0.18812 0.26922
 H35 H 0.14151 0.13632 0.21828
 H36 H 0.21257 0.18289 0.09931
 H37 H 0.25128 0.23412 0.15224
 C38 C 0.17240 0.35371 0.34873
 C39 C 0.32708 0.35310 0.15755
 C40 C 0.17351 0.15576 0.15447
 C41 C 0.32508 0.15408 0.35035
 C42 C 0.82498 0.78363 0.20658
 H43 H 0.84048 0.75938 0.22973
 C44 C 0.84753 0.81323 0.17716
 H45 H 0.88029 0.81147 0.17867
 C46 C 0.76365 0.81436 0.17594
 H47 H 0.73086 0.81451 0.17580
 C48 C 0.78485 0.84443 0.14595
 H49 H 0.76775 0.86749 0.12290
 N50 N 0.78379 0.78540 0.20605
 C51 C 0.68940 0.76875 0.31195
 H52 H 0.68398 0.73113 0.31094
 C53 C 0.66603 0.79744 0.34130
 H54 H 0.64251 0.78169 0.36271
 C55 C 0.72743 0.83481 0.28624
 H56 H 0.75184 0.84920 0.26540
 C57 C 0.70541 0.86456 0.31573
 H58 H 0.71274 0.90178 0.31661
 Zn59 Zn 0.75061 0.74812 0.24570
 N60 N 0.71889 0.78791 0.28448
 C61 C 0.77284 0.66166 0.28777
 N62 N 0.78158 0.70850 0.28564
 C63 C 0.81058 0.72779 0.31365
 C64 C 0.83330 0.69926 0.34395
 C65 C 0.79423 0.63206 0.31817
 C66 C 0.67686 0.71338 0.20497
 C67 C 0.65449 0.68395 0.17533
 C68 C 0.71726 0.65103 0.14642
 C69 C 0.73834 0.68102 0.17654
 N70 N 0.71802 0.71074 0.20565
 H71 H 0.74876 0.64718 0.26651
 H72 H 0.81611 0.76538 0.31237
 H73 H 0.85647 0.71513 0.36576
 H74 H 0.78680 0.59487 0.31928
 H75 H 0.66125 0.73824 0.22727
 H76 H 0.62174 0.68623 0.17564
 H77 H 0.73419 0.62723 0.12408
 H78 H 0.77112 0.68020 0.17732
 C79 C 0.67409 0.84601 0.34350
 C80 C 0.82751 0.84467 0.14649
 C81 C 0.67471 0.65191 0.14582
 C82 C 0.82509 0.65073 0.34651
 C83 C 0.81100 0.31222 0.72706
 H84 H 0.81656 0.31097 0.76454
 C85 C 0.83388 0.34235 0.69853
 H86 H 0.85717 0.36406 0.71432
 C87 C 0.77307 0.28644 0.66118
 H88 H 0.74887 0.26528 0.64678
 C89 C 0.79462 0.31669 0.63159
 H90 H 0.78715 0.31779 0.59450
 N91 N 0.78179 0.28435 0.70791
 C92 C 0.68979 0.31149 0.76863
 H93 H 0.68414 0.31052 0.73115
 C94 C 0.66666 0.34104 0.79742
 H95 H 0.64311 0.36263 0.78186
 C96 C 0.72810 0.28548 0.83424
 H97 H 0.75251 0.26442 0.84843
 C98 C 0.70634 0.31517 0.86407
 H99 H 0.71387 0.31599 0.90114
 Zn100 Zn 0.75067 0.24452 0.74761
 N101 N 0.71930 0.28376 0.78751
 C102 C 0.76385 0.17448 0.81383
 N103 N 0.78390 0.20448 0.78473
 C104 C 0.82507 0.20480 0.78278
 C105 C 0.84773 0.17539 0.81236
 C106 C 0.78512 0.14448 0.84391
 C107 C 0.67639 0.20434 0.71320
 C108 C 0.65368 0.17483 0.68391
 C109 C 0.71612 0.14523 0.65085
 C110 C 0.73755 0.17522 0.68068
 N111 N 0.71756 0.20461 0.71043
 H112 H 0.73106 0.17448 0.81415
 H113 H 0.84052 0.22785 0.75842
 H114 H 0.88048 0.17697 0.81027
 H115 H 0.76788 0.12164 0.86700
 H116 H 0.66102 0.22686 0.73805
 H117 H 0.62095 0.17548 0.68630
 H118 H 0.73283 0.12268 0.62704
 H119 H 0.77032 0.17565 0.67971
 C120 C 0.67497 0.34319 0.84580
 C121 C 0.82566 0.34490 0.65013
 C122 C 0.67356 0.14504 0.65186
 C123 C 0.82790 0.14479 0.84413
 C124 C 0.30964 0.77297 0.68538
 H125 H 0.31490 0.73531 0.68650
 C126 C 0.33274 0.80141 0.65546
 H127 H 0.35588 0.78541 0.63371
 C128 C 0.27232 0.83938 0.71148
 H129 H 0.24829 0.85400 0.73273
 C130 C 0.29409 0.86892 0.68147
 H131 H 0.28698 0.90621 0.68058
 N132 N 0.28069 0.79242 0.71334
 C133 C 0.17580 0.78749 0.79370
 H134 H 0.16027 0.76265 0.77132
 C135 C 0.15334 0.81682 0.82336
 H136 H 0.12060 0.81450 0.82297
 C137 C 0.23720 0.81986 0.82235
 H138 H 0.26997 0.82071 0.82167
 C139 C 0.21602 0.84975 0.85249
 H140 H 0.23288 0.87351 0.87492
 Zn141 Zn 0.24969 0.75286 0.75315
 N142 N 0.21696 0.79018 0.79313
 C143 C 0.26314 0.68652 0.82282
 N144 N 0.28304 0.71580 0.79282
 C145 C 0.32423 0.71808 0.79238
 C146 C 0.34703 0.68865 0.82175
 C147 C 0.28465 0.65662 0.85273
 C148 C 0.18858 0.73200 0.68682
 C149 C 0.16528 0.70320 0.65751
 C150 C 0.20491 0.63623 0.68314
 C151 C 0.22686 0.66609 0.71259
 N152 N 0.21814 0.71296 0.71431
 H153 H 0.23035 0.68597 0.82290
 H154 H 0.33953 0.74258 0.76935
 H155 H 0.37978 0.69057 0.82052
 H156 H 0.26801 0.63315 0.87576
 H157 H 0.18303 0.76960 0.68779
 H158 H 0.14168 0.71886 0.63610
 H159 H 0.21235 0.59903 0.68231
 H160 H 0.25133 0.65179 0.73344
 C161 C 0.17347 0.84882 0.85299
 C162 C 0.32496 0.85006 0.65325
 C163 C 0.17348 0.65465 0.65539
 C164 C 0.32721 0.65704 0.85215
 C165 C -0.04377 -0.02805 0.03196
 C166 C -0.02258 0.00279 0.00237
 C167 C -0.04373 0.03192 -0.02904
 C168 C -0.08627 0.03061 -0.03106
 C169 C -0.10721 -0.00045 -0.00101
 C170 C -0.08628 -0.03007 0.03050
 C171 C 0.02196 0.00315 0.00293
 C172 C 0.04335 -0.02660 -0.02749
 C173 C 0.08592 -0.02655 -0.02787
 C174 C 0.10670 0.00436 0.00234
 C175 C 0.08553 0.03410 0.03331
 C176 C 0.04298 0.03304 0.03362
 H177 H -0.02692 -0.05066 0.05573
 H178 H -0.02685 0.05530 -0.05199
 H179 H 0.02661 -0.04979 -0.05069
 H180 H 0.02613 0.05591 0.05705
 H181 H -0.13997 -0.00185 -0.00243
 H182 H 0.13952 0.00481 0.00239
 C183 C -0.04462 0.47254 0.53314
 C184 C -0.02357 0.50377 0.50373
 C185 C -0.04495 0.53350 0.47314
 C186 C -0.08740 0.53130 0.47071
 C187 C -0.10818 0.49897 0.49944
 C188 C -0.08709 0.46989 0.53122
 C189 C 0.02097 0.50403 0.50362
 C190 C 0.04213 0.47353 0.47361
 C191 C 0.08472 0.47293 0.47337
 C192 C 0.10572 0.50302 0.50420
 C193 C 0.08479 0.53403 0.53411
 C194 C 0.04226 0.53454 0.53338
 H195 H -0.02779 0.44973 0.55674
 H196 H -0.02836 0.55755 0.45058
 H197 H 0.02521 0.45042 0.45049
 H198 H 0.02562 0.55801 0.55643
 H199 H -0.14096 0.49732 0.49794
 H200 H 0.13854 0.50296 0.50446
 C201 C 0.45591 -0.03341 0.52727
 C202 C 0.47723 -0.00387 0.49647
 C203 C 0.45611 0.02731 0.46699
 C204 C 0.41365 0.03012 0.46910
 C205 C 0.39266 0.00123 0.50104
 C206 C 0.41347 -0.03104 0.52982
 C207 C 0.52177 -0.00421 0.49648
 C208 C 0.54299 -0.03449 0.46640
 C209 C 0.58552 -0.03402 0.46557
 C210 C 0.60652 -0.00328 0.49568
 C211 C 0.58559 0.02658 0.52681
 C212 C 0.54300 0.02602 0.52669
 H213 H 0.47251 -0.05743 0.54989
 H214 H 0.47287 0.04999 0.44322
 H215 H 0.52630 -0.05774 0.44319
 H216 H 0.52614 0.04895 0.55004
 H217 H 0.35989 0.00297 0.50263
 H218 H 0.63934 -0.00325 0.49532
 C219 C 0.45783 0.46796 0.02835
 C220 C 0.47895 0.49716 -0.00300
 C221 C 0.45773 0.52815 -0.03247
 C222 C 0.41523 0.53024 -0.03095
 C223 C 0.39435 0.50060 0.00051
 C224 C 0.41530 0.46940 0.03043
 C225 C 0.52349 0.49677 -0.00354
 C226 C 0.54453 0.46667 -0.03401
 C227 C 0.58708 0.46561 -0.03367
 C228 C 0.60824 0.49554 -0.00288
 C229 C 0.58743 0.52665 0.02711
 C230 C 0.54486 0.52672 0.02669
 H231 H 0.47472 0.44448 0.05122
 H232 H 0.47454 0.55081 -0.05619
 H233 H 0.52769 0.44365 -0.05729
 H234 H 0.52810 0.55007 0.04972
 H235 H 0.36159 0.50207 0.00196
 H236 H 0.64106 0.49508 -0.00290
 N237 N 0.10933 -0.11894 -0.11561
 C238 C 0.15049 -0.11886 -0.11595
 N239 N 0.17025 -0.08816 -0.08740
 N240 N 0.14977 -0.05886 -0.05963
 C241 C 0.10862 -0.05891 -0.05923
 N242 N 0.08883 -0.08961 -0.08782
 N243 N 0.16900 0.41337 0.41167
 C244 C 0.14929 0.38477 0.38100
 N245 N 0.10810 0.38508 0.38092
 N246 N 0.08757 0.41289 0.41024
 C247 C 0.10735 0.44151 0.44092
 N248 N 0.14850 0.44113 0.44094
 N249 N 0.66684 -0.08157 0.39031
 C250 C 0.65071 -0.12286 0.37512
 N251 N 0.61284 -0.13481 0.38958
 N252 N 0.59192 -0.10647 0.41801
 C253 C 0.60821 -0.06528 0.43341
 N254 N 0.64610 -0.05347 0.41903
 N255 N 0.66813 0.39004 -0.08180
 C256 C 0.65179 0.37496 -0.12295
 N257 N 0.61388 0.38963 -0.13462
 N258 N 0.59313 0.41811 -0.10615
 C259 C 0.60962 0.43339 -0.06511
 N260 N 0.64756 0.41882 -0.05359
 N261 N -0.17056 0.08765 -0.09535
 C262 C -0.15099 0.11680 -0.12587
 N263 N -0.10974 0.11728 -0.12494
 N264 N -0.08919 0.09006 -0.09498
 C265 C -0.10892 0.06108 -0.06455
 N266 N -0.15004 0.06046 -0.06547
 N267 N -0.16798 0.57815 0.39357
 C268 C -0.15198 0.61977 0.37888
 N269 N -0.11456 0.63218 0.39444
 N270 N -0.09392 0.60398 0.42337
 C271 C -0.11002 0.56245 0.43821
 N272 N -0.14750 0.55017 0.42280
 N273 N 0.33291 0.10763 0.42304
 C274 C 0.34852 0.12211 0.38126
 N275 N 0.38591 0.10656 0.36859
 N276 N 0.40684 0.07774 0.39665
 C277 C 0.39106 0.06302 0.43830
 N278 N 0.35366 0.07852 0.45087
 N279 N 0.33083 0.59457 -0.08759
 C280 C 0.35043 0.62443 -0.11722
 N281 N 0.39158 0.62320 -0.11846
 N282 N 0.41220 0.59335 -0.09118
 C283 C 0.39253 0.56347 -0.06155
 N284 N 0.35141 0.56479 -0.06035
 N285 N -0.17039 -0.09409 0.08794
 C286 C -0.15066 -0.12424 0.11730
 N287 N -0.10946 -0.12318 0.11796
 N288 N -0.08902 -0.09335 0.09055
 C289 C -0.10886 -0.06324 0.06127
 N290 N -0.14998 -0.06432 0.06055
 N291 N -0.11387 0.39276 0.63151
 C292 C -0.15135 0.37726 0.61919
 N293 N -0.16742 0.39213 0.57774
 N294 N -0.14701 0.42150 0.54990
 C295 C -0.10950 0.43691 0.56211
 N296 N -0.09329 0.42185 0.60344
 N297 N 0.38565 -0.13181 0.60581
 C298 C 0.34828 -0.11904 0.62128
 N299 N 0.33264 -0.07716 0.60679
 N300 N 0.35338 -0.04929 0.57777
 C301 C 0.39077 -0.06194 0.56239
 N302 N 0.40656 -0.10372 0.57708
 N303 N 0.33085 0.41320 0.09491
 C304 C 0.35040 0.38364 0.12493
 N305 N 0.39156 0.38233 0.12380
 N306 N 0.41223 0.40946 0.09390
 C307 C 0.39260 0.43901 0.06385
 N308 N 0.35148 0.44028 0.06508
 N309 N 0.11236 0.10957 0.13463
 C310 C 0.15029 0.12419 0.12307
 N311 N 0.16662 0.10925 0.08187
 N312 N 0.14602 0.08065 0.05351
 C313 C 0.10808 0.06613 0.06493
 N314 N 0.09159 0.08126 0.10602
 N315 N 0.11217 0.63524 0.60949
 C316 C 0.15011 0.62340 0.62390
 N317 N 0.16628 0.58205 0.60884
 N318 N 0.14551 0.55380 0.58032
 C319 C 0.10755 0.56551 0.56600
 N320 N 0.09123 0.60675 0.58125
 N321 N 0.67002 0.08564 0.58868
 C322 C 0.65038 0.11415 0.61951
 N323 N 0.60920 0.11392 0.61965
 N324 N 0.58859 0.08629 0.59024
 C325 C 0.60830 0.05776 0.55940
 N326 N 0.64945 0.05805 0.55932
 N327 N 0.67164 0.58864 0.08644
 C328 C 0.65182 0.61944 0.11484
 N329 N 0.61066 0.61948 0.11443
 N330 N 0.59023 0.59000 0.08674
 C331 C 0.61008 0.55919 0.05833
 N332 N 0.65123 0.55919 0.05877
   
