data_POSCAR
  _audit_creation_date              2014-09-24
  _audit_creation_method            'ToBaCCo'
  _symmetry_space_group_name_H-M    'P1'
  _symmetry_Int_Tables_number       1
  _symmetry_cell_setting            triclinic
  loop_
  _symmetry_equiv_pos_as_xyz
 x,y,z
_cell_length_a 27.6124
_cell_length_b 29.2430
_cell_length_c 33.5036
_cell_angle_alpha 89.761200
_cell_angle_beta 89.081800
_cell_angle_gamma 86.401800
loop_
  _atom_site_label
  _atom_site_type_symbol
  _atom_site_fract_x
  _atom_site_fract_y
  _atom_site_fract_z
N1 N 0.10559 1.20946 0.14357
 N2 N 0.08672 1.22146 0.17857
 C3 C 0.06261 1.26275 0.17537
 C4 C 0.06594 1.27694 0.13604
 C5 C 0.09307 1.24212 0.11656
 H6 H 0.04409 1.28100 0.19976
 H7 H 0.10464 1.24139 0.08555
 Cu8 Cu 0.09495 1.18128 0.22460
 Cu9 Cu 0.14895 1.15441 0.13720
 Cu10 Cu 0.20146 1.12083 0.22704
 N11 N 0.11145 1.14056 0.26895
 N12 N 0.15499 1.11990 0.27145
 C13 C 0.15771 1.09525 0.30546
 C14 C 0.11276 1.09929 0.32434
 C15 C 0.08421 1.12837 0.30043
 H16 H 0.18883 1.07335 0.31416
 H17 H 0.04646 1.13942 0.30528
 N18 N 0.23066 1.10470 0.17454
 N19 N 0.20939 1.11517 0.14038
 C20 C 0.23671 1.09663 0.11020
 C21 C 0.27694 1.07336 0.12633
 C22 C 0.27202 1.07919 0.16709
 H23 H 0.22824 1.10031 0.07890
 H24 H 0.29636 1.06528 0.18969
 H25 H 0.14261 1.11893 0.19165
 H26 H 0.17362 1.17379 0.19011
 N27 N 0.90768 0.78988 0.12995
 N28 N 0.92704 0.78247 0.16519
 C29 C 0.95757 0.74481 0.16354
 C30 C 0.95783 0.72809 0.12506
 C31 C 0.92610 0.75764 0.10436
 H32 H 0.97715 0.73004 0.18868
 H33 H 0.91505 0.75439 0.07372
 Cu34 Cu 0.90902 0.82151 0.21043
 Cu35 Cu 0.85511 0.83707 0.12228
 Cu36 Cu 0.79282 0.85993 0.21153
 N37 N 0.88189 0.85875 0.25413
 N38 N 0.83528 0.87100 0.25602
 C39 C 0.82541 0.89403 0.29024
 C40 C 0.86856 0.89754 0.31009
 C41 C 0.90370 0.87475 0.28636
 H42 H 0.79001 0.90906 0.29892
 H43 H 0.94213 0.86998 0.29212
 N44 N 0.76350 0.86946 0.15865
 N45 N 0.78819 0.86460 0.12467
 C46 C 0.75913 0.87815 0.09429
 C47 C 0.71398 0.89163 0.11017
 C48 C 0.71797 0.88555 0.15087
 H49 H 0.76969 0.87716 0.06306
 H50 H 0.69011 0.89350 0.17328
 H51 H 0.85065 0.87363 0.17652
 H52 H 0.83310 0.81310 0.17546
 N53 N 0.85873 1.26294 -0.13405
 N54 N 0.88425 1.26621 -0.16728
 C55 C 0.91811 1.29673 -0.16224
 C56 C 0.91381 1.31295 -0.12361
 C57 C 0.87575 1.29093 -0.10648
 H58 H 0.94455 1.30564 -0.18467
 H59 H 0.86145 1.29495 -0.07636
 Cu60 Cu 0.87236 1.22864 -0.21337
 Cu61 Cu 0.80526 1.22270 -0.13022
 Cu62 Cu 0.82841 1.12690 -0.18933
 N63 N 0.87356 1.17877 -0.25122
 N64 N 0.85942 1.13811 -0.24109
 C65 C 0.86993 1.10875 -0.27134
 C66 C 0.89096 1.13275 -0.30216
 C67 C 0.89233 1.17712 -0.28850
 H68 H 0.86278 1.07280 -0.27088
 H69 H 0.90802 1.20548 -0.30373
 N70 N 0.78130 1.12903 -0.14382
 N71 N 0.77078 1.16679 -0.12311
 C72 C 0.73253 1.16066 -0.09890
 C73 C 0.71858 1.11668 -0.10400
 C74 C 0.75025 1.09730 -0.13256
 H75 H 0.71502 1.18681 -0.07994
 H76 H 0.74826 1.06412 -0.14638
 H77 H 0.85530 1.17923 -0.15663
 H78 H 0.80076 1.19305 -0.18785
 N79 N 0.15235 0.76073 -0.14602
 N80 N 0.14074 0.74194 -0.17988
 C81 C 0.12369 0.70064 -0.17243
 C82 C 0.12405 0.69348 -0.13170
 C83 C 0.14245 0.73220 -0.11573
 H84 H 0.10975 0.67853 -0.19476
 H85 H 0.14748 0.73943 -0.08448
 Cu86 Cu 0.14233 0.77516 -0.22995
 Cu87 Cu 0.17786 0.82136 -0.14393
 Cu88 Cu 0.19510 0.87486 -0.23462
 N89 N 0.12654 0.81972 -0.27166
 N90 N 0.14527 0.85996 -0.27217
 C91 C 0.12440 0.88588 -0.30121
 C92 C 0.09109 0.86017 -0.32002
 C93 C 0.09374 0.81819 -0.30085
 H94 H 0.13257 0.92085 -0.30778
 H95 H 0.07169 0.78960 -0.30625
 N96 N 0.22622 0.89377 -0.18572
 N97 N 0.21820 0.87455 -0.15070
 C98 C 0.24570 0.89371 -0.12327
 C99 C 0.27243 0.92615 -0.14215
 C100 C 0.25919 0.92535 -0.18169
 H101 H 0.24814 0.88307 -0.09237
 H102 H 0.27351 0.94530 -0.20591
 H103 H 0.14784 0.84803 -0.19591
 H104 H 0.20771 0.81446 -0.19981
 C105 C 0.43962 0.98849 -0.05083
 C106 C 0.46623 0.99472 -0.01617
 C107 C 0.44151 1.00403 0.02006
 C108 C 0.39070 1.00750 0.02204
 C109 C 0.36441 0.99966 -0.01254
 C110 C 0.38867 0.98971 -0.04898
 C111 C 0.51988 0.99141 -0.01705
 C112 C 0.54575 1.01971 -0.04227
 C113 C 0.59640 1.02079 -0.03948
 C114 C 0.62136 0.99203 -0.01179
 C115 C 0.59561 0.96377 0.01401
 C116 C 0.54505 0.96343 0.01068
 H117 H 0.45852 0.98078 -0.07882
 H118 H 0.46201 1.00984 0.04668
 H119 H 0.52623 1.04281 -0.06262
 H120 H 0.52482 0.94230 0.03076
 H121 H 0.32516 1.00116 -0.01117
 H122 H 0.65998 0.99450 -0.00824
 C123 C 0.00478 0.45431 0.97469
 C124 C 0.02086 0.47513 1.00946
 C125 C 0.02726 0.44840 1.04424
 C126 C 0.01903 0.40150 1.04392
 C127 C 0.00303 0.38148 1.00893
 C128 C -0.00442 0.40780 0.97429
 C129 C 0.03092 0.52458 1.00886
 C130 C 0.01897 0.55296 1.04181
 C131 C 0.02506 0.60021 1.03974
 C132 C 0.04408 0.61912 1.00473
 C133 C 0.05746 0.59115 0.97191
 C134 C 0.05092 0.54405 0.97438
 H135 H -0.00188 0.47446 0.94792
 H136 H 0.04035 0.46344 1.07119
 H137 H 0.00288 0.53889 1.06848
 H138 H 0.06169 0.52246 0.94919
 H139 H -0.00342 0.34535 1.00867
 H140 H 0.04811 0.65563 1.00321
 C141 C 0.93927 -0.02284 0.45981
 C142 C 0.97420 -0.00273 0.48287
 C143 C 1.01246 0.01882 0.46405
 C144 C 1.01545 0.02102 0.42236
 C145 C 0.98073 0.00056 0.39955
 C146 C 0.94291 -0.02184 0.41802
 C147 C 0.97185 -0.00518 0.52667
 C148 C 0.99043 -0.04472 0.54641
 C149 C 0.99268 -0.04550 0.58812
 C150 C 0.97406 -0.00755 0.61009
 C151 C 0.95423 0.03171 0.59071
 C152 C 0.95415 0.03308 0.54884
 H153 H 0.91010 -0.04008 0.47427
 H154 H 1.03971 0.03401 0.48177
 H155 H 1.00529 -0.07389 0.52938
 H156 H 0.94022 0.06376 0.53356
 H157 H 0.98354 0.00160 0.36728
 H158 H 0.97610 -0.00833 0.64234
 N159 N 0.01510 0.38682 1.11574
 N160 N 0.02666 0.35339 1.14140
 C161 C 0.04748 0.31829 1.11991
 C162 C 0.04810 0.33108 1.08026
 N163 N 0.02753 0.37397 1.07894
 H164 H 0.06223 0.31139 1.05488
 N165 N 0.01725 0.61749 1.11088
 N166 N 0.00035 0.65120 1.13458
 C167 C -0.01748 0.68523 1.11066
 C168 C -0.01088 0.67150 1.07157
 N169 N 0.01098 0.62910 1.07298
 H170 H -0.02169 0.69008 1.04481
 N171 N -0.00679 0.39922 0.90195
 N172 N -0.02766 0.37435 0.87492
 C173 C -0.05607 0.34610 0.89515
 C174 C -0.05181 0.35410 0.93540
 N175 N -0.02065 0.38743 0.93839
 H176 H -0.06979 0.33761 0.95999
 N177 N 0.07469 0.58973 0.90026
 N178 N 0.09211 0.61594 0.87180
 C179 C 0.10501 0.65441 0.88967
 C180 C 0.09489 0.65113 0.92996
 N181 N 0.07579 0.61022 0.93541
 H182 H 0.10045 0.67625 0.95277
 N183 N 1.10116 0.03055 0.40893
 N184 N 1.12870 0.05041 0.38201
 C185 C 1.09837 0.07567 0.35822
 C186 C 1.05144 0.07076 0.37134
 N187 N 1.05476 0.04225 0.40288
 H188 H 1.01804 0.08427 0.35800
 N189 N 1.00462 -0.12668 0.60513
 N190 N 1.03033 -0.15315 0.63033
 C191 C 1.05942 -0.12561 0.64984
 C192 C 1.05072 -0.08152 0.63600
 N193 N 1.01628 -0.08365 0.60834
 H194 H 1.06663 -0.05065 0.64579
 N195 N 0.86116 -0.03931 0.39856
 N196 N 0.83978 -0.06017 0.36913
 C197 C 0.87559 -0.07894 0.34538
 C198 C 0.91948 -0.06898 0.36107
 N199 N 0.90893 -0.04409 0.39405
 H200 H 0.95554 -0.07755 0.34907
 N201 N 0.94259 0.11388 0.60309
 N202 N 0.92646 0.14214 0.63186
 C203 C 0.90936 0.11591 0.66148
 C204 C 0.91546 0.07069 0.65004
 N205 N 0.93655 0.07086 0.61354
 H206 H 0.90673 0.04058 0.66695
 N207 N 0.38608 1.01196 0.09470
 N208 N 0.35679 1.02915 0.12330
 C209 C 0.31723 1.04826 0.10520
 C210 C 0.32294 1.04203 0.06457
 N211 N 0.36644 1.01919 0.05923
 H212 H 0.29879 1.05441 0.04124
 N213 N 0.60083 1.09798 -0.06548
 N214 N 0.63253 1.12476 -0.08191
 C215 C 0.67397 1.09868 -0.08768
 C216 C 0.66692 1.05490 -0.07406
 N217 N 0.62066 1.05599 -0.06036
 H218 H 0.69304 1.02574 -0.07311
 N219 N 0.37454 0.99019 -0.12082
 N220 N 0.34390 0.97410 -0.14656
 C221 C 0.31078 0.95220 -0.12495
 C222 C 0.32184 0.95555 -0.08515
 N223 N 0.36178 0.97956 -0.08382
 H224 H 0.30374 0.94061 -0.05981
 N225 N 0.59518 0.92832 0.07973
 N226 N 0.62540 0.90946 0.10618
 C227 C 0.67004 0.90853 0.08936
 C228 C 0.66636 0.92757 0.05161
 N229 N 0.61884 0.93963 0.04678
 H230 H 0.69538 0.93288 0.03032
   
