data_POSCAR
  _audit_creation_date              2014-09-24
  _audit_creation_method            'ToBaCCo'
  _symmetry_space_group_name_H-M    'P1'
  _symmetry_Int_Tables_number       1
  _symmetry_cell_setting            triclinic
  loop_
  _symmetry_equiv_pos_as_xyz
 x,y,z
_cell_length_a 22.9791
_cell_length_b 33.8047
_cell_length_c 31.3908
_cell_angle_alpha 83.060900
_cell_angle_beta 82.922500
_cell_angle_gamma 148.446500
loop_
  _atom_site_label
  _atom_site_type_symbol
  _atom_site_fract_x
  _atom_site_fract_y
  _atom_site_fract_z
C1 C 0.17165 0.14846 0.20021
 C2 C 0.15261 0.12109 0.18660
 C3 C 0.18776 0.14872 0.13598
 C4 C 0.18204 0.18361 0.13038
 C5 C 0.15090 0.20103 0.14845
 C6 C 0.14530 0.21058 0.17260
 H7 H 0.19452 0.10263 0.19760
 H8 H 0.19479 0.19472 0.10806
 H9 H 0.10898 0.19850 0.19703
 C10 C -0.15004 0.84882 0.19976
 C11 C -0.13443 0.81743 0.18494
 C12 C -0.15463 0.80405 0.14948
 C13 C -0.18270 0.81681 0.13360
 C14 C -0.18597 0.84470 0.15371
 C15 C -0.18072 0.86214 0.18199
 H16 H -0.11065 0.80569 0.19682
 H17 H -0.19518 0.80537 0.10929
 H18 H -0.19666 0.88600 0.18732
 C19 C -0.14945 0.14906 -0.21484
 C20 C -0.12398 0.19731 -0.22580
 C21 C -0.12262 0.24417 -0.16038
 C22 C -0.15435 0.18398 -0.14931
 C23 C -0.19714 0.14677 -0.15698
 C24 C -0.19380 0.12323 -0.19691
 H25 H -0.10607 0.22034 -0.21186
 H26 H -0.21528 0.19399 -0.08691
 H27 H -0.20097 0.10217 -0.18800
 C28 C 0.14553 0.85434 -0.20653
 C29 C 0.13065 0.80817 -0.20591
 C30 C 0.16097 0.77395 -0.17028
 C31 C 0.21805 0.79541 -0.08164
 C32 C 0.17586 0.86783 -0.12975
 C33 C 0.16604 0.88769 -0.18852
 H34 H 0.10828 0.80027 -0.20101
 H35 H 0.20149 0.79944 -0.10041
 H36 H 0.19342 0.89856 -0.19343
 C37 C 0.15051 1.15080 0.80097
 C38 C 0.13586 1.18269 0.82076
 C39 C 0.15315 1.19729 0.84438
 C40 C 0.18210 1.18450 0.86716
 C41 C 0.17330 1.14765 0.86675
 C42 C 0.17393 1.13720 0.81155
 H43 H 0.11207 1.19838 0.81305
 H44 H 0.19503 1.19500 0.89077
 H45 H 0.19381 1.11008 0.80308
 C46 C 0.84831 0.85066 0.79877
 C47 C 0.86361 0.81804 0.82720
 C48 C 0.84446 0.80522 0.85077
 C49 C 0.81784 0.81704 0.86997
 C50 C 0.80725 0.85149 0.84045
 C51 C 0.81851 0.86357 0.81707
 H52 H 0.88512 0.80360 0.81317
 H53 H 0.80515 0.80560 0.89248
 H54 H 0.80676 0.88659 0.80311
 C55 C 0.13296 0.85677 1.21786
 C56 C 0.14857 0.89034 1.18056
 C57 C 0.16628 0.85830 1.13225
 C58 C 0.17678 0.78921 1.17108
 C59 C 0.09716 0.71481 1.16099
 C60 C 0.11172 0.80850 1.20318
 H61 H 0.17479 0.91972 1.19198
 H62 H 0.21729 0.77195 1.10747
 H63 H 0.10369 0.78995 1.19975
 C64 C 0.84833 1.14945 1.20419
 C65 C 0.86772 1.19628 1.19852
 C66 C 0.84986 1.21817 1.16719
 C67 C 0.81285 1.18269 1.17067
 C68 C 0.79572 1.13667 1.15464
 C69 C 0.81780 1.12230 1.18492
 H70 H 0.89179 1.20282 1.20336
 H71 H 0.81378 1.22071 1.08138
 H72 H 0.80555 1.10174 1.19018
 O73 O 0.53211 0.95186 0.93010
 O74 O 0.47509 0.94385 1.08772
 O75 O 0.55619 0.95206 1.04165
 O76 O 0.41982 0.98189 0.99685
 O77 O 0.52075 0.93311 1.08480
 O78 O 0.48123 0.95287 0.93860
 O79 O 0.42697 0.98730 1.03765
 O80 O 0.53807 0.92886 0.95885
 C81 C 0.55660 0.92779 0.95044
 C82 C 0.43667 0.93778 1.08646
 C83 C 0.54977 0.92983 1.05522
 C84 C 0.42696 0.93288 0.95071
 O85 O 0.46072 1.03591 0.92267
 O86 O 0.55010 1.02906 1.03002
 O87 O 0.55976 1.03269 0.97431
 O88 O 0.42084 1.04128 1.04880
 O89 O 0.44185 1.05169 1.04344
 O90 O 0.52600 1.04045 0.90981
 O91 O 0.43917 1.03333 0.92915
 O92 O 0.56409 1.03285 1.02356
 Co93 Co 0.34833 0.86691 0.98217
 Co94 Co 0.35165 0.88066 1.14239
 Co95 Co 0.40690 0.87042 1.07373
 Co96 Co 0.28173 0.93244 1.04429
 O97 O 0.48452 0.99188 1.01196
 C98 C 0.43851 1.04666 0.94018
 C99 C 0.59301 1.03240 1.02627
 C100 C 0.54177 1.04120 0.94961
 C101 C 0.43845 1.05552 1.06583
 O102 O 0.04666 0.47743 0.08240
 O103 O 0.02960 0.53010 -0.08969
 O104 O 0.02930 0.44910 -0.02643
 O105 O 0.03039 0.57409 0.01401
 O106 O 0.06857 0.47882 -0.09080
 O107 O 0.01887 0.52092 0.05332
 O108 O 0.01908 0.57522 -0.01872
 O109 O 0.05352 0.45559 0.00861
 C110 C 0.06696 0.44017 0.06146
 C111 C 0.02873 0.55149 -0.06474
 C112 C 0.08191 0.45459 -0.05301
 C113 C 0.06434 0.57116 0.03067
 O114 O -0.07426 0.53486 0.07979
 O115 O -0.03309 0.47005 -0.08176
 O116 O -0.03839 0.42162 0.01541
 O117 O -0.05651 0.55546 -0.02543
 O118 O -0.04441 0.52663 -0.11607
 O119 O -0.03777 0.46835 0.06458
 O120 O -0.03779 0.56208 0.01598
 O121 O -0.04477 0.43121 -0.02602
 Co122 Co -0.12090 0.46222 -0.05977
 Co123 Co -0.10228 0.43831 -0.17356
 Co124 Co -0.14302 0.38951 -0.08662
 Co125 Co -0.12360 0.51995 -0.08713
 O126 O -0.01268 0.48246 -0.02102
 C127 C -0.07673 0.55777 0.05347
 C128 C -0.07291 0.42394 -0.05749
 C129 C -0.05903 0.42869 0.04838
 C130 C -0.06909 0.54782 -0.06345
 O131 O 1.06836 0.03537 0.46495
 O132 O 0.92105 0.03431 0.54667
 O133 O 0.95105 0.03496 0.43424
 O134 O 1.04996 0.02371 0.55869
 O135 O 0.94071 0.02526 0.44451
 O136 O 1.07107 0.02856 0.52448
 O137 O 0.95591 0.03661 0.57096
 O138 O 1.06297 0.03378 0.45937
 C139 C 1.06231 0.05756 0.44491
 C140 C 0.94099 0.05123 0.56549
 C141 C 0.93596 0.04480 0.44493
 C142 C 1.05239 0.04664 0.58973
 O143 O 1.06978 -0.03033 0.53811
 O144 O 0.89428 -0.04076 0.48150
 O145 O 1.03576 -0.03953 0.43117
 O146 O 0.95812 -0.04265 0.57835
 O147 O 0.92262 -0.04261 0.53676
 O148 O 1.07358 -0.04358 0.46784
 O149 O 1.03483 -0.04442 0.55989
 O150 O 0.97114 -0.04701 0.43180
 Co151 Co 0.89883 -0.12137 0.57567
 Co152 Co 0.79249 -0.09230 0.56684
 Co153 Co 0.85633 -0.11137 0.50244
 Co154 Co 0.82550 -0.11223 0.62655
 O155 O 0.98516 -0.01652 0.50923
 C156 C 1.06330 -0.04593 0.55747
 C157 C 0.92622 -0.05648 0.44626
 C158 C 1.06029 -0.04796 0.43749
 C159 C 0.90585 -0.04408 0.56679
 C160 C 1.17176 0.11106 0.27445
 C161 C 1.10133 0.10273 0.28112
 C162 C 1.05903 0.12152 0.25018
 C163 C 1.09073 0.13105 0.23204
 C164 C 1.14390 0.13235 0.21066
 C165 C 1.17515 0.11128 0.24794
 O166 O 1.15160 0.08997 0.32393
 C167 C 1.13126 0.11412 0.31615
 C168 C 1.07860 0.08446 0.30411
 C169 C 1.01875 0.05525 0.30807
 C170 C 1.02784 0.04075 0.39028
 C171 C 1.08550 0.08060 0.39909
 C172 C 1.09614 0.07194 0.38553
 H173 H 1.03430 0.11511 0.24985
 H174 H 1.05678 0.11193 0.19924
 H175 H 1.20478 0.11557 0.26535
 H176 H 0.99467 0.06433 0.32271
 H177 H 1.01911 0.01595 0.35610
 H178 H 1.12510 0.05537 0.38879
 C179 C 0.90569 -0.12328 0.28547
 C180 C 0.88621 -0.09118 0.29296
 C181 C 0.85586 -0.07937 0.27051
 C182 C 0.84646 -0.10108 0.24226
 C183 C 0.86477 -0.13389 0.23085
 C184 C 0.89556 -0.14610 0.25399
 O185 O 0.93230 -0.12692 0.31258
 C186 C 0.92914 -0.09692 0.33413
 C187 C 0.90250 -0.07601 0.32468
 C188 C 0.88446 -0.05545 0.35100
 C189 C 0.89360 -0.03264 0.37448
 C190 C 0.94304 -0.06695 0.39540
 C191 C 0.93045 -0.08887 0.37205
 H192 H 0.84113 -0.05479 0.27626
 H193 H 0.82470 -0.08798 0.23127
 H194 H 0.91007 -0.17057 0.24797
 H195 H 0.86830 -0.02485 0.33595
 H196 H 0.90327 -0.01314 0.38503
 H197 H 0.95377 -0.11262 0.38044
 C198 C 0.87121 0.10714 0.70547
 C199 C 0.91235 0.10440 0.71432
 C200 C 0.92926 0.11659 0.75115
 C201 C 0.90905 0.12856 0.77249
 C202 C 0.87154 0.13567 0.75179
 C203 C 0.84316 0.12445 0.72889
 O204 O 0.86087 0.09494 0.67154
 C205 C 0.87065 0.06898 0.67186
 C206 C 0.91869 0.08750 0.69689
 C207 C 0.92265 0.05889 0.67892
 C208 C 0.95608 0.06107 0.62737
 C209 C 0.94130 0.05758 0.60503
 C210 C 0.90217 0.05932 0.61397
 H211 H 0.95279 0.11937 0.75705
 H212 H 0.92331 0.13729 0.80089
 H213 H 0.81757 0.12403 0.73008
 H214 H 0.96012 0.07709 0.67396
 H215 H 0.97612 0.05802 0.63708
 H216 H 0.88131 0.06103 0.60200
 C217 C 1.10590 -0.08977 0.72581
 C218 C 1.10510 -0.11771 0.69834
 C219 C 1.11823 -0.15324 0.70473
 C220 C 1.13124 -0.15997 0.73461
 C221 C 1.13190 -0.13307 0.76276
 C222 C 1.12000 -0.09736 0.76083
 O223 O 1.09335 -0.05863 0.71416
 C224 C 1.08688 -0.06451 0.67882
 C225 C 1.09166 -0.10468 0.66886
 C226 C 1.08400 -0.11999 0.63337
 C227 C 1.07191 -0.11180 0.62957
 C228 C 1.09960 -0.04184 0.62823
 C229 C 1.08276 -0.04705 0.66596
 H230 H 1.11792 -0.17450 0.68433
 H231 H 1.14391 -0.19111 0.73925
 H232 H 1.12165 -0.07761 0.78345
 H233 H 1.08805 -0.14479 0.62417
 H234 H 1.05633 -0.12537 0.59027
 H235 H 1.06679 -0.03135 0.68119
 C236 C 0.26789 1.09478 1.09321
 C237 C 0.30119 1.11474 1.11263
 C238 C 0.30814 1.14513 1.14903
 C239 C 0.27444 1.15150 1.13462
 C240 C 0.22508 1.13687 1.12709
 C241 C 0.22593 1.10227 1.09470
 O242 O 0.27515 1.07087 1.06861
 C243 C 0.30869 1.07422 1.05919
 C244 C 0.33462 1.09838 1.09380
 C245 C 0.38175 1.10351 1.10480
 C246 C 0.40303 1.09634 1.08410
 C247 C 0.39069 1.05779 1.05915
 C248 C 0.33918 1.05395 1.04220
 H249 H 0.32680 1.15812 1.15010
 H250 H 0.29827 1.18992 1.17103
 H251 H 0.20428 1.09213 1.09219
 H252 H 0.39465 1.12294 1.12219
 H253 H 0.42851 1.09759 1.07730
 H254 H 0.33808 1.02713 1.03192
 C255 C 0.24862 0.89658 0.92241
 C256 C 0.29401 0.89992 0.89173
 C257 C 0.31720 0.89141 0.82326
 C258 C 0.28807 0.90669 0.80613
 C259 C 0.21580 0.88431 0.85348
 C260 C 0.19501 0.88101 0.89562
 O261 O 0.27667 0.90317 0.94417
 C262 C 0.31273 0.91585 0.95141
 C263 C 0.33829 0.92018 0.89711
 C264 C 0.39247 0.92470 0.87180
 C265 C 0.42341 0.93653 0.89100
 C266 C 0.40080 0.93345 0.94347
 C267 C 0.34801 0.92053 0.95515
 H268 H 0.31838 0.89849 0.82793
 H269 H 0.26025 0.85944 0.78011
 H270 H 0.19680 0.88164 0.92401
 H271 H 0.40342 0.92106 0.85299
 H272 H 0.45197 0.94541 0.88996
 H273 H 0.32131 0.90902 0.98276
 C274 C 0.68150 0.87458 1.12903
 C275 C 0.71694 0.90785 1.09558
 C276 C 0.78843 0.92554 1.08789
 C277 C 0.80751 0.89500 1.10363
 C278 C 0.77270 0.86177 1.13395
 C279 C 0.71475 0.84103 1.15150
 O280 O 0.63220 0.86628 1.12021
 C281 C 0.64924 0.89881 1.09557
 C282 C 0.68484 0.92642 1.07348
 C283 C 0.69660 0.97526 1.02900
 C284 C 0.64870 0.95680 1.03059
 C285 C 0.60029 0.93999 1.05509
 C286 C 0.59830 0.88948 1.10396
 H287 H 0.78567 0.94134 1.06975
 H288 H 0.82166 0.92162 1.09626
 H289 H 0.70250 0.83046 1.16255
 H290 H 0.71434 0.97199 1.04484
 H291 H 0.66226 0.97140 1.00830
 H292 H 0.57485 0.89937 1.09332
 C293 C 0.69609 1.12902 0.88216
 C294 C 0.71309 1.07782 0.91003
 C295 C 0.76327 1.06890 0.87950
 C296 C 0.79077 1.08627 0.87304
 C297 C 0.73464 1.11317 0.84062
 C298 C 0.70088 1.16374 0.84904
 O299 O 0.67345 1.13440 0.89792
 C300 C 0.68343 1.09951 0.91093
 C301 C 0.68402 1.06632 0.91587
 C302 C 0.67136 1.04343 0.95449
 C303 C 0.66078 1.02465 0.97679
 C304 C 0.60281 1.06116 0.95702
 C305 C 0.61411 1.11590 0.94208
 H306 H 0.76194 1.04091 0.91097
 H307 H 0.81157 1.09013 0.85561
 H308 H 0.72535 1.19063 0.84732
 H309 H 0.70534 1.03381 0.95232
 H310 H 0.66421 1.03487 0.99048
 H311 H 0.59130 1.12472 0.93895
 C312 C 0.12070 0.29820 0.12025
 C313 C 0.09290 0.28389 0.09390
 C314 C 0.08453 0.24422 0.08556
 C315 C 0.10539 0.21831 0.10678
 C316 C 0.13412 0.23108 0.13292
 C317 C 0.14136 0.27345 0.14259
 O318 O 0.12328 0.33693 0.12244
 C319 C 0.09850 0.34644 0.10170
 C320 C 0.08101 0.31330 0.08014
 C321 C 0.07043 0.31188 0.04571
 C322 C 0.07627 0.35621 0.04125
 C323 C 0.07280 0.38638 0.06224
 C324 C 0.08726 0.38546 0.08798
 H325 H 0.06352 0.23614 0.06941
 H326 H 0.09916 0.18977 0.10259
 H327 H 0.16268 0.28112 0.15964
 H328 H 0.04157 0.29094 0.03516
 H329 H 0.05365 0.35915 0.02993
 H330 H 0.09899 0.40901 0.09527
 C331 C -0.12082 0.29701 -0.12121
 C332 C -0.09296 0.28943 -0.09219
 C333 C -0.08419 0.25179 -0.08862
 C334 C -0.08173 0.21867 -0.09487
 C335 C -0.11792 0.24658 -0.15176
 C336 C -0.14042 0.27271 -0.14291
 O337 O -0.12070 0.33216 -0.12616
 C338 C -0.09549 0.34496 -0.10438
 C339 C -0.07902 0.30809 -0.08481
 C340 C -0.07284 0.32324 -0.05953
 C341 C -0.07693 0.35000 -0.04417
 C342 C -0.06904 0.37485 -0.07712
 C343 C -0.08155 0.37755 -0.10278
 H344 H -0.06933 0.23755 -0.06785
 H345 H -0.10108 0.18773 -0.10256
 H346 H -0.16226 0.28119 -0.16172
 H347 H -0.06039 0.29478 -0.04224
 H348 H -0.04072 0.35220 -0.03225
 H349 H -0.09177 0.39658 -0.12043
 C350 C 0.13544 0.70329 -0.12195
 C351 C 0.09713 0.69710 -0.09423
 C352 C 0.07128 0.75123 -0.09355
 C353 C 0.05751 0.76495 -0.13795
 C354 C 0.13281 0.77337 -0.16058
 C355 C 0.15809 0.74016 -0.15311
 O356 O 0.13911 0.66892 -0.10915
 C357 C 0.10859 0.65342 -0.09188
 C358 C 0.08022 0.67226 -0.06880
 C359 C 0.05065 0.69128 -0.03366
 C360 C 0.04677 0.65772 -0.02444
 C361 C 0.08625 0.60280 -0.05109
 C362 C 0.10610 0.62536 -0.08998
 H363 H 0.05112 0.75261 -0.09542
 H364 H 0.05984 0.82610 -0.13056
 H365 H 0.18131 0.73207 -0.14938
 H366 H 0.02006 0.70153 -0.03477
 H367 H 0.00594 0.64532 -0.01415
 H368 H 0.15186 0.62762 -0.05097
 C369 C -0.13038 0.70995 0.09729
 C370 C -0.08820 0.71208 0.10791
 C371 C -0.06455 0.73922 0.13339
 C372 C -0.09173 0.76950 0.14407
 C373 C -0.13591 0.77104 0.13431
 C374 C -0.15892 0.74187 0.10830
 O375 O -0.13867 0.67748 0.07876
 C376 C -0.10755 0.66221 0.06983
 C377 C -0.07395 0.68213 0.09157
 C378 C -0.05262 0.67449 0.09740
 C379 C -0.06238 0.62949 0.08976
 C380 C -0.07548 0.59523 0.07248
 C381 C -0.10078 0.62090 0.04689
 H382 H -0.03983 0.74314 0.13426
 H383 H -0.07686 0.78913 0.15526
 H384 H -0.18372 0.73872 0.10843
 H385 H -0.04076 0.68711 0.11312
 H386 H -0.03896 0.61749 0.10147
 H387 H -0.11715 0.60595 0.04165
 C388 C 1.12712 0.08738 0.71636
 C389 C 1.12349 0.10330 0.70339
 C390 C 1.10680 0.17620 0.75151
 C391 C 1.10443 0.15211 0.75784
 C392 C 1.13428 0.13518 0.76901
 C393 C 1.14536 0.10341 0.74750
 O394 O 1.12808 0.06358 0.69160
 C395 C 1.09778 0.06888 0.66827
 C396 C 1.08047 0.09315 0.68008
 C397 C 1.09396 0.11330 0.66767
 C398 C 1.01194 0.08091 0.71035
 C399 C 1.08896 0.08642 0.61568
 C400 C 1.10906 0.06178 0.64218
 H401 H 1.06564 0.17211 0.71983
 H402 H 1.09211 0.17609 0.76649
 H403 H 1.16938 0.08755 0.75447
 H404 H 1.05067 0.16488 0.65008
 H405 H 0.99911 0.15034 0.61708
 H406 H 1.13680 0.04224 0.63106
 C407 C 0.87628 -0.09485 0.71561
 C408 C 0.90787 -0.11385 0.70318
 C409 C 0.91827 -0.14325 0.72962
 C410 C 0.89789 -0.15184 0.75382
 C411 C 0.86599 -0.13562 0.77262
 C412 C 0.85322 -0.10466 0.74485
 O413 O 0.87053 -0.06567 0.68984
 C414 C 0.89946 -0.06594 0.66786
 C415 C 0.92459 -0.09945 0.68344
 C416 C 0.94117 -0.10671 0.65042
 C417 C 0.94643 -0.09043 0.62935
 C418 C 0.95379 -0.05832 0.62084
 C419 C 0.90987 -0.03953 0.64902
 H420 H 0.94637 -0.16360 0.71733
 H421 H 0.90836 -0.17022 0.76315
 H422 H 0.82770 -0.08944 0.75087
 H423 H 0.96604 -0.13766 0.66066
 H424 H 0.96781 -0.11062 0.61547
 H425 H 0.89421 -0.02932 0.62528
 C426 C 1.10513 -0.08836 0.27495
 C427 C 1.10430 -0.11591 0.30448
 C428 C 1.11873 -0.15322 0.29675
 C429 C 1.13398 -0.16196 0.26528
 C430 C 1.12907 -0.13748 0.24949
 C431 C 1.11833 -0.09370 0.24498
 O432 O 1.09142 -0.05774 0.28603
 C433 C 1.08204 -0.06620 0.32359
 C434 C 1.08867 -0.10108 0.33409
 C435 C 1.08124 -0.11627 0.37069
 C436 C 1.06587 -0.09473 0.39893
 C437 C 1.06496 -0.05679 0.40089
 C438 C 1.08985 -0.03684 0.34293
 H439 H 1.11841 -0.17492 0.31652
 H440 H 1.14422 -0.18983 0.25910
 H441 H 1.11980 -0.07498 0.21730
 H442 H 1.08773 -0.14423 0.37656
 H443 H 1.06003 -0.10712 0.42435
 H444 H 1.07114 -0.01539 0.34252
 C445 C 0.86865 0.10878 0.29628
 C446 C 0.91149 0.10616 0.28589
 C447 C 0.93635 0.11496 0.24973
 C448 C 0.90933 0.13106 0.22290
 C449 C 0.86676 0.13427 0.23508
 C450 C 0.83968 0.12644 0.26712
 O451 O 0.85642 0.09634 0.32845
 C452 C 0.88089 0.08544 0.33253
 C453 C 0.92454 0.09293 0.31482
 C454 C 0.95089 0.09333 0.31446
 C455 C 0.97162 0.12089 0.37247
 C456 C 0.93770 0.06369 0.40227
 C457 C 0.88866 0.07407 0.38223
 H458 H 0.96055 0.11934 0.24767
 H459 H 0.92509 0.13984 0.20240
 H460 H 0.81596 0.12192 0.26991
 H461 H 0.98067 0.10046 0.30625
 H462 H 0.98881 0.10028 0.39052
 H463 H 0.84614 0.03791 0.43281
 C464 C 0.12057 0.29888 -0.12531
 C465 C 0.09287 0.28427 -0.09274
 C466 C 0.08347 0.24441 -0.07638
 C467 C 0.10619 0.21748 -0.10276
 C468 C 0.13503 0.23013 -0.13553
 C469 C 0.14396 0.27094 -0.15318
 O470 O 0.12257 0.33697 -0.12311
 C471 C 0.09692 0.34995 -0.09973
 C472 C 0.08097 0.31262 -0.07654
 C473 C 0.06435 0.30216 -0.04275
 C474 C 0.06954 0.34952 -0.02775
 C475 C 0.08427 0.38933 -0.05481
 C476 C 0.09195 0.38913 -0.09187
 H477 H 0.06447 0.23433 -0.06486
 H478 H 0.09851 0.19123 -0.09817
 H479 H 0.16339 0.27998 -0.16464
 H480 H 0.03445 0.29563 -0.03539
 H481 H 0.03363 0.35394 -0.02330
 H482 H 0.09847 0.41036 -0.09574
 C483 C -0.12057 0.29808 0.12345
 C484 C -0.09776 0.30187 0.09601
 C485 C -0.08934 0.24678 0.09224
 C486 C -0.09504 0.22246 0.08457
 C487 C -0.12928 0.23681 0.15336
 C488 C -0.14058 0.27095 0.15151
 O489 O -0.11968 0.33490 0.12413
 C490 C -0.10148 0.35004 0.09987
 C491 C -0.08859 0.32083 0.07721
 C492 C -0.09389 0.32248 0.04516
 C493 C -0.05936 0.34537 0.02649
 C494 C -0.08850 0.39172 0.06041
 C495 C -0.09406 0.37797 0.08715
 H496 H -0.07883 0.24075 0.06188
 H497 H -0.09742 0.18864 0.09717
 H498 H -0.15800 0.27467 0.16856
 H499 H -0.05683 0.29452 0.02563
 H500 H -0.03149 0.36136 0.01527
 H501 H -0.09764 0.40120 0.11764
 C502 C -0.13998 0.70625 -0.08406
 C503 C -0.09166 0.71337 -0.10514
 C504 C -0.06642 0.74326 -0.14106
 C505 C -0.08224 0.77322 -0.15421
 C506 C -0.13496 0.77071 -0.12978
 C507 C -0.16554 0.74186 -0.09983
 O508 O -0.13780 0.67107 -0.07307
 C509 C -0.11180 0.65925 -0.06546
 C510 C -0.09158 0.68144 -0.08740
 C511 C -0.04315 0.65852 -0.12516
 C512 C -0.05082 0.61718 -0.11452
 C513 C -0.07745 0.59693 -0.07569
 C514 C -0.10184 0.61050 -0.04521
 H515 H -0.03823 0.75039 -0.14661
 H516 H -0.07140 0.79204 -0.16135
 H517 H -0.19365 0.73768 -0.10278
 H518 H -0.01307 0.67615 -0.11681
 H519 H -0.01833 0.62505 -0.11041
 H520 H -0.12291 0.60941 -0.04051
 C521 C 0.09516 0.72564 0.09498
 C522 C 0.11483 0.68660 0.09755
 C523 C 0.15828 0.68736 0.13502
 C524 C 0.16551 0.72254 0.16515
 C525 C 0.12048 0.75119 0.16976
 C526 C 0.09218 0.75735 0.11468
 O527 O 0.10446 0.71391 0.06856
 C528 C 0.09922 0.67690 0.07798
 C529 C 0.10202 0.66337 0.09453
 C530 C 0.11220 0.62768 0.09086
 C531 C 0.09524 0.60430 0.07930
 C532 C 0.07838 0.60185 0.05115
 C533 C 0.09081 0.66200 0.03282
 H534 H 0.17007 0.67838 0.13615
 H535 H 0.19599 0.73238 0.16499
 H536 H 0.08125 0.78281 0.11037
 H537 H 0.13689 0.62266 0.10658
 H538 H 0.12204 0.57037 0.09357
 H539 H 0.04027 0.67931 0.02318
 C540 C 0.26815 1.09376 0.90847
 C541 C 0.30277 1.11503 0.88137
 C542 C 0.31089 1.15621 0.83549
 C543 C 0.26519 1.15698 0.84854
 C544 C 0.22183 1.13833 0.87097
 C545 C 0.22099 1.09437 0.91901
 O546 O 0.25977 1.06813 0.94048
 C547 C 0.30475 1.07436 0.93718
 C548 C 0.33534 1.09809 0.90313
 C549 C 0.39940 1.10381 0.88712
 C550 C 0.41925 1.08069 0.91182
 C551 C 0.38995 1.05385 0.93951
 C552 C 0.33867 1.04500 0.96438
 H553 H 0.33115 1.15720 0.84951
 H554 H 0.29159 1.17701 0.82025
 H555 H 0.19820 1.09428 0.90715
 H556 H 0.39961 1.12219 0.87740
 H557 H 0.43525 1.10258 0.90156
 H558 H 0.33798 1.02420 0.97610
 C559 C 0.26373 0.86901 1.07641
 C560 C 0.25069 0.84017 1.10517
 C561 C 0.27171 0.88497 1.20035
 C562 C 0.27681 0.88711 1.18460
 C563 C 0.23848 0.93157 1.14707
 C564 C 0.18841 0.89335 1.09280
 O565 O 0.31197 0.87651 1.05967
 C566 C 0.35608 0.88774 1.03005
 C567 C 0.32981 0.94085 1.11934
 C568 C 0.37136 0.96215 1.10573
 C569 C 0.47305 1.07578 1.14124
 C570 C 0.41124 0.98066 1.06240
 C571 C 0.35932 0.87885 1.04015
 H572 H 0.28465 0.94210 1.20312
 H573 H 0.25882 0.86641 1.20870
 H574 H 0.19365 0.85438 1.07034
 H575 H 0.39168 0.99266 1.12426
 H576 H 0.43199 0.97214 1.12141
 H577 H 0.37893 0.90435 1.00946
 C578 C 0.73557 1.12926 1.08741
 C579 C 0.71655 1.08366 1.10001
 C580 C 0.75445 1.06976 1.11574
 C581 C 0.77973 1.08661 1.12908
 C582 C 0.77001 1.12221 1.14945
 C583 C 0.70674 1.12478 1.13424
 O584 O 0.68194 1.14012 1.07266
 C585 C 0.66283 1.10645 1.07691
 C586 C 0.68662 1.07318 1.09433
 C587 C 0.67499 1.04017 1.07132
 C588 C 0.65059 1.04614 1.05091
 C589 C 0.60765 1.06104 1.04388
 C590 C 0.62242 1.09865 1.06646
 H591 H 0.75872 1.04174 1.10496
 H592 H 0.80644 1.08507 1.13765
 H593 H 0.72694 1.17839 1.13669
 H594 H 0.69444 1.01973 1.07546
 H595 H 0.64141 1.02742 1.05853
 H596 H 0.59035 1.11989 1.06125
 C597 C 0.70494 0.86717 0.91950
 C598 C 0.71253 0.91073 0.89357
 C599 C 0.74851 0.93005 0.85703
 C600 C 0.77723 0.91064 0.83912
 C601 C 0.76983 0.86640 0.86520
 C602 C 0.73701 0.84599 0.89245
 O603 O 0.66967 0.86272 0.92760
 C604 C 0.65649 0.89495 0.93115
 C605 C 0.67811 0.92793 0.90741
 C606 C 0.67117 0.95860 0.88363
 C607 C 0.62738 0.94440 0.90459
 C608 C 0.60925 0.93571 0.95191
 C609 C 0.62339 0.88801 0.96107
 H610 H 0.75512 0.95563 0.85038
 H611 H 0.79609 0.92270 0.84478
 H612 H 0.72702 0.82089 0.90431
 H613 H 0.68772 0.97411 0.88826
 H614 H 0.62127 0.98866 0.87618
 H615 H 0.59886 0.88567 0.96891
   
