data_POSCAR
  _audit_creation_date              2014-09-24
  _audit_creation_method            'ToBaCCo'
  _symmetry_space_group_name_H-M    'P1'
  _symmetry_Int_Tables_number       1
  _symmetry_cell_setting            triclinic
  loop_
  _symmetry_equiv_pos_as_xyz
 x,y,z
_cell_length_a 35.1098
_cell_length_b 36.4229
_cell_length_c 39.4335
_cell_angle_alpha 90.246800
_cell_angle_beta 90.229800
_cell_angle_gamma 88.750500
loop_
  _atom_site_label
  _atom_site_type_symbol
  _atom_site_fract_x
  _atom_site_fract_y
  _atom_site_fract_z
N1 N 0.29087 0.19915 0.20121
 N2 N 0.28477 0.23421 0.19515
 C3 C 0.30508 0.24394 0.16797
 C4 C 0.32486 0.21323 0.15594
 C5 C 0.31431 0.18503 0.17731
 H6 H 0.30505 0.27128 0.15738
 H7 H 0.32241 0.15628 0.17547
 Cu8 Cu 0.24838 0.26282 0.22168
 Cu9 Cu 0.26887 0.17565 0.24071
 Cu10 Cu 0.23590 0.23766 0.30206
 N11 N 0.21047 0.28708 0.25001
 N12 N 0.20763 0.27922 0.28235
 C13 C 0.18144 0.30195 0.29656
 C14 C 0.16669 0.32512 0.27163
 C15 C 0.18528 0.31405 0.24222
 H16 H 0.17309 0.30101 0.32291
 H17 H 0.18030 0.32410 0.21680
 N18 N 0.25012 0.18620 0.31215
 N19 N 0.26150 0.16251 0.28863
 C20 C 0.26868 0.12977 0.30322
 C21 C 0.26079 0.13285 0.33738
 C22 C 0.24930 0.16900 0.34231
 H23 H 0.27924 0.10552 0.29006
 H24 H 0.24115 0.18182 0.36607
 H25 H 0.22628 0.21288 0.25706
 H26 H 0.27717 0.22378 0.26527
 N27 N 0.71484 -0.21052 0.20335
 N28 N 0.72927 -0.24327 0.19664
 C29 C 0.71689 -0.25422 0.16597
 C30 C 0.69406 -0.22637 0.15213
 C31 C 0.69299 -0.19932 0.17713
 H32 H 0.72500 -0.28004 0.15413
 H33 H 0.67627 -0.17404 0.17716
 Cu34 Cu 0.76416 -0.26760 0.22804
 Cu35 Cu 0.72675 -0.18437 0.24509
 Cu36 Cu 0.76794 -0.23812 0.30851
 N37 N 0.80387 -0.28487 0.25891
 N38 N 0.80425 -0.27469 0.29087
 C39 C 0.83324 -0.29219 0.30687
 C40 C 0.85340 -0.31357 0.28336
 C41 C 0.83306 -0.30857 0.25328
 H42 H 0.83801 -0.29033 0.33391
 H43 H 0.83939 -0.32056 0.22876
 N44 N 0.74470 -0.18920 0.31707
 N45 N 0.73002 -0.16842 0.29275
 C46 C 0.71894 -0.13584 0.30603
 C47 C 0.72777 -0.13582 0.34017
 C48 C 0.74365 -0.17023 0.34648
 H49 H 0.70617 -0.11339 0.29182
 H50 H 0.75448 -0.18033 0.37049
 H51 H 0.77450 -0.21360 0.26318
 H52 H 0.72635 -0.23286 0.26997
 N53 N 0.66533 0.26693 0.78934
 N54 N 0.69232 0.28523 0.80473
 C55 C 0.68193 0.29195 0.83702
 C56 C 0.64640 0.27730 0.84204
 C57 C 0.63684 0.26133 0.81136
 H58 H 0.69909 0.30597 0.85565
 H59 H 0.61123 0.24651 0.80558
 Cu60 Cu 0.73843 0.29889 0.78133
 Cu61 Cu 0.66948 0.25162 0.74197
 Cu62 Cu 0.75968 0.25740 0.70794
 N63 N 0.77682 0.31813 0.75112
 N64 N 0.78387 0.30288 0.72157
 C65 C 0.81125 0.32161 0.70591
 C66 C 0.82231 0.35062 0.72674
 C67 C 0.80003 0.34662 0.75566
 H68 H 0.82237 0.31407 0.68128
 H69 H 0.80206 0.36136 0.77937
 N70 N 0.72144 0.22384 0.69016
 N71 N 0.68601 0.22401 0.70110
 C72 C 0.66649 0.19875 0.68353
 C73 C 0.69137 0.18046 0.66159
 C74 C 0.72578 0.19781 0.66614
 H75 H 0.63657 0.19365 0.68712
 H76 H 0.75239 0.19128 0.65352
 H77 H 0.72626 0.24246 0.74999
 H78 H 0.71329 0.28445 0.72505
 N79 N 0.32944 -0.24836 0.79794
 N80 N 0.31232 -0.27835 0.80740
 C81 C 0.32816 -0.29048 0.83654
 C82 C 0.35695 -0.26691 0.84556
 C83 C 0.35654 -0.24019 0.82077
 H84 H 0.31894 -0.31417 0.85050
 H85 H 0.37458 -0.21653 0.81946
 Cu86 Cu 0.26985 -0.29743 0.78138
 Cu87 Cu 0.31442 -0.22191 0.75709
 Cu88 Cu 0.27084 -0.27836 0.69823
 N89 N 0.23437 -0.31985 0.74998
 N90 N 0.23576 -0.31337 0.71731
 C91 C 0.20893 -0.33295 0.70143
 C92 C 0.18929 -0.35301 0.72544
 C93 C 0.20614 -0.34322 0.75613
 H94 H 0.20414 -0.33228 0.67434
 H95 H 0.19718 -0.35047 0.78136
 N96 N 0.29442 -0.23151 0.68624
 N97 N 0.30993 -0.20958 0.70890
 C98 C 0.32003 -0.17835 0.69367
 C99 C 0.31056 -0.18071 0.65969
 C100 C 0.29399 -0.21461 0.65593
 H101 H 0.33172 -0.15489 0.70664
 H102 H 0.28093 -0.22538 0.63319
 H103 H 0.26395 -0.24725 0.74078
 H104 H 0.31058 -0.27263 0.73739
 N105 N 0.71453 -0.20645 0.79519
 N106 N 0.73256 -0.23712 0.80351
 C107 C 0.72024 -0.24814 0.83403
 C108 C 0.69345 -0.22268 0.84565
 C109 C 0.69013 -0.19688 0.82008
 H110 H 0.73028 -0.27256 0.84710
 H111 H 0.67133 -0.17295 0.81953
 Cu112 Cu 0.77126 -0.25871 0.77397
 Cu113 Cu 0.72605 -0.18017 0.75374
 Cu114 Cu 0.77045 -0.23427 0.69216
 N115 N 0.80898 -0.27826 0.74236
 N116 N 0.80771 -0.26974 0.71007
 C117 C 0.83549 -0.28852 0.69364
 C118 C 0.85652 -0.30910 0.71711
 C119 C 0.83805 -0.30219 0.74773
 H120 H 0.83872 -0.28821 0.66640
 H121 H 0.84560 -0.31315 0.77234
 N122 N 0.74530 -0.18645 0.68231
 N123 N 0.72934 -0.16554 0.70597
 C124 C 0.71753 -0.13362 0.69204
 C125 C 0.72717 -0.13411 0.65814
 C126 C 0.74431 -0.16818 0.65266
 H127 H 0.70390 -0.11116 0.70570
 H128 H 0.75619 -0.17843 0.62909
 H129 H 0.72996 -0.22978 0.73115
 H130 H 0.77633 -0.20626 0.73637
 N131 N 0.28335 0.19608 0.80313
 N132 N 0.27589 0.23082 0.80985
 C133 C 0.29685 0.24124 0.83664
 C134 C 0.31850 0.21129 0.84771
 C135 C 0.30833 0.18279 0.82623
 H136 H 0.29605 0.26853 0.84756
 H137 H 0.31784 0.15438 0.82738
 Cu138 Cu 0.23705 0.25801 0.78473
 Cu139 Cu 0.26158 0.17221 0.76338
 Cu140 Cu 0.22808 0.23489 0.70314
 N141 N 0.20074 0.28331 0.75548
 N142 N 0.19910 0.27601 0.72288
 C143 C 0.17369 0.29921 0.70820
 C144 C 0.15822 0.32209 0.73307
 C145 C 0.17554 0.31040 0.76292
 H146 H 0.16640 0.29884 0.68152
 H147 H 0.16969 0.32018 0.78833
 N148 N 0.24331 0.18383 0.69202
 N149 N 0.25478 0.15984 0.71513
 C150 C 0.26260 0.12747 0.69989
 C151 C 0.25507 0.13111 0.66568
 C152 C 0.24311 0.16720 0.66143
 H153 H 0.27340 0.10314 0.71265
 H154 H 0.23508 0.18037 0.63785
 H155 H 0.26830 0.22125 0.74077
 H156 H 0.21768 0.20838 0.74704
 N157 N 0.33206 -0.24691 0.20162
 N158 N 0.31323 -0.27569 0.19126
 C159 C 0.32831 -0.28796 0.16187
 C160 C 0.35843 -0.26578 0.15364
 C161 C 0.35958 -0.23968 0.17917
 H162 H 0.31769 -0.31076 0.14722
 H163 H 0.37896 -0.21708 0.18121
 Cu164 Cu 0.26986 -0.29321 0.21665
 Cu165 Cu 0.31855 -0.22069 0.24310
 Cu166 Cu 0.27438 -0.27743 0.30051
 N167 N 0.23479 -0.31573 0.24789
 N168 N 0.23813 -0.31127 0.28083
 C169 C 0.21178 -0.33134 0.29651
 C170 C 0.19041 -0.34917 0.27206
 C171 C 0.20551 -0.33791 0.24142
 H172 H 0.20780 -0.33204 0.32368
 H173 H 0.19530 -0.34441 0.21625
 N174 N 0.29905 -0.23124 0.31366
 N175 N 0.31488 -0.20923 0.29155
 C176 C 0.32516 -0.17822 0.30738
 C177 C 0.31542 -0.18077 0.34119
 C178 C 0.29856 -0.21460 0.34422
 H179 H 0.33682 -0.15464 0.29485
 H180 H 0.28501 -0.22534 0.36656
 H181 H 0.31295 -0.27176 0.26090
 H182 H 0.26729 -0.24451 0.25920
 N183 N 0.67024 0.26372 0.20782
 N184 N 0.69798 0.28062 0.19241
 C185 C 0.68776 0.28719 0.16003
 C186 C 0.65160 0.27388 0.15498
 C187 C 0.64146 0.25885 0.18571
 H188 H 0.70536 0.30039 0.14144
 H189 H 0.61517 0.24529 0.19150
 Cu190 Cu 0.74464 0.29322 0.21592
 Cu191 Cu 0.67362 0.24933 0.25536
 Cu192 Cu 0.76284 0.25585 0.29164
 N193 N 0.78265 0.31334 0.24644
 N194 N 0.78784 0.30034 0.27713
 C195 C 0.81464 0.31996 0.29303
 C196 C 0.82728 0.34683 0.27105
 C197 C 0.80677 0.34093 0.24137
 H198 H 0.82487 0.31427 0.31840
 H199 H 0.81011 0.35445 0.21726
 N200 N 0.72413 0.22294 0.30901
 N201 N 0.68901 0.22281 0.29708
 C202 C 0.66913 0.19776 0.31425
 C203 C 0.69350 0.17985 0.33691
 C204 C 0.72795 0.19727 0.33324
 H205 H 0.63936 0.19245 0.30980
 H206 H 0.75430 0.19090 0.34647
 H207 H 0.71744 0.28260 0.27187
 H208 H 0.73050 0.23897 0.24909
 C209 C 0.28716 0.01156 0.42891
 C210 C 0.29414 -0.02147 0.41157
 C211 C 0.30123 -0.05425 0.42894
 C212 C 0.30115 -0.05445 0.46473
 C213 C 0.29417 -0.02120 0.48272
 C214 C 0.28773 0.01207 0.46481
 C215 C 0.28216 0.04488 0.48321
 C216 C 0.28152 0.04482 0.51854
 C217 C 0.28646 0.01194 0.53674
 C218 C 0.29354 -0.02126 0.51869
 C219 C 0.30819 -0.08699 0.48295
 C220 C 0.30756 -0.08706 0.51821
 C221 C 0.29990 -0.05458 0.53653
 C222 C 0.29873 -0.05448 0.57230
 C223 C 0.29103 -0.02176 0.58978
 C224 C 0.28466 0.01131 0.57258
 H225 H 0.27808 0.07091 0.47043
 H226 H 0.27697 0.07080 0.53148
 H227 H 0.31426 -0.11277 0.47011
 H228 H 0.31316 -0.11287 0.53098
 H229 H 0.29372 -0.02174 0.38406
 H230 H 0.28969 -0.02212 0.61726
 C231 C 0.67959 0.05542 0.57077
 C232 C 0.68931 0.02278 0.58776
 C233 C 0.69543 -0.01028 0.57040
 C234 C 0.69325 -0.01098 0.53466
 C235 C 0.68493 0.02197 0.51679
 C236 C 0.67699 0.05508 0.53484
 C237 C 0.66641 0.08670 0.51645
 C238 C 0.66661 0.08662 0.48108
 C239 C 0.67743 0.05491 0.46273
 C240 C 0.68515 0.02189 0.48076
 C241 C 0.69948 -0.04374 0.51638
 C242 C 0.69965 -0.04383 0.48114
 C243 C 0.69366 -0.01115 0.46288
 C244 C 0.69626 -0.01062 0.42718
 C245 C 0.69041 0.02237 0.40988
 C246 C 0.68049 0.05510 0.42685
 H247 H 0.65792 0.11189 0.52924
 H248 H 0.65826 0.11175 0.46826
 H249 H 0.70483 -0.06957 0.52919
 H250 H 0.70511 -0.06973 0.46832
 H251 H 0.69269 0.02312 0.61512
 H252 H 0.69412 0.02259 0.38258
 C253 C 0.41266 0.21593 0.03163
 C254 C 0.39411 0.20914 0.00085
 C255 C 0.41146 0.21595 -0.03031
 C256 C 0.44906 0.22941 -0.03088
 C257 C 0.46892 0.23485 0.00007
 C258 C 0.45032 0.22922 0.03143
 C259 C 0.46951 0.23806 0.06167
 C260 C 0.50711 0.24929 0.06127
 C261 C 0.52682 0.25295 0.03058
 C262 C 0.50715 0.24695 -0.00033
 C263 C 0.46697 0.23858 -0.06146
 C264 C 0.50455 0.24989 -0.06186
 C265 C 0.52551 0.25330 -0.03163
 C266 C 0.56412 0.26370 -0.03186
 C267 C 0.58368 0.26802 -0.00114
 C268 C 0.56546 0.26324 0.02999
 H269 H 0.45578 0.23633 0.08607
 H270 H 0.52046 0.25533 0.08538
 H271 H 0.45223 0.23707 -0.08552
 H272 H 0.51690 0.25616 -0.08620
 H273 H 0.36516 0.19932 0.00116
 H274 H 0.61344 0.27538 -0.00147
 C275 C 0.60558 0.76292 0.03023
 C276 C 0.62446 0.76640 -0.00068
 C277 C 0.60493 0.76408 -0.03156
 C278 C 0.56541 0.75730 -0.03176
 C279 C 0.54598 0.75328 -0.00056
 C280 C 0.56610 0.75618 0.03057
 C281 C 0.54614 0.75281 0.06119
 C282 C 0.50715 0.74659 0.06126
 C283 C 0.48665 0.74360 0.03070
 C284 C 0.50622 0.74694 -0.00047
 C285 C 0.54470 0.75508 -0.06227
 C286 C 0.50579 0.74852 -0.06217
 C287 C 0.48601 0.74435 -0.03155
 C288 C 0.44642 0.73805 -0.03119
 C289 C 0.42742 0.73497 -0.00031
 C290 C 0.44698 0.73768 0.03050
 H291 H 0.56048 0.75511 0.08544
 H292 H 0.49318 0.74426 0.08555
 H293 H 0.55834 0.75855 -0.08656
 H294 H 0.49128 0.74703 -0.08639
 H295 H 0.65476 0.77163 -0.00069
 H296 H 0.39699 0.73040 -0.00024
 C297 C 0.03518 0.42339 0.28694
 C298 C -0.00104 0.40846 0.28363
 C299 C -0.03432 0.42997 0.28788
 C300 C -0.03128 0.46794 0.29546
 C301 C 0.00519 0.48378 0.29681
 C302 C 0.03845 0.46121 0.29459
 C303 C 0.07412 0.47721 0.29978
 C304 C 0.07735 0.51512 0.30157
 C305 C 0.04494 0.53825 0.29892
 C306 C 0.00846 0.52247 0.29940
 C307 C -0.06351 0.49065 0.30152
 C308 C -0.06031 0.52868 0.30406
 C309 C -0.02469 0.54527 0.30107
 C310 C -0.02113 0.58394 0.29973
 C311 C 0.01507 0.59886 0.29576
 C312 C 0.04806 0.57664 0.29506
 H313 H 0.10003 0.46067 0.30126
 H314 H 0.10558 0.52621 0.30408
 H315 H -0.09164 0.47933 0.30344
 H316 H -0.08611 0.54497 0.30773
 H317 H -0.00336 0.37962 0.27715
 H318 H 0.01751 0.62826 0.29240
 C319 C 0.02916 0.42265 0.71471
 C320 C -0.00755 0.40874 0.71718
 C321 C -0.04007 0.43119 0.71248
 C322 C -0.03580 0.46904 0.70534
 C323 C 0.00119 0.48375 0.70426
 C324 C 0.03371 0.46023 0.70707
 C325 C 0.06998 0.47504 0.70244
 C326 C 0.07446 0.51274 0.70009
 C327 C 0.04278 0.53690 0.70165
 C328 C 0.00576 0.52223 0.70128
 C329 C -0.06735 0.49267 0.69937
 C330 C -0.06289 0.53050 0.69662
 C331 C -0.02665 0.54600 0.69923
 C332 C -0.02180 0.58454 0.69985
 C333 C 0.01496 0.59848 0.70306
 C334 C 0.04718 0.57529 0.70424
 H335 H 0.09539 0.45772 0.70164
 H336 H 0.10310 0.52286 0.69785
 H337 H -0.09590 0.48224 0.69759
 H338 H -0.08819 0.54753 0.69292
 H339 H -0.01088 0.38000 0.72337
 H340 H 0.01847 0.62789 0.70559
 C341 C 0.35840 0.23473 0.06782
 C342 C 0.33766 0.23420 0.09771
 C343 C 0.34869 0.21141 0.12481
 C344 C 0.38152 0.18809 0.12102
 C345 C 0.40120 0.18706 0.08957
 C346 C 0.39044 0.21177 0.06340
 C347 C 0.43174 0.16183 0.08557
 N348 N 0.44350 0.14091 0.11210
 N349 N 0.42679 0.14363 0.14228
 C350 C 0.39655 0.16667 0.14774
 H351 H 0.34954 0.25358 0.04796
 H352 H 0.31267 0.25203 0.09958
 H353 H 0.44661 0.15889 0.06171
 H354 H 0.38549 0.16858 0.17314
 C355 C 0.64081 0.73601 0.07883
 C356 C 0.66352 0.73864 0.10770
 C357 C 0.67446 0.77296 0.12069
 C358 C 0.66399 0.80522 0.10200
 C359 C 0.63967 0.80237 0.07324
 C360 C 0.62818 0.76749 0.06175
 C361 C 0.62823 0.83467 0.05622
 N362 N 0.64241 0.86739 0.06587
 N363 N 0.66747 0.86986 0.09113
 C364 C 0.67911 0.84000 0.10913
 H365 H 0.63270 0.70912 0.06985
 H366 H 0.67105 0.71337 0.12069
 H367 H 0.60850 0.83415 0.03510
 H368 H 0.70132 0.84374 0.12769
 C369 C 0.59408 0.23814 -0.08387
 C370 C 0.61329 0.24155 -0.11447
 C371 C 0.62481 0.27594 -0.12587
 C372 C 0.61585 0.30774 -0.10629
 C373 C 0.59601 0.30424 -0.07520
 C374 C 0.58525 0.26908 -0.06397
 C375 C 0.58681 0.33629 -0.05670
 N376 N 0.59689 0.36953 -0.06863
 N377 N 0.61525 0.37288 -0.09789
 C378 C 0.62490 0.34322 -0.11719
 H379 H 0.58587 0.21110 -0.07562
 H380 H 0.61981 0.21700 -0.12913
 H381 H 0.57139 0.33529 -0.03306
 H382 H 0.63897 0.34784 -0.14105
 C383 C 0.40432 0.76619 -0.07463
 C384 C 0.38318 0.76498 -0.10452
 C385 C 0.38071 0.73237 -0.12336
 C386 C 0.40079 0.70042 -0.11205
 C387 C 0.42212 0.70169 -0.08143
 C388 C 0.42382 0.73490 -0.06281
 C389 C 0.44149 0.66963 -0.07057
 N390 N 0.44017 0.63861 -0.08963
 N391 N 0.42095 0.63760 -0.11878
 C392 C 0.40140 0.66740 -0.13072
 H393 H 0.40560 0.79179 -0.06061
 H394 H 0.36818 0.78968 -0.11280
 H395 H 0.45777 0.66900 -0.04723
 H396 H 0.38713 0.66501 -0.15489
 C397 C 0.07450 0.36860 0.30243
 C398 C 0.10642 0.34553 0.29917
 C399 C 0.13478 0.35253 0.27516
 C400 C 0.13057 0.38413 0.25422
 C401 C 0.09646 0.40574 0.25567
 C402 C 0.06906 0.39883 0.28107
 C403 C 0.09119 0.43413 0.23188
 N404 N 0.11975 0.44257 0.21048
 N405 N 0.15308 0.42447 0.21120
 C406 C 0.15959 0.39586 0.23250
 H407 H 0.05374 0.36272 0.32181
 H408 H 0.10861 0.32173 0.31546
 H409 H 0.06482 0.44996 0.23040
 H410 H 0.18776 0.38349 0.23285
 C411 C 0.09931 0.61545 0.68619
 C412 C 0.13437 0.63189 0.69076
 C413 C 0.15675 0.62523 0.71997
 C414 C 0.14388 0.59864 0.74363
 C415 C 0.10685 0.58410 0.74009
 C416 C 0.08486 0.59201 0.71068
 C417 C 0.09325 0.56138 0.76597
 N418 N 0.11675 0.55055 0.79152
 N419 N 0.15282 0.56093 0.79288
 C420 C 0.16730 0.58408 0.76964
 H421 H 0.08291 0.62160 0.66349
 H422 H 0.14284 0.65133 0.67172
 H423 H 0.06438 0.55165 0.76587
 H424 H 0.19734 0.58949 0.77102
 C425 C -0.07917 0.60758 0.27057
 C426 C -0.10861 0.63322 0.26596
 C427 C -0.11422 0.66301 0.28848
 C428 C -0.08744 0.66721 0.31561
 C429 C -0.05911 0.63940 0.32153
 C430 C -0.05459 0.60978 0.29841
 C431 C -0.03522 0.64266 0.35007
 N432 N -0.03705 0.67339 0.36948
 N433 N -0.06088 0.70112 0.36204
 C434 C -0.08556 0.69935 0.33558
 H435 H -0.07548 0.58569 0.25209
 H436 H -0.12767 0.62874 0.24480
 H437 H -0.01481 0.62124 0.35688
 H438 H -0.10184 0.72388 0.32959
 C439 C -0.08638 0.38522 0.69341
 C440 C -0.12005 0.36608 0.69625
 C441 C -0.14734 0.37520 0.72123
 C442 C -0.14105 0.40726 0.74141
 C443 C -0.10504 0.42437 0.74065
 C444 C -0.07786 0.41371 0.71582
 C445 C -0.09770 0.45212 0.76458
 N446 N -0.12614 0.46521 0.78468
 N447 N -0.16125 0.45236 0.78241
 C448 C -0.16979 0.42434 0.76114
 H449 H -0.06606 0.37684 0.67409
 H450 H -0.12337 0.34285 0.67946
 H451 H -0.06988 0.46403 0.76702
 H452 H -0.19926 0.41693 0.75883
 C453 C 0.30863 0.05800 0.38815
 C454 C 0.30211 0.08692 0.36580
 C455 C 0.26602 0.10378 0.36305
 C456 C 0.23575 0.09114 0.38331
 C457 C 0.24229 0.06131 0.40579
 C458 C 0.27914 0.04478 0.40819
 C459 C 0.21132 0.04826 0.42441
 N460 N 0.17639 0.06443 0.42096
 N461 N 0.17025 0.09245 0.39991
 C462 C 0.19862 0.10623 0.38087
 H463 H 0.33679 0.04529 0.38939
 H464 H 0.32544 0.09609 0.35029
 H465 H 0.21446 0.02528 0.44152
 H466 H 0.19167 0.12851 0.36379
 C467 C 0.70181 0.11783 0.58554
 C468 C 0.70493 0.14731 0.60787
 C469 C 0.68428 0.14886 0.63831
 C470 C 0.65883 0.11998 0.64555
 C471 C 0.65328 0.09166 0.62119
 C472 C 0.67633 0.08962 0.59174
 C473 C 0.62548 0.06535 0.62759
 N474 N 0.60691 0.06551 0.65762
 N475 N 0.61443 0.09007 0.68167
 C476 C 0.63999 0.11691 0.67686
 H477 H 0.72032 0.11654 0.56363
 H478 H 0.72460 0.16871 0.60158
 H479 H 0.61855 0.04454 0.60904
 H480 H 0.64608 0.13448 0.69811
 C481 C 0.27431 -0.11223 0.59560
 C482 C 0.27743 -0.14298 0.61633
 C483 C 0.31094 -0.15051 0.63473
 C484 C 0.34271 -0.12755 0.63060
 C485 C 0.33939 -0.09611 0.60961
 C486 C 0.30468 -0.08828 0.59253
 C487 C 0.37114 -0.07357 0.60623
 N488 N 0.40418 -0.08242 0.62245
 N489 N 0.40757 -0.11229 0.64168
 C490 C 0.37809 -0.13520 0.64620
 H491 H 0.24767 -0.10652 0.58250
 H492 H 0.25286 -0.16020 0.61909
 H493 H 0.37011 -0.04922 0.59060
 H494 H 0.38289 -0.15945 0.66143
 C495 C 0.67720 -0.05899 0.38675
 C496 C 0.68491 -0.08899 0.36571
 C497 C 0.72154 -0.10494 0.36415
 C498 C 0.75125 -0.08986 0.38399
 C499 C 0.74333 -0.05918 0.40538
 C500 C 0.70593 -0.04386 0.40676
 C501 C 0.77347 -0.04417 0.42409
 N502 N 0.80909 -0.05899 0.42147
 N503 N 0.81664 -0.08752 0.40118
 C504 C 0.78908 -0.10330 0.38224
 H505 H 0.64859 -0.04721 0.38725
 H506 H 0.66202 -0.09989 0.35045
 H507 H 0.76912 -0.02069 0.44060
 H508 H 0.79729 -0.12577 0.36571
 C509 C 0.63507 0.73872 -0.08357
 C510 C 0.65693 0.74193 -0.11274
 C511 C 0.67175 0.77582 -0.12222
 C512 C 0.66498 0.80704 -0.10117
 C513 C 0.64175 0.80391 -0.07199
 C514 C 0.62696 0.76939 -0.06315
 C515 C 0.63419 0.83558 -0.05239
 N516 N 0.65033 0.86778 -0.06066
 N517 N 0.67350 0.87040 -0.08712
 C518 C 0.68156 0.84118 -0.10750
 H519 H 0.62427 0.71209 -0.07685
 H520 H 0.66195 0.71772 -0.12828
 H521 H 0.61567 0.83506 -0.03057
 H522 H 0.70144 0.84493 -0.12791
 C523 C 0.35543 0.23379 -0.06502
 C524 C 0.33345 0.23280 -0.09435
 C525 C 0.34387 0.21027 -0.12192
 C526 C 0.37745 0.18778 -0.11923
 C527 C 0.39835 0.18703 -0.08826
 C528 C 0.38811 0.21148 -0.06160
 C529 C 0.42950 0.16234 -0.08523
 N530 N 0.44074 0.14184 -0.11229
 N531 N 0.42295 0.14446 -0.14208
 C532 C 0.39203 0.16692 -0.14657
 H533 H 0.34696 0.25244 -0.04479
 H534 H 0.30795 0.25002 -0.09537
 H535 H 0.44526 0.15951 -0.06173
 H536 H 0.38011 0.16889 -0.17172
 C537 C 0.40748 0.76688 0.07512
 C538 C 0.38650 0.76599 0.10495
 C539 C 0.38202 0.73305 0.12262
 C540 C 0.40000 0.70039 0.11023
 C541 C 0.42116 0.70135 0.07967
 C542 C 0.42479 0.73490 0.06218
 C543 C 0.43846 0.66863 0.06774
 N544 N 0.43534 0.63722 0.08573
 N545 N 0.41626 0.63642 0.11482
 C546 C 0.39867 0.66687 0.12776
 H547 H 0.41026 0.79274 0.06197
 H548 H 0.37315 0.79124 0.11406
 H549 H 0.45458 0.66781 0.04441
 H550 H 0.38444 0.66458 0.15185
 C551 C 0.59692 0.23651 0.08080
 C552 C 0.61708 0.23921 0.11115
 C553 C 0.62957 0.27323 0.12296
 C554 C 0.62080 0.30538 0.10403
 C555 C 0.59989 0.30264 0.07325
 C556 C 0.58800 0.26784 0.06164
 C557 C 0.59077 0.33507 0.05549
 N558 N 0.60201 0.36794 0.06778
 N559 N 0.62144 0.37057 0.09672
 C560 C 0.63105 0.34052 0.11532
 H561 H 0.58790 0.20974 0.07225
 H562 H 0.62347 0.21440 0.12533
 H563 H 0.57452 0.33468 0.03216
 H564 H 0.64609 0.34455 0.13895
 C565 C -0.07786 0.61075 0.72987
 C566 C -0.10631 0.63736 0.73468
 C567 C -0.11208 0.66641 0.71158
 C568 C -0.08650 0.66882 0.68354
 C569 C -0.05908 0.64015 0.67765
 C570 C -0.05440 0.61132 0.70137
 C571 C -0.03625 0.64176 0.64848
 N572 N -0.03824 0.67168 0.62824
 N573 N -0.06123 0.70014 0.63544
 C574 C -0.08485 0.70000 0.66255
 H575 H -0.07402 0.58943 0.74874
 H576 H -0.12454 0.63420 0.75647
 H577 H -0.01655 0.61968 0.64180
 H578 H -0.10048 0.72505 0.66816
 C579 C -0.07875 0.38120 0.30402
 C580 C -0.11195 0.36143 0.30020
 C581 C -0.14020 0.37205 0.27665
 C582 C -0.13479 0.40461 0.25752
 C583 C -0.09924 0.42250 0.25902
 C584 C -0.07153 0.41145 0.28344
 C585 C -0.09272 0.45099 0.23591
 N586 N -0.12140 0.46355 0.21568
 N587 N -0.15598 0.44936 0.21689
 C588 C -0.16374 0.42065 0.23733
 H589 H -0.05789 0.37213 0.32269
 H590 H -0.11485 0.33702 0.31540
 H591 H -0.06528 0.46369 0.23400
 H592 H -0.19274 0.41155 0.23831
 C593 C 0.06760 0.36694 0.70010
 C594 C 0.09899 0.34334 0.70410
 C595 C 0.12683 0.34991 0.72894
 C596 C 0.12266 0.38157 0.75001
 C597 C 0.08907 0.40385 0.74767
 C598 C 0.06222 0.39735 0.72147
 C599 C 0.08378 0.43250 0.77137
 N600 N 0.11187 0.44041 0.79371
 N601 N 0.14477 0.42155 0.79397
 C602 C 0.15126 0.39272 0.77274
 H603 H 0.04724 0.36141 0.68009
 H604 H 0.10122 0.31948 0.68770
 H605 H 0.05776 0.44893 0.77209
 H606 H 0.17911 0.37969 0.77327
 C607 C 0.09773 0.62125 0.31039
 C608 C 0.13215 0.63856 0.30512
 C609 C 0.15574 0.62884 0.27768
 C610 C 0.14430 0.60016 0.25553
 C611 C 0.10790 0.58451 0.25947
 C612 C 0.08507 0.59428 0.28790
 C613 C 0.09561 0.55936 0.23473
 N614 N 0.11964 0.54805 0.20980
 N615 N 0.15497 0.56036 0.20782
 C616 C 0.16819 0.58574 0.22992
 H617 H 0.08057 0.62925 0.33208
 H618 H 0.13996 0.66030 0.32244
 H619 H 0.06727 0.54839 0.23506
 H620 H 0.19753 0.59354 0.22767
 C621 C 0.67624 -0.05882 0.61006
 C622 C 0.68402 -0.08851 0.63126
 C623 C 0.72090 -0.10377 0.63380
 C624 C 0.75075 -0.08836 0.61468
 C625 C 0.74274 -0.05806 0.59305
 C626 C 0.70513 -0.04336 0.59081
 C627 C 0.77296 -0.04275 0.57502
 N628 N 0.80878 -0.05689 0.57855
 N629 N 0.81644 -0.08501 0.59911
 C630 C 0.78879 -0.10107 0.61741
 H631 H 0.64747 -0.04750 0.60888
 H632 H 0.66100 -0.09964 0.64597
 H633 H 0.76853 -0.01955 0.55833
 H634 H 0.79708 -0.12314 0.63423
 C635 C 0.27758 -0.11219 0.40475
 C636 C 0.28128 -0.14306 0.38401
 C637 C 0.31518 -0.15052 0.36634
 C638 C 0.34671 -0.12732 0.37123
 C639 C 0.34280 -0.09578 0.39225
 C640 C 0.30773 -0.08804 0.40859
 C641 C 0.37435 -0.07305 0.39642
 N642 N 0.40772 -0.08179 0.38086
 N643 N 0.41164 -0.11173 0.36157
 C644 C 0.38239 -0.13484 0.35633
 H645 H 0.25066 -0.10656 0.41729
 H646 H 0.25687 -0.16041 0.38066
 H647 H 0.37290 -0.04864 0.41212
 H648 H 0.38759 -0.15913 0.34108
 C649 C 0.70278 0.11753 0.41285
 C650 C 0.70616 0.14695 0.39075
 C651 C 0.68607 0.14832 0.35987
 C652 C 0.66088 0.11929 0.35194
 C653 C 0.65496 0.09109 0.37607
 C654 C 0.67750 0.08922 0.40598
 C655 C 0.62731 0.06471 0.36898
 N656 N 0.60933 0.06464 0.33854
 N657 N 0.61730 0.08904 0.31473
 C658 C 0.64271 0.11596 0.32018
 H659 H 0.72093 0.11637 0.43512
 H660 H 0.72563 0.16845 0.39758
 H661 H 0.62006 0.04401 0.38731
 H662 H 0.64924 0.13335 0.29911
 C663 C 0.30484 0.05761 0.61448
 C664 C 0.29752 0.08615 0.63724
 C665 C 0.26122 0.10264 0.63940
 C666 C 0.23159 0.09011 0.61803
 C667 C 0.23896 0.06069 0.59509
 C668 C 0.27597 0.04443 0.59342
 C669 C 0.20862 0.04772 0.57531
 N670 N 0.17346 0.06356 0.57814
 N671 N 0.16653 0.09117 0.59963
 C672 C 0.19427 0.10485 0.61978
 H673 H 0.33312 0.04510 0.61378
 H674 H 0.32038 0.09526 0.65357
 H675 H 0.21241 0.02506 0.55777
 H676 H 0.18667 0.12677 0.63717
   
