data_POSCAR
  _audit_creation_date              2014-09-24
  _audit_creation_method            'ToBaCCo'
  _symmetry_space_group_name_H-M    'P1'
  _symmetry_Int_Tables_number       1
  _symmetry_cell_setting            triclinic
  loop_
  _symmetry_equiv_pos_as_xyz
 x,y,z
_cell_length_a 55.9449
_cell_length_b 56.1347
_cell_length_c 30.9399
_cell_angle_alpha 89.959100
_cell_angle_beta 89.846500
_cell_angle_gamma 85.920900
loop_
  _atom_site_label
  _atom_site_type_symbol
  _atom_site_fract_x
  _atom_site_fract_y
  _atom_site_fract_z
C1 C -0.03621 0.28009 0.00887
 C2 C -0.03667 0.28085 -0.03732
 C3 C -0.01478 0.27917 -0.05996
 C4 C 0.00747 0.27883 -0.03874
 C5 C 0.00757 0.28111 0.00707
 C6 C -0.01412 0.28187 0.03000
 H7 H -0.01326 0.28125 0.06498
 H8 H -0.01498 0.27996 -0.09495
 C9 C 0.47950 0.77795 0.53543
 C10 C 0.47918 0.78024 0.48992
 C11 C 0.50078 0.78023 0.46695
 C12 C 0.52279 0.77778 0.48848
 C13 C 0.52325 0.77557 0.53404
 C14 C 0.50156 0.77563 0.55698
 H15 H 0.50184 0.77378 0.59187
 H16 H 0.50045 0.78121 0.43195
 C17 C 1.02729 0.73426 0.03304
 C18 C 1.02576 0.73103 -0.01252
 C19 C 1.00321 0.73155 -0.03237
 C20 C 0.98172 0.73422 -0.00836
 C21 C 0.98338 0.73439 0.03761
 C22 C 1.00590 0.73487 0.05731
 H23 H 1.00645 0.73653 0.09214
 H24 H 1.00270 0.73066 -0.06729
 C25 C 0.51073 0.22843 0.51158
 C26 C 0.51241 0.22973 0.46588
 C27 C 0.49131 0.23121 0.44129
 C28 C 0.46863 0.23193 0.46082
 C29 C 0.46691 0.23170 0.50658
 C30 C 0.48803 0.22974 0.53122
 H31 H 0.48683 0.22939 0.56619
 H32 H 0.49253 0.23195 0.40635
 C33 C 0.76379 -0.01714 0.01777
 C34 C 0.76440 -0.01578 -0.02835
 C35 C 0.76449 0.00662 -0.04857
 C36 C 0.76400 0.02787 -0.02484
 C37 C 0.76339 0.02673 0.02069
 C38 C 0.76288 0.00451 0.04128
 H39 H 0.76343 0.00424 0.07628
 H40 H 0.76424 0.00758 -0.08359
 C41 C 0.22898 0.46743 0.51095
 C42 C 0.23125 0.46732 0.46543
 C43 C 0.23196 0.48912 0.44339
 C44 C 0.23040 0.51093 0.46568
 C45 C 0.22735 0.51090 0.51109
 C46 C 0.22657 0.48920 0.53318
 H47 H 0.22530 0.48921 0.56817
 H48 H 0.23396 0.48911 0.40852
 C49 C 0.26895 1.00833 0.01215
 C50 C 0.26935 1.00878 -0.03427
 C51 C 0.27084 0.98672 -0.05655
 C52 C 0.27126 0.96469 -0.03505
 C53 C 0.27144 0.96435 0.01059
 C54 C 0.27017 0.98598 0.03318
 H55 H 0.27122 0.98522 0.06816
 H56 H 0.26963 0.98658 -0.09151
 C57 C 0.77103 0.52443 0.51923
 C58 C 0.77206 0.52630 0.47338
 C59 C 0.77262 0.50532 0.44844
 C60 C 0.77162 0.48288 0.46782
 C61 C 0.77011 0.48105 0.51322
 C62 C 0.76984 0.50182 0.53833
 H63 H 0.76903 0.50030 0.57324
 H64 H 0.77313 0.50646 0.41347
 O65 O 0.23765 0.20226 0.22478
 O66 O 0.22308 0.25856 0.28358
 O67 O 0.20145 0.23362 0.22523
 O68 O 0.25837 0.22579 0.28415
 O69 O 0.27640 0.24515 0.23278
 O70 O 0.21868 0.25466 0.17509
 O71 O 0.24173 0.27803 0.23315
 O72 O 0.25476 0.22216 0.17307
 Cu73 Cu 0.22823 0.22818 0.25954
 Cu74 Cu 0.24955 0.25201 0.19826
 C75 C 0.24873 0.20257 0.18888
 C76 C 0.23058 0.27785 0.26891
 C77 C 0.20037 0.24528 0.19009
 C78 C 0.27716 0.23394 0.26856
 O79 O 0.76298 0.80418 0.28067
 O80 O 0.76737 0.74690 0.33943
 O81 O 0.79640 0.76974 0.28915
 O82 O 0.73489 0.78190 0.33018
 O83 O 0.72106 0.76268 0.27429
 O84 O 0.78248 0.75173 0.23207
 O85 O 0.75485 0.72859 0.28140
 O86 O 0.74936 0.78599 0.22342
 Cu87 Cu 0.76694 0.77739 0.31562
 Cu88 Cu 0.75043 0.75550 0.24707
 C89 C 0.75545 0.80480 0.24199
 C90 C 0.76179 0.72803 0.32041
 C91 C 0.79995 0.75896 0.25332
 C92 C 0.71753 0.77415 0.30941
 O93 O 0.78740 0.24911 0.26873
 O94 O 0.73137 0.24061 0.32645
 O95 O 0.75865 0.21282 0.27039
 O96 O 0.75914 0.27367 0.31544
 O97 O 0.73740 0.28725 0.25989
 O98 O 0.73734 0.22677 0.21473
 O99 O 0.71045 0.25171 0.26844
 O100 O 0.76674 0.26068 0.21068
 Cu101 Cu 0.76102 0.24161 0.30011
 Cu102 Cu 0.73592 0.25799 0.23268
 C103 C 0.78664 0.25674 0.23015
 C104 C 0.71140 0.24507 0.30769
 C105 C 0.74800 0.20952 0.23488
 C106 C 0.74825 0.29083 0.29504
 O107 O 0.25525 0.71004 0.27278
 O108 O 0.26325 0.76751 0.21891
 O109 O 0.28869 0.73972 0.27199
 O110 O 0.22991 0.73767 0.21991
 O111 O 0.21247 0.75515 0.27693
 O112 O 0.27173 0.76042 0.32599
 O113 O 0.24449 0.78638 0.27308
 O114 O 0.23898 0.72927 0.32899
 Cu115 Cu 0.26108 0.73684 0.24033
 Cu116 Cu 0.24034 0.75979 0.30695
 C117 C 0.24566 0.70985 0.31004
 C118 C 0.25472 0.78676 0.23641
 C119 C 0.29025 0.75060 0.30770
 C120 C 0.21116 0.74568 0.23984
 O121 O 0.74289 0.27684 0.68830
 O122 O 0.74239 0.22006 0.74849
 O123 O 0.71241 0.24362 0.69615
 O124 O 0.77269 0.25217 0.73745
 O125 O 0.75693 0.27157 0.79384
 O126 O 0.69630 0.26328 0.75196
 O127 O 0.72591 0.23946 0.80428
 O128 O 0.72656 0.29600 0.74452
 Cu129 Cu 0.74402 0.24620 0.71185
 Cu130 Cu 0.72478 0.26946 0.77929
 C131 C 0.73500 0.29617 0.70641
 C132 C 0.73434 0.22015 0.78697
 C133 C 0.69404 0.25209 0.71666
 C134 C 0.77520 0.26326 0.77269
 O135 O 0.28954 0.72834 0.75486
 O136 O 0.22842 0.72071 0.79554
 O137 O 0.25893 0.69634 0.74505
 O138 O 0.25933 0.75242 0.80617
 O139 O 0.24584 0.77261 0.74881
 O140 O 0.24201 0.71595 0.68984
 O141 O 0.21346 0.74197 0.74072
 O142 O 0.27415 0.74742 0.69784
 Cu143 Cu 0.26056 0.72241 0.78104
 Cu144 Cu 0.24231 0.74638 0.71354
 C145 C 0.29222 0.73913 0.71922
 C146 C 0.21050 0.73056 0.77556
 C147 C 0.25029 0.69658 0.70718
 C148 C 0.25289 0.77206 0.78780
 O149 O 0.25467 0.22336 0.81163
 O150 O 0.24955 0.27953 0.74927
 O151 O 0.22403 0.25991 0.80785
 O152 O 0.28162 0.24348 0.75471
 O153 O 0.26247 0.22868 0.69960
 O154 O 0.20545 0.23980 0.75845
 O155 O 0.22804 0.26213 0.70025
 O156 O 0.23883 0.20485 0.75683
 Cu157 Cu 0.25452 0.25332 0.78602
 Cu158 Cu 0.23192 0.23187 0.72357
 C159 C 0.24770 0.20449 0.79454
 C160 C 0.23722 0.28053 0.71477
 C161 C 0.20491 0.25235 0.79268
 C162 C 0.28177 0.23406 0.71746
 O163 O 0.75707 0.71905 0.73751
 O164 O 0.74635 0.77673 0.79337
 O165 O 0.72290 0.75280 0.73738
 O166 O 0.78068 0.74322 0.79343
 O167 O 0.79887 0.75944 0.73839
 O168 O 0.74055 0.77181 0.68508
 O169 O 0.76559 0.79426 0.74125
 O170 O 0.77413 0.73702 0.68328
 Cu171 Cu 0.74995 0.74614 0.77076
 Cu172 Cu 0.77149 0.76749 0.70658
 C173 C 0.76728 0.71818 0.70075
 C174 C 0.75454 0.79531 0.77722
 C175 C 0.72181 0.76410 0.70178
 C176 C 0.79962 0.74951 0.77527
 C177 C 0.25076 0.05076 0.10080
 C178 C 0.26287 0.07123 0.09018
 C179 C 0.27820 0.06992 0.05357
 C180 C 0.28143 0.04871 0.02937
 C181 C 0.26816 0.02897 0.03882
 C182 C 0.25335 0.03020 0.07564
 C183 C 0.28974 0.08995 0.04060
 C184 C 0.28574 0.11159 0.06217
 C185 C 0.27043 0.11391 0.09854
 C186 C 0.25969 0.09310 0.11389
 C187 C 0.24617 0.09480 0.15252
 C188 C 0.24226 0.11627 0.17433
 C189 C 0.25139 0.13700 0.15848
 C190 C 0.26557 0.13626 0.12035
 C191 C 0.27385 0.15806 0.10532
 C192 C 0.26840 0.17946 0.12751
 C193 C 0.25459 0.17992 0.16539
 C194 C 0.24624 0.15854 0.18068
 H195 H 0.23823 0.05029 0.12720
 H196 H 0.29382 0.04785 0.00233
 H197 H 0.24252 0.01560 0.08395
 H198 H 0.30156 0.08907 0.01273
 H199 H 0.29525 0.12617 0.04979
 H200 H 0.23861 0.07970 0.16737
 H201 H 0.23170 0.11669 0.20379
 H202 H 0.28420 0.15934 0.07612
 H203 H 0.27502 0.19573 0.11480
 H204 H 0.23542 0.15865 0.20982
 C205 C 0.75117 0.56985 0.60461
 C206 C 0.76751 0.58777 0.59914
 C207 C 0.78574 0.58390 0.56744
 C208 C 0.78776 0.56263 0.54341
 C209 C 0.77084 0.54557 0.54816
 C210 C 0.75280 0.54924 0.57934
 C211 C 0.80150 0.60149 0.55909
 C212 C 0.79914 0.62328 0.58047
 C213 C 0.78123 0.62811 0.61214
 C214 C 0.76594 0.60962 0.62311
 C215 C 0.74976 0.61349 0.65792
 C216 C 0.74786 0.63499 0.68017
 C217 C 0.76155 0.65370 0.66814
 C218 C 0.77825 0.65071 0.63365
 C219 C 0.79087 0.67069 0.62157
 C220 C 0.78724 0.69245 0.64331
 C221 C 0.77113 0.69505 0.67798
 C222 C 0.75842 0.67553 0.69031
 H223 H 0.73630 0.57162 0.62682
 H224 H 0.80193 0.55975 0.51961
 H225 H 0.73941 0.53638 0.58330
 H226 H 0.81553 0.59860 0.53503
 H227 H 0.81206 0.63586 0.57203
 H228 H 0.73862 0.59997 0.66955
 H229 H 0.73523 0.63710 0.70677
 H230 H 0.80324 0.67032 0.59480
 H231 H 0.79719 0.70731 0.63292
 H232 H 0.74565 0.67744 0.71672
 C233 C 0.77887 0.91884 0.04807
 C234 C 0.76498 0.91632 0.08579
 C235 C 0.75230 0.93705 0.10245
 C236 C 0.75190 0.95878 0.07982
 C237 C 0.76474 0.96086 0.04090
 C238 C 0.77904 0.94073 0.02667
 C239 C 0.73995 0.93599 0.14156
 C240 C 0.74038 0.91488 0.16513
 C241 C 0.75238 0.89364 0.14947
 C242 C 0.76373 0.89411 0.10805
 C243 C 0.77276 0.87228 0.08962
 C244 C 0.77143 0.85079 0.11152
 C245 C 0.76196 0.85029 0.15323
 C246 C 0.75288 0.87178 0.17333
 C247 C 0.74522 0.87055 0.21691
 C248 C 0.74615 0.84881 0.23903
 C249 C 0.75412 0.82760 0.21825
 C250 C 0.76185 0.82839 0.17526
 H251 H 0.79052 0.90441 0.03524
 H252 H 0.74077 0.97388 0.09209
 H253 H 0.79102 0.94189 -0.00063
 H254 H 0.73011 0.95175 0.15446
 H255 H 0.73028 0.91554 0.19488
 H256 H 0.78018 0.87116 0.05743
 H257 H 0.77829 0.83443 0.09588
 H258 H 0.73922 0.88618 0.23524
 H259 H 0.74044 0.84854 0.27251
 H260 H 0.76862 0.81202 0.15948
 C261 C 0.25921 0.41578 0.57230
 C262 C 0.23962 0.40331 0.58707
 C263 C 0.21624 0.41205 0.57445
 C264 C 0.21275 0.43329 0.55056
 C265 C 0.23238 0.44527 0.53649
 C266 C 0.25554 0.43635 0.54718
 C267 C 0.19650 0.39947 0.58548
 C268 C 0.19945 0.37802 0.60786
 C269 C 0.22229 0.36874 0.62164
 C270 C 0.24248 0.38229 0.61318
 C271 C 0.26471 0.37474 0.63203
 C272 C 0.26731 0.35423 0.65720
 C273 C 0.24819 0.33993 0.66319
 C274 C 0.22555 0.34663 0.64456
 C275 C 0.20727 0.33059 0.64877
 C276 C 0.21125 0.30917 0.67135
 C277 C 0.23330 0.30325 0.69121
 C278 C 0.25168 0.31874 0.68729
 H279 H 0.27758 0.40970 0.57853
 H280 H 0.19481 0.44028 0.54208
 H281 H 0.27087 0.44545 0.53612
 H282 H 0.17859 0.40609 0.57608
 H283 H 0.18328 0.36948 0.61532
 H284 H 0.28031 0.38484 0.62917
 H285 H 0.28463 0.34928 0.67150
 H286 H 0.18996 0.33371 0.63378
 H287 H 0.19691 0.29722 0.67363
 H288 H 0.26898 0.31390 0.70182
 C289 C 0.90646 0.25424 0.03942
 C290 C 0.90037 0.26605 0.07855
 C291 C 0.91745 0.28044 0.09709
 C292 C 0.93857 0.28484 0.07454
 C293 C 0.94341 0.27462 0.03361
 C294 C 0.92766 0.25820 0.01790
 C295 C 0.91317 0.29062 0.13775
 C296 C 0.89241 0.28658 0.16065
 C297 C 0.87454 0.27303 0.14277
 C298 C 0.87810 0.26367 0.10014
 C299 C 0.85896 0.25308 0.07972
 C300 C 0.83730 0.25095 0.10078
 C301 C 0.83413 0.25849 0.14344
 C302 C 0.85289 0.26908 0.16551
 C303 C 0.84934 0.27483 0.20972
 C304 C 0.82787 0.27065 0.23056
 C305 C 0.80915 0.26116 0.20791
 C306 C 0.81230 0.25524 0.16431
 H307 H 0.89548 0.24130 0.02522
 H308 H 0.95057 0.29716 0.08814
 H309 H 0.93174 0.24818 -0.01143
 H310 H 0.92611 0.30166 0.15225
 H311 H 0.89038 0.29520 0.19168
 H312 H 0.85988 0.24711 0.04660
 H313 H 0.82299 0.24300 0.08364
 H314 H 0.86306 0.28187 0.22938
 H315 H 0.82579 0.27508 0.26451
 H316 H 0.79797 0.24738 0.14701
 C317 C 0.41755 0.79450 0.57999
 C318 C 0.41207 0.77343 0.60199
 C319 C 0.43045 0.75477 0.60547
 C320 C 0.45257 0.75654 0.58446
 C321 C 0.45701 0.77696 0.56060
 C322 C 0.43973 0.79619 0.55997
 C323 C 0.42654 0.73435 0.62940
 C324 C 0.40477 0.73195 0.65012
 C325 C 0.38562 0.74964 0.64648
 C326 C 0.38910 0.77032 0.62075
 C327 C 0.36927 0.78677 0.61321
 C328 C 0.34688 0.78336 0.63059
 C329 C 0.34343 0.76383 0.65714
 C330 C 0.36284 0.74699 0.66650
 C331 C 0.35857 0.72829 0.69572
 C332 C 0.33581 0.72603 0.71337
 C333 C 0.31653 0.74209 0.70217
 C334 C 0.32054 0.76104 0.67425
 H335 H 0.40526 0.81014 0.57827
 H336 H 0.46620 0.74182 0.58585
 H337 H 0.44336 0.81259 0.54358
 H338 H 0.44052 0.72004 0.63225
 H339 H 0.40320 0.71550 0.66750
 H340 H 0.37023 0.80211 0.59250
 H341 H 0.33209 0.79625 0.62324
 H342 H 0.37250 0.71534 0.70616
 H343 H 0.33319 0.71139 0.73530
 H344 H 0.30580 0.77385 0.66615
 C345 C 0.08904 0.75302 0.05414
 C346 C 0.09437 0.74278 0.09496
 C347 C 0.07597 0.73146 0.11670
 C348 C 0.05400 0.72852 0.09619
 C349 C 0.04933 0.73755 0.05431
 C350 C 0.06687 0.75078 0.03474
 C351 C 0.07964 0.72298 0.15873
 C352 C 0.10106 0.72593 0.18004
 C353 C 0.12014 0.73653 0.15925
 C354 C 0.11716 0.74387 0.11525
 C355 C 0.13725 0.75120 0.09244
 C356 C 0.15940 0.75195 0.11229
 C357 C 0.16217 0.74638 0.15598
 C358 C 0.14241 0.73930 0.18050
 C359 C 0.14571 0.73569 0.22546
 C360 C 0.16793 0.73821 0.24469
 C361 C 0.18760 0.74388 0.21970
 C362 C 0.18465 0.74794 0.17539
 H363 H 0.10132 0.76367 0.03713
 H364 H 0.04095 0.71834 0.11258
 H365 H 0.06333 0.76007 0.00452
 H366 H 0.06567 0.71424 0.17559
 H367 H 0.10253 0.71876 0.21233
 H368 H 0.13663 0.75552 0.05848
 H369 H 0.17446 0.75727 0.09333
 H370 H 0.13130 0.73156 0.24678
 H371 H 0.16987 0.73532 0.27918
 H372 H 0.19978 0.75288 0.15620
 C373 C 0.57203 0.20753 0.55443
 C374 C 0.57633 0.22535 0.58533
 C375 C 0.55722 0.24250 0.59501
 C376 C 0.53556 0.24279 0.57207
 C377 C 0.53234 0.22603 0.53952
 C378 C 0.55034 0.20789 0.53212
 C379 C 0.55998 0.25966 0.62677
 C380 C 0.58142 0.26046 0.64903
 C381 C 0.60134 0.24441 0.63959
 C382 C 0.59889 0.22686 0.60660
 C383 C 0.61931 0.21203 0.59478
 C384 C 0.64134 0.21424 0.61432
 C385 C 0.64392 0.23091 0.64703
 C386 C 0.62388 0.24585 0.66100
 C387 C 0.62736 0.26168 0.69572
 C388 C 0.64995 0.26327 0.71420
 C389 C 0.66986 0.24925 0.69882
 C390 C 0.66661 0.23288 0.66553
 H391 H 0.58501 0.19306 0.54670
 H392 H 0.52151 0.25668 0.57835
 H393 H 0.54788 0.19433 0.50795
 H394 H 0.54540 0.27276 0.63440
 H395 H 0.58202 0.27454 0.67254
 H396 H 0.61909 0.19898 0.56933
 H397 H 0.65660 0.20276 0.60353
 H398 H 0.61301 0.27299 0.70964
 H399 H 0.65188 0.27589 0.74022
 H400 H 0.68182 0.22163 0.65383
 C401 C 0.77851 0.07501 0.89341
 C402 C 0.76038 0.09348 0.90103
 C403 C 0.74426 0.09038 0.93572
 C404 C 0.74559 0.06914 0.95989
 C405 C 0.76333 0.05088 0.95120
 C406 C 0.77985 0.05413 0.91807
 C407 C 0.72672 0.10839 0.94590
 C408 C 0.72480 0.12958 0.92261
 C409 C 0.74010 0.13346 0.88729
 C410 C 0.75773 0.11482 0.87556
 C411 C 0.77172 0.11789 0.83816
 C412 C 0.76897 0.13856 0.81351
 C413 C 0.75256 0.15725 0.82543
 C414 C 0.73810 0.15519 0.86280
 C415 C 0.72246 0.17516 0.87430
 C416 C 0.72118 0.19601 0.84951
 C417 C 0.73518 0.19770 0.81222
 C418 C 0.75075 0.17815 0.80025
 H419 H 0.79213 0.07619 0.86899
 H420 H 0.73249 0.06662 0.98506
 H421 H 0.79389 0.04035 0.91114
 H422 H 0.71435 0.10611 0.97237
 H423 H 0.71060 0.14238 0.93252
 H424 H 0.78466 0.10433 0.82630
 H425 H 0.78001 0.13999 0.78490
 H426 H 0.71134 0.17553 0.90278
 H427 H 0.70913 0.21093 0.85969
 H428 H 0.76197 0.17941 0.77182
 C429 C 0.25738 0.55661 0.39385
 C430 C 0.24099 0.57688 0.39831
 C431 C 0.22065 0.57472 0.42512
 C432 C 0.21663 0.55290 0.44498
 C433 C 0.23339 0.53329 0.44122
 C434 C 0.25363 0.53527 0.41519
 C435 C 0.20459 0.59442 0.43254
 C436 C 0.20856 0.61654 0.41498
 C437 C 0.22851 0.61969 0.38804
 C438 C 0.24431 0.59928 0.37785
 C439 C 0.26259 0.60185 0.34699
 C440 C 0.26573 0.62370 0.32751
 C441 C 0.25132 0.64402 0.33890
 C442 C 0.23286 0.64247 0.37008
 C443 C 0.21977 0.66390 0.38246
 C444 C 0.22430 0.68568 0.36345
 C445 C 0.24181 0.68687 0.33128
 C446 C 0.25533 0.66596 0.31926
 H447 H 0.27373 0.55687 0.37543
 H448 H 0.20055 0.55126 0.46402
 H449 H 0.26691 0.52034 0.41211
 H450 H 0.18895 0.59282 0.45285
 H451 H 0.19521 0.63077 0.42216
 H452 H 0.27440 0.58706 0.33613
 H453 H 0.27980 0.62475 0.30357
 H454 H 0.20625 0.66457 0.40738
 H455 H 0.21375 0.70164 0.37359
 H456 H 0.26923 0.66681 0.29492
 C457 C 0.28406 0.91784 0.87791
 C458 C 0.26816 0.90022 0.88877
 C459 C 0.25357 0.90411 0.92597
 C460 C 0.25386 0.92551 0.94928
 C461 C 0.27006 0.94256 0.93869
 C462 C 0.28508 0.93850 0.90277
 C463 C 0.23897 0.88654 0.94007
 C464 C 0.23905 0.86476 0.91882
 C465 C 0.25300 0.86014 0.88127
 C466 C 0.26662 0.87871 0.86456
 C467 C 0.27767 0.87541 0.82371
 C468 C 0.27597 0.85443 0.80046
 C469 C 0.26419 0.83553 0.81780
 C470 C 0.25320 0.83781 0.85912
 C471 C 0.24334 0.81743 0.87696
 C472 C 0.24370 0.79603 0.85394
 C473 C 0.25332 0.79444 0.81224
 C474 C 0.26350 0.81422 0.79421
 H475 H 0.29657 0.91573 0.85141
 H476 H 0.24171 0.92869 0.97635
 H477 H 0.29791 0.95129 0.89414
 H478 H 0.22772 0.88944 0.96845
 H479 H 0.22722 0.85214 0.93164
 H480 H 0.28701 0.88920 0.80805
 H481 H 0.28435 0.85284 0.76887
 H482 H 0.23590 0.81725 0.90912
 H483 H 0.23605 0.78073 0.86852
 H484 H 0.27147 0.81276 0.76224
 C485 C 0.79269 0.42877 0.40250
 C486 C 0.77130 0.41700 0.39729
 C487 C 0.74951 0.42913 0.41110
 C488 C 0.74965 0.45097 0.43313
 C489 C 0.77117 0.46154 0.44014
 C490 C 0.79250 0.45082 0.42337
 C491 C 0.72776 0.41922 0.40352
 C492 C 0.72708 0.39750 0.38225
 C493 C 0.74833 0.38428 0.36942
 C494 C 0.77082 0.39370 0.37890
 C495 C 0.79204 0.37909 0.37159
 C496 C 0.79134 0.35613 0.35521
 C497 C 0.76963 0.34720 0.34367
 C498 C 0.74786 0.36147 0.34904
 C499 C 0.72656 0.35234 0.33339
 C500 C 0.72687 0.32961 0.31499
 C501 C 0.74821 0.31515 0.31251
 C502 C 0.76955 0.32401 0.32672
 H503 H 0.80977 0.42150 0.39044
 H504 H 0.73309 0.45961 0.44557
 H505 H 0.80921 0.45911 0.42802
 H506 H 0.71105 0.42841 0.41399
 H507 H 0.70959 0.39093 0.37815
 H508 H 0.80950 0.38453 0.38015
 H509 H 0.80804 0.34532 0.35114
 H510 H 0.70950 0.36256 0.33394
 H511 H 0.71027 0.32309 0.30345
 H512 H 0.78619 0.31297 0.32373
 C513 C 0.05132 0.25582 0.87747
 C514 C 0.07212 0.26755 0.88785
 C515 C 0.07050 0.28409 0.92248
 C516 C 0.04895 0.28858 0.94530
 C517 C 0.02875 0.27597 0.93612
 C518 C 0.03017 0.26001 0.90105
 C519 C 0.09044 0.29601 0.93456
 C520 C 0.11229 0.29143 0.91383
 C521 C 0.11504 0.27486 0.87953
 C522 C 0.09444 0.26326 0.86547
 C523 C 0.09684 0.24782 0.82945
 C524 C 0.11863 0.24338 0.80850
 C525 C 0.13903 0.25384 0.82274
 C526 C 0.13765 0.26963 0.85858
 C527 C 0.15912 0.27923 0.87224
 C528 C 0.18076 0.27359 0.85085
 C529 C 0.18187 0.25823 0.81515
 C530 C 0.16088 0.24845 0.80127
 H531 H 0.05085 0.24275 0.85211
 H532 H 0.04788 0.30239 0.96973
 H533 H 0.01515 0.24972 0.89287
 H534 H 0.08925 0.30879 0.96087
 H535 H 0.12667 0.30148 0.92532
 H536 H 0.08209 0.23898 0.81611
 H537 H 0.11956 0.23141 0.78096
 H538 H 0.15998 0.29090 0.89969
 H539 H 0.19673 0.28133 0.86246
 H540 H 0.16153 0.23639 0.77385
 C541 C 0.57550 0.74951 0.42625
 C542 C 0.58820 0.76947 0.41433
 C543 C 0.57881 0.79240 0.42795
 C544 C 0.55693 0.79512 0.45037
 C545 C 0.54494 0.77512 0.46234
 C546 C 0.55431 0.75239 0.45021
 C547 C 0.59150 0.81243 0.41980
 C548 C 0.61379 0.81017 0.39977
 C549 C 0.62389 0.78777 0.38550
 C550 C 0.61020 0.76737 0.39052
 C551 C 0.61874 0.74569 0.37093
 C552 C 0.64041 0.74372 0.34876
 C553 C 0.65487 0.76292 0.34664
 C554 C 0.64706 0.78511 0.36574
 C555 C 0.66317 0.80347 0.36557
 C556 C 0.68590 0.79987 0.34695
 C557 C 0.69309 0.77820 0.32696
 C558 C 0.67739 0.75988 0.32637
 H559 H 0.58194 0.73141 0.41897
 H560 H 0.54958 0.81274 0.45993
 H561 H 0.54522 0.73677 0.45962
 H562 H 0.58436 0.83002 0.42991
 H563 H 0.62243 0.82650 0.39464
 H564 H 0.60864 0.73004 0.37108
 H565 H 0.64618 0.72676 0.33397
 H566 H 0.65912 0.82047 0.38110
 H567 H 0.69797 0.81412 0.34821
 H568 H 0.68318 0.74286 0.31182
 C569 C 0.91848 0.75548 0.96525
 C570 C 0.91421 0.74302 0.92674
 C571 C 0.93362 0.72898 0.90823
 C572 C 0.95566 0.72584 0.92989
 C573 C 0.95942 0.73738 0.96950
 C574 C 0.94071 0.75302 0.98558
 C575 C 0.93092 0.71809 0.86817
 C576 C 0.90953 0.72141 0.84548
 C577 C 0.88956 0.73487 0.86306
 C578 C 0.89154 0.74460 0.90545
 C579 C 0.87067 0.75490 0.92576
 C580 C 0.84873 0.75640 0.90473
 C581 C 0.84691 0.74866 0.86214
 C582 C 0.86743 0.73839 0.84020
 C583 C 0.86505 0.73263 0.79592
 C584 C 0.84305 0.73646 0.77488
 C585 C 0.82273 0.74549 0.79747
 C586 C 0.82468 0.75142 0.84112
 H587 H 0.90527 0.76807 0.97944
 H588 H 0.96956 0.71367 0.91623
 H589 H 0.94334 0.76409 1.01354
 H590 H 0.94564 0.70722 0.85381
 H591 H 0.90885 0.71237 0.81482
 H592 H 0.87059 0.76112 0.95873
 H593 H 0.83309 0.76414 0.92177
 H594 H 0.88002 0.72594 0.77636
 H595 H 0.84185 0.73212 0.74087
 H596 H 0.80901 0.75899 0.85831
 C597 C 0.42389 0.25203 0.37423
 C598 C 0.40553 0.23614 0.37962
 C599 C 0.40863 0.21852 0.41242
 C600 C 0.42950 0.21669 0.43770
 C601 C 0.44720 0.23287 0.43237
 C602 C 0.44428 0.25038 0.40025
 C603 C 0.39078 0.20297 0.42025
 C604 C 0.36954 0.20480 0.39700
 C605 C 0.36543 0.22210 0.36417
 C606 C 0.38409 0.23743 0.35424
 C607 C 0.38079 0.25335 0.31905
 C608 C 0.35975 0.25486 0.29524
 C609 C 0.34094 0.24091 0.30582
 C610 C 0.34336 0.22446 0.34063
 C611 C 0.32336 0.21138 0.35087
 C612 C 0.30211 0.21445 0.32734
 C613 C 0.29999 0.23048 0.29263
 C614 C 0.31958 0.24356 0.28191
 H615 H 0.42282 0.26639 0.35106
 H616 H 0.43179 0.20293 0.46225
 H617 H 0.45767 0.26320 0.39584
 H618 H 0.39310 0.18939 0.44512
 H619 H 0.35680 0.19200 0.40515
 H620 H 0.39437 0.26471 0.30844
 H621 H 0.35808 0.26734 0.26847
 H622 H 0.32327 0.19901 0.37746
 H623 H 0.28722 0.20418 0.33651
 H624 H 0.31806 0.25623 0.25542
 C625 C 0.78069 0.93922 0.88356
 C626 C 0.76332 0.92226 0.88862
 C627 C 0.74599 0.92628 0.92188
 C628 C 0.74579 0.94686 0.94780
 C629 C 0.76346 0.96312 0.94280
 C630 C 0.78071 0.95920 0.91028
 C631 C 0.72920 0.90958 0.92959
 C632 C 0.72961 0.88852 0.90594
 C633 C 0.74658 0.88356 0.87268
 C634 C 0.76297 0.90122 0.86259
 C635 C 0.77833 0.89738 0.82660
 C636 C 0.77851 0.87656 0.80246
 C637 C 0.76375 0.85852 0.81353
 C638 C 0.74764 0.86161 0.84890
 C639 C 0.73372 0.84231 0.85954
 C640 C 0.73581 0.82102 0.83603
 C641 C 0.75161 0.81824 0.80091
 C642 C 0.76534 0.83722 0.78961
 H643 H 0.79502 0.93723 0.86025
 H644 H 0.73228 0.94992 0.97276
 H645 H 0.79464 0.97147 0.90610
 H646 H 0.71582 0.91260 0.95478
 H647 H 0.71601 0.87661 0.91407
 H648 H 0.79022 0.91039 0.81558
 H649 H 0.79066 0.87441 0.77515
 H650 H 0.72153 0.84278 0.88657
 H651 H 0.72507 0.80659 0.84562
 H652 H 0.77784 0.83518 0.76280
 C653 C 0.25475 0.41979 0.38645
 C654 C 0.23725 0.40277 0.38876
 C655 C 0.21820 0.40704 0.41871
 C656 C 0.21624 0.42810 0.44330
 C657 C 0.23358 0.44481 0.44017
 C658 C 0.25285 0.44041 0.41174
 C659 C 0.20111 0.39034 0.42384
 C660 C 0.20259 0.36924 0.40026
 C661 C 0.22096 0.36425 0.36952
 C662 C 0.23808 0.38169 0.36263
 C663 C 0.25510 0.37778 0.32916
 C664 C 0.25583 0.35732 0.30398
 C665 C 0.24005 0.33966 0.31161
 C666 C 0.22258 0.34261 0.34482
 C667 C 0.20776 0.32353 0.35224
 C668 C 0.21018 0.30266 0.32745
 C669 C 0.22716 0.30020 0.29417
 C670 C 0.24191 0.31889 0.28632
 H671 H 0.27036 0.41756 0.36602
 H672 H 0.20095 0.43170 0.46443
 H673 H 0.26657 0.45303 0.40915
 H674 H 0.18650 0.39353 0.44668
 H675 H 0.18857 0.35744 0.40609
 H676 H 0.26782 0.39054 0.32073
 H677 H 0.26914 0.35519 0.27847
 H678 H 0.19453 0.32387 0.37763
 H679 H 0.19873 0.28837 0.33446
 H680 H 0.25544 0.31699 0.26114
 C681 C 0.27755 0.05284 0.87711
 C682 C 0.26289 0.07298 0.89070
 C683 C 0.25005 0.07122 0.92993
 C684 C 0.25080 0.04957 0.95283
 C685 C 0.26650 0.03002 0.94049
 C686 C 0.27945 0.03197 0.90171
 C687 C 0.23694 0.09121 0.94665
 C688 C 0.23709 0.11323 0.92611
 C689 C 0.24935 0.11577 0.88661
 C690 C 0.26109 0.09497 0.86728
 C691 C 0.27011 0.09670 0.82482
 C692 C 0.26834 0.11821 0.80245
 C693 C 0.25855 0.13902 0.82214
 C694 C 0.24964 0.13828 0.86507
 C695 C 0.24183 0.16020 0.88491
 C696 C 0.24198 0.18172 0.86228
 C697 C 0.24935 0.18200 0.81908
 C698 C 0.25765 0.16064 0.79915
 H699 H 0.28880 0.05309 0.84880
 H700 H 0.23938 0.04821 0.98093
 H701 H 0.29208 0.01763 0.89106
 H702 H 0.22707 0.09001 0.97668
 H703 H 0.22663 0.12785 0.94111
 H704 H 0.27780 0.08142 0.80730
 H705 H 0.27508 0.11863 0.76959
 H706 H 0.23610 0.16132 0.91820
 H707 H 0.23573 0.19818 0.87827
 H708 H 0.26382 0.16095 0.76590
 C709 C 0.78909 0.57461 0.39557
 C710 C 0.77349 0.59445 0.40766
 C711 C 0.75752 0.59149 0.44257
 C712 C 0.75609 0.56902 0.46201
 C713 C 0.77208 0.54968 0.45041
 C714 C 0.78852 0.55276 0.41697
 C715 C 0.74331 0.61101 0.45831
 C716 C 0.74496 0.63363 0.44076
 C717 C 0.76007 0.63736 0.40512
 C718 C 0.77351 0.61719 0.38684
 C719 C 0.78586 0.62023 0.34760
 C720 C 0.78535 0.64230 0.32716
 C721 C 0.77349 0.66240 0.34594
 C722 C 0.76145 0.66044 0.38605
 C723 C 0.75150 0.68174 0.40555
 C724 C 0.75246 0.70378 0.38483
 C725 C 0.76287 0.70520 0.34388
 C726 C 0.77349 0.68451 0.32468
 H727 H 0.80262 0.57571 0.37093
 H728 H 0.74292 0.56678 0.48716
 H729 H 0.80129 0.53824 0.40773
 H730 H 0.73113 0.60889 0.48513
 H731 H 0.73335 0.64777 0.45464
 H732 H 0.79523 0.60555 0.33079
 H733 H 0.79458 0.64368 0.29650
 H734 H 0.74330 0.68197 0.43713
 H735 H 0.74440 0.71971 0.40030
 H736 H 0.78201 0.68573 0.29328
 C737 C 0.08599 0.70391 0.94869
 C738 C 0.09110 0.71872 0.91321
 C739 C 0.07288 0.73604 0.89992
 C740 C 0.05132 0.73938 0.92324
 C741 C 0.04733 0.72560 0.95994
 C742 C 0.06444 0.70731 0.97145
 C743 C 0.07645 0.75038 0.86406
 C744 C 0.09789 0.74832 0.84129
 C745 C 0.11701 0.73205 0.85405
 C746 C 0.11365 0.71719 0.89092
 C747 C 0.13323 0.70196 0.90524
 C748 C 0.15538 0.70146 0.88480
 C749 C 0.15891 0.71572 0.84878
 C750 C 0.13966 0.73076 0.83211
 C751 C 0.14404 0.74409 0.79439
 C752 C 0.16680 0.74343 0.77566
 C753 C 0.18602 0.72946 0.79359
 C754 C 0.18181 0.71530 0.82977
 H755 H 0.09824 0.68955 0.95981
 H756 H 0.03799 0.75339 0.91388
 H757 H 0.06137 0.69602 0.99903
 H758 H 0.06254 0.76356 0.85364
 H759 H 0.09914 0.76041 0.81449
 H760 H 0.13229 0.69065 0.93322
 H761 H 0.17000 0.68985 0.89760
 H762 H 0.13033 0.75525 0.77839
 H763 H 0.16941 0.75434 0.74738
 H764 H 0.19645 0.70413 0.84360
 C765 C 0.56234 0.21527 0.38494
 C766 C 0.58034 0.23007 0.39851
 C767 C 0.57572 0.24438 0.43574
 C768 C 0.55327 0.24508 0.45618
 C769 C 0.53576 0.23005 0.44273
 C770 C 0.54056 0.21515 0.40701
 C771 C 0.59358 0.25772 0.45265
 C772 C 0.61621 0.25683 0.43390
 C773 C 0.62149 0.24339 0.39609
 C774 C 0.60284 0.23087 0.37684
 C775 C 0.60701 0.22028 0.33589
 C776 C 0.62878 0.22159 0.31468
 C777 C 0.64757 0.23254 0.33420
 C778 C 0.64452 0.24280 0.37591
 C779 C 0.66477 0.25186 0.39580
 C780 C 0.68669 0.25179 0.37408
 C781 C 0.68896 0.24316 0.33180
 C782 C 0.66943 0.23339 0.31211
 H783 H 0.56490 0.20290 0.35841
 H784 H 0.54960 0.25706 0.48322
 H785 H 0.52748 0.20311 0.39637
 H786 H 0.59018 0.26865 0.48120
 H787 H 0.62899 0.26774 0.44877
 H788 H 0.59334 0.21174 0.31843
 H789 H 0.63100 0.21373 0.28280
 H790 H 0.66435 0.25866 0.42839
 H791 H 0.70176 0.25915 0.38994
 H792 H 0.67138 0.22620 0.27965
 C793 C 0.90015 0.30091 0.93455
 C794 C 0.89590 0.28688 0.89775
 C795 C 0.91571 0.27305 0.87992
 C796 C 0.93822 0.27202 0.90017
 C797 C 0.94160 0.28436 0.93898
 C798 C 0.92252 0.29966 0.95454
 C799 C 0.91284 0.25965 0.84266
 C800 C 0.89060 0.25908 0.82313
 C801 C 0.87003 0.27168 0.84056
 C802 C 0.87272 0.28582 0.87852
 C803 C 0.85203 0.29774 0.89686
 C804 C 0.82948 0.29574 0.87920
 C805 C 0.82653 0.28200 0.84237
 C806 C 0.84675 0.27009 0.82199
 C807 C 0.84270 0.25684 0.78410
 C808 C 0.81960 0.25496 0.76820
 C809 C 0.79966 0.26620 0.78920
 C810 C 0.80332 0.27992 0.82610
 H811 H 0.88659 0.31297 0.94897
 H812 H 0.95257 0.26011 0.88720
 H813 H 0.92480 0.31061 0.98284
 H814 H 0.92795 0.24918 0.82865
 H815 H 0.89010 0.24800 0.79483
 H816 H 0.85249 0.30836 0.92575
 H817 H 0.81411 0.30493 0.89487
 H818 H 0.85690 0.24765 0.76581
 H819 H 0.81740 0.24440 0.73938
 H820 H 0.78805 0.28891 0.84242
 C821 C 0.42073 0.80048 0.43621
 C822 C 0.41155 0.77849 0.42463
 C823 C 0.42636 0.75726 0.43158
 C824 C 0.44845 0.75807 0.45264
 C825 C 0.45663 0.77989 0.46550
 C826 C 0.44310 0.80109 0.45594
 C827 C 0.41900 0.73533 0.41777
 C828 C 0.39736 0.73396 0.39642
 C829 C 0.38172 0.75447 0.38959
 C830 C 0.38839 0.77687 0.40595
 C831 C 0.37138 0.79668 0.40452
 C832 C 0.34879 0.79480 0.38683
 C833 C 0.34262 0.77347 0.36827
 C834 C 0.35926 0.75319 0.36814
 C835 C 0.35288 0.73257 0.34582
 C836 C 0.33060 0.73199 0.32586
 C837 C 0.31384 0.75164 0.32819
 C838 C 0.31990 0.77234 0.34948
 H839 H 0.41128 0.81750 0.42964
 H840 H 0.45933 0.74171 0.45930
 H841 H 0.44965 0.81813 0.46469
 H842 H 0.43021 0.71905 0.42314
 H843 H 0.39288 0.71631 0.38719
 H844 H 0.37469 0.81371 0.41846
 H845 H 0.33614 0.81036 0.38713
 H846 H 0.36496 0.71688 0.34212
 H847 H 0.32632 0.71594 0.30897
 H848 H 0.30712 0.78780 0.35039
 C849 C 0.29093 0.90202 0.05070
 C850 C 0.27384 0.89838 0.08353
 C851 C 0.25678 0.91756 0.09310
 C852 C 0.25622 0.93882 0.06922
 C853 C 0.27282 0.94184 0.03610
 C854 C 0.29046 0.92348 0.02768
 C855 C 0.24021 0.91548 0.12631
 C856 C 0.24027 0.89483 0.15090
 C857 C 0.25668 0.87507 0.14258
 C858 C 0.27318 0.87655 0.10737
 C859 C 0.28798 0.85599 0.09651
 C860 C 0.28693 0.83480 0.11945
 C861 C 0.27158 0.83336 0.15480
 C862 C 0.25665 0.85362 0.16757
 C863 C 0.24239 0.85156 0.20508
 C864 C 0.24222 0.83004 0.22756
 C865 C 0.25616 0.80979 0.21361
 C866 C 0.27101 0.81166 0.17737
 H867 H 0.30515 0.88884 0.04251
 H868 H 0.24261 0.95306 0.07610
 H869 H 0.30386 0.92570 0.00294
 H870 H 0.22707 0.93007 0.13358
 H871 H 0.22664 0.89470 0.17550
 H872 H 0.30016 0.85545 0.06945
 H873 H 0.29837 0.81938 0.10947
 H874 H 0.23138 0.86630 0.21837
 H875 H 0.23078 0.82921 0.25576
 H876 H 0.28219 0.79620 0.16669
 C877 C 0.78401 0.41673 0.54726
 C878 C 0.76383 0.41210 0.57286
 C879 C 0.74655 0.43135 0.58080
 C880 C 0.74882 0.45376 0.56156
 C881 C 0.76844 0.45766 0.53499
 C882 C 0.78628 0.43920 0.52902
 C883 C 0.72707 0.42816 0.60781
 C884 C 0.72453 0.40640 0.62804
 C885 C 0.74114 0.38662 0.62109
 C886 C 0.76048 0.38923 0.59148
 C887 C 0.77550 0.36879 0.58078
 C888 C 0.77236 0.34675 0.59957
 C889 C 0.75458 0.34426 0.63056
 C890 C 0.73888 0.36420 0.64225
 C891 C 0.72195 0.36096 0.67547
 C892 C 0.72066 0.33887 0.69576
 C893 C 0.73589 0.31918 0.68342
 C894 C 0.75266 0.32194 0.65043
 H895 H 0.79864 0.40356 0.54155
 H896 H 0.73517 0.46818 0.56684
 H897 H 0.80210 0.44220 0.51015
 H898 H 0.71372 0.44276 0.61377
 H899 H 0.70888 0.40546 0.64814
 H900 H 0.78956 0.36909 0.55697
 H901 H 0.78428 0.33155 0.59020
 H902 H 0.70993 0.37528 0.68752
 H903 H 0.70766 0.33723 0.72141
 H904 H 0.76480 0.30688 0.64118
 C905 C 0.78662 0.08154 0.07234
 C906 C 0.76740 0.08967 0.09974
 C907 C 0.74647 0.07680 0.09946
 C908 C 0.74551 0.05603 0.07441
 C909 C 0.76474 0.04831 0.04776
 C910 C 0.78517 0.06124 0.04668
 C911 C 0.72651 0.08481 0.12384
 C912 C 0.72649 0.10580 0.14757
 C913 C 0.74683 0.11931 0.14890
 C914 C 0.76803 0.11040 0.12654
 C915 C 0.78922 0.12225 0.13230
 C916 C 0.78948 0.14271 0.15749
 C917 C 0.76854 0.15263 0.17678
 C918 C 0.74679 0.14130 0.17228
 C919 C 0.72571 0.15295 0.19007
 C920 C 0.72635 0.17486 0.21120
 C921 C 0.74797 0.18550 0.21629
 C922 C 0.76908 0.17424 0.19961
 H923 H 0.80273 0.09083 0.06907
 H924 H 0.72956 0.04613 0.07472
 H925 H 0.80010 0.05555 0.02586
 H926 H 0.71054 0.07495 0.12403
 H927 H 0.71039 0.11067 0.16562
 H928 H 0.80617 0.11577 0.11855
 H929 H 0.80619 0.15117 0.16106
 H930 H 0.70829 0.14616 0.18656
 H931 H 0.70981 0.18371 0.22324
 H932 H 0.78572 0.18290 0.20263
 C933 C 0.20545 0.56681 0.57105
 C934 C 0.22707 0.57759 0.57973
 C935 C 0.24894 0.56473 0.56843
 C936 C 0.24887 0.54298 0.54613
 C937 C 0.22727 0.53313 0.53651
 C938 C 0.20567 0.54473 0.55023
 C939 C 0.27075 0.57364 0.57937
 C940 C 0.27140 0.59481 0.60238
 C941 C 0.25015 0.60847 0.61374
 C942 C 0.22773 0.60043 0.59993
 C943 C 0.20685 0.61578 0.60555
 C944 C 0.20774 0.63795 0.62521
 C945 C 0.22921 0.64523 0.64176
 C946 C 0.25062 0.63027 0.63742
 C947 C 0.27150 0.63747 0.65798
 C948 C 0.27115 0.65891 0.68084
 C949 C 0.25027 0.67407 0.68302
 C950 C 0.22937 0.66728 0.66324
 H951 H 0.18817 0.57475 0.58086
 H952 H 0.26561 0.53361 0.53619
 H953 H 0.18887 0.53698 0.54364
 H954 H 0.28752 0.56396 0.57061
 H955 H 0.28896 0.60057 0.60936
 H956 H 0.18961 0.61148 0.59350
 H957 H 0.19133 0.64932 0.62825
 H958 H 0.28814 0.62654 0.65828
 H959 H 0.28737 0.66381 0.69658
 H960 H 0.21303 0.67882 0.66588
 C961 C 0.92522 0.71412 0.08316
 C962 C 0.91922 0.73151 0.11532
 C963 C 0.93619 0.74845 0.12428
 C964 C 0.95731 0.74890 0.09972
 C965 C 0.96216 0.73247 0.06624
 C966 C 0.94637 0.71462 0.05925
 C967 C 0.93180 0.76519 0.15709
 C968 C 0.91074 0.76584 0.18102
 C969 C 0.89280 0.75003 0.17235
 C970 C 0.89695 0.73283 0.13847
 C971 C 0.87836 0.71817 0.12769
 C972 C 0.85640 0.72036 0.14878
 C973 C 0.85216 0.73683 0.18207
 C974 C 0.87046 0.75144 0.19532
 C975 C 0.86544 0.76701 0.23074
 C976 C 0.84284 0.76886 0.25032
 C977 C 0.82449 0.75534 0.23536
 C978 C 0.82945 0.73903 0.20171
 H979 H 0.91405 0.69984 0.07569
 H980 H 0.96963 0.76259 0.10566
 H981 H 0.95019 0.70129 0.03439
 H982 H 0.94476 0.77811 0.16421
 H983 H 0.90872 0.77960 0.20523
 H984 H 0.87986 0.70530 0.10188
 H985 H 0.84249 0.70909 0.13864
 H986 H 0.87855 0.77802 0.24423
 H987 H 0.83958 0.78141 0.27663
 H988 H 0.81549 0.72814 0.19039
 C989 C 0.40335 0.25317 0.53768
 C990 C 0.39784 0.23685 0.57049
 C991 C 0.41632 0.22000 0.58431
 C992 C 0.43863 0.21832 0.56322
 C993 C 0.44344 0.23399 0.52951
 C994 C 0.42590 0.25194 0.51814
 C995 C 0.41244 0.20492 0.61909
 C996 C 0.39079 0.20664 0.64136
 C997 C 0.37172 0.22285 0.62834
 C998 C 0.37486 0.23712 0.59075
 C999 C 0.35477 0.25065 0.57389
 C1000 C 0.33256 0.25098 0.59409
 C1001 C 0.32972 0.23869 0.63274
 C1002 C 0.34939 0.22490 0.65107
 C1003 C 0.34607 0.21437 0.69209
 C1004 C 0.32405 0.21728 0.71351
 C1005 C 0.30458 0.23007 0.69421
 C1006 C 0.30738 0.24053 0.65369
 H1007 H 0.39085 0.26756 0.52742
 H1008 H 0.45228 0.20469 0.57289
 H1009 H 0.42959 0.26500 0.49367
 H1010 H 0.42646 0.19191 0.62972
 H1011 H 0.38917 0.19432 0.66778
 H1012 H 0.35550 0.26053 0.54408
 H1013 H 0.31756 0.26142 0.57978
 H1014 H 0.36041 0.20465 0.70922
 H1015 H 0.32218 0.20949 0.74528
 H1016 H 0.29238 0.25101 0.63938
 C1017 C 0.05965 0.29784 0.07566
 C1018 C 0.07489 0.27657 0.07545
 C1019 C 0.06629 0.25611 0.05548
 C1020 C 0.04423 0.25762 0.03373
 C1021 C 0.02998 0.27911 0.03268
 C1022 C 0.03743 0.29893 0.05495
 C1023 C 0.07980 0.23429 0.05706
 C1024 C 0.10148 0.23209 0.07896
 C1025 C 0.11100 0.25197 0.09882
 C1026 C 0.09813 0.27480 0.09492
 C1027 C 0.10923 0.29516 0.10940
 C1028 C 0.13184 0.29321 0.12819
 C1029 C 0.14386 0.27090 0.13501
 C1030 C 0.13330 0.24989 0.12150
 C1031 C 0.14524 0.22760 0.13230
 C1032 C 0.16692 0.22636 0.15467
 C1033 C 0.17769 0.24716 0.16604
 C1034 C 0.16624 0.26941 0.15592
 H1035 H 0.06422 0.31378 0.09221
 H1036 H 0.03814 0.24213 0.01724
 H1037 H 0.02632 0.31555 0.05505
 H1038 H 0.07341 0.21863 0.04161
 H1039 H 0.11090 0.21466 0.07835
 H1040 H 0.10117 0.31302 0.10518
 H1041 H 0.13980 0.30936 0.13826
 H1042 H 0.13786 0.21081 0.12531
 H1043 H 0.17543 0.20902 0.16294
 H1044 H 0.17436 0.28553 0.16571
 C1045 C 0.57253 0.74887 0.60647
 C1046 C 0.59024 0.76564 0.60321
 C1047 C 0.58528 0.78581 0.57624
 C1048 C 0.56317 0.78934 0.55512
 C1049 C 0.54610 0.77239 0.55819
 C1050 C 0.55088 0.75225 0.58419
 C1051 C 0.60244 0.80233 0.57021
 C1052 C 0.62476 0.79909 0.58965
 C1053 C 0.63062 0.77941 0.61702
 C1054 C 0.61272 0.76296 0.62530
 C1055 C 0.61771 0.74467 0.65600
 C1056 C 0.63957 0.74216 0.67718
 C1057 C 0.65759 0.75732 0.66792
 C1058 C 0.65361 0.77590 0.63714
 C1059 C 0.67300 0.78994 0.62739
 C1060 C 0.69506 0.78599 0.64817
 C1061 C 0.69852 0.76814 0.67957
 C1062 C 0.67968 0.75386 0.68925
 H1063 H 0.57506 0.73263 0.62497
 H1064 H 0.55921 0.80534 0.53614
 H1065 H 0.53789 0.73889 0.58680
 H1066 H 0.59870 0.81781 0.54970
 H1067 H 0.63687 0.81278 0.58344
 H1068 H 0.60479 0.73229 0.66535
 H1069 H 0.64249 0.72799 0.70081
 H1070 H 0.67192 0.80379 0.60321
 H1071 H 0.70943 0.79711 0.63979
 H1072 H 0.68234 0.73969 0.71296
   
