data_POSCAR
  _audit_creation_date              2014-09-24
  _audit_creation_method            'ToBaCCo'
  _symmetry_space_group_name_H-M    'P1'
  _symmetry_Int_Tables_number       1
  _symmetry_cell_setting            triclinic
  loop_
  _symmetry_equiv_pos_as_xyz
 x,y,z
_cell_length_a 27.8484
_cell_length_b 27.7216
_cell_length_c 39.3180
_cell_angle_alpha 89.985700
_cell_angle_beta 89.995300
_cell_angle_gamma 119.818500
loop_
  _atom_site_label
  _atom_site_type_symbol
  _atom_site_fract_x
  _atom_site_fract_y
  _atom_site_fract_z
C1 C 0.02851 0.51599 1.28103
 C2 C -0.03057 0.48942 1.28131
 C3 C -0.05884 0.47723 1.24993
 C4 C -0.03129 0.49006 1.21834
 C5 C 0.02740 0.51713 1.21838
 C6 C 0.05588 0.52870 1.24938
 H7 H 0.10074 0.55007 1.24860
 H8 H -0.10365 0.45651 1.25008
 C9 C 0.51502 0.48562 1.22026
 C10 C 0.48316 0.51233 1.22009
 C11 C 0.46732 0.52531 1.25106
 C12 C 0.48341 0.51369 1.28266
 C13 C 0.51645 0.48761 1.28254
 C14 C 0.53129 0.47379 1.25141
 H15 H 0.55550 0.45292 1.25143
 H16 H 0.44367 0.54673 1.25026
 C17 C 0.52057 1.02997 1.21840
 C18 C 0.48238 0.97185 1.21845
 C19 C 0.46450 0.94329 1.24949
 C20 C 0.48456 0.96996 1.28100
 C21 C 0.52262 1.02807 1.28096
 C22 C 0.54061 1.05664 1.24995
 H23 H 0.56742 1.10137 1.25077
 H24 H 0.43760 0.89856 1.24874
 C25 C 0.97136 0.49020 0.71938
 C26 C 1.02971 0.51740 0.71913
 C27 C 1.05848 0.53066 0.75008
 C28 C 1.03089 0.51876 0.78170
 C29 C 0.97200 0.49224 0.78164
 C30 C 0.94343 0.47825 0.75055
 H31 H 0.89855 0.45702 0.75062
 H32 H 1.10333 0.55234 0.74926
 C33 C 0.51145 0.48218 0.71751
 C34 C 0.48273 0.51230 0.71756
 C35 C 0.46835 0.52637 0.74873
 C36 C 0.48237 0.51174 0.77982
 C37 C 0.51198 0.48253 0.77977
 C38 C 0.52586 0.46795 0.74862
 H39 H 0.54829 0.44527 0.74858
 H40 H 0.44596 0.54910 0.74879
 C41 C 0.48689 -0.03157 0.78292
 C42 C 0.51970 0.02754 0.78280
 C43 C 0.53468 0.05617 0.75167
 C44 C 0.51842 0.02811 0.72049
 C45 C 0.48636 -0.03047 0.72031
 C46 C 0.47065 -0.05928 0.75132
 H47 H 0.44690 -0.10431 0.75056
 H48 H 0.55889 0.10122 0.75171
 O49 O 0.41589 0.65078 0.97152
 O50 O 0.41451 0.74296 0.96206
 C51 C 0.38804 0.76793 0.95536
 O52 O 0.34602 0.76107 0.97204
 O53 O 0.25470 0.66824 0.96132
 C54 C 0.23003 0.61702 0.95416
 O55 O 0.23660 0.58127 0.97057
 O56 O 0.32976 0.58291 0.96055
 C57 C 0.38106 0.60943 0.95421
 O58 O 0.41237 0.66428 1.03941
 O59 O 0.41610 0.75901 1.02999
 C60 C 0.38128 0.76645 1.04668
 O61 O 0.33022 0.74247 1.03978
 O62 O 0.23664 0.65190 1.02906
 C63 C 0.22892 0.60909 1.04543
 O64 O 0.25285 0.58172 1.03841
 O65 O 0.34352 0.57840 1.02836
 C66 C 0.38514 0.61272 1.04561
 Cr67 Cr 0.41167 0.70275 1.00074
 Cr68 Cr 0.29340 0.70435 1.00055
 Cr69 Cr 0.29224 0.58415 0.99950
 O70 O 0.33242 0.66376 1.00027
 O71 O 0.58188 0.34579 0.97153
 O72 O 0.58574 0.25486 0.96212
 C73 C 0.61327 0.23100 0.95540
 O74 O 0.65570 0.23895 0.97205
 O75 O 0.74583 0.33298 0.96134
 C76 C 0.76938 0.38416 0.95412
 O77 O 0.76164 0.41920 0.97048
 O78 O 0.66730 0.41507 0.96052
 C79 C 0.61604 0.38751 0.95419
 O80 O 0.58588 0.33263 1.03947
 O81 O 0.58460 0.23909 1.03008
 C82 C 0.62008 0.23274 1.04680
 O83 O 0.67115 0.25765 1.03983
 O84 O 0.76355 0.34952 1.02911
 C85 C 0.77024 0.39199 1.04542
 O86 O 0.74531 0.41836 1.03832
 O87 O 0.65337 0.41916 1.02837
 C88 C 0.61222 0.38420 1.04571
 Cr89 Cr 0.58758 0.29467 1.00079
 Cr90 Cr 0.70748 0.29628 1.00057
 Cr91 Cr 0.70541 0.41487 0.99944
 O92 O 0.66685 0.33526 1.00026
 O93 O 0.65494 0.41504 0.52833
 O94 O 0.74698 0.41448 0.53852
 C95 C 0.77202 0.38824 0.54565
 O96 O 0.76555 0.34586 0.52934
 O97 O 0.67317 0.25389 0.53993
 C98 C 0.62199 0.22878 0.54663
 O99 O 0.58665 0.23501 0.52967
 O100 O 0.58738 0.32837 0.53914
 C101 C 0.61338 0.37997 0.54536
 O102 O 0.66950 0.41139 0.46055
 O103 O 0.76381 0.41558 0.47069
 C104 C 0.77158 0.38057 0.45430
 O105 O 0.74822 0.32942 0.46157
 O106 O 0.65828 0.23532 0.47212
 C107 C 0.61634 0.22778 0.45510
 O108 O 0.58860 0.25145 0.46172
 O109 O 0.58408 0.34195 0.47128
 C110 C 0.61827 0.38394 0.45416
 Cr111 Cr 0.70734 0.41106 0.49955
 Cr112 Cr 0.70973 0.29262 0.50073
 Cr113 Cr 0.58972 0.29073 0.50045
 O114 O 0.66895 0.33149 0.50028
 O115 O 0.34230 0.58285 0.52796
 O116 O 0.25129 0.58570 0.53760
 C117 C 0.22727 0.61299 0.54458
 O118 O 0.23491 0.65575 0.52821
 O119 O 0.32830 0.74656 0.53892
 C120 C 0.37937 0.77066 0.54583
 O121 O 0.41426 0.76340 0.52909
 O122 O 0.41105 0.66889 0.53887
 C123 C 0.38404 0.61731 0.54510
 O124 O 0.32883 0.58689 0.46006
 O125 O 0.23546 0.58500 0.46966
 C126 C 0.22873 0.62063 0.45319
 O127 O 0.25298 0.67180 0.46045
 O128 O 0.34408 0.76479 0.47110
 C129 C 0.38589 0.77138 0.45429
 O130 O 0.41265 0.74677 0.46119
 O131 O 0.41474 0.65506 0.47108
 C132 C 0.38017 0.61344 0.45388
 Cr133 Cr 0.29100 0.58818 0.49885
 Cr134 Cr 0.29159 0.70817 0.49967
 Cr135 Cr 0.41012 0.70705 0.50005
 O136 O 0.33087 0.66778 0.49955
 C137 C 0.43335 0.56284 0.37194
 C138 C 0.39692 0.53948 0.34462
 C139 C 0.41349 0.52321 0.31536
 C140 C 0.46690 0.52946 0.31288
 C141 C 0.50339 0.55361 0.34064
 C142 C 0.48661 0.56991 0.36992
 C143 C 0.41604 0.58063 0.40157
 C144 C 0.40025 0.59555 0.42579
 H145 H 0.35556 0.53385 0.34590
 H146 H 0.38363 0.50413 0.29502
 H147 H 0.54573 0.56224 0.33932
 H148 H 0.51549 0.58880 0.39077
 C149 C 0.43466 0.87221 0.37094
 C150 C 0.39674 0.86113 0.34468
 C151 C 0.41318 0.89323 0.31505
 C152 C 0.46793 0.93763 0.31124
 C153 C 0.50584 0.94761 0.33786
 C154 C 0.48923 0.91538 0.36744
 C155 C 0.41791 0.83800 0.40097
 C156 C 0.40354 0.80830 0.42567
 H157 H 0.35438 0.82759 0.34708
 H158 H 0.38232 0.88426 0.29559
 H159 H 0.54902 0.97891 0.33542
 H160 H 0.51923 0.92365 0.38737
 C161 C 0.12808 0.56930 0.36993
 C162 C 0.08230 0.57708 0.36718
 C163 C 0.04952 0.55998 0.33785
 C164 C 0.06161 0.53409 0.31086
 C165 C 0.10877 0.52786 0.31379
 C166 C 0.14136 0.54497 0.34311
 C167 C 0.16222 0.58701 0.39992
 C168 C 0.19193 0.60203 0.42456
 H169 H 0.07215 0.59671 0.38760
 H170 H 0.01540 0.56812 0.33606
 H171 H 0.11947 0.50783 0.29390
 H172 H 0.17687 0.53896 0.34491
 C173 C 0.56506 0.43476 0.37233
 C174 C 0.50895 0.41635 0.36641
 C175 C 0.49285 0.43362 0.33725
 C176 C 0.53283 0.46974 0.31390
 C177 C 0.58895 0.48780 0.31997
 C178 C 0.60496 0.47052 0.34906
 C179 C 0.58211 0.41636 0.40180
 C180 C 0.59790 0.40139 0.42600
 H181 H 0.47773 0.38843 0.38418
 H182 H 0.44931 0.41870 0.33278
 H183 H 0.62034 0.51551 0.30221
 H184 H 0.64844 0.48485 0.35333
 C185 C 0.57013 0.12671 0.37197
 C186 C 0.51405 0.09157 0.36458
 C187 C 0.49854 0.05950 0.33495
 C188 C 0.53903 0.06197 0.31252
 C189 C 0.59522 0.09764 0.31997
 C190 C 0.61067 0.12973 0.34960
 C191 C 0.58606 0.16104 0.40191
 C192 C 0.59967 0.19081 0.42654
 H193 H 0.48236 0.08928 0.38157
 H194 H 0.45499 0.03287 0.32941
 H195 H 0.62702 0.10027 0.30295
 H196 H 0.65417 0.15707 0.35499
 C197 C 0.87180 0.43420 0.37091
 C198 C 0.91729 0.42615 0.36722
 C199 C 0.94953 0.44399 0.33767
 C200 C 0.93710 0.47082 0.31141
 C201 C 0.89034 0.47750 0.31534
 C202 C 0.85831 0.45966 0.34486
 C203 C 0.83803 0.41558 0.40103
 C204 C 0.80843 0.39987 0.42571
 H205 H 0.92762 0.40571 0.38706
 H206 H 0.98346 0.43569 0.33512
 H207 H 0.87950 0.49836 0.29606
 H208 H 0.82306 0.46593 0.34740
 C209 C 0.56335 0.43659 1.12882
 C210 C 0.57873 0.49248 1.13381
 C211 C 0.56311 0.50874 1.16358
 C212 C 0.53174 0.46914 1.18852
 C213 C 0.51664 0.41324 1.18336
 C214 C 0.53228 0.39707 1.15365
 C215 C 0.58043 0.41959 1.09876
 C216 C 0.59481 0.40406 1.07416
 H217 H 0.60307 0.52345 1.11484
 H218 H 0.57573 0.55216 1.16729
 H219 H 0.49248 0.38212 1.20229
 H220 H 0.52035 0.35377 1.15011
 C221 C 0.87154 0.44266 1.12837
 C222 C 0.91944 0.49480 1.13020
 C223 C 0.95160 0.51090 1.15981
 C224 C 0.93663 0.47481 1.18808
 C225 C 0.88759 0.42275 1.18589
 C226 C 0.85566 0.40684 1.15631
 C227 C 0.83756 0.42596 1.09829
 C228 C 0.80762 0.41086 1.07376
 H229 H 0.93160 0.52330 1.10890
 H230 H 0.98699 0.55243 1.16087
 H231 H 0.87471 0.39320 1.20664
 H232 H 0.81855 0.36641 1.15522
 C233 C 0.56996 0.12980 1.12925
 C234 C 0.51563 0.08593 1.13240
 C235 C 0.49925 0.05273 1.16161
 C236 C 0.53714 0.06250 1.18822
 C237 C 0.59172 0.10736 1.18465
 C238 C 0.60791 0.14039 1.15541
 C239 C 0.58664 0.16498 1.09963
 C240 C 0.60142 0.19538 1.07525
 H241 H 0.48563 0.07789 1.11252
 H242 H 0.45619 0.02102 1.16384
 H243 H 0.62262 0.11614 1.20403
 H244 H 0.65012 0.17432 1.15325
 C245 C 0.43409 0.55982 1.12838
 C246 C 0.41841 0.50394 1.13380
 C247 C 0.43440 0.48815 1.16362
 C248 C 0.46639 0.52823 1.18816
 C249 C 0.48192 0.58413 1.18250
 C250 C 0.46593 0.59981 1.15277
 C251 C 0.41660 0.57649 1.09837
 C252 C 0.40218 0.59220 1.07389
 H253 H 0.39351 0.47262 1.11516
 H254 H 0.42153 0.44475 1.16772
 H255 H 0.50661 0.61561 1.20111
 H256 H 0.47814 0.64312 1.14887
 C257 C 0.12653 0.56121 1.12785
 C258 C 0.08674 0.50552 1.13380
 C259 C 0.05426 0.49081 1.16328
 C260 C 0.06116 0.53181 1.18690
 C261 C 0.10139 0.58746 1.18085
 C262 C 0.13376 0.60206 1.15146
 C263 C 0.16112 0.57674 1.09807
 C264 C 0.19138 0.59101 1.07369
 H265 H 0.08105 0.47354 1.11579
 H266 H 0.02385 0.44761 1.16771
 H267 H 0.10739 0.61959 1.19883
 H268 H 0.16459 0.64520 1.14720
 C269 C 0.43282 0.87046 1.12854
 C270 C 0.48907 0.90628 1.13515
 C271 C 0.50531 0.93967 1.16426
 C272 C 0.46537 0.93777 1.18695
 C273 C 0.40902 0.90167 1.18015
 C274 C 0.39287 0.86832 1.15106
 C275 C 0.41588 0.83482 1.09916
 C276 C 0.40068 0.80409 1.07495
 H277 H 0.52033 0.90802 1.11799
 H278 H 0.54899 0.96661 1.16929
 H279 H 0.37762 0.89946 1.19737
 H280 H 0.34924 0.84060 1.14625
 C281 C 0.56086 0.43245 0.62677
 C282 C 0.57726 0.48857 0.63187
 C283 C 0.56080 0.50499 0.66125
 C284 C 0.52760 0.46531 0.68568
 C285 C 0.51115 0.40912 0.68028
 C286 C 0.52761 0.39280 0.65097
 C287 C 0.57935 0.41536 0.59735
 C288 C 0.59485 0.39979 0.57329
 H289 H 0.60325 0.51964 0.61339
 H290 H 0.57455 0.54862 0.66516
 H291 H 0.48561 0.37792 0.69883
 H292 H 0.51484 0.34931 0.64733
 C293 C 0.56904 0.12656 0.62940
 C294 C 0.53816 0.13540 0.65419
 C295 C 0.52158 0.10310 0.68371
 C296 C 0.53553 0.06141 0.68875
 C297 C 0.56659 0.05269 0.66381
 C298 C 0.58315 0.08507 0.63423
 C299 C 0.58737 0.16125 0.59958
 C300 C 0.60296 0.19147 0.57510
 H301 H 0.52718 0.16750 0.65078
 H302 H 0.49768 0.11047 0.70264
 H303 H 0.57839 0.02125 0.66742
 H304 H 0.60733 0.07809 0.61531
 C305 C 0.87391 0.43982 0.62822
 C306 C 0.91359 0.49585 0.63302
 C307 C 0.94556 0.51254 0.66268
 C308 C 0.93822 0.47322 0.68769
 C309 C 0.89831 0.41716 0.68269
 C310 C 0.86640 0.40056 0.65309
 C311 C 0.83949 0.42255 0.59838
 C312 C 0.80939 0.40722 0.57395
 H313 H 0.91945 0.52662 0.61402
 H314 H 0.97567 0.55606 0.66626
 H315 H 0.89206 0.38626 0.70169
 H316 H 0.83565 0.35716 0.64970
 C317 C 0.43431 0.56320 0.62685
 C318 C 0.41778 0.50700 0.63175
 C319 C 0.43385 0.49019 0.66114
 C320 C 0.46677 0.52954 0.68579
 C321 C 0.48329 0.58581 0.68060
 C322 C 0.46722 0.60252 0.65128
 C323 C 0.41646 0.58077 0.59733
 C324 C 0.40162 0.59682 0.57318
 H325 H 0.39206 0.47619 0.61309
 H326 H 0.42005 0.44651 0.66488
 H327 H 0.50864 0.61677 0.69930
 H328 H 0.48011 0.64607 0.64779
 C329 C 0.43400 0.87250 0.62872
 C330 C 0.41980 0.91377 0.63428
 C331 C 0.43701 0.94577 0.66400
 C332 C 0.46877 0.93687 0.68833
 C333 C 0.48289 0.89547 0.68252
 C334 C 0.46568 0.86356 0.65287
 C335 C 0.41495 0.83804 0.59881
 C336 C 0.39885 0.80792 0.57431
 H337 H 0.39504 0.92083 0.61585
 H338 H 0.42512 0.97703 0.66820
 H339 H 0.50735 0.88798 0.70096
 H340 H 0.47675 0.83164 0.64888
 C341 C 0.12551 0.56425 0.62725
 C342 C 0.13319 0.60450 0.65144
 C343 C 0.10174 0.58906 0.68123
 C344 C 0.06210 0.53316 0.68713
 C345 C 0.05447 0.49287 0.66277
 C346 C 0.08601 0.50840 0.63292
 C347 C 0.15973 0.58038 0.59731
 C348 C 0.18980 0.59488 0.57286
 H349 H 0.16381 0.64777 0.64739
 H350 H 0.10820 0.62070 0.69971
 H351 H 0.02455 0.44947 0.66704
 H352 H 0.08001 0.47688 0.61446
 C353 C 0.43321 0.55990 0.87128
 C354 C 0.48910 0.57681 0.86586
 C355 C 0.50536 0.56105 0.83614
 C356 C 0.46575 0.52802 0.81169
 C357 C 0.40982 0.51129 0.81732
 C358 C 0.39365 0.52706 0.84698
 C359 C 0.41622 0.57730 0.90122
 C360 C 0.40077 0.59189 0.92575
 H361 H 0.52008 0.60251 0.88441
 H362 H 0.54878 0.57500 0.83205
 H363 H 0.37869 0.48586 0.79876
 H364 H 0.35034 0.51393 0.85086
 C365 C 0.12856 0.56648 0.87138
 C366 C 0.08240 0.57369 0.86928
 C367 C 0.05000 0.55809 0.83980
 C368 C 0.06296 0.53446 0.81194
 C369 C 0.11024 0.52830 0.81442
 C370 C 0.14242 0.54388 0.84390
 C371 C 0.16290 0.58367 0.90126
 C372 C 0.19289 0.59852 0.92574
 H373 H 0.07188 0.59211 0.89022
 H374 H 0.01620 0.56671 0.83847
 H375 H 0.12153 0.50969 0.79397
 H376 H 0.17821 0.53827 0.84522
 C377 C 0.43782 0.87047 0.87277
 C378 C 0.40117 0.85678 0.84549
 C379 C 0.41744 0.88905 0.81597
 C380 C 0.47074 0.93626 0.81321
 C381 C 0.50749 0.94906 0.84087
 C382 C 0.49103 0.91658 0.87039
 C383 C 0.42109 0.83590 0.90265
 C384 C 0.40631 0.80562 0.92709
 H385 H 0.35989 0.82102 0.84701
 H386 H 0.38742 0.87788 0.79569
 H387 H 0.54979 0.98278 0.83933
 H388 H 0.52013 0.92697 0.89115
 C389 C 0.56225 0.43522 0.87117
 C390 C 0.50629 0.41821 0.86597
 C391 C 0.48965 0.43362 0.83626
 C392 C 0.52895 0.46642 0.81158
 C393 C 0.58495 0.48322 0.81698
 C394 C 0.60149 0.46778 0.84662
 C395 C 0.57968 0.41834 0.90115
 C396 C 0.59562 0.40428 0.92571
 H397 H 0.47554 0.39272 0.88472
 H398 H 0.44617 0.41964 0.83238
 H399 H 0.61586 0.50849 0.79825
 H400 H 0.64486 0.48101 0.85033
 C401 C 0.87190 0.43841 0.87179
 C402 C 0.90995 0.42034 0.86551
 C403 C 0.94278 0.43784 0.83620
 C404 C 0.93803 0.47388 0.81305
 C405 C 0.89957 0.49156 0.81944
 C406 C 0.86681 0.47404 0.84869
 C407 C 0.83696 0.41951 0.90140
 C408 C 0.80667 0.40356 0.92575
 H409 H 0.91396 0.39249 0.88312
 H410 H 0.97170 0.42321 0.83148
 H411 H 0.89519 0.51919 0.80183
 H412 H 0.83733 0.48805 0.85323
 C413 C 0.56579 0.12774 0.87316
 C414 C 0.50994 0.08975 0.86676
 C415 C 0.49471 0.05698 0.83737
 C416 C 0.53531 0.06169 0.81423
 C417 C 0.59119 0.10011 0.82074
 C418 C 0.60633 0.13282 0.85008
 C419 C 0.58166 0.16276 0.90283
 C420 C 0.59576 0.19324 0.92717
 H421 H 0.47820 0.08577 0.88433
 H422 H 0.45136 0.02811 0.83258
 H423 H 0.62306 0.10446 0.80316
 H424 H 0.64962 0.16228 0.85469
   
