data_POSCAR
  _audit_creation_date              2014-09-24
  _audit_creation_method            'ToBaCCo'
  _symmetry_space_group_name_H-M    'P1'
  _symmetry_Int_Tables_number       1
  _symmetry_cell_setting            triclinic
  loop_
  _symmetry_equiv_pos_as_xyz
 x,y,z
_cell_length_a 29.8107
_cell_length_b 29.8120
_cell_length_c 29.7479
_cell_angle_alpha 90.160100
_cell_angle_beta 90.153000
_cell_angle_gamma 90.001400
loop_
  _atom_site_label
  _atom_site_type_symbol
  _atom_site_fract_x
  _atom_site_fract_y
  _atom_site_fract_z
O1 O 0.56309 0.11261 0.00289
 O2 O 0.61246 0.05375 0.00253
 C3 C 0.60346 0.09630 0.00327
 O4 O 0.43736 -0.00334 0.11440
 O5 O 0.38795 -0.00105 0.05529
 C6 C 0.39694 -0.00279 0.09792
 O7 O 0.56327 0.00188 0.11451
 O8 O 0.61268 -0.00079 0.05578
 C9 C 0.60388 0.00112 0.09851
 O10 O 0.43768 0.11234 -0.00303
 O11 O 0.38795 0.05384 0.00099
 C12 C 0.39718 0.09626 -0.00177
 Zr13 Zr 0.50033 0.07941 0.00226
 O14 O 0.49577 0.12559 0.05636
 O15 O 0.50200 0.13403 -0.04286
 Zr16 Zr 0.50024 -0.00069 0.08149
 O17 O 0.49554 0.04928 0.13197
 O18 O 0.50505 -0.05114 0.13125
 O19 O 0.54069 0.04548 0.04816
 O20 O 0.46104 0.04517 0.04748
 O21 O 0.43710 0.00224 -0.11183
 O22 O 0.38750 0.00064 -0.05304
 C23 C 0.39664 0.00209 -0.09562
 O24 O 0.56297 -0.11353 -0.00198
 O25 O 0.61261 -0.05483 0.00074
 C26 C 0.60343 -0.09733 -0.00134
 O27 O 0.43755 -0.11378 0.00340
 O28 O 0.38812 -0.05498 0.00176
 C29 C 0.39716 -0.09752 0.00320
 O30 O 0.56295 -0.00272 -0.11189
 O31 O 0.61259 -0.00060 -0.05293
 C32 C 0.60341 -0.00224 -0.09556
 Zr33 Zr 0.50016 -0.00039 -0.07887
 O34 O 0.49536 -0.05050 -0.12923
 O35 O 0.50425 0.04988 -0.12884
 Zr36 Zr 0.50015 -0.08050 0.00095
 O37 O 0.49521 -0.13054 -0.04947
 O38 O 0.50513 -0.13039 0.05126
 Zr39 Zr 0.56730 -0.00064 0.00135
 Zr40 Zr 0.43315 -0.00043 0.00098
 O41 O 0.46110 -0.04626 -0.04498
 O42 O 0.54032 -0.04678 -0.04526
 O43 O 0.46038 0.04601 -0.04486
 O44 O 0.53923 -0.04647 0.04708
 O45 O 0.53913 0.04539 -0.04421
 O46 O 0.45999 -0.04677 0.04729
 H47 H 0.44076 0.06385 0.06610
 H48 H 0.55932 -0.06529 0.06575
 H49 H 0.44091 -0.06492 -0.06380
 H50 H 0.55922 0.06400 -0.06295
 H51 H 0.47957 -0.07195 0.12679
 H52 H 0.47980 -0.12603 0.07223
 H53 H 0.52004 -0.12565 -0.07089
 H54 H 0.52080 -0.07135 -0.12496
 H55 H 0.47907 0.07097 -0.12391
 H56 H 0.50752 0.12149 -0.07309
 H57 H 0.52484 0.12557 0.07249
 H58 H 0.52051 0.07060 0.12730
 O59 O -0.00174 0.56255 -0.11402
 O60 O -0.00139 0.61200 -0.05486
 C61 C -0.00218 0.60297 -0.09753
 O62 O -0.11248 0.43613 0.00200
 O63 O -0.05357 0.38664 -0.00013
 C64 C -0.09612 0.39570 0.00160
 O65 O -0.11295 0.56207 -0.00320
 O66 O -0.05418 0.61164 -0.00066
 C67 C -0.09671 0.60252 -0.00247
 O68 O 0.00416 0.43663 -0.11428
 O69 O -0.00002 0.38714 -0.05577
 C70 C 0.00276 0.39599 -0.09841
 Zr71 Zr -0.00093 0.49944 -0.08132
 O72 O -0.05486 0.49470 -0.12766
 O73 O 0.04388 0.50107 -0.13624
 Zr74 Zr -0.07992 0.49923 -0.00059
 O75 O -0.13071 0.49432 -0.05022
 O76 O -0.12919 0.50407 0.05033
 O77 O -0.04676 0.53956 -0.04712
 O78 O -0.04615 0.46015 -0.04687
 O79 O 0.11312 0.43644 -0.00287
 O80 O 0.05432 0.38693 -0.00174
 C81 C 0.09685 0.39603 -0.00292
 O82 O 0.00409 0.56253 0.11196
 O83 O 0.00147 0.61200 0.05307
 C84 C 0.00348 0.60295 0.09568
 O85 O -0.00191 0.43706 0.11243
 O86 O -0.00068 0.38747 0.05344
 C87 C -0.00199 0.39662 0.09610
 O88 O 0.11338 0.56190 0.00211
 O89 O 0.05463 0.61139 -0.00008
 C90 C 0.09715 0.60232 0.00177
 Zr91 Zr 0.08016 0.49939 -0.00163
 O92 O 0.13317 0.50100 0.04595
 O93 O 0.12793 0.50263 -0.05412
 Zr94 Zr 0.00063 0.49956 0.07905
 O95 O 0.05139 0.49577 0.12876
 O96 O -0.04932 0.50458 0.12929
 Zr97 Zr 0.00008 0.56635 -0.00105
 Zr98 Zr 0.00023 0.43240 -0.00128
 O99 O 0.04625 0.46039 0.04455
 O100 O 0.04665 0.53942 0.04497
 O101 O 0.04598 0.45941 -0.04797
 O102 O -0.04540 0.53847 0.04513
 O103 O 0.04556 0.53844 -0.04728
 O104 O -0.04573 0.45923 0.04541
 H105 H -0.06478 0.43972 -0.06548
 H106 H -0.06389 0.55864 0.06405
 H107 H 0.06442 0.43985 0.06329
 H108 H 0.06420 0.55883 -0.06569
 H109 H -0.12511 0.47823 0.07072
 H110 H -0.07049 0.47941 0.12477
 H111 H 0.07511 0.51733 0.12022
 H112 H 0.12630 0.47946 0.07016
 H113 H 0.12401 0.47567 -0.07324
 H114 H 0.07396 0.50767 -0.12392
 H115 H -0.07103 0.52369 -0.12746
 H116 H -0.12559 0.51864 -0.07216
 O117 O 0.11186 -0.00074 0.43711
 O118 O 0.05303 -0.00073 0.38726
 C119 C 0.09560 -0.00123 0.39653
 O120 O -0.00366 -0.11243 0.56301
 O121 O -0.00094 -0.05353 0.61268
 C122 C -0.00294 -0.09610 0.60353
 O123 O 0.00168 -0.11272 0.43713
 O124 O -0.00098 -0.05404 0.38752
 C125 C 0.00097 -0.09655 0.39662
 O126 O 0.11206 0.00492 0.56309
 O127 O 0.05352 0.00087 0.61275
 C128 C 0.09597 0.00359 0.60362
 Zr129 Zr 0.07909 -0.00016 0.50023
 O130 O 0.12563 -0.05370 0.50483
 O131 O 0.13363 0.04517 0.49900
 Zr132 Zr -0.00107 -0.07958 0.50012
 O133 O 0.04866 -0.13004 0.50495
 O134 O -0.05184 -0.12906 0.49502
 O135 O 0.04525 -0.04619 0.45981
 O136 O 0.04484 -0.04548 0.53944
 O137 O 0.00197 0.11342 0.56332
 O138 O 0.00017 0.05477 0.61306
 C139 C 0.00171 0.09728 0.60387
 O140 O -0.11415 0.00341 0.43714
 O141 O -0.05539 0.00170 0.38766
 C142 C -0.09793 0.00324 0.39667
 O143 O -0.11403 -0.00173 0.56277
 O144 O -0.05518 0.00018 0.61235
 C145 C -0.09770 -0.00134 0.60328
 O146 O -0.00297 0.11328 0.43714
 O147 O -0.00067 0.05439 0.38746
 C148 C -0.00240 0.09694 0.39660
 Zr149 Zr -0.00060 0.08047 0.50018
 O150 O -0.05073 0.13057 0.50472
 O151 O 0.04971 0.13043 0.49620
 Zr152 Zr -0.08088 0.00058 0.49995
 O153 O -0.13087 0.05079 0.50476
 O154 O -0.13069 -0.04985 0.49494
 Zr155 Zr -0.00083 0.00033 0.43294
 Zr156 Zr -0.00079 0.00075 0.56731
 O157 O -0.04656 0.04653 0.53913
 O158 O -0.04699 0.04675 0.45984
 O159 O 0.04568 0.04665 0.54025
 O160 O -0.04680 -0.04533 0.46085
 O161 O 0.04514 0.04603 0.46124
 O162 O -0.04718 -0.04558 0.54033
 H163 H 0.06354 -0.06402 0.55976
 H164 H -0.06559 -0.06395 0.44057
 H165 H -0.06521 0.06531 0.55925
 H166 H 0.06372 0.06476 0.44109
 H167 H -0.07236 -0.12492 0.52077
 H168 H -0.12649 -0.07052 0.52056
 H169 H -0.12597 0.07217 0.47990
 H170 H -0.07162 0.12614 0.47921
 H171 H 0.07092 0.12535 0.52134
 H172 H 0.12130 0.07505 0.49179
 H173 H 0.12547 -0.06993 0.47578
 H174 H 0.07057 -0.12476 0.48062
 C175 C -0.28700 0.18996 0.00384
 C176 C -0.33130 0.20534 0.00378
 C177 C -0.36684 0.17488 0.00375
 C178 C -0.35859 0.12840 0.00377
 C179 C -0.31385 0.11317 0.00388
 C180 C -0.27827 0.14383 0.00392
 C181 C -0.25094 0.22202 0.00372
 C182 C -0.22229 0.25053 0.00358
 C183 C -0.19009 0.28645 0.00336
 C184 C -0.20532 0.33080 0.00409
 C185 C -0.17474 0.36622 0.00367
 C186 C -0.12829 0.35783 0.00252
 C187 C -0.11322 0.31305 0.00182
 C188 C -0.14400 0.27758 0.00224
 H189 H -0.33841 0.24099 0.00368
 H190 H -0.40077 0.18785 0.00360
 H191 H -0.30630 0.07763 0.00385
 H192 H -0.24406 0.13158 0.00393
 H193 H -0.24094 0.33803 0.00488
 H194 H -0.18762 0.40019 0.00411
 H195 H -0.07772 0.30540 0.00082
 H196 H -0.13187 0.24333 0.00161
 C197 C 0.28775 0.80858 0.00424
 C198 C 0.27894 0.85470 0.00360
 C199 C 0.31446 0.88545 0.00349
 C200 C 0.35924 0.87033 0.00400
 C201 C 0.36757 0.82386 0.00480
 C202 C 0.33209 0.79332 0.00489
 C203 C 0.25178 0.77639 0.00410
 C204 C 0.22322 0.74775 0.00396
 C205 C 0.19107 0.71174 0.00378
 C206 C 0.14495 0.72053 0.00283
 C207 C 0.11421 0.68500 0.00243
 C208 C 0.12933 0.64022 0.00294
 C209 C 0.17580 0.63191 0.00403
 C210 C 0.20635 0.66740 0.00443
 H211 H 0.24470 0.86687 0.00307
 H212 H 0.30685 0.92096 0.00287
 H213 H 0.40152 0.81096 0.00518
 H214 H 0.33928 0.75769 0.00536
 H215 H 0.13278 0.75476 0.00229
 H216 H 0.07870 0.69262 0.00157
 H217 H 0.18870 0.59796 0.00441
 H218 H 0.24198 0.66021 0.00512
 C219 C 0.28799 0.19035 -0.00414
 C220 C 0.33236 0.20553 -0.00519
 C221 C 0.36778 0.17492 -0.00467
 C222 C 0.35936 0.12851 -0.00306
 C223 C 0.31456 0.11348 -0.00214
 C224 C 0.27910 0.14428 -0.00268
 C225 C 0.25203 0.22254 -0.00425
 C226 C 0.22337 0.25107 -0.00426
 C227 C 0.19109 0.28693 -0.00419
 C228 C 0.20621 0.33132 -0.00457
 C229 C 0.17555 0.36668 -0.00429
 C230 C 0.12910 0.35820 -0.00360
 C231 C 0.11412 0.31338 -0.00329
 C232 C 0.14499 0.27797 -0.00357
 H233 H 0.33961 0.24113 -0.00626
 H234 H 0.40176 0.18773 -0.00531
 H235 H 0.30686 0.07800 -0.00086
 H236 H 0.24485 0.13218 -0.00182
 H237 H 0.24182 0.33864 -0.00501
 H238 H 0.18834 0.40067 -0.00451
 H239 H 0.07863 0.30565 -0.00273
 H240 H 0.13293 0.24369 -0.00323
 C241 C -0.28738 0.80859 -0.00334
 C242 C -0.27846 0.85468 -0.00227
 C243 C -0.31392 0.88549 -0.00181
 C244 C -0.35873 0.87045 -0.00240
 C245 C -0.36716 0.82401 -0.00361
 C246 C -0.33175 0.79340 -0.00406
 C247 C -0.25145 0.77637 -0.00349
 C248 C -0.22288 0.74777 -0.00355
 C249 C -0.19070 0.71182 -0.00356
 C250 C -0.14459 0.72068 -0.00278
 C251 C -0.11382 0.68519 -0.00257
 C252 C -0.12890 0.64040 -0.00314
 C253 C -0.17536 0.63202 -0.00400
 C254 C -0.20594 0.66746 -0.00420
 H255 H -0.24420 0.86678 -0.00169
 H256 H -0.30622 0.92099 -0.00087
 H257 H -0.40114 0.81119 -0.00405
 H258 H -0.33902 0.75779 -0.00485
 H259 H -0.13245 0.75493 -0.00225
 H260 H -0.07831 0.69285 -0.00188
 H261 H -0.18823 0.59806 -0.00440
 H262 H -0.24156 0.66024 -0.00475
 C263 C 0.00449 -0.28764 0.19000
 C264 C 0.00568 -0.33195 0.20521
 C265 C 0.00562 -0.36744 0.17453
 C266 C 0.00437 -0.35914 0.12798
 C267 C 0.00329 -0.31438 0.11293
 C268 C 0.00336 -0.27885 0.14381
 C269 C 0.00415 -0.25164 0.22230
 C270 C 0.00378 -0.22302 0.25099
 C271 C 0.00328 -0.19078 0.28705
 C272 C 0.00376 -0.20592 0.33148
 C273 C 0.00311 -0.17527 0.36702
 C274 C 0.00194 -0.12883 0.35865
 C275 C 0.00150 -0.11386 0.31377
 C276 C 0.00217 -0.14471 0.27819
 H277 H 0.00649 -0.33911 0.24090
 H278 H 0.00633 -0.40138 0.18738
 H279 H 0.00219 -0.30679 0.07736
 H280 H 0.00237 -0.24463 0.13169
 H281 H 0.00458 -0.24152 0.33870
 H282 H 0.00343 -0.18806 0.40105
 H283 H 0.00059 -0.07838 0.30611
 H284 H 0.00176 -0.13265 0.24387
 C285 C 0.00473 0.28922 0.81001
 C286 C 0.00659 0.33345 0.79475
 C287 C 0.00622 0.36910 0.82527
 C288 C 0.00387 0.36127 0.87207
 C289 C 0.00225 0.31622 0.88697
 C290 C 0.00267 0.28064 0.85614
 C291 C 0.00456 0.25308 0.77779
 C292 C 0.00431 0.22432 0.74920
 C293 C 0.00391 0.19192 0.71322
 C294 C 0.00466 0.20690 0.66872
 C295 C 0.00402 0.17614 0.63326
 C296 C 0.00265 0.12972 0.64175
 C297 C 0.00192 0.11489 0.68667
 C298 C 0.00256 0.14585 0.72217
 H299 H 0.00816 0.34046 0.75906
 H300 H 0.00753 0.40281 0.81180
 H301 H 0.00049 0.30817 0.92242
 H302 H 0.00121 0.24645 0.86832
 H303 H 0.00567 0.24248 0.66141
 H304 H 0.00453 0.18884 0.59920
 H305 H 0.00078 0.07944 0.69439
 H306 H 0.00194 0.13386 0.75650
 C307 C -0.00395 0.28749 0.19029
 C308 C -0.00317 0.27854 0.14408
 C309 C -0.00270 0.31396 0.11324
 C310 C -0.00301 0.35879 0.12836
 C311 C -0.00391 0.36727 0.17492
 C312 C -0.00437 0.33189 0.20556
 C313 C -0.00405 0.25158 0.22254
 C314 C -0.00403 0.22300 0.25116
 C315 C -0.00391 0.19083 0.28715
 C316 C -0.00307 0.14470 0.27822
 C317 C -0.00269 0.11395 0.31374
 C318 C -0.00315 0.12908 0.35865
 C319 C -0.00406 0.17555 0.36711
 C320 C -0.00442 0.20609 0.33164
 H321 H -0.00280 0.24427 0.13189
 H322 H -0.00197 0.30622 0.07766
 H323 H -0.00412 0.40126 0.18783
 H324 H -0.00495 0.33921 0.24126
 H325 H -0.00262 0.13251 0.24388
 H326 H -0.00196 0.07844 0.30601
 H327 H -0.00436 0.18845 0.40117
 H328 H -0.00501 0.24171 0.33895
 C329 C -0.00335 -0.28739 0.80895
 C330 C -0.00320 -0.33169 0.79339
 C331 C -0.00297 -0.36726 0.82380
 C332 C -0.00286 -0.35906 0.87041
 C333 C -0.00306 -0.31432 0.88582
 C334 C -0.00329 -0.27871 0.85522
 C335 C -0.00356 -0.25129 0.77695
 C336 C -0.00373 -0.22258 0.74850
 C337 C -0.00391 -0.19029 0.71264
 C338 C -0.00481 -0.20543 0.66813
 C339 C -0.00472 -0.17479 0.63277
 C340 C -0.00369 -0.12833 0.64137
 C341 C -0.00293 -0.11334 0.68632
 C342 C -0.00303 -0.14420 0.72174
 H343 H -0.00320 -0.33878 0.75764
 H344 H -0.00278 -0.40118 0.81068
 H345 H -0.00296 -0.30679 0.92146
 H346 H -0.00338 -0.24451 0.86762
 H347 H -0.00547 -0.24105 0.66072
 H348 H -0.00529 -0.18761 0.59868
 H349 H -0.00212 -0.07785 0.69413
 H350 H -0.00232 -0.13213 0.75611
 C351 C 0.28725 0.00421 0.81005
 C352 C 0.33158 0.00489 0.79484
 C353 C 0.36707 0.00430 0.82552
 C354 C 0.35875 0.00303 0.87205
 C355 C 0.31398 0.00233 0.88710
 C356 C 0.27846 0.00293 0.85623
 C357 C 0.25123 0.00461 0.77778
 C358 C 0.22256 0.00488 0.74914
 C359 C 0.19027 0.00509 0.71313
 C360 C 0.20537 0.00632 0.66869
 C361 C 0.17469 0.00610 0.63318
 C362 C 0.12827 0.00464 0.64157
 C363 C 0.11333 0.00351 0.68645
 C364 C 0.14420 0.00375 0.72201
 H365 H 0.33875 0.00582 0.75916
 H366 H 0.40102 0.00473 0.81268
 H367 H 0.30637 0.00122 0.92266
 H368 H 0.24423 0.00232 0.86835
 H369 H 0.24096 0.00728 0.66146
 H370 H 0.18745 0.00685 0.59915
 H371 H 0.07786 0.00228 0.69412
 H372 H 0.13217 0.00273 0.75632
 C373 C -0.28933 0.00320 0.19005
 C374 C -0.33357 0.00430 0.20535
 C375 C -0.36921 0.00371 0.17485
 C376 C -0.36138 0.00196 0.12801
 C377 C -0.31633 0.00094 0.11307
 C378 C -0.28073 0.00154 0.14389
 C379 C -0.25320 0.00363 0.22227
 C380 C -0.22450 0.00396 0.25092
 C381 C -0.19220 0.00430 0.28699
 C382 C -0.20732 0.00509 0.33144
 C383 C -0.17666 0.00503 0.36699
 C384 C -0.13020 0.00415 0.35865
 C385 C -0.11523 0.00352 0.31376
 C386 C -0.14609 0.00358 0.27817
 H387 H -0.34059 0.00555 0.24106
 H388 H -0.40292 0.00456 0.18836
 H389 H -0.30827 -0.00040 0.07758
 H390 H -0.24653 0.00065 0.13168
 H391 H -0.24293 0.00561 0.33867
 H392 H -0.18946 0.00548 0.40102
 H393 H -0.07974 0.00278 0.30612
 H394 H -0.13402 0.00293 0.24386
 C395 C 0.28726 -0.00368 0.19141
 C396 C 0.33156 -0.00456 0.20694
 C397 C 0.36712 -0.00447 0.17653
 C398 C 0.35892 -0.00347 0.12993
 C399 C 0.31418 -0.00273 0.11454
 C400 C 0.27857 -0.00284 0.14515
 C401 C 0.25117 -0.00334 0.22342
 C402 C 0.22244 -0.00297 0.25186
 C403 C 0.19009 -0.00250 0.28766
 C404 C 0.14400 -0.00223 0.27846
 C405 C 0.11306 -0.00182 0.31381
 C406 C 0.12795 -0.00170 0.35878
 C407 C 0.17440 -0.00186 0.36751
 C408 C 0.20513 -0.00227 0.33221
 H409 H 0.33865 -0.00519 0.24269
 H410 H 0.40104 -0.00500 0.18961
 H411 H 0.30663 -0.00194 0.07891
 H412 H 0.24437 -0.00214 0.13278
 H413 H 0.13201 -0.00234 0.24406
 H414 H 0.07759 -0.00157 0.30591
 H415 H 0.18715 -0.00164 0.40163
 H416 H 0.24074 -0.00241 0.33970
 C417 C -0.28755 -0.00356 0.81016
 C418 C -0.33196 -0.00415 0.79493
 C419 C -0.36730 -0.00388 0.82560
 C420 C -0.35878 -0.00299 0.87216
 C421 C -0.31394 -0.00250 0.88724
 C422 C -0.27855 -0.00278 0.85637
 C423 C -0.25170 -0.00349 0.77786
 C424 C -0.22321 -0.00333 0.74916
 C425 C -0.19116 -0.00304 0.71307
 C426 C -0.20657 -0.00361 0.66863
 C427 C -0.17616 -0.00312 0.63306
 C428 C -0.12968 -0.00209 0.64135
 C429 C -0.11440 -0.00150 0.68623
 C430 C -0.14501 -0.00199 0.72187
 H431 H -0.33931 -0.00472 0.75924
 H432 H -0.40131 -0.00423 0.81272
 H433 H -0.30617 -0.00180 0.92282
 H434 H -0.24426 -0.00229 0.86851
 H435 H -0.24221 -0.00438 0.66144
 H436 H -0.18915 -0.00347 0.59904
 H437 H -0.07886 -0.00058 0.69387
 H438 H -0.13273 -0.00150 0.75618
   
