data_POSCAR
  _audit_creation_date              2014-09-24
  _audit_creation_method            'ToBaCCo'
  _symmetry_space_group_name_H-M    'P1'
  _symmetry_Int_Tables_number       1
  _symmetry_cell_setting            triclinic
  loop_
  _symmetry_equiv_pos_as_xyz
 x,y,z
_cell_length_a 36.9951
_cell_length_b 36.3980
_cell_length_c 32.9243
_cell_angle_alpha 90.214500
_cell_angle_beta 89.295000
_cell_angle_gamma 90.081400
loop_
  _atom_site_label
  _atom_site_type_symbol
  _atom_site_fract_x
  _atom_site_fract_y
  _atom_site_fract_z
C1 C 0.19776 0.18313 0.24257
 N2 N 0.22084 0.16275 0.21925
 C3 C 0.24076 0.17883 0.18903
 N4 N 0.23692 0.21554 0.18179
 C5 C 0.21370 0.23589 0.20506
 N6 N 0.19455 0.21954 0.23529
 C7 C -0.19396 0.82244 0.18855
 N8 N -0.17997 0.78840 0.18142
 C9 C -0.19448 0.76634 0.15239
 N10 N -0.22292 0.77850 0.13046
 C11 C -0.23758 0.81203 0.13801
 N12 N -0.22287 0.83388 0.16701
 C13 C -0.17890 0.19880 -0.20100
 N14 N -0.21496 0.19500 -0.19330
 C15 C -0.23131 0.21546 -0.16356
 N16 N -0.21151 0.24021 -0.14224
 C17 C -0.17562 0.24416 -0.14995
 N18 N -0.15941 0.22302 -0.17878
 C19 C 0.20442 0.80447 -0.24292
 N20 N 0.18330 0.77746 -0.22683
 C21 C 0.19609 0.75547 -0.19705
 N22 N 0.22984 0.76119 -0.18257
 C23 C 0.25105 0.78829 -0.19808
 N24 N 0.23827 0.80976 -0.22846
 C25 C 0.17144 1.18080 0.75950
 N26 N 0.16196 1.21524 0.77206
 C27 C 0.18166 1.23261 0.80109
 N28 N 0.21057 1.21547 0.81728
 C29 C 0.22027 1.18146 0.80475
 N30 N 0.20052 1.16406 0.77608
 C31 C 0.81765 0.79275 0.78273
 N32 N 0.79502 0.81786 0.79984
 C33 C 0.78231 0.81344 0.83824
 N34 N 0.79232 0.78358 0.86001
 C35 C 0.81515 0.75836 0.84327
 N36 N 0.82797 0.76323 0.80474
 C37 C 0.18968 0.82548 1.25756
 N38 N 0.18160 0.79428 1.23687
 C39 C 0.20219 0.78345 1.20450
 N40 N 0.23149 0.80383 1.19339
 C41 C 0.24028 0.83462 1.21471
 N42 N 0.21899 0.84555 1.24627
 C43 C 0.79396 1.19629 1.21861
 N44 N 0.76361 1.18599 1.19885
 C45 C 0.75636 1.19946 1.16140
 N46 N 0.77988 1.22336 1.14356
 C47 C 0.81020 1.23422 1.16323
 N48 N 0.81708 1.22056 1.20075
 O49 O 0.53929 0.96659 0.90179
 O50 O 0.46292 0.98730 1.07145
 O51 O 0.56494 0.98582 1.01221
 O52 O 0.45300 0.94328 0.94640
 O53 O 0.51531 0.95868 1.03266
 O54 O 0.47213 0.96695 0.89074
 O55 O 0.45109 0.95693 1.01665
 O56 O 0.57624 0.99766 0.94036
 C57 C 0.56961 0.97043 0.91762
 C58 C 0.44305 0.96302 1.05343
 C59 C 0.54903 0.95836 1.02802
 C60 C 0.45713 0.94124 0.90913
 O61 O 0.47163 1.03772 0.89205
 O62 O 0.52639 1.02007 1.06482
 O63 O 0.54623 1.06599 0.94952
 O64 O 0.42575 1.02580 1.00092
 O65 O 0.47109 1.04781 1.03236
 O66 O 0.53977 1.03734 0.89358
 O67 O 0.42809 1.01138 0.92781
 O68 O 0.53730 1.05689 1.01835
 Co69 Co 0.50520 1.00257 0.90170
 Co70 Co 0.49205 1.00276 1.02989
 Co71 Co 0.55191 1.02493 0.97952
 Co72 Co 0.44455 0.98637 0.97272
 O73 O 0.49985 1.00543 0.96844
 C74 C 0.43874 1.03405 0.90101
 C75 C 0.54167 1.04873 1.05441
 C76 C 0.54927 1.06539 0.91214
 C77 C 0.43894 1.05056 1.02270
 O78 O 0.06692 0.45990 0.09545
 O79 O 0.06397 0.51731 -0.03939
 O80 O 0.05973 0.45128 -0.03364
 O81 O 0.04256 0.57339 0.06335
 O82 O 0.02398 0.47309 -0.07871
 O83 O 0.06914 0.52930 0.09757
 O84 O 0.04475 0.56822 -0.01173
 O85 O 0.08258 0.44924 0.03348
 C86 C 0.08960 0.44792 0.07006
 C87 C 0.06788 0.55112 -0.03329
 C88 C 0.04682 0.44807 -0.06896
 C89 C 0.06672 0.56239 0.08754
 O90 O 0.00063 0.53216 0.11306
 O91 O -0.02756 0.48106 -0.02797
 O92 O 0.01839 0.42287 0.06233
 O93 O -0.02795 0.54876 -0.00837
 O94 O 0.00181 0.53677 -0.06065
 O95 O -0.00401 0.46368 0.10403
 O96 O -0.02781 0.55250 0.06140
 O97 O -0.00656 0.43053 -0.00505
 Co98 Co 0.03225 0.49635 0.09552
 Co99 Co 0.01864 0.49801 -0.03152
 Co100 Co 0.03714 0.44374 0.01553
 Co101 Co 0.00934 0.55593 0.02604
 O102 O 0.02359 0.50009 0.02952
 C103 C -0.02515 0.54969 0.09857
 C104 C -0.03232 0.44811 -0.01972
 C105 C -0.00341 0.43170 0.09048
 C106 C -0.02370 0.55375 -0.04529
 O107 O 1.05672 -0.00271 0.46570
 O108 O 0.90532 0.04062 0.52492
 O109 O 0.96206 0.05518 0.43822
 O110 O 0.99822 0.02216 0.57675
 O111 O 0.90844 0.03508 0.44865
 O112 O 1.03012 0.03486 0.52397
 O113 O 0.93227 0.01398 0.57598
 O114 O 1.02153 0.03871 0.44908
 C115 C 1.05228 0.02549 0.44576
 C116 C 0.91147 0.03846 0.56215
 C117 C 0.92910 0.05966 0.43590
 C118 C 1.02032 0.04288 0.55904
 O119 O 1.05786 -0.02783 0.53890
 O120 O 0.90605 -0.03613 0.45461
 O121 O 1.00679 -0.03339 0.42602
 O122 O 0.94279 -0.05719 0.55381
 O123 O 0.89607 -0.03002 0.53007
 O124 O 1.01963 -0.05796 0.48456
 O125 O 1.00631 -0.05059 0.55728
 O126 O 0.94512 -0.01370 0.41081
 Co127 Co 1.02275 -0.01154 0.50549
 Co128 Co 0.91024 0.00201 0.49018
 Co129 Co 0.98300 0.01049 0.43606
 Co130 Co 0.97004 -0.01635 0.56001
 O131 O 0.96935 -0.00242 0.49618
 C132 C 1.03966 -0.04746 0.56464
 C133 C 0.92043 -0.03642 0.42009
 C134 C 1.01648 -0.06098 0.44674
 C135 C 0.90976 -0.05650 0.54825
 C136 C 1.17621 0.16768 0.27314
 C137 C 1.17694 0.13071 0.28429
 C138 C 1.15130 0.11618 0.31504
 N139 N 1.15561 0.08190 0.33036
 N140 N 1.13215 0.06856 0.35768
 C141 C 1.10341 0.08896 0.37053
 N142 N 1.09905 0.12311 0.35506
 N143 N 1.12258 0.13650 0.32797
 C144 C 1.07634 0.07435 0.39947
 C145 C 1.08123 0.04163 0.42050
 H146 H 1.19642 0.11217 0.27045
 H147 H 1.05153 0.08970 0.40397
 H148 H 1.15754 0.18586 0.28894
 H149 H 1.10644 0.02674 0.41733
 C150 C 0.82157 -0.15345 0.21640
 C151 C 0.84976 -0.16316 0.24196
 C152 C 0.86623 -0.13594 0.26925
 N153 N 0.88061 -0.14674 0.30497
 N154 N 0.89487 -0.12213 0.33023
 C155 C 0.89581 -0.08591 0.32039
 N156 N 0.88211 -0.07522 0.28429
 N157 N 0.86737 -0.09975 0.25929
 C158 C 0.91058 -0.05850 0.34865
 C159 C 0.90755 -0.06349 0.39041
 H160 H 0.85874 -0.19143 0.24355
 H161 H 0.92121 -0.03293 0.33670
 H162 H 0.81086 -0.12577 0.21833
 H163 H 0.89332 -0.08739 0.40197
 C164 C 0.83905 0.17758 0.76974
 C165 C 0.82172 0.15398 0.74275
 C166 C 0.84268 0.13165 0.71343
 N167 N 0.82710 0.11910 0.67894
 N168 N 0.84607 0.09910 0.65221
 C169 C 0.88121 0.09061 0.65920
 N170 N 0.89662 0.10274 0.69393
 N171 N 0.87779 0.12307 0.72042
 C172 C 0.90223 0.06774 0.63054
 C173 C 0.89241 0.06366 0.59007
 H174 H 0.79247 0.15292 0.74186
 H175 H 0.92640 0.05438 0.64138
 H176 H 0.86820 0.18032 0.76750
 H177 H 0.86992 0.07932 0.57846
 C178 C 1.19049 -0.17082 0.72549
 C179 C 1.15456 -0.17201 0.71315
 C180 C 1.13940 -0.14603 0.68369
 N181 N 1.10357 -0.14722 0.67561
 N182 N 1.08907 -0.12381 0.64946
 C183 C 1.10985 -0.09825 0.63029
 N184 N 1.14577 -0.09710 0.63823
 N185 N 1.16029 -0.12051 0.66451
 C186 C 1.09389 -0.07234 0.60116
 C187 C 1.05677 -0.07164 0.59441
 H188 H 1.13636 -0.19210 0.72644
 H189 H 1.11155 -0.05366 0.58476
 H190 H 1.20862 -0.15035 0.71282
 H191 H 1.03916 -0.08993 0.61140
 C192 C 0.26420 1.15701 1.16561
 C193 C 0.28878 1.17097 1.13690
 C194 C 0.31237 1.14641 1.11252
 N195 N 0.34383 1.15910 1.09600
 N196 N 0.36534 1.13688 1.07424
 C197 C 0.35589 1.10125 1.06775
 N198 N 0.32424 1.08878 1.08381
 N199 N 0.30299 1.11083 1.10592
 C200 C 0.37908 1.07582 1.04416
 C201 C 0.41629 1.08078 1.03874
 H202 H 0.29197 1.20038 1.13341
 H203 H 0.36699 1.05018 1.03438
 H204 H 0.26388 1.12764 1.17099
 H205 H 0.42933 1.10479 1.05143
 C206 C 0.28443 0.79538 0.81959
 C207 C 0.30772 0.82287 0.80571
 C208 C 0.33838 0.83593 0.82984
 N209 N 0.36221 0.86012 0.81333
 N210 N 0.38808 0.87501 0.83583
 C211 C 0.39102 0.86646 0.87579
 N212 N 0.36737 0.84200 0.89226
 N213 N 0.34160 0.82691 0.86966
 C214 C 0.41661 0.88631 0.90186
 C215 C 0.44126 0.91124 0.88536
 H216 H 0.30228 0.83685 0.77743
 H217 H 0.41319 0.88444 0.93452
 H218 H 0.29167 0.77983 0.84630
 H219 H 0.44513 0.91220 0.85270
 C220 C 0.73297 0.82393 1.11543
 C221 C 0.71274 0.85480 1.12650
 C222 C 0.68328 0.86885 1.10144
 N223 N 0.65466 0.88591 1.11941
 N224 N 0.62900 0.90118 1.09705
 C225 C 0.63129 0.90042 1.05587
 N226 N 0.66002 0.88351 1.03786
 N227 N 0.68540 0.86768 1.06024
 C228 C 0.60554 0.92126 1.03139
 C229 C 0.57038 0.92819 1.04488
 H230 H 0.71756 0.86841 1.15526
 H231 H 0.61526 0.93356 1.00344
 H232 H 0.72478 0.80787 1.08932
 H233 H 0.55930 0.91302 1.07041
 C234 C 0.73276 1.20943 0.84795
 C235 C 0.71086 1.18311 0.82957
 C236 C 0.67692 1.17041 0.84873
 N237 N 0.65583 1.14575 0.82912
 N238 N 0.62699 1.13118 0.84758
 C239 C 0.61819 1.14058 0.88645
 N240 N 0.63905 1.16557 0.90593
 N241 N 0.66783 1.18029 0.88739
 C242 C 0.58914 1.12118 0.90869
 C243 C 0.56814 1.09458 0.88963
 H244 H 0.71996 1.16934 0.80207
 H245 H 0.58718 1.12475 0.94133
 H246 H 0.72229 1.22441 0.87406
 H247 H 0.56992 1.09156 0.85692
 C248 C 0.20697 0.27509 0.19758
 C249 C 0.21102 0.29156 0.15966
 C250 C 0.19284 0.32670 0.15074
 N251 N 0.19170 0.33938 0.11206
 N252 N 0.17206 0.36890 0.10308
 C253 C 0.15281 0.38689 0.13245
 N254 N 0.15451 0.37462 0.17121
 N255 N 0.17413 0.34515 0.18017
 C256 C 0.12753 0.41674 0.12240
 C257 C 0.12215 0.42787 0.08250
 H258 H 0.22384 0.27653 0.13496
 H259 H 0.10999 0.42722 0.14633
 H260 H 0.19299 0.29000 0.22158
 H261 H 0.13981 0.41744 0.05865
 C262 C -0.15343 0.26928 -0.12587
 C263 C -0.16741 0.30000 -0.10581
 C264 C -0.14340 0.32386 -0.08220
 N265 N -0.15035 0.36032 -0.07792
 N266 N -0.12716 0.38218 -0.05859
 C267 C -0.09653 0.36811 -0.04244
 N268 N -0.09014 0.33158 -0.04593
 N269 N -0.11303 0.30989 -0.06556
 C270 C -0.06895 0.39128 -0.02360
 C271 C -0.06645 0.42919 -0.02899
 H272 H -0.19544 0.30768 -0.10949
 H273 H -0.04686 0.37695 -0.00937
 H274 H -0.12458 0.26424 -0.12544
 H275 H -0.08775 0.44406 -0.04406
 C276 C 0.17233 0.72756 -0.17868
 C277 C 0.18554 0.69930 -0.15453
 C278 C 0.16110 0.67496 -0.13153
 N279 N 0.17329 0.64271 -0.11621
 N280 N 0.15146 0.62123 -0.09412
 C281 C 0.11681 0.63156 -0.08618
 N282 N 0.10479 0.66387 -0.10126
 N283 N 0.12644 0.68510 -0.12364
 C284 C 0.09225 0.60929 -0.06106
 C285 C 0.09680 0.57179 -0.05412
 H286 H 0.21442 0.69522 -0.15199
 H287 H 0.06781 0.62264 -0.05013
 H288 H 0.14354 0.72964 -0.18388
 H289 H 0.11948 0.55720 -0.06758
 C290 C -0.17940 0.72975 0.14336
 C291 C -0.15089 0.71430 0.16481
 C292 C -0.13459 0.67897 0.15234
 N293 N -0.10568 0.66531 0.17236
 N294 N -0.08946 0.63456 0.15958
 C295 C -0.10171 0.61631 0.12638
 N296 N -0.13083 0.62975 0.10676
 N297 N -0.14701 0.66039 0.11952
 C298 C -0.08194 0.58512 0.10837
 C299 C -0.05084 0.56985 0.12495
 H300 H -0.13942 0.72896 0.19028
 H301 H -0.09009 0.57647 0.07829
 H302 H -0.19098 0.71469 0.11822
 H303 H -0.04333 0.57617 0.15589
 C304 C 1.15055 0.16098 0.73217
 C305 C 1.12137 0.17548 0.71120
 C306 C 1.09786 0.15072 0.68809
 N307 N 1.08421 0.16086 0.65171
 N308 N 1.06397 0.13751 0.63040
 C309 C 1.05622 0.10353 0.64516
 N310 N 1.06925 0.09380 0.68185
 N311 N 1.08990 0.11684 0.70279
 C312 C 1.03478 0.07683 0.62224
 C313 C 1.03542 0.07506 0.57997
 H314 H 1.11619 0.20476 0.71108
 H315 H 1.02204 0.05482 0.63929
 H316 H 1.15731 0.13228 0.72738
 H317 H 1.05079 0.09504 0.56260
 C318 C 0.83173 -0.20190 0.74374
 C319 C 0.81963 -0.17347 0.71908
 C320 C 0.83899 -0.16177 0.68224
 N321 N 0.82427 -0.13552 0.65853
 N322 N 0.84303 -0.12123 0.62768
 C323 C 0.87730 -0.13257 0.61948
 N324 N 0.89187 -0.15926 0.64282
 N325 N 0.87302 -0.17369 0.67362
 C326 C 0.89989 -0.11324 0.58942
 C327 C 0.88616 -0.08444 0.56656
 H328 H 0.79617 -0.15751 0.72821
 H329 H 0.92865 -0.11882 0.58884
 H330 H 0.85306 -0.21989 0.73279
 H331 H 0.85726 -0.07977 0.56586
 C332 C 1.16647 -0.16074 0.28738
 C333 C 1.13586 -0.17939 0.30136
 C334 C 1.10731 -0.15886 0.32255
 N335 N 1.09005 -0.17278 0.35573
 N336 N 1.06490 -0.15303 0.37530
 C337 C 1.05569 -0.11915 0.36165
 N338 N 1.07238 -0.10577 0.32798
 N339 N 1.09787 -0.12516 0.30891
 C340 C 1.03018 -0.09548 0.38361
 C341 C 1.02796 -0.09482 0.42585
 H342 H 1.13202 -0.20838 0.29520
 H343 H 1.01880 -0.07293 0.36659
 H344 H 1.17143 -0.13314 0.29858
 H345 H 1.04014 -0.11656 0.44339
 C346 C 0.80169 0.18035 0.25596
 C347 C 0.83373 0.18711 0.27674
 C348 C 0.84425 0.16510 0.31209
 N349 N 0.87808 0.16834 0.32718
 N350 N 0.88896 0.14657 0.35708
 C351 C 0.86634 0.12084 0.37311
 N352 N 0.83232 0.11805 0.35849
 N353 N 0.82148 0.13974 0.32852
 C354 C 0.87888 0.09431 0.40343
 C355 C 0.91511 0.09172 0.41417
 H356 H 0.85305 0.20695 0.26504
 H357 H 0.85976 0.07397 0.41444
 H358 H 0.78270 0.16037 0.26805
 H359 H 0.93441 0.11172 0.40280
 C360 C 0.17182 0.26658 -0.18291
 C361 C 0.14044 0.28548 -0.19289
 C362 C 0.12859 0.31714 -0.16813
 N363 N 0.09776 0.33544 -0.17702
 N364 N 0.08600 0.36263 -0.15304
 C365 C 0.10458 0.37232 -0.11925
 N366 N 0.13541 0.35415 -0.11054
 N367 N 0.14719 0.32714 -0.13453
 C368 C 0.09125 0.40064 -0.09105
 C369 C 0.06145 0.42241 -0.09934
 H370 H 0.12318 0.27560 -0.21694
 H371 H 0.10511 0.40402 -0.06247
 H372 H 0.18882 0.27764 -0.15921
 H373 H 0.04818 0.42030 -0.12839
 C374 C -0.16581 0.25869 0.14443
 C375 C -0.13591 0.27332 0.16438
 C376 C -0.11048 0.29889 0.14461
 N377 N -0.08961 0.32115 0.16772
 N378 N -0.06633 0.34445 0.15047
 C379 C -0.06267 0.34601 0.10942
 N380 N -0.08318 0.32338 0.08626
 N381 N -0.10681 0.30035 0.10352
 C382 C -0.03720 0.37191 0.09021
 C383 C -0.02674 0.40405 0.10993
 H384 H -0.13174 0.26730 0.19619
 H385 H -0.02833 0.36682 0.05926
 H386 H -0.17117 0.26717 0.11357
 H387 H -0.03818 0.41050 0.13955
 C388 C -0.17257 0.72718 -0.13226
 C389 C -0.14959 0.70049 -0.14850
 C390 C -0.13238 0.67233 -0.12353
 N391 N -0.10864 0.64866 -0.14116
 N392 N -0.09100 0.62431 -0.11885
 C393 C -0.09643 0.62269 -0.07803
 N394 N -0.12049 0.64610 -0.06039
 N395 N -0.13815 0.67053 -0.08274
 C396 C -0.07544 0.59728 -0.05300
 C397 C -0.04787 0.57599 -0.06996
 H398 H -0.14233 0.70128 -0.18046
 H399 H -0.08042 0.59675 -0.02051
 H400 H -0.18050 0.72613 -0.10051
 H401 H -0.04251 0.57693 -0.10236
 C402 C 0.19205 0.75318 0.18109
 C403 C 0.16385 0.72997 0.19301
 C404 C 0.14897 0.70150 0.16634
 N405 N 0.13180 0.67220 0.18299
 N406 N 0.11597 0.64725 0.15951
 C407 C 0.11618 0.65096 0.11849
 N408 N 0.13308 0.68048 0.10175
 N409 N 0.14940 0.70523 0.12527
 C410 C 0.09690 0.62426 0.09303
 C411 C 0.09152 0.58852 0.10665
 H412 H 0.15212 0.73244 0.22322
 H413 H 0.08634 0.63285 0.06403
 H414 H 0.20626 0.74787 0.15269
 H415 H 0.10526 0.57949 0.13373
 C416 C 0.25017 1.16297 0.82492
 C417 C 0.26879 1.13372 0.80737
 C418 C 0.29711 1.11480 0.82989
 N419 N 0.32471 1.09791 0.80983
 N420 N 0.35064 1.08104 0.83036
 C421 C 0.34958 1.08012 0.87161
 N422 N 0.32169 1.09650 0.89160
 N423 N 0.29605 1.11377 0.87112
 C424 C 0.37736 1.06091 0.89456
 C425 C 0.41203 1.05556 0.87890
 H426 H 0.26349 1.12557 0.77633
 H427 H 0.37070 1.05176 0.92504
 H428 H 0.25832 1.17334 0.85432
 H429 H 0.41986 1.06779 0.85015
 C430 C 0.27168 0.85731 1.20333
 C431 C 0.29467 0.84825 1.17112
 C432 C 0.32436 0.87247 1.15793
 N433 N 0.34391 0.86358 1.12429
 N434 N 0.36983 0.88587 1.11068
 C435 C 0.37733 0.91791 1.13018
 N436 N 0.35811 0.92661 1.16424
 N437 N 0.33205 0.90430 1.17784
 C438 C 0.40462 0.94346 1.11351
 C439 C 0.41847 0.93783 1.07456
 H440 H 0.29007 0.82324 1.15399
 H441 H 0.41217 0.96767 1.13068
 H442 H 0.27632 0.88232 1.22045
 H443 H 0.40926 0.91443 1.05706
 C444 C 0.72385 1.18750 1.13954
 C445 C 0.69919 1.16266 1.15646
 C446 C 0.66822 1.14800 1.13390
 N447 N 0.64675 1.12196 1.15114
 N448 N 0.61948 1.10722 1.13060
 C449 C 0.61260 1.11808 1.09205
 N450 N 0.63387 1.14437 1.07494
 N451 N 0.66117 1.15907 1.09546
 C452 C 0.58414 1.10049 1.06792
 C453 C 0.56408 1.07057 1.08205
 H454 H 0.70332 1.15248 1.18692
 H455 H 0.58082 1.10965 1.03690
 H456 H 0.71977 1.19779 1.10911
 H457 H 0.56723 1.06105 1.11292
 C458 C 0.75936 0.84218 0.85595
 C459 C 0.73375 0.83527 0.88618
 C460 C 0.70842 0.86428 0.89852
 N461 N 0.67349 0.85587 0.90727
 N462 N 0.64955 0.88245 0.91465
 C463 C 0.65983 0.91830 0.91394
 N464 N 0.69497 0.92664 0.90639
 N465 N 0.71879 0.90010 0.89845
 C466 C 0.63333 0.94772 0.92019
 C467 C 0.59750 0.94286 0.90911
 H468 H 0.72944 0.80751 0.89697
 H469 H 0.64238 0.97395 0.93196
 H470 H 0.76043 0.86912 0.84207
 H471 H 0.58941 0.91761 0.89422
   
