data_POSCAR
  _audit_creation_date              2014-09-24
  _audit_creation_method            'ToBaCCo'
  _symmetry_space_group_name_H-M    'P1'
  _symmetry_Int_Tables_number       1
  _symmetry_cell_setting            triclinic
  loop_
  _symmetry_equiv_pos_as_xyz
 x,y,z
_cell_length_a 35.8096
_cell_length_b 28.0707
_cell_length_c 16.8255
_cell_angle_alpha 90.398000
_cell_angle_beta 90.246000
_cell_angle_gamma 89.203200
loop_
  _atom_site_label
  _atom_site_type_symbol
  _atom_site_fract_x
  _atom_site_fract_y
  _atom_site_fract_z
C1 C 0.67966 0.34562 0.47622
 C2 C 0.68212 0.34879 0.55723
 C3 C 0.71975 0.35302 0.57565
 N4 N 0.74045 0.35141 0.50873
 C5 C 0.71587 0.34731 0.44797
 C6 C 0.73459 0.36038 0.65285
 C7 C 0.77149 0.34574 0.67187
 C8 C 0.79077 0.35830 0.74029
 C9 C 0.82411 0.33348 0.73883
 C10 C 0.82458 0.30668 0.66900
 N11 N 0.79244 0.31474 0.62843
 C12 C 0.85136 0.27098 0.64909
 C13 C 0.85828 0.25724 0.56846
 C14 C 0.88834 0.22940 0.54286
 C15 C 0.88670 0.22782 0.46156
 C16 C 0.85591 0.25501 0.43895
 N17 N 0.83918 0.27386 0.50437
 C18 C 0.84542 0.26432 0.35879
 C19 C 0.81470 0.29388 0.33706
 C20 C 0.80805 0.31145 0.26125
 C21 C 0.77428 0.33559 0.26354
 C22 C 0.76105 0.33178 0.34044
 N23 N 0.78578 0.30629 0.38468
 C24 C 0.72571 0.34817 0.36697
 H25 H 0.65418 0.34196 0.44203
 H26 H 0.65883 0.34778 0.59794
 H27 H 0.78098 0.29341 0.44138
 H28 H 0.78169 0.38239 0.78707
 H29 H 0.84528 0.33512 0.78470
 H30 H 0.91053 0.21375 0.57826
 H31 H 0.90695 0.21005 0.42373
 H32 H 0.76076 0.35311 0.21385
 H33 H 0.78308 0.29521 0.57964
 H34 H 0.82546 0.30696 0.20926
 C35 C 0.30259 0.59439 0.47967
 C36 C 0.30024 0.59930 0.56055
 C37 C 0.28300 0.64299 0.57549
 N38 N 0.27317 0.66383 0.50610
 C39 C 0.28519 0.63423 0.44729
 C40 C 0.27911 0.66499 0.65150
 C41 C 0.25075 0.69955 0.66617
 C42 C 0.24909 0.72977 0.73190
 C43 C 0.21702 0.75682 0.72429
 C44 C 0.19997 0.74252 0.65418
 N45 N 0.22064 0.70764 0.61912
 C46 C 0.16592 0.76105 0.62417
 C47 C 0.15663 0.75809 0.54293
 C48 C 0.12214 0.77034 0.51073
 C49 C 0.12643 0.76980 0.42989
 C50 C 0.16335 0.75713 0.41558
 N51 N 0.18173 0.74971 0.48468
 C52 C 0.18064 0.75799 0.34047
 C53 C 0.21417 0.73278 0.32443
 C54 C 0.23487 0.73620 0.25533
 C55 C 0.26436 0.70434 0.26231
 C56 C 0.26096 0.68276 0.33586
 N57 N 0.23005 0.69980 0.37264
 C58 C 0.28440 0.64606 0.36564
 H59 H 0.31600 0.56484 0.44931
 H60 H 0.31078 0.57385 0.60346
 H61 H 0.21859 0.68626 0.42441
 H62 H 0.26917 0.73288 0.77981
 H63 H 0.20787 0.78458 0.76496
 H64 H 0.09679 0.77987 0.54220
 H65 H 0.10504 0.77866 0.38658
 H66 H 0.28568 0.69773 0.21805
 H67 H 0.21298 0.68784 0.56917
 H68 H 0.22915 0.75888 0.20485
 C69 C 0.36071 0.29898 -0.46957
 C70 C 0.35749 0.30437 -0.55019
 C71 C 0.32014 0.29735 -0.56940
 N72 N 0.30067 0.28882 -0.50239
 C73 C 0.32522 0.29004 -0.44149
 C74 C 0.30267 0.30679 -0.64366
 C75 C 0.26442 0.29691 -0.65592
 C76 C 0.24245 0.31379 -0.71822
 C77 C 0.20973 0.28876 -0.71682
 C78 C 0.21266 0.25703 -0.65415
 N79 N 0.24568 0.26285 -0.61665
 C80 C 0.18819 0.21915 -0.63905
 C81 C 0.18807 0.19785 -0.56243
 C82 C 0.17898 0.15116 -0.54521
 C83 C 0.18187 0.14634 -0.46418
 C84 C 0.19297 0.19005 -0.43427
 N85 N 0.19758 0.22117 -0.49455
 C86 C 0.19887 0.20138 -0.35271
 C87 C 0.22791 0.23301 -0.33082
 C88 C 0.23271 0.25424 -0.25661
 C89 C 0.26583 0.27860 -0.25892
 C90 C 0.28034 0.27198 -0.33443
 N91 N 0.25708 0.24426 -0.37784
 C92 C 0.31494 0.28980 -0.36054
 H93 H 0.38607 0.30326 -0.43522
 H94 H 0.38012 0.31467 -0.58827
 H95 H 0.26247 0.22995 -0.43398
 H96 H 0.24961 0.33982 -0.76249
 H97 H 0.18699 0.29234 -0.75904
 H98 H 0.17249 0.12277 -0.58660
 H99 H 0.17769 0.11384 -0.43137
 H100 H 0.27782 0.29887 -0.21044
 H101 H 0.25690 0.23945 -0.57476
 H102 H 0.21440 0.25268 -0.20576
 C103 C -0.36786 0.69535 -0.51857
 C104 C -0.36283 0.69339 -0.43806
 C105 C -0.32518 0.70153 -0.42349
 N106 N -0.30717 0.70693 -0.49341
 C107 C -0.33302 0.70229 -0.55150
 C108 C -0.30611 0.69673 -0.34964
 C109 C -0.26989 0.71540 -0.33880
 C110 C -0.24688 0.70800 -0.27316
 C111 C -0.21774 0.73939 -0.27932
 C112 C -0.22362 0.76475 -0.34875
 N113 N -0.25535 0.75001 -0.38426
 C114 C -0.20273 0.80402 -0.37413
 C115 C -0.20409 0.81958 -0.45388
 C116 C -0.18883 0.86118 -0.48254
 C117 C -0.19323 0.85997 -0.56343
 C118 C -0.20953 0.81676 -0.58220
 N119 N -0.21674 0.79254 -0.51502
 C120 C -0.21461 0.79808 -0.66012
 C121 C -0.24290 0.76459 -0.67674
 C122 C -0.24581 0.73787 -0.74623
 C123 C -0.27694 0.71026 -0.73894
 C124 C -0.29227 0.72057 -0.66507
 N125 N -0.27145 0.75390 -0.62772
 C126 C -0.32456 0.69919 -0.63362
 H127 H -0.39414 0.69056 -0.54943
 H128 H -0.38492 0.68579 -0.39694
 H129 H -0.27789 0.77077 -0.57406
 H130 H -0.25147 0.68434 -0.22377
 H131 H -0.19552 0.74399 -0.23628
 H132 H -0.17537 0.88940 -0.44982
 H133 H -0.18452 0.88739 -0.60399
 H134 H -0.28642 0.68451 -0.78244
 H135 H -0.26896 0.76749 -0.43072
 H136 H -0.22708 0.73723 -0.79650
 N137 N -0.05178 0.91000 -0.07777
 N138 N -0.07983 0.88073 -0.08941
 N139 N 0.02685 0.93200 -0.14493
 N140 N 0.05233 0.92179 -0.19896
 N141 N 0.02582 0.89859 -0.09092
 N142 N 0.05047 0.86447 -0.10681
 N143 N -0.05140 0.94300 -0.13256
 N144 N -0.07952 0.93732 -0.18270
 C145 C -0.09722 0.89862 -0.15433
 C146 C 0.06680 0.87965 -0.17432
 N147 N 0.04023 1.06765 -0.09346
 N148 N 0.06493 1.09858 -0.11973
 N149 N -0.04291 1.04448 -0.13361
 N150 N -0.06759 1.05675 -0.18804
 N151 N -0.03774 1.07939 -0.08238
 N152 N -0.05859 1.11691 -0.10228
 N153 N 0.03472 1.03404 -0.14712
 N154 N 0.05530 1.04137 -0.21050
 Mn155 Mn -0.00819 0.98836 -0.14001
 C156 C 0.07455 1.08097 -0.19236
 C157 C -0.07750 1.10156 -0.16762
 N158 N 0.03255 0.89873 0.07848
 N159 N 0.05718 0.86368 0.08663
 N160 N -0.03990 0.94386 0.14628
 N161 N -0.06155 0.93754 0.20819
 N162 N -0.04528 0.91052 0.09259
 N163 N -0.07116 0.88069 0.11650
 N164 N 0.03792 0.93204 0.13218
 N165 N 0.06652 0.92063 0.17841
 Mn166 Mn -0.00977 0.90404 0.00059
 C167 C 0.07839 0.87801 0.14873
 C168 C -0.08133 0.89871 0.18830
 N169 N -0.03187 1.07939 0.09150
 N170 N -0.05497 1.11461 0.11202
 N171 N 0.04550 1.03363 0.13302
 N172 N 0.06726 1.04276 0.19416
 N173 N 0.04594 1.06888 0.08176
 N174 N 0.06785 1.10325 0.10888
 N175 N -0.03228 1.04548 0.14503
 N176 N -0.05592 1.05627 0.20237
 Mn177 Mn 0.00423 1.07443 -0.00073
 Mn178 Mn 0.00285 0.98875 0.13934
 Cl179 Cl -0.00265 0.98914 -0.00023
 C180 C -0.06996 1.09926 0.18116
 C181 C 0.08157 1.08554 0.17826
 N182 N 0.52841 0.58352 -0.07152
 N183 N 0.54765 0.62300 -0.07772
 N184 N 0.46253 0.53121 -0.14847
 N185 N 0.44158 0.53671 -0.21221
 N186 N 0.45278 0.56185 -0.09272
 N187 N 0.42466 0.58913 -0.11753
 N188 N 0.53834 0.55252 -0.12654
 N189 N 0.56509 0.56998 -0.17120
 C190 C 0.57084 0.61375 -0.13911
 C191 C 0.41775 0.57220 -0.19181
 N192 N 0.48277 0.39701 -0.10029
 N193 N 0.45733 0.36417 -0.11332
 N194 N 0.55608 0.45248 -0.13255
 N195 N 0.58612 0.45523 -0.17691
 N196 N 0.55928 0.41743 -0.08179
 N197 N 0.59179 0.39507 -0.09062
 N198 N 0.47971 0.43134 -0.15272
 N199 N 0.45186 0.42291 -0.20229
 Mn200 Mn 0.50933 0.49178 -0.14080
 C201 C 0.43841 0.38068 -0.17745
 C202 C 0.60830 0.41948 -0.14986
 N203 N 0.44454 0.55661 0.07815
 N204 N 0.41354 0.58162 0.08933
 N205 N 0.52429 0.54364 0.14968
 N206 N 0.54980 0.55442 0.20324
 N207 N 0.52047 0.57798 0.09758
 N208 N 0.54337 0.61318 0.11437
 N209 N 0.44797 0.52292 0.13161
 N210 N 0.41907 0.52397 0.18031
 Mn211 Mn 0.48632 0.57042 0.00302
 C212 C 0.39766 0.56049 0.15241
 C213 C 0.56138 0.59792 0.18054
 N214 N 0.55117 0.41228 0.08753
 N215 N 0.58337 0.39055 0.10166
 N216 N 0.46659 0.42291 0.12540
 N217 N 0.43957 0.40724 0.17071
 N218 N 0.47528 0.39139 0.07025
 N219 N 0.45481 0.35285 0.07766
 N220 N 0.54323 0.44334 0.14394
 N221 N 0.57013 0.44365 0.19804
 Mn222 Mn 0.51718 0.40391 -0.00622
 Mn223 Mn 0.49551 0.48315 0.13870
 Cl224 Cl 0.50199 0.48735 -0.00126
 C225 C 0.59496 0.41049 0.17058
 C226 C 0.43232 0.36373 0.13988
 C227 C 0.32202 0.33116 0.29680
 C228 C 0.35508 0.31632 0.26870
 C229 C 0.37703 0.34737 0.21760
 C230 C 0.40600 0.33070 0.17576
 H231 H 0.36682 0.28217 0.28648
 H232 H 0.37077 0.38531 0.21831
 H233 H 0.30866 0.36165 0.26891
 H234 H 0.41142 0.29272 0.17096
 C235 C -0.19113 0.81237 0.27685
 C236 C -0.15579 0.82593 0.28828
 C237 C -0.13290 0.84575 0.22467
 C238 C -0.10596 0.87580 0.24507
 H239 H -0.14318 0.82380 0.34681
 H240 H -0.13890 0.83791 0.16280
 H241 H -0.20132 0.81054 0.21620
 H242 H -0.10239 0.88568 0.30707
 C243 C 0.65209 0.67322 0.31405
 C244 C 0.63395 0.63393 0.33642
 C245 C 0.60790 0.60717 0.28572
 C246 C 0.58991 0.62545 0.22281
 H247 H 0.63923 0.61883 0.39450
 H248 H 0.60133 0.57159 0.30540
 H249 H 0.65124 0.68302 0.25197
 H250 H 0.59496 0.66144 0.20337
 C251 C 0.16693 1.20164 0.29575
 C252 C 0.13650 1.17494 0.30191
 C253 C 0.11874 1.15308 0.23149
 C254 C 0.10122 1.11203 0.24087
 H255 H 0.12461 1.16756 0.35944
 H256 H 0.12133 1.16885 0.17320
 H257 H 0.17554 1.21068 0.23606
 H258 H 0.10124 1.09592 0.29932
 C259 C 0.71199 0.38109 -0.28699
 C260 C 0.68597 0.41455 -0.30300
 C261 C 0.65745 0.43178 -0.24681
 C262 C 0.64382 0.40557 -0.18761
 H263 H 0.68470 0.43027 -0.36162
 H264 H 0.64343 0.46481 -0.26285
 H265 H 0.71701 0.37157 -0.22555
 H266 H 0.65648 0.37164 -0.17209
 C267 C 0.14123 0.79107 -0.32494
 C268 C 0.13168 0.77948 -0.25069
 C269 C 0.10524 0.80821 -0.20212
 C270 C 0.09569 0.85344 -0.21852
 H271 H 0.14193 0.74630 -0.22576
 H272 H 0.09299 0.79092 -0.15132
 H273 H 0.12873 0.82197 -0.35284
 H274 H 0.10836 0.87224 -0.26701
 C275 C 0.30364 0.65290 -0.28510
 C276 C 0.33905 0.63867 -0.29635
 C277 C 0.36309 0.62146 -0.23132
 C278 C 0.39192 0.59308 -0.24982
 H279 H 0.35088 0.63859 -0.35551
 H280 H 0.35651 0.62976 -0.16991
 H281 H 0.29418 0.65728 -0.22435
 H282 H 0.39643 0.58302 -0.31146
 C283 C -0.12882 1.24883 -0.28770
 C284 C -0.12328 1.20162 -0.28545
 C285 C -0.10354 1.17760 -0.21949
 C286 C -0.10186 1.13012 -0.21952
 H287 H -0.13445 1.17956 -0.33287
 H288 H -0.08877 1.19814 -0.17489
 H289 H -0.12231 1.26866 -0.23419
 H290 H -0.11638 1.11061 -0.26586
 C291 C 0.67880 0.66807 -0.28972
 C292 C 0.64468 0.67553 -0.26006
 C293 C 0.62578 0.63898 -0.21350
 C294 C 0.59473 0.65006 -0.17376
 H295 H 0.62957 0.70824 -0.27369
 H296 H 0.63582 0.60238 -0.21608
 H297 H 0.69602 0.63977 -0.26485
 H298 H 0.58592 0.68701 -0.16778
 C299 C 0.17737 1.18034 -0.29127
 C300 C 0.14417 1.15939 -0.30204
 C301 C 0.12352 1.13741 -0.23585
 C302 C 0.09746 1.10508 -0.25220
 H303 H 0.13112 1.15863 -0.36010
 H304 H 0.13009 1.14661 -0.17476
 H305 H 0.18759 1.18222 -0.23070
 H306 H 0.09307 1.09438 -0.31355
 C307 C 0.34084 0.31159 -0.30149
 C308 C 0.35416 0.35549 -0.31319
 C309 C 0.38435 0.37828 -0.26707
 C310 C 0.40631 0.35627 -0.21372
 H311 H 0.34344 0.37587 -0.36301
 H312 H 0.39013 0.41486 -0.28245
 H313 H 0.34865 0.29122 -0.24956
 H314 H 0.40143 0.31981 -0.19683
 C315 C -0.17600 0.82605 -0.31759
 C316 C -0.17838 0.87216 -0.29666
 C317 C -0.14901 0.89647 -0.25048
 C318 C -0.12869 0.87498 -0.19395
 H319 H -0.20073 0.89412 -0.32085
 H320 H -0.14434 0.93366 -0.26347
 H321 H -0.15350 0.80376 -0.29499
 H322 H -0.13498 0.83897 -0.17621
 C323 C 0.31300 0.62492 0.31183
 C324 C 0.31483 0.57830 0.29414
 C325 C 0.34621 0.55673 0.24900
 C326 C 0.36386 0.57970 0.19109
 H327 H 0.29457 0.55448 0.31934
 H328 H 0.35480 0.52076 0.26412
 H329 H 0.33356 0.64886 0.28821
 H330 H 0.35368 0.61423 0.17168
 C331 C -0.13179 1.24263 0.29363
 C332 C -0.12903 1.19528 0.28510
 C333 C -0.10427 1.17215 0.22583
 C334 C -0.09717 1.12538 0.23097
 H335 H -0.14407 1.17293 0.32606
 H336 H -0.09038 1.19339 0.18157
 H337 H -0.11767 1.26571 0.25246
 H338 H -0.11015 1.10529 0.27797
 C339 C 0.69734 0.36487 0.30787
 C340 C 0.67581 0.40368 0.32210
 C341 C 0.64306 0.41919 0.27428
 C342 C 0.62982 0.39586 0.21080
 H343 H 0.68117 0.42463 0.37517
 H344 H 0.62816 0.45061 0.29550
 H345 H 0.69437 0.34452 0.25356
 H346 H 0.64413 0.36472 0.18741
 C347 C 0.16314 0.78790 0.27758
 C348 C 0.15395 0.83357 0.29315
 C349 C 0.12934 0.86407 0.24383
 C350 C 0.10802 0.84808 0.18417
 H351 H 0.16283 0.84908 0.34920
 H352 H 0.12596 0.90070 0.26355
 H353 H 0.15727 0.77171 0.22048
 H354 H 0.11033 0.81160 0.16360
   
