data_POSCAR
  _audit_creation_date              2014-09-24
  _audit_creation_method            'ToBaCCo'
  _symmetry_space_group_name_H-M    'P1'
  _symmetry_Int_Tables_number       1
  _symmetry_cell_setting            triclinic
  loop_
  _symmetry_equiv_pos_as_xyz
 x,y,z
_cell_length_a 35.5897
_cell_length_b 37.4342
_cell_length_c 35.5911
_cell_angle_alpha 90.012000
_cell_angle_beta 89.997900
_cell_angle_gamma 90.020500
loop_
  _atom_site_label
  _atom_site_type_symbol
  _atom_site_fract_x
  _atom_site_fract_y
  _atom_site_fract_z
C1 C 0.25000 0.24985 0.24989
 C2 C 0.74999 0.75011 0.25032
 C3 C 0.75011 0.25012 0.75040
 C4 C 0.25011 0.74986 0.74984
 C5 C 0.05279 0.05348 0.01296
 H6 H 0.05346 0.05498 -0.01739
 C7 C 0.07487 0.07667 0.03434
 H8 H 0.09235 0.09615 0.02019
 C9 C 0.02818 0.02690 0.06815
 H10 H 0.00963 0.00780 0.08127
 C11 C 0.04975 0.04961 0.09061
 H12 H 0.04808 0.04715 0.12087
 N13 N 0.03041 0.02892 0.03005
 C14 C 0.01491 -0.05572 -0.05283
 H15 H -0.01544 -0.05728 -0.05340
 C16 C 0.03625 -0.07884 -0.07501
 H17 H 0.02208 -0.09833 -0.09246
 C18 C 0.07013 -0.02904 -0.02840
 H19 H 0.08327 -0.00991 -0.00988
 C20 C 0.09256 -0.05168 -0.05007
 H21 H 0.12283 -0.04915 -0.04852
 Zn22 Zn 0.00095 -0.00112 -0.00103
 N23 N 0.03203 -0.03114 -0.03050
 C24 C -0.02653 0.02666 -0.07023
 N25 N -0.02854 0.02885 -0.03213
 C26 C -0.05081 0.05346 -0.01502
 C27 C -0.07303 0.07654 -0.03636
 C28 C -0.04830 0.04920 -0.09266
 C29 C -0.01310 -0.05559 0.05090
 C30 C -0.03449 -0.07858 0.07319
 C31 C -0.09074 -0.05143 0.04815
 C32 C -0.06826 -0.02893 0.02638
 N33 N -0.03017 -0.03107 0.02848
 H34 H -0.00789 0.00765 -0.08337
 H35 H -0.05146 0.05496 0.01534
 H36 H -0.09116 0.09544 -0.02216
 H37 H -0.04612 0.04723 -0.12293
 H38 H 0.01725 -0.05719 0.05147
 H39 H -0.02036 -0.09801 0.09073
 H40 H -0.12100 -0.04885 0.04661
 H41 H -0.08137 -0.00986 0.00779
 C42 C 0.07565 -0.07691 -0.07391
 C43 C 0.07361 0.07483 0.07374
 C44 C -0.07388 -0.07657 0.07211
 C45 C -0.07208 0.07447 -0.07575
 C46 C 0.05294 0.55512 0.51458
 H47 H 0.05359 0.55654 0.48423
 C48 C 0.07517 0.57826 0.53587
 H49 H 0.09273 0.59762 0.52165
 C50 C 0.02827 0.52878 0.56986
 H51 H 0.00964 0.50979 0.58305
 C52 C 0.04998 0.55144 0.59224
 H53 H 0.04834 0.54906 0.62251
 N54 N 0.03047 0.53070 0.53176
 C55 C 0.01464 0.44581 0.44925
 H56 H -0.01572 0.44431 0.44877
 C57 C 0.03585 0.42260 0.42705
 H58 H 0.02158 0.40310 0.40970
 C59 C 0.06999 0.47246 0.47341
 H60 H 0.08323 0.49162 0.49181
 C61 C 0.09230 0.44973 0.45172
 H62 H 0.12258 0.45222 0.45314
 Zn63 Zn 0.00091 0.50064 0.50078
 N64 N 0.03188 0.47043 0.47143
 C65 C -0.02636 0.52818 0.43142
 N66 N -0.02847 0.53055 0.46950
 C67 C -0.05082 0.55522 0.48643
 C68 C -0.07305 0.57813 0.46490
 C69 C -0.04813 0.55055 0.40882
 C70 C -0.01339 0.44633 0.55285
 C71 C -0.03490 0.42334 0.57502
 C72 C -0.09101 0.45058 0.54979
 C73 C -0.06842 0.47304 0.52809
 N74 N -0.03033 0.47086 0.53035
 H75 H -0.00766 0.50914 0.41843
 H76 H -0.05155 0.55687 0.51677
 H77 H -0.09126 0.59706 0.47894
 H78 H -0.04589 0.54841 0.37856
 H79 H 0.01696 0.44481 0.55369
 H80 H -0.02085 0.40449 0.59331
 H81 H -0.12127 0.45254 0.54739
 H82 H -0.08142 0.49196 0.50926
 C83 C 0.07526 0.42449 0.42799
 C84 C 0.07396 0.57652 0.57527
 C85 C -0.07429 0.42539 0.57378
 C86 C -0.07203 0.57584 0.42552
 C87 C 0.55073 0.05424 0.51487
 H88 H 0.55130 0.05567 0.48452
 C89 C 0.57292 0.07745 0.53611
 H90 H 0.59035 0.09689 0.52185
 C91 C 0.52636 0.02776 0.57021
 H92 H 0.50788 0.00865 0.58343
 C93 C 0.54803 0.05049 0.59254
 H94 H 0.54652 0.04807 0.62281
 N95 N 0.52845 0.02970 0.53210
 C96 C 0.51361 -0.05523 0.44946
 H97 H 0.48327 -0.05684 0.44861
 C98 C 0.53520 -0.07817 0.42731
 H99 H 0.52120 -0.09710 0.40905
 C100 C 0.56855 -0.02823 0.47413
 H101 H 0.58150 -0.00919 0.49288
 C102 C 0.59122 -0.05064 0.45245
 H103 H 0.62147 -0.04853 0.45480
 Zn104 Zn 0.49915 -0.00055 0.50109
 N105 N 0.53048 -0.03055 0.47187
 C106 C 0.47209 0.02697 0.43164
 N107 N 0.46974 0.02922 0.46971
 C108 C 0.44723 0.05381 0.48657
 C109 C 0.42514 0.07679 0.46497
 C110 C 0.45047 0.04941 0.40896
 C111 C 0.48502 -0.05488 0.55320
 C112 C 0.46358 -0.07789 0.57542
 C113 C 0.40739 -0.05095 0.55001
 C114 C 0.42991 -0.02846 0.52827
 N115 N 0.46800 -0.03048 0.53060
 H116 H 0.49092 0.00801 0.41871
 H117 H 0.44631 0.05537 0.51691
 H118 H 0.40684 0.09568 0.47896
 H119 H 0.45294 0.04739 0.37872
 H120 H 0.51538 -0.05626 0.55411
 H121 H 0.47769 -0.09663 0.59379
 H122 H 0.37713 -0.04911 0.54756
 H123 H 0.41685 -0.00964 0.50938
 C124 C 0.57458 -0.07591 0.42848
 C125 C 0.57187 0.07566 0.57551
 C126 C 0.42418 -0.07599 0.57412
 C127 C 0.42647 0.07465 0.42559
 C128 C 0.55062 0.55580 0.01332
 H129 H 0.55126 0.55735 -0.01703
 C130 C 0.57278 0.57891 0.03472
 H131 H 0.59027 0.59839 0.02059
 C132 C 0.52612 0.52910 0.06848
 H133 H 0.50760 0.50995 0.08158
 C134 C 0.54776 0.55172 0.09096
 H135 H 0.54619 0.54916 0.12122
 N136 N 0.52829 0.53119 0.03039
 C137 C 0.51359 0.44639 -0.05240
 H138 H 0.48325 0.44478 -0.05329
 C139 C 0.53520 0.42333 -0.07440
 H140 H 0.52122 0.40433 -0.09259
 C141 C 0.56851 0.47341 -0.02773
 H142 H 0.58144 0.49249 -0.00900
 C143 C 0.59120 0.45089 -0.04926
 H144 H 0.62144 0.45296 -0.04683
 Zn145 Zn 0.49906 0.50099 -0.00073
 N146 N 0.53044 0.47110 -0.03003
 C147 C 0.47179 0.52855 -0.07008
 N148 N 0.46950 0.53074 -0.03200
 C149 C 0.44692 0.55522 -0.01506
 C150 C 0.42471 0.57815 -0.03659
 C151 C 0.45004 0.55095 -0.09268
 C152 C 0.48534 0.44643 0.05112
 C153 C 0.46413 0.42326 0.07336
 C154 C 0.40768 0.45005 0.04835
 C155 C 0.42998 0.47275 0.02663
 N156 N 0.46810 0.47087 0.02874
 H157 H 0.49066 0.50966 -0.08307
 H158 H 0.44605 0.55674 0.01528
 H159 H 0.40636 0.59696 -0.02254
 H160 H 0.45247 0.54898 -0.12294
 H161 H 0.51570 0.44504 0.05170
 H162 H 0.47841 0.40389 0.09085
 H163 H 0.37740 0.45241 0.04680
 H164 H 0.41674 0.49176 0.00807
 C165 C 0.57458 0.42551 -0.07312
 C166 C 0.57165 0.57693 0.07411
 C167 C 0.42472 0.42498 0.07226
 C168 C 0.42598 0.57609 -0.07597
 C169 C 0.15423 -0.13862 -0.10546
 C170 C 0.14342 -0.14624 -0.14241
 C171 C 0.11038 -0.13140 -0.15692
 C172 C 0.08827 -0.10896 -0.13463
 C173 C 0.22767 -0.22876 -0.22746
 C174 C 0.13218 -0.11616 -0.08312
 C175 C 0.16635 -0.16905 -0.16552
 C176 C 0.18561 -0.18801 -0.18496
 C177 C 0.20824 -0.21005 -0.20781
 C178 C 0.09895 -0.10102 -0.09747
 H179 H 0.17971 -0.15003 -0.09392
 H180 H 0.10181 -0.13703 -0.18552
 H181 H 0.06313 -0.09737 -0.14665
 H182 H 0.14090 -0.11096 -0.05450
 C183 C 0.15361 0.36267 0.39610
 C184 C 0.14261 0.35506 0.35921
 C185 C 0.10953 0.36993 0.34485
 C186 C 0.08755 0.39240 0.36723
 C187 C 0.22639 0.27243 0.27386
 C188 C 0.13169 0.38516 0.41853
 C189 C 0.16540 0.33222 0.33599
 C190 C 0.18455 0.31323 0.31647
 C191 C 0.20706 0.29116 0.29353
 C192 C 0.09842 0.40033 0.40433
 H193 H 0.17913 0.35123 0.40752
 H194 H 0.10082 0.36431 0.31628
 H195 H 0.06237 0.40402 0.35532
 H196 H 0.14055 0.39036 0.44712
 C197 C 0.65268 -0.10868 0.36454
 C198 C 0.64277 -0.14455 0.35966
 C199 C 0.61064 -0.15808 0.37731
 C200 C 0.58845 -0.13581 0.39973
 C201 C 0.72648 -0.22723 0.27431
 C202 C 0.63056 -0.08637 0.38696
 C203 C 0.66555 -0.16740 0.33644
 C204 C 0.68470 -0.18640 0.31692
 C205 C 0.70719 -0.20848 0.29398
 C206 C 0.59816 -0.09968 0.40481
 H207 H 0.67743 -0.09790 0.35091
 H208 H 0.60277 -0.18584 0.37379
 H209 H 0.56397 -0.14697 0.41346
 H210 H 0.63850 -0.05859 0.38990
 C211 C 0.65286 0.39200 -0.13640
 C212 C 0.64286 0.35611 -0.14100
 C213 C 0.61060 0.34283 -0.12339
 C214 C 0.58838 0.36535 -0.10128
 C215 C 0.72660 0.27276 -0.22560
 C216 C 0.63071 0.41455 -0.11429
 C217 C 0.66564 0.33301 -0.16393
 C218 C 0.68480 0.31383 -0.18325
 C219 C 0.70730 0.29159 -0.20600
 C220 C 0.59818 0.40149 -0.09649
 H221 H 0.67772 0.40259 -0.15002
 H222 H 0.60265 0.31506 -0.12669
 H223 H 0.56379 0.35438 -0.08756
 H224 H 0.63873 0.44234 -0.11157
 C225 C -0.12296 0.15709 -0.11102
 C226 C -0.14084 0.14385 -0.14315
 C227 C -0.13621 0.10801 -0.15332
 C228 C -0.11381 0.08546 -0.13147
 C229 C -0.22599 0.22736 -0.22611
 C230 C -0.10055 0.13458 -0.08909
 C231 C -0.16402 0.16696 -0.16566
 C232 C -0.18350 0.18616 -0.18461
 C233 C -0.20637 0.20846 -0.20692
 C234 C -0.09573 0.09849 -0.09907
 H235 H -0.12627 0.18482 -0.10294
 H236 H -0.15002 0.09746 -0.17808
 H237 H -0.11106 0.05772 -0.13961
 H238 H -0.08663 0.14552 -0.06461
 C239 C -0.13617 0.60861 0.34760
 C240 C -0.14097 0.64450 0.35749
 C241 C -0.12320 0.65802 0.38956
 C242 C -0.10075 0.63575 0.41170
 C243 C -0.22615 0.72736 0.27385
 C244 C -0.11372 0.58630 0.36967
 C245 C -0.16418 0.66737 0.33475
 C246 C -0.18367 0.68640 0.31563
 C247 C -0.20655 0.70854 0.29315
 C248 C -0.09575 0.59961 0.40200
 H249 H -0.14989 0.59784 0.32289
 H250 H -0.12665 0.68579 0.39742
 H251 H -0.08692 0.64690 0.43613
 H252 H -0.11085 0.55851 0.36173
 C253 C 0.37590 0.15716 0.38962
 C254 C 0.35839 0.14385 0.35731
 C255 C 0.36315 0.10800 0.34727
 C256 C 0.38531 0.08550 0.36943
 C257 C 0.27388 0.22715 0.27346
 C258 C 0.39806 0.13471 0.41184
 C259 C 0.33544 0.16690 0.33450
 C260 C 0.31613 0.18606 0.31532
 C261 C 0.29341 0.20830 0.29279
 C262 C 0.40302 0.09860 0.40200
 H263 H 0.37247 0.18491 0.39760
 H264 H 0.34962 0.09739 0.32238
 H265 H 0.38816 0.05774 0.36137
 H266 H 0.41170 0.14571 0.43646
 C267 C 0.36240 0.60932 -0.15415
 C268 C 0.35751 0.64515 -0.14405
 C269 C 0.37501 0.65847 -0.11174
 C270 C 0.39729 0.63606 -0.08958
 C271 C 0.27274 0.72834 -0.22781
 C272 C 0.38468 0.58687 -0.13206
 C273 C 0.33446 0.66816 -0.16680
 C274 C 0.31509 0.68728 -0.18595
 C275 C 0.29231 0.70949 -0.20847
 C276 C 0.40239 0.59998 -0.09949
 H277 H 0.34889 0.59870 -0.17904
 H278 H 0.37149 0.68619 -0.10371
 H279 H 0.41092 0.64707 -0.06496
 H280 H 0.38764 0.55914 -0.14017
 C281 C -0.15266 -0.13788 0.10409
 C282 C -0.14186 -0.14528 0.14109
 C283 C -0.10876 -0.13045 0.15548
 C284 C -0.08657 -0.10822 0.13303
 C285 C -0.22632 -0.22731 0.22642
 C286 C -0.13053 -0.11564 0.08159
 C287 C -0.16487 -0.16789 0.16435
 C288 C -0.18419 -0.18671 0.18388
 C289 C -0.20688 -0.20865 0.20679
 C290 C -0.09724 -0.10050 0.09583
 H291 H -0.17819 -0.14930 0.09264
 H292 H -0.10020 -0.13591 0.18412
 H293 H -0.06138 -0.09662 0.14496
 H294 H -0.13924 -0.11060 0.05294
 C295 C -0.11008 0.34285 0.62447
 C296 C -0.14238 0.35611 0.64202
 C297 C -0.15247 0.39195 0.63726
 C298 C -0.13036 0.41447 0.61506
 C299 C -0.22625 0.27278 0.72653
 C300 C -0.08791 0.36533 0.60227
 C301 C -0.16516 0.33302 0.66497
 C302 C -0.18434 0.31385 0.68428
 C303 C -0.20689 0.29161 0.70700
 C304 C -0.09780 0.40143 0.59731
 H305 H -0.10207 0.31512 0.62789
 H306 H -0.17735 0.40252 0.65082
 H307 H -0.13846 0.44222 0.61221
 H308 H -0.06330 0.35437 0.58859
 C309 C 0.38868 -0.15846 0.62518
 C310 C 0.35631 -0.14524 0.64264
 C311 C 0.34608 -0.10946 0.63769
 C312 C 0.36811 -0.08695 0.61539
 C313 C 0.27253 -0.22860 0.72729
 C314 C 0.41078 -0.13599 0.60289
 C315 C 0.33359 -0.16832 0.66567
 C316 C 0.31445 -0.18748 0.68502
 C317 C 0.29192 -0.20973 0.70776
 C318 C 0.40074 -0.09995 0.59773
 H319 H 0.39681 -0.18614 0.62875
 H320 H 0.32114 -0.09892 0.65117
 H321 H 0.35990 -0.05925 0.61240
 H322 H 0.43545 -0.14691 0.58929
 C323 C 0.34651 0.36291 0.10402
 C324 C 0.35739 0.35547 0.14098
 C325 C 0.39033 0.37055 0.15544
 C326 C 0.41230 0.39306 0.13308
 C327 C 0.27363 0.27254 0.22605
 C328 C 0.36842 0.38544 0.08161
 C329 C 0.33462 0.33257 0.16415
 C330 C 0.31547 0.31351 0.18362
 C331 C 0.29297 0.29136 0.20647
 C332 C 0.40156 0.40082 0.09591
 H333 H 0.32110 0.35131 0.09252
 H334 H 0.39895 0.36506 0.18406
 H335 H 0.43738 0.40484 0.14506
 H336 H 0.35966 0.39050 0.05297
 C337 C 0.15632 0.12960 0.10874
 C338 C 0.14161 0.14449 0.14167
 C339 C 0.10462 0.13682 0.15232
 C340 C 0.08245 0.11427 0.13020
 C341 C 0.22611 0.22726 0.22619
 C342 C 0.13419 0.10706 0.08656
 C343 C 0.16456 0.16738 0.16469
 C344 C 0.18387 0.18641 0.18402
 C345 C 0.20658 0.20851 0.20673
 C346 C 0.09700 0.09907 0.09708
 H347 H 0.18496 0.13526 0.10031
 H348 H 0.09293 0.14827 0.17771
 H349 H 0.05378 0.10903 0.13879
 H350 H 0.14636 0.09543 0.06151
 C351 C 0.10550 0.63847 0.65368
 C352 C 0.14251 0.64592 0.64295
 C353 C 0.15706 0.63090 0.61002
 C354 C 0.13475 0.60845 0.58792
 C355 C 0.22748 0.72846 0.72733
 C356 C 0.08314 0.61600 0.63165
 C357 C 0.16563 0.66873 0.66588
 C358 C 0.18507 0.68770 0.68517
 C359 C 0.20789 0.70974 0.70784
 C360 C 0.09754 0.60067 0.59853
 H361 H 0.09392 0.65002 0.67908
 H362 H 0.18572 0.63640 0.60152
 H363 H 0.14681 0.59671 0.56287
 H364 H 0.05447 0.61093 0.64030
 C365 C 0.65506 0.13010 0.60990
 C366 C 0.64066 0.14507 0.64292
 C367 C 0.60372 0.13756 0.65384
 C368 C 0.58128 0.11508 0.63190
 C369 C 0.72609 0.22759 0.72677
 C370 C 0.63267 0.10764 0.58790
 C371 C 0.66388 0.16789 0.66573
 C372 C 0.68342 0.18685 0.68490
 C373 C 0.70639 0.20890 0.70743
 C374 C 0.59552 0.09981 0.59869
 H375 H 0.68367 0.13564 0.60125
 H376 H 0.59226 0.14907 0.67931
 H377 H 0.55265 0.10996 0.64070
 H378 H 0.64462 0.09593 0.56277
 C379 C 0.65492 0.63096 0.10904
 C380 C 0.64049 0.64574 0.14214
 C381 C 0.60350 0.63828 0.15291
 C382 C 0.58103 0.61602 0.13075
 C383 C 0.72596 0.72761 0.22666
 C384 C 0.63251 0.60872 0.08682
 C385 C 0.66373 0.66833 0.16519
 C386 C 0.68328 0.68713 0.18454
 C387 C 0.70625 0.70900 0.20723
 C388 C 0.59531 0.60092 0.09747
 H389 H 0.68357 0.63647 0.10050
 H390 H 0.59201 0.64966 0.17844
 H391 H 0.55238 0.61092 0.13945
 H392 H 0.64447 0.59714 0.06164
   
