data_POSCAR
  _audit_creation_date              2014-09-24
  _audit_creation_method            'ToBaCCo'
  _symmetry_space_group_name_H-M    'P1'
  _symmetry_Int_Tables_number       1
  _symmetry_cell_setting            triclinic
  loop_
  _symmetry_equiv_pos_as_xyz
 x,y,z
_cell_length_a 46.0187
_cell_length_b 46.0622
_cell_length_c 45.9246
_cell_angle_alpha 90.000000
_cell_angle_beta 89.999800
_cell_angle_gamma 89.909300
loop_
  _atom_site_label
  _atom_site_type_symbol
  _atom_site_fract_x
  _atom_site_fract_y
  _atom_site_fract_z
C1 C 0.16142 0.18176 0.20439
 C2 C 0.16143 0.20328 0.18279
 C3 C 0.18274 0.20326 0.16147
 C4 C 0.20430 0.18171 0.16149
 C5 C 0.20430 0.16043 0.18283
 C6 C 0.18274 0.16045 0.20442
 C7 C 0.14348 0.17650 0.22781
 N8 N 0.15350 0.15261 0.24181
 C9 C 0.17742 0.14255 0.22785
 C10 C 0.22771 0.14250 0.17754
 N11 N 0.24167 0.15252 0.15360
 C12 C 0.22770 0.17640 0.14354
 C13 C 0.17743 0.22662 0.14351
 N14 N 0.15353 0.24060 0.15353
 C15 C 0.14351 0.22666 0.17746
 H16 H 0.12462 0.18907 0.23420
 H17 H 0.18998 0.12371 0.23429
 H18 H 0.23413 0.12366 0.19013
 H19 H 0.23411 0.18895 0.12466
 H20 H 0.18998 0.23303 0.12464
 H21 H 0.12465 0.23310 0.19001
 C22 C -0.16146 0.81825 0.20445
 C23 C -0.16148 0.79672 0.18286
 C24 C -0.18281 0.79673 0.16156
 C25 C -0.20438 0.81828 0.16159
 C26 C -0.20436 0.83957 0.18293
 C27 C -0.18278 0.83955 0.20449
 C28 C -0.14349 0.82352 0.22785
 N29 N -0.15351 0.84741 0.24186
 C30 C -0.17745 0.85746 0.22792
 C31 C -0.22778 0.85749 0.17765
 N32 N -0.24176 0.84746 0.15372
 C33 C -0.22779 0.82357 0.14366
 C34 C -0.17751 0.77336 0.14361
 N35 N -0.15360 0.75939 0.15361
 C36 C -0.14355 0.77334 0.17752
 H37 H -0.12462 0.81096 0.23423
 H38 H -0.19000 0.87630 0.23436
 H39 H -0.23419 0.87632 0.19023
 H40 H -0.23421 0.81102 0.12479
 H41 H -0.19008 0.76694 0.12475
 H42 H -0.12468 0.76691 0.19006
 C43 C -0.16180 0.18175 -0.20400
 C44 C -0.16185 0.20333 -0.18246
 C45 C -0.18315 0.20338 -0.16113
 C46 C -0.20467 0.18184 -0.16108
 C47 C -0.20462 0.16050 -0.18237
 C48 C -0.18306 0.16046 -0.20396
 C49 C -0.14386 0.17642 -0.22742
 N50 N -0.15384 0.15251 -0.24136
 C51 C -0.17772 0.14250 -0.22736
 C52 C -0.22798 0.14261 -0.17704
 N53 N -0.24197 0.15269 -0.15312
 C54 C -0.22806 0.17659 -0.14312
 C55 C -0.17789 0.22680 -0.14325
 N56 N -0.15402 0.24073 -0.15333
 C57 C -0.14399 0.22671 -0.17722
 H58 H -0.12504 0.18897 -0.23386
 H59 H -0.19024 0.12366 -0.23375
 H60 H -0.23436 0.12375 -0.18958
 H61 H -0.23450 0.18919 -0.12427
 H62 H -0.19044 0.23328 -0.12439
 H63 H -0.12515 0.23310 -0.18981
 C64 C 0.16185 0.81823 -0.20406
 C65 C 0.16190 0.79666 -0.18252
 C66 C 0.18320 0.79660 -0.16118
 C67 C 0.20472 0.81813 -0.16113
 C68 C 0.20468 0.83947 -0.18243
 C69 C 0.18312 0.83952 -0.20402
 C70 C 0.14392 0.82356 -0.22748
 N71 N 0.15390 0.84746 -0.24142
 C72 C 0.17778 0.85747 -0.22742
 C73 C 0.22805 0.85735 -0.17709
 N74 N 0.24203 0.84727 -0.15318
 C75 C 0.22811 0.82337 -0.14317
 C76 C 0.17793 0.77318 -0.14330
 N77 N 0.15406 0.75925 -0.15337
 C78 C 0.14403 0.77328 -0.17727
 H79 H 0.12510 0.81101 -0.23392
 H80 H 0.19031 0.87631 -0.23381
 H81 H 0.23442 0.87621 -0.18965
 H82 H 0.23455 0.81077 -0.12432
 H83 H 0.19048 0.76670 -0.12443
 H84 H 0.12519 0.76689 -0.18986
 C85 C 0.18077 1.16076 0.79648
 C86 C 0.20232 1.16078 0.81804
 C87 C 0.20235 1.18210 0.83933
 C88 C 0.18081 1.20366 0.83930
 C89 C 0.15949 1.20365 0.81798
 C90 C 0.15947 1.18208 0.79644
 C91 C 0.17551 1.14285 0.77306
 N92 N 0.15164 1.15291 0.75905
 C93 C 0.14158 1.17681 0.77299
 C94 C 0.14163 1.22710 0.82320
 N95 N 0.15172 1.24109 0.84707
 C96 C 0.17560 1.22711 0.85717
 C97 C 0.22579 1.17685 0.85722
 N98 N 0.23975 1.15296 0.84719
 C99 C 0.22574 1.14290 0.82332
 H100 H 0.18810 1.12402 0.76665
 H101 H 0.12276 1.18940 0.76652
 H102 H 0.12280 1.23354 0.81059
 H103 H 0.18821 1.23356 0.87600
 H104 H 0.23227 1.18943 0.87604
 H105 H 0.23218 1.12406 0.81076
 C106 C 0.81922 0.83926 0.79643
 C107 C 0.79765 0.83924 0.81799
 C108 C 0.79761 0.81790 0.83927
 C109 C 0.81914 0.79634 0.83923
 C110 C 0.84047 0.79635 0.81791
 C111 C 0.84051 0.81794 0.79639
 C112 C 0.82448 0.85719 0.77303
 N113 N 0.84836 0.84713 0.75903
 C114 C 0.85841 0.82322 0.77295
 C115 C 0.85833 0.77290 0.82313
 N116 N 0.84823 0.75890 0.84699
 C117 C 0.82435 0.77288 0.85709
 C118 C 0.77417 0.82315 0.85716
 N119 N 0.76022 0.84705 0.84714
 C120 C 0.77424 0.85713 0.82328
 H121 H 0.81190 0.87603 0.76663
 H122 H 0.87723 0.81063 0.76648
 H123 H 0.87717 0.76647 0.81052
 H124 H 0.81173 0.76642 0.87591
 H125 H 0.76768 0.81056 0.87597
 H126 H 0.76781 0.87598 0.81073
 C127 C 0.18143 0.83951 1.20387
 C128 C 0.20298 0.83949 1.18230
 C129 C 0.20302 0.81821 1.16097
 C130 C 0.18151 0.79670 1.16096
 C131 C 0.16020 0.79670 1.18228
 C132 C 0.16016 0.81823 1.20387
 C133 C 0.17615 0.85739 1.22731
 N134 N 0.15228 0.84736 1.24130
 C135 C 0.14225 0.82350 1.22732
 C136 C 0.14236 0.77332 1.17700
 N137 N 0.15244 0.75935 1.15309
 C138 C 0.17629 0.77332 1.14304
 C139 C 0.22643 0.82346 1.14306
 N140 N 0.24037 0.84730 1.15313
 C141 C 0.22637 0.85734 1.17703
 H142 H 0.18870 0.87620 1.23375
 H143 H 0.12344 0.81094 1.23376
 H144 H 0.12354 0.76687 1.18957
 H145 H 0.18888 0.76687 1.12419
 H146 H 0.23291 0.81090 1.12421
 H147 H 0.23279 0.87615 1.18962
 C148 C 0.81855 1.16054 1.20389
 C149 C 0.79699 1.16056 1.18232
 C150 C 0.79694 1.18185 1.16100
 C151 C 0.81845 1.20336 1.16099
 C152 C 0.83977 1.20334 1.18231
 C153 C 0.83982 1.18181 1.20388
 C154 C 0.82384 1.14264 1.22732
 N155 N 0.84772 1.15266 1.24129
 C156 C 0.85774 1.17653 1.22732
 C157 C 0.85761 1.22673 1.17702
 N158 N 0.84752 1.24070 1.15312
 C159 C 0.82366 1.22675 1.14308
 C160 C 0.77352 1.17660 1.14310
 N161 N 0.75959 1.15276 1.15316
 C162 C 0.77360 1.14271 1.17705
 H163 H 0.81128 1.12383 1.23375
 H164 H 0.87656 1.18908 1.23376
 H165 H 0.87644 1.23317 1.18958
 H166 H 0.81107 1.23320 1.12423
 H167 H 0.76704 1.18917 1.12425
 H168 H 0.76719 1.12389 1.18963
 N169 N 0.53049 1.05146 0.96859
 N170 N 0.55250 1.06945 0.96489
 N171 N 0.46937 1.03127 0.94837
 N172 N 0.44731 1.03492 0.93036
 N173 N 0.46934 1.05143 0.96859
 N174 N 0.44725 1.06938 0.96492
 N175 N 0.53054 1.03129 0.94836
 N176 N 0.55257 1.03500 0.93033
 C177 C 0.56595 1.05886 0.94096
 C178 C 0.43383 1.05876 0.94102
 N179 N 0.46951 0.94855 0.96859
 N180 N 0.44751 0.93056 0.96488
 N181 N 0.53063 0.96875 0.94837
 N182 N 0.55270 0.96509 0.93036
 N183 N 0.53067 0.94858 0.96860
 N184 N 0.55276 0.93063 0.96493
 N185 N 0.46947 0.96872 0.94836
 N186 N 0.44744 0.96501 0.93032
 Mn187 Mn 0.50000 1.00001 0.94802
 C188 C 0.43405 0.94115 0.94096
 C189 C 0.56617 0.94125 0.94102
 N190 N 0.46929 1.05143 1.03132
 N191 N 0.44724 1.06942 1.03505
 N192 N 0.53049 1.03129 1.05155
 N193 N 0.55254 1.03496 1.06956
 N194 N 0.53045 1.05145 1.03132
 N195 N 0.55247 1.06942 1.03500
 N196 N 0.46934 1.03126 1.05155
 N197 N 0.44731 1.03496 1.06961
 Mn198 Mn 0.49989 1.05179 0.99996
 C199 C 0.43384 1.05882 1.05899
 C200 C 0.56592 1.05881 1.05891
 N201 N 0.53070 0.94858 1.03133
 N202 N 0.55275 0.93058 1.03507
 N203 N 0.46950 0.96873 1.05154
 N204 N 0.44744 0.96506 1.06955
 N205 N 0.46954 0.94856 1.03132
 N206 N 0.44752 0.93060 1.03499
 N207 N 0.53065 0.96875 1.05155
 N208 N 0.55266 0.96504 1.06963
 Mn209 Mn 0.50011 0.94822 0.99996
 Mn210 Mn 0.49999 1.00001 1.05189
 Cl211 Cl 0.50000 1.00001 0.99996
 C212 C 0.56613 0.94118 1.05902
 C213 C 0.43406 0.94121 1.05889
 N214 N 0.03123 0.46936 0.05103
 N215 N 0.03492 0.44735 0.06909
 N216 N 0.05151 0.53039 0.03081
 N217 N 0.06951 0.55238 0.03449
 N218 N 0.03132 0.53045 0.05102
 N219 N 0.03500 0.55248 0.06904
 N220 N 0.05142 0.46929 0.03080
 N221 N 0.06941 0.44724 0.03453
 C222 C 0.05878 0.43387 0.05847
 C223 C 0.05888 0.56583 0.05839
 N224 N 0.03134 0.53049 -0.05215
 N225 N 0.03508 0.55252 -0.07017
 N226 N 0.05142 0.46932 -0.03193
 N227 N 0.06936 0.44722 -0.03560
 N228 N 0.03124 0.46939 -0.05216
 N229 N 0.03487 0.44734 -0.07017
 N230 N 0.05152 0.53042 -0.03192
 N231 N 0.06955 0.55238 -0.03560
 Mn232 Mn 0.05181 0.49985 -0.00056
 C233 C 0.05897 0.56586 -0.05952
 C234 C 0.05871 0.43384 -0.05952
 N235 N -0.03128 0.53068 0.05102
 N236 N -0.03498 0.55267 0.06910
 N237 N -0.05155 0.46964 0.03080
 N238 N -0.06955 0.44766 0.03448
 N239 N -0.03136 0.46959 0.05102
 N240 N -0.03505 0.44756 0.06903
 N241 N -0.05146 0.53074 0.03080
 N242 N -0.06947 0.55278 0.03454
 Mn243 Mn -0.00002 0.50002 0.05137
 C244 C -0.05886 0.56614 0.05848
 C245 C -0.05893 0.43421 0.05839
 N246 N -0.03137 0.46955 -0.05216
 N247 N -0.03509 0.44752 -0.07018
 N248 N -0.05145 0.53072 -0.03194
 N249 N -0.06940 0.55281 -0.03562
 N250 N -0.03127 0.53066 -0.05216
 N251 N -0.03490 0.55270 -0.07018
 N252 N -0.05155 0.46962 -0.03193
 N253 N -0.06958 0.44765 -0.03561
 Mn254 Mn -0.00001 0.50002 -0.05251
 Mn255 Mn -0.05185 0.50018 -0.00057
 Cl256 Cl -0.00002 0.50002 -0.00057
 C257 C -0.05899 0.43418 -0.05953
 C258 C -0.05875 0.56619 -0.05953
 N259 N 1.03119 0.05150 0.53080
 N260 N 1.03483 0.06948 0.55287
 N261 N 1.05143 0.03134 0.46952
 N262 N 1.06946 0.03507 0.44747
 N263 N 1.03120 0.05149 0.46951
 N264 N 1.03490 0.06951 0.44745
 N265 N 1.05143 0.03135 0.53080
 N266 N 1.06941 0.03506 0.55289
 C267 C 1.05872 0.05890 0.56633
 C268 C 1.05882 0.05893 0.43402
 N269 N 1.03143 -0.05138 0.46956
 N270 N 1.03514 -0.06936 0.44748
 N271 N 1.05158 -0.03119 0.53083
 N272 N 1.06962 -0.03489 0.55288
 N273 N 1.03145 -0.05138 0.53084
 N274 N 1.03523 -0.06939 0.55290
 N275 N 1.05157 -0.03120 0.46955
 N276 N 1.06956 -0.03488 0.44746
 Mn277 Mn 1.05185 0.00007 0.50018
 C278 C 1.05898 -0.05873 0.43401
 C279 C 1.05909 -0.05877 0.56633
 N280 N 0.96860 0.05144 0.46955
 N281 N 0.96489 0.06940 0.44746
 N282 N 0.94846 0.03126 0.53083
 N283 N 0.93042 0.03495 0.55289
 N284 N 0.96859 0.05145 0.53084
 N285 N 0.96482 0.06945 0.55290
 N286 N 0.94846 0.03126 0.46955
 N287 N 0.93047 0.03493 0.44746
 Mn288 Mn 0.99989 0.05181 0.50017
 C289 C 0.94105 0.05878 0.43400
 C290 C 0.94096 0.05882 0.56635
 N291 N 0.96885 -0.05143 0.53080
 N292 N 0.96522 -0.06941 0.55289
 N293 N 0.94860 -0.03128 0.46953
 N294 N 0.93056 -0.03501 0.44749
 N295 N 0.96883 -0.05144 0.46952
 N296 N 0.96513 -0.06945 0.44747
 N297 N 0.94861 -0.03129 0.53081
 N298 N 0.93064 -0.03499 0.55290
 Mn299 Mn 1.00014 -0.05175 0.50018
 Mn300 Mn 0.94819 -0.00001 0.50018
 Cl301 Cl 1.00002 0.00003 0.50018
 C302 C 0.94133 -0.05883 0.56635
 C303 C 0.94120 -0.05888 0.43404
 C304 C 1.11848 0.11797 0.31268
 N305 N 1.11988 0.08893 0.31735
 N306 N 1.10811 0.07734 0.34118
 C307 C 1.09459 0.09444 0.36106
 N308 N 1.09319 0.12349 0.35639
 N309 N 1.10495 0.13507 0.33256
 C310 C 1.13116 0.13046 0.28702
 C311 C 1.14181 0.14100 0.26548
 C312 C 1.08196 0.08197 0.38675
 C313 C 1.07138 0.07147 0.40833
 C314 C 0.88154 -0.11791 0.31269
 N315 N 0.87010 -0.09350 0.32461
 N316 N 0.88186 -0.08191 0.34844
 C317 C 0.90542 -0.09438 0.36108
 N318 N 0.91686 -0.11879 0.34915
 N319 N 0.90510 -0.13038 0.32532
 C320 C 0.86885 -0.13042 0.28705
 C321 C 0.85820 -0.14097 0.26552
 C322 C 0.91805 -0.08191 0.38677
 C323 C 0.92864 -0.07142 0.40835
 C324 C 0.88121 0.11778 0.68778
 N325 N 0.86997 0.09324 0.67599
 N326 N 0.88174 0.08166 0.65214
 C327 C 0.90510 0.09427 0.63935
 N328 N 0.91634 0.11880 0.65114
 N329 N 0.90458 0.13039 0.67499
 C330 C 0.86851 0.13029 0.71343
 C331 C 0.85786 0.14086 0.73497
 C332 C 0.91775 0.08181 0.61365
 C333 C 0.92836 0.07134 0.59205
 C334 C 1.11889 -0.11783 0.68769
 N335 N 1.10720 -0.13508 0.66684
 N336 N 1.09542 -0.12349 0.64301
 C337 C 1.09498 -0.09428 0.63929
 N338 N 1.10668 -0.07702 0.66014
 N339 N 1.11845 -0.08861 0.68398
 C340 C 1.13158 -0.13033 0.71335
 C341 C 1.14222 -0.14089 0.73490
 C342 C 1.08232 -0.08179 0.61361
 C343 C 1.07171 -0.07130 0.59203
 C344 C 0.31250 1.11779 1.11862
 N345 N 0.32320 1.12819 1.09316
 N346 N 0.34703 1.11660 1.08142
 C347 C 0.36089 1.09427 1.09479
 N348 N 0.35019 1.08387 1.12025
 N349 N 0.32635 1.09546 1.13199
 C350 C 0.28686 1.13031 1.13129
 C351 C 0.26533 1.14087 1.14192
 C352 C 0.38657 1.08181 1.08216
 C353 C 0.40815 1.07133 1.07158
 C354 C 0.31280 0.88199 0.88170
 N355 N 0.32327 0.90760 0.87162
 N356 N 0.34709 0.91923 0.88328
 C357 C 0.36116 0.90561 0.90535
 N358 N 0.35069 0.88000 0.91543
 N359 N 0.32687 0.86836 0.90378
 C360 C 0.28718 0.86943 0.86911
 C361 C 0.26567 0.85888 0.85850
 C362 C 0.38683 0.91812 0.91788
 C363 C 0.40839 0.92863 0.92841
 C364 C 0.68739 0.88217 1.11879
 N365 N 0.66202 0.88251 1.13380
 N366 N 0.63819 0.89410 1.12204
 C367 C 0.63902 0.90569 1.09491
 N368 N 0.66440 0.90534 1.07989
 N369 N 0.68822 0.89376 1.09165
 C370 C 0.71304 0.86965 1.13144
 C371 C 0.73457 0.85910 1.14206
 C372 C 0.61336 0.91816 1.08225
 C373 C 0.59180 0.92866 1.07163
 C374 C 0.68725 1.11798 0.88174
 N375 N 0.67634 1.09275 0.87117
 N376 N 0.65252 1.08112 0.88282
 C377 C 0.63887 1.09437 0.90539
 N378 N 0.64978 1.11960 0.91596
 N379 N 0.67361 1.13122 0.90432
 C380 C 0.71287 1.13053 0.86916
 C381 C 0.73439 1.14108 0.85856
 C382 C 0.61319 1.08187 0.91790
 C383 C 0.59162 1.07137 0.92842
 C384 C 0.11803 0.31268 0.11793
 N385 N 0.12940 0.32433 0.09333
 N386 N 0.11774 0.34813 0.08163
 C387 C 0.09436 0.36100 0.09418
 N388 N 0.08298 0.34934 0.11879
 N389 N 0.09464 0.32554 0.13049
 C390 C 0.13062 0.28707 0.13056
 C391 C 0.14121 0.26558 0.14117
 C392 C 0.08182 0.38665 0.08161
 C393 C 0.07130 0.40821 0.07105
 C394 C -0.11850 0.31290 -0.11817
 N395 N -0.09166 0.32177 -0.12649
 N396 N -0.07994 0.34561 -0.11499
 C397 C -0.09471 0.36129 -0.09482
 N398 N -0.12155 0.35241 -0.08650
 N399 N -0.13327 0.32858 -0.09800
 C400 C -0.13114 0.28726 -0.13060
 C401 C -0.14173 0.26574 -0.14109
 C402 C -0.08210 0.38696 -0.08244
 C403 C -0.07154 0.40852 -0.07201
 C404 C 0.11851 0.68710 -0.11821
 N405 N 0.13001 0.67504 -0.09384
 N406 N 0.11828 0.65122 -0.08232
 C407 C 0.09470 0.63873 -0.09483
 N408 N 0.08321 0.65079 -0.11920
 N409 N 0.09493 0.67461 -0.13071
 C410 C 0.13116 0.71273 -0.13064
 C411 C 0.14176 0.73425 -0.14113
 C412 C 0.08209 0.61307 -0.08244
 C413 C 0.07153 0.59151 -0.07200
 C414 C -0.11816 0.68728 0.11802
 N415 N -0.13384 0.66244 0.11607
 N416 N -0.12219 0.63865 0.10436
 C417 C -0.09449 0.63896 0.09425
 N418 N -0.07881 0.66379 0.09621
 N419 N -0.09047 0.68759 0.10792
 C420 C -0.13072 0.71290 0.13064
 C421 C -0.14129 0.73440 0.14126
 C422 C -0.08194 0.61332 0.08166
 C423 C -0.07141 0.59178 0.07109
 C424 C 1.11719 0.11817 0.68802
 N425 N 1.11898 0.08916 0.68329
 N426 N 1.10750 0.07749 0.65937
 C427 C 1.09390 0.09449 0.63946
 N428 N 1.09211 0.12350 0.64419
 N429 N 1.10358 0.13517 0.66811
 C430 C 1.12960 0.13074 0.71373
 C431 C 1.14008 0.14130 0.73532
 C432 C 1.08155 0.08193 0.61371
 C433 C 1.07115 0.07141 0.59207
 C434 C 0.88284 -0.11807 0.68804
 N435 N 0.90468 -0.13178 0.67372
 N436 N 0.91617 -0.12011 0.64981
 C437 C 0.90616 -0.09438 0.63949
 N438 N 0.88432 -0.08067 0.65381
 N439 N 0.87283 -0.09234 0.67772
 C440 C 0.87042 -0.13066 0.71373
 C441 C 0.85994 -0.14124 0.73531
 C442 C 0.91851 -0.08184 0.61373
 C443 C 0.92890 -0.07132 0.59209
 C444 C 1.11771 -0.11793 0.31233
 N445 N 1.11864 -0.08882 0.31665
 N446 N 1.10711 -0.07716 0.34058
 C447 C 1.09432 -0.09427 0.36089
 N448 N 1.09338 -0.12338 0.35657
 N449 N 1.10491 -0.13504 0.33265
 C450 C 1.13017 -0.13049 0.28662
 C451 C 1.14069 -0.14104 0.26503
 C452 C 1.08191 -0.08173 0.38664
 C453 C 1.07147 -0.07122 0.40827
 C454 C 0.88230 0.11791 0.31230
 N455 N 0.90652 0.12953 0.32439
 N456 N 0.91806 0.11788 0.34831
 C457 C 0.90572 0.09426 0.36085
 N458 N 0.88151 0.08264 0.34875
 N459 N 0.86997 0.09429 0.32483
 C460 C 0.86984 0.13048 0.28660
 C461 C 0.85932 0.14105 0.26501
 C462 C 0.91813 0.08174 0.38661
 C463 C 0.92857 0.07125 0.40825
 C464 C 0.11728 0.31215 -0.11840
 N465 N 0.09166 0.32272 -0.12844
 N466 N 0.08013 0.34665 -0.11687
 C467 C 0.09390 0.36071 -0.09491
 N468 N 0.11953 0.35013 -0.08486
 N469 N 0.13105 0.32621 -0.09643
 C470 C 0.12971 0.28643 -0.13088
 C471 C 0.14018 0.26483 -0.14138
 C472 C 0.08151 0.38647 -0.08246
 C473 C 0.07111 0.40810 -0.07200
 C474 C -0.11746 0.31288 0.11764
 N475 N -0.12976 0.32529 0.09385
 N476 N -0.11828 0.34914 0.08218
 C477 C -0.09415 0.36129 0.09394
 N478 N -0.08185 0.34887 0.11772
 N479 N -0.09333 0.32502 0.12939
 C480 C -0.12985 0.28724 0.13023
 C481 C -0.14030 0.26571 0.14082
 C482 C -0.08180 0.38697 0.08139
 C483 C -0.07139 0.40855 0.07088
 C484 C -0.11736 0.68784 -0.11847
 N485 N -0.13442 0.66846 -0.10429
 N486 N -0.12290 0.64454 -0.09270
 C487 C -0.09398 0.63928 -0.09496
 N488 N -0.07692 0.65867 -0.10914
 N489 N -0.08844 0.68259 -0.12072
 C490 C -0.12977 0.71356 -0.13096
 C491 C -0.14023 0.73516 -0.14146
 C492 C -0.08159 0.61354 -0.08250
 C493 C -0.07117 0.59191 -0.07202
 C494 C 0.11741 0.68717 0.11763
 N495 N 0.09373 0.67460 0.12983
 N496 N 0.08224 0.65075 0.11816
 C497 C 0.09410 0.63875 0.09394
 N498 N 0.11778 0.65133 0.08173
 N499 N 0.12927 0.67518 0.09340
 C500 C 0.12981 0.71281 0.13022
 C501 C 0.14026 0.73434 0.14080
 C502 C 0.08175 0.61307 0.08140
 C503 C 0.07134 0.59149 0.07088
 C504 C 0.31212 1.11767 0.88235
 N505 N 0.32337 1.12844 0.90741
 N506 N 0.34729 1.11683 0.91893
 C507 C 0.36069 1.09412 0.90573
 N508 N 0.34944 1.08336 0.88067
 N509 N 0.32551 1.09496 0.86915
 C510 C 0.28641 1.13019 0.86991
 C511 C 0.26482 1.14072 0.85942
 C512 C 0.38645 1.08166 0.91812
 C513 C 0.40809 1.07120 0.92855
 C514 C 0.31260 0.88247 1.11782
 N515 N 0.32344 0.90775 1.12830
 N516 N 0.34732 0.91931 1.11670
 C517 C 0.36107 0.90591 1.09429
 N518 N 0.35022 0.88062 1.08381
 N519 N 0.32634 0.86907 1.09541
 C520 C 0.28694 0.87001 1.13034
 C521 C 0.26540 0.85951 1.14087
 C522 C 0.38677 0.91833 1.08182
 C523 C 0.40837 0.92877 1.07136
 C524 C 0.68737 1.11757 1.11785
 N525 N 0.67440 1.13023 1.09456
 N526 N 0.65053 1.11868 1.08297
 C527 C 0.63891 1.09412 1.09432
 N528 N 0.65187 1.08146 1.11761
 N529 N 0.67575 1.09301 1.12920
 C530 C 0.71303 1.13004 1.13037
 C531 C 0.73457 1.14054 1.14090
 C532 C 0.61320 1.08170 1.08185
 C533 C 0.59161 1.07126 1.07139
 C534 C 0.68787 0.88234 0.88233
 N535 N 0.67482 0.86967 0.90554
 N536 N 0.65090 0.88127 0.91708
 C537 C 0.63931 0.90589 0.90573
 N538 N 0.65237 0.91857 0.88252
 N539 N 0.67629 0.90696 0.87099
 C540 C 0.71358 0.86982 0.86988
 C541 C 0.73515 0.85929 0.85938
 C542 C 0.61356 0.91836 0.91813
 C543 C 0.59191 0.92881 0.92856
   
