data_POSCAR
  _audit_creation_date              2014-09-24
  _audit_creation_method            'ToBaCCo'
  _symmetry_space_group_name_H-M    'P1'
  _symmetry_Int_Tables_number       1
  _symmetry_cell_setting            triclinic
  loop_
  _symmetry_equiv_pos_as_xyz
 x,y,z
_cell_length_a 31.4868
_cell_length_b 32.6639
_cell_length_c 29.6215
_cell_angle_alpha 89.186800
_cell_angle_beta 87.817400
_cell_angle_gamma 88.950800
loop_
  _atom_site_label
  _atom_site_type_symbol
  _atom_site_fract_x
  _atom_site_fract_y
  _atom_site_fract_z
C1 C 0.32751 0.34238 0.20651
 H2 H 0.33942 0.34433 0.24018
 C3 C 0.33821 0.37222 0.17385
 H4 H 0.35822 0.39734 0.18251
 C5 C 0.28732 0.30705 0.15393
 H6 H 0.26867 0.28104 0.14562
 C7 C 0.29645 0.33652 0.12070
 H8 H 0.28424 0.33291 0.08734
 N9 N 0.30199 0.31091 0.19622
 C10 C 0.24453 0.26834 0.32463
 H11 H 0.25352 0.23627 0.32272
 C12 C 0.22201 0.28286 0.36271
 H13 H 0.21384 0.26193 0.39023
 C14 C 0.24394 0.33457 0.29082
 H15 H 0.25253 0.35450 0.26263
 C16 C 0.22000 0.35012 0.32772
 H17 H 0.21055 0.38217 0.32806
 Zn18 Zn 0.28840 0.27115 0.24149
 N19 N 0.25629 0.29441 0.29036
 C20 C 0.34774 0.24557 0.30667
 N21 N 0.33988 0.24741 0.26183
 C22 C 0.36707 0.22967 0.23073
 C23 C 0.40226 0.20668 0.24466
 C24 C 0.38170 0.22201 0.32207
 C25 C 0.21630 0.23975 0.20102
 C26 C 0.18905 0.20933 0.18745
 C27 C 0.23948 0.15828 0.21311
 C28 C 0.26630 0.18956 0.22487
 N29 N 0.25433 0.22944 0.21884
 H30 H 0.32696 0.26108 0.33088
 H31 H 0.36029 0.23186 0.19524
 H32 H 0.42260 0.19120 0.21977
 H33 H 0.38633 0.21913 0.35804
 H34 H 0.20685 0.27165 0.19802
 H35 H 0.15868 0.21784 0.17376
 H36 H 0.24896 0.12669 0.21912
 H37 H 0.29589 0.18186 0.24044
 C38 C 0.20972 0.32423 0.36453
 C39 C 0.32188 0.36979 0.13063
 C40 C 0.20031 0.16813 0.19440
 C41 C 0.40882 0.20163 0.29097
 C42 C 0.81373 0.80119 0.27427
 H43 H 0.81014 0.78798 0.30788
 C44 C 0.84705 0.82749 0.26396
 H45 H 0.86821 0.83422 0.29061
 C46 C 0.79011 0.80654 0.19943
 H47 H 0.76843 0.79737 0.17419
 C48 C 0.82328 0.83304 0.18746
 H49 H 0.82632 0.84437 0.15297
 N50 N 0.78624 0.79110 0.24224
 C51 C 0.68964 0.74331 0.33642
 H52 H 0.68960 0.71131 0.32751
 C53 C 0.66461 0.75717 0.37328
 H54 H 0.64533 0.73558 0.39262
 C55 C 0.71363 0.81059 0.32091
 H56 H 0.73219 0.83145 0.29991
 C57 C 0.68840 0.82586 0.35679
 H58 H 0.68823 0.85837 0.36354
 Zn59 Zn 0.74696 0.75082 0.26115
 N60 N 0.71414 0.76990 0.31168
 C61 C 0.78516 0.69011 0.31853
 N62 N 0.78092 0.70442 0.27555
 C63 C 0.80539 0.68920 0.24070
 C64 C 0.83557 0.65836 0.24820
 C65 C 0.81514 0.65924 0.32761
 C66 C 0.68603 0.77058 0.19800
 C67 C 0.65760 0.76387 0.16397
 C68 C 0.67628 0.69184 0.16696
 C69 C 0.70461 0.69999 0.20074
 N70 N 0.70937 0.73897 0.21505
 H71 H 0.76662 0.70362 0.34607
 H72 H 0.80216 0.70193 0.20706
 H73 H 0.85487 0.64748 0.21976
 H74 H 0.81865 0.64872 0.36213
 H75 H 0.68975 0.80113 0.21076
 H76 H 0.63954 0.78960 0.15091
 H77 H 0.67319 0.66069 0.15565
 H78 H 0.72254 0.67510 0.21567
 C79 C 0.66385 0.79899 0.38372
 C80 C 0.85287 0.84339 0.21974
 C81 C 0.65273 0.72407 0.14774
 C82 C 0.84119 0.64328 0.29227
 C83 C 0.73341 0.26633 0.69110
 H84 H 0.69989 0.26017 0.69551
 C85 C 0.74797 0.28790 0.65289
 H86 H 0.72524 0.29807 0.62846
 C87 C 0.80302 0.26181 0.71861
 H88 H 0.82427 0.25152 0.74440
 C89 C 0.81896 0.28390 0.68093
 H90 H 0.85256 0.29039 0.67785
 N91 N 0.76089 0.25319 0.72275
 C92 C 0.73187 0.25681 0.86209
 H93 H 0.75045 0.23048 0.87248
 C94 C 0.71944 0.28630 0.89394
 H95 H 0.72909 0.28247 0.92844
 C96 C 0.69523 0.29309 0.80524
 H97 H 0.68586 0.29553 0.77057
 C98 C 0.68148 0.32281 0.83610
 H99 H 0.66181 0.34821 0.82481
 Zn100 Zn 0.73724 0.22326 0.77280
 N101 N 0.72030 0.26109 0.81844
 C102 C 0.81044 0.19359 0.81884
 N103 N 0.77689 0.18308 0.79404
 C104 C 0.77027 0.14329 0.78402
 C105 C 0.79783 0.11241 0.79849
 C106 C 0.83783 0.16335 0.83598
 C107 C 0.69014 0.17609 0.71381
 C108 C 0.65403 0.15790 0.69768
 C109 C 0.61398 0.18234 0.76337
 C110 C 0.65093 0.19986 0.77841
 N111 N 0.68796 0.19677 0.75343
 H112 H 0.81557 0.22544 0.82608
 H113 H 0.74349 0.13509 0.76469
 H114 H 0.79075 0.08136 0.78963
 H115 H 0.86379 0.17264 0.85630
 H116 H 0.71993 0.17419 0.69446
 H117 H 0.65632 0.14202 0.66581
 H118 H 0.58496 0.18531 0.78386
 H119 H 0.64993 0.21609 0.80998
 C120 C 0.69413 0.31996 0.88089
 C121 C 0.79131 0.29668 0.64719
 C122 C 0.61519 0.16137 0.72223
 C123 C 0.83219 0.12189 0.82546
 C124 C 0.20689 0.80473 0.66394
 H125 H 0.17436 0.79996 0.67543
 C126 C 0.21639 0.83734 0.63442
 H127 H 0.19088 0.85758 0.62415
 C128 C 0.27920 0.78357 0.66294
 H129 H 0.30377 0.76274 0.67393
 C130 C 0.29010 0.81565 0.63341
 H131 H 0.32306 0.81906 0.62244
 N132 N 0.23840 0.77955 0.67897
 C133 C 0.23529 0.75899 0.81858
 H134 H 0.25771 0.73364 0.81872
 C135 C 0.22851 0.78182 0.85781
 H136 H 0.24629 0.77393 0.88735
 C137 C 0.18355 0.79885 0.78107
 H138 H 0.16572 0.80522 0.75136
 C139 C 0.17533 0.82203 0.81973
 H140 H 0.15159 0.84643 0.81904
 Zn141 Zn 0.22554 0.74034 0.72539
 N142 N 0.21383 0.76857 0.78066
 C143 C 0.30911 0.71788 0.74870
 N144 N 0.27267 0.70354 0.73186
 C145 C 0.26948 0.66354 0.72037
 C146 C 0.30361 0.63623 0.72609
 C147 C 0.34349 0.69142 0.75614
 C148 C 0.17376 0.69540 0.66859
 C149 C 0.13859 0.67229 0.65809
 C150 C 0.11005 0.68231 0.73407
 C151 C 0.14578 0.70499 0.74315
 N152 N 0.17681 0.71094 0.71066
 H153 H 0.31110 0.74985 0.75729
 H154 H 0.24035 0.65257 0.70718
 H155 H 0.30025 0.60436 0.71756
 H156 H 0.37182 0.70310 0.77071
 H157 H 0.19894 0.70055 0.64339
 H158 H 0.13689 0.65978 0.62457
 H159 H 0.08634 0.67754 0.76087
 H160 H 0.14905 0.71719 0.77653
 C161 C 0.19863 0.81423 0.85839
 C162 C 0.25876 0.84381 0.61984
 C163 C 0.10619 0.66539 0.69110
 C164 C 0.34092 0.65010 0.74478
 C165 C 0.08217 0.06735 0.04430
 H166 H 0.09173 0.06746 0.00883
 C167 C 0.10515 0.08972 0.07489
 H168 H 0.13236 0.10708 0.06281
 C169 C 0.03695 0.04260 0.10391
 H170 H 0.01023 0.02450 0.11540
 C171 C 0.05914 0.06395 0.13545
 H172 H 0.04941 0.06168 0.17085
 N173 N 0.05036 0.04249 0.05969
 C174 C 0.05849 -0.06321 -0.02971
 H175 H 0.02515 -0.06682 -0.03597
 C176 C 0.08852 -0.09067 -0.04836
 H177 H 0.07814 -0.11515 -0.06939
 C178 C 0.11231 -0.02774 0.00653
 H179 H 0.12148 -0.00391 0.02883
 C180 C 0.14331 -0.05506 -0.01069
 H181 H 0.17614 -0.05107 -0.00240
 Zn182 Zn 0.02712 0.00224 0.02232
 N183 N 0.07082 -0.03192 -0.00365
 C184 C 0.00336 0.01884 -0.06732
 N185 N -0.00588 0.02747 -0.02317
 C186 C -0.03957 0.05222 -0.01111
 C187 C -0.06720 0.06695 -0.04383
 C188 C -0.02393 0.03193 -0.10076
 C189 C 0.01761 -0.05447 0.09031
 C190 C -0.00217 -0.07738 0.12465
 C191 C -0.07021 -0.05894 0.09435
 C192 C -0.04897 -0.03571 0.06061
 N193 N -0.00585 -0.03299 0.06021
 H194 H 0.03113 0.00066 -0.07672
 H195 H -0.04592 0.05917 0.02413
 H196 H -0.09505 0.08501 -0.03367
 H197 H -0.01736 0.02297 -0.13543
 H198 H 0.05186 -0.05207 0.08890
 H199 H 0.01721 -0.09314 0.14906
 H200 H -0.10460 -0.05979 0.09560
 H201 H -0.06698 -0.01884 0.03594
 C202 C 0.13146 -0.08691 -0.03866
 C203 C 0.09490 0.08624 0.12129
 C204 C -0.04664 -0.07883 0.12775
 C205 C -0.06019 0.05541 -0.08893
 C206 C 0.02957 0.54034 0.53752
 H207 H 0.04647 0.53945 0.50504
 C208 C 0.04120 0.56818 0.56994
 H209 H 0.06720 0.58869 0.56218
 C210 C -0.02494 0.51460 0.58682
 H211 H -0.05101 0.49399 0.59308
 C212 C -0.01459 0.54219 0.62012
 H213 H -0.03252 0.54175 0.65198
 N214 N -0.00247 0.51378 0.54671
 C215 C 0.03243 0.42020 0.44791
 H216 H 0.00373 0.41922 0.42904
 C217 C 0.06812 0.39699 0.43400
 H218 H 0.06684 0.37815 0.40431
 C219 C 0.06888 0.44545 0.51000
 H220 H 0.06892 0.46406 0.53985
 C221 C 0.10481 0.42174 0.49810
 H222 H 0.13253 0.42273 0.51857
 Zn223 Zn -0.01507 0.47678 0.50070
 N224 N 0.03382 0.44473 0.48456
 C225 C -0.01147 0.50842 0.41023
 N226 N -0.03333 0.50868 0.45072
 C227 C -0.06932 0.53192 0.45692
 C228 C -0.08614 0.55400 0.42083
 C229 C -0.02719 0.52996 0.37322
 C230 C -0.05306 0.41670 0.55802
 C231 C -0.08454 0.38945 0.57299
 C232 C -0.12552 0.40966 0.50887
 C233 C -0.09352 0.43662 0.49536
 N234 N -0.05841 0.44017 0.52026
 H235 H 0.01814 0.49147 0.40633
 H236 H -0.08561 0.53235 0.48974
 H237 H -0.11545 0.57143 0.42616
 H238 H -0.00934 0.52881 0.34135
 H239 H -0.02442 0.41942 0.57673
 H240 H -0.07999 0.37136 0.60340
 H241 H -0.15330 0.40816 0.48865
 H242 H -0.09671 0.45440 0.46465
 C243 C 0.10475 0.39756 0.45935
 C244 C 0.01912 0.56930 0.61195
 C245 C -0.12139 0.38567 0.54828
 C246 C -0.06551 0.55248 0.37804
 C247 C 0.53860 0.02981 0.57255
 H248 H 0.55978 0.00600 0.55970
 C249 C 0.55149 0.05432 0.60770
 H250 H 0.58220 0.04866 0.62206
 C251 C 0.47408 0.06776 0.56835
 H252 H 0.44487 0.07429 0.55174
 C253 C 0.48530 0.09241 0.60388
 H254 H 0.46405 0.11716 0.61449
 N255 N 0.50008 0.03645 0.55404
 C256 C 0.53889 -0.04333 0.44963
 H257 H 0.53016 -0.02198 0.42325
 C258 C 0.56527 -0.07691 0.43891
 H259 H 0.57691 -0.08080 0.40433
 C260 C 0.53293 -0.06541 0.52611
 H261 H 0.51957 -0.06103 0.55993
 C262 C 0.55877 -0.09968 0.51675
 H263 H 0.56568 -0.12105 0.54384
 Zn264 Zn 0.48227 0.00417 0.50534
 N265 N 0.52283 -0.03846 0.49254
 C266 C 0.51339 0.06086 0.44107
 N267 N 0.47824 0.03950 0.45436
 C268 C 0.44099 0.04471 0.43305
 C269 C 0.43765 0.07344 0.39802
 C270 C 0.51178 0.08906 0.40521
 C271 C 0.39308 0.00400 0.52904
 C272 C 0.35411 -0.01353 0.54141
 C273 C 0.38759 -0.08031 0.53538
 C274 C 0.42568 -0.06157 0.52237
 N275 N 0.42825 -0.01998 0.52039
 H276 H 0.54258 0.05621 0.45872
 H277 H 0.41362 0.02702 0.44342
 H278 H 0.40753 0.07789 0.38197
 H279 H 0.53981 0.10621 0.39533
 H280 H 0.39479 0.03682 0.52573
 H281 H 0.32687 0.00625 0.54881
 H282 H 0.38654 -0.11341 0.53756
 H283 H 0.45308 -0.08059 0.51404
 C284 C 0.57467 -0.10610 0.47244
 C285 C 0.52437 0.08567 0.62416
 C286 C 0.35127 -0.05624 0.54530
 C287 C 0.47329 0.09598 0.38385
 C288 C 0.54467 0.61858 -0.02653
 H289 H 0.53995 0.62061 -0.06240
 C290 C 0.56176 0.65176 -0.00489
 H291 H 0.56947 0.67904 -0.02444
 C292 C 0.54285 0.57983 0.04169
 H293 H 0.53568 0.55160 0.05958
 C294 C 0.56076 0.61211 0.06454
 H295 H 0.56701 0.60861 0.10011
 N296 N 0.53488 0.58369 -0.00304
 C297 C 0.54411 0.46244 -0.06313
 H298 H 0.51207 0.45834 -0.07399
 C299 C 0.57452 0.43111 -0.06920
 H300 H 0.56582 0.40296 -0.08507
 C301 C 0.59434 0.50391 -0.02868
 H302 H 0.60204 0.53243 -0.01315
 C303 C 0.62539 0.47300 -0.03305
 H304 H 0.65688 0.47819 -0.02110
 Zn305 Zn 0.51213 0.53945 -0.03499
 N306 N 0.55459 0.49815 -0.04363
 C307 C 0.50211 0.53980 -0.13095
 N308 N 0.49248 0.55940 -0.09152
 C309 C 0.46541 0.59236 -0.09037
 C310 C 0.44464 0.60503 -0.12898
 C311 C 0.48165 0.55124 -0.17042
 C312 C 0.47259 0.49065 0.03432
 C313 C 0.43921 0.46871 0.05518
 C314 C 0.39160 0.49914 0.00180
 C315 C 0.42570 0.52008 -0.01813
 N316 N 0.46542 0.51547 -0.00203
 H317 H 0.52437 0.51429 -0.13165
 H318 H 0.45828 0.60756 -0.05869
 H319 H 0.42184 0.63021 -0.12665
 H320 H 0.48866 0.53429 -0.20100
 H321 H 0.50454 0.48646 0.04593
 H322 H 0.44575 0.44815 0.08316
 H323 H 0.36069 0.50350 -0.01233
 H324 H 0.42017 0.53901 -0.04739
 C325 C 0.61558 0.43611 -0.05365
 C326 C 0.56992 0.64878 0.04126
 C327 C 0.39819 0.47221 0.03830
 C328 C 0.45147 0.58347 -0.16928
 C329 C 0.19161 -0.15963 -0.10156
 C330 C 0.22021 -0.15461 -0.06793
 C331 C 0.20177 -0.12631 -0.03961
 C332 C 0.16320 -0.11631 -0.05788
 O333 O 0.15705 -0.13647 -0.09539
 H334 H 0.25117 -0.16905 -0.06482
 H335 H 0.21484 -0.11469 -0.00916
 C336 C 0.18667 0.34026 0.40488
 C337 C 0.19708 0.33088 0.44868
 C338 C 0.16837 0.35211 0.47526
 C339 C 0.14222 0.37236 0.44563
 O340 O 0.15333 0.36532 0.40287
 H341 H 0.22272 0.31113 0.45978
 H342 H 0.16609 0.35204 0.51180
 C343 C 0.63684 -0.18474 0.42143
 C344 C 0.62372 -0.20664 0.45946
 C345 C 0.59949 -0.17983 0.48474
 C346 C 0.59941 -0.14355 0.46016
 O347 O 0.62213 -0.14656 0.42184
 H348 H 0.63095 -0.23829 0.46785
 H349 H 0.58300 -0.18648 0.51662
 C350 C 0.68099 0.35242 -0.08694
 C351 C 0.70239 0.36229 -0.04884
 C352 C 0.68090 0.39531 -0.03108
 C353 C 0.64779 0.40297 -0.05942
 O354 O 0.64783 0.37703 -0.09328
 H355 H 0.73081 0.34789 -0.03610
 H356 H 0.68838 0.41166 -0.00096
 C357 C -0.14099 0.09240 -0.15905
 C358 C -0.13955 0.05185 -0.17270
 C359 C -0.10799 0.03348 -0.14935
 C360 C -0.09274 0.06348 -0.12252
 O361 O -0.11243 0.09925 -0.12824
 H362 H -0.15822 0.03699 -0.19735
 H363 H -0.09792 0.00165 -0.15083
 C364 C -0.12506 0.61249 0.30216
 C365 C -0.09785 0.59416 0.27043
 C366 C -0.07157 0.56928 0.29438
 C367 C -0.08444 0.57410 0.33912
 O368 O -0.11695 0.60017 0.34377
 H369 H -0.09691 0.59809 0.23412
 H370 H -0.04643 0.54973 0.28045
 C371 C 0.44119 0.17272 0.30768
 C372 C 0.48142 0.16640 0.28867
 C373 C 0.49987 0.13718 0.31544
 C374 C 0.46912 0.12750 0.34813
 O375 O 0.43368 0.14909 0.34351
 H376 H 0.49560 0.18147 0.25918
 H377 H 0.53146 0.12389 0.31107
 C378 C 0.37600 0.62149 -0.24452
 C379 C 0.38704 0.58650 -0.26804
 C380 C 0.41878 0.56820 -0.24446
 C381 C 0.42453 0.59327 -0.20805
 O382 O 0.39869 0.62564 -0.20833
 H383 H 0.37308 0.57527 -0.29820
 H384 H 0.43425 0.53912 -0.25195
 C385 C -0.11187 -0.13239 0.20732
 C386 C -0.07963 -0.12240 0.23559
 C387 C -0.05123 -0.10108 0.20943
 C388 C -0.06785 -0.09920 0.16708
 O389 O -0.10475 -0.11784 0.16567
 H390 H -0.07620 -0.12990 0.27092
 H391 H -0.02190 -0.08821 0.22016
 C392 C -0.19269 0.31928 0.60648
 C393 C -0.21298 0.32113 0.56599
 C394 C -0.18881 0.34571 0.53844
 C395 C -0.15534 0.35732 0.56397
 O396 O -0.15749 0.34094 0.60521
 H397 H -0.24184 0.30615 0.55725
 H398 H -0.19510 0.35383 0.50379
 C399 C 0.27155 -0.11955 0.59287
 C400 C 0.24516 -0.08725 0.58074
 C401 C 0.27125 -0.05901 0.56038
 C402 C 0.31161 -0.07613 0.56142
 O403 O 0.31173 -0.11276 0.58092
 H404 H 0.21123 -0.08387 0.58687
 H405 H 0.26187 -0.02942 0.54683
 C406 C 0.33109 0.40166 0.09596
 C407 C 0.30380 0.41279 0.06246
 C408 C 0.32458 0.44161 0.03709
 C409 C 0.36334 0.44611 0.05680
 O410 O 0.36719 0.42189 0.09278
 H411 H 0.27249 0.40113 0.05698
 H412 H 0.31286 0.45645 0.00707
 C413 C 0.17007 0.13568 0.18550
 C414 C 0.16208 0.10330 0.21473
 C415 C 0.13171 0.08135 0.19513
 C416 C 0.12363 0.10174 0.15511
 O417 O 0.14690 0.13486 0.14913
 H418 H 0.17648 0.09675 0.24669
 H419 H 0.11797 0.05314 0.20788
 C420 C 0.06957 0.63965 0.68067
 C421 C 0.03348 0.63442 0.70803
 C422 C 0.00926 0.60753 0.68603
 C423 C 0.03219 0.59820 0.64674
 O424 O 0.06862 0.61783 0.64343
 H425 H 0.02536 0.64840 0.74015
 H426 H -0.02150 0.59642 0.69748
 C427 C 0.57641 0.14395 0.70390
 C428 C 0.53519 0.15351 0.71828
 C429 C 0.50993 0.13273 0.69053
 C430 C 0.53746 0.11185 0.66128
 O431 O 0.57773 0.11856 0.66939
 H432 H 0.52452 0.17393 0.74498
 H433 H 0.47554 0.13288 0.69157
 C434 C 0.62388 0.71577 0.11071
 C435 C 0.60755 0.74503 0.08168
 C436 C 0.58482 0.72394 0.05181
 C437 C 0.58874 0.68332 0.06474
 O438 O 0.61235 0.67833 0.10048
 H439 H 0.61229 0.77774 0.08140
 H440 H 0.56748 0.73676 0.02395
   
