data_POSCAR
  _audit_creation_date              2014-09-24
  _audit_creation_method            'ToBaCCo'
  _symmetry_space_group_name_H-M    'P1'
  _symmetry_Int_Tables_number       1
  _symmetry_cell_setting            triclinic
  loop_
  _symmetry_equiv_pos_as_xyz
 x,y,z
_cell_length_a 22.5653
_cell_length_b 22.4361
_cell_length_c 22.9871
_cell_angle_alpha 91.048700
_cell_angle_beta 90.236300
_cell_angle_gamma 91.055600
loop_
  _atom_site_label
  _atom_site_type_symbol
  _atom_site_fract_x
  _atom_site_fract_y
  _atom_site_fract_z
C1 C 0.14723 0.14795 0.22128
 C2 C 0.20317 0.12686 0.20404
 C3 C 0.22940 0.14428 0.15136
 C4 C 0.19974 0.18641 0.11697
 C5 C 0.14537 0.21001 0.13490
 C6 C 0.11875 0.18921 0.18594
 H7 H 0.22502 0.09354 0.22948
 H8 H 0.21918 0.20326 0.07751
 H9 H 0.07593 0.20628 0.19864
 C10 C -0.15337 0.87340 0.22364
 C11 C -0.13093 0.81805 0.20398
 C12 C -0.14816 0.79436 0.14922
 C13 C -0.19108 0.82315 0.11660
 C14 C -0.21496 0.87650 0.13690
 C15 C -0.19416 0.90286 0.18861
 H16 H -0.09679 0.79595 0.22829
 H17 H -0.20551 0.80438 0.07497
 H18 H -0.21216 0.94519 0.20289
 C19 C -0.14088 0.14384 -0.22787
 C20 C -0.12247 0.20039 -0.20661
 C21 C -0.14975 0.22596 -0.15769
 C22 C -0.19970 0.19726 -0.13356
 C23 C -0.21726 0.13973 -0.15387
 C24 C -0.18488 0.11228 -0.19821
 H25 H -0.08470 0.22311 -0.22574
 H26 H -0.22119 0.21711 -0.09608
 H27 H -0.19784 0.06776 -0.21343
 C28 C 0.15845 0.81103 -0.25357
 C29 C 0.20094 0.84804 -0.22573
 C30 C 0.22986 0.83022 -0.17517
 C31 C 0.21243 0.77558 -0.14995
 C32 C 0.16798 0.73926 -0.17650
 C33 C 0.14315 0.75603 -0.22962
 H34 H 0.21339 0.89011 -0.24525
 H35 H 0.23144 0.76204 -0.10904
 H36 H 0.10926 0.72803 -0.25040
 C37 C 0.14099 1.15414 0.78460
 C38 C 0.11070 1.19722 0.81730
 C39 C 0.12936 1.21288 0.87386
 C40 C 0.17745 1.18413 0.89857
 C41 C 0.20960 1.14293 0.86563
 C42 C 0.19174 1.12823 0.80838
 H43 H 0.07176 1.21777 0.79922
 H44 H 0.19112 1.19532 0.94280
 H45 H 0.21495 1.09405 0.78416
 C46 C 0.87059 0.86104 0.77821
 C47 C 0.90056 0.81628 0.80825
 C48 C 0.87508 0.78839 0.85661
 C49 C 0.82205 0.81114 0.87939
 C50 C 0.79317 0.85804 0.85243
 C51 C 0.81602 0.88129 0.80050
 H52 H 0.94246 0.80036 0.79159
 H53 H 0.80384 0.79415 0.91947
 H54 H 0.79353 0.91797 0.78058
 C55 C 0.15636 0.86045 1.22918
 C56 C 0.19911 0.89129 1.19623
 C57 C 0.21974 0.86705 1.14375
 C58 C 0.19414 0.81437 1.12135
 C59 C 0.15056 0.78407 1.15241
 C60 C 0.13285 0.80573 1.20714
 H61 H 0.21795 0.93333 1.21228
 H62 H 0.20756 0.79728 1.07906
 H63 H 0.09747 0.78240 1.22940
 C64 C 0.83768 1.14474 1.23727
 C65 C 0.86875 1.18913 1.20639
 C66 C 0.84089 1.22087 1.16261
 C67 C 0.78145 1.20831 1.14850
 C68 C 0.75075 1.16202 1.17582
 C69 C 0.77911 1.12981 1.21966
 H70 H 0.91497 1.19930 1.21519
 H71 H 0.76020 1.23204 1.11370
 H72 H 0.75503 1.09389 1.24055
 O73 O 0.42116 0.87754 0.88569
 O74 O 0.35346 0.93662 0.93203
 C75 C 0.36729 0.89128 0.89930
 O76 O 0.58142 0.88658 1.08437
 O77 O 0.64637 0.94657 1.03469
 C78 C 0.63442 0.90521 1.07158
 O79 O 0.41534 0.87886 1.07606
 O80 O 0.35085 0.93823 1.02695
 C81 C 0.36252 0.89562 1.06221
 O82 O 0.58618 0.90031 0.87209
 O83 O 0.64926 0.95247 0.93361
 C84 C 0.63885 0.91657 0.88969
 Zr85 Zr 0.50190 0.92327 0.90572
 O86 O 0.51189 0.83092 0.88994
 O87 O 0.49191 0.93345 0.81479
 Zr88 Zr 0.49875 0.91591 1.05308
 O89 O 0.50476 0.82190 1.04828
 O90 O 0.49086 0.91351 1.14477
 O91 O 0.44853 0.90664 0.97782
 O92 O 0.55173 0.90993 0.97976
 O93 O 0.58336 1.11149 0.89310
 O94 O 0.64778 1.05278 0.94317
 C95 C 0.63619 1.09653 0.90912
 O96 O 0.41196 1.10027 1.08558
 O97 O 0.34924 1.04310 1.02758
 C98 C 0.35952 1.08530 1.06554
 O99 O 0.58105 1.09136 1.10148
 O100 O 0.64644 1.04138 1.04277
 C101 C 0.63441 1.07529 1.08697
 O102 O 0.41706 1.10439 0.88606
 O103 O 0.35194 1.04342 0.93456
 C104 C 0.36389 1.08622 0.89908
 Zr105 Zr 0.50002 1.07316 0.91527
 O106 O 0.50186 1.16750 0.91711
 O107 O 0.49907 1.07178 0.82313
 Zr108 Zr 0.49707 1.06630 1.06307
 O109 O 0.50517 1.16003 1.07272
 O110 O 0.48550 1.06015 1.15413
 Zr111 Zr 0.41150 0.99225 0.98217
 Zr112 Zr 0.58717 0.99703 0.98633
 O113 O 0.54940 1.08210 0.99163
 O114 O 0.44630 1.08002 0.98836
 O115 O 0.55447 1.00052 0.90049
 O116 O 0.44588 0.98944 1.06731
 O117 O 0.44892 0.99669 0.89869
 O118 O 0.55029 0.99183 1.07037
 H119 H 0.57908 0.87592 0.97759
 H120 H 0.41757 0.98822 1.10013
 H121 H 0.57549 1.11783 0.99668
 H122 H 0.42140 0.99583 0.86496
 H123 H 0.52612 0.93423 1.16176
 H124 H 0.51830 1.03615 1.16924
 H125 H 0.47923 1.17739 1.04296
 H126 H 0.47103 1.18059 0.94475
 H127 H 0.53880 1.05966 0.80979
 H128 H 0.52820 0.95381 0.80063
 H129 H 0.50742 0.81142 0.92790
 H130 H 0.47349 0.80700 1.02112
 O131 O 0.09525 0.58479 -0.08965
 O132 O 0.04737 0.65055 -0.02923
 C133 C 0.08405 0.63844 -0.07094
 O134 O -0.12901 0.42587 -0.08379
 O135 O -0.07167 0.35632 -0.03903
 C136 C -0.11456 0.37126 -0.07336
 O137 O -0.11449 0.59317 -0.08132
 O138 O -0.05230 0.65517 -0.02745
 C139 C -0.09466 0.64564 -0.06497
 O140 O 0.08908 0.41804 -0.09362
 O141 O 0.03206 0.35259 -0.04102
 C142 C 0.07167 0.36466 -0.08008
 Zr143 Zr 0.06182 0.50161 -0.06018
 O144 O 0.05180 0.50305 -0.15160
 O145 O 0.15548 0.50270 -0.06495
 Zr146 Zr -0.08687 0.50720 -0.05649
 O147 O -0.07798 0.50830 -0.14792
 O148 O -0.18018 0.51101 -0.06411
 O149 O -0.00986 0.55825 -0.06725
 O150 O -0.01593 0.45217 -0.07099
 O151 O 0.09218 0.41181 0.11446
 O152 O 0.03434 0.34926 0.05710
 C153 C 0.07474 0.35916 0.09674
 O154 O -0.10439 0.58693 0.12885
 O155 O -0.05005 0.65178 0.07324
 C156 C -0.08705 0.64023 0.11478
 O157 O -0.12368 0.42143 0.11265
 O158 O -0.07035 0.35411 0.05866
 C159 C -0.11133 0.36770 0.09588
 O160 O 0.09509 0.57765 0.12767
 O161 O 0.04796 0.64659 0.07236
 C162 C 0.08377 0.63202 0.11373
 Zr163 Zr 0.06627 0.49695 0.08660
 O164 O 0.07878 0.49108 0.17745
 O165 O 0.15954 0.49987 0.07619
 Zr166 Zr -0.08318 0.50324 0.09034
 O167 O -0.08048 0.49323 0.18173
 O168 O -0.17614 0.51398 0.09326
 Zr169 Zr -0.00552 0.59094 0.01916
 Zr170 Zr -0.01551 0.41292 0.01146
 O171 O -0.01149 0.44788 0.09700
 O172 O -0.00517 0.55252 0.10225
 O173 O 0.07277 0.44542 0.01061
 O174 O -0.09306 0.55737 0.01964
 O175 O 0.07795 0.55085 0.01553
 O176 O -0.09951 0.45270 0.01489
 H177 H -0.01889 0.42603 -0.10614
 H178 H -0.12612 0.58568 0.02254
 H179 H -0.01321 0.42008 0.12996
 H180 H 0.11395 0.57682 0.01649
 H181 H -0.19515 0.52817 -0.02724
 H182 H -0.19383 0.48661 0.06344
 H183 H -0.05387 0.52499 0.19792
 H184 H 0.03899 0.48658 0.19471
 H185 H 0.17199 0.45983 0.06286
 H186 H 0.16974 0.47154 -0.03872
 H187 H 0.09241 0.50191 -0.16781
 H188 H -0.11889 0.50839 -0.16368
 O189 O 0.92383 0.12332 0.41398
 O190 O 0.96738 0.05523 0.35265
 C191 C 0.93600 0.10208 0.36263
 O192 O 1.13242 0.09408 0.58113
 O193 O 1.06451 0.05484 0.64461
 C194 C 1.11215 0.08545 0.63324
 O195 O 1.12918 0.09175 0.41705
 O196 O 1.06490 0.04301 0.35367
 C197 C 1.11046 0.07746 0.36502
 O198 O 0.91991 0.12941 0.57716
 O199 O 0.96396 0.06787 0.64264
 C200 C 0.93170 0.11281 0.62972
 Zr201 Zr 0.94567 0.08976 0.49673
 O202 O 0.95821 0.18345 0.49794
 O203 O 0.85265 0.09887 0.49026
 Zr204 Zr 1.09379 0.06908 0.49934
 O205 O 1.09971 0.16315 0.49860
 O206 O 1.18718 0.06389 0.49800
 O207 O 1.02209 0.08830 0.44584
 O208 O 1.02124 0.09275 0.54819
 O209 O 0.88429 -0.07792 0.58412
 O210 O 0.94994 -0.03061 0.64680
 C211 C 0.90297 -0.06305 0.63607
 O212 O 1.09230 -0.12254 0.42363
 O213 O 1.05096 -0.05976 0.35759
 C214 C 1.08132 -0.10598 0.37092
 O215 O 1.09642 -0.10952 0.58760
 O216 O 1.05040 -0.04226 0.64782
 C217 C 1.08393 -0.08741 0.63867
 O218 O 0.89783 -0.10219 0.42157
 O219 O 0.95350 -0.04907 0.35644
 C220 C 0.91431 -0.08960 0.36910
 Zr221 Zr 0.92182 -0.05892 0.50131
 O222 O 0.89679 -0.14937 0.51101
 O223 O 0.83106 -0.03957 0.48961
 Zr224 Zr 1.07028 -0.08030 0.50396
 O225 O 1.05641 -0.17330 0.51253
 O226 O 1.16300 -0.09256 0.49967
 Zr227 Zr 1.00884 0.00052 0.41375
 Zr228 Zr 1.00736 0.00917 0.58639
 O229 O 0.99387 -0.07801 0.55317
 O230 O 0.99498 -0.08361 0.45171
 O231 O 0.92196 0.01975 0.55093
 O232 O 1.09322 -0.00977 0.45135
 O233 O 0.92354 0.01395 0.44771
 O234 O 1.09322 -0.00459 0.55342
 H235 H 1.02711 0.12872 0.57336
 H236 H 1.12780 -0.01609 0.42570
 H237 H 0.98812 -0.11128 0.58046
 H238 H 0.89011 0.01630 0.41980
 H239 H 1.19660 0.02123 0.50064
 H240 H 1.18102 -0.07291 0.53453
 H241 H 1.02876 -0.18668 0.48121
 H242 H 0.93365 -0.17236 0.50896
 H243 H 0.81706 -0.02040 0.52602
 H244 H 0.83500 0.08354 0.52650
 H245 H 0.99281 0.19228 0.47301
 H246 H 1.14260 0.17338 0.49877
 C247 C 1.11769 0.12724 0.27119
 C248 C 1.14448 0.10062 0.31577
 H249 H 1.07054 0.13528 0.27494
 H250 H 1.19224 0.09887 0.31876
 C251 C 0.86576 -0.09762 0.27510
 C252 C 0.88939 -0.12501 0.32053
 H253 H 0.85887 -0.04993 0.27932
 H254 H 0.89026 -0.17314 0.32273
 C255 C 0.88375 0.11674 0.72298
 C256 C 0.90733 0.14657 0.67863
 H257 H 0.87872 0.06862 0.71814
 H258 H 0.90582 0.19470 0.67658
 C259 C 1.12902 -0.16878 0.69319
 C260 C 1.11018 -0.11287 0.69054
 H261 H 1.12150 -0.19990 0.65721
 H262 H 1.11310 -0.08415 0.72896
 C263 C 0.28367 1.11780 1.13532
 C264 C 0.30813 1.12098 1.08244
 H265 H 0.30528 1.08964 1.16658
 H266 H 0.28608 1.14315 1.04736
 C267 C 0.27452 0.86840 0.84797
 C268 C 0.31969 0.84990 0.88019
 H269 H 0.27591 0.91447 0.83425
 H270 H 0.32534 0.80296 0.88829
 C271 C 0.73709 0.90430 1.10502
 C272 C 0.68417 0.87701 1.10042
 H273 H 0.74389 0.94929 1.08969
 H274 H 0.67671 0.83413 1.12043
 C275 C 0.73445 1.10778 0.86853
 C276 C 0.68612 1.13344 0.88975
 H277 H 0.73320 1.05963 0.86238
 H278 H 0.68103 1.18133 0.88883
 C279 C 0.11700 0.25762 0.10105
 C280 C 0.10058 0.30847 0.12732
 H281 H 0.11382 0.25282 0.05418
 H282 H 0.11012 0.31503 0.17328
 C283 C -0.11992 0.27751 -0.12827
 C284 C -0.14838 0.32296 -0.10329
 H285 H -0.07181 0.27854 -0.12839
 H286 H -0.19603 0.32618 -0.10740
 C287 C 0.14433 0.68539 -0.14806
 C288 C 0.11527 0.68954 -0.09749
 H289 H 0.14424 0.64354 -0.17235
 H290 H 0.11164 0.73283 -0.07617
 C291 C -0.11799 0.74358 0.12177
 C292 C -0.11227 0.69094 0.14718
 H293 H -0.10511 0.74829 0.07665
 H294 H -0.13021 0.68396 0.19022
 C295 C 1.11377 0.13162 0.72979
 C296 C 1.14420 0.11262 0.68329
 H297 H 1.06570 0.13088 0.72781
 H298 H 1.19197 0.11773 0.68174
 C299 C 0.89768 -0.11518 0.72828
 C300 C 0.86961 -0.08555 0.68637
 H301 H 0.94423 -0.12442 0.72138
 H302 H 0.82191 -0.08151 0.68629
 C303 C 1.13601 -0.11252 0.28070
 C304 C 1.10583 -0.14069 0.32249
 H305 H 1.14642 -0.06545 0.28774
 H306 H 1.10046 -0.18869 0.32257
 C307 C 0.86343 0.11481 0.28438
 C308 C 0.91297 0.13368 0.31246
 H309 H 0.84029 0.07589 0.30101
 H310 H 0.93514 0.17527 0.30247
 C311 C 0.09935 0.25986 -0.09287
 C312 C 0.09803 0.31526 -0.11292
 H313 H 0.08286 0.25003 -0.04985
 H314 H 0.11932 0.32525 -0.15391
 C315 C -0.12473 0.26633 0.13124
 C316 C -0.14692 0.31984 0.12142
 H317 H -0.07875 0.25769 0.12111
 H318 H -0.19080 0.33048 0.13709
 C319 C -0.09648 0.73914 -0.11905
 C320 C -0.12501 0.69750 -0.08804
 H321 H -0.05039 0.73166 -0.12982
 H322 H -0.17269 0.69801 -0.08335
 C323 C 0.11950 0.73417 0.12322
 C324 C 0.11324 0.68060 0.14682
 H325 H 0.10531 0.74094 0.07872
 H326 H 0.13195 0.67202 0.18928
 C327 C 0.25957 1.11315 0.89310
 C328 C 0.31398 1.11514 0.87048
 H329 H 0.25212 1.09297 0.93500
 H330 H 0.32225 1.13984 0.83116
 C331 C 0.26793 0.89684 1.11218
 C332 C 0.31282 0.86564 1.09028
 H333 H 0.26884 0.94514 1.11058
 H334 H 0.31551 0.81819 1.09764
 C335 C 0.69163 1.14391 1.15314
 C336 C 0.68611 1.09282 1.12299
 H337 H 0.65654 1.17618 1.15219
 H338 H 0.72439 1.06438 1.11969
 C339 C 0.74249 0.88548 0.88266
 C340 C 0.68974 0.89249 0.85723
 H341 H 0.74758 0.89565 0.92873
 H342 H 0.68289 0.87717 0.81268
   
