data_POSCAR
  _audit_creation_date              2014-09-24
  _audit_creation_method            'ToBaCCo'
  _symmetry_space_group_name_H-M    'P1'
  _symmetry_Int_Tables_number       1
  _symmetry_cell_setting            triclinic
  loop_
  _symmetry_equiv_pos_as_xyz
 x,y,z
_cell_length_a 42.8880
_cell_length_b 26.0407
_cell_length_c 14.9882
_cell_angle_alpha 90.506100
_cell_angle_beta 89.881900
_cell_angle_gamma 90.061800
loop_
  _atom_site_label
  _atom_site_type_symbol
  _atom_site_fract_x
  _atom_site_fract_y
  _atom_site_fract_z
C1 C 0.74894 0.24757 0.46235
 C2 C 0.74846 0.24330 0.55272
 C3 C 0.72314 0.26675 0.60619
 C4 C 0.77285 0.21508 0.60192
 C5 C 0.77513 0.22770 0.40665
 C6 C 0.72256 0.27161 0.41482
 C7 C 0.72457 0.31857 0.63068
 C8 C 0.70061 0.34087 0.68096
 C9 C 0.67398 0.31207 0.70630
 C10 C 0.67283 0.25983 0.67905
 C11 C 0.69734 0.23741 0.63126
 C12 C 0.79093 0.24062 0.66646
 C13 C 0.81541 0.21518 0.70859
 C14 C 0.82187 0.16373 0.68741
 C15 C 0.80302 0.13756 0.62556
 C16 C 0.77868 0.16308 0.58296
 C17 C 0.76878 0.19667 0.33190
 C18 C 0.79304 0.17684 0.27985
 C19 C 0.82435 0.18734 0.30147
 C20 C 0.83063 0.21919 0.37572
 C21 C 0.80628 0.23973 0.42687
 C22 C 0.69357 0.24685 0.41080
 C23 C 0.66884 0.26901 0.36467
 C24 C 0.67274 0.31616 0.32089
 C25 C 0.70192 0.34085 0.32530
 C26 C 0.72667 0.31858 0.37155
 H27 H 0.74427 0.34184 0.61051
 H28 H 0.70268 0.38146 0.69530
 H29 H 0.65371 0.23507 0.69797
 H30 H 0.69606 0.19712 0.61300
 H31 H 0.78666 0.28063 0.68242
 H32 H 0.82922 0.23564 0.75768
 H33 H 0.76470 0.14260 0.53415
 H34 H 0.74496 0.18724 0.31429
 H35 H 0.78721 0.15334 0.22235
 H36 H 0.85431 0.22780 0.39549
 H37 H 0.81181 0.26470 0.48276
 H38 H 0.69025 0.21001 0.44241
 H39 H 0.64684 0.24865 0.36165
 H40 H 0.70562 0.37755 0.29363
 H41 H 0.74898 0.33805 0.37404
 H42 H 0.80761 0.09771 0.60893
 C43 C 0.25022 0.75105 0.45831
 C44 C 0.25119 0.75020 0.54899
 C45 C 0.22494 0.77101 0.60236
 C46 C 0.27758 0.72663 0.59806
 C47 C 0.27428 0.72560 0.40266
 C48 C 0.22455 0.77687 0.41078
 C49 C 0.22923 0.81459 0.65631
 C50 C 0.20415 0.83550 0.70393
 C51 C 0.17441 0.81264 0.69930
 C52 C 0.17045 0.76844 0.64577
 C53 C 0.19547 0.74785 0.59785
 C54 C 0.30857 0.73945 0.57784
 C55 C 0.33319 0.71324 0.61757
 C56 C 0.32748 0.67478 0.68106
 C57 C 0.29637 0.66456 0.70556
 C58 C 0.27172 0.69001 0.66410
 C59 C 0.27819 0.67213 0.40487
 C60 C 0.30200 0.64874 0.35536
 C61 C 0.32248 0.67864 0.30410
 C62 C 0.31830 0.73209 0.30151
 C63 C 0.29410 0.75531 0.34942
 C64 C 0.20221 0.74744 0.36536
 C65 C 0.17723 0.77134 0.32305
 C66 C 0.17466 0.82514 0.32373
 C67 C 0.19732 0.85460 0.36844
 C68 C 0.22198 0.83056 0.41235
 H69 H 0.25187 0.83299 0.66002
 H70 H 0.20801 0.87005 0.74301
 H71 H 0.14804 0.74941 0.64153
 H72 H 0.19189 0.71381 0.55706
 H73 H 0.31375 0.76893 0.52955
 H74 H 0.35668 0.72242 0.59666
 H75 H 0.24800 0.68013 0.68207
 H76 H 0.26298 0.64872 0.44556
 H77 H 0.30488 0.60749 0.35861
 H78 H 0.33368 0.75581 0.26190
 H79 H 0.29135 0.79662 0.34713
 H80 H 0.20388 0.70593 0.36396
 H81 H 0.16015 0.74787 0.28852
 H82 H 0.19571 0.89609 0.37033
 H83 H 0.23910 0.85369 0.44745
 H84 H 0.29087 0.63668 0.75627
 C85 C 0.24878 0.24362 -0.45025
 C86 C 0.24935 0.24442 -0.54100
 C87 C 0.27522 0.26885 -0.59148
 C88 C 0.22352 0.22176 -0.59352
 C89 C 0.22356 0.21711 -0.40161
 C90 C 0.27275 0.27032 -0.39627
 C91 C 0.26872 0.30539 -0.65685
 C92 C 0.29291 0.33067 -0.70129
 C93 C 0.32451 0.32048 -0.68089
 C94 C 0.33053 0.28203 -0.61701
 C95 C 0.30632 0.25612 -0.57442
 C96 C 0.19380 0.24376 -0.59053
 C97 C 0.16930 0.22192 -0.63872
 C98 C 0.17393 0.17768 -0.69251
 C99 C 0.20426 0.15639 -0.69572
 C100 C 0.22870 0.17833 -0.64696
 C101 C 0.22441 0.16387 -0.39035
 C102 C 0.19997 0.13870 -0.34690
 C103 C 0.17369 0.16624 -0.31554
 C104 C 0.17310 0.21992 -0.32865
 C105 C 0.19800 0.24505 -0.36966
 C106 C 0.29482 0.24188 -0.34867
 C107 C 0.31984 0.26672 -0.30695
 C108 C 0.32253 0.32043 -0.31004
 C109 C 0.29945 0.34898 -0.35367
 C110 C 0.27488 0.32405 -0.39725
 H111 H 0.24481 0.31505 -0.67263
 H112 H 0.28626 0.35764 -0.75205
 H113 H 0.35394 0.27262 -0.59661
 H114 H 0.31197 0.22666 -0.52664
 H115 H 0.18963 0.27820 -0.55129
 H116 H 0.14697 0.24110 -0.63568
 H117 H 0.25161 0.16090 -0.64971
 H118 H 0.24394 0.14179 -0.41580
 H119 H 0.20134 0.09738 -0.34157
 H120 H 0.15391 0.24315 -0.30447
 H121 H 0.19709 0.28630 -0.37799
 H122 H 0.29345 0.20036 -0.34740
 H123 H 0.33725 0.24406 -0.27299
 H124 H 0.30111 0.39043 -0.35692
 H125 H 0.25795 0.34647 -0.43359
 H126 H 0.20932 0.12170 -0.73304
 C127 C -0.25012 0.74179 -0.45052
 C128 C -0.25024 0.74371 -0.54107
 C129 C -0.22428 0.76760 -0.59141
 C130 C -0.27657 0.72236 -0.59342
 C131 C -0.27568 0.71699 -0.40086
 C132 C -0.22492 0.76535 -0.39658
 C133 C -0.23037 0.80807 -0.64964
 C134 C -0.20589 0.83377 -0.69172
 C135 C -0.17453 0.81971 -0.67649
 C136 C -0.16890 0.77708 -0.62099
 C137 C -0.19346 0.75131 -0.57955
 C138 C -0.30634 0.74405 -0.58706
 C139 C -0.33119 0.72312 -0.63525
 C140 C -0.32686 0.68021 -0.69242
 C141 C -0.29650 0.65926 -0.69890
 C142 C -0.27174 0.68024 -0.65021
 C143 C -0.27603 0.66379 -0.38910
 C144 C -0.30000 0.64072 -0.34043
 C145 C -0.32461 0.67043 -0.30419
 C146 C -0.32415 0.72399 -0.31843
 C147 C -0.29966 0.74698 -0.36471
 C148 C -0.20570 0.73427 -0.34424
 C149 C -0.18155 0.75603 -0.29423
 C150 C -0.17663 0.80938 -0.29433
 C151 C -0.19611 0.84049 -0.34635
 C152 C -0.22002 0.81860 -0.39730
 H153 H -0.25406 0.82104 -0.66002
 H154 H -0.21176 0.86636 -0.73259
 H155 H -0.14566 0.76243 -0.61024
 H156 H -0.18838 0.71894 -0.53710
 H157 H -0.31029 0.77754 -0.54526
 H158 H -0.35356 0.74198 -0.62948
 H159 H -0.24883 0.66299 -0.65563
 H160 H -0.25765 0.64020 -0.41737
 H161 H -0.29962 0.59937 -0.33441
 H162 H -0.34203 0.74875 -0.29073
 H163 H -0.29951 0.78827 -0.37301
 H164 H -0.20917 0.69308 -0.34305
 H165 H -0.16699 0.73125 -0.25434
 H166 H -0.19263 0.88166 -0.34839
 H167 H -0.23474 0.84311 -0.43723
 H168 H -0.29162 0.62545 -0.73877
 O169 O 0.04183 0.89841 -0.14630
 O170 O 0.07631 0.94861 -0.06754
 C171 C 0.06991 0.91228 -0.12429
 O172 O -0.04541 1.08052 -0.16313
 O173 O -0.07935 1.03615 -0.07387
 C174 C -0.07336 1.06791 -0.13770
 O175 O 0.04235 1.07786 -0.16906
 O176 O 0.07650 1.03382 -0.08046
 C177 C 0.07036 1.06526 -0.14456
 O178 O -0.04581 0.89391 -0.13397
 O179 O -0.07950 0.94812 -0.06070
 C180 C -0.07370 0.90934 -0.11284
 Zr181 Zr -0.00180 0.92510 -0.09785
 O182 O -0.00527 0.91556 -0.23788
 O183 O -0.00035 0.84489 -0.07799
 Zr184 Zr -0.00149 1.05449 -0.11705
 O185 O -0.00466 1.04548 -0.25730
 O186 O 0.00147 1.13524 -0.13029
 O187 O 0.02614 0.98878 -0.12566
 O188 O -0.02871 0.98899 -0.12300
 O189 O -0.04469 0.91057 0.17374
 O190 O -0.07918 0.95580 0.08780
 C191 C -0.07278 0.92326 0.15028
 O192 O 0.04300 1.09330 0.15267
 O193 O 0.07694 1.04237 0.07326
 C194 C 0.07095 1.07889 0.13007
 O195 O -0.04466 1.09889 0.14388
 O196 O -0.07908 1.04455 0.07365
 C197 C -0.07274 1.08402 0.12377
 O198 O 0.04287 0.91355 0.17654
 O199 O 0.07676 0.95721 0.08606
 C200 C 0.07081 0.92584 0.15054
 Zr201 Zr -0.00107 0.93731 0.12681
 O202 O -0.00363 0.94697 0.26709
 O203 O 0.00109 0.85664 0.14085
 Zr204 Zr -0.00099 1.06636 0.10809
 O205 O -0.00438 1.07191 0.24883
 O206 O 0.00273 1.14722 0.10008
 Zr207 Zr 0.04501 0.99570 0.00367
 Zr208 Zr -0.04763 0.99602 0.00616
 O209 O -0.02817 1.00283 0.13442
 O210 O 0.02693 1.00267 0.13412
 O211 O -0.02926 0.92140 0.01669
 O212 O 0.02575 1.06974 -0.00642
 O213 O 0.02564 0.92177 0.01487
 O214 O -0.02896 1.07061 -0.00537
 H215 H -0.04286 0.98597 -0.17496
 H216 H 0.03973 1.09993 -0.01075
 H217 H -0.04232 1.00589 0.18653
 H218 H 0.03956 0.89152 0.01849
 H219 H -0.01598 1.15050 -0.09592
 H220 H -0.01250 1.15865 0.05501
 H221 H 0.01392 1.05415 0.27417
 H222 H 0.01538 0.96549 0.28643
 H223 H -0.01198 0.84153 0.09302
 H224 H -0.00070 0.82897 -0.13828
 H225 H 0.01035 0.93860 -0.26518
 H226 H 0.01404 1.02645 -0.27760
 O227 O 0.45456 0.41022 0.16905
 O228 O 0.42077 0.45479 0.08005
 C229 C 0.42670 0.42313 0.14423
 O230 O 0.54186 0.59379 0.15471
 O231 O 0.57659 0.54220 0.07988
 C232 C 0.57002 0.57998 0.13351
 O233 O 0.45432 0.58961 0.15629
 O234 O 0.42070 0.54019 0.07323
 C235 C 0.42645 0.57569 0.13201
 O236 O 0.54191 0.40405 0.16350
 O237 O 0.57697 0.45182 0.08327
 C238 C 0.57017 0.41659 0.14075
 Zr239 Zr 0.49849 0.43291 0.11883
 O240 O 0.50069 0.43377 0.25988
 O241 O 0.49656 0.35183 0.11439
 Zr242 Zr 0.49862 0.56233 0.11324
 O243 O 0.50086 0.56154 0.25441
 O244 O 0.49555 0.64340 0.11542
 O245 O 0.47051 0.49815 0.13182
 O246 O 0.52568 0.49789 0.13411
 O247 O 0.54388 0.39633 -0.14176
 O248 O 0.57756 0.44868 -0.06467
 C249 C 0.57177 0.41085 -0.11887
 O250 O 0.45784 0.58212 -0.16624
 O251 O 0.42243 0.53704 -0.08267
 C252 C 0.42956 0.56910 -0.14528
 O253 O 0.54505 0.58635 -0.15109
 O254 O 0.57836 0.53682 -0.06909
 C255 C 0.57281 0.57240 -0.12672
 O256 O 0.45670 0.40245 -0.15790
 O257 O 0.42212 0.45117 -0.07702
 C258 C 0.42858 0.41691 -0.13738
 Zr259 Zr 0.50002 0.42804 -0.10575
 O260 O 0.50486 0.42587 -0.24636
 O261 O 0.49664 0.34701 -0.10199
 Zr262 Zr 0.50077 0.55768 -0.11232
 O263 O 0.50569 0.55321 -0.25278
 O264 O 0.49751 0.63869 -0.11882
 Zr265 Zr 0.45285 0.49572 0.00058
 Zr266 Zr 0.54590 0.49517 0.00628
 O267 O 0.52764 0.49226 -0.12386
 O268 O 0.47268 0.49277 -0.12830
 O269 O 0.52704 0.42048 0.00869
 O270 O 0.47269 0.56969 -0.00193
 O271 O 0.47189 0.42138 0.00559
 O272 O 0.52742 0.57009 0.00173
 H273 H 0.53958 0.49887 0.18683
 H274 H 0.45890 0.60013 -0.00469
 H275 H 0.54224 0.49095 -0.17514
 H276 H 0.45765 0.39139 0.00636
 H277 H 0.51021 0.65629 0.06982
 H278 H 0.51411 0.65325 -0.08048
 H279 H 0.48765 0.53371 -0.27631
 H280 H 0.48738 0.44564 -0.27178
 H281 H 0.51006 0.33533 -0.05255
 H282 H 0.49657 0.34040 0.17729
 H283 H 0.48535 0.45939 0.28131
 H284 H 0.48083 0.54782 0.27684
 C285 C 0.38067 0.33228 0.28862
 C286 C 0.34949 0.34831 0.27916
 C287 C 0.34493 0.39478 0.23156
 C288 C 0.36993 0.41988 0.18878
 C289 C 0.40035 0.39996 0.19299
 C290 C 0.40522 0.35749 0.24730
 C291 C 0.42207 0.30888 0.22618
 C292 C 0.39526 0.28092 0.27051
 H293 H 0.32231 0.41253 0.22618
 H294 H 0.36525 0.45421 0.15088
 H295 H 0.44435 0.30585 0.26353
 H296 H 0.42384 0.30116 0.15324
 H297 H 0.40253 0.26117 0.33253
 H298 H 0.38136 0.25697 0.22336
 C299 C -0.15440 0.88120 0.21293
 C300 C -0.14965 0.84843 0.28589
 C301 C -0.11900 0.84728 0.32137
 C302 C -0.09418 0.87272 0.27891
 C303 C -0.09905 0.90020 0.19969
 C304 C -0.12979 0.90608 0.17097
 C305 C -0.14318 0.89759 0.08041
 C306 C -0.17016 0.87052 0.12567
 H307 H -0.11369 0.82688 0.38193
 H308 H -0.07102 0.86950 0.30698
 H309 H -0.12866 0.87148 0.03853
 H310 H -0.15007 0.93412 0.04823
 H311 H -0.17145 0.82881 0.10950
 H312 H -0.19254 0.89165 0.11917
 C313 C 0.61660 0.66981 0.28196
 C314 C 0.64777 0.65946 0.25805
 C315 C 0.65221 0.62800 0.18120
 C316 C 0.62690 0.60351 0.13885
 C317 C 0.59630 0.60960 0.17152
 C318 C 0.59168 0.64556 0.23998
 C319 C 0.57369 0.64054 0.32465
 C320 C 0.60086 0.66684 0.37109
 H321 H 0.67509 0.62154 0.15305
 H322 H 0.63153 0.57848 0.08227
 H323 H 0.57044 0.59988 0.34482
 H324 H 0.55210 0.66411 0.32448
 H325 H 0.61341 0.64150 0.41834
 H326 H 0.59466 0.70535 0.39830
 C327 C 0.11765 1.16771 0.27941
 C328 C 0.14885 1.15616 0.25791
 C329 C 0.15358 1.12309 0.18327
 C330 C 0.12832 1.09894 0.14003
 C331 C 0.09752 1.10692 0.16979
 C332 C 0.09282 1.14377 0.23673
 C333 C 0.07417 1.14012 0.32051
 C334 C 0.10127 1.16611 0.36772
 H335 H 0.17663 1.11531 0.15731
 H336 H 0.13309 1.07287 0.08498
 H337 H 0.07035 1.09978 0.34176
 H338 H 0.05285 1.16429 0.31838
 H339 H 0.11321 1.14089 0.41643
 H340 H 0.09529 1.20504 0.39345
 C341 C 0.62043 0.31093 -0.24090
 C342 C 0.65038 0.33339 -0.24435
 C343 C 0.65448 0.37880 -0.19224
 C344 C 0.62924 0.40257 -0.14831
 C345 C 0.59880 0.38274 -0.15619
 C346 C 0.59542 0.33526 -0.19921
 C347 C 0.57286 0.31887 -0.26935
 C348 C 0.59999 0.29228 -0.31552
 H349 H 0.67711 0.39644 -0.18363
 H350 H 0.63349 0.43788 -0.11160
 H351 H 0.56339 0.35168 -0.30776
 H352 H 0.55511 0.29168 -0.24328
 H353 H 0.60622 0.30958 -0.38079
 H354 H 0.59757 0.24978 -0.31657
 C355 C 0.11695 0.82828 -0.28092
 C356 C 0.14757 0.83424 -0.24986
 C357 C 0.15158 0.86066 -0.16792
 C358 C 0.12624 0.88533 -0.12579
 C359 C 0.09622 0.88369 -0.16405
 C360 C 0.09194 0.85212 -0.23896
 C361 C 0.07636 0.86351 -0.32551
 C362 C 0.10378 0.83744 -0.37152
 H363 H 0.17435 0.86365 -0.13739
 H364 H 0.13037 0.90684 -0.06477
 H365 H 0.07488 0.90538 -0.33891
 H366 H 0.05410 0.84206 -0.33342
 H367 H 0.11831 0.86418 -0.41151
 H368 H 0.09726 0.80107 -0.40612
 C369 C 0.38427 0.66485 -0.28034
 C370 C 0.35388 0.64493 -0.28079
 C371 C 0.34993 0.59465 -0.24729
 C372 C 0.37468 0.56910 -0.20473
 C373 C 0.40410 0.59271 -0.19627
 C374 C 0.40871 0.63931 -0.23982
 C375 C 0.42283 0.68802 -0.20564
 C376 C 0.39601 0.71610 -0.24979
 H377 H 0.32767 0.57527 -0.25161
 H378 H 0.37057 0.53159 -0.17659
 H379 H 0.44580 0.69601 -0.23709
 H380 H 0.42245 0.69081 -0.13155
 H381 H 0.40367 0.74043 -0.30633
 H382 H 0.37999 0.73517 -0.20141
 C383 C -0.12081 1.15096 -0.29206
 C384 C -0.15153 1.13718 -0.27175
 C385 C -0.15618 1.09434 -0.21659
 C386 C -0.13071 1.07100 -0.17374
 C387 C -0.10005 1.08950 -0.18675
 C388 C -0.09574 1.12743 -0.25117
 C389 C -0.07725 1.17596 -0.24824
 C390 C -0.10480 1.20190 -0.29306
 H391 H -0.17955 1.08059 -0.20323
 H392 H -0.13521 1.03975 -0.12830
 H393 H -0.05619 1.17383 -0.29147
 H394 H -0.07300 1.18989 -0.17896
 H395 H -0.09955 1.21476 -0.36200
 H396 H -0.11618 1.23109 -0.24948
 C397 C 0.62183 0.67161 -0.24536
 C398 C 0.65110 0.64776 -0.25386
 C399 C 0.65509 0.60093 -0.20769
 C400 C 0.62994 0.57731 -0.16352
 C401 C 0.59987 0.59900 -0.16599
 C402 C 0.59689 0.64761 -0.20375
 C403 C 0.57396 0.66701 -0.27002
 C404 C 0.60115 0.69337 -0.31587
 H405 H 0.67754 0.58212 -0.20505
 H406 H 0.63382 0.54088 -0.13109
 H407 H 0.55709 0.69440 -0.23947
 H408 H 0.56337 0.63575 -0.31097
 H409 H 0.59977 0.73595 -0.31195
 H410 H 0.60630 0.67748 -0.38344
 C411 C 0.11891 1.16361 -0.26666
 C412 C 0.14878 1.14143 -0.27077
 C413 C 0.15276 1.09448 -0.22489
 C414 C 0.12738 1.06980 -0.18349
 C415 C 0.09707 1.09041 -0.18853
 C416 C 0.09381 1.13862 -0.22753
 C417 C 0.07164 1.15600 -0.29754
 C418 C 0.09899 1.18341 -0.34061
 H419 H 0.17544 1.07672 -0.21922
 H420 H 0.13142 1.03383 -0.14965
 H421 H 0.05374 1.18271 -0.27026
 H422 H 0.06237 1.12369 -0.33869
 H423 H 0.09670 1.22591 -0.33835
 H424 H 0.10558 1.16713 -0.40685
 C425 C 0.34645 0.39043 -0.21755
 C426 C 0.34996 0.34671 -0.27140
 C427 C 0.38054 0.32986 -0.29026
 C428 C 0.40640 0.35342 -0.24881
 C429 C 0.40214 0.39379 -0.18652
 C430 C 0.37184 0.41296 -0.17534
 C431 C 0.35366 0.42289 -0.09180
 C432 C 0.32583 0.39855 -0.13839
 H433 H 0.38436 0.29770 -0.33525
 H434 H 0.42949 0.33860 -0.26279
 H435 H 0.35052 0.46455 -0.07793
 H436 H 0.36228 0.40020 -0.03435
 H437 H 0.30682 0.42633 -0.15218
 H438 H 0.31817 0.36189 -0.10773
 C439 C -0.12240 0.80846 -0.23165
 C440 C -0.15151 0.83234 -0.23919
 C441 C -0.15598 0.87885 -0.19203
 C442 C -0.13090 0.90306 -0.14812
 C443 C -0.10072 0.88144 -0.15055
 C444 C -0.09759 0.83255 -0.18910
 C445 C -0.07466 0.81269 -0.25606
 C446 C -0.10185 0.78621 -0.30248
 H447 H -0.17853 0.89751 -0.19185
 H448 H -0.13489 0.93997 -0.11637
 H449 H -0.05785 0.78535 -0.22617
 H450 H -0.06397 0.84376 -0.29640
 H451 H -0.10073 0.74363 -0.29909
 H452 H -0.10692 0.80185 -0.36972
 C453 C 0.37826 0.67537 0.25528
 C454 C 0.34821 0.65445 0.25332
 C455 C 0.34339 0.61008 0.20060
 C456 C 0.36871 0.58506 0.15897
 C457 C 0.39948 0.60329 0.17077
 C458 C 0.40329 0.65022 0.21573
 C459 C 0.42478 0.66485 0.29000
 C460 C 0.39735 0.69253 0.33316
 H461 H 0.32022 0.59395 0.19366
 H462 H 0.36427 0.55029 0.12095
 H463 H 0.44351 0.69133 0.26758
 H464 H 0.43292 0.63114 0.32857
 H465 H 0.40025 0.73494 0.33535
 H466 H 0.38958 0.67498 0.39686
 C467 C -0.15413 1.11871 0.19931
 C468 C -0.14993 1.16488 0.24666
 C469 C -0.12039 1.18874 0.23945
 C470 C -0.09530 1.16338 0.19695
 C471 C -0.09927 1.11392 0.15956
 C472 C -0.12956 1.09410 0.15663
 C473 C -0.14135 1.04215 0.18105
 C474 C -0.16824 1.06906 0.22816
 H475 H -0.11617 1.22610 0.26915
 H476 H -0.07262 1.18169 0.19649
 H477 H -0.12548 1.02164 0.22724
 H478 H -0.14879 1.01968 0.12146
 H479 H -0.16796 1.06436 0.30183
 H480 H -0.19113 1.06163 0.19585
 C481 C 0.61556 0.33045 0.29509
 C482 C 0.64659 0.33850 0.26935
 C483 C 0.65176 0.36720 0.19114
 C484 C 0.62686 0.39179 0.14779
 C485 C 0.59618 0.38809 0.18139
 C486 C 0.59103 0.35451 0.25225
 C487 C 0.57363 0.36274 0.33756
 C488 C 0.60052 0.33634 0.38452
 H489 H 0.67506 0.37187 0.16460
 H490 H 0.63184 0.41493 0.08977
 H491 H 0.55158 0.34030 0.33959
 H492 H 0.57127 0.40408 0.35561
 H493 H 0.59393 0.29873 0.41359
 H494 H 0.61381 0.36230 0.42990
 C495 C 0.11835 0.83056 0.28188
 C496 C 0.14868 0.85006 0.27614
 C497 C 0.15370 0.89268 0.22054
 C498 C 0.12845 0.91730 0.17891
 C499 C 0.09756 0.90036 0.19331
 C500 C 0.09341 0.85528 0.24212
 C501 C 0.07234 0.84455 0.31918
 C502 C 0.09966 0.81735 0.36255
 H503 H 0.17704 0.90748 0.21050
 H504 H 0.13307 0.95053 0.13799
 H505 H 0.05301 0.81811 0.30057
 H506 H 0.06507 0.88006 0.35535
 H507 H 0.09610 0.77525 0.36880
 H508 H 0.10827 0.83704 0.42384
   
