data_POSCAR
  _audit_creation_date              2014-09-24
  _audit_creation_method            'ToBaCCo'
  _symmetry_space_group_name_H-M    'P1'
  _symmetry_Int_Tables_number       1
  _symmetry_cell_setting            triclinic
  loop_
  _symmetry_equiv_pos_as_xyz
 x,y,z
_cell_length_a 42.2682
_cell_length_b 42.2952
_cell_length_c 46.1639
_cell_angle_alpha 89.891400
_cell_angle_beta 90.072500
_cell_angle_gamma 120.102600
loop_
  _atom_site_label
  _atom_site_type_symbol
  _atom_site_fract_x
  _atom_site_fract_y
  _atom_site_fract_z
C1 C 0.03279 0.51148 1.31186
 C2 C -0.00049 0.49490 1.32673
 C3 C -0.03378 0.47817 1.31186
 C4 C -0.03415 0.47780 1.28120
 C5 C -0.00052 0.49454 1.26584
 C6 C 0.03313 0.51146 1.28120
 C7 C 0.06611 0.52791 1.26549
 C8 C 0.06608 0.52781 1.23534
 C9 C 0.03308 0.51127 1.21971
 C10 C -0.00054 0.49445 1.23506
 C11 C -0.06714 0.46123 1.26549
 C12 C -0.06715 0.46115 1.23535
 C13 C -0.03416 0.47763 1.21967
 C14 C -0.03376 0.47784 1.18900
 C15 C -0.00044 0.49450 1.17418
 C16 C 0.03277 0.51113 1.18910
 H17 H 0.09231 0.54106 1.27642
 H18 H 0.09224 0.54088 1.22436
 H19 H -0.09333 0.44817 1.27643
 H20 H -0.09333 0.44802 1.22439
 H21 H -0.00048 0.49510 1.35027
 H22 H -0.00028 0.49466 1.15065
 C23 C 0.52220 0.48859 1.18911
 C24 C 0.50557 0.50515 1.17420
 C25 C 0.48897 0.52174 1.18902
 C26 C 0.48885 0.52197 1.21963
 C27 C 0.50567 0.50523 1.23504
 C28 C 0.52244 0.48847 1.21972
 C29 C 0.53892 0.47200 1.23540
 C30 C 0.53888 0.47195 1.26556
 C31 C 0.52235 0.48836 1.28122
 C32 C 0.50562 0.50518 1.26580
 C33 C 0.47234 0.53840 1.23522
 C34 C 0.47229 0.53836 1.26538
 C35 C 0.48874 0.52188 1.28109
 C36 C 0.48874 0.52158 1.31169
 C37 C 0.50528 0.50496 1.32666
 C38 C 0.52200 0.48840 1.31189
 H39 H 0.55199 0.45898 1.22445
 H40 H 0.55194 0.45886 1.27654
 H41 H 0.45928 0.55144 1.22420
 H42 H 0.45919 0.55137 1.27631
 H43 H 0.50546 0.50505 1.15068
 H44 H 0.50502 0.50487 1.35019
 C45 C 0.47797 0.96702 1.31191
 C46 C 0.49461 1.00026 1.32679
 C47 C 0.51133 1.03358 1.31194
 C48 C 0.51156 1.03400 1.28127
 C49 C 0.49475 1.00042 1.26589
 C50 C 0.47786 0.96676 1.28125
 C51 C 0.46140 0.93383 1.26552
 C52 C 0.46156 0.93392 1.23536
 C53 C 0.47817 0.96692 1.21974
 C54 C 0.49490 1.00049 1.23510
 C55 C 0.52815 1.06700 1.26557
 C56 C 0.52830 1.06706 1.23542
 C57 C 0.51186 1.03413 1.21972
 C58 C 0.51191 1.03380 1.18905
 C59 C 0.49531 1.00052 1.17422
 C60 C 0.47856 0.96729 1.18913
 H61 H 0.44824 0.90762 1.27644
 H62 H 0.44852 0.90780 1.22437
 H63 H 0.54123 1.09315 1.27652
 H64 H 0.54148 1.09325 1.22447
 H65 H 0.49463 1.00021 1.35034
 H66 H 0.49547 1.00041 1.15069
 C67 C 1.03444 0.52233 0.81126
 C68 C 1.00114 0.50556 0.82610
 C69 C 0.96789 0.48892 0.81122
 C70 C 0.96753 0.48888 0.78061
 C71 C 1.00114 0.50581 0.76524
 C72 C 1.03479 0.52264 0.78059
 C73 C 1.06775 0.53921 0.76486
 C74 C 1.06769 0.53921 0.73470
 C75 C 1.03466 0.52265 0.71904
 C76 C 1.00108 0.50582 0.73446
 C77 C 0.93451 0.47234 0.76499
 C78 C 0.93445 0.47236 0.73483
 C79 C 0.96741 0.48891 0.71915
 C80 C 0.96764 0.48898 0.68854
 C81 C 1.00082 0.50561 0.67359
 C82 C 1.03419 0.52236 0.68837
 H83 H 1.09396 0.55233 0.77579
 H84 H 1.09385 0.55234 0.72372
 H85 H 0.90837 0.45919 0.77599
 H86 H 0.90826 0.45922 0.72389
 H87 H 1.00101 0.50533 0.84964
 H88 H 1.00060 0.50541 0.65006
 C89 C 0.51112 0.47786 0.68854
 C90 C 0.49452 0.49449 0.67366
 C91 C 0.47796 0.51110 0.68852
 C92 C 0.47779 0.51123 0.71913
 C93 C 0.49456 0.49441 0.73450
 C94 C 0.51130 0.47763 0.71916
 C95 C 0.52778 0.46115 0.73482
 C96 C 0.52788 0.46120 0.76499
 C97 C 0.51150 0.47772 0.78062
 C98 C 0.49466 0.49447 0.76526
 C99 C 0.46140 0.52775 0.73477
 C100 C 0.46151 0.52780 0.76494
 C101 C 0.47801 0.51134 0.78060
 C102 C 0.47839 0.51132 0.81121
 C103 C 0.49504 0.49474 0.82609
 C104 C 0.51152 0.47805 0.81124
 H105 H 0.54080 0.44807 0.72384
 H106 H 0.54096 0.44815 0.77598
 H107 H 0.44834 0.54082 0.72378
 H108 H 0.44853 0.54091 0.77591
 H109 H 0.49458 0.49459 0.65015
 H110 H 0.49525 0.49491 0.84961
 C111 C 0.48851 -0.03381 0.81181
 C112 C 0.50519 -0.00054 0.82664
 C113 C 0.52185 0.03269 0.81173
 C114 C 0.52208 0.03306 0.78113
 C115 C 0.50526 -0.00051 0.76579
 C116 C 0.48839 -0.03415 0.78115
 C117 C 0.47185 -0.06709 0.76543
 C118 C 0.47184 -0.06700 0.73527
 C119 C 0.48835 -0.03399 0.71965
 C120 C 0.50524 -0.00044 0.73503
 C121 C 0.53860 0.06607 0.76548
 C122 C 0.53857 0.06613 0.73532
 C123 C 0.52202 0.03319 0.71968
 C124 C 0.52171 0.03291 0.68907
 C125 C 0.50501 -0.00028 0.67419
 C126 C 0.48840 -0.03355 0.68905
 H127 H 0.45873 -0.09329 0.77636
 H128 H 0.45872 -0.09311 0.72427
 H129 H 0.55171 0.09220 0.77646
 H130 H 0.55165 0.09230 0.72435
 H131 H 0.50515 -0.00042 0.85017
 H132 H 0.50485 -0.00023 0.65067
 O133 O 0.38832 0.65827 0.97589
 O134 O 0.38674 0.71838 0.96646
 C135 C 0.37002 0.73566 0.96136
 O136 O 0.34216 0.73046 0.97577
 O137 O 0.28195 0.66870 0.96637
 C138 C 0.26462 0.63467 0.96128
 O139 O 0.26977 0.61198 0.97574
 O140 O 0.33156 0.61371 0.96642
 C141 C 0.36563 0.63044 0.96142
 O142 O 0.38664 0.66874 1.03336
 O143 O 0.38832 0.73047 1.02394
 C144 C 0.36562 0.73558 1.03835
 O145 O 0.33156 0.71822 1.03327
 O146 O 0.26977 0.65803 1.02386
 C147 C 0.26460 0.63018 1.03831
 O148 O 0.28189 0.61349 1.03324
 O149 O 0.34206 0.61200 1.02392
 C150 C 0.36990 0.63468 1.03840
 Cr151 Cr 0.38551 0.69296 0.99991
 Cr152 Cr 0.30736 0.69286 0.99982
 Cr153 Cr 0.30732 0.61479 0.99983
 O154 O 0.33339 0.66687 0.99985
 O155 O 0.61389 0.33117 0.96715
 O156 O 0.61229 0.26949 0.97665
 C157 C 0.63498 0.26439 0.96224
 O158 O 0.66904 0.28172 0.96732
 O159 O 0.73086 0.34190 0.97665
 C160 C 0.73601 0.36970 0.96213
 O161 O 0.71868 0.38637 0.96711
 O162 O 0.65854 0.38792 0.97643
 C163 C 0.63064 0.36521 0.96203
 O164 O 0.61236 0.34175 1.02462
 O165 O 0.61390 0.28164 1.03413
 C166 C 0.63060 0.26433 1.03923
 O167 O 0.65846 0.26953 1.02481
 O168 O 0.71865 0.33135 1.03415
 C169 C 0.73600 0.36539 1.03914
 O170 O 0.73089 0.38805 1.02461
 O171 O 0.66914 0.38639 1.03393
 C172 C 0.63508 0.36963 1.03901
 Cr173 Cr 0.61511 0.30701 1.00064
 Cr174 Cr 0.69326 0.30712 1.00073
 Cr175 Cr 0.69331 0.38519 1.00053
 O176 O 0.66722 0.33311 1.00063
 O177 O 0.65782 0.38799 0.52347
 O178 O 0.71801 0.38649 0.53287
 C179 C 0.73537 0.36984 0.53791
 O180 O 0.73022 0.34207 0.52345
 O181 O 0.66845 0.28187 0.53288
 C182 C 0.63439 0.26451 0.53798
 O183 O 0.61166 0.26957 0.52351
 O184 O 0.61321 0.33122 0.53283
 C185 C 0.62995 0.36525 0.53790
 O186 O 0.66836 0.38651 0.46599
 O187 O 0.73015 0.38821 0.47537
 C188 C 0.73530 0.36558 0.46093
 O189 O 0.71795 0.33152 0.46597
 O190 O 0.65779 0.26968 0.47542
 C191 C 0.62989 0.26442 0.46099
 O192 O 0.61319 0.28172 0.46600
 O193 O 0.61160 0.34181 0.47533
 C194 C 0.63429 0.36974 0.46093
 Cr195 Cr 0.69259 0.38531 0.49942
 Cr196 Cr 0.69260 0.30728 0.49943
 Cr197 Cr 0.61441 0.30708 0.49942
 O198 O 0.66653 0.33322 0.49942
 O199 O 0.33074 0.61349 0.53297
 O200 O 0.26898 0.61186 0.52359
 C201 C 0.26388 0.63455 0.53799
 O202 O 0.28123 0.66858 0.53286
 O203 O 0.34149 0.73031 0.52346
 C204 C 0.36931 0.73540 0.53792
 O205 O 0.38601 0.71812 0.53285
 O206 O 0.38751 0.65801 0.52348
 C207 C 0.36481 0.63018 0.53798
 O208 O 0.34122 0.61189 0.47548
 O209 O 0.28106 0.61346 0.46610
 C210 C 0.26379 0.63019 0.46099
 O211 O 0.26905 0.65807 0.47537
 O212 O 0.33089 0.71826 0.46596
 C213 C 0.36496 0.73562 0.46093
 O214 O 0.38761 0.73040 0.47536
 O215 O 0.38584 0.66862 0.46600
 C216 C 0.36909 0.63457 0.46102
 Cr217 Cr 0.30650 0.61467 0.49953
 Cr218 Cr 0.30666 0.69281 0.49941
 Cr219 Cr 0.38475 0.69279 0.49942
 O220 O 0.33263 0.66676 0.49945
 C221 C 0.38001 0.56911 0.41163
 C222 C 0.41214 0.59291 0.39677
 C223 C 0.42949 0.63050 0.40210
 C224 C 0.41511 0.64422 0.42257
 C225 C 0.47183 0.53782 0.32860
 C226 C 0.36558 0.58272 0.43211
 C227 C 0.42812 0.57850 0.37707
 C228 C 0.44172 0.56604 0.36119
 C229 C 0.45787 0.55101 0.34330
 C230 C 0.38319 0.62042 0.43807
 H231 H 0.36641 0.53994 0.40772
 H232 H 0.45444 0.64916 0.39076
 H233 H 0.42935 0.67336 0.42659
 H234 H 0.34095 0.56363 0.44359
 C235 C 0.43058 0.81222 0.41137
 C236 C 0.40684 0.82060 0.39652
 C237 C 0.36922 0.80035 0.40194
 C238 C 0.35544 0.77219 0.42247
 C239 C 0.46243 0.93556 0.32798
 C240 C 0.41690 0.78412 0.43191
 C241 C 0.42133 0.85103 0.37671
 C242 C 0.43390 0.87712 0.36074
 C243 C 0.44908 0.90834 0.34275
 C244 C 0.37918 0.76400 0.43795
 H245 H 0.45977 0.82778 0.40740
 H246 H 0.35060 0.80667 0.39062
 H247 H 0.32628 0.75727 0.42655
 H248 H 0.43596 0.77854 0.44336
 C249 C 0.19927 0.56983 0.40195
 C250 C 0.17907 0.58717 0.39646
 C251 C 0.18742 0.61926 0.41128
 C252 C 0.21545 0.63366 0.43187
 C253 C 0.06423 0.52752 0.32792
 C254 C 0.22735 0.58418 0.42253
 C255 C 0.14870 0.57122 0.37664
 C256 C 0.12263 0.55763 0.36066
 C257 C 0.09143 0.54149 0.34268
 C258 C 0.23550 0.61607 0.43798
 H259 H 0.19296 0.54491 0.39065
 H260 H 0.17189 0.63285 0.40725
 H261 H 0.22101 0.65826 0.44330
 H262 H 0.24223 0.56996 0.42666
 C263 C 0.63020 0.43024 0.40194
 C264 C 0.59259 0.41285 0.39651
 C265 C 0.56879 0.38068 0.41134
 C266 C 0.58241 0.36625 0.43188
 C267 C 0.53738 0.47245 0.32802
 C268 C 0.64393 0.41585 0.42248
 C269 C 0.57816 0.42882 0.37673
 C270 C 0.56568 0.44240 0.36078
 C271 C 0.55062 0.45852 0.34280
 C272 C 0.62013 0.38388 0.43794
 H273 H 0.64886 0.45522 0.39064
 H274 H 0.53961 0.36705 0.40734
 H275 H 0.56332 0.34158 0.44331
 H276 H 0.67308 0.43012 0.42657
 C277 C 0.56937 0.19981 0.40202
 C278 C 0.58673 0.17963 0.39662
 C279 C 0.61887 0.18802 0.41148
 C280 C 0.63331 0.21606 0.43201
 C281 C 0.52728 0.06496 0.32803
 C282 C 0.58376 0.22790 0.42254
 C283 C 0.57079 0.14928 0.37680
 C284 C 0.55724 0.12325 0.36082
 C285 C 0.54117 0.09211 0.34281
 C286 C 0.61571 0.23610 0.43803
 H287 H 0.54442 0.19348 0.39069
 H288 H 0.63249 0.17251 0.40752
 H289 H 0.65795 0.22164 0.44347
 H290 H 0.56953 0.24276 0.42660
 C291 C 0.79969 0.36983 0.40183
 C292 C 0.81998 0.40743 0.39641
 C293 C 0.81173 0.43117 0.41130
 C294 C 0.78372 0.41750 0.43187
 C295 C 0.93480 0.46275 0.32792
 C296 C 0.77162 0.35606 0.42240
 C297 C 0.85035 0.42189 0.37661
 C298 C 0.87641 0.43440 0.36064
 C299 C 0.90760 0.44949 0.34267
 C300 C 0.76357 0.37980 0.43791
 H301 H 0.80592 0.35121 0.39048
 H302 H 0.82734 0.46035 0.40732
 H303 H 0.77824 0.43655 0.44335
 H304 H 0.75667 0.32691 0.42648
 C305 C 0.63116 0.42991 1.09805
 C306 C 0.59357 0.41251 1.10353
 C307 C 0.56972 0.38042 1.08869
 C308 C 0.58328 0.36607 1.06810
 C309 C 0.53850 0.47178 1.17215
 C310 C 0.64483 0.41562 1.07747
 C311 C 0.57920 0.42838 1.12336
 C312 C 0.56676 0.44189 1.13936
 C313 C 0.55172 0.45792 1.15737
 C314 C 0.62098 0.38372 1.06201
 H315 H 0.64986 0.45484 1.10936
 H316 H 0.54055 0.36677 1.09272
 H317 H 0.56415 0.34145 1.05667
 H318 H 0.67398 0.42988 1.07335
 C319 C 0.80014 0.36951 1.09855
 C320 C 0.82039 0.40710 1.10395
 C321 C 0.81222 0.43088 1.08893
 C322 C 0.78432 0.41726 1.06824
 C323 C 0.93485 0.46237 1.17288
 C324 C 0.77218 0.35579 1.07787
 C325 C 0.85063 0.42152 1.12390
 C326 C 0.87660 0.43401 1.13997
 C327 C 0.90770 0.44910 1.15806
 C328 C 0.76420 0.37957 1.06223
 H329 H 0.80631 0.35087 1.11000
 H330 H 0.82780 0.46004 1.09289
 H331 H 0.77889 0.43633 1.05667
 H332 H 0.75725 0.32665 1.07381
 C333 C 0.61960 0.18801 1.08906
 C334 C 0.58755 0.17975 1.10397
 C335 C 0.57024 0.19998 1.09847
 C336 C 0.58459 0.22799 1.07782
 C337 C 0.52796 0.06521 1.17293
 C338 C 0.63400 0.21597 1.06840
 C339 C 0.57162 0.14947 1.12391
 C340 C 0.55806 0.12349 1.13999
 C341 C 0.54193 0.09237 1.15809
 C342 C 0.61645 0.23607 1.06230
 H343 H 0.63318 0.17246 1.09309
 H344 H 0.54536 0.19375 1.10983
 H345 H 0.57040 0.24290 1.07369
 H346 H 0.65857 0.22146 1.05692
 C347 C 0.43011 0.63064 1.09767
 C348 C 0.41275 0.59305 1.10309
 C349 C 0.38071 0.56923 1.08815
 C350 C 0.36636 0.58283 1.06750
 C351 C 0.47211 0.53800 1.17197
 C352 C 0.41582 0.64434 1.07703
 C353 C 0.42864 0.57867 1.12299
 C354 C 0.44216 0.56622 1.13904
 C355 C 0.45822 0.55120 1.15712
 C356 C 0.38397 0.62053 1.06146
 H357 H 0.45500 0.64931 1.10907
 H358 H 0.36710 0.54006 1.09213
 H359 H 0.34179 0.56373 1.05598
 H360 H 0.43005 0.67349 1.07295
 C361 C 0.18852 0.61932 1.08818
 C362 C 0.18029 0.58728 1.10312
 C363 C 0.20044 0.56993 1.09763
 C364 C 0.22837 0.58422 1.07694
 C365 C 0.06596 0.52798 1.17212
 C366 C 0.21639 0.63367 1.06748
 C367 C 0.15008 0.57141 1.12309
 C368 C 0.12414 0.55791 1.13918
 C369 C 0.09307 0.54187 1.15728
 C370 C 0.23642 0.61607 1.06138
 H371 H 0.17301 0.63293 1.09222
 H372 H 0.19422 0.54504 1.10903
 H373 H 0.24323 0.57000 1.07282
 H374 H 0.22187 0.65824 1.05598
 C375 C 0.43106 0.81182 1.08814
 C376 C 0.40723 0.81995 1.10306
 C377 C 0.36962 0.79967 1.09758
 C378 C 0.35594 0.77173 1.07693
 C379 C 0.46227 0.93414 1.17212
 C380 C 0.41747 0.78394 1.06748
 C381 C 0.42160 0.85014 1.12302
 C382 C 0.43405 0.87605 1.13912
 C383 C 0.44907 0.90707 1.15725
 C384 C 0.37977 0.76378 1.06140
 H385 H 0.46023 0.82741 1.09216
 H386 H 0.35093 0.80579 1.10895
 H387 H 0.32678 0.75677 1.07282
 H388 H 0.43659 0.77854 1.05600
 C389 C 0.56967 0.36906 0.59709
 C390 C 0.58706 0.40663 0.60257
 C391 C 0.61913 0.43049 0.58767
 C392 C 0.63348 0.41698 0.56702
 C393 C 0.52791 0.46156 0.67153
 C394 C 0.58396 0.35545 0.57645
 C395 C 0.57121 0.42094 0.62250
 C396 C 0.55773 0.43335 0.63857
 C397 C 0.54174 0.44835 0.65668
 C398 C 0.61585 0.37931 0.56094
 H399 H 0.54476 0.35035 0.60845
 H400 H 0.63277 0.45964 0.59169
 H401 H 0.65808 0.43612 0.55555
 H402 H 0.56970 0.32632 0.57234
 C403 C 0.63055 0.20060 0.59745
 C404 C 0.59296 0.18034 0.60297
 C405 C 0.56909 0.18843 0.58800
 C406 C 0.58262 0.21627 0.56724
 C407 C 0.53800 0.06609 0.67207
 C408 C 0.64418 0.22848 0.57670
 C409 C 0.57863 0.15017 0.62297
 C410 C 0.56622 0.12425 0.63909
 C411 C 0.55121 0.09319 0.65722
 C412 C 0.62031 0.23638 0.56111
 H413 H 0.64926 0.19448 0.60887
 H414 H 0.53992 0.17285 0.59205
 H415 H 0.56348 0.22164 0.55571
 H416 H 0.67333 0.24342 0.57256
 C417 C 0.81170 0.38075 0.58769
 C418 C 0.81990 0.41271 0.60264
 C419 C 0.79964 0.43000 0.59719
 C420 C 0.77165 0.41571 0.57653
 C421 C 0.93439 0.47206 0.67158
 C422 C 0.78376 0.36641 0.56702
 C423 C 0.85016 0.42858 0.62258
 C424 C 0.87613 0.44209 0.63867
 C425 C 0.90725 0.45815 0.65676
 C426 C 0.76363 0.38394 0.56097
 H427 H 0.82727 0.36719 0.59168
 H428 H 0.80583 0.45482 0.60859
 H429 H 0.75671 0.42988 0.57245
 H430 H 0.77830 0.34190 0.55551
 C431 C 0.43031 0.61928 0.58764
 C432 C 0.40648 0.58723 0.60260
 C433 C 0.36886 0.56990 0.59720
 C434 C 0.35515 0.58421 0.57659
 C435 C 0.46164 0.52793 0.67149
 C436 C 0.41670 0.63364 0.56702
 C437 C 0.42088 0.57135 0.62250
 C438 C 0.43335 0.55784 0.63855
 C439 C 0.44841 0.54180 0.65664
 C440 C 0.37898 0.61607 0.56101
 H441 H 0.45949 0.63287 0.59160
 H442 H 0.35018 0.54501 0.60861
 H443 H 0.32599 0.57000 0.57254
 H444 H 0.43581 0.65822 0.55549
 C445 C 0.42944 0.79921 0.59737
 C446 C 0.41211 0.81939 0.60287
 C447 C 0.38013 0.81129 0.58789
 C448 C 0.36581 0.78352 0.56714
 C449 C 0.47149 0.93336 0.67202
 C450 C 0.41517 0.77139 0.57663
 C451 C 0.42797 0.84949 0.62288
 C452 C 0.44149 0.87534 0.63900
 C453 C 0.45757 0.90632 0.65715
 C454 C 0.38338 0.76348 0.56104
 H455 H 0.45428 0.80533 0.60880
 H456 H 0.36655 0.82681 0.59193
 H457 H 0.34128 0.77814 0.55561
 H458 H 0.42938 0.75651 0.57251
 C459 C 0.18779 0.56918 0.58801
 C460 C 0.17967 0.59300 0.60294
 C461 C 0.19989 0.63057 0.59737
 C462 C 0.22777 0.64424 0.57663
 C463 C 0.06554 0.53783 0.67220
 C464 C 0.21562 0.58275 0.56727
 C465 C 0.14952 0.57863 0.62297
 C466 C 0.12364 0.56617 0.63913
 C467 C 0.09263 0.55110 0.65731
 C468 C 0.23572 0.62042 0.56110
 H469 H 0.17225 0.54003 0.59210
 H470 H 0.19376 0.64924 0.60874
 H471 H 0.24269 0.67337 0.57246
 H472 H 0.22102 0.56365 0.55579
 C473 C 0.36966 0.57029 0.90230
 C474 C 0.40728 0.58760 0.89695
 C475 C 0.43113 0.61960 0.91190
 C476 C 0.41752 0.63394 0.93247
 C477 C 0.46220 0.52822 0.82821
 C478 C 0.35596 0.58458 0.92286
 C479 C 0.42166 0.57173 0.87710
 C480 C 0.43408 0.55821 0.86108
 C481 C 0.44905 0.54213 0.84303
 C482 C 0.37980 0.61638 0.93844
 H483 H 0.35097 0.54544 0.89090
 H484 H 0.46031 0.63318 0.90797
 H485 H 0.43664 0.65848 0.94399
 H486 H 0.32679 0.57038 0.92688
 C487 C 0.18849 0.56930 0.91135
 C488 C 0.18027 0.59310 0.89641
 C489 C 0.20045 0.63066 0.90193
 C490 C 0.22839 0.64434 0.92263
 C491 C 0.06586 0.53783 0.82736
 C492 C 0.21638 0.58288 0.93206
 C493 C 0.15005 0.57870 0.87643
 C494 C 0.12410 0.56622 0.86032
 C495 C 0.09301 0.55112 0.84220
 C496 C 0.23643 0.62055 0.93818
 H497 H 0.17297 0.54016 0.90731
 H498 H 0.19424 0.64932 0.89054
 H499 H 0.24327 0.67347 0.92677
 H500 H 0.22184 0.56379 0.94356
 C501 C 0.43033 0.79996 0.90213
 C502 C 0.41297 0.82014 0.89663
 C503 C 0.38090 0.81185 0.91150
 C504 C 0.36652 0.78391 0.93216
 C505 C 0.47252 0.93478 0.82790
 C506 C 0.41600 0.77197 0.92278
 C507 C 0.42890 0.85044 0.87674
 C508 C 0.44246 0.87645 0.86071
 C509 C 0.45857 0.90761 0.84269
 C510 C 0.38413 0.76388 0.93828
 H511 H 0.45524 0.80624 0.89079
 H512 H 0.36730 0.82737 0.90745
 H513 H 0.34193 0.77839 0.94362
 H514 H 0.43023 0.75710 0.92693
 C515 C 0.61979 0.43054 0.91214
 C516 C 0.58768 0.40671 0.89728
 C517 C 0.57028 0.36913 0.90282
 C518 C 0.58460 0.35548 0.92348
 C519 C 0.52837 0.46175 0.82827
 C520 C 0.63416 0.41698 0.93281
 C521 C 0.57180 0.42107 0.87734
 C522 C 0.55829 0.43351 0.86125
 C523 C 0.54225 0.44854 0.84313
 C524 C 0.61652 0.37931 0.93896
 H525 H 0.63344 0.45969 0.90808
 H526 H 0.54534 0.35045 0.89148
 H527 H 0.57033 0.32635 0.92763
 H528 H 0.65879 0.43610 0.94426
 C529 C 0.80016 0.42983 0.90272
 C530 C 0.82043 0.41256 0.89735
 C531 C 0.81228 0.38061 0.91241
 C532 C 0.78438 0.36628 0.93309
 C533 C 0.93471 0.47197 0.82824
 C534 C 0.77221 0.41554 0.92339
 C535 C 0.85064 0.42842 0.87737
 C536 C 0.87657 0.44195 0.86126
 C537 C 0.90762 0.45803 0.84312
 C538 C 0.76423 0.38378 0.93906
 H539 H 0.80630 0.45463 0.89124
 H540 H 0.82787 0.36707 0.90847
 H541 H 0.77896 0.34178 0.94468
 H542 H 0.75726 0.42970 0.92741
 C543 C 0.56954 0.18827 0.91242
 C544 C 0.59337 0.18011 0.89753
 C545 C 0.63097 0.20034 0.90302
 C546 C 0.64466 0.22826 0.92367
 C547 C 0.53819 0.06582 0.82871
 C548 C 0.58314 0.21614 0.93308
 C549 C 0.57898 0.14991 0.87762
 C550 C 0.56651 0.12397 0.86158
 C551 C 0.55144 0.09291 0.84352
 C552 C 0.62084 0.23622 0.93919
 H553 H 0.54037 0.17270 0.90838
 H554 H 0.64964 0.19417 0.89166
 H555 H 0.67381 0.24317 0.92780
 H556 H 0.56403 0.22156 0.94455
   
