data_POSCAR
  _audit_creation_date              2014-09-24
  _audit_creation_method            'ToBaCCo'
  _symmetry_space_group_name_H-M    'P1'
  _symmetry_Int_Tables_number       1
  _symmetry_cell_setting            triclinic
  loop_
  _symmetry_equiv_pos_as_xyz
 x,y,z
_cell_length_a 31.5704
_cell_length_b 31.6999
_cell_length_c 37.5967
_cell_angle_alpha 88.866300
_cell_angle_beta 89.866000
_cell_angle_gamma 89.772500
loop_
  _atom_site_label
  _atom_site_type_symbol
  _atom_site_fract_x
  _atom_site_fract_y
  _atom_site_fract_z
Si1 Si 1.24283 0.25010 0.24908
 Si2 Si 0.74448 -0.24754 0.24802
 Si3 Si 0.74326 0.24655 -0.24832
 Si4 Si 1.24071 -0.25256 -0.24989
 Si5 Si 0.26136 0.25718 0.75183
 Si6 Si 0.76061 0.75515 0.74945
 Si7 Si 0.75530 0.24791 0.25052
 Si8 Si 0.26107 0.74339 0.24945
 O9 O 1.07850 0.01963 0.04596
 O10 O 0.93324 -0.02123 0.04561
 O11 O 0.98187 0.07163 0.04363
 O12 O 1.03096 -0.07217 0.04589
 O13 O 0.92433 0.04953 0.02248
 O14 O 1.08882 -0.05033 0.02423
 O15 O 0.95939 -0.07975 0.02864
 O16 O 1.05343 0.07851 0.02715
 C17 C 1.07127 0.05725 0.05112
 C18 C 0.93957 -0.05917 0.05133
 C19 C 0.94336 0.06759 0.04668
 C20 C 1.06963 -0.06916 0.04865
 O21 O 1.07960 -0.01977 -0.04322
 O22 O 0.93375 0.02070 -0.04422
 O23 O 1.03061 0.07191 -0.04337
 O24 O 0.98380 -0.07214 -0.04160
 O25 O 0.92557 -0.05016 -0.02109
 O26 O 1.08838 0.05026 -0.02127
 O27 O 1.05511 -0.07873 -0.02446
 O28 O 0.95869 0.07933 -0.02694
 Co29 Co 1.07605 -0.00007 0.00138
 Co30 Co 0.93695 -0.00029 0.00073
 Co31 Co 1.00621 0.06825 0.00018
 Co32 Co 1.00725 -0.06863 0.00206
 O33 O 1.00657 -0.00018 0.00108
 C34 C 1.07301 -0.05747 -0.04837
 C35 C 0.93925 0.05878 -0.04973
 C36 C 1.06931 0.06889 -0.04586
 C37 C 0.94536 -0.06790 -0.04518
 O38 O 1.07841 0.54936 0.52146
 O39 O 0.91731 0.45158 0.52587
 O40 O 0.94875 0.58053 0.52019
 O41 O 1.04723 0.42006 0.52735
 O42 O 0.92574 0.52306 0.54260
 O43 O 1.07099 0.47903 0.54415
 O44 O 0.97573 0.42910 0.54681
 O45 O 1.01980 0.57360 0.53999
 C46 C 1.05804 0.56835 0.54463
 C47 C 0.93721 0.43368 0.55048
 C48 C 0.93108 0.56130 0.54527
 C49 C 1.06631 0.44097 0.54996
 O50 O 1.07883 0.44996 0.47673
 O51 O 0.91721 0.54735 0.47278
 O52 O 1.04678 0.57928 0.47096
 O53 O 0.94936 0.41839 0.47828
 O54 O 0.92587 0.47591 0.45606
 O55 O 1.07085 0.52036 0.45390
 O56 O 1.02051 0.42536 0.45844
 O57 O 0.97555 0.56976 0.45171
 Co58 Co 1.06734 0.49967 0.49906
 Co59 Co 0.92901 0.49950 0.49932
 Co60 Co 0.99775 0.56837 0.49602
 Co61 Co 0.99819 0.43065 0.50241
 O62 O 0.99810 0.49954 0.49920
 C63 C 1.05868 0.43085 0.45368
 C64 C 0.93715 0.56485 0.44802
 C65 C 1.06636 0.55854 0.44833
 C66 C 0.93124 0.43763 0.45341
 O67 O 0.57634 0.04717 0.52497
 O68 O 0.41589 -0.05035 0.52530
 O69 O 0.44642 0.07885 0.52283
 O70 O 0.54593 -0.08199 0.52523
 O71 O 0.42282 0.02076 0.54343
 O72 O 0.56808 -0.02378 0.54469
 O73 O 0.47460 -0.07421 0.54498
 O74 O 0.51745 0.07048 0.54385
 C75 C 0.55581 0.06576 0.54835
 C76 C 0.43621 -0.06933 0.54916
 C77 C 0.42796 0.05891 0.54709
 C78 C 0.56405 -0.06208 0.54898
 O79 O 0.57720 -0.04949 0.47594
 O80 O 0.41588 0.04702 0.47381
 O81 O 0.54553 0.07948 0.47539
 O82 O 0.44776 -0.08214 0.47666
 O83 O 0.42406 -0.02414 0.45570
 O84 O 0.56874 0.02145 0.45601
 O85 O 0.51897 -0.07312 0.45654
 O86 O 0.47472 0.07136 0.45495
 Co87 Co 0.56517 -0.00119 0.50036
 Co88 Co 0.42704 -0.00164 0.49960
 Co89 Co 0.49608 0.06755 0.49937
 Co90 Co 0.49680 -0.07035 0.50076
 O91 O 0.49625 -0.00140 0.50002
 C92 C 0.55725 -0.06782 0.45226
 C93 C 0.43653 0.06615 0.45026
 C94 C 0.56428 0.05975 0.45173
 C95 C 0.42923 -0.06239 0.45229
 O96 O 0.58020 0.53502 0.03820
 O97 O 0.39445 0.46735 0.01292
 O98 O 0.46256 0.57818 0.02807
 O99 O 0.52295 0.43895 0.05235
 O100 O 0.43954 0.51727 0.04750
 O101 O 0.58262 0.45621 0.02937
 O102 O 0.44965 0.44129 0.03984
 O103 O 0.53940 0.58684 0.01808
 C104 C 0.56719 0.57240 0.03947
 C105 C 0.41035 0.43850 0.03372
 C106 C 0.44522 0.55582 0.05226
 C107 C 0.56191 0.44072 0.05457
 O108 O 0.57873 0.46918 -0.03926
 O109 O 0.40642 0.54399 -0.01007
 O110 O 0.52705 0.56859 -0.05201
 O111 O 0.46589 0.42415 -0.03000
 O112 O 0.43614 0.48284 -0.04410
 O113 O 0.58540 0.54689 -0.02939
 O114 O 0.54124 0.41744 -0.01636
 O115 O 0.45565 0.56096 -0.04426
 Co116 Co 0.57429 0.50176 -0.00036
 Co117 Co 0.44040 0.49873 0.00178
 Co118 Co 0.49647 0.56816 -0.01141
 Co119 Co 0.49566 0.43670 0.01020
 O120 O 0.50442 0.50326 -0.00102
 C121 C 0.56665 0.43177 -0.03967
 C122 C 0.41783 0.56463 -0.03653
 C123 C 0.56587 0.56535 -0.05368
 C124 C 0.44471 0.44593 -0.05159
 C125 C 1.20854 0.21422 0.22629
 C126 C 1.18692 0.19099 0.20924
 C127 C 1.16249 0.16415 0.18701
 C128 C 1.12464 0.17912 0.17198
 C129 C 1.10373 0.15533 0.14660
 C130 C 1.12068 0.11658 0.13622
 C131 C 1.15777 0.10097 0.15212
 C132 C 1.17868 0.12476 0.17750
 C133 C 1.10217 0.09468 0.10715
 C134 C 1.08766 0.07719 0.08188
 H135 H 1.11213 0.20976 0.17895
 H136 H 1.07520 0.16776 0.13423
 H137 H 1.17125 0.07115 0.14404
 H138 H 1.20816 0.11314 0.18875
 C139 C 1.20901 0.71490 0.72155
 C140 C 1.18844 0.69397 0.70162
 C141 C 1.16440 0.66972 0.67693
 C142 C 1.12284 0.68172 0.66838
 C143 C 1.10039 0.65977 0.64267
 C144 C 1.11943 0.62578 0.62545
 C145 C 1.16074 0.61337 0.63441
 C146 C 1.18320 0.63532 0.66011
 C147 C 1.09733 0.60485 0.59751
 C148 C 1.07920 0.58790 0.57358
 H149 H 1.10811 0.70841 0.68112
 H150 H 1.06851 0.66971 0.63582
 H151 H 1.17580 0.58722 0.62114
 H152 H 1.21540 0.62593 0.66643
 C153 C 0.71031 0.21500 0.72288
 C154 C 0.68895 0.19470 0.70292
 C155 C 0.66388 0.17107 0.67830
 C156 C 0.67212 0.12811 0.67323
 C157 C 0.64906 0.10578 0.64804
 C158 C 0.61764 0.12629 0.62779
 C159 C 0.60908 0.16911 0.63317
 C160 C 0.63212 0.19143 0.65833
 C161 C 0.59532 0.10401 0.60054
 C162 C 0.57704 0.08610 0.57708
 H163 H 0.69670 0.11205 0.68840
 H164 H 0.65610 0.07273 0.64404
 H165 H 0.58500 0.18538 0.61758
 H166 H 0.62556 0.22465 0.66189
 C167 C 0.71134 0.72430 0.21723
 C168 C 0.69003 0.70649 0.19568
 C169 C 0.66542 0.68568 0.16913
 C170 C 0.64448 0.64789 0.17750
 C171 C 0.62225 0.62677 0.15114
 C172 C 0.62085 0.64337 0.11633
 C173 C 0.64129 0.68147 0.10808
 C174 C 0.66351 0.70259 0.13444
 C175 C 0.60056 0.62001 0.08877
 C176 C 0.58468 0.59913 0.06596
 H177 H 0.64586 0.63448 0.20421
 H178 H 0.60677 0.59718 0.15775
 H179 H 0.64064 0.69444 0.08121
 H180 H 0.67970 0.73175 0.12767
 C181 C 0.77967 -0.21391 0.22222
 C182 C 0.80268 -0.19228 0.20404
 C183 C 0.82957 -0.16717 0.18125
 C184 C 0.86655 -0.18478 0.16707
 C185 C 0.89095 -0.16160 0.14261
 C186 C 0.87844 -0.12074 0.13227
 C187 C 0.84196 -0.10279 0.14703
 C188 C 0.81756 -0.12598 0.17149
 C189 C 0.90130 -0.09841 0.10475
 C190 C 0.91939 -0.08023 0.08079
 H191 H 0.87597 -0.21671 0.17431
 H192 H 0.91895 -0.17586 0.13116
 H193 H 0.83187 -0.07131 0.13901
 H194 H 0.78888 -0.11218 0.18216
 C195 C 0.77545 0.28159 0.72391
 C196 C 0.79698 0.30361 0.70459
 C197 C 0.82272 0.32886 0.68070
 C198 C 0.80492 0.36329 0.66205
 C199 C 0.82923 0.38614 0.63720
 C200 C 0.87149 0.37473 0.63084
 C201 C 0.88947 0.34071 0.64989
 C202 C 0.86517 0.31786 0.67474
 C203 C 0.89558 0.39642 0.60347
 C204 C 0.91507 0.41384 0.57975
 H205 H 0.77210 0.37199 0.66627
 H206 H 0.81487 0.41222 0.62251
 H207 H 0.92201 0.33140 0.64509
 H208 H 0.87924 0.29119 0.68885
 C209 C 0.27763 -0.22252 0.72282
 C210 C 0.30069 -0.20211 0.70366
 C211 C 0.32692 -0.17758 0.67983
 C212 C 0.36073 -0.19670 0.66203
 C213 C 0.38429 -0.17355 0.63694
 C214 C 0.37412 -0.13121 0.62955
 C215 C 0.34077 -0.11189 0.64779
 C216 C 0.31722 -0.13504 0.67289
 C217 C 0.39649 -0.10837 0.60199
 C218 C 0.41479 -0.09002 0.57821
 H219 H 0.36833 -0.22964 0.66704
 H220 H 0.40990 -0.18884 0.62285
 H221 H 0.33252 -0.07924 0.64215
 H222 H 0.29097 -0.12003 0.68636
 C223 C 0.26961 0.28142 0.21524
 C224 C 0.28608 0.30142 0.19149
 C225 C 0.30500 0.32472 0.16246
 C226 C 0.32787 0.30343 0.13631
 C227 C 0.34639 0.32603 0.10806
 C228 C 0.34193 0.36998 0.10581
 C229 C 0.31868 0.39122 0.13177
 C230 C 0.30017 0.36862 0.16002
 C231 C 0.36388 0.39358 0.07853
 C232 C 0.38401 0.41381 0.05705
 H233 H 0.33165 0.26946 0.13793
 H234 H 0.36466 0.30937 0.08832
 H235 H 0.31543 0.42526 0.13044
 H236 H 0.28242 0.38534 0.18005
 C237 C 0.77789 0.21259 -0.22180
 C238 C 0.80056 0.19101 -0.20308
 C239 C 0.82721 0.16608 -0.17970
 C240 C 0.86570 0.18245 -0.16774
 C241 C 0.89020 0.15956 -0.14306
 C242 C 0.87634 0.12016 -0.13021
 C243 C 0.83822 0.10345 -0.14265
 C244 C 0.81372 0.12635 -0.16733
 C245 C 0.89982 0.09804 -0.10278
 C246 C 0.91847 0.07992 -0.07899
 H247 H 0.87634 0.21323 -0.17697
 H248 H 0.91948 0.17291 -0.13349
 H249 H 0.82706 0.07314 -0.13276
 H250 H 0.78392 0.11347 -0.17623
 C251 C 0.77593 0.71632 0.27514
 C252 C 0.79725 0.69365 0.29401
 C253 C 0.82289 0.66784 0.31743
 C254 C 0.86606 0.67669 0.32133
 C255 C 0.89040 0.65377 0.34607
 C256 C 0.87164 0.62189 0.36701
 C257 C 0.82866 0.61249 0.36262
 C258 C 0.80432 0.63542 0.33788
 C259 C 0.89570 0.60073 0.39454
 C260 C 0.91513 0.58389 0.41848
 H261 H 0.88068 0.70187 0.30579
 H262 H 0.92353 0.66149 0.34942
 H263 H 0.81378 0.58808 0.37885
 H264 H 0.77091 0.62849 0.33523
 C265 C 0.27988 0.21991 0.27608
 C266 C 0.30301 0.19935 0.29507
 C267 C 0.32923 0.17464 0.31877
 C268 C 0.32014 0.13191 0.32501
 C269 C 0.34341 0.10859 0.35019
 C270 C 0.37584 0.12796 0.36919
 C271 C 0.38547 0.17048 0.36245
 C272 C 0.36219 0.19380 0.33728
 C273 C 0.39769 0.10502 0.39695
 C274 C 0.41556 0.08670 0.42095
 H275 H 0.29452 0.11690 0.31098
 H276 H 0.33559 0.07578 0.35535
 H277 H 0.41037 0.18578 0.37715
 H278 H 0.36928 0.22690 0.33280
 C279 C 0.26780 0.71521 -0.21671
 C280 C 0.28458 0.69486 -0.19328
 C281 C 0.30406 0.67149 -0.16448
 C282 C 0.31234 0.62828 -0.16760
 C283 C 0.33200 0.60594 -0.13972
 C284 C 0.34331 0.62670 -0.10859
 C285 C 0.33450 0.66978 -0.10530
 C286 C 0.31484 0.69211 -0.13316
 C287 C 0.36702 0.60462 -0.08140
 C288 C 0.38895 0.58630 -0.05990
 H289 H 0.30406 0.61203 -0.19168
 H290 H 0.33906 0.57271 -0.14267
 H291 H 0.34350 0.68623 -0.08150
 H292 H 0.30850 0.72551 -0.13047
 C293 C 1.20724 -0.21637 -0.22603
 C294 C 1.18644 -0.19290 -0.20824
 C295 C 1.16308 -0.16571 -0.18520
 C296 C 1.12458 -0.17926 -0.17045
 C297 C 1.10443 -0.15516 -0.14465
 C298 C 1.12277 -0.11750 -0.13352
 C299 C 1.16064 -0.10334 -0.14902
 C300 C 1.18078 -0.12743 -0.17483
 C301 C 1.10452 -0.09519 -0.10435
 C302 C 1.08991 -0.07747 -0.07909
 H303 H 1.11087 -0.20902 -0.17807
 H304 H 1.07528 -0.16649 -0.13263
 H305 H 1.17519 -0.07439 -0.14041
 H306 H 1.21076 -0.11691 -0.18586
 C307 C 1.21161 0.28344 0.27757
 C308 C 1.19102 0.30476 0.29734
 C309 C 1.16672 0.32933 0.32178
 C310 C 1.18583 0.36259 0.33964
 C311 C 1.16301 0.38471 0.36519
 C312 C 1.12105 0.37361 0.37293
 C313 C 1.10171 0.34081 0.35465
 C314 C 1.12453 0.31869 0.32909
 C315 C 1.09855 0.39451 0.40079
 C316 C 1.08012 0.41139 0.42470
 H317 H 1.21851 0.37091 0.33427
 H318 H 1.17827 0.40992 0.37931
 H319 H 1.06932 0.33189 0.36057
 H320 H 1.10956 0.29288 0.31552
 C321 C 0.71204 -0.21565 0.27693
 C322 C 0.69102 -0.19483 0.29683
 C323 C 0.66645 -0.17044 0.32131
 C324 C 0.68445 -0.13533 0.33744
 C325 C 0.66142 -0.11296 0.36274
 C326 C 0.62032 -0.12562 0.37198
 C327 C 0.60209 -0.16036 0.35547
 C328 C 0.62511 -0.18273 0.33018
 C329 C 0.59765 -0.10427 0.39958
 C330 C 0.57902 -0.08717 0.42332
 H331 H 0.71645 -0.12567 0.33088
 H332 H 0.67588 -0.08626 0.37547
 H333 H 0.57039 -0.17052 0.36256
 H334 H 0.61097 -0.20994 0.31796
 C335 C 0.71038 0.27621 -0.21773
 C336 C 0.68930 0.29498 -0.19632
 C337 C 0.66488 0.31697 -0.16996
 C338 C 0.65638 0.36017 -0.17434
 C339 C 0.63440 0.38186 -0.14795
 C340 C 0.62075 0.36052 -0.11699
 C341 C 0.62881 0.31721 -0.11277
 C342 C 0.65080 0.29550 -0.13919
 C343 C 0.60021 0.38369 -0.08911
 C344 C 0.58416 0.40460 -0.06616
 H345 H 0.66722 0.37717 -0.19791
 H346 H 0.62855 0.41539 -0.15146
 H347 H 0.61862 0.30039 -0.08891
 H348 H 0.65730 0.26212 -0.13543
 C349 C 1.22936 0.22565 -0.21761
 C350 C 1.20814 0.20500 -0.19709
 C351 C 1.18286 0.18068 -0.17229
 C352 C 1.15391 0.20106 -0.15008
 C353 C 1.13003 0.17766 -0.12536
 C354 C 1.13494 0.13376 -0.12273
 C355 C 1.16368 0.11332 -0.14511
 C356 C 1.18758 0.13673 -0.16985
 C357 C 1.11140 0.11004 -0.09634
 C358 C 1.09198 0.09083 -0.07364
 H359 H 1.15004 0.23502 -0.15169
 H360 H 1.10801 0.19382 -0.10812
 H361 H 1.16784 0.07941 -0.14323
 H362 H 1.20991 0.12065 -0.18686
 C363 C 1.22891 0.71217 0.27597
 C364 C 1.20666 0.69090 0.29533
 C365 C 1.18044 0.66612 0.31924
 C366 C 1.19484 0.62699 0.33249
 C367 C 1.17040 0.60402 0.35719
 C368 C 1.13139 0.62002 0.36881
 C369 C 1.11673 0.65888 0.35519
 C370 C 1.14116 0.68185 0.33049
 C371 C 1.10750 0.59762 0.39594
 C372 C 1.08824 0.57943 0.41940
 H373 H 1.22521 0.61455 0.32413
 H374 H 1.18222 0.57414 0.36763
 H375 H 1.08674 0.67172 0.36407
 H376 H 1.12973 0.71212 0.32058
 C377 C 0.72207 0.21457 0.27846
 C378 C 0.70013 0.19324 0.29785
 C379 C 0.67425 0.16855 0.32182
 C380 C 0.68717 0.12792 0.33249
 C381 C 0.66328 0.10496 0.35748
 C382 C 0.62639 0.12255 0.37187
 C383 C 0.61312 0.16291 0.36078
 C384 C 0.63701 0.18587 0.33579
 C385 C 0.60343 0.10007 0.39928
 C386 C 0.58504 0.08154 0.42290
 H387 H 0.71601 0.11432 0.32196
 H388 H 0.67392 0.07385 0.36601
 H389 H 0.58477 0.17688 0.37187
 H390 H 0.62685 0.21734 0.32782
 C391 C 0.72798 0.72133 -0.22270
 C392 C 0.70632 0.69932 -0.20371
 C393 C 0.68061 0.67365 -0.18044
 C394 C 0.63902 0.68604 -0.17271
 C395 C 0.61477 0.66240 -0.14849
 C396 C 0.63204 0.62630 -0.13196
 C397 C 0.67339 0.61353 -0.14012
 C398 C 0.69766 0.63717 -0.16435
 C399 C 0.60818 0.60377 -0.10522
 C400 C 0.58861 0.58574 -0.08206
 H401 H 0.62564 0.71430 -0.18495
 H402 H 0.58288 0.67265 -0.14218
 H403 H 0.68708 0.58577 -0.12731
 H404 H 0.72985 0.62744 -0.17009
 C405 C 0.79307 -0.21264 -0.22233
 C406 C 0.81394 -0.19190 -0.20248
 C407 C 0.83818 -0.16787 -0.17779
 C408 C 0.81991 -0.13281 -0.16151
 C409 C 0.84241 -0.11109 -0.13570
 C410 C 0.88325 -0.12439 -0.12608
 C411 C 0.90178 -0.15903 -0.14277
 C412 C 0.87928 -0.18075 -0.16858
 C413 C 0.90538 -0.10370 -0.09805
 C414 C 0.92371 -0.08702 -0.07409
 H415 H 0.78806 -0.12275 -0.16832
 H416 H 0.82776 -0.08443 -0.12285
 H417 H 0.93329 -0.16964 -0.13542
 H418 H 0.89359 -0.20796 -0.18089
 C419 C 0.78839 0.27940 0.27889
 C420 C 0.80930 0.30032 0.29860
 C421 C 0.83325 0.32518 0.32295
 C422 C 0.82351 0.36797 0.32701
 C423 C 0.84494 0.39155 0.35230
 C424 C 0.87617 0.37240 0.37361
 C425 C 0.88636 0.32976 0.36917
 C426 C 0.86493 0.30619 0.34388
 C427 C 0.89635 0.39590 0.40112
 C428 C 0.91260 0.41519 0.42473
 H429 H 0.79891 0.38290 0.31107
 H430 H 0.83669 0.42445 0.35564
 H431 H 0.91033 0.31461 0.38563
 H432 H 0.87254 0.27306 0.34107
 C433 C 0.29008 -0.22444 0.27657
 C434 C 0.30956 -0.20225 0.29649
 C435 C 0.33207 -0.17617 0.32115
 C436 C 0.37025 -0.19034 0.33625
 C437 C 0.39088 -0.16609 0.36164
 C438 C 0.37348 -0.12750 0.37212
 C439 C 0.33558 -0.11307 0.35669
 C440 C 0.31495 -0.13732 0.33130
 C441 C 0.39358 -0.10365 0.39970
 C442 C 0.41003 -0.08438 0.42337
 H443 H 0.38373 -0.22038 0.32878
 H444 H 0.42006 -0.17770 0.37344
 H445 H 0.32169 -0.08340 0.36464
 H446 H 0.28537 -0.12608 0.31996
 C447 C 0.29633 0.29070 -0.22297
 C448 C 0.31875 0.31287 -0.20543
 C449 C 0.34468 0.33906 -0.18350
 C450 C 0.33108 0.37983 -0.17512
 C451 C 0.35431 0.40393 -0.15130
 C452 C 0.39128 0.38741 -0.13578
 C453 C 0.40547 0.34707 -0.14486
 C454 C 0.38224 0.32297 -0.16868
 C455 C 0.41212 0.40988 -0.10790
 C456 C 0.42801 0.42729 -0.08304
 H457 H 0.30196 0.39251 -0.18625
 H458 H 0.34276 0.43488 -0.14418
 H459 H 0.43375 0.33378 -0.13273
 H460 H 0.39294 0.29141 -0.17479
 C461 C 1.23028 -0.22630 0.22097
 C462 C 1.20885 -0.20555 0.20053
 C463 C 1.18339 -0.18131 0.17558
 C464 C 1.15945 -0.20198 0.14991
 C465 C 1.13552 -0.17865 0.12509
 C466 C 1.13533 -0.13444 0.12573
 C467 C 1.15906 -0.11373 0.15155
 C468 C 1.18301 -0.13710 0.17640
 C469 C 1.11168 -0.11058 0.09930
 C470 C 1.09224 -0.09127 0.07656
 H471 H 1.15952 -0.23612 0.14892
 H472 H 1.11744 -0.19506 0.10523
 H473 H 1.15930 -0.07959 0.15229
 H474 H 1.20144 -0.12071 0.19606
 C475 C 1.22694 0.28960 0.72391
 C476 C 1.20447 0.31057 0.70458
 C477 C 1.17813 0.33505 0.68069
 C478 C 1.19132 0.37503 0.66869
 C479 C 1.16703 0.39771 0.64374
 C480 C 1.12945 0.38052 0.63069
 C481 C 1.11590 0.34085 0.64314
 C482 C 1.14018 0.31817 0.66810
 C483 C 1.10612 0.40250 0.60313
 C484 C 1.08744 0.42037 0.57927
 H485 H 1.22069 0.38831 0.67814
 H486 H 1.17793 0.42825 0.63415
 H487 H 1.08702 0.32715 0.63309
 H488 H 1.12978 0.28721 0.67708
 C489 C 0.72658 -0.21213 0.72171
 C490 C 0.70385 -0.19141 0.70250
 C491 C 0.67692 -0.16758 0.67876
 C492 C 0.64061 -0.18626 0.66477
 C493 C 0.61580 -0.16413 0.63989
 C494 C 0.62726 -0.12325 0.62897
 C495 C 0.66316 -0.10429 0.64342
 C496 C 0.68797 -0.12643 0.66830
 C497 C 0.60362 -0.10161 0.60153
 C498 C 0.58489 -0.08359 0.57785
 H499 H 0.63192 -0.21815 0.67261
 H500 H 0.58822 -0.17913 0.62872
 H501 H 0.67239 -0.07275 0.63499
 H502 H 0.71610 -0.11179 0.67886
 C503 C 0.72211 0.28247 0.22354
 C504 C 0.70023 0.30503 0.20507
 C505 C 0.67437 0.33140 0.18233
 C506 C 0.69117 0.36833 0.16697
 C507 C 0.66693 0.39251 0.14302
 C508 C 0.62581 0.37986 0.13440
 C509 C 0.60873 0.34335 0.15027
 C510 C 0.63297 0.31917 0.17422
 C511 C 0.60233 0.40261 0.10745
 C512 C 0.58340 0.42063 0.08386
 H513 H 0.72322 0.37796 0.17297
 H514 H 0.68054 0.42052 0.13068
 H515 H 0.57709 0.33312 0.14357
 H516 H 0.61976 0.29057 0.18585
 C517 C 0.78754 0.21595 0.22147
 C518 C 0.80838 0.19518 0.20137
 C519 C 0.83274 0.17089 0.17663
 C520 C 0.81383 0.13743 0.15885
 C521 C 0.83681 0.11516 0.13346
 C522 C 0.87879 0.12627 0.12575
 C523 C 0.89788 0.15939 0.14385
 C524 C 0.87489 0.18167 0.16924
 C525 C 0.90174 0.10479 0.09836
 C526 C 0.92080 0.08745 0.07496
 H527 H 0.78120 0.12896 0.16427
 H528 H 0.82171 0.08970 0.11953
 H529 H 0.93028 0.16833 0.13800
 H530 H 0.88976 0.20759 0.18273
 C531 C 0.79321 0.72287 0.72111
 C532 C 0.81364 0.70124 0.70143
 C533 C 0.83680 0.67544 0.67711
 C534 C 0.82321 0.63428 0.67068
 C535 C 0.84386 0.61007 0.64522
 C536 C 0.87815 0.62697 0.62610
 C537 C 0.89222 0.66787 0.63296
 C538 C 0.87156 0.69208 0.65843
 C539 C 0.89750 0.60318 0.59826
 C540 C 0.91309 0.58374 0.57433
 H541 H 0.79622 0.62123 0.68487
 H542 H 0.83264 0.57855 0.63998
 H543 H 0.91860 0.68126 0.61818
 H544 H 0.88215 0.72397 0.66308
 C545 C 0.29172 0.22268 0.72333
 C546 C 0.31090 0.20004 0.70350
 C547 C 0.33294 0.17336 0.67897
 C548 C 0.37203 0.18594 0.66467
 C549 C 0.39220 0.16123 0.63922
 C550 C 0.37339 0.12383 0.62795
 C551 C 0.33460 0.11094 0.64264
 C552 C 0.31443 0.13564 0.66809
 C553 C 0.39291 0.09985 0.60016
 C554 C 0.40900 0.08063 0.57626
 H555 H 0.38654 0.21513 0.67275
 H556 H 0.42209 0.17161 0.62792
 H557 H 0.31966 0.08219 0.63402
 H558 H 0.28412 0.12571 0.67886
 C559 C 0.29421 0.71212 0.22458
 C560 C 0.31667 0.69040 0.20632
 C561 C 0.34267 0.66473 0.18356
 C562 C 0.33041 0.62341 0.17596
 C563 C 0.35386 0.59955 0.15182
 C564 C 0.38978 0.61680 0.13515
 C565 C 0.40254 0.65780 0.14331
 C566 C 0.37909 0.68167 0.16744
 C567 C 0.41130 0.59391 0.10754
 C568 C 0.42781 0.57578 0.08312
 H569 H 0.30223 0.60999 0.18807
 H570 H 0.34339 0.56806 0.14552
 H571 H 0.42998 0.67169 0.13037
 H572 H 0.38881 0.71363 0.17292
   
