data_POSCAR
  _audit_creation_date              2014-09-24
  _audit_creation_method            'ToBaCCo'
  _symmetry_space_group_name_H-M    'P1'
  _symmetry_Int_Tables_number       1
  _symmetry_cell_setting            triclinic
  loop_
  _symmetry_equiv_pos_as_xyz
 x,y,z
_cell_length_a 47.2677
_cell_length_b 47.3112
_cell_length_c 47.3262
_cell_angle_alpha 89.990600
_cell_angle_beta 90.005500
_cell_angle_gamma 90.014100
loop_
  _atom_site_label
  _atom_site_type_symbol
  _atom_site_fract_x
  _atom_site_fract_y
  _atom_site_fract_z
C1 C 0.27397 0.23801 0.23772
 C2 C 0.26189 0.22591 0.26193
 C3 C 0.23801 0.23782 0.27386
 C4 C 0.22591 0.26204 0.26180
 C5 C 0.23785 0.27400 0.23796
 C6 C 0.26202 0.26186 0.22580
 C7 C 0.29716 0.23097 0.22162
 N8 N 0.29957 0.24995 0.20016
 C9 C 0.27810 0.26891 0.20262
 C10 C 0.22177 0.29720 0.23095
 N11 N 0.20031 0.29963 0.24993
 C12 C 0.20273 0.27814 0.26887
 C13 C 0.23094 0.22169 0.29700
 N14 N 0.24996 0.20027 0.29946
 C15 C 0.26898 0.20276 0.27803
 H16 H 0.31099 0.21308 0.22511
 H17 H 0.27460 0.28682 0.18882
 H18 H 0.22526 0.31102 0.21306
 H19 H 0.18891 0.27463 0.28676
 H20 H 0.21342 0.22557 0.31121
 H21 H 0.28650 0.18856 0.27414
 C22 C 0.72580 -0.23815 0.23767
 C23 C 0.73788 -0.22604 0.26189
 C24 C 0.76173 -0.23799 0.27384
 C25 C 0.77386 -0.26216 0.26170
 C26 C 0.76200 -0.27398 0.23788
 C27 C 0.73773 -0.26191 0.22580
 C28 C 0.70266 -0.23110 0.22155
 N29 N 0.69996 -0.25004 0.19991
 C30 C 0.72164 -0.26897 0.20266
 C31 C 0.77813 -0.29709 0.23079
 N32 N 0.79977 -0.29986 0.24976
 C33 C 0.79700 -0.27827 0.26875
 C34 C 0.76875 -0.22194 0.29704
 N35 N 0.74976 -0.20048 0.29947
 C36 C 0.73081 -0.20289 0.27799
 H37 H 0.68889 -0.21343 0.22594
 H38 H 0.72607 -0.28663 0.18890
 H39 H 0.77373 -0.31084 0.21312
 H40 H 0.81076 -0.27390 0.28644
 H41 H 0.78665 -0.22545 0.31087
 H42 H 0.71290 -0.18907 0.27448
 C43 C 0.72601 0.23838 0.76204
 C44 C 0.73811 0.22625 0.73785
 C45 C 0.76202 0.23815 0.72596
 C46 C 0.77410 0.26238 0.73805
 C47 C 0.76218 0.27426 0.76181
 C48 C 0.73795 0.26213 0.77392
 C49 C 0.70282 0.23137 0.77810
 N50 N 0.70014 0.25029 0.79976
 C51 C 0.72186 0.26919 0.79706
 C52 C 0.77828 0.29740 0.76887
 N53 N 0.79997 0.30015 0.74995
 C54 C 0.79726 0.27849 0.73102
 C55 C 0.76911 0.22203 0.70283
 N56 N 0.75006 0.20062 0.70034
 C57 C 0.73102 0.20311 0.72174
 H58 H 0.68936 0.21338 0.77404
 H59 H 0.72593 0.28720 0.81048
 H60 H 0.77396 0.31100 0.78667
 H61 H 0.81090 0.27419 0.71324
 H62 H 0.78664 0.22590 0.68864
 H63 H 0.71348 0.18892 0.72561
 C64 C 0.27402 -0.23822 0.76254
 C65 C 0.26198 -0.22615 0.73828
 C66 C 0.23807 -0.23804 0.72639
 C67 C 0.22595 -0.26223 0.73852
 C68 C 0.23783 -0.27409 0.76230
 C69 C 0.26209 -0.26200 0.77441
 C70 C 0.29717 -0.23119 0.77864
 N71 N 0.29987 -0.25014 0.80028
 C72 C 0.27819 -0.26907 0.79754
 C73 C 0.22171 -0.29722 0.76937
 N74 N 0.20002 -0.29995 0.75045
 C75 C 0.20277 -0.27831 0.73150
 C76 C 0.23102 -0.22195 0.70322
 N77 N 0.25008 -0.20056 0.70072
 C78 C 0.26910 -0.20303 0.72215
 H79 H 0.31099 -0.21355 0.77423
 H80 H 0.27375 -0.28672 0.81131
 H81 H 0.22595 -0.31076 0.78723
 H82 H 0.18920 -0.27406 0.71364
 H83 H 0.21349 -0.22583 0.68902
 H84 H 0.28664 -0.18884 0.72602
 C85 C 0.72587 -0.23810 0.76255
 C86 C 0.73795 -0.22598 0.73834
 C87 C 0.76181 -0.23792 0.72640
 C88 C 0.77394 -0.26209 0.73855
 C89 C 0.76206 -0.27395 0.76234
 C90 C 0.73778 -0.26188 0.77441
 C91 C 0.70273 -0.23107 0.77866
 N92 N 0.70001 -0.25003 0.80029
 C93 C 0.72168 -0.26896 0.79754
 C94 C 0.77818 -0.29707 0.76941
 N95 N 0.79984 -0.29982 0.75046
 C96 C 0.79709 -0.27819 0.73150
 C97 C 0.76883 -0.22186 0.70320
 N98 N 0.74983 -0.20041 0.70076
 C99 C 0.73087 -0.20283 0.72224
 H100 H 0.68893 -0.21341 0.77426
 H101 H 0.72611 -0.28662 0.81131
 H102 H 0.77379 -0.31079 0.78711
 H103 H 0.81081 -0.27383 0.71379
 H104 H 0.78673 -0.22536 0.68938
 H105 H 0.71296 -0.18902 0.72573
 C106 C 0.27412 0.23816 0.76208
 C107 C 0.26200 0.22602 0.73789
 C108 C 0.23809 0.23790 0.72599
 C109 C 0.22601 0.26212 0.73806
 C110 C 0.23802 0.27408 0.76186
 C111 C 0.26223 0.26193 0.77397
 C112 C 0.29732 0.23115 0.77813
 N113 N 0.30005 0.25008 0.79978
 C114 C 0.27835 0.26899 0.79708
 C115 C 0.22195 0.29727 0.76890
 N116 N 0.20043 0.29970 0.74997
 C117 C 0.20281 0.27821 0.73104
 C118 C 0.23098 0.22175 0.70288
 N119 N 0.25002 0.20034 0.70041
 C120 C 0.26908 0.20286 0.72180
 H121 H 0.31077 0.21316 0.77405
 H122 H 0.27429 0.28700 0.81049
 H123 H 0.22548 0.31110 0.78677
 H124 H 0.18894 0.27469 0.71318
 H125 H 0.21344 0.22560 0.68870
 H126 H 0.28662 0.18868 0.72568
 C127 C 0.27431 -0.23851 0.23780
 C128 C 0.26225 -0.22640 0.26203
 C129 C 0.23839 -0.23833 0.27398
 C130 C 0.22623 -0.26249 0.26183
 C131 C 0.23807 -0.27432 0.23801
 C132 C 0.26236 -0.26227 0.22593
 C133 C 0.29744 -0.23146 0.22167
 N134 N 0.30011 -0.25039 0.20002
 C135 C 0.27842 -0.26932 0.20277
 C136 C 0.22189 -0.29740 0.23091
 N137 N 0.20024 -0.30014 0.24987
 C138 C 0.20305 -0.27857 0.26887
 C139 C 0.23138 -0.22227 0.29717
 N140 N 0.25039 -0.20082 0.29960
 C141 C 0.26935 -0.20324 0.27812
 H142 H 0.31126 -0.21382 0.22607
 H143 H 0.27395 -0.28694 0.18898
 H144 H 0.22626 -0.31114 0.21322
 H145 H 0.18929 -0.27417 0.28655
 H146 H 0.21348 -0.22576 0.31099
 H147 H 0.28727 -0.18943 0.27461
 C148 C 0.72625 0.23819 0.23780
 C149 C 0.73829 0.22616 0.26207
 C150 C 0.76215 0.23811 0.27399
 C151 C 0.77426 0.26232 0.26187
 C152 C 0.76237 0.27420 0.23808
 C153 C 0.73818 0.26207 0.22592
 C154 C 0.70311 0.23109 0.22165
 N155 N 0.70066 0.25010 0.20023
 C156 C 0.72209 0.26913 0.20275
 C157 C 0.77844 0.29738 0.23107
 N158 N 0.80010 0.30012 0.25002
 C159 C 0.79740 0.27844 0.26893
 C160 C 0.76921 0.22203 0.29717
 N161 N 0.75019 0.20059 0.29965
 C162 C 0.73119 0.20303 0.27820
 H163 H 0.68889 0.21358 0.22552
 H164 H 0.72599 0.28665 0.18856
 H165 H 0.77437 0.31080 0.21307
 H166 H 0.81082 0.27441 0.28695
 H167 H 0.78672 0.22594 0.31138
 H168 H 0.71369 0.18880 0.27430
 O169 O 0.22673 0.02725 0.47246
 O170 O 0.22677 -0.02779 0.52751
 O171 O 0.22670 0.02726 0.52750
 O172 O 0.22680 -0.02780 0.47248
 O173 O 0.27359 -0.02773 0.47250
 O174 O 0.27349 0.02733 0.52753
 O175 O 0.27356 -0.02772 0.52754
 O176 O 0.27351 0.02733 0.47249
 Cu177 Cu 0.22203 -0.00028 0.49998
 Cu178 Cu 0.27826 -0.00019 0.50002
 C179 C 0.25011 0.03658 0.46318
 C180 C 0.25017 -0.03705 0.53682
 C181 C 0.25007 0.03659 0.53680
 C182 C 0.25021 -0.03706 0.46320
 O183 O 0.72650 0.02751 0.52754
 O184 O 0.72639 -0.02755 0.47253
 O185 O 0.72640 -0.02754 0.52757
 O186 O 0.72651 0.02751 0.47252
 O187 O 0.77330 0.02743 0.47252
 O188 O 0.77319 -0.02762 0.52758
 O189 O 0.77318 -0.02763 0.47254
 O190 O 0.77329 0.02743 0.52755
 Cu191 Cu 0.72173 -0.00001 0.50004
 Cu192 Cu 0.77796 -0.00011 0.50005
 C193 C 0.74991 0.03677 0.53683
 C194 C 0.74977 -0.03688 0.46325
 C195 C 0.74978 -0.03687 0.53687
 C196 C 0.74993 0.03676 0.46323
 O197 O 0.47259 0.22673 0.02703
 O198 O 0.52769 0.22684 -0.02799
 O199 O 0.52769 0.22676 0.02704
 O200 O 0.47259 0.22680 -0.02800
 O201 O 0.47257 0.27355 -0.02795
 O202 O 0.52767 0.27351 0.02710
 O203 O 0.52768 0.27358 -0.02794
 O204 O 0.47257 0.27347 0.02709
 Cu205 Cu 0.50014 0.22207 -0.00049
 Cu206 Cu 0.50012 0.27824 -0.00042
 C207 C 0.46328 0.25008 0.03635
 C208 C 0.53699 0.25023 -0.03725
 C209 C 0.53698 0.25012 0.03636
 C210 C 0.46328 0.25018 -0.03727
 O211 O 0.52748 0.77316 0.02758
 O212 O 0.47239 0.77311 -0.02748
 O213 O 0.47238 0.77309 0.02756
 O214 O 0.52750 0.77316 -0.02746
 O215 O 0.52753 0.72642 -0.02746
 O216 O 0.47241 0.72635 0.02756
 O217 O 0.47243 0.72637 -0.02748
 O218 O 0.52752 0.72641 0.02757
 Cu219 Cu 0.49993 0.77785 0.00005
 Cu220 Cu 0.49998 0.72167 0.00005
 C221 C 0.53680 0.74979 0.03687
 C222 C 0.46311 0.74973 -0.03677
 C223 C 0.46309 0.74971 0.03685
 C224 C 0.53682 0.74980 -0.03674
 O225 O 0.02735 0.47277 0.22658
 O226 O -0.02773 0.52782 0.22646
 O227 O 0.02738 0.52782 0.22647
 O228 O -0.02774 0.47277 0.22659
 O229 O -0.02774 0.47286 0.27332
 O230 O 0.02738 0.52792 0.27320
 O231 O -0.02773 0.52792 0.27319
 O232 O 0.02736 0.47287 0.27332
 Cu233 Cu -0.00019 0.50029 0.22181
 Cu234 Cu -0.00018 0.50041 0.27797
 C235 C 0.03665 0.46352 0.24997
 C236 C -0.03703 0.53716 0.24980
 C237 C 0.03669 0.53715 0.24981
 C238 C -0.03703 0.46352 0.24998
 O239 O 0.02736 0.52775 0.77371
 O240 O -0.02774 0.47268 0.77354
 O241 O 0.02736 0.47270 0.77356
 O242 O -0.02775 0.52774 0.77369
 O243 O -0.02774 0.52787 0.72696
 O244 O 0.02736 0.47284 0.72683
 O245 O -0.02774 0.47282 0.72681
 O246 O 0.02737 0.52788 0.72698
 Cu247 Cu -0.00020 0.50020 0.77834
 Cu248 Cu -0.00019 0.50037 0.72218
 C249 C 0.03667 0.53710 0.75038
 C250 C -0.03703 0.46345 0.75015
 C251 C 0.03666 0.46348 0.75017
 C252 C -0.03705 0.53710 0.75035
 C253 C 0.33650 0.26139 0.13080
 C254 C 0.36321 0.24998 0.13648
 C255 C 0.36895 0.23855 0.16314
 C256 C 0.34807 0.23852 0.18406
 C257 C 0.32113 0.24996 0.17860
 C258 C 0.31560 0.26141 0.15170
 C259 C 0.38471 0.24997 0.11495
 C260 C 0.40272 0.24998 0.09691
 C261 C 0.42381 0.25000 0.07580
 C262 C 0.44183 0.25003 0.05778
 H263 H 0.33181 0.27021 0.11020
 H264 H 0.38958 0.22974 0.16779
 H265 H 0.35315 0.22991 0.20462
 H266 H 0.29500 0.27001 0.14667
 C267 C 0.63826 0.77187 0.15656
 C268 C 0.63695 0.74989 0.13694
 C269 C 0.65662 0.72793 0.13828
 C270 C 0.67757 0.72788 0.15913
 C271 C 0.67935 0.74994 0.17930
 C272 C 0.65913 0.77197 0.17748
 C273 C 0.61541 0.74985 0.11544
 C274 C 0.59738 0.74982 0.09743
 C275 C 0.57627 0.74980 0.07633
 C276 C 0.55825 0.74980 0.05831
 H277 H 0.62313 0.78905 0.15567
 H278 H 0.65576 0.71073 0.12318
 H279 H 0.69196 0.71021 0.15923
 H280 H 0.65920 0.78967 0.19184
 C281 C 0.63576 0.23107 -0.15961
 C282 C 0.63713 0.25033 -0.13731
 C283 C 0.65946 0.26959 -0.13597
 C284 C 0.68041 0.26965 -0.15682
 C285 C 0.67952 0.25031 -0.17966
 C286 C 0.65663 0.23099 -0.18053
 C287 C 0.61561 0.25033 -0.11579
 C288 C 0.59759 0.25031 -0.09777
 C289 C 0.57648 0.25028 -0.07668
 C290 C 0.55845 0.25026 -0.05868
 H291 H 0.61847 0.21608 -0.16088
 H292 H 0.66076 0.28458 -0.11871
 H293 H 0.69728 0.28480 -0.15445
 H294 H 0.65423 0.21583 -0.19737
 C295 C 0.36140 0.77193 -0.15620
 C296 C 0.36289 0.74977 -0.13678
 C297 C 0.34341 0.72766 -0.13830
 C298 C 0.32246 0.72761 -0.15915
 C299 C 0.32048 0.74984 -0.17912
 C300 C 0.34052 0.77203 -0.17712
 C301 C 0.38444 0.74973 -0.11528
 C302 C 0.40249 0.74971 -0.09728
 C303 C 0.42361 0.74970 -0.07621
 C304 C 0.44165 0.74971 -0.05820
 H305 H 0.37638 0.78924 -0.15516
 H306 H 0.34443 0.71032 -0.12337
 H307 H 0.30823 0.70980 -0.15943
 H308 H 0.34026 0.78987 -0.19130
 C309 C 0.16338 0.36903 0.23859
 C310 C 0.13668 0.36334 0.25002
 C311 C 0.13095 0.33666 0.26143
 C312 C 0.15183 0.31573 0.26142
 C313 C 0.17876 0.32121 0.24997
 C314 C 0.18428 0.34812 0.23854
 C315 C 0.11518 0.38487 0.25004
 C316 C 0.09717 0.40291 0.25004
 C317 C 0.07609 0.42403 0.25003
 C318 C 0.05809 0.44207 0.25001
 H319 H 0.16808 0.38964 0.22978
 H320 H 0.11032 0.33201 0.27025
 H321 H 0.14675 0.29516 0.27002
 H322 H 0.20487 0.35316 0.22992
 C323 C 0.13692 0.65808 0.72976
 C324 C 0.13692 0.63711 0.75051
 C325 C 0.15792 0.63710 0.77124
 C326 C 0.17889 0.65794 0.77130
 C327 C 0.17937 0.67946 0.75047
 C328 C 0.15781 0.67899 0.72967
 C329 C 0.11537 0.61561 0.75052
 C330 C 0.09732 0.59761 0.75051
 C331 C 0.07619 0.57653 0.75048
 C332 C 0.05814 0.55853 0.75044
 H333 H 0.12071 0.65829 0.71357
 H334 H 0.15812 0.62091 0.78745
 H335 H 0.19451 0.65675 0.78785
 H336 H 0.15663 0.69459 0.71310
 C337 C -0.13881 0.65654 0.27193
 C338 C -0.13723 0.63719 0.24973
 C339 C -0.15661 0.63879 0.22754
 C340 C -0.17756 0.65965 0.22748
 C341 C -0.17962 0.67954 0.24975
 C342 C -0.15969 0.67746 0.27201
 C343 C -0.11569 0.61568 0.24971
 C344 C -0.09765 0.59768 0.24971
 C345 C -0.07653 0.57660 0.24972
 C346 C -0.05849 0.55859 0.24975
 H347 H -0.12391 0.65544 0.28929
 H348 H -0.15553 0.62392 0.21016
 H349 H -0.19171 0.66000 0.20960
 H350 H -0.16002 0.69159 0.28989
 C351 C -0.15769 0.36283 0.77106
 C352 C -0.13706 0.36321 0.74997
 C353 C -0.13738 0.34260 0.72888
 C354 C -0.15823 0.32164 0.72880
 C355 C -0.17942 0.32077 0.74997
 C356 C -0.17861 0.34194 0.77113
 C357 C -0.11556 0.38476 0.74998
 C358 C -0.09755 0.40281 0.75000
 C359 C -0.07648 0.42394 0.75004
 C360 C -0.05847 0.44198 0.75008
 H361 H -0.15763 0.37872 0.78755
 H362 H -0.12146 0.34271 0.71240
 H363 H -0.15736 0.30638 0.71191
 H364 H -0.19389 0.34277 0.78802
 C365 C 0.22458 0.14931 0.35482
 C366 C 0.25000 0.13661 0.36308
 C367 C 0.27541 0.14489 0.35037
 C368 C 0.27542 0.16578 0.32947
 C369 C 0.24998 0.17871 0.32101
 C370 C 0.22454 0.17022 0.33395
 C371 C 0.25001 0.11510 0.38459
 C372 C 0.25003 0.09709 0.40261
 C373 C 0.25007 0.07601 0.42371
 C374 C 0.25009 0.05801 0.44174
 H375 H 0.20477 0.14299 0.36447
 H376 H 0.29523 0.13526 0.35667
 H377 H 0.29539 0.17208 0.32024
 H378 H 0.20457 0.17944 0.32767
 C379 C 0.72461 0.14525 0.64942
 C380 C 0.75003 0.13695 0.63675
 C381 C 0.77545 0.14964 0.64503
 C382 C 0.77549 0.17056 0.66589
 C383 C 0.75005 0.17906 0.67880
 C384 C 0.72460 0.16615 0.67031
 C385 C 0.75001 0.11542 0.61526
 C386 C 0.74999 0.09738 0.59728
 C387 C 0.74997 0.07625 0.57623
 C388 C 0.74994 0.05822 0.55825
 H389 H 0.70479 0.13563 0.64311
 H390 H 0.79526 0.14331 0.63541
 H391 H 0.79547 0.17977 0.67219
 H392 H 0.70463 0.17246 0.67951
 C393 C 0.22473 -0.14967 0.64528
 C394 C 0.25016 -0.13700 0.63699
 C395 C 0.27557 -0.14528 0.64971
 C396 C 0.27557 -0.16613 0.67064
 C397 C 0.25011 -0.17903 0.67914
 C398 C 0.22468 -0.17054 0.66620
 C399 C 0.25019 -0.11553 0.61544
 C400 C 0.25019 -0.09755 0.59740
 C401 C 0.25019 -0.07648 0.57628
 C402 C 0.25019 -0.05848 0.55826
 H403 H 0.20492 -0.14335 0.63563
 H404 H 0.29539 -0.13568 0.64339
 H405 H 0.29553 -0.17243 0.67988
 H406 H 0.20469 -0.17973 0.67250
 C407 C 0.76114 -0.16358 0.36885
 C408 C 0.74971 -0.13691 0.36317
 C409 C 0.73829 -0.13118 0.33650
 C410 C 0.73828 -0.15204 0.31557
 C411 C 0.74974 -0.17895 0.32105
 C412 C 0.76118 -0.18447 0.34795
 C413 C 0.74969 -0.11542 0.38469
 C414 C 0.74969 -0.09742 0.40272
 C415 C 0.74970 -0.07633 0.42381
 C416 C 0.74973 -0.05832 0.44182
 H417 H 0.76997 -0.16827 0.38945
 H418 H 0.72946 -0.11057 0.33184
 H419 H 0.72968 -0.14696 0.29501
 H420 H 0.76980 -0.20504 0.35299
 C421 C 0.65651 0.72778 -0.13826
 C422 C 0.63702 0.74989 -0.13675
 C423 C 0.63850 0.77203 -0.15619
 C424 C 0.65937 0.77213 -0.17712
 C425 C 0.67941 0.74995 -0.17911
 C426 C 0.67745 0.72774 -0.15912
 C427 C 0.61549 0.74985 -0.11524
 C428 C 0.59745 0.74984 -0.09724
 C429 C 0.57633 0.74983 -0.07616
 C430 C 0.55828 0.74982 -0.05817
 H431 H 0.65550 0.71046 -0.12331
 H432 H 0.62352 0.78933 -0.15516
 H433 H 0.65961 0.78995 -0.19132
 H434 H 0.69168 0.70993 -0.15939
 C435 C 0.34095 0.26956 -0.13613
 C436 C 0.36313 0.25013 -0.13733
 C437 C 0.36431 0.23069 -0.15948
 C438 C 0.34342 0.23060 -0.18038
 C439 C 0.32069 0.25010 -0.17965
 C440 C 0.31998 0.26962 -0.15696
 C441 C 0.38467 0.25014 -0.11583
 C442 C 0.40270 0.25015 -0.09782
 C443 C 0.42380 0.25018 -0.07672
 C444 C 0.44183 0.25019 -0.05870
 H445 H 0.33979 0.28471 -0.11899
 H446 H 0.38148 0.21555 -0.16064
 H447 H 0.34566 0.21526 -0.19709
 H448 H 0.30325 0.28495 -0.15470
 C449 C 0.34357 0.72744 0.13855
 C450 C 0.36300 0.74961 0.13697
 C451 C 0.36149 0.77177 0.15637
 C452 C 0.34066 0.77184 0.17733
 C453 C 0.32068 0.74961 0.17939
 C454 C 0.32267 0.72737 0.15944
 C455 C 0.38450 0.74961 0.11543
 C456 C 0.40251 0.74962 0.09739
 C457 C 0.42361 0.74964 0.07629
 C458 C 0.44163 0.74967 0.05827
 H459 H 0.34460 0.71010 0.12364
 H460 H 0.37643 0.78912 0.15528
 H461 H 0.34038 0.78970 0.19149
 H462 H 0.30848 0.70952 0.15978
 C463 C 0.64976 0.27547 0.14478
 C464 C 0.63705 0.25007 0.13651
 C465 C 0.64530 0.22469 0.14923
 C466 C 0.66618 0.22467 0.17016
 C467 C 0.67912 0.25009 0.17865
 C468 C 0.67066 0.27550 0.16569
 C469 C 0.61555 0.25006 0.11497
 C470 C 0.59754 0.25006 0.09693
 C471 C 0.57645 0.25008 0.07582
 C472 C 0.55844 0.25010 0.05780
 H473 H 0.64347 0.29526 0.13512
 H474 H 0.63566 0.20489 0.14293
 H475 H 0.67246 0.20472 0.17941
 H476 H 0.67989 0.29546 0.17198
 C477 C -0.13838 0.65693 0.72859
 C478 C -0.13717 0.63720 0.75048
 C479 C -0.15691 0.63843 0.77237
 C480 C -0.17785 0.65930 0.77244
 C481 C -0.17955 0.67958 0.75047
 C482 C -0.15925 0.67787 0.72851
 C483 C -0.11565 0.61567 0.75047
 C484 C -0.09764 0.59764 0.75045
 C485 C -0.07653 0.57654 0.75043
 C486 C -0.05850 0.55853 0.75040
 H487 H -0.12319 0.65613 0.71146
 H488 H -0.15612 0.62324 0.78949
 H489 H -0.19232 0.65929 0.79005
 H490 H -0.15923 0.69233 0.71090
 C491 C -0.15925 0.36446 0.23073
 C492 C -0.13701 0.36322 0.25009
 C493 C -0.13570 0.34098 0.26942
 C494 C -0.15653 0.32000 0.26947
 C495 C -0.17932 0.32076 0.25004
 C496 C -0.18016 0.34356 0.23064
 C497 C -0.11552 0.38478 0.25010
 C498 C -0.09753 0.40284 0.25009
 C499 C -0.07646 0.42399 0.25006
 C500 C -0.05847 0.44205 0.25003
 H501 H -0.16051 0.38167 0.21567
 H502 H -0.11848 0.33978 0.28449
 H503 H -0.15419 0.30321 0.28470
 H504 H -0.19695 0.34585 0.21538
 C505 C 0.16349 0.36907 0.76138
 C506 C 0.13677 0.36337 0.75001
 C507 C 0.13103 0.33669 0.73862
 C508 C 0.15191 0.31577 0.73859
 C509 C 0.17887 0.32126 0.74999
 C510 C 0.18441 0.34818 0.76140
 C511 C 0.11526 0.38490 0.75001
 C512 C 0.09724 0.40292 0.75003
 C513 C 0.07614 0.42402 0.75006
 C514 C 0.05812 0.44204 0.75011
 H515 H 0.16820 0.38969 0.77017
 H516 H 0.11038 0.33203 0.72984
 H517 H 0.14682 0.29520 0.73001
 H518 H 0.20501 0.35323 0.76997
 C519 C 0.13872 0.65636 0.27199
 C520 C 0.13707 0.63705 0.24976
 C521 C 0.15645 0.63864 0.22757
 C522 C 0.17745 0.65945 0.22753
 C523 C 0.17958 0.67931 0.24983
 C524 C 0.15965 0.67724 0.27210
 C525 C 0.11548 0.61558 0.24974
 C526 C 0.09740 0.59760 0.24973
 C527 C 0.07624 0.57655 0.24974
 C528 C 0.05818 0.55857 0.24977
 H529 H 0.12382 0.65527 0.28936
 H530 H 0.15531 0.62379 0.21017
 H531 H 0.19159 0.65979 0.20965
 H532 H 0.16003 0.69133 0.29000
 C533 C 0.76120 -0.16351 0.63137
 C534 C 0.74973 -0.13685 0.63703
 C535 C 0.73830 -0.13113 0.66369
 C536 C 0.73830 -0.15198 0.68462
 C537 C 0.74980 -0.17888 0.67917
 C538 C 0.76126 -0.18439 0.65228
 C539 C 0.74971 -0.11536 0.61549
 C540 C 0.74970 -0.09737 0.59746
 C541 C 0.74971 -0.07629 0.57634
 C542 C 0.74973 -0.05830 0.55832
 H543 H 0.77004 -0.16819 0.61077
 H544 H 0.72944 -0.11052 0.66832
 H545 H 0.72968 -0.14691 0.70518
 H546 H 0.76990 -0.20495 0.64726
 C547 C 0.26187 -0.13149 0.33657
 C548 C 0.25042 -0.13718 0.36323
 C549 C 0.23898 -0.16386 0.36893
 C550 C 0.23895 -0.18477 0.34805
 C551 C 0.25042 -0.17927 0.32116
 C552 C 0.26190 -0.15237 0.31567
 C553 C 0.25039 -0.11566 0.38472
 C554 C 0.25035 -0.09763 0.40272
 C555 C 0.25029 -0.07653 0.42379
 C556 C 0.25025 -0.05850 0.44178
 H557 H 0.27071 -0.11087 0.33190
 H558 H 0.23013 -0.16852 0.38952
 H559 H 0.23032 -0.20533 0.35310
 H560 H 0.27053 -0.14732 0.29511
 C561 C 0.72472 0.14520 0.35054
 C562 C 0.75012 0.13696 0.36330
 C563 C 0.77554 0.14971 0.35509
 C564 C 0.77559 0.17062 0.33421
 C565 C 0.75017 0.17906 0.32122
 C566 C 0.72472 0.16609 0.32964
 C567 C 0.75009 0.11543 0.38479
 C568 C 0.75005 0.09739 0.40278
 C569 C 0.75000 0.07626 0.42383
 C570 C 0.74997 0.05822 0.44181
 H571 H 0.70491 0.13553 0.35679
 H572 H 0.79534 0.14343 0.36478
 H573 H 0.79556 0.17987 0.32797
 H574 H 0.70476 0.17235 0.32037
 C575 C 0.22459 0.14933 0.64513
 C576 C 0.25000 0.13665 0.63684
 C577 C 0.27542 0.14495 0.64952
 C578 C 0.27546 0.16584 0.67040
 C579 C 0.25002 0.17876 0.67889
 C580 C 0.22457 0.17025 0.66599
 C581 C 0.24999 0.11513 0.61535
 C582 C 0.24999 0.09711 0.59734
 C583 C 0.25000 0.07603 0.57624
 C584 C 0.25003 0.05802 0.55823
 H585 H 0.20477 0.14301 0.63551
 H586 H 0.29524 0.13532 0.64320
 H587 H 0.29543 0.17216 0.67960
 H588 H 0.20460 0.17947 0.67229
   
