data_POSCAR
  _audit_creation_date              2014-09-24
  _audit_creation_method            'ToBaCCo'
  _symmetry_space_group_name_H-M    'P1'
  _symmetry_Int_Tables_number       1
  _symmetry_cell_setting            triclinic
  loop_
  _symmetry_equiv_pos_as_xyz
 x,y,z
_cell_length_a 23.1068
_cell_length_b 23.5299
_cell_length_c 56.0482
_cell_angle_alpha 89.613600
_cell_angle_beta 91.690200
_cell_angle_gamma 116.235800
loop_
  _atom_site_label
  _atom_site_type_symbol
  _atom_site_fract_x
  _atom_site_fract_y
  _atom_site_fract_z
Si1 Si -0.00880 0.01426 0.49101
 Si2 Si 1.01103 -0.02854 0.17732
 Si3 Si 0.00524 1.01772 0.83033
 O4 O 0.46858 0.04087 0.02915
 O5 O 0.58332 0.05287 -0.01732
 O6 O 0.46836 0.04806 -0.01714
 O7 O 0.58706 0.05624 0.02913
 O8 O 0.54950 -0.04779 0.02803
 O9 O 0.42813 -0.05615 -0.01816
 O10 O 0.54313 -0.05134 -0.01829
 O11 O 0.43009 -0.06320 0.02833
 Cu12 Cu 0.53068 0.05984 0.00601
 Cu13 Cu 0.48371 -0.06502 0.00491
 C14 C 0.42967 -0.01343 0.03670
 C15 C 0.58295 0.00253 -0.02567
 C16 C 0.42765 -0.00504 -0.02550
 C17 C 0.58912 0.00604 0.03643
 O18 O 0.03872 0.58876 0.68505
 O19 O 0.04324 0.47720 0.63980
 O20 O 0.05124 0.59101 0.63894
 O21 O 0.04336 0.47993 0.68615
 O22 O -0.06286 0.43219 0.68246
 O23 O -0.05511 0.54920 0.63658
 O24 O -0.06289 0.43476 0.63602
 O25 O -0.06774 0.54052 0.68274
 Cu26 Cu 0.05468 0.53874 0.66279
 Cu27 Cu -0.07272 0.48474 0.65910
 C28 C -0.01577 0.58295 0.69178
 C29 C -0.00941 0.43688 0.63013
 C30 C -0.00010 0.58986 0.62982
 C31 C -0.01058 0.43654 0.69223
 O32 O 0.47146 0.41366 0.31253
 O33 O 0.57554 0.52350 0.35991
 O34 O 0.47056 0.41595 0.35876
 O35 O 0.58342 0.51331 0.31400
 O36 O 0.53141 0.57221 0.31024
 O37 O 0.41450 0.47085 0.35434
 O38 O 0.51892 0.57806 0.35622
 O39 O 0.41984 0.47280 0.30815
 Cu40 Cu 0.53072 0.46108 0.33671
 Cu41 Cu 0.46599 0.52927 0.33187
 C42 C 0.42749 0.42468 0.30232
 C43 C 0.56441 0.56959 0.36618
 C44 C 0.42254 0.42551 0.36393
 C45 C 0.57738 0.55950 0.30451
 C46 C -0.08326 0.05195 0.52161
 C47 C -0.09255 0.09557 0.53600
 C48 C -0.04862 0.16011 0.53584
 C49 C 0.00221 0.18070 0.51983
 C50 C 0.01179 0.13726 0.50574
 C51 C -0.03006 0.07226 0.50674
 C52 C -0.05576 0.20461 0.55282
 C53 C -0.00490 0.25706 0.56101
 C54 C -0.00833 0.30228 0.57859
 C55 C 0.04936 0.34585 0.58981
 C56 C 0.04921 0.38983 0.60640
 C57 C -0.00879 0.39142 0.61211
 C58 C -0.06654 0.34842 0.60068
 C59 C -0.06638 0.30447 0.58403
 H60 H -0.11588 0.00225 0.52306
 H61 H -0.13262 0.07852 0.54797
 H62 H 0.03555 0.23031 0.51837
 H63 H 0.05373 0.15519 0.49479
 H64 H -0.10315 0.19122 0.55977
 H65 H 0.04294 0.26634 0.55548
 H66 H 0.09488 0.34565 0.58584
 H67 H 0.09452 0.42232 0.61484
 H68 H -0.11203 0.34874 0.60455
 H69 H -0.11168 0.27316 0.57536
 C70 C 0.92410 0.93146 0.21493
 C71 C 0.87398 0.88812 0.22830
 C72 C 0.84793 0.82301 0.22342
 C73 C 0.87375 0.80210 0.20478
 C74 C 0.92432 0.84584 0.19139
 C75 C 0.94946 0.91082 0.19631
 C76 C 0.79290 0.77981 0.23776
 C77 C 0.77288 0.71709 0.23929
 C78 C 0.72035 0.67641 0.25511
 C79 C 0.72090 0.62103 0.26420
 C80 C 0.67407 0.58287 0.28002
 C81 C 0.62506 0.59889 0.28692
 C82 C 0.62310 0.65319 0.27718
 C83 C 0.67013 0.69151 0.26138
 H84 H 0.94231 0.98145 0.21897
 H85 H 0.85509 0.90572 0.24243
 H86 H 0.85425 0.75252 0.20002
 H87 H 0.94261 0.82885 0.17694
 H88 H 0.77023 0.80174 0.24860
 H89 H 0.79858 0.69514 0.23024
 H90 H 0.75856 0.60795 0.25947
 H91 H 0.67674 0.54106 0.28703
 H92 H 0.58556 0.66640 0.28193
 H93 H 0.66671 0.73260 0.25405
 C94 C 0.13317 0.07536 -0.15277
 C95 C 0.18420 0.07815 -0.13793
 C96 C 0.17433 0.03100 -0.12087
 C97 C 0.11166 -0.01784 -0.11833
 C98 C 0.06091 -0.02071 -0.13317
 C99 C 0.07122 0.02498 -0.15089
 C100 C 0.22942 0.03588 -0.10528
 C101 C 0.23089 -0.01394 -0.09390
 C102 C 0.28386 -0.00960 -0.07722
 C103 C 0.28807 -0.06556 -0.07085
 C104 C 0.33513 -0.06427 -0.05428
 C105 C 0.37898 -0.00684 -0.04366
 C106 C 0.37501 0.04921 -0.05009
 C107 C 0.32787 0.04790 -0.06655
 H108 H 0.14290 0.11282 -0.16551
 H109 H 0.23167 0.11720 -0.13986
 H110 H 0.10101 -0.05326 -0.10460
 H111 H 0.01318 -0.05840 -0.13033
 H112 H 0.27059 0.08187 -0.10389
 H113 H 0.19216 -0.06079 -0.09718
 H114 H 0.25449 -0.11060 -0.07861
 H115 H 0.33681 -0.10829 -0.04967
 H116 H 0.40768 0.09421 -0.04207
 H117 H 0.32536 0.09189 -0.07026
 C118 C 0.00545 0.97332 0.53777
 C119 C 0.00621 0.92827 0.55398
 C120 C 0.01192 0.87461 0.54601
 C121 C 0.01937 0.86809 0.52148
 C122 C 0.01826 0.91307 0.50527
 C123 C 0.00937 0.96491 0.51324
 C124 C 0.00459 0.82437 0.56343
 C125 C 0.02833 0.78236 0.56038
 C126 C 0.01916 0.73204 0.57792
 C127 C 0.06857 0.71355 0.58175
 C128 C 0.06197 0.66708 0.59853
 C129 C 0.00505 0.63695 0.61139
 C130 C -0.04545 0.65383 0.60697
 C131 C -0.03833 0.70127 0.59048
 H132 H -0.00059 1.01326 0.54446
 H133 H 0.00064 0.93452 0.57276
 H134 H 0.02262 0.82684 0.51456
 H135 H 0.02094 0.90558 0.48637
 H136 H -0.02004 0.82311 0.57973
 H137 H 0.05859 0.78694 0.54540
 H138 H 0.11294 0.73607 0.57209
 H139 H 0.10150 0.65463 0.60142
 H140 H -0.08986 0.63127 0.61659
 H141 H -0.07800 0.71338 0.58741
 C142 C 0.08441 0.02484 0.21932
 C143 C 0.13165 0.07309 0.23309
 C144 C 0.16004 0.13578 0.22490
 C145 C 0.13875 0.14933 0.20267
 C146 C 0.09096 0.10079 0.18894
 C147 C 0.06399 0.03831 0.19715
 C148 C 0.21333 0.18389 0.23970
 C149 C 0.23875 0.24662 0.23623
 C150 C 0.29043 0.29258 0.25211
 C151 C 0.29350 0.35285 0.25534
 C152 C 0.33907 0.39622 0.27122
 C153 C 0.38326 0.38053 0.28401
 C154 C 0.38222 0.32125 0.27996
 C155 C 0.33632 0.27767 0.26414
 H156 H 0.06541 -0.02343 0.22568
 H157 H 0.14719 0.06103 0.25000
 H158 H 0.16000 0.19649 0.19532
 H159 H 0.07694 0.11169 0.17155
 H160 H 0.23091 0.16638 0.25478
 H161 H 0.21859 0.26575 0.22255
 H162 H 0.25931 0.36580 0.24606
 H163 H 0.33892 0.44174 0.27377
 H164 H 0.41597 0.30800 0.28938
 H165 H 0.33693 0.23247 0.26141
 C166 C 0.87525 -0.04910 -0.15448
 C167 C 0.82398 -0.05792 -0.13977
 C168 C 0.83372 -0.01778 -0.12004
 C169 C 0.89642 0.02941 -0.11464
 C170 C 0.94731 0.03816 -0.12930
 C171 C 0.93692 -0.00037 -0.14946
 C172 C 0.77833 -0.02679 -0.10515
 C173 C 0.77627 0.02084 -0.09268
 C174 C 0.72346 0.01383 -0.07670
 C175 C 0.71999 0.06884 -0.06891
 C176 C 0.67374 0.06526 -0.05268
 C177 C 0.62992 0.00642 -0.04379
 C178 C 0.63280 -0.04878 -0.05177
 C179 C 0.67917 -0.04520 -0.06795
 H180 H 0.86637 -0.07935 -0.16997
 H181 H 0.77636 -0.09522 -0.14410
 H182 H 0.90657 0.05955 -0.09905
 H183 H 0.99483 0.07579 -0.12507
 H184 H 0.73762 -0.07319 -0.10537
 H185 H 0.81476 0.06823 -0.09453
 H186 H 0.75372 0.11497 -0.07521
 H187 H 0.67288 0.10868 -0.04687
 H188 H 0.60001 -0.09486 -0.04513
 H189 H 0.68099 -0.08867 -0.07291
 C190 C 0.04072 -0.10150 0.14348
 C191 C 0.08325 -0.11170 0.12874
 C192 C 0.15030 -0.07694 0.13233
 C193 C 0.17383 -0.03651 0.15230
 C194 C 0.13156 -0.02599 0.16681
 C195 C 0.06479 -0.05627 0.16194
 C196 C 0.19463 -0.08065 0.11446
 C197 C 0.25034 -0.03021 0.10958
 C198 C 0.29480 -0.02835 0.09071
 C199 C 0.33997 0.03112 0.08280
 C200 C 0.38356 0.03595 0.06527
 C201 C 0.38339 -0.01872 0.05533
 C202 C 0.33859 -0.07840 0.06337
 C203 C 0.29477 -0.08326 0.08091
 H204 H -0.01060 -0.12558 0.13938
 H205 H 0.06386 -0.14401 0.11371
 H206 H 0.22511 -0.01134 0.15635
 H207 H 0.15201 0.00806 0.18119
 H208 H 0.17814 -0.12342 0.10381
 H209 H 0.26263 0.01399 0.11891
 H210 H 0.34138 0.07420 0.09014
 H211 H 0.41750 0.08263 0.05955
 H212 H 0.33747 -0.12147 0.05616
 H213 H 0.26192 -0.12992 0.08693
 C214 C 0.93696 0.94677 0.44773
 C215 C 0.89216 0.89600 0.43420
 C216 C 0.83475 0.85210 0.44419
 C217 C 0.82261 0.86056 0.46805
 C218 C 0.86774 0.91144 0.48162
 C219 C 0.92535 0.95497 0.47160
 C220 C 0.79136 0.79642 0.42958
 C221 C 0.72819 0.76280 0.43330
 C222 C 0.68591 0.71001 0.41731
 C223 C 0.62248 0.70070 0.41252
 C224 C 0.58269 0.65418 0.39624
 C225 C 0.60510 0.61499 0.38482
 C226 C 0.66755 0.62213 0.39051
 C227 C 0.70778 0.66944 0.40654
 H228 H 0.98183 0.97750 0.43962
 H229 H 0.90314 0.89017 0.41598
 H230 H 0.77994 0.82656 0.47665
 H231 H 0.85888 0.91463 0.50027
 H232 H 0.81188 0.78489 0.41429
 H233 H 0.70555 0.77752 0.44701
 H234 H 0.60437 0.73089 0.42079
 H235 H 0.53452 0.64936 0.39239
 H236 H 0.68595 0.59243 0.38205
 H237 H 0.75594 0.67435 0.41042
 C238 C 0.06778 0.11260 0.79766
 C239 C 0.07366 0.16347 0.78320
 C240 C 0.03053 0.19038 0.78510
 C241 C -0.01634 0.16771 0.80269
 C242 C -0.02233 0.11686 0.81706
 C243 C 0.01898 0.08798 0.81448
 C244 C 0.03529 0.24134 0.76840
 C245 C -0.01551 0.25220 0.76213
 C246 C -0.01275 0.30073 0.74456
 C247 C -0.07047 0.29460 0.73338
 C248 C -0.07011 0.33886 0.71654
 C249 C -0.01190 0.39051 0.71061
 C250 C 0.04571 0.39742 0.72218
 C251 C 0.04534 0.35328 0.73903
 H252 H 0.09979 0.09087 0.79493
 H253 H 0.11062 0.18043 0.76994
 H254 H -0.04888 0.18875 0.80536
 H255 H -0.06068 0.09977 0.82969
 H256 H 0.08090 0.26727 0.75985
 H257 H -0.06245 0.22186 0.76901
 H258 H -0.11599 0.25494 0.73749
 H259 H -0.11533 0.33230 0.70801
 H260 H 0.09133 0.43709 0.71823
 H261 H 0.09056 0.36113 0.74782
 C262 C 0.97599 -0.00392 0.13054
 C263 C 0.93307 0.00201 0.11377
 C264 C 0.87937 0.00955 0.12115
 C265 C 0.87120 0.01418 0.14574
 C266 C 0.91403 0.00790 0.16248
 C267 C 0.96514 -0.00385 0.15502
 C268 C 0.83024 0.00651 0.10294
 C269 C 0.78825 0.03062 0.10618
 C270 C 0.73712 0.02318 0.08822
 C271 C 0.71789 0.07167 0.08557
 C272 C 0.66973 0.06597 0.06876
 C273 C 0.63870 0.01089 0.05465
 C274 C 0.65665 -0.03849 0.05778
 C275 C 0.70564 -0.03231 0.07432
 H276 H 1.01629 -0.01053 0.12420
 H277 H 0.94087 -0.00104 0.09496
 H278 H 0.83003 0.01917 0.15220
 H279 H 0.90512 0.00918 0.18124
 H280 H 0.82915 -0.01620 0.08606
 H281 H 0.79278 0.05893 0.12190
 H282 H 0.74089 0.11447 0.09629
 H283 H 0.65656 0.10464 0.06687
 H284 H 0.63347 -0.08151 0.04720
 H285 H 0.71815 -0.07133 0.07646
 C286 C 0.12340 0.06812 0.47775
 C287 C 0.17618 0.11062 0.46495
 C288 C 0.16759 0.14793 0.44678
 C289 C 0.10471 0.13939 0.44077
 C290 C 0.05237 0.09734 0.45357
 C291 C 0.06138 0.06207 0.47231
 C292 C 0.22448 0.19453 0.43415
 C293 C 0.22558 0.24704 0.42408
 C294 C 0.27948 0.29378 0.41009
 C295 C 0.27507 0.34848 0.40201
 C296 C 0.32210 0.39211 0.38746
 C297 C 0.37488 0.38210 0.38069
 C298 C 0.38022 0.32820 0.38920
 C299 C 0.33306 0.28440 0.40363
 H300 H 0.13137 0.04157 0.49226
 H301 H 0.22401 0.11564 0.46968
 H302 H 0.09554 0.16507 0.42624
 H303 H 0.00474 0.09332 0.44916
 H304 H 0.26650 0.18568 0.43401
 H305 H 0.18456 0.25703 0.42620
 H306 H 0.23438 0.35704 0.40663
 H307 H 0.31656 0.43314 0.38121
 H308 H 0.42020 0.31892 0.38423
 H309 H 0.33859 0.24293 0.40906
 C310 C -0.01358 0.96154 0.78392
 C311 C -0.01556 0.91577 0.76776
 C312 C -0.01790 0.85834 0.77588
 C313 C -0.02065 0.84657 0.80056
 C314 C -0.01802 0.89273 0.81673
 C315 C -0.01197 0.95159 0.80861
 C316 C -0.01271 0.81419 0.75833
 C317 C -0.03649 0.75162 0.76173
 C318 C -0.02960 0.70898 0.74398
 C319 C -0.08015 0.64822 0.74039
 C320 C -0.07549 0.60733 0.72343
 C321 C -0.01937 0.62586 0.71017
 C322 C 0.03218 0.68596 0.71431
 C323 C 0.02697 0.72739 0.73095
 H324 H -0.01176 1.00512 0.77691
 H325 H -0.01419 0.92568 0.74882
 H326 H -0.02186 0.80308 0.80753
 H327 H -0.01862 0.88281 0.83556
 H328 H 0.00999 0.83397 0.74164
 H329 H -0.06508 0.73030 0.77718
 H330 H -0.12385 0.63283 0.75042
 H331 H -0.11576 0.56103 0.72075
 H332 H 0.07601 0.70134 0.70437
 H333 H 0.06741 0.77348 0.73380
   
