data_POSCAR
  _audit_creation_date              2014-09-24
  _audit_creation_method            'ToBaCCo'
  _symmetry_space_group_name_H-M    'P1'
  _symmetry_Int_Tables_number       1
  _symmetry_cell_setting            triclinic
  loop_
  _symmetry_equiv_pos_as_xyz
 x,y,z
_cell_length_a 15.9797
_cell_length_b 16.1020
_cell_length_c 16.2107
_cell_angle_alpha 90.188300
_cell_angle_beta 92.466700
_cell_angle_gamma 91.922300
loop_
  _atom_site_label
  _atom_site_type_symbol
  _atom_site_fract_x
  _atom_site_fract_y
  _atom_site_fract_z
C1 C -0.00656 0.41341 0.19503
 C2 C 0.07814 0.42022 0.23829
 C3 C 0.09228 0.48655 0.28954
 C4 C 0.01474 0.54527 0.28882
 C5 C -0.06847 0.41920 0.26250
 C6 C -0.06234 0.48868 0.30920
 C7 C -0.01397 0.49556 0.14731
 C8 C -0.00292 0.56546 0.19606
 H9 H 0.12510 0.37753 0.22142
 H10 H 0.02303 0.60102 0.32908
 H11 H -0.12405 0.37896 0.26255
 H12 H -0.02799 0.49810 0.08142
 C13 C 0.03264 0.41913 0.79904
 C14 C -0.02096 0.40916 0.72495
 C15 C -0.03438 0.48306 0.67906
 C16 C 0.02640 0.54914 0.70525
 C17 C 0.11329 0.44455 0.76951
 C18 C 0.10985 0.51388 0.71584
 C19 C 0.00419 0.49431 0.84165
 C20 C 0.00508 0.56814 0.78949
 H21 H -0.06050 0.35357 0.71605
 H22 H 0.02479 0.60091 0.66036
 H23 H 0.17250 0.41948 0.79052
 H24 H -0.00610 0.49660 0.90722
 C25 C 0.20476 -0.01617 0.40673
 C26 C 0.25584 0.06589 0.41621
 C27 C 0.29655 0.07883 0.49047
 C28 C 0.28698 0.00349 0.54947
 C29 C 0.26926 -0.08199 0.42480
 C30 C 0.31198 -0.07339 0.49849
 C31 C 0.14842 -0.01783 0.48218
 C32 C 0.19106 -0.00822 0.55717
 H33 H 0.25794 0.11205 0.36776
 H34 H 0.32291 0.01165 0.60925
 H35 H 0.27850 -0.13480 0.38537
 H36 H 0.08104 -0.02757 0.47643
 C37 C 0.78071 0.01169 0.39472
 C38 C 0.71603 -0.05144 0.39387
 C39 C 0.67885 -0.06494 0.47056
 C40 C 0.69726 0.00479 0.52827
 C41 C 0.73362 0.08854 0.40903
 C42 C 0.69235 0.08836 0.48024
 C43 C 0.83656 0.00140 0.47604
 C44 C 0.79071 -0.00126 0.54580
 H45 H 0.69579 -0.08505 0.33799
 H46 H 0.65924 0.00416 0.58396
 H47 H 0.73992 0.14245 0.36971
 H48 H 0.90437 0.00265 0.47872
 C49 C 0.41173 0.20645 1.01829
 C50 C 0.43409 0.24759 1.09661
 C51 C 0.50600 0.30166 1.09563
 C52 C 0.54766 0.30024 1.01510
 C53 C 0.40760 0.27307 0.95851
 C54 C 0.48365 0.32149 0.95060
 C55 C 0.48675 0.16072 0.99852
 C56 C 0.56311 0.21200 0.99816
 H57 H 0.40720 0.23187 1.15486
 H58 H 0.60378 0.34271 1.01416
 H59 H 0.35717 0.27315 0.91154
 H60 H 0.48601 0.09391 0.99013
 C61 C 0.39180 0.77182 0.99667
 C62 C 0.40056 0.69877 0.93849
 C63 C 0.47536 0.66232 0.94624
 C64 C 0.52585 0.68919 1.02581
 C65 C 0.39442 0.73234 1.08011
 C66 C 0.46445 0.68949 1.09842
 C67 C 0.46991 0.82216 0.99371
 C68 C 0.54524 0.77666 1.01177
 H69 H 0.36436 0.69281 0.88082
 H70 H 0.57854 0.64785 1.03727
 H71 H 0.34716 0.74690 1.12278
 H72 H 0.47021 0.88621 0.97378
 B73 B 0.98387 1.07878 0.02971
 B74 B 0.97976 1.07749 -0.07608
 B75 B 1.06749 1.04387 -0.02183
 B76 B 1.03496 0.99085 0.06409
 B77 B 0.92809 0.99273 0.06429
 B78 B 0.89194 1.04710 -0.02327
 B79 B 0.96981 0.90396 -0.07542
 B80 B 0.97594 0.90389 0.03137
 B81 B 0.88613 0.93850 -0.01875
 B82 B 0.91854 0.99084 -0.10774
 B83 B 1.02751 0.99042 -0.10919
 B84 B 1.06245 0.93779 -0.02207
 B85 B 0.60962 0.50779 0.47307
 B86 B 0.52599 0.56563 0.43888
 B87 B 0.51859 0.45884 0.43247
 B88 B 0.56799 0.42002 0.52122
 B89 B 0.60899 0.50286 0.57932
 B90 B 0.58220 0.59273 0.52911
 B91 B 0.43426 0.51036 0.57106
 B92 B 0.51686 0.45152 0.60684
 B93 B 0.52678 0.55795 0.61090
 B94 B 0.47483 0.59800 0.52425
 B95 B 0.43466 0.51393 0.46526
 B96 B 0.46104 0.42338 0.51604
 C97 C 0.95101 1.26066 0.18780
 C98 C 0.98406 1.33164 0.14863
 C99 C 1.02654 1.31992 0.07642
 C100 C 1.03157 1.24040 0.04302
 C101 C 0.98915 1.17014 0.07601
 C102 C 0.95080 1.18342 0.15103
 H103 H 0.92906 1.26189 0.24984
 H104 H 1.06040 1.37133 0.04869
 H105 H 1.07258 1.23502 -0.00683
 H106 H 0.92840 1.13403 0.18788
 C107 C 0.93681 0.71012 0.18909
 C108 C 0.99194 0.65110 0.16090
 C109 C 1.03597 0.67083 0.09102
 C110 C 1.02780 0.74768 0.05251
 C111 C 0.97801 0.81147 0.08111
 C112 C 0.92794 0.78725 0.14808
 H113 H 0.89688 0.69469 0.23954
 H114 H 1.07525 0.62532 0.06400
 H115 H 1.05506 0.75208 -0.00475
 H116 H 0.87626 0.82379 0.16499
 C117 C 0.95153 1.31474 -0.12671
 C118 C 1.02885 1.34016 -0.15793
 C119 C 1.08489 1.27635 -0.17496
 C120 C 1.06581 1.19313 -0.15713
 C121 C 0.98936 1.16790 -0.12332
 C122 C 0.93084 1.23093 -0.11583
 H123 H 0.90270 1.35915 -0.12010
 H124 H 1.14268 1.28853 -0.20553
 H125 H 1.11271 1.14938 -0.16923
 H126 H 0.86735 1.21818 -0.10432
 C127 C 1.02308 0.72004 -0.22731
 C128 C 0.99049 0.65015 -0.18496
 C129 C 0.93267 0.66503 -0.12520
 C130 C 0.91409 0.74679 -0.10605
 C131 C 0.96439 0.81508 -0.12894
 C132 C 1.00660 0.80100 -0.20196
 H133 H 1.06454 0.71383 -0.27773
 H134 H 0.89313 0.61464 -0.10298
 H135 H 0.84991 0.75640 -0.09852
 H136 H 1.03007 0.85032 -0.23865
 C137 C 1.11817 1.04788 0.29294
 C138 C 1.15835 0.97768 0.32168
 C139 C 1.16040 0.90937 0.26661
 C140 C 1.12561 0.91404 0.18521
 C141 C 1.08939 0.98767 0.15432
 C142 C 1.08933 1.05372 0.21150
 H143 H 1.11283 1.10141 0.33285
 H144 H 1.18702 0.85140 0.28544
 H145 H 1.12639 0.85898 0.14734
 H146 H 1.06766 1.11224 0.19663
 C147 C 1.07632 1.03326 -0.34876
 C148 C 1.14966 0.99045 -0.36138
 C149 C 1.18627 0.94997 -0.29350
 C150 C 1.14962 0.95043 -0.21625
 C151 C 1.07476 0.99208 -0.20102
 C152 C 1.04144 1.03544 -0.27034
 H153 H 1.04777 1.06841 -0.39873
 H154 H 1.24422 0.91798 -0.29970
 H155 H 1.18570 0.92323 -0.16805
 H156 H 0.99141 1.07654 -0.26406
 C157 C 0.77926 1.04336 0.24345
 C158 C 0.82190 1.01183 0.31345
 C159 C 0.89317 0.96673 0.30281
 C160 C 0.92301 0.95722 0.22458
 C161 C 0.88423 0.99247 0.15345
 C162 C 0.81111 1.03562 0.16608
 H163 H 0.72067 1.07457 0.24794
 H164 H 0.92426 0.93563 0.35403
 H165 H 0.97512 0.91820 0.22178
 H166 H 0.78095 1.07065 0.11955
 C167 C 0.82510 1.06864 -0.32078
 C168 C 0.82321 0.99602 -0.36826
 C169 C 0.82980 0.91980 -0.32791
 C170 C 0.84752 0.91735 -0.24264
 C171 C 0.86549 0.99073 -0.19662
 C172 C 0.84459 1.06576 -0.23602
 H173 H 0.81172 1.12776 -0.34935
 H174 H 0.81856 0.86217 -0.36187
 H175 H 0.84512 0.85764 -0.21398
 H176 H 0.84737 1.12338 -0.20329
 C177 C 1.30713 1.11393 -0.05782
 C178 C 1.33183 1.15901 0.01427
 C179 C 1.26877 1.17156 0.07085
 C180 C 1.18772 1.13815 0.05732
 C181 C 1.16137 1.09340 -0.01447
 C182 C 1.22415 1.08435 -0.07223
 H183 H 1.35113 1.10594 -0.10603
 H184 H 1.27883 1.21008 0.12513
 H185 H 1.14600 1.15077 0.10412
 H186 H 1.21102 1.05623 -0.13013
 C187 C 0.65377 1.11436 -0.07240
 C188 C 0.64349 1.18084 -0.01748
 C189 C 0.71637 1.21571 0.02153
 C190 C 0.79384 1.17818 0.01552
 C191 C 0.80438 1.10444 -0.03087
 C192 C 0.73343 1.08110 -0.08320
 H193 H 0.60020 1.08761 -0.10744
 H194 H 0.71355 1.26913 0.06190
 H195 H 0.84478 1.21036 0.04619
 H196 H 0.73454 1.02741 -0.12285
 C197 C 1.30056 0.88969 0.03081
 C198 C 1.31200 0.81828 -0.01593
 C199 C 1.24332 0.78429 -0.06250
 C200 C 1.16766 0.82250 -0.06496
 C201 C 1.15309 0.89290 -0.01769
 C202 C 1.22262 0.92530 0.03078
 H203 H 1.35111 0.91594 0.07041
 H204 H 1.24441 0.72653 -0.09599
 H205 H 1.12163 0.79526 -0.10579
 H206 H 1.21894 0.97816 0.07045
 C207 C 0.64028 0.89815 0.01618
 C208 C 0.62783 0.81230 0.01324
 C209 C 0.70089 0.76520 0.01758
 C210 C 0.78091 0.80407 0.01502
 C211 C 0.79281 0.88976 -0.00126
 C212 C 0.72045 0.93383 0.01428
 H213 H 0.58921 0.93906 0.02576
 H214 H 0.69882 0.69845 0.02246
 H215 H 0.83231 0.76408 0.02496
 H216 H 0.72270 0.99586 0.03260
 C217 C 0.78207 0.49262 0.30364
 C218 C 0.85838 0.51284 0.34653
 C219 C 0.85503 0.54105 0.42735
 C220 C 0.77725 0.54330 0.46456
 C221 C 0.70122 0.51025 0.42665
 C222 C 0.70756 0.48550 0.34411
 H223 H 0.78041 0.47746 0.23836
 H224 H 0.91179 0.56147 0.46153
 H225 H 0.77698 0.57841 0.51956
 H226 H 0.65428 0.47239 0.30457
 C227 C 0.20366 0.57059 0.37526
 C228 C 0.17707 0.49715 0.33438
 C229 C 0.23437 0.43179 0.33544
 C230 C 0.31553 0.44152 0.36937
 C231 C 0.34377 0.51427 0.41100
 C232 C 0.28394 0.57772 0.41479
 H233 H 0.16232 0.62224 0.37830
 H234 H 0.21805 0.37049 0.31192
 H235 H 0.35473 0.38903 0.36527
 H236 H 0.29715 0.63358 0.44863
 C237 C 0.83213 0.42605 0.62600
 C238 C 0.88039 0.49537 0.65363
 C239 C 0.83649 0.56780 0.67231
 C240 C 0.74776 0.56873 0.66179
 C241 C 0.70114 0.49831 0.62989
 C242 C 0.74609 0.42569 0.62568
 H243 H 0.86052 0.36855 0.60935
 H244 H 0.86942 0.62344 0.69500
 H245 H 0.71747 0.62587 0.67333
 H246 H 0.71725 0.36591 0.62307
 C247 C 0.19019 0.49501 0.59923
 C248 C 0.18051 0.53590 0.67384
 C249 C 0.25236 0.56398 0.71976
 C250 C 0.33196 0.55463 0.68951
 C251 C 0.34280 0.51593 0.61235
 C252 C 0.26976 0.48136 0.57194
 H253 H 0.13665 0.46477 0.56677
 H254 H 0.24707 0.58872 0.78155
 H255 H 0.38399 0.57295 0.72959
 H256 H 0.27263 0.43950 0.52081
 C257 C 0.42587 0.67196 0.24639
 C258 C 0.48540 0.66616 0.18540
 C259 C 0.56659 0.64574 0.21110
 C260 C 0.58439 0.62327 0.29294
 C261 C 0.52223 0.61959 0.35248
 C262 C 0.44630 0.65443 0.32786
 H263 H 0.36194 0.68858 0.23374
 H264 H 0.61713 0.64690 0.16892
 H265 H 0.64790 0.61151 0.30614
 H266 H 0.39972 0.66589 0.37047
 C267 C 0.49652 0.70396 0.80020
 C268 C 0.51548 0.65015 0.86645
 C269 C 0.56323 0.58182 0.85140
 C270 C 0.57838 0.56105 0.76975
 C271 C 0.53681 0.60065 0.70230
 C272 C 0.50120 0.67669 0.71973
 H273 H 0.46832 0.76324 0.81027
 H274 H 0.58551 0.54295 0.90156
 H275 H 0.61976 0.51155 0.76092
 H276 H 0.47846 0.71702 0.67244
 C277 C 0.57150 0.31524 0.23404
 C278 C 0.52677 0.35051 0.16736
 C279 C 0.47682 0.41790 0.18613
 C280 C 0.47376 0.44993 0.26728
 C281 C 0.51840 0.41560 0.33595
 C282 C 0.56783 0.34699 0.31511
 H283 H 0.60634 0.25967 0.22435
 H284 H 0.43664 0.44406 0.13804
 H285 H 0.43325 0.50074 0.27530
 H286 H 0.60242 0.31454 0.36121
 C287 C 0.57278 0.34554 0.82894
 C288 C 0.49801 0.35486 0.87062
 C289 C 0.42997 0.38517 0.82404
 C290 C 0.43461 0.40187 0.74045
 C291 C 0.50917 0.40061 0.69764
 C292 C 0.57719 0.36590 0.74385
 H293 H 0.62688 0.31958 0.86050
 H294 H 0.37044 0.39447 0.85175
 H295 H 0.37647 0.41439 0.71184
 H296 H 0.63559 0.35738 0.71708
 C297 C 0.69257 0.78643 0.44232
 C298 C 0.66932 0.85082 0.49532
 C299 C 0.64599 0.82698 0.57459
 C300 C 0.63378 0.74237 0.59315
 C301 C 0.63783 0.68010 0.53180
 C302 C 0.67749 0.70449 0.46083
 H303 H 0.72217 0.79659 0.38447
 H304 H 0.63623 0.87238 0.62218
 H305 H 0.62286 0.72778 0.65553
 H306 H 0.69315 0.66204 0.41511
 C307 C 0.72004 0.23978 0.49018
 C308 C 0.67248 0.16971 0.51426
 C309 C 0.60094 0.18128 0.55817
 C310 C 0.57225 0.26165 0.56716
 C311 C 0.60825 0.32940 0.52345
 C312 C 0.68512 0.31657 0.48768
 H313 H 0.78136 0.23433 0.46505
 H314 H 0.56538 0.12880 0.58181
 H315 H 0.51850 0.26836 0.60398
 H316 H 0.72128 0.36549 0.46066
 C317 C 0.32649 0.79110 0.56830
 C318 C 0.36432 0.85671 0.52614
 C319 C 0.43728 0.84088 0.48484
 C320 C 0.47040 0.76120 0.48477
 C321 C 0.43304 0.69276 0.52585
 C322 C 0.35920 0.71136 0.56697
 H323 H 0.26653 0.79937 0.59548
 H324 H 0.46529 0.88883 0.44710
 H325 H 0.52274 0.75322 0.44686
 H326 H 0.32026 0.66471 0.59220
 C327 C 0.39549 0.19071 0.44748
 C328 C 0.34145 0.16085 0.50659
 C329 C 0.31892 0.21685 0.56786
 C330 C 0.35119 0.30019 0.56942
 C331 C 0.40723 0.33122 0.51012
 C332 C 0.42599 0.27278 0.44907
 H333 H 0.41331 0.15031 0.39803
 H334 H 0.27402 0.19725 0.61266
 H335 H 0.32981 0.33916 0.61663
 H336 H 0.46765 0.28745 0.40293
   
