data_POSCAR
  _audit_creation_date              2014-09-24
  _audit_creation_method            'ToBaCCo'
  _symmetry_space_group_name_H-M    'P1'
  _symmetry_Int_Tables_number       1
  _symmetry_cell_setting            triclinic
  loop_
  _symmetry_equiv_pos_as_xyz
 x,y,z
_cell_length_a 38.8049
_cell_length_b 35.5359
_cell_length_c 38.5732
_cell_angle_alpha 95.047600
_cell_angle_beta 90.021000
_cell_angle_gamma 91.787500
loop_
  _atom_site_label
  _atom_site_type_symbol
  _atom_site_fract_x
  _atom_site_fract_y
  _atom_site_fract_z
C1 C 0.20911 1.24354 0.18886
 C2 C 0.23639 1.21853 0.18552
 C3 C 0.24022 1.19216 0.20938
 C4 C 0.21683 1.19043 0.23695
 C5 C 0.18996 1.21509 0.24026
 C6 C 0.18602 1.24184 0.21597
 C7 C 0.19782 1.27023 0.16816
 N8 N 0.16825 1.28486 0.18180
 C9 C 0.16097 1.26756 0.21126
 C10 C 0.17022 1.20529 0.26789
 N11 N 0.18427 1.17510 0.28144
 C12 C 0.21298 1.16601 0.26252
 C13 C 0.26719 1.16998 0.19830
 N14 N 0.27985 1.18213 0.16823
 C15 C 0.26107 1.21196 0.16030
 H16 H 0.20986 1.27765 0.14425
 H17 H 0.13878 1.27222 0.22783
 H18 H 0.14668 1.21857 0.27679
 H19 H 0.22965 1.14285 0.26608
 H20 H 0.27624 1.14591 0.21066
 H21 H 0.26406 1.22714 0.13735
 C22 C 0.78408 0.77860 0.17807
 C23 C 0.75826 0.80549 0.18057
 C24 C 0.75866 0.83334 0.20792
 C25 C 0.78481 0.83479 0.23311
 C26 C 0.81023 0.80837 0.23069
 C27 C 0.80984 0.78001 0.20295
 C28 C 0.79145 0.74990 0.15312
 N29 N 0.82121 0.73374 0.16215
 C30 C 0.83243 0.75212 0.19275
 C31 C 0.83338 0.81834 0.25723
 N32 N 0.82277 0.85035 0.27567
 C33 C 0.79285 0.86039 0.26096
 C34 C 0.73215 0.85695 0.20259
 N35 N 0.71555 0.84424 0.17254
 C36 C 0.73140 0.81266 0.15900
 H37 H 0.77639 0.74241 0.12983
 H38 H 0.85590 0.74635 0.20626
 H39 H 0.85686 0.80391 0.26202
 H40 H 0.77816 0.88501 0.26885
 H41 H 0.72625 0.88203 0.21916
 H42 H 0.72455 0.79669 0.13464
 C43 C 0.78188 1.21628 -0.17426
 C44 C 0.75551 1.18835 -0.17879
 C45 C 0.75582 1.16196 -0.20733
 C46 C 0.78248 1.16313 -0.23180
 C47 C 0.80840 1.19065 -0.22736
 C48 C 0.80812 1.21738 -0.19838
 C49 C 0.78946 1.24392 -0.14783
 N50 N 0.81984 1.26180 -0.15522
 C51 C 0.83122 1.24560 -0.18626
 C52 C 0.83184 1.18349 -0.25366
 N53 N 0.82097 1.15213 -0.27405
 C54 C 0.79058 1.13962 -0.26073
 C55 C 0.72862 1.13684 -0.20379
 N56 N 0.71175 1.14726 -0.17370
 C57 C 0.72808 1.17883 -0.15837
 H58 H 0.77418 1.24943 -0.12462
 H59 H 0.85513 1.25307 -0.19880
 H60 H 0.85564 1.19947 -0.25707
 H61 H 0.77558 1.11477 -0.27041
 H62 H 0.72244 1.11231 -0.22153
 H63 H 0.72117 1.19320 -0.13354
 C64 C 0.19044 0.76063 -0.20019
 C65 C 0.21757 0.78751 -0.20121
 C66 C 0.21843 0.81230 -0.22690
 C67 C 0.19214 0.81046 -0.25205
 C68 C 0.16553 0.78382 -0.25113
 C69 C 0.16466 0.75874 -0.22501
 C70 C 0.18161 0.73502 -0.17671
 N71 N 0.15100 0.71749 -0.18656
 C72 C 0.14060 0.73192 -0.21632
 C73 C 0.14255 0.79015 -0.27696
 N74 N 0.15438 0.82025 -0.29365
 C75 C 0.18485 0.83264 -0.27848
 C76 C 0.24633 0.83674 -0.22006
 N77 N 0.26244 0.82735 -0.19081
 C78 C 0.24493 0.79720 -0.17925
 H79 H 0.19607 0.73028 -0.15355
 H80 H 0.11681 0.72481 -0.23029
 H81 H 0.11850 0.77448 -0.28200
 H82 H 0.20020 0.85682 -0.28541
 H83 H 0.25367 0.86000 -0.23505
 H84 H 0.25109 0.78388 -0.15592
 C85 C 0.51880 1.05558 -0.02172
 H86 H 0.50136 1.06868 -0.00283
 C87 C 0.54170 1.07822 -0.03935
 H88 H 0.54077 1.10861 -0.03440
 C89 C 0.54139 1.00015 -0.05062
 H90 H 0.54149 0.96962 -0.05431
 C91 C 0.56467 1.02169 -0.06884
 H92 H 0.58258 1.00741 -0.08663
 N93 N 0.51914 1.01728 -0.02753
 C94 C 0.46631 1.01260 0.06571
 H95 H 0.48510 0.99472 0.07601
 C96 C 0.44414 1.03273 0.08848
 H97 H 0.44692 1.03078 0.11617
 C98 C 0.43984 1.03655 0.01721
 H99 H 0.43807 1.03739 -0.01070
 C100 C 0.41725 1.05722 0.03901
 H101 H 0.39812 1.07398 0.02759
 Zn102 Zn 0.49156 0.98576 -0.00098
 N103 N 0.46384 1.01493 0.03079
 C104 C 0.54609 0.97603 0.04387
 N105 N 0.52215 0.95667 0.02300
 C106 C 0.52156 0.91826 0.01833
 C107 C 0.54556 0.89780 0.03537
 C108 C 0.57042 0.95676 0.06149
 C109 C 0.45958 0.95630 -0.06472
 C110 C 0.43505 0.93442 -0.08474
 C111 C 0.41420 0.90892 -0.03235
 C112 C 0.43900 0.93133 -0.01337
 N113 N 0.46115 0.95425 -0.02971
 H114 H 0.54631 1.00661 0.04666
 H115 H 0.50273 0.90339 0.00114
 H116 H 0.54424 0.86726 0.03169
 H117 H 0.58933 0.97281 0.07787
 H118 H 0.47682 0.97543 -0.07710
 H119 H 0.43399 0.93658 -0.11254
 H120 H 0.39631 0.89178 -0.01848
 H121 H 0.44028 0.93101 0.01462
 C122 C 0.41892 1.05515 0.07516
 C123 C 0.56549 1.06127 -0.06288
 C124 C 0.41197 0.91025 -0.06859
 C125 C 0.57059 0.91712 0.05718
 C126 C -0.01437 0.53380 1.07329
 H127 H 0.00330 0.51571 1.08502
 C128 C -0.03373 0.55901 1.09454
 H129 H -0.03129 0.55917 1.12249
 C130 C -0.03874 0.55559 1.02270
 H131 H -0.04012 0.55440 0.99461
 C132 C -0.05866 0.58110 1.04294
 H133 H -0.07536 0.59946 1.03014
 N134 N -0.01725 0.53250 1.03806
 C135 C 0.07476 0.47538 1.03098
 H136 H 0.08611 0.49501 1.01410
 C137 C 0.09612 0.45251 1.04861
 H138 H 0.12375 0.45574 1.04572
 C139 C 0.02508 0.44723 1.05490
 H140 H -0.00272 0.44500 1.05673
 C141 C 0.04548 0.42388 1.07310
 H142 H 0.03313 0.40373 1.08897
 Zn143 Zn 0.01048 0.50088 1.00839
 N144 N 0.03992 0.47241 1.03443
 C145 C 0.05722 0.56018 0.99764
 N146 N 0.03667 0.53274 0.98081
 C147 C 0.03381 0.52943 0.94552
 C148 C 0.05275 0.55379 0.92571
 C149 C 0.07673 0.58504 0.97885
 C150 C -0.05203 0.46500 0.98151
 C151 C -0.07141 0.43837 0.96022
 C152 C -0.01838 0.41354 0.93630
 C153 C -0.00007 0.44052 0.95809
 N154 N -0.01701 0.46588 0.97974
 H155 H 0.05835 0.56278 1.02578
 H156 H 0.01661 0.50818 0.93261
 H157 H 0.05023 0.55061 0.89764
 H158 H 0.09246 0.60697 0.99294
 H159 H -0.06503 0.48473 0.99954
 H160 H -0.09928 0.43824 0.96180
 H161 H -0.00419 0.39337 0.91973
 H162 H 0.02783 0.44130 0.95782
 C163 C 0.08150 0.42596 1.06972
 C164 C -0.05603 0.58341 1.07938
 C165 C -0.05462 0.41244 0.93692
 C166 C 0.07482 0.58186 0.94231
 C167 C 1.07905 -0.01100 0.52535
 H168 H 1.09152 0.00775 0.50832
 C169 C 1.09906 -0.03099 0.54717
 H170 H 1.12684 -0.02802 0.54588
 C171 C 1.02775 -0.03739 0.54768
 H172 H 0.99987 -0.03927 0.54801
 C173 C 1.04668 -0.05791 0.56983
 H174 H 1.03306 -0.07557 0.58714
 N175 N 1.04406 -0.01460 0.52598
 C176 C 1.03849 0.08394 0.47520
 H177 H 1.02148 0.09679 0.49466
 C178 C 1.05592 0.10660 0.45264
 H179 H 1.05276 0.13684 0.45576
 C180 C 1.06274 0.02894 0.44723
 H181 H 1.06465 -0.00149 0.44491
 C182 C 1.08075 0.05050 0.42427
 H183 H 1.09661 0.03638 0.40434
 Zn184 Zn 1.01558 0.01398 0.49919
 N185 N 1.04209 0.04584 0.47203
 C186 C 1.00384 0.06600 0.55607
 N187 N 0.98753 0.04273 0.53097
 C188 C 0.95259 0.03833 0.53035
 C189 C 0.93263 0.05813 0.55550
 C190 C 0.98491 0.08632 0.58172
 C191 C 0.99091 -0.05635 0.46541
 C192 C 0.97141 -0.07916 0.44084
 C193 C 0.94680 -0.02291 0.42161
 C194 C 0.96688 -0.00122 0.44636
 N195 N 0.98818 -0.01814 0.46781
 H196 H 1.03171 0.06823 0.55645
 H197 H 0.94011 0.01892 0.51081
 H198 H 0.90486 0.05410 0.55464
 H199 H 0.99869 0.10373 0.60191
 H200 H 1.00847 -0.06923 0.48224
 H201 H 0.97364 -0.10951 0.43973
 H202 H 0.93011 -0.00882 0.40471
 H203 H 0.96566 0.02927 0.44844
 C204 C 1.07702 0.08982 0.42638
 C205 C 1.08285 -0.05459 0.57011
 C206 C 0.94910 -0.06242 0.41838
 C207 C 0.94872 0.08258 0.58167
 C208 C 0.14204 0.34985 1.12051
 C209 C 0.11080 0.36230 1.13479
 N210 N 0.09950 0.34930 1.16494
 C211 C 0.11791 0.32418 1.18144
 C212 C 0.14925 0.31103 1.16697
 N213 N 0.16035 0.32464 1.13677
 N214 N 0.15336 0.36267 1.09030
 C215 C 0.13479 0.38747 1.07364
 C216 C 0.10324 0.40006 1.08775
 N217 N 0.09208 0.38689 1.11809
 H218 H 0.10775 0.31464 1.20530
 H219 H 0.14426 0.39638 1.04920
 C220 C -0.11329 0.66597 1.13871
 C221 C -0.12542 0.64968 1.10647
 N222 N -0.15553 0.66106 1.09362
 C223 C -0.17405 0.68827 1.11142
 C224 C -0.16178 0.70535 1.14377
 N225 N -0.13157 0.69329 1.15645
 N226 N -0.08309 0.65471 1.15151
 C227 C -0.06437 0.62785 1.13345
 C228 C -0.07630 0.61149 1.10086
 N229 N -0.10668 0.62306 1.08828
 H230 H -0.19779 0.69635 1.10000
 H231 H -0.04004 0.62027 1.14411
 C232 C -0.11279 0.33008 0.87328
 C233 C -0.12552 0.34497 0.90539
 N234 N -0.15660 0.33239 0.91655
 C235 C -0.17551 0.30533 0.89716
 C236 C -0.16271 0.28981 0.86486
 N237 N -0.13154 0.30307 0.85391
 N238 N -0.08174 0.34263 0.86204
 C239 C -0.06259 0.36921 0.88167
 C240 C -0.07496 0.38395 0.91428
 N241 N -0.10644 0.37150 0.92509
 H242 H -0.20005 0.29628 0.90721
 H243 H -0.03821 0.37895 0.87161
 C244 C 0.13019 0.65764 0.88210
 C245 C 0.09870 0.64084 0.87041
 N246 N 0.08541 0.64932 0.83963
 C247 C 0.10205 0.67413 0.82000
 C248 C 0.13371 0.69156 0.83170
 N249 N 0.14687 0.68240 0.86259
 N250 N 0.14347 0.64920 0.91291
 C251 C 0.12649 0.62489 0.93279
 C252 C 0.09458 0.60818 0.92139
 N253 N 0.08171 0.61654 0.89017
 H254 H 0.09040 0.67986 0.79570
 H255 H 0.13811 0.61839 0.95695
 C256 C 1.12563 0.15140 0.34962
 C257 C 1.14027 0.11891 0.36056
 N258 N 1.16984 0.10625 0.34564
 C259 C 1.18539 0.12438 0.31996
 C260 C 1.17047 0.15679 0.30820
 N261 N 1.14090 0.16939 0.32379
 N262 N 1.09596 0.16399 0.36446
 C263 C 1.08014 0.14543 0.38972
 C264 C 1.09450 0.11245 0.40059
 N265 N 1.12437 0.10013 0.38554
 H266 H 1.20881 0.11303 0.30889
 H267 H 1.05607 0.15576 0.40031
 C268 C 1.13706 -0.11308 0.64333
 C269 C 1.10502 -0.12668 0.63010
 N270 N 1.09041 -0.15835 0.64170
 C271 C 1.10619 -0.17694 0.66631
 C272 C 1.13825 -0.16307 0.68040
 N273 N 1.15283 -0.13142 0.66806
 N274 N 1.15152 -0.08119 0.63187
 C275 C 1.13525 -0.06215 0.60784
 C276 C 1.10279 -0.07548 0.59468
 N277 N 1.08865 -0.10762 0.60633
 H278 H 1.09342 -0.20198 0.67463
 H279 H 1.14717 -0.03633 0.60005
 C280 C 0.88984 -0.12543 0.33965
 C281 C 0.87817 -0.09142 0.35592
 N282 N 0.84784 -0.07787 0.34584
 C283 C 0.82864 -0.09659 0.31993
 C284 C 0.84044 -0.13061 0.30284
 N285 N 0.87088 -0.14407 0.31359
 N286 N 0.92027 -0.13890 0.34972
 C287 C 0.93965 -0.11979 0.37533
 C288 C 0.92820 -0.08535 0.39156
 N289 N 0.89757 -0.07216 0.38124
 H290 H 0.80475 -0.08450 0.31290
 H291 H 0.96412 -0.13094 0.38214
 C292 C 0.88881 0.13625 0.66261
 C293 C 0.87693 0.10286 0.64384
 N294 N 0.84620 0.08686 0.65219
 C295 C 0.82682 0.10255 0.67872
 C296 C 0.83882 0.13595 0.69822
 N297 N 0.86964 0.15188 0.68921
 N298 N 0.91949 0.15234 0.65419
 C299 C 0.93912 0.13624 0.62806
 C300 C 0.92768 0.10218 0.60950
 N301 N 0.89653 0.08664 0.61786
 H302 H 0.80261 0.08865 0.68435
 H303 H 0.96317 0.15020 0.62180
 C304 C 0.34549 1.11382 0.13902
 C305 C 0.35646 1.12731 0.10768
 N306 N 0.34280 1.15909 0.09714
 C307 C 0.31837 1.17791 0.11639
 C308 C 0.30677 1.16417 0.14770
 N309 N 0.32097 1.13240 0.15817
 N310 N 0.35902 1.08192 0.14947
 C311 C 0.38305 1.06278 0.12993
 C312 C 0.39405 1.07603 0.09824
 N313 N 0.38026 1.10813 0.08803
 H314 H 0.30817 1.20305 0.10702
 H315 H 0.39261 1.03697 0.13870
 C316 C 0.64339 1.12358 -0.11235
 C317 C 0.63012 1.08906 -0.12796
 N318 N 0.64319 1.07469 -0.15877
 C319 C 0.66917 1.09312 -0.17462
 C320 C 0.68306 1.12759 -0.15880
 N321 N 0.66948 1.14190 -0.12798
 N322 N 0.63052 1.13780 -0.08140
 C323 C 0.60501 1.11899 -0.06522
 C324 C 0.59174 1.08405 -0.08059
 N325 N 0.60485 1.07009 -0.11174
 H326 H 0.67894 1.08055 -0.19900
 H327 H 0.59609 1.13075 -0.04014
 C328 C 0.33184 0.84993 -0.12657
 C329 C 0.34607 0.88370 -0.13731
 N330 N 0.33320 0.89797 -0.16596
 C331 C 0.30652 0.88015 -0.18427
 C332 C 0.29174 0.84643 -0.17331
 N333 N 0.30512 0.83223 -0.14466
 N334 N 0.34463 0.83562 -0.09794
 C335 C 0.37076 0.85386 -0.07917
 C336 C 0.38470 0.88831 -0.08932
 N337 N 0.37206 0.90207 -0.11852
 H338 H 0.29686 0.89263 -0.20672
 H339 H 0.38056 0.84136 -0.05673
 C340 C 0.64794 0.86151 0.10926
 C341 C 0.63549 0.89619 0.12320
 N342 N 0.64891 0.91283 0.15341
 C343 C 0.67445 0.89649 0.17032
 C344 C 0.68750 0.86181 0.15626
 N345 N 0.67361 0.84522 0.12596
 N346 N 0.63458 0.84502 0.07891
 C347 C 0.60934 0.86171 0.06180
 C348 C 0.59690 0.89676 0.07555
 N349 N 0.61051 0.91300 0.10606
 H350 H 0.68449 0.91086 0.19417
 H351 H 0.59988 0.84815 0.03729
   
