data_POSCAR
  _audit_creation_date              2014-09-24
  _audit_creation_method            'ToBaCCo'
  _symmetry_space_group_name_H-M    'P1'
  _symmetry_Int_Tables_number       1
  _symmetry_cell_setting            triclinic
  loop_
  _symmetry_equiv_pos_as_xyz
 x,y,z
_cell_length_a 50.4461
_cell_length_b 50.1271
_cell_length_c 48.8460
_cell_angle_alpha 90.303000
_cell_angle_beta 90.118700
_cell_angle_gamma 89.866200
loop_
  _atom_site_label
  _atom_site_type_symbol
  _atom_site_fract_x
  _atom_site_fract_y
  _atom_site_fract_z
C1 C 0.15578 0.17359 0.19315
 C2 C 0.15700 0.19240 0.17203
 C3 C 0.17731 0.19118 0.15312
 C4 C 0.19677 0.17129 0.15519
 C5 C 0.19556 0.15282 0.17594
 C6 C 0.17486 0.15396 0.19507
 C7 C 0.13858 0.17019 0.21461
 N8 N 0.14655 0.14881 0.22984
 C9 C 0.16892 0.13891 0.21768
 C10 C 0.21729 0.13641 0.17322
 N11 N 0.23197 0.14441 0.15126
 C12 C 0.21917 0.16587 0.14022
 C13 C 0.17390 0.21215 0.13540
 N14 N 0.15205 0.22615 0.14317
 C15 C 0.14160 0.21417 0.16559
 H16 H 0.12149 0.18269 0.21835
 H17 H 0.18065 0.12219 0.22457
 H18 H 0.22198 0.12026 0.18698
 H19 H 0.22524 0.17707 0.12249
 H20 H 0.18679 0.21723 0.11853
 H21 H 0.12407 0.22078 0.17644
 C22 C -0.16482 0.81813 0.19706
 C23 C -0.16410 0.79730 0.17765
 C24 C -0.18393 0.79537 0.15811
 C25 C -0.20451 0.81416 0.15751
 C26 C -0.20513 0.83450 0.17648
 C27 C -0.18517 0.83652 0.19635
 C28 C -0.14884 0.82492 0.21892
 N29 N -0.15897 0.84709 0.23166
 C30 C -0.18131 0.85410 0.21757
 C31 C -0.22741 0.84946 0.17132
 N32 N -0.24064 0.83877 0.14944
 C33 C -0.22642 0.81702 0.14100
 C34 C -0.17870 0.77326 0.14234
 N35 N -0.15615 0.76155 0.15169
 C36 C -0.14701 0.77618 0.17327
 H37 H -0.13115 0.81415 0.22474
 H38 H -0.19455 0.87042 0.22230
 H39 H -0.23297 0.86706 0.18280
 H40 H -0.23148 0.80362 0.12442
 H41 H -0.19039 0.76635 0.12511
 H42 H -0.12949 0.77157 0.18519
 C43 C -0.16134 0.17960 -0.19315
 C44 C -0.15996 0.19902 -0.17230
 C45 C -0.17835 0.19885 -0.15132
 C46 C -0.19840 0.17955 -0.15095
 C47 C -0.19974 0.16061 -0.17139
 C48 C -0.18109 0.16064 -0.19264
 C49 C -0.14635 0.17468 -0.21619
 N50 N -0.15647 0.15310 -0.22990
 C51 C -0.17786 0.14460 -0.21525
 C52 C -0.22130 0.14477 -0.16600
 N53 N -0.23342 0.15357 -0.14262
 C54 C -0.21916 0.17498 -0.13342
 C55 C -0.17253 0.21982 -0.13413
 N56 N -0.15105 0.23287 -0.14407
 C57 C -0.14325 0.22028 -0.16749
 H58 H -0.12951 0.18650 -0.22230
 H59 H -0.19037 0.12775 -0.22003
 H60 H -0.22753 0.12832 -0.17881
 H61 H -0.22315 0.18678 -0.11533
 H62 H -0.18351 0.22547 -0.11598
 H63 H -0.12656 0.22603 -0.18001
 C64 C 0.15749 0.82782 -0.19214
 C65 C 0.15670 0.80710 -0.17301
 C66 C 0.17633 0.80499 -0.15335
 C67 C 0.19692 0.82376 -0.15245
 C68 C 0.19762 0.84413 -0.17127
 C69 C 0.17774 0.84618 -0.19128
 C70 C 0.14151 0.83430 -0.21393
 N71 N 0.15148 0.85630 -0.22669
 C72 C 0.17377 0.86357 -0.21257
 C73 C 0.21987 0.85900 -0.16586
 N74 N 0.23303 0.84831 -0.14402
 C75 C 0.21880 0.82660 -0.13584
 C76 C 0.17087 0.78266 -0.13809
 N77 N 0.14836 0.77122 -0.14801
 C78 C 0.13958 0.78611 -0.16937
 H79 H 0.12392 0.82337 -0.21966
 H80 H 0.18684 0.87992 -0.21735
 H81 H 0.22547 0.87655 -0.17718
 H82 H 0.22382 0.81321 -0.11936
 H83 H 0.18240 0.77535 -0.12098
 H84 H 0.12234 0.78169 -0.18180
 C85 C 0.18294 1.16046 0.79852
 C86 C 0.20372 1.15893 0.81763
 C87 C 0.20613 1.17824 0.83785
 C88 C 0.18769 1.19923 0.83934
 C89 C 0.16739 1.20062 0.82051
 C90 C 0.16501 1.18116 0.80000
 C91 C 0.17576 1.14488 0.77644
 N92 N 0.15378 1.15562 0.76425
 C93 C 0.14727 1.17794 0.77893
 C94 C 0.15269 1.22292 0.82650
 N95 N 0.16338 1.23552 0.84876
 C96 C 0.18495 1.22084 0.85665
 C97 C 0.22817 1.17191 0.85317
 N98 N 0.23918 1.14923 0.84281
 C99 C 0.22429 1.14116 0.82107
 H100 H 0.18640 1.12727 0.76985
 H101 H 0.13075 1.19115 0.77515
 H102 H 0.13513 1.22886 0.81539
 H103 H 0.19824 1.22542 0.87339
 H104 H 0.23548 1.18292 0.87074
 H105 H 0.22835 1.12389 0.80836
 C106 C 0.82325 0.84112 0.80969
 C107 C 0.80324 0.84197 0.82955
 C108 C 0.80198 0.82244 0.84942
 C109 C 0.82096 0.80187 0.84976
 C110 C 0.84062 0.80116 0.83021
 C111 C 0.84177 0.82092 0.81004
 C112 C 0.82893 0.85707 0.78766
 N113 N 0.85061 0.84712 0.77428
 C114 C 0.85845 0.82487 0.78823
 C115 C 0.85599 0.77907 0.83524
 N116 N 0.84634 0.76597 0.85756
 C117 C 0.82475 0.78011 0.86643
 C118 C 0.78027 0.82813 0.86552
 N119 N 0.76843 0.85066 0.85595
 C120 C 0.78242 0.85920 0.83393
 H121 H 0.81768 0.87460 0.78219
 H122 H 0.87482 0.81187 0.78309
 H123 H 0.87316 0.77355 0.82331
 H124 H 0.81215 0.77514 0.88350
 H125 H 0.77370 0.81678 0.88303
 H126 H 0.77753 0.87641 0.82160
 C127 C 0.17203 0.84952 1.19006
 C128 C 0.19130 0.84864 1.16939
 C129 C 0.19025 0.82899 1.14942
 C130 C 0.17000 0.80987 1.14994
 C131 C 0.15101 0.81089 1.17027
 C132 C 0.15211 0.83079 1.19046
 C133 C 0.16849 0.86577 1.21254
 N134 N 0.14682 0.85738 1.22687
 C135 C 0.13681 0.83585 1.21309
 C136 C 0.13431 0.78960 1.16632
 N137 N 0.14275 0.77554 1.14414
 C138 C 0.16460 0.78782 1.13398
 C139 C 0.21163 0.83270 1.13242
 N140 N 0.22566 0.85409 1.14161
 C141 C 0.21333 0.86392 1.16426
 H142 H 0.18146 0.88207 1.21801
 H143 H 0.11960 0.82433 1.21865
 H144 H 0.11773 0.78426 1.17920
 H145 H 0.17585 0.78113 1.11637
 H146 H 0.21686 0.82038 1.11498
 H147 H 0.21981 0.88104 1.17607
 C148 C 0.82728 1.15884 1.18950
 C149 C 0.80792 1.15722 1.16883
 C150 C 0.80770 1.17569 1.14790
 C151 C 0.82661 1.19612 1.14740
 C152 C 0.84552 1.19779 1.16784
 C153 C 0.84589 1.17892 1.18896
 C154 C 0.83235 1.14376 1.21239
 N155 N 0.85376 1.15406 1.22601
 C156 C 0.86195 1.17575 1.21146
 C157 C 0.86084 1.21983 1.16248
 N158 N 0.85169 1.23157 1.13926
 C159 C 0.83076 1.21711 1.12990
 C160 C 0.78673 1.16959 1.13100
 N161 N 0.77407 1.14789 1.14115
 C162 C 0.78691 1.14021 1.16434
 H163 H 0.82103 1.12643 1.21815
 H164 H 0.87826 1.18879 1.21653
 H165 H 0.87750 1.22672 1.17458
 H166 H 0.81899 1.22182 1.11201
 H167 H 0.78076 1.18057 1.11298
 H168 H 0.78145 1.12343 1.17698
 N169 N 0.47028 0.95384 0.97363
 N170 N 0.44893 0.93899 0.97039
 N171 N 0.52746 0.96862 0.95575
 N172 N 0.54842 0.96424 0.94017
 N173 N 0.52597 0.95060 0.97509
 N174 N 0.54584 0.93354 0.97323
 N175 N 0.47169 0.97193 0.95434
 N176 N 0.45133 0.96985 0.93746
 C177 C 0.43732 0.94915 0.94769
 C178 C 0.55965 0.94221 0.95129
 N179 N 0.53130 1.04483 0.97374
 N180 N 0.55267 1.05969 0.97089
 N181 N 0.47486 1.02936 0.95355
 N182 N 0.45460 1.03318 0.93682
 N183 N 0.47562 1.04815 0.97237
 N184 N 0.45593 1.06517 0.96900
 N185 N 0.53062 1.02602 0.95494
 N186 N 0.55151 1.02758 0.93881
 Mn187 Mn 0.50116 0.99897 0.95427
 C188 C 0.56508 1.04873 0.94898
 C189 C 0.44300 1.05567 0.94669
 N190 N 0.52473 0.95181 1.03394
 N191 N 0.54483 0.93522 1.03723
 N192 N 0.46960 0.97391 1.05120
 N193 N 0.44879 0.97226 1.06743
 N194 N 0.46902 0.95499 1.03254
 N195 N 0.44782 0.93991 1.03559
 N196 N 0.52526 0.97067 1.05267
 N197 N 0.54571 0.96745 1.06919
 Mn198 Mn 0.49748 0.95248 1.00379
 C199 C 0.55768 0.94518 1.05940
 C200 C 0.43538 0.95093 1.05746
 N201 N 0.47431 1.04929 1.03122
 N202 N 0.45398 1.06586 1.03280
 N203 N 0.52858 1.02787 1.05191
 N204 N 0.54898 1.02974 1.06877
 N205 N 0.53008 1.04600 1.03269
 N206 N 0.55151 1.06075 1.03601
 N207 N 0.47286 1.03113 1.05041
 N208 N 0.45153 1.03483 1.06555
 Mn209 Mn 0.50287 1.04741 1.00250
 Mn210 Mn 0.49906 1.00091 1.05188
 Cl211 Cl 0.50014 0.99994 1.00309
 C212 C 0.44001 1.05667 1.05444
 C213 C 0.56309 1.05041 1.05866
 N214 N 0.05283 0.47030 -0.03027
 N215 N 0.06817 0.44919 -0.03360
 N216 N 0.03636 0.52748 -0.04848
 N217 N 0.03986 0.54855 -0.06419
 N218 N 0.05481 0.52633 -0.02954
 N219 N 0.07128 0.54659 -0.03176
 N220 N 0.03461 0.47128 -0.04946
 N221 N 0.03704 0.45078 -0.06637
 C222 C 0.05812 0.43720 -0.05623
 C223 C 0.06180 0.56024 -0.05352
 N224 N -0.03936 0.52947 -0.02963
 N225 N -0.05500 0.55042 -0.03243
 N226 N -0.02234 0.47319 -0.04952
 N227 N -0.02554 0.45280 -0.06636
 N228 N -0.04071 0.47326 -0.03051
 N229 N -0.05698 0.45288 -0.03402
 N230 N -0.02089 0.52933 -0.04854
 N231 N -0.02354 0.55016 -0.06477
 Mn232 Mn 0.00693 0.50038 -0.04936
 C233 C -0.04496 0.56314 -0.05448
 C234 C -0.04727 0.44032 -0.05655
 N235 N 0.05489 0.52594 0.02908
 N236 N 0.07102 0.54648 0.03133
 N237 N 0.03459 0.47076 0.04773
 N238 N 0.03661 0.45000 0.06407
 N239 N 0.05290 0.46987 0.02870
 N240 N 0.06799 0.44850 0.03167
 N241 N 0.03650 0.52692 0.04803
 N242 N 0.03970 0.54820 0.06376
 Mn243 Mn 0.05417 0.49803 -0.00051
 C244 C 0.06144 0.56013 0.05313
 C245 C 0.05757 0.43632 0.05389
 N246 N -0.04062 0.47294 0.02871
 N247 N -0.05685 0.45251 0.03163
 N248 N -0.02060 0.52866 0.04812
 N249 N -0.02301 0.54913 0.06501
 N250 N -0.03920 0.52920 0.02929
 N251 N -0.05473 0.55020 0.03283
 N252 N -0.02220 0.47262 0.04773
 N253 N -0.02532 0.45198 0.06401
 Mn254 Mn -0.04035 0.50118 -0.00054
 Mn255 Mn 0.00708 0.49979 0.04823
 Cl256 Cl 0.00693 0.49984 -0.00056
 C257 C -0.04706 0.43963 0.05382
 C258 C -0.04439 0.56242 0.05526
 N259 N 0.96511 -0.04602 0.53143
 N260 N 0.96180 -0.06099 0.55330
 N261 N 0.94723 -0.02946 0.47291
 N262 N 0.93188 -0.03258 0.45115
 N263 N 0.96511 -0.04851 0.47395
 N264 N 0.96243 -0.06503 0.45307
 N265 N 0.94727 -0.02694 0.53067
 N266 N 0.93133 -0.02841 0.55201
 C267 C 0.94060 -0.04981 0.56592
 C268 C 0.94158 -0.05498 0.43905
 N269 N 0.96796 0.04590 0.47008
 N270 N 0.96531 0.06114 0.44825
 N271 N 0.94916 0.03052 0.52851
 N272 N 0.93365 0.03483 0.54985
 N273 N 0.96822 0.04830 0.52773
 N274 N 0.96619 0.06515 0.54846
 N275 N 0.94902 0.02800 0.47087
 N276 N 0.93302 0.03055 0.44965
 Mn277 Mn 0.94780 0.00055 0.50073
 C278 C 0.94336 0.05134 0.43571
 C279 C 0.94448 0.05659 0.56207
 N280 N 1.02200 -0.05048 0.47385
 N281 N 1.02385 -0.06678 0.45261
 N282 N 1.04107 -0.03027 0.53079
 N283 N 1.05675 -0.03275 0.55231
 N284 N 1.02204 -0.04805 0.53146
 N285 N 1.02423 -0.06311 0.55341
 N286 N 1.04091 -0.03256 0.47321
 N287 N 1.05611 -0.03615 0.45157
 Mn288 Mn 0.99355 -0.04858 0.50270
 C289 C 1.04534 -0.05765 0.43897
 C290 C 1.04602 -0.05340 0.56620
 N291 N 1.02535 0.04619 0.52791
 N292 N 1.02881 0.06246 0.54902
 N293 N 1.04282 0.02464 0.47095
 N294 N 1.05891 0.02612 0.44976
 N295 N 1.02511 0.04384 0.47018
 N296 N 1.02868 0.05892 0.44842
 N297 N 1.04297 0.02689 0.52841
 N298 N 1.05879 0.02941 0.54973
 Mn299 Mn 0.99666 0.04644 0.49896
 Mn300 Mn 1.04224 -0.00283 0.50083
 Cl301 Cl 0.99504 -0.00108 0.50080
 C302 C 1.04986 0.05172 0.56238
 C303 C 1.04989 0.04764 0.43589
 C304 C 1.11221 0.15225 0.26465
 C305 C 1.10009 0.14256 0.28828
 C306 C 1.10947 0.11947 0.30107
 C307 C 1.13171 0.10643 0.28998
 C308 C 1.14392 0.11607 0.26637
 C309 C 1.13446 0.13923 0.25307
 C310 C 1.09615 0.11030 0.32639
 C311 C 1.09736 0.08513 0.33553
 C312 C 1.08455 0.07608 0.36117
 C313 C 1.09440 0.05307 0.37394
 C314 C 1.08315 0.04385 0.39821
 C315 C 1.06161 0.05734 0.41011
 C316 C 1.05134 0.08005 0.39712
 C317 C 1.06263 0.08933 0.37285
 H318 H 1.10393 0.17017 0.25596
 H319 H 1.08315 0.15318 0.29656
 H320 H 1.14020 0.08906 0.29969
 H321 H 1.16080 0.10501 0.25890
 H322 H 1.08483 0.12506 0.33763
 H323 H 1.10865 0.07037 0.32426
 H324 H 1.11107 0.04233 0.36525
 H325 H 1.09135 0.02615 0.40766
 H326 H 1.03453 0.09064 0.40569
 H327 H 1.05379 0.10656 0.36320
 C328 C 0.83924 -0.11654 0.26484
 C329 C 0.84893 -0.10401 0.28840
 C330 C 0.87080 -0.11436 0.30245
 C331 C 0.88273 -0.13787 0.29255
 C332 C 0.87306 -0.15054 0.26898
 C333 C 0.85098 -0.14023 0.25458
 C334 C 0.87973 -0.10063 0.32782
 C335 C 0.90433 -0.10283 0.33805
 C336 C 0.91313 -0.08982 0.36387
 C337 C 0.93523 -0.10047 0.37745
 C338 C 0.94431 -0.08916 0.40188
 C339 C 0.93162 -0.06672 0.41320
 C340 C 0.90978 -0.05565 0.39947
 C341 C 0.90061 -0.06704 0.37499
 H342 H 0.82255 -0.10718 0.25495
 H343 H 0.83927 -0.08598 0.29563
 H344 H 0.89912 -0.14706 0.30327
 H345 H 0.88288 -0.16869 0.26267
 H346 H 0.86532 -0.08818 0.33817
 H347 H 0.91872 -0.11521 0.32758
 H348 H 0.94540 -0.11781 0.36926
 H349 H 0.96135 -0.09801 0.41187
 H350 H 0.89984 -0.03816 0.40759
 H351 H 0.88406 -0.05764 0.36474
 C352 C 0.83923 0.12099 0.73280
 C353 C 0.84886 0.10956 0.70865
 C354 C 0.87257 0.11834 0.69695
 C355 C 0.88630 0.13939 0.70975
 C356 C 0.87670 0.15095 0.73394
 C357 C 0.85297 0.14193 0.74616
 C358 C 0.88166 0.10545 0.67114
 C359 C 0.90673 0.10624 0.66201
 C360 C 0.91559 0.09315 0.63624
 C361 C 0.93855 0.10266 0.62343
 C362 C 0.94782 0.09087 0.59928
 C363 C 0.93445 0.06908 0.58753
 C364 C 0.91170 0.05923 0.60048
 C365 C 0.90236 0.07108 0.62463
 H366 H 0.82076 0.11327 0.74045
 H367 H 0.83768 0.09358 0.69908
 H368 H 0.90425 0.14740 0.70104
 H369 H 0.88830 0.16683 0.74286
 H370 H 0.86690 0.09460 0.65950
 H371 H 0.92155 0.11718 0.67344
 H372 H 0.94928 0.11943 0.63204
 H373 H 0.96554 0.09879 0.58986
 H374 H 0.90118 0.04226 0.59204
 H375 H 0.88514 0.06249 0.63431
 C376 C 1.15266 -0.10794 0.73978
 C377 C 1.14250 -0.09589 0.71624
 C378 C 1.12052 -0.10665 0.70262
 C379 C 1.10910 -0.13012 0.71278
 C380 C 1.11920 -0.14226 0.73626
 C381 C 1.14128 -0.13151 0.75036
 C382 C 1.11086 -0.09359 0.67732
 C383 C 1.08590 -0.09599 0.66809
 C384 C 1.07622 -0.08422 0.64212
 C385 C 1.05335 -0.09506 0.63005
 C386 C 1.04357 -0.08503 0.60540
 C387 C 1.05636 -0.06376 0.59237
 C388 C 1.07893 -0.05248 0.60462
 C389 C 1.08876 -0.06254 0.62930
 H390 H 1.16941 -0.09838 0.74943
 H391 H 1.15181 -0.07791 0.70871
 H392 H 1.09276 -0.13969 0.70230
 H393 H 1.10967 -0.16040 0.74270
 H394 H 1.12500 -0.08170 0.66616
 H395 H 1.07184 -0.10771 0.67958
 H396 H 1.04317 -0.11158 0.63957
 H397 H 1.02600 -0.09399 0.59653
 H398 H 1.08896 -0.03583 0.59517
 H399 H 1.10588 -0.05298 0.63832
 C400 C 0.26573 1.10975 1.15407
 C401 C 0.28962 1.09868 1.14502
 C402 C 0.30391 1.11045 1.12373
 C403 C 0.29401 1.13393 1.11191
 C404 C 0.27015 1.14509 1.12090
 C405 C 0.25539 1.13327 1.14222
 C406 C 0.32939 1.09817 1.11520
 C407 C 0.34030 1.10178 1.09045
 C408 C 0.36592 1.08979 1.08191
 C409 C 0.37962 1.10129 1.05995
 C410 C 0.40378 1.09065 1.05108
 C411 C 0.41465 1.06815 1.06392
 C412 C 0.40084 1.05637 1.08564
 C413 C 0.37668 1.06697 1.09450
 H414 H 0.25556 1.09940 1.17025
 H415 H 0.29689 1.08064 1.15462
 H416 H 0.30487 1.14426 1.09614
 H417 H 0.26391 1.16333 1.11120
 H418 H 0.33917 1.08556 1.13001
 H419 H 0.33040 1.11435 1.07566
 H420 H 0.37168 1.11869 1.04971
 H421 H 0.41390 1.10002 1.03414
 H422 H 0.40859 1.03877 1.09566
 H423 H 0.36641 1.05685 1.11081
 C424 C 0.26665 0.84646 0.89175
 C425 C 0.29015 0.85603 0.90334
 C426 C 0.30396 0.87714 0.89134
 C427 C 0.29405 0.88819 0.86701
 C428 C 0.27057 0.87870 0.85534
 C429 C 0.25622 0.85764 0.86746
 C430 C 0.32896 0.88637 0.90429
 C431 C 0.33915 0.91081 0.90058
 C432 C 0.36431 0.92003 0.91321
 C433 C 0.37763 0.94158 0.90126
 C434 C 0.40138 0.95103 0.91239
 C435 C 0.41221 0.93921 0.93589
 C436 C 0.39874 0.91794 0.94818
 C437 C 0.37498 0.90848 0.93705
 H438 H 0.25678 0.83050 0.90235
 H439 H 0.29746 0.84700 0.92201
 H440 H 0.30460 0.90379 0.85644
 H441 H 0.26429 0.88783 0.83645
 H442 H 0.33900 0.87237 0.91754
 H443 H 0.32900 0.92478 0.88738
 H444 H 0.36974 0.95103 0.88307
 H445 H 0.41126 0.96758 0.90259
 H446 H 0.40647 0.90867 0.96652
 H447 H 0.36494 0.89249 0.94752
 C448 C 0.72572 0.83706 1.11370
 C449 C 0.70227 0.84682 1.10219
 C450 C 0.68858 0.86805 1.11442
 C451 C 0.69841 0.87892 1.13896
 C452 C 0.72181 0.86924 1.15056
 C453 C 0.73615 0.84816 1.13812
 C454 C 0.66380 0.87777 1.10153
 C455 C 0.65473 0.90276 1.10485
 C456 C 0.62975 0.91283 1.09264
 C457 C 0.61807 0.93568 1.10419
 C458 C 0.59458 0.94609 1.09347
 C459 C 0.58235 0.93393 1.07081
 C460 C 0.59412 0.91127 1.05894
 C461 C 0.61764 0.90082 1.06967
 H462 H 0.73557 0.82106 1.10290
 H463 H 0.69496 0.83793 1.08337
 H464 H 0.68783 0.89457 1.14971
 H465 H 0.72805 0.87825 1.16960
 H466 H 0.65311 0.86380 1.08871
 H467 H 0.66578 0.91663 1.11747
 H468 H 0.62707 0.94546 1.12171
 H469 H 0.58604 0.96371 1.10291
 H470 H 0.58526 0.90171 1.04123
 H471 H 0.62639 0.88374 1.05954
 C472 C 0.73249 1.15507 0.89258
 C473 C 0.70949 1.14467 0.90425
 C474 C 0.69737 1.12190 0.89328
 C475 C 0.70859 1.10984 0.87000
 C476 C 0.73159 1.12019 0.85822
 C477 C 0.74411 1.14312 0.86919
 C478 C 0.67258 1.11214 0.90609
 C479 C 0.66349 1.08713 0.90329
 C480 C 0.63839 1.07769 0.91569
 C481 C 0.62573 1.05543 0.90407
 C482 C 0.60192 1.04598 0.91488
 C483 C 0.59039 1.05850 0.93771
 C484 C 0.60328 1.08042 0.94976
 C485 C 0.62708 1.08989 0.93895
 H486 H 0.74066 1.17269 0.90208
 H487 H 0.70113 1.15452 0.92206
 H488 H 0.69947 1.09273 0.86030
 H489 H 0.73918 1.10990 0.84044
 H490 H 0.66162 1.12637 0.91837
 H491 H 0.67439 1.07288 0.89097
 H492 H 0.63414 1.04548 0.88635
 H493 H 0.59252 1.02891 0.90530
 H494 H 0.59500 1.09024 0.96761
 H495 H 0.63664 1.10645 0.94919
 C496 C 0.14535 0.25396 0.10211
 C497 C 0.13603 0.27726 0.08976
 C498 C 0.12331 0.29711 0.10533
 C499 C 0.12051 0.29330 0.13373
 C500 C 0.12968 0.26993 0.14602
 C501 C 0.14220 0.25001 0.13036
 C502 C 0.11410 0.32169 0.09137
 C503 C 0.09558 0.33809 0.10178
 C504 C 0.08624 0.36290 0.08833
 C505 C 0.06290 0.37489 0.09807
 C506 C 0.05357 0.39866 0.08679
 C507 C 0.06742 0.41102 0.06546
 C508 C 0.09074 0.39913 0.05556
 C509 C 0.10020 0.37539 0.06697
 H510 H 0.15478 0.23889 0.08950
 H511 H 0.13865 0.27974 0.06791
 H512 H 0.11182 0.30845 0.14676
 H513 H 0.12755 0.26771 0.16793
 H514 H 0.12227 0.32558 0.07135
 H515 H 0.08590 0.33283 0.12073
 H516 H 0.05181 0.36586 0.11457
 H517 H 0.03549 0.40736 0.09481
 H518 H 0.10189 0.40837 0.03924
 H519 H 0.11864 0.36737 0.05926
 C520 C -0.14001 0.26035 -0.10349
 C521 C -0.12931 0.28341 -0.09174
 C522 C -0.11738 0.30294 -0.10807
 C523 C -0.11651 0.29887 -0.13664
 C524 C -0.12711 0.27569 -0.14838
 C525 C -0.13912 0.25625 -0.13196
 C526 C -0.10708 0.32745 -0.09451
 C527 C -0.08986 0.34430 -0.10616
 C528 C -0.07944 0.36870 -0.09251
 C529 C -0.05625 0.38027 -0.10287
 C530 C -0.04583 0.40346 -0.09112
 C531 C -0.05845 0.41573 -0.06875
 C532 C -0.08174 0.40436 -0.05838
 C533 C -0.09224 0.38116 -0.07019
 H534 H -0.14886 0.24562 -0.09025
 H535 H -0.13037 0.28599 -0.06974
 H536 H -0.10832 0.31369 -0.15018
 H537 H -0.12659 0.27332 -0.17041
 H538 H -0.11326 0.33096 -0.07361
 H539 H -0.08194 0.33964 -0.12618
 H540 H -0.04606 0.37128 -0.12012
 H541 H -0.02784 0.41176 -0.09959
 H542 H -0.09198 0.41354 -0.04127
 H543 H -0.11059 0.37348 -0.06204
 C544 C 0.10865 0.74357 -0.14004
 C545 C 0.09689 0.72010 -0.13073
 C546 C 0.11234 0.69972 -0.11918
 C547 C 0.14001 0.70320 -0.11751
 C548 C 0.15173 0.72675 -0.12669
 C549 C 0.13620 0.74718 -0.13807
 C550 C 0.09894 0.67499 -0.11000
 C551 C 0.10971 0.65778 -0.09217
 C552 C 0.09650 0.63303 -0.08276
 C553 C 0.10619 0.62062 -0.05906
 C554 C 0.09488 0.59703 -0.04958
 C555 C 0.07361 0.58523 -0.06368
 C556 C 0.06387 0.59747 -0.08745
 C557 C 0.07528 0.62105 -0.09703
 H558 H 0.09614 0.75903 -0.14852
 H559 H 0.07559 0.71792 -0.13245
 H560 H 0.15284 0.68768 -0.10974
 H561 H 0.17306 0.72870 -0.12548
 H562 H 0.07901 0.67168 -0.11743
 H563 H 0.12869 0.66236 -0.08296
 H564 H 0.12259 0.62925 -0.04775
 H565 H 0.10279 0.58805 -0.03117
 H566 H 0.04761 0.58867 -0.09881
 H567 H 0.06766 0.62940 -0.11583
 C568 C -0.16029 0.71795 0.12842
 C569 C -0.14893 0.69531 0.11650
 C570 C -0.12133 0.69175 0.11633
 C571 C -0.10526 0.71152 0.12849
 C572 C -0.11669 0.73417 0.14058
 C573 C -0.14431 0.73771 0.14046
 C574 C -0.11047 0.66764 0.10248
 C575 C -0.08555 0.65870 0.10557
 C576 C -0.07539 0.63420 0.09193
 C577 C -0.05342 0.62112 0.10339
 C578 C -0.04333 0.59785 0.09142
 C579 C -0.05493 0.58723 0.06759
 C580 C -0.07656 0.60054 0.05572
 C581 C -0.08663 0.62386 0.06766
 H582 H -0.18166 0.71994 0.12831
 H583 H -0.16183 0.68050 0.10730
 H584 H -0.08389 0.71008 0.12824
 H585 H -0.10389 0.74928 0.14932
 H586 H -0.12419 0.65622 0.09008
 H587 H -0.07231 0.66866 0.11971
 H588 H -0.04419 0.62878 0.12186
 H589 H -0.02651 0.58812 0.10092
 H590 H -0.08564 0.59299 0.03713
 H591 H -0.10293 0.63384 0.05754
 C592 C 1.11962 0.16042 0.72934
 C593 C 1.10645 0.15068 0.70620
 C594 C 1.11357 0.12619 0.69448
 C595 C 1.13468 0.11177 0.70607
 C596 C 1.14797 0.12145 0.72920
 C597 C 1.14072 0.14600 0.74147
 C598 C 1.09924 0.11694 0.66966
 C599 C 1.09776 0.09121 0.66216
 C600 C 1.08466 0.08184 0.63672
 C601 C 1.09283 0.05738 0.62549
 C602 C 1.08148 0.04773 0.60136
 C603 C 1.06142 0.06220 0.58804
 C604 C 1.05271 0.08641 0.59950
 C605 C 1.06422 0.09619 0.62365
 H606 H 1.11316 0.17951 0.73714
 H607 H 1.09048 0.16237 0.69745
 H608 H 1.14147 0.09321 0.69711
 H609 H 1.16382 0.10929 0.73723
 H610 H 1.08962 0.13201 0.65734
 H611 H 1.10727 0.07618 0.67462
 H612 H 1.10833 0.04582 0.63526
 H613 H 1.08845 0.02887 0.59316
 H614 H 1.03706 0.09779 0.58978
 H615 H 1.05676 0.11470 0.63213
 C616 C 0.88512 -0.15439 0.73953
 C617 C 0.89650 -0.14427 0.71570
 C618 C 0.88560 -0.12203 0.70258
 C619 C 0.86269 -0.11024 0.71364
 C620 C 0.85120 -0.12031 0.73746
 C621 C 0.86211 -0.14269 0.75100
 C622 C 0.89813 -0.11255 0.67696
 C623 C 0.89521 -0.08773 0.66717
 C624 C 0.90746 -0.07848 0.64131
 C625 C 0.89634 -0.05634 0.62801
 C626 C 0.90708 -0.04699 0.60351
 C627 C 0.92932 -0.05952 0.59190
 C628 C 0.94081 -0.08134 0.60540
 C629 C 0.93009 -0.09069 0.62990
 H630 H 0.89476 -0.17140 0.74864
 H631 H 0.91407 -0.15387 0.70753
 H632 H 0.85306 -0.09360 0.70369
 H633 H 0.83350 -0.11045 0.74467
 H634 H 0.91034 -0.12678 0.66603
 H635 H 0.88298 -0.07350 0.67809
 H636 H 0.87910 -0.04638 0.63647
 H637 H 0.89793 -0.02999 0.59365
 H638 H 0.95820 -0.09115 0.59710
 H639 H 0.93993 -0.10715 0.63993
 C640 C 1.14802 -0.10826 0.26222
 C641 C 1.13827 -0.09751 0.28666
 C642 C 1.11722 -0.10964 0.30044
 C643 C 1.10635 -0.13315 0.28951
 C644 C 1.11604 -0.14399 0.26511
 C645 C 1.13713 -0.13180 0.25083
 C646 C 1.10789 -0.09772 0.32653
 C647 C 1.08350 -0.10155 0.33669
 C648 C 1.07423 -0.08985 0.36293
 C649 C 1.05258 -0.10164 0.37621
 C650 C 1.04317 -0.09129 0.40100
 C651 C 1.05519 -0.06882 0.41290
 C652 C 1.07655 -0.05673 0.39946
 C653 C 1.08592 -0.06701 0.37469
 H654 H 1.16398 -0.09766 0.25247
 H655 H 1.14713 -0.07944 0.29476
 H656 H 1.09076 -0.14374 0.30001
 H657 H 1.10702 -0.16227 0.25811
 H658 H 1.12182 -0.08518 0.33743
 H659 H 1.06961 -0.11408 0.32570
 H660 H 1.04302 -0.11906 0.36748
 H661 H 1.02652 -0.10087 0.41083
 H662 H 1.08594 -0.03913 0.40798
 H663 H 1.10195 -0.05664 0.36471
 C664 C 0.88800 0.15621 0.26120
 C665 C 0.89934 0.14644 0.28528
 C666 C 0.88837 0.12453 0.29878
 C667 C 0.86533 0.11283 0.28791
 C668 C 0.85389 0.12255 0.26382
 C669 C 0.86498 0.14446 0.24979
 C670 C 0.90103 0.11521 0.32452
 C671 C 0.89806 0.09051 0.33453
 C672 C 0.91029 0.08120 0.36048
 C673 C 0.89913 0.05905 0.37357
 C674 C 0.90986 0.04944 0.39800
 C675 C 0.93217 0.06164 0.40982
 C676 C 0.94369 0.08353 0.39659
 C677 C 0.93292 0.09322 0.37213
 H678 H 0.89775 0.17293 0.25178
 H679 H 0.91698 0.15601 0.29332
 H680 H 0.85560 0.09650 0.29816
 H681 H 0.83611 0.11277 0.25673
 H682 H 0.91342 0.12939 0.33529
 H683 H 0.88573 0.07633 0.32366
 H684 H 0.88188 0.04925 0.36496
 H685 H 0.90065 0.03240 0.40763
 H686 H 0.96109 0.09314 0.40509
 H687 H 0.94271 0.10975 0.36231
 C688 C 0.16447 0.26800 -0.11403
 C689 C 0.15456 0.29120 -0.10170
 C690 C 0.13386 0.30561 -0.11383
 C691 C 0.12373 0.29679 -0.13908
 C692 C 0.13355 0.27365 -0.15146
 C693 C 0.15402 0.25855 -0.13914
 C694 C 0.12397 0.33014 -0.10012
 C695 C 0.09943 0.33987 -0.10400
 C696 C 0.08935 0.36474 -0.09108
 C697 C 0.06732 0.37744 -0.10291
 C698 C 0.05713 0.40098 -0.09162
 C699 C 0.06870 0.41223 -0.06812
 C700 C 0.09044 0.39935 -0.05593
 C701 C 0.10064 0.37580 -0.06721
 H702 H 0.18000 0.25748 -0.10333
 H703 H 0.16292 0.29775 -0.08235
 H704 H 0.10860 0.30796 -0.14978
 H705 H 0.12516 0.26827 -0.17104
 H706 H 0.13749 0.34014 -0.08630
 H707 H 0.08597 0.32954 -0.11766
 H708 H 0.05808 0.36924 -0.12113
 H709 H 0.04023 0.41039 -0.10133
 H710 H 0.09954 0.40742 -0.03759
 H711 H 0.11702 0.36626 -0.05683
 C712 C -0.13962 0.25938 0.09860
 C713 C -0.12971 0.28265 0.08678
 C714 C -0.11788 0.30252 0.10304
 C715 C -0.11665 0.29880 0.13158
 C716 C -0.12643 0.27547 0.14336
 C717 C -0.13799 0.25549 0.12702
 C718 C -0.10784 0.32699 0.08958
 C719 C -0.08964 0.34313 0.10095
 C720 C -0.07920 0.36759 0.08779
 C721 C -0.05568 0.37869 0.09815
 C722 C -0.04526 0.40201 0.08703
 C723 C -0.05819 0.41486 0.06529
 C724 C -0.08175 0.40392 0.05485
 C725 C -0.09227 0.38059 0.06606
 H726 H -0.14825 0.24428 0.08545
 H727 H -0.13112 0.28505 0.06479
 H728 H -0.10868 0.31398 0.14505
 H729 H -0.12547 0.27333 0.16538
 H730 H -0.11492 0.33094 0.06908
 H731 H -0.08095 0.33778 0.12042
 H732 H -0.04527 0.36925 0.11495
 H733 H -0.02704 0.40996 0.09550
 H734 H -0.09220 0.41355 0.03822
 H735 H -0.11082 0.37325 0.05792
 C736 C -0.15376 0.73238 -0.10658
 C737 C -0.14330 0.70906 -0.09520
 C738 C -0.12216 0.69558 -0.10771
 C739 C -0.11202 0.70562 -0.13234
 C740 C -0.12241 0.72890 -0.14380
 C741 C -0.14350 0.74295 -0.13116
 C742 C -0.11194 0.67072 -0.09502
 C743 C -0.08743 0.66107 -0.09939
 C744 C -0.07712 0.63597 -0.08724
 C745 C -0.05498 0.62371 -0.09939
 C746 C -0.04450 0.60006 -0.08879
 C747 C -0.05588 0.58822 -0.06566
 C748 C -0.07777 0.60063 -0.05318
 C749 C -0.08825 0.62429 -0.06376
 H750 H -0.16973 0.74197 -0.09563
 H751 H -0.15167 0.70163 -0.07631
 H752 H -0.09644 0.69531 -0.14330
 H753 H -0.11390 0.73525 -0.16291
 H754 H -0.12528 0.66033 -0.08147
 H755 H -0.07414 0.67170 -0.11281
 H756 H -0.04584 0.63236 -0.11732
 H757 H -0.02752 0.59103 -0.09874
 H758 H -0.08675 0.59212 -0.03511
 H759 H -0.10472 0.63344 -0.05313
 C760 C 0.10380 0.74668 0.13658
 C761 C 0.09266 0.72268 0.12764
 C762 C 0.10856 0.70262 0.11600
 C763 C 0.13605 0.70705 0.11371
 C764 C 0.14714 0.73115 0.12248
 C765 C 0.13116 0.75116 0.13410
 C766 C 0.09584 0.67723 0.10744
 C767 C 0.10697 0.65983 0.08992
 C768 C 0.09442 0.63445 0.08113
 C769 C 0.10429 0.62168 0.05762
 C770 C 0.09355 0.59756 0.04861
 C771 C 0.07271 0.58557 0.06299
 C772 C 0.06284 0.59812 0.08661
 C773 C 0.07367 0.62226 0.09573
 H774 H 0.09099 0.76184 0.14529
 H775 H 0.07149 0.71979 0.12980
 H776 H 0.14927 0.69187 0.10585
 H777 H 0.16836 0.73383 0.12089
 H778 H 0.07612 0.67352 0.11512
 H779 H 0.12569 0.66470 0.08046
 H780 H 0.12034 0.63046 0.04607
 H781 H 0.10156 0.58834 0.03029
 H782 H 0.04689 0.58919 0.09817
 H783 H 0.06598 0.63090 0.11442
 C784 C 0.26574 1.10839 0.85053
 C785 C 0.28851 1.09575 0.86051
 C786 C 0.30873 1.11054 0.87324
 C787 C 0.30589 1.13845 0.87520
 C788 C 0.28307 1.15105 0.86534
 C789 C 0.26270 1.13617 0.85297
 C790 C 0.33258 1.09623 0.88347
 C791 C 0.34895 1.10629 0.90261
 C792 C 0.37278 1.09229 0.91337
 C793 C 0.38443 1.10202 0.93755
 C794 C 0.40716 1.09007 0.94835
 C795 C 0.41886 1.06808 0.93515
 C796 C 0.40736 1.05825 0.91094
 C797 C 0.38463 1.07029 0.90003
 H798 H 0.25033 1.09635 0.84126
 H799 H 0.29022 1.07428 0.85851
 H800 H 0.32137 1.15080 0.88381
 H801 H 0.28158 1.17254 0.86692
 H802 H 0.33582 1.07624 0.87574
 H803 H 0.34429 1.12536 0.91188
 H804 H 0.37590 1.11899 0.94820
 H805 H 0.41556 1.09808 0.96707
 H806 H 0.41608 1.04141 0.90026
 H807 H 0.37685 1.06251 0.88098
 C808 C 0.25408 0.86212 1.10133
 C809 C 0.27735 0.87202 1.08976
 C810 C 0.29668 0.88442 1.10613
 C811 C 0.29237 0.88631 1.13457
 C812 C 0.26902 0.87653 1.14611
 C813 C 0.24962 0.86434 1.12963
 C814 C 0.32128 0.89416 1.09290
 C815 C 0.33759 0.91219 1.10434
 C816 C 0.36236 0.92181 1.09133
 C817 C 0.37392 0.94540 1.10131
 C818 C 0.39758 0.95493 1.09025
 C819 C 0.41024 0.94100 1.06896
 C820 C 0.39881 0.91738 1.05893
 C821 C 0.37521 0.90775 1.07009
 H822 H 0.23941 0.85302 1.08809
 H823 H 0.28021 0.87009 1.06786
 H824 H 0.30709 0.89475 1.14816
 H825 H 0.26641 0.87798 1.16805
 H826 H 0.32531 0.88681 1.07248
 H827 H 0.33230 0.92126 1.12372
 H828 H 0.36461 0.95653 1.11776
 H829 H 0.40595 0.97320 1.09839
 H830 H 0.40828 0.90614 1.04267
 H831 H 0.36758 0.88907 1.06231
 C832 C 0.74615 1.13635 1.10124
 C833 C 0.72300 1.12556 1.09007
 C834 C 0.70377 1.11391 1.10692
 C835 C 0.70832 1.11325 1.13540
 C836 C 0.73160 1.12391 1.14654
 C837 C 0.75066 1.13577 1.12961
 C838 C 0.67899 1.10391 1.09396
 C839 C 0.66147 1.08788 1.10636
 C840 C 0.63651 1.07856 1.09328
 C841 C 0.62381 1.05602 1.10402
 C842 C 0.60000 1.04684 1.09276
 C843 C 0.58829 1.06009 1.07054
 C844 C 0.60081 1.08271 1.05983
 C845 C 0.62457 1.09198 1.07115
 H846 H 0.76059 1.14509 1.08763
 H847 H 0.72006 1.12646 1.06811
 H848 H 0.69382 1.10523 1.14934
 H849 H 0.73432 1.12360 1.16852
 H850 H 0.67562 1.10955 1.07289
 H851 H 0.66576 1.08033 1.12658
 H852 H 0.63239 1.04542 1.12117
 H853 H 0.59077 1.02934 1.10145
 H854 H 0.59210 1.09345 1.04285
 H855 H 0.63308 1.10995 1.06280
 C856 C 0.74126 0.89089 0.86463
 C857 C 0.71815 0.90300 0.87441
 C858 C 0.69812 0.88779 0.88665
 C859 C 0.70173 0.85998 0.88875
 C860 C 0.72495 0.84789 0.87908
 C861 C 0.74491 0.86318 0.86679
 C862 C 0.67361 0.90166 0.89591
 C863 C 0.65600 0.89111 0.91333
 C864 C 0.63153 0.90506 0.92257
 C865 C 0.61882 0.89590 0.94626
 C866 C 0.59553 0.90800 0.95558
 C867 C 0.58432 0.92952 0.94132
 C868 C 0.59684 0.93867 0.91752
 C869 C 0.62012 0.92650 0.90812
 H870 H 0.75638 0.90326 0.85552
 H871 H 0.71593 0.92440 0.87240
 H872 H 0.68655 0.84728 0.89719
 H873 H 0.72697 0.82644 0.88056
 H874 H 0.67072 0.92183 0.88874
 H875 H 0.65997 0.87185 0.92232
 H876 H 0.62700 0.87934 0.95769
 H877 H 0.58632 0.90051 0.97400
 H878 H 0.58851 0.95510 0.90602
 H879 H 0.62868 0.93370 0.88930
   
