data_POSCAR
  _audit_creation_date              2014-09-24
  _audit_creation_method            'ToBaCCo'
  _symmetry_space_group_name_H-M    'P1'
  _symmetry_Int_Tables_number       1
  _symmetry_cell_setting            triclinic
  loop_
  _symmetry_equiv_pos_as_xyz
 x,y,z
_cell_length_a 45.8933
_cell_length_b 45.0315
_cell_length_c 7.1570
_cell_angle_alpha 90.462800
_cell_angle_beta 90.195200
_cell_angle_gamma 89.969900
loop_
  _atom_site_label
  _atom_site_type_symbol
  _atom_site_fract_x
  _atom_site_fract_y
  _atom_site_fract_z
O1 O 0.26823 0.27842 0.46259
 O2 O 0.21507 0.22064 0.33313
 O3 O 0.26819 0.22068 0.46367
 O4 O 0.21515 0.27816 0.33036
 O5 O 0.23115 0.27770 0.03936
 O6 O 0.28404 0.22005 0.17224
 O7 O 0.23091 0.21991 0.04166
 O8 O 0.28422 0.27753 0.17159
 Cu9 Cu 0.23981 0.24955 0.42582
 Cu10 Cu 0.25940 0.24874 0.07784
 C11 C 0.28552 0.28748 0.33745
 C12 C 0.21375 0.21069 0.16726
 C13 C 0.28536 0.21085 0.33894
 C14 C 0.21393 0.28745 0.16389
 O15 O 0.78546 0.27760 0.34001
 O16 O 0.73114 0.22055 0.45497
 O17 O 0.78424 0.22006 0.32653
 O18 O 0.73234 0.27827 0.46914
 O19 O 0.71642 0.27994 0.17742
 O20 O 0.76822 0.22166 0.03507
 O21 O 0.71516 0.22255 0.16372
 O22 O 0.76950 0.27947 0.04860
 Cu23 Cu 0.76014 0.24895 0.42618
 Cu24 Cu 0.74053 0.25109 0.07758
 C25 C 0.78687 0.28800 0.17639
 C26 C 0.71370 0.21213 0.32721
 C27 C 0.78522 0.21117 0.15824
 C28 C 0.71530 0.28869 0.34594
 O29 O 0.78399 0.72128 0.66992
 O30 O 0.73120 0.77902 0.53749
 O31 O 0.78424 0.77873 0.66987
 O32 O 0.73087 0.72122 0.53964
 O33 O 0.71505 0.72192 0.83106
 O34 O 0.76833 0.77962 0.96095
 O35 O 0.71527 0.77944 0.82867
 O36 O 0.76821 0.72188 0.96154
 Cu37 Cu 0.75939 0.75001 0.57588
 Cu38 Cu 0.73986 0.75078 0.92399
 C39 C 0.78533 0.71207 0.83656
 C40 C 0.71403 0.78877 0.66234
 C41 C 0.78562 0.78866 0.83568
 C42 C 0.71370 0.71201 0.66511
 O43 O 0.21621 0.77974 0.67421
 O44 O 0.26858 0.72208 0.53011
 O45 O 0.21537 0.72234 0.65699
 O46 O 0.26924 0.77990 0.54448
 O47 O 0.28516 0.77782 0.83589
 O48 O 0.23123 0.72021 0.94843
 O49 O 0.28445 0.72032 0.82181
 O50 O 0.23214 0.77793 0.96583
 Cu51 Cu 0.24055 0.75121 0.57295
 Cu52 Cu 0.26008 0.74888 0.92148
 C53 C 0.21504 0.78834 0.84302
 C54 C 0.28561 0.71164 0.65325
 C55 C 0.21391 0.71175 0.82004
 C56 C 0.28653 0.78843 0.67276
 C57 C 1.02543 0.06186 0.01449
 C58 C 0.99884 0.07694 0.01448
 C59 C 0.97245 0.06153 0.00784
 C60 C 0.97238 0.03017 -0.00015
 C61 C 0.99926 0.01460 -0.00016
 C62 C 1.02592 0.03051 0.00667
 C63 C 1.05231 0.01464 0.00565
 C64 C 1.05252 -0.01626 -0.00012
 C65 C 1.02637 -0.03248 -0.00617
 C66 C 0.99948 -0.01692 -0.00659
 C67 C 0.94622 0.01397 -0.00833
 C68 C 0.94644 -0.01694 -0.01474
 C69 C 0.97283 -0.03282 -0.01309
 C70 C 0.97333 -0.06419 -0.01876
 C71 C 0.99994 -0.07927 -0.01837
 C72 C 1.02634 -0.06385 -0.01225
 H73 H 1.07306 0.02599 0.00894
 H74 H 1.07341 -0.02733 0.00034
 H75 H 0.92532 0.02508 -0.00987
 H76 H 0.92571 -0.02829 -0.02088
 H77 H 0.99867 0.10103 0.02144
 H78 H 1.00011 -0.10337 -0.02319
 C79 C 0.52594 0.56241 0.51427
 C80 C 0.49936 0.57749 0.51294
 C81 C 0.47298 0.56208 0.50519
 C82 C 0.47292 0.53072 0.49789
 C83 C 0.49979 0.51516 0.49980
 C84 C 0.52645 0.53106 0.50724
 C85 C 0.55283 0.51520 0.50794
 C86 C 0.55304 0.48430 0.50352
 C87 C 0.52689 0.46808 0.49713
 C88 C 0.50002 0.48364 0.49460
 C89 C 0.44678 0.51452 0.48906
 C90 C 0.44699 0.48361 0.48392
 C91 C 0.47336 0.46774 0.48768
 C92 C 0.47387 0.43637 0.48418
 C93 C 0.50047 0.42130 0.48609
 C94 C 0.52684 0.43672 0.49236
 H95 H 0.57357 0.52655 0.51206
 H96 H 0.57393 0.47322 0.50573
 H97 H 0.42590 0.52562 0.48554
 H98 H 0.42627 0.47227 0.47683
 H99 H 0.49919 0.60159 0.51927
 H100 H 0.50063 0.39719 0.48295
 C101 C 0.02704 0.56341 -0.04160
 C102 C 0.00055 0.57868 -0.04509
 C103 C -0.02594 0.56360 -0.03223
 C104 C -0.02622 0.53236 -0.01530
 C105 C 0.00053 0.51658 -0.01243
 C106 C 0.02731 0.53216 -0.02527
 C107 C 0.05354 0.51607 -0.02170
 C108 C 0.05353 0.48528 -0.00550
 C109 C 0.02727 0.46939 0.00672
 C110 C 0.00052 0.48517 0.00336
 C111 C -0.05248 0.51649 -0.00133
 C112 C -0.05250 0.48569 0.01323
 C113 C -0.02626 0.46959 0.01532
 C114 C -0.02601 0.43832 0.02967
 C115 C 0.00047 0.42304 0.03279
 C116 C 0.02697 0.43813 0.02178
 H117 H 0.07435 0.52715 -0.03132
 H118 H 0.07433 0.47402 -0.00328
 H119 H -0.07327 0.52777 -0.00156
 H120 H -0.07331 0.47460 0.02317
 H121 H 0.00055 0.60268 -0.05805
 H122 H 0.00044 0.39900 0.04402
 C123 C 0.47375 0.93914 0.54251
 C124 C 0.50026 0.92392 0.54379
 C125 C 0.52672 0.93910 0.53241
 C126 C 0.52692 0.97038 0.51878
 C127 C 0.50013 0.98610 0.51733
 C128 C 0.47340 0.97044 0.52998
 C129 C 0.44712 0.98648 0.53030
 C130 C 0.44706 1.01731 0.51660
 C131 C 0.47326 1.03326 0.50168
 C132 C 0.50006 1.01753 0.50290
 C133 C 0.55313 0.98634 0.50612
 C134 C 0.55306 1.01715 0.49127
 C135 C 0.52678 1.03319 0.48942
 C136 C 0.52644 1.06446 0.47414
 C137 C 0.49990 1.07967 0.47215
 C138 C 0.47345 1.06451 0.48544
 H139 H 0.42636 0.97532 0.54177
 H140 H 0.42623 1.02854 0.51820
 H141 H 0.57396 0.97513 0.50695
 H142 H 0.57383 1.02828 0.48103
 H143 H 0.50032 0.89987 0.55384
 H144 H 0.49984 1.10368 0.45969
 C145 C 1.09855 0.11404 0.04195
 C146 C 1.09577 0.14448 -0.00313
 C147 C 1.12037 0.16353 0.01007
 C148 C 1.14762 0.15204 0.06830
 C149 C 1.15044 0.12161 0.11317
 C150 C 1.12581 0.10256 0.10015
 C151 C 1.12907 0.07231 0.14816
 C152 C 1.15589 0.06117 0.20675
 C153 C 1.17998 0.07979 0.21911
 C154 C 1.17741 0.10969 0.17309
 C155 C 1.11698 0.19395 -0.03389
 C156 C 1.09003 0.20524 -0.08871
 C157 C 1.06597 0.18661 -0.10163
 C158 C 1.06868 0.15657 -0.05980
 C159 C 1.17214 0.17199 0.09419
 C160 C 1.19172 0.18926 0.12268
 C161 C 1.07321 0.09480 0.03151
 C162 C 1.05172 0.07944 0.02362
 H163 H 1.11095 0.05702 0.14175
 H164 H 1.15797 0.03798 0.24329
 H165 H 1.20075 0.07105 0.26514
 H166 H 1.19676 0.12331 0.18480
 H167 H 1.13505 0.20933 -0.02628
 H168 H 1.08783 0.22856 -0.12131
 H169 H 1.04506 0.19549 -0.14376
 H170 H 1.04930 0.14300 -0.07163
 C171 C 0.59875 0.61494 0.54521
 C172 C 0.59533 0.64569 0.51097
 C173 C 0.61984 0.66489 0.52223
 C174 C 0.64760 0.65326 0.56806
 C175 C 0.65104 0.62253 0.60211
 C176 C 0.62651 0.60332 0.59118
 C177 C 0.63038 0.57278 0.62930
 C178 C 0.65770 0.56152 0.67652
 C179 C 0.68170 0.58028 0.68628
 C180 C 0.67855 0.61046 0.64931
 C181 C 0.61585 0.69559 0.48894
 C182 C 0.58839 0.70702 0.44746
 C183 C 0.56440 0.68826 0.43714
 C184 C 0.56770 0.65792 0.46772
 C185 C 0.67211 0.67327 0.59248
 C186 C 0.69167 0.69058 0.62048
 C187 C 0.57360 0.59547 0.53382
 C188 C 0.55220 0.58001 0.52460
 H189 H 0.61234 0.55737 0.62490
 H190 H 0.66024 0.53811 0.70583
 H191 H 0.70289 0.57143 0.72259
 H192 H 0.69785 0.62419 0.65879
 H193 H 0.63384 0.71109 0.49541
 H194 H 0.58574 0.73055 0.42275
 H195 H 0.54310 0.69726 0.40521
 H196 H 0.54835 0.64427 0.45876
 C197 C -0.09856 0.38556 0.06130
 C198 C -0.09388 0.35450 0.06975
 C199 C -0.11802 0.33491 0.08387
 C200 C -0.14671 0.34649 0.08923
 C201 C -0.15140 0.37751 0.08079
 C202 C -0.12725 0.39712 0.06664
 C203 C -0.13248 0.42805 0.05985
 C204 C -0.16075 0.43933 0.06717
 C205 C -0.18435 0.42016 0.08108
 C206 C -0.17986 0.38957 0.08760
 C207 C -0.11277 0.30397 0.09399
 C208 C -0.08449 0.29271 0.09107
 C209 C -0.06089 0.31186 0.07696
 C210 C -0.06539 0.34240 0.06617
 C211 C -0.17118 0.32647 0.11195
 C212 C -0.19084 0.30925 0.13684
 C213 C -0.07372 0.40541 0.04962
 C214 C -0.05239 0.42095 0.04040
 H215 H -0.11484 0.44380 0.04918
 H216 H -0.16434 0.46307 0.06222
 H217 H -0.20627 0.42901 0.08707
 H218 H -0.19891 0.37554 0.09842
 H219 H -0.13041 0.28815 0.10490
 H220 H -0.08088 0.26902 0.10024
 H221 H -0.03895 0.30301 0.07470
 H222 H -0.04629 0.35635 0.05551
 C223 C 0.40130 0.88615 0.57179
 C224 C 0.37278 0.89690 0.53808
 C225 C 0.34858 0.87728 0.54869
 C226 C 0.35308 0.84702 0.59242
 C227 C 0.38162 0.83624 0.62585
 C228 C 0.40578 0.85588 0.61601
 C229 C 0.43407 0.84463 0.65196
 C230 C 0.43834 0.81487 0.69621
 C231 C 0.41472 0.79566 0.70527
 C232 C 0.38665 0.80608 0.67042
 C233 C 0.32026 0.88856 0.51578
 C234 C 0.31594 0.91842 0.47397
 C235 C 0.33960 0.93760 0.46340
 C236 C 0.36774 0.92706 0.49462
 C237 C 0.32842 0.82711 0.61127
 C238 C 0.30872 0.80986 0.63438
 C239 C 0.42615 0.90602 0.56121
 C240 C 0.44743 0.92165 0.55256
 H241 H 0.45315 0.85869 0.64673
 H242 H 0.46011 0.80669 0.72385
 H243 H 0.41815 0.77256 0.73985
 H244 H 0.36901 0.79022 0.67905
 H245 H 0.30120 0.87447 0.52227
 H246 H 0.29412 0.92671 0.44975
 H247 H 0.33613 0.96078 0.43100
 H248 H 0.38543 0.94279 0.48461
 C249 C -0.09917 0.61579 -0.04876
 C250 C -0.09554 0.64684 -0.02553
 C251 C -0.12016 0.66594 -0.03330
 C252 C -0.14827 0.65390 -0.06503
 C253 C -0.15194 0.62286 -0.08686
 C254 C -0.12730 0.60375 -0.07967
 C255 C -0.13144 0.57288 -0.10663
 C256 C -0.15914 0.56118 -0.13856
 C257 C -0.18325 0.57984 -0.14375
 C258 C -0.17983 0.61035 -0.11799
 C259 C -0.11596 0.69692 -0.01078
 C260 C -0.08820 0.70873 0.01638
 C261 C -0.06410 0.69007 0.02262
 C262 C -0.06759 0.65947 0.00264
 C263 C -0.17293 0.67370 -0.08890
 C264 C -0.19260 0.69083 -0.11739
 C265 C -0.07386 0.59644 -0.04250
 C266 C -0.05234 0.58108 -0.03766
 H267 H -0.11336 0.55752 -0.10472
 H268 H -0.16189 0.53750 -0.15924
 H269 H -0.20473 0.57065 -0.16822
 H270 H -0.19923 0.62398 -0.12339
 H271 H -0.13403 0.71236 -0.01456
 H272 H -0.08539 0.73248 0.03256
 H273 H -0.04256 0.69936 0.04340
 H274 H -0.04815 0.64591 0.00839
 C275 C 0.39983 1.11620 0.46677
 C276 C 0.40295 1.14715 0.49770
 C277 C 0.37822 1.16607 0.48579
 C278 C 0.35051 1.15396 0.44238
 C279 C 0.34733 1.12300 0.41311
 C280 C 0.37208 1.10407 0.42466
 C281 C 0.36844 1.07329 0.39108
 C282 C 0.34113 1.06149 0.34826
 C283 C 0.31691 1.07997 0.33815
 C284 C 0.31985 1.11039 0.37014
 C285 C 0.38194 1.19696 0.51595
 C286 C 0.40932 1.20884 0.55552
 C287 C 0.43351 1.19037 0.56617
 C288 C 0.43049 1.15987 0.53815
 C289 C 0.32586 1.17368 0.41431
 C290 C 0.30626 1.19079 0.38338
 C291 C 0.42533 1.09709 0.47463
 C292 C 0.44696 1.08189 0.48020
 H293 H 0.38662 1.05807 0.39664
 H294 H 0.33876 1.03789 0.32251
 H295 H 0.29575 1.07070 0.30473
 H296 H 0.30039 1.12388 0.36077
 H297 H 0.36378 1.21225 0.50926
 H298 H 0.41176 1.23251 0.57768
 H299 H 0.45476 1.19971 0.59624
 H300 H 0.44998 1.14644 0.54794
 C301 C 1.09998 -0.11553 -0.02239
 C302 C 1.12802 -0.10349 -0.05450
 C303 C 1.15267 -0.12256 -0.06383
 C304 C 1.14910 -0.15357 -0.04326
 C305 C 1.12115 -0.16559 -0.00862
 C306 C 1.09651 -0.14653 0.00149
 C307 C 1.06870 -0.15915 0.03241
 C308 C 1.06536 -0.18970 0.05320
 C309 C 1.08948 -0.20832 0.04450
 C310 C 1.11711 -0.19653 0.01415
 C311 C 1.18047 -0.11006 -0.09608
 C312 C 1.18380 -0.07958 -0.12036
 C313 C 1.15967 -0.06095 -0.11335
 C314 C 1.13205 -0.07265 -0.08075
 C315 C 1.17363 -0.17338 -0.07259
 C316 C 1.19316 -0.19047 -0.10581
 C317 C 1.07455 -0.09630 -0.01784
 C318 C 1.05290 -0.08111 -0.01494
 H319 H 1.04925 -0.14561 0.04053
 H320 H 1.04393 -0.19898 0.07626
 H321 H 1.08678 -0.23203 0.06077
 H322 H 1.13520 -0.21192 0.00866
 H323 H 1.19989 -0.12368 -0.10285
 H324 H 1.20521 -0.07039 -0.14561
 H325 H 1.16235 -0.03730 -0.13326
 H326 H 1.11396 -0.05732 -0.07690
 C327 C 0.60049 0.38516 0.48339
 C328 C 0.59732 0.35436 0.51637
 C329 C 0.62194 0.33530 0.50372
 C330 C 0.64958 0.34716 0.45845
 C331 C 0.65285 0.37801 0.42873
 C332 C 0.62821 0.39706 0.44054
 C333 C 0.63190 0.42772 0.40588
 C334 C 0.65917 0.43927 0.36197
 C335 C 0.68330 0.42067 0.35157
 C336 C 0.68030 0.39036 0.38449
 C337 C 0.61815 0.30451 0.53442
 C338 C 0.59081 0.29288 0.57562
 C339 C 0.56673 0.31151 0.58781
 C340 C 0.56982 0.34191 0.55893
 C341 C 0.67405 0.32727 0.42886
 C342 C 0.69353 0.31006 0.39626
 C343 C 0.57502 0.40428 0.48820
 C344 C 0.55338 0.41946 0.49070
 H345 H 0.61380 0.44303 0.41187
 H346 H 0.66158 0.46278 0.33556
 H347 H 0.70443 0.42974 0.31714
 H348 H 0.69969 0.37676 0.37481
 H349 H 0.63621 0.28911 0.52677
 H350 H 0.58829 0.26927 0.59780
 H351 H 0.54553 0.30237 0.61952
 H352 H 0.55043 0.35548 0.57008
 C353 C 0.90053 -0.11685 -0.04424
 C354 C 0.87236 -0.10600 -0.00100
 C355 C 0.84787 -0.12524 -0.01376
 C356 C 0.85171 -0.15520 -0.06929
 C357 C 0.87990 -0.16610 -0.11221
 C358 C 0.90435 -0.14684 -0.10025
 C359 C 0.93226 -0.15815 -0.14636
 C360 C 0.93589 -0.18766 -0.20154
 C361 C 0.91199 -0.20654 -0.21220
 C362 C 0.88428 -0.19601 -0.16831
 C363 C 0.81990 -0.11389 0.02906
 C364 C 0.81621 -0.08432 0.08272
 C365 C 0.84014 -0.06549 0.09519
 C366 C 0.86795 -0.07610 0.05403
 C367 C 0.82669 -0.17455 -0.09318
 C368 C 0.80677 -0.19142 -0.12168
 C369 C 0.92563 -0.09728 -0.03376
 C370 C 0.94704 -0.08180 -0.02629
 H371 H 0.95155 -0.14436 -0.14012
 H372 H 0.95737 -0.19590 -0.23685
 H373 H 0.91491 -0.22942 -0.25575
 H374 H 0.86640 -0.21161 -0.17831
 H375 H 0.80066 -0.12774 0.02194
 H376 H 0.79466 -0.07597 0.11437
 H377 H 0.83715 -0.04250 0.13619
 H378 H 0.88589 -0.06066 0.06621
 C379 C 0.40125 0.38353 0.46042
 C380 C 0.37283 0.39479 0.49110
 C381 C 0.34839 0.37551 0.47749
 C382 C 0.35254 0.34509 0.43421
 C383 C 0.38097 0.33377 0.40478
 C384 C 0.40540 0.35306 0.41771
 C385 C 0.43359 0.34130 0.38545
 C386 C 0.43751 0.31137 0.34115
 C387 C 0.41362 0.29250 0.32877
 C388 C 0.38565 0.30342 0.36067
 C389 C 0.32016 0.38729 0.50650
 C390 C 0.31617 0.41734 0.54696
 C391 C 0.34007 0.43620 0.56056
 C392 C 0.36812 0.42514 0.53365
 C393 C 0.32763 0.32559 0.41030
 C394 C 0.30776 0.30864 0.38245
 C395 C 0.42628 0.40318 0.47061
 C396 C 0.44762 0.41874 0.47763
 H397 H 0.45287 0.35507 0.39308
 H398 H 0.45920 0.30279 0.31617
 H399 H 0.41677 0.26927 0.29422
 H400 H 0.36780 0.28782 0.34969
 H401 H 0.30092 0.37346 0.49766
 H402 H 0.29442 0.42602 0.56820
 H403 H 0.33686 0.45952 0.59211
 H404 H 0.38601 0.44063 0.54592
 C405 C 0.09980 0.61580 -0.08128
 C406 C 0.09545 0.64619 -0.12297
 C407 C 0.11973 0.66566 -0.13340
 C408 C 0.14826 0.65461 -0.10343
 C409 C 0.15265 0.62419 -0.06398
 C410 C 0.12835 0.60472 -0.05264
 C411 C 0.13331 0.57438 -0.01420
 C412 C 0.16147 0.56350 0.01142
 C413 C 0.18522 0.58254 0.00040
 C414 C 0.18099 0.61258 -0.03642
 C415 C 0.11482 0.69595 -0.17526
 C416 C 0.08677 0.70663 -0.20766
 C417 C 0.06305 0.68755 -0.19845
 C418 C 0.06719 0.65769 -0.15624
 C419 C 0.17301 0.67442 -0.12129
 C420 C 0.19279 0.69160 -0.14392
 C421 C 0.07480 0.59618 -0.06715
 C422 C 0.05342 0.58075 -0.05526
 H423 H 0.11555 0.55874 -0.00439
 H424 H 0.16486 0.54018 0.03994
 H425 H 0.20705 0.57400 0.02029
 H426 H 0.20013 0.62654 -0.04367
 H427 H 0.13255 0.71169 -0.18419
 H428 H 0.08345 0.72981 -0.24044
 H429 H 0.04130 0.69593 -0.22416
 H430 H 0.04802 0.64375 -0.15105
 C431 C 0.59926 1.11682 0.43285
 C432 C 0.62786 1.10547 0.45437
 C433 C 0.65222 1.12485 0.44207
 C434 C 0.64783 1.15546 0.40873
 C435 C 0.61926 1.16681 0.38615
 C436 C 0.59492 1.14743 0.39758
 C437 C 0.56660 1.15925 0.37154
 C438 C 0.56246 1.18932 0.33544
 C439 C 0.58625 1.20830 0.32533
 C440 C 0.61437 1.19732 0.35070
 C441 C 0.68060 1.11298 0.46242
 C442 C 0.68483 1.08277 0.49299
 C443 C 0.66103 1.06381 0.50491
 C444 C 0.63283 1.07493 0.48637
 C445 C 0.67262 1.17516 0.38874
 C446 C 0.69246 1.19219 0.36460
 C447 C 0.57421 1.09726 0.44765
 C448 C 0.55281 1.08185 0.45986
 H449 H 0.54737 1.14539 0.37778
 H450 H 0.54066 1.19795 0.31511
 H451 H 0.58294 1.23165 0.29735
 H452 H 0.63215 1.21300 0.34142
 H453 H 0.69978 1.12688 0.45425
 H454 H 0.70669 1.07403 0.50745
 H455 H 0.66442 1.04034 0.52848
 H456 H 0.61504 1.05935 0.49660
 C457 C 0.09946 0.38498 0.04216
 C458 C 0.12816 0.39616 0.02569
 C459 C 0.15234 0.37648 0.03641
 C460 C 0.14767 0.34577 0.06425
 C461 C 0.11895 0.33455 0.07954
 C462 C 0.09478 0.35421 0.06886
 C463 C 0.06631 0.34251 0.08784
 C464 C 0.06185 0.31228 0.11633
 C465 C 0.08547 0.29303 0.12564
 C466 C 0.11372 0.30390 0.10705
 C467 C 0.18083 0.38816 0.02029
 C468 C 0.18535 0.41849 -0.00376
 C469 C 0.16172 0.43776 -0.01296
 C470 C 0.13342 0.42683 0.00105
 C471 C 0.17226 0.32588 0.08874
 C472 C 0.19189 0.30872 0.11756
 C473 C 0.07462 0.40493 0.03334
 C474 C 0.05332 0.42059 0.02740
 H475 H 0.04720 0.35657 0.08185
 H476 H 0.03993 0.30376 0.13119
 H477 H 0.08189 0.26956 0.14775
 H478 H 0.13136 0.28801 0.11522
 H479 H 0.19987 0.37402 0.02658
 H480 H 0.20729 0.42708 -0.01509
 H481 H 0.16534 0.46131 -0.03116
 H482 H 0.11577 0.44265 -0.00688
 C483 C 0.59931 0.88604 0.54652
 C484 C 0.62787 0.89702 0.51876
 C485 C 0.65209 0.87737 0.52765
 C486 C 0.64761 0.84690 0.56478
 C487 C 0.61903 0.83586 0.59121
 C488 C 0.59483 0.85550 0.58263
 C489 C 0.56651 0.84403 0.61302
 C490 C 0.56224 0.81402 0.65016
 C491 C 0.58588 0.79479 0.65740
 C492 C 0.61398 0.80543 0.62808
 C493 C 0.68044 0.88886 0.50032
 C494 C 0.68477 0.91897 0.46664
 C495 C 0.66111 0.93822 0.45901
 C496 C 0.63294 0.92747 0.48431
 C497 C 0.67231 0.82714 0.58814
 C498 C 0.69200 0.81004 0.61653
 C499 C 0.57445 0.90597 0.53968
 C500 C 0.55311 0.92160 0.53568
 H501 H 0.54739 0.85809 0.60904
 H502 H 0.54045 0.80567 0.67382
 H503 H 0.58245 0.77150 0.68649
 H504 H 0.63165 0.78955 0.63459
 H505 H 0.69950 0.87472 0.50454
 H506 H 0.70661 0.92742 0.44669
 H507 H 0.66459 0.96161 0.43360
 H508 H 0.61524 0.94325 0.47701
 C509 C 0.89896 0.11331 0.02146
 C510 C 0.90188 0.14373 -0.02390
 C511 C 0.87736 0.16293 -0.01158
 C512 C 0.85010 0.15164 0.04660
 C513 C 0.84707 0.12116 0.08931
 C514 C 0.87160 0.10195 0.07727
 C515 C 0.86819 0.07170 0.12463
 C516 C 0.84131 0.06072 0.18189
 C517 C 0.81729 0.07947 0.19265
 C518 C 0.82001 0.10936 0.14684
 C519 C 0.88089 0.19331 -0.05575
 C520 C 0.90790 0.20445 -0.10899
 C521 C 0.93190 0.18571 -0.12021
 C522 C 0.92904 0.15566 -0.07902
 C523 C 0.82589 0.17190 0.07607
 C524 C 0.80670 0.18945 0.10825
 C525 C 0.92434 0.09406 0.01535
 C526 C 0.94593 0.07882 0.01131
 H527 H 0.88625 0.05629 0.11890
 H528 H 0.83911 0.03753 0.21797
 H529 H 0.79645 0.07082 0.23719
 H530 H 0.80072 0.12310 0.15752
 H531 H 0.86288 0.20880 -0.04892
 H532 H 0.91021 0.22775 -0.14169
 H533 H 0.95286 0.19448 -0.16131
 H534 H 0.94836 0.14199 -0.08988
 C535 C 0.39985 0.61432 0.52069
 C536 C 0.37161 0.60251 0.54787
 C537 C 0.34720 0.62188 0.55920
 C538 C 0.35122 0.65293 0.54441
 C539 C 0.37944 0.66474 0.51605
 C540 C 0.40384 0.64539 0.50450
 C541 C 0.43192 0.65777 0.48013
 C542 C 0.43577 0.68839 0.46776
 C543 C 0.41188 0.70730 0.47800
 C544 C 0.38400 0.69574 0.50130
 C545 C 0.31920 0.60961 0.58775
 C546 C 0.31545 0.57907 0.60663
 C547 C 0.33933 0.56014 0.59682
 C548 C 0.36713 0.57161 0.56742
 C549 C 0.32680 0.67294 0.57188
 C550 C 0.30736 0.69024 0.60323
 C551 C 0.42499 0.59477 0.51347
 C552 C 0.44648 0.57939 0.50881
 H553 H 0.45120 0.64401 0.47153
 H554 H 0.45740 0.69748 0.44993
 H555 H 0.41497 0.73107 0.46799
 H556 H 0.36612 0.71137 0.50855
 H557 H 0.29997 0.62346 0.59667
 H558 H 0.29390 0.57006 0.62935
 H559 H 0.33632 0.53643 0.61196
 H560 H 0.38502 0.55604 0.56151
   
