data_POSCAR
  _audit_creation_date              2014-09-24
  _audit_creation_method            'ToBaCCo'
  _symmetry_space_group_name_H-M    'P1'
  _symmetry_Int_Tables_number       1
  _symmetry_cell_setting            triclinic
  loop_
  _symmetry_equiv_pos_as_xyz
 x,y,z
_cell_length_a 24.6048
_cell_length_b 22.7238
_cell_length_c 24.1299
_cell_angle_alpha 89.902000
_cell_angle_beta 90.017000
_cell_angle_gamma 89.829900
loop_
  _atom_site_label
  _atom_site_type_symbol
  _atom_site_fract_x
  _atom_site_fract_y
  _atom_site_fract_z
C1 C 1.25176 0.25513 0.24881
 C2 C 0.75056 -0.25366 0.24544
 C3 C 0.74839 0.25217 -0.24819
 C4 C 1.24909 -0.25616 -0.24914
 C5 C 0.25183 0.25452 0.75058
 C6 C 0.75131 0.74577 0.75492
 C7 C 0.74892 0.25257 0.24805
 C8 C 0.24941 0.74422 0.25003
 O9 O 0.90766 -0.08160 -0.09967
 O10 O 0.95585 -0.14764 -0.04669
 C11 C 0.92100 -0.13482 -0.08548
 O12 O 1.10236 0.08158 -0.09531
 O13 O 1.05079 0.14766 -0.04598
 C14 C 1.08827 0.13483 -0.08207
 O15 O 1.09754 -0.08180 -0.10031
 O16 O 1.04850 -0.14777 -0.04842
 C17 C 1.08346 -0.13497 -0.08694
 O18 O 0.90236 0.08139 -0.09504
 O19 O 0.95342 0.14764 -0.04575
 C20 C 0.91591 0.13471 -0.08178
 Zr21 Zr 0.93500 -0.00008 -0.06912
 O22 O 0.94493 0.00111 -0.15612
 O23 O 0.84938 -0.00097 -0.07701
 Zr24 Zr 1.07067 -0.00007 -0.06925
 O25 O 1.06104 0.00135 -0.15630
 O26 O 1.15635 -0.00014 -0.07698
 O27 O 1.00293 -0.05332 -0.07952
 O28 O 1.00261 0.05219 -0.07925
 O29 O 0.90411 0.08161 0.09823
 O30 O 0.95424 0.14768 0.04767
 C31 C 0.91738 0.13485 0.08434
 O32 O 1.09620 -0.08156 0.10483
 O33 O 1.05017 -0.14748 0.05048
 C34 C 1.08382 -0.13490 0.09035
 O35 O 1.10020 0.08193 0.09882
 O36 O 1.05005 0.14783 0.04765
 C37 C 1.08661 0.13511 0.08468
 O38 O 0.90898 -0.08190 0.10255
 O39 O 0.95821 -0.14801 0.05101
 C40 C 0.92305 -0.13512 0.08927
 Zr41 Zr 0.93466 -0.00008 0.07070
 O42 O 0.93422 0.00552 0.15830
 O43 O 0.84876 -0.00552 0.06961
 Zr44 Zr 1.07168 -0.00013 0.07027
 O45 O 1.07941 0.00221 0.15750
 O46 O 1.15745 -0.00520 0.06403
 Zr47 Zr 1.00317 -0.08876 0.00138
 Zr48 Zr 1.00250 0.08846 0.00079
 O49 O 1.00295 0.05120 0.08074
 O50 O 1.00330 -0.05256 0.08187
 O51 O 0.92363 0.05240 0.00074
 O52 O 1.08145 -0.05186 0.00071
 O53 O 0.92480 -0.05149 0.00104
 O54 O 1.08176 0.05263 0.00046
 H55 H 1.00240 0.07907 -0.11163
 H56 H 1.11302 -0.07900 0.00100
 H57 H 1.00260 0.07746 0.11346
 H58 H 0.89295 -0.07804 0.00147
 H59 H 1.17149 -0.01720 -0.04260
 H60 H 1.17020 0.03104 0.04533
 H61 H 1.04272 0.00895 0.17277
 H62 H 0.95681 -0.02717 0.17279
 H63 H 0.83498 0.02785 0.04716
 H64 H 0.83443 -0.01248 -0.04062
 H65 H 0.90781 0.00301 -0.17198
 H66 H 1.09820 0.00305 -0.17202
 O67 O 1.09199 0.41709 0.60101
 O68 O 1.04420 0.35105 0.54819
 C69 C 1.07856 0.36379 0.58714
 O70 O 0.90008 0.58211 0.59538
 O71 O 0.95131 0.64773 0.54566
 C72 C 0.91412 0.63528 0.58185
 O73 O 0.90539 0.41807 0.60134
 O74 O 0.95442 0.35229 0.54934
 C75 C 0.91965 0.36487 0.58802
 O76 O 1.09660 0.58212 0.59612
 O77 O 1.04527 0.64782 0.54612
 C78 C 1.08233 0.63528 0.58246
 Zr79 Zr 1.06730 0.49979 0.56920
 O80 O 1.06878 0.50616 0.65671
 O81 O 1.15317 0.49311 0.56820
 Zr82 Zr 0.93004 0.49984 0.56826
 O83 O 0.92639 0.50628 0.65565
 O84 O 0.84428 0.49305 0.56436
 O85 O 0.99881 0.44747 0.58006
 O86 O 0.99847 0.55085 0.57902
 O87 O 1.09833 0.58269 0.40327
 O88 O 1.04582 0.64796 0.45215
 C89 C 1.08359 0.63590 0.41634
 O90 O 0.90640 0.41771 0.39679
 O91 O 0.95476 0.35216 0.44987
 C92 C 0.92040 0.36460 0.41078
 O93 O 0.90122 0.58208 0.40195
 O94 O 0.95242 0.64776 0.45152
 C95 C 0.91536 0.63525 0.41531
 O96 O 1.09337 0.41820 0.39804
 O97 O 1.04509 0.35230 0.45048
 C98 C 1.07969 0.36501 0.41181
 Zr99 Zr 1.06824 0.50013 0.43022
 O100 O 1.07104 0.50678 0.34276
 O101 O 1.15407 0.49334 0.43315
 Zr102 Zr 0.93095 0.49961 0.42922
 O103 O 0.92929 0.50596 0.34170
 O104 O 0.84512 0.49285 0.43102
 Zr105 Zr 0.99949 0.41140 0.49955
 Zr106 Zr 0.99882 0.58811 0.49905
 O107 O 0.99944 0.55086 0.41919
 O108 O 0.99992 0.44742 0.41883
 O109 O 1.07828 0.55297 0.49974
 O110 O 0.92081 0.44787 0.49886
 O111 O 1.07791 0.44825 0.49983
 O112 O 0.91960 0.55276 0.49853
 H113 H 0.99822 0.57686 0.61194
 H114 H 0.88931 0.42079 0.49881
 H115 H 0.99968 0.57688 0.38621
 H116 H 1.10973 0.42142 0.50003
 H117 H 0.83026 0.52900 0.54605
 H118 H 0.83081 0.52806 0.45023
 H119 H 0.95441 0.47573 0.32703
 H120 H 1.04615 0.47672 0.32766
 H121 H 1.16794 0.52842 0.45275
 H122 H 1.16734 0.52781 0.54814
 H123 H 1.04529 0.47460 0.67154
 H124 H 0.95345 0.47836 0.67087
 O125 O 0.57521 0.09854 0.60110
 O126 O 0.63525 0.04563 0.54803
 C127 C 0.62416 0.08348 0.58660
 O128 O 0.42338 -0.11143 0.59517
 O129 O 0.36328 -0.05458 0.54558
 C130 C 0.37444 -0.09554 0.58124
 O131 O 0.57531 -0.10623 0.60089
 O132 O 0.63524 -0.05336 0.54778
 C133 C 0.62423 -0.09112 0.58644
 O134 O 0.42332 0.10400 0.59589
 O135 O 0.36317 0.04822 0.54592
 C136 C 0.37436 0.08877 0.58185
 Zr137 Zr 0.49938 0.07019 0.56952
 O138 O 0.49701 0.06322 0.65685
 O139 O 0.50438 0.16311 0.57244
 Zr140 Zr 0.49936 -0.07803 0.56878
 O141 O 0.49440 -0.07831 0.65634
 O142 O 0.50440 -0.17103 0.56757
 O143 O 0.54805 -0.00404 0.57988
 O144 O 0.45179 -0.00378 0.57923
 O145 O 0.42329 0.10457 0.40293
 O146 O 0.36318 0.04832 0.45252
 C147 C 0.37436 0.08917 0.41686
 O148 O 0.57594 -0.10480 0.39793
 O149 O 0.63604 -0.05224 0.45117
 C150 C 0.62489 -0.08980 0.41251
 O151 O 0.42320 -0.11075 0.40199
 O152 O 0.36333 -0.05455 0.45224
 C153 C 0.37418 -0.09517 0.41610
 O154 O 0.57525 0.09963 0.39837
 O155 O 0.63526 0.04608 0.45100
 C156 C 0.62418 0.08432 0.41276
 Zr157 Zr 0.49929 0.07105 0.42960
 O158 O 0.49345 0.07111 0.34205
 O159 O 0.50512 0.16400 0.43020
 Zr160 Zr 0.49927 -0.07761 0.42933
 O161 O 0.49424 -0.08025 0.34179
 O162 O 0.50185 -0.17038 0.43509
 Zr163 Zr 0.58066 -0.00364 0.49920
 Zr164 Zr 0.41790 -0.00320 0.49913
 O165 O 0.45201 -0.00309 0.41919
 O166 O 0.54780 -0.00333 0.41845
 O167 O 0.45073 0.08243 0.49956
 O168 O 0.54696 -0.08865 0.49900
 O169 O 0.54661 0.08138 0.49960
 O170 O 0.45055 -0.08901 0.49897
 H171 H 0.42733 -0.00392 0.61184
 H172 H 0.57160 -0.12323 0.49904
 H173 H 0.42770 -0.00300 0.38645
 H174 H 0.57093 0.11605 0.49980
 H175 H 0.47783 -0.18512 0.53984
 H176 H 0.50259 -0.18509 0.39646
 H177 H 0.52170 -0.05259 0.32720
 H178 H 0.52422 0.04765 0.32754
 H179 H 0.47420 0.17937 0.45205
 H180 H 0.47716 0.17881 0.54609
 H181 H 0.49673 0.10408 0.67114
 H182 H 0.51964 -0.04778 0.67001
 O183 O 0.40354 0.42134 -0.09890
 O184 O 0.45362 0.35587 -0.04742
 C185 C 0.41742 0.36827 -0.08463
 O186 O 0.59816 0.58605 -0.09431
 O187 O 0.54568 0.65132 -0.04519
 C188 C 0.58415 0.63904 -0.07999
 O189 O 0.59420 0.42198 -0.10009
 O190 O 0.54525 0.35621 -0.04801
 C191 C 0.58099 0.36880 -0.08563
 O192 O 0.39847 0.58547 -0.09363
 O193 O 0.45062 0.65112 -0.04525
 C194 C 0.41211 0.63855 -0.07968
 Zr195 Zr 0.43088 0.50344 -0.06904
 O196 O 0.43353 0.50954 -0.15657
 O197 O 0.34511 0.49712 -0.07236
 Zr198 Zr 0.56787 0.50382 -0.06817
 O199 O 0.57570 0.50544 -0.15544
 O200 O 0.65322 0.50270 -0.05802
 O201 O 0.49961 0.45109 -0.07996
 O202 O 0.49901 0.55518 -0.07890
 O203 O 0.39599 0.58482 0.09356
 O204 O 0.44993 0.65080 0.04744
 C205 C 0.41040 0.63819 0.08091
 O206 O 0.59453 0.42105 0.10114
 O207 O 0.54527 0.35577 0.04900
 C208 C 0.58122 0.36803 0.08645
 O209 O 0.59900 0.58548 0.09536
 O210 O 0.54543 0.65099 0.04760
 C211 C 0.58452 0.63855 0.08157
 O212 O 0.40334 0.41988 0.09900
 O213 O 0.45413 0.35475 0.04788
 C214 C 0.41750 0.36689 0.08464
 Zr215 Zr 0.43079 0.50296 0.07101
 O216 O 0.43667 0.50947 0.15838
 O217 O 0.34543 0.49681 0.07874
 Zr218 Zr 0.56736 0.50336 0.07066
 O219 O 0.56887 0.50872 0.15820
 O220 O 0.65312 0.50113 0.06542
 Zr221 Zr 0.49931 0.41518 0.00072
 Zr222 Zr 0.49821 0.59176 0.00117
 O223 O 0.49870 0.55486 0.08120
 O224 O 0.49927 0.45018 0.08168
 O225 O 0.41942 0.55536 0.00100
 O226 O 0.57764 0.45179 0.00109
 O227 O 0.42077 0.45234 0.00083
 O228 O 0.57755 0.55647 0.00131
 H229 H 0.49877 0.58217 -0.11119
 H230 H 0.60980 0.42543 0.00096
 H231 H 0.49847 0.58179 0.11346
 H232 H 0.38830 0.42666 0.00058
 H233 H 0.66879 0.50131 -0.09586
 H234 H 0.66669 0.50077 0.10410
 H235 H 0.54438 0.47777 0.17250
 H236 H 0.44931 0.47094 0.17266
 H237 H 0.32973 0.51538 0.04531
 H238 H 0.33005 0.52700 -0.04682
 H239 H 0.45297 0.47433 -0.17046
 H240 H 0.53958 0.51532 -0.17072
 C241 C 1.21708 0.20859 0.22065
 C242 C 1.17815 0.22152 0.18361
 C243 C 1.14920 0.17386 0.15489
 C244 C 1.11396 0.18406 0.11357
 H245 H 1.16919 0.26698 0.17333
 H246 H 1.15795 0.12898 0.16745
 H247 H 1.22537 0.16267 0.22978
 H248 H 1.10501 0.22883 0.10092
 C249 C 1.21844 0.70376 0.71175
 C250 C 1.17574 0.71916 0.68060
 C251 C 1.15030 0.67363 0.64617
 C252 C 1.10902 0.68427 0.61163
 H253 H 1.15941 0.76347 0.68151
 H254 H 1.16553 0.62899 0.65043
 H255 H 1.23467 0.65955 0.70673
 H256 H 1.09389 0.72872 0.60599
 C257 C 0.70256 0.22236 0.71994
 C258 C 0.71064 0.18041 0.68182
 C259 C 0.66395 0.15343 0.65316
 C260 C 0.67059 0.11121 0.61516
 H261 H 0.75153 0.16567 0.67238
 H262 H 0.62333 0.16827 0.66373
 H263 H 0.66120 0.23751 0.72654
 H264 H 0.71125 0.09668 0.60445
 C265 C 0.72799 0.70778 0.19958
 C266 C 0.68752 0.72389 0.16583
 C267 C 0.66194 0.67896 0.13109
 C268 C 0.61393 0.68781 0.10683
 H269 H 0.67001 0.76763 0.16833
 H270 H 0.68071 0.63573 0.12928
 H271 H 0.74508 0.66394 0.19462
 H272 H 0.59517 0.73103 0.10729
 C273 C 0.78707 -0.20737 0.21946
 C274 C 0.82907 -0.22071 0.18636
 C275 C 0.85932 -0.17333 0.15860
 C276 C 0.89645 -0.18389 0.11921
 H277 H 0.83935 -0.26628 0.17816
 H278 H 0.84926 -0.12832 0.16951
 H279 H 0.77703 -0.16136 0.22588
 H280 H 0.90633 -0.22878 0.10785
 C281 C 0.77877 0.29081 0.71078
 C282 C 0.82658 0.27901 0.68662
 C283 C 0.85151 0.32499 0.65167
 C284 C 0.89488 0.31578 0.61935
 H285 H 0.84726 0.23750 0.69344
 H286 H 0.83350 0.36860 0.65292
 H287 H 0.75870 0.33187 0.69972
 H288 H 0.91229 0.27208 0.61595
 C289 C 0.29563 -0.22889 0.71846
 C290 C 0.28799 -0.19019 0.67736
 C291 C 0.33481 -0.16476 0.64813
 C292 C 0.32809 -0.12447 0.60837
 H293 H 0.24720 -0.17652 0.66615
 H294 H 0.37540 -0.17818 0.66040
 H295 H 0.33692 -0.24268 0.72775
 H296 H 0.28741 -0.11094 0.59653
 C297 C 0.27561 0.29536 0.20478
 C298 C 0.31658 0.28026 0.17126
 C299 C 0.34230 0.32610 0.13750
 C300 C 0.38943 0.31746 0.11142
 H301 H 0.33380 0.23633 0.17267
 H302 H 0.32375 0.36948 0.13696
 H303 H 0.25890 0.33950 0.20090
 H304 H 0.40784 0.27408 0.11040
 C305 C 0.78411 0.20666 -0.21897
 C306 C 0.82208 0.22028 -0.18106
 C307 C 0.85198 0.17300 -0.15184
 C308 C 0.88721 0.18347 -0.11047
 H309 H 0.82968 0.26586 -0.17054
 H310 H 0.84418 0.12802 -0.16438
 H311 H 0.77754 0.16057 -0.22837
 H312 H 0.89547 0.22833 -0.09794
 C313 C 0.78012 0.70572 0.28521
 C314 C 0.82253 0.72034 0.31689
 C315 C 0.84738 0.67431 0.35153
 C316 C 0.88874 0.68441 0.38597
 H317 H 0.83923 0.76439 0.31610
 H318 H 0.83188 0.62989 0.34742
 H319 H 0.76346 0.66177 0.29003
 H320 H 0.90410 0.72868 0.39136
 C321 C 0.29751 0.22682 0.28189
 C322 C 0.28897 0.18706 0.32188
 C323 C 0.33528 0.16041 0.35129
 C324 C 0.32814 0.11879 0.38974
 H325 H 0.24794 0.17340 0.33186
 H326 H 0.37603 0.17415 0.34019
 H327 H 0.33899 0.24062 0.27405
 H328 H 0.28736 0.10500 0.40061
 C329 C 0.27199 0.70505 -0.20341
 C330 C 0.31051 0.72221 -0.16794
 C331 C 0.33578 0.67784 -0.13204
 C332 C 0.38252 0.68755 -0.10570
 H333 H 0.32650 0.76658 -0.16944
 H334 H 0.31795 0.63422 -0.13101
 H335 H 0.25667 0.66041 -0.19969
 H336 H 0.40039 0.73109 -0.10546
 C337 C 1.21344 -0.20901 -0.22302
 C338 C 1.17323 -0.22149 -0.18744
 C339 C 1.14426 -0.17366 -0.15886
 C340 C 1.10938 -0.18386 -0.11733
 H341 H 1.16379 -0.26687 -0.17753
 H342 H 1.15331 -0.12879 -0.17104
 H343 H 1.22258 -0.16322 -0.23162
 H344 H 1.10036 -0.22866 -0.10497
 C345 C 1.22022 0.29434 0.28818
 C346 C 1.17396 0.28062 0.31420
 C347 C 1.14783 0.32626 0.34823
 C348 C 1.10525 0.31612 0.38117
 H349 H 1.15549 0.23770 0.30963
 H350 H 1.16431 0.37042 0.34581
 H351 H 1.23832 0.33688 0.29704
 H352 H 1.08925 0.27199 0.38561
 C353 C 0.70402 -0.22535 0.27726
 C354 C 0.71153 -0.18447 0.31630
 C355 C 0.66468 -0.15854 0.34525
 C356 C 0.67127 -0.11709 0.38379
 H357 H 0.75221 -0.16961 0.32620
 H358 H 0.62418 -0.17330 0.33442
 H359 H 0.66295 -0.24074 0.26984
 H360 H 0.71188 -0.10271 0.39466
 C361 C 0.72423 0.29373 -0.20511
 C362 C 0.68195 0.28061 -0.17244
 C363 C 0.65571 0.32770 -0.14023
 C364 C 0.60898 0.31946 -0.11312
 H365 H 0.66421 0.23702 -0.17320
 H366 H 0.67385 0.37115 -0.14099
 H367 H 0.74168 0.33744 -0.20161
 H368 H 0.59120 0.27594 -0.11087
 C369 C 1.21743 0.20817 -0.22031
 C370 C 1.17967 0.22112 -0.18201
 C371 C 1.15087 0.17348 -0.15270
 C372 C 1.11612 0.18370 -0.11092
 H373 H 1.17147 0.26656 -0.17121
 H374 H 1.15906 0.12860 -0.16548
 H375 H 1.22476 0.16226 -0.23013
 H376 H 1.10749 0.22850 -0.09826
 C377 C 1.22096 0.70564 0.28801
 C378 C 1.17556 0.71914 0.32079
 C379 C 1.15219 0.67421 0.35256
 C380 C 1.10894 0.68311 0.38925
 H381 H 1.15858 0.76317 0.32123
 H382 H 1.16847 0.63003 0.34821
 H383 H 1.23878 0.66223 0.29458
 H384 H 1.09439 0.72746 0.39677
 C385 C 0.70291 0.22329 0.27995
 C386 C 0.71083 0.18136 0.31816
 C387 C 0.66405 0.15464 0.34672
 C388 C 0.67062 0.11216 0.38451
 H389 H 0.75165 0.16632 0.32760
 H390 H 0.62350 0.16975 0.33618
 H391 H 0.66164 0.23873 0.27324
 H392 H 0.71124 0.09741 0.39518
 C393 C 0.72794 0.70768 -0.19900
 C394 C 0.68674 0.72387 -0.16615
 C395 C 0.66105 0.67918 -0.13091
 C396 C 0.61337 0.68827 -0.10592
 H397 H 0.66898 0.76744 -0.16952
 H398 H 0.67966 0.63587 -0.12904
 H399 H 0.74529 0.66413 -0.19288
 H400 H 0.59480 0.73157 -0.10628
 C401 C 0.78752 -0.20767 -0.21897
 C402 C 0.82823 -0.22070 -0.18393
 C403 C 0.85809 -0.17320 -0.15579
 C404 C 0.89401 -0.18363 -0.11505
 H405 H 0.83770 -0.26620 -0.17437
 H406 H 0.84896 -0.12825 -0.16781
 H407 H 0.77831 -0.16172 -0.22696
 H408 H 0.90303 -0.22848 -0.10271
 C409 C 0.77935 0.29119 0.28880
 C410 C 0.82696 0.27897 0.31317
 C411 C 0.85211 0.32483 0.34776
 C412 C 0.89557 0.31548 0.37989
 H413 H 0.84734 0.23724 0.30671
 H414 H 0.83420 0.36849 0.34638
 H415 H 0.75957 0.33249 0.29943
 H416 H 0.91287 0.27173 0.38350
 C417 C 0.29486 -0.23060 0.28033
 C418 C 0.28935 -0.18892 0.32289
 C419 C 0.33498 -0.16557 0.34957
 C420 C 0.32976 -0.12249 0.39062
 H421 H 0.24915 -0.17367 0.33447
 H422 H 0.37515 -0.18028 0.33721
 H423 H 0.33568 -0.24719 0.27285
 H424 H 0.28929 -0.10839 0.40264
 C425 C 0.27609 0.29554 -0.20621
 C426 C 0.31750 0.28126 -0.17277
 C427 C 0.34327 0.32768 -0.13966
 C428 C 0.38963 0.31895 -0.11200
 H429 H 0.33477 0.23734 -0.17345
 H430 H 0.32517 0.37126 -0.14041
 H431 H 0.25925 0.33967 -0.20289
 H432 H 0.40750 0.27536 -0.10977
 C433 C 1.21498 -0.20995 0.22648
 C434 C 1.17325 -0.22024 0.18774
 C435 C 1.14648 -0.17324 0.16161
 C436 C 1.10840 -0.18181 0.11900
 H437 H 1.16348 -0.26501 0.17604
 H438 H 1.15706 -0.12875 0.17359
 H439 H 1.22315 -0.16434 0.23684
 H440 H 1.09825 -0.22636 0.10684
 C441 C 1.21988 0.29324 0.71083
 C442 C 1.17319 0.27956 0.68548
 C443 C 1.14683 0.32510 0.65112
 C444 C 1.10423 0.31491 0.61810
 H445 H 1.15456 0.23681 0.69081
 H446 H 1.16325 0.36929 0.65332
 H447 H 1.23804 0.33558 0.70113
 H448 H 1.08832 0.27075 0.61378
 C449 C 0.70491 -0.22656 0.72204
 C450 C 0.71199 -0.18512 0.68325
 C451 C 0.66480 -0.15996 0.65385
 C452 C 0.67085 -0.11821 0.61531
 H453 H 0.75242 -0.16907 0.67401
 H454 H 0.62446 -0.17543 0.66445
 H455 H 0.66406 -0.24309 0.72853
 H456 H 0.71131 -0.10319 0.60464
 C457 C 0.72510 0.29380 0.20454
 C458 C 0.68330 0.28006 0.17157
 C459 C 0.65687 0.32684 0.13919
 C460 C 0.60956 0.31858 0.11329
 H461 H 0.66585 0.23634 0.17254
 H462 H 0.67517 0.37022 0.13919
 H463 H 0.74218 0.33770 0.20106
 H464 H 0.59152 0.27515 0.11177
 C465 C 0.78445 0.20680 0.21937
 C466 C 0.82339 0.22039 0.18255
 C467 C 0.85329 0.17311 0.15377
 C468 C 0.88909 0.18363 0.11301
 H469 H 0.83179 0.26599 0.17262
 H470 H 0.84484 0.12811 0.16597
 H471 H 0.77690 0.16070 0.22807
 H472 H 0.89780 0.22851 0.10070
 C473 C 0.78196 0.70475 0.71629
 C474 C 0.82220 0.72022 0.68194
 C475 C 0.84766 0.67405 0.64779
 C476 C 0.88721 0.68447 0.61109
 H477 H 0.83657 0.76518 0.68008
 H478 H 0.83402 0.62919 0.65410
 H479 H 0.76760 0.65963 0.71415
 H480 H 0.90101 0.72905 0.60380
 C481 C 0.29746 0.22582 0.71753
 C482 C 0.28889 0.18597 0.67767
 C483 C 0.33522 0.15929 0.64816
 C484 C 0.32812 0.11826 0.60919
 H485 H 0.24785 0.17239 0.66770
 H486 H 0.37599 0.17268 0.65954
 H487 H 0.33899 0.23947 0.72528
 H488 H 0.28732 0.10484 0.59801
 C489 C 0.26953 0.70726 0.20529
 C490 C 0.31317 0.72072 0.17017
 C491 C 0.33637 0.67607 0.13822
 C492 C 0.38224 0.68508 0.10523
 H493 H 0.33150 0.76402 0.17112
 H494 H 0.31959 0.63209 0.14137
 H495 H 0.24953 0.66530 0.19783
 H496 H 0.39703 0.72949 0.09886
   
