data_POSCAR
  _audit_creation_date              2014-09-24
  _audit_creation_method            'ToBaCCo'
  _symmetry_space_group_name_H-M    'P1'
  _symmetry_Int_Tables_number       1
  _symmetry_cell_setting            triclinic
  loop_
  _symmetry_equiv_pos_as_xyz
 x,y,z
_cell_length_a 36.8566
_cell_length_b 38.8294
_cell_length_c 38.7820
_cell_angle_alpha 89.780100
_cell_angle_beta 90.533300
_cell_angle_gamma 89.769900
loop_
  _atom_site_label
  _atom_site_type_symbol
  _atom_site_fract_x
  _atom_site_fract_y
  _atom_site_fract_z
C1 C 0.26009 0.36208 -0.04019
 C2 C 0.24946 0.37911 -0.01024
 C3 C 0.26246 0.36983 0.02247
 C4 C 0.28833 0.34297 0.02559
 C5 C 0.30112 0.32631 -0.00460
 C6 C 0.28669 0.33561 -0.03751
 C7 C 0.29711 0.31636 -0.06638
 C8 C 0.32258 0.29002 -0.06355
 C9 C 0.33936 0.28183 -0.03178
 C10 C 0.32723 0.29926 -0.00170
 C11 C 0.30070 0.33146 0.05799
 C12 C 0.32592 0.30487 0.06086
 C13 C 0.33981 0.28866 0.03143
 C14 C 0.36463 0.26099 0.03432
 C15 C 0.37706 0.24484 0.00455
 C16 C 0.36538 0.25465 -0.02864
 H17 H 0.28480 0.32068 -0.09145
 H18 H 0.32763 0.27533 -0.08658
 H19 H 0.29042 0.34232 0.08161
 H20 H 0.33389 0.29677 0.08654
 H21 H 0.23195 0.40145 -0.01243
 H22 H 0.39756 0.22491 0.00757
 C23 C 0.73999 0.63396 0.04208
 C24 C 0.75649 0.62272 0.01188
 C25 C 0.74699 0.63616 -0.02073
 C26 C 0.71973 0.66237 -0.02266
 C27 C 0.70260 0.67376 0.00806
 C28 C 0.71305 0.65970 0.04045
 C29 C 0.69660 0.67194 0.07060
 C30 C 0.66995 0.69724 0.06906
 C31 C 0.65855 0.71116 0.03729
 C32 C 0.67518 0.69961 0.00653
 C33 C 0.71065 0.67918 -0.05386
 C34 C 0.68328 0.70402 -0.05543
 C35 C 0.66465 0.71410 -0.02566
 C36 C 0.63633 0.73886 -0.02706
 C37 C 0.61967 0.74928 0.00350
 C38 C 0.63109 0.73656 0.03556
 H39 H 0.70437 0.66221 0.09581
 H40 H 0.65831 0.70572 0.09311
 H41 H 0.72502 0.67389 -0.07741
 H42 H 0.67726 0.71571 -0.08022
 H43 H 0.77519 0.60125 0.01384
 H44 H 0.59706 0.76715 0.00240
 C45 C 0.62380 0.28026 0.95106
 C46 C 0.60855 0.26421 0.97959
 C47 C 0.61636 0.27421 1.01380
 C48 C 0.63869 0.30398 1.01856
 C49 C 0.65580 0.31945 0.98951
 C50 C 0.64847 0.30729 0.95577
 C51 C 0.66588 0.32246 0.92751
 C52 C 0.69023 0.34929 0.93218
 C53 C 0.69745 0.36248 0.96522
 C54 C 0.67994 0.34757 0.99411
 C55 C 0.64274 0.32034 1.05073
 C56 C 0.66733 0.34709 1.05546
 C57 C 0.68687 0.36047 1.02761
 C58 C 0.71253 0.38700 1.03223
 C59 C 0.72905 0.40189 1.00353
 C60 C 0.72202 0.38997 0.97017
 H61 H 0.66109 0.31344 0.90149
 H62 H 0.70332 0.35955 0.90953
 H63 H 0.62630 0.31342 1.07256
 H64 H 0.67026 0.35780 1.08107
 H65 H 0.59142 0.24227 0.97436
 H66 H 0.74789 0.42290 1.00736
 C67 C 0.27353 0.61964 1.04006
 C68 C 0.26357 0.60151 1.01045
 C69 C 0.27662 0.61017 0.97787
 C70 C 0.30176 0.63737 0.97463
 C71 C 0.31371 0.65517 1.00464
 C72 C 0.29954 0.64630 1.03746
 C73 C 0.30974 0.66590 1.06628
 C74 C 0.33394 0.69310 1.06325
 C75 C 0.34981 0.70151 1.03142
 C76 C 0.33854 0.68299 1.00157
 C77 C 0.31411 0.64816 0.94221
 C78 C 0.33811 0.67549 0.93917
 C79 C 0.35067 0.69320 0.96842
 C80 C 0.37384 0.72183 0.96528
 C81 C 0.38529 0.73927 0.99478
 C82 C 0.37422 0.72969 1.02798
 H83 H 0.29830 0.66100 1.09142
 H84 H 0.33885 0.70825 1.08611
 H85 H 0.30476 0.63608 0.91870
 H86 H 0.34625 0.68298 0.91349
 H87 H 0.24554 0.57964 1.01278
 H88 H 0.40484 0.75971 0.99159
 C89 C 0.03930 0.27396 0.37834
 C90 C 0.00845 0.26561 0.39706
 C91 C -0.02631 0.27773 0.38772
 C92 C -0.02961 0.29997 0.35835
 C93 C 0.00200 0.30929 0.33958
 C94 C 0.03643 0.29602 0.34960
 C95 C 0.06714 0.30455 0.33026
 C96 C 0.06446 0.32654 0.30207
 C97 C 0.03102 0.34123 0.29226
 C98 C -0.00069 0.33205 0.31073
 C99 C -0.06299 0.31467 0.34808
 C100 C -0.06587 0.33550 0.31894
 C101 C -0.03508 0.34516 0.30013
 C102 C -0.03770 0.36647 0.27028
 C103 C -0.00583 0.37604 0.25335
 C104 C 0.02837 0.36428 0.26400
 H105 H 0.09367 0.29416 0.33664
 H106 H 0.08895 0.33144 0.28778
 H107 H -0.08753 0.31071 0.36243
 H108 H -0.09279 0.34402 0.31157
 H109 H 0.01172 0.24779 0.41848
 H110 H -0.00730 0.39497 0.23282
 C111 C 0.04161 0.72593 0.61944
 C112 C 0.00882 0.72962 0.60193
 C113 C -0.02356 0.71457 0.61370
 C114 C -0.02154 0.69219 0.64300
 C115 C 0.01229 0.68746 0.66051
 C116 C 0.04371 0.70497 0.64892
 C117 C 0.07678 0.70063 0.66661
 C118 C 0.07969 0.67794 0.69408
 C119 C 0.04961 0.65892 0.70496
 C120 C 0.01520 0.66430 0.68895
 C121 C -0.05102 0.67175 0.65316
 C122 C -0.04803 0.64867 0.68080
 C123 C -0.01568 0.64544 0.70024
 C124 C -0.01186 0.62159 0.72837
 C125 C 0.02339 0.61560 0.74167
 C126 C 0.05350 0.63397 0.73094
 H127 H 0.10100 0.71421 0.65889
 H128 H 0.10600 0.67506 0.70644
 H129 H -0.07624 0.67203 0.63869
 H130 H -0.07093 0.63208 0.68541
 H131 H 0.00860 0.74630 0.57945
 H132 H 0.02804 0.59661 0.76170
 C133 C 1.03212 0.61133 0.28500
 C134 C 0.99910 0.59625 0.27571
 C135 C 0.96609 0.61046 0.28555
 C136 C 0.96571 0.63890 0.30804
 C137 C 0.99902 0.65366 0.31920
 C138 C 1.03241 0.64021 0.30708
 C139 C 1.06482 0.65678 0.31619
 C140 C 1.06462 0.68579 0.33728
 C141 C 1.03203 0.69894 0.35089
 C142 C 0.99879 0.68291 0.34112
 C143 C 0.93288 0.65357 0.31874
 C144 C 0.93259 0.68193 0.34036
 C145 C 0.96512 0.69681 0.35208
 C146 C 0.96470 0.72583 0.37378
 C147 C 0.99737 0.74103 0.38352
 C148 C 1.03110 0.72900 0.37189
 H149 H 1.09064 0.64772 0.30662
 H150 H 1.09039 0.69805 0.34204
 H151 H 0.90700 0.64335 0.31035
 H152 H 0.90643 0.69243 0.34730
 H153 H 0.99909 0.57400 0.25886
 H154 H 0.99663 0.76186 0.40198
 C155 C 1.03025 0.39434 0.70977
 C156 C 0.99919 0.40210 0.72878
 C157 C 0.96661 0.38442 0.72376
 C158 C 0.96495 0.35746 0.69938
 C159 C 0.99617 0.34917 0.67979
 C160 C 1.02864 0.36816 0.68449
 C161 C 1.05816 0.36131 0.66294
 C162 C 1.05670 0.33509 0.63865
 C163 C 1.02607 0.31370 0.63550
 C164 C 0.99486 0.32191 0.65537
 C165 C 0.93317 0.33815 0.69457
 C166 C 0.93178 0.31163 0.67061
 C167 C 0.96214 0.30330 0.65060
 C168 C 0.96073 0.27655 0.62619
 C169 C 0.99156 0.26842 0.60723
 C170 C 1.02458 0.28602 0.61138
 H171 H 1.08252 0.37673 0.66402
 H172 H 1.07972 0.33260 0.62186
 H173 H 0.90907 0.34318 0.70947
 H174 H 0.90663 0.29753 0.66810
 H175 H 1.00043 0.42218 0.74813
 H176 H 0.98975 0.24689 0.58958
 C177 C 0.26754 -0.02031 0.37235
 C178 C 0.25876 0.01144 0.38740
 C179 C 0.27618 0.04186 0.37830
 C180 C 0.30398 0.04119 0.35362
 C181 C 0.31384 0.00948 0.33810
 C182 C 0.29551 -0.02139 0.34722
 C183 C 0.30342 -0.05157 0.32867
 C184 C 0.33003 -0.05209 0.30352
 C185 C 0.34987 -0.02240 0.29531
 C186 C 0.34084 0.00902 0.31210
 C187 C 0.32123 0.07167 0.34325
 C188 C 0.34727 0.07128 0.31761
 C189 C 0.35729 0.04036 0.30164
 C190 C 0.38235 0.04009 0.27449
 C191 C 0.39174 0.00899 0.25905
 C192 C 0.37604 -0.02237 0.26856
 H193 H 0.28821 -0.07498 0.33220
 H194 H 0.33365 -0.07586 0.28952
 H195 H 0.31421 0.09630 0.35438
 H196 H 0.35916 0.09559 0.31010
 H197 H 0.23864 0.01250 0.40761
 H198 H 0.41279 0.00939 0.23977
 C199 C 0.62017 0.03328 0.72141
 C200 C 0.60224 0.00393 0.73283
 C201 C 0.61358 -0.02958 0.72389
 C202 C 0.64233 -0.03303 0.69966
 C203 C 0.66017 -0.00301 0.68715
 C204 C 0.64945 0.03009 0.69867
 C205 C 0.66821 0.05928 0.68717
 C206 C 0.69630 0.05630 0.66377
 C207 C 0.70628 0.02408 0.65040
 C208 C 0.68860 -0.00596 0.66276
 C209 C 0.65223 -0.06511 0.68568
 C210 C 0.68078 -0.06809 0.66261
 C211 C 0.69935 -0.03888 0.65080
 C212 C 0.72811 -0.04161 0.62702
 C213 C 0.74410 -0.01172 0.61407
 C214 C 0.73381 0.02099 0.62537
 H215 H 0.66123 0.08483 0.69610
 H216 H 0.71010 0.07967 0.65642
 H217 H 0.63746 -0.08832 0.69159
 H218 H 0.68766 -0.09360 0.65358
 H219 H 0.58047 0.00763 0.75110
 H220 H 0.76446 -0.01390 0.59420
 C221 C 0.37709 1.01668 0.73730
 C222 C 0.38562 0.98240 0.74652
 C223 C 0.36841 0.95416 0.73177
 C224 C 0.34218 0.95925 0.70576
 C225 C 0.33375 0.99317 0.69448
 C226 C 0.35154 1.02204 0.70969
 C227 C 0.34493 1.05475 0.69497
 C228 C 0.31814 1.05975 0.66985
 C229 C 0.29904 1.03182 0.65589
 C230 C 0.30787 0.99809 0.66742
 C231 C 0.32431 0.93114 0.69069
 C232 C 0.29903 0.93601 0.66438
 C233 C 0.29072 0.96920 0.65204
 C234 C 0.26539 0.97420 0.62488
 C235 C 0.25605 1.00763 0.61472
 C236 C 0.27164 1.03647 0.63043
 H237 H 0.36092 1.07693 0.70181
 H238 H 0.31338 1.08576 0.66081
 H239 H 0.32974 0.90500 0.69912
 H240 H 0.28591 0.91340 0.65397
 H241 H 0.40523 0.97701 0.76678
 H242 H 0.23669 1.01144 0.59387
 C243 C 0.62910 0.96706 0.27152
 C244 C 0.61334 0.99814 0.26131
 C245 C 0.62704 1.03015 0.27201
 C246 C 0.65759 1.03052 0.29500
 C247 C 0.67221 0.99878 0.30755
 C248 C 0.65805 0.96704 0.29544
 C249 C 0.67316 0.93597 0.30748
 C250 C 0.70069 0.93584 0.33209
 C251 C 0.71445 0.96677 0.34544
 C252 C 0.70077 0.99865 0.33263
 C253 C 0.67278 1.06131 0.30744
 C254 C 0.70208 1.06111 0.33034
 C255 C 0.71571 1.03023 0.34461
 C256 C 0.74484 1.02959 0.36922
 C257 C 0.75657 0.99754 0.38224
 C258 C 0.74188 0.96648 0.37102
 H259 H 0.66354 0.91134 0.29825
 H260 H 0.71126 0.91110 0.34041
 H261 H 0.66233 1.08623 0.29999
 H262 H 0.71359 1.08581 0.33658
 H263 H 0.59062 0.99716 0.24337
 H264 H 0.77613 0.99682 0.40323
 O265 O 0.87136 0.81814 0.46785
 O266 O 0.82630 0.86146 0.53999
 O267 O 0.87626 0.81092 0.53152
 O268 O 0.82953 0.86770 0.47090
 O269 O 0.78293 0.83212 0.46918
 O270 O 0.82958 0.77540 0.53344
 O271 O 0.78016 0.82570 0.53613
 O272 O 0.82740 0.77957 0.46680
 Cu273 Cu 0.85437 0.84388 0.50450
 Cu274 Cu 0.80022 0.79962 0.50149
 C275 C 0.85713 0.79117 0.45528
 C276 C 0.79515 0.85173 0.54963
 C277 C 0.86208 0.78302 0.54167
 C278 C 0.79892 0.85917 0.45861
 O279 O 0.13366 0.17681 0.46746
 O280 O 0.17496 0.13461 0.54290
 O281 O 0.12375 0.18402 0.52968
 O282 O 0.18030 0.13182 0.47346
 O283 O 0.22424 0.17025 0.47713
 O284 O 0.16849 0.22098 0.53760
 O285 O 0.21943 0.17241 0.54392
 O286 O 0.17468 0.21809 0.47118
 Cu287 Cu 0.14988 0.15201 0.50504
 Cu288 Cu 0.20119 0.19934 0.50816
 C289 C 0.14677 0.20504 0.45679
 C290 C 0.20470 0.14532 0.55550
 C291 C 0.13564 0.21217 0.54176
 C292 C 0.21115 0.14282 0.46439
 O293 O 0.16357 0.88507 0.45985
 O294 O 0.12166 0.83208 0.52662
 O295 O 0.16513 0.88341 0.52659
 O296 O 0.11872 0.83388 0.45942
 O297 O 0.16422 0.79679 0.45752
 O298 O 0.21208 0.84805 0.52393
 O299 O 0.16754 0.79543 0.52452
 O300 O 0.20960 0.84869 0.45696
 Cu301 Cu 0.13756 0.86214 0.49318
 Cu302 Cu 0.19306 0.81854 0.49053
 C303 C 0.19381 0.87621 0.44714
 C304 C 0.13745 0.80489 0.53716
 C305 C 0.19659 0.87438 0.53663
 C306 C 0.13318 0.80694 0.44708
 O307 O 0.84257 0.12232 0.46635
 O308 O 0.87860 0.16852 0.54161
 O309 O 0.83746 0.11615 0.53330
 O310 O 0.88616 0.17527 0.47636
 O311 O 0.83780 0.20896 0.47231
 O312 O 0.79000 0.15102 0.53257
 O313 O 0.83227 0.20473 0.53875
 O314 O 0.79410 0.15584 0.46549
 Cu315 Cu 0.86583 0.14187 0.50409
 Cu316 Cu 0.80863 0.18349 0.50194
 C317 C 0.81188 0.13058 0.45351
 C318 C 0.86195 0.19490 0.55264
 C319 C 0.80585 0.12386 0.54345
 C320 C 0.87076 0.20251 0.46542
 O321 O 0.45825 0.86314 0.82744
 O322 O 0.53583 0.82624 0.87486
 O323 O 0.52425 0.87532 0.82642
 O324 O 0.46302 0.81987 0.87422
 O325 O 0.47018 0.77857 0.83578
 O326 O 0.53622 0.83364 0.78950
 O327 O 0.54057 0.78444 0.83686
 O328 O 0.46639 0.82480 0.78625
 Cu329 Cu 0.49636 0.84932 0.85549
 Cu330 Cu 0.50423 0.80115 0.80819
 C331 C 0.44953 0.85064 0.79835
 C332 C 0.55083 0.79870 0.86460
 C333 C 0.53980 0.86464 0.79946
 C334 C 0.45502 0.79033 0.86267
 O335 O 0.53617 0.16584 0.11450
 O336 O 0.46988 0.12671 0.17105
 O337 O 0.46493 0.16819 0.12382
 O338 O 0.53651 0.12042 0.16901
 O339 O 0.54749 0.16500 0.20278
 O340 O 0.47366 0.21280 0.15807
 O341 O 0.47784 0.16839 0.20909
 O342 O 0.54432 0.20930 0.15017
 Cu343 Cu 0.50308 0.14173 0.13994
 Cu344 Cu 0.51203 0.19345 0.18345
 C345 C 0.55031 0.19464 0.12155
 C346 C 0.46255 0.14052 0.19972
 C347 C 0.45609 0.19811 0.13391
 C348 C 0.55238 0.13363 0.19493
 O349 O 0.47161 0.16406 0.88061
 O350 O 0.54223 0.12654 0.82644
 O351 O 0.54037 0.17635 0.86943
 O352 O 0.47483 0.11483 0.83498
 O353 O 0.45716 0.15221 0.79504
 O354 O 0.52656 0.21289 0.82753
 O355 O 0.52576 0.16094 0.78358
 O356 O 0.45810 0.20216 0.84004
 Cu357 Cu 0.50847 0.14201 0.85733
 Cu358 Cu 0.49052 0.18593 0.80740
 C359 C 0.45300 0.18958 0.86988
 C360 C 0.54537 0.13650 0.79547
 C361 C 0.54518 0.20482 0.85410
 C362 C 0.45529 0.12263 0.80896
 O363 O 0.53447 0.87897 0.17143
 O364 O 0.46473 0.83441 0.12081
 O365 O 0.46406 0.88204 0.16798
 O366 O 0.53475 0.83250 0.12462
 O367 O 0.53089 0.79175 0.16432
 O368 O 0.46033 0.84252 0.20882
 O369 O 0.46099 0.79404 0.16084
 O370 O 0.53064 0.83945 0.21231
 Cu371 Cu 0.49958 0.86106 0.14225
 Cu372 Cu 0.49520 0.81291 0.19072
 C373 C 0.54452 0.86690 0.20043
 C374 C 0.45174 0.80616 0.13157
 C375 C 0.45064 0.87135 0.19605
 C376 C 0.54472 0.80361 0.13683
 O377 O 0.83543 0.47538 0.88222
 O378 O 0.89146 0.53487 0.83298
 O379 O 0.84453 0.54171 0.88317
 O380 O 0.88291 0.46977 0.83480
 O381 O 0.84052 0.47621 0.79468
 O382 O 0.79967 0.54707 0.84545
 O383 O 0.84740 0.54321 0.79481
 O384 O 0.79150 0.48084 0.84350
 Cu385 Cu 0.86783 0.50530 0.86232
 Cu386 Cu 0.81535 0.51256 0.81564
 C387 C 0.80401 0.46764 0.87124
 C388 C 0.87969 0.54841 0.80520
 C389 C 0.81509 0.55595 0.87347
 C390 C 0.86877 0.46091 0.80628
 O391 O 0.12187 0.52848 0.17593
 O392 O 0.16723 0.46733 0.11976
 O393 O 0.11974 0.46225 0.16783
 O394 O 0.16888 0.53355 0.12767
 O395 O 0.21353 0.52809 0.16560
 O396 O 0.16353 0.45662 0.20673
 O397 O 0.21226 0.46159 0.15733
 O398 O 0.16528 0.52300 0.21523
 Cu399 Cu 0.14008 0.49849 0.14399
 Cu400 Cu 0.19316 0.49169 0.19015
 C401 C 0.13533 0.53609 0.20512
 C402 C 0.19751 0.45422 0.12852
 C403 C 0.13303 0.44742 0.19430
 C404 C 0.19954 0.54292 0.13936
 O405 O 0.86499 0.45785 0.17897
 O406 O 0.82142 0.53028 0.13459
 O407 O 0.86892 0.52459 0.18310
 O408 O 0.81445 0.46367 0.13238
 O409 O 0.77168 0.46523 0.17189
 O410 O 0.82687 0.52535 0.22331
 O411 O 0.77837 0.53162 0.17386
 O412 O 0.82334 0.45906 0.21952
 Cu413 Cu 0.84668 0.49381 0.15329
 Cu414 Cu 0.79569 0.49527 0.20115
 C415 C 0.85223 0.44645 0.20698
 C416 C 0.79265 0.54336 0.14653
 C417 C 0.85721 0.53532 0.21183
 C418 C 0.78357 0.45449 0.14326
 O419 O 0.17753 0.52159 0.87363
 O420 O 0.12707 0.47349 0.80842
 O421 O 0.16884 0.45647 0.86136
 O422 O 0.13795 0.53736 0.82159
 O423 O 0.18468 0.53598 0.78636
 O424 O 0.21837 0.45736 0.82991
 O425 O 0.17597 0.47050 0.77597
 O426 O 0.22587 0.52289 0.84041
 Cu427 Cu 0.14804 0.49680 0.84464
 Cu428 Cu 0.20613 0.49646 0.80474
 C429 C 0.20987 0.53104 0.86815
 C430 C 0.14254 0.46445 0.78085
 C431 C 0.19950 0.44384 0.85356
 C432 C 0.15567 0.55015 0.79682
 C433 C 0.20993 0.39488 0.05334
 C434 C 0.24736 0.38920 0.05210
 C435 C 0.26936 0.40758 0.07565
 C436 C 0.25348 0.42797 0.10169
 C437 C 0.21539 0.43105 0.10390
 C438 C 0.19443 0.41532 0.07831
 C439 C 0.16256 0.39199 0.08177
 C440 C 0.17968 0.36953 0.05428
 H441 H 0.29863 0.40615 0.07394
 H442 H 0.27085 0.44160 0.11965
 H443 H 0.13691 0.40455 0.07303
 H444 H 0.16136 0.37935 0.10752
 H445 H 0.16390 0.36918 0.02972
 H446 H 0.18852 0.34383 0.06402
 C447 C 0.78296 0.62238 0.09137
 C448 C 0.74979 0.61643 0.07476
 C449 C 0.72667 0.59145 0.08919
 C450 C 0.73939 0.56945 0.11577
 C451 C 0.77550 0.57197 0.12772
 C452 C 0.79566 0.60043 0.11690
 C453 C 0.83419 0.60455 0.10615
 C454 C 0.82021 0.62895 0.07814
 H455 H 0.70007 0.58705 0.07799
 H456 H 0.72245 0.54836 0.12419
 H457 H 0.84619 0.58053 0.09563
 H458 H 0.85082 0.61768 0.12617
 H459 H 0.82446 0.61899 0.05175
 H460 H 0.82873 0.65608 0.08219
 C461 C 0.77887 0.40022 0.93680
 C462 C 0.74173 0.40593 0.94118
 C463 C 0.72379 0.42714 0.91673
 C464 C 0.74377 0.44557 0.89184
 C465 C 0.78200 0.44335 0.89140
 C466 C 0.79843 0.41850 0.91271
 C467 C 0.83160 0.41919 0.93507
 C468 C 0.81006 0.39911 0.96166
 H469 H 0.69473 0.43101 0.91821
 H470 H 0.72962 0.46352 0.87498
 H471 H 0.83879 0.44555 0.94382
 H472 H 0.85429 0.40408 0.92391
 H473 H 0.80534 0.41420 0.98543
 H474 H 0.82041 0.37249 0.96588
 C475 C 0.22356 0.58768 0.94538
 C476 C 0.26120 0.59088 0.94826
 C477 C 0.28278 0.57107 0.92584
 C478 C 0.26650 0.55172 0.89907
 C479 C 0.22841 0.55125 0.89501
 C480 C 0.20762 0.56834 0.91958
 C481 C 0.17766 0.59389 0.91438
 C482 C 0.19523 0.61515 0.94272
 H483 H 0.31203 0.57093 0.92874
 H484 H 0.28356 0.53727 0.88169
 H485 H 0.15086 0.58323 0.92172
 H486 H 0.17840 0.60647 0.88859
 H487 H 0.17847 0.61682 0.96631
 H488 H 0.20627 0.64010 0.93342
 C489 C 0.10024 0.27612 0.40757
 C490 C 0.07391 0.25774 0.38916
 C491 C 0.07863 0.22194 0.38591
 C492 C 0.10555 0.20473 0.40534
 C493 C 0.12808 0.22313 0.42832
 C494 C 0.12700 0.25916 0.42666
 C495 C 0.12508 0.28498 0.45507
 C496 C 0.09582 0.30346 0.43412
 H497 H 0.05929 0.20696 0.37113
 H498 H 0.10631 0.17684 0.40492
 H499 H 0.15055 0.30004 0.45755
 H500 H 0.11496 0.27381 0.47959
 H501 H 0.10446 0.32913 0.42451
 H502 H 0.06871 0.30292 0.44646
 C503 C 0.07648 0.78024 0.61030
 C504 C 0.07315 0.74470 0.60580
 C505 C 0.09830 0.72818 0.58420
 C506 C 0.12207 0.74780 0.56369
 C507 C 0.12027 0.78410 0.56415
 C508 C 0.09921 0.79945 0.58976
 C509 C 0.07397 0.82965 0.58937
 C510 C 0.04903 0.80856 0.61224
 H511 H 0.09734 0.70052 0.58090
 H512 H 0.13897 0.73472 0.54513
 H513 H 0.06204 0.83496 0.56345
 H514 H 0.08579 0.85235 0.60268
 H515 H 0.02277 0.80230 0.59952
 H516 H 0.04675 0.81904 0.63877
 C517 C 0.91947 0.77402 0.38137
 C518 C 0.93075 0.74016 0.38815
 C519 C 0.90965 0.72072 0.41135
 C520 C 0.88212 0.73671 0.43076
 C521 C 0.87623 0.77252 0.42804
 C522 C 0.89316 0.78973 0.40092
 C523 C 0.90952 0.82453 0.39686
 C524 C 0.93859 0.80733 0.37503
 H525 H 0.91639 0.69401 0.41651
 H526 H 0.86842 0.72190 0.45040
 H527 H 0.92034 0.83515 0.42145
 H528 H 0.89170 0.84217 0.38169
 H529 H 0.96592 0.80906 0.38704
 H530 H 0.93723 0.81518 0.34745
 C531 C 0.89785 0.27089 0.60161
 C532 C 0.92761 0.25621 0.61899
 C533 C 0.92860 0.22006 0.62223
 C534 C 0.90423 0.19955 0.60327
 C535 C 0.87838 0.21489 0.58094
 C536 C 0.87353 0.25063 0.58313
 C537 C 0.86998 0.27693 0.55506
 C538 C 0.89661 0.29900 0.57528
 H539 H 0.95075 0.20769 0.63609
 H540 H 0.90811 0.17188 0.60338
 H541 H 0.84223 0.28821 0.55366
 H542 H 0.88085 0.26781 0.53004
 H543 H 0.88419 0.32295 0.58554
 H544 H 0.92297 0.30257 0.56203
 C545 C 0.39105 0.07780 0.22415
 C546 C 0.39780 0.07157 0.25907
 C547 C 0.42600 0.09002 0.27533
 C548 C 0.44539 0.11537 0.25697
 C549 C 0.43710 0.12217 0.22203
 C550 C 0.41025 0.10239 0.20608
 C551 C 0.37709 0.11437 0.18708
 C552 C 0.35611 0.08733 0.20688
 H553 H 0.43375 0.08400 0.30168
 H554 H 0.46797 0.12822 0.26943
 H555 H 0.37865 0.10896 0.15901
 H556 H 0.36928 0.14123 0.19369
 H557 H 0.34566 0.06625 0.19026
 H558 H 0.33605 0.09838 0.22506
 C559 C 0.62069 0.07721 0.76819
 C560 C 0.60857 0.06674 0.73567
 C561 C 0.58110 0.08647 0.71946
 C562 C 0.56274 0.11246 0.73791
 C563 C 0.57109 0.11829 0.77301
 C564 C 0.60214 0.10203 0.78657
 C565 C 0.60946 0.08415 0.82016
 C566 C 0.63008 0.05705 0.79990
 H567 H 0.57162 0.07970 0.69387
 H568 H 0.53951 0.12501 0.72597
 H569 H 0.58458 0.07374 0.83230
 H570 H 0.62721 0.09956 0.83748
 H571 H 0.61709 0.03128 0.80065
 H572 H 0.65973 0.05707 0.80538
 C573 C 0.37021 0.90794 0.77711
 C574 C 0.37948 0.91961 0.74418
 C575 C 0.40510 0.90011 0.72573
 C576 C 0.42527 0.87382 0.74244
 C577 C 0.42068 0.86758 0.77799
 C578 C 0.39066 0.88290 0.79374
 C579 C 0.38500 0.89875 0.82832
 C580 C 0.36208 0.92610 0.81008
 H581 H 0.41229 0.90760 0.69975
 H582 H 0.44733 0.86166 0.72877
 H583 H 0.41025 0.90941 0.83988
 H584 H 0.36898 0.88188 0.84563
 H585 H 0.37397 0.95225 0.81193
 H586 H 0.33284 0.92464 0.81668
 C587 C 0.62149 0.92668 0.22185
 C588 C 0.61447 0.93515 0.25616
 C589 C 0.58984 0.91425 0.27428
 C590 C 0.56904 0.88926 0.25665
 C591 C 0.57212 0.88551 0.22060
 C592 C 0.60064 0.90276 0.20449
 C593 C 0.60322 0.92186 0.17112
 C594 C 0.62644 0.94812 0.19018
 H595 H 0.58450 0.91921 0.30123
 H596 H 0.54815 0.87557 0.27050
 H597 H 0.57677 0.93264 0.16216
 H598 H 0.61853 0.90712 0.15146
 H599 H 0.61341 0.97389 0.19162
 H600 H 0.65513 0.94827 0.18159
 C601 C 0.39157 0.25433 0.91282
 C602 C 0.38062 0.23705 0.94286
 C603 C 0.38884 0.20138 0.94476
 C604 C 0.41081 0.18544 0.91999
 C605 C 0.42517 0.20457 0.89245
 C606 C 0.41298 0.23848 0.88815
 C607 C 0.43411 0.27056 0.88179
 C608 C 0.41070 0.28791 0.90878
 H609 H 0.37948 0.18592 0.96619
 H610 H 0.41804 0.15858 0.92345
 H611 H 0.42947 0.28091 0.85535
 H612 H 0.46310 0.26803 0.88969
 H613 H 0.39264 0.30826 0.89783
 H614 H 0.42605 0.29542 0.93238
 C615 C 0.62478 0.78785 0.93138
 C616 C 0.62197 0.75290 0.93995
 C617 C 0.60210 0.73178 0.91711
 C618 C 0.58123 0.74650 0.89006
 C619 C 0.57960 0.78260 0.88580
 C620 C 0.60410 0.80225 0.90512
 C621 C 0.60111 0.83609 0.92294
 C622 C 0.62399 0.82034 0.95192
 H623 H 0.60021 0.70436 0.92197
 H624 H 0.56369 0.73000 0.87490
 H625 H 0.57296 0.84228 0.93096
 H626 H 0.61530 0.85694 0.90879
 H627 H 0.60867 0.81819 0.97624
 H628 H 0.65128 0.83218 0.95442
 C629 C 0.39355 0.78390 0.05506
 C630 C 0.38893 0.74814 0.05624
 C631 C 0.40370 0.73160 0.08608
 C632 C 0.42245 0.75058 0.11198
 C633 C 0.42723 0.78663 0.10876
 C634 C 0.41105 0.80195 0.08006
 C635 C 0.40725 0.83551 0.06176
 C636 C 0.38694 0.81540 0.03353
 H637 H 0.40299 0.70382 0.08847
 H638 H 0.43481 0.73676 0.13338
 H639 H 0.43381 0.84580 0.05322
 H640 H 0.38978 0.85394 0.07595
 H641 H 0.40170 0.81530 0.00871
 H642 H 0.35763 0.82204 0.03154
 C643 C 0.57258 0.23146 0.03526
 C644 C 0.60270 0.25297 0.04103
 C645 C 0.62025 0.24861 0.07366
 C646 C 0.60385 0.22948 0.10049
 C647 C 0.57114 0.21186 0.09444
 C648 C 0.55793 0.21103 0.06071
 C649 C 0.52019 0.21549 0.04718
 C650 C 0.53604 0.23858 0.01948
 H651 H 0.64656 0.25974 0.07884
 H652 H 0.61654 0.22866 0.12578
 H653 H 0.50224 0.22925 0.06535
 H654 H 0.50897 0.19105 0.03685
 H655 H 0.52775 0.26602 0.02192
 H656 H 0.53294 0.22755 -0.00678
 C657 C 0.27730 0.09465 0.60193
 C658 C 0.25684 0.07067 0.62040
 C659 C 0.21946 0.07741 0.62408
 C660 C 0.20258 0.10422 0.60532
 C661 C 0.22288 0.12501 0.58282
 C662 C 0.26073 0.12148 0.58379
 C663 C 0.28694 0.11837 0.55478
 C664 C 0.30501 0.08909 0.57474
 H665 H 0.20273 0.05987 0.63873
 H666 H 0.17331 0.10667 0.60610
 H667 H 0.30442 0.14150 0.55240
 H668 H 0.27376 0.10989 0.53035
 H669 H 0.33281 0.09543 0.58399
 H670 H 0.30229 0.06366 0.56190
 C671 C 0.74356 0.08832 0.39402
 C672 C 0.76255 0.05930 0.38224
 C673 C 0.80056 0.05904 0.38822
 C674 C 0.81728 0.08401 0.40912
 C675 C 0.79652 0.10993 0.42496
 C676 C 0.76010 0.11305 0.41466
 C677 C 0.72677 0.11786 0.43570
 C678 C 0.70874 0.09073 0.41326
 H679 H 0.81717 0.03824 0.37841
 H680 H 0.84595 0.08133 0.41494
 H681 H 0.71476 0.14396 0.43223
 H682 H 0.73065 0.10955 0.46291
 H683 H 0.68627 0.10126 0.39702
 H684 H 0.70229 0.06662 0.42746
 C685 C 0.77705 0.91347 0.62214
 C686 C 0.74184 0.92495 0.61428
 C687 C 0.72146 0.90542 0.59046
 C688 C 0.73810 0.87874 0.57157
 C689 C 0.77554 0.87182 0.57566
 C690 C 0.79349 0.88785 0.60313
 C691 C 0.83022 0.90342 0.60704
 C692 C 0.81226 0.93155 0.62832
 H693 H 0.69376 0.91271 0.58430
 H694 H 0.72267 0.86620 0.55133
 H695 H 0.84128 0.91316 0.58229
 H696 H 0.84896 0.88680 0.62242
 H697 H 0.81394 0.95729 0.61596
 H698 H 0.82053 0.93082 0.65595
 C699 C 0.26486 0.91944 0.39256
 C700 C 0.24777 0.95050 0.38315
 C701 C 0.20997 0.95279 0.38888
 C702 C 0.19168 0.92712 0.40738
 C703 C 0.21073 0.89863 0.42113
 C704 C 0.24682 0.89415 0.41108
 C705 C 0.27979 0.88574 0.43219
 C706 C 0.29954 0.91337 0.41188
 H707 H 0.19482 0.97538 0.38065
 H708 H 0.16324 0.93099 0.41304
 H709 H 0.29006 0.85932 0.42707
 H710 H 0.27652 0.89220 0.45991
 H711 H 0.32113 0.90281 0.39506
 H712 H 0.30774 0.93585 0.42779
 C713 C 0.09576 0.39628 0.72882
 C714 C 0.06401 0.41349 0.71821
 C715 C 0.06342 0.44968 0.72113
 C716 C 0.09128 0.46692 0.73901
 C717 C 0.12044 0.44837 0.75382
 C718 C 0.12354 0.41337 0.74607
 C719 C 0.13074 0.38333 0.76932
 C720 C 0.10038 0.36464 0.75037
 H721 H 0.03984 0.46420 0.71254
 H722 H 0.08841 0.49426 0.74387
 H723 H 0.12442 0.38888 0.79674
 H724 H 0.15794 0.37176 0.76494
 H725 H 0.07642 0.35936 0.76676
 H726 H 0.11011 0.34239 0.73501
 C727 C 0.06414 0.59969 0.23108
 C728 C 0.06445 0.59815 0.26704
 C729 C 0.08914 0.57532 0.28326
 C730 C 0.11426 0.55632 0.26349
 C731 C 0.11442 0.55947 0.22722
 C732 C 0.08840 0.58085 0.21171
 C733 C 0.09376 0.60979 0.18685
 C734 C 0.06715 0.63046 0.20818
 H735 H 0.08819 0.57139 0.31089
 H736 H 0.13241 0.53831 0.27634
 H737 H 0.08323 0.60353 0.16068
 H738 H 0.12184 0.62015 0.18761
 H739 H 0.04126 0.63612 0.19431
 H740 H 0.07971 0.65285 0.22144
 C741 C 0.91868 0.37508 0.22274
 C742 C 0.92916 0.37958 0.25729
 C743 C 0.90658 0.40129 0.27724
 C744 C 0.87841 0.42092 0.26144
 C745 C 0.87239 0.41925 0.22546
 C746 C 0.89108 0.39368 0.20769
 C747 C 0.90571 0.38917 0.17225
 C748 C 0.93621 0.36785 0.18888
 H749 H 0.91296 0.40589 0.30415
 H750 H 0.86412 0.43983 0.27669
 H751 H 0.91548 0.41365 0.16071
 H752 H 0.88734 0.37372 0.15555
 H753 H 0.96310 0.38001 0.18542
 H754 H 0.93498 0.34011 0.18203
 C755 C 0.96620 0.57278 0.76242
 C756 C 0.95909 0.60389 0.74489
 C757 C 0.92414 0.61848 0.75031
 C758 C 0.89732 0.60048 0.76921
 C759 C 0.90539 0.56827 0.78441
 C760 C 0.94074 0.55601 0.78195
 C761 C 0.95434 0.52127 0.77176
 C762 C 0.98232 0.53973 0.74998
 H763 H 0.91763 0.64415 0.74120
 H764 H 0.87076 0.61195 0.77245
 H765 H 0.93429 0.50654 0.75627
 H766 H 0.96646 0.50695 0.79394
 H767 H 0.97827 0.53595 0.72180
 H768 H 1.01055 0.53565 0.75951
 C769 C 0.80082 0.61320 0.94990
 C770 C 0.76379 0.62138 0.95005
 C771 C 0.74385 0.60996 0.92062
 C772 C 0.76075 0.59038 0.89416
 C773 C 0.79808 0.58165 0.89626
 C774 C 0.81698 0.59525 0.92418
 C775 C 0.85284 0.59361 0.94198
 C776 C 0.83494 0.61422 0.97103
 H777 H 0.71476 0.61374 0.91915
 H778 H 0.74412 0.58044 0.87333
 H779 H 0.87402 0.60817 0.92794
 H780 H 0.86041 0.56692 0.94975
 H781 H 0.84568 0.64078 0.97382
 H782 H 0.83343 0.59906 0.99525
 C783 C 0.20733 0.37688 0.92308
 C784 C 0.24495 0.37343 0.92819
 C785 C 0.26705 0.38660 0.90153
 C786 C 0.25184 0.40711 0.87469
 C787 C 0.21419 0.41449 0.87371
 C788 C 0.19262 0.39585 0.89647
 C789 C 0.15777 0.40160 0.91489
 C790 C 0.17373 0.37981 0.94428
 H791 H 0.29632 0.38453 0.90347
 H792 H 0.26999 0.41984 0.85698
 H793 H 0.13444 0.38914 0.90161
 H794 H 0.15352 0.42897 0.92220
 H795 H 0.15992 0.35461 0.94738
 H796 H 0.17670 0.39489 0.96831
 C797 C 0.21898 0.61246 0.07485
 C798 C 0.25673 0.61041 0.07112
 C799 C 0.27616 0.59280 0.09748
 C800 C 0.25748 0.57293 0.12237
 C801 C 0.21918 0.57065 0.12135
 C802 C 0.20095 0.59363 0.09936
 C803 C 0.16701 0.59205 0.07807
 C804 C 0.18679 0.61341 0.05109
 H805 H 0.30547 0.59102 0.09647
 H806 H 0.27306 0.55671 0.13986
 H807 H 0.14414 0.60611 0.09020
 H808 H 0.16063 0.56561 0.06900
 H809 H 0.17551 0.63985 0.04811
 H810 H 0.19039 0.59919 0.02664
 C811 C 0.75698 0.38481 0.08114
 C812 C 0.72496 0.39817 0.06669
 C813 C 0.70785 0.42556 0.08397
 C814 C 0.72558 0.44211 0.11175
 C815 C 0.76092 0.43193 0.12183
 C816 C 0.77475 0.40157 0.10774
 C817 C 0.81134 0.39234 0.09435
 C818 C 0.79180 0.37368 0.06517
 H819 H 0.68247 0.43599 0.07417
 H820 H 0.71339 0.46495 0.12274
 H821 H 0.82634 0.37465 0.11206
 H822 H 0.82692 0.41506 0.08535
 H823 H 0.79548 0.34527 0.06621
 H824 H 0.79639 0.38554 0.03952
 C825 C 0.94543 0.73242 0.56094
 C826 C 0.94392 0.72438 0.59618
 C827 C 0.91212 0.73500 0.61370
 C828 C 0.88341 0.75204 0.59578
 C829 C 0.88579 0.75851 0.56006
 C830 C 0.91770 0.74920 0.54360
 C831 C 0.92268 0.72778 0.51210
 C832 C 0.95328 0.70944 0.53120
 H833 H 0.91037 0.73242 0.64143
 H834 H 0.86029 0.76145 0.61002
 H835 H 0.93221 0.74334 0.48986
 H836 H 0.89902 0.71091 0.50668
 H837 H 0.98041 0.71451 0.52001
 H838 H 0.94743 0.68192 0.53685
 C839 C 0.91118 0.25476 0.39321
 C840 C 0.94400 0.26629 0.40790
 C841 C 0.94791 0.26194 0.44408
 C842 C 0.92269 0.24280 0.46309
 C843 C 0.89249 0.22789 0.44672
 C844 C 0.88583 0.23635 0.41220
 C845 C 0.87689 0.21344 0.38255
 C846 C 0.90459 0.23347 0.36178
 H847 H 0.97156 0.27177 0.45753
 H848 H 0.92798 0.23793 0.49021
 H849 H 0.84857 0.21729 0.37317
 H850 H 0.88485 0.18617 0.38733
 H851 H 0.89215 0.24869 0.34039
 H852 H 0.92869 0.21785 0.35455
 C853 C 0.08990 0.27130 0.60550
 C854 C 0.05459 0.27453 0.59164
 C855 C 0.04939 0.26195 0.55769
 C856 C 0.07644 0.24274 0.54120
 C857 C 0.10984 0.23604 0.55773
 C858 C 0.11707 0.25297 0.58874
 C859 C 0.13196 0.23889 0.62183
 C860 C 0.10230 0.25886 0.64016
 H861 H 0.02371 0.26552 0.54432
 H862 H 0.07064 0.23185 0.51607
 H863 H 0.15965 0.24872 0.62752
 H864 H 0.12894 0.21048 0.62394
 H865 H 0.11301 0.28008 0.65644
 H866 H 0.08200 0.24205 0.65285
 C867 C 0.09290 0.73272 0.39711
 C868 C 0.06209 0.74809 0.38186
 C869 C 0.06075 0.78454 0.38175
 C870 C 0.08595 0.80394 0.40070
 C871 C 0.11322 0.78753 0.42043
 C872 C 0.11794 0.75202 0.41591
 C873 C 0.12294 0.72421 0.44221
 C874 C 0.09561 0.70314 0.42173
 H875 H 0.03856 0.79802 0.36899
 H876 H 0.08226 0.83160 0.40206
 H877 H 0.11309 0.73179 0.46814
 H878 H 0.15080 0.71315 0.44185
 H879 H 0.06989 0.69850 0.43574
 H880 H 0.10776 0.67995 0.40962
 C881 C 0.55994 0.94541 0.75056
 C882 C 0.59642 0.94242 0.74096
 C883 C 0.61545 0.91311 0.75381
 C884 C 0.59719 0.88680 0.77207
 C885 C 0.55984 0.88977 0.77878
 C886 C 0.54230 0.92020 0.76920
 C887 C 0.50799 0.92480 0.74891
 C888 C 0.52745 0.95235 0.72835
 H889 H 0.64450 0.91076 0.75069
 H890 H 0.61226 0.86457 0.78133
 H891 H 0.48556 0.93504 0.76490
 H892 H 0.50102 0.90171 0.73338
 H893 H 0.51653 0.97868 0.73225
 H894 H 0.53185 0.94518 0.70096
 C895 C 0.39196 0.94770 0.21512
 C896 C 0.38757 0.94778 0.25093
 C897 C 0.40032 0.91773 0.26840
 C898 C 0.41888 0.89115 0.25036
 C899 C 0.42493 0.89380 0.21440
 C900 C 0.40891 0.92193 0.19794
 C901 C 0.40841 0.94068 0.16440
 C902 C 0.38865 0.96972 0.18351
 H903 H 0.39882 0.91600 0.29623
 H904 H 0.43053 0.86991 0.26492
 H905 H 0.39130 0.92762 0.14469
 H906 H 0.43606 0.94801 0.15589
 H907 H 0.35995 0.97324 0.17512
 H908 H 0.40489 0.99371 0.18459
 C909 C 0.62734 0.08829 0.24503
 C910 C 0.60895 0.06003 0.25938
 C911 C 0.57060 0.06059 0.25666
 C912 C 0.55253 0.08555 0.23664
 C913 C 0.57208 0.11089 0.21890
 C914 C 0.60929 0.11345 0.22557
 C915 C 0.63992 0.11649 0.20089
 C916 C 0.65963 0.08905 0.22207
 H917 H 0.55455 0.04060 0.26862
 H918 H 0.52331 0.08398 0.23361
 H919 H 0.65313 0.14214 0.20226
 H920 H 0.63249 0.10786 0.17445
 H921 H 0.68418 0.09894 0.23555
 H922 H 0.66358 0.06446 0.20796
 C923 C 0.42788 0.03745 0.77302
 C924 C 0.39402 0.04335 0.75694
 C925 C 0.37715 0.07534 0.76486
 C926 C 0.39655 0.10169 0.78210
 C927 C 0.43229 0.09579 0.79388
 C928 C 0.44618 0.06259 0.79113
 C929 C 0.48237 0.05068 0.77890
 C930 C 0.46230 0.02291 0.75902
 H931 H 0.34913 0.08029 0.75790
 H932 H 0.38381 0.12654 0.78592
 H933 H 0.49954 0.04029 0.80027
 H934 H 0.49586 0.06986 0.76201
 H935 H 0.46792 -0.00336 0.76919
 H936 H 0.46421 0.02581 0.73055
 C937 C 0.62337 0.78292 0.07954
 C938 C 0.61386 0.75054 0.06682
 C939 C 0.58654 0.73226 0.08425
 C940 C 0.56585 0.74858 0.11002
 C941 C 0.57193 0.78349 0.11812
 C942 C 0.60266 0.79913 0.10420
 C943 C 0.60899 0.83393 0.08897
 C944 C 0.63199 0.81607 0.06189
 H945 H 0.57946 0.70645 0.07620
 H946 H 0.54299 0.73508 0.12097
 H947 H 0.62507 0.85071 0.10648
 H948 H 0.58397 0.84589 0.07798
 H949 H 0.66128 0.82253 0.06389
 H950 H 0.62013 0.81797 0.03558
 C951 C 0.39934 0.26681 0.09044
 C952 C 0.37816 0.24713 0.06777
 C953 C 0.37570 0.21155 0.07457
 C954 C 0.39902 0.19580 0.09883
 C955 C 0.42499 0.21543 0.11699
 C956 C 0.42185 0.25137 0.11499
 C957 C 0.44999 0.27867 0.11111
 C958 C 0.42550 0.29519 0.08382
 H959 H 0.35867 0.19542 0.05850
 H960 H 0.39897 0.16798 0.10096
 H961 H 0.47599 0.26884 0.10081
 H962 H 0.45275 0.29455 0.13477
 H963 H 0.43698 0.29422 0.05742
 H964 H 0.41456 0.32067 0.09166
 C965 C 0.62596 0.23664 0.90377
 C966 C 0.61257 0.26772 0.91670
 C967 C 0.58205 0.28242 0.90000
 C968 C 0.56200 0.26323 0.87560
 C969 C 0.57194 0.22894 0.86836
 C970 C 0.60584 0.21751 0.88050
 C971 C 0.61849 0.18410 0.89571
 C972 C 0.64086 0.20513 0.92115
 H973 H 0.57129 0.30684 0.90873
 H974 H 0.53644 0.27350 0.86605
 H975 H 0.63538 0.16909 0.87747
 H976 H 0.59655 0.16933 0.90842
 H977 H 0.67057 0.20236 0.91730
 H978 H 0.63190 0.20203 0.94823
 C979 C 0.41151 0.71769 0.91156
 C980 C 0.38626 0.73546 0.93168
 C981 C 0.37791 0.76968 0.92230
 C982 C 0.39845 0.78686 0.89725
 C983 C 0.42754 0.77004 0.88093
 C984 C 0.43157 0.73457 0.88644
 C985 C 0.46493 0.71415 0.89491
 C986 C 0.44296 0.69574 0.92234
 H987 H 0.35801 0.78412 0.93676
 H988 H 0.39360 0.81406 0.89282
 H989 H 0.48716 0.73025 0.90573
 H990 H 0.47300 0.69707 0.87334
 H991 H 0.45238 0.70120 0.94908
 H992 H 0.43834 0.66809 0.91653
 C993 C 0.79025 0.92258 0.38527
 C994 C 0.75447 0.93428 0.38811
 C995 C 0.73109 0.91509 0.40949
 C996 C 0.74489 0.88837 0.43084
 C997 C 0.78238 0.88094 0.43151
 C998 C 0.80377 0.89687 0.40649
 C999 C 0.84093 0.91201 0.40719
 C1000 C 0.82617 0.94022 0.38345
 H1001 H 0.70280 0.92238 0.41154
 H1002 H 0.72692 0.87581 0.44884
 H1003 H 0.86121 0.89520 0.39452
 H1004 H 0.84896 0.92173 0.43307
 H1005 H 0.83777 0.93923 0.35712
 H1006 H 0.82683 0.96595 0.39572
 C1007 C 0.21188 0.93745 0.60894
 C1008 C 0.24880 0.94497 0.60619
 C1009 C 0.26992 0.92339 0.58502
 C1010 C 0.25325 0.89838 0.56386
 C1011 C 0.21515 0.89497 0.56322
 C1012 C 0.19555 0.91330 0.58792
 C1013 C 0.16061 0.93282 0.58639
 C1014 C 0.17852 0.95942 0.60972
 H1015 H 0.29893 0.92727 0.58333
 H1016 H 0.26982 0.88380 0.54616
 H1017 H 0.13821 0.91867 0.59911
 H1018 H 0.15421 0.94297 0.56018
 H1019 H 0.16646 0.96043 0.63586
 H1020 H 0.18170 0.98478 0.59684
 C1021 C 0.23008 0.08848 0.38679
 C1022 C 0.26388 0.07396 0.39494
 C1023 C 0.28403 0.08898 0.42207
 C1024 C 0.26794 0.11408 0.44344
 C1025 C 0.23137 0.12373 0.43823
 C1026 C 0.21420 0.11250 0.40804
 C1027 C 0.17683 0.09970 0.40062
 C1028 C 0.19428 0.07325 0.37697
 H1029 H 0.31087 0.07931 0.42846
 H1030 H 0.28282 0.12330 0.46575
 H1031 H 0.16002 0.11908 0.38652
 H1032 H 0.16378 0.08785 0.42348
 H1033 H 0.18758 0.07758 0.34929
 H1034 H 0.19063 0.04639 0.38615
 C1035 C 0.73298 0.07744 0.59318
 C1036 C 0.75239 0.05117 0.61003
 C1037 C 0.79057 0.05269 0.60916
 C1038 C 0.80812 0.07739 0.58862
 C1039 C 0.78785 0.10115 0.56856
 C1040 C 0.75026 0.10206 0.57321
 C1041 C 0.72024 0.10216 0.54706
 C1042 C 0.70130 0.07538 0.56916
 H1043 H 0.80674 0.03347 0.62265
 H1044 H 0.83744 0.07670 0.58710
 H1045 H 0.72901 0.09196 0.52174
 H1046 H 0.70565 0.12726 0.54600
 H1047 H 0.69896 0.04980 0.55655
 H1048 H 0.67600 0.08514 0.58113
 C1049 C 0.92558 0.60355 0.23406
 C1050 C 0.93291 0.59693 0.26893
 C1051 C 0.90902 0.57497 0.28665
 C1052 C 0.88205 0.55657 0.26837
 C1053 C 0.87929 0.55944 0.23213
 C1054 C 0.89969 0.58511 0.21614
 C1055 C 0.92086 0.58591 0.18354
 C1056 C 0.94938 0.60650 0.20318
 H1057 H 0.91293 0.57013 0.31395
 H1058 H 0.86575 0.53795 0.28208
 H1059 H 0.90695 0.60109 0.16294
 H1060 H 0.93070 0.56003 0.17566
 H1061 H 0.95162 0.63354 0.19397
 H1062 H 0.97560 0.59254 0.20588
 C1063 C 0.90431 0.41021 0.73086
 C1064 C 0.93533 0.39470 0.74524
 C1065 C 0.93834 0.39392 0.78144
 C1066 C 0.91412 0.41293 0.80183
 C1067 C 0.88650 0.43325 0.78639
 C1068 C 0.88020 0.42883 0.75098
 C1069 C 0.87362 0.45467 0.72295
 C1070 C 0.90029 0.43441 0.70112
 H1071 H 0.96134 0.38131 0.79373
 H1072 H 0.91919 0.41420 0.82935
 H1073 H 0.88322 0.48087 0.72975
 H1074 H 0.84532 0.45361 0.71286
 H1075 H 0.92570 0.44870 0.69564
 H1076 H 0.88737 0.42191 0.67841
 C1077 C 0.09847 0.62840 0.77993
 C1078 C 0.08921 0.62339 0.74521
 C1079 C 0.11174 0.60149 0.72582
 C1080 C 0.13773 0.58031 0.74249
 C1081 C 0.14087 0.58045 0.77875
 C1082 C 0.12339 0.60712 0.79635
 C1083 C 0.10391 0.60893 0.82990
 C1084 C 0.07672 0.63279 0.81199
 H1085 H 0.10626 0.59763 0.69862
 H1086 H 0.15153 0.56078 0.72759
 H1087 H 0.12022 0.62204 0.85018
 H1088 H 0.09172 0.58402 0.83779
 H1089 H 0.07786 0.65964 0.82177
 H1090 H 0.04905 0.62175 0.81054
 C1091 C 0.08895 0.39425 0.26355
 C1092 C 0.06060 0.37804 0.24567
 C1093 C 0.06146 0.37926 0.20931
 C1094 C 0.08689 0.40006 0.19217
 C1095 C 0.11226 0.41974 0.21103
 C1096 C 0.11444 0.41425 0.24666
 C1097 C 0.11580 0.43973 0.27543
 C1098 C 0.08791 0.41772 0.29386
 H1099 H 0.04070 0.36636 0.19428
 H1100 H 0.08506 0.40256 0.16439
 H1101 H 0.10527 0.46554 0.26767
 H1102 H 0.14269 0.43990 0.28864
 H1103 H 0.06117 0.43070 0.29675
 H1104 H 0.09878 0.40514 0.31761
   
