data_POSCAR
  _audit_creation_date              2014-09-24
  _audit_creation_method            'ToBaCCo'
  _symmetry_space_group_name_H-M    'P1'
  _symmetry_Int_Tables_number       1
  _symmetry_cell_setting            triclinic
  loop_
  _symmetry_equiv_pos_as_xyz
 x,y,z
_cell_length_a 40.8709
_cell_length_b 40.9548
_cell_length_c 40.8265
_cell_angle_alpha 89.992400
_cell_angle_beta 90.012500
_cell_angle_gamma 89.910100
loop_
  _atom_site_label
  _atom_site_type_symbol
  _atom_site_fract_x
  _atom_site_fract_y
  _atom_site_fract_z
C1 C 0.15814 0.18382 0.20436
 C2 C 0.15809 0.20744 0.17948
 C3 C 0.18204 0.20685 0.15547
 C4 C 0.20633 0.18264 0.15603
 C5 C 0.20639 0.15928 0.18061
 C6 C 0.18215 0.15987 0.20492
 C7 C 0.13759 0.17811 0.23048
 N8 N 0.14870 0.15142 0.24663
 C9 C 0.17583 0.13997 0.23138
 C10 C 0.23236 0.13861 0.17471
 N11 N 0.24781 0.14903 0.14729
 C12 C 0.23226 0.17582 0.13557
 C13 C 0.17564 0.23225 0.13428
 N14 N 0.14852 0.24800 0.14501
 C15 C 0.13751 0.23318 0.17252
 H16 H 0.11606 0.19211 0.23706
 H17 H 0.18970 0.11866 0.23880
 H18 H 0.23933 0.11748 0.18909
 H19 H 0.23913 0.18915 0.11371
 H20 H 0.18946 0.23868 0.11260
 H21 H 0.11603 0.24046 0.18623
 C22 C -0.15527 0.81906 0.20828
 C23 C -0.15586 0.79480 0.18406
 C24 C -0.18044 0.79475 0.16067
 C25 C -0.20473 0.81898 0.16122
 C26 C -0.20415 0.84297 0.18516
 C27 C -0.17927 0.84302 0.20883
 C28 C -0.13406 0.82542 0.23371
 N29 N -0.14477 0.85252 0.24944
 C30 C -0.17228 0.86358 0.23460
 C31 C -0.23027 0.86350 0.17938
 N32 N -0.24642 0.85238 0.15265
 C33 C -0.23117 0.82527 0.14126
 C34 C -0.17457 0.76882 0.14000
 N35 N -0.14716 0.75336 0.15042
 C36 C -0.13544 0.76889 0.17724
 H37 H -0.11239 0.81157 0.24014
 H38 H -0.18600 0.88504 0.24185
 H39 H -0.23686 0.88502 0.19335
 H40 H -0.23860 0.81140 0.11993
 H41 H -0.18893 0.76185 0.11884
 H42 H -0.11359 0.76198 0.19056
 C43 C -0.16111 0.17980 -0.20673
 C44 C -0.16176 0.20417 -0.18261
 C45 C -0.18569 0.20371 -0.15856
 C46 C -0.20926 0.17885 -0.15836
 C47 C -0.20862 0.15476 -0.18220
 C48 C -0.18440 0.15524 -0.20653
 C49 C -0.14040 0.17384 -0.23267
 N50 N -0.15072 0.14639 -0.24798
 C51 C -0.17750 0.13471 -0.23237
 C52 C -0.23397 0.13360 -0.17568
 N53 N -0.24974 0.14443 -0.14858
 C54 C -0.23499 0.17197 -0.13769
 C55 C -0.17999 0.22988 -0.13816
 N56 N -0.15332 0.24597 -0.14938
 C57 C -0.14191 0.23061 -0.17644
 H58 H -0.11930 0.18820 -0.23971
 H59 H -0.19075 0.11284 -0.23913
 H60 H -0.24032 0.11189 -0.18941
 H61 H -0.24228 0.18578 -0.11627
 H62 H -0.19394 0.23657 -0.11663
 H63 H -0.12060 0.23797 -0.19036
 C64 C 0.15931 0.81954 -0.20697
 C65 C 0.15837 0.79475 -0.18329
 C66 C 0.18183 0.79369 -0.15879
 C67 C 0.20652 0.81742 -0.15768
 C68 C 0.20745 0.84192 -0.18109
 C69 C 0.18371 0.84299 -0.20588
 C70 C 0.13940 0.82689 -0.23318
 N71 N 0.15127 0.85410 -0.24780
 C72 C 0.17825 0.86426 -0.23147
 C73 C 0.23361 0.86177 -0.17369
 N74 N 0.24833 0.84976 -0.14650
 C75 C 0.23213 0.82274 -0.13640
 C76 C 0.17455 0.76745 -0.13900
 N77 N 0.14740 0.75280 -0.15102
 C78 C 0.13721 0.76915 -0.17800
 H79 H 0.11781 0.81365 -0.24088
 H80 H 0.19262 0.88561 -0.23759
 H81 H 0.24120 0.88342 -0.18689
 H82 H 0.23835 0.80826 -0.11508
 H83 H 0.18778 0.75973 -0.11735
 H84 H 0.11588 0.76300 -0.19247
 C85 C 0.18439 1.15945 0.79489
 C86 C 0.20803 1.15940 0.81977
 C87 C 0.20746 1.18332 0.84377
 C88 C 0.18323 1.20758 0.84316
 C89 C 0.15984 1.20764 0.81857
 C90 C 0.16043 1.18343 0.79429
 C91 C 0.17862 1.13885 0.76887
 N92 N 0.15185 1.14991 0.75273
 C93 C 0.14043 1.17705 0.76790
 C94 C 0.13908 1.23350 0.82447
 N95 N 0.14949 1.24889 0.85192
 C96 C 0.17635 1.23340 0.86365
 C97 C 0.23281 1.17687 0.86503
 N98 N 0.24852 1.14974 0.85437
 C99 C 0.23372 1.13877 0.82683
 H100 H 0.19258 1.11730 0.76237
 H101 H 0.11904 1.19085 0.76049
 H102 H 0.11788 1.24042 0.81012
 H103 H 0.18965 1.24023 0.88555
 H104 H 0.23921 1.19062 0.88675
 H105 H 0.24096 1.11728 0.81318
 C106 C 0.81862 0.84379 0.79110
 C107 C 0.79427 0.84319 0.81527
 C108 C 0.79412 0.81860 0.83858
 C109 C 0.81833 0.79431 0.83800
 C110 C 0.84242 0.79490 0.81410
 C111 C 0.84256 0.81979 0.79052
 C112 C 0.82513 0.86508 0.76582
 N113 N 0.85231 0.85440 0.75015
 C114 C 0.86328 0.82684 0.76488
 C115 C 0.86298 0.76885 0.81989
 N116 N 0.85178 0.75272 0.84658
 C117 C 0.82461 0.76792 0.85795
 C118 C 0.76819 0.82452 0.85928
 N119 N 0.75283 0.85198 0.84894
 C120 C 0.76843 0.86367 0.82215
 H121 H 0.81134 0.88679 0.75948
 H122 H 0.88481 0.81316 0.75766
 H123 H 0.88459 0.76231 0.80598
 H124 H 0.81070 0.76052 0.87928
 H125 H 0.76117 0.81019 0.88043
 H126 H 0.76163 0.88558 0.80892
 C127 C 0.18077 0.83885 1.20788
 C128 C 0.20506 0.83822 1.18365
 C129 C 0.20453 0.81429 1.15967
 C130 C 0.17971 0.79071 1.15963
 C131 C 0.15569 0.79132 1.18358
 C132 C 0.15622 0.81553 1.20785
 C133 C 0.17480 0.85963 1.23373
 N134 N 0.14736 0.84930 1.24914
 C135 C 0.13569 0.82248 1.23369
 C136 C 0.13447 0.76604 1.17712
 N137 N 0.14519 0.75035 1.14996
 C138 C 0.17272 0.76508 1.13899
 C139 C 0.23054 0.82005 1.13904
 N140 N 0.24660 0.84677 1.15007
 C141 C 0.23138 0.85816 1.17723
 H142 H 0.18911 0.88079 1.24062
 H143 H 0.11380 0.80925 1.24053
 H144 H 0.11275 0.75969 1.19088
 H145 H 0.18640 0.75784 1.11746
 H146 H 0.23711 0.80614 1.11746
 H147 H 0.23874 0.87952 1.19100
 C148 C 0.81869 1.15944 1.20836
 C149 C 0.79388 1.15839 1.18467
 C150 C 0.79272 1.18182 1.16021
 C151 C 0.81634 1.20657 1.15915
 C152 C 0.84087 1.20762 1.18256
 C153 C 0.84206 1.18391 1.20732
 C154 C 0.82622 1.13952 1.23448
 N155 N 0.85345 1.15146 1.24907
 C156 C 0.86346 1.17850 1.23283
 C157 C 0.86068 1.23374 1.17511
 N158 N 0.84863 1.24834 1.14789
 C159 C 0.82162 1.23208 1.13783
 C160 C 0.76657 1.17439 1.14031
 N161 N 0.75207 1.14717 1.15224
 C162 C 0.76842 1.13708 1.17926
 H163 H 0.81311 1.11784 1.24210
 H164 H 0.88482 1.19290 1.23893
 H165 H 0.88238 1.24140 1.18823
 H166 H 0.80717 1.23818 1.11645
 H167 H 0.75884 1.18754 1.11863
 H168 H 0.76240 1.11569 1.19363
 O169 O 0.45412 0.93723 0.94594
 O170 O 0.41816 0.96856 0.97572
 C171 C 0.42482 0.94595 0.95455
 O172 O 0.54616 0.94013 1.06293
 O173 O 0.58198 0.96978 1.03141
 C174 C 0.57542 0.94876 1.05418
 O175 O 0.45418 0.93702 1.05984
 O176 O 0.41818 0.96849 1.03021
 C177 C 0.42488 0.94577 1.05125
 O178 O 0.54608 0.94033 0.94295
 O179 O 0.58195 0.96984 0.97456
 C180 C 0.57534 0.94891 0.95173
 Zr181 Zr 0.50007 0.95562 0.96153
 O182 O 0.50388 0.90406 0.96178
 O183 O 0.49638 0.95570 0.90981
 Zr184 Zr 0.50012 0.95551 1.04440
 O185 O 0.50394 0.90395 1.04412
 O186 O 0.49642 0.95553 1.09612
 O187 O 0.47094 0.94917 1.00296
 O188 O 0.52853 0.94964 1.00295
 O189 O 0.54586 1.05375 0.94315
 O190 O 0.58185 1.02412 0.97462
 C191 C 0.57517 1.04517 0.95189
 O192 O 0.45389 1.05658 1.05996
 O193 O 0.41804 1.02515 1.03026
 C194 C 0.42462 1.04785 1.05133
 O195 O 0.54585 1.05360 1.06299
 O196 O 0.58184 1.02407 1.03144
 C197 C 0.57515 1.04507 1.05420
 O198 O 0.45391 1.05673 0.94624
 O199 O 0.41804 1.02521 0.97583
 C200 C 0.42465 1.04796 0.95482
 Zr201 Zr 0.49992 1.03825 0.96163
 O202 O 0.50352 1.08981 0.96180
 O203 O 0.49619 1.03812 0.90991
 Zr204 Zr 0.49992 1.03812 1.04452
 O205 O 0.50350 1.08968 1.04455
 O206 O 0.49622 1.03776 1.09625
 Zr207 Zr 0.45138 0.99686 1.00301
 Zr208 Zr 0.54863 0.99692 1.00301
 O209 O 0.52830 1.04416 1.00308
 O210 O 0.47075 1.04456 1.00308
 O211 O 0.52915 0.99696 0.95518
 O212 O 0.47160 0.99679 1.05043
 O213 O 0.47160 0.99694 0.95561
 O214 O 0.52918 0.99683 1.05086
 H215 H 0.54344 0.93054 1.00293
 H216 H 0.45675 0.99677 1.06960
 H217 H 0.54309 1.06330 1.00310
 H218 H 0.45675 0.99697 0.93642
 H219 H 0.51462 0.96892 1.10471
 H220 H 0.51472 1.02470 1.10479
 H221 H 0.48528 1.09825 1.03109
 H222 H 0.48525 1.09834 0.97519
 H223 H 0.51461 1.02499 0.90132
 H224 H 0.51448 0.96924 0.90125
 H225 H 0.48540 0.89551 0.97483
 H226 H 0.48562 0.89542 1.03082
 O227 O -0.06313 0.45437 0.05346
 O228 O -0.03185 0.41840 0.02366
 C229 C -0.05445 0.42512 0.04484
 O230 O -0.06004 0.54618 -0.06353
 O231 O -0.03031 0.58190 -0.03197
 C232 C -0.05136 0.57537 -0.05475
 O233 O -0.06331 0.45445 -0.06066
 O234 O -0.03146 0.41852 -0.03142
 C235 C -0.05438 0.42520 -0.05229
 O236 O -0.05989 0.54613 0.05648
 O237 O -0.03025 0.58188 0.02488
 C238 C -0.05122 0.57533 0.04772
 Zr239 Zr -0.04468 0.50018 0.03784
 O240 O -0.09634 0.50408 0.03745
 O241 O -0.04476 0.49652 0.08957
 Zr242 Zr -0.04474 0.50022 -0.04500
 O243 O -0.09641 0.50410 -0.04461
 O244 O -0.04478 0.49659 -0.09673
 O245 O -0.05118 0.47107 -0.00358
 O246 O -0.05060 0.52859 -0.00356
 O247 O 0.05361 0.54569 0.05635
 O248 O 0.02406 0.58167 0.02483
 C249 C 0.04506 0.57494 0.04762
 O250 O 0.05645 0.45393 -0.06044
 O251 O 0.02492 0.41817 -0.03073
 C252 C 0.04767 0.42473 -0.05180
 O253 O 0.05370 0.54575 -0.06352
 O254 O 0.02409 0.58168 -0.03201
 C255 C 0.04519 0.57501 -0.05472
 O256 O 0.05651 0.45393 0.05329
 O257 O 0.02489 0.41819 0.02369
 C258 C 0.04767 0.42473 0.04473
 Zr259 Zr 0.03819 0.49989 0.03773
 O260 O 0.08987 0.50343 0.03720
 O261 O 0.03845 0.49620 0.08945
 Zr262 Zr 0.03806 0.49991 -0.04508
 O263 O 0.08973 0.50338 -0.04508
 O264 O 0.03773 0.49624 -0.09680
 Zr265 Zr -0.00342 0.45150 -0.00357
 Zr266 Zr -0.00319 0.54856 -0.00359
 O267 O 0.04414 0.52825 -0.00366
 O268 O 0.04443 0.47075 -0.00367
 O269 O -0.00317 0.52909 0.04422
 O270 O -0.00339 0.47174 -0.05098
 O271 O -0.00330 0.47173 0.04381
 O272 O -0.00328 0.52916 -0.05144
 H273 H -0.06971 0.54352 -0.00354
 H274 H -0.00337 0.45699 -0.07022
 H275 H 0.06333 0.54300 -0.00365
 H276 H -0.00330 0.45695 0.06302
 H277 H -0.03117 0.51461 -0.10529
 H278 H 0.02472 0.51475 -0.10535
 H279 H 0.09826 0.48523 -0.03156
 H280 H 0.09836 0.48475 0.02439
 H281 H 0.02473 0.51415 0.09807
 H282 H -0.03104 0.51445 0.09815
 H283 H -0.10492 0.48555 0.02454
 H284 H -0.10496 0.48569 -0.03151
 O285 O 1.06327 -0.05364 0.54623
 O286 O 1.03135 -0.02446 0.58214
 C287 C 1.05426 -0.04531 0.57553
 O288 O 1.05989 0.06305 0.45413
 O289 O 1.03033 0.03153 0.41822
 C290 C 1.05131 0.05426 0.42482
 O291 O 1.06291 0.06013 0.54622
 O292 O 1.03160 0.03044 0.58221
 C293 C 1.05420 0.05153 0.57554
 O294 O 1.06017 -0.05655 0.45423
 O295 O 1.03048 -0.02514 0.41823
 C296 C 1.05152 -0.04787 0.42491
 Zr297 Zr 1.04484 -0.03799 0.50025
 O298 O 1.09651 -0.03731 0.49652
 O299 O 1.04525 -0.08954 0.50393
 Zr300 Zr 1.04450 0.04460 0.50020
 O301 O 1.09617 0.04452 0.49651
 O302 O 1.04417 0.09616 0.50382
 O303 O 1.05109 0.00333 0.52947
 O304 O 1.05062 0.00329 0.47176
 O305 O 0.94661 -0.05672 0.45424
 O306 O 0.97613 -0.02526 0.41826
 C307 C 0.95515 -0.04798 0.42492
 O308 O 0.94310 0.05971 0.54623
 O309 O 0.97481 0.03034 0.58223
 C310 C 0.95190 0.05120 0.57556
 O311 O 0.94618 0.06277 0.45416
 O312 O 0.97594 0.03140 0.41822
 C313 C 0.95480 0.05404 0.42486
 O314 O 0.94369 -0.05365 0.54631
 O315 O 0.97501 -0.02391 0.58227
 C316 C 0.95240 -0.04502 0.57562
 Zr317 Zr 0.96202 -0.03820 0.50025
 O318 O 0.91035 -0.03807 0.49657
 O319 O 0.96227 -0.08976 0.50397
 Zr320 Zr 0.96166 0.04435 0.50019
 O321 O 0.91000 0.04397 0.49646
 O322 O 0.96148 0.09591 0.50387
 Zr323 Zr 1.00329 0.00325 0.54892
 Zr324 Zr 1.00324 0.00316 0.45155
 O325 O 0.95588 0.00304 0.47177
 O326 O 0.95549 0.00308 0.52944
 O327 O 1.00344 -0.04451 0.47109
 O328 O 1.00306 0.05048 0.52861
 O329 O 1.00345 -0.04401 0.52865
 O330 O 1.00305 0.05085 0.47102
 H331 H 1.06975 0.00331 0.45687
 H332 H 1.00297 0.06961 0.54346
 H333 H 0.93672 0.00299 0.45690
 H334 H 1.00346 -0.06321 0.54341
 H335 H 1.03080 0.10465 0.48550
 H336 H 0.97493 0.10449 0.48567
 H337 H 0.90150 0.03076 0.51486
 H338 H 0.90175 -0.02501 0.51505
 H339 H 0.97562 -0.09829 0.48566
 H340 H 1.03142 -0.09815 0.48604
 H341 H 1.10499 -0.02461 0.51529
 H342 H 1.10476 0.03126 0.51485
 C343 C 1.13477 0.13812 0.27276
 C344 C 1.12205 0.12593 0.29643
 C345 C 1.10710 0.11144 0.32401
 C346 C 1.09431 0.09883 0.34740
 C347 C 1.07931 0.08373 0.37462
 C348 C 1.06651 0.07050 0.39767
 C349 C 0.86973 -0.13363 0.27496
 C350 C 0.88293 -0.12098 0.29812
 C351 C 0.89840 -0.10602 0.32514
 C352 C 0.91156 -0.09308 0.34815
 C353 C 0.92690 -0.07768 0.37500
 C354 C 0.93987 -0.06428 0.39785
 C355 C 0.86357 0.13273 0.72626
 C356 C 0.87667 0.12030 0.70291
 C357 C 0.89219 0.10574 0.67567
 C358 C 0.90560 0.09328 0.65253
 C359 C 0.92151 0.07867 0.62555
 C360 C 0.93528 0.06615 0.60264
 C361 C 1.13810 -0.13118 0.72642
 C362 C 1.12597 -0.11784 0.70304
 C363 C 1.11147 -0.10229 0.67578
 C364 C 1.09882 -0.08910 0.65260
 C365 C 1.08368 -0.07374 0.62558
 C366 C 1.07044 -0.06071 0.60264
 C367 C 0.27363 1.13484 1.13366
 C368 C 0.29705 1.12189 1.12121
 C369 C 0.32434 1.10661 1.10653
 C370 C 0.34754 1.09343 1.09393
 C371 C 0.37457 1.07780 1.07912
 C372 C 0.39752 1.06426 1.06645
 C373 C 0.27410 0.86281 0.86826
 C374 C 0.29747 0.87481 0.88167
 C375 C 0.32472 0.88914 0.89731
 C376 C 0.34788 0.90164 0.91059
 C377 C 0.37486 0.91665 0.92604
 C378 C 0.39777 0.92981 0.93913
 C379 C 0.72746 0.86625 1.13925
 C380 C 0.70378 0.87886 1.12691
 C381 C 0.67621 0.89363 1.11219
 C382 C 0.65282 0.90625 1.09937
 C383 C 0.62561 0.92103 1.08401
 C384 C 0.60257 0.93368 1.07058
 C385 C 0.72480 1.13003 0.86542
 C386 C 0.70170 1.11693 0.87822
 C387 C 0.67474 1.10160 0.89337
 C388 C 0.65178 1.08855 0.90647
 C389 C 0.62498 1.07333 0.92202
 C390 C 0.60218 1.06042 0.93552
 C391 C 0.13383 0.27495 0.12973
 C392 C 0.12109 0.29807 0.11660
 C393 C 0.10600 0.32506 0.10124
 C394 C 0.09295 0.34804 0.08817
 C395 C 0.07744 0.37487 0.07293
 C396 C 0.06398 0.39769 0.06000
 C397 C -0.13922 0.27358 -0.13483
 C398 C -0.12693 0.29724 -0.12231
 C399 C -0.11224 0.32477 -0.10762
 C400 C -0.09943 0.34812 -0.09504
 C401 C -0.08411 0.37525 -0.08024
 C402 C -0.07072 0.39820 -0.06753
 C403 C 0.13187 0.72554 -0.13728
 C404 C 0.11849 0.70218 -0.12536
 C405 C 0.10280 0.67494 -0.11116
 C406 C 0.08944 0.65180 -0.09878
 C407 C 0.07388 0.62485 -0.08391
 C408 C 0.06070 0.60199 -0.07083
 C409 C -0.13281 0.72609 0.13540
 C410 C -0.12042 0.70271 0.12240
 C411 C -0.10585 0.67545 0.10702
 C412 C -0.09337 0.65229 0.09373
 C413 C -0.07872 0.62530 0.07796
 C414 C -0.06618 0.60239 0.06428
 C415 C 1.13842 0.13586 0.72676
 C416 C 1.12612 0.12301 0.70324
 C417 C 1.11152 0.10789 0.67585
 C418 C 1.09884 0.09494 0.65260
 C419 C 1.08368 0.07977 0.62555
 C420 C 1.07042 0.06684 0.60261
 C421 C 0.86634 -0.13100 0.72482
 C422 C 0.87915 -0.11769 0.70184
 C423 C 0.89426 -0.10210 0.67501
 C424 C 0.90730 -0.08882 0.65215
 C425 C 0.92276 -0.07339 0.62543
 C426 C 0.93616 -0.06034 0.60266
 C427 C 1.13363 -0.13631 0.27478
 C428 C 1.12112 -0.12314 0.29803
 C429 C 1.10644 -0.10755 0.32513
 C430 C 1.09387 -0.09410 0.34816
 C431 C 1.07914 -0.07818 0.37503
 C432 C 1.06654 -0.06442 0.39787
 C433 C 0.86837 0.13825 0.27469
 C434 C 0.88190 0.12608 0.29792
 C435 C 0.89762 0.11152 0.32501
 C436 C 0.91095 0.09881 0.34806
 C437 C 0.92640 0.08358 0.37494
 C438 C 0.93945 0.07027 0.39779
 C439 C 0.13518 0.27455 -0.13438
 C440 C 0.12212 0.29781 -0.12186
 C441 C 0.10671 0.32492 -0.10710
 C442 C 0.09343 0.34798 -0.09445
 C443 C 0.07770 0.37486 -0.07959
 C444 C 0.06410 0.39770 -0.06690
 C445 C -0.13757 0.27541 0.13214
 C446 C -0.12556 0.29862 0.11857
 C447 C -0.11125 0.32566 0.10271
 C448 C -0.09876 0.34865 0.08923
 C449 C -0.08377 0.37544 0.07357
 C450 C -0.07060 0.39820 0.06035
 C451 C -0.13428 0.72672 -0.13996
 C452 C -0.12159 0.70316 -0.12759
 C453 C -0.10672 0.67574 -0.11283
 C454 C -0.09402 0.65247 -0.09997
 C455 C -0.07915 0.62539 -0.08459
 C456 C -0.06646 0.60244 -0.07114
 C457 C 0.12985 0.72361 0.13512
 C458 C 0.11668 0.70067 0.12221
 C459 C 0.10132 0.67390 0.10687
 C460 C 0.08828 0.65111 0.09359
 C461 C 0.07310 0.62449 0.07780
 C462 C 0.06024 0.60183 0.06413
 C463 C 0.27534 1.13494 0.86977
 C464 C 0.29836 1.12209 0.88300
 C465 C 0.32522 1.10684 0.89843
 C466 C 0.34811 1.09363 0.91152
 C467 C 0.37484 1.07795 0.92675
 C468 C 0.39762 1.06437 0.93964
 C469 C 0.27400 0.86096 1.13519
 C470 C 0.29747 0.87330 1.12235
 C471 C 0.32479 0.88799 1.10727
 C472 C 0.34799 0.90078 1.09439
 C473 C 0.37497 0.91608 1.07931
 C474 C 0.39786 0.92945 1.06647
 C475 C 0.72502 1.13148 1.13829
 C476 C 0.70182 1.11799 1.12613
 C477 C 0.67477 1.10227 1.11161
 C478 C 0.65177 1.08894 1.09894
 C479 C 0.62495 1.07347 1.08375
 C480 C 0.60214 1.06041 1.07045
 C481 C 0.72567 0.86645 0.86404
 C482 C 0.70238 0.87898 0.87709
 C483 C 0.67524 0.89374 0.89251
 C484 C 0.65216 0.90638 0.90581
 C485 C 0.62526 0.92121 0.92157
 C486 C 0.60239 0.93387 0.93522
   
