data_POSCAR
  _audit_creation_date              2014-09-24
  _audit_creation_method            'ToBaCCo'
  _symmetry_space_group_name_H-M    'P1'
  _symmetry_Int_Tables_number       1
  _symmetry_cell_setting            triclinic
  loop_
  _symmetry_equiv_pos_as_xyz
 x,y,z
_cell_length_a 34.1044
_cell_length_b 34.0130
_cell_length_c 28.9505
_cell_angle_alpha 89.980100
_cell_angle_beta 90.401900
_cell_angle_gamma 91.683600
loop_
  _atom_site_label
  _atom_site_type_symbol
  _atom_site_fract_x
  _atom_site_fract_y
  _atom_site_fract_z
C1 C -0.11539 0.29027 0.00002
 C2 C -0.09652 0.29659 0.04269
 C3 C -0.05513 0.29805 0.04403
 C4 C -0.03314 0.29069 0.00405
 C5 C -0.05314 0.28243 -0.03776
 C6 C -0.09442 0.28255 -0.04032
 C7 C 0.01069 0.29035 0.00605
 C8 C 0.03321 0.30227 -0.03244
 C9 C 0.07417 0.29961 -0.03218
 C10 C 0.09295 0.28607 0.00784
 C11 C 0.07132 0.27529 0.04724
 C12 C 0.03027 0.27662 0.04570
 H13 H -0.14723 0.28974 -0.00146
 H14 H -0.03966 0.30528 0.07568
 H15 H -0.03619 0.27530 -0.06772
 H16 H 0.01896 0.31324 -0.06319
 H17 H 0.12422 0.28170 0.00756
 H18 H 0.01371 0.26629 0.07531
 C19 C 0.39623 0.81134 0.50454
 C20 C 0.41596 0.81361 0.54723
 C21 C 0.45703 0.81549 0.54804
 C22 C 0.47886 0.81281 0.50711
 C23 C 0.45834 0.81004 0.46466
 C24 C 0.41720 0.81036 0.46299
 C25 C 0.52269 0.81103 0.50908
 C26 C 0.54585 0.82431 0.47173
 C27 C 0.58674 0.82085 0.47241
 C28 C 0.60488 0.80540 0.51186
 C29 C 0.58264 0.79312 0.55012
 C30 C 0.54169 0.79485 0.54788
 H31 H 0.36467 0.80759 0.50363
 H32 H 0.47178 0.81825 0.58113
 H33 H 0.47408 0.80654 0.43267
 H34 H 0.53228 0.83699 0.44152
 H35 H 0.63608 0.80063 0.51187
 H36 H 0.52486 0.78297 0.57646
 C37 C 1.09852 0.71235 0.00465
 C38 C 1.08016 0.71113 0.04830
 C39 C 1.03902 0.71174 0.05005
 C40 C 1.01615 0.71587 0.00985
 C41 C 1.03536 0.71946 -0.03282
 C42 C 1.07624 0.71665 -0.03628
 C43 C 0.97238 0.71718 0.01233
 C44 C 0.94874 0.70398 -0.02509
 C45 C 0.90776 0.70733 -0.02422
 C46 C 0.89010 0.72036 0.01625
 C47 C 0.91288 0.73216 0.05467
 C48 C 0.95384 0.73205 0.05177
 H49 H 1.13006 0.71342 0.00274
 H50 H 1.02484 0.70879 0.08327
 H51 H 1.01840 0.72473 -0.06387
 H52 H 0.96215 0.69098 -0.05491
 H53 H 0.85852 0.72294 0.01704
 H54 H 0.97099 0.74351 0.08060
 C55 C 0.59135 0.22131 0.50028
 C56 C 0.57229 0.21463 0.54256
 C57 C 0.53127 0.21163 0.54344
 C58 C 0.50885 0.21614 0.50291
 C59 C 0.52850 0.22382 0.46102
 C60 C 0.56963 0.22569 0.45923
 C61 C 0.46509 0.21338 0.50457
 C62 C 0.44334 0.19790 0.46693
 C63 C 0.40219 0.19620 0.46741
 C64 C 0.38260 0.20907 0.50698
 C65 C 0.40373 0.22356 0.54555
 C66 C 0.44476 0.22655 0.54357
 H67 H 0.62293 0.22544 0.49974
 H68 H 0.51695 0.20563 0.57607
 H69 H 0.51193 0.22884 0.42964
 H70 H 0.45836 0.18738 0.43672
 H71 H 0.35097 0.20995 0.50707
 H72 H 0.46069 0.23953 0.57253
 C73 C 0.71189 -0.10514 -0.00347
 C74 C 0.70068 -0.08576 0.03721
 C75 C 0.70287 -0.04435 0.03805
 C76 C 0.71731 -0.02247 0.00006
 C77 C 0.72938 -0.04286 -0.03939
 C78 C 0.72578 -0.08384 -0.04190
 C79 C 0.72061 0.02145 0.00171
 C80 C 0.71668 0.04397 -0.03891
 C81 C 0.72179 0.08532 -0.03825
 C82 C 0.72714 0.10407 0.00472
 C83 C 0.73044 0.08220 0.04569
 C84 C 0.72848 0.04109 0.04366
 H85 H 0.71255 -0.13681 -0.00482
 H86 H 0.69323 -0.02916 0.06862
 H87 H 0.74202 -0.02701 -0.06839
 H88 H 0.70892 0.02902 -0.07069
 H89 H 0.73084 0.13582 0.00611
 H90 H 0.73309 0.02457 0.07510
 C91 C 0.19813 0.38237 0.49113
 C92 C 0.18423 0.40213 0.53018
 C93 C 0.18664 0.44343 0.53129
 C94 C 0.20421 0.46505 0.49509
 C95 C 0.21891 0.44437 0.45703
 C96 C 0.21479 0.40340 0.45404
 C97 C 0.20768 0.50896 0.49689
 C98 C 0.20757 0.53084 0.45571
 C99 C 0.21335 0.57169 0.45593
 C100 C 0.21681 0.59163 0.49836
 C101 C 0.21606 0.57058 0.54022
 C102 C 0.21246 0.52930 0.53913
 H103 H 0.19825 0.35063 0.49044
 H104 H 0.17520 0.45857 0.56096
 H105 H 0.23395 0.45994 0.42944
 H106 H 0.20347 0.51617 0.42278
 H107 H 0.22262 0.62308 0.49886
 H108 H 0.21405 0.51321 0.57132
 C109 C 0.29441 1.10096 -0.01397
 C110 C 0.30872 1.08263 0.02587
 C111 C 0.31327 1.04187 0.02559
 C112 C 0.30148 1.01873 -0.01280
 C113 C 0.28648 1.03783 -0.05213
 C114 C 0.28422 1.07903 -0.05390
 C115 C 0.30358 0.97479 -0.01087
 C116 C 0.30811 0.95212 -0.05123
 C117 C 0.30911 0.91074 -0.04938
 C118 C 0.30710 0.89221 -0.00580
 C119 C 0.30275 0.91423 0.03468
 C120 C 0.29997 0.95507 0.03169
 H121 H 0.28840 1.13188 -0.01230
 H122 H 0.32548 1.02832 0.05607
 H123 H 0.27629 1.02073 -0.08160
 H124 H 0.31101 0.96653 -0.08442
 H125 H 0.30558 0.86057 -0.00308
 H126 H 0.29417 0.97123 0.06297
 C127 C 0.79656 0.60820 0.49620
 C128 C 0.81030 0.58985 0.53637
 C129 C 0.81335 0.54889 0.53697
 C130 C 0.80184 0.52587 0.49855
 C131 C 0.78801 0.54496 0.45854
 C132 C 0.78615 0.58612 0.45673
 C133 C 0.80346 0.48206 0.50083
 C134 C 0.81162 0.46005 0.46103
 C135 C 0.81187 0.41887 0.46246
 C136 C 0.80476 0.39952 0.50452
 C137 C 0.79759 0.42074 0.54497
 C138 C 0.79608 0.46185 0.54265
 H139 H 0.79173 0.63946 0.49645
 H140 H 0.82438 0.53501 0.56792
 H141 H 0.77807 0.52795 0.42888
 H142 H 0.81745 0.47481 0.42854
 H143 H 0.80220 0.36778 0.50528
 H144 H 0.78846 0.47789 0.57346
 O145 O 0.24371 0.27146 0.19259
 O146 O 0.31327 0.23326 0.27653
 O147 O 0.29537 0.21688 0.19043
 O148 O 0.25726 0.28298 0.28047
 O149 O 0.21257 0.23728 0.29848
 O150 O 0.25279 0.17069 0.21282
 O151 O 0.26926 0.18865 0.29957
 O152 O 0.19997 0.22495 0.21089
 Cu153 Cu 0.28178 0.25562 0.23291
 Cu154 Cu 0.22943 0.20059 0.25723
 C155 C 0.21030 0.25488 0.18694
 C156 C 0.30292 0.20560 0.30348
 C157 C 0.28012 0.18243 0.18632
 C158 C 0.22831 0.27104 0.30486
 O159 O 0.74118 0.82847 0.22789
 O160 O 0.77851 0.75972 0.31366
 O161 O 0.79181 0.77312 0.22638
 O162 O 0.72360 0.81116 0.31352
 O163 O 0.67872 0.76734 0.29010
 O164 O 0.74711 0.72769 0.20674
 O165 O 0.73338 0.71489 0.29366
 O166 O 0.69755 0.78355 0.20403
 Cu167 Cu 0.76315 0.79760 0.27264
 Cu168 Cu 0.70949 0.74406 0.24670
 C169 C 0.71403 0.81750 0.20031
 C170 C 0.76259 0.72587 0.31861
 C171 C 0.78072 0.74384 0.20164
 C172 C 0.68946 0.79529 0.31661
 O173 O 0.80927 0.25961 0.22649
 O174 O 0.73861 0.21858 0.30961
 O175 O 0.75468 0.20516 0.22199
 O176 O 0.79041 0.27645 0.31010
 O177 O 0.74659 0.31844 0.28573
 O178 O 0.70991 0.24704 0.20008
 O179 O 0.69463 0.26122 0.28755
 O180 O 0.76525 0.30114 0.20153
 Cu181 Cu 0.77736 0.23547 0.26954
 Cu182 Cu 0.72452 0.28598 0.24134
 C183 C 0.79943 0.28723 0.19975
 C184 C 0.70515 0.23338 0.31384
 C185 C 0.72665 0.21456 0.19530
 C186 C 0.77463 0.30982 0.31243
 O187 O 0.26068 0.68978 0.28460
 O188 O 0.30944 0.74851 0.19299
 O189 O 0.32255 0.73583 0.28076
 O190 O 0.25200 0.69748 0.19462
 O191 O 0.21236 0.74601 0.20957
 O192 O 0.28389 0.78506 0.29609
 O193 O 0.27011 0.79717 0.20841
 O194 O 0.22204 0.73913 0.29945
 Cu195 Cu 0.28995 0.71291 0.23687
 Cu196 Cu 0.24317 0.77167 0.25487
 C197 C 0.23363 0.70491 0.30828
 C198 C 0.29740 0.78284 0.18473
 C199 C 0.31529 0.76660 0.30342
 C200 C 0.22075 0.71555 0.18646
 O201 O 0.80261 0.24447 0.68444
 O202 O 0.76269 0.17325 0.76908
 O203 O 0.74803 0.18994 0.68192
 O204 O 0.81889 0.22642 0.76940
 O205 O 0.77674 0.27049 0.79198
 O206 O 0.70540 0.23313 0.70544
 O207 O 0.72084 0.21716 0.79269
 O208 O 0.75994 0.28805 0.70695
 Cu209 Cu 0.78713 0.20397 0.72391
 Cu210 Cu 0.73629 0.25641 0.75158
 C211 C 0.78802 0.27829 0.68115
 C212 C 0.73558 0.18345 0.79613
 C213 C 0.71501 0.20586 0.67810
 C214 C 0.80991 0.25471 0.79551
 O215 O 0.29129 0.76201 0.70600
 O216 O 0.23484 0.71335 0.79868
 O217 O 0.24445 0.70016 0.70917
 O218 O 0.28218 0.77371 0.79347
 O219 O 0.23253 0.81172 0.77711
 O220 O 0.19439 0.73783 0.69378
 O221 O 0.18491 0.75117 0.78317
 O222 O 0.24101 0.79912 0.68939
 Cu223 Cu 0.26800 0.73319 0.75324
 Cu224 Cu 0.20794 0.77841 0.73431
 C225 C 0.27589 0.78889 0.68204
 C226 C 0.20081 0.72510 0.80791
 C227 C 0.21351 0.70705 0.68617
 C228 C 0.26372 0.80519 0.79970
 O229 O 0.16646 0.25112 0.78130
 O230 O 0.23592 0.21564 0.69634
 O231 O 0.22419 0.20251 0.78394
 O232 O 0.18329 0.26896 0.69521
 O233 O 0.22500 0.31583 0.71866
 O234 O 0.26733 0.24957 0.80303
 O235 O 0.27860 0.26314 0.71531
 O236 O 0.20942 0.29696 0.80438
 Cu237 Cu 0.19807 0.22998 0.73719
 Cu238 Cu 0.24925 0.28609 0.76238
 C239 C 0.17617 0.27923 0.80809
 C240 C 0.26869 0.23339 0.69066
 C241 C 0.25296 0.21519 0.80858
 C242 C 0.19789 0.30373 0.69171
 O243 O 0.75174 0.78174 0.70025
 O244 O 0.81778 0.73935 0.78544
 O245 O 0.80083 0.72502 0.69893
 O246 O 0.76450 0.79232 0.78824
 O247 O 0.71764 0.74859 0.80530
 O248 O 0.75554 0.68083 0.71965
 O249 O 0.77151 0.69640 0.80652
 O250 O 0.70554 0.73730 0.71724
 Cu251 Cu 0.78836 0.76395 0.74137
 Cu252 Cu 0.73301 0.71128 0.76397
 C253 C 0.71773 0.76676 0.69366
 C254 C 0.80597 0.71130 0.81116
 C255 C 0.78393 0.69140 0.69410
 C256 C 0.73473 0.78166 0.81195
 C257 C 0.31402 0.10450 0.07001
 C258 C 0.32048 0.14362 0.07226
 C259 C 0.31597 0.16712 0.11486
 C260 C 0.29230 0.15568 0.14944
 H261 H 0.32791 0.15992 0.04128
 H262 H 0.32833 0.19682 0.11471
 H263 H 0.31062 0.08776 0.10162
 H264 H 0.27776 0.12699 0.14848
 C265 C 0.81670 0.61205 0.57991
 C266 C 0.82428 0.65098 0.58137
 C267 C 0.82027 0.67483 0.62365
 C268 C 0.79553 0.66433 0.65751
 H269 H 0.83197 0.66678 0.55012
 H270 H 0.83387 0.70401 0.62373
 H271 H 0.81313 0.59579 0.61184
 H272 H 0.77967 0.63632 0.65607
 C273 C 0.69069 0.89380 0.07821
 C274 C 0.68402 0.85463 0.08101
 C275 C 0.68365 0.83228 0.12492
 C276 C 0.70395 0.84429 0.16236
 H277 H 0.67979 0.83703 0.05024
 H278 H 0.67157 0.80248 0.12370
 H279 H 0.68938 0.91086 0.10974
 H280 H 0.71854 0.87298 0.16269
 C281 C 0.17218 0.38081 0.57278
 C282 C 0.16390 0.34196 0.57454
 C283 C 0.16492 0.31864 0.61774
 C284 C 0.18578 0.33051 0.65483
 H285 H 0.15892 0.32544 0.54305
 H286 H 0.15353 0.28860 0.61609
 H287 H 0.17297 0.39767 0.60448
 H288 H 0.19956 0.35954 0.65568
 C289 C 0.87955 0.29907 0.08209
 C290 C 0.89219 0.29825 0.12614
 C291 C 0.86497 0.29163 0.16512
 C292 C 0.82731 0.30210 0.16483
 H293 H 0.92299 0.29637 0.13440
 H294 H 0.87639 0.27574 0.19448
 H295 H 0.84814 0.29787 0.07616
 H296 H 0.81608 0.32039 0.13744
 C297 C 0.39494 0.80872 0.59156
 C298 C 0.35687 0.81566 0.59695
 C299 C 0.33635 0.80212 0.63878
 C300 C 0.29806 0.80764 0.64420
 H301 H 0.34015 0.82925 0.56965
 H302 H 0.35231 0.78528 0.66417
 H303 H 0.41121 0.79686 0.62046
 H304 H 0.28225 0.82510 0.61933
 C305 C 0.10116 0.71246 0.09054
 C306 C 0.13969 0.70680 0.09532
 C307 C 0.16006 0.71548 0.13944
 C308 C 0.19582 0.70200 0.14756
 H309 H 0.15698 0.69640 0.06689
 H310 H 0.14655 0.73462 0.16428
 H311 H 0.08498 0.71906 0.12163
 H312 H 0.20836 0.68171 0.12326
 C313 C 0.59418 0.21471 0.58687
 C314 C 0.63071 0.20194 0.59110
 C315 C 0.65313 0.20836 0.63423
 C316 C 0.68878 0.19375 0.63974
 H317 H 0.64479 0.18817 0.56208
 H318 H 0.64130 0.22729 0.66051
 H319 H 0.57978 0.22635 0.61700
 H320 H 0.70019 0.17434 0.61368
 C321 C 0.72324 0.10867 0.92133
 C322 C 0.72682 0.09460 0.87810
 C323 C 0.73494 0.12020 0.83774
 C324 C 0.72215 0.15692 0.83350
 H325 H 0.72927 0.06348 0.87187
 H326 H 0.75259 0.10800 0.81059
 H327 H 0.72500 0.14030 0.92592
 H328 H 0.70251 0.16855 0.85901
 C329 C 0.22046 0.59146 0.41112
 C330 C 0.21365 0.62925 0.40295
 C331 C 0.22627 0.64735 0.35908
 C332 C 0.21652 0.68386 0.34807
 H333 H 0.19981 0.64708 0.42882
 H334 H 0.24524 0.63116 0.33650
 H335 H 0.23238 0.57390 0.38356
 H336 H 0.19701 0.69968 0.37034
 C337 C 0.30864 0.88922 0.90888
 C338 C 0.31482 0.85040 0.90605
 C339 C 0.30654 0.82648 0.86437
 C340 C 0.27733 0.83401 0.83473
 H341 H 0.32656 0.83450 0.93509
 H342 H 0.32153 0.79894 0.86180
 H343 H 0.30230 0.90491 0.87722
 H344 H 0.26043 0.86024 0.83886
 C345 C 0.81433 0.39654 0.41875
 C346 C 0.82475 0.35882 0.41707
 C347 C 0.81689 0.33292 0.37695
 C348 C 0.78751 0.33896 0.34710
 H349 H 0.83797 0.34529 0.44697
 H350 H 0.83268 0.30579 0.37541
 H351 H 0.80511 0.41121 0.38747
 H352 H 0.77020 0.36501 0.34975
 C353 C 0.09600 0.30640 0.92421
 C354 C 0.13467 0.31507 0.92283
 C355 C 0.15859 0.31278 0.88047
 C356 C 0.14860 0.28935 0.84482
 H357 H 0.15032 0.32284 0.95432
 H358 H 0.18758 0.32667 0.88159
 H359 H 0.07966 0.30260 0.89225
 H360 H 0.12077 0.27323 0.84480
 C361 C 0.60908 0.82842 0.42942
 C362 C 0.64800 0.83562 0.42885
 C363 C 0.67226 0.83175 0.38704
 C364 C 0.66192 0.80748 0.35231
 H365 H 0.66357 0.84256 0.46064
 H366 H 0.70163 0.84473 0.38818
 H367 H 0.59305 0.82559 0.39712
 H368 H 0.63360 0.79227 0.35246
 C369 C 0.88251 0.70002 0.93451
 C370 C 0.89563 0.70516 0.89128
 C371 C 0.86963 0.70973 0.85073
 C372 C 0.83192 0.69741 0.84831
 H373 H 0.92628 0.71254 0.88558
 H374 H 0.88221 0.72626 0.82217
 H375 H 0.85133 0.69607 0.94029
 H376 H 0.81920 0.67889 0.87500
 C377 C 0.38090 0.18542 0.42410
 C378 C 0.34243 0.17581 0.42197
 C379 C 0.31908 0.17539 0.37857
 C380 C 0.33021 0.19563 0.34091
 H381 H 0.32627 0.16995 0.45334
 H382 H 0.28952 0.16295 0.38026
 H383 H 0.39764 0.18730 0.39253
 H384 H 0.35864 0.21051 0.33989
 C385 C 0.73889 0.89596 0.91590
 C386 C 0.72214 0.86214 0.90141
 C387 C 0.73689 0.84091 0.86116
 C388 C 0.71968 0.80680 0.84859
 H389 H 0.69727 0.84948 0.91986
 H390 H 0.76256 0.85227 0.84309
 H391 H 0.76226 0.90965 0.89579
 H392 H 0.69420 0.79581 0.86734
 C393 C 0.22995 0.38314 0.41278
 C394 C 0.21375 0.34950 0.39680
 C395 C 0.22958 0.32914 0.35636
 C396 C 0.21260 0.29540 0.34196
 H397 H 0.18823 0.33659 0.41374
 H398 H 0.25567 0.34090 0.33949
 H399 H 0.25406 0.39701 0.39407
 H400 H 0.18683 0.28389 0.35974
 C401 C 0.27027 0.09694 0.90538
 C402 C 0.27531 0.13543 0.89637
 C403 C 0.25900 0.15420 0.85490
 C404 C 0.26985 0.19139 0.84557
 H405 H 0.29284 0.15407 0.91921
 H406 H 0.23769 0.13849 0.83333
 H407 H 0.25619 0.07853 0.87915
 H408 H 0.29179 0.20605 0.86735
 C409 C 0.77099 0.60563 0.41455
 C410 C 0.78271 0.64219 0.40280
 C411 C 0.76565 0.66365 0.36354
 C412 C 0.77875 0.70030 0.35460
 H413 H 0.80537 0.65722 0.42310
 H414 H 0.74205 0.65024 0.34321
 H415 H 0.75013 0.58960 0.39271
 H416 H 0.80247 0.71288 0.37550
 C417 C 0.09316 0.72075 0.91953
 C418 C 0.13025 0.71251 0.90893
 C419 C 0.14589 0.72196 0.86272
 C420 C 0.18105 0.70982 0.84963
 H421 H 0.14956 0.69916 0.93383
 H422 H 0.12934 0.74094 0.84021
 H423 H 0.07455 0.73081 0.89160
 H424 H 0.19725 0.69047 0.87205
 C425 C 0.58923 0.23509 0.41480
 C426 C 0.62442 0.22145 0.40401
 C427 C 0.64514 0.23386 0.36160
 C428 C 0.67967 0.21854 0.35128
 H429 H 0.63870 0.20133 0.42730
 H430 H 0.63320 0.25685 0.34023
 H431 H 0.57406 0.25332 0.39013
 H432 H 0.69112 0.19557 0.37312
 C433 C 0.88372 0.27432 0.91911
 C434 C 0.89835 0.26411 0.87793
 C435 C 0.87266 0.25358 0.83820
 C436 C 0.83731 0.26897 0.83155
 H437 H 0.92929 0.26003 0.87312
 H438 H 0.88342 0.23230 0.81391
 H439 H 0.85209 0.27502 0.92206
 H440 H 0.82738 0.29209 0.85394
 C441 C 0.39662 0.80542 0.41793
 C442 C 0.36023 0.81821 0.41028
 C443 C 0.33641 0.80926 0.36844
 C444 C 0.34331 0.77942 0.33970
 H445 H 0.34639 0.83596 0.43618
 H446 H 0.30994 0.82572 0.36398
 H447 H 0.41218 0.79098 0.39061
 H448 H 0.36862 0.76147 0.34483
 C449 C 0.29694 0.89505 0.08010
 C450 C 0.31206 0.86045 0.09128
 C451 C 0.30101 0.84093 0.13478
 C452 C 0.31400 0.80539 0.14574
 H453 H 0.33134 0.84575 0.06771
 H454 H 0.27983 0.85483 0.15673
 H455 H 0.27929 0.91003 0.10526
 H456 H 0.33513 0.79142 0.12381
 C457 C 0.78837 0.39993 0.58881
 C458 C 0.80329 0.36496 0.59902
 C459 C 0.78972 0.34145 0.63886
 C460 C 0.80363 0.30554 0.64586
 H461 H 0.82493 0.35250 0.57651
 H462 H 0.76692 0.35254 0.66081
 H463 H 0.76841 0.41334 0.61271
 H464 H 0.82633 0.29487 0.62344
 C465 C 0.73829 0.10172 0.09062
 C466 C 0.72213 0.13568 0.10189
 C467 C 0.73217 0.15613 0.14542
 C468 C 0.71399 0.18899 0.15671
 H469 H 0.70157 0.14900 0.07829
 H470 H 0.75576 0.14550 0.16692
 H471 H 0.75693 0.08724 0.11546
 H472 H 0.69048 0.19920 0.13474
 C473 C 0.22268 0.59089 0.58508
 C474 C 0.20835 0.62627 0.59418
 C475 C 0.21844 0.64762 0.63731
 C476 C 0.20029 0.68069 0.64829
 H477 H 0.18955 0.64016 0.56903
 H478 H 0.24212 0.63730 0.65888
 H479 H 0.23938 0.57604 0.61151
 H480 H 0.17623 0.69026 0.62677
 C481 C 0.89423 0.74608 0.09742
 C482 C 0.86027 0.73023 0.11216
 C483 C 0.83993 0.74523 0.15288
 C484 C 0.80581 0.72834 0.16537
 H485 H 0.84669 0.70581 0.09333
 H486 H 0.85172 0.77086 0.17106
 H487 H 0.90913 0.76886 0.11767
 H488 H 0.79446 0.70295 0.14634
 C489 C 0.38340 0.23760 0.58732
 C490 C 0.34926 0.22152 0.60133
 C491 C 0.32804 0.23650 0.64158
 C492 C 0.29417 0.21894 0.65398
 H493 H 0.33640 0.19668 0.58262
 H494 H 0.33924 0.26232 0.65985
 H495 H 0.39737 0.26088 0.60768
 H496 H 0.28351 0.19327 0.63495
 C497 C 0.09114 0.26031 0.08921
 C498 C 0.12713 0.27315 0.10159
 C499 C 0.14869 0.25650 0.14096
 C500 C 0.18454 0.27098 0.15117
 H501 H 0.14153 0.29640 0.08181
 H502 H 0.13606 0.23199 0.16026
 H503 H 0.07569 0.23882 0.11055
 H504 H 0.19639 0.29557 0.13131
 C505 C 0.60164 0.77634 0.59166
 C506 C 0.63747 0.78840 0.60564
 C507 C 0.65766 0.77054 0.64526
 C508 C 0.69343 0.78416 0.65732
 H509 H 0.65261 0.81203 0.58726
 H510 H 0.64407 0.74586 0.66337
 H511 H 0.58552 0.75440 0.61168
 H512 H 0.70637 0.80885 0.63854
   
