data_POSCAR
  _audit_creation_date              2014-09-24
  _audit_creation_method            'ToBaCCo'
  _symmetry_space_group_name_H-M    'P1'
  _symmetry_Int_Tables_number       1
  _symmetry_cell_setting            triclinic
  loop_
  _symmetry_equiv_pos_as_xyz
 x,y,z
_cell_length_a 37.2728
_cell_length_b 39.0573
_cell_length_c 22.6935
_cell_angle_alpha 89.929400
_cell_angle_beta 90.095000
_cell_angle_gamma 120.387900
loop_
  _atom_site_label
  _atom_site_type_symbol
  _atom_site_fract_x
  _atom_site_fract_y
  _atom_site_fract_z
C1 C 0.45189 0.89470 0.50116
 C2 C 0.46318 0.91505 0.55533
 C3 C 0.48115 0.95667 0.55421
 C4 C 0.48452 0.97754 0.50163
 C5 C 0.47091 0.95558 0.44876
 C6 C 0.45636 0.91470 0.44798
 C7 C 0.50310 1.02200 0.50218
 C8 C 0.51918 1.04490 0.45038
 C9 C 0.53729 1.08661 0.45064
 C10 C 0.54163 1.10553 0.50522
 C11 C 0.52661 1.08367 0.55739
 C12 C 0.50596 1.04217 0.55508
 H13 H 0.43737 0.86273 0.49970
 H14 H 0.49447 0.97289 0.59441
 H15 H 0.47208 0.96988 0.40750
 H16 H 0.51990 1.03073 0.41002
 H17 H 0.55576 1.13742 0.50765
 H18 H 0.49213 1.02607 0.59528
 C19 C 0.11093 0.56027 0.49536
 C20 C 0.08987 0.55240 0.54966
 C21 C 0.04599 0.52919 0.54906
 C22 C 0.02351 0.51144 0.49684
 C23 C 0.04619 0.51864 0.44408
 C24 C 0.08938 0.54395 0.44271
 C25 C -0.02324 0.48556 0.49748
 C26 C -0.04687 0.47825 0.44535
 C27 C -0.09031 0.45189 0.44439
 C28 C -0.11050 0.43591 0.49838
 C29 C -0.08819 0.44423 0.55128
 C30 C -0.04469 0.46756 0.55007
 H31 H 0.14447 0.57801 0.49348
 H32 H 0.02936 0.52655 0.58924
 H33 H 0.03096 0.50423 0.40346
 H34 H -0.03125 0.49185 0.40478
 H35 H -0.14411 0.41872 0.50013
 H36 H -0.02803 0.47101 0.59066
 C37 C 0.45716 0.56410 0.50169
 C38 C 0.46988 0.55537 0.55528
 C39 C 0.48793 0.53118 0.55356
 C40 C 0.49067 0.51351 0.50077
 C41 C 0.47602 0.52186 0.44844
 C42 C 0.46069 0.54810 0.44823
 C43 C 0.50947 0.48723 0.50040
 C44 C 0.52519 0.48021 0.44804
 C45 C 0.54260 0.45564 0.44765
 C46 C 0.54672 0.43961 0.50076
 C47 C 0.53233 0.44679 0.55367
 C48 C 0.51248 0.46922 0.55274
 H49 H 0.44218 0.58167 0.50125
 H50 H 0.50172 0.52787 0.59339
 H51 H 0.47691 0.50863 0.40719
 H52 H 0.52504 0.49425 0.40712
 H53 H 0.56135 0.42168 0.50092
 H54 H 0.49926 0.47206 0.59347
 O55 O 0.40707 0.66761 -0.04986
 O56 O 0.40450 0.73213 -0.06473
 C57 C 0.38433 0.74923 -0.07751
 O58 O 0.35200 0.74300 -0.04940
 O59 O 0.28459 0.67606 -0.07085
 C60 C 0.26666 0.63982 -0.08528
 O61 O 0.27216 0.61448 -0.05758
 O62 O 0.34344 0.61823 -0.07220
 C63 C 0.38224 0.63816 -0.08148
 O64 O 0.40166 0.67480 0.06778
 O65 O 0.40317 0.74166 0.05304
 C66 C 0.37619 0.74593 0.08116
 O67 O 0.33805 0.72766 0.06741
 O68 O 0.26902 0.66208 0.04602
 C69 C 0.26342 0.63128 0.07346
 O70 O 0.28234 0.61308 0.06019
 O71 O 0.35143 0.61335 0.04552
 C72 C 0.38182 0.63775 0.07735
 Cr73 Cr 0.40181 0.70293 0.00147
 Cr74 Cr 0.31209 0.70111 -0.00172
 Cr75 Cr 0.31345 0.61699 -0.00592
 O76 O 0.34243 0.67367 -0.00206
 O77 O 0.59436 0.33424 -0.04701
 O78 O 0.59416 0.26826 -0.06089
 C79 C 0.61340 0.25036 -0.07411
 O80 O 0.64598 0.25618 -0.04703
 O81 O 0.71456 0.32204 -0.06893
 C82 C 0.73339 0.35833 -0.08325
 O83 O 0.72874 0.38414 -0.05559
 O84 O 0.65855 0.38255 -0.06928
 C85 C 0.61974 0.36331 -0.07884
 O86 O 0.60013 0.32742 0.07094
 O87 O 0.59627 0.25941 0.05706
 C88 C 0.62309 0.25453 0.08471
 O89 O 0.66091 0.27147 0.06970
 O90 O 0.73073 0.33557 0.04785
 C91 C 0.73766 0.36673 0.07533
 O92 O 0.71997 0.38615 0.06229
 O93 O 0.65195 0.38810 0.04861
 C94 C 0.62127 0.36441 0.08052
 Cr95 Cr 0.59857 0.29843 0.00490
 Cr96 Cr 0.68689 0.29743 0.00037
 Cr97 Cr 0.68859 0.38301 -0.00339
 O98 O 0.65803 0.32629 0.00059
 C99 C 0.43641 0.85043 -0.28357
 C100 C 0.43890 0.88744 -0.28534
 C101 C 0.44877 0.90915 -0.33779
 C102 C 0.45593 0.89419 -0.39047
 C103 C 0.45403 0.85716 -0.38772
 C104 C 0.44452 0.83575 -0.33513
 C105 C 0.42462 0.82666 -0.22856
 C106 C 0.44556 0.80679 -0.21166
 C107 C 0.43304 0.78249 -0.16187
 C108 C 0.39913 0.77733 -0.12781
 C109 C 0.37872 0.79792 -0.14399
 C110 C 0.39144 0.82243 -0.19379
 H111 H 0.44853 0.93673 -0.33713
 H112 H 0.46093 0.84477 -0.42566
 H113 H 0.44957 0.76718 -0.15073
 H114 H 0.35248 0.79456 -0.11881
 H115 H 0.44280 0.80722 -0.33509
 H116 H 0.47158 0.80991 -0.23719
 H117 H 0.43300 0.89957 -0.24609
 H118 H 0.37451 0.83715 -0.20611
 C119 C 0.15983 0.59105 -0.29090
 C120 C 0.11989 0.55735 -0.29140
 C121 C 0.09632 0.54539 -0.34324
 C122 C 0.11232 0.56650 -0.39655
 C123 C 0.15220 0.60096 -0.39495
 C124 C 0.17545 0.61299 -0.34299
 C125 C 0.18563 0.60308 -0.23665
 C126 C 0.20875 0.64324 -0.22050
 C127 C 0.23458 0.65495 -0.17105
 C128 C 0.23808 0.62680 -0.13659
 C129 C 0.21453 0.58651 -0.15233
 C130 C 0.18846 0.57476 -0.20176
 H131 H 0.06649 0.51821 -0.34167
 H132 H 0.16553 0.61955 -0.43336
 H133 H 0.25216 0.68624 -0.16023
 H134 H 0.21648 0.56407 -0.12677
 H135 H 0.20617 0.63920 -0.34391
 H136 H 0.20682 0.66565 -0.24617
 H137 H 0.10694 0.54004 -0.25167
 H138 H 0.17128 0.54363 -0.21354
 C139 C 0.44370 0.59419 -0.28387
 C140 C 0.45301 0.61744 -0.33485
 C141 C 0.46249 0.60523 -0.38747
 C142 C 0.46355 0.56959 -0.39039
 C143 C 0.45607 0.54746 -0.33789
 C144 C 0.44581 0.55940 -0.28565
 C145 C 0.42950 0.60509 -0.22999
 C146 C 0.39264 0.57694 -0.20208
 C147 C 0.37747 0.58763 -0.15352
 C148 C 0.39928 0.62652 -0.13128
 C149 C 0.43674 0.65445 -0.15832
 C150 C 0.45151 0.64392 -0.20763
 H151 H 0.46972 0.62437 -0.42546
 H152 H 0.45541 0.51944 -0.33748
 H153 H 0.34859 0.56548 -0.13347
 H154 H 0.45405 0.68470 -0.14229
 H155 H 0.43882 0.54104 -0.24669
 H156 H 0.37495 0.54693 -0.21891
 H157 H 0.45171 0.64452 -0.33444
 H158 H 0.48005 0.66608 -0.22844
 C159 C 0.55535 0.14753 -0.27839
 C160 C 0.55866 0.11340 -0.28369
 C161 C 0.54812 0.09204 -0.33646
 C162 C 0.53413 0.10440 -0.38514
 C163 C 0.52980 0.13794 -0.37936
 C164 C 0.54030 0.15927 -0.32660
 C165 C 0.56881 0.17166 -0.22363
 C166 C 0.54610 0.18861 -0.20168
 C167 C 0.56013 0.21336 -0.15239
 C168 C 0.59721 0.22176 -0.12372
 C169 C 0.61938 0.20398 -0.14474
 C170 C 0.60534 0.17921 -0.19418
 H171 H 0.55211 0.06650 -0.33976
 H172 H 0.51869 0.14793 -0.41588
 H173 H 0.54211 0.22636 -0.13726
 H174 H 0.64813 0.20993 -0.12388
 H175 H 0.53775 0.18564 -0.32413
 H176 H 0.51752 0.18286 -0.22282
 H177 H 0.56967 0.10334 -0.24712
 H178 H 0.62379 0.16695 -0.21043
 C179 C 0.84176 0.40608 -0.28707
 C180 C 0.83034 0.38019 -0.33550
 C181 C 0.85383 0.39201 -0.38725
 C182 C 0.88924 0.43003 -0.39186
 C183 C 0.90136 0.45549 -0.34285
 C184 C 0.87788 0.44365 -0.29105
 C185 C 0.81531 0.39432 -0.23343
 C186 C 0.80769 0.42177 -0.20424
 C187 C 0.78145 0.41028 -0.15518
 C188 C 0.76216 0.37104 -0.13424
 C189 C 0.77018 0.34374 -0.16307
 C190 C 0.79646 0.35525 -0.21198
 H191 H 0.84394 0.37157 -0.42403
 H192 H 0.92827 0.48510 -0.34519
 H193 H 0.77585 0.43202 -0.13417
 H194 H 0.75605 0.31332 -0.14797
 H195 H 0.88783 0.46406 -0.25424
 H196 H 0.82125 0.45195 -0.22017
 H197 H 0.80251 0.35118 -0.33409
 H198 H 0.80215 0.33355 -0.23293
 C199 C 0.56067 0.40863 -0.28366
 C200 C 0.56599 0.44675 -0.28887
 C201 C 0.55557 0.45858 -0.34113
 C202 C 0.53994 0.43266 -0.38953
 C203 C 0.53376 0.39419 -0.38395
 C204 C 0.54381 0.38220 -0.33135
 C205 C 0.57472 0.39730 -0.22975
 C206 C 0.54987 0.36004 -0.20321
 C207 C 0.56399 0.34928 -0.15325
 C208 C 0.60349 0.37536 -0.12946
 C209 C 0.62817 0.41268 -0.15596
 C210 C 0.61384 0.42359 -0.20532
 H211 H 0.56100 0.48851 -0.34436
 H212 H 0.52149 0.37354 -0.42044
 H213 H 0.54437 0.32023 -0.13401
 H214 H 0.65872 0.43346 -0.13872
 H215 H 0.53965 0.35273 -0.32859
 H216 H 0.51950 0.33932 -0.22105
 H217 H 0.57861 0.46757 -0.25261
 H218 H 0.63383 0.45231 -0.22529
 C219 C 0.84187 0.41780 0.28288
 C220 C 0.87753 0.45542 0.28856
 C221 C 0.89989 0.46686 0.34146
 C222 C 0.88683 0.44110 0.39067
 C223 C 0.85054 0.40344 0.38438
 C224 C 0.82864 0.39197 0.33126
 C225 C 0.81777 0.40570 0.22720
 C226 C 0.80330 0.36765 0.20364
 C227 C 0.77845 0.35542 0.15304
 C228 C 0.76721 0.38086 0.12540
 C229 C 0.78247 0.41923 0.14834
 C230 C 0.80768 0.43159 0.19851
 H231 H 0.92643 0.49661 0.34387
 H232 H 0.83967 0.38176 0.41954
 H233 H 0.76705 0.32564 0.13660
 H234 H 0.77440 0.43955 0.12804
 H235 H 0.80103 0.36285 0.32818
 H236 H 0.81098 0.34727 0.22467
 H237 H 0.88828 0.47599 0.25187
 H238 H 0.81817 0.46095 0.21601
 C239 C 0.57419 0.15468 0.29227
 C240 C 0.59474 0.17136 0.34551
 C241 C 0.58311 0.14898 0.39728
 C242 C 0.55059 0.10893 0.39746
 C243 C 0.53076 0.09217 0.34319
 C244 C 0.54218 0.11486 0.29155
 C245 C 0.58628 0.17903 0.23786
 C246 C 0.55598 0.17864 0.20044
 C247 C 0.56774 0.20306 0.15052
 C248 C 0.61002 0.22797 0.13676
 C249 C 0.64019 0.22776 0.17386
 C250 C 0.62846 0.20370 0.22388
 H251 H 0.60084 0.16315 0.43662
 H252 H 0.50489 0.06203 0.34060
 H253 H 0.54375 0.20249 0.12283
 H254 H 0.67305 0.24660 0.16469
 H255 H 0.52596 0.10122 0.25091
 H256 H 0.52324 0.16010 0.21054
 H257 H 0.61963 0.20203 0.34730
 H258 H 0.65243 0.20429 0.25164
 C259 C 0.57821 0.42354 0.28594
 C260 C 0.60555 0.43707 0.33429
 C261 C 0.59429 0.44798 0.38671
 C262 C 0.55575 0.44610 0.39138
 C263 C 0.52892 0.43357 0.34249
 C264 C 0.53992 0.42215 0.29041
 C265 C 0.58886 0.40940 0.23183
 C266 C 0.55971 0.37298 0.20647
 C267 C 0.57011 0.35858 0.15698
 C268 C 0.60971 0.38059 0.13127
 C269 C 0.63861 0.41746 0.15595
 C270 C 0.62838 0.43157 0.20606
 H271 H 0.61561 0.45778 0.42368
 H272 H 0.49892 0.43160 0.34513
 H273 H 0.54717 0.33011 0.13898
 H274 H 0.66944 0.43498 0.13733
 H275 H 0.51843 0.41206 0.25362
 H276 H 0.52916 0.35516 0.22584
 H277 H 0.63513 0.43815 0.33205
 H278 H 0.65130 0.45984 0.22466
 C279 C 0.15770 0.57606 0.27959
 C280 C 0.11983 0.57554 0.28390
 C281 C 0.09722 0.56427 0.33650
 C282 C 0.11219 0.55359 0.38595
 C283 C 0.14980 0.55368 0.38140
 C284 C 0.17228 0.56474 0.32880
 C285 C 0.18244 0.58888 0.22444
 C286 C 0.20199 0.56852 0.20391
 C287 C 0.22737 0.58180 0.15414
 C288 C 0.23391 0.61586 0.12359
 C289 C 0.21349 0.63571 0.14322
 C290 C 0.18794 0.62230 0.19311
 H291 H 0.06845 0.56473 0.33897
 H292 H 0.16187 0.54523 0.41861
 H293 H 0.24241 0.56562 0.14020
 H294 H 0.21791 0.66207 0.12083
 H295 H 0.20156 0.56522 0.32701
 H296 H 0.19780 0.54232 0.22657
 H297 H 0.10767 0.58375 0.24654
 H298 H 0.17352 0.63878 0.20823
 C299 C 0.42614 0.84845 0.28583
 C300 C 0.44999 0.84364 0.32947
 C301 C 0.45987 0.86537 0.38174
 C302 C 0.44626 0.89250 0.39157
 C303 C 0.42297 0.89785 0.34760
 C304 C 0.41286 0.87591 0.29531
 C305 C 0.41409 0.82385 0.23161
 C306 C 0.37331 0.80641 0.20975
 C307 C 0.36120 0.78147 0.16065
 C308 C 0.38966 0.77351 0.13203
 C309 C 0.43070 0.79155 0.15327
 C310 C 0.44274 0.81637 0.20261
 H311 H 0.47828 0.86098 0.41461
 H312 H 0.41191 0.91841 0.35413
 H313 H 0.32935 0.76811 0.14549
 H314 H 0.45341 0.78612 0.13223
 H315 H 0.39471 0.88045 0.26221
 H316 H 0.35042 0.81122 0.23158
 H317 H 0.46027 0.82242 0.32375
 H318 H 0.47452 0.82975 0.21813
 C319 C 0.42808 0.58306 0.28546
 C320 C 0.44879 0.61072 0.33074
 C321 C 0.45928 0.59923 0.38317
 C322 C 0.44899 0.55968 0.39210
 C323 C 0.42806 0.53186 0.34702
 C324 C 0.41775 0.54344 0.29423
 C325 C 0.41716 0.59577 0.22974
 C326 C 0.37897 0.57121 0.20134
 C327 C 0.36789 0.58436 0.15086
 C328 C 0.39464 0.62245 0.12798
 C329 C 0.43319 0.64660 0.15556
 C330 C 0.44440 0.63333 0.20557
 H331 H 0.47588 0.62153 0.41663
 H332 H 0.41929 0.50107 0.35272
 H333 H 0.33786 0.56515 0.13079
 H334 H 0.45470 0.67594 0.13869
 H335 H 0.40208 0.52146 0.26008
 H336 H 0.35706 0.54229 0.21912
 H337 H 0.45658 0.64131 0.32598
 H338 H 0.47445 0.65265 0.22549
   
