data_POSCAR
  _audit_creation_date              2014-09-24
  _audit_creation_method            'ToBaCCo'
  _symmetry_space_group_name_H-M    'P1'
  _symmetry_Int_Tables_number       1
  _symmetry_cell_setting            triclinic
  loop_
  _symmetry_equiv_pos_as_xyz
 x,y,z
_cell_length_a 38.8841
_cell_length_b 38.9147
_cell_length_c 38.9097
_cell_angle_alpha 90.139100
_cell_angle_beta 90.351700
_cell_angle_gamma 88.570200
loop_
  _atom_site_label
  _atom_site_type_symbol
  _atom_site_fract_x
  _atom_site_fract_y
  _atom_site_fract_z
C1 C 0.02375 0.45097 0.20214
 H2 H 0.04501 0.46818 0.19959
 C3 C 0.02427 0.41947 0.18463
 H4 H 0.04575 0.41383 0.16785
 C5 C -0.02989 0.43857 0.22684
 H6 H -0.05047 0.44528 0.24425
 C7 C -0.03060 0.40710 0.20979
 H8 H -0.05176 0.39058 0.21539
 N9 N -0.00310 0.45991 0.22275
 C10 C -0.00743 0.57109 0.23857
 H11 H -0.00973 0.57109 0.26626
 C12 C -0.00903 0.60208 0.22069
 H13 H -0.01207 0.62588 0.23493
 C14 C -0.00023 0.53982 0.18666
 H15 H 0.00278 0.51544 0.17355
 C16 C -0.00158 0.57037 0.16768
 H17 H 0.00035 0.56920 0.13995
 Zn18 Zn -0.00229 0.50091 0.24933
 N19 N -0.00288 0.54082 0.22150
 C20 C 0.06118 0.52509 0.27414
 N21 N 0.03814 0.49952 0.27698
 C22 C 0.04470 0.47188 0.29756
 C23 C 0.07536 0.46938 0.31653
 C24 C 0.09199 0.52369 0.29268
 C25 C -0.07223 0.50999 0.25809
 C26 C -0.10403 0.50922 0.27428
 C27 C -0.07469 0.49668 0.32790
 C28 C -0.04327 0.49768 0.31059
 N29 N -0.04274 0.50347 0.27613
 H30 H 0.05613 0.54636 0.25694
 H31 H 0.02629 0.45155 0.29888
 H32 H 0.08010 0.44726 0.33287
 H33 H 0.11019 0.54402 0.28946
 H34 H -0.07101 0.51475 0.23075
 H35 H -0.12718 0.51407 0.25929
 H36 H -0.07484 0.49085 0.35509
 H37 H -0.01951 0.49288 0.32449
 C38 C -0.00613 0.60204 0.18475
 C39 C -0.00319 0.39659 0.18826
 C40 C -0.10563 0.50178 0.30949
 C41 C 0.09952 0.49553 0.31417
 C42 C 0.03005 0.54776 0.79705
 H43 H 0.05105 0.52902 0.79813
 C44 C 0.03242 0.57881 0.81496
 H45 H 0.05514 0.58362 0.83029
 C46 C -0.02472 0.56466 0.77498
 H47 H -0.04652 0.55963 0.75859
 C48 C -0.02350 0.59586 0.79253
 H49 H -0.04451 0.61440 0.78942
 N50 N 0.00178 0.54132 0.77754
 C51 C -0.00357 0.43103 0.76064
 H52 H -0.00659 0.43132 0.73298
 C53 C -0.00420 0.40000 0.77833
 H54 H -0.00731 0.37638 0.76401
 C55 C 0.00477 0.46168 0.81263
 H56 H 0.00791 0.48586 0.82585
 C57 C 0.00442 0.43109 0.83142
 H58 H 0.00722 0.43198 0.85911
 Zn59 Zn 0.00133 0.50095 0.75042
 N60 N 0.00117 0.46099 0.77785
 C61 C 0.06494 0.47437 0.72668
 N62 N 0.04140 0.50058 0.72309
 C63 C 0.04784 0.52824 0.70302
 C64 C 0.07928 0.53049 0.68600
 C65 C 0.09657 0.47557 0.71018
 C66 C -0.06866 0.49613 0.74158
 C67 C -0.10039 0.49572 0.72488
 C68 C -0.07125 0.50410 0.67105
 C69 C -0.03995 0.50419 0.68901
 N70 N -0.03934 0.50066 0.72368
 H71 H 0.05978 0.45294 0.74326
 H72 H 0.02899 0.54909 0.70120
 H73 H 0.08443 0.55317 0.67100
 H74 H 0.11500 0.45452 0.71360
 H75 H -0.06737 0.49346 0.76924
 H76 H -0.12267 0.49409 0.74114
 H77 H -0.06992 0.50574 0.64340
 H78 H -0.01618 0.50696 0.67516
 C79 C -0.00011 0.39972 0.81419
 C80 C 0.00544 0.60340 0.81264
 C81 C -0.10272 0.49986 0.68873
 C82 C 0.10436 0.50416 0.69003
 C83 C 0.19122 0.01949 0.45674
 H84 H 0.17747 0.02525 0.48014
 C85 C 0.17394 0.02189 0.42514
 H86 H 0.14711 0.03001 0.42453
 C87 C 0.24253 0.00140 0.42880
 H88 H 0.26894 -0.00777 0.43041
 C89 C 0.22638 0.00353 0.39683
 H90 H 0.24073 -0.00374 0.37407
 N91 N 0.22511 0.00985 0.45793
 C92 C 0.22336 -0.02231 0.56011
 H93 H 0.23978 -0.04424 0.55409
 C94 C 0.20509 -0.02201 0.59081
 H95 H 0.20712 -0.04414 0.60759
 C96 C 0.20145 0.03332 0.54622
 H97 H 0.20101 0.05524 0.52917
 C98 C 0.18273 0.03471 0.57680
 H99 H 0.16781 0.05774 0.58297
 Zn100 Zn 0.25067 0.00518 0.49942
 N101 N 0.22154 0.00520 0.53860
 C102 C 0.28252 0.06083 0.53281
 N103 N 0.28180 0.04203 0.50329
 C104 C 0.30128 0.05068 0.47584
 C105 C 0.32078 0.08033 0.47668
 C106 C 0.30167 0.09065 0.53478
 C107 C 0.25516 -0.06497 0.48844
 C108 C 0.27009 -0.09781 0.48664
 C109 C 0.32495 -0.07367 0.50142
 C110 C 0.30888 -0.04112 0.50295
 N111 N 0.27451 -0.03755 0.49683
 H112 H 0.26773 0.05316 0.55477
 H113 H 0.30092 0.03530 0.45277
 H114 H 0.33479 0.08755 0.45396
 H115 H 0.30138 0.10555 0.55831
 H116 H 0.22792 -0.06125 0.48344
 H117 H 0.25419 -0.11926 0.47980
 H118 H 0.35217 -0.07630 0.50710
 H119 H 0.32368 -0.01885 0.50951
 C120 C 0.18489 0.00697 0.59982
 C121 C 0.19170 0.01410 0.39465
 C122 C 0.30536 -0.10258 0.49350
 C123 C 0.32045 0.10123 0.50614
 C124 C 0.79868 0.01813 0.54513
 H125 H 0.80061 0.03904 0.52703
 C126 C 0.81672 0.01912 0.57632
 H127 H 0.83301 0.04064 0.58179
 C128 C 0.77427 -0.03484 0.56040
 H129 H 0.75690 -0.05532 0.55474
 C130 C 0.79186 -0.03493 0.59174
 H131 H 0.78777 -0.05563 0.60969
 N132 N 0.77787 -0.00854 0.53783
 C133 C 0.75878 -0.01121 0.42726
 H134 H 0.73108 -0.01312 0.42802
 C135 C 0.77563 -0.01176 0.39576
 H136 H 0.76011 -0.01531 0.37296
 C137 C 0.81161 -0.00666 0.45712
 H138 H 0.82547 -0.00461 0.48116
 C139 C 0.82967 -0.00718 0.42610
 H140 H 0.85723 -0.00438 0.42736
 Zn141 Zn 0.75008 -0.00673 0.49764
 N142 N 0.77674 -0.00814 0.45706
 C143 C 0.72698 0.05831 0.47340
 N144 N 0.72385 0.03503 0.49914
 C145 C 0.70447 0.04237 0.52734
 C146 C 0.68721 0.07421 0.53036
 C147 C 0.71011 0.09030 0.47530
 C148 C 0.73833 -0.07620 0.49060
 C149 C 0.72014 -0.10659 0.48980
 C150 C 0.66779 -0.07350 0.50009
 C151 C 0.68706 -0.04358 0.50057
 N152 N 0.72175 -0.04557 0.49631
 H153 H 0.74328 0.05259 0.45169
 H154 H 0.70292 0.02368 0.54778
 H155 H 0.67191 0.07964 0.55297
 H156 H 0.71364 0.10868 0.45486
 H157 H 0.76593 -0.07698 0.48715
 H158 H 0.73405 -0.13074 0.48607
 H159 H 0.64021 -0.07157 0.50359
 H160 H 0.67431 -0.01892 0.50455
 C161 C 0.81179 -0.00928 0.39439
 C162 C 0.81316 -0.00755 0.60024
 C163 C 0.68441 -0.10556 0.49476
 C164 C 0.69005 0.09872 0.50413
 C165 C 0.54350 0.20298 0.97249
 H166 H 0.52480 0.20082 0.95195
 C167 C 0.57536 0.18567 0.97011
 H168 H 0.58081 0.16971 0.94788
 C169 C 0.55944 0.22712 1.02606
 H170 H 0.55367 0.24405 1.04738
 C171 C 0.59143 0.21023 1.02480
 H172 H 0.60983 0.21437 1.04531
 N173 N 0.53617 0.22320 1.00019
 C174 C 0.42532 0.23787 1.00843
 H175 H 0.42481 0.26552 1.01151
 C176 C 0.39478 0.22004 1.00953
 H177 H 0.37120 0.23502 1.01244
 C178 C 0.45736 0.18636 0.99858
 H179 H 0.48192 0.17338 0.99471
 C180 C 0.42729 0.16735 0.99926
 H181 H 0.42981 0.13974 0.99666
 Zn182 Zn 0.49442 0.24928 1.00082
 N183 N 0.45570 0.22103 1.00264
 C184 C 0.46578 0.27108 0.93765
 N185 N 0.49224 0.27573 0.96007
 C186 C 0.51860 0.29662 0.95227
 C187 C 0.51914 0.31357 0.92062
 C188 C 0.46526 0.28750 0.90587
 C189 C 0.48936 0.25980 1.07075
 C190 C 0.48736 0.27757 1.10180
 C191 C 0.49201 0.33085 1.07057
 C192 C 0.49380 0.31197 1.03994
 N193 N 0.49278 0.27706 1.04070
 H194 H 0.44539 0.25390 0.94386
 H195 H 0.53969 0.29932 0.97026
 H196 H 0.54078 0.32933 0.91442
 H197 H 0.44396 0.28334 0.88842
 H198 H 0.48837 0.23204 1.07051
 H199 H 0.48530 0.26321 1.12547
 H200 H 0.49274 0.35863 1.06965
 H201 H 0.49593 0.32519 1.01569
 C202 C 0.39504 0.18406 1.00467
 C203 C 0.59986 0.18933 0.99648
 C204 C 0.48869 0.31357 1.10202
 C205 C 0.49242 0.30866 0.89675
 C206 C 0.45572 0.79711 0.97754
 H207 H 0.47333 0.80027 0.95643
 C208 C 0.42358 0.81414 0.97706
 H209 H 0.41786 0.83120 0.95580
 C210 C 0.44303 0.77136 1.03078
 H211 H 0.44999 0.75373 1.05116
 C212 C 0.41086 0.78791 1.03150
 H213 H 0.39404 0.78173 1.05249
 N214 N 0.46482 0.77623 1.00417
 C215 C 0.57641 0.76215 1.00621
 H216 H 0.57729 0.73445 1.00858
 C217 C 0.60686 0.78021 1.00609
 H218 H 0.63114 0.76619 1.00874
 C219 C 0.54339 0.81389 1.00064
 H220 H 0.51854 0.82681 0.99866
 C221 C 0.57338 0.83308 1.00050
 H222 H 0.57139 0.86076 0.99797
 Zn223 Zn 0.50688 0.75048 1.00290
 N224 N 0.54555 0.77902 1.00297
 C225 C 0.53175 0.72859 0.93838
 N226 N 0.50702 0.72339 0.96226
 C227 C 0.48111 0.70127 0.95616
 C228 C 0.47946 0.68334 0.92497
 C229 C 0.53108 0.71129 0.90700
 C230 C 0.51554 0.74183 1.07251
 C231 C 0.51660 0.72544 1.10425
 C232 C 0.50911 0.67118 1.07513
 C233 C 0.50818 0.68873 1.04374
 N234 N 0.51066 0.72353 1.04316
 H235 H 0.55169 0.74682 0.94315
 H236 H 0.46130 0.69816 0.97522
 H237 H 0.45826 0.66641 0.92023
 H238 H 0.55112 0.71583 0.88847
 H239 H 0.51782 0.76944 1.07121
 H240 H 0.52022 0.74061 1.12729
 H241 H 0.50602 0.64361 1.07537
 H242 H 0.50478 0.67464 1.02005
 C243 C 0.60566 0.81612 1.00286
 C244 C 0.40017 0.80969 1.00430
 C245 C 0.51272 0.68974 1.10595
 C246 C 0.50449 0.68860 0.89974
 B247 B 1.00297 1.03548 0.02256
 B248 B 1.00123 1.03776 -0.02159
 B249 B 1.03766 1.02053 -0.00172
 B250 B 1.02452 0.99783 0.03363
 B251 B 0.98030 1.00036 0.03554
 B252 B 0.96579 1.02507 0.00102
 B253 B 0.99864 0.96605 -0.02519
 B254 B 1.00038 0.96375 0.01900
 B255 B 0.96395 0.98094 -0.00093
 B256 B 0.97706 1.00367 -0.03626
 B257 B 1.02126 1.00118 -0.03818
 B258 B 1.03581 0.97644 -0.00364
 B259 B 0.53505 0.50068 0.47804
 B260 B 0.49760 0.52205 0.46582
 B261 B 0.50004 0.47782 0.46457
 B262 B 0.52423 0.46402 0.49982
 B263 B 0.53669 0.49992 0.52224
 B264 B 0.51982 0.53593 0.50150
 B265 B 0.46484 0.49754 0.52419
 B266 B 0.50229 0.47616 0.53642
 B267 B 0.49987 0.52036 0.53773
 B268 B 0.47566 0.53418 0.50241
 B269 B 0.46321 0.49830 0.47996
 B270 B 0.48003 0.46232 0.50076
 C271 C 1.02807 1.31346 0.14866
 C272 C 0.99710 1.29666 0.14345
 C273 C 0.96606 1.31344 0.15152
 C274 C 0.96589 1.34653 0.16549
 C275 C 0.99696 1.36376 0.17195
 C276 C 1.02808 1.34666 0.16259
 C277 C 0.99705 1.26205 0.13024
 C278 C 0.99685 1.23305 0.11928
 C279 C 0.99684 1.19917 0.10620
 C280 C 0.99747 1.17046 0.09445
 C281 C 0.99942 1.13666 0.07934
 C282 C 0.97246 1.11396 0.08225
 C283 C 0.97433 1.08193 0.06580
 C284 C 1.00317 1.07116 0.04607
 C285 C 1.02990 1.09497 0.04417
 C286 C 1.02829 1.12687 0.06052
 H287 H 1.05233 1.30064 0.14252
 H288 H 0.94186 1.30088 0.14711
 H289 H 0.94107 1.35866 0.17028
 H290 H 1.05281 1.35781 0.16755
 H291 H 0.94969 1.12116 0.09676
 H292 H 0.95266 1.06610 0.06877
 H293 H 1.05246 1.08998 0.03006
 H294 H 1.04949 1.14420 0.05787
 C295 C 0.96873 0.69319 0.15863
 C296 C 0.99180 0.69909 0.13197
 C297 C 1.01472 0.67279 0.12158
 C298 C 1.01494 0.64090 0.13818
 C299 C 0.99232 0.63500 0.16552
 C300 C 0.96894 0.66141 0.17527
 C301 C 0.99261 0.73253 0.11621
 C302 C 0.99330 0.76084 0.10371
 C303 C 0.99421 0.79425 0.08965
 C304 C 0.99515 0.82288 0.07794
 C305 C 0.99656 0.85711 0.06407
 C306 C 1.01326 0.86278 0.03316
 C307 C 1.01517 0.89600 0.01998
 C308 C 1.00007 0.92499 0.03678
 C309 C 0.98415 0.91821 0.06867
 C310 C 0.98230 0.88497 0.08199
 H311 H 0.95082 0.71331 0.16684
 H312 H 1.03277 0.67710 0.10103
 H313 H 1.03344 0.62122 0.13031
 H314 H 0.95084 0.65751 0.19585
 H315 H 1.02527 0.84152 0.01931
 H316 H 1.02998 0.89843 -0.00298
 H317 H 0.97431 0.93821 0.08472
 H318 H 0.97002 0.88112 0.10656
 C319 C 0.97740 1.30934 -0.15961
 C320 C 1.00173 1.30252 -0.13375
 C321 C 1.02468 1.32794 -0.12389
 C322 C 1.02366 1.35992 -0.14028
 C323 C 0.99972 1.36673 -0.16682
 C324 C 0.97636 1.34121 -0.17604
 C325 C 1.00349 1.26910 -0.11807
 C326 C 1.00454 1.24077 -0.10565
 C327 C 1.00521 1.20735 -0.09170
 C328 C 1.00524 1.17871 -0.08004
 C329 C 1.00456 1.14453 -0.06616
 C330 C 1.01907 1.11689 -0.08417
 C331 C 1.01746 1.08360 -0.07099
 C332 C 1.00154 1.07660 -0.03916
 C333 C 0.98622 1.10540 -0.02226
 C334 C 0.98790 1.13866 -0.03529
 H335 H 0.95943 1.28989 -0.16734
 H336 H 1.04366 1.32288 -0.10392
 H337 H 1.04217 1.37895 -0.13288
 H338 H 0.95731 1.34588 -0.19601
 H339 H 1.03127 1.12093 -0.10875
 H340 H 1.02743 1.06374 -0.08711
 H341 H 0.97132 1.10281 0.00061
 H342 H 0.97563 1.15976 -0.02143
 C343 C 1.03993 0.68875 -0.15719
 C344 C 1.01058 0.70399 -0.14239
 C345 C 0.98009 0.68574 -0.14080
 C346 C 0.97868 0.65265 -0.15462
 C347 C 1.00780 0.63737 -0.17026
 C348 C 1.03859 0.65559 -0.17101
 C349 C 1.01121 0.73869 -0.12967
 C350 C 1.01080 0.76782 -0.11910
 C351 C 1.00933 0.80182 -0.10653
 C352 C 1.00730 0.83067 -0.09531
 C353 C 1.00406 0.86469 -0.08102
 C354 C 0.97461 0.87430 -0.06297
 C355 C 0.97214 0.90646 -0.04714
 C356 C 0.99871 0.93048 -0.04872
 C357 C 1.02786 0.92002 -0.06811
 C358 C 1.03056 0.88783 -0.08401
 H359 H 1.06364 0.70271 -0.15860
 H360 H 0.95726 0.69726 -0.12928
 H361 H 0.95475 0.63908 -0.15329
 H362 H 1.06130 0.64465 -0.18324
 H363 H 0.95368 0.85662 -0.06045
 H364 H 0.94919 0.91142 -0.03356
 H365 H 1.04922 0.93619 -0.07123
 H366 H 1.05366 0.88085 -0.09809
 C367 C 1.12592 1.00297 0.32329
 C368 C 1.14384 1.01523 0.29491
 C369 C 1.17660 1.02864 0.29945
 C370 C 1.19174 1.02909 0.33207
 C371 C 1.17433 1.01605 0.36063
 C372 C 1.14103 1.00344 0.35601
 C373 C 1.12936 1.01294 0.26092
 C374 C 1.11782 1.01067 0.23222
 C375 C 1.10467 1.00774 0.19851
 C376 C 1.09337 1.00511 0.16976
 C377 C 1.07939 1.00195 0.13563
 C378 C 1.08224 1.02857 0.11213
 C379 C 1.06674 1.02620 0.07978
 C380 C 1.04785 0.99725 0.06945
 C381 C 1.04651 0.97043 0.09377
 C382 C 1.06195 0.97260 0.12617
 H383 H 1.10057 0.99245 0.32001
 H384 H 1.19065 1.03829 0.27769
 H385 H 1.21721 1.03941 0.33493
 H386 H 1.12716 0.99293 0.37745
 H387 H 1.09592 1.05156 0.11897
 H388 H 1.06976 1.04765 0.06334
 H389 H 1.03339 0.94753 0.08889
 H390 H 1.05961 0.95154 0.14411
 C391 C 1.11799 1.02401 -0.33092
 C392 C 1.13515 1.01100 -0.30180
 C393 C 1.16848 0.99705 -0.30482
 C394 C 1.18459 0.99590 -0.33678
 C395 C 1.16756 1.00864 -0.36629
 C396 C 1.13412 1.02291 -0.36301
 C397 C 1.11874 1.01147 -0.26874
 C398 C 1.10582 1.01120 -0.24066
 C399 C 1.09147 1.01019 -0.20746
 C400 C 1.07967 1.00884 -0.17894
 C401 C 1.06593 1.00675 -0.14477
 C402 C 1.03522 0.99014 -0.13910
 C403 C 1.02228 0.98747 -0.10586
 C404 C 1.03906 1.00181 -0.07690
 C405 C 1.07090 1.01737 -0.08369
 C406 C 1.08398 1.01997 -0.11692
 H407 H 1.09214 1.03482 -0.32887
 H408 H 1.18205 0.98704 -0.28245
 H409 H 1.21057 0.98535 -0.33831
 H410 H 1.12028 1.03270 -0.38529
 H411 H 1.02137 0.97876 -0.16035
 H412 H 0.99954 0.97270 -0.10339
 H413 H 1.08714 1.02624 -0.06372
 H414 H 1.10850 1.03198 -0.12077
 C415 C 0.88111 0.98122 0.32775
 C416 C 0.86335 0.99169 0.29809
 C417 C 0.82885 1.00214 0.30029
 C418 C 0.81199 1.00195 0.33186
 C419 C 0.82926 0.99119 0.36230
 C420 C 0.86437 0.98102 0.35951
 C421 C 0.88024 0.99181 0.26524
 C422 C 0.89354 0.99223 0.23732
 C423 C 0.90834 0.99307 0.20428
 C424 C 0.92051 0.99410 0.17588
 C425 C 0.93470 0.99569 0.14183
 C426 C 0.91690 0.98226 0.11390
 C427 C 0.93035 0.98446 0.08077
 C428 C 0.96231 0.99988 0.07416
 C429 C 0.97895 1.01423 0.10318
 C430 C 0.96563 1.01198 0.13631
 H431 H 0.90786 0.97289 0.32631
 H432 H 0.81493 1.01069 0.27753
 H433 H 0.78570 1.01162 0.33216
 H434 H 0.87892 0.97149 0.38140
 H435 H 0.89227 0.97042 0.11760
 H436 H 0.91428 0.97545 0.06071
 H437 H 1.00185 1.02877 0.10083
 H438 H 0.97935 1.02344 0.15760
 C439 C 0.85769 0.96448 -0.31695
 C440 C 0.85783 0.99535 -0.29844
 C441 C 0.84468 1.02556 -0.31357
 C442 C 0.83091 1.02482 -0.34685
 C443 C 0.83005 0.99377 -0.36543
 C444 C 0.84391 0.96367 -0.35021
 C445 C 0.87094 0.99592 -0.26375
 C446 C 0.88182 0.99648 -0.23467
 C447 C 0.89477 0.99741 -0.20070
 C448 C 0.90631 0.99864 -0.17190
 C449 C 0.92097 1.00081 -0.13792
 C450 C 0.93911 1.02970 -0.12843
 C451 C 0.95515 1.03126 -0.09632
 C452 C 0.95364 1.00437 -0.07210
 C453 C 0.93443 0.97564 -0.08253
 C454 C 0.91831 0.97386 -0.11470
 H455 H 0.86794 0.94097 -0.30555
 H456 H 0.84463 1.04960 -0.29946
 H457 H 0.82003 1.04832 -0.35764
 H458 H 0.84400 0.93946 -0.36399
 H459 H 0.94150 1.05093 -0.14617
 H460 H 0.96880 1.05382 -0.09153
 H461 H 0.93163 0.95397 -0.06630
 H462 H 0.90428 0.95112 -0.12161
 C463 C 1.32942 1.11749 -0.01503
 C464 C 1.30050 1.13151 0.00150
 C465 C 1.30316 1.16195 0.02021
 C466 C 1.33435 1.17884 0.02185
 C467 C 1.36384 1.16571 0.00460
 C468 C 1.36082 1.13426 -0.01341
 C469 C 1.26777 1.11528 -0.00109
 C470 C 1.23985 1.10265 -0.00284
 C471 C 1.20676 1.08870 -0.00428
 C472 C 1.17830 1.07717 -0.00489
 C473 C 1.14427 1.06357 -0.00475
 C474 C 1.11681 1.08191 -0.01956
 C475 C 1.08356 1.06914 -0.01817
 C476 C 1.07643 1.03747 -0.00206
 C477 C 1.10508 1.02010 0.01331
 C478 C 1.13828 1.03272 0.01184
 H479 H 1.32758 1.09391 -0.02971
 H480 H 1.28100 1.17279 0.03351
 H481 H 1.33519 1.20175 0.03758
 H482 H 1.38200 1.12320 -0.02791
 H483 H 1.12093 1.10644 -0.03179
 H484 H 1.06378 1.08542 -0.02847
 H485 H 1.10236 0.99721 0.02818
 H486 H 1.15922 1.01857 0.02428
 C487 C 0.68626 1.15860 -0.03849
 C488 C 0.70201 1.14500 -0.00889
 C489 C 0.68387 1.14458 0.02204
 C490 C 0.65036 1.15827 0.02358
 C491 C 0.63451 1.17262 -0.00584
 C492 C 0.65267 1.17228 -0.03702
 C493 C 0.73701 1.13212 -0.00982
 C494 C 0.76634 1.12135 -0.00968
 C495 C 0.80056 1.10846 -0.00853
 C496 C 0.82957 1.09693 -0.00676
 C497 C 0.86378 1.08225 -0.00377
 C498 C 0.87339 1.06429 0.02574
 C499 C 0.90573 1.04807 0.02802
 C500 C 0.92993 1.04910 0.00115
 C501 C 0.91950 1.06847 -0.02805
 C502 C 0.88714 1.08476 -0.03054
 H503 H 0.70010 1.15909 -0.06256
 H504 H 0.69576 1.13400 0.04507
 H505 H 0.63688 1.15776 0.04784
 H506 H 0.64131 1.18351 -0.05999
 H507 H 0.85558 1.06216 0.04690
 H508 H 0.91066 1.03468 0.05109
 H509 H 0.93587 1.07128 -0.04956
 H510 H 0.88019 1.09879 -0.05369
 C511 C 1.31656 0.84900 -0.02715
 C512 C 1.29878 0.85362 0.00367
 C513 C 1.31490 0.84504 0.03472
 C514 C 1.34841 0.83125 0.03502
 C515 C 1.36673 0.82553 0.00408
 C516 C 1.35017 0.83526 -0.02704
 C517 C 1.26386 0.86687 0.00352
 C518 C 1.23462 0.87794 0.00343
 C519 C 1.20049 0.89120 0.00304
 C520 C 1.17158 0.90312 0.00212
 C521 C 1.13756 0.91843 -0.00004
 C522 C 1.11443 0.91591 0.02697
 C523 C 1.08221 0.93268 0.02502
 C524 C 1.07170 0.95241 -0.00392
 C525 C 1.09587 0.95379 -0.03079
 C526 C 1.12797 0.93711 -0.02908
 H527 H 1.30425 0.85551 -0.05142
 H528 H 1.30154 0.84898 0.05883
 H529 H 1.35999 0.82609 0.05986
 H530 H 1.36213 0.83079 -0.05170
 H531 H 1.12143 0.90148 0.04985
 H532 H 1.06603 0.93000 0.04673
 H533 H 1.09104 0.96776 -0.05350
 H534 H 1.14564 0.93942 -0.05034
 C535 C 0.69766 0.83909 -0.01642
 C536 C 0.70110 0.86946 0.00241
 C537 C 0.67291 0.88323 0.02050
 C538 C 0.64153 0.86633 0.02017
 C539 C 0.63811 0.83537 0.00185
 C540 C 0.66643 0.82217 -0.01675
 C541 C 0.73389 0.88580 0.00358
 C542 C 0.76184 0.89849 0.00415
 C543 C 0.79497 0.91250 0.00430
 C544 C 0.82345 0.92402 0.00396
 C545 C 0.85754 0.93753 0.00295
 C546 C 0.88527 0.91912 0.01718
 C547 C 0.91847 0.93192 0.01534
 C548 C 0.92531 0.96375 -0.00060
 C549 C 0.89645 0.98111 -0.01560
 C550 C 0.86327 0.96844 -0.01368
 H551 H 0.71925 0.82828 -0.03063
 H552 H 0.67532 0.90674 0.03521
 H553 H 0.62026 0.87695 0.03493
 H554 H 0.66443 0.79869 -0.03155
 H555 H 0.88136 0.89453 0.02939
 H556 H 0.93842 0.91556 0.02519
 H557 H 0.89897 1.00406 -0.03041
 H558 H 0.84212 0.98264 -0.02571
 C559 C 0.80127 0.47948 0.32424
 C560 C 0.79528 0.49364 0.35677
 C561 C 0.82196 0.50979 0.37439
 C562 C 0.85442 0.51211 0.35932
 C563 C 0.86047 0.49844 0.32635
 C564 C 0.83360 0.48180 0.30914
 C565 C 0.76145 0.49246 0.37145
 C566 C 0.73287 0.49189 0.38322
 C567 C 0.69931 0.49195 0.39682
 C568 C 0.67073 0.49287 0.40866
 C569 C 0.63695 0.49525 0.42348
 C570 C 0.62707 0.52464 0.44159
 C571 C 0.59495 0.52685 0.45726
 C572 C 0.57105 0.50018 0.45534
 C573 C 0.58194 0.47079 0.43636
 C574 C 0.61416 0.46835 0.42059
 H575 H 0.78085 0.46686 0.31041
 H576 H 0.81756 0.52095 0.39957
 H577 H 0.87452 0.52526 0.37308
 H578 H 0.83763 0.47047 0.28400
 H579 H 0.64447 0.54585 0.44415
 H580 H 0.58984 0.54979 0.47085
 H581 H 0.56602 0.44915 0.43340
 H582 H 0.62139 0.44522 0.40656
 C583 C 0.18404 0.46041 0.35100
 C584 C 0.19804 0.49013 0.36514
 C585 C 0.17924 0.52124 0.36383
 C586 C 0.14691 0.52282 0.34794
 C587 C 0.13286 0.49326 0.33305
 C588 C 0.15164 0.46192 0.33511
 C589 C 0.23207 0.48913 0.38009
 C590 C 0.26067 0.48903 0.39230
 C591 C 0.29424 0.48966 0.40640
 C592 C 0.32288 0.49077 0.41840
 C593 C 0.35700 0.49273 0.43284
 C594 C 0.36223 0.51019 0.46360
 C595 C 0.39533 0.51275 0.47733
 C596 C 0.42463 0.49750 0.46131
 C597 C 0.41831 0.48094 0.42944
 C598 C 0.38519 0.47845 0.41557
 H599 H 0.19840 0.43620 0.35178
 H600 H 0.18975 0.54439 0.37476
 H601 H 0.13292 0.54721 0.34720
 H602 H 0.14173 0.43881 0.32356
 H603 H 0.34073 0.52234 0.47689
 H604 H 0.39741 0.52821 0.50003
 H605 H 0.43857 0.47116 0.41378
 H606 H 0.38172 0.46568 0.39106
 C607 C 0.82947 0.51562 0.62234
 C608 C 0.80079 0.50243 0.63861
 C609 C 0.80442 0.48757 0.67100
 C610 C 0.83640 0.48628 0.68744
 C611 C 0.86606 0.50007 0.67197
 C612 C 0.86168 0.51440 0.63860
 C613 C 0.76745 0.50409 0.62240
 C614 C 0.73914 0.50502 0.60963
 C615 C 0.70573 0.50549 0.59530
 C616 C 0.67711 0.50529 0.58328
 C617 C 0.64301 0.50424 0.56886
 C618 C 0.61515 0.51924 0.58609
 C619 C 0.58197 0.51731 0.57230
 C620 C 0.57532 0.50056 0.54062
 C621 C 0.60432 0.48477 0.52457
 C622 C 0.63745 0.48677 0.53821
 H623 H 0.82688 0.52736 0.59720
 H624 H 0.78242 0.47672 0.68361
 H625 H 0.83745 0.47288 0.71170
 H626 H 0.88232 0.52662 0.62526
 H627 H 0.61894 0.53210 0.61051
 H628 H 0.56189 0.52778 0.58778
 H629 H 0.60199 0.46930 0.50191
 H630 H 0.65871 0.47414 0.52495
 C631 C 0.20113 0.49865 0.67930
 C632 C 0.20496 0.51076 0.64579
 C633 C 0.17592 0.52137 0.62674
 C634 C 0.14310 0.51957 0.64113
 C635 C 0.13902 0.50696 0.67468
 C636 C 0.16844 0.49679 0.69368
 C637 C 0.23869 0.51129 0.63087
 C638 C 0.26719 0.51085 0.61886
 C639 C 0.30064 0.50939 0.60505
 C640 C 0.32916 0.50740 0.59315
 C641 C 0.36295 0.50421 0.57850
 C642 C 0.38589 0.53098 0.58098
 C643 C 0.41811 0.52803 0.56537
 C644 C 0.42887 0.49829 0.54690
 C645 C 0.40492 0.47162 0.54552
 C646 C 0.37272 0.47436 0.56105
 H647 H 0.22342 0.49045 0.69429
 H648 H 0.17861 0.53068 0.60071
 H649 H 0.12092 0.52737 0.62583
 H650 H 0.16620 0.48758 0.71979
 H651 H 0.37878 0.55440 0.59457
 H652 H 0.43415 0.54958 0.56813
 H653 H 0.41002 0.44834 0.53242
 H654 H 0.35519 0.45323 0.55890
 C655 C 0.52808 0.62530 0.17803
 C656 C 0.51044 0.64149 0.20511
 C657 C 0.49304 0.67287 0.19955
 C658 C 0.49353 0.68825 0.16721
 C659 C 0.51153 0.67249 0.13989
 C660 C 0.52858 0.64067 0.14553
 C661 C 0.51010 0.62630 0.23878
 C662 C 0.50921 0.61436 0.26730
 C663 C 0.50752 0.60090 0.30086
 C664 C 0.50554 0.58945 0.32950
 C665 C 0.50260 0.57540 0.36348
 C666 C 0.52915 0.57848 0.38734
 C667 C 0.52660 0.56331 0.41971
 C668 C 0.49752 0.54463 0.42971
 C669 C 0.47092 0.54285 0.40492
 C670 C 0.47326 0.55793 0.37254
 H671 H 0.54163 0.60097 0.18208
 H672 H 0.47913 0.68552 0.22026
 H673 H 0.47963 0.71243 0.16352
 H674 H 0.54283 0.62807 0.12505
 H675 H 0.55213 0.59216 0.38081
 H676 H 0.54796 0.56650 0.43647
 H677 H 0.44804 0.52970 0.40944
 H678 H 0.45227 0.55538 0.35433
 C679 C 0.50958 0.67382 0.80349
 C680 C 0.50090 0.63926 0.80076
 C681 C 0.49268 0.62084 0.83036
 C682 C 0.49345 0.63688 0.86261
 C683 C 0.50259 0.67152 0.86561
 C684 C 0.51040 0.68985 0.83561
 C685 C 0.50078 0.62291 0.76751
 C686 C 0.50097 0.60985 0.73936
 C687 C 0.50133 0.59508 0.70617
 C688 C 0.50152 0.58267 0.67774
 C689 C 0.50138 0.56785 0.64379
 C690 C 0.48535 0.53683 0.63790
 C691 C 0.48438 0.52280 0.60488
 C692 C 0.49971 0.53887 0.57630
 C693 C 0.51522 0.57076 0.58331
 C694 C 0.51613 0.58493 0.61636
 H695 H 0.51581 0.68838 0.78075
 H696 H 0.48593 0.59405 0.82854
 H697 H 0.48756 0.62204 0.88524
 H698 H 0.51692 0.71671 0.83696
 H699 H 0.47303 0.52358 0.65878
 H700 H 0.46991 0.49988 0.60220
 H701 H 0.52541 0.58617 0.56353
 H702 H 0.52801 0.60952 0.62036
 C703 C 0.46455 0.33859 0.19310
 C704 C 0.48711 0.36529 0.19965
 C705 C 0.50911 0.37625 0.17374
 C706 C 0.50904 0.36007 0.14158
 C707 C 0.48704 0.33261 0.13508
 C708 C 0.46447 0.32237 0.16105
 C709 C 0.48852 0.38040 0.23339
 C710 C 0.48986 0.39236 0.26195
 C711 C 0.49163 0.40587 0.29556
 C712 C 0.49336 0.41729 0.32432
 C713 C 0.49572 0.43110 0.35855
 C714 C 0.51251 0.46173 0.36427
 C715 C 0.51488 0.47524 0.39740
 C716 C 0.50005 0.45912 0.42619
 C717 C 0.48438 0.42725 0.41947
 C718 C 0.48208 0.41359 0.38629
 H719 H 0.44736 0.32996 0.21293
 H720 H 0.52675 0.39685 0.17859
 H721 H 0.52692 0.36829 0.12221
 H722 H 0.44689 0.30165 0.15663
 H723 H 0.52412 0.47519 0.34310
 H724 H 0.52967 0.49797 0.39991
 H725 H 0.47492 0.41159 0.43945
 H726 H 0.46981 0.38918 0.38239
 C727 C 0.50465 0.37266 0.82454
 C728 C 0.49436 0.35346 0.79594
 C729 C 0.48374 0.31970 0.80028
 C730 C 0.48323 0.30518 0.83304
 C731 C 0.49332 0.32427 0.86201
 C732 C 0.50419 0.35815 0.85740
 C733 C 0.49479 0.36817 0.76208
 C734 C 0.49514 0.38015 0.73356
 C735 C 0.49580 0.39407 0.70015
 C736 C 0.49681 0.40620 0.67172
 C737 C 0.49880 0.42129 0.63812
 C738 C 0.47190 0.41849 0.61460
 C739 C 0.47375 0.43447 0.58254
 C740 C 0.50256 0.45355 0.57250
 C741 C 0.52923 0.45551 0.59716
 C742 C 0.52760 0.43963 0.62918
 H743 H 0.51293 0.39885 0.82144
 H744 H 0.47591 0.30455 0.77831
 H745 H 0.47533 0.27884 0.83564
 H746 H 0.51184 0.37356 0.87923
 H747 H 0.44921 0.40433 0.62113
 H748 H 0.45215 0.43151 0.56602
 H749 H 0.55177 0.46922 0.59272
 H750 H 0.54876 0.44216 0.64719
 C751 C 0.62266 0.82521 0.52098
 C752 C 0.63148 0.79882 0.49789
 C753 C 0.65650 0.80422 0.47294
 C754 C 0.67313 0.83559 0.47143
 C755 C 0.66499 0.86205 0.49494
 C756 C 0.63925 0.85668 0.51949
 C757 C 0.61570 0.76583 0.50022
 C758 C 0.60318 0.73784 0.50180
 C759 C 0.58912 0.70476 0.50316
 C760 C 0.57741 0.67638 0.50379
 C761 C 0.56354 0.64241 0.50382
 C762 C 0.53279 0.63619 0.48674
 C763 C 0.51993 0.60305 0.48556
 C764 C 0.53693 0.57468 0.50172
 C765 C 0.56850 0.58203 0.51831
 C766 C 0.58150 0.61520 0.51943
 H767 H 0.60336 0.82128 0.54045
 H768 H 0.66346 0.78403 0.45486
 H769 H 0.69247 0.83911 0.45193
 H770 H 0.63268 0.87642 0.53815
 H771 H 0.51891 0.65690 0.47371
 H772 H 0.49716 0.60011 0.47030
 H773 H 0.58459 0.56243 0.52913
 H774 H 0.60595 0.61944 0.53206
 C775 C 0.65988 0.18500 0.54042
 C776 C 0.64546 0.20075 0.51120
 C777 C 0.64437 0.18264 0.48012
 C778 C 0.65817 0.14921 0.47803
 C779 C 0.67332 0.13335 0.50705
 C780 C 0.67368 0.15148 0.53840
 C781 C 0.63238 0.23569 0.51265
 C782 C 0.62139 0.26495 0.51283
 C783 C 0.60820 0.29909 0.51187
 C784 C 0.59642 0.32800 0.51006
 C785 C 0.58142 0.36206 0.50673
 C786 C 0.56351 0.37105 0.47693
 C787 C 0.54721 0.40328 0.47409
 C788 C 0.54815 0.42807 0.50063
 C789 C 0.56731 0.41820 0.53025
 C790 C 0.58368 0.38592 0.53331
 H791 H 0.66091 0.19879 0.56461
 H792 H 0.63315 0.19451 0.45737
 H793 H 0.65708 0.13578 0.45365
 H794 H 0.68551 0.14014 0.56108
 H795 H 0.56152 0.35284 0.45592
 H796 H 0.53384 0.40769 0.45083
 H797 H 0.56992 0.43498 0.55165
 H798 H 0.59763 0.37945 0.55670
 C799 C 0.36818 0.82291 0.47719
 C800 C 0.35010 0.79536 0.49059
 C801 C 0.31778 0.80124 0.50533
 C802 C 0.30342 0.83446 0.50649
 C803 C 0.32121 0.86234 0.49286
 C804 C 0.35385 0.85624 0.47833
 C805 C 0.36469 0.76103 0.48976
 C806 C 0.37659 0.73215 0.48975
 C807 C 0.39049 0.69834 0.49064
 C808 C 0.40271 0.66963 0.49231
 C809 C 0.41811 0.63580 0.49549
 C810 C 0.41562 0.61182 0.46906
 C811 C 0.43223 0.57966 0.47205
 C812 C 0.45174 0.57005 0.50152
 C813 C 0.45310 0.59507 0.52779
 C814 C 0.43658 0.62716 0.52504
 H815 H 0.39327 0.81862 0.46577
 H816 H 0.30368 0.78015 0.51601
 H817 H 0.27852 0.83839 0.51835
 H818 H 0.36801 0.87713 0.46736
 H819 H 0.40131 0.61809 0.44583
 H820 H 0.42957 0.56282 0.45071
 H821 H 0.46700 0.59091 0.55077
 H822 H 0.43882 0.64551 0.54588
 C823 C 0.38538 0.17049 0.48903
 C824 C 0.36895 0.19931 0.50377
 C825 C 0.33728 0.19585 0.52010
 C826 C 0.32187 0.16384 0.52138
 C827 C 0.33793 0.13475 0.50631
 C828 C 0.36998 0.13840 0.49027
 C829 C 0.38415 0.23259 0.50179
 C830 C 0.39633 0.26073 0.50036
 C831 C 0.41016 0.29388 0.49907
 C832 C 0.42183 0.32228 0.49845
 C833 C 0.43579 0.35618 0.49844
 C834 C 0.41780 0.38353 0.48311
 C835 C 0.43096 0.41662 0.48424
 C836 C 0.46272 0.42373 0.50060
 C837 C 0.47977 0.39522 0.51643
 C838 C 0.46674 0.36216 0.51524
 H839 H 0.40996 0.17287 0.47640
 H840 H 0.32429 0.21800 0.53150
 H841 H 0.29693 0.16206 0.53339
 H842 H 0.38315 0.11645 0.47873
 H843 H 0.39321 0.37945 0.47068
 H844 H 0.41483 0.43634 0.47365
 H845 H 0.50266 0.39799 0.53153
 H846 H 0.48065 0.34134 0.52805
   
