data_POSCAR
  _audit_creation_date              2014-09-24
  _audit_creation_method            'ToBaCCo'
  _symmetry_space_group_name_H-M    'P1'
  _symmetry_Int_Tables_number       1
  _symmetry_cell_setting            triclinic
  loop_
  _symmetry_equiv_pos_as_xyz
 x,y,z
_cell_length_a 36.3131
_cell_length_b 34.7162
_cell_length_c 16.3638
_cell_angle_alpha 89.027300
_cell_angle_beta 91.237100
_cell_angle_gamma 89.476100
loop_
  _atom_site_label
  _atom_site_type_symbol
  _atom_site_fract_x
  _atom_site_fract_y
  _atom_site_fract_z
O1 O 0.29005 0.20524 0.21757
 O2 O 0.22524 0.28198 0.15175
 O3 O 0.29412 0.27935 0.20207
 O4 O 0.22036 0.20790 0.17579
 O5 O 0.20409 0.21650 0.30318
 O6 O 0.27808 0.28692 0.33005
 O7 O 0.20912 0.29009 0.27953
 O8 O 0.27380 0.21245 0.34556
 Cu9 Cu 0.25898 0.24289 0.17399
 Cu10 Cu 0.23972 0.25233 0.32737
 C11 C 0.29336 0.19591 0.29269
 C12 C 0.20573 0.29887 0.20395
 C13 C 0.29907 0.29491 0.27122
 C14 C 0.19921 0.20028 0.23487
 O15 O 0.72246 0.21283 0.32849
 O16 O 0.79037 0.28958 0.30377
 O17 O 0.71938 0.28761 0.32586
 O18 O 0.79289 0.21521 0.29785
 O19 O 0.78140 0.21691 0.16494
 O20 O 0.70768 0.28831 0.19298
 O21 O 0.77872 0.29177 0.17107
 O22 O 0.71107 0.21392 0.19555
 Cu23 Cu 0.75739 0.25114 0.32726
 Cu24 Cu 0.74366 0.25285 0.16783
 C25 C 0.70474 0.20055 0.26667
 C26 C 0.79662 0.30364 0.23334
 C27 C 0.70056 0.29985 0.26413
 C28 C 0.80003 0.20408 0.22620
 O29 O 0.72633 0.78331 0.65185
 O30 O 0.79064 0.70617 0.71809
 O31 O 0.72084 0.70942 0.67676
 O32 O 0.79527 0.78025 0.70191
 O33 O 0.77922 0.78848 0.82955
 O34 O 0.70515 0.71807 0.80466
 O35 O 0.77486 0.71403 0.84620
 O36 O 0.71020 0.79157 0.77957
 Cu37 Cu 0.75980 0.74401 0.67435
 Cu38 Cu 0.74085 0.75394 0.82778
 C39 C 0.70682 0.80027 0.70394
 C40 C 0.79411 0.69711 0.79332
 C41 C 0.70000 0.70195 0.73640
 C42 C 0.80037 0.79614 0.77072
 O43 O 0.28993 0.78941 0.80662
 O44 O 0.22180 0.71285 0.83075
 O45 O 0.29224 0.71509 0.79966
 O46 O 0.21913 0.78779 0.82870
 O47 O 0.20705 0.78849 0.69615
 O48 O 0.28067 0.71711 0.66679
 O49 O 0.21043 0.71410 0.69780
 O50 O 0.27820 0.79187 0.67382
 Cu51 Cu 0.25687 0.75104 0.82970
 Cu52 Cu 0.24298 0.75308 0.67035
 C53 C 0.29608 0.80352 0.73627
 C54 C 0.20410 0.70063 0.76884
 C55 C 0.29933 0.70413 0.72785
 C56 C 0.20009 0.80018 0.76735
 C57 C 1.00047 0.08903 0.10493
 C58 C 1.03369 0.07005 0.08999
 C59 C 1.03313 0.03427 0.05154
 C60 C 0.99987 0.01815 0.02177
 C61 C 0.96688 0.03909 0.03453
 C62 C 0.96695 0.07367 0.07796
 C63 C 0.99977 -0.01976 -0.02271
 C64 C 0.96674 -0.04013 -0.03766
 C65 C 0.96658 -0.07479 -0.08095
 C66 C 0.99998 -0.09058 -0.10620
 C67 C 1.03319 -0.07211 -0.08907
 C68 C 1.03288 -0.03647 -0.05021
 H69 H 1.00077 0.11675 0.13444
 H70 H 1.05922 0.01962 0.04616
 H71 H 0.94069 0.02913 0.01146
 H72 H 0.94070 -0.02968 -0.01621
 H73 H 1.00031 -0.11826 -0.13586
 H74 H 1.05905 -0.02244 -0.04270
 C75 C 0.49988 0.58946 0.60576
 C76 C 0.53308 0.57007 0.59234
 C77 C 0.53237 0.53415 0.55446
 C78 C 0.49920 0.51858 0.52302
 C79 C 0.46629 0.53978 0.53450
 C80 C 0.46636 0.57432 0.57805
 C81 C 0.49920 0.48087 0.47828
 C82 C 0.46641 0.45988 0.46529
 C83 C 0.46643 0.42525 0.42192
 C84 C 0.49987 0.41001 0.39545
 C85 C 0.53293 0.42928 0.41019
 C86 C 0.53224 0.46510 0.44836
 H87 H 0.50016 0.61726 0.63493
 H88 H 0.55821 0.51880 0.55070
 H89 H 0.44022 0.52994 0.51034
 H90 H 0.44050 0.46997 0.48824
 H91 H 0.50032 0.38223 0.36620
 H92 H 0.55798 0.48021 0.45346
 C93 C -0.00605 0.41662 0.13101
 C94 C -0.03821 0.43462 0.10072
 C95 C -0.03565 0.46800 0.05186
 C96 C -0.00112 0.48248 0.02761
 C97 C 0.03089 0.46243 0.05650
 C98 C 0.02857 0.43042 0.10978
 C99 C 0.00132 0.51774 -0.02775
 C100 C 0.03511 0.53706 -0.03908
 C101 C 0.03748 0.56916 -0.09217
 C102 C 0.00550 0.58367 -0.13114
 C103 C -0.02850 0.56634 -0.11865
 C104 C -0.03028 0.53297 -0.06957
 H105 H -0.00794 0.39062 0.16827
 H106 H -0.06119 0.48211 0.03410
 H107 H 0.05801 0.47108 0.03855
 H108 H 0.06002 0.52780 -0.00729
 H109 H 0.00680 0.60972 -0.16841
 H110 H -0.05680 0.51949 -0.06563
 C111 C 0.49468 0.91752 0.63108
 C112 C 0.46244 0.93582 0.60194
 C113 C 0.46501 0.96930 0.55332
 C114 C 0.49947 0.98338 0.52782
 C115 C 0.53151 0.96313 0.55577
 C116 C 0.52927 0.93116 0.60919
 C117 C 0.50182 1.01850 0.47218
 C118 C 0.53552 1.03794 0.46082
 C119 C 0.53779 1.06992 0.40736
 C120 C 0.50576 1.08422 0.36820
 C121 C 0.47182 1.06674 0.38075
 C122 C 0.47019 1.03342 0.43001
 H123 H 0.49288 0.89147 0.66820
 H124 H 0.43954 0.98386 0.53671
 H125 H 0.55856 0.97163 0.53701
 H126 H 0.56041 1.02884 0.49289
 H127 H 0.50698 1.11021 0.33072
 H128 H 0.44378 1.01967 0.43387
 C129 C 1.14413 0.16902 0.28673
 C130 C 1.16977 0.17467 0.22421
 C131 C 1.16443 0.15533 0.14987
 C132 C 1.13349 0.13204 0.13726
 C133 C 1.10726 0.12804 0.19933
 C134 C 1.11314 0.14615 0.27421
 C135 C 1.07518 0.10671 0.18480
 C136 C 1.06914 0.08907 0.10912
 C137 C 1.09607 0.09199 0.04897
 C138 C 1.12792 0.11336 0.06280
 H139 H 1.18394 0.15882 0.10111
 H140 H 1.09347 0.14314 0.32271
 H141 H 1.05466 0.10429 0.23173
 H142 H 1.14780 0.11595 0.01463
 H143 H 1.14735 0.18314 0.34494
 H144 H 1.09180 0.07886 -0.01003
 C145 C 0.64166 0.67261 0.78578
 C146 C 0.66875 0.67527 0.72580
 C147 C 0.66473 0.65372 0.65423
 C148 C 0.63352 0.63084 0.64154
 C149 C 0.60588 0.62945 0.70107
 C150 C 0.61050 0.64997 0.77348
 C151 C 0.57368 0.60839 0.68627
 C152 C 0.56867 0.58870 0.61257
 C153 C 0.59689 0.58921 0.55506
 C154 C 0.62901 0.61008 0.56938
 H155 H 0.68550 0.65530 0.60771
 H156 H 0.58970 0.64910 0.81994
 H157 H 0.55224 0.60784 0.73136
 H158 H 0.64994 0.61071 0.52317
 H159 H 0.64406 0.68884 0.84153
 H160 H 0.59352 0.57458 0.49748
 C161 C -0.15346 0.34178 0.29195
 C162 C -0.17572 0.33138 0.22428
 C163 C -0.16832 0.34778 0.14700
 C164 C -0.13822 0.37238 0.13687
 C165 C -0.11507 0.38083 0.20464
 C166 C -0.12340 0.36607 0.28211
 C167 C -0.08329 0.40280 0.19335
 C168 C -0.07434 0.41651 0.11509
 C169 C -0.09847 0.40959 0.04877
 C170 C -0.13012 0.38765 0.05951
 H171 H -0.18529 0.34067 0.09414
 H172 H -0.10614 0.37256 0.33487
 H173 H -0.06495 0.40835 0.24490
 H174 H -0.14765 0.38169 0.00690
 H175 H -0.15841 0.33013 0.35252
 H176 H -0.09194 0.41969 -0.01216
 C177 C 0.34910 0.84060 0.79360
 C178 C 0.32540 0.83254 0.72703
 C179 C 0.33154 0.85047 0.65088
 C180 C 0.36191 0.87469 0.64048
 C181 C 0.38640 0.88119 0.70707
 C182 C 0.37931 0.86468 0.78371
 C183 C 0.41828 0.90292 0.69526
 C184 C 0.42621 0.91807 0.61752
 C185 C 0.40085 0.91295 0.55257
 C186 C 0.36896 0.89146 0.56393
 H187 H 0.31337 0.84472 0.59916
 H188 H 0.39767 0.86954 0.83553
 H189 H 0.43750 0.90710 0.74591
 H190 H 0.35043 0.88695 0.51225
 H191 H 0.34500 0.82732 0.85303
 H192 H 0.40653 0.92413 0.49198
 C193 C -0.17686 0.65342 -0.09948
 C194 C -0.17821 0.66761 -0.18046
 C195 C -0.15147 0.65515 -0.23537
 C196 C -0.12277 0.63036 -0.20887
 C197 C -0.12123 0.61692 -0.12684
 C198 C -0.14877 0.62807 -0.07305
 C199 C -0.09137 0.59394 -0.09915
 C200 C -0.06249 0.58520 -0.15178
 C201 C -0.06468 0.59795 -0.23364
 C202 C -0.09477 0.62003 -0.26221
 H203 H -0.15206 0.66598 -0.29792
 H204 H -0.14801 0.61803 -0.00997
 H205 H -0.08956 0.58463 -0.03558
 H206 H -0.09554 0.63006 -0.32530
 H207 H -0.19720 0.66242 -0.05611
 H208 H -0.04269 0.59140 -0.27503
 C209 C 0.32258 1.15221 0.39963
 C210 C 0.32123 1.16659 0.31879
 C211 C 0.34819 1.15455 0.26397
 C212 C 0.37709 1.13001 0.29044
 C213 C 0.37862 1.11640 0.37234
 C214 C 0.35088 1.12709 0.42601
 C215 C 0.40867 1.09368 0.40002
 C216 C 0.43773 1.08537 0.34755
 C217 C 0.43554 1.09829 0.26580
 C218 C 0.40529 1.12012 0.23722
 H219 H 0.34761 1.16553 0.20154
 H220 H 0.35162 1.11690 0.48899
 H221 H 0.41046 1.08425 0.46352
 H222 H 0.40452 1.13029 0.17422
 H223 H 0.30208 1.16088 0.44293
 H224 H 0.45765 1.09206 0.22449
 C225 C 1.14633 -0.16420 -0.28726
 C226 C 1.17062 -0.17400 -0.22158
 C227 C 1.16382 -0.15870 -0.14404
 C228 C 1.13283 -0.13519 -0.13184
 C229 C 1.10781 -0.12721 -0.19746
 C230 C 1.11512 -0.14137 -0.27511
 C231 C 1.07558 -0.10580 -0.18392
 C232 C 1.06849 -0.09166 -0.10590
 C233 C 1.09426 -0.09836 -0.04190
 C234 C 1.12607 -0.12015 -0.05458
 H235 H 1.18233 -0.16534 -0.09274
 H236 H 1.09643 -0.13523 -0.32629
 H237 H 1.05583 -0.10046 -0.23356
 H238 H 1.14505 -0.12575 -0.00368
 H239 H 1.15070 -0.17518 -0.34790
 H240 H 1.08908 -0.08781 0.01875
 C241 C 0.64208 0.33138 0.21324
 C242 C 0.66921 0.32660 0.27533
 C243 C 0.66502 0.34588 0.34946
 C244 C 0.63361 0.36867 0.36233
 C245 C 0.60584 0.37204 0.30060
 C246 C 0.61062 0.35376 0.22586
 C247 C 0.57342 0.39286 0.31537
 C248 C 0.56849 0.41062 0.39092
 C249 C 0.59684 0.40830 0.45070
 C250 C 0.62908 0.38742 0.43666
 H251 H 0.68587 0.34266 0.39757
 H252 H 0.58974 0.35620 0.17769
 H253 H 0.55179 0.39483 0.26872
 H254 H 0.65012 0.38530 0.48453
 H255 H 0.64461 0.31682 0.15559
 H256 H 0.59347 0.42152 0.50959
 C257 C 0.85494 -0.17127 -0.28056
 C258 C 0.83002 -0.17861 -0.21741
 C259 C 0.83633 -0.16140 -0.14089
 C260 C 0.86745 -0.13856 -0.12694
 C261 C 0.89270 -0.13246 -0.19022
 C262 C 0.88593 -0.14849 -0.26703
 C263 C 0.92461 -0.11097 -0.17523
 C264 C 0.93170 -0.09547 -0.09767
 C265 C 0.90599 -0.10096 -0.03570
 C266 C 0.87415 -0.12234 -0.05017
 H267 H 0.81749 -0.16635 -0.09134
 H268 H 0.90492 -0.14391 -0.31636
 H269 H 0.94408 -0.10649 -0.22371
 H270 H 0.85507 -0.12669 -0.00093
 H271 H 0.85100 -0.18377 -0.34028
 H272 H 0.91101 -0.08959 0.02470
 C273 C 0.35525 0.32869 0.22144
 C274 C 0.33024 0.32154 0.28421
 C275 C 0.33633 0.33844 0.36089
 C276 C 0.36748 0.36120 0.37537
 C277 C 0.39284 0.36738 0.31231
 C278 C 0.38623 0.35142 0.23533
 C279 C 0.42469 0.38888 0.32763
 C280 C 0.43169 0.40429 0.40533
 C281 C 0.40592 0.39865 0.46715
 C282 C 0.37410 0.37728 0.45232
 H283 H 0.31729 0.33327 0.40991
 H284 H 0.40534 0.35599 0.18621
 H285 H 0.44417 0.39350 0.27922
 H286 H 0.35494 0.37284 0.50139
 H287 H 0.35126 0.31609 0.16185
 H288 H 0.41086 0.40996 0.52763
 C289 C 0.15306 0.66003 -0.28701
 C290 C 0.17487 0.67165 -0.21996
 C291 C 0.16691 0.65734 -0.14132
 C292 C 0.13665 0.63316 -0.12937
 C293 C 0.11423 0.62281 -0.19697
 C294 C 0.12306 0.63578 -0.27565
 C295 C 0.08271 0.60063 -0.18454
 C296 C 0.07298 0.58890 -0.10526
 C297 C 0.09612 0.59821 -0.03871
 C298 C 0.12773 0.62014 -0.05067
 H299 H 0.18352 0.66593 -0.08901
 H300 H 0.10624 0.62794 -0.32817
 H301 H 0.06525 0.59315 -0.23637
 H302 H 0.14465 0.62773 0.00186
 H303 H 0.15860 0.67049 -0.34821
 H304 H 0.08905 0.58972 0.02292
 C305 C 0.65357 1.15999 0.21128
 C306 C 0.67544 1.17167 0.27816
 C307 C 0.66744 1.15760 0.35696
 C308 C 0.63708 1.13362 0.36924
 C309 C 0.61458 1.12320 0.30181
 C310 C 0.62346 1.13592 0.22297
 C311 C 0.58298 1.10120 0.31456
 C312 C 0.57326 1.08969 0.39398
 C313 C 0.59645 1.09909 0.46037
 C314 C 0.62813 1.12086 0.44811
 H315 H 0.68410 1.16624 0.40915
 H316 H 0.60658 1.12803 0.17056
 H317 H 0.56548 1.09363 0.26285
 H318 H 0.64511 1.12852 0.50051
 H319 H 0.65912 1.17027 0.14996
 H320 H 0.58939 1.09077 0.52212
 C321 C 0.17597 0.34013 0.09356
 C322 C 0.17786 0.32787 0.17594
 C323 C 0.15136 0.34152 0.23005
 C324 C 0.12247 0.36565 0.20160
 C325 C 0.12034 0.37703 0.11823
 C326 C 0.14760 0.36464 0.06506
 C327 C 0.09037 0.39953 0.08895
 C328 C 0.06214 0.41015 0.14173
 C329 C 0.06499 0.39940 0.22485
 C330 C 0.09497 0.37753 0.25463
 H331 H 0.15237 0.33222 0.29365
 H332 H 0.14648 0.37313 0.00102
 H333 H 0.08821 0.40735 0.02459
 H334 H 0.09620 0.36919 0.31875
 H335 H 0.19609 0.33019 0.05060
 H336 H 0.04371 0.40764 0.26669
 C337 C 0.67697 0.84130 0.59327
 C338 C 0.67892 0.82919 0.67575
 C339 C 0.65240 0.84285 0.72978
 C340 C 0.62340 0.86680 0.70116
 C341 C 0.62120 0.87801 0.61769
 C342 C 0.64849 0.86563 0.56460
 C343 C 0.59112 0.90032 0.58828
 C344 C 0.56288 0.91094 0.64105
 C345 C 0.56583 0.90036 0.72425
 C346 C 0.59588 0.87867 0.75415
 H347 H 0.65345 0.83367 0.79345
 H348 H 0.64732 0.87399 0.50048
 H349 H 0.58891 0.90802 0.52387
 H350 H 0.59718 0.87046 0.81834
 H351 H 0.69710 0.83134 0.55036
 H352 H 0.54456 0.90863 0.76611
 C353 C 0.85608 0.16794 0.27790
 C354 C 0.83104 0.17697 0.21354
 C355 C 0.83698 0.16153 0.13586
 C356 C 0.86801 0.13833 0.12209
 C357 C 0.89354 0.13043 0.18674
 C358 C 0.88707 0.14493 0.26460
 C359 C 0.92542 0.10871 0.17213
 C360 C 0.93213 0.09461 0.09375
 C361 C 0.90612 0.10173 0.03039
 C362 C 0.87436 0.12349 0.04437
 H363 H 0.81782 0.16808 0.08571
 H364 H 0.90629 0.13899 0.31493
 H365 H 0.94518 0.10295 0.22156
 H366 H 0.85504 0.12918 -0.00587
 H367 H 0.85222 0.17943 0.33826
 H368 H 0.91087 0.09133 -0.03055
 C369 C 0.35532 0.66775 0.77907
 C370 C 0.33033 0.67706 0.71477
 C371 C 0.33635 0.66198 0.63679
 C372 C 0.36741 0.63886 0.62268
 C373 C 0.39288 0.63069 0.68731
 C374 C 0.38633 0.64483 0.76544
 C375 C 0.42477 0.60906 0.67243
 C376 C 0.43157 0.59530 0.59382
 C377 C 0.40563 0.60267 0.53044
 C378 C 0.37384 0.62436 0.54468
 H379 H 0.31723 0.66875 0.58668
 H380 H 0.40550 0.63867 0.81574
 H381 H 0.44446 0.60308 0.72188
 H382 H 0.35457 0.63026 0.49446
 H383 H 0.35140 0.67896 0.83965
 H384 H 0.41044 0.59250 0.46936
   
