data_POSCAR
  _audit_creation_date              2014-09-24
  _audit_creation_method            'ToBaCCo'
  _symmetry_space_group_name_H-M    'P1'
  _symmetry_Int_Tables_number       1
  _symmetry_cell_setting            triclinic
  loop_
  _symmetry_equiv_pos_as_xyz
 x,y,z
_cell_length_a 40.4569
_cell_length_b 40.4565
_cell_length_c 40.6932
_cell_angle_alpha 89.911000
_cell_angle_beta 89.949200
_cell_angle_gamma 90.023100
loop_
  _atom_site_label
  _atom_site_type_symbol
  _atom_site_fract_x
  _atom_site_fract_y
  _atom_site_fract_z
C1 C 0.16664 0.16885 0.20819
 C2 C 0.19512 0.15482 0.19369
 C3 C 0.20953 0.16798 0.16483
 C4 C 0.19478 0.19621 0.15071
 C5 C 0.16663 0.21077 0.16460
 C6 C 0.15283 0.19709 0.19317
 H7 H 0.20773 0.13511 0.20644
 H8 H 0.20382 0.20608 0.12768
 H9 H 0.13057 0.20817 0.20286
 C10 C -0.16346 0.83366 0.21272
 C11 C -0.19243 0.84741 0.19892
 C12 C -0.20734 0.83358 0.17096
 C13 C -0.19329 0.80544 0.15655
 C14 C -0.16460 0.79115 0.16962
 C15 C -0.14997 0.80529 0.19756
 H16 H -0.20317 0.86962 0.20906
 H17 H -0.20416 0.79523 0.13446
 H18 H -0.12891 0.79283 0.20825
 C19 C -0.16795 0.16420 -0.21067
 C20 C -0.15489 0.19312 -0.19634
 C21 C -0.16912 0.20710 -0.16818
 C22 C -0.19695 0.19215 -0.15401
 C23 C -0.21095 0.16324 -0.16745
 C24 C -0.19611 0.14977 -0.19589
 H25 H -0.13287 0.20455 -0.20625
 H26 H -0.20630 0.20230 -0.13126
 H27 H -0.20817 0.12943 -0.20815
 C28 C 0.16789 0.83467 -0.20923
 C29 C 0.19621 0.84781 -0.19417
 C30 C 0.20994 0.83329 -0.16566
 C31 C 0.19432 0.80482 -0.15278
 C32 C 0.16594 0.79141 -0.16753
 C33 C 0.15298 0.80645 -0.19576
 H34 H 0.20831 0.86850 -0.20598
 H35 H 0.20334 0.79334 -0.13053
 H36 H 0.13059 0.79674 -0.20670
 C37 C 0.16933 1.16677 0.79187
 C38 C 0.19739 1.15289 0.80679
 C39 C 0.21096 1.16686 0.83534
 C40 C 0.19617 1.19515 0.84889
 C41 C 0.16811 1.20940 0.83433
 C42 C 0.15492 1.19507 0.80580
 H43 H 0.20808 1.13053 0.79675
 H44 H 0.20643 1.20601 0.87095
 H45 H 0.13375 1.20638 0.79401
 C46 C 0.83362 0.83632 0.78770
 C47 C 0.84733 0.80733 0.80154
 C48 C 0.83362 0.79212 0.82975
 C49 C 0.80530 0.80663 0.84390
 C50 C 0.79119 0.83536 0.83073
 C51 C 0.80538 0.84993 0.80283
 H52 H 0.86893 0.79657 0.79035
 H53 H 0.79504 0.79692 0.86649
 H54 H 0.79304 0.87106 0.79210
 C55 C 0.16396 0.83170 1.21029
 C56 C 0.19289 0.84487 1.19579
 C57 C 0.20676 0.83087 1.16737
 C58 C 0.19172 0.80312 1.15322
 C59 C 0.16306 0.78939 1.16700
 C60 C 0.14946 0.80369 1.19538
 H61 H 0.20438 0.86679 1.20575
 H62 H 0.20180 0.79279 1.13080
 H63 H 0.12841 0.79164 1.20657
 C64 C 0.83479 1.16681 1.21051
 C65 C 0.80631 1.15222 1.19679
 C66 C 0.79122 1.16538 1.16870
 C67 C 0.80463 1.19368 1.15391
 C68 C 0.83313 1.20913 1.16662
 C69 C 0.84775 1.19534 1.19506
 H70 H 0.79452 1.13143 1.20875
 H71 H 0.79367 1.20227 1.13122
 H72 H 0.86950 1.20684 1.20517
 O73 O 0.45358 1.05784 1.05980
 O74 O 0.41738 1.02595 1.03006
 C75 C 0.42402 1.04899 1.05111
 O76 O 0.54686 1.05448 0.94282
 O77 O 0.58303 1.02460 0.97464
 C78 C 0.57641 1.04580 0.95170
 O79 O 0.45397 1.05756 0.94561
 O80 O 0.41758 1.02583 0.97543
 C81 C 0.42436 1.04873 0.95420
 O82 O 0.54649 1.05475 1.06311
 O83 O 0.58284 1.02471 1.03166
 C84 C 0.57608 1.04604 1.05439
 Zr85 Zr 0.50008 1.03906 1.04452
 O86 O 0.50384 1.09126 1.04435
 O87 O 0.49616 1.03885 1.09641
 Zr88 Zr 0.50035 1.03895 0.96137
 O89 O 0.50412 1.09115 0.96150
 O90 O 0.49679 1.03883 0.90947
 O91 O 0.47076 1.04547 1.00285
 O92 O 0.52891 1.04503 1.00299
 O93 O 0.54644 0.93984 1.06350
 O94 O 0.58281 0.96976 1.03184
 C95 C 0.57605 0.94853 1.05473
 O96 O 0.45389 0.93670 0.94592
 O97 O 0.41755 0.96851 0.97559
 C98 C 0.42429 0.94559 0.95446
 O99 O 0.54681 0.93979 0.94310
 O100 O 0.58300 0.96972 0.97479
 C101 C 0.57636 0.94851 0.95192
 O102 O 0.45350 0.93677 1.06023
 O103 O 0.41736 0.96857 1.03026
 C104 C 0.42396 0.94563 1.05149
 Zr105 Zr 0.50004 0.95542 1.04477
 O106 O 0.50374 0.90323 1.04476
 O107 O 0.49613 0.95566 1.09665
 Zr108 Zr 0.50030 0.95529 0.96163
 O109 O 0.50403 0.90309 0.96223
 O110 O 0.49675 0.95509 0.90973
 Zr111 Zr 0.45107 0.99720 1.00294
 Zr112 Zr 0.54930 0.99719 1.00317
 O113 O 0.52888 0.94934 1.00328
 O114 O 0.47069 0.94891 1.00315
 O115 O 0.52950 0.99725 1.05113
 O116 O 0.47167 0.99712 0.95544
 O117 O 0.47133 0.99726 1.05056
 O118 O 0.52978 0.99711 0.95514
 H119 H 0.54392 1.06439 1.00295
 H120 H 0.45677 0.99710 0.93613
 H121 H 0.54390 0.93000 1.00335
 H122 H 0.45626 0.99730 1.06976
 H123 H 0.51523 1.02528 0.90094
 H124 H 0.51496 0.96891 0.90111
 H125 H 0.48517 0.89449 0.97514
 H126 H 0.48531 0.89458 1.03133
 H127 H 0.51459 0.96914 1.10524
 H128 H 0.51477 1.02563 1.10508
 H129 H 0.48558 1.09989 1.03068
 H130 H 0.48541 1.09981 0.97455
 O131 O 0.05359 0.54668 -0.06318
 O132 O 0.02355 0.58281 -0.03151
 C133 C 0.04485 0.57622 -0.05435
 O134 O -0.06415 0.45346 -0.06006
 O135 O -0.03226 0.41723 -0.03029
 C136 C -0.05522 0.42389 -0.05144
 O137 O -0.06127 0.54641 -0.06306
 O138 O -0.03138 0.58268 -0.03143
 C139 C -0.05262 0.57599 -0.05426
 O140 O 0.05684 0.45377 -0.06014
 O141 O 0.02509 0.41736 -0.03034
 C142 C 0.04805 0.42416 -0.05149
 Zr143 Zr 0.03803 0.50015 -0.04463
 O144 O 0.03774 0.49650 -0.09653
 O145 O 0.09022 0.50401 -0.04466
 Zr146 Zr -0.04561 0.49995 -0.04448
 O147 O -0.04561 0.49632 -0.09638
 O148 O -0.09782 0.50355 -0.04409
 O149 O -0.00385 0.52951 -0.05097
 O150 O -0.00373 0.47136 -0.05055
 O151 O 0.05686 0.45357 0.05405
 O152 O 0.02512 0.41727 0.02429
 C153 C 0.04807 0.42398 0.04542
 O154 O -0.06111 0.54620 0.05736
 O155 O -0.03130 0.58260 0.02563
 C156 C -0.05246 0.57581 0.04857
 O157 O -0.06405 0.45327 0.05429
 O158 O -0.03221 0.41713 0.02440
 C159 C -0.05512 0.42374 0.04564
 O160 O 0.05365 0.54644 0.05707
 O161 O 0.02360 0.58271 0.02550
 C162 C 0.04490 0.57602 0.04830
 Zr163 Zr 0.03810 0.50000 0.03853
 O164 O 0.03800 0.49618 0.09042
 O165 O 0.09029 0.50385 0.03826
 Zr166 Zr -0.04556 0.49980 0.03865
 O167 O -0.04559 0.49598 0.09054
 O168 O -0.09776 0.50344 0.03835
 Zr169 Zr -0.00384 0.54908 -0.00297
 Zr170 Zr -0.00365 0.45085 -0.00299
 O171 O -0.00366 0.47121 0.04458
 O172 O -0.00377 0.52933 0.04502
 O173 O 0.04459 0.47063 -0.00307
 O174 O -0.05166 0.52858 -0.00290
 O175 O 0.04404 0.52878 -0.00305
 O176 O -0.05197 0.47038 -0.00291
 H177 H -0.00370 0.45640 -0.06980
 H178 H -0.07102 0.54357 -0.00285
 H179 H -0.00361 0.45620 0.06384
 H180 H 0.06337 0.54381 -0.00308
 H181 H -0.10639 0.48487 -0.03090
 H182 H -0.10636 0.48471 0.02531
 H183 H -0.03181 0.51422 0.09913
 H184 H 0.02459 0.51467 0.09905
 H185 H 0.09896 0.48533 0.02496
 H186 H 0.09892 0.48563 -0.03115
 H187 H 0.02445 0.51512 -0.10509
 H188 H -0.03200 0.51471 -0.10499
 O189 O 1.06362 -0.05479 0.54622
 O190 O 1.03197 -0.02468 0.58229
 C191 C 1.05480 -0.04608 0.57563
 O192 O 1.06099 0.06329 0.45363
 O193 O 1.03093 0.03156 0.41765
 C194 C 1.05225 0.05448 0.42424
 O195 O 1.06406 0.06009 0.54606
 O196 O 1.03211 0.03028 0.58225
 C197 C 1.05517 0.05145 0.57551
 O198 O 1.06055 -0.05781 0.45381
 O199 O 1.03078 -0.02582 0.41771
 C200 C 1.05189 -0.04892 0.42439
 Zr201 Zr 1.04512 -0.03901 0.50000
 O202 O 1.09732 -0.03875 0.49624
 O203 O 1.04504 -0.09120 0.50377
 Zr204 Zr 1.04535 0.04456 0.49984
 O205 O 1.09755 0.04420 0.49607
 O206 O 1.04549 0.09676 0.50349
 O207 O 1.05169 0.00276 0.52923
 O208 O 1.05125 0.00276 0.47136
 O209 O 0.94579 -0.05739 0.45385
 O210 O 0.97589 -0.02569 0.41774
 C211 C 0.95454 -0.04859 0.42443
 O212 O 0.94308 0.06040 0.54620
 O213 O 0.97482 0.03038 0.58230
 C214 C 0.95187 0.05166 0.57562
 O215 O 0.94605 0.06348 0.45378
 O216 O 0.97594 0.03162 0.41772
 C217 C 0.95468 0.05458 0.42437
 O218 O 0.94244 -0.05465 0.54587
 O219 O 0.97442 -0.02499 0.58187
 C220 C 0.95132 -0.04609 0.57523
 Zr221 Zr 0.96149 -0.03880 0.49999
 O222 O 0.90929 -0.03853 0.49626
 O223 O 0.96173 -0.09100 0.50376
 Zr224 Zr 0.96173 0.04484 0.49998
 O225 O 0.90954 0.04498 0.49634
 O226 O 0.96221 0.09704 0.50362
 Zr227 Zr 1.00342 0.00291 0.54887
 Zr228 Zr 1.00340 0.00292 0.45112
 O229 O 0.95557 0.00305 0.47148
 O230 O 0.95516 0.00302 0.52930
 O231 O 1.00329 -0.04536 0.47073
 O232 O 1.00357 0.05074 0.52845
 O233 O 1.00327 -0.04491 0.52855
 O234 O 1.00355 0.05118 0.47061
 H235 H 1.07059 0.00272 0.45641
 H236 H 1.00363 0.07009 0.54333
 H237 H 0.93620 0.00308 0.45660
 H238 H 1.00320 -0.06432 0.54343
 H239 H 1.03183 0.10545 0.48529
 H240 H 0.97536 0.10564 0.48497
 H241 H 0.90082 0.03152 0.51472
 H242 H 0.90067 -0.02480 0.51443
 H243 H 0.97482 -0.09966 0.48512
 H244 H 1.03123 -0.09983 0.48566
 H245 H 1.10598 -0.02573 0.51489
 H246 H 1.10614 0.03080 0.51452
 C247 C 1.14173 0.10698 0.27248
 C248 C 1.12322 0.12658 0.29386
 C249 C 1.11919 0.16020 0.28718
 C250 C 1.13350 0.17422 0.25914
 C251 C 1.15231 0.15483 0.23702
 C252 C 1.15614 0.12083 0.24444
 C253 C 1.10807 0.11202 0.32246
 C254 C 1.09535 0.09947 0.34620
 C255 C 1.08040 0.08431 0.37372
 C256 C 1.06759 0.07094 0.39696
 H257 H 1.14475 0.08080 0.27726
 H258 H 1.10508 0.17569 0.30375
 H259 H 1.13065 0.20058 0.25579
 H260 H 1.16902 0.10425 0.22800
 C261 C 0.90103 -0.14125 0.27415
 C262 C 0.88229 -0.12268 0.29624
 C263 C 0.84842 -0.11874 0.29101
 C264 C 0.83328 -0.13315 0.26369
 C265 C 0.85177 -0.15197 0.24083
 C266 C 0.88604 -0.15577 0.24681
 C267 C 0.89789 -0.10732 0.32409
 C268 C 0.91094 -0.09424 0.34730
 C269 C 0.92618 -0.07865 0.37433
 C270 C 0.93916 -0.06508 0.39729
 H271 H 0.92739 -0.14421 0.27782
 H272 H 0.83360 -0.10461 0.30815
 H273 H 0.80680 -0.13036 0.26150
 H274 H 0.90195 -0.16868 0.22976
 C275 C 0.85869 0.10162 0.72662
 C276 C 0.87675 0.12126 0.70480
 C277 C 0.87987 0.15511 0.71067
 C278 C 0.86513 0.16934 0.73832
 C279 C 0.84679 0.14993 0.76088
 C280 C 0.84385 0.11569 0.75429
 C281 C 0.89241 0.10657 0.67660
 C282 C 0.90570 0.09415 0.65315
 C283 C 0.92150 0.07948 0.62589
 C284 C 0.93522 0.06684 0.60281
 H285 H 0.85638 0.07527 0.72246
 H286 H 0.89361 0.17062 0.69375
 H287 H 0.86729 0.19583 0.74103
 H288 H 0.83137 0.09914 0.77110
 C289 C 1.12832 -0.15340 0.70698
 C290 C 1.12630 -0.11892 0.70512
 C291 C 1.13806 -0.09960 0.73111
 C292 C 1.15170 -0.11467 0.75889
 C293 C 1.15373 -0.14933 0.76106
 C294 C 1.14193 -0.16854 0.73476
 C295 C 1.11173 -0.10334 0.67681
 C296 C 1.09925 -0.09022 0.65328
 C297 C 1.08426 -0.07482 0.62596
 C298 C 1.07106 -0.06168 0.60284
 H299 H 1.11931 -0.16859 0.68699
 H300 H 1.13648 -0.07288 0.72999
 H301 H 1.16016 -0.09924 0.77891
 H302 H 1.14352 -0.19525 0.73555
 C303 C 0.27257 1.10448 1.14045
 C304 C 0.29409 1.12331 1.12119
 C305 C 0.28787 1.15693 1.11644
 C306 C 0.26017 1.17171 1.13079
 C307 C 0.23795 1.15312 1.15038
 C308 C 0.24487 1.11910 1.15491
 C309 C 0.32242 1.10801 1.10614
 C310 C 0.34599 1.09493 1.09353
 C311 C 0.37340 1.07929 1.07876
 C312 C 0.39663 1.06563 1.06614
 H313 H 0.27700 1.07831 1.14405
 H314 H 0.30455 1.17183 1.10175
 H315 H 0.25718 1.19805 1.12734
 H316 H 0.22829 1.10309 1.16842
 C317 C 0.28767 0.84110 0.88419
 C318 C 0.29458 0.87474 0.88076
 C319 C 0.27378 0.89465 0.86185
 C320 C 0.24607 0.88107 0.84646
 C321 C 0.23842 0.84706 0.84967
 C322 C 0.25996 0.82736 0.86890
 C323 C 0.32289 0.88899 0.89679
 C324 C 0.34644 0.90129 0.91016
 C325 C 0.37380 0.91617 0.92573
 C326 C 0.39698 0.92933 0.93892
 H327 H 0.30382 0.82538 0.89857
 H328 H 0.27876 0.92085 0.85927
 H329 H 0.23005 0.89788 0.83329
 H330 H 0.25647 0.80098 0.87133
 C331 C 0.70839 0.84372 1.13122
 C332 C 0.70641 0.87810 1.12793
 C333 C 0.73249 0.89796 1.13887
 C334 C 0.76049 0.88353 1.15298
 C335 C 0.76276 0.84897 1.15633
 C336 C 0.73637 0.82922 1.14531
 C337 C 0.67786 0.89302 1.11290
 C338 C 0.65415 0.90562 1.10007
 C339 C 0.62664 0.92048 1.08470
 C340 C 0.60338 0.93325 1.07123
 H341 H 0.68833 0.82811 1.12285
 H342 H 0.73129 0.92459 1.13629
 H343 H 0.78059 0.89935 1.16075
 H344 H 0.73729 0.80259 1.14787
 C345 C 0.71081 1.15150 0.88094
 C346 C 0.70540 1.11763 0.87715
 C347 C 0.72740 1.09884 0.85847
 C348 C 0.75480 1.11377 0.84367
 C349 C 0.76092 1.14804 0.84728
 C350 C 0.73819 1.16658 0.86625
 C351 C 0.67744 1.10211 0.89270
 C352 C 0.65411 1.08913 0.90590
 C353 C 0.62691 1.07397 0.92159
 C354 C 0.60378 1.06108 0.93520
 H355 H 0.69374 1.16636 0.89517
 H356 H 0.72360 1.07248 0.85562
 H357 H 0.77179 1.09784 0.83065
 H358 H 0.74054 1.19306 0.86896
 C359 C 0.15601 0.29328 0.12129
 C360 C 0.12162 0.29488 0.11792
 C361 C 0.10192 0.26907 0.12985
 C362 C 0.11651 0.24175 0.14510
 C363 C 0.15106 0.23989 0.14861
 C364 C 0.17066 0.26596 0.13651
 C365 C 0.10649 0.32293 0.10218
 C366 C 0.09356 0.34631 0.08904
 C367 C 0.07809 0.37354 0.07374
 C368 C 0.06457 0.39666 0.06075
 H369 H 0.17149 0.31315 0.11219
 H370 H 0.07528 0.27000 0.12727
 H371 H 0.10080 0.22185 0.15370
 H372 H 0.19729 0.26534 0.13914
 C373 C -0.16068 0.29070 -0.12671
 C374 C -0.12636 0.29321 -0.12321
 C375 C -0.10599 0.26770 -0.13454
 C376 C -0.11984 0.23975 -0.14927
 C377 C -0.15432 0.23696 -0.15287
 C378 C -0.17459 0.26275 -0.14143
 C379 C -0.11197 0.32181 -0.10782
 C380 C -0.09960 0.34558 -0.09490
 C381 C -0.08467 0.37316 -0.07975
 C382 C -0.07149 0.39648 -0.06682
 H383 H -0.17667 0.31033 -0.11807
 H384 H -0.07940 0.26933 -0.13184
 H385 H -0.10362 0.22009 -0.15738
 H386 H -0.20119 0.26142 -0.14414
 C387 C 0.12220 0.70872 -0.15947
 C388 C 0.11798 0.70645 -0.12540
 C389 C 0.12936 0.73192 -0.10511
 C390 C 0.14495 0.75954 -0.11879
 C391 C 0.14939 0.76204 -0.15300
 C392 C 0.13778 0.73635 -0.17321
 C393 C 0.10202 0.67804 -0.11113
 C394 C 0.08875 0.65440 -0.09878
 C395 C 0.07334 0.62692 -0.08383
 C396 C 0.06027 0.60365 -0.07062
 H397 H 0.11353 0.68912 -0.17539
 H398 H 0.12611 0.73047 -0.07872
 H399 H 0.15315 0.77914 -0.10263
 H400 H 0.14112 0.73746 -0.19960
 C401 C -0.10124 0.73120 0.13532
 C402 C -0.12148 0.70563 0.12388
 C403 C -0.15581 0.70789 0.12752
 C404 C -0.16987 0.73563 0.14246
 C405 C -0.14974 0.76151 0.15398
 C406 C -0.11524 0.75895 0.15028
 C407 C -0.10699 0.67728 0.10815
 C408 C -0.09470 0.65370 0.09481
 C409 C -0.08015 0.62631 0.07897
 C410 C -0.06758 0.60312 0.06523
 H411 H -0.07464 0.72977 0.13252
 H412 H -0.17170 0.68821 0.11879
 H413 H -0.19647 0.73671 0.14530
 H414 H -0.09913 0.77864 0.15850
 C415 C 1.10650 0.13413 0.73077
 C416 C 1.12699 0.12220 0.70575
 C417 C 1.16135 0.12486 0.70878
 C418 C 1.17517 0.13939 0.73675
 C419 C 1.15476 0.15146 0.76205
 C420 C 1.12025 0.14867 0.75873
 C421 C 1.11265 0.10708 0.67712
 C422 C 1.10019 0.09439 0.65337
 C423 C 1.08508 0.07950 0.62588
 C424 C 1.07170 0.06673 0.60269
 H425 H 1.07988 0.13208 0.72874
 H426 H 1.17744 0.11575 0.68952
 H427 H 1.20180 0.14152 0.73843
 H428 H 1.10390 0.15729 0.77798
 C429 C 0.85907 -0.09921 0.72621
 C430 C 0.87700 -0.11811 0.70373
 C431 C 0.88033 -0.15210 0.70869
 C432 C 0.86600 -0.16720 0.73613
 C433 C 0.84788 -0.14854 0.75941
 C434 C 0.84462 -0.11416 0.75368
 C435 C 0.89234 -0.10256 0.67579
 C436 C 0.90544 -0.08955 0.65251
 C437 C 0.92108 -0.07436 0.62541
 C438 C 0.93472 -0.06143 0.60241
 H439 H 0.85657 -0.07277 0.72275
 H440 H 0.89394 -0.16703 0.69123
 H441 H 0.86825 -0.19375 0.73807
 H442 H 0.83222 -0.09818 0.77104
 C443 C 1.10155 -0.14212 0.27344
 C444 C 1.12120 -0.12405 0.29512
 C445 C 1.15502 -0.12080 0.28904
 C446 C 1.16919 -0.13541 0.26129
 C447 C 1.14975 -0.15374 0.23885
 C448 C 1.11555 -0.15684 0.24567
 C449 C 1.10657 -0.10845 0.32337
 C450 C 1.09419 -0.09518 0.34685
 C451 C 1.07958 -0.07938 0.37412
 C452 C 1.06699 -0.06563 0.39720
 H453 H 1.07522 -0.14453 0.27776
 H454 H 1.17055 -0.10704 0.30586
 H455 H 1.19566 -0.13316 0.25844
 H456 H 1.09895 -0.16933 0.22899
 C457 C 0.86259 0.10534 0.27390
 C458 C 0.88088 0.12537 0.29507
 C459 C 0.88376 0.15914 0.28858
 C460 C 0.86855 0.17290 0.26092
 C461 C 0.85000 0.15307 0.23899
 C462 C 0.84728 0.11893 0.24624
 C463 C 0.89688 0.11112 0.32331
 C464 C 0.91026 0.09884 0.34679
 C465 C 0.92585 0.08398 0.37407
 C466 C 0.93908 0.07084 0.39717
 H467 H 0.86043 0.07905 0.27857
 H468 H 0.89763 0.17496 0.30503
 H469 H 0.87047 0.19937 0.25779
 H470 H 0.83461 0.10208 0.22994
 C471 C 0.15692 0.29267 -0.12420
 C472 C 0.12245 0.29469 -0.12208
 C473 C 0.10291 0.26901 -0.13442
 C474 C 0.11774 0.24135 -0.14873
 C475 C 0.15238 0.23901 -0.15088
 C476 C 0.17182 0.26502 -0.13850
 C477 C 0.10708 0.32295 -0.10703
 C478 C 0.09397 0.34644 -0.09435
 C479 C 0.07832 0.37375 -0.07946
 C480 C 0.06467 0.39688 -0.06670
 H481 H 0.17227 0.31245 -0.11479
 H482 H 0.07621 0.27028 -0.13280
 H483 H 0.10214 0.22155 -0.15765
 H484 H 0.19851 0.26412 -0.14016
 C485 C -0.10544 0.27241 0.13762
 C486 C -0.12561 0.29359 0.11940
 C487 C -0.15938 0.28700 0.11679
 C488 C -0.17300 0.25929 0.13229
 C489 C -0.15306 0.23745 0.15092
 C490 C -0.11890 0.24471 0.15321
 C491 C -0.11149 0.32197 0.10328
 C492 C -0.09927 0.34559 0.08988
 C493 C -0.08445 0.37305 0.07431
 C494 C -0.07133 0.39631 0.06115
 H495 H -0.07914 0.27712 0.13952
 H496 H -0.17530 0.30341 0.10292
 H497 H -0.19947 0.25599 0.13054
 H498 H -0.10189 0.22840 0.16574
 C499 C -0.15671 0.71242 -0.12384
 C500 C -0.12292 0.70643 -0.12751
 C501 C -0.10348 0.72853 -0.14548
 C502 C -0.11767 0.75661 -0.15969
 C503 C -0.15184 0.76332 -0.15618
 C504 C -0.17105 0.74048 -0.13793
 C505 C -0.10807 0.67788 -0.11242
 C506 C -0.09551 0.65416 -0.09954
 C507 C -0.08068 0.62663 -0.08415
 C508 C -0.06791 0.60336 -0.07070
 H509 H -0.17206 0.69530 -0.11013
 H510 H -0.07717 0.72430 -0.14818
 H511 H -0.10119 0.77362 -0.17202
 H512 H -0.19750 0.74333 -0.13536
 C513 C 0.15134 0.70651 0.12489
 C514 C 0.11689 0.70502 0.12216
 C515 C 0.09753 0.73097 0.13418
 C516 C 0.11252 0.75837 0.14884
 C517 C 0.14714 0.76016 0.15164
 C518 C 0.16640 0.73390 0.13952
 C519 C 0.10142 0.67700 0.10676
 C520 C 0.08842 0.65366 0.09370
 C521 C 0.07321 0.62646 0.07818
 C522 C 0.06025 0.60335 0.06469
 H523 H 0.16657 0.68652 0.11570
 H524 H 0.07084 0.73012 0.13208
 H525 H 0.09706 0.77838 0.15754
 H526 H 0.19307 0.73439 0.14168
 C527 C 0.26918 1.13404 0.90079
 C528 C 0.29542 1.12232 0.88167
 C529 C 0.29416 1.12523 0.84742
 C530 C 0.26673 1.13976 0.83232
 C531 C 0.24020 1.15160 0.85133
 C532 C 0.24174 1.14859 0.88576
 C533 C 0.32347 1.10703 0.89721
 C534 C 0.34683 1.09404 0.91029
 C535 C 0.37401 1.07860 0.92564
 C536 C 0.39709 1.06513 0.93872
 H537 H 0.26984 1.13177 0.92732
 H538 H 0.31437 1.11627 0.83239
 H539 H 0.26641 1.14206 0.80581
 H540 H 0.22151 1.15702 0.90102
 C541 C 0.26757 0.89413 1.13413
 C542 C 0.29298 0.87381 1.12250
 C543 C 0.29030 0.83945 1.12558
 C544 C 0.26229 0.82545 1.14022
 C545 C 0.23662 0.84569 1.15201
 C546 C 0.23957 0.88020 1.14878
 C547 C 0.32167 0.88830 1.10727
 C548 C 0.34550 0.90080 1.09450
 C549 C 0.37314 0.91590 1.07954
 C550 C 0.39651 0.92922 1.06675
 H551 H 0.26933 0.92075 1.13175
 H552 H 0.30985 0.82349 1.11670
 H553 H 0.26085 0.79883 1.14265
 H554 H 0.22000 0.89640 1.15714
 C555 C 0.70718 1.15311 1.12902
 C556 C 0.70566 1.11863 1.12669
 C557 C 0.73192 1.09941 1.13833
 C558 C 0.75966 1.11458 1.15214
 C559 C 0.76151 1.14924 1.15446
 C560 C 0.73491 1.16834 1.14281
 C561 C 0.67740 1.10299 1.11190
 C562 C 0.65389 1.08989 1.09923
 C563 C 0.62656 1.07456 1.08404
 C564 C 0.60340 1.06151 1.07072
 H565 H 0.68697 1.16822 1.12012
 H566 H 0.73106 1.07270 1.13652
 H567 H 0.77992 1.09924 1.16051
 H568 H 0.73546 1.19504 1.14461
 C569 C 0.73184 0.89915 0.86528
 C570 C 0.70605 0.87911 0.87666
 C571 C 0.70796 0.84478 0.87291
 C572 C 0.73558 0.83052 0.85790
 C573 C 0.76167 0.85046 0.84643
 C574 C 0.75947 0.88496 0.85025
 C575 C 0.67781 0.89377 0.89245
 C576 C 0.65430 0.90617 0.90582
 C577 C 0.62694 0.92080 0.92166
 C578 C 0.60374 0.93340 0.93536
 H579 H 0.73067 0.92575 0.86817
 H580 H 0.68810 0.82904 0.88159
 H581 H 0.73640 0.80393 0.85497
 H582 H 0.77934 0.90091 0.84206
   
