data_POSCAR
  _audit_creation_date              2014-09-24
  _audit_creation_method            'ToBaCCo'
  _symmetry_space_group_name_H-M    'P1'
  _symmetry_Int_Tables_number       1
  _symmetry_cell_setting            triclinic
  loop_
  _symmetry_equiv_pos_as_xyz
 x,y,z
_cell_length_a 42.2156
_cell_length_b 43.0756
_cell_length_c 44.5954
_cell_angle_alpha 92.276600
_cell_angle_beta 90.230700
_cell_angle_gamma 91.608900
loop_
  _atom_site_label
  _atom_site_type_symbol
  _atom_site_fract_x
  _atom_site_fract_y
  _atom_site_fract_z
C1 C 0.17695 1.21514 0.21480
 C2 C 0.16447 1.24305 0.20550
 C3 C 0.17524 1.25695 0.17919
 C4 C 0.19926 1.24229 0.16232
 C5 C 0.21200 1.21440 0.17141
 C6 C 0.20080 1.20075 0.19769
 C7 C 0.16538 1.20109 0.24061
 C8 C 0.17727 1.17254 0.24960
 C9 C 0.20119 1.15855 0.23226
 C10 C 0.21299 1.17237 0.20650
 C11 C 0.23633 1.15783 0.18906
 C12 C 0.24780 1.17142 0.16288
 C13 C 0.23537 1.19962 0.15422
 H14 H 0.14592 1.25384 0.21870
 H15 H 0.20794 1.25169 0.14173
 H16 H 0.14662 1.21237 0.25287
 H17 H 0.21053 1.13654 0.23868
 H18 H 0.24473 1.13557 0.19558
 H19 H 0.24384 1.21000 0.13388
 C20 C 0.82680 0.78215 0.21025
 C21 C 0.83727 0.75485 0.19568
 C22 C 0.82276 0.74316 0.16875
 C23 C 0.79728 0.75936 0.15698
 C24 C 0.78666 0.78671 0.17128
 C25 C 0.80154 0.79819 0.19797
 C26 C 0.84168 0.79391 0.23669
 C27 C 0.83202 0.82174 0.25111
 C28 C 0.80667 0.83762 0.23846
 C29 C 0.79149 0.82600 0.21213
 C30 C 0.76662 0.84210 0.19952
 C31 C 0.75148 0.83082 0.17303
 C32 C 0.76175 0.80306 0.15893
 H33 H 0.85700 0.74346 0.20552
 H34 H 0.78582 0.75087 0.13631
 H35 H 0.86120 0.78140 0.24591
 H36 H 0.79847 0.85915 0.24843
 H37 H 0.75900 0.86361 0.21033
 H38 H 0.75118 0.79445 0.13798
 C39 C 0.83295 1.20894 -0.19450
 C40 C 0.84402 1.23459 -0.17666
 C41 C 0.82981 1.24196 -0.14886
 C42 C 0.80440 1.22330 -0.13906
 C43 C 0.79297 1.19769 -0.15672
 C44 C 0.80736 1.19042 -0.18452
 C45 C 0.84757 1.20117 -0.22186
 C46 C 0.83734 1.17490 -0.23952
 C47 C 0.81152 1.15662 -0.22929
 C48 C 0.79658 1.16425 -0.20202
 C49 C 0.77130 1.14573 -0.19175
 C50 C 0.75658 1.15297 -0.16427
 C51 C 0.76776 1.17893 -0.14673
 H52 H 0.86432 1.24807 -0.18412
 H53 H 0.79358 1.22869 -0.11753
 H54 H 0.86740 1.21548 -0.22922
 H55 H 0.80284 1.13619 -0.24187
 H56 H 0.76306 1.12551 -0.20515
 H57 H 0.75756 1.18424 -0.12496
 C58 C 0.14717 0.79538 -0.22365
 C59 C 0.13388 0.77002 -0.20892
 C60 C 0.14987 0.75675 -0.18502
 C61 C 0.17972 0.76960 -0.17594
 C62 C 0.19323 0.79509 -0.19044
 C63 C 0.17697 0.80796 -0.21445
 C64 C 0.13080 0.80868 -0.24714
 C65 C 0.14386 0.83428 -0.26175
 C66 C 0.17358 0.84686 -0.25237
 C67 C 0.19015 0.83389 -0.22878
 C68 C 0.21935 0.84690 -0.21885
 C69 C 0.23572 0.83435 -0.19488
 C70 C 0.22244 0.80838 -0.18076
 H71 H 0.11083 0.76065 -0.21610
 H72 H 0.19241 0.76071 -0.15719
 H73 H 0.10774 0.79916 -0.25406
 H74 H 0.18348 0.86726 -0.26271
 H75 H 0.22929 0.86707 -0.22962
 H76 H 0.23407 0.79898 -0.16161
 C77 C 0.54106 0.99535 -0.04449
 H78 H 0.54212 0.97030 -0.04687
 C79 C 0.56187 1.01404 -0.06066
 H80 H 0.57829 1.00299 -0.07594
 C81 C 0.51786 1.03980 -0.02176
 H82 H 0.50116 1.04980 -0.00614
 C83 C 0.53811 1.05936 -0.03757
 H84 H 0.53657 1.08431 -0.03415
 N85 N 0.51964 1.00841 -0.02550
 C86 C 0.47163 1.00294 0.05456
 H87 H 0.48929 0.98838 0.06386
 C88 C 0.45188 1.01981 0.07383
 H89 H 0.45475 1.01827 0.09787
 C90 C 0.44583 1.02218 0.01213
 H91 H 0.44368 1.02292 -0.01201
 C92 C 0.42556 1.03938 0.03055
 H93 H 0.40843 1.05377 0.02014
 Zn94 Zn 0.49416 0.98145 -0.00257
 N95 N 0.46845 1.00461 0.02431
 C96 C 0.54434 0.97120 0.03645
 N97 N 0.52197 0.95641 0.01869
 C98 C 0.52072 0.92492 0.01515
 C99 C 0.54216 0.90701 0.03035
 C100 C 0.56622 0.95425 0.05215
 C101 C 0.46651 0.95871 -0.05788
 C102 C 0.44477 0.94108 -0.07566
 C103 C 0.42346 0.91936 -0.03061
 C104 C 0.44555 0.93743 -0.01378
 N105 N 0.46656 0.95651 -0.02756
 H106 H 0.54526 0.99633 0.03829
 H107 H 0.50334 0.91358 0.00029
 H108 H 0.54066 0.88193 0.02714
 H109 H 0.58373 0.96717 0.06562
 H110 H 0.48307 0.97442 -0.06837
 H111 H 0.44580 0.94348 -0.09963
 H112 H 0.40692 0.90441 -0.01899
 H113 H 0.44583 0.93645 0.01042
 C114 C 0.42830 1.03810 0.06192
 C115 C 0.56081 1.04657 -0.05693
 C116 C 0.42252 0.92111 -0.06201
 C117 C 0.56529 0.92148 0.04937
 C118 C 0.01040 0.54864 1.05370
 H119 H 0.03604 0.54943 1.05355
 C120 C -0.00593 0.56828 1.07346
 H121 H 0.00727 0.58411 1.08865
 C122 C -0.03794 0.52743 1.03362
 H123 H -0.05032 0.51178 1.01777
 C124 C -0.05525 0.54690 1.05284
 H125 H -0.08086 0.54533 1.05204
 N126 N -0.00571 0.52859 1.03446
 C127 C 0.06505 0.45982 1.01157
 H128 H 0.06471 0.46086 0.98737
 C129 C 0.08476 0.43913 1.02538
 H130 H 0.09972 0.42433 1.01167
 C131 C 0.04540 0.47739 1.05877
 H132 H 0.02966 0.49198 1.07169
 C133 C 0.06463 0.45689 1.07351
 H134 H 0.06402 0.45673 1.09775
 Zn135 Zn 0.01864 0.50428 1.00740
 N136 N 0.04602 0.47854 1.02834
 C137 C 0.07420 0.53390 0.98443
 N138 N 0.04201 0.53237 0.98388
 C139 C 0.02515 0.55220 0.96757
 C140 C 0.04060 0.57430 0.95035
 C141 C 0.09068 0.55577 0.96769
 C142 C -0.02598 0.45605 0.99671
 C143 C -0.04467 0.43439 0.97995
 C144 C -0.02515 0.45721 0.93474
 C145 C -0.00694 0.47847 0.95242
 N146 N -0.00774 0.47758 0.98283
 H147 H 0.08720 0.51851 0.99817
 H148 H -0.00047 0.55084 0.96802
 H149 H 0.02596 0.58935 0.93784
 H150 H 0.11635 0.55656 0.96859
 H151 H -0.02578 0.45558 1.02095
 H152 H -0.05877 0.41793 0.99216
 H153 H -0.02386 0.45827 0.91053
 H154 H 0.00833 0.49521 0.94173
 C155 C 0.08440 0.43717 1.05668
 C156 C -0.03913 0.56786 1.07292
 C157 C -0.04425 0.43450 0.94830
 C158 C 0.07403 0.57647 0.95023
 C159 C 1.00606 -0.02738 0.53622
 H160 H 0.98046 -0.02950 0.53563
 C161 C 1.02330 -0.04540 0.55547
 H162 H 1.01053 -0.06186 0.56891
 C163 C 1.05331 -0.00342 0.51874
 H164 H 1.06489 0.01341 0.50485
 C165 C 1.07148 -0.02088 0.53776
 H166 H 1.09701 -0.01753 0.53807
 N167 N 1.02119 -0.00694 0.51834
 C168 C 1.01973 0.07680 0.47540
 H169 H 1.00442 0.08717 0.49212
 C170 C 1.03728 0.09584 0.45654
 H171 H 1.03552 0.12085 0.45907
 C172 C 1.03988 0.03172 0.45096
 H173 H 1.04053 0.00664 0.44885
 C174 C 1.05781 0.04983 0.43169
 H175 H 1.07280 0.03825 0.41542
 Zn176 Zn 0.99576 0.01844 0.49499
 N177 N 1.02129 0.04535 0.47221
 C178 C 0.98480 0.05823 0.54454
 N179 N 0.96995 0.04119 0.52208
 C180 C 0.93782 0.03883 0.52049
 C181 C 0.91933 0.05413 0.54200
 C182 C 0.96727 0.07373 0.56670
 C183 C 0.97260 -0.03734 0.46479
 C184 C 0.95472 -0.05451 0.44313
 C185 C 0.93319 -0.00656 0.42687
 C186 C 0.95166 0.00962 0.44861
 N187 N 0.97061 -0.00589 0.46723
 H188 H 1.01042 0.05929 0.54551
 H189 H 0.92637 0.02455 0.50296
 H190 H 0.89375 0.05161 0.54034
 H191 H 0.98030 0.08660 0.58419
 H192 H 0.98832 -0.04920 0.47937
 H193 H 0.95675 -0.07945 0.44228
 H194 H 0.91820 0.00643 0.41240
 H195 H 0.95098 0.03470 0.45068
 C196 C 1.05615 0.08240 0.43397
 C197 C 1.05651 -0.04186 0.55679
 C198 C 0.93465 -0.03907 0.42358
 C199 C 0.93385 0.07166 0.56582
 C200 C 0.16070 0.28430 1.17046
 C201 C 0.16923 0.30137 1.14545
 C202 C 0.15107 0.32794 1.13506
 C203 C 0.16582 0.34872 1.11568
 C204 C 0.14910 0.37309 1.10400
 C205 C 0.11703 0.37698 1.11124
 C206 C 0.10241 0.35660 1.13105
 C207 C 0.11909 0.33215 1.14264
 C208 C 0.09815 0.40181 1.09853
 C209 C 0.10483 0.41443 1.07080
 H210 H 0.19034 0.29597 1.13296
 H211 H 0.19041 0.34605 1.10947
 H212 H 0.16145 0.38887 1.08949
 H213 H 0.07772 0.35911 1.13697
 H214 H 0.10646 0.31622 1.15676
 H215 H 0.07666 0.40814 1.11013
 H216 H 0.14153 0.29279 1.18428
 H217 H 0.12416 0.40532 1.05756
 C218 C -0.16691 0.71654 1.15251
 C219 C -0.14183 0.69801 1.16096
 C220 C -0.12932 0.67220 1.14180
 C221 C -0.10910 0.65116 1.15491
 C222 C -0.09522 0.62755 1.13753
 C223 C -0.10113 0.62459 1.10650
 C224 C -0.12187 0.64509 1.09344
 C225 C -0.13559 0.66887 1.11077
 C226 C -0.08590 0.60066 1.08718
 C227 C -0.05598 0.58943 1.09352
 H228 H -0.13054 0.70190 1.18257
 H229 H -0.10386 0.65310 1.17872
 H230 H -0.08004 0.61161 1.14851
 H231 H -0.12679 0.64325 1.06956
 H232 H -0.15027 0.68490 1.09942
 H233 H -0.09719 0.59410 1.06594
 H234 H -0.17939 0.71009 1.13188
 H235 H -0.04306 0.59900 1.11293
 C236 C -0.15797 0.26777 0.87130
 C237 C -0.14019 0.29317 0.86135
 C238 C -0.12599 0.31761 0.88194
 C239 C -0.11815 0.34683 0.87079
 C240 C -0.10368 0.37011 0.88930
 C241 C -0.09626 0.36441 0.91935
 C242 C -0.10441 0.33527 0.93055
 C243 C -0.11891 0.31204 0.91207
 C244 C -0.08028 0.38800 0.93977
 C245 C -0.06142 0.41276 0.92965
 H246 H -0.13743 0.29603 0.83749
 H247 H -0.12338 0.35171 0.84767
 H248 H -0.09877 0.39251 0.87998
 H249 H -0.09898 0.33024 0.95359
 H250 H -0.12374 0.28958 0.92133
 H251 H -0.08210 0.38404 0.96344
 H252 H -0.16423 0.26712 0.89478
 H253 H -0.05882 0.41478 0.90568
 C254 C 0.13477 0.73183 0.82931
 C255 C 0.14835 0.71446 0.85170
 C256 C 0.13022 0.69014 0.86744
 C257 C 0.14635 0.66529 0.87920
 C258 C 0.12996 0.64222 0.89459
 C259 C 0.09702 0.64391 0.89906
 C260 C 0.08100 0.66889 0.88732
 C261 C 0.09736 0.69182 0.87182
 C262 C 0.07827 0.62028 0.91532
 C263 C 0.09150 0.59846 0.93390
 H264 H 0.17326 0.71717 0.85706
 H265 H 0.17170 0.66353 0.87615
 H266 H 0.14330 0.62310 0.90247
 H267 H 0.05569 0.67090 0.89045
 H268 H 0.08425 0.71113 0.86389
 H269 H 0.05290 0.62128 0.91293
 H270 H 0.11093 0.72517 0.82206
 H271 H 0.11698 0.59864 0.93644
 C272 C 1.16554 0.15668 0.27447
 C273 C 1.14270 0.16775 0.29464
 C274 C 1.12858 0.14838 0.31815
 C275 C 1.11513 0.16295 0.34356
 C276 C 1.10048 0.14538 0.36559
 C277 C 1.09886 0.11271 0.36251
 C278 C 1.11204 0.09823 0.33691
 C279 C 1.12668 0.11577 0.31496
 C280 C 1.08260 0.09282 0.38444
 C281 C 1.07352 0.10285 0.41329
 H282 H 1.13526 0.19151 0.29422
 H283 H 1.11581 0.18807 0.34630
 H284 H 1.08996 0.15766 0.38446
 H285 H 1.11074 0.07316 0.33371
 H286 H 1.13564 0.10366 0.29519
 H287 H 1.07727 0.06902 0.37707
 H288 H 1.17508 0.13410 0.27837
 H289 H 1.07794 0.12673 0.42082
 C290 C 1.12502 -0.15170 0.71449
 C291 C 1.13840 -0.13416 0.69184
 C292 C 1.11907 -0.11911 0.66907
 C293 C 1.13245 -0.11288 0.64113
 C294 C 1.11497 -0.09823 0.61932
 C295 C 1.08383 -0.08894 0.62531
 C296 C 1.07054 -0.09520 0.65332
 C297 C 1.08794 -0.10998 0.67502
 C298 C 1.06424 -0.07298 0.60326
 C299 C 1.07624 -0.05930 0.57757
 H300 H 1.16392 -0.13262 0.68969
 H301 H 1.15641 -0.11966 0.63604
 H302 H 1.12600 -0.09461 0.59788
 H303 H 1.04666 -0.08828 0.65861
 H304 H 1.07712 -0.11357 0.69660
 H305 H 1.03952 -0.07033 0.60872
 H306 H 1.09974 -0.15664 0.71412
 H307 H 1.10145 -0.05925 0.57343
 C308 C 0.84866 -0.16732 0.27715
 C309 C 0.84225 -0.13996 0.29391
 C310 C 0.86161 -0.12770 0.31988
 C311 C 0.84947 -0.10350 0.33806
 C312 C 0.86725 -0.09006 0.36193
 C313 C 0.89777 -0.10045 0.36806
 C314 C 0.90971 -0.12507 0.35041
 C315 C 0.89204 -0.13839 0.32636
 C316 C 0.91754 -0.08612 0.39265
 C317 C 0.91608 -0.05450 0.40100
 H318 H 0.82202 -0.12650 0.28842
 H319 H 0.82612 -0.09483 0.33373
 H320 H 0.85692 -0.07173 0.37565
 H321 H 0.93316 -0.13350 0.35477
 H322 H 0.90283 -0.15642 0.31271
 H323 H 0.93529 -0.10042 0.40218
 H324 H 0.86780 -0.18129 0.28464
 H325 H 0.90036 -0.04053 0.38821
 C326 C 0.85400 0.16774 0.73380
 C327 C 0.84731 0.14220 0.71406
 C328 C 0.86717 0.13363 0.68774
 C329 C 0.85485 0.11174 0.66631
 C330 C 0.87310 0.10161 0.64194
 C331 C 0.90424 0.11337 0.63828
 C332 C 0.91659 0.13521 0.65976
 C333 C 0.89841 0.14518 0.68425
 C334 C 0.92522 0.10227 0.61368
 C335 C 0.91433 0.08533 0.58797
 H336 H 0.82660 0.12753 0.71734
 H337 H 0.83107 0.10203 0.66864
 H338 H 0.86280 0.08397 0.62669
 H339 H 0.94066 0.14430 0.65783
 H340 H 0.90944 0.16123 0.70061
 H341 H 0.95013 0.10795 0.61646
 H342 H 0.87353 0.18324 0.72835
 H343 H 0.88903 0.08207 0.58489
 C344 C 0.27143 1.15612 0.14318
 C345 C 0.29171 1.13332 0.15269
 C346 C 0.31394 1.11682 0.13240
 C347 C 0.33960 1.10176 0.14490
 C348 C 0.36067 1.08529 0.12660
 C349 C 0.35645 1.08350 0.09524
 C350 C 0.33046 1.09816 0.08282
 C351 C 0.30941 1.11460 0.10111
 C352 C 0.37768 1.06593 0.07472
 C353 C 0.40762 1.05579 0.08279
 H354 H 0.29243 1.12808 0.17620
 H355 H 0.34332 1.10265 0.16898
 H356 H 0.37971 1.07364 0.13736
 H357 H 0.32632 1.09679 0.05881
 H358 H 0.28932 1.12488 0.09061
 H359 H 0.36908 1.06092 0.05212
 H360 H 0.27359 1.16410 0.12056
 H361 H 0.41630 1.06015 0.10543
 C362 C 0.73069 1.13205 -0.15400
 C363 C 0.70826 1.14108 -0.13262
 C364 C 0.68345 1.11973 -0.12103
 C365 C 0.65717 1.13243 -0.10639
 C366 C 0.63378 1.11321 -0.09412
 C367 C 0.63621 1.08066 -0.09623
 C368 C 0.66266 1.06799 -0.11066
 C369 C 0.68605 1.08722 -0.12290
 C370 C 0.61277 1.05916 -0.08259
 C371 C 0.58279 1.06781 -0.07260
 H372 H 0.70796 1.16514 -0.12472
 H373 H 0.65483 1.15740 -0.10422
 H374 H 0.61444 1.12418 -0.08247
 H375 H 0.66541 1.04305 -0.11224
 H376 H 0.70640 1.07643 -0.13306
 H377 H 0.61995 1.03552 -0.07991
 H378 H 0.72860 1.10911 -0.16471
 H379 H 0.57538 1.09140 -0.07487
 C380 C 0.26551 0.85023 -0.18412
 C381 C 0.28819 0.83624 -0.16656
 C382 C 0.31608 0.85329 -0.15308
 C383 C 0.33045 0.84142 -0.12769
 C384 C 0.35589 0.85740 -0.11338
 C385 C 0.36757 0.88569 -0.12426
 C386 C 0.35419 0.89683 -0.15045
 C387 C 0.32867 0.88089 -0.16473
 C388 C 0.39367 0.90396 -0.10906
 C389 C 0.39925 0.90314 -0.07809
 H390 H 0.28477 0.81218 -0.16101
 H391 H 0.32163 0.81990 -0.11859
 H392 H 0.36642 0.84737 -0.09398
 H393 H 0.36318 0.91823 -0.15965
 H394 H 0.31918 0.89022 -0.18493
 H395 H 0.40677 0.92011 -0.12254
 H396 H 0.26915 0.87418 -0.18997
 H397 H 0.38362 0.88847 -0.06523
 C398 C 0.72612 0.84953 0.16027
 C399 C 0.70342 0.83783 0.13954
 C400 C 0.67891 0.85723 0.12634
 C401 C 0.66502 0.84745 0.09879
 C402 C 0.64227 0.86535 0.08525
 C403 C 0.63258 0.89331 0.09930
 C404 C 0.64621 0.90292 0.12699
 C405 C 0.66892 0.88501 0.14053
 C406 C 0.60942 0.91362 0.08532
 C407 C 0.58671 0.90268 0.06415
 H408 H 0.70394 0.81375 0.13179
 H409 H 0.67227 0.82615 0.08739
 H410 H 0.63301 0.85755 0.06352
 H411 H 0.63912 0.92432 0.13831
 H412 H 0.67816 0.89294 0.16222
 H413 H 0.60973 0.93759 0.09339
 H414 H 0.72555 0.87368 0.16779
 H415 H 0.58494 0.87787 0.05927
   
