data_POSCAR
  _audit_creation_date              2014-09-24
  _audit_creation_method            'ToBaCCo'
  _symmetry_space_group_name_H-M    'P1'
  _symmetry_Int_Tables_number       1
  _symmetry_cell_setting            triclinic
  loop_
  _symmetry_equiv_pos_as_xyz
 x,y,z
_cell_length_a 19.8443
_cell_length_b 19.8215
_cell_length_c 19.8220
_cell_angle_alpha 87.419300
_cell_angle_beta 87.313900
_cell_angle_gamma 87.341700
loop_
  _atom_site_label
  _atom_site_type_symbol
  _atom_site_fract_x
  _atom_site_fract_y
  _atom_site_fract_z
C1 C 0.68064 0.62765 0.90783
 H2 H 0.71535 0.60472 0.87148
 C3 C 0.61858 0.65163 0.88619
 H4 H 0.60979 0.64979 0.83280
 C5 C 0.65166 0.66012 1.01901
 H6 H 0.66551 0.66337 1.07073
 C7 C 0.58665 0.68258 0.99993
 H8 H 0.55166 0.70218 1.03823
 N9 N 0.69735 0.63377 0.97277
 C10 C 0.91065 0.63787 1.01618
 H11 H 0.92449 0.58921 0.99579
 C12 C 0.95895 0.67292 1.04702
 H13 H 1.00952 0.65026 1.04999
 C14 C 0.82650 0.72253 1.04169
 H15 H 0.77448 0.74112 1.03999
 C16 C 0.87337 0.75882 1.07439
 H17 H 0.85660 0.80681 1.09422
 Zn18 Zn 0.78361 0.59575 0.99600
 N19 N 0.84508 0.66096 1.01771
 C20 C 0.84509 0.60349 0.87355
 N21 N 0.82201 0.55429 0.91710
 C22 C 0.82082 0.48929 0.89787
 C23 C 0.84317 0.47271 0.83192
 C24 C 0.86733 0.58955 0.80842
 C25 C 0.78059 0.56779 1.13545
 C26 C 0.74833 0.54478 1.19592
 C27 C 0.70608 0.45418 1.13239
 C28 C 0.73587 0.48209 1.07336
 N29 N 0.76947 0.53988 1.07540
 H30 H 0.84384 0.65523 0.88877
 H31 H 0.80202 0.45041 0.93272
 H32 H 0.84368 0.42035 0.81845
 H33 H 0.88613 0.63212 0.77890
 H34 H 0.80785 0.61348 1.13588
 H35 H 0.75301 0.57273 1.24108
 H36 H 0.68279 0.40631 1.13070
 H37 H 0.72927 0.45947 1.02573
 C38 C 0.93865 0.72948 1.08485
 C39 C 0.56955 0.68034 0.93171
 C40 C 0.69991 0.49538 1.19401
 C41 C 0.86631 0.52336 0.78453
 C42 C 0.67518 0.24967 0.58023
 H43 H 0.72251 0.22152 0.58739
 C44 C 0.61533 0.22630 0.61133
 H45 H 0.61800 0.17844 0.63921
 C46 C 0.61517 0.34348 0.53052
 H47 H 0.61527 0.38958 0.49929
 C48 C 0.55435 0.32155 0.56009
 H49 H 0.50815 0.35100 0.55058
 N50 N 0.67435 0.30872 0.54273
 C51 C 0.89062 0.29680 0.52440
 H52 H 0.89373 0.33419 0.56135
 C53 C 0.95068 0.26695 0.49783
 H54 H 0.99822 0.28445 0.51339
 C55 C 0.82572 0.23320 0.45629
 H56 H 0.77698 0.22077 0.43934
 C57 C 0.88430 0.20186 0.42836
 H58 H 0.87737 0.16746 0.38904
 Zn59 Zn 0.75497 0.34878 0.50893
 N60 N 0.83017 0.28451 0.49850
 C61 C 0.83376 0.44921 0.54795
 N62 N 0.78016 0.41306 0.56985
 C63 C 0.75481 0.41572 0.63473
 C64 C 0.78801 0.45113 0.68220
 C65 C 0.87044 0.48139 0.59380
 C66 C 0.73775 0.36042 0.36552
 C67 C 0.71337 0.39194 0.30641
 C68 C 0.69233 0.49412 0.36621
 C69 C 0.71756 0.46093 0.42397
 N70 N 0.73678 0.39427 0.42379
 H71 H 0.85289 0.44604 0.49611
 H72 H 0.71148 0.38692 0.65081
 H73 H 0.76763 0.45030 0.73355
 H74 H 0.91775 0.50216 0.57561
 H75 H 0.75506 0.30819 0.36478
 H76 H 0.71377 0.36303 0.26129
 H77 H 0.67909 0.54744 0.36914
 H78 H 0.71900 0.48803 0.46996
 C79 C 0.94900 0.22260 0.44459
 C80 C 0.55404 0.26533 0.60629
 C81 C 0.68255 0.45782 0.30754
 C82 C 0.84942 0.48156 0.66310
 C83 C 0.17628 -0.23900 0.08613
 H84 H 0.22466 -0.26251 0.09859
 C85 C 0.11662 -0.26593 0.11384
 H86 H 0.12129 -0.31125 0.14551
 C87 C 0.11370 -0.15336 0.02637
 H88 H 0.11267 -0.10905 -0.00743
 C89 C 0.05306 -0.17864 0.05271
 H90 H 0.00600 -0.15280 0.03913
 N91 N 0.17379 -0.18225 0.04517
 C92 C 0.39196 -0.18549 0.02461
 H93 H 0.39782 -0.14314 0.05512
 C94 C 0.45036 -0.21853 -0.00164
 H95 H 0.49854 -0.19758 0.00672
 C96 C 0.32288 -0.25812 -0.02909
 H97 H 0.27309 -0.27216 -0.04167
 C98 C 0.37980 -0.29392 -0.05476
 H99 H 0.37040 -0.33449 -0.08674
 Zn100 Zn 0.25321 -0.13920 0.01320
 N101 N 0.32983 -0.20164 0.00539
 C102 C 0.32808 -0.03575 0.05023
 N103 N 0.27444 -0.07154 0.07237
 C104 C 0.24637 -0.06438 0.13571
 C105 C 0.27898 -0.02758 0.18263
 C106 C 0.36517 -0.00420 0.09601
 C107 C 0.23822 -0.13329 -0.13037
 C108 C 0.21334 -0.10480 -0.19081
 C109 C 0.19151 0.00072 -0.13224
 C110 C 0.21578 -0.03109 -0.07402
 N111 N 0.23571 -0.09751 -0.07309
 H112 H 0.34799 -0.04035 -0.00122
 H113 H 0.20118 -0.09054 0.15124
 H114 H 0.25447 -0.02282 0.23183
 H115 H 0.41359 0.01386 0.07761
 H116 H 0.25697 -0.18527 -0.12889
 H117 H 0.21449 -0.13548 -0.23475
 H118 H 0.18000 0.05458 -0.13198
 H119 H 0.21697 -0.00286 -0.02878
 C120 C 0.44553 -0.27058 -0.04694
 C121 C 0.05341 -0.23270 0.10152
 C122 C 0.17982 -0.04039 -0.19172
 C123 C 0.34416 -0.00344 0.16569
 C124 C 0.19587 0.15118 0.40686
 H125 H 0.23904 0.14585 0.37211
 C126 C 0.13430 0.17398 0.38220
 H127 H 0.13168 0.18709 0.32870
 C128 C 0.14665 0.13922 0.51747
 H129 H 0.15157 0.12288 0.56964
 C130 C 0.08356 0.16372 0.49510
 H131 H 0.04101 0.16638 0.53107
 N132 N 0.20143 0.13454 0.47350
 C133 C 0.41146 0.12829 0.53040
 H134 H 0.42375 0.07745 0.51471
 C135 C 0.45989 0.16375 0.56035
 H136 H 0.50915 0.13928 0.56745
 C137 C 0.33100 0.21931 0.54293
 H138 H 0.28043 0.24045 0.53593
 C139 C 0.37762 0.25567 0.57604
 H140 H 0.36243 0.30579 0.59168
 Zn141 Zn 0.28512 0.09251 0.49867
 N142 N 0.34764 0.15519 0.52465
 C143 C 0.36474 0.09349 0.38450
 N144 N 0.32408 0.05029 0.41980
 C145 C 0.30844 -0.00871 0.39266
 C146 C 0.33241 -0.02388 0.32657
 C147 C 0.38949 0.08030 0.32027
 C148 C 0.27899 0.06293 0.63756
 C149 C 0.24345 0.04158 0.69655
 C150 C 0.19294 -0.04110 0.63255
 C151 C 0.22836 -0.01751 0.57446
 N152 N 0.26723 0.03654 0.57712
 H153 H 0.37585 0.14118 0.40438
 H154 H 0.27655 -0.04348 0.42112
 H155 H 0.32205 -0.07260 0.30780
 H156 H 0.42498 0.11604 0.29902
 H157 H 0.30980 0.10602 0.63943
 H158 H 0.24998 0.06754 0.74257
 H159 H 0.16281 -0.08410 0.62748
 H160 H 0.22008 -0.03878 0.52649
 C161 C 0.44081 0.22440 0.59197
 C162 C 0.07694 0.18308 0.42640
 C163 C 0.19203 -0.00491 0.69309
 C164 C 0.36872 0.02413 0.28544
 C165 C 0.15283 0.40671 0.19566
 H166 H 0.14750 0.37196 0.23874
 C167 C 0.17491 0.38177 0.13392
 H168 H 0.18747 0.32814 0.13119
 C169 C 0.14179 0.51746 0.14666
 H170 H 0.12618 0.56994 0.15174
 C171 C 0.16537 0.49471 0.08332
 H172 H 0.16794 0.53061 0.04074
 N173 N 0.13703 0.47354 0.20145
 C174 C 0.13161 0.53041 0.41161
 H175 H 0.08133 0.51360 0.42431
 C176 C 0.16655 0.56135 0.45979
 H177 H 0.14224 0.56801 0.50926
 C178 C 0.22145 0.54522 0.33025
 H179 H 0.24224 0.53883 0.27938
 C180 C 0.25742 0.57893 0.37674
 H181 H 0.30703 0.59546 0.36113
 Zn182 Zn 0.09553 0.49900 0.28538
 N183 N 0.15803 0.52553 0.34746
 C184 C 0.09809 0.38408 0.36326
 N185 N 0.05399 0.42090 0.32477
 C186 C -0.00630 0.39571 0.31078
 C187 C -0.02204 0.32986 0.33397
 C188 C 0.08453 0.31958 0.38692
 C189 C 0.06228 0.63702 0.28093
 C190 C 0.03972 0.69566 0.24574
 C191 C -0.03941 0.62960 0.19243
 C192 C -0.01468 0.57193 0.22750
 N193 N 0.03820 0.57596 0.26769
 H194 H 0.14654 0.40307 0.37305
 H195 H -0.04170 0.42551 0.28085
 H196 H -0.07146 0.31211 0.32506
 H197 H 0.12123 0.29600 0.41996
 H198 H 0.10471 0.63973 0.31237
 H199 H 0.06395 0.74253 0.25276
 H200 H -0.08116 0.62379 0.16086
 H201 H -0.03362 0.52339 0.21749
 C202 C 0.22632 0.59419 0.44030
 C203 C 0.18402 0.42577 0.07653
 C204 C -0.00553 0.69086 0.19387
 C205 C 0.02624 0.28781 0.36813
 C206 C -0.24416 0.08297 0.17391
 H207 H -0.27037 0.09246 0.22187
 C208 C -0.27004 0.11105 0.11395
 H209 H -0.31746 0.13929 0.11824
 C210 C -0.15306 0.03012 0.11261
 H211 H -0.10711 -0.00131 0.11217
 C212 C -0.17739 0.05661 0.05160
 H213 H -0.14922 0.04499 0.00509
 N214 N -0.18515 0.04561 0.17237
 C215 C -0.18655 0.02477 0.39174
 H216 H -0.14350 0.05442 0.39700
 C217 C -0.21859 -0.00184 0.45057
 H218 H -0.19666 0.00588 0.49847
 C219 C -0.26108 -0.02748 0.32351
 H220 H -0.27603 -0.03970 0.27386
 C221 C -0.29573 -0.05359 0.38089
 H222 H -0.33659 -0.08516 0.37188
 Zn223 Zn -0.14293 0.01404 0.25237
 N224 N -0.20438 0.00669 0.32968
 C225 C -0.03715 0.04938 0.32452
 N226 N -0.07513 0.07245 0.27271
 C227 C -0.07010 0.13647 0.24589
 C228 C -0.03262 0.18291 0.27809
 C229 C -0.00363 0.09441 0.36070
 C230 C -0.13653 -0.12934 0.23865
 C231 C -0.10703 -0.18906 0.21331
 C232 C -0.00490 -0.13060 0.18686
 C233 C -0.03579 -0.07254 0.21290
 N234 N -0.10144 -0.07183 0.23532
 H235 H -0.04088 -0.00235 0.34374
 H236 H -0.09886 0.15289 0.20263
 H237 H -0.03076 0.23338 0.25607
 H238 H 0.01700 0.07556 0.40784
 H239 H -0.18821 -0.12853 0.25824
 H240 H -0.13625 -0.23396 0.21486
 H241 H 0.04767 -0.12833 0.17059
 H242 H -0.00803 -0.02687 0.21170
 C243 C -0.27102 -0.04669 0.44629
 C244 C -0.23350 0.10353 0.05112
 C245 C -0.04266 -0.18842 0.17995
 C246 C -0.00449 0.16392 0.34077
 C247 C 0.24934 0.58270 0.67490
 H248 H 0.22081 0.58983 0.72210
 C249 C 0.22670 0.61411 0.61493
 H250 H 0.17889 0.64203 0.61736
 C251 C 0.34342 0.53275 0.61537
 H252 H 0.38936 0.50131 0.61570
 C253 C 0.32222 0.56263 0.55442
 H254 H 0.35196 0.55301 0.50835
 N255 N 0.30814 0.54489 0.67437
 C256 C 0.29603 0.52518 0.89108
 H257 H 0.33299 0.56245 0.89445
 C258 C 0.26753 0.49701 0.95101
 H259 H 0.28550 0.51183 0.99868
 C260 C 0.23222 0.45784 0.82553
 H261 H 0.21948 0.44159 0.77654
 C262 C 0.20206 0.42844 0.88399
 H263 H 0.16787 0.38904 0.87676
 Zn264 Zn 0.34738 0.51105 0.75523
 N265 N 0.28313 0.50035 0.83023
 C266 C 0.44764 0.54916 0.83412
 N267 N 0.41155 0.57157 0.78067
 C268 C 0.41466 0.63644 0.75551
 C269 C 0.45055 0.68343 0.78880
 C270 C 0.48019 0.59454 0.87094
 C271 C 0.35937 0.36751 0.73931
 C272 C 0.39113 0.30833 0.71528
 C273 C 0.49254 0.36877 0.69251
 C274 C 0.45922 0.42662 0.71737
 N275 N 0.39281 0.42606 0.73737
 H276 H 0.44416 0.49730 0.85301
 H277 H 0.38595 0.65286 0.71223
 H278 H 0.45016 0.73479 0.76858
 H279 H 0.50083 0.57600 0.91821
 H280 H 0.30732 0.36659 0.75697
 H281 H 0.36290 0.26283 0.71589
 H282 H 0.54550 0.37164 0.67795
 H283 H 0.48585 0.47293 0.71776
 C284 C 0.22345 0.44371 0.94879
 C285 C 0.26624 0.60911 0.55384
 C286 C 0.45658 0.30993 0.68464
 C287 C 0.48094 0.66384 0.85011
 C288 C 0.62881 0.90781 0.68224
 H289 H 0.60598 0.87150 0.71702
 C290 C 0.65143 0.88641 0.61947
 H291 H 0.64877 0.83318 0.61026
 C292 C 0.66218 1.01869 0.65377
 H293 H 0.66586 1.07036 0.66787
 C294 C 0.68377 0.99976 0.58830
 H295 H 0.70371 1.03795 0.55346
 N296 N 0.63599 0.97245 0.69952
 C297 C 0.63764 1.01901 0.91332
 H298 H 0.58824 1.00002 0.92621
 C299 C 0.67142 1.05123 0.96164
 H300 H 0.64691 1.05614 1.01130
 C301 C 0.72571 1.03892 0.83145
 H302 H 0.74624 1.03433 0.78026
 C303 C 0.76115 1.07251 0.87849
 H304 H 0.81068 1.08922 0.86285
 Zn305 Zn 0.59835 0.99544 0.78635
 N306 N 0.66292 1.01747 0.84856
 C307 C 0.60519 0.87285 0.84747
 N308 N 0.55649 0.91690 0.82437
 C309 C 0.49139 0.89837 0.82275
 C310 C 0.47418 0.83254 0.84452
 C311 C 0.59063 0.80770 0.86902
 C312 C 0.57182 1.13432 0.78128
 C313 C 0.54838 1.19383 0.74803
 C314 C 0.45902 1.13200 0.70634
 C315 C 0.48467 1.07325 0.73905
 N316 N 0.54254 1.07462 0.77254
 H317 H 0.65695 0.88773 0.84677
 H318 H 0.45289 0.93368 0.80411
 H319 H 0.42172 0.81969 0.84482
 H320 H 0.63281 0.77757 0.88779
 H321 H 0.61838 1.13486 0.80696
 H322 H 0.57617 1.23929 0.75093
 H323 H 0.41324 1.12886 0.67975
 H324 H 0.46168 1.02587 0.73233
 C325 C 0.72946 1.08770 0.94217
 C326 C 0.68031 0.93180 0.57050
 C327 C 0.49719 1.19082 0.70183
 C328 C 0.52426 0.78455 0.86749
 C329 C 0.08244 0.17346 -0.24300
 H330 H 0.09162 0.22148 -0.26911
 C331 C 0.11146 0.11367 -0.26876
 H332 H 0.14019 0.11817 -0.31595
 C333 C 0.02992 0.11187 -0.15195
 H334 H -0.00164 0.11136 -0.10601
 C335 C 0.05736 0.05103 -0.17612
 H336 H 0.04620 0.00448 -0.14790
 N337 N 0.04454 0.17169 -0.18423
 C338 C 0.02354 0.39056 -0.18700
 H339 H 0.05396 0.39584 -0.14447
 C340 C -0.00273 0.44941 -0.21928
 H341 H 0.00564 0.49739 -0.19775
 C342 C -0.03028 0.32229 -0.26036
 H343 H -0.04304 0.27266 -0.27489
 C344 C -0.05597 0.37966 -0.29538
 H345 H -0.08814 0.37070 -0.33582
 Zn346 Zn 0.01187 0.25159 -0.14196
 N347 N 0.00442 0.32858 -0.20397
 C348 C 0.04863 0.32534 -0.03694
 N349 N 0.07067 0.27258 -0.07431
 C350 C 0.13448 0.24517 -0.06946
 C351 C 0.18163 0.27731 -0.03277
 C352 C 0.09442 0.36143 -0.00424
 C353 C -0.13136 0.23508 -0.13647
 C354 C -0.19125 0.21025 -0.10678
 C355 C -0.13470 0.18991 -0.00276
 C356 C -0.07643 0.21531 -0.03393
 N357 N -0.07451 0.23423 -0.10056
 H358 H -0.00286 0.34521 -0.04055
 H359 H 0.15021 0.20131 -0.09777
 H360 H 0.23181 0.25463 -0.03097
 H361 H 0.07634 0.40908 0.01598
 H362 H -0.12997 0.25248 -0.18886
 H363 H -0.23542 0.21037 -0.13691
 H364 H -0.13326 0.17701 0.05073
 H365 H -0.03160 0.21667 -0.00526
 C366 C -0.04797 0.44520 -0.27139
 C367 C 0.10401 0.05073 -0.23254
 C368 C -0.19157 0.17883 -0.04114
 C369 C 0.16367 0.34051 -0.00512
 C370 C 0.40809 0.19472 0.15744
 H371 H 0.37406 0.23862 0.15419
 C372 C 0.38264 0.13300 0.17905
 H373 H 0.32927 0.13142 0.19315
 C374 C 0.51706 0.14363 0.14041
 H375 H 0.56864 0.14772 0.12181
 C376 C 0.49418 0.08037 0.16416
 H377 H 0.52962 0.03733 0.16358
 N378 N 0.47434 0.19950 0.13888
 C379 C 0.53201 0.41100 0.13024
 H380 H 0.51662 0.42208 0.07914
 C381 C 0.56273 0.46018 0.16429
 H382 H 0.57031 0.50865 0.13824
 C383 C 0.54241 0.33320 0.22347
 H384 H 0.53411 0.28346 0.24620
 C385 C 0.57553 0.38077 0.25883
 H386 H 0.58910 0.36696 0.30992
 Zn387 Zn 0.49971 0.28372 0.09677
 N388 N 0.52547 0.34785 0.15865
 C389 C 0.38470 0.36195 0.09763
 N390 N 0.42120 0.32217 0.05427
 C391 C 0.39556 0.30702 -0.00559
 C392 C 0.32991 0.33074 -0.02175
 C393 C 0.32035 0.38590 0.08378
 C394 C 0.63828 0.27706 0.06690
 C395 C 0.69742 0.24299 0.04367
 C396 C 0.63361 0.19524 -0.04077
 C397 C 0.57543 0.22942 -0.01560
 N398 N 0.57793 0.26610 0.04017
 H399 H 0.40387 0.37282 0.14575
 H400 H 0.42485 0.27587 -0.04041
 H401 H 0.31209 0.32116 -0.07103
 H402 H 0.29714 0.41992 0.11991
 H403 H 0.63991 0.30563 0.11162
 H404 H 0.74341 0.24861 0.06984
 H405 H 0.62889 0.16663 -0.08504
 H406 H 0.52768 0.22172 -0.03726
 C407 C 0.59428 0.44268 0.22565
 C408 C 0.42578 0.07408 0.18611
 C409 C 0.69379 0.19283 -0.00423
 C410 C 0.28822 0.36638 0.02588
 C411 C 0.90729 0.68218 0.63040
 H412 H 0.87096 0.71732 0.60819
 C413 C 0.88567 0.61956 0.65299
 H414 H 0.83237 0.61078 0.65085
 C415 C 1.01834 0.65254 0.66214
 H416 H 1.07017 0.66609 0.66517
 C417 C 0.99917 0.58714 0.68357
 H418 H 1.03738 0.55175 0.70252
 N419 N 0.97214 0.69884 0.63682
 C420 C 1.01674 0.91286 0.64086
 H421 H 0.99615 0.92631 0.59226
 C422 C 1.04925 0.96112 0.67448
 H423 H 1.05265 1.01120 0.65063
 C424 C 1.04119 0.82974 0.72652
 H425 H 1.03849 0.77805 0.74603
 C426 C 1.07524 0.87667 0.76171
 H427 H 1.09417 0.86021 0.81015
 Zn428 Zn 0.99520 0.78585 0.59958
 N429 N 1.01711 0.84765 0.66491
 C430 C 0.87244 0.84714 0.60637
 N431 N 0.91670 0.82418 0.55766
 C432 C 0.89851 0.82299 0.49235
 C433 C 0.83282 0.84498 0.47492
 C434 C 0.80740 0.86876 0.59163
 C435 C 1.13413 0.78237 0.57211
 C436 C 1.19406 0.75042 0.54783
 C437 C 1.13229 0.70717 0.45922
 C438 C 1.07321 0.73887 0.48552
 N439 N 1.07442 0.77246 0.54347
 H440 H 0.88705 0.84616 0.65827
 H441 H 0.93400 0.80452 0.45382
 H442 H 0.82028 0.84565 0.42232
 H443 H 0.77709 0.88721 0.63391
 H444 H 1.13460 0.80790 0.61883
 H445 H 1.23961 0.75414 0.57522
 H446 H 1.12923 0.68027 0.41358
 H447 H 1.02583 0.73131 0.46297
 C448 C 1.08786 0.94133 0.73100
 C449 C 0.93100 0.57004 0.68102
 C450 C 1.19149 0.70396 0.49669
 C451 C 0.78456 0.86765 0.52502
 C452 C 0.58332 0.67359 0.24676
 H453 H 0.59099 0.72049 0.21795
 C454 C 0.61388 0.61297 0.22417
 H455 H 0.64151 0.61514 0.17617
 C456 C 0.53256 0.61526 0.34086
 H457 H 0.50097 0.61614 0.38674
 C458 C 0.56158 0.55368 0.31979
 H459 H 0.55098 0.50809 0.34989
 N460 N 0.54560 0.67406 0.30567
 C461 C 0.52555 0.89258 0.29421
 H462 H 0.56289 0.89575 0.33114
 C463 C 0.49733 0.95277 0.26597
 H464 H 0.51289 1.00014 0.28404
 C465 C 0.45778 0.82737 0.23082
 H466 H 0.44137 0.77844 0.21805
 C467 C 0.42775 0.88595 0.20146
 H468 H 0.38770 0.87800 0.16827
 Zn469 Zn 0.51213 0.75598 0.34517
 N470 N 0.50084 0.83172 0.28123
 C471 C 0.55000 0.83439 0.44643
 N472 N 0.57281 0.78150 0.40952
 C473 C 0.63768 0.75649 0.41268
 C474 C 0.68421 0.78933 0.44960
 C475 C 0.59481 0.87045 0.48060
 C476 C 0.36827 0.74179 0.35867
 C477 C 0.30910 0.71846 0.39095
 C478 C 0.37036 0.69411 0.49158
 C479 C 0.42822 0.71819 0.45771
 N480 N 0.42724 0.73861 0.39138
 H481 H 0.49817 0.85323 0.44294
 H482 H 0.65446 0.71366 0.38333
 H483 H 0.73563 0.76935 0.44902
 H484 H 0.57588 0.91722 0.50215
 H485 H 0.36695 0.75985 0.30673
 H486 H 0.26333 0.71973 0.36314
 H487 H 0.37365 0.67920 0.54444
 H488 H 0.47484 0.71768 0.48387
 C489 C 0.44302 0.95138 0.22244
 C490 C 0.60871 0.55171 0.26389
 C491 C 0.31101 0.68732 0.45620
 C492 C 0.66415 0.84993 0.48135
 C493 C 0.39537 0.01124 0.21497
 C494 C 0.14110 0.98633 0.75003
 C495 C 0.64643 0.48701 0.24827
 C496 C 0.90004 0.50498 0.71419
 C497 C 0.21486 0.39403 0.01117
 C498 C 0.74974 0.14094 0.98669
 C499 C 0.24936 0.64901 0.48665
 C500 C 0.71438 0.90096 0.50574
 C501 C 0.01166 0.21430 0.39506
 C502 C 0.98571 0.75000 0.14023
 C503 C 0.48706 0.24818 0.64646
 C504 C 0.50500 0.71443 0.90090
   
