data_POSCAR
  _audit_creation_date              2014-09-24
  _audit_creation_method            'ToBaCCo'
  _symmetry_space_group_name_H-M    'P1'
  _symmetry_Int_Tables_number       1
  _symmetry_cell_setting            triclinic
  loop_
  _symmetry_equiv_pos_as_xyz
 x,y,z
_cell_length_a 23.2596
_cell_length_b 23.2497
_cell_length_c 23.2544
_cell_angle_alpha 89.955200
_cell_angle_beta 89.922700
_cell_angle_gamma 90.079500
loop_
  _atom_site_label
  _atom_site_type_symbol
  _atom_site_fract_x
  _atom_site_fract_y
  _atom_site_fract_z
Si1 Si 0.00057 0.49990 0.25025
 Si2 Si -0.00058 0.50024 0.74971
 Si3 Si 0.24985 -0.00048 0.49937
 Si4 Si 0.75019 0.00036 0.50054
 Si5 Si 0.50044 0.24965 1.00007
 Si6 Si 0.49958 0.74993 0.99978
 B7 B 0.99994 1.05869 0.03610
 B8 B 1.03603 1.00012 0.05861
 B9 B 0.96367 1.00005 0.05851
 B10 B 0.94144 1.03620 -0.00014
 B11 B 1.00012 1.05866 -0.03628
 B12 B 1.05861 1.03633 0.00001
 B13 B 1.00008 0.94145 -0.03616
 B14 B 0.96398 1.00001 -0.05867
 B15 B 1.03635 1.00009 -0.05857
 B16 B 1.05858 0.96393 0.00009
 B17 B 0.99989 0.94147 0.03623
 B18 B 0.94141 0.96380 -0.00006
 B19 B 0.55854 0.49990 0.46363
 B20 B 0.55855 0.49999 0.53601
 B21 B 0.53618 0.55853 0.49974
 B22 B 0.49997 0.53602 0.44124
 B23 B 0.49995 0.46362 0.44139
 B24 B 0.53613 0.44132 0.49998
 B25 B 0.44139 0.49987 0.53619
 B26 B 0.44138 0.49979 0.46381
 B27 B 0.46376 0.44125 0.50007
 B28 B 0.49996 0.46376 0.55858
 B29 B 0.49999 0.53616 0.55843
 B30 B 0.46381 0.55846 0.49984
 C31 C 1.00164 1.43457 0.20777
 C32 C 1.00235 1.38856 0.18398
 C33 C 1.00315 1.33195 0.15905
 C34 C 0.97815 1.32181 0.10524
 C35 C 0.97728 1.26609 0.08256
 C36 C 1.00129 1.22039 0.11367
 C37 C 1.02658 1.23059 0.16728
 C38 C 1.02744 1.28625 0.18994
 C39 C 1.00059 1.16332 0.09003
 C40 C 1.00013 1.11634 0.06836
 H41 H 0.95907 1.35676 0.08108
 H42 H 0.95778 1.25860 0.04093
 H43 H 1.04545 1.19559 0.19154
 H44 H 1.04669 1.29362 0.23170
 C45 C 1.00106 0.56533 0.20782
 C46 C 1.00155 0.61144 0.18415
 C47 C 1.00222 0.66815 0.15937
 C48 C 1.02639 0.71384 0.19041
 C49 C 1.02563 0.76955 0.16779
 C50 C 1.00056 0.77982 0.11409
 C51 C 0.97657 0.73415 0.08289
 C52 C 0.97735 0.67838 0.10551
 C53 C 1.00016 0.83689 0.09040
 C54 C 0.99993 0.88386 0.06863
 H55 H 1.04554 0.70641 0.23221
 H56 H 1.04444 0.80455 0.19214
 H57 H 0.95721 0.74170 0.04120
 H58 H 0.95836 0.64344 0.08125
 C59 C 0.99837 1.43481 -0.20786
 C60 C 0.99768 1.38874 -0.18412
 C61 C 0.99691 1.33208 -0.15924
 C62 C 0.97265 1.28637 -0.19018
 C63 C 0.97353 1.23066 -0.16756
 C64 C 0.99880 1.22042 -0.11395
 C65 C 1.02279 1.26612 -0.08280
 C66 C 1.02190 1.32189 -0.10543
 C67 C 0.99950 1.16331 -0.09033
 C68 C 0.99995 1.11631 -0.06864
 H69 H 0.95341 1.29377 -0.23194
 H70 H 0.95468 1.19565 -0.19185
 H71 H 1.04227 1.25860 -0.04117
 H72 H 1.04095 1.35685 -0.08125
 C73 C 0.99908 0.56557 -0.20781
 C74 C 0.99864 0.61163 -0.18411
 C75 C 0.99798 0.66830 -0.15934
 C76 C 1.02191 0.67832 -0.10501
 C77 C 1.02263 0.73403 -0.08233
 C78 C 0.99949 0.77986 -0.11393
 C79 C 0.97537 0.76981 -0.16811
 C80 C 0.97468 0.71415 -0.19077
 C81 C 0.99985 0.83688 -0.09021
 C82 C 1.00004 0.88383 -0.06847
 H83 H 1.04022 0.64325 -0.08043
 H84 H 1.04127 0.74142 -0.04029
 H85 H 0.95724 0.80492 -0.19277
 H86 H 0.95625 0.70689 -0.23292
 C87 C 1.20637 0.99990 0.43476
 C88 C 1.18190 1.00050 0.38913
 C89 C 1.15614 1.00149 0.33294
 C90 C 1.12153 0.95572 0.31454
 C91 C 1.09968 0.95527 0.25853
 C92 C 1.11255 1.00046 0.22070
 C93 C 1.14672 1.04645 0.23924
 C94 C 1.16857 1.04689 0.29522
 C95 C 1.08941 1.00029 0.16346
 C96 C 1.06807 1.00019 0.11635
 H97 H 1.11198 0.92021 0.34321
 H98 H 1.07294 0.91970 0.24466
 H99 H 1.15661 1.08176 0.21042
 H100 H 1.19562 1.08230 0.30889
 C101 C 1.20835 0.99936 -0.43459
 C102 C 1.18513 0.99947 -0.38825
 C103 C 1.16074 0.99977 -0.33137
 C104 C 1.19683 1.00733 -0.28371
 C105 C 1.17388 1.00736 -0.22813
 C106 C 1.11473 0.99980 -0.21999
 C107 C 1.07856 0.99229 -0.26760
 C108 C 1.10153 0.99225 -0.32323
 C109 C 1.09084 0.99996 -0.16299
 C110 C 1.06891 1.00006 -0.11610
 H111 H 1.24269 1.01314 -0.28955
 H112 H 1.20216 1.01326 -0.19160
 H113 H 1.03270 0.98649 -0.26167
 H114 H 1.07325 0.98634 -0.35974
 C115 C 0.79180 1.00075 0.43457
 C116 C 0.81506 1.00097 0.38826
 C117 C 0.83947 1.00121 0.33139
 C118 C 0.80365 1.01026 0.28380
 C119 C 0.82654 1.00990 0.22819
 C120 C 0.88538 1.00043 0.21997
 C121 C 0.92130 0.99148 0.26751
 C122 C 0.89838 0.99182 0.32316
 C123 C 0.90922 1.00023 0.16296
 C124 C 0.93113 1.00010 0.11605
 H125 H 0.75801 1.01747 0.28970
 H126 H 0.79846 1.01695 0.19172
 H127 H 0.96693 0.98422 0.26152
 H128 H 0.92645 0.98470 0.35962
 C129 C 0.79359 1.00080 -0.43479
 C130 C 0.81803 1.00132 -0.38915
 C131 C 0.84378 1.00213 -0.33295
 C132 C 0.83089 1.04702 -0.29487
 C133 C 0.85275 1.04634 -0.23891
 C134 C 0.88740 1.00064 -0.22073
 C135 C 0.90073 0.95597 -0.25890
 C136 C 0.87886 0.95665 -0.31490
 C137 C 0.91057 1.00026 -0.16350
 C138 C 0.93193 1.00006 -0.11641
 H139 H 0.80348 1.08219 -0.30827
 H140 H 0.84251 1.08125 -0.20981
 H141 H 0.92784 0.92062 -0.24531
 H142 H 0.88878 0.92154 -0.34385
 C143 C 1.43493 1.20733 0.00051
 C144 C 1.38896 1.18340 0.00105
 C145 C 1.33251 1.15807 0.00189
 C146 C 1.31685 1.11708 -0.03936
 C147 C 1.26090 1.09495 -0.04002
 C148 C 1.22042 1.11385 0.00044
 C149 C 1.23617 1.15452 0.04191
 C150 C 1.29207 1.17666 0.04256
 C151 C 1.16328 1.09034 0.00021
 C152 C 1.11626 1.06868 0.00008
 H153 H 1.34766 1.10265 -0.07119
 H154 H 1.24918 1.06320 -0.07205
 H155 H 1.20526 1.16915 0.07357
 H156 H 1.30365 1.20859 0.07444
 C157 C 0.56544 1.20675 -0.00061
 C158 C 0.61123 1.18262 -0.00128
 C159 C 0.66758 1.15723 -0.00226
 C160 C 0.68301 1.11577 0.03862
 C161 C 0.73894 1.09372 0.03929
 C162 C 0.77962 1.11321 -0.00078
 C163 C 0.76409 1.15433 -0.04190
 C164 C 0.70820 1.17637 -0.04257
 C165 C 0.83677 1.08989 -0.00048
 C166 C 0.88379 1.06839 -0.00029
 H167 H 0.65206 1.10092 0.07018
 H168 H 0.75050 1.06163 0.07104
 H169 H 0.79515 1.16942 -0.07326
 H170 H 0.69680 1.20869 -0.07414
 C171 C 1.43438 0.79255 -0.00023
 C172 C 1.38827 0.81608 -0.00029
 C173 C 1.33144 0.84043 -0.00038
 C174 C 1.32354 0.90007 0.00238
 C175 C 1.26792 0.92292 0.00253
 C176 C 1.22010 0.88621 -0.00009
 C177 C 1.22802 0.82663 -0.00291
 C178 C 1.28358 0.80381 -0.00304
 C179 C 1.16310 0.90992 0.00005
 C180 C 1.11617 0.93163 0.00012
 H181 H 1.36021 0.92877 0.00447
 H182 H 1.26216 0.96911 0.00474
 H183 H 1.19135 0.79792 -0.00497
 H184 H 1.28923 0.75760 -0.00517
 C185 C 0.56526 0.79200 0.00016
 C186 C 0.61151 0.81540 0.00040
 C187 C 0.66839 0.83980 0.00065
 C188 C 0.67643 0.89936 -0.00369
 C189 C 0.73208 0.92229 -0.00387
 C190 C 0.77981 0.88574 0.00029
 C191 C 0.77176 0.82625 0.00472
 C192 C 0.71617 0.80334 0.00488
 C193 C 0.83684 0.90955 0.00011
 C194 C 0.88379 0.93137 -0.00002
 H195 H 0.63983 0.92794 -0.00703
 H196 H 0.73793 0.96841 -0.00731
 H197 H 0.80837 0.79766 0.00799
 H198 H 0.71042 0.75720 0.00821
 C199 C 0.93464 0.49946 0.29190
 C200 C 0.88835 0.49915 0.31521
 C201 C 0.83151 0.49877 0.33966
 C202 C 0.78412 0.48728 0.30426
 C203 C 0.72851 0.48765 0.32713
 C204 C 0.72007 0.49959 0.38550
 C205 C 0.76742 0.51101 0.42099
 C206 C 0.82308 0.51061 0.39811
 C207 C 0.66306 0.49977 0.40931
 C208 C 0.61613 0.49987 0.43117
 H209 H 0.79018 0.47817 0.25897
 H210 H 0.69220 0.47871 0.29938
 H211 H 0.76126 0.52027 0.46624
 H212 H 0.85937 0.51965 0.42584
 C213 C 0.06527 0.50042 0.29359
 C214 C 0.11095 0.50101 0.31792
 C215 C 0.16723 0.50192 0.34348
 C216 C 0.20665 0.54463 0.32729
 C217 C 0.26260 0.54393 0.34917
 C218 C 0.27940 0.50036 0.38715
 C219 C 0.23990 0.45789 0.40375
 C220 C 0.18391 0.45859 0.38186
 C221 C 0.33662 0.49999 0.41032
 C222 C 0.38370 0.49980 0.43169
 H223 H 0.19430 0.57812 0.29734
 H224 H 0.29273 0.57716 0.33637
 H225 H 0.25243 0.42423 0.43344
 H226 H 0.15390 0.42516 0.39438
 C227 C 0.93459 0.50077 0.70657
 C228 C 0.88876 0.50138 0.68250
 C229 C 0.83230 0.50233 0.65735
 C230 C 0.78969 0.53748 0.68144
 C231 C 0.73387 0.53672 0.65928
 C232 C 0.72038 0.50068 0.61303
 C233 C 0.76302 0.46575 0.58866
 C234 C 0.81890 0.46652 0.61084
 C235 C 0.66324 0.50032 0.58967
 C236 C 0.61622 0.50012 0.56818
 H237 H 0.79953 0.56509 0.71764
 H238 H 0.70126 0.56406 0.67823
 H239 H 0.75302 0.43793 0.55266
 H240 H 0.85142 0.43895 0.59209
 C241 C 0.06530 0.49999 0.70797
 C242 C 0.11159 0.49981 0.68467
 C243 C 0.16848 0.49961 0.66031
 C244 C 0.17643 0.50047 0.60060
 C245 C 0.23207 0.50047 0.57765
 C246 C 0.27987 0.49960 0.61433
 C247 C 0.27191 0.49867 0.67398
 C248 C 0.21633 0.49869 0.69690
 C249 C 0.33688 0.49970 0.59051
 C250 C 0.38381 0.49980 0.56865
 H251 H 0.13977 0.50119 0.57191
 H252 H 0.23785 0.50120 0.53141
 H253 H 0.30858 0.49798 0.70267
 H254 H 0.21064 0.49802 0.74316
 C255 C 0.49884 0.70708 0.06494
 C256 C 0.49817 0.68309 0.11087
 C257 C 0.49723 0.65794 0.16740
 C258 C 0.46439 0.68372 0.21088
 C259 C 0.46520 0.66137 0.26670
 C260 C 0.49900 0.61324 0.27929
 C261 C 0.53158 0.58717 0.23578
 C262 C 0.53076 0.60953 0.17991
 C263 C 0.49950 0.58978 0.33645
 C264 C 0.49982 0.56822 0.38351
 H265 H 0.43854 0.72135 0.20172
 H266 H 0.43966 0.68165 0.29998
 H267 H 0.55765 0.54972 0.24509
 H268 H 0.55651 0.58942 0.14670
 C269 C 0.49935 0.70778 0.93425
 C270 C 0.49900 0.68427 0.88810
 C271 C 0.49842 0.65967 0.83136
 C272 C 0.47886 0.69274 0.78492
 C273 C 0.47940 0.67002 0.72929
 C274 C 0.49961 0.61414 0.71988
 C275 C 0.51904 0.58095 0.76629
 C276 C 0.51847 0.60368 0.82198
 C277 C 0.49983 0.59040 0.66288
 C278 C 0.49995 0.56859 0.61597
 H279 H 0.46342 0.73616 0.79170
 H280 H 0.46417 0.69595 0.69370
 H281 H 0.53467 0.53761 0.75939
 H282 H 0.53384 0.57780 0.85753
 C283 C 0.50118 0.29182 0.06560
 C284 C 0.50164 0.31533 0.11175
 C285 C 0.50216 0.33990 0.16850
 C286 C 0.51667 0.30525 0.21567
 C287 C 0.51607 0.32806 0.27126
 C288 C 0.50088 0.38563 0.27992
 C289 C 0.48653 0.42040 0.23279
 C290 C 0.48715 0.39757 0.17714
 C291 C 0.50041 0.40938 0.33692
 C292 C 0.50010 0.43119 0.38383
 H293 H 0.52821 0.26054 0.20946
 H294 H 0.52734 0.30089 0.30740
 H295 H 0.47477 0.46503 0.23911
 H296 H 0.47573 0.42470 0.14103
 C297 C 0.50060 0.29232 0.93479
 C298 C 0.50104 0.31615 0.88877
 C299 C 0.50183 0.34106 0.83212
 C300 C 0.52971 0.31197 0.78729
 C301 C 0.52905 0.33451 0.73156
 C302 C 0.50038 0.38620 0.72040
 C303 C 0.47269 0.41550 0.76523
 C304 C 0.47336 0.39294 0.82102
 C305 C 0.50012 0.40984 0.66330
 C306 C 0.49999 0.43151 0.61629
 H307 H 0.55165 0.27169 0.79538
 H308 H 0.55076 0.31167 0.69724
 H309 H 0.45055 0.45565 0.75700
 H310 H 0.45149 0.41567 0.85529
 C311 C 0.70815 0.93466 0.50119
 C312 C 0.68470 0.88843 0.50149
 C313 C 0.66020 0.83158 0.50171
 C314 C 0.69615 0.78387 0.50959
 C315 C 0.67321 0.72828 0.50905
 C316 C 0.61421 0.72017 0.50055
 C317 C 0.57816 0.76783 0.49279
 C318 C 0.60112 0.82348 0.49335
 C319 C 0.59038 0.66313 0.50007
 C320 C 0.56856 0.61618 0.49978
 H321 H 0.74192 0.78968 0.51601
 H322 H 0.70140 0.69172 0.51516
 H323 H 0.53242 0.76193 0.48622
 H324 H 0.57295 0.86003 0.48713
 C325 C 0.70738 0.06544 0.50131
 C326 C 0.68347 0.11136 0.50195
 C327 C 0.65846 0.16791 0.50280
 C328 C 0.60789 0.17945 0.47227
 C329 C 0.58545 0.23524 0.47142
 C330 C 0.61356 0.27963 0.50098
 C331 C 0.66390 0.26803 0.53174
 C332 C 0.68634 0.21229 0.53259
 C333 C 0.59002 0.33671 0.50048
 C334 C 0.56839 0.38370 0.50017
 H335 H 0.58614 0.14554 0.44888
 H336 H 0.54633 0.24381 0.44767
 H337 H 0.68581 0.30201 0.55490
 H338 H 0.72562 0.20386 0.55610
 C339 C 0.29247 0.93431 0.49838
 C340 C 0.31652 0.88845 0.49769
 C341 C 0.34192 0.83208 0.49685
 C342 C 0.32073 0.79039 0.45883
 C343 C 0.34300 0.73457 0.45971
 C344 C 0.38642 0.72018 0.49876
 C345 C 0.40793 0.76192 0.53653
 C346 C 0.38566 0.81778 0.53565
 C347 C 0.40993 0.66309 0.49929
 C348 C 0.43155 0.61609 0.49964
 H349 H 0.28668 0.80091 0.42889
 H350 H 0.32631 0.70268 0.43013
 H351 H 0.44178 0.75124 0.56668
 H352 H 0.40214 0.84957 0.56543
 C353 C 0.29218 0.06502 0.49873
 C354 C 0.31576 0.11118 0.49826
 C355 C 0.34038 0.16797 0.49770
 C356 C 0.30679 0.21467 0.47974
 C357 C 0.32952 0.27035 0.48046
 C358 C 0.38591 0.27955 0.49924
 C359 C 0.41964 0.23288 0.51700
 C360 C 0.39690 0.17715 0.51627
 C361 C 0.40962 0.33663 0.49973
 C362 C 0.43138 0.38360 0.50002
 H363 H 0.26296 0.20804 0.46545
 H364 H 0.30317 0.30613 0.46650
 H365 H 0.46339 0.23963 0.53150
 H366 H 0.42319 0.14140 0.53038
   
