data_POSCAR
  _audit_creation_date              2014-09-24
  _audit_creation_method            'ToBaCCo'
  _symmetry_space_group_name_H-M    'P1'
  _symmetry_Int_Tables_number       1
  _symmetry_cell_setting            triclinic
  loop_
  _symmetry_equiv_pos_as_xyz
 x,y,z
_cell_length_a 23.0916
_cell_length_b 22.9429
_cell_length_c 26.9388
_cell_angle_alpha 89.904100
_cell_angle_beta 90.154400
_cell_angle_gamma 83.459700
loop_
  _atom_site_label
  _atom_site_type_symbol
  _atom_site_fract_x
  _atom_site_fract_y
  _atom_site_fract_z
C1 C 1.21111 0.21717 0.20287
 C2 C 1.25255 0.25222 0.17390
 C3 C 1.28601 0.28445 0.20199
 C4 C 1.27067 0.28317 0.25785
 C5 C 1.24918 0.18346 0.24258
 C6 C 1.27979 0.21748 0.27150
 C7 C 1.17322 0.26555 0.23035
 C8 C 1.20324 0.29906 0.26038
 H9 H 1.25418 0.25448 0.13386
 H10 H 1.29598 0.31073 0.28156
 H11 H 1.24915 0.13683 0.24909
 H12 H 1.12607 0.27100 0.22820
 C13 C 0.71667 -0.29195 0.20912
 C14 C 0.75378 -0.25311 0.17972
 C15 C 0.78062 -0.21486 0.20748
 C16 C 0.76860 -0.21929 0.26364
 C17 C 0.75686 -0.32185 0.24922
 C18 C 0.78493 -0.28456 0.27735
 C19 C 0.67491 -0.24920 0.23993
 C20 C 0.70170 -0.21107 0.26810
 H21 H 0.75736 -0.25491 0.13963
 H22 H 0.79042 -0.18811 0.28670
 H23 H 0.75884 -0.36826 0.25744
 H24 H 0.62976 -0.25521 0.24652
 C25 C 0.71500 0.21531 -0.30337
 C26 C 0.74615 0.25618 -0.33154
 C27 C 0.77941 0.29145 -0.30230
 C28 C 0.77309 0.28190 -0.24870
 C29 C 0.75750 0.18303 -0.27065
 C30 C 0.78938 0.21882 -0.23953
 C31 C 0.67813 0.25386 -0.26976
 C32 C 0.71004 0.29081 -0.23928
 H33 H 0.74414 0.26059 -0.37163
 H34 H 0.79742 0.31031 -0.22532
 H35 H 0.76266 0.13551 -0.26840
 H36 H 0.63102 0.25882 -0.26957
 C37 C 1.22032 -0.28728 -0.28629
 C38 C 1.25257 -0.24405 -0.31573
 C39 C 1.27835 -0.20506 -0.28780
 C40 C 1.26674 -0.21088 -0.23130
 C41 C 1.26401 -0.31442 -0.24755
 C42 C 1.28836 -0.27537 -0.21828
 C43 C 1.17572 -0.24622 -0.25701
 C44 C 1.19953 -0.20840 -0.22653
 H45 H 1.25413 -0.24366 -0.35592
 H46 H 1.28656 -0.17761 -0.20909
 H47 H 1.27242 -0.36144 -0.24204
 H48 H 1.12934 -0.24899 -0.25662
 C49 C 0.21565 0.21658 0.80510
 C50 C 0.25100 0.25415 0.83169
 C51 C 0.28225 0.28999 0.80090
 C52 C 0.27239 0.28181 0.74763
 C53 C 0.17627 0.25774 0.77046
 C54 C 0.20588 0.29095 0.73988
 C55 C 0.25707 0.18181 0.76841
 C56 C 0.28748 0.21517 0.73814
 H57 H 0.25708 0.25194 0.87161
 H58 H 0.29506 0.31082 0.72315
 H59 H 0.13114 0.25257 0.76270
 H60 H 0.25942 0.13460 0.76508
 C61 C 0.71363 0.71278 0.80047
 C62 C 0.74058 0.75480 0.83028
 C63 C 0.77181 0.79467 0.80352
 C64 C 0.76576 0.78765 0.74920
 C65 C 0.67416 0.75035 0.76839
 C66 C 0.70219 0.79115 0.73952
 C67 C 0.75905 0.68584 0.76754
 C68 C 0.78769 0.72626 0.73756
 H69 H 0.73327 0.75941 0.86994
 H70 H 0.79061 0.81887 0.73001
 H71 H 0.62786 0.74842 0.76441
 H72 H 0.76396 0.63899 0.76067
 C73 C 0.71771 0.21154 0.30501
 C74 C 0.75141 0.25028 0.33720
 C75 C 0.77874 0.29036 0.31193
 C76 C 0.76927 0.28826 0.25498
 C77 C 0.67606 0.25446 0.27417
 C78 C 0.70230 0.29321 0.24666
 C79 C 0.76171 0.18495 0.26591
 C80 C 0.78902 0.22470 0.23892
 H81 H 0.75424 0.24537 0.37718
 H82 H 0.79311 0.32160 0.23720
 H83 H 0.63235 0.24564 0.26447
 H84 H 0.76466 0.13899 0.25591
 C85 C 0.21538 0.71342 0.29870
 C86 C 0.25540 0.75027 0.32762
 C87 C 0.28537 0.78507 0.29953
 C88 C 0.27311 0.78004 0.24332
 C89 C 0.17639 0.76000 0.26948
 C90 C 0.20576 0.79373 0.23895
 C91 C 0.25420 0.67998 0.25990
 C92 C 0.28451 0.71384 0.23005
 H93 H 0.25260 0.75706 0.36736
 H94 H 0.29928 0.80829 0.22135
 H95 H 0.12925 0.76480 0.27152
 H96 H 0.25403 0.63322 0.25460
 O97 O 1.10057 0.06174 0.03334
 O98 O 0.87649 -0.04383 0.04185
 O99 O 0.92407 0.12866 0.03371
 O100 O 1.05691 -0.10979 0.04331
 O101 O 0.88781 0.05509 0.06251
 O102 O 1.08466 -0.02977 0.06536
 O103 O 0.95782 -0.08438 0.06972
 O104 O 1.02235 0.10324 0.06310
 C105 C 1.07533 0.09061 0.06744
 C106 C 0.90448 -0.07323 0.07536
 C107 C 0.89678 0.10659 0.06722
 C108 C 1.08436 -0.08192 0.07373
 O109 O 1.09804 -0.07540 -0.02816
 O110 O 0.87847 0.08699 -0.03526
 O111 O 1.05775 0.10763 -0.03477
 O112 O 0.92039 -0.09603 -0.02497
 O113 O 0.88691 -0.01554 -0.05769
 O114 O 1.08697 0.02191 -0.06029
 O115 O 1.01794 -0.09922 -0.05419
 O116 O 0.95998 0.11133 -0.06025
 Co117 Co 1.08222 -0.00440 0.00258
 Co118 Co 0.89274 0.01933 0.00268
 Co119 Co 0.99118 0.10215 0.00124
 Co120 Co 0.98846 -0.08729 0.00783
 O121 O 0.98835 0.00748 0.00288
 C122 C 1.07042 -0.09782 -0.06124
 C123 C 0.90679 0.11279 -0.06656
 C124 C 1.08485 0.07532 -0.06631
 C125 C 0.89645 -0.06946 -0.06146
 O126 O 1.10729 0.51978 0.56793
 O127 O 0.90799 0.47594 0.56914
 O128 O 0.97587 0.60581 0.57450
 O129 O 1.04011 0.39938 0.56131
 O130 O 0.89475 0.58035 0.54917
 O131 O 1.11859 0.42379 0.53332
 O132 O 0.94175 0.39679 0.53417
 O133 O 1.07317 0.60645 0.54668
 C134 C 1.10293 0.57310 0.57591
 C135 C 0.91622 0.42158 0.57052
 C136 C 0.92294 0.60550 0.58085
 C137 C 1.09270 0.40087 0.56698
 O138 O 1.09941 0.47308 0.44107
 O139 O 0.89992 0.55368 0.45132
 O140 O 1.03460 0.60582 0.44998
 O141 O 0.97513 0.41466 0.43922
 O142 O 0.89441 0.45247 0.46980
 O143 O 1.11448 0.56381 0.47604
 O144 O 1.07468 0.39185 0.46305
 O145 O 0.93697 0.62703 0.48026
 Co146 Co 1.09957 0.49562 0.50469
 Co147 Co 0.90972 0.51448 0.50984
 Co148 Co 1.00546 0.60076 0.51216
 Co149 Co 1.00794 0.41109 0.50030
 O150 O 1.00532 0.50581 0.50714
 C151 C 1.09809 0.42135 0.43140
 C152 C 0.90786 0.60593 0.44720
 C153 C 1.08706 0.59280 0.44309
 C154 C 0.92158 0.42439 0.43553
 O155 O 0.61170 0.04786 0.52852
 O156 O 0.38179 -0.05226 0.53857
 O157 O 0.43555 0.11881 0.53734
 O158 O 0.55633 -0.12076 0.54081
 O159 O 0.40024 0.04406 0.56600
 O160 O 0.59526 -0.04492 0.56258
 O161 O 0.46063 -0.09428 0.56603
 O162 O 0.53526 0.09324 0.55835
 C163 C 0.58865 0.08247 0.55987
 C164 C 0.40847 -0.07964 0.57327
 C165 C 0.40951 0.09583 0.57152
 C166 C 0.58748 -0.09635 0.57073
 O167 O 0.60126 -0.08995 0.47079
 O168 O 0.38476 0.08260 0.47162
 O169 O 0.56351 0.09418 0.46010
 O170 O 0.42268 -0.10166 0.46881
 O171 O 0.39196 -0.01639 0.44271
 O172 O 0.59548 0.00793 0.43657
 O173 O 0.52079 -0.10747 0.44182
 O174 O 0.46345 0.10053 0.43872
 Co175 Co 0.59038 -0.01814 0.49980
 Co176 Co 0.40026 0.01268 0.50452
 Co177 Co 0.49894 0.09160 0.49887
 Co178 Co 0.49056 -0.09634 0.50391
 O179 O 0.49498 -0.00250 0.50167
 C180 C 0.57357 -0.10715 0.43541
 C181 C 0.40982 0.10566 0.43714
 C182 C 0.59143 0.06137 0.42933
 C183 C 0.39674 -0.06993 0.43598
 O184 O 0.60117 0.51059 0.06748
 O185 O 0.40507 0.46127 0.05894
 O186 O 0.47337 0.59417 0.06572
 O187 O 0.53658 0.38804 0.06082
 O188 O 0.39379 0.56475 0.03941
 O189 O 0.61673 0.41386 0.03745
 O190 O 0.44210 0.38351 0.02541
 O191 O 0.57183 0.59527 0.04071
 C192 C 0.59771 0.56390 0.07348
 C193 C 0.41418 0.40712 0.06067
 C194 C 0.42059 0.59164 0.07121
 C195 C 0.58809 0.39214 0.07004
 O196 O 0.60561 0.45687 -0.05790
 O197 O 0.40488 0.53738 -0.05982
 O198 O 0.53808 0.59183 -0.05642
 O199 O 0.48399 0.39790 -0.06589
 O200 O 0.40011 0.43665 -0.04204
 O201 O 0.61667 0.54919 -0.02702
 O202 O 0.58175 0.37595 -0.03426
 O203 O 0.43763 0.61181 -0.02814
 Co204 Co 0.59985 0.48335 0.00469
 Co205 Co 0.41107 0.49912 -0.00049
 Co206 Co 0.50568 0.58755 0.00471
 Co207 Co 0.51115 0.39697 -0.00259
 O208 O 0.50645 0.49200 0.00156
 C209 C 0.60734 0.40415 -0.06538
 C210 C 0.41097 0.58999 -0.06238
 C211 C 0.59173 0.58202 -0.05901
 C212 C 0.43065 0.40634 -0.07337
 C213 C 1.12649 0.15258 0.18992
 C214 C 1.17713 0.17642 0.17207
 C215 C 1.19729 0.16017 0.12435
 C216 C 1.16368 0.13194 0.09186
 C217 C 1.10953 0.11622 0.10614
 C218 C 1.09169 0.12342 0.15618
 C219 C 1.11042 0.15526 0.24056
 C220 C 1.06045 0.13238 0.25698
 C221 C 1.02606 0.10514 0.22378
 C222 C 1.04170 0.10000 0.17394
 H223 H 1.13678 0.17348 0.26835
 H224 H 1.04882 0.13505 0.29588
 H225 H 0.98774 0.08678 0.23692
 H226 H 1.01520 0.07605 0.15005
 H227 H 1.23944 0.16909 0.11106
 H228 H 1.18000 0.12337 0.05457
 C229 C 1.22731 0.63821 0.64154
 C230 C 1.19581 0.66563 0.68217
 C231 C 1.13981 0.64952 0.69203
 C232 C 1.11162 0.61661 0.65828
 C233 C 1.13847 0.59828 0.61385
 C234 C 1.19695 0.60867 0.60513
 C235 C 1.28791 0.64034 0.63548
 C236 C 1.31613 0.61988 0.59219
 C237 C 1.28472 0.59711 0.55421
 C238 C 1.22573 0.59167 0.56056
 H239 H 1.31418 0.65758 0.66396
 H240 H 1.36230 0.62273 0.58776
 H241 H 1.30621 0.58308 0.51988
 H242 H 1.20277 0.57512 0.53010
 H243 H 1.11663 0.66275 0.72563
 H244 H 1.06746 0.60753 0.66595
 C245 C 0.71604 0.14812 0.62179
 C246 C 0.68696 0.17543 0.66437
 C247 C 0.62975 0.16254 0.67390
 C248 C 0.59970 0.13164 0.64000
 C249 C 0.62432 0.11373 0.59439
 C250 C 0.68292 0.12330 0.58427
 C251 C 0.77715 0.14573 0.61496
 C252 C 0.80318 0.12781 0.57015
 C253 C 0.76919 0.11194 0.53102
 C254 C 0.70972 0.10987 0.53769
 H255 H 0.80565 0.15785 0.64388
 H256 H 0.84974 0.12772 0.56543
 H257 H 0.78903 0.10054 0.49544
 H258 H 0.68568 0.09908 0.50531
 H259 H 0.60754 0.17516 0.70811
 H260 H 0.55626 0.12197 0.64953
 C261 C 0.71826 0.61356 0.15534
 C262 C 0.68784 0.66612 0.17520
 C263 C 0.62937 0.68116 0.16113
 C264 C 0.60052 0.64496 0.13119
 C265 C 0.62815 0.59159 0.11394
 C266 C 0.68693 0.57381 0.12808
 C267 C 0.77939 0.60017 0.16028
 C268 C 0.80750 0.54638 0.14483
 C269 C 0.77582 0.50523 0.12315
 C270 C 0.71640 0.51885 0.11426
 H271 H 0.80668 0.63119 0.17502
 H272 H 0.85411 0.53652 0.14990
 H273 H 0.79759 0.46293 0.11218
 H274 H 0.69443 0.48506 0.09754
 H275 H 0.60559 0.72274 0.17112
 H276 H 0.55616 0.65996 0.11998
 C277 C 0.79666 -0.11252 0.17716
 C278 C 0.81637 -0.17298 0.18311
 C279 C 0.86662 -0.19655 0.15797
 C280 C 0.89556 -0.16247 0.12549
 C281 C 0.87468 -0.10364 0.11567
 C282 C 0.82561 -0.07769 0.14303
 C283 C 0.74799 -0.08602 0.20364
 C284 C 0.72890 -0.02658 0.19793
 C285 C 0.75737 0.00746 0.16535
 C286 C 0.80484 -0.01781 0.13797
 H287 H 0.72480 -0.11045 0.22954
 H288 H 0.69194 -0.00681 0.21903
 H289 H 0.74273 0.05374 0.16130
 H290 H 0.82521 0.01031 0.11354
 H291 H 0.88223 -0.24269 0.16196
 H292 H 0.93313 -0.18344 0.10579
 C293 C 0.87299 0.29649 0.65508
 C294 C 0.81982 0.32427 0.67469
 C295 C 0.80127 0.38217 0.66032
 C296 C 0.83510 0.41346 0.62951
 C297 C 0.88774 0.38740 0.60932
 C298 C 0.90771 0.32827 0.62319
 C299 C 0.89207 0.23702 0.66603
 C300 C 0.94419 0.20965 0.64746
 C301 C 0.97880 0.24083 0.61794
 C302 C 0.96122 0.29934 0.60630
 H303 H 0.86749 0.21112 0.68964
 H304 H 0.95806 0.16418 0.65646
 H305 H 1.01953 0.21944 0.60401
 H306 H 0.99067 0.32104 0.58459
 H307 H 0.75835 0.40267 0.67012
 H308 H 0.81780 0.45758 0.61879
 C309 C 0.37368 -0.16167 0.69351
 C310 C 0.31263 -0.16197 0.68710
 C311 C 0.28473 -0.12783 0.64887
 C312 C 0.31622 -0.09866 0.61459
 C313 C 0.37719 -0.10143 0.61731
 C314 C 0.40588 -0.12939 0.65960
 C315 C 0.40397 -0.19405 0.73199
 C316 C 0.46354 -0.19239 0.73899
 C317 C 0.49406 -0.15804 0.70827
 C318 C 0.46572 -0.12652 0.66923
 H319 H 0.38219 -0.22055 0.75728
 H320 H 0.48598 -0.21715 0.76896
 H321 H 0.53997 -0.15569 0.71485
 H322 H 0.49113 -0.09873 0.64805
 H323 H 0.23813 -0.12705 0.64340
 H324 H 0.29260 -0.07640 0.58393
 C325 C 0.36807 0.27948 0.14054
 C326 C 0.33444 0.31180 0.17730
 C327 C 0.33661 0.37238 0.17957
 C328 C 0.36408 0.40159 0.14227
 C329 C 0.38876 0.37165 0.10040
 C330 C 0.39017 0.30898 0.09926
 C331 C 0.37690 0.21756 0.14300
 C332 C 0.40179 0.18479 0.10356
 C333 C 0.41673 0.21294 0.06061
 C334 C 0.41022 0.27406 0.05801
 H335 H 0.36381 0.19427 0.17536
 H336 H 0.40747 0.13736 0.10564
 H337 H 0.43303 0.18729 0.02886
 H338 H 0.41845 0.29197 0.02232
 H339 H 0.31525 0.39801 0.20896
 H340 H 0.36376 0.44870 0.14530
 C341 C 0.87152 0.21825 -0.17783
 C342 C 0.82158 0.19504 -0.19753
 C343 C 0.80092 0.14767 -0.17217
 C344 C 0.82802 0.12346 -0.12952
 C345 C 0.87670 0.14566 -0.10923
 C346 C 0.89654 0.19596 -0.13196
 C347 C 0.89959 0.26089 -0.20354
 C348 C 0.94509 0.28682 -0.18199
 C349 C 0.96393 0.27064 -0.13452
 C350 C 0.93999 0.22573 -0.10985
 H351 H 0.88744 0.27439 -0.24064
 H352 H 0.96524 0.32015 -0.20197
 H353 H 0.99808 0.29210 -0.11707
 H354 H 0.95537 0.21539 -0.07318
 H355 H 0.76209 0.12945 -0.18439
 H356 H 0.81089 0.08619 -0.11252
 C357 C 0.87391 0.70870 0.33448
 C358 C 0.81737 0.69442 0.32291
 C359 C 0.79070 0.65748 0.35504
 C360 C 0.82042 0.63107 0.39554
 C361 C 0.87691 0.64300 0.40751
 C362 C 0.90258 0.68559 0.37864
 C363 C 0.90343 0.74403 0.30241
 C364 C 0.95794 0.76003 0.31507
 C365 C 0.98373 0.74168 0.35992
 C366 C 0.95640 0.70506 0.39140
 H367 H 0.88517 0.75915 0.26714
 H368 H 0.97996 0.78734 0.29023
 H369 H 1.02550 0.75533 0.37018
 H370 H 0.97756 0.69366 0.42594
 H371 H 0.74693 0.64697 0.34760
 H372 H 0.79911 0.60016 0.41749
 C373 C 0.28408 0.18675 0.36191
 C374 C 0.31223 0.19318 0.31590
 C375 C 0.37182 0.17455 0.31171
 C376 C 0.40311 0.14780 0.35173
 C377 C 0.37631 0.14104 0.39789
 C378 C 0.31701 0.16472 0.40407
 C379 C 0.22354 0.20167 0.36690
 C380 C 0.19673 0.20128 0.41311
 C381 C 0.22992 0.18606 0.45521
 C382 C 0.28938 0.16804 0.45100
 H383 H 0.19661 0.21297 0.33498
 H384 H 0.15025 0.21379 0.41635
 H385 H 0.20958 0.18783 0.49133
 H386 H 0.31309 0.15892 0.48521
 H387 H 0.39379 0.17880 0.27662
 H388 H 0.44838 0.13098 0.34615
 C389 C 0.31224 0.71302 -0.12553
 C390 C 0.32743 0.70269 -0.17617
 C391 C 0.37246 0.65797 -0.18717
 C392 C 0.39944 0.62204 -0.15000
 C393 C 0.38057 0.62791 -0.10083
 C394 C 0.33528 0.67226 -0.08856
 C395 C 0.27397 0.76179 -0.11024
 C396 C 0.25223 0.76585 -0.06199
 C397 C 0.26844 0.72141 -0.02799
 C398 C 0.31082 0.67574 -0.04055
 H399 H 0.26129 0.79776 -0.13465
 H400 H 0.22201 0.80320 -0.05119
 H401 H 0.24978 0.72349 0.00887
 H402 H 0.32370 0.64296 -0.01259
 H403 H 0.38523 0.64929 -0.22537
 H404 H 0.43426 0.58837 -0.15988
 C405 C 1.14182 -0.21759 -0.14707
 C406 C 1.16516 -0.18217 -0.18397
 C407 C 1.15639 -0.12108 -0.17971
 C408 C 1.12422 -0.09454 -0.14039
 C409 C 1.10102 -0.12829 -0.10358
 C410 C 1.11049 -0.19022 -0.10626
 C411 C 1.15192 -0.27969 -0.14795
 C412 C 1.13180 -0.31346 -0.11006
 C413 C 1.10206 -0.28649 -0.07005
 C414 C 1.09189 -0.22559 -0.06787
 H415 H 1.17700 -0.30325 -0.17664
 H416 H 1.14043 -0.36081 -0.11128
 H417 H 1.08759 -0.31284 -0.04015
 H418 H 1.07093 -0.20657 -0.03519
 H419 H 1.17410 -0.09372 -0.20734
 H420 H 1.11738 -0.04713 -0.13875
 C421 C 1.18799 0.39266 0.31140
 C422 C 1.17243 0.33678 0.29931
 C423 C 1.12889 0.31410 0.32718
 C424 C 1.10615 0.34236 0.36947
 C425 C 1.12559 0.39476 0.38567
 C426 C 1.16763 0.42071 0.35630
 C427 C 1.22163 0.42213 0.27840
 C428 C 1.24111 0.47525 0.29131
 C429 C 1.22716 0.49974 0.33745
 C430 C 1.19083 0.47313 0.36967
 H431 H 1.23065 0.40492 0.24174
 H432 H 1.26743 0.49720 0.26565
 H433 H 1.24405 0.54000 0.34809
 H434 H 1.18282 0.49426 0.40486
 H435 H 1.11339 0.27286 0.31730
 H436 H 1.07319 0.32247 0.39002
 C437 C 0.61642 -0.14127 0.30010
 C438 C 0.66987 -0.17723 0.30830
 C439 C 0.69097 -0.18608 0.35673
 C440 C 0.65881 -0.16293 0.39697
 C441 C 0.60429 -0.13019 0.39031
 C442 C 0.58322 -0.11756 0.34147
 C443 C 0.59601 -0.12713 0.25159
 C444 C 0.54388 -0.09122 0.24396
 C445 C 0.51155 -0.06800 0.28425
 C446 C 0.53108 -0.08043 0.33253
 H447 H 0.62058 -0.14271 0.21918
 H448 H 0.52882 -0.08079 0.20656
 H449 H 0.47142 -0.03961 0.27807
 H450 H 0.50522 -0.05985 0.36235
 H451 H 0.73168 -0.21317 0.36381
 H452 H 0.67620 -0.17194 0.43396
 C453 C 0.70167 0.37795 -0.18277
 C454 C 0.68462 0.32305 -0.19840
 C455 C 0.64459 0.29671 -0.16912
 C456 C 0.62335 0.32206 -0.12502
 C457 C 0.63930 0.37588 -0.10871
 C458 C 0.68145 0.40298 -0.13659
 C459 C 0.73567 0.41052 -0.21337
 C460 C 0.75580 0.46201 -0.19698
 C461 C 0.74191 0.48266 -0.14972
 C462 C 0.70501 0.45390 -0.11987
 H463 H 0.74640 0.39673 -0.25039
 H464 H 0.78286 0.48553 -0.22083
 H465 H 0.75942 0.52141 -0.13623
 H466 H 0.69716 0.47168 -0.08343
 H467 H 0.63153 0.25430 -0.17890
 H468 H 0.59416 0.29889 -0.10332
 C469 C 1.21279 0.12548 -0.13750
 C470 C 1.18417 0.17730 -0.16036
 C471 C 1.12434 0.19177 -0.15148
 C472 C 1.09281 0.15518 -0.12433
 C473 C 1.11884 0.10227 -0.10475
 C474 C 1.17908 0.08539 -0.11336
 C475 C 1.27423 0.11294 -0.13687
 C476 C 1.30116 0.05982 -0.11860
 C477 C 1.26770 0.01819 -0.10014
 C478 C 1.20739 0.03080 -0.09725
 H479 H 1.30238 0.14405 -0.14974
 H480 H 1.34819 0.05072 -0.11928
 H481 H 1.28860 -0.02378 -0.08729
 H482 H 1.18375 -0.00348 -0.08359
 H483 H 1.10122 0.23282 -0.16378
 H484 H 1.04745 0.16929 -0.11711
 C485 C 1.13092 0.64963 0.31636
 C486 C 1.18316 0.67283 0.33109
 C487 C 1.20636 0.65739 0.37817
 C488 C 1.17422 0.63156 0.41316
 C489 C 1.11862 0.61701 0.40208
 C490 C 1.09764 0.62264 0.35267
 C491 C 1.11192 0.65061 0.26644
 C492 C 1.06008 0.62885 0.25317
 C493 C 1.02702 0.60397 0.28886
 C494 C 1.04593 0.59990 0.33802
 H495 H 1.13748 0.66655 0.23691
 H496 H 1.04594 0.63048 0.21480
 H497 H 0.98711 0.58665 0.27822
 H498 H 1.02009 0.57794 0.36395
 H499 H 1.24961 0.66611 0.38907
 H500 H 1.19293 0.62406 0.44984
 C501 C 0.71666 0.11388 0.35531
 C502 C 0.68738 0.16726 0.33572
 C503 C 0.62776 0.18076 0.34653
 C504 C 0.59692 0.14243 0.37225
 C505 C 0.62383 0.08887 0.38992
 C506 C 0.68381 0.07259 0.37930
 C507 C 0.77802 0.10127 0.35366
 C508 C 0.80554 0.04734 0.36975
 C509 C 0.77288 0.00510 0.38842
 C510 C 0.71276 0.01754 0.39355
 H511 H 0.80580 0.13309 0.34125
 H512 H 0.85250 0.03821 0.36749
 H513 H 0.79436 -0.03724 0.39980
 H514 H 0.68973 -0.01713 0.40765
 H515 H 0.60417 0.22279 0.33743
 H516 H 0.55166 0.15655 0.38090
 C517 C 0.71800 0.64475 -0.12524
 C518 C 0.68826 0.66967 -0.16845
 C519 C 0.63133 0.65508 -0.17728
 C520 C 0.60128 0.62692 -0.14146
 C521 C 0.62643 0.61198 -0.09528
 C522 C 0.68548 0.62180 -0.08640
 C523 C 0.77907 0.64422 -0.11885
 C524 C 0.80590 0.62844 -0.07374
 C525 C 0.77271 0.61377 -0.03378
 C526 C 0.71318 0.61103 -0.03965
 H527 H 0.80687 0.65650 -0.14831
 H528 H 0.85240 0.62942 -0.06936
 H529 H 0.79317 0.60431 0.00200
 H530 H 0.68982 0.60219 -0.00644
 H531 H 0.60891 0.66513 -0.21197
 H532 H 0.55745 0.61723 -0.14986
 C533 C 0.81702 -0.10996 -0.18163
 C534 C 0.80763 -0.16901 -0.16959
 C535 C 0.83462 -0.19361 -0.12607
 C536 C 0.86463 -0.16137 -0.09345
 C537 C 0.87180 -0.10276 -0.10285
 C538 C 0.85216 -0.07820 -0.14937
 C539 C 0.78972 -0.07961 -0.22253
 C540 C 0.80334 -0.02412 -0.23601
 C541 C 0.84329 0.00314 -0.20830
 C542 C 0.86674 -0.02292 -0.16487
 H543 H 0.75670 -0.09727 -0.24389
 H544 H 0.78297 -0.00227 -0.26831
 H545 H 0.85522 0.04530 -0.21998
 H546 H 0.89736 0.00012 -0.14443
 H547 H 0.83219 -0.23906 -0.11623
 H548 H 0.88111 -0.18270 -0.05952
 C549 C 0.81711 0.38947 0.33123
 C550 C 0.81817 0.32782 0.33836
 C551 C 0.85722 0.30013 0.37354
 C552 C 0.89185 0.33202 0.40304
 C553 C 0.89011 0.39282 0.39784
 C554 C 0.85502 0.42156 0.35993
 C555 C 0.77853 0.42060 0.29729
 C556 C 0.78157 0.47993 0.28771
 C557 C 0.82190 0.50977 0.31276
 C558 C 0.85749 0.48137 0.34935
 H559 H 0.74570 0.39974 0.27803
 H560 H 0.75278 0.50276 0.26042
 H561 H 0.82541 0.55519 0.30396
 H562 H 0.88817 0.50595 0.36815
 H563 H 0.85998 0.25313 0.37923
 H564 H 0.91906 0.30908 0.43134
 C565 C 0.28090 -0.11880 0.34727
 C566 C 0.31392 -0.16775 0.32446
 C567 C 0.37351 -0.17875 0.33490
 C568 C 0.39983 -0.14482 0.36950
 C569 C 0.36823 -0.09689 0.39328
 C570 C 0.30882 -0.08133 0.37972
 C571 C 0.22007 -0.10719 0.33966
 C572 C 0.18825 -0.05789 0.36006
 C573 C 0.21596 -0.01956 0.38918
 C574 C 0.27533 -0.03121 0.39932
 H575 H 0.19647 -0.13539 0.31727
 H576 H 0.14191 -0.04917 0.35294
 H577 H 0.19121 0.01917 0.40445
 H578 H 0.29399 0.00024 0.42195
 H579 H 0.39898 -0.21673 0.31901
 H580 H 0.44513 -0.15744 0.37904
 C581 C 0.37831 0.28692 -0.15803
 C582 C 0.32739 0.31881 -0.17857
 C583 C 0.31648 0.37908 -0.16918
 C584 C 0.35227 0.40692 -0.13705
 C585 C 0.40172 0.37625 -0.11460
 C586 C 0.41683 0.31608 -0.12764
 C587 C 0.39207 0.22625 -0.16753
 C588 C 0.44262 0.19515 -0.14888
 C589 C 0.48086 0.22367 -0.12062
 C590 C 0.46820 0.28315 -0.11021
 H591 H 0.36481 0.20238 -0.19045
 H592 H 0.45253 0.14890 -0.15703
 H593 H 0.52078 0.19970 -0.10682
 H594 H 0.50019 0.30254 -0.08961
 H595 H 0.27738 0.40399 -0.18373
 H596 H 0.33992 0.45270 -0.12818
 C597 C 1.18945 -0.11327 0.18564
 C598 C 1.17444 -0.16919 0.19955
 C599 C 1.13159 -0.19396 0.17218
 C600 C 1.10386 -0.16499 0.13191
 C601 C 1.11823 -0.11025 0.11639
 C602 C 1.16282 -0.08410 0.14297
 C603 C 1.23049 -0.08559 0.21333
 C604 C 1.24727 -0.03187 0.19895
 C605 C 1.22434 -0.00491 0.15614
 C606 C 1.18319 -0.03058 0.12826
 H607 H 1.25022 -0.10486 0.24636
 H608 H 1.27897 -0.01160 0.22072
 H609 H 1.23887 0.03607 0.14421
 H610 H 1.16983 -0.00766 0.09490
 H611 H 1.12011 -0.23718 0.18130
 H612 H 1.07062 -0.18598 0.11259
 C613 C 1.16050 0.28153 0.65442
 C614 C 1.17857 0.31671 0.69382
 C615 C 1.17068 0.37783 0.68933
 C616 C 1.14319 0.40457 0.64766
 C617 C 1.12452 0.37078 0.60876
 C618 C 1.13537 0.30900 0.61085
 C619 C 1.16721 0.21966 0.65686
 C620 C 1.15308 0.18592 0.61657
 C621 C 1.13154 0.21299 0.57308
 C622 C 1.12242 0.27396 0.57016
 H623 H 1.18305 0.19652 0.68972
 H624 H 1.15910 0.13852 0.61907
 H625 H 1.12081 0.18666 0.54180
 H626 H 1.10595 0.29331 0.53564
 H627 H 1.18455 0.40507 0.71892
 H628 H 1.13581 0.45199 0.64613
 C629 C 0.66126 -0.21851 0.65498
 C630 C 0.67410 -0.18403 0.69690
 C631 C 0.65868 -0.12337 0.69570
 C632 C 0.63066 -0.09640 0.65459
 C633 C 0.61854 -0.12875 0.61242
 C634 C 0.63645 -0.19013 0.61143
 C635 C 0.67597 -0.28015 0.65396
 C636 C 0.66956 -0.31232 0.61096
 C637 C 0.64909 -0.28410 0.56776
 C638 C 0.63304 -0.22376 0.56768
 H639 H 0.69359 -0.30447 0.68570
 H640 H 0.68189 -0.35928 0.61089
 H641 H 0.64603 -0.30903 0.53396
 H642 H 0.62026 -0.20434 0.53231
 H643 H 0.66575 -0.09668 0.72772
 H644 H 0.61764 -0.04953 0.65605
 C645 C 0.65903 0.27844 0.16054
 C646 C 0.67267 0.31598 0.20035
 C647 C 0.65720 0.37652 0.19617
 C648 C 0.62895 0.40049 0.15390
 C649 C 0.61673 0.36471 0.11413
 C650 C 0.63298 0.30367 0.11649
 C651 C 0.67222 0.21667 0.16232
 C652 C 0.66277 0.18165 0.12155
 C653 C 0.63983 0.20698 0.07794
 C654 C 0.62497 0.26735 0.07529
 H655 H 0.69001 0.19408 0.19459
 H656 H 0.67375 0.13458 0.12372
 H657 H 0.63340 0.17976 0.04607
 H658 H 0.60822 0.28532 0.04042
 H659 H 0.66591 0.40552 0.22621
 H660 H 0.61650 0.44740 0.15226
 C661 C 0.81763 0.23111 0.14474
 C662 C 0.82425 0.20507 0.19347
 C663 C 0.85887 0.15074 0.19809
 C664 C 0.88156 0.11982 0.15696
 C665 C 0.87157 0.14209 0.10914
 C666 C 0.83916 0.19771 0.10243
 C667 C 0.78978 0.28831 0.13559
 C668 C 0.77925 0.30991 0.08766
 C669 C 0.79614 0.27534 0.04704
 C670 C 0.82586 0.21987 0.05411
 H671 H 0.77551 0.31836 0.16395
 H672 H 0.75698 0.35360 0.08210
 H673 H 0.78658 0.29175 0.00986
 H674 H 0.83731 0.19453 0.02112
 H675 H 0.86656 0.13045 0.23423
 H676 H 0.90659 0.07741 0.16254
 C677 C 0.82942 0.73069 0.64857
 C678 C 0.82560 0.70465 0.69739
 C679 C 0.85909 0.64977 0.70554
 C680 C 0.89125 0.61934 0.66817
 C681 C 0.89227 0.64204 0.62036
 C682 C 0.86283 0.69845 0.61047
 C683 C 0.79922 0.78550 0.63422
 C684 C 0.80226 0.80802 0.58641
 C685 C 0.83557 0.77702 0.55069
 C686 C 0.86554 0.72299 0.56249
 H687 H 0.77164 0.81274 0.65768
 H688 H 0.77820 0.84992 0.57702
 H689 H 0.83799 0.79474 0.51357
 H690 H 0.89083 0.70080 0.53342
 H691 H 0.86071 0.62932 0.74187
 H692 H 0.91467 0.57679 0.67653
 C693 C 0.37601 0.20664 0.67909
 C694 C 0.32246 0.18825 0.69555
 C695 C 0.30084 0.14130 0.67091
 C696 C 0.32996 0.11309 0.63148
 C697 C 0.38193 0.13074 0.61353
 C698 C 0.40502 0.17908 0.63678
 C699 C 0.40291 0.25002 0.70470
 C700 C 0.45479 0.26853 0.68806
 C701 C 0.48134 0.24406 0.64569
 C702 C 0.45705 0.19978 0.62046
 H703 H 0.38529 0.26939 0.73835
 H704 H 0.47456 0.30193 0.70827
 H705 H 0.52163 0.25871 0.63275
 H706 H 0.48035 0.18227 0.58862
 H707 H 0.26049 0.12545 0.68195
 H708 H 0.31078 0.07706 0.61437
 C709 C 0.32765 0.71444 0.14064
 C710 C 0.32129 0.68693 0.18771
 C711 C 0.35044 0.62998 0.19484
 C712 C 0.38194 0.59975 0.15687
 C713 C 0.38879 0.62634 0.11101
 C714 C 0.36475 0.68532 0.10375
 C715 C 0.29679 0.76900 0.12782
 C716 C 0.30881 0.79839 0.08445
 C717 C 0.35002 0.77270 0.05143
 C718 C 0.37620 0.71590 0.06003
 H719 H 0.26192 0.78891 0.14979
 H720 H 0.28539 0.84092 0.07614
 H721 H 0.35929 0.79548 0.01765
 H722 H 0.40484 0.69608 0.03188
 H723 H 0.34839 0.60779 0.23017
 H724 H 0.40154 0.55522 0.16353
   
