data_POSCAR
  _audit_creation_date              2014-09-24
  _audit_creation_method            'ToBaCCo'
  _symmetry_space_group_name_H-M    'P1'
  _symmetry_Int_Tables_number       1
  _symmetry_cell_setting            triclinic
  loop_
  _symmetry_equiv_pos_as_xyz
 x,y,z
_cell_length_a 41.7288
_cell_length_b 41.6844
_cell_length_c 58.6567
_cell_angle_alpha 89.951200
_cell_angle_beta 89.937900
_cell_angle_gamma 90.317000
loop_
  _atom_site_label
  _atom_site_type_symbol
  _atom_site_fract_x
  _atom_site_fract_y
  _atom_site_fract_z
C1 C 1.26807 0.21587 0.26791
 C2 C 1.25273 0.23302 0.25053
 C3 C 1.23709 0.21637 0.23300
 C4 C 1.23641 0.18278 0.23294
 C5 C 1.25210 0.16565 0.25019
 C6 C 1.26813 0.18225 0.26763
 C7 C 1.25295 0.26835 0.25076
 C8 C 1.26789 0.28550 0.23311
 C9 C 1.26851 0.31913 0.23346
 C10 C 1.25340 0.33573 0.25126
 C11 C 1.23808 0.31858 0.26878
 C12 C 1.23824 0.28499 0.26864
 H13 H 1.28034 0.22879 0.28141
 H14 H 1.22496 0.22960 0.21965
 H15 H 1.27948 0.27259 0.21935
 H16 H 1.22648 0.27176 0.28223
 H17 H 1.25178 0.13963 0.25002
 H18 H 1.25354 0.36175 0.25151
 C19 C 0.76684 -0.28630 0.26760
 C20 C 0.75147 -0.26918 0.25024
 C21 C 0.73605 -0.28586 0.23261
 C22 C 0.73560 -0.31945 0.23248
 C23 C 0.75131 -0.33655 0.24973
 C24 C 0.76714 -0.31992 0.26725
 C25 C 0.75138 -0.23385 0.25057
 C26 C 0.76598 -0.21645 0.23290
 C27 C 0.76627 -0.18285 0.23335
 C28 C 0.75120 -0.16649 0.25125
 C29 C 0.73622 -0.18384 0.26881
 C30 C 0.73668 -0.21743 0.26857
 H31 H 0.77895 -0.27336 0.28117
 H32 H 0.72390 -0.27266 0.21926
 H33 H 0.77758 -0.22909 0.21903
 H34 H 0.72516 -0.23084 0.28218
 H35 H 0.75116 -0.36257 0.24951
 H36 H 0.75115 -0.14048 0.25152
 C37 C 0.76752 0.21556 -0.23330
 C38 C 0.75183 0.23248 -0.25061
 C39 C 0.73613 0.21564 -0.26802
 C40 C 0.73575 0.18204 -0.26800
 C41 C 0.75178 0.16515 -0.25080
 C42 C 0.76784 0.18197 -0.23351
 C43 C 0.75163 0.26778 -0.25043
 C44 C 0.76709 0.28505 -0.26778
 C45 C 0.76706 0.31867 -0.26756
 C46 C 0.75084 0.33512 -0.25021
 C47 C 0.73502 0.31783 -0.23299
 C48 C 0.73578 0.28426 -0.23298
 H49 H 0.77983 0.22857 -0.21988
 H50 H 0.72374 0.22870 -0.28133
 H51 H 0.77948 0.27224 -0.28123
 H52 H 0.72355 0.27091 -0.21966
 H53 H 0.75171 0.13913 -0.25085
 H54 H 0.75043 0.36114 -0.25009
 C55 C 1.26733 -0.28653 -0.23214
 C56 C 1.25187 -0.26924 -0.24937
 C57 C 1.23625 -0.28572 -0.26699
 C58 C 1.23571 -0.31930 -0.26724
 C59 C 1.25151 -0.33658 -0.25014
 C60 C 1.26752 -0.32013 -0.23263
 C61 C 1.25189 -0.23394 -0.24889
 C62 C 1.26657 -0.21645 -0.26648
 C63 C 1.26697 -0.18287 -0.26587
 C64 C 1.25196 -0.16660 -0.24791
 C65 C 1.23693 -0.18406 -0.23044
 C66 C 1.23726 -0.21764 -0.23082
 H67 H 1.27958 -0.27374 -0.21857
 H68 H 1.22402 -0.27238 -0.28023
 H69 H 1.27812 -0.22901 -0.28040
 H70 H 1.22569 -0.23113 -0.21726
 H71 H 1.25128 -0.36261 -0.25046
 H72 H 1.25199 -0.14060 -0.24753
 C73 C 0.21523 0.26724 0.73291
 C74 C 0.23229 0.25168 0.75022
 C75 C 0.21559 0.23605 0.76778
 C76 C 0.18200 0.23559 0.76792
 C77 C 0.16499 0.25152 0.75070
 C78 C 0.18167 0.26751 0.73326
 C79 C 0.26759 0.25165 0.74990
 C80 C 0.28487 0.26600 0.76769
 C81 C 0.31846 0.26626 0.76732
 C82 C 0.33490 0.25139 0.74934
 C83 C 0.31763 0.23667 0.73167
 C84 C 0.28408 0.23718 0.73185
 H85 H 0.22810 0.27954 0.71938
 H86 H 0.22882 0.22378 0.78107
 H87 H 0.27208 0.27738 0.78159
 H88 H 0.27075 0.22583 0.71817
 H89 H 0.13899 0.25146 0.75082
 H90 H 0.36090 0.25122 0.74908
 C91 C 0.71430 0.76731 0.73230
 C92 C 0.73128 0.75179 0.74966
 C93 C 0.71454 0.73612 0.76718
 C94 C 0.68095 0.73559 0.76724
 C95 C 0.66398 0.75149 0.74999
 C96 C 0.68071 0.76754 0.73257
 C97 C 0.76656 0.75184 0.74946
 C98 C 0.78368 0.76727 0.76686
 C99 C 0.81724 0.76754 0.76661
 C100 C 0.83384 0.75168 0.74918
 C101 C 0.81676 0.73590 0.73189
 C102 C 0.78320 0.73633 0.73191
 H103 H 0.72731 0.77959 0.71882
 H104 H 0.72774 0.72391 0.78051
 H105 H 0.77084 0.77944 0.78039
 H106 H 0.77000 0.72413 0.71854
 H107 H 0.63797 0.75135 0.75010
 H108 H 0.85983 0.75159 0.74909
 C109 C 0.71553 0.26612 0.23233
 C110 C 0.73215 0.25049 0.24982
 C111 C 0.71501 0.23493 0.26720
 C112 C 0.68146 0.23463 0.26696
 C113 C 0.66488 0.25061 0.24960
 C114 C 0.68198 0.26653 0.23235
 C115 C 0.76741 0.25028 0.24989
 C116 C 0.78436 0.26508 0.26764
 C117 C 0.81792 0.26499 0.26770
 C118 C 0.83468 0.24940 0.25023
 C119 C 0.81775 0.23427 0.23259
 C120 C 0.78421 0.23507 0.23230
 H121 H 0.72874 0.27833 0.21893
 H122 H 0.72783 0.22258 0.28065
 H123 H 0.77142 0.27702 0.28122
 H124 H 0.77114 0.22334 0.21865
 H125 H 0.63889 0.25063 0.24950
 H126 H 0.86065 0.24898 0.25040
 C127 C 0.21377 0.76707 0.23216
 C128 C 0.23076 0.75137 0.24944
 C129 C 0.21400 0.73571 0.26695
 C130 C 0.18042 0.73536 0.26708
 C131 C 0.16346 0.75143 0.24990
 C132 C 0.18020 0.76747 0.23250
 C133 C 0.26606 0.75126 0.24915
 C134 C 0.28334 0.76552 0.26697
 C135 C 0.31690 0.76570 0.26661
 C136 C 0.33335 0.75089 0.24865
 C137 C 0.31610 0.73625 0.23094
 C138 C 0.28255 0.73682 0.23108
 H139 H 0.22678 0.77937 0.21868
 H140 H 0.22718 0.72333 0.28022
 H141 H 0.27064 0.77690 0.28090
 H142 H 0.26923 0.72554 0.21736
 H143 H 0.13745 0.75143 0.25008
 H144 H 0.35933 0.75072 0.24846
 O145 O 1.06153 0.03833 0.01597
 O146 O 0.93918 -0.03620 0.01537
 O147 O 0.96366 0.06195 0.01541
 O148 O 1.03703 -0.05982 0.01647
 O149 O 0.94528 0.01783 0.02807
 O150 O 1.05508 -0.01554 0.02903
 O151 O 0.98291 -0.05385 0.02863
 O152 O 1.01738 0.05617 0.02843
 C153 C 1.04614 0.05136 0.03157
 C154 C 0.95405 -0.04905 0.03129
 C155 C 0.95036 0.04666 0.03104
 C156 C 1.04989 -0.04434 0.03216
 O157 O 1.06167 -0.03628 -0.01480
 O158 O 0.94008 0.03798 -0.01602
 O159 O 1.03815 0.06181 -0.01562
 O160 O 0.96357 -0.06013 -0.01569
 O161 O 0.94604 -0.01605 -0.02865
 O162 O 1.05611 0.01759 -0.02799
 O163 O 1.01774 -0.05425 -0.02785
 O164 O 0.98440 0.05575 -0.02859
 Co165 Co 1.05309 0.00102 0.00051
 Co166 Co 0.94814 0.00090 -0.00027
 Co167 Co 1.00087 0.05345 -0.00007
 Co168 Co 1.00034 -0.05153 0.00037
 O169 O 1.00061 0.00096 0.00014
 C170 C 1.04665 -0.04949 -0.03054
 C171 C 0.95561 0.05081 -0.03171
 C172 C 1.05125 0.04638 -0.03118
 C173 C 0.95088 -0.04490 -0.03152
 O174 O 1.06095 0.53891 0.51523
 O175 O 0.93949 0.46356 0.51592
 O176 O 0.96291 0.56190 0.51507
 O177 O 1.03757 0.44061 0.51609
 O178 O 0.94524 0.51778 0.52819
 O179 O 1.05527 0.48507 0.52848
 O180 O 0.98361 0.44623 0.52879
 O181 O 1.01680 0.55658 0.52784
 C182 C 1.04559 0.55183 0.53089
 C183 C 0.95479 0.45096 0.53173
 C184 C 0.94994 0.54673 0.53091
 C185 C 1.05041 0.45624 0.53170
 O186 O 1.06141 0.46420 0.48456
 O187 O 0.93921 0.53728 0.48394
 O188 O 1.03709 0.56206 0.48371
 O189 O 0.96347 0.43938 0.48478
 O190 O 0.94539 0.48315 0.47170
 O191 O 1.05518 0.51790 0.47135
 O192 O 1.01741 0.44567 0.47196
 O193 O 0.98323 0.55538 0.47103
 Co194 Co 1.05273 0.50147 0.49991
 Co195 Co 0.94782 0.50050 0.49993
 Co196 Co 1.00003 0.55349 0.49946
 Co197 Co 1.00049 0.44847 0.50036
 O198 O 1.00027 0.50098 0.49991
 C199 C 1.04625 0.45069 0.46899
 C200 C 0.95444 0.55016 0.46811
 C201 C 1.05012 0.54663 0.46812
 C202 C 0.95031 0.45429 0.46901
 O203 O 0.56038 0.03705 0.51571
 O204 O 0.43833 -0.03731 0.51568
 O205 O 0.46250 0.06086 0.51508
 O206 O 0.53622 -0.06108 0.51622
 O207 O 0.44431 0.01687 0.52806
 O208 O 0.55408 -0.01677 0.52878
 O209 O 0.48222 -0.05505 0.52868
 O210 O 0.51625 0.05503 0.52814
 C211 C 0.54499 0.05014 0.53129
 C212 C 0.45343 -0.05006 0.53153
 C213 C 0.44923 0.04578 0.53082
 C214 C 0.54909 -0.04560 0.53190
 O215 O 0.56048 -0.03752 0.48484
 O216 O 0.43888 0.03650 0.48380
 O217 O 0.53698 0.06049 0.48413
 O218 O 0.46237 -0.06159 0.48459
 O219 O 0.44472 -0.01765 0.47150
 O220 O 0.55477 0.01625 0.47174
 O221 O 0.51645 -0.05562 0.47201
 O222 O 0.48317 0.05436 0.47116
 Co223 Co 0.55195 -0.00025 0.50024
 Co224 Co 0.44705 -0.00039 0.49978
 Co225 Co 0.49971 0.05220 0.49966
 Co226 Co 0.49933 -0.05283 0.50033
 O227 O 0.49951 -0.00032 0.50000
 C228 C 0.54534 -0.05083 0.46918
 C229 C 0.45436 0.04939 0.46809
 C230 C 0.54991 0.04502 0.46853
 C231 C 0.44944 -0.04655 0.46877
 O232 O 0.56103 0.53719 0.01487
 O233 O 0.43911 0.46304 0.01563
 O234 O 0.46313 0.56119 0.01476
 O235 O 0.53704 0.43909 0.01492
 O236 O 0.44530 0.51717 0.02787
 O237 O 0.55506 0.48326 0.02755
 O238 O 0.48325 0.44511 0.02814
 O239 O 0.51703 0.55522 0.02758
 C240 C 0.54580 0.55023 0.03057
 C241 C 0.45451 0.45015 0.03130
 C242 C 0.45008 0.54610 0.03058
 C243 C 0.55021 0.45439 0.03054
 O244 O 0.56057 0.46305 -0.01662
 O245 O 0.43927 0.53678 -0.01640
 O246 O 0.53735 0.56108 -0.01646
 O247 O 0.46242 0.43872 -0.01569
 O248 O 0.44479 0.48266 -0.02871
 O249 O 0.55475 0.51697 -0.02929
 O250 O 0.51624 0.44478 -0.02891
 O251 O 0.48340 0.55484 -0.02921
 Co252 Co 0.55239 0.50011 -0.00085
 Co253 Co 0.44757 0.49992 -0.00042
 Co254 Co 0.50020 0.55256 -0.00081
 Co255 Co 0.49976 0.44745 -0.00041
 O256 O 0.49998 0.50001 -0.00062
 C257 C 0.54503 0.44978 -0.03212
 C258 C 0.45461 0.54965 -0.03218
 C259 C 0.55009 0.54582 -0.03224
 C260 C 0.44939 0.45375 -0.03146
 C261 C 1.21888 0.16626 0.21534
 C262 C 1.20356 0.15353 0.20042
 C263 C 1.18471 0.13949 0.18243
 C264 C 1.19961 0.12300 0.16460
 C265 C 1.18136 0.11089 0.14653
 C266 C 1.14792 0.11522 0.14604
 C267 C 1.13315 0.13147 0.16421
 C268 C 1.15144 0.14353 0.18226
 C269 C 1.12868 0.10352 0.12640
 C270 C 1.10388 0.12241 0.11733
 C271 C 1.08637 0.11183 0.09843
 C272 C 1.09335 0.08227 0.08837
 C273 C 1.11774 0.06316 0.09739
 C274 C 1.13530 0.07369 0.11627
 C275 C 1.07602 0.07176 0.06850
 C276 C 1.06204 0.06270 0.05170
 H277 H 1.22537 0.11993 0.16448
 H278 H 1.19349 0.09886 0.13266
 H279 H 1.10744 0.13482 0.16448
 H280 H 1.13965 0.15630 0.19596
 H281 H 1.09848 0.14566 0.12454
 H282 H 1.06762 0.12687 0.09154
 H283 H 1.12331 0.04020 0.08975
 H284 H 1.15394 0.05843 0.12303
 C285 C 1.21818 0.66432 0.71513
 C286 C 1.20284 0.65169 0.70020
 C287 C 1.18395 0.63781 0.68221
 C288 C 1.15076 0.64240 0.68188
 C289 C 1.13246 0.63058 0.66378
 C290 C 1.14716 0.61401 0.64572
 C291 C 1.18049 0.60909 0.64638
 C292 C 1.19876 0.62098 0.66450
 C293 C 1.12795 0.60266 0.62601
 C294 C 1.13398 0.57259 0.61606
 C295 C 1.11646 0.56237 0.59709
 C296 C 1.09273 0.58204 0.58781
 C297 C 1.08635 0.61187 0.59769
 C298 C 1.10382 0.62212 0.61667
 C299 C 1.07546 0.57184 0.56787
 C300 C 1.06150 0.56299 0.55103
 H301 H 1.13907 0.65544 0.69549
 H302 H 1.10681 0.63438 0.66389
 H303 H 1.19254 0.59679 0.63260
 H304 H 1.22447 0.61749 0.66452
 H305 H 1.15213 0.55692 0.62303
 H306 H 1.12154 0.53920 0.58959
 H307 H 1.06812 0.62733 0.59057
 H308 H 1.09891 0.64557 0.62376
 C309 C 0.71819 0.16529 0.71455
 C310 C 0.70283 0.15238 0.69975
 C311 C 0.68391 0.13818 0.68188
 C312 C 0.65065 0.14230 0.68173
 C313 C 0.63231 0.13021 0.66373
 C314 C 0.64702 0.11384 0.64559
 C315 C 0.68043 0.10938 0.64607
 C316 C 0.69874 0.12153 0.66409
 C317 C 0.62772 0.10217 0.62599
 C318 C 0.63416 0.07225 0.61594
 C319 C 0.61651 0.06174 0.59710
 C320 C 0.59225 0.08097 0.58804
 C321 C 0.58546 0.11063 0.59802
 C322 C 0.60305 0.12118 0.61688
 C323 C 0.57489 0.07050 0.56819
 C324 C 0.56089 0.06147 0.55140
 H325 H 0.63893 0.15519 0.69541
 H326 H 0.60661 0.13365 0.66401
 H327 H 0.69251 0.09724 0.63222
 H328 H 0.72450 0.11839 0.66396
 H329 H 0.65271 0.05692 0.62273
 H330 H 0.62192 0.03870 0.58952
 H331 H 0.56682 0.12575 0.59109
 H332 H 0.59781 0.14451 0.62403
 C333 C 0.71824 0.66400 0.21481
 C334 C 0.70304 0.65128 0.19983
 C335 C 0.68428 0.63732 0.18176
 C336 C 0.65107 0.64178 0.18134
 C337 C 0.63290 0.62989 0.16318
 C338 C 0.64772 0.61338 0.14515
 C339 C 0.68108 0.60859 0.14590
 C340 C 0.69923 0.62054 0.16408
 C341 C 0.62860 0.60186 0.12541
 C342 C 0.63483 0.57182 0.11548
 C343 C 0.61728 0.56138 0.09657
 C344 C 0.59334 0.58082 0.08730
 C345 C 0.58680 0.61064 0.09714
 C346 C 0.60429 0.62111 0.11608
 C347 C 0.57598 0.57039 0.06743
 C348 C 0.56191 0.56142 0.05065
 H349 H 0.63926 0.65475 0.19493
 H350 H 0.60723 0.63359 0.16325
 H351 H 0.69325 0.59633 0.13215
 H352 H 0.72495 0.61714 0.16416
 H353 H 0.65311 0.55630 0.12244
 H354 H 0.62249 0.53822 0.08911
 H355 H 0.56841 0.62593 0.09006
 H356 H 0.59922 0.64454 0.12313
 C357 C 0.78269 -0.16555 0.21555
 C358 C 0.79708 -0.15218 0.20042
 C359 C 0.81483 -0.13740 0.18212
 C360 C 0.84752 -0.13073 0.18478
 C361 C 0.86533 -0.11836 0.16654
 C362 C 0.85065 -0.11253 0.14537
 C363 C 0.81765 -0.11886 0.14298
 C364 C 0.79990 -0.13126 0.16123
 C365 C 0.86978 -0.10068 0.12568
 C366 C 0.85714 -0.07757 0.11073
 C367 C 0.87481 -0.06713 0.09185
 C368 C 0.90531 -0.07960 0.08763
 C369 C 0.91822 -0.10240 0.10248
 C370 C 0.90060 -0.11287 0.12140
 C371 C 0.92310 -0.06920 0.06790
 C372 C 0.93753 -0.06024 0.05124
 H373 H 0.85934 -0.13547 0.20086
 H374 H 0.89058 -0.11335 0.16900
 H375 H 0.80574 -0.11504 0.12682
 H376 H 0.77467 -0.13658 0.15893
 H377 H 0.83367 -0.06744 0.11372
 H378 H 0.86463 -0.04939 0.08049
 H379 H 0.94178 -0.11228 0.09934
 H380 H 0.91082 -0.13098 0.13241
 C381 C 0.78320 0.33501 0.71586
 C382 C 0.79802 0.34843 0.70096
 C383 C 0.81622 0.36322 0.68291
 C384 C 0.84955 0.36608 0.68480
 C385 C 0.86757 0.37845 0.66668
 C386 C 0.85246 0.38810 0.64638
 C387 C 0.81888 0.38561 0.64479
 C388 C 0.80091 0.37320 0.66293
 C389 C 0.87167 0.39990 0.62673
 C390 C 0.86086 0.42577 0.61343
 C391 C 0.87846 0.43617 0.59450
 C392 C 0.90707 0.42088 0.58861
 C393 C 0.91821 0.39534 0.60184
 C394 C 0.90065 0.38491 0.62079
 C395 C 0.92460 0.43111 0.56873
 C396 C 0.93873 0.43993 0.55191
 H397 H 0.86165 0.35835 0.70017
 H398 H 0.89332 0.38045 0.66853
 H399 H 0.80659 0.39242 0.62929
 H400 H 0.77516 0.37085 0.66122
 H401 H 0.83887 0.43805 0.61773
 H402 H 0.86967 0.45602 0.58440
 H403 H 0.94028 0.38327 0.59739
 H404 H 0.90939 0.36467 0.63051
 C405 C 0.28345 -0.16547 0.71643
 C406 C 0.29788 -0.15200 0.70138
 C407 C 0.31565 -0.13715 0.68315
 C408 C 0.34868 -0.13211 0.68538
 C409 C 0.36642 -0.11972 0.66713
 C410 C 0.35132 -0.11226 0.64637
 C411 C 0.31800 -0.11692 0.64443
 C412 C 0.30031 -0.12934 0.66270
 C413 C 0.37032 -0.10054 0.62662
 C414 C 0.35837 -0.07619 0.61241
 C415 C 0.37586 -0.06589 0.59340
 C416 C 0.40547 -0.07979 0.58835
 C417 C 0.41772 -0.10383 0.60248
 C418 C 0.40028 -0.11414 0.62150
 C419 C 0.42298 -0.06966 0.56846
 C420 C 0.43718 -0.06095 0.55165
 H421 H 0.36080 -0.13815 0.70113
 H422 H 0.39195 -0.11602 0.66924
 H423 H 0.30575 -0.11181 0.62859
 H424 H 0.27480 -0.13340 0.66073
 H425 H 0.33558 -0.06499 0.61605
 H426 H 0.36622 -0.04720 0.58260
 H427 H 0.44058 -0.11480 0.59867
 H428 H 0.40991 -0.13323 0.63193
 C429 C 0.28438 0.33529 0.21665
 C430 C 0.29901 0.34854 0.20157
 C431 C 0.31703 0.36313 0.18332
 C432 C 0.35037 0.36603 0.18502
 C433 C 0.36821 0.37824 0.16675
 C434 C 0.35291 0.38767 0.14647
 C435 C 0.31932 0.38513 0.14507
 C436 C 0.30153 0.37289 0.16336
 C437 C 0.37194 0.39935 0.12667
 C438 C 0.36095 0.42504 0.11327
 C439 C 0.37843 0.43537 0.09427
 C440 C 0.40710 0.42019 0.08837
 C441 C 0.41840 0.39480 0.10170
 C442 C 0.40097 0.38444 0.12073
 C443 C 0.42453 0.43037 0.06842
 C444 C 0.43857 0.43915 0.05154
 H445 H 0.36263 0.35848 0.20038
 H446 H 0.39397 0.38029 0.16847
 H447 H 0.30686 0.39180 0.12960
 H448 H 0.27575 0.37053 0.16179
 H449 H 0.33892 0.43726 0.11756
 H450 H 0.36951 0.45511 0.08410
 H451 H 0.44052 0.38282 0.09725
 H452 H 0.40986 0.36434 0.13051
 C453 C 0.78510 0.16513 -0.21602
 C454 C 0.80011 0.15210 -0.20114
 C455 C 0.81851 0.13772 -0.18313
 C456 C 0.85202 0.13815 -0.18417
 C457 C 0.87004 0.12600 -0.16607
 C458 C 0.85474 0.11326 -0.14665
 C459 C 0.82102 0.11250 -0.14593
 C460 C 0.80305 0.12470 -0.16404
 C461 C 0.87381 0.10160 -0.12698
 C462 C 0.86452 0.07374 -0.11509
 C463 C 0.88192 0.06340 -0.09613
 C464 C 0.90881 0.08074 -0.08880
 C465 C 0.91845 0.10830 -0.10064
 C466 C 0.90110 0.11868 -0.11962
 C467 C 0.92600 0.07055 -0.06884
 C468 C 0.93986 0.06178 -0.05195
 H469 H 0.86422 0.14824 -0.19885
 H470 H 0.89593 0.12655 -0.16725
 H471 H 0.80854 0.10325 -0.13110
 H472 H 0.77713 0.12448 -0.16299
 H473 H 0.84388 0.05987 -0.12051
 H474 H 0.87429 0.04198 -0.08711
 H475 H 0.93916 0.12196 -0.09506
 H476 H 0.90862 0.14045 -0.12822
 C477 C 0.78326 0.66396 0.28384
 C478 C 0.79806 0.65075 0.29876
 C479 C 0.81624 0.63625 0.31685
 C480 C 0.84961 0.63412 0.31507
 C481 C 0.86758 0.62202 0.33322
 C482 C 0.85238 0.61190 0.35343
 C483 C 0.81876 0.61368 0.35491
 C484 C 0.80084 0.62583 0.33674
 C485 C 0.87150 0.60033 0.37311
 C486 C 0.86079 0.57415 0.38628
 C487 C 0.87831 0.56394 0.40522
 C488 C 0.90675 0.57972 0.41127
 C489 C 0.91778 0.60559 0.39816
 C490 C 0.90031 0.61583 0.37920
 C491 C 0.92421 0.56964 0.43115
 C492 C 0.93833 0.56097 0.44796
 H493 H 0.86179 0.64221 0.29977
 H494 H 0.89336 0.62058 0.33146
 H495 H 0.80638 0.60650 0.37034
 H496 H 0.77505 0.62762 0.33838
 H497 H 0.83895 0.56148 0.38187
 H498 H 0.86960 0.54383 0.41521
 H499 H 0.93971 0.61804 0.40274
 H500 H 0.90897 0.63631 0.36959
 C501 C 0.28419 0.16607 0.28422
 C502 C 0.29895 0.15277 0.29913
 C503 C 0.31706 0.13809 0.31718
 C504 C 0.35045 0.13605 0.31548
 C505 C 0.36834 0.12367 0.33357
 C506 C 0.35305 0.11317 0.35365
 C507 C 0.31942 0.11488 0.35505
 C508 C 0.30158 0.12730 0.33694
 C509 C 0.37209 0.10125 0.37327
 C510 C 0.36132 0.07483 0.38617
 C511 C 0.37877 0.06426 0.40504
 C512 C 0.40719 0.07991 0.41129
 C513 C 0.41829 0.10600 0.39844
 C514 C 0.40088 0.11661 0.37955
 C515 C 0.42453 0.06949 0.43113
 C516 C 0.43850 0.06054 0.44793
 H517 H 0.36270 0.14440 0.30028
 H518 H 0.39413 0.12229 0.33186
 H519 H 0.30696 0.10740 0.37038
 H520 H 0.27577 0.12900 0.33851
 H521 H 0.33948 0.06225 0.38161
 H522 H 0.37001 0.04397 0.41484
 H523 H 0.44021 0.11835 0.40317
 H524 H 0.40959 0.13727 0.37015
 C525 C 0.28367 0.66356 -0.21618
 C526 C 0.29850 0.65017 -0.20137
 C527 C 0.31670 0.63547 -0.18342
 C528 C 0.35006 0.63342 -0.18524
 C529 C 0.36807 0.62120 -0.16716
 C530 C 0.35290 0.61091 -0.14699
 C531 C 0.31929 0.61258 -0.14548
 C532 C 0.30133 0.62484 -0.16357
 C533 C 0.37206 0.59936 -0.12735
 C534 C 0.36147 0.57306 -0.11426
 C535 C 0.37897 0.56293 -0.09529
 C536 C 0.40724 0.57893 -0.08916
 C537 C 0.41817 0.60490 -0.10220
 C538 C 0.40072 0.61505 -0.12119
 C539 C 0.42461 0.56900 -0.06923
 C540 C 0.43863 0.56042 -0.05237
 H541 H 0.36220 0.64168 -0.20051
 H542 H 0.39386 0.61984 -0.16894
 H543 H 0.30695 0.60526 -0.13007
 H544 H 0.27554 0.62658 -0.16191
 H545 H 0.33974 0.56025 -0.11874
 H546 H 0.37035 0.54274 -0.08534
 H547 H 0.43998 0.61750 -0.09755
 H548 H 0.40928 0.63563 -0.13074
 C549 C 1.22052 -0.16793 -0.21223
 C550 C 1.20613 -0.15566 -0.19673
 C551 C 1.18837 -0.14239 -0.17798
 C552 C 1.18412 -0.16049 -0.15810
 C553 C 1.16584 -0.14845 -0.14013
 C554 C 1.15150 -0.11808 -0.14179
 C555 C 1.15616 -0.09988 -0.16176
 C556 C 1.17445 -0.11203 -0.17977
 C557 C 1.13168 -0.10560 -0.12277
 C558 C 1.13402 -0.07327 -0.11609
 C559 C 1.11592 -0.06184 -0.09778
 C560 C 1.09520 -0.08252 -0.08598
 C561 C 1.09242 -0.11462 -0.09266
 C562 C 1.11052 -0.12610 -0.11094
 C563 C 1.07747 -0.07103 -0.06664
 C564 C 1.06308 -0.06134 -0.05024
 H565 H 1.19480 -0.18403 -0.15655
 H566 H 1.16310 -0.16281 -0.12485
 H567 H 1.14516 -0.07657 -0.16363
 H568 H 1.17743 -0.09790 -0.19515
 H569 H 1.15034 -0.05701 -0.12471
 H570 H 1.11833 -0.03697 -0.09267
 H571 H 1.07642 -0.13081 -0.08366
 H572 H 1.10783 -0.15099 -0.11590
 C573 C 1.22160 0.33503 0.28687
 C574 C 1.20718 0.34751 0.30229
 C575 C 1.18944 0.36099 0.32101
 C576 C 1.16658 0.38484 0.31713
 C577 C 1.14814 0.39651 0.33523
 C578 C 1.15226 0.38436 0.35742
 C579 C 1.17560 0.36069 0.36116
 C580 C 1.19401 0.34909 0.34307
 C581 C 1.13211 0.39596 0.37659
 C582 C 1.12025 0.37431 0.39302
 C583 C 1.10178 0.38521 0.41130
 C584 C 1.09487 0.41788 0.41343
 C585 C 1.10629 0.43959 0.39707
 C586 C 1.12475 0.42873 0.37874
 C587 C 1.07695 0.42920 0.43277
 C588 C 1.06254 0.43882 0.44921
 H589 H 1.16269 0.39405 0.30009
 H590 H 1.13016 0.41449 0.33177
 H591 H 1.17969 0.35120 0.37809
 H592 H 1.21159 0.33060 0.34626
 H593 H 1.12508 0.34888 0.39166
 H594 H 1.09306 0.36819 0.42386
 H595 H 1.10122 0.46497 0.39861
 H596 H 1.13380 0.44602 0.36651
 C597 C 0.71978 -0.16761 0.28700
 C598 C 0.70541 -0.15528 0.30249
 C599 C 0.68771 -0.14193 0.32127
 C600 C 0.68893 -0.15679 0.34265
 C601 C 0.67060 -0.14505 0.36072
 C602 C 0.65070 -0.11825 0.35766
 C603 C 0.64992 -0.10321 0.33617
 C604 C 0.66828 -0.11504 0.31808
 C605 C 0.63071 -0.10628 0.37678
 C606 C 0.62745 -0.07316 0.38069
 C607 C 0.60917 -0.06204 0.39903
 C608 C 0.59385 -0.08384 0.41364
 C609 C 0.59665 -0.11681 0.40974
 C610 C 0.61494 -0.12798 0.39145
 C611 C 0.57605 -0.07242 0.43300
 C612 C 0.56168 -0.06273 0.44943
 H613 H 0.70387 -0.17764 0.34531
 H614 H 0.67210 -0.15685 0.37714
 H615 H 0.63460 -0.08274 0.33322
 H616 H 0.66699 -0.10348 0.30156
 H617 H 0.63956 -0.05588 0.36986
 H618 H 0.60728 -0.03646 0.40196
 H619 H 0.58487 -0.13389 0.42093
 H620 H 0.61658 -0.15360 0.38868
 C621 C 0.71722 0.33413 -0.21550
 C622 C 0.70161 0.34654 -0.20066
 C623 C 0.68236 0.36001 -0.18273
 C624 C 0.65209 0.34694 -0.17808
 C625 C 0.63378 0.35880 -0.16004
 C626 C 0.64553 0.38394 -0.14636
 C627 C 0.67581 0.39726 -0.15137
 C628 C 0.69412 0.38531 -0.16943
 C629 C 0.62659 0.39567 -0.12663
 C630 C 0.62513 0.42864 -0.12163
 C631 C 0.60776 0.43950 -0.10278
 C632 C 0.59167 0.41758 -0.08869
 C633 C 0.59283 0.38477 -0.09358
 C634 C 0.61014 0.37386 -0.11243
 C635 C 0.57465 0.42870 -0.06889
 C636 C 0.56083 0.43814 -0.05216
 H637 H 0.64274 0.32736 -0.18829
 H638 H 0.61039 0.34836 -0.15682
 H639 H 0.68566 0.41637 -0.14099
 H640 H 0.71759 0.39550 -0.17282
 H641 H 0.63723 0.44602 -0.13238
 H642 H 0.60700 0.46496 -0.09914
 H643 H 0.58062 0.36759 -0.08271
 H644 H 0.61119 0.34831 -0.11563
 C645 C 1.16626 0.21907 -0.21539
 C646 C 1.15338 0.20385 -0.20044
 C647 C 1.13924 0.18507 -0.18240
 C648 C 1.12325 0.20012 -0.16440
 C649 C 1.11116 0.18192 -0.14625
 C650 C 1.11502 0.14839 -0.14585
 C651 C 1.13076 0.13347 -0.16419
 C652 C 1.14278 0.15171 -0.18232
 C653 C 1.10336 0.12916 -0.12614
 C654 C 1.12201 0.10404 -0.11727
 C655 C 1.11146 0.08648 -0.09835
 C656 C 1.08213 0.09374 -0.08805
 C657 C 1.06326 0.11848 -0.09686
 C658 C 1.07378 0.13610 -0.11577
 C659 C 1.07165 0.07635 -0.06816
 C660 C 1.06260 0.06231 -0.05134
 H661 H 1.12058 0.22596 -0.16420
 H662 H 1.09953 0.19416 -0.13225
 H663 H 1.13374 0.10768 -0.16453
 H664 H 1.15517 0.13981 -0.19615
 H665 H 1.14509 0.09839 -0.12467
 H666 H 1.12632 0.06746 -0.09162
 H667 H 1.04047 0.12427 -0.08904
 H668 H 1.05870 0.15501 -0.12235
 C669 C 1.16460 0.71882 0.28372
 C670 C 1.15162 0.70360 0.29861
 C671 C 1.13735 0.68484 0.31659
 C672 C 1.14081 0.65146 0.31665
 C673 C 1.12874 0.63324 0.33477
 C674 C 1.11305 0.64819 0.35312
 C675 C 1.10922 0.68172 0.35272
 C676 C 1.12135 0.69991 0.33458
 C677 C 1.10147 0.62900 0.37285
 C678 C 1.07190 0.63590 0.38324
 C679 C 1.06148 0.61835 0.40219
 C680 C 1.08046 0.59373 0.41104
 C681 C 1.10978 0.58649 0.40073
 C682 C 1.12024 0.60398 0.38175
 C683 C 1.07011 0.57645 0.43100
 C684 C 1.06122 0.56250 0.44789
 H685 H 1.15318 0.63955 0.30282
 H686 H 1.13168 0.60745 0.33444
 H687 H 1.09760 0.69397 0.36672
 H688 H 1.11872 0.72575 0.33478
 H689 H 1.05675 0.65475 0.37662
 H690 H 1.03870 0.62412 0.41003
 H691 H 1.12472 0.56757 0.40750
 H692 H 1.14331 0.59839 0.37435
 C693 C 0.66443 0.21718 0.28437
 C694 C 0.65130 0.20191 0.29916
 C695 C 0.63689 0.18308 0.31704
 C696 C 0.64012 0.14969 0.31694
 C697 C 0.62799 0.13139 0.33499
 C698 C 0.61248 0.14631 0.35343
 C699 C 0.60888 0.17986 0.35319
 C700 C 0.62106 0.19812 0.33511
 C701 C 0.60092 0.12708 0.37313
 C702 C 0.57148 0.13414 0.38364
 C703 C 0.56115 0.11665 0.40265
 C704 C 0.58008 0.09192 0.41138
 C705 C 0.60926 0.08450 0.40093
 C706 C 0.61962 0.10193 0.38191
 C707 C 0.56985 0.07471 0.43138
 C708 C 0.56101 0.06082 0.44829
 H709 H 0.65237 0.13781 0.30303
 H710 H 0.63077 0.10559 0.33455
 H711 H 0.59743 0.19208 0.36727
 H712 H 0.61864 0.22398 0.33543
 H713 H 0.55638 0.15308 0.37711
 H714 H 0.53849 0.12255 0.41061
 H715 H 0.62415 0.06548 0.40762
 H716 H 0.64260 0.09622 0.37439
 C717 C 0.66517 0.71897 -0.21614
 C718 C 0.65224 0.70366 -0.20126
 C719 C 0.63802 0.68478 -0.18331
 C720 C 0.64211 0.65148 -0.18305
 C721 C 0.63000 0.63318 -0.16498
 C722 C 0.61364 0.64797 -0.14687
 C723 C 0.60921 0.68142 -0.14746
 C724 C 0.62138 0.69969 -0.16554
 C725 C 0.60197 0.62873 -0.12718
 C726 C 0.57207 0.63521 -0.11712
 C727 C 0.56156 0.61763 -0.09820
 C728 C 0.58076 0.59338 -0.08906
 C729 C 0.61042 0.58658 -0.09905
 C730 C 0.62097 0.60410 -0.11799
 C731 C 0.57028 0.57601 -0.06917
 C732 C 0.56129 0.56192 -0.05236
 H733 H 0.65499 0.63969 -0.19670
 H734 H 0.63342 0.60745 -0.16518
 H735 H 0.59707 0.69357 -0.13364
 H736 H 0.61827 0.72548 -0.16549
 H737 H 0.55674 0.65374 -0.12396
 H738 H 0.53853 0.62305 -0.09062
 H739 H 0.62554 0.56796 -0.09206
 H740 H 0.64428 0.59883 -0.12514
 C741 C 0.83426 -0.21539 -0.21581
 C742 C 0.84743 -0.20050 -0.20086
 C743 C 0.86197 -0.18221 -0.18278
 C744 C 0.86129 -0.14866 -0.18345
 C745 C 0.87364 -0.13076 -0.16530
 C746 C 0.88683 -0.14621 -0.14618
 C747 C 0.88785 -0.17996 -0.14582
 C748 C 0.87544 -0.19782 -0.16399
 C749 C 0.89874 -0.12727 -0.12646
 C750 C 0.92692 -0.13622 -0.11500
 C751 C 0.93758 -0.11885 -0.09605
 C752 C 0.92024 -0.09236 -0.08830
 C753 C 0.89233 -0.08309 -0.09969
 C754 C 0.88165 -0.10040 -0.11865
 C755 C 0.93080 -0.07509 -0.06841
 C756 C 0.93978 -0.06105 -0.05162
 H757 H 0.85087 -0.13632 -0.19790
 H758 H 0.87289 -0.10483 -0.16622
 H759 H 0.89747 -0.19257 -0.13123
 H760 H 0.87589 -0.22378 -0.16321
 H761 H 0.94080 -0.15653 -0.12076
 H762 H 0.95926 -0.12619 -0.08739
 H763 H 0.87867 -0.06269 -0.09378
 H764 H 0.85964 -0.09316 -0.12691
 C765 C 0.83479 0.28131 0.28568
 C766 C 0.84781 0.29553 0.30100
 C767 C 0.86209 0.31298 0.31956
 C768 C 0.86177 0.29993 0.34154
 C769 C 0.87359 0.31774 0.35990
 C770 C 0.88583 0.34891 0.35651
 C771 C 0.88657 0.36160 0.33428
 C772 C 0.87471 0.34375 0.31594
 C773 C 0.89704 0.36833 0.37617
 C774 C 0.92485 0.38744 0.37446
 C775 C 0.93530 0.40566 0.39306
 C776 C 0.91806 0.40509 0.41353
 C777 C 0.89030 0.38630 0.41536
 C778 C 0.87983 0.36805 0.39682
 C779 C 0.92920 0.42313 0.43287
 C780 C 0.93867 0.43770 0.44928
 H781 H 0.85199 0.27617 0.34454
 H782 H 0.87312 0.30715 0.37676
 H783 H 0.89551 0.38564 0.33117
 H784 H 0.87483 0.35417 0.29901
 H785 H 0.93877 0.38790 0.35887
 H786 H 0.95693 0.42000 0.39152
 H787 H 0.87677 0.38570 0.43113
 H788 H 0.85807 0.35399 0.39855
 C789 C 0.33404 -0.21834 0.28465
 C790 C 0.34716 -0.20436 0.30005
 C791 C 0.36147 -0.18713 0.31873
 C792 C 0.36017 -0.19992 0.34077
 C793 C 0.37195 -0.18225 0.35922
 C794 C 0.38515 -0.15146 0.35586
 C795 C 0.38686 -0.13904 0.33357
 C796 C 0.37503 -0.15675 0.31514
 C797 C 0.39635 -0.13212 0.37559
 C798 C 0.42464 -0.11368 0.37416
 C799 C 0.43506 -0.09552 0.39281
 C800 C 0.41731 -0.09547 0.41307
 C801 C 0.38907 -0.11359 0.41462
 C802 C 0.37864 -0.13178 0.39602
 C803 C 0.42841 -0.07751 0.43249
 C804 C 0.43784 -0.06301 0.44896
 H805 H 0.34964 -0.22337 0.34375
 H806 H 0.37070 -0.19265 0.37612
 H807 H 0.39653 -0.11527 0.33047
 H808 H 0.37590 -0.14651 0.29817
 H809 H 0.43896 -0.11370 0.35875
 H810 H 0.45706 -0.08172 0.39147
 H811 H 0.37514 -0.11371 0.43022
 H812 H 0.35651 -0.14531 0.39755
 C813 C 0.33470 0.28146 -0.21565
 C814 C 0.34787 0.29549 -0.20029
 C815 C 0.36217 0.31280 -0.18163
 C816 C 0.36121 0.29990 -0.15961
 C817 C 0.37286 0.31766 -0.14116
 C818 C 0.38558 0.34866 -0.14448
 C819 C 0.38699 0.36118 -0.16675
 C820 C 0.37529 0.34338 -0.18518
 C821 C 0.39662 0.36808 -0.12473
 C822 C 0.42459 0.38699 -0.12621
 C823 C 0.43487 0.40520 -0.10755
 C824 C 0.41729 0.40483 -0.08720
 C825 C 0.38936 0.38624 -0.08561
 C826 C 0.37907 0.36801 -0.10422
 C827 C 0.42830 0.42281 -0.06776
 C828 C 0.43771 0.43731 -0.05127
 H829 H 0.35101 0.27630 -0.15664
 H830 H 0.37187 0.30716 -0.12428
 H831 H 0.39631 0.38509 -0.16984
 H832 H 0.37591 0.35371 -0.20214
 H833 H 0.43879 0.38730 -0.14167
 H834 H 0.45663 0.41937 -0.10893
 H835 H 0.37557 0.38578 -0.06995
 H836 H 0.35718 0.35411 -0.10265
 C837 C 1.16419 -0.21606 0.21603
 C838 C 1.15105 -0.20093 0.20125
 C839 C 1.13658 -0.18233 0.18337
 C840 C 1.12234 -0.19764 0.16470
 C841 C 1.11010 -0.17951 0.14666
 C842 C 1.11204 -0.14578 0.14704
 C843 C 1.12596 -0.13063 0.16607
 C844 C 1.13815 -0.14880 0.18409
 C845 C 1.10043 -0.12658 0.12740
 C846 C 1.11822 -0.10003 0.11947
 C847 C 1.10788 -0.08259 0.10050
 C848 C 1.07963 -0.09141 0.08925
 C849 C 1.06159 -0.11755 0.09715
 C850 C 1.07190 -0.13505 0.11610
 C851 C 1.06947 -0.07415 0.06929
 C852 C 1.06075 -0.06022 0.05240
 H853 H 1.12121 -0.22359 0.16389
 H854 H 1.09990 -0.19190 0.13214
 H855 H 1.12743 -0.10472 0.16700
 H856 H 1.14917 -0.13671 0.19845
 H857 H 1.14050 -0.09317 0.12761
 H858 H 1.12209 -0.06247 0.09447
 H859 H 1.03964 -0.12454 0.08859
 H860 H 1.05749 -0.15511 0.12196
 C861 C 1.16474 0.28470 0.71576
 C862 C 1.15166 0.29966 0.70086
 C863 C 1.13724 0.31798 0.68281
 C864 C 1.12677 0.30268 0.66292
 C865 C 1.11462 0.32072 0.64481
 C866 C 1.11286 0.35437 0.64633
 C867 C 1.12303 0.36948 0.66653
 C868 C 1.13515 0.35139 0.68463
 C869 C 1.10120 0.37362 0.62672
 C870 C 1.11659 0.40253 0.62063
 C871 C 1.10626 0.42011 0.60172
 C872 C 1.08041 0.40907 0.58868
 C873 C 1.06472 0.38054 0.59473
 C874 C 1.07503 0.36292 0.61361
 C875 C 1.07028 0.42654 0.56879
 C876 C 1.06149 0.44051 0.55194
 H877 H 1.12851 0.27686 0.66126
 H878 H 1.10738 0.30840 0.62939
 H879 H 1.12160 0.39528 0.66834
 H880 H 1.14325 0.36349 0.69993
 H881 H 1.13707 0.41119 0.63018
 H882 H 1.11863 0.44211 0.59714
 H883 H 1.04463 0.37181 0.58478
 H884 H 1.06243 0.34099 0.61802
 C885 C 0.66468 -0.21621 0.71600
 C886 C 0.65151 -0.20129 0.70113
 C887 C 0.63697 -0.18295 0.68312
 C888 C 0.63692 -0.14942 0.68422
 C889 C 0.62466 -0.13142 0.66613
 C890 C 0.61230 -0.14676 0.64665
 C891 C 0.61202 -0.18052 0.64586
 C892 C 0.62433 -0.19847 0.66396
 C893 C 0.60050 -0.12769 0.62699
 C894 C 0.57289 -0.13733 0.61501
 C895 C 0.56242 -0.11992 0.59607
 C896 C 0.57937 -0.09267 0.58885
 C897 C 0.60666 -0.08268 0.60078
 C898 C 0.61717 -0.10005 0.61974
 C899 C 0.56903 -0.07541 0.56893
 C900 C 0.56015 -0.06147 0.55209
 H901 H 0.64672 -0.13716 0.69895
 H902 H 0.62485 -0.10550 0.66738
 H903 H 0.60308 -0.19303 0.63098
 H904 H 0.62449 -0.22441 0.66285
 H905 H 0.55932 -0.15824 0.62034
 H906 H 0.54121 -0.12781 0.58698
 H907 H 0.62001 -0.06168 0.59530
 H908 H 0.63872 -0.09224 0.62842
 C909 C 0.66545 0.28380 0.21472
 C910 C 0.65268 0.29881 0.19973
 C911 C 0.63860 0.31717 0.18159
 C912 C 0.62017 0.30194 0.16484
 C913 C 0.60809 0.31957 0.14651
 C914 C 0.61437 0.35269 0.14468
 C915 C 0.63251 0.36785 0.16180
 C916 C 0.64457 0.35017 0.18011
 C917 C 0.60285 0.37116 0.12468
 C918 C 0.59085 0.40244 0.12731
 C919 C 0.58050 0.41990 0.10835
 C920 C 0.58206 0.40636 0.08656
 C921 C 0.59392 0.37529 0.08377
 C922 C 0.60425 0.35779 0.10268
 C923 C 0.57116 0.42406 0.06702
 C924 C 0.56181 0.43829 0.05045
 H925 H 0.61545 0.27639 0.16581
 H926 H 0.59384 0.30730 0.13376
 H927 H 0.63811 0.39320 0.16073
 H928 H 0.65900 0.36216 0.19291
 H929 H 0.58915 0.41325 0.14404
 H930 H 0.57121 0.44390 0.11069
 H931 H 0.59524 0.36460 0.06697
 H932 H 0.61381 0.33398 0.10005
 C933 C 0.83440 0.21705 0.21499
 C934 C 0.84721 0.20193 0.20007
 C935 C 0.86126 0.18325 0.18208
 C936 C 0.85382 0.15058 0.18025
 C937 C 0.86591 0.13260 0.16212
 C938 C 0.88562 0.14710 0.14554
 C939 C 0.89336 0.17986 0.14772
 C940 C 0.88120 0.19782 0.16587
 C941 C 0.89735 0.12831 0.12576
 C942 C 0.92883 0.13247 0.11762
 C943 C 0.93955 0.11525 0.09867
 C944 C 0.91895 0.09371 0.08761
 C945 C 0.88768 0.08925 0.09565
 C946 C 0.87693 0.10641 0.11461
 C947 C 0.92975 0.07665 0.06776
 C948 C 0.93896 0.06272 0.05103
 H949 H 0.83838 0.13907 0.19270
 H950 H 0.85987 0.10734 0.16107
 H951 H 0.90814 0.19179 0.13507
 H952 H 0.88694 0.22314 0.16705
 H953 H 0.94522 0.14886 0.12601
 H954 H 0.96384 0.11883 0.09259
 H955 H 0.87151 0.07273 0.08715
 H956 H 0.85243 0.10301 0.12027
 C957 C 0.83327 0.71851 0.71428
 C958 C 0.84595 0.70328 0.69935
 C959 C 0.85984 0.68446 0.68134
 C960 C 0.85121 0.65214 0.67899
 C961 C 0.86329 0.63407 0.66088
 C962 C 0.88417 0.64811 0.64484
 C963 C 0.89307 0.68052 0.64753
 C964 C 0.88093 0.69857 0.66566
 C965 C 0.89605 0.62923 0.62511
 C966 C 0.92790 0.63255 0.61754
 C967 C 0.93880 0.61519 0.59870
 C968 C 0.91804 0.59431 0.58717
 C969 C 0.88637 0.59070 0.59464
 C970 C 0.87543 0.60801 0.61348
 C971 C 0.92907 0.57707 0.56744
 C972 C 0.93843 0.56298 0.55080
 H973 H 0.83490 0.64098 0.69103
 H974 H 0.85633 0.60909 0.65947
 H975 H 0.90879 0.69212 0.63532
 H976 H 0.88763 0.72361 0.66724
 H977 H 0.94445 0.64839 0.62629
 H978 H 0.96339 0.61813 0.59308
 H979 H 0.87005 0.57472 0.58577
 H980 H 0.85066 0.60525 0.61867
 C981 C 0.33386 0.22031 0.71344
 C982 C 0.34606 0.20594 0.69788
 C983 C 0.35910 0.18819 0.67902
 C984 C 0.34169 0.18583 0.65871
 C985 C 0.35333 0.16747 0.64063
 C986 C 0.38260 0.15112 0.64260
 C987 C 0.40013 0.15389 0.66301
 C988 C 0.38840 0.17227 0.68112
 C989 C 0.39460 0.13116 0.62346
 C990 C 0.42729 0.13146 0.61755
 C991 C 0.43833 0.11324 0.59916
 C992 C 0.41690 0.09444 0.58650
 C993 C 0.38441 0.09371 0.59240
 C994 C 0.37332 0.11191 0.61076
 C995 C 0.42808 0.07662 0.56707
 C996 C 0.43756 0.06220 0.55061
 H997 H 0.31896 0.19803 0.65691
 H998 H 0.33951 0.16622 0.62504
 H999 H 0.42258 0.14133 0.66513
 H1000 H 0.40197 0.17375 0.69682
 H1001 H 0.44419 0.14628 0.62683
 H1002 H 0.46351 0.11408 0.59466
 H1003 H 0.36763 0.07921 0.58274
 H1004 H 0.34811 0.11079 0.61510
 C1005 C 0.33237 0.71992 0.21272
 C1006 C 0.34468 0.70557 0.19720
 C1007 C 0.35793 0.68785 0.17841
 C1008 C 0.38776 0.67292 0.18040
 C1009 C 0.39981 0.65464 0.16235
 C1010 C 0.38207 0.65098 0.14211
 C1011 C 0.35223 0.66632 0.14024
 C1012 C 0.34028 0.68459 0.15827
 C1013 C 0.39443 0.63115 0.12304
 C1014 C 0.37362 0.61094 0.11070
 C1015 C 0.38504 0.59283 0.09240
 C1016 C 0.41737 0.59462 0.08619
 C1017 C 0.43835 0.61439 0.09848
 C1018 C 0.42698 0.63252 0.11681
 C1019 C 0.42880 0.57688 0.06681
 C1020 C 0.43840 0.56250 0.05036
 H1021 H 0.40153 0.67511 0.19598
 H1022 H 0.42268 0.64284 0.16439
 H1023 H 0.33823 0.66437 0.12477
 H1024 H 0.31714 0.69601 0.15655
 H1025 H 0.34854 0.60901 0.11528
 H1026 H 0.36860 0.57757 0.08302
 H1027 H 0.46341 0.61606 0.09374
 H1028 H 0.44351 0.64810 0.12581
   
