data_POSCAR
  _audit_creation_date              2014-09-24
  _audit_creation_method            'ToBaCCo'
  _symmetry_space_group_name_H-M    'P1'
  _symmetry_Int_Tables_number       1
  _symmetry_cell_setting            triclinic
  loop_
  _symmetry_equiv_pos_as_xyz
 x,y,z
_cell_length_a 50.1023
_cell_length_b 48.3987
_cell_length_c 48.3141
_cell_angle_alpha 89.954300
_cell_angle_beta 90.696300
_cell_angle_gamma 89.566000
loop_
  _atom_site_label
  _atom_site_type_symbol
  _atom_site_fract_x
  _atom_site_fract_y
  _atom_site_fract_z
C1 C 0.20912 0.52756 1.03574
 H2 H 0.20840 0.54306 1.01960
 C3 C 0.19140 0.52913 1.05777
 H4 H 0.17806 0.54676 1.05843
 C5 C 0.22842 0.48663 1.05403
 H6 H 0.24232 0.46960 1.05208
 C7 C 0.21111 0.48734 1.07646
 H8 H 0.21212 0.47028 1.09088
 N9 N 0.22715 0.50656 1.03425
 C10 C 0.28833 0.53597 0.97816
 H11 H 0.28813 0.51928 0.96328
 C12 C 0.30652 0.55744 0.97545
 H13 H 0.32002 0.55733 0.95812
 C14 C 0.27096 0.55611 1.01891
 H15 H 0.25748 0.55518 1.03616
 C16 C 0.28888 0.57802 1.01701
 H17 H 0.28898 0.59377 1.03291
 Zn18 Zn 0.24861 0.50451 1.00232
 N19 N 0.27098 0.53570 0.99957
 C20 C 0.22513 0.52224 0.95127
 N21 N 0.22515 0.50255 0.97139
 C22 C 0.20717 0.48166 0.97094
 C23 C 0.18826 0.47989 0.94957
 C24 C 0.20656 0.52126 0.92950
 C25 C 0.29001 0.47259 1.02463
 C26 C 0.30835 0.45082 1.02656
 C27 C 0.28805 0.43049 0.98587
 C28 C 0.27005 0.45269 0.98472
 N29 N 0.27130 0.47310 1.00403
 H30 H 0.23910 0.53910 0.95236
 H31 H 0.20739 0.46650 0.98740
 H32 H 0.17423 0.46298 0.94953
 H33 H 0.20647 0.53746 0.91403
 H34 H 0.29075 0.48927 1.03950
 H35 H 0.32294 0.45072 1.04328
 H36 H 0.28712 0.41472 0.97001
 H37 H 0.25548 0.45381 0.96810
 C38 C 0.30711 0.57877 0.99515
 C39 C 0.19179 0.50866 1.07868
 C40 C 0.30765 0.42946 1.00691
 C41 C 0.18766 0.49997 0.92856
 C42 C 0.78845 0.51889 -0.03518
 H43 H 0.78994 0.53523 -0.01999
 C44 C 0.80574 0.51835 -0.05762
 H45 H 0.82063 0.53432 -0.05944
 C46 C 0.76798 0.47753 -0.05040
 H47 H 0.75357 0.46138 -0.04729
 C48 C 0.78490 0.47617 -0.07313
 H49 H 0.78292 0.45920 -0.08759
 N50 N 0.76994 0.49876 -0.03207
 C51 C 0.70852 0.53496 0.02022
 H52 H 0.70796 0.51962 0.03650
 C53 C 0.69083 0.55737 0.02056
 H54 H 0.67654 0.55900 0.03711
 C55 C 0.72711 0.55060 -0.02179
 H56 H 0.74097 0.54767 -0.03849
 C57 C 0.70975 0.57333 -0.02229
 H58 H 0.71082 0.58797 -0.03919
 Zn59 Zn 0.74840 0.50016 -0.00014
 N60 N 0.72628 0.53205 -0.00065
 C61 C 0.77145 0.52188 0.04939
 N62 N 0.77176 0.50063 0.03096
 C63 C 0.78997 0.47977 0.03323
 C64 C 0.80877 0.47962 0.05479
 C65 C 0.78991 0.52255 0.07128
 C66 C 0.70676 0.46709 -0.01927
 C67 C 0.68895 0.44506 -0.01953
 C68 C 0.70998 0.42777 0.02234
 C69 C 0.72744 0.45014 0.02178
 N70 N 0.72568 0.46910 0.00102
 H71 H 0.75729 0.53864 0.04685
 H72 H 0.79000 0.46333 0.01807
 H73 H 0.82297 0.46271 0.05631
 H74 H 0.78972 0.53993 0.08539
 H75 H 0.70549 0.48274 -0.03524
 H76 H 0.67383 0.44406 -0.03570
 H77 H 0.71186 0.41272 0.03886
 H78 H 0.74225 0.45237 0.03804
 C79 C 0.69123 0.57690 -0.00096
 C80 C 0.80416 0.49672 -0.07693
 C81 C 0.69042 0.42500 0.00146
 C82 C 0.80903 0.50132 0.07409
 C83 C -0.01586 0.28682 0.46108
 H84 H -0.03151 0.28780 0.47629
 C85 C -0.01643 0.30482 0.43847
 H86 H -0.03249 0.31983 0.43741
 C87 C 0.02479 0.26711 0.44611
 H88 H 0.04099 0.25257 0.44925
 C89 C 0.02510 0.28473 0.42323
 H90 H 0.04125 0.28222 0.40879
 N91 N 0.00442 0.26830 0.46437
 C92 C -0.02706 0.20267 0.51628
 H93 H -0.01174 0.20203 0.53224
 C94 C -0.04820 0.18409 0.51702
 H95 H -0.04888 0.16903 0.53357
 C96 C -0.04410 0.22255 0.47479
 H97 H -0.04225 0.23732 0.45818
 C98 C -0.06558 0.20430 0.47470
 H99 H -0.08036 0.20560 0.45820
 Zn100 Zn 0.00434 0.24532 0.49613
 N101 N -0.02553 0.22160 0.49556
 C102 C -0.01690 0.26692 0.54602
 N103 N 0.00338 0.26855 0.52763
 C104 C 0.02297 0.28764 0.53062
 C105 C 0.02291 0.30579 0.55307
 C106 C -0.01773 0.28467 0.56878
 C107 C 0.03736 0.20343 0.47648
 C108 C 0.05900 0.18515 0.47612
 C109 C 0.07562 0.20610 0.51824
 C110 C 0.05362 0.22403 0.51779
 N111 N 0.03514 0.22248 0.49699
 H112 H -0.03269 0.25216 0.54293
 H113 H 0.03866 0.28873 0.51548
 H114 H 0.03889 0.32059 0.55525
 H115 H -0.03426 0.28333 0.58294
 H116 H 0.02219 0.20245 0.46039
 H117 H 0.06052 0.17035 0.45941
 H118 H 0.08989 0.20729 0.53520
 H119 H 0.05117 0.23883 0.53429
 C120 C -0.06786 0.18477 0.49606
 C121 C 0.00432 0.30422 0.41889
 C122 C 0.07844 0.18624 0.49727
 C123 C 0.00234 0.30446 0.57252
 C124 C 0.98210 0.70975 0.54092
 H125 H 0.96615 0.70929 0.52563
 C126 C 0.98171 0.69177 0.56351
 H127 H 0.96542 0.67733 0.56534
 C128 C 1.02330 0.72836 0.55628
 H129 H 1.03972 0.74229 0.55318
 C130 C 1.02372 0.71071 0.57916
 H131 H 1.04028 0.71169 0.59373
 N132 N 1.00259 0.72771 0.53781
 C133 C 0.97089 0.79392 0.48533
 H134 H 0.98570 0.79394 0.46922
 C135 C 0.95005 0.81323 0.48466
 H136 H 0.94906 0.82819 0.46800
 C137 C 0.95491 0.77497 0.52716
 H138 H 0.95707 0.76030 0.54390
 C139 C 0.93376 0.79394 0.52733
 H140 H 0.91953 0.79327 0.54400
 Zn141 Zn 1.00228 0.75045 0.50588
 N142 N 0.97280 0.77514 0.50621
 C143 C 0.98013 0.72902 0.45576
 N144 N 1.00039 0.72689 0.47466
 C145 C 1.01951 0.70696 0.47249
 C146 C 1.01897 0.68839 0.45042
 C147 C 0.97882 0.71086 0.43332
 C148 C 1.03683 0.79119 0.52527
 C149 C 1.05906 0.80837 0.52550
 C150 C 1.07393 0.78639 0.48348
 C151 C 1.05140 0.76959 0.48407
 N152 N 1.03352 0.77213 0.50489
 H153 H 0.96474 0.74453 0.45819
 H154 H 1.03522 0.70553 0.48801
 H155 H 1.03459 0.67290 0.44890
 H156 H 0.96234 0.71261 0.41870
 H157 H 1.02212 0.79299 0.54139
 H158 H 1.06148 0.82317 0.54212
 H159 H 1.08771 0.78440 0.46650
 H160 H 1.04809 0.75483 0.46766
 C161 C 0.93111 0.81340 0.50586
 C162 C 1.00276 0.69205 0.58298
 C163 C 1.07795 0.80616 0.50436
 C164 C 0.99838 0.69015 0.43048
 C165 C 0.46489 -0.02731 0.29134
 H166 H 0.48058 -0.04262 0.29385
 C167 C 0.44221 -0.02850 0.30778
 H168 H 0.44071 -0.04470 0.32313
 C169 C 0.44841 0.01303 0.26895
 H170 H 0.45103 0.02942 0.25408
 C171 C 0.42542 0.01265 0.28497
 H172 H 0.41034 0.02853 0.28185
 N173 N 0.46746 -0.00693 0.27220
 C174 C 0.52168 -0.03995 0.21038
 H175 H 0.53647 -0.02378 0.21004
 C176 C 0.52372 -0.06227 0.19222
 H177 H 0.53997 -0.06214 0.17772
 C178 C 0.48170 -0.05763 0.22862
 H179 H 0.46520 -0.05566 0.24266
 C180 C 0.48288 -0.08030 0.21082
 H181 H 0.46754 -0.09574 0.21269
 Zn182 Zn 0.49910 -0.00649 0.25120
 N183 N 0.50101 -0.03809 0.22820
 C184 C 0.54735 -0.02601 0.27623
 N185 N 0.52825 -0.00588 0.27648
 C186 C 0.52882 0.01468 0.29564
 C187 C 0.54948 0.01587 0.31525
 C188 C 0.56835 -0.02563 0.29549
 C189 C 0.48067 0.02627 0.20735
 C190 C 0.47975 0.04875 0.18927
 C191 C 0.51788 0.06794 0.21331
 C192 C 0.51808 0.04505 0.23095
 N193 N 0.49944 0.02495 0.22788
 H194 H 0.54628 -0.04251 0.26125
 H195 H 0.51309 0.03011 0.29571
 H196 H 0.54941 0.03226 0.33050
 H197 H 0.58355 -0.04162 0.29471
 H198 H 0.46628 0.00984 0.20518
 H199 H 0.46432 0.04962 0.17339
 H200 H 0.53302 0.08361 0.21589
 H201 H 0.53325 0.04333 0.24694
 C202 C 0.50406 -0.08308 0.19193
 C203 C 0.42208 -0.00834 0.30469
 C204 C 0.49850 0.07002 0.19214
 C205 C 0.56963 -0.00447 0.31533
 C206 C 0.53090 -0.01120 0.70434
 H207 H 0.51534 -0.02656 0.70346
 C208 C 0.55204 -0.01249 0.68582
 H209 H 0.55251 -0.02887 0.67058
 C210 C 0.54846 0.02946 0.72462
 H211 H 0.54680 0.04602 0.73948
 C212 C 0.56993 0.02898 0.70646
 H213 H 0.58490 0.04495 0.70795
 N214 N 0.52959 0.00942 0.72339
 C215 C 0.47954 -0.02261 0.78911
 H216 H 0.46477 -0.00623 0.79017
 C217 C 0.47816 -0.04510 0.80711
 H218 H 0.46203 -0.04603 0.82178
 C219 C 0.51835 -0.04124 0.76843
 H220 H 0.53423 -0.03945 0.75365
 C221 C 0.51773 -0.06413 0.78605
 H222 H 0.53327 -0.07972 0.78465
 Zn223 Zn 0.49957 0.01028 0.74681
 N224 N 0.49924 -0.02121 0.77008
 C225 C 0.45011 -0.00917 0.72512
 N226 N 0.46880 0.01101 0.72369
 C227 C 0.46674 0.03165 0.70467
 C228 C 0.44504 0.03277 0.68631
 C229 C 0.42809 -0.00886 0.70713
 C230 C 0.52064 0.04352 0.78892
 C231 C 0.52202 0.06589 0.80710
 C232 C 0.48163 0.08432 0.78616
 C233 C 0.48103 0.06159 0.76838
 N234 N 0.50048 0.04187 0.76992
 H235 H 0.45244 -0.02583 0.73983
 H236 H 0.48209 0.04721 0.70373
 H237 H 0.44365 0.04954 0.67151
 H238 H 0.41371 -0.02541 0.70822
 H239 H 0.53558 0.02729 0.79004
 H240 H 0.53801 0.06657 0.82235
 H241 H 0.46609 0.09991 0.78444
 H242 H 0.46484 0.05966 0.75357
 C243 C 0.49742 -0.06628 0.80571
 C244 C 0.57191 0.00781 0.68670
 C245 C 0.50231 0.08666 0.80590
 C246 C 0.42539 0.01226 0.68731
 C247 C 0.25170 -0.00633 0.49473
 C248 C 0.75136 0.00119 0.50219
 C249 C 0.49827 0.25523 1.00653
 C250 C 0.49837 0.74912 -0.00806
 C251 C 1.00148 0.50133 0.24810
 C252 C -0.00466 0.49335 0.75397
 C253 C 0.14344 0.12775 0.49905
 C254 C 0.14802 0.15534 0.50623
 C255 C 0.12692 0.17448 0.50565
 C256 C 0.10102 0.16619 0.49784
 C257 C 0.09671 0.13840 0.49071
 C258 C 0.11776 0.11937 0.49131
 C259 C 0.16469 0.10761 0.49988
 C260 C 0.18130 0.08947 0.50030
 C261 C 0.19945 0.06630 0.50049
 C262 C 0.22616 0.06927 0.49307
 C263 C 0.24289 0.04602 0.49170
 C264 C 0.23293 0.01919 0.49654
 C265 C 0.20642 0.01710 0.50608
 C266 C 0.18984 0.04028 0.50752
 H267 H 0.16784 0.16203 0.51226
 H268 H 0.13090 0.19578 0.51100
 H269 H 0.07695 0.13125 0.48508
 H270 H 0.11397 0.09802 0.48588
 H271 H 0.23399 0.08947 0.48814
 H272 H 0.26357 0.04886 0.48616
 H273 H 0.19821 -0.00235 0.51274
 H274 H 0.16937 0.03785 0.51405
 C275 C 0.63277 0.64243 -0.00238
 C276 C 0.64540 0.63496 0.02254
 C277 C 0.66480 0.61403 0.02296
 C278 C 0.67180 0.60025 -0.00158
 C279 C 0.65935 0.60830 -0.02661
 C280 C 0.63995 0.62922 -0.02697
 C281 C 0.61132 0.66239 -0.00254
 C282 C 0.59267 0.67828 -0.00278
 C283 C 0.56955 0.69612 -0.00325
 C284 C 0.57186 0.72431 -0.00898
 C285 C 0.54903 0.74112 -0.01028
 C286 C 0.52328 0.72991 -0.00691
 C287 C 0.52169 0.70172 0.00071
 C288 C 0.54449 0.68502 0.00202
 H289 H 0.63994 0.64500 0.04172
 H290 H 0.67426 0.60856 0.04250
 H291 H 0.66399 0.59785 -0.04578
 H292 H 0.63014 0.63467 -0.04635
 H293 H 0.59127 0.73329 -0.01250
 H294 H 0.55140 0.76295 -0.01440
 H295 H 0.50297 0.69233 0.00613
 H296 H 0.54254 0.66336 0.00728
 C297 C 0.86773 -0.12617 0.50533
 C298 C 0.88060 -0.13331 0.53022
 C299 C 0.90107 -0.15311 0.53046
 C300 C 0.90899 -0.16599 0.50574
 C301 C 0.89581 -0.15877 0.48085
 C302 C 0.87532 -0.13899 0.48067
 C303 C 0.84707 -0.10535 0.50501
 C304 C 0.82995 -0.08771 0.50466
 C305 C 0.80974 -0.06642 0.50415
 C306 C 0.80512 -0.05048 0.52772
 C307 C 0.78607 -0.02927 0.52700
 C308 C 0.77059 -0.02398 0.50288
 C309 C 0.77629 -0.03971 0.47897
 C310 C 0.79538 -0.06092 0.47977
 H311 H 0.87495 -0.12343 0.54942
 H312 H 0.91106 -0.15793 0.54988
 H313 H 0.90120 -0.16857 0.46155
 H314 H 0.86547 -0.13364 0.46129
 H315 H 0.81653 -0.05417 0.54658
 H316 H 0.78344 -0.01677 0.54535
 H317 H 0.76667 -0.03530 0.45930
 H318 H 0.79930 -0.07268 0.46116
 C319 C 0.36627 0.36408 1.00936
 C320 C 0.37363 0.39126 1.01537
 C321 C 0.35456 0.41245 1.01465
 C322 C 0.32776 0.40675 1.00791
 C323 C 0.32051 0.37933 1.00191
 C324 C 0.33967 0.35812 1.00265
 C325 C 0.38631 0.34262 1.00972
 C326 C 0.40391 0.32549 1.01005
 C327 C 0.42590 0.30619 1.01040
 C328 C 0.42738 0.28507 0.99074
 C329 C 0.45001 0.26800 0.98963
 C330 C 0.47208 0.27244 1.00758
 C331 C 0.46915 0.29241 1.02870
 C332 C 0.44655 0.30938 1.02977
 H333 H 0.39419 0.39613 1.02043
 H334 H 0.36089 0.43337 1.01891
 H335 H 0.30000 0.37425 0.99692
 H336 H 0.33376 0.33714 0.99796
 H337 H 0.41116 0.28196 0.97607
 H338 H 0.44993 0.25143 0.97467
 H339 H 0.48497 0.29552 1.04382
 H340 H 0.44545 0.32537 1.04541
 C341 C 0.86788 0.12640 0.49722
 C342 C 0.87653 0.13891 0.52180
 C343 C 0.89725 0.15807 0.52140
 C344 C 0.90964 0.16498 0.49636
 C345 C 0.90063 0.15247 0.47171
 C346 C 0.87991 0.13328 0.47217
 C347 C 0.84709 0.10606 0.49782
 C348 C 0.82990 0.08878 0.49844
 C349 C 0.80965 0.06788 0.49928
 C350 C 0.79618 0.06265 0.52387
 C351 C 0.77712 0.04175 0.52498
 C352 C 0.77056 0.02606 0.50119
 C353 C 0.78515 0.03107 0.47685
 C354 C 0.80418 0.05197 0.47581
 H355 H 0.86733 0.13376 0.54131
 H356 H 0.90349 0.16762 0.54066
 H357 H 0.90997 0.15707 0.45217
 H358 H 0.87344 0.12363 0.45303
 H359 H 0.80079 0.07439 0.54238
 H360 H 0.76821 0.03753 0.54478
 H361 H 0.78185 0.01858 0.45856
 H362 H 0.81490 0.05543 0.45679
 C363 C 0.36585 0.64294 -0.00940
 C364 C 0.33972 0.64941 -0.00157
 C365 C 0.32051 0.62861 -0.00019
 C366 C 0.32723 0.60108 -0.00664
 C367 C 0.35354 0.59487 -0.01454
 C368 C 0.37267 0.61565 -0.01591
 C369 C 0.38600 0.66395 -0.01025
 C370 C 0.40367 0.68070 -0.01090
 C371 C 0.42571 0.69958 -0.01152
 C372 C 0.44589 0.69582 -0.03088
 C373 C 0.46857 0.71236 -0.02997
 C374 C 0.47209 0.73244 -0.00902
 C375 C 0.45045 0.73748 0.00888
 C376 C 0.42773 0.72086 0.00793
 H377 H 0.33424 0.67048 0.00353
 H378 H 0.30038 0.63409 0.00570
 H379 H 0.35950 0.57384 -0.01918
 H380 H 0.39287 0.61038 -0.02182
 H381 H 0.44435 0.67971 -0.04636
 H382 H 0.48403 0.70881 -0.04506
 H383 H 0.45078 0.75418 0.02369
 H384 H 0.41188 0.72441 0.02258
 C385 C 0.14491 -0.13893 0.50134
 C386 C 0.11989 -0.12914 0.50953
 C387 C 0.09821 -0.14703 0.51070
 C388 C 0.10124 -0.17506 0.50366
 C389 C 0.12653 -0.18480 0.49558
 C390 C 0.14824 -0.16681 0.49443
 C391 C 0.16670 -0.11990 0.49928
 C392 C 0.18393 -0.10278 0.49746
 C393 C 0.20301 -0.08087 0.49518
 C394 C 0.19888 -0.06032 0.47527
 C395 C 0.21526 -0.03719 0.47486
 C396 C 0.23568 -0.03357 0.49497
 C397 C 0.24109 -0.05575 0.51333
 C398 C 0.22454 -0.07893 0.51375
 H399 H 0.11705 -0.10754 0.51473
 H400 H 0.07894 -0.13878 0.51655
 H401 H 0.12956 -0.20633 0.49033
 H402 H 0.16753 -0.17459 0.48802
 H403 H 0.18250 -0.06178 0.46051
 H404 H 0.21126 -0.02132 0.45951
 H405 H 0.25788 -0.05539 0.52756
 H406 H 0.22829 -0.09509 0.52885
 C407 C 0.63250 0.35990 1.00232
 C408 C 0.64062 0.37238 1.02712
 C409 C 0.65986 0.39316 1.02694
 C410 C 0.67117 0.40181 1.00189
 C411 C 0.66325 0.38873 0.97713
 C412 C 0.64402 0.36795 0.97737
 C413 C 0.61114 0.34017 1.00229
 C414 C 0.59254 0.32452 1.00230
 C415 C 0.56944 0.30702 1.00242
 C416 C 0.54430 0.31857 0.99702
 C417 C 0.52151 0.30223 0.99804
 C418 C 0.52320 0.27398 1.00552
 C419 C 0.54901 0.26230 1.00896
 C420 C 0.57183 0.27875 1.00795
 H421 H 0.63167 0.36647 1.04653
 H422 H 0.66526 0.40304 1.04629
 H423 H 0.67185 0.39467 0.95757
 H424 H 0.63783 0.35849 0.95804
 H425 H 0.54228 0.34029 0.99190
 H426 H 0.50271 0.31197 0.99256
 H427 H 0.55142 0.24041 1.01296
 H428 H 0.59129 0.26943 1.01155
 C429 C 0.49677 0.13927 1.13630
 C430 C 0.49199 0.11257 1.12642
 C431 C 0.49261 0.09009 1.14455
 C432 C 0.49801 0.09398 1.17291
 C433 C 0.50287 0.12091 1.18268
 C434 C 0.50223 0.14341 1.16446
 C435 C 0.49618 0.16214 1.11726
 C436 C 0.49558 0.18045 1.10033
 C437 C 0.49479 0.20108 1.07887
 C438 C 0.47642 0.19854 1.05708
 C439 C 0.47725 0.21664 1.03464
 C440 C 0.49710 0.23717 1.03298
 C441 C 0.51395 0.24098 1.05636
 C442 C 0.51310 0.22274 1.07883
 H443 H 0.48787 0.10911 1.10463
 H444 H 0.48919 0.06961 1.13631
 H445 H 0.50680 0.12460 1.20445
 H446 H 0.50594 0.16400 1.17234
 H447 H 0.46184 0.18212 1.05708
 H448 H 0.46304 0.21389 1.01782
 H449 H 0.52793 0.25782 1.05751
 H450 H 0.52699 0.22531 1.09598
 C451 C 0.00375 0.63282 0.64937
 C452 C 0.02741 0.63943 0.63587
 C453 C 0.02720 0.65909 0.61465
 C454 C 0.00325 0.67235 0.60658
 C455 C -0.02035 0.66594 0.62065
 C456 C -0.02008 0.64628 0.64188
 C457 C 0.00359 0.61085 0.66945
 C458 C 0.00332 0.59162 0.68530
 C459 C 0.00274 0.56763 0.70288
 C460 C -0.00393 0.56981 0.73081
 C461 C -0.00580 0.54601 0.74712
 C462 C -0.00213 0.51943 0.73554
 C463 C 0.00661 0.51799 0.70782
 C464 C 0.00852 0.54175 0.69164
 H465 H 0.04592 0.62893 0.64131
 H466 H 0.04562 0.66326 0.60399
 H467 H -0.03903 0.67604 0.61515
 H468 H -0.03855 0.64123 0.65211
 H469 H -0.00787 0.58985 0.73993
 H470 H -0.01081 0.54825 0.76874
 H471 H 0.01227 0.49862 0.69837
 H472 H 0.01449 0.53989 0.67023
 C473 C 0.49499 0.86466 -0.13829
 C474 C 0.50178 0.86047 -0.16599
 C475 C 0.50257 0.88290 -0.18428
 C476 C 0.49655 0.90979 -0.17503
 C477 C 0.48974 0.91372 -0.14714
 C478 C 0.48898 0.89132 -0.12894
 C479 C 0.49452 0.84190 -0.11912
 C480 C 0.49410 0.82366 -0.10212
 C481 C 0.49361 0.80310 -0.08061
 C482 C 0.51182 0.78106 -0.08043
 C483 C 0.51304 0.76287 -0.05790
 C484 C 0.49669 0.76709 -0.03459
 C485 C 0.47690 0.78802 -0.03639
 C486 C 0.47570 0.80608 -0.05889
 H487 H 0.50647 0.83992 -0.17345
 H488 H 0.50758 0.87916 -0.20569
 H489 H 0.48541 0.93419 -0.13927
 H490 H 0.48385 0.89482 -0.10750
 H491 H 0.52535 0.77816 -0.09753
 H492 H 0.52693 0.74575 -0.05894
 H493 H 0.46305 0.79112 -0.01962
 H494 H 0.46119 0.82280 -0.05899
 C495 C 1.00520 0.36167 0.35211
 C496 C 0.98107 0.35435 0.36415
 C497 C 0.98066 0.33520 0.38581
 C498 C 1.00453 0.32288 0.39607
 C499 C 1.02869 0.33023 0.38312
 C500 C 1.02895 0.34943 0.36150
 C501 C 1.00576 0.38295 0.33131
 C502 C 1.00619 0.40155 0.31471
 C503 C 1.00659 0.42475 0.29609
 C504 C 0.98864 0.42644 0.27375
 C505 C 0.98732 0.45035 0.25746
 C506 C 1.00329 0.47350 0.26395
 C507 C 1.02289 0.47032 0.28504
 C508 C 1.02418 0.44644 0.30121
 H509 H 0.96250 0.36364 0.35694
 H510 H 0.96136 0.32971 0.39383
 H511 H 1.04779 0.32247 0.39041
 H512 H 1.04783 0.35522 0.35255
 H513 H 0.97539 0.40942 0.26914
 H514 H 0.97368 0.45046 0.23999
 H515 H 1.03651 0.48698 0.28976
 H516 H 1.03852 0.44519 0.31815
 C517 C 0.50700 0.85182 0.13283
 C518 C 0.48277 0.85934 0.14475
 C519 C 0.48181 0.88031 0.16457
 C520 C 0.50520 0.89450 0.17288
 C521 C 0.52963 0.88601 0.16100
 C522 C 0.53044 0.86498 0.14120
 C523 C 0.50746 0.83204 0.11062
 C524 C 0.50742 0.81645 0.09118
 C525 C 0.50684 0.79919 0.06695
 C526 C 0.51175 0.81093 0.04114
 C527 C 0.50951 0.79508 0.01715
 C528 C 0.50131 0.76718 0.01829
 C529 C 0.49858 0.75513 0.04478
 C530 C 0.50076 0.77111 0.06883
 H531 H 0.46441 0.84950 0.13813
 H532 H 0.46232 0.88621 0.17197
 H533 H 0.54844 0.89501 0.16724
 H534 H 0.54937 0.85924 0.13215
 H535 H 0.51721 0.83249 0.03951
 H536 H 0.51446 0.80494 -0.00217
 H537 H 0.49401 0.73339 0.04678
 H538 H 0.49747 0.76163 0.08880
 C539 C -0.00127 0.36158 0.64055
 C540 C -0.00789 0.33384 0.64459
 C541 C -0.00655 0.31517 0.62254
 C542 C 0.00144 0.32405 0.59616
 C543 C 0.00818 0.35195 0.59240
 C544 C 0.00682 0.37055 0.61444
 C545 C -0.00316 0.38115 0.66286
 C546 C -0.00466 0.39841 0.68077
 C547 C -0.00629 0.42014 0.70099
 C548 C -0.02474 0.44161 0.69715
 C549 C -0.02456 0.46432 0.71490
 C550 C -0.00527 0.46660 0.73636
 C551 C 0.01160 0.44353 0.74146
 C552 C 0.01140 0.42079 0.72359
 H553 H -0.01416 0.32668 0.66472
 H554 H -0.01158 0.29376 0.62616
 H555 H 0.01401 0.35954 0.57229
 H556 H 0.01187 0.39201 0.61105
 H557 H -0.03886 0.44114 0.67999
 H558 H -0.03881 0.48089 0.71114
 H559 H 0.02512 0.44284 0.75902
 H560 H 0.02533 0.40389 0.72717
 C561 C 0.50402 0.15252 0.86557
 C562 C 0.52771 0.14348 0.85335
 C563 C 0.52715 0.12244 0.83354
 C564 C 0.50284 0.11009 0.82574
 C565 C 0.47908 0.11972 0.83777
 C566 C 0.47970 0.14075 0.85756
 C567 C 0.50475 0.17237 0.88772
 C568 C 0.50503 0.18799 0.90714
 C569 C 0.50494 0.20522 0.93139
 C570 C 0.49885 0.23341 0.92957
 C571 C 0.49723 0.24937 0.95366
 C572 C 0.50055 0.23722 0.98013
 C573 C 0.50874 0.20917 0.98120
 C574 C 0.51042 0.19334 0.95718
 H575 H 0.54667 0.15236 0.85949
 H576 H 0.54573 0.11573 0.82440
 H577 H 0.46010 0.11041 0.83254
 H578 H 0.46127 0.14739 0.86709
 H579 H 0.49513 0.24300 0.90962
 H580 H 0.49266 0.27119 0.95171
 H581 H 0.51413 0.19918 1.00050
 H582 H 0.51591 0.17169 0.95877
 C583 C 0.99465 0.63181 0.36345
 C584 C 0.98842 0.65965 0.35861
 C585 C 0.98957 0.67870 0.38038
 C586 C 0.99705 0.67009 0.40725
 C587 C 1.00320 0.64205 0.41184
 C588 C 1.00201 0.62309 0.39010
 C589 C 0.99364 0.61191 0.34135
 C590 C 0.99321 0.59418 0.32384
 C591 C 0.99328 0.57169 0.30438
 C592 C 0.99945 0.57596 0.27656
 C593 C 1.00141 0.55343 0.25852
 C594 C 0.99843 0.52606 0.26823
 C595 C 0.98996 0.52257 0.29586
 C596 C 0.98793 0.54505 0.31375
 H597 H 0.98275 0.66664 0.33804
 H598 H 0.98498 0.70020 0.37614
 H599 H 1.00859 0.63467 0.43234
 H600 H 1.00677 0.60157 0.39411
 H601 H 1.00306 0.59662 0.26889
 H602 H 1.00611 0.55726 0.23705
 H603 H 0.98475 0.50253 0.30395
 H604 H 0.98236 0.54158 0.33508
 C605 C 1.13444 0.50758 0.14303
 C606 C 1.15910 0.49439 0.14682
 C607 C 1.17817 0.49507 0.12592
 C608 C 1.17297 0.50897 0.10057
 C609 C 1.14800 0.52262 0.09749
 C610 C 1.12905 0.52184 0.11844
 C611 C 1.11413 0.50568 0.16374
 C612 C 1.09635 0.50404 0.18025
 C613 C 1.07419 0.50209 0.19882
 C614 C 1.05396 0.48310 0.19339
 C615 C 1.03125 0.48265 0.20981
 C616 C 1.02776 0.50188 0.23151
 C617 C 1.04944 0.51935 0.23812
 C618 C 1.07218 0.51977 0.22158
 H619 H 1.16357 0.48343 0.16590
 H620 H 1.19719 0.48520 0.13023
 H621 H 1.14215 0.53279 0.07842
 H622 H 1.10988 0.53192 0.11517
 H623 H 1.05549 0.46894 0.17611
 H624 H 1.01578 0.46785 0.20496
 H625 H 1.04913 0.53274 0.25598
 H626 H 1.08809 0.53408 0.22643
 C627 C 0.63587 0.00587 0.62814
 C628 C 0.62710 -0.01866 0.64026
 C629 C 0.60645 -0.01804 0.65946
 C630 C 0.59427 0.00717 0.66679
 C631 C 0.60338 0.03174 0.65463
 C632 C 0.62402 0.03106 0.63542
 C633 C 0.65661 0.00514 0.60781
 C634 C 0.67375 0.00454 0.59051
 C635 C 0.69390 0.00384 0.56954
 C636 C 0.70781 -0.02066 0.56417
 C637 C 0.72668 -0.02167 0.54311
 C638 C 0.73259 0.00215 0.52738
 C639 C 0.71762 0.02643 0.53260
 C640 C 0.69879 0.02735 0.55366
 H641 H 0.63616 -0.03828 0.63479
 H642 H 0.60012 -0.03725 0.66871
 H643 H 0.59418 0.05143 0.65953
 H644 H 0.63057 0.05016 0.62606
 H645 H 0.70367 -0.03921 0.57588
 H646 H 0.73591 -0.04142 0.53875
 H647 H 0.72040 0.04473 0.52010
 H648 H 0.68772 0.04631 0.55724
 C649 C -0.13915 0.49251 0.85706
 C650 C -0.14680 0.46840 0.87074
 C651 C -0.16559 0.46968 0.89187
 C652 C -0.17693 0.49517 0.89966
 C653 C -0.16942 0.51924 0.88546
 C654 C -0.15064 0.51789 0.86432
 C655 C -0.11840 0.49143 0.83673
 C656 C -0.10037 0.49065 0.82045
 C657 C -0.07801 0.48995 0.80205
 C658 C -0.05740 0.47082 0.80652
 C659 C -0.03449 0.47168 0.79041
 C660 C -0.03121 0.49236 0.77007
 C661 C -0.05324 0.50998 0.76428
 C662 C -0.07617 0.50908 0.78048
 H663 H -0.13787 0.44867 0.86545
 H664 H -0.17066 0.45085 0.90264
 H665 H -0.17804 0.53910 0.89074
 H666 H -0.14481 0.53670 0.85391
 H667 H -0.05878 0.45557 0.82286
 H668 H -0.01869 0.45678 0.79453
 H669 H -0.05303 0.52454 0.74734
 H670 H -0.09235 0.52354 0.77636
 C671 C 0.35438 -0.00985 0.35842
 C672 C 0.36420 -0.03447 0.34713
 C673 C 0.38591 -0.03396 0.32925
 C674 C 0.39813 -0.00880 0.32248
 C675 C 0.38776 0.01589 0.33353
 C676 C 0.36606 0.01533 0.35141
 C677 C 0.33366 -0.01055 0.37874
 C678 C 0.31720 -0.01105 0.39671
 C679 C 0.29883 -0.01151 0.41934
 C680 C 0.30333 -0.02982 0.44126
 C681 C 0.28748 -0.02845 0.46474
 C682 C 0.26729 -0.00807 0.46729
 C683 C 0.26151 0.00862 0.44389
 C684 C 0.27750 0.00724 0.42037
 H685 H 0.35538 -0.05408 0.35254
 H686 H 0.39322 -0.05326 0.32079
 H687 H 0.39694 0.03555 0.32903
 H688 H 0.35878 0.03448 0.36026
 H689 H 0.31955 -0.04474 0.44053
 H690 H 0.29169 -0.04263 0.48163
 H691 H 0.24482 0.02286 0.44351
 H692 H 0.27344 0.02107 0.40316
 C693 C 0.12694 0.49895 0.86486
 C694 C 0.15316 0.50597 0.85825
 C695 C 0.17301 0.50616 0.87889
 C696 C 0.16686 0.49928 0.90640
 C697 C 0.14045 0.49215 0.91274
 C698 C 0.12068 0.49200 0.89212
 C699 C 0.10619 0.49913 0.84399
 C700 C 0.08801 0.49913 0.82741
 C701 C 0.06534 0.49887 0.80883
 C702 C 0.06836 0.49297 0.78072
 C703 C 0.04591 0.49159 0.76327
 C704 C 0.01986 0.49498 0.77378
 C705 C 0.01754 0.50288 0.80186
 C706 C 0.03996 0.50429 0.81919
 H707 H 0.15823 0.51136 0.83720
 H708 H 0.19320 0.51147 0.87330
 H709 H 0.13495 0.48721 0.93376
 H710 H 0.10043 0.48665 0.89749
 H711 H 0.08802 0.48933 0.77230
 H712 H 0.04881 0.48727 0.74152
 H713 H -0.00148 0.50836 0.81070
 H714 H 0.03746 0.50967 0.84078
 C715 C 0.63304 -0.00248 0.37607
 C716 C 0.62152 -0.02767 0.36852
 C717 C 0.60098 -0.02835 0.34870
 C718 C 0.59164 -0.00379 0.33618
 C719 C 0.60341 0.02142 0.34387
 C720 C 0.62397 0.02205 0.36368
 C721 C 0.65392 -0.00180 0.39676
 C722 C 0.67127 -0.00128 0.41425
 C723 C 0.69179 -0.00072 0.43534
 C724 C 0.69713 -0.02425 0.45127
 C725 C 0.71655 -0.02354 0.47224
 C726 C 0.73168 0.00053 0.47726
 C727 C 0.72524 0.02441 0.46156
 C728 C 0.70578 0.02362 0.44060
 H729 H 0.62832 -0.04677 0.37807
 H730 H 0.59209 -0.04803 0.34352
 H731 H 0.59690 0.04063 0.33436
 H732 H 0.63278 0.04165 0.36935
 H733 H 0.68603 -0.04307 0.44776
 H734 H 0.71975 -0.04187 0.48474
 H735 H 0.73458 0.04403 0.46581
 H736 H 0.70131 0.04219 0.42883
 C737 C 0.86928 0.50471 0.13818
 C738 C 0.87580 0.49570 0.11159
 C739 C 0.85620 0.49448 0.09085
 C740 C 0.82968 0.50226 0.09640
 C741 C 0.82327 0.51127 0.12323
 C742 C 0.84296 0.51246 0.14400
 C743 C 0.88986 0.50612 0.15917
 C744 C 0.90797 0.50697 0.17581
 C745 C 0.93064 0.50750 0.19438
 C746 C 0.95556 0.51484 0.18420
 C747 C 0.97819 0.51348 0.20128
 C748 C 0.97660 0.50369 0.22882
 C749 C 0.95087 0.49867 0.23937
 C750 C 0.92821 0.49998 0.22218
 H751 H 0.89613 0.48977 0.10682
 H752 H 0.86190 0.48790 0.07032
 H753 H 0.80299 0.51714 0.12822
 H754 H 0.83769 0.51944 0.16453
 H755 H 0.95757 0.52147 0.16291
 H756 H 0.99681 0.52027 0.19264
 H757 H 0.94845 0.49289 0.26085
 H758 H 0.90888 0.49482 0.23048
 C759 C 0.36054 0.01062 0.62826
 C760 C 0.38605 0.01849 0.62004
 C761 C 0.40702 0.01933 0.63930
 C762 C 0.40278 0.01229 0.66714
 C763 C 0.37696 0.00466 0.67531
 C764 C 0.35597 0.00382 0.65595
 C765 C 0.33953 0.00867 0.60782
 C766 C 0.32300 0.00689 0.58959
 C767 C 0.30481 0.00462 0.56646
 C768 C 0.31425 0.00937 0.53985
 C769 C 0.29745 0.00612 0.51691
 C770 C 0.27086 -0.00300 0.51992
 C771 C 0.26115 -0.00573 0.54716
 C772 C 0.27810 -0.00250 0.57017
 H773 H 0.38984 0.02361 0.59861
 H774 H 0.42671 0.02484 0.63224
 H775 H 0.37300 -0.00058 0.69665
 H776 H 0.33629 -0.00233 0.66252
 H777 H 0.33472 0.01568 0.53679
 H778 H 0.30551 0.01119 0.49692
 H779 H 0.24046 -0.01087 0.55057
 H780 H 0.27039 -0.00563 0.59078
   
