data_POSCAR
  _audit_creation_date              2014-09-24
  _audit_creation_method            'ToBaCCo'
  _symmetry_space_group_name_H-M    'P1'
  _symmetry_Int_Tables_number       1
  _symmetry_cell_setting            triclinic
  loop_
  _symmetry_equiv_pos_as_xyz
 x,y,z
_cell_length_a 31.3161
_cell_length_b 31.3172
_cell_length_c 31.2651
_cell_angle_alpha 89.993900
_cell_angle_beta 90.102200
_cell_angle_gamma 89.977900
loop_
  _atom_site_label
  _atom_site_type_symbol
  _atom_site_fract_x
  _atom_site_fract_y
  _atom_site_fract_z
C1 C 0.36851 1.02178 -0.47911
 C2 C 0.36856 1.02221 -0.52294
 C3 C 0.40959 1.01125 -0.53581
 N4 N 0.43423 1.00361 -0.50109
 C5 C 0.40931 1.01026 -0.46647
 C6 C 0.42230 1.00333 -0.57861
 C7 C 0.46508 0.99321 -0.59009
 C8 C 0.47771 0.97722 -0.62955
 C9 C 0.52143 0.97521 -0.62916
 C10 C 0.53488 0.99109 -0.58998
 N11 N 0.50031 1.00179 -0.56626
 C12 C 0.57834 0.99669 -0.57792
 C13 C 0.59104 1.00250 -0.53471
 C14 C 0.63126 1.01579 -0.52146
 C15 C 0.63084 1.01600 -0.47766
 C16 C 0.59023 1.00360 -0.46550
 N17 N 0.56593 0.99519 -0.50032
 C18 C 0.57696 0.99838 -0.42273
 C19 C 0.53396 0.99268 -0.41069
 C20 C 0.52062 0.97942 -0.37058
 C21 C 0.47674 0.98081 -0.37086
 C22 C 0.46452 0.99506 -0.41109
 N23 N 0.49964 1.00238 -0.43510
 C24 C 0.42190 1.00306 -0.42367
 H25 H 0.34125 1.02827 -0.45889
 H26 H 0.34098 1.02851 -0.54282
 H27 H 0.50045 1.01771 -0.46453
 H28 H 0.45788 0.96842 -0.65645
 H29 H 0.54108 0.96373 -0.65517
 H30 H 0.65810 1.02486 -0.54121
 H31 H 0.65729 1.02473 -0.45711
 H32 H 0.45620 0.97267 -0.34427
 H33 H 0.50099 1.01873 -0.53769
 H34 H 0.54045 0.97009 -0.34377
 C35 C -0.47770 1.36584 -0.00275
 C36 C -0.52113 1.36531 0.00118
 C37 C -0.53481 1.40746 -0.00090
 N38 N -0.50071 1.43369 -0.00498
 C39 C -0.46577 1.40831 -0.00598
 C40 C -0.57816 1.42076 0.00167
 C41 C -0.59101 1.46439 0.00250
 C42 C -0.63258 1.47807 -0.00496
 C43 C -0.63227 1.52172 -0.00339
 C44 C -0.59049 1.53406 0.00449
 N45 N -0.56551 1.49890 0.00863
 C46 C -0.57723 1.57727 0.00638
 C47 C -0.53431 1.59127 0.00626
 C48 C -0.52224 1.63378 0.00443
 C49 C -0.47873 1.63431 0.00148
 C50 C -0.46518 1.59207 0.00258
 N51 N -0.49941 1.56585 0.00526
 C52 C -0.42183 1.57874 0.00007
 C53 C -0.40896 1.53513 -0.00211
 C54 C -0.36724 1.52129 0.00414
 C55 C -0.36756 1.47769 0.00158
 C56 C -0.40951 1.46549 -0.00552
 N57 N -0.43457 1.50071 -0.00841
 C58 C -0.42287 1.42232 -0.00744
 H59 H -0.45721 1.33802 -0.00194
 H60 H -0.54016 1.33690 0.00593
 H61 H -0.46665 1.50119 -0.01664
 H62 H -0.66028 1.45874 -0.01223
 H63 H -0.65969 1.54209 -0.00878
 H64 H -0.54267 1.66165 0.00398
 H65 H -0.45953 1.66279 -0.00208
 H66 H -0.34003 1.45724 0.00602
 H67 H -0.53365 1.49847 0.01778
 H68 H -0.33938 1.54043 0.01131
 C69 C -0.02484 0.37127 0.52090
 C70 C -0.02339 0.37121 0.47717
 C71 C -0.00495 0.40958 0.46503
 N72 N 0.00462 0.43331 0.49997
 C73 C -0.00713 0.40963 0.53421
 C74 C 0.00337 0.42186 0.42221
 C75 C 0.01070 0.46511 0.41103
 C76 C 0.02912 0.47892 0.37308
 C77 C 0.02760 0.52276 0.37338
 C78 C 0.00901 0.53454 0.41176
 N79 N -0.00104 0.49932 0.43466
 C80 C -0.00088 0.57686 0.42344
 C81 C -0.00926 0.58910 0.46593
 C82 C -0.02531 0.62846 0.47807
 C83 C -0.02578 0.62866 0.52189
 C84 C -0.00937 0.58960 0.53505
 N85 N 0.00042 0.56531 0.50071
 C86 C -0.00194 0.57745 0.57805
 C87 C 0.00611 0.53432 0.58946
 C88 C 0.02588 0.52140 0.62707
 C89 C 0.02629 0.47760 0.62684
 C90 C 0.00685 0.46476 0.58908
 N91 N -0.00491 0.49952 0.56613
 C92 C -0.00083 0.42170 0.57742
 H93 H -0.03801 0.34614 0.54063
 H94 H -0.03531 0.34607 0.45663
 H95 H -0.02315 0.49933 0.53824
 H96 H 0.04211 0.45947 0.34763
 H97 H 0.03882 0.54360 0.34817
 H98 H -0.03558 0.65430 0.45749
 H99 H -0.03695 0.65464 0.54176
 H100 H 0.03977 0.45748 0.65157
 H101 H -0.01918 0.49864 0.46253
 H102 H 0.03909 0.54145 0.65198
 O103 O -0.11025 1.00056 -0.05755
 O104 O 0.10942 0.99831 -0.05812
 O105 O -0.00276 1.05779 -0.10992
 O106 O 0.00042 0.94219 -0.11013
 O107 O 0.00206 0.89010 -0.05794
 O108 O -0.00130 1.10975 -0.05764
 O109 O 0.05716 0.99879 -0.11017
 O110 O -0.05848 1.00153 -0.10987
 Zr111 Zr -0.00051 0.99992 -0.07526
 O112 O 0.03855 0.96121 -0.03897
 O113 O -0.03912 1.03852 -0.03869
 C114 C -0.09794 1.00162 -0.09716
 C115 C 0.09674 0.99789 -0.09770
 C116 C -0.00275 1.09726 -0.09720
 C117 C 0.00192 0.90271 -0.09751
 H118 H 0.05640 1.05666 -0.05697
 O119 O 0.03824 1.03841 -0.03871
 H120 H -0.05694 0.94284 -0.05678
 O121 O -0.03871 0.96115 -0.03859
 O122 O 0.10986 1.00154 0.05768
 O123 O -0.10973 0.99745 0.05802
 O124 O 0.05744 1.10966 0.00124
 O125 O 0.05794 0.89013 -0.00157
 O126 O -0.05749 0.88985 0.00177
 O127 O -0.05805 1.10944 -0.00150
 O128 O 0.00104 1.05746 0.11011
 O129 O -0.00158 0.94192 0.10993
 O130 O 0.00205 1.10952 0.05791
 O131 O -0.00075 0.88992 0.05773
 O132 O 0.10961 1.05771 0.00158
 O133 O -0.11001 1.05733 -0.00143
 O134 O -0.10972 0.94175 0.00145
 O135 O 0.10988 0.94220 -0.00155
 O136 O 0.05800 1.00151 0.10991
 O137 O -0.05755 0.99855 0.11015
 Zr138 Zr 0.07497 0.99989 -0.00013
 Zr139 Zr -0.07518 0.99959 0.00013
 Zr140 Zr -0.00021 1.07483 0.00005
 Zr141 Zr 0.00015 0.92475 -0.00005
 Zr142 Zr 0.00007 0.99977 0.07524
 O143 O -0.03860 0.96093 0.03885
 O144 O 0.03867 1.03852 0.03878
 C145 C 0.09750 1.00236 0.09731
 C146 C -0.09706 0.99719 0.09758
 C147 C 0.09698 1.09721 0.00214
 C148 C 0.09744 0.90265 -0.00225
 C149 C -0.09706 0.90227 0.00238
 C150 C -0.09757 1.09689 -0.00230
 C151 C 0.00232 1.09692 0.09747
 C152 C -0.00183 0.90240 0.09731
 H153 H -0.05692 1.05650 0.05694
 O154 O -0.03868 1.03829 0.03871
 H155 H 0.05702 0.94313 0.05687
 O156 O 0.03869 0.96130 0.03862
 C157 C 0.32655 1.00452 0.32557
 C158 C 0.33882 1.04252 0.34614
 C159 C 0.37049 1.04210 0.37769
 C160 C 0.39067 1.00369 0.38924
 C161 C 0.37811 0.96562 0.36903
 C162 C 0.34650 0.96606 0.33744
 C163 C 0.29303 1.00493 0.29191
 C164 C 0.29756 0.98001 0.25482
 C165 C 0.26598 0.98024 0.22320
 C166 C 0.22908 1.00534 0.22798
 C167 C 0.22455 1.03031 0.26505
 C168 C 0.25620 1.03016 0.29663
 C169 C 0.19535 1.00524 0.19451
 C170 C 0.15196 1.00462 0.20587
 C171 C 0.12023 1.00387 0.17439
 C172 C 0.13114 1.00375 0.13076
 C173 C 0.17459 1.00470 0.11944
 C174 C 0.20629 1.00539 0.15095
 H175 H 0.32436 1.07269 0.33739
 H176 H 0.37961 1.07185 0.39286
 H177 H 0.39250 0.93546 0.37806
 H178 H 0.33718 0.93616 0.32275
 H179 H 0.32577 0.96059 0.25005
 H180 H 0.27019 0.96031 0.19522
 H181 H 0.19669 1.05030 0.26946
 H182 H 0.25158 1.04938 0.32504
 H183 H 0.14253 1.00397 0.23917
 H184 H 0.08713 1.00310 0.18434
 H185 H 0.18424 1.00486 0.08620
 H186 H 0.23943 1.00647 0.14118
 C187 C -0.32617 0.99412 0.32551
 C188 C -0.32254 0.96818 0.36208
 C189 C -0.35377 0.96916 0.39392
 C190 C -0.38987 0.99566 0.38982
 C191 C -0.39379 1.02113 0.35292
 C192 C -0.36221 1.02064 0.32142
 C193 C -0.29244 0.99368 0.29194
 C194 C -0.30308 0.99895 0.24853
 C195 C -0.27136 0.99925 0.21714
 C196 C -0.22815 0.99367 0.22820
 C197 C -0.21757 0.98792 0.27156
 C198 C -0.24922 0.98823 0.30301
 C199 C -0.19432 0.99415 0.19474
 C200 C -0.15383 1.01167 0.20340
 C201 C -0.12212 1.01219 0.17202
 C202 C -0.13034 0.99586 0.13101
 C203 C -0.17073 0.97849 0.12215
 C204 C -0.20223 0.97732 0.15374
 H205 H -0.29583 0.94657 0.36592
 H206 H -0.35022 0.94834 0.42137
 H207 H -0.42080 1.04243 0.34904
 H208 H -0.36574 1.04173 0.29421
 H209 H -0.33601 1.00257 0.23863
 H210 H -0.28077 1.00440 0.18422
 H211 H -0.18478 0.98286 0.28132
 H212 H -0.23964 0.98471 0.33610
 H213 H -0.14676 1.02571 0.23424
 H214 H -0.09139 1.02617 0.17963
 H215 H -0.17780 0.96523 0.09093
 H216 H -0.23264 0.96276 0.14609
 C217 C -0.32666 0.99969 -0.32481
 C218 C -0.33250 0.96333 -0.35054
 C219 C -0.36383 0.96292 -0.38243
 C220 C -0.39006 0.99864 -0.38871
 C221 C -0.38464 1.03484 -0.36292
 C222 C -0.35300 1.03547 -0.33134
 C223 C -0.29312 1.00033 -0.29134
 C224 C -0.26600 1.03580 -0.28698
 C225 C -0.23415 1.03626 -0.25559
 C226 C -0.22919 1.00149 -0.22763
 C227 C -0.25648 0.96613 -0.23184
 C228 C -0.28797 0.96545 -0.26355
 C229 C -0.19565 1.00205 -0.19415
 C230 C -0.20519 0.98946 -0.15213
 C231 C -0.17357 0.98978 -0.12055
 C232 C -0.13159 1.00221 -0.13046
 C233 C -0.12207 1.01474 -0.17257
 C234 C -0.15385 1.01492 -0.20402
 H235 H -0.31237 0.93550 -0.34639
 H236 H -0.36768 0.93481 -0.40224
 H237 H -0.40475 1.06263 -0.36748
 H238 H -0.34940 1.06372 -0.31169
 H239 H -0.26912 1.06295 -0.30821
 H240 H -0.21371 1.06400 -0.25282
 H241 H -0.25309 0.93879 -0.21088
 H242 H -0.30866 0.93786 -0.26607
 H243 H -0.23726 0.97975 -0.14363
 H244 H -0.18193 0.97979 -0.08848
 H245 H -0.09008 1.02458 -0.18120
 H246 H -0.14562 1.02447 -0.23626
 C247 C 0.32492 1.00026 -0.32639
 C248 C 0.32873 0.96657 -0.35595
 C249 C 0.36011 0.96762 -0.38765
 C250 C 0.38835 1.00222 -0.39026
 C251 C 0.38489 1.03581 -0.36088
 C252 C 0.35337 1.03493 -0.32929
 C253 C 0.29143 0.99922 -0.29271
 C254 C 0.30006 1.01444 -0.25128
 C255 C 0.26852 1.01368 -0.21972
 C256 C 0.22761 0.99747 -0.22872
 C257 C 0.21905 0.98206 -0.27009
 C258 C 0.25052 0.98302 -0.30171
 C259 C 0.19396 0.99694 -0.19519
 C260 C 0.15124 1.00613 -0.20564
 C261 C 0.11967 1.00604 -0.17411
 C262 C 0.13008 0.99705 -0.13128
 C263 C 0.17276 0.98772 -0.12083
 C264 C 0.20429 0.98754 -0.15242
 H265 H 0.30785 0.93909 -0.35422
 H266 H 0.36263 0.94133 -0.41001
 H267 H 0.40647 1.06277 -0.36262
 H268 H 0.35094 1.06168 -0.30749
 H269 H 0.33137 1.02663 -0.24308
 H270 H 0.27607 1.02630 -0.18837
 H271 H 0.18807 0.96888 -0.27799
 H272 H 0.24261 0.97151 -0.33339
 H273 H 0.14227 1.01418 -0.23811
 H274 H 0.08718 1.01367 -0.18325
 H275 H 0.18185 0.98028 -0.08823
 H276 H 0.23672 0.97959 -0.14338
 C277 C 0.32496 1.32585 0.00259
 C278 C 0.35514 1.32728 -0.03062
 C279 C 0.38703 1.35844 -0.03097
 C280 C 0.38950 1.38911 0.00184
 C281 C 0.35882 1.38812 0.03466
 C282 C 0.32714 1.35673 0.03517
 C283 C 0.29142 1.29223 0.00325
 C284 C 0.24980 1.30166 0.01717
 C285 C 0.21834 1.27003 0.01777
 C286 C 0.22762 1.22824 0.00420
 C287 C 0.26923 1.21883 -0.00973
 C288 C 0.30076 1.25037 -0.01006
 C289 C 0.19400 1.19470 0.00426
 C290 C 0.20397 1.15231 0.01531
 C291 C 0.17251 1.12067 0.01463
 C292 C 0.13026 1.13075 0.00323
 C293 C 0.12017 1.17318 -0.00741
 C294 C 0.15169 1.20473 -0.00708
 H295 H 0.35379 1.30463 -0.05675
 H296 H 0.40942 1.35906 -0.05734
 H297 H 0.36002 1.41115 0.06050
 H298 H 0.30480 1.35622 0.06155
 H299 H 0.24135 1.33365 0.02717
 H300 H 0.18679 1.27828 0.02921
 H301 H 0.27738 1.18715 -0.02092
 H302 H 0.33260 1.24183 -0.02042
 H303 H 0.23603 1.14361 0.02494
 H304 H 0.18125 1.08837 0.02342
 H305 H 0.08800 1.18196 -0.01667
 H306 H 0.14303 1.23687 -0.01646
 C307 C 0.32510 0.67378 0.00228
 C308 C 0.34691 0.66184 -0.03517
 C309 C 0.37855 0.63042 -0.03382
 C310 C 0.38899 0.61050 0.00496
 C311 C 0.36728 0.62204 0.04234
 C312 C 0.33559 0.65345 0.04105
 C313 C 0.29161 0.70735 0.00090
 C314 C 0.25378 0.70279 0.02458
 C315 C 0.22231 0.73441 0.02334
 C316 C 0.22795 0.77133 -0.00159
 C317 C 0.26577 0.77589 -0.02528
 C318 C 0.29723 0.74424 -0.02408
 C319 C 0.19457 0.80503 -0.00266
 C320 C 0.20589 0.84844 -0.00183
 C321 C 0.17444 0.88012 -0.00206
 C322 C 0.13090 0.86912 -0.00310
 C323 C 0.11965 0.82565 -0.00436
 C324 C 0.15110 0.79401 -0.00413
 H325 H 0.33913 0.67645 -0.06559
 H326 H 0.39496 0.62156 -0.06297
 H327 H 0.37510 0.60686 0.07249
 H328 H 0.31974 0.66230 0.07049
 H329 H 0.24832 0.67454 0.04378
 H330 H 0.19374 0.73017 0.04232
 H331 H 0.27087 0.80377 -0.04511
 H332 H 0.32621 0.74890 -0.04233
 H333 H 0.23909 0.85794 -0.00020
 H334 H 0.18433 0.91324 -0.00100
 H335 H 0.08648 0.81594 -0.00542
 H336 H 0.14138 0.76086 -0.00545
 C337 C -0.32480 0.67342 0.00325
 C338 C -0.35511 0.67073 0.03627
 C339 C -0.38709 0.63968 0.03522
 C340 C -0.38951 0.61037 0.00118
 C341 C -0.35883 0.61272 -0.03156
 C342 C -0.32703 0.64399 -0.03065
 C343 C -0.29114 0.70690 0.00407
 C344 C -0.24954 0.69788 -0.01018
 C345 C -0.21808 0.72951 -0.00991
 C346 C -0.22735 0.77089 0.00486
 C347 C -0.26886 0.77981 0.01940
 C348 C -0.30039 0.74826 0.01888
 C349 C -0.19398 0.80467 0.00475
 C350 C -0.20445 0.84705 -0.00583
 C351 C -0.17309 0.87875 -0.00625
 C352 C -0.13041 0.86879 0.00356
 C353 C -0.11990 0.82645 0.01419
 C354 C -0.15134 0.79481 0.01493
 H355 H -0.35377 0.69228 0.06331
 H356 H -0.40961 0.63804 0.06145
 H357 H -0.36004 0.59081 -0.05836
 H358 H -0.30464 0.64555 -0.05693
 H359 H -0.24115 0.66623 -0.02127
 H360 H -0.18660 0.72165 -0.02183
 H361 H -0.27698 0.81117 0.03151
 H362 H -0.33220 0.75648 0.02959
 H363 H -0.23680 0.85564 -0.01453
 H364 H -0.18222 0.91098 -0.01490
 H365 H -0.08740 0.81777 0.02229
 H366 H -0.14230 0.76267 0.02394
 C367 C -0.32536 1.32560 -0.00717
 C368 C -0.33768 1.34557 -0.04558
 C369 C -0.36930 1.37707 -0.04562
 C370 C -0.38908 1.38908 -0.00732
 C371 C -0.37677 1.36956 0.03111
 C372 C -0.34520 1.33803 0.03120
 C373 C -0.29204 1.29185 -0.00709
 C374 C -0.29673 1.25523 0.01847
 C375 C -0.26534 1.22352 0.01872
 C376 C -0.22850 1.22773 -0.00654
 C377 C -0.22384 1.26431 -0.03216
 C378 C -0.25528 1.29600 -0.03247
 C379 C -0.19497 1.19419 -0.00593
 C380 C -0.15153 1.20538 -0.00562
 C381 C -0.11996 1.17386 -0.00454
 C382 C -0.13108 1.13035 -0.00378
 C383 C -0.17459 1.11919 -0.00432
 C384 C -0.20614 1.15075 -0.00536
 H385 H -0.32332 1.33635 -0.07568
 H386 H -0.37858 1.39195 -0.07551
 H387 H -0.39168 1.37879 0.06095
 H388 H -0.33597 1.32372 0.06135
 H389 H -0.32491 1.25089 0.03801
 H390 H -0.26965 1.19593 0.03913
 H391 H -0.19602 1.26827 -0.05230
 H392 H -0.25056 1.32402 -0.05219
 H393 H -0.14191 1.23859 -0.00551
 H394 H -0.08681 1.18369 -0.00410
 H395 H -0.18439 1.08604 -0.00395
 H396 H -0.23933 1.14111 -0.00616
 C397 C 0.00573 1.32626 0.32553
 C398 C -0.01758 1.36423 0.31963
 C399 C -0.01791 1.39586 0.35113
 C400 C 0.00439 1.39013 0.38985
 C401 C 0.02751 1.35201 0.39581
 C402 C 0.02851 1.32075 0.36396
 C403 C 0.00604 1.29247 0.29193
 C404 C 0.00800 1.24901 0.30318
 C405 C 0.00829 1.21734 0.27172
 C406 C 0.00583 1.22813 0.22811
 C407 C 0.00365 1.27158 0.21686
 C408 C 0.00413 1.30329 0.24830
 C409 C 0.00525 1.19427 0.19458
 C410 C 0.02440 1.20121 0.15446
 C411 C 0.02319 1.16970 0.12282
 C412 C 0.00356 1.13023 0.13084
 C413 C -0.01511 1.12293 0.17095
 C414 C -0.01465 1.15471 0.20231
 H415 H -0.03636 1.36928 0.29098
 H416 H -0.03686 1.42433 0.34577
 H417 H 0.04586 1.34687 0.42478
 H418 H 0.04769 1.29250 0.36934
 H419 H 0.00883 1.23927 0.33638
 H420 H 0.01074 1.18434 0.28172
 H421 H 0.00106 1.28124 0.18373
 H422 H 0.00329 1.33635 0.23825
 H423 H 0.04084 1.23080 0.14756
 H424 H 0.03823 1.17596 0.09228
 H425 H -0.03087 1.09291 0.17780
 H426 H -0.03056 1.14842 0.23235
 C427 C -0.00264 1.32611 -0.32580
 C428 C -0.02532 1.36454 -0.32057
 C429 C -0.02426 1.39614 -0.35210
 C430 C -0.00125 1.38988 -0.39025
 C431 C 0.02136 1.35135 -0.39546
 C432 C 0.02097 1.32012 -0.36357
 C433 C -0.00354 1.29245 -0.29208
 C434 C -0.00189 1.24892 -0.30310
 C435 C -0.00204 1.21738 -0.27149
 C436 C -0.00460 1.22841 -0.22795
 C437 C -0.00685 1.27192 -0.21696
 C438 C -0.00594 1.30348 -0.24854
 C439 C -0.00457 1.19476 -0.19421
 C440 C 0.01509 1.20216 -0.15436
 C441 C 0.01516 1.17068 -0.12271
 C442 C -0.00367 1.13074 -0.13042
 C443 C -0.02307 1.12304 -0.17018
 C444 C -0.02389 1.15483 -0.20156
 H445 H -0.04460 1.37003 -0.29242
 H446 H -0.04267 1.42503 -0.34724
 H447 H 0.04045 1.34586 -0.42380
 H448 H 0.03979 1.29154 -0.36834
 H449 H -0.00078 1.23904 -0.33624
 H450 H 0.00040 1.18434 -0.28129
 H451 H -0.00958 1.28175 -0.18390
 H452 H -0.00663 1.33659 -0.23865
 H453 H 0.03113 1.23204 -0.14774
 H454 H 0.03077 1.17727 -0.09248
 H455 H -0.03819 1.09264 -0.17677
 H456 H -0.04013 1.14817 -0.23140
 C457 C 0.00138 0.67304 -0.32528
 C458 C 0.02431 0.67824 -0.36357
 C459 C 0.02296 0.64704 -0.39544
 C460 C -0.00080 0.60931 -0.38971
 C461 C -0.02309 0.60375 -0.35104
 C462 C -0.02239 0.63536 -0.31949
 C463 C 0.00213 0.70683 -0.29169
 C464 C 0.00022 0.69609 -0.24804
 C465 C 0.00037 0.72785 -0.21664
 C466 C 0.00315 0.77125 -0.22794
 C467 C 0.00554 0.78195 -0.27157
 C468 C 0.00465 0.75024 -0.30298
 C469 C 0.00324 0.80517 -0.19449
 C470 C -0.01620 0.84498 -0.20224
 C471 C -0.01606 0.87683 -0.17096
 C472 C 0.00278 0.86938 -0.13088
 C473 C 0.02200 0.82967 -0.12285
 C474 C 0.02259 0.79807 -0.15442
 H475 H 0.04393 0.70619 -0.36879
 H476 H 0.04158 0.65188 -0.42420
 H477 H -0.04223 0.57543 -0.34575
 H478 H -0.04117 0.63050 -0.29088
 H479 H -0.00106 0.66305 -0.23797
 H480 H -0.00219 0.71828 -0.18348
 H481 H 0.00843 0.81489 -0.28161
 H482 H 0.00549 0.75993 -0.33619
 H483 H -0.03224 0.85141 -0.23224
 H484 H -0.03154 0.90701 -0.17782
 H485 H 0.03715 0.82326 -0.09233
 H486 H 0.03867 0.76827 -0.14750
 C487 C -0.00221 0.67371 0.32583
 C488 C -0.03375 0.64168 0.32668
 C489 C -0.03309 0.61007 0.35822
 C490 C -0.00120 0.61012 0.38970
 C491 C 0.03030 0.64189 0.38912
 C492 C 0.02992 0.67330 0.35738
 C493 C -0.00284 0.70738 0.29225
 C494 C 0.00907 0.74957 0.30201
 C495 C 0.00883 0.78112 0.27041
 C496 C -0.00367 0.77140 0.22830
 C497 C -0.01587 0.72928 0.21862
 C498 C -0.01529 0.69765 0.25014
 C499 C -0.00368 0.80496 0.19460
 C500 C 0.00862 0.79515 0.15249
 C501 C 0.00885 0.82667 0.12087
 C502 C -0.00278 0.86889 0.13069
 C503 C -0.01506 0.87878 0.17275
 C504 C -0.01570 0.84715 0.20428
 H505 H -0.05932 0.64139 0.30335
 H506 H -0.05771 0.58578 0.35841
 H507 H 0.05529 0.64213 0.41312
 H508 H 0.05512 0.69695 0.35728
 H509 H 0.01826 0.75837 0.33421
 H510 H 0.01897 0.81306 0.27892
 H511 H -0.02623 0.72075 0.18669
 H512 H -0.02415 0.66542 0.24133
 H513 H 0.01880 0.76321 0.14404
 H514 H 0.01882 0.81807 0.08886
 H515 H -0.02460 0.91092 0.18126
 H516 H -0.02610 0.85569 0.23615
   
