data_POSCAR
  _audit_creation_date              2014-09-24
  _audit_creation_method            'ToBaCCo'
  _symmetry_space_group_name_H-M    'P1'
  _symmetry_Int_Tables_number       1
  _symmetry_cell_setting            triclinic
  loop_
  _symmetry_equiv_pos_as_xyz
 x,y,z
_cell_length_a 47.8161
_cell_length_b 48.8057
_cell_length_c 48.2440
_cell_angle_alpha 88.435400
_cell_angle_beta 91.484400
_cell_angle_gamma 89.638400
loop_
  _atom_site_label
  _atom_site_type_symbol
  _atom_site_fract_x
  _atom_site_fract_y
  _atom_site_fract_z
N1 N 0.60019 0.66947 0.60412
 N2 N 0.59058 0.65901 0.62735
 C3 C 0.56980 0.67518 0.63603
 C4 C 0.56614 0.69695 0.61719
 C5 C 0.58586 0.69257 0.59721
 H6 H 0.55797 0.67121 0.65447
 H7 H 0.58972 0.70532 0.57906
 Cu8 Cu 0.60596 0.62505 0.64365
 Cu9 Cu 0.63058 0.65249 0.58453
 Cu10 Cu 0.65837 0.59203 0.61323
 N11 N 0.62171 0.59106 0.65952
 N12 N 0.64197 0.57813 0.64734
 C13 C 0.64871 0.55521 0.66220
 C14 C 0.63180 0.55353 0.68519
 C15 C 0.61491 0.57683 0.68266
 H16 H 0.66489 0.54101 0.65659
 H17 H 0.59871 0.58297 0.69642
 N18 N 0.67211 0.60936 0.57884
 N19 N 0.66143 0.63228 0.56785
 C20 C 0.67530 0.63895 0.54471
 C21 C 0.69580 0.61934 0.54093
 C22 C 0.69312 0.60089 0.56301
 H23 H 0.67112 0.65705 0.53183
 H24 H 0.70550 0.58259 0.56722
 H25 H 0.62309 0.61285 0.59841
 H26 H 0.64911 0.63289 0.61889
 N27 N 0.90554 0.33062 0.11027
 N28 N 0.91888 0.34093 0.13166
 C29 C 0.94111 0.32486 0.13859
 C30 C 0.94181 0.30310 0.12058
 C31 C 0.91874 0.30762 0.10287
 H32 H 0.95543 0.32866 0.15570
 H33 H 0.91189 0.29526 0.08579
 Cu34 Cu 0.90567 0.37403 0.14893
 Cu35 Cu 0.87206 0.34769 0.09358
 Cu36 Cu 0.84684 0.40570 0.12456
 N37 N 0.89028 0.40589 0.16675
 N38 N 0.86743 0.41824 0.15705
 C39 C 0.86141 0.43937 0.17326
 C40 C 0.88150 0.44033 0.19441
 C41 C 0.89949 0.41870 0.18958
 H42 H 0.84342 0.45273 0.17012
 H43 H 0.91795 0.41277 0.20173
 N44 N 0.82888 0.38992 0.09151
 N45 N 0.83851 0.36785 0.07968
 C46 C 0.82184 0.36224 0.05765
 C47 C 0.80061 0.38168 0.05550
 C48 C 0.80579 0.39889 0.07738
 H49 H 0.82479 0.34509 0.04432
 H50 H 0.79380 0.41681 0.08249
 H51 H 0.88023 0.38708 0.10602
 H52 H 0.85905 0.36509 0.12974
 N53 N 0.39847 0.17294 -0.11973
 N54 N 0.41050 0.15943 -0.13942
 C55 C 0.43269 0.17375 -0.14828
 C56 C 0.43477 0.19754 -0.13331
 C57 C 0.41259 0.19626 -0.11538
 H58 H 0.44630 0.16731 -0.16444
 H59 H 0.40733 0.21092 -0.09993
 Cu60 Cu 0.39620 0.12431 -0.15138
 Cu61 Cu 0.36595 0.15893 -0.10061
 Cu62 Cu 0.34002 0.09633 -0.12133
 N63 N 0.38040 0.08995 -0.16376
 N64 N 0.35863 0.07900 -0.15176
 C65 C 0.35181 0.05568 -0.16448
 C66 C 0.37025 0.05175 -0.18574
 C67 C 0.38812 0.07397 -0.18460
 H68 H 0.33430 0.04291 -0.15902
 H69 H 0.40542 0.07826 -0.19797
 N70 N 0.32397 0.11711 -0.09104
 N71 N 0.33332 0.14131 -0.08369
 C72 C 0.31754 0.15059 -0.06316
 C73 C 0.29742 0.13123 -0.05716
 C74 C 0.30216 0.11026 -0.07521
 H75 H 0.32070 0.16983 -0.05299
 H76 H 0.29027 0.09160 -0.07697
 H77 H 0.37414 0.11796 -0.10664
 H78 H 0.35074 0.13590 -0.13300
 N79 N 0.09025 0.83140 0.39258
 N80 N 0.07816 0.84512 0.37172
 C81 C 0.05532 0.83141 0.36309
 C82 C 0.05289 0.80765 0.37941
 C83 C 0.07563 0.80848 0.39790
 H84 H 0.04173 0.83822 0.34602
 H85 H 0.08119 0.79374 0.41425
 Cu86 Cu 0.09356 0.87936 0.35741
 Cu87 Cu 0.12374 0.84445 0.41163
 Cu88 Cu 0.15291 0.90437 0.38589
 N89 N 0.11118 0.91226 0.34251
 N90 N 0.13427 0.92193 0.35373
 C91 C 0.14188 0.94460 0.33940
 C92 C 0.12255 0.94946 0.31790
 C93 C 0.10336 0.92843 0.32055
 H94 H 0.16034 0.95643 0.34413
 H95 H 0.08499 0.92520 0.30757
 N96 N 0.16872 0.88368 0.41829
 N97 N 0.15755 0.86090 0.42816
 C98 C 0.17280 0.85187 0.45046
 C99 C 0.19472 0.86979 0.45487
 C100 C 0.19143 0.88970 0.43401
 H101 H 0.16838 0.83351 0.46252
 H102 H 0.20438 0.90750 0.43076
 H103 H 0.11793 0.88564 0.40185
 H104 H 0.13896 0.86538 0.37739
 N105 N 0.12355 0.12372 0.12737
 N106 N 0.38348 0.87590 0.63499
 N107 N 0.88587 0.61761 0.37253
 N108 N 0.61351 0.37926 -0.12648
 C109 C -0.04166 0.25993 0.10147
 C110 C -0.02251 0.23819 0.10156
 C111 C 0.00040 0.23726 0.12026
 C112 C 0.00354 0.25834 0.13934
 C113 C -0.01569 0.28003 0.13942
 C114 C -0.03865 0.28127 0.12045
 C115 C 0.01986 0.21352 0.11998
 C116 C 0.04668 0.21463 0.12870
 C117 C 0.06603 0.19082 0.12817
 C118 C 0.09484 0.19551 0.12607
 C119 C 0.11371 0.17353 0.12566
 C120 C 0.10412 0.14645 0.12768
 C121 C 0.07538 0.14172 0.13032
 C122 C 0.05648 0.16365 0.13058
 H123 H -0.05889 0.25962 0.08654
 H124 H -0.02555 0.22205 0.08682
 H125 H 0.02048 0.25791 0.15465
 H126 H -0.01232 0.29569 0.15453
 H127 H 0.01203 0.19492 0.11093
 H128 H 0.05534 0.23397 0.13512
 H129 H 0.10275 0.21623 0.12453
 H130 H 0.13584 0.17760 0.12398
 H131 H 0.06760 0.12097 0.13206
 H132 H 0.03455 0.15924 0.13314
 C133 C 0.54006 0.73669 0.59446
 C134 C 0.52057 0.75808 0.59520
 C135 C 0.50594 0.76305 0.61941
 C136 C 0.51166 0.74635 0.64318
 C137 C 0.53114 0.72491 0.64242
 C138 C 0.54553 0.71976 0.61804
 C139 C 0.48547 0.78609 0.61892
 C140 C 0.46528 0.78891 0.63747
 C141 C 0.44466 0.81178 0.63622
 C142 C 0.43177 0.81928 0.66073
 C143 C 0.41189 0.84042 0.66039
 C144 C 0.40427 0.85428 0.63543
 C145 C 0.41692 0.84665 0.61083
 C146 C 0.43683 0.82557 0.61115
 H147 H 0.55058 0.73333 0.57526
 H148 H 0.51674 0.77067 0.57663
 H149 H 0.50164 0.74991 0.66259
 H150 H 0.53514 0.71263 0.66113
 H151 H 0.48709 0.80113 0.60214
 H152 H 0.46362 0.77424 0.65452
 H153 H 0.43719 0.80881 0.68024
 H154 H 0.40218 0.84578 0.67954
 H155 H 0.41130 0.85705 0.59135
 H156 H 0.44551 0.81984 0.59165
 C157 C 1.00917 0.79034 0.35873
 C158 C 0.98844 0.77034 0.35722
 C159 C 0.99015 0.74660 0.37418
 C160 C 1.01276 0.74347 0.39320
 C161 C 1.03339 0.76355 0.39493
 C162 C 1.03204 0.78734 0.37766
 C163 C 0.96754 0.72608 0.37226
 C164 C 0.97162 0.69933 0.37818
 C165 C 0.94902 0.67880 0.37625
 C166 C 0.95603 0.65152 0.37090
 C167 C 0.93531 0.63151 0.36940
 C168 C 0.90722 0.63835 0.37368
 C169 C 0.90019 0.66555 0.37938
 C170 C 0.92086 0.68562 0.38066
 H171 H 1.00685 0.80821 0.34511
 H172 H 0.97105 0.77335 0.34259
 H173 H 1.01433 0.72580 0.40721
 H174 H 1.05033 0.76012 0.40991
 H175 H 0.94728 0.73316 0.36436
 H176 H 0.99253 0.69182 0.38331
 H177 H 0.97759 0.64571 0.36772
 H178 H 0.94118 0.61058 0.36525
 H179 H 0.87865 0.67121 0.38280
 H180 H 0.91479 0.70626 0.38565
 C181 C 0.48036 0.21523 -0.15116
 C182 C 0.50083 0.23548 -0.15288
 C183 C 0.49795 0.26009 -0.13884
 C184 C 0.47370 0.26436 -0.12358
 C185 C 0.45321 0.24412 -0.12187
 C186 C 0.45634 0.21922 -0.13550
 C187 C 0.52028 0.28092 -0.14119
 C188 C 0.52500 0.30010 -0.12225
 C189 C 0.54788 0.32041 -0.12411
 C190 C 0.55769 0.33253 -0.09969
 C191 C 0.57918 0.35177 -0.10046
 C192 C 0.59116 0.35949 -0.12574
 C193 C 0.58112 0.34771 -0.15026
 C194 C 0.55963 0.32844 -0.14952
 H195 H 0.48364 0.19638 -0.16192
 H196 H 0.51917 0.23175 -0.16498
 H197 H 0.47016 0.28344 -0.11329
 H198 H 0.43481 0.24821 -0.11004
 H199 H 0.53426 0.27920 -0.15835
 H200 H 0.51271 0.30013 -0.10372
 H201 H 0.54883 0.32694 -0.07990
 H202 H 0.58640 0.36081 -0.08134
 H203 H 0.59003 0.35339 -0.16998
 H204 H 0.55208 0.32028 -0.16891
 C205 C 0.13989 -0.00506 0.30016
 C206 C 0.13995 0.01621 0.28018
 C207 C 0.12293 0.01505 0.25613
 C208 C 0.10528 -0.00764 0.25274
 C209 C 0.10515 -0.02890 0.27277
 C210 C 0.12254 -0.02793 0.29668
 C211 C 0.12363 0.03820 0.23561
 C212 C 0.11638 0.03590 0.20872
 C213 C 0.11794 0.05898 0.18819
 C214 C 0.12097 0.05313 0.16009
 C215 C 0.12277 0.07430 0.14014
 C216 C 0.12134 0.10178 0.14789
 C217 C 0.11762 0.10769 0.17587
 C218 C 0.11586 0.08654 0.19584
 H219 H 0.15329 -0.00335 0.31843
 H220 H 0.15350 0.03359 0.28347
 H221 H 0.09119 -0.00893 0.23493
 H222 H 0.09148 -0.04611 0.26935
 H223 H 0.13195 0.05740 0.24279
 H224 H 0.11066 0.01607 0.20092
 H225 H 0.12226 0.03209 0.15359
 H226 H 0.12521 0.06931 0.11860
 H227 H 0.11627 0.12875 0.18224
 H228 H 0.11253 0.09191 0.21711
 C229 C 0.64956 0.50978 -0.29481
 C230 C 0.64945 0.48931 -0.27399
 C231 C 0.63161 0.49115 -0.25150
 C232 C 0.61408 0.51430 -0.25005
 C233 C 0.61404 0.53474 -0.27093
 C234 C 0.63177 0.53286 -0.29373
 C235 C 0.63267 0.46896 -0.22979
 C236 C 0.61247 0.46454 -0.21139
 C237 C 0.61354 0.44225 -0.18979
 C238 C 0.58858 0.43454 -0.17709
 C239 C 0.58854 0.41392 -0.15642
 C240 C 0.61353 0.40056 -0.14791
 C241 C 0.63857 0.40836 -0.16040
 C242 C 0.63866 0.42908 -0.18097
 H243 H 0.66363 0.50716 -0.31171
 H244 H 0.66337 0.47185 -0.27556
 H245 H 0.60066 0.51713 -0.23266
 H246 H 0.60022 0.55210 -0.26876
 H247 H 0.65040 0.45511 -0.22997
 H248 H 0.59363 0.47692 -0.21271
 H249 H 0.56898 0.44450 -0.18321
 H250 H 0.56901 0.40853 -0.14687
 H251 H 0.65811 0.39836 -0.15420
 H252 H 0.65854 0.43487 -0.18944
 C253 C 0.35406 1.00565 0.79864
 C254 C 0.35372 0.98467 0.77949
 C255 C 0.36970 0.98660 0.75554
 C256 C 0.38580 1.01025 0.75094
 C257 C 0.38616 1.03123 0.77010
 C258 C 0.37027 1.02922 0.79418
 C259 C 0.36806 0.96417 0.73542
 C260 C 0.38787 0.95932 0.71693
 C261 C 0.38605 0.93719 0.69648
 C262 C 0.41077 0.92789 0.68467
 C263 C 0.40997 0.90765 0.66474
 C264 C 0.38436 0.89642 0.65602
 C265 C 0.35958 0.90576 0.66771
 C266 C 0.36035 0.92601 0.68764
 H267 H 0.34165 1.00325 0.81696
 H268 H 0.34096 0.96679 0.78345
 H269 H 0.39765 1.01305 0.73229
 H270 H 0.39852 1.04922 0.76566
 H271 H 0.35032 0.95059 0.73682
 H272 H 0.40685 0.97126 0.71732
 H273 H 0.43080 0.93634 0.69087
 H274 H 0.42932 0.90099 0.65580
 H275 H 0.33959 0.89740 0.66128
 H276 H 0.34072 0.93317 0.69552
 C277 C 0.90007 0.45422 0.24109
 C278 C 0.90128 0.47254 0.26286
 C279 C 0.88586 0.49710 0.26130
 C280 C 0.86871 0.50276 0.23768
 C281 C 0.86740 0.48439 0.21597
 C282 C 0.88310 0.45992 0.21738
 C283 C 0.88735 0.51572 0.28506
 C284 C 0.88236 0.54276 0.28255
 C285 C 0.88376 0.56142 0.30628
 C286 C 0.88896 0.58933 0.30110
 C287 C 0.88989 0.60770 0.32281
 C288 C 0.88528 0.59855 0.35015
 C289 C 0.87981 0.57068 0.35537
 C290 C 0.87898 0.55227 0.33368
 H291 H 0.91218 0.43544 0.24310
 H292 H 0.91440 0.46754 0.28096
 H293 H 0.85583 0.52107 0.23605
 H294 H 0.85411 0.48950 0.19806
 H295 H 0.89410 0.50689 0.30497
 H296 H 0.87835 0.55201 0.26217
 H297 H 0.89241 0.59695 0.28017
 H298 H 0.89386 0.62915 0.31827
 H299 H 0.87617 0.56320 0.37629
 H300 H 0.87405 0.53109 0.33842
 C301 C 0.26614 0.15809 -0.02689
 C302 C 0.24529 0.15940 -0.00717
 C303 C 0.23390 0.13533 0.00422
 C304 C 0.24324 0.10985 -0.00500
 C305 C 0.26379 0.10854 -0.02502
 C306 C 0.27556 0.13264 -0.03606
 C307 C 0.21173 0.13744 0.02490
 C308 C 0.20856 0.11874 0.04542
 C309 C 0.18659 0.12088 0.06630
 C310 C 0.19177 0.10985 0.09310
 C311 C 0.17131 0.11111 0.11319
 C312 C 0.14495 0.12291 0.10672
 C313 C 0.13967 0.13366 0.07974
 C314 C 0.16028 0.13275 0.05975
 H315 H 0.27455 0.17703 -0.03527
 H316 H 0.23821 0.17927 -0.00060
 H317 H 0.23435 0.09091 0.00284
 H318 H 0.27062 0.08863 -0.03163
 H319 H 0.19870 0.15570 0.02405
 H320 H 0.22346 0.10199 0.04799
 H321 H 0.21182 0.10048 0.09857
 H322 H 0.17609 0.10288 0.13384
 H323 H 0.11943 0.14245 0.07400
 H324 H 0.15533 0.14072 0.03904
 C325 C 0.71255 0.63496 0.49425
 C326 C 0.73217 0.63456 0.47329
 C327 C 0.75629 0.61812 0.47621
 C328 C 0.76000 0.60140 0.50025
 C329 C 0.74032 0.60170 0.52117
 C330 C 0.71644 0.61863 0.51851
 C331 C 0.77664 0.61850 0.45354
 C332 C 0.80388 0.61246 0.45758
 C333 C 0.82447 0.61373 0.43513
 C334 C 0.85276 0.61783 0.44221
 C335 C 0.87285 0.61915 0.42171
 C336 C 0.86510 0.61610 0.39370
 C337 C 0.83687 0.61156 0.38660
 C338 C 0.81674 0.61031 0.40708
 H339 H 0.69424 0.64794 0.49125
 H340 H 0.72863 0.64738 0.45483
 H341 H 0.77786 0.58777 0.50289
 H342 H 0.74403 0.58881 0.53951
 H343 H 0.76910 0.62563 0.43324
 H344 H 0.81193 0.60797 0.47840
 H345 H 0.85931 0.62023 0.46366
 H346 H 0.89454 0.62237 0.42769
 H347 H 0.83043 0.60911 0.36514
 H348 H 0.79530 0.60626 0.40087
 C349 C 0.75412 0.40063 0.03847
 C350 C 0.73232 0.40246 0.01862
 C351 C 0.73317 0.38727 -0.00561
 C352 C 0.75666 0.37052 -0.00986
 C353 C 0.77845 0.36865 0.01001
 C354 C 0.77743 0.38364 0.03444
 C355 C 0.70968 0.39017 -0.02622
 C356 C 0.70360 0.37134 -0.04519
 C357 C 0.68002 0.37413 -0.06571
 C358 C 0.66972 0.35041 -0.07813
 C359 C 0.64786 0.35207 -0.09790
 C360 C 0.63595 0.37754 -0.10584
 C361 C 0.64633 0.40133 -0.09362
 C362 C 0.66823 0.39971 -0.07387
 H363 H 0.75248 0.41239 0.05704
 H364 H 0.71460 0.41569 0.02233
 H365 H 0.75868 0.35923 -0.02869
 H366 H 0.79627 0.35576 0.00591
 H367 H 0.69622 0.40793 -0.02465
 H368 H 0.71546 0.35239 -0.04505
 H369 H 0.67858 0.33049 -0.07247
 H370 H 0.64040 0.33348 -0.10726
 H371 H 0.63747 0.42120 -0.09945
 H372 H 0.67608 0.41858 -0.06552
 C373 C 0.21344 0.85096 0.50067
 C374 C 0.23408 0.84956 0.52171
 C375 C 0.25839 0.86540 0.51987
 C376 C 0.26187 0.88234 0.49615
 C377 C 0.24118 0.88380 0.47514
 C378 C 0.21668 0.86819 0.47717
 C379 C 0.27982 0.86296 0.54264
 C380 C 0.29926 0.88206 0.54758
 C381 C 0.32058 0.87973 0.57046
 C382 C 0.33384 0.90366 0.57935
 C383 C 0.35433 0.90244 0.60053
 C384 C 0.36212 0.87721 0.61323
 C385 C 0.34909 0.85321 0.60422
 C386 C 0.32865 0.85439 0.58298
 H387 H 0.19483 0.83872 0.50306
 H388 H 0.23094 0.83616 0.53962
 H389 H 0.28070 0.89413 0.49335
 H390 H 0.24467 0.89689 0.45712
 H391 H 0.27848 0.84526 0.55652
 H392 H 0.29896 0.90092 0.53526
 H393 H 0.32829 0.92340 0.56989
 H394 H 0.36434 0.92118 0.60686
 H395 H 0.35480 0.83351 0.61365
 H396 H 0.31970 0.83534 0.57621
   
