data_POSCAR
  _audit_creation_date              2014-09-24
  _audit_creation_method            'ToBaCCo'
  _symmetry_space_group_name_H-M    'P1'
  _symmetry_Int_Tables_number       1
  _symmetry_cell_setting            triclinic
  loop_
  _symmetry_equiv_pos_as_xyz
 x,y,z
_cell_length_a 65.5796
_cell_length_b 65.7152
_cell_length_c 49.7108
_cell_angle_alpha 90.043700
_cell_angle_beta 89.982300
_cell_angle_gamma 120.137500
loop_
  _atom_site_label
  _atom_site_type_symbol
  _atom_site_fract_x
  _atom_site_fract_y
  _atom_site_fract_z
C1 C 0.04151 0.52988 0.06666
 C2 C 0.04144 0.50898 0.06660
 C3 C 0.03117 0.49788 0.04255
 N4 N 0.02492 0.51122 0.02795
 C5 C 0.03129 0.53081 0.04264
 C6 C 0.02981 0.47697 0.03320
 C7 C 0.01639 0.46463 0.01047
 C8 C 0.01899 0.44787 -0.00360
 C9 C 0.00213 0.43945 -0.02349
 C10 C -0.01058 0.45103 -0.02071
 N11 N -0.00161 0.46650 -0.00008
 C12 C -0.03042 0.44678 -0.03636
 C13 C -0.03820 0.46337 -0.03720
 C14 C -0.06075 0.45820 -0.04434
 C15 C -0.06066 0.47905 -0.04430
 C16 C -0.03807 0.49636 -0.03713
 N17 N -0.02439 0.48671 -0.03238
 C18 C -0.03013 0.52078 -0.03617
 C19 C -0.01022 0.53628 -0.02052
 C20 C 0.00263 0.56060 -0.02322
 C21 C 0.01948 0.56894 -0.00333
 C22 C 0.01673 0.54949 0.01067
 N23 N -0.00135 0.52966 0.00006
 C24 C 0.03006 0.55046 0.03340
 H25 H 0.04867 0.54308 0.08236
 H26 H 0.04853 0.50285 0.08224
 H27 H -0.00875 0.51278 0.00808
 H28 H 0.03182 0.44240 -0.00004
 H29 H -0.00038 0.42634 -0.03834
 H30 H -0.07577 0.44112 -0.04890
 H31 H -0.07561 0.48122 -0.04881
 H32 H 0.03240 0.58722 0.00030
 H33 H -0.00889 0.47607 0.00799
 H34 H 0.00021 0.57127 -0.03801
 C35 C 0.47959 0.53801 0.04813
 C36 C 0.45875 0.51701 0.04857
 C37 C 0.46336 0.50039 0.03744
 N38 N 0.48628 0.51051 0.03023
 C39 C 0.49622 0.53351 0.03675
 C40 C 0.44701 0.47603 0.03603
 C41 C 0.45125 0.46015 0.02130
 C42 C 0.43814 0.43584 0.02343
 C43 C 0.44714 0.42691 0.00483
 C44 C 0.46547 0.44603 -0.00812
 N45 N 0.46780 0.46619 0.00195
 C46 C 0.47851 0.44461 -0.02988
 C47 C 0.49971 0.46408 -0.03907
 C48 C 0.51024 0.46495 -0.06351
 C49 C 0.53103 0.48594 -0.06409
 C50 C 0.53277 0.49707 -0.03973
 N51 N 0.51343 0.48373 -0.02454
 C52 C 0.55245 0.51871 -0.03138
 C53 C 0.55074 0.53192 -0.00975
 C54 C 0.56974 0.54951 0.00432
 C55 C 0.56069 0.55838 0.02286
 C56 C 0.53640 0.54577 0.01997
 N57 N 0.53044 0.52969 0.00006
 C58 C 0.52054 0.54998 0.03484
 H59 H 0.48226 0.55463 0.05567
 H60 H 0.44216 0.51424 0.05647
 H61 H 0.51368 0.51939 -0.00810
 H62 H 0.42352 0.42559 0.03688
 H63 H 0.44078 0.40845 0.00110
 H64 H 0.50355 0.45187 -0.07935
 H65 H 0.54343 0.49229 -0.08063
 H66 H 0.57083 0.57238 0.03706
 H67 H 0.47834 0.48293 -0.00601
 H68 H 0.58823 0.55526 0.00170
 C69 C 0.46495 0.95146 0.06225
 C70 C 0.48585 0.95147 0.06235
 C71 C 0.49808 0.96366 0.03959
 N72 N 0.48534 0.97103 0.02556
 C73 C 0.46510 0.96366 0.03943
 C74 C 0.51994 0.96645 0.03124
 C75 C 0.53343 0.98153 0.01004
 C76 C 0.55217 0.98118 -0.00240
 C77 C 0.56110 0.99902 -0.02106
 C78 C 0.54760 1.00981 -0.01947
 N79 N 0.53088 0.99915 -0.00032
 C80 C 0.55165 1.02965 -0.03473
 C81 C 0.53539 1.03775 -0.03666
 C82 C 0.53999 1.05841 -0.04927
 C83 C 0.51936 1.05889 -0.04897
 C84 C 0.50273 1.03860 -0.03587
 N85 N 0.51262 1.02563 -0.02862
 C86 C 0.47833 1.03105 -0.03355
 C87 C 0.46214 1.01043 -0.01928
 C88 C 0.43774 1.00030 -0.01972
 C89 C 0.42874 0.98211 -0.00153
 C90 C 0.44779 0.98170 0.00988
 N91 N 0.46804 0.99905 -0.00090
 C92 C 0.44612 0.96653 0.03101
 H93 H 0.45117 0.94331 0.07722
 H94 H 0.49135 0.94332 0.07741
 H95 H 0.48487 1.00459 0.00631
 H96 H 0.55874 0.96930 0.00156
 H97 H 0.57591 1.00356 -0.03426
 H98 H 0.55638 1.07155 -0.05831
 H99 H 0.51692 1.07240 -0.05822
 H100 H 0.41025 0.97081 0.00318
 H101 H 0.52002 1.00510 0.00720
 H102 H 0.42733 1.00571 -0.03132
 C103 C 0.93983 0.46062 0.54640
 C104 C 0.93975 0.48145 0.54646
 C105 C 0.96116 0.49824 0.53567
 N106 N 0.97428 0.48842 0.52898
 C107 C 0.96128 0.46543 0.53558
 C108 C 0.96926 0.52257 0.53457
 C109 C 0.98964 0.53851 0.52017
 C110 C 1.00177 0.56269 0.52377
 C111 C 1.01979 0.57182 0.50526
 C112 C 1.01792 0.55298 0.49054
 N113 N 0.99959 0.53271 0.49995
 C114 C 1.03236 0.55467 0.46844
 C115 C 1.03352 0.53479 0.45947
 C116 C 1.04066 0.53234 0.43400
 C117 C 1.04076 0.51158 0.43397
 C118 C 1.03369 0.50195 0.45942
 N119 N 1.02891 0.51600 0.47494
 C120 C 1.03271 0.48099 0.46834
 C121 C 1.01830 0.46811 0.49041
 C122 C 1.02030 0.45120 0.50505
 C123 C 1.00225 0.44212 0.52352
 C124 C 0.98998 0.45400 0.51998
 N125 N 0.99987 0.46983 0.49983
 C126 C 0.96954 0.44934 0.53438
 H127 H 0.92587 0.44393 0.55390
 H128 H 0.92573 0.48402 0.55402
 H129 H 0.99303 0.47958 0.49119
 H130 H 0.99812 0.57269 0.53834
 H131 H 1.03281 0.59026 0.50301
 H132 H 1.04514 0.54421 0.41710
 H133 H 1.04534 0.50429 0.41705
 H134 H 0.99868 0.42846 0.53804
 H135 H 0.99286 0.51613 0.49126
 H136 H 1.03343 0.44595 0.50278
 C137 C 0.53966 0.48217 0.55077
 C138 C 0.51878 0.46121 0.55072
 C139 C 0.50228 0.46544 0.53848
 N140 N 0.51236 0.48827 0.53110
 C141 C 0.53524 0.49852 0.53855
 C142 C 0.47802 0.44872 0.53602
 C143 C 0.46222 0.45246 0.52036
 C144 C 0.43785 0.43874 0.52153
 C145 C 0.42902 0.44746 0.50250
 C146 C 0.44824 0.46625 0.49023
 N147 N 0.46840 0.46907 0.50110
 C148 C 0.44679 0.47950 0.46870
 C149 C 0.46596 0.50121 0.46013
 C150 C 0.46610 0.51308 0.43702
 C151 C 0.48702 0.53401 0.43700
 C152 C 0.49898 0.53426 0.46011
 N153 N 0.48605 0.51421 0.47425
 C154 C 0.52069 0.55348 0.46865
 C155 C 0.53400 0.55218 0.49024
 C156 C 0.55272 0.57145 0.50256
 C157 C 0.56152 0.56276 0.52166
 C158 C 0.54794 0.53843 0.52048
 N159 N 0.53132 0.53213 0.50115
 C160 C 0.55182 0.52278 0.53618
 H161 H 0.55618 0.48507 0.55904
 H162 H 0.51604 0.44478 0.55894
 H163 H 0.52046 0.51520 0.49388
 H164 H 0.42750 0.42396 0.53469
 H165 H 0.41054 0.44068 0.49816
 H166 H 0.45249 0.50733 0.42184
 H167 H 0.49269 0.54757 0.42180
 H168 H 0.57628 0.57319 0.53487
 H169 H 0.48534 0.48003 0.49385
 H170 H 0.55938 0.58986 0.49820
 C171 C 0.45931 -0.05880 0.45285
 C172 C 0.48006 -0.05900 0.45286
 C173 C 0.49762 -0.03648 0.45981
 N174 N 0.48822 -0.02257 0.46446
 C175 C 0.46478 -0.03617 0.45980
 C176 C 0.52204 -0.02881 0.46063
 C177 C 0.53781 -0.00893 0.47611
 C178 C 0.56217 0.00363 0.47327
 C179 C 0.57078 0.02060 0.49300
 C180 C 0.55145 0.01822 0.50704
 N181 N 0.53143 0.00023 0.49663
 C182 C 0.55269 0.03180 0.52964
 C183 C 0.53317 0.03330 0.53895
 C184 C 0.53248 0.04374 0.56291
 C185 C 0.51165 0.04390 0.56295
 C186 C 0.50035 0.03355 0.53901
 N187 N 0.51350 0.02703 0.52439
 C188 C 0.47945 0.03235 0.52976
 C189 C 0.46693 0.01893 0.50712
 C190 C 0.45022 0.02167 0.49309
 C191 C 0.44155 0.00474 0.47332
 C192 C 0.45294 -0.00815 0.47613
 N193 N 0.46854 0.00077 0.49666
 C194 C 0.44838 -0.02813 0.46063
 H195 H 0.44209 -0.07370 0.44845
 H196 H 0.48200 -0.07407 0.44847
 H197 H 0.47800 -0.00661 0.50475
 H198 H 0.57270 0.00095 0.45847
 H199 H 0.58917 0.03336 0.49649
 H200 H 0.54580 0.05089 0.57850
 H201 H 0.50571 0.05118 0.57857
 H202 H 0.42841 0.00229 0.45852
 H203 H 0.51456 -0.00690 0.50473
 H204 H 0.44494 0.03463 0.49661
 O205 O 0.22773 0.41769 0.27760
 O206 O 0.18767 0.41725 0.22508
 O207 O 0.22754 0.41714 0.22520
 O208 O 0.18784 0.41768 0.27754
 O209 O 0.20755 0.45648 0.27697
 O210 O 0.24696 0.45594 0.22486
 O211 O 0.20739 0.45606 0.22478
 O212 O 0.24716 0.45649 0.27701
 Cu213 Cu 0.20571 0.41352 0.25139
 Cu214 Cu 0.22920 0.46010 0.25085
 C215 C 0.24439 0.43724 0.28619
 C216 C 0.19067 0.43666 0.21604
 C217 C 0.24415 0.43652 0.21620
 C218 C 0.19090 0.43724 0.28614
 O219 O 0.58128 0.76999 0.22335
 O220 O 0.58175 0.81055 0.27507
 O221 O 0.58146 0.77058 0.27576
 O222 O 0.58129 0.80981 0.22267
 O223 O 0.54240 0.79026 0.22311
 O224 O 0.54258 0.75137 0.27593
 O225 O 0.54286 0.79105 0.27527
 O226 O 0.54240 0.75072 0.22376
 Cu227 Cu 0.58537 0.79219 0.24919
 Cu228 Cu 0.53869 0.76892 0.24955
 C229 C 0.56171 0.75333 0.21480
 C230 C 0.56232 0.80779 0.28391
 C231 C 0.56197 0.75417 0.28483
 C232 C 0.56173 0.80677 0.21391
 O233 O 0.18720 0.77163 0.27591
 O234 O 0.22707 0.81057 0.22278
 O235 O 0.18718 0.77058 0.22347
 O236 O 0.22707 0.81167 0.27516
 O237 O 0.24649 0.79233 0.27602
 O238 O 0.20688 0.75153 0.22459
 O239 O 0.24648 0.79123 0.22389
 O240 O 0.20694 0.75261 0.27675
 Cu241 Cu 0.20515 0.79304 0.24923
 Cu242 Cu 0.22864 0.77001 0.25041
 C243 C 0.19025 0.75537 0.28534
 C244 C 0.24370 0.80759 0.21435
 C245 C 0.19020 0.75395 0.21526
 C246 C 0.24371 0.80906 0.28432
 O247 O 0.81143 0.58359 0.72548
 O248 O 0.77166 0.58332 0.77830
 O249 O 0.81168 0.58355 0.77787
 O250 O 0.77145 0.58349 0.72587
 O251 O 0.75218 0.54468 0.72585
 O252 O 0.79214 0.54474 0.77760
 O253 O 0.75242 0.54451 0.77802
 O254 O 0.79185 0.54478 0.72545
 Cu255 Cu 0.79350 0.58740 0.75189
 Cu256 Cu 0.77021 0.54082 0.75171
 C257 C 0.80848 0.56416 0.71655
 C258 C 0.75515 0.56379 0.78712
 C259 C 0.80883 0.56409 0.78652
 C260 C 0.75484 0.56401 0.71707
 O261 O 0.41960 0.22912 0.72373
 O262 O 0.41998 0.18892 0.77533
 O263 O 0.41967 0.22856 0.77613
 O264 O 0.41988 0.18944 0.72290
 O265 O 0.45876 0.20927 0.72294
 O266 O 0.45856 0.24812 0.77593
 O267 O 0.45887 0.20874 0.77512
 O268 O 0.45848 0.24868 0.72376
 Cu269 Cu 0.41586 0.20702 0.74952
 Cu270 Cu 0.46254 0.23066 0.74942
 C271 C 0.43904 0.24588 0.71503
 C272 C 0.43955 0.19194 0.78397
 C273 C 0.43915 0.24512 0.78504
 C274 C 0.43942 0.19263 0.71391
 O275 O 0.77104 0.18851 0.72197
 O276 O 0.81094 0.22770 0.77491
 O277 O 0.77082 0.18789 0.77440
 O278 O 0.81105 0.22840 0.72254
 O279 O 0.79158 0.24769 0.72317
 O280 O 0.75166 0.20750 0.77478
 O281 O 0.79148 0.24701 0.77532
 O282 O 0.75185 0.20808 0.72260
 Cu283 Cu 0.79290 0.20615 0.74841
 Cu284 Cu 0.76972 0.22950 0.74902
 C285 C 0.75453 0.19157 0.71331
 C286 C 0.80808 0.24417 0.78405
 C287 C 0.75427 0.19075 0.78336
 C288 C 0.80823 0.24508 0.71410
 C289 C 0.08262 0.47553 0.06155
 C290 C 0.07177 0.45429 0.07580
 C291 C 0.04719 0.43986 0.07506
 C292 C 0.03349 0.44692 0.06058
 C293 C 0.04429 0.46852 0.04689
 C294 C 0.06897 0.48260 0.04713
 C295 C 0.08590 0.44821 0.09239
 C296 C 0.09826 0.44418 0.10674
 C297 C 0.11331 0.44070 0.12403
 C298 C 0.12661 0.43880 0.13916
 C299 C 0.14301 0.43784 0.15764
 C300 C 0.16262 0.45882 0.16622
 C301 C 0.17824 0.45837 0.18494
 C302 C 0.17448 0.43686 0.19541
 C303 C 0.15486 0.41579 0.18642
 C304 C 0.13920 0.41630 0.16766
 H305 H 0.10160 0.48686 0.06205
 H306 H 0.03861 0.42344 0.08611
 H307 H 0.01448 0.43588 0.06059
 H308 H 0.07757 0.49927 0.03658
 H309 H 0.16572 0.47560 0.15863
 H310 H 0.19316 0.47490 0.19139
 H311 H 0.15147 0.39896 0.19412
 H312 H 0.12404 0.39995 0.16118
 C313 C 0.54665 0.61450 0.05238
 C314 C 0.54461 0.61343 0.08047
 C315 C 0.53580 0.59179 0.09363
 C316 C 0.52856 0.57123 0.07879
 C317 C 0.52998 0.57210 0.05059
 C318 C 0.53942 0.59390 0.03748
 C319 C 0.55012 0.63414 0.09584
 C320 C 0.55379 0.65092 0.10927
 C321 C 0.55700 0.66989 0.12560
 C322 C 0.55883 0.68547 0.14003
 C323 C 0.55989 0.70329 0.15779
 C324 C 0.58158 0.72145 0.16719
 C325 C 0.58228 0.73802 0.18545
 C326 C 0.56125 0.73654 0.19457
 C327 C 0.53959 0.71839 0.18470
 C328 C 0.53894 0.70191 0.16646
 H329 H 0.55335 0.63114 0.04199
 H330 H 0.53407 0.59074 0.11534
 H331 H 0.52138 0.55455 0.08919
 H332 H 0.54060 0.59484 0.01574
 H333 H 0.59791 0.72264 0.16066
 H334 H 0.59923 0.75177 0.19268
 H335 H 0.52308 0.71675 0.19127
 H336 H 0.52206 0.68789 0.15937
 C337 C 0.38984 0.91419 0.05654
 C338 C 0.38126 0.92506 0.07373
 C339 C 0.39330 0.94964 0.07596
 C340 C 0.41413 0.96325 0.06147
 C341 C 0.42308 0.95234 0.04473
 C342 C 0.41063 0.92775 0.04207
 C343 C 0.36099 0.91084 0.09030
 C344 C 0.34452 0.89849 0.10462
 C345 C 0.32587 0.88354 0.12189
 C346 C 0.31054 0.87039 0.13703
 C347 C 0.29301 0.85425 0.15557
 C348 C 0.29445 0.83495 0.16494
 C349 C 0.27821 0.81964 0.18377
 C350 C 0.26023 0.82340 0.19356
 C351 C 0.25869 0.84268 0.18376
 C352 C 0.27503 0.85804 0.16489
 H353 H 0.38073 0.89519 0.05476
 H354 H 0.38689 0.95822 0.08932
 H355 H 0.42359 0.98220 0.06378
 H356 H 0.41733 0.91910 0.02924
 H357 H 0.30832 0.83188 0.15790
 H358 H 0.27990 0.80497 0.19085
 H359 H 0.24508 0.84606 0.19091
 H360 H 0.27379 0.87297 0.15780
 C361 C 0.93195 0.54973 0.55288
 C362 C 0.93034 0.54678 0.58087
 C363 C 0.94229 0.53689 0.59375
 C364 C 0.95540 0.52951 0.57871
 C365 C 0.95662 0.53188 0.55060
 C366 C 0.94511 0.54236 0.53780
 C367 C 0.91539 0.55257 0.59636
 C368 C 0.90246 0.55645 0.60988
 C369 C 0.88687 0.55985 0.62633
 C370 C 0.87320 0.56175 0.64085
 C371 C 0.85648 0.56278 0.65875
 C372 C 0.83667 0.54184 0.66705
 C373 C 0.82089 0.54237 0.68550
 C374 C 0.82468 0.56390 0.69596
 C375 C 0.84444 0.58493 0.68717
 C376 C 0.86027 0.58435 0.66870
 H377 H 0.92270 0.55728 0.54271
 H378 H 0.94110 0.53446 0.61536
 H379 H 0.96426 0.52155 0.58890
 H380 H 0.94588 0.54431 0.51613
 H381 H 0.83359 0.52505 0.65953
 H382 H 0.80587 0.52586 0.69179
 H383 H 0.84786 0.60178 0.69488
 H384 H 0.87559 0.60066 0.66245
 C385 C 0.46174 0.40663 0.59461
 C386 C 0.45427 0.38523 0.58133
 C387 C 0.45343 0.38437 0.55316
 C388 C 0.46053 0.40495 0.53833
 C389 C 0.46862 0.42654 0.55160
 C390 C 0.46885 0.42718 0.57983
 C391 C 0.44898 0.36460 0.59670
 C392 C 0.44548 0.34787 0.61011
 C393 C 0.44247 0.32896 0.62637
 C394 C 0.44083 0.31343 0.64072
 C395 C 0.44002 0.29568 0.65836
 C396 C 0.41847 0.27746 0.66796
 C397 C 0.41803 0.26096 0.68610
 C398 C 0.43920 0.26256 0.69489
 C399 C 0.46072 0.28076 0.68480
 C400 C 0.46110 0.29717 0.66669
 H401 H 0.46257 0.40752 0.61638
 H402 H 0.44779 0.36793 0.54269
 H403 H 0.46031 0.40420 0.51656
 H404 H 0.47503 0.44371 0.59034
 H405 H 0.40204 0.27618 0.66169
 H406 H 0.40118 0.24717 0.69352
 H407 H 0.47733 0.28250 0.69112
 H408 H 0.47789 0.31123 0.65943
 C409 C 0.60732 0.04929 0.57161
 C410 C 0.61761 0.07383 0.57211
 C411 C 0.60729 0.08461 0.55763
 C412 C 0.58650 0.07093 0.54322
 C413 C 0.57575 0.04630 0.54323
 C414 C 0.58648 0.03556 0.55715
 C415 C 0.63785 0.08799 0.58875
 C416 C 0.65426 0.10034 0.60317
 C417 C 0.67281 0.11532 0.62055
 C418 C 0.68804 0.12851 0.63579
 C419 C 0.70544 0.14469 0.65443
 C420 C 0.72337 0.14093 0.66396
 C421 C 0.73961 0.15635 0.68289
 C422 C 0.73804 0.17566 0.69253
 C423 C 0.72009 0.17939 0.68255
 C424 C 0.70394 0.16401 0.66366
 H425 H 0.61509 0.04077 0.58284
 H426 H 0.61505 0.10357 0.55795
 H427 H 0.57847 0.07948 0.53251
 H428 H 0.57838 0.01658 0.55736
 H429 H 0.72466 0.12600 0.65699
 H430 H 0.75320 0.15299 0.69019
 H431 H 0.71837 0.19407 0.68951
 H432 H 0.69011 0.16706 0.65645
 C433 C 0.44825 0.04824 0.91536
 C434 C 0.45597 0.07151 0.92300
 C435 C 0.47011 0.08090 0.94588
 C436 C 0.47695 0.06728 0.96074
 C437 C 0.46974 0.04406 0.95286
 C438 C 0.45507 0.03457 0.93020
 C439 C 0.45078 0.08627 0.90638
 C440 C 0.44729 0.09901 0.89207
 C441 C 0.44420 0.11434 0.87489
 C442 C 0.44243 0.12776 0.85987
 C443 C 0.44138 0.14417 0.84156
 C444 C 0.41969 0.14053 0.83210
 C445 C 0.41899 0.15621 0.81357
 C446 C 0.44002 0.17569 0.80427
 C447 C 0.46169 0.17927 0.81414
 C448 C 0.46233 0.16362 0.83263
 H449 H 0.43747 0.04087 0.89755
 H450 H 0.47628 0.09893 0.95188
 H451 H 0.48823 0.07497 0.97813
 H452 H 0.44957 0.01686 0.92348
 H453 H 0.40336 0.12550 0.83885
 H454 H 0.40203 0.15295 0.80635
 H455 H 0.47820 0.19407 0.80742
 H456 H 0.47922 0.16659 0.83979
 C457 C 0.60385 0.51899 0.93574
 C458 C 0.61693 0.54229 0.92697
 C459 C 0.60921 0.55814 0.93294
 C460 C 0.58820 0.55056 0.94720
 C461 C 0.57445 0.52690 0.95548
 C462 C 0.58287 0.51136 0.94989
 C463 C 0.63758 0.54933 0.91072
 C464 C 0.65429 0.55402 0.89655
 C465 C 0.67313 0.55811 0.87938
 C466 C 0.68853 0.56041 0.86429
 C467 C 0.70604 0.56171 0.84580
 C468 C 0.72378 0.58339 0.83593
 C469 C 0.74006 0.58420 0.81709
 C470 C 0.73869 0.56329 0.80786
 C471 C 0.72095 0.54164 0.81819
 C472 C 0.70478 0.54089 0.83699
 H473 H 0.60971 0.50659 0.93133
 H474 H 0.61916 0.57621 0.92611
 H475 H 0.58220 0.56298 0.95076
 H476 H 0.57323 0.49324 0.95662
 H477 H 0.72487 0.59962 0.84257
 H478 H 0.75349 0.60114 0.80950
 H479 H 0.71940 0.52522 0.81156
 H480 H 0.69109 0.52400 0.84445
 C481 C 0.93841 0.38301 0.94427
 C482 C 0.93085 0.38407 0.91825
 C483 C 0.93689 0.40585 0.90698
 C484 C 0.95001 0.42648 0.92175
 C485 C 0.95735 0.42578 0.94825
 C486 C 0.95164 0.40370 0.95914
 C487 C 0.91595 0.36292 0.90332
 C488 C 0.90295 0.34586 0.89014
 C489 C 0.88721 0.32668 0.87398
 C490 C 0.87337 0.31103 0.85963
 C491 C 0.85645 0.29327 0.84187
 C492 C 0.83662 0.29445 0.83388
 C493 C 0.82070 0.27821 0.81544
 C494 C 0.82438 0.26051 0.80468
 C495 C 0.84414 0.25916 0.81319
 C496 C 0.86011 0.27550 0.83165
 H497 H 0.93368 0.36620 0.95326
 H498 H 0.93120 0.40688 0.88681
 H499 H 0.95456 0.44310 0.91233
 H500 H 0.95649 0.40229 0.97959
 H501 H 0.83364 0.30817 0.84160
 H502 H 0.80567 0.27974 0.80937
 H503 H 0.84748 0.24576 0.80526
 H504 H 0.87545 0.27447 0.83764
 C505 C 0.52984 0.93793 0.40436
 C506 C 0.54555 0.93189 0.41576
 C507 C 0.55430 0.93964 0.44170
 C508 C 0.54701 0.95306 0.45639
 C509 C 0.53067 0.95877 0.44539
 C510 C 0.52248 0.95124 0.41896
 C511 C 0.55162 0.91681 0.40102
 C512 C 0.55557 0.90367 0.38803
 C513 C 0.55889 0.88777 0.37212
 C514 C 0.56064 0.87381 0.35799
 C515 C 0.56147 0.85676 0.34053
 C516 C 0.54039 0.83697 0.33250
 C517 C 0.54073 0.82087 0.31443
 C518 C 0.56222 0.82433 0.30408
 C519 C 0.58339 0.84409 0.31260
 C520 C 0.58300 0.86023 0.33070
 H521 H 0.52301 0.93210 0.38425
 H522 H 0.56637 0.93492 0.45078
 H523 H 0.55337 0.95805 0.47679
 H524 H 0.51044 0.95579 0.40945
 H525 H 0.52363 0.83414 0.33993
 H526 H 0.52412 0.80585 0.30832
 H527 H 0.60021 0.84727 0.30498
 H528 H 0.59942 0.87554 0.33672
 C529 C 0.39343 0.44319 0.42454
 C530 C 0.38192 0.45625 0.42606
 C531 C 0.39103 0.47622 0.44253
 C532 C 0.41183 0.48342 0.45696
 C533 C 0.42376 0.47074 0.45499
 C534 C 0.41426 0.45038 0.43901
 C535 C 0.36166 0.45021 0.40950
 C536 C 0.34520 0.44615 0.39518
 C537 C 0.32658 0.44256 0.37796
 C538 C 0.31127 0.44051 0.36287
 C539 C 0.29378 0.43931 0.34444
 C540 C 0.27573 0.41762 0.33495
 C541 C 0.25938 0.41683 0.31624
 C542 C 0.26098 0.43776 0.30677
 C543 C 0.27903 0.45943 0.31671
 C544 C 0.29528 0.46017 0.33538
 H545 H 0.38660 0.42778 0.41176
 H546 H 0.38233 0.48651 0.44376
 H547 H 0.41893 0.49915 0.46923
 H548 H 0.42330 0.44045 0.43726
 H549 H 0.27443 0.40136 0.34179
 H550 H 0.24571 0.39988 0.30896
 H551 H 0.28077 0.47587 0.30988
 H552 H 0.30920 0.47706 0.34256
 C553 C 0.08297 0.60496 0.43338
 C554 C 0.07317 0.61879 0.42623
 C555 C 0.05008 0.61191 0.43395
 C556 C 0.03668 0.59102 0.44838
 C557 C 0.04617 0.57657 0.45514
 C558 C 0.06967 0.58411 0.44769
 C559 C 0.08669 0.63936 0.40989
 C560 C 0.09868 0.65598 0.39562
 C561 C 0.11342 0.67467 0.37832
 C562 C 0.12658 0.68991 0.36310
 C563 C 0.14290 0.70718 0.34448
 C564 C 0.13884 0.72457 0.33387
 C565 C 0.15441 0.74056 0.31487
 C566 C 0.17418 0.73925 0.30624
 C567 C 0.17819 0.72188 0.31732
 C568 C 0.16267 0.70600 0.33628
 H569 H 0.10087 0.61016 0.42760
 H570 H 0.04226 0.62242 0.42834
 H571 H 0.01857 0.58567 0.45321
 H572 H 0.07787 0.57391 0.45312
 H573 H 0.12354 0.72560 0.34004
 H574 H 0.15083 0.75371 0.30670
 H575 H 0.19323 0.72038 0.31117
 H576 H 0.16596 0.69258 0.34432
 C577 C 0.93728 0.52942 0.90745
 C578 C 0.93143 0.54524 0.91890
 C579 C 0.93907 0.55375 0.94495
 C580 C 0.95219 0.54613 0.95967
 C581 C 0.95773 0.52969 0.94859
 C582 C 0.95030 0.52173 0.92207
 C583 C 0.91663 0.55167 0.90413
 C584 C 0.90371 0.55590 0.89109
 C585 C 0.88804 0.55955 0.87513
 C586 C 0.87425 0.56155 0.86095
 C587 C 0.85734 0.56261 0.84342
 C588 C 0.83749 0.54169 0.83516
 C589 C 0.82154 0.54224 0.81701
 C590 C 0.82521 0.56378 0.80680
 C591 C 0.84502 0.58481 0.81555
 C592 C 0.86102 0.58420 0.83372
 H593 H 0.93153 0.52277 0.88726
 H594 H 0.93448 0.56589 0.95408
 H595 H 0.95711 0.55233 0.98014
 H596 H 0.95471 0.50962 0.91252
 H597 H 0.83450 0.52488 0.84248
 H598 H 0.80648 0.52574 0.81074
 H599 H 0.84835 0.60167 0.80803
 H600 H 0.87637 0.60051 0.83992
 C601 C 0.47697 0.39029 0.94216
 C602 C 0.45602 0.38008 0.92727
 C603 C 0.44173 0.39032 0.92751
 C604 C 0.44867 0.41100 0.94212
 C605 C 0.46998 0.42161 0.95650
 C606 C 0.48391 0.41093 0.95672
 C607 C 0.45016 0.36004 0.91046
 C608 C 0.44632 0.34381 0.89591
 C609 C 0.44303 0.32550 0.87838
 C610 C 0.44125 0.31048 0.86302
 C611 C 0.44035 0.29336 0.84426
 C612 C 0.41876 0.27536 0.83444
 C613 C 0.41825 0.25940 0.81541
 C614 C 0.43939 0.26132 0.80595
 C615 C 0.46096 0.27932 0.81621
 C616 C 0.46141 0.29519 0.83521
 H617 H 0.48820 0.38258 0.94202
 H618 H 0.42555 0.38264 0.91593
 H619 H 0.43778 0.41909 0.94166
 H620 H 0.50040 0.41890 0.96771
 H621 H 0.40235 0.27382 0.84128
 H622 H 0.40137 0.24575 0.80789
 H623 H 0.47754 0.28129 0.80939
 H624 H 0.47822 0.30907 0.84264
 C625 C 0.59339 0.05418 0.90609
 C626 C 0.61497 0.06835 0.91904
 C627 C 0.61604 0.06898 0.94720
 C628 C 0.59550 0.05587 0.96234
 C629 C 0.57375 0.04213 0.94939
 C630 C 0.57287 0.04110 0.92118
 C631 C 0.63558 0.08331 0.90331
 C632 C 0.65231 0.09626 0.88963
 C633 C 0.67123 0.11187 0.87307
 C634 C 0.68677 0.12556 0.85849
 C635 C 0.70451 0.14232 0.84060
 C636 C 0.72240 0.13868 0.83064
 C637 C 0.73890 0.15461 0.81229
 C638 C 0.73760 0.17434 0.80366
 C639 C 0.71972 0.17795 0.81411
 C640 C 0.70333 0.16206 0.83242
 H641 H 0.59233 0.05364 0.88433
 H642 H 0.63262 0.07998 0.95742
 H643 H 0.59642 0.05685 0.98409
 H644 H 0.55621 0.03056 0.91093
 H645 H 0.72344 0.12341 0.83679
 H646 H 0.75243 0.15133 0.80460
 H647 H 0.71822 0.19294 0.80793
 H648 H 0.68953 0.16502 0.83996
 C649 C 0.08361 0.48194 0.43328
 C650 C 0.07400 0.45832 0.42608
 C651 C 0.05094 0.44191 0.43375
 C652 C 0.03739 0.44920 0.44819
 C653 C 0.04668 0.47311 0.45502
 C654 C 0.07015 0.48929 0.44760
 C655 C 0.08768 0.45145 0.40977
 C656 C 0.09974 0.44689 0.39554
 C657 C 0.11451 0.44292 0.37831
 C658 C 0.12762 0.44070 0.36317
 C659 C 0.14381 0.43942 0.34464
 C660 C 0.16329 0.46026 0.33554
 C661 C 0.17872 0.45949 0.31677
 C662 C 0.17489 0.43780 0.30677
 C663 C 0.15540 0.41689 0.31628
 C664 C 0.13993 0.41771 0.33509
 H665 H 0.10148 0.49480 0.42753
 H666 H 0.04327 0.42358 0.42811
 H667 H 0.01931 0.43627 0.45298
 H668 H 0.07821 0.50769 0.45307
 H669 H 0.16644 0.47716 0.34276
 H670 H 0.19355 0.47591 0.30992
 H671 H 0.15196 0.39992 0.30896
 H672 H 0.12486 0.40148 0.34197
 C673 C 0.52376 0.60892 0.44215
 C674 C 0.54380 0.61804 0.42575
 C675 C 0.55698 0.60664 0.42439
 C676 C 0.54984 0.58591 0.43894
 C677 C 0.52940 0.57641 0.45485
 C678 C 0.51660 0.58823 0.45666
 C679 C 0.54980 0.63819 0.40910
 C680 C 0.55383 0.65454 0.39470
 C681 C 0.55736 0.67304 0.37737
 C682 C 0.55934 0.68822 0.36219
 C683 C 0.56042 0.70555 0.34364
 C684 C 0.58206 0.72325 0.33358
 C685 C 0.58269 0.73937 0.31470
 C686 C 0.56165 0.73789 0.30564
 C687 C 0.54004 0.72018 0.31616
 C688 C 0.53946 0.70416 0.33500
 H689 H 0.51337 0.61754 0.44326
 H690 H 0.57245 0.61348 0.41166
 H691 H 0.55986 0.57696 0.43731
 H692 H 0.50081 0.58112 0.46888
 H693 H 0.59839 0.72445 0.34009
 H694 H 0.59960 0.75278 0.30696
 H695 H 0.52352 0.71854 0.30966
 H696 H 0.52261 0.69051 0.34262
 C697 C 0.40688 0.93910 0.40440
 C698 C 0.38518 0.93338 0.41583
 C699 C 0.38438 0.94120 0.44179
 C700 C 0.40523 0.95436 0.45646
 C701 C 0.42723 0.95974 0.44542
 C702 C 0.42768 0.95214 0.41897
 C703 C 0.36385 0.91850 0.40115
 C704 C 0.34662 0.90547 0.38821
 C705 C 0.32724 0.88962 0.37235
 C706 C 0.31142 0.87563 0.35827
 C707 C 0.29347 0.85846 0.34088
 C708 C 0.27560 0.86195 0.33055
 C709 C 0.25906 0.84567 0.31248
 C710 C 0.26031 0.82576 0.30449
 C711 C 0.27813 0.82228 0.31535
 C712 C 0.29456 0.83851 0.33339
 H713 H 0.40771 0.93320 0.38428
 H714 H 0.36763 0.93672 0.45091
 H715 H 0.40401 0.95941 0.47688
 H716 H 0.44422 0.95643 0.40944
 H717 H 0.27465 0.87739 0.33616
 H718 H 0.24557 0.84886 0.30446
 H719 H 0.27958 0.80714 0.30967
 H720 H 0.30835 0.83566 0.34120
 C721 C 0.52304 0.91388 0.05699
 C722 C 0.54299 0.92472 0.07354
 C723 C 0.55611 0.94932 0.07522
 C724 C 0.54899 0.96299 0.06086
 C725 C 0.52863 0.95213 0.04481
 C726 C 0.51590 0.92751 0.04266
 C727 C 0.54897 0.91048 0.09004
 C728 C 0.55300 0.89811 0.10434
 C729 C 0.55658 0.88312 0.12157
 C730 C 0.55862 0.86992 0.13670
 C731 C 0.55981 0.85371 0.15520
 C732 C 0.58152 0.85759 0.16490
 C733 C 0.58227 0.84214 0.18375
 C734 C 0.56127 0.82267 0.19313
 C735 C 0.53959 0.81882 0.18296
 C736 C 0.53889 0.83423 0.16416
 H737 H 0.51270 0.89487 0.05563
 H738 H 0.57151 0.95789 0.08807
 H739 H 0.55896 0.98197 0.06275
 H740 H 0.50018 0.91888 0.03032
 H741 H 0.59782 0.87266 0.15814
 H742 H 0.59923 0.84561 0.19121
 H743 H 0.52310 0.80401 0.18972
 H744 H 0.52199 0.83107 0.15682
 C745 C 0.40517 0.46096 0.09481
 C746 C 0.38348 0.45217 0.08164
 C747 C 0.38239 0.45011 0.05355
 C748 C 0.40301 0.45729 0.03865
 C749 C 0.42486 0.46667 0.05177
 C750 C 0.42576 0.46815 0.07996
 C751 C 0.36274 0.44671 0.09700
 C752 C 0.34593 0.44310 0.11041
 C753 C 0.32696 0.43998 0.12673
 C754 C 0.31140 0.43829 0.14114
 C755 C 0.29365 0.43744 0.15890
 C756 C 0.29497 0.45845 0.16702
 C757 C 0.27864 0.45808 0.18531
 C758 C 0.26068 0.43663 0.19580
 C759 C 0.25922 0.41552 0.18720
 C760 C 0.27565 0.41595 0.16888
 H761 H 0.40623 0.46272 0.11651
 H762 H 0.36571 0.44344 0.04316
 H763 H 0.40206 0.45609 0.01691
 H764 H 0.44248 0.47532 0.09037
 H765 H 0.30886 0.47519 0.15947
 H766 H 0.28026 0.47465 0.19147
 H767 H 0.24562 0.39873 0.19492
 H768 H 0.27451 0.39958 0.16278
 C769 C 0.04749 0.60501 0.07532
 C770 C 0.07206 0.61514 0.07617
 C771 C 0.08289 0.60467 0.06207
 C772 C 0.06924 0.58392 0.04763
 C773 C 0.04457 0.57336 0.04723
 C774 C 0.03379 0.58422 0.06083
 C775 C 0.08618 0.63546 0.09268
 C776 C 0.09849 0.65199 0.10694
 C777 C 0.11345 0.67071 0.12411
 C778 C 0.12664 0.68613 0.13915
 C779 C 0.14287 0.70379 0.15752
 C780 C 0.16228 0.70248 0.16692
 C781 C 0.17777 0.71895 0.18546
 C782 C 0.17409 0.73704 0.19492
 C783 C 0.15467 0.73841 0.18514
 C784 C 0.13913 0.72184 0.16656
 H785 H 0.03892 0.61292 0.08625
 H786 H 0.10187 0.61231 0.06266
 H787 H 0.07783 0.57580 0.03715
 H788 H 0.01478 0.57629 0.06071
 H789 H 0.16532 0.68856 0.16009
 H790 H 0.19254 0.71738 0.19254
 H791 H 0.15133 0.75210 0.19204
 H792 H 0.12413 0.72299 0.15944
 C793 C 0.47858 0.08537 0.55810
 C794 C 0.45736 0.07471 0.57248
 C795 C 0.44275 0.05020 0.57183
 C796 C 0.44962 0.03638 0.55730
 C797 C 0.47120 0.04699 0.54347
 C798 C 0.48546 0.07160 0.54363
 C799 C 0.45147 0.08895 0.58915
 C800 C 0.44756 0.10134 0.60358
 C801 C 0.44414 0.11635 0.62097
 C802 C 0.44223 0.12957 0.63622
 C803 C 0.44115 0.14577 0.65486
 C804 C 0.41948 0.14183 0.66478
 C805 C 0.41880 0.15725 0.68374
 C806 C 0.43983 0.17675 0.69304
 C807 C 0.46147 0.18065 0.68267
 C808 C 0.46209 0.16527 0.66374
 H809 H 0.49005 0.10430 0.55855
 H810 H 0.42634 0.04177 0.58298
 H811 H 0.43844 0.01742 0.55737
 H812 H 0.50212 0.08005 0.53298
 H813 H 0.40315 0.12675 0.65808
 H814 H 0.40187 0.15375 0.69135
 H815 H 0.47798 0.19548 0.68936
 H816 H 0.47896 0.16846 0.65623
 C817 C 0.59379 0.53941 0.59506
 C818 C 0.61534 0.54713 0.58194
 C819 C 0.61632 0.54799 0.55377
 C820 C 0.59572 0.54066 0.53880
 C821 C 0.57400 0.53235 0.55191
 C822 C 0.57322 0.53208 0.58013
 C823 C 0.63602 0.55268 0.59747
 C824 C 0.65278 0.55639 0.61101
 C825 C 0.67173 0.55964 0.62745
 C826 C 0.68729 0.56146 0.64195
 C827 C 0.70506 0.56248 0.65979
 C828 C 0.72309 0.58407 0.66952
 C829 C 0.73959 0.58469 0.68787
 C830 C 0.73817 0.56367 0.69674
 C831 C 0.72015 0.54211 0.68652
 C832 C 0.70374 0.54155 0.66820
 H833 H 0.59281 0.53858 0.61682
 H834 H 0.63289 0.55381 0.54342
 H835 H 0.59658 0.54091 0.51703
 H836 H 0.55659 0.52573 0.59052
 H837 H 0.72423 0.60039 0.66319
 H838 H 0.75323 0.60156 0.69538
 H839 H 0.71855 0.52561 0.69289
 H840 H 0.68983 0.52474 0.66085
 C841 C 0.94258 0.40776 0.59330
 C842 C 0.93072 0.38593 0.58027
 C843 C 0.93243 0.38472 0.55228
 C844 C 0.94557 0.40533 0.53733
 C845 C 0.95697 0.42730 0.55028
 C846 C 0.95567 0.42834 0.57840
 C847 C 0.91575 0.36509 0.59561
 C848 C 0.90278 0.34818 0.60900
 C849 C 0.88713 0.32904 0.62525
 C850 C 0.87340 0.31332 0.63959
 C851 C 0.85661 0.29537 0.65726
 C852 C 0.83690 0.29651 0.66585
 C853 C 0.82101 0.27993 0.68401
 C854 C 0.82459 0.26190 0.69388
 C855 C 0.84427 0.26064 0.68481
 C856 C 0.86021 0.27733 0.66663
 H857 H 0.94131 0.40891 0.61492
 H858 H 0.92325 0.36793 0.54200
 H859 H 0.94641 0.40425 0.51565
 H860 H 0.96445 0.44514 0.58869
 H861 H 0.83397 0.31043 0.65877
 H862 H 0.80605 0.28141 0.69053
 H863 H 0.84754 0.24700 0.69206
 H864 H 0.87545 0.27632 0.66016
   
