data_POSCAR
  _audit_creation_date              2014-09-24
  _audit_creation_method            'ToBaCCo'
  _symmetry_space_group_name_H-M    'P1'
  _symmetry_Int_Tables_number       1
  _symmetry_cell_setting            triclinic
  loop_
  _symmetry_equiv_pos_as_xyz
 x,y,z
_cell_length_a 25.9805
_cell_length_b 24.7363
_cell_length_c 27.0861
_cell_angle_alpha 88.991000
_cell_angle_beta 90.120800
_cell_angle_gamma 91.045500
loop_
  _atom_site_label
  _atom_site_type_symbol
  _atom_site_fract_x
  _atom_site_fract_y
  _atom_site_fract_z
N1 N 0.18819 1.28628 0.16051
 N2 N 0.15025 1.28403 0.19247
 C3 C 0.11120 1.31405 0.17530
 C4 C 0.12527 1.33623 0.12974
 C5 C 0.17476 1.31789 0.12186
 H6 H 0.07459 1.31751 0.19377
 H7 H 0.19906 1.32559 0.09008
 Cu8 Cu 0.15433 1.23979 0.25228
 Cu9 Cu 0.25063 1.24501 0.17038
 Cu10 Cu 0.23164 1.13293 0.24711
 N11 N 0.15049 1.18163 0.30114
 N12 N 0.18144 1.14028 0.29979
 C13 C 0.16847 1.10474 0.33609
 C14 C 0.12635 1.12451 0.36109
 C15 C 0.11642 1.17372 0.33792
 H16 H 0.18671 1.06623 0.34197
 H17 H 0.08609 1.20136 0.34646
 N18 N 0.28875 1.13945 0.19937
 N19 N 0.29679 1.18285 0.17120
 C20 C 0.33515 1.17322 0.13938
 C21 C 0.35178 1.12098 0.14752
 C22 C 0.32185 1.10107 0.18625
 H23 H 0.34684 1.20043 0.10962
 H24 H 0.32200 1.06057 0.20183
 H25 H 0.20180 1.18584 0.19441
 H26 H 0.24470 1.21395 0.24328
 N27 N 0.83501 0.72131 0.13727
 N28 N 0.87870 0.73708 0.15754
 C29 C 0.91628 0.70389 0.14355
 C30 C 0.89477 0.66472 0.11365
 C31 C 0.84311 0.67691 0.11050
 H32 H 0.95594 0.70680 0.15558
 H33 H 0.81376 0.65544 0.08986
 Cu34 Cu 0.88221 0.79613 0.20405
 Cu35 Cu 0.77133 0.76029 0.14623
 Cu36 Cu 0.77706 0.86930 0.22354
 N37 N 0.87485 0.83954 0.26294
 N38 N 0.83231 0.86548 0.27178
 C39 C 0.83678 0.89083 0.31511
 C40 C 0.88540 0.88126 0.33445
 C41 C 0.90837 0.84823 0.30006
 H42 H 0.80698 0.91527 0.33042
 H43 H 0.94634 0.83119 0.30179
 N44 N 0.71838 0.85528 0.17978
 N45 N 0.71620 0.81409 0.14957
 C46 C 0.67394 0.81862 0.12096
 C47 C 0.64824 0.86496 0.13396
 C48 C 0.67743 0.88668 0.17181
 H49 H 0.66395 0.79139 0.09153
 H50 H 0.67049 0.92360 0.19117
 H51 H 0.80800 0.83209 0.16074
 H52 H 0.78976 0.78905 0.21605
 N53 N 0.79396 1.29286 -0.16117
 N54 N 0.83306 1.28877 -0.19152
 C55 C 0.87174 1.32150 -0.17681
 C56 C 0.85594 1.34830 -0.13529
 C57 C 0.80614 1.32953 -0.12659
 H58 H 0.90909 1.32392 -0.19420
 H59 H 0.78233 1.33843 -0.09514
 Cu60 Cu 0.83184 1.23846 -0.24557
 Cu61 Cu 0.73453 1.24315 -0.16493
 Cu62 Cu 0.76708 1.12354 -0.22141
 N63 N 0.83675 1.17724 -0.28875
 N64 N 0.81057 1.13232 -0.27961
 C65 C 0.82203 1.09581 -0.31392
 C66 C 0.85794 1.11891 -0.34629
 C67 C 0.86606 1.17097 -0.32902
 H68 H 0.80572 1.05536 -0.31451
 H69 H 0.89192 1.20189 -0.34375
 N70 N 0.70969 1.12891 -0.17448
 N71 N 0.69483 1.17497 -0.15564
 C72 C 0.65345 1.16524 -0.12663
 C73 C 0.64247 1.11028 -0.12682
 C74 C 0.67881 1.08860 -0.15746
 H75 H 0.63435 1.19540 -0.10520
 H76 H 0.68229 1.04649 -0.16678
 H77 H 0.78931 1.18878 -0.17834
 H78 H 0.74503 1.20105 -0.23141
 N79 N 0.19048 0.68935 -0.16818
 N80 N 0.15448 0.68741 -0.20225
 C81 C 0.11954 0.64875 -0.18959
 C82 C 0.13403 0.62590 -0.14461
 C83 C 0.17959 0.65255 -0.13249
 H84 H 0.08517 0.63969 -0.21065
 H85 H 0.20236 0.64735 -0.09937
 Cu86 Cu 0.15349 0.74049 -0.25658
 Cu87 Cu 0.24587 0.74303 -0.17087
 Cu88 Cu 0.20644 0.86178 -0.21669
 N89 N 0.13974 0.81005 -0.28949
 N90 N 0.15730 0.85655 -0.27253
 C91 C 0.13778 0.89701 -0.30020
 C92 C 0.10657 0.87496 -0.33669
 C93 C 0.10909 0.81946 -0.32865
 H94 H 0.14567 0.93932 -0.29386
 H95 H 0.08879 0.78798 -0.34834
 N96 N 0.26829 0.85586 -0.17596
 N97 N 0.28562 0.80876 -0.16087
 C98 C 0.32731 0.81648 -0.13218
 C99 C 0.33583 0.87149 -0.12810
 C100 C 0.29761 0.89538 -0.15618
 H101 H 0.34698 0.78476 -0.11213
 H102 H 0.29047 0.93817 -0.16034
 H103 H 0.16935 0.78960 -0.20005
 H104 H 0.22130 0.78923 -0.24744
 Si105 Si 0.48917 0.98828 0.01015
 Si106 Si -0.00034 0.48610 0.99613
 Si107 Si 0.98679 -0.00039 0.50499
 C108 C 0.04599 0.38512 1.11144
 C109 C 0.09481 0.36732 1.09746
 C110 C 0.11120 0.38081 1.04897
 C111 C 0.08219 0.41536 1.01850
 C112 C 0.03663 0.43830 1.03578
 C113 C 0.01763 0.41973 1.08135
 C114 C -0.00108 0.45064 1.12441
 C115 C 0.02966 0.41277 1.15725
 H116 H 0.14689 0.36593 1.03448
 H117 H 0.09647 0.42521 0.98190
 H118 H -0.04334 0.44585 1.12964
 H119 H 0.01388 0.49303 1.12467
 H120 H 0.00493 0.38624 1.18119
 H121 H 0.06229 0.43323 1.17646
 C122 C -0.02724 0.62420 1.07653
 C123 C -0.07869 0.61911 1.09112
 C124 C -0.10397 0.56907 1.08340
 C125 C -0.07976 0.52826 1.05672
 C126 C -0.03093 0.53768 1.03535
 C127 C -0.00398 0.58467 1.04894
 C128 C 0.02473 0.62614 1.01842
 C129 C -0.00062 0.66915 1.04888
 H130 H -0.14278 0.56200 1.09682
 H131 H -0.10004 0.49020 1.05151
 H132 H 0.01240 0.62696 0.97910
 H133 H 0.06700 0.62453 1.02448
 H134 H -0.02770 0.69464 1.02726
 H135 H 0.02698 0.69177 1.07257
 C136 C -0.06204 0.36448 0.91077
 C137 C -0.11172 0.38071 0.89829
 C138 C -0.13080 0.42658 0.92184
 C139 C -0.09829 0.45847 0.95195
 C140 C -0.04689 0.44358 0.96085
 C141 C -0.03078 0.39462 0.94172
 C142 C 0.01666 0.38098 0.91385
 C143 C -0.01777 0.34863 0.87946
 H144 H -0.16973 0.43954 0.91463
 H145 H -0.11273 0.49596 0.96582
 H146 H 0.04286 0.35503 0.93595
 H147 H 0.03538 0.41671 0.89552
 H148 H -0.01089 0.30443 0.88150
 H149 H -0.01912 0.36659 0.84158
 C150 C 0.05747 0.56392 0.87116
 C151 C 0.10546 0.58506 0.88588
 C152 C 0.12486 0.56710 0.93198
 C153 C 0.09410 0.53533 0.96429
 C154 C 0.04373 0.51980 0.95091
 C155 C 0.02753 0.53182 0.90286
 C156 C -0.02142 0.55585 0.88495
 C157 C 0.01118 0.59143 0.85052
 H158 H 0.16243 0.58013 0.94476
 H159 H 0.10865 0.52585 1.00084
 H160 H -0.04149 0.57874 0.91392
 H161 H -0.04594 0.52594 0.86516
 H162 H 0.01027 0.63505 0.85969
 H163 H 0.00486 0.58229 0.81091
 C164 C 1.05042 0.11971 0.41413
 C165 C 1.09797 0.09932 0.39949
 C166 C 1.11485 0.05173 0.42386
 C167 C 1.08270 0.02347 0.45776
 C168 C 1.03305 0.04190 0.46810
 C169 C 1.01848 0.09093 0.44659
 C170 C 0.97116 0.10436 0.41807
 C171 C 1.00567 0.13663 0.38297
 H172 H 1.15196 0.03496 0.41566
 H173 H 1.09577 -0.01420 0.47395
 H174 H 0.94449 0.12985 0.43918
 H175 H 0.95338 0.06835 0.40041
 H176 H 0.99927 0.18089 0.38439
 H177 H 1.00673 0.11983 0.34517
 C178 C 1.07352 -0.04066 0.62753
 C179 C 1.07668 -0.09727 0.62798
 C180 C 1.04640 -0.12501 0.59254
 C181 C 1.01935 -0.09649 0.55548
 C182 C 1.02187 -0.03968 0.55282
 C183 C 1.04660 -0.01286 0.59128
 C184 C 1.08382 0.03373 0.59098
 C185 C 1.11371 0.00319 0.63054
 H186 H 1.04467 -0.16868 0.59194
 H187 H 0.99744 -0.11911 0.52857
 H188 H 1.06610 0.07120 0.60462
 H189 H 1.10538 0.03858 0.55582
 H190 H 1.11350 0.02360 0.66678
 H191 H 1.15211 -0.01003 0.61789
 C192 C 0.87777 -0.06967 0.41239
 C193 C 0.90682 -0.09894 0.37862
 C194 C 0.95906 -0.10726 0.39125
 C195 C 0.98201 -0.08021 0.43130
 C196 C 0.95321 -0.04548 0.46063
 C197 C 0.90005 -0.04460 0.45277
 C198 C 0.86260 0.00047 0.45093
 C199 C 0.83894 -0.02626 0.40598
 H200 H 0.98360 -0.13125 0.36845
 H201 H 1.02300 -0.08401 0.43742
 H202 H 0.88058 0.04058 0.44275
 H203 H 0.83622 -0.00062 0.48318
 H204 H 0.84472 -0.00208 0.37136
 H205 H 0.79898 -0.04147 0.41257
 C206 C 0.87049 0.04095 0.60029
 C207 C 0.88177 0.09460 0.61327
 C208 C 0.91918 0.12268 0.58418
 C209 C 0.94857 0.09551 0.54901
 C210 C 0.94064 0.03992 0.54102
 C211 C 0.89942 0.01449 0.56559
 C212 C 0.89511 -0.03847 0.59250
 C213 C 0.86354 -0.00967 0.63081
 H214 H 0.92866 0.16472 0.59050
 H215 H 0.97994 0.11744 0.53134
 H216 H 0.93237 -0.05275 0.60744
 H217 H 0.87241 -0.06883 0.57142
 H218 H 0.88296 -0.00722 0.66737
 H219 H 0.82273 -0.02393 0.63193
 C220 C 0.41587 1.11598 0.07866
 C221 C 0.38565 1.08995 0.11503
 C222 C 0.38527 1.03300 0.11663
 C223 C 0.41715 1.00396 0.08531
 C224 C 0.45026 1.03082 0.05153
 C225 C 0.44758 1.08723 0.04744
 C226 C 0.48924 1.12972 0.05044
 C227 C 0.45447 1.16070 0.08434
 H228 H 0.36078 1.01054 0.14220
 H229 H 0.41621 0.96020 0.08786
 H230 H 0.49597 1.15150 0.01479
 H231 H 0.52465 1.11531 0.06895
 H232 H 0.44101 1.19933 0.06768
 H233 H 0.46944 1.16360 0.12271
 C234 C 0.61153 1.02711 -0.08198
 C235 C 0.60274 1.07996 -0.09853
 C236 C 0.55441 1.10203 -0.08797
 C237 C 0.51920 1.07370 -0.05688
 C238 C 0.53328 1.02498 -0.03321
 C239 C 0.57808 1.00063 -0.04970
 C240 C 0.62101 0.97304 -0.02321
 C241 C 0.65774 1.00239 -0.05869
 H242 H 0.54424 1.14127 -0.10298
 H243 H 0.48193 1.09083 -0.05016
 H244 H 0.61971 0.92856 -0.02833
 H245 H 0.62591 0.98604 0.01552
 H246 H 0.67752 0.97473 -0.08406
 H247 H 0.68317 1.03272 -0.04047
 C248 C 0.42110 0.87823 -0.08590
 C249 C 0.37151 0.89781 -0.09340
 C250 C 0.35582 0.94145 -0.06482
 C251 C 0.39055 0.96708 -0.03253
 C252 C 0.44196 0.95014 -0.02856
 C253 C 0.45593 0.90472 -0.05517
 C254 C 0.49929 0.89757 -0.09051
 C255 C 0.46141 0.86783 -0.12353
 H256 H 0.31703 0.95642 -0.06811
 H257 H 0.37745 1.00173 -0.01264
 H258 H 0.52981 0.87106 -0.07541
 H259 H 0.51335 0.93642 -0.10723
 H260 H 0.46943 0.82401 -0.12645
 H261 H 0.45422 0.88916 -0.15930
 C262 C 0.58410 0.93938 0.12402
 C263 C 0.60223 0.88885 0.11015
 C264 C 0.57558 0.86274 0.07148
 C265 C 0.53808 0.89033 0.04342
 C266 C 0.52676 0.94456 0.05328
 C267 C 0.54731 0.96626 0.09646
 C268 C 0.57057 1.02043 0.10675
 C269 C 0.61158 0.99107 0.13630
 H270 H 0.58573 0.82242 0.06071
 H271 H 0.52100 0.87017 0.01235
 H272 H 0.54512 1.04489 0.13017
 H273 H 0.58578 1.04158 0.07318
 H274 H 0.61010 0.99972 0.17640
 H275 H 0.65047 0.99445 0.11930
   
