data_POSCAR
  _audit_creation_date              2014-09-24
  _audit_creation_method            'ToBaCCo'
  _symmetry_space_group_name_H-M    'P1'
  _symmetry_Int_Tables_number       1
  _symmetry_cell_setting            triclinic
  loop_
  _symmetry_equiv_pos_as_xyz
 x,y,z
_cell_length_a 29.7618
_cell_length_b 30.1255
_cell_length_c 30.6756
_cell_angle_alpha 90.195400
_cell_angle_beta 89.732200
_cell_angle_gamma 84.910700
loop_
  _atom_site_label
  _atom_site_type_symbol
  _atom_site_fract_x
  _atom_site_fract_y
  _atom_site_fract_z
C1 C 1.22309 0.22298 0.20830
 C2 C 1.25300 0.25218 0.18233
 C3 C 1.27866 0.27703 0.20784
 C4 C 1.27213 0.27047 0.25727
 C5 C 1.25535 0.19499 0.23822
 C6 C 1.28088 0.21979 0.26393
 C7 C 1.19531 0.25507 0.23889
 C8 C 1.22093 0.27977 0.26460
 H9 H 1.25376 0.25321 0.14692
 H10 H 1.29307 0.29075 0.27801
 H11 H 1.25631 0.15892 0.24045
 H12 H 1.15877 0.25657 0.24150
 C13 C 0.72525 -0.27748 0.19527
 C14 C 0.75455 -0.24789 0.16915
 C15 C 0.77975 -0.22268 0.19477
 C16 C 0.77334 -0.22935 0.24422
 C17 C 0.75777 -0.30505 0.22506
 C18 C 0.78272 -0.27992 0.25082
 C19 C 0.69697 -0.24588 0.22581
 C20 C 0.72212 -0.22087 0.25155
 H21 H 0.75504 -0.24665 0.13375
 H22 H 0.79397 -0.20877 0.26496
 H23 H 0.75830 -0.34104 0.22816
 H24 H 0.66056 -0.24563 0.22905
 C25 C 0.72071 0.21698 -0.29685
 C26 C 0.74876 0.24431 -0.32266
 C27 C 0.77448 0.27230 -0.29644
 C28 C 0.76726 0.26757 -0.24936
 C29 C 0.75135 0.19191 -0.26711
 C30 C 0.77705 0.21982 -0.24083
 C31 C 0.69270 0.24798 -0.26955
 C32 C 0.71834 0.27589 -0.24334
 H33 H 0.74989 0.24416 -0.35811
 H34 H 0.78723 0.28933 -0.22908
 H35 H 0.75355 0.15584 -0.26377
 H36 H 0.65616 0.24846 -0.26718
 C37 C 1.22125 -0.28430 -0.30004
 C38 C 1.25015 -0.25426 -0.32617
 C39 C 1.27596 -0.22958 -0.30061
 C40 C 1.27049 -0.23713 -0.25121
 C41 C 1.25433 -0.31248 -0.27131
 C42 C 1.27998 -0.28788 -0.24572
 C43 C 1.19366 -0.25312 -0.26850
 C44 C 1.21938 -0.22853 -0.24288
 H45 H 1.25025 -0.25265 -0.36155
 H46 H 1.29160 -0.21703 -0.23046
 H47 H 1.25546 -0.34859 -0.26940
 H48 H 1.15713 -0.25159 -0.26575
 C49 C 0.22286 0.22674 0.79328
 C50 C 0.25098 0.25419 0.81834
 C51 C 0.27799 0.28043 0.79184
 C52 C 0.27210 0.27454 0.74500
 C53 C 0.19509 0.25884 0.76306
 C54 C 0.22091 0.28378 0.73765
 C55 C 0.25515 0.19883 0.76272
 C56 C 0.28085 0.22389 0.73730
 H57 H 0.25147 0.25503 0.85378
 H58 H 0.29314 0.29498 0.72442
 H59 H 0.15858 0.26020 0.76047
 H60 H 0.25610 0.16278 0.75995
 C61 C 0.72277 0.72599 0.80444
 C62 C 0.75078 0.75405 0.82935
 C63 C 0.77749 0.78029 0.80214
 C64 C 0.77094 0.77339 0.75521
 C65 C 0.69566 0.75600 0.77586
 C66 C 0.72221 0.78212 0.74859
 C67 C 0.75352 0.69914 0.77589
 C68 C 0.78003 0.72521 0.74863
 H69 H 0.75143 0.75539 0.86478
 H70 H 0.79171 0.79375 0.73420
 H71 H 0.65920 0.75639 0.77288
 H72 H 0.75390 0.66311 0.77265
 C73 C 0.71797 0.21919 0.29684
 C74 C 0.74739 0.24797 0.32375
 C75 C 0.77180 0.27475 0.29901
 C76 C 0.76466 0.27034 0.24947
 C77 C 0.68884 0.25193 0.26856
 C78 C 0.71324 0.27859 0.24374
 C79 C 0.75039 0.19345 0.26490
 C80 C 0.77474 0.22020 0.24003
 H81 H 0.74874 0.24734 0.35915
 H82 H 0.78457 0.29225 0.22939
 H83 H 0.65237 0.25219 0.26639
 H84 H 0.75267 0.15743 0.26114
 C85 C 0.21749 0.71934 0.29895
 C86 C 0.24638 0.74922 0.32526
 C87 C 0.27277 0.77368 0.29999
 C88 C 0.26780 0.76603 0.25044
 C89 C 0.19051 0.75067 0.26750
 C90 C 0.21674 0.77503 0.24200
 C91 C 0.25074 0.69089 0.27008
 C92 C 0.27697 0.71515 0.24461
 H93 H 0.24613 0.75080 0.36066
 H94 H 0.28933 0.78590 0.22986
 H95 H 0.15402 0.75232 0.26458
 H96 H 0.25168 0.65478 0.26808
 N97 N 1.08294 0.04298 0.04481
 N98 N 1.11417 0.07027 0.05321
 N99 N 1.05122 -0.04700 0.07570
 N100 N 1.06250 -0.07388 0.10855
 N101 N 1.08290 -0.05023 0.04554
 N102 N 1.11651 -0.07934 0.05729
 N103 N 1.05143 0.04625 0.07504
 N104 N 1.06037 0.07586 0.10490
 C105 C 1.09921 0.09089 0.09039
 C106 C 1.10274 -0.09445 0.09615
 N107 N 0.92230 -0.03515 0.04510
 N108 N 0.89085 -0.06207 0.05413
 N109 N 0.95425 0.05527 0.07498
 N110 N 0.94428 0.08453 0.10644
 N111 N 0.92277 0.05814 0.04495
 N112 N 0.89048 0.08941 0.05543
 N113 N 0.95362 -0.03792 0.07530
 N114 N 0.94431 -0.06676 0.10564
 Mn115 Mn 1.00258 0.00412 0.07553
 C116 C 0.90544 -0.08185 0.09162
 C117 C 0.90502 0.10616 0.09332
 N118 N 1.08317 -0.05078 -0.04907
 N119 N 1.11667 -0.08043 -0.06026
 N120 N 1.05214 0.04523 -0.07920
 N121 N 1.06080 0.07543 -0.10845
 N122 N 1.08324 0.04233 -0.04885
 N123 N 1.11386 0.07046 -0.05653
 N124 N 1.05189 -0.04798 -0.07935
 N125 N 1.06337 -0.07571 -0.11174
 Mn126 Mn 1.08336 -0.00403 -0.00193
 C127 C 1.10325 -0.09629 -0.09888
 C128 C 1.09904 0.09110 -0.09343
 N129 N 0.92309 0.05758 -0.04964
 N130 N 0.89087 0.08873 -0.06020
 N131 N 0.95411 -0.03904 -0.07961
 N132 N 0.94445 -0.06761 -0.11026
 N133 N 0.92253 -0.03582 -0.04936
 N134 N 0.89062 -0.06215 -0.05867
 N135 N 0.95482 0.05431 -0.07972
 N136 N 0.94506 0.08316 -0.11134
 Mn137 Mn 0.92228 0.01123 -0.00222
 Mn138 Mn 1.00326 0.00309 -0.07979
 Cl139 Cl 1.00283 0.00346 -0.00211
 C140 C 0.90565 0.10498 -0.09825
 C141 C 0.90512 -0.08214 -0.09637
 N142 N 1.04573 0.42154 0.54955
 N143 N 1.07900 0.39111 0.55889
 N144 N 0.94788 0.45193 0.57941
 N145 N 0.91970 0.44185 0.61054
 N146 N 0.95131 0.42068 0.54922
 N147 N 0.92551 0.38860 0.55909
 N148 N 1.04220 0.45288 0.57957
 N149 N 1.07296 0.44472 0.61000
 C150 C 1.09606 0.40663 0.59620
 C151 C 0.90554 0.40268 0.59698
 N152 N 0.93624 0.57936 0.54873
 N153 N 0.90841 0.61386 0.56076
 N154 N 1.03314 0.54864 0.57921
 N155 N 1.06450 0.55664 0.60778
 N156 N 1.03033 0.57917 0.54871
 N157 N 1.05961 0.60876 0.55546
 N158 N 0.93884 0.54870 0.57929
 N159 N 0.91278 0.56180 0.61273
 Mn160 Mn 0.99044 0.50050 0.57972
 C161 C 0.89324 0.60185 0.60013
 C162 C 1.08082 0.59394 0.59206
 N163 N 0.95256 0.42032 0.45461
 N164 N 0.92612 0.38877 0.44491
 N165 N 1.04436 0.45205 0.42531
 N166 N 1.07504 0.44291 0.39464
 N167 N 1.04698 0.42091 0.45530
 N168 N 1.07955 0.38964 0.44565
 N169 N 0.95007 0.45125 0.42435
 N170 N 0.92188 0.44155 0.39333
 Mn171 Mn 0.99915 0.42041 0.50217
 C172 C 0.90682 0.40290 0.40700
 C173 C 1.09722 0.40445 0.40824
 N174 N 1.03160 0.57887 0.45561
 N175 N 1.05943 0.60966 0.44788
 N176 N 0.94100 0.54761 0.42419
 N177 N 0.91533 0.55981 0.39061
 N178 N 0.93751 0.57868 0.45456
 N179 N 0.90947 0.61268 0.44224
 N180 N 1.03524 0.54796 0.42525
 N181 N 1.06570 0.55693 0.39584
 Mn182 Mn 0.98380 0.57921 0.50192
 Mn183 Mn 0.99264 0.49967 0.42446
 Cl184 Cl 0.99124 0.49988 0.50207
 C185 C 1.08076 0.59516 0.41091
 C186 C 0.89512 0.59980 0.40291
 N187 N 0.58155 0.03336 0.54753
 N188 N 0.61279 0.06080 0.55519
 N189 N 0.54990 -0.05629 0.57921
 N190 N 0.56221 -0.08195 0.61268
 N191 N 0.58129 -0.05968 0.54875
 N192 N 0.61563 -0.08766 0.56090
 N193 N 0.55038 0.03687 0.57806
 N194 N 0.55960 0.06684 0.60748
 C195 C 0.59826 0.08175 0.59230
 C196 C 0.60265 -0.10203 0.60026
 N197 N 0.42071 -0.04430 0.54923
 N198 N 0.38913 -0.07097 0.55855
 N199 N 0.45326 0.04612 0.57839
 N200 N 0.44461 0.07685 0.60874
 N201 N 0.42165 0.04895 0.54851
 N202 N 0.39054 0.08170 0.55791
 N203 N 0.45215 -0.04703 0.57932
 N204 N 0.44275 -0.07561 0.60990
 Mn205 Mn 0.50135 -0.00513 0.57907
 C206 C 0.40371 -0.09058 0.59611
 C207 C 0.40595 0.09921 0.59507
 N208 N 0.58104 -0.06068 0.45436
 N209 N 0.61523 -0.08909 0.44234
 N210 N 0.55013 0.03508 0.42392
 N211 N 0.55869 0.06511 0.39449
 N212 N 0.58134 0.03227 0.45412
 N213 N 0.61199 0.06028 0.44619
 N214 N 0.54959 -0.05798 0.42424
 N215 N 0.56168 -0.08457 0.39117
 Mn216 Mn 0.58154 -0.01379 0.50117
 C217 C 0.60202 -0.10445 0.40348
 C218 C 0.59704 0.08073 0.40926
 N219 N 0.42147 0.04794 0.45417
 N220 N 0.39009 0.08013 0.44429
 N221 N 0.45195 -0.04879 0.42440
 N222 N 0.44186 -0.07688 0.39350
 N223 N 0.42041 -0.04539 0.45468
 N224 N 0.38805 -0.07112 0.44510
 N225 N 0.45312 0.04443 0.42404
 N226 N 0.44423 0.07411 0.39303
 Mn227 Mn 0.42061 0.00182 0.50168
 Mn228 Mn 0.50119 -0.00687 0.42385
 Cl229 Cl 0.50113 -0.00621 0.50145
 C230 C 0.40537 0.09660 0.40655
 C231 C 0.40232 -0.09098 0.40725
 N232 N 0.44691 0.57855 -0.04551
 N233 N 0.43748 0.60968 -0.07498
 N234 N 0.41709 0.54865 0.04595
 N235 N 0.38563 0.55960 0.07560
 N236 N 0.44744 0.57776 0.04583
 N237 N 0.43761 0.60915 0.07529
 N238 N 0.41662 0.54939 -0.04572
 N239 N 0.38557 0.55998 -0.07546
 C240 C 0.39952 0.59733 -0.09357
 C241 C 0.39941 0.59703 0.09389
 N242 N 0.45410 0.41985 0.04395
 N243 N 0.44623 0.38878 0.07260
 N244 N 0.42077 0.45305 -0.04697
 N245 N 0.38933 0.44521 -0.07554
 N246 N 0.45357 0.42079 -0.04776
 N247 N 0.44524 0.39021 -0.07687
 N248 N 0.42138 0.45219 0.04474
 N249 N 0.39046 0.44391 0.07393
 Mn250 Mn 0.41848 0.50082 -0.00049
 C251 C 0.40689 0.40471 0.09151
 C252 C 0.40556 0.40639 -0.09442
 N253 N 0.54416 0.57344 0.04462
 N254 N 0.55448 0.60613 0.07036
 N255 N 0.57652 0.54243 -0.04737
 N256 N 0.61005 0.55358 -0.07221
 N257 N 0.54367 0.57461 -0.04655
 N258 N 0.55405 0.60832 -0.07084
 N259 N 0.57698 0.54127 0.04381
 N260 N 0.61047 0.55131 0.06896
 Mn261 Mn 0.49545 0.57629 -0.00040
 C262 C 0.59531 0.59123 0.08599
 C263 C 0.59492 0.59418 -0.08737
 N264 N 0.55120 0.41655 -0.04883
 N265 N 0.56250 0.38523 -0.07814
 N266 N 0.58125 0.44564 0.04267
 N267 N 0.61239 0.43633 0.07251
 N268 N 0.55159 0.41585 0.04282
 N269 N 0.56181 0.38533 0.07283
 N270 N 0.58074 0.44647 -0.04872
 N271 N 0.61281 0.43642 -0.07787
 Mn272 Mn 0.50262 0.41779 -0.00247
 Mn273 Mn 0.57912 0.49385 -0.00243
 Cl274 Cl 0.49888 0.49713 -0.00148
 C275 C 0.60058 0.39858 -0.09628
 C276 C 0.59950 0.39897 0.09120
 C277 C 1.19541 0.19602 0.18115
 C278 C 1.17271 0.17319 0.15953
 C279 C 1.14642 0.14560 0.13489
 C280 C 1.12448 0.12116 0.11434
 C281 C 1.19324 0.68867 0.67368
 C282 C 1.16918 0.66593 0.65380
 C283 C 1.13979 0.63956 0.63195
 C284 C 1.11349 0.61790 0.61377
 C285 C 0.69532 0.18982 0.67825
 C286 C 0.67270 0.16599 0.65769
 C287 C 0.64606 0.13755 0.63457
 C288 C 0.62373 0.11256 0.61522
 C289 C 0.69783 0.69480 0.16928
 C290 C 0.67454 0.67102 0.14984
 C291 C 0.64690 0.64277 0.12829
 C292 C 0.62319 0.61881 0.10964
 C293 C 0.80883 -0.19195 0.17600
 C294 C 0.83223 -0.16669 0.15824
 C295 C 0.85862 -0.13737 0.13575
 C296 C 0.88037 -0.11224 0.11575
 C297 C 0.80196 0.30119 0.68504
 C298 C 0.82569 0.32582 0.66661
 C299 C 0.85318 0.35363 0.64318
 C300 C 0.87678 0.37648 0.62231
 C301 C 0.30552 -0.19927 0.68062
 C302 C 0.32939 -0.17437 0.66293
 C303 C 0.35632 -0.14544 0.64051
 C304 C 0.37843 -0.12064 0.62049
 C305 C 0.30874 0.30670 0.18868
 C306 C 0.33283 0.33056 0.16973
 C307 C 0.35981 0.35742 0.14470
 C308 C 0.38183 0.37946 0.12137
 C309 C 0.80498 0.20219 -0.20877
 C310 C 0.82884 0.18367 -0.18136
 C311 C 0.85600 0.15883 -0.15063
 C312 C 0.87876 0.13537 -0.12583
 C313 C 0.80827 0.69987 0.28624
 C314 C 0.82813 0.67968 0.31504
 C315 C 0.85056 0.65324 0.34730
 C316 C 0.87015 0.62917 0.37350
 C317 C 0.30941 0.19924 0.29742
 C318 C 0.33218 0.17927 0.32464
 C319 C 0.35795 0.15298 0.35516
 C320 C 0.37960 0.12835 0.37967
 C321 C 0.30820 0.69113 -0.21248
 C322 C 0.33025 0.67093 -0.18507
 C323 C 0.35472 0.64542 -0.15334
 C324 C 0.37514 0.62318 -0.12622
 C325 C 1.19919 -0.19964 -0.20927
 C326 C 1.17961 -0.17622 -0.18206
 C327 C 1.15432 -0.14907 -0.15149
 C328 C 1.13141 -0.12550 -0.12668
 C329 C 1.20064 0.30820 0.29852
 C330 C 1.18074 0.33095 0.32605
 C331 C 1.15435 0.35677 0.35683
 C332 C 1.12945 0.37852 0.38144
 C333 C 0.70153 -0.19499 0.28692
 C334 C 0.68140 -0.17454 0.31575
 C335 C 0.65521 -0.15113 0.34811
 C336 C 0.63136 -0.13057 0.37431
 C337 C 0.69778 0.30321 -0.21224
 C338 C 0.67704 0.32615 -0.18538
 C339 C 0.65071 0.35186 -0.15445
 C340 C 0.62765 0.37326 -0.12809
 C341 C 1.19498 0.19945 -0.18014
 C342 C 1.17209 0.17610 -0.15934
 C343 C 1.14569 0.14768 -0.13591
 C344 C 1.12384 0.12241 -0.11638
 C345 C 1.18913 0.69243 0.32536
 C346 C 1.16541 0.66959 0.34579
 C347 C 1.13698 0.64274 0.36872
 C348 C 1.11186 0.62038 0.38796
 C349 C 0.69138 0.19038 0.32288
 C350 C 0.66917 0.16627 0.34342
 C351 C 0.64326 0.13742 0.36670
 C352 C 0.62164 0.11200 0.38623
 C353 C 0.69666 0.69985 -0.17039
 C354 C 0.67353 0.67596 -0.15059
 C355 C 0.64614 0.64724 -0.12891
 C356 C 0.62268 0.62269 -0.11046
 C357 C 0.80570 -0.19084 -0.18040
 C358 C 0.82980 -0.16585 -0.16297
 C359 C 0.85705 -0.13688 -0.14070
 C360 C 0.87945 -0.11212 -0.12077
 C361 C 0.80131 0.30443 0.31879
 C362 C 0.82548 0.32830 0.33745
 C363 C 0.85350 0.35521 0.36101
 C364 C 0.87756 0.37737 0.38188
 C365 C 0.30259 -0.19644 0.31940
 C366 C 0.32656 -0.17212 0.33794
 C367 C 0.35371 -0.14402 0.36145
 C368 C 0.37618 -0.12004 0.38225
 C369 C 0.30628 0.30853 -0.18995
 C370 C 0.33042 0.33250 -0.17136
 C371 C 0.35762 0.35944 -0.14684
 C372 C 0.37996 0.38144 -0.12390
 C373 C 1.19707 -0.19630 0.20814
 C374 C 1.17793 -0.17312 0.18068
 C375 C 1.15314 -0.14630 0.14969
 C376 C 1.13063 -0.12312 0.12448
 C377 C 1.20087 0.31227 0.70414
 C378 C 1.18093 0.33496 0.67699
 C379 C 1.15422 0.36045 0.64673
 C380 C 1.12888 0.38167 0.62256
 C381 C 0.70269 -0.19332 0.71528
 C382 C 0.68246 -0.17258 0.68687
 C383 C 0.65603 -0.14878 0.65509
 C384 C 0.63204 -0.12806 0.62930
 C385 C 0.69180 0.30705 0.21097
 C386 C 0.67177 0.32941 0.18366
 C387 C 0.64678 0.35426 0.15174
 C388 C 0.62502 0.37481 0.12431
 C389 C 0.80417 0.20193 0.20570
 C390 C 0.82791 0.18379 0.17776
 C391 C 0.85500 0.15948 0.14636
 C392 C 0.87784 0.13636 0.12109
 C393 C 0.80443 0.70551 0.71495
 C394 C 0.82477 0.68461 0.68644
 C395 C 0.84783 0.65705 0.65479
 C396 C 0.86787 0.63209 0.62915
 C397 C 0.30969 0.20360 0.70359
 C398 C 0.33268 0.18358 0.67628
 C399 C 0.35861 0.15692 0.64583
 C400 C 0.38029 0.13175 0.62153
 C401 C 0.30576 0.69358 0.21151
 C402 C 0.32827 0.67274 0.18436
 C403 C 0.35335 0.64643 0.15299
 C404 C 0.37431 0.62355 0.12622
   
