data_POSCAR
  _audit_creation_date              2014-09-24
  _audit_creation_method            'ToBaCCo'
  _symmetry_space_group_name_H-M    'P1'
  _symmetry_Int_Tables_number       1
  _symmetry_cell_setting            triclinic
  loop_
  _symmetry_equiv_pos_as_xyz
 x,y,z
_cell_length_a 30.8500
_cell_length_b 31.2550
_cell_length_c 29.6875
_cell_angle_alpha 87.146300
_cell_angle_beta 91.492800
_cell_angle_gamma 90.741000
loop_
  _atom_site_label
  _atom_site_type_symbol
  _atom_site_fract_x
  _atom_site_fract_y
  _atom_site_fract_z
C1 C 0.30376 0.29343 0.20705
 H2 H 0.32167 0.28067 0.23638
 C3 C 0.32436 0.32117 0.17586
 H4 H 0.35796 0.32951 0.18226
 C5 C 0.23753 0.29922 0.16504
 H6 H 0.20362 0.29054 0.16129
 C7 C 0.25682 0.32695 0.13299
 H8 H 0.23747 0.33960 0.10452
 N9 N 0.26116 0.28303 0.20105
 C10 C 0.17161 0.25740 0.31053
 H11 H 0.17197 0.22281 0.31452
 C12 C 0.14603 0.28080 0.33836
 H13 H 0.12645 0.26407 0.36353
 C14 C 0.19746 0.32136 0.27368
 H15 H 0.21766 0.33713 0.24857
 C16 C 0.17279 0.34601 0.30115
 H17 H 0.17369 0.38054 0.29613
 Zn18 Zn 0.23284 0.24559 0.24274
 N19 N 0.19665 0.27787 0.27889
 C20 C 0.27536 0.22043 0.32569
 N21 N 0.27497 0.21610 0.28028
 C22 C 0.30499 0.19169 0.26110
 C23 C 0.33577 0.16924 0.28787
 C24 C 0.30543 0.19835 0.35374
 C25 C 0.15601 0.20065 0.21515
 C26 C 0.13204 0.17199 0.18949
 C27 C 0.19717 0.15608 0.15057
 C28 C 0.21986 0.18498 0.17698
 N29 N 0.19935 0.20615 0.20906
 H30 H 0.25258 0.24121 0.34044
 H31 H 0.30549 0.18986 0.22497
 H32 H 0.35909 0.14960 0.27202
 H33 H 0.30515 0.20267 0.38966
 H34 H 0.13964 0.21868 0.23948
 H35 H 0.09763 0.16787 0.19499
 H36 H 0.21485 0.13905 0.12626
 H37 H 0.25380 0.19105 0.17117
 C38 C 0.14703 0.32565 0.33436
 C39 C 0.30081 0.33814 0.13794
 C40 C 0.15249 0.14942 0.15655
 C41 C 0.33565 0.17166 0.33484
 C42 C 0.74950 0.85140 0.22788
 H43 H 0.72398 0.86176 0.24865
 C44 C 0.77012 0.88167 0.19944
 H45 H 0.75932 0.91458 0.19850
 C46 C 0.79509 0.79692 0.20466
 H47 H 0.80515 0.76391 0.20724
 C48 C 0.81716 0.82628 0.17616
 H49 H 0.84309 0.81443 0.15664
 N50 N 0.76084 0.80944 0.22857
 C51 C 0.68757 0.77930 0.34383
 H52 H 0.70928 0.75469 0.35708
 C53 C 0.66035 0.79897 0.37321
 H54 H 0.66181 0.78983 0.40889
 C55 C 0.65808 0.82053 0.28157
 H56 H 0.65657 0.82803 0.24560
 C57 C 0.63134 0.84206 0.30999
 H58 H 0.60966 0.86652 0.29592
 Zn59 Zn 0.72779 0.76631 0.26090
 N60 N 0.68707 0.79127 0.29907
 C61 C 0.79195 0.75054 0.32851
 N62 N 0.76598 0.73152 0.29742
 C63 C 0.76468 0.68818 0.29473
 C64 C 0.78937 0.66212 0.32478
 C65 C 0.81642 0.72559 0.35992
 C66 C 0.65389 0.72559 0.22253
 C67 C 0.63163 0.69811 0.19406
 C68 C 0.69920 0.68362 0.15891
 C69 C 0.72011 0.71147 0.18794
 N70 N 0.69746 0.73163 0.21923
 H71 H 0.79212 0.78504 0.33012
 H72 H 0.74325 0.67356 0.27045
 H73 H 0.78662 0.62767 0.32312
 H74 H 0.83569 0.74102 0.38561
 H75 H 0.63638 0.74120 0.24799
 H76 H 0.59705 0.69322 0.19774
 H77 H 0.71870 0.66718 0.13570
 H78 H 0.75478 0.71565 0.18645
 C79 C 0.63306 0.83175 0.35651
 C80 C 0.80390 0.86933 0.17226
 C81 C 0.65422 0.67648 0.16186
 C82 C 0.81513 0.68085 0.35833
 C83 C 0.82838 0.31097 0.73892
 H84 H 0.83574 0.30253 0.77398
 C85 C 0.85513 0.34028 0.71551
 H86 H 0.88238 0.35475 0.73307
 C87 C 0.78577 0.30068 0.67281
 H88 H 0.75935 0.28465 0.65584
 C89 C 0.81150 0.33010 0.64818
 H90 H 0.80450 0.33571 0.61250
 N91 N 0.79414 0.29204 0.71758
 C92 C 0.68154 0.27560 0.79394
 H93 H 0.66613 0.25181 0.77359
 C94 C 0.65617 0.29957 0.82145
 H95 H 0.62139 0.29435 0.82133
 C96 C 0.74520 0.31084 0.81951
 H97 H 0.77988 0.31520 0.81885
 C98 C 0.72108 0.33557 0.84750
 H99 H 0.73807 0.35910 0.86697
 Zn100 Zn 0.75875 0.25221 0.75157
 N101 N 0.72518 0.28227 0.79255
 C102 C 0.77823 0.19041 0.82122
 N103 N 0.79464 0.21258 0.78486
 C104 C 0.83570 0.20599 0.77152
 C105 C 0.86230 0.17665 0.79555
 C106 C 0.80359 0.16046 0.84620
 C107 C 0.68940 0.24317 0.68795
 C108 C 0.66098 0.22128 0.65953
 C109 C 0.69873 0.15580 0.68055
 C110 C 0.72624 0.17889 0.70884
 N111 N 0.72120 0.22180 0.71205
 H112 H 0.74527 0.19601 0.83083
 H113 H 0.84780 0.22323 0.74190
 H114 H 0.89494 0.17226 0.78403
 H115 H 0.78899 0.14398 0.87489
 H116 H 0.68585 0.27726 0.69120
 H117 H 0.63566 0.23875 0.64088
 H118 H 0.70290 0.12157 0.67948
 H119 H 0.75152 0.16239 0.72838
 C120 C 0.67572 0.33039 0.84837
 C121 C 0.84653 0.35066 0.66973
 C122 C 0.66564 0.17713 0.65523
 C123 C 0.84665 0.15310 0.83357
 C124 C 0.32382 0.79609 0.74005
 H125 H 0.32642 0.79171 0.77639
 C126 C 0.35211 0.82421 0.71720
 H127 H 0.37640 0.84167 0.73614
 C128 C 0.28909 0.77834 0.67119
 H129 H 0.26503 0.75982 0.65334
 C130 C 0.31651 0.80644 0.64699
 H131 H 0.31325 0.80894 0.61059
 N132 N 0.29271 0.77431 0.71696
 C133 C 0.19047 0.74837 0.81380
 H134 H 0.18860 0.71374 0.81489
 C135 C 0.16268 0.77145 0.83978
 H136 H 0.13964 0.75437 0.86117
 C137 C 0.22223 0.81274 0.78395
 H138 H 0.24471 0.82883 0.76135
 C139 C 0.19506 0.83703 0.80918
 H140 H 0.19708 0.87155 0.80506
 Zn141 Zn 0.25631 0.73701 0.75152
 N142 N 0.21997 0.76923 0.78715
 C143 C 0.29112 0.69850 0.83365
 N144 N 0.29336 0.70122 0.78791
 C145 C 0.32418 0.68001 0.76625
 C146 C 0.35381 0.65402 0.79062
 C147 C 0.32004 0.67268 0.85940
 C148 C 0.18977 0.72425 0.68718
 C149 C 0.16210 0.70105 0.65920
 C150 C 0.19683 0.63597 0.68760
 C151 C 0.22375 0.66040 0.71508
 N152 N 0.22027 0.70378 0.71387
 H153 H 0.26732 0.71670 0.85034
 H154 H 0.32576 0.68346 0.72989
 H155 H 0.37804 0.63722 0.77278
 H156 H 0.31805 0.67165 0.89575
 H157 H 0.18705 0.75871 0.68760
 H158 H 0.13823 0.71787 0.63785
 H159 H 0.19990 0.60150 0.68984
 H160 H 0.24713 0.64453 0.73764
 C161 C 0.16521 0.81634 0.83822
 C162 C 0.34814 0.83028 0.67021
 C163 C 0.16586 0.65641 0.65864
 C164 C 0.35168 0.64967 0.83772
 C165 C -0.03146 -0.04686 0.01711
 C166 C -0.01453 -0.01576 -0.01323
 C167 C -0.04206 0.01404 -0.03559
 C168 C -0.08699 0.01323 -0.02778
 C169 C -0.10315 -0.01702 0.00461
 C170 C -0.07560 -0.04711 0.02757
 C171 C 0.03273 -0.01113 -0.01755
 C172 C 0.05572 -0.03778 -0.04488
 C173 C 0.10082 -0.03211 -0.04933
 C174 C 0.12224 0.00021 -0.02585
 C175 C 0.09974 0.02615 0.00254
 C176 C 0.05467 0.02070 0.00593
 H177 H -0.00949 -0.06927 0.03461
 H178 H -0.02743 0.03819 -0.05781
 H179 H 0.03811 -0.06170 -0.06338
 H180 H 0.03621 0.04138 0.02624
 H181 H -0.13761 -0.01778 0.01049
 H182 H 0.15696 0.00475 -0.02911
 C183 C -0.04100 0.47777 0.52089
 C184 C -0.01449 0.50014 0.48986
 C185 C -0.03317 0.52620 0.45510
 C186 C -0.07809 0.53157 0.45227
 C187 C -0.10459 0.50921 0.48343
 C188 C -0.08651 0.48154 0.51750
 C189 C 0.03295 0.49592 0.49318
 C190 C 0.05453 0.47287 0.46146
 C191 C 0.09992 0.46955 0.46369
 C192 C 0.12345 0.49064 0.49721
 C193 C 0.10228 0.51439 0.52876
 C194 C 0.05672 0.51627 0.52703
 H195 H -0.02574 0.45654 0.54623
 H196 H -0.01261 0.54306 0.43084
 H197 H 0.03583 0.45818 0.43485
 H198 H 0.03955 0.53359 0.55159
 H199 H -0.13950 0.51243 0.48024
 H200 H 0.15854 0.48876 0.49856
 C201 C 0.45014 -0.02188 0.53136
 C202 C 0.47249 0.01254 0.51006
 C203 C 0.44940 0.04721 0.49019
 C204 C 0.40389 0.04745 0.49102
 C205 C 0.38196 0.01336 0.51322
 C206 C 0.40463 -0.02143 0.53347
 C207 C 0.51988 0.01126 0.50592
 C208 C 0.53778 -0.01444 0.47402
 C209 C 0.58272 -0.01424 0.46784
 C210 C 0.60961 0.01153 0.49433
 C211 C 0.59224 0.03691 0.52702
 C212 C 0.54700 0.03681 0.53243
 H213 H 0.46829 -0.04909 0.54527
 H214 H 0.46699 0.07356 0.47373
 H215 H 0.51648 -0.03335 0.45304
 H216 H 0.53263 0.05564 0.55763
 H217 H 0.34683 0.01352 0.51397
 H218 H 0.64435 0.01159 0.48963
 C219 C 0.48259 0.45801 0.02949
 C220 C 0.50104 0.49201 0.00375
 C221 C 0.47425 0.52307 -0.01775
 C222 C 0.42900 0.52031 -0.01365
 C223 C 0.41107 0.48693 0.01345
 C224 C 0.43757 0.45523 0.03489
 C225 C 0.54857 0.49659 0.00176
 C226 C 0.57337 0.46509 -0.01709
 C227 C 0.61878 0.46965 -0.01893
 C228 C 0.63898 0.50503 0.00063
 C229 C 0.61458 0.53609 0.02087
 C230 C 0.56913 0.53222 0.02001
 H231 H 0.50355 0.43442 0.04652
 H232 H 0.48897 0.54966 -0.03675
 H233 H 0.55693 0.43734 -0.03008
 H234 H 0.54938 0.55647 0.03387
 H235 H 0.37643 0.48648 0.01799
 H236 H 0.67401 0.50827 0.00037
 C237 C 0.13587 -0.15953 -0.13367
 C238 C 0.14483 -0.11977 -0.12113
 C239 C 0.11550 -0.09669 -0.09263
 C240 C 0.12689 -0.05784 -0.07904
 H241 H 0.17484 -0.10403 -0.13089
 H242 H 0.08546 -0.11193 -0.08214
 H243 H 0.10677 -0.17561 -0.12151
 H244 H 0.15813 -0.04460 -0.08889
 C245 C 0.12094 0.35018 0.36501
 C246 C 0.13356 0.38849 0.37906
 C247 C 0.10766 0.41131 0.41094
 C248 C 0.12389 0.44584 0.43057
 H249 H 0.16406 0.40262 0.36825
 H250 H 0.07575 0.39896 0.41936
 H251 H 0.09183 0.33517 0.37850
 H252 H 0.15695 0.45595 0.42379
 C253 C 0.60768 -0.14448 0.38817
 C254 C 0.60946 -0.10175 0.38786
 C255 C 0.58809 -0.07813 0.42254
 C256 C 0.60219 -0.03902 0.43256
 H257 H 0.62915 -0.08414 0.36332
 H258 H 0.56207 -0.09356 0.44134
 H259 H 0.59128 -0.16232 0.41510
 H260 H 0.63054 -0.02555 0.41600
 C261 C 0.64746 0.35755 -0.12538
 C262 C 0.66179 0.38292 -0.09298
 C263 C 0.63181 0.41120 -0.07096
 C264 C 0.64641 0.43810 -0.04011
 H265 H 0.69566 0.38354 -0.08268
 H266 H 0.59806 0.41116 -0.08180
 H267 H 0.61299 0.35689 -0.13354
 H268 H 0.68082 0.43863 -0.03166
 C269 C -0.12647 0.12484 -0.14416
 C270 C -0.13700 0.09788 -0.10669
 C271 C -0.10599 0.07035 -0.08654
 C272 C -0.11632 0.04181 -0.05036
 H273 H -0.16907 0.09743 -0.09291
 H274 H -0.07395 0.07096 -0.10036
 H275 H -0.09375 0.12235 -0.15640
 H276 H -0.14975 0.04093 -0.03979
 C277 C -0.16229 0.65434 0.39402
 C278 C -0.14454 0.61671 0.38627
 C279 C -0.12544 0.58971 0.42346
 C280 C -0.09705 0.55929 0.41549
 H281 H -0.14389 0.60571 0.35224
 H282 H -0.13427 0.59508 0.45783
 H283 H -0.15978 0.66645 0.42760
 H284 H -0.08562 0.55615 0.38159
 C285 C 0.36725 0.14598 0.36276
 C286 C 0.35981 0.13212 0.40523
 C287 C 0.38977 0.10243 0.42977
 C288 C 0.37802 0.08207 0.46829
 H289 H 0.33000 0.14016 0.42115
 H290 H 0.42012 0.09494 0.41455
 H291 H 0.39605 0.13527 0.34664
 H292 H 0.34623 0.08802 0.48128
 C293 C 0.38348 0.62178 -0.13725
 C294 C 0.37655 0.60358 -0.09631
 C295 C 0.40853 0.57426 -0.07435
 C296 C 0.39948 0.55237 -0.03582
 H297 H 0.34651 0.60876 -0.07946
 H298 H 0.43879 0.56933 -0.09092
 H299 H 0.41290 0.61415 -0.15425
 H300 H 0.36793 0.55616 -0.02133
 C301 C -0.17827 -0.09983 0.14162
 C302 C -0.14207 -0.10581 0.11530
 C303 C -0.12942 -0.07428 0.08318
 C304 C -0.09035 -0.07727 0.06072
 H305 H -0.12282 -0.13441 0.12001
 H306 H -0.14958 -0.04638 0.07740
 H307 H -0.19374 -0.06879 0.13820
 H308 H -0.06876 -0.10307 0.07183
 C309 C -0.12405 0.38113 0.64528
 C310 C -0.13581 0.40399 0.60771
 C311 C -0.10445 0.43234 0.58378
 C312 C -0.11647 0.45518 0.54624
 H313 H -0.16864 0.40177 0.59418
 H314 H -0.07148 0.43372 0.59691
 H315 H -0.09158 0.38549 0.65934
 H316 H -0.15027 0.45388 0.53531
 C317 C 0.37740 -0.13855 0.64672
 C318 C 0.36580 -0.11682 0.60848
 C319 C 0.39433 -0.08352 0.58797
 C320 C 0.37925 -0.05735 0.55434
 H321 H 0.33402 -0.12195 0.59319
 H322 H 0.42685 -0.07931 0.60178
 H323 H 0.40821 -0.13104 0.66309
 H324 H 0.34571 -0.06091 0.54308
 C325 C 0.31990 0.36862 0.10382
 C326 C 0.36241 0.37670 0.10014
 C327 C 0.37803 0.40918 0.06659
 C328 C 0.42000 0.42047 0.06535
 H329 H 0.38597 0.36013 0.12197
 H330 H 0.35454 0.42409 0.04336
 H331 H 0.29762 0.38535 0.08041
 H332 H 0.44272 0.40360 0.08815
 C333 C 0.12644 0.11887 0.13006
 C334 C 0.13835 0.10509 0.09030
 C335 C 0.11136 0.07403 0.06617
 C336 C 0.12430 0.05894 0.02738
 H337 H 0.16793 0.11678 0.07496
 H338 H 0.08158 0.06246 0.08124
 H339 H 0.09564 0.10792 0.14350
 H340 H 0.15543 0.06945 0.01440
 C341 C 0.13658 0.63239 0.62829
 C342 C 0.14619 0.59404 0.61331
 C343 C 0.11681 0.57235 0.58159
 C344 C 0.12890 0.53637 0.56303
 H345 H 0.17666 0.57898 0.62297
 H346 H 0.08602 0.58691 0.57215
 H347 H 0.10693 0.64780 0.61610
 H348 H 0.16094 0.52387 0.57120
 C349 C 0.63463 0.15429 0.62556
 C350 C 0.64395 0.11773 0.60644
 C351 C 0.61175 0.09600 0.57761
 C352 C 0.62265 0.06133 0.55589
 H353 H 0.67577 0.10379 0.61142
 H354 H 0.57936 0.10882 0.57393
 H355 H 0.60339 0.16888 0.61807
 H356 H 0.65599 0.05069 0.55858
 C357 C 0.63008 0.64519 0.13435
 C358 C 0.64624 0.62621 0.09906
 C359 C 0.62085 0.59312 0.07608
 C360 C 0.63759 0.57187 0.04265
 H361 H 0.67827 0.63423 0.08712
 H362 H 0.58897 0.58481 0.08840
 H363 H 0.59729 0.63687 0.14420
 H364 H 0.67055 0.57924 0.03272
   
