data_POSCAR
  _audit_creation_date              2014-09-24
  _audit_creation_method            'ToBaCCo'
  _symmetry_space_group_name_H-M    'P1'
  _symmetry_Int_Tables_number       1
  _symmetry_cell_setting            triclinic
  loop_
  _symmetry_equiv_pos_as_xyz
 x,y,z
_cell_length_a 74.3602
_cell_length_b 74.3702
_cell_length_c 21.6384
_cell_angle_alpha 89.989800
_cell_angle_beta 90.002200
_cell_angle_gamma 120.003700
loop_
  _atom_site_label
  _atom_site_type_symbol
  _atom_site_fract_x
  _atom_site_fract_y
  _atom_site_fract_z
C1 C 0.24776 0.49585 0.52975
 C2 C 0.24764 0.49594 0.46671
 C3 C 0.23114 0.49709 0.43111
 C4 C 0.26399 0.49487 0.43020
 C5 C 0.26516 0.49650 0.56539
 C6 C 0.23047 0.49504 0.56632
 C7 C 0.21979 0.48204 0.38650
 C8 C 0.20387 0.48254 0.35370
 C9 C 0.19872 0.49829 0.36417
 C10 C 0.21085 0.51369 0.40866
 C11 C 0.22680 0.51311 0.44113
 C12 C 0.26821 0.47863 0.43896
 C13 C 0.28412 0.47823 0.40578
 C14 C 0.29599 0.49395 0.36281
 C15 C 0.29133 0.50987 0.35301
 C16 C 0.27543 0.51027 0.38622
 C17 C 0.28572 0.51245 0.55610
 C18 C 0.30197 0.51258 0.58903
 C19 C 0.29792 0.49687 0.63224
 C20 C 0.27725 0.48120 0.64237
 C21 C 0.26104 0.48107 0.60944
 C22 C 0.23470 0.51035 0.61084
 C23 C 0.21856 0.51012 0.64450
 C24 C 0.19788 0.49445 0.63460
 C25 C 0.19374 0.47883 0.59095
 C26 C 0.20990 0.47908 0.55732
 H27 H 0.22290 0.46948 0.37818
 H28 H 0.19504 0.46963 0.32296
 H29 H 0.20899 0.52697 0.41725
 H30 H 0.23586 0.52530 0.47409
 H31 H 0.25931 0.46640 0.47196
 H32 H 0.28742 0.46583 0.41464
 H33 H 0.27226 0.52281 0.37839
 H34 H 0.28919 0.52470 0.52306
 H35 H 0.31772 0.52479 0.57991
 H36 H 0.27360 0.46909 0.67611
 H37 H 0.24525 0.46875 0.61769
 H38 H 0.25050 0.52268 0.61885
 H39 H 0.22228 0.52215 0.67854
 H40 H 0.17796 0.46664 0.58200
 H41 H 0.20636 0.46691 0.52389
 H42 H 0.29994 0.52200 0.31946
 C43 C 0.50231 -0.24889 0.53170
 C44 C 0.50173 -0.24915 0.46867
 C45 C 0.50287 -0.26550 0.43230
 C46 C 0.50006 -0.23296 0.43311
 C47 C 0.50361 -0.23124 0.56757
 C48 C 0.50157 -0.26625 0.56776
 C49 C 0.51922 -0.26956 0.44105
 C50 C 0.51982 -0.28534 0.40769
 C51 C 0.50419 -0.29723 0.36451
 C52 C 0.48812 -0.29277 0.35484
 C53 C 0.48753 -0.27700 0.38824
 C54 C 0.51496 -0.22136 0.38806
 C55 C 0.51416 -0.20538 0.35657
 C56 C 0.49834 -0.20079 0.36931
 C57 C 0.48307 -0.21285 0.41322
 C58 C 0.48385 -0.22887 0.44454
 C59 C 0.48863 -0.23489 0.61272
 C60 C 0.48912 -0.21833 0.64465
 C61 C 0.50470 -0.19778 0.63225
 C62 C 0.52003 -0.19422 0.58819
 C63 C 0.51956 -0.21081 0.55643
 C64 C 0.48559 -0.28674 0.55867
 C65 C 0.48538 -0.30303 0.59144
 C66 C 0.50108 -0.29928 0.63499
 C67 C 0.51676 -0.27842 0.64480
 C68 C 0.51693 -0.26220 0.61175
 H69 H 0.53142 -0.26061 0.47408
 H70 H 0.53233 -0.28847 0.41649
 H71 H 0.47606 -0.30141 0.32116
 H72 H 0.47490 -0.27397 0.38039
 H73 H 0.52754 -0.22433 0.37847
 H74 H 0.52623 -0.19625 0.32340
 H75 H 0.47195 -0.23795 0.47822
 H76 H 0.47625 -0.25056 0.62211
 H77 H 0.47699 -0.22156 0.67792
 H78 H 0.53245 -0.17861 0.57849
 H79 H 0.53153 -0.20770 0.52268
 H80 H 0.47321 -0.29014 0.52616
 H81 H 0.47237 -0.31844 0.58371
 H82 H 0.52963 -0.27440 0.67573
 H83 H 0.52942 -0.24645 0.61939
 H84 H 0.47049 -0.20993 0.42317
 C85 C 1.24862 0.75214 0.53197
 C86 C 1.24831 0.75216 0.46894
 C87 C 1.26477 0.76956 0.43257
 C88 C 1.23155 0.73482 0.43324
 C89 C 1.23117 0.73585 0.56867
 C90 C 1.26641 0.76853 0.56724
 C91 C 1.26932 0.79004 0.44210
 C92 C 1.28540 0.80639 0.40948
 C93 C 1.29737 0.80270 0.36581
 C94 C 1.29211 0.78184 0.35548
 C95 C 1.27601 0.76557 0.38822
 C96 C 1.22023 0.73898 0.38935
 C97 C 1.20408 0.72279 0.35655
 C98 C 1.19904 0.70211 0.36668
 C99 C 1.21074 0.69802 0.40969
 C100 C 1.22690 0.71424 0.44246
 C101 C 1.23505 0.72447 0.61282
 C102 C 1.21876 0.70869 0.64639
 C103 C 1.19798 0.70389 0.63714
 C104 C 1.19441 0.71596 0.59354
 C105 C 1.21078 0.73173 0.56008
 C106 C 1.28669 0.77255 0.55683
 C107 C 1.30344 0.78873 0.58784
 C108 C 1.30039 0.80134 0.63068
 C109 C 1.27972 0.79656 0.64212
 C110 C 1.26303 0.78036 0.61100
 H111 H 1.26061 0.79342 0.47568
 H112 H 1.28887 0.82192 0.42121
 H113 H 1.29988 0.77775 0.32074
 H114 H 1.27249 0.74979 0.37947
 H115 H 1.22372 0.75477 0.38116
 H116 H 1.19560 0.72646 0.32297
 H117 H 1.23569 0.71074 0.47539
 H118 H 1.25076 0.72766 0.62089
 H119 H 1.22280 0.70083 0.68097
 H120 H 1.17893 0.71283 0.58260
 H121 H 1.20748 0.74057 0.52674
 H122 H 1.28959 0.76338 0.52367
 H123 H 1.31880 0.79179 0.57539
 H124 H 1.27611 0.80484 0.67643
 H125 H 1.24743 0.77726 0.62041
 H126 H 1.20715 0.68226 0.41879
 C127 C 0.74997 0.50021 0.53174
 C128 C 0.74999 0.50013 0.46868
 C129 C 0.76641 0.49892 0.43296
 C130 C 0.73367 0.50139 0.43255
 C131 C 0.73232 0.49900 0.56745
 C132 C 0.76764 0.50165 0.56780
 C133 C 0.77794 0.51410 0.38853
 C134 C 0.79412 0.51371 0.35686
 C135 C 0.79897 0.49803 0.36880
 C136 C 0.78699 0.48249 0.41211
 C137 C 0.77078 0.48286 0.44361
 C138 C 0.72950 0.51761 0.44246
 C139 C 0.71345 0.51811 0.41041
 C140 C 0.70142 0.50253 0.36729
 C141 C 0.70607 0.48667 0.35610
 C142 C 0.72209 0.48616 0.38831
 C143 C 0.71196 0.48293 0.55709
 C144 C 0.69534 0.48256 0.58832
 C145 C 0.69862 0.49818 0.63161
 C146 C 0.71937 0.51386 0.64310
 C147 C 0.73592 0.51420 0.61153
 C148 C 0.76413 0.48660 0.61235
 C149 C 0.78074 0.48719 0.64439
 C150 C 0.80145 0.50300 0.63290
 C151 C 0.80462 0.51845 0.58913
 C152 C 0.78796 0.51782 0.55742
 H153 H 0.77476 0.52657 0.37954
 H154 H 0.80317 0.52599 0.32417
 H155 H 0.79010 0.47000 0.42143
 H156 H 0.76175 0.47074 0.47679
 H157 H 0.73857 0.52978 0.47545
 H158 H 0.71051 0.53075 0.41914
 H159 H 0.72514 0.47357 0.37986
 H160 H 0.70891 0.47069 0.52445
 H161 H 0.68003 0.46953 0.57948
 H162 H 0.72305 0.52666 0.67402
 H163 H 0.75157 0.52676 0.62014
 H164 H 0.74853 0.47397 0.62100
 H165 H 0.77715 0.47451 0.67570
 H166 H 0.81988 0.53156 0.58026
 H167 H 0.79093 0.52996 0.52444
 H168 H 0.69698 0.47436 0.32355
 C169 C 0.49832 0.24919 0.53212
 C170 C 0.49849 0.24935 0.46908
 C171 C 0.49978 0.26705 0.43351
 C172 C 0.49723 0.23183 0.43265
 C173 C 0.49922 0.23263 0.56802
 C174 C 0.49724 0.26562 0.56819
 C175 C 0.48448 0.26349 0.38960
 C176 C 0.48496 0.28010 0.35796
 C177 C 0.50087 0.30058 0.36929
 C178 C 0.51653 0.30403 0.41200
 C179 C 0.51604 0.28741 0.44362
 C180 C 0.48097 0.21142 0.44200
 C181 C 0.48026 0.19500 0.40854
 C182 C 0.49571 0.19872 0.36469
 C183 C 0.51168 0.21925 0.35442
 C184 C 0.51237 0.23564 0.38791
 C185 C 0.51511 0.22804 0.55814
 C186 C 0.51545 0.21201 0.59084
 C187 C 0.49997 0.20019 0.63512
 C188 C 0.48437 0.20544 0.64569
 C189 C 0.48408 0.22144 0.61271
 C190 C 0.51251 0.27709 0.61226
 C191 C 0.51220 0.29319 0.64457
 C192 C 0.49645 0.29823 0.63408
 C193 C 0.48077 0.28602 0.59075
 C194 C 0.48115 0.26994 0.55856
 H195 H 0.47192 0.24787 0.38077
 H196 H 0.47289 0.27691 0.32453
 H197 H 0.52892 0.31963 0.42200
 H198 H 0.52818 0.29043 0.47662
 H199 H 0.46892 0.20819 0.47556
 H200 H 0.46784 0.17936 0.41780
 H201 H 0.52493 0.25131 0.37959
 H202 H 0.52732 0.23692 0.52506
 H203 H 0.52839 0.20955 0.58247
 H204 H 0.47165 0.19668 0.67720
 H205 H 0.47165 0.22475 0.62097
 H206 H 0.52488 0.27375 0.62108
 H207 H 0.52411 0.30116 0.67909
 H208 H 0.46859 0.28932 0.57891
 H209 H 0.46905 0.26106 0.52520
 H210 H 0.52359 0.22266 0.32021
 C211 C 0.75218 0.24845 0.53203
 C212 C 0.75194 0.24864 0.46901
 C213 C 0.73552 0.23113 0.43291
 C214 C 0.76824 0.26633 0.43314
 C215 C 0.76976 0.26493 0.56775
 C216 C 0.73493 0.23179 0.56834
 C217 C 0.73141 0.21072 0.44181
 C218 C 0.71548 0.19431 0.40891
 C219 C 0.70349 0.19805 0.36607
 C220 C 0.70803 0.21859 0.35616
 C221 C 0.72395 0.23497 0.38909
 C222 C 0.77989 0.26278 0.38892
 C223 C 0.79599 0.27939 0.35721
 C224 C 0.80064 0.29988 0.36878
 C225 C 0.78850 0.30333 0.41177
 C226 C 0.77239 0.28670 0.44345
 C227 C 0.76601 0.27630 0.61227
 C228 C 0.78247 0.29245 0.64431
 C229 C 0.80326 0.29767 0.63286
 C230 C 0.80670 0.28559 0.58901
 C231 C 0.79018 0.26941 0.55728
 C232 C 0.71433 0.22715 0.55968
 C233 C 0.69820 0.21107 0.59299
 C234 C 0.70240 0.19945 0.63598
 C235 C 0.72311 0.20449 0.64556
 C236 C 0.73921 0.22056 0.61223
 H237 H 0.74041 0.20748 0.47465
 H238 H 0.71229 0.17866 0.41786
 H239 H 0.69932 0.22200 0.32270
 H240 H 0.72703 0.25064 0.38113
 H241 H 0.77680 0.24715 0.37994
 H242 H 0.80482 0.27620 0.32356
 H243 H 0.76334 0.28972 0.47674
 H244 H 0.75032 0.27306 0.62097
 H245 H 0.77867 0.30138 0.67562
 H246 H 0.82206 0.28800 0.58012
 H247 H 0.79333 0.26038 0.52427
 H248 H 0.71074 0.23588 0.52677
 H249 H 0.68241 0.20749 0.58430
 H250 H 0.72687 0.19608 0.67911
 H251 H 0.75502 0.22404 0.61999
 H252 H 0.79176 0.31893 0.42196
 O253 O 0.97126 0.45474 0.11267
 O254 O 0.94843 0.45931 0.05286
 C255 C 0.95257 0.44995 0.09636
 O256 O 1.02925 0.54792 0.10639
 O257 O 1.05209 0.54222 0.05035
 C258 C 1.04795 0.55260 0.09041
 O259 O 0.97091 0.51691 0.11253
 O260 O 0.94826 0.48939 0.05279
 C261 C 0.95227 0.50287 0.09626
 O262 O 1.02956 0.48259 0.10710
 O263 O 1.05220 0.51140 0.05174
 C264 C 1.04821 0.49686 0.09160
 Zr265 Zr 1.00032 0.47784 0.07715
 O266 O 1.00259 0.47880 0.17475
 O267 O 0.99813 0.44834 0.07592
 Zr268 Zr 1.00007 0.52317 0.07699
 O269 O 1.00240 0.52457 0.17458
 O270 O 0.99754 0.55029 0.07575
 O271 O 0.98164 0.49115 0.08907
 O272 O 1.01818 0.50958 0.08851
 O273 O 1.02967 0.48240 -0.10743
 O274 O 1.05234 0.51111 -0.05171
 C275 C 1.04832 0.49650 -0.09137
 O276 O 0.97109 0.51710 -0.11443
 O277 O 0.94831 0.48946 -0.05523
 C278 C 0.95241 0.50309 -0.09835
 O279 O 1.02933 0.54804 -0.10779
 O280 O 1.05216 0.54224 -0.05205
 C281 C 1.04803 0.55274 -0.09178
 O282 O 0.97145 0.45466 -0.11421
 O283 O 0.94847 0.45925 -0.05516
 C284 C 0.95272 0.44981 -0.09818
 Zr285 Zr 1.00042 0.47789 -0.07891
 O286 O 1.00290 0.47927 -0.17648
 O287 O 0.99823 0.44839 -0.07898
 Zr288 Zr 1.00016 0.52318 -0.07895
 O289 O 1.00261 0.52438 -0.17652
 O290 O 0.99767 0.55032 -0.07863
 Zr291 Zr 0.96918 0.48485 -0.00114
 Zr292 Zr 1.03109 0.51604 -0.00083
 O293 O 1.01834 0.50962 -0.09029
 O294 O 0.98174 0.49118 -0.09119
 O295 O 1.01892 0.48366 -0.00074
 O296 O 0.98198 0.51730 -0.00107
 O297 O 0.98229 0.46547 -0.00096
 O298 O 1.01863 0.53603 -0.00089
 H299 H 1.02750 0.51433 0.12494
 H300 H 0.97253 0.52309 -0.00108
 H301 H 1.02782 0.51439 -0.12636
 H302 H 0.97296 0.45021 -0.00091
 H303 H 1.00954 0.56104 0.05235
 H304 H 1.00926 0.56086 -0.05345
 H305 H 0.99111 0.51120 -0.19282
 H306 H 0.99115 0.48052 -0.19280
 H307 H 1.00962 0.44942 -0.05283
 H308 H 1.01029 0.44977 0.05297
 H309 H 0.99126 0.48075 0.19099
 H310 H 0.99114 0.51125 0.19092
 O311 O 0.54596 0.51680 0.11098
 O312 O 0.54095 0.48910 0.05179
 C313 C 0.55058 0.50278 0.09472
 O314 O 0.45272 0.48184 0.10765
 O315 O 0.45844 0.51042 0.05170
 C316 C 0.44805 0.49586 0.09174
 O317 O 0.48400 0.45472 0.11361
 O318 O 0.51134 0.45945 0.05305
 C319 C 0.49800 0.45008 0.09699
 O320 O 0.51858 0.54779 0.10525
 O321 O 0.48963 0.54164 0.05058
 C322 C 0.50439 0.55229 0.08979
 Zr323 Zr 0.52293 0.52302 0.07622
 O324 O 0.52315 0.52522 0.17377
 O325 O 0.55177 0.55082 0.06883
 Zr326 Zr 0.47740 0.47741 0.07807
 O327 O 0.47583 0.47787 0.17568
 O328 O 0.44963 0.44846 0.07306
 O329 O 0.50945 0.49106 0.08916
 O330 O 0.49119 0.50922 0.08880
 O331 O 0.51785 0.54734 -0.10833
 O332 O 0.48924 0.54136 -0.05204
 C333 C 0.50372 0.55186 -0.09216
 O334 O 0.48282 0.45384 -0.11254
 O335 O 0.51078 0.45903 -0.05429
 C336 C 0.49695 0.44929 -0.09677
 O337 O 0.45182 0.48121 -0.10589
 O338 O 0.45807 0.51013 -0.05095
 C339 C 0.44737 0.49542 -0.09022
 O340 O 0.54524 0.51628 -0.11526
 O341 O 0.54047 0.48876 -0.05556
 C342 C 0.54988 0.50224 -0.09911
 Zr343 Zr 0.52230 0.52255 -0.07980
 O344 O 0.52067 0.52339 -0.17735
 O345 O 0.55169 0.54998 -0.08067
 Zr346 Zr 0.47682 0.47702 -0.07795
 O347 O 0.47539 0.47802 -0.17552
 O348 O 0.44940 0.44763 -0.07659
 Zr349 Zr 0.51530 0.48463 -0.00110
 Zr350 Zr 0.48441 0.51537 -0.00040
 O351 O 0.49048 0.50875 -0.09000
 O352 O 0.50877 0.49052 -0.09123
 O353 O 0.51679 0.53549 -0.00166
 O354 O 0.48291 0.46490 0.00009
 O355 O 0.53497 0.51703 -0.00203
 O356 O 0.46437 0.48299 0.00046
 H357 H 0.48662 0.51398 0.12519
 H358 H 0.47718 0.44967 0.00052
 H359 H 0.48561 0.51338 -0.12602
 H360 H 0.55020 0.52279 -0.00253
 H361 H 0.44532 0.44410 0.11636
 H362 H 0.44034 0.44812 -0.04395
 H363 H 0.48840 0.47936 -0.19205
 H364 H 0.51912 0.51024 -0.19335
 H365 H 0.55137 0.55927 -0.04850
 H366 H 0.55643 0.55544 0.11176
 H367 H 0.52010 0.51161 0.19046
 H368 H 0.48956 0.48107 0.19174
 O369 O 0.45522 -0.02835 -0.11603
 O370 O 0.45937 -0.05137 -0.05581
 C371 C 0.45031 -0.04710 -0.09990
 O372 O 0.54828 0.02956 -0.10425
 O373 O 0.54219 0.05223 -0.04874
 C374 C 0.55284 0.04821 -0.08817
 O375 O 0.51748 -0.02866 -0.11138
 O376 O 0.48947 -0.05157 -0.05365
 C377 C 0.50337 -0.04737 -0.09597
 O378 O 0.48281 0.02991 -0.10806
 O379 O 0.51117 0.05241 -0.05073
 C380 C 0.49689 0.04852 -0.09148
 Zr381 Zr 0.47800 0.00059 -0.07888
 O382 O 0.47883 0.00297 -0.17643
 O383 O 0.44916 -0.00032 -0.07434
 Zr384 Zr 0.52334 0.00035 -0.07604
 O385 O 0.52521 0.00293 -0.17357
 O386 O 0.55050 -0.00210 -0.07347
 O387 O 0.49142 -0.01803 -0.09001
 O388 O 0.50981 0.01850 -0.08850
 O389 O 0.48114 0.02934 0.10512
 O390 O 0.51044 0.05217 0.05182
 C391 C 0.49547 0.04804 0.09024
 O392 O 0.51585 -0.02925 0.11544
 O393 O 0.48870 -0.05180 0.05435
 C394 C 0.50193 -0.04787 0.09854
 O395 O 0.54696 0.02901 0.11009
 O396 O 0.54157 0.05200 0.05370
 C397 C 0.55180 0.04775 0.09410
 O398 O 0.45345 -0.02890 0.11072
 O399 O 0.45854 -0.05168 0.05234
 C400 C 0.44877 -0.04757 0.09468
 Zr401 Zr 0.47697 0.00019 0.07690
 O402 O 0.47770 0.00234 0.17454
 O403 O 0.44766 -0.00160 0.07491
 Zr404 Zr 0.52224 -0.00005 0.08005
 O405 O 0.52269 0.00217 0.17764
 O406 O 0.54935 -0.00260 0.08189
 Zr407 Zr 0.48450 -0.03080 -0.00023
 Zr408 Zr 0.51570 0.03110 0.00113
 O409 O 0.50862 0.01810 0.09026
 O410 O 0.49016 -0.01853 0.09017
 O411 O 0.48335 0.01894 -0.00088
 O412 O 0.51695 -0.01796 0.00182
 O413 O 0.46507 -0.01776 -0.00168
 O414 O 0.53567 0.01863 0.00262
 H415 H 0.51474 0.02796 -0.12461
 H416 H 0.52275 -0.02740 0.00238
 H417 H 0.51313 0.02748 0.12654
 H418 H 0.44981 -0.02710 -0.00266
 H419 H 0.56100 0.00970 -0.04889
 H420 H 0.56002 0.00891 0.05679
 H421 H 0.50943 -0.00943 0.19316
 H422 H 0.47867 -0.00956 0.19097
 H423 H 0.44831 0.00806 0.04238
 H424 H 0.44501 -0.00005 -0.11769
 H425 H 0.48225 -0.00740 -0.19258
 H426 H 0.51219 -0.00859 -0.19058
 C427 C 1.14905 0.49835 0.26997
 C428 C 1.15805 0.48726 0.24631
 C429 C 1.17459 0.48730 0.27712
 C430 C 1.18270 0.49851 0.33307
 C431 C 1.17329 0.50981 0.35559
 C432 C 1.15673 0.50965 0.32447
 C433 C 1.13181 0.49800 0.23853
 C434 C 1.11732 0.49765 0.21236
 C435 C 1.09999 0.49724 0.18135
 C436 C 1.07967 0.48205 0.19650
 C437 C 1.06281 0.48180 0.16704
 C438 C 1.06605 0.49678 0.12196
 C439 C 1.08657 0.51191 0.10679
 C440 C 1.10339 0.51212 0.13632
 H441 H 1.15236 0.47863 0.20357
 H442 H 1.18138 0.47918 0.25443
 H443 H 1.17764 0.51800 0.39911
 H444 H 1.14972 0.51817 0.34357
 H445 H 1.07686 0.47045 0.23129
 H446 H 1.04725 0.46994 0.17987
 H447 H 1.08967 0.52367 0.07230
 H448 H 1.11906 0.52394 0.12421
 C449 C 0.50504 0.65295 0.26618
 C450 C 0.48629 0.65051 0.28854
 C451 C 0.48601 0.66673 0.32029
 C452 C 0.50450 0.68564 0.33016
 C453 C 0.52328 0.68795 0.30738
 C454 C 0.52352 0.67170 0.27559
 C455 C 0.50530 0.63610 0.23426
 C456 C 0.50541 0.62186 0.20797
 C457 C 0.50544 0.60472 0.17720
 C458 C 0.49030 0.59320 0.13286
 C459 C 0.49003 0.57624 0.10404
 C460 C 0.50493 0.57055 0.11928
 C461 C 0.52019 0.58236 0.16360
 C462 C 0.52042 0.59931 0.19233
 H463 H 0.47191 0.63602 0.28175
 H464 H 0.47136 0.66436 0.33800
 H465 H 0.53773 0.70239 0.31360
 H466 H 0.53812 0.67376 0.25841
 H467 H 0.47862 0.59724 0.12083
 H468 H 0.47807 0.56753 0.07010
 H469 H 0.53190 0.57845 0.17645
 H470 H 0.53220 0.60812 0.22664
 C471 C 0.34805 -0.14732 0.27196
 C472 C 0.33177 -0.14495 0.29459
 C473 C 0.31506 -0.16135 0.32519
 C474 C 0.31421 -0.18063 0.33387
 C475 C 0.33086 -0.18267 0.31017
 C476 C 0.34754 -0.16620 0.27972
 C477 C 0.36537 -0.13031 0.24120
 C478 C 0.37990 -0.11602 0.21566
 C479 C 0.39723 -0.09888 0.18544
 C480 C 0.40263 -0.07849 0.20036
 C481 C 0.41942 -0.06180 0.17101
 C482 C 0.43107 -0.06528 0.12618
 C483 C 0.42554 -0.08587 0.11163
 C484 C 0.40873 -0.10254 0.14111
 H485 H 0.33194 -0.13041 0.28835
 H486 H 0.30254 -0.15890 0.33976
 H487 H 0.33171 -0.19662 0.31717
 H488 H 0.36018 -0.16815 0.26280
 H489 H 0.39383 -0.07549 0.23465
 H490 H 0.42322 -0.04618 0.18337
 H491 H 0.43417 -0.08913 0.07747
 H492 H 0.40470 -0.11827 0.12926
 C493 C 0.85078 0.49901 0.27736
 C494 C 0.83741 0.50364 0.24431
 C495 C 0.82048 0.50320 0.27388
 C496 C 0.81669 0.49810 0.33697
 C497 C 0.83016 0.49338 0.36972
 C498 C 0.84710 0.49385 0.34007
 C499 C 0.86830 0.49965 0.24697
 C500 C 0.88295 0.50020 0.22131
 C501 C 0.90038 0.50083 0.19035
 C502 C 0.89708 0.48623 0.14452
 C503 C 0.91395 0.48688 0.11399
 C504 C 0.93442 0.50219 0.12891
 C505 C 0.93757 0.51677 0.17524
 C506 C 0.92065 0.51608 0.20570
 H507 H 0.84009 0.50759 0.19570
 H508 H 0.81025 0.50667 0.24729
 H509 H 0.82782 0.48969 0.41852
 H510 H 0.85738 0.49030 0.36612
 H511 H 0.88145 0.47436 0.13230
 H512 H 0.91091 0.47538 0.07870
 H513 H 0.95310 0.52874 0.18792
 H514 H 0.92338 0.52746 0.24112
 C515 C 0.50084 0.35190 0.27792
 C516 C 0.51948 0.35183 0.28584
 C517 C 0.51953 0.33513 0.31545
 C518 C 0.50090 0.31828 0.33742
 C519 C 0.48224 0.31851 0.32919
 C520 C 0.48223 0.33522 0.29965
 C521 C 0.50073 0.36904 0.24745
 C522 C 0.50048 0.38331 0.22187
 C523 C 0.50003 0.40024 0.19115
 C524 C 0.51464 0.41153 0.14531
 C525 C 0.51404 0.42778 0.11482
 C526 C 0.49876 0.43298 0.12980
 C527 C 0.48419 0.42159 0.17622
 C528 C 0.48484 0.40533 0.20661
 H529 H 0.53396 0.36464 0.26903
 H530 H 0.53410 0.33529 0.32050
 H531 H 0.46770 0.30592 0.34641
 H532 H 0.46772 0.33515 0.29391
 H533 H 0.52647 0.40772 0.13299
 H534 H 0.52552 0.43623 0.07946
 H535 H 0.47224 0.42516 0.18894
 H536 H 0.47344 0.39667 0.24203
 C537 C 0.65305 0.14733 0.26982
 C538 C 0.67178 0.14749 0.27849
 C539 C 0.68823 0.16400 0.30961
 C540 C 0.68615 0.18058 0.33243
 C541 C 0.66726 0.18029 0.32333
 C542 C 0.65084 0.16377 0.29224
 C543 C 0.63601 0.13024 0.23847
 C544 C 0.62162 0.11593 0.21257
 C545 C 0.60431 0.09883 0.18212
 C546 C 0.59844 0.07841 0.19826
 C547 C 0.58142 0.06177 0.16949
 C548 C 0.57000 0.06536 0.12414
 C549 C 0.57611 0.08599 0.10803
 C550 C 0.59314 0.10259 0.13688
 H551 H 0.67366 0.13485 0.26122
 H552 H 0.70265 0.16390 0.31526
 H553 H 0.66507 0.19266 0.34112
 H554 H 0.63637 0.16376 0.28601
 H555 H 0.60698 0.07533 0.23327
 H556 H 0.57718 0.04612 0.18301
 H557 H 0.56772 0.08934 0.07326
 H558 H 0.59755 0.11835 0.12407
 C559 C 0.49928 0.14980 -0.26933
 C560 C 0.50916 0.15618 -0.32655
 C561 C 0.50955 0.17282 -0.35782
 C562 C 0.49996 0.18350 -0.33253
 C563 C 0.49016 0.17682 -0.27424
 C564 C 0.48986 0.16019 -0.24318
 C565 C 0.49868 0.13249 -0.23768
 C566 C 0.49815 0.11793 -0.21143
 C567 C 0.49756 0.10052 -0.18047
 C568 C 0.48265 0.08026 -0.19700
 C569 C 0.48229 0.06331 -0.16775
 C570 C 0.49689 0.06643 -0.12152
 C571 C 0.51173 0.08690 -0.10492
 C572 C 0.51205 0.10381 -0.13425
 H573 H 0.51638 0.14812 -0.34747
 H574 H 0.51663 0.17652 -0.40311
 H575 H 0.48329 0.18476 -0.25088
 H576 H 0.48232 0.15549 -0.19852
 H577 H 0.47136 0.07755 -0.23275
 H578 H 0.47066 0.04779 -0.18169
 H579 H 0.52319 0.08990 -0.06951
 H580 H 0.52366 0.11943 -0.12108
 C581 C 0.64805 0.49901 -0.27893
 C582 C 0.64506 0.48897 -0.33568
 C583 C 0.66160 0.48855 -0.36496
 C584 C 0.68165 0.49825 -0.33808
 C585 C 0.68426 0.50824 -0.28037
 C586 C 0.66764 0.50857 -0.25130
 C587 C 0.63103 0.49951 -0.24901
 C588 C 0.61681 0.49995 -0.22371
 C589 C 0.59988 0.50044 -0.19307
 C590 C 0.58856 0.48578 -0.14739
 C591 C 0.57227 0.48633 -0.11699
 C592 C 0.56705 0.50159 -0.13189
 C593 C 0.57848 0.51622 -0.17815
 C594 C 0.59479 0.51563 -0.20847
 H595 H 0.62996 0.48163 -0.35773
 H596 H 0.65862 0.48133 -0.41001
 H597 H 0.69888 0.51523 -0.25587
 H598 H 0.67008 0.51622 -0.20696
 H599 H 0.59237 0.47394 -0.13512
 H600 H 0.56380 0.47479 -0.08176
 H601 H 0.57489 0.52816 -0.19080
 H602 H 0.60346 0.52706 -0.24379
 C603 C 0.85351 0.34881 -0.27584
 C604 C 0.85664 0.34205 -0.33289
 C605 C 0.84021 0.32517 -0.36276
 C606 C 0.82012 0.31461 -0.33619
 C607 C 0.81737 0.32171 -0.27814
 C608 C 0.83388 0.33858 -0.24848
 C609 C 0.87043 0.36629 -0.24547
 C610 C 0.88465 0.38094 -0.22017
 C611 C 0.90170 0.39838 -0.19008
 C612 C 0.92214 0.40419 -0.20583
 C613 C 0.93875 0.42099 -0.17625
 C614 C 0.93512 0.43223 -0.13036
 C615 C 0.91448 0.42632 -0.11512
 C616 C 0.89790 0.40950 -0.14481
 H617 H 0.87178 0.34998 -0.35472
 H618 H 0.84331 0.32116 -0.40800
 H619 H 0.80271 0.31390 -0.25388
 H620 H 0.83133 0.34358 -0.20393
 H621 H 0.92525 0.39569 -0.24085
 H622 H 0.95441 0.42510 -0.18917
 H623 H 0.91110 0.43462 -0.08011
 H624 H 0.88212 0.40514 -0.13231
 C625 C 0.50421 -0.14686 -0.27522
 C626 C 0.49969 -0.16484 -0.24231
 C627 C 0.49994 -0.18138 -0.27224
 C628 C 0.50474 -0.18012 -0.33557
 C629 C 0.50932 -0.16195 -0.36819
 C630 C 0.50904 -0.14544 -0.33817
 C631 C 0.50386 -0.12988 -0.24448
 C632 C 0.50360 -0.11562 -0.21885
 C633 C 0.50340 -0.09852 -0.18838
 C634 C 0.48828 -0.10225 -0.14385
 C635 C 0.48819 -0.08563 -0.11392
 C636 C 0.50328 -0.06501 -0.12818
 C637 C 0.51836 -0.06145 -0.17326
 C638 C 0.51840 -0.07810 -0.20309
 H639 H 0.49599 -0.16608 -0.19351
 H640 H 0.49659 -0.19506 -0.24574
 H641 H 0.51277 -0.16063 -0.41715
 H642 H 0.51251 -0.13162 -0.36413
 H643 H 0.47658 -0.11800 -0.13215
 H644 H 0.47634 -0.08895 -0.07957
 H645 H 0.53019 -0.04581 -0.18542
 H646 H 0.53017 -0.07505 -0.23752
 C647 C 0.34784 0.49621 -0.26938
 C648 C 0.33124 0.47769 -0.29184
 C649 C 0.31501 0.47790 -0.32376
 C650 C 0.31517 0.49668 -0.33369
 C651 C 0.33194 0.51524 -0.31096
 C652 C 0.34816 0.51498 -0.27898
 C653 C 0.36461 0.49594 -0.23700
 C654 C 0.37868 0.49564 -0.21024
 C655 C 0.39556 0.49525 -0.17886
 C656 C 0.40071 0.48007 -0.19378
 C657 C 0.41740 0.47995 -0.16447
 C658 C 0.42921 0.49506 -0.11978
 C659 C 0.42375 0.51014 -0.10466
 C660 C 0.40704 0.51021 -0.13406
 H661 H 0.33089 0.46308 -0.28492
 H662 H 0.30248 0.46341 -0.34145
 H663 H 0.33239 0.52990 -0.31723
 H664 H 0.36093 0.52941 -0.26172
 H665 H 0.39191 0.46842 -0.22841
 H666 H 0.42115 0.46813 -0.17726
 H667 H 0.43246 0.52199 -0.07048
 H668 H 0.40318 0.52203 -0.12215
 C669 C 1.14789 0.65426 -0.26594
 C670 C 1.14584 0.67072 -0.28870
 C671 C 1.16228 0.68709 -0.32030
 C672 C 1.18128 0.68741 -0.32990
 C673 C 1.18300 0.67059 -0.30602
 C674 C 1.16649 0.65426 -0.27457
 C675 C 1.13081 0.63721 -0.23451
 C676 C 1.11649 0.62281 -0.20865
 C677 C 1.09933 0.60549 -0.17837
 C678 C 1.07893 0.59983 -0.19417
 C679 C 1.06223 0.58276 -0.16578
 C680 C 1.06572 0.57106 -0.12114
 C681 C 1.08632 0.57697 -0.10529
 C682 C 1.10299 0.59406 -0.13377
 H683 H 1.13152 0.67095 -0.28186
 H684 H 1.16011 0.69977 -0.33497
 H685 H 1.19668 0.66932 -0.31366
 H686 H 1.16818 0.64147 -0.25761
 H687 H 1.07593 0.60856 -0.22868
 H688 H 1.04661 0.57868 -0.17910
 H689 H 1.08960 0.56836 -0.07109
 H690 H 1.11873 0.59830 -0.12122
 C691 C 0.85225 0.50306 -0.27613
 C692 C 0.83262 0.49336 -0.24870
 C693 C 0.81592 0.49338 -0.27828
 C694 C 0.81847 0.50320 -0.33629
 C695 C 0.83856 0.51303 -0.36297
 C696 C 0.85518 0.51291 -0.33319
 C697 C 0.86938 0.50287 -0.24583
 C698 C 0.88376 0.50274 -0.22055
 C699 C 0.90097 0.50266 -0.19041
 C700 C 0.89739 0.48782 -0.14505
 C701 C 0.91410 0.48787 -0.11532
 C702 C 0.93468 0.50281 -0.13058
 C703 C 0.93810 0.51759 -0.17654
 C704 C 0.92135 0.51750 -0.20617
 H705 H 0.83022 0.48583 -0.20415
 H706 H 0.80126 0.48630 -0.25396
 H707 H 0.84152 0.52012 -0.40821
 H708 H 0.87031 0.52035 -0.35510
 H709 H 0.88167 0.47625 -0.13252
 H710 H 0.91088 0.47625 -0.08026
 H711 H 0.95370 0.52930 -0.18947
 H712 H 0.92429 0.52906 -0.24126
 C713 C 0.49677 0.34896 -0.27373
 C714 C 0.47816 0.33250 -0.29584
 C715 C 0.47797 0.31576 -0.32588
 C716 C 0.49650 0.31508 -0.33452
 C717 C 0.51515 0.33192 -0.31135
 C718 C 0.51523 0.34862 -0.28145
 C719 C 0.49696 0.36628 -0.24343
 C720 C 0.49710 0.38080 -0.21819
 C721 C 0.49720 0.39811 -0.18814
 C722 C 0.48211 0.40338 -0.20305
 C723 C 0.48207 0.42008 -0.17360
 C724 C 0.49715 0.43176 -0.12869
 C725 C 0.51233 0.42637 -0.11424
 C726 C 0.51233 0.40966 -0.14380
 H727 H 0.46371 0.33253 -0.28960
 H728 H 0.46303 0.30310 -0.34005
 H729 H 0.53001 0.33290 -0.31835
 H730 H 0.52979 0.36140 -0.26491
 H731 H 0.47033 0.39454 -0.23735
 H732 H 0.47017 0.42378 -0.18589
 H733 H 0.52419 0.43502 -0.08001
 H734 H 0.52410 0.40572 -0.13195
 C735 C 0.65266 0.14874 -0.26555
 C736 C 0.66926 0.14688 -0.28834
 C737 C 0.68545 0.16338 -0.32019
 C738 C 0.68525 0.18200 -0.32974
 C739 C 0.66850 0.18373 -0.30658
 C740 C 0.65232 0.16720 -0.27468
 C741 C 0.63589 0.13163 -0.23343
 C742 C 0.62179 0.11721 -0.20693
 C743 C 0.60486 0.09992 -0.17586
 C744 C 0.59963 0.07960 -0.19122
 C745 C 0.58286 0.06276 -0.16223
 C746 C 0.57106 0.06603 -0.11745
 C747 C 0.57661 0.08656 -0.10188
 C748 C 0.59338 0.10336 -0.13095
 H749 H 0.66963 0.13262 -0.28178
 H750 H 0.69797 0.16146 -0.33821
 H751 H 0.66802 0.19794 -0.31255
 H752 H 0.63955 0.16882 -0.25716
 H753 H 0.60842 0.07676 -0.22594
 H754 H 0.57905 0.04719 -0.17534
 H755 H 0.56790 0.08967 -0.06760
 H756 H 0.59731 0.11903 -0.11871
 C757 C 1.14797 0.49484 -0.26635
 C758 C 1.14771 0.47611 -0.27617
 C759 C 1.16396 0.47595 -0.30821
 C760 C 1.18069 0.49456 -0.33081
 C761 C 1.18082 0.51331 -0.32051
 C762 C 1.16456 0.51343 -0.28852
 C763 C 1.13107 0.49497 -0.23443
 C764 C 1.11683 0.49511 -0.20827
 C765 C 1.09970 0.49526 -0.17788
 C766 C 1.07932 0.48036 -0.19325
 C767 C 1.06261 0.48068 -0.16487
 C768 C 1.06606 0.49596 -0.12064
 C769 C 1.08664 0.51081 -0.10518
 C770 C 1.10334 0.51045 -0.13369
 H771 H 1.13494 0.46163 -0.25917
 H772 H 1.16354 0.46131 -0.31478
 H773 H 1.19333 0.52784 -0.33810
 H774 H 1.16486 0.52799 -0.28143
 H775 H 1.07634 0.46854 -0.22745
 H776 H 1.04699 0.46900 -0.17787
 H777 H 1.08988 0.52277 -0.07130
 H778 H 1.11907 0.52207 -0.12149
 C779 C 0.50202 0.65118 -0.26934
 C780 C 0.51165 0.67106 -0.24367
 C781 C 0.51128 0.68734 -0.27479
 C782 C 0.50120 0.68411 -0.33264
 C783 C 0.49143 0.66377 -0.35748
 C784 C 0.49189 0.64757 -0.32616
 C785 C 0.50262 0.63449 -0.23760
 C786 C 0.50310 0.62044 -0.21134
 C787 C 0.50358 0.60356 -0.18041
 C788 C 0.51851 0.59819 -0.19666
 C789 C 0.51871 0.58149 -0.16761
 C790 C 0.50393 0.56991 -0.12188
 C791 C 0.48909 0.57558 -0.10553
 C792 C 0.48894 0.59227 -0.13465
 H793 H 0.51938 0.67398 -0.19932
 H794 H 0.51832 0.70223 -0.25178
 H795 H 0.48414 0.66029 -0.40247
 H796 H 0.48450 0.63223 -0.34671
 H797 H 0.52991 0.60682 -0.23207
 H798 H 0.53034 0.57758 -0.18135
 H799 H 0.47750 0.56704 -0.07049
 H800 H 0.47731 0.59630 -0.12172
 C801 C 0.35155 -0.14754 -0.28090
 C802 C 0.35343 -0.16422 -0.30235
 C803 C 0.33666 -0.18107 -0.33127
 C804 C 0.31747 -0.18165 -0.33933
 C805 C 0.31595 -0.16455 -0.31701
 C806 C 0.33279 -0.14775 -0.28825
 C807 C 0.36881 -0.13021 -0.25108
 C808 C 0.38319 -0.11570 -0.22580
 C809 C 0.40025 -0.09845 -0.19511
 C810 C 0.40557 -0.07808 -0.21024
 C811 C 0.42193 -0.06132 -0.17960
 C812 C 0.43317 -0.06475 -0.13328
 C813 C 0.42776 -0.08532 -0.11874
 C814 C 0.41141 -0.10202 -0.14946
 H815 H 0.36786 -0.16430 -0.29634
 H816 H 0.33873 -0.19390 -0.34491
 H817 H 0.30211 -0.16349 -0.32374
 H818 H 0.33121 -0.13481 -0.27219
 H819 H 0.39701 -0.07515 -0.24552
 H820 H 0.42567 -0.04572 -0.19197
 H821 H 0.43609 -0.08856 -0.08348
 H822 H 0.40742 -0.11773 -0.13740
 C823 C 0.49828 -0.14940 0.27860
 C824 C 0.50289 -0.16269 0.24511
 C825 C 0.50276 -0.17950 0.27443
 C826 C 0.49800 -0.18324 0.33772
 C827 C 0.49326 -0.16986 0.37091
 C828 C 0.49342 -0.15305 0.34149
 C829 C 0.49872 -0.13194 0.24852
 C830 C 0.49916 -0.11729 0.22311
 C831 C 0.49973 -0.09985 0.19244
 C832 C 0.51477 -0.07959 0.20867
 C833 C 0.51548 -0.06264 0.17833
 C834 C 0.50115 -0.06576 0.13124
 C835 C 0.48603 -0.08622 0.11549
 C836 C 0.48536 -0.10312 0.14590
 H837 H 0.50662 -0.16003 0.19636
 H838 H 0.50623 -0.18966 0.24752
 H839 H 0.48983 -0.17217 0.41985
 H840 H 0.48989 -0.14282 0.36789
 H841 H 0.52598 -0.07690 0.24464
 H842 H 0.52730 -0.04713 0.19166
 H843 H 0.47472 -0.08921 0.07959
 H844 H 0.47365 -0.11874 0.13299
 C845 C 0.34653 0.49402 0.26613
 C846 C 0.34863 0.51262 0.28857
 C847 C 0.33217 0.51260 0.31978
 C848 C 0.31336 0.49395 0.32898
 C849 C 0.31138 0.47533 0.30613
 C850 C 0.32787 0.47538 0.27488
 C851 C 0.36362 0.49407 0.23482
 C852 C 0.37806 0.49421 0.20904
 C853 C 0.39541 0.49445 0.17884
 C854 C 0.40675 0.50949 0.13405
 C855 C 0.42384 0.50993 0.10549
 C856 C 0.42981 0.49530 0.12145
 C857 C 0.41821 0.48017 0.16636
 C858 C 0.40115 0.47978 0.19482
 H859 H 0.36305 0.52712 0.28229
 H860 H 0.33429 0.52714 0.33760
 H861 H 0.29701 0.46076 0.31187
 H862 H 0.32607 0.46090 0.25762
 H863 H 0.40245 0.52093 0.12138
 H864 H 0.43237 0.52176 0.07108
 H865 H 0.42235 0.46867 0.17976
 H866 H 0.39248 0.46808 0.22949
 C867 C 1.14819 0.65217 0.26941
 C868 C 1.14634 0.66880 0.29195
 C869 C 1.16289 0.68506 0.32347
 C870 C 1.18153 0.68488 0.33289
 C871 C 1.18323 0.66808 0.31003
 C872 C 1.16666 0.65184 0.27847
 C873 C 1.13107 0.63538 0.23742
 C874 C 1.11667 0.62127 0.21090
 C875 C 1.09943 0.60436 0.17966
 C876 C 1.10299 0.59310 0.13429
 C877 C 1.08625 0.57639 0.10481
 C878 C 1.06569 0.57069 0.12041
 C879 C 1.06230 0.58225 0.16575
 C880 C 1.07907 0.59896 0.19515
 H881 H 1.13208 0.66916 0.28541
 H882 H 1.16100 0.69762 0.34127
 H883 H 1.19745 0.66762 0.31593
 H884 H 1.16826 0.63904 0.26111
 H885 H 1.11869 0.59715 0.12195
 H886 H 1.08945 0.56786 0.07012
 H887 H 1.04670 0.57832 0.17890
 H888 H 1.07616 0.60759 0.23023
 C889 C 0.49466 0.14799 0.26618
 C890 C 0.51347 0.16438 0.28787
 C891 C 0.51382 0.18091 0.31969
 C892 C 0.49532 0.18125 0.33029
 C893 C 0.47648 0.16471 0.30819
 C894 C 0.47617 0.14820 0.27633
 C895 C 0.49435 0.13087 0.23421
 C896 C 0.49422 0.11652 0.20789
 C897 C 0.49421 0.09937 0.17711
 C898 C 0.50955 0.10301 0.13347
 C899 C 0.50988 0.08633 0.10477
 C900 C 0.49484 0.06574 0.11946
 C901 C 0.47937 0.06227 0.16304
 C902 C 0.47909 0.07898 0.19165
 H903 H 0.52786 0.16433 0.28051
 H904 H 0.52852 0.19325 0.33688
 H905 H 0.46202 0.16465 0.31499
 H906 H 0.46153 0.13559 0.25967
 H907 H 0.52135 0.11874 0.12191
 H908 H 0.52199 0.08959 0.07140
 H909 H 0.46755 0.04665 0.17545
 H910 H 0.46715 0.07599 0.22543
 C911 C 0.65029 0.50237 0.27401
 C912 C 0.66346 0.49733 0.24162
 C913 C 0.68015 0.49744 0.27180
 C914 C 0.68388 0.50264 0.33485
 C915 C 0.67056 0.50772 0.36695
 C916 C 0.65388 0.50758 0.33669
 C917 C 0.63308 0.50220 0.24303
 C918 C 0.61867 0.50213 0.21731
 C919 C 0.60149 0.50216 0.18681
 C920 C 0.59010 0.48723 0.14183
 C921 C 0.57349 0.48736 0.11196
 C922 C 0.56805 0.50248 0.12676
 C923 C 0.57957 0.51737 0.17227
 C924 C 0.59617 0.51720 0.20202
 H925 H 0.66085 0.49333 0.19303
 H926 H 0.69026 0.49369 0.24570
 H927 H 0.67285 0.51149 0.41571
 H928 H 0.64375 0.51145 0.36224
 H929 H 0.59408 0.47551 0.12975
 H930 H 0.56495 0.47565 0.07727
 H931 H 0.57583 0.52922 0.18483
 H932 H 0.60488 0.52882 0.23682
 C933 C 0.85199 0.35123 0.27738
 C934 C 0.83331 0.35120 0.28569
 C935 C 0.81657 0.33450 0.31530
 C936 C 0.81830 0.31758 0.33690
 C937 C 0.83716 0.31777 0.32830
 C938 C 0.85387 0.33449 0.29875
 C939 C 0.86923 0.36838 0.24688
 C940 C 0.88371 0.38268 0.22122
 C941 C 0.90101 0.39967 0.19037
 C942 C 0.92135 0.40492 0.20559
 C943 C 0.93816 0.42130 0.17519
 C944 C 0.93482 0.43265 0.12902
 C945 C 0.91428 0.42727 0.11425
 C946 C 0.89751 0.41090 0.14474
 H947 H 0.83167 0.36406 0.26917
 H948 H 0.80219 0.33470 0.32063
 H949 H 0.83909 0.30514 0.34523
 H950 H 0.86828 0.33438 0.29272
 H951 H 0.92422 0.39631 0.24086
 H952 H 0.95373 0.42500 0.18775
 H953 H 0.91111 0.43569 0.07909
 H954 H 0.88183 0.40698 0.13261
   
