data_POSCAR
  _audit_creation_date              2014-09-24
  _audit_creation_method            'ToBaCCo'
  _symmetry_space_group_name_H-M    'P1'
  _symmetry_Int_Tables_number       1
  _symmetry_cell_setting            triclinic
  loop_
  _symmetry_equiv_pos_as_xyz
 x,y,z
_cell_length_a 37.7395
_cell_length_b 38.4811
_cell_length_c 35.5212
_cell_angle_alpha 88.419900
_cell_angle_beta 90.185100
_cell_angle_gamma 90.534100
loop_
  _atom_site_label
  _atom_site_type_symbol
  _atom_site_fract_x
  _atom_site_fract_y
  _atom_site_fract_z
C1 C 0.20288 0.20160 0.25258
 N2 N 0.18988 0.23236 0.23915
 C3 C 0.20187 0.24613 0.20583
 N4 N 0.22612 0.22870 0.18560
 C5 C 0.23894 0.19795 0.19903
 N6 N 0.22711 0.18439 0.23230
 C7 C -0.17630 0.81191 0.20587
 N8 N -0.16250 0.78395 0.18883
 C9 C -0.18075 0.76860 0.16059
 N10 N -0.21268 0.78129 0.14938
 C11 C -0.22636 0.80924 0.16654
 N12 N -0.20811 0.82449 0.19462
 C13 C -0.19095 0.20230 -0.22805
 N14 N -0.21901 0.18699 -0.21042
 C15 C -0.23393 0.20196 -0.18036
 N16 N -0.22059 0.23233 -0.16759
 C17 C -0.19247 0.24780 -0.18528
 N18 N -0.17748 0.23266 -0.21540
 C19 C 0.21427 0.80023 -0.24826
 N20 N 0.20430 0.76905 -0.23278
 C21 C 0.22680 0.75136 -0.20947
 N22 N 0.25906 0.76518 -0.20114
 C23 C 0.26901 0.79634 -0.21682
 N24 N 0.24648 0.81390 -0.24005
 C25 C 0.19571 1.19732 0.74962
 N26 N 0.18137 1.22685 0.76261
 C27 C 0.19525 1.24198 0.79345
 N28 N 0.22322 1.22728 0.81171
 C29 C 0.23761 1.19770 0.79882
 N30 N 0.22368 1.18256 0.76792
 C31 C 0.80261 0.81302 0.78306
 N32 N 0.77077 0.82460 0.79490
 C33 C 0.75556 0.81024 0.82634
 N34 N 0.77237 0.78453 0.84615
 C35 C 0.80426 0.77310 0.83428
 N36 N 0.81930 0.78738 0.80282
 C37 C 0.18154 0.79147 1.25478
 N38 N 0.16940 0.76006 1.24386
 C39 C 0.18735 0.74217 1.21779
 N40 N 0.21728 0.75599 1.20211
 C41 C 0.22951 0.78744 1.21311
 N42 N 0.21149 0.80527 1.23925
 C43 C 0.78257 1.20221 1.23240
 N44 N 0.80072 1.22841 1.21476
 C45 C 0.78791 1.24334 1.18259
 N46 N 0.75699 1.23173 1.16759
 C47 C 0.73871 1.20548 1.18529
 N48 N 0.75167 1.19053 1.21752
 O49 O 0.52364 0.97279 0.93421
 O50 O 0.45078 0.95980 1.07753
 O51 O 0.55966 0.98386 1.04643
 O52 O 0.44674 0.94724 0.96205
 O53 O 0.51627 0.95679 1.07327
 O54 O 0.46049 0.98643 0.92253
 O55 O 0.43238 0.93846 1.02567
 O56 O 0.54477 0.95487 0.98719
 C57 C 0.54063 0.95055 0.95305
 C58 C 0.43379 0.93734 1.06040
 C59 C 0.54866 0.95991 1.06769
 C60 C 0.44998 0.95639 0.92901
 O61 O 0.46860 1.04733 0.95283
 O62 O 0.51838 1.02686 1.07533
 O63 O 0.57869 1.01213 0.97995
 O64 O 0.41206 1.00510 1.03263
 O65 O 0.45097 1.02606 1.07351
 O66 O 0.53356 1.03960 0.95417
 O67 O 0.42178 1.01523 0.96475
 O68 O 0.53685 1.04322 1.02034
 Co69 Co 0.49578 1.00947 0.94732
 Co70 Co 0.48489 0.99259 1.06849
 Co71 Co 0.53827 0.99867 1.00303
 Co72 Co 0.43296 0.97800 0.99649
 O73 O 0.48570 0.99310 1.00669
 C74 C 0.43565 1.04386 0.95421
 C75 C 0.53392 1.04876 1.05440
 C76 C 0.56683 1.03412 0.95422
 C77 C 0.42027 1.02502 1.05939
 O78 O 0.03357 0.46691 0.06807
 O79 O 0.04790 0.54229 -0.07785
 O80 O 0.02835 0.43293 -0.04451
 O81 O 0.06296 0.53696 0.03822
 O82 O 0.04905 0.47716 -0.07770
 O83 O 0.02127 0.52921 0.07593
 O84 O 0.07428 0.55101 -0.02528
 O85 O 0.05477 0.44647 0.01775
 C86 C 0.05725 0.45034 0.05205
 C87 C 0.07426 0.55281 -0.06008
 C88 C 0.04806 0.44523 -0.07002
 C89 C 0.05232 0.53840 0.07062
 O90 O -0.03990 0.52295 0.04140
 O91 O -0.02085 0.47575 -0.07791
 O92 O -0.00383 0.41313 0.02198
 O93 O 0.00822 0.57788 -0.03498
 O94 O -0.02022 0.54247 -0.07281
 O95 O -0.03311 0.45838 0.04220
 O96 O -0.00436 0.56722 0.03063
 O97 O -0.03380 0.45135 -0.02390
 Co98 Co -0.00246 0.49507 0.05082
 Co99 Co 0.01390 0.50868 -0.07008
 Co100 Co 0.01072 0.45232 -0.00234
 Co101 Co 0.03386 0.55412 0.00202
 O102 O 0.01555 0.50435 -0.00802
 C103 C -0.03479 0.55510 0.03843
 C104 C -0.04016 0.45602 -0.05804
 C105 C -0.02746 0.42568 0.04497
 C106 C -0.01656 0.57162 -0.05815
 O107 O 1.06461 0.01204 0.46561
 O108 O 0.92202 0.03637 0.52789
 O109 O 0.96676 0.05812 0.44220
 O110 O 1.01014 0.04452 0.55645
 O111 O 0.91869 0.03154 0.45798
 O112 O 1.05783 0.02562 0.53257
 O113 O 0.95326 0.01678 0.57535
 O114 O 1.02718 0.05076 0.45484
 C115 C 1.05826 0.04207 0.45453
 C116 C 0.93005 0.03671 0.56205
 C117 C 0.93406 0.05669 0.44233
 C118 C 1.04218 0.04841 0.55036
 O119 O 1.03634 -0.04037 0.54649
 O120 O 0.92459 -0.03464 0.46172
 O121 O 1.02271 -0.01710 0.42789
 O122 O 0.97453 -0.04418 0.55675
 O123 O 0.92271 -0.03223 0.53424
 O124 O 1.03473 -0.04934 0.47764
 O125 O 1.01716 -0.01171 0.59516
 O126 O 0.95966 -0.00857 0.41958
 Co127 Co 1.04262 -0.01128 0.50494
 Co128 Co 0.92819 0.00036 0.49601
 Co129 Co 0.99408 0.01948 0.44085
 Co130 Co 0.99295 0.00038 0.55306
 O131 O 0.98659 0.00368 0.49672
 C132 C 1.03991 -0.03360 0.58130
 C133 C 0.93686 -0.03173 0.42884
 C134 C 1.03212 -0.04581 0.44270
 C135 C 0.94228 -0.05070 0.55480
 C136 C 1.12741 0.10398 0.39467
 C137 C 1.14574 0.08906 0.36449
 C138 C 1.16337 0.11087 0.33744
 C139 C 1.16252 0.14748 0.34070
 C140 C 1.14597 0.16226 0.37209
 C141 C 1.12841 0.14041 0.39923
 C142 C 1.11177 0.15574 0.43021
 C143 C 1.11249 0.19166 0.43433
 C144 C 1.12957 0.21302 0.40774
 C145 C 1.14612 0.19862 0.37687
 C146 C 1.18110 0.09534 0.30720
 C147 C 1.18139 0.05935 0.30380
 C148 C 1.16411 0.03805 0.33024
 C149 C 1.14644 0.05258 0.36030
 C150 C 1.17718 0.16954 0.31063
 C151 C 1.18919 0.18585 0.28405
 C152 C 1.10473 0.08216 0.41854
 C153 C 1.08437 0.06382 0.43624
 H154 H 1.09829 0.14013 0.45167
 H155 H 1.09976 0.20297 0.45830
 H156 H 1.13003 0.24090 0.41105
 H157 H 1.15918 0.21621 0.35695
 H158 H 1.19504 0.11076 0.28595
 H159 H 1.19512 0.04794 0.28052
 H160 H 1.16440 0.01011 0.32744
 H161 H 1.13356 0.03492 0.38027
 C162 C 0.89983 -0.09387 0.34560
 C163 C 0.90248 -0.13054 0.34816
 C164 C 0.88869 -0.15115 0.31879
 C165 C 0.87231 -0.13496 0.28707
 C166 C 0.87013 -0.09823 0.28426
 C167 C 0.88392 -0.07764 0.31361
 C168 C 0.88126 -0.04099 0.31024
 C169 C 0.86552 -0.02514 0.27875
 C170 C 0.85198 -0.04527 0.25009
 C171 C 0.85418 -0.08139 0.25266
 C172 C 0.89149 -0.18775 0.32206
 C173 C 0.90735 -0.20356 0.35352
 C174 C 0.92071 -0.18342 0.38229
 C175 C 0.91850 -0.14730 0.37973
 C176 C 0.85633 -0.15584 0.25797
 C177 C 0.84173 -0.17184 0.23356
 C178 C 0.91314 -0.07271 0.37586
 C179 C 0.92396 -0.05440 0.40045
 H180 H 0.89130 -0.02418 0.33183
 H181 H 0.86382 0.00291 0.27657
 H182 H 0.83972 -0.03284 0.22570
 H183 H 0.84331 -0.09588 0.22956
 H184 H 0.88149 -0.20448 0.30037
 H185 H 0.90930 -0.23160 0.35558
 H186 H 0.93305 -0.19583 0.40665
 H187 H 0.92942 -0.13272 0.40274
 C188 C 0.88224 0.10303 0.63351
 C189 C 0.85077 0.09277 0.65248
 C190 C 0.83576 0.11482 0.67949
 C191 C 0.85230 0.14706 0.68728
 C192 C 0.88334 0.15765 0.66772
 C193 C 0.89839 0.13554 0.64076
 C194 C 0.92964 0.14653 0.62179
 C195 C 0.94551 0.17848 0.62919
 C196 C 0.93075 0.20011 0.65552
 C197 C 0.90003 0.18993 0.67467
 C198 C 0.80446 0.10382 0.69839
 C199 C 0.78847 0.07197 0.69081
 C200 C 0.80314 0.05043 0.66436
 C201 C 0.83391 0.06059 0.64530
 C202 C 0.83790 0.16856 0.71637
 C203 C 0.82526 0.18498 0.74132
 C204 C 0.89860 0.07966 0.60749
 C205 C 0.91262 0.06005 0.58644
 H206 H 0.94210 0.13062 0.60105
 H207 H 0.96940 0.18649 0.61442
 H208 H 0.94317 0.22491 0.66115
 H209 H 0.88951 0.20762 0.69491
 H210 H 0.79199 0.11965 0.71918
 H211 H 0.76456 0.06396 0.70555
 H212 H 0.79065 0.02569 0.65860
 H213 H 0.84432 0.04293 0.62498
 C214 C 1.10263 -0.09567 0.64795
 C215 C 1.13527 -0.08276 0.66174
 C216 C 1.15796 -0.10504 0.68312
 C217 C 1.14790 -0.14015 0.69044
 C218 C 1.11509 -0.15295 0.67694
 C219 C 1.09235 -0.13062 0.65567
 C220 C 1.05965 -0.14397 0.64247
 C221 C 1.04970 -0.17841 0.65009
 C222 C 1.07197 -0.20026 0.67086
 C223 C 1.10433 -0.18782 0.68420
 C224 C 1.19045 -0.09150 0.69672
 C225 C 1.20019 -0.05695 0.68940
 C226 C 1.17802 -0.03520 0.66840
 C227 C 1.14595 -0.04784 0.65459
 C228 C 1.17128 -0.16286 0.71206
 C229 C 1.19122 -0.18084 0.73041
 C230 C 1.08004 -0.07324 0.62509
 C231 C 1.06158 -0.05488 0.60549
 H232 H 1.04142 -0.12798 0.62621
 H233 H 1.02458 -0.18818 0.63983
 H234 H 1.06413 -0.22699 0.67669
 H235 H 1.12076 -0.20579 0.70023
 H236 H 1.20862 -0.10740 0.71314
 H237 H 1.22509 -0.04702 0.70007
 H238 H 1.18569 -0.00838 0.66279
 H239 H 1.12961 -0.02992 0.63837
 C240 C 0.34754 1.09083 1.10259
 C241 C 0.35137 1.12713 1.09607
 C242 C 0.32863 1.15040 1.11457
 C243 C 0.30219 1.13718 1.13939
 C244 C 0.29760 1.10080 1.14490
 C245 C 0.32033 1.07756 1.12641
 C246 C 0.31534 1.04131 1.13243
 C247 C 0.28858 1.02840 1.15600
 C248 C 0.26640 1.05113 1.17419
 C249 C 0.27074 1.08692 1.16884
 C250 C 0.33311 1.18659 1.10788
 C251 C 0.35933 1.19944 1.08356
 C252 C 0.38158 1.17670 1.06547
 C253 C 0.37775 1.14092 1.07152
 C254 C 0.28007 1.16074 1.15993
 C255 C 0.26113 1.17905 1.17792
 C256 C 0.37260 1.06723 1.08629
 C257 C 0.39402 1.04776 1.07362
 H258 H 0.33190 1.02259 1.11887
 H259 H 0.28499 1.00062 1.16013
 H260 H 0.24566 1.04097 1.19252
 H261 H 0.25275 1.10351 1.18356
 H262 H 0.31640 1.20528 1.12130
 H263 H 0.36238 1.22720 1.07872
 H264 H 0.40184 1.18680 1.04653
 H265 H 0.39554 1.12425 1.05664
 C266 C 0.40417 0.89264 0.85296
 C267 C 0.38119 0.90670 0.82508
 C268 C 0.35654 0.88468 0.80680
 C269 C 0.35509 0.84877 0.81662
 C270 C 0.38010 0.83429 0.84215
 C271 C 0.40483 0.85632 0.86033
 C272 C 0.42919 0.84144 0.88633
 C273 C 0.42913 0.80574 0.89412
 C274 C 0.40485 0.78419 0.87640
 C275 C 0.38050 0.79818 0.85071
 C276 C 0.33318 0.89943 0.77965
 C277 C 0.33422 0.93495 0.77079
 C278 C 0.35834 0.95650 0.78873
 C279 C 0.38160 0.94267 0.81564
 C280 C 0.32565 0.82778 0.80354
 C281 C 0.29968 0.81198 0.79369
 C282 C 0.42326 0.91573 0.87758
 C283 C 0.43676 0.93466 0.90003
 H284 H 0.44865 0.85720 0.90063
 H285 H 0.44801 0.79475 0.91401
 H286 H 0.40489 0.75649 0.88256
 H287 H 0.36218 0.78044 0.83749
 H288 H 0.31405 0.88368 0.76487
 H289 H 0.31621 0.94580 0.74990
 H290 H 0.35904 0.98407 0.78178
 H291 H 0.40005 0.96037 0.82874
 C292 C 0.62338 0.89445 1.11192
 C293 C 0.63425 0.86585 1.09068
 C294 C 0.66407 0.84603 1.10251
 C295 C 0.68274 0.85492 1.13552
 C296 C 0.67106 0.88273 1.15752
 C297 C 0.64129 0.90258 1.14565
 C298 C 0.63038 0.93057 1.16777
 C299 C 0.64838 0.93873 1.20072
 C300 C 0.67746 0.91928 1.21240
 C301 C 0.68879 0.89158 1.19117
 C302 C 0.67477 0.81785 1.08057
 C303 C 0.65647 0.80945 1.04787
 C304 C 0.62726 0.82879 1.03637
 C305 C 0.61617 0.85671 1.05737
 C306 C 0.71494 0.83671 1.14599
 C307 C 0.74230 0.82296 1.15518
 C308 C 0.59545 0.91691 1.09770
 C309 C 0.57336 0.93626 1.08477
 H310 H 0.60781 0.94635 1.15992
 H311 H 0.63969 0.96024 1.21729
 H312 H 0.69133 0.92568 1.23806
 H313 H 0.71149 0.87718 1.20148
 H314 H 0.69727 0.80200 1.08850
 H315 H 0.66497 0.78780 1.03140
 H316 H 0.61306 0.82211 1.01110
 H317 H 0.59325 0.87091 1.04729
 C318 C 0.63703 1.10145 0.90318
 C319 C 0.65563 1.12549 0.92560
 C320 C 0.68103 1.14848 0.90872
 C321 C 0.68783 1.14710 0.86964
 C322 C 0.66919 1.12306 0.84724
 C323 C 0.64372 1.10015 0.86408
 C324 C 0.62577 1.07601 0.84126
 C325 C 0.63286 1.07450 0.80287
 C326 C 0.65772 1.09695 0.78636
 C327 C 0.67572 1.12103 0.80813
 C328 C 0.69945 1.17215 0.93167
 C329 C 0.69332 1.17275 0.97032
 C330 C 0.66878 1.14999 0.98690
 C331 C 0.64984 1.12679 0.96490
 C332 C 0.71543 1.16879 0.85270
 C333 C 0.73897 1.18531 0.83770
 C334 C 0.61163 1.07755 0.92051
 C335 C 0.59089 1.05763 0.93538
 H336 H 0.60621 1.05799 0.85281
 H337 H 0.61900 1.05578 0.78587
 H338 H 0.66313 1.09569 0.75652
 H339 H 0.69480 1.13793 0.79396
 H340 H 0.71887 1.19029 0.92004
 H341 H 0.70780 1.19086 0.98752
 H342 H 0.66446 1.15026 1.01699
 H343 H 0.63086 1.10977 0.97909
 C344 C 0.11880 0.38395 0.11391
 C345 C 0.10253 0.35072 0.11823
 C346 C 0.11993 0.32380 0.13905
 C347 C 0.15364 0.33010 0.15527
 C348 C 0.16971 0.36342 0.15133
 C349 C 0.15219 0.39045 0.13064
 C350 C 0.16869 0.42351 0.12711
 C351 C 0.20165 0.42975 0.14355
 C352 C 0.21883 0.40333 0.16368
 C353 C 0.20316 0.37048 0.16761
 C354 C 0.10305 0.29086 0.14300
 C355 C 0.07005 0.28464 0.12672
 C356 C 0.05312 0.31088 0.10618
 C357 C 0.06896 0.34358 0.10198
 C358 C 0.17195 0.30177 0.17479
 C359 C 0.18611 0.27699 0.18976
 C360 C 0.10063 0.41095 0.09217
 C361 C 0.08261 0.43082 0.07377
 H362 H 0.15630 0.44482 0.11168
 H363 H 0.21392 0.45523 0.14063
 H364 H 0.24443 0.40832 0.17636
 H365 H 0.21747 0.35076 0.18357
 H366 H 0.11510 0.26956 0.15872
 H367 H 0.05756 0.25931 0.13004
 H368 H 0.02754 0.30590 0.09345
 H369 H 0.05455 0.36308 0.08582
 C370 C -0.10959 0.39123 -0.11005
 C371 C -0.14062 0.37755 -0.09272
 C372 C -0.15934 0.34963 -0.10940
 C373 C -0.14688 0.33556 -0.14327
 C374 C -0.11662 0.35016 -0.16135
 C375 C -0.09793 0.37807 -0.14470
 C376 C -0.06742 0.39188 -0.16302
 C377 C -0.05576 0.37853 -0.19683
 C378 C -0.07403 0.35122 -0.21309
 C379 C -0.10413 0.33710 -0.19569
 C380 C -0.19005 0.33608 -0.09131
 C381 C -0.20197 0.34979 -0.05777
 C382 C -0.18366 0.37709 -0.04152
 C383 C -0.15326 0.39087 -0.05861
 C384 C -0.16401 0.30503 -0.15854
 C385 C -0.17739 0.27915 -0.17093
 C386 C -0.08777 0.41654 -0.09091
 C387 C -0.06738 0.43583 -0.07549
 H388 H -0.05231 0.41316 -0.15154
 H389 H -0.03237 0.38939 -0.21042
 H390 H -0.06484 0.34091 -0.23933
 H391 H -0.11748 0.31592 -0.20948
 H392 H -0.20519 0.31488 -0.10293
 H393 H -0.22556 0.33919 -0.04435
 H394 H -0.19314 0.38769 -0.01558
 H395 H -0.13991 0.41214 -0.04495
 C396 C 0.14887 0.61086 -0.11703
 C397 C 0.14673 0.61381 -0.15679
 C398 C 0.16643 0.64018 -0.17647
 C399 C 0.18814 0.66342 -0.15626
 C400 C 0.19216 0.65891 -0.11679
 C401 C 0.17244 0.63256 -0.09711
 C402 C 0.17633 0.62898 -0.05756
 C403 C 0.19916 0.65078 -0.03801
 C404 C 0.21846 0.67653 -0.05726
 C405 C 0.21509 0.68069 -0.09620
 C406 C 0.16336 0.64306 -0.21614
 C407 C 0.14146 0.62050 -0.23584
 C408 C 0.12219 0.59472 -0.21659
 C409 C 0.12468 0.59130 -0.17751
 C410 C 0.20370 0.69364 -0.17552
 C411 C 0.21506 0.71959 -0.19122
 C412 C 0.12426 0.58817 -0.09651
 C413 C 0.10226 0.57100 -0.07968
 H414 H 0.16197 0.60922 -0.04142
 H415 H 0.20189 0.64765 -0.00776
 H416 H 0.23617 0.69339 -0.04194
 H417 H 0.23076 0.70097 -0.11000
 H418 H 0.17797 0.66261 -0.23233
 H419 H 0.13944 0.62304 -0.26619
 H420 H 0.10524 0.57725 -0.23203
 H421 H 0.10931 0.57076 -0.16378
 C422 C -0.10144 0.62736 0.07959
 C423 C -0.12768 0.64557 0.05870
 C424 C -0.14502 0.67430 0.07472
 C425 C -0.13621 0.68442 0.11168
 C426 C -0.11055 0.66563 0.13289
 C427 C -0.09317 0.63702 0.11684
 C428 C -0.06749 0.61875 0.13860
 C429 C -0.05924 0.62848 0.17510
 C430 C -0.07611 0.65655 0.19072
 C431 C -0.10150 0.67499 0.17002
 C432 C -0.17075 0.69246 0.05306
 C433 C -0.17928 0.68240 0.01671
 C434 C -0.16252 0.65415 0.00118
 C435 C -0.13695 0.63586 0.02181
 C436 C -0.15299 0.71434 0.12797
 C437 C -0.16604 0.73913 0.14249
 C438 C -0.08099 0.60025 0.06242
 C439 C -0.06141 0.57875 0.05017
 H440 H -0.05357 0.59672 0.12777
 H441 H -0.03950 0.61425 0.19126
 H442 H -0.06951 0.66410 0.21905
 H443 H -0.11390 0.69661 0.18349
 H444 H -0.18451 0.71456 0.06398
 H445 H -0.19894 0.69664 0.00046
 H446 H -0.16915 0.64654 -0.02712
 H447 H -0.12447 0.61417 0.00853
 C448 C 1.10306 0.11169 0.61415
 C449 C 1.11211 0.14704 0.60723
 C450 C 1.13335 0.16504 0.63368
 C451 C 1.14550 0.14751 0.66680
 C452 C 1.13730 0.11186 0.67315
 C453 C 1.11592 0.09393 0.64686
 C454 C 1.10771 0.05836 0.65418
 C455 C 1.12027 0.04107 0.68644
 C456 C 1.14136 0.05855 0.71198
 C457 C 1.14985 0.09352 0.70558
 C458 C 1.14184 0.20045 0.62628
 C459 C 1.12983 0.21755 0.59363
 C460 C 1.10915 0.19990 0.56775
 C461 C 1.10026 0.16504 0.57437
 C462 C 1.16493 0.16627 0.69537
 C463 C 1.18002 0.18108 0.72036
 C464 C 1.08049 0.09308 0.58817
 C465 C 1.06228 0.07458 0.56908
 H466 H 1.09152 0.04347 0.63517
 H467 H 1.11357 0.01396 0.69165
 H468 H 1.15117 0.04496 0.73693
 H469 H 1.16639 0.10595 0.72630
 H470 H 1.15795 0.21519 0.64553
 H471 H 1.13664 0.24463 0.58835
 H472 H 1.09994 0.21329 0.54242
 H473 H 1.08412 0.15234 0.55348
 C474 C 0.89148 -0.10999 0.63466
 C475 C 0.87362 -0.08944 0.66102
 C476 C 0.85397 -0.10570 0.69077
 C477 C 0.85248 -0.14242 0.69422
 C478 C 0.87033 -0.16297 0.66788
 C479 C 0.88989 -0.14668 0.63800
 C480 C 0.90761 -0.16767 0.61213
 C481 C 0.90607 -0.20381 0.61563
 C482 C 0.88694 -0.21977 0.64481
 C483 C 0.86922 -0.19971 0.67072
 C484 C 0.83627 -0.08460 0.71667
 C485 C 0.83815 -0.04847 0.71344
 C486 C 0.85758 -0.03255 0.68453
 C487 C 0.87505 -0.05262 0.65849
 C488 C 0.83361 -0.15888 0.72563
 C489 C 0.81857 -0.17213 0.75235
 C490 C 0.91119 -0.09284 0.60429
 C491 C 0.92637 -0.07555 0.58046
 H492 H 0.92283 -0.15638 0.58901
 H493 H 0.91980 -0.21952 0.59561
 H494 H 0.88583 -0.24785 0.64739
 H495 H 0.85466 -0.21329 0.69291
 H496 H 0.82084 -0.09576 0.73968
 H497 H 0.82453 -0.03273 0.73352
 H498 H 0.85921 -0.00448 0.68230
 H499 H 0.88975 -0.03889 0.63652
 C500 C 1.08268 -0.11259 0.37452
 C501 C 1.06818 -0.14326 0.35944
 C502 C 1.08895 -0.16361 0.33518
 C503 C 1.12406 -0.15310 0.32617
 C504 C 1.13853 -0.12237 0.34120
 C505 C 1.11779 -0.10204 0.36543
 C506 C 1.13283 -0.07127 0.37995
 C507 C 1.16729 -0.06094 0.37079
 C508 C 1.18754 -0.08085 0.34709
 C509 C 1.17348 -0.11124 0.33241
 C510 C 1.07385 -0.19413 0.32031
 C511 C 1.03924 -0.20423 0.32912
 C512 C 1.01896 -0.18432 0.35281
 C513 C 1.03312 -0.15413 0.36789
 C514 C 1.14510 -0.17347 0.30086
 C515 C 1.16247 -0.19004 0.27945
 C516 C 1.06177 -0.09131 0.39901
 C517 C 1.04663 -0.07171 0.41921
 H518 H 1.11820 -0.05483 0.39848
 H519 H 1.17831 -0.03735 0.38214
 H520 H 1.21429 -0.07270 0.34003
 H521 H 1.19030 -0.12584 0.31411
 H522 H 1.08859 -0.21046 0.30174
 H523 H 1.02809 -0.22765 0.31749
 H524 H 0.99214 -0.19234 0.35954
 H525 H 1.01633 -0.13945 0.38617
 C526 C 0.87210 0.11781 0.37432
 C527 C 0.84799 0.09907 0.35169
 C528 C 0.82696 0.11701 0.32435
 C529 C 0.83016 0.15355 0.31978
 C530 C 0.85338 0.17240 0.34327
 C531 C 0.87445 0.15445 0.37062
 C532 C 0.89777 0.17374 0.39347
 C533 C 0.90018 0.20982 0.38946
 C534 C 0.87957 0.22739 0.36274
 C535 C 0.85641 0.20903 0.33981
 C536 C 0.80335 0.09770 0.30177
 C537 C 0.80056 0.06168 0.30611
 C538 C 0.82109 0.04412 0.33288
 C539 C 0.84459 0.06243 0.35544
 C540 C 0.81140 0.17139 0.28932
 C541 C 0.79707 0.18593 0.26301
 C542 C 0.89519 0.09893 0.40024
 C543 C 0.91368 0.08107 0.42040
 H544 H 0.91427 0.16117 0.41467
 H545 H 0.91815 0.22420 0.40718
 H546 H 0.88153 0.25542 0.35975
 H547 H 0.84086 0.22384 0.31949
 H548 H 0.78673 0.11022 0.28064
 H549 H 0.78237 0.04733 0.28861
 H550 H 0.81881 0.01613 0.33618
 H551 H 0.85996 0.04753 0.37584
 C552 C 0.10660 0.37613 -0.12833
 C553 C 0.08866 0.35215 -0.15135
 C554 C 0.10796 0.32563 -0.16904
 C555 C 0.14506 0.32323 -0.16355
 C556 C 0.16311 0.34780 -0.14139
 C557 C 0.14381 0.37436 -0.12373
 C558 C 0.16237 0.39850 -0.10147
 C559 C 0.19898 0.39647 -0.09682
 C560 C 0.21785 0.37049 -0.11407
 C561 C 0.20026 0.34635 -0.13613
 C562 C 0.08942 0.30179 -0.19171
 C563 C 0.05286 0.30405 -0.19669
 C564 C 0.03398 0.32996 -0.17934
 C565 C 0.05153 0.35383 -0.15692
 C566 C 0.16426 0.29466 -0.17950
 C567 C 0.17935 0.27023 -0.19237
 C568 C 0.08652 0.40163 -0.10820
 C569 C 0.06929 0.42202 -0.09099
 H570 H 0.14884 0.41920 -0.08754
 H571 H 0.21277 0.41517 -0.07974
 H572 H 0.24629 0.36902 -0.11036
 H573 H 0.21608 0.32665 -0.14905
 H574 H 0.10293 0.28121 -0.20585
 H575 H 0.03910 0.28559 -0.21410
 H576 H 0.00559 0.33155 -0.18324
 H577 H 0.03569 0.37356 -0.14410
 C578 C -0.09834 0.36017 0.09785
 C579 C -0.13511 0.36501 0.09188
 C580 C -0.15994 0.34142 0.10879
 C581 C -0.14781 0.31327 0.13167
 C582 C -0.11104 0.30872 0.13806
 C583 C -0.08623 0.33226 0.12111
 C584 C -0.04962 0.32728 0.12802
 C585 C -0.03788 0.29986 0.15112
 C586 C -0.06213 0.27677 0.16763
 C587 C -0.09830 0.28099 0.16125
 C588 C -0.19654 0.34667 0.10237
 C589 C -0.20833 0.37469 0.08016
 C590 C -0.18408 0.39793 0.06387
 C591 C -0.14785 0.39316 0.06936
 C592 C -0.17290 0.28899 0.14899
 C593 C -0.19228 0.26798 0.16427
 C594 C -0.07297 0.38360 0.07967
 C595 C -0.05200 0.40287 0.06415
 H596 H -0.02972 0.34457 0.11581
 H597 H -0.00984 0.29652 0.15631
 H598 H -0.05289 0.25550 0.18553
 H599 H -0.11609 0.26234 0.17477
 H600 H -0.21639 0.32931 0.11453
 H601 H -0.23643 0.37843 0.07565
 H602 H -0.19337 0.41974 0.04679
 H603 H -0.13002 0.41185 0.05596
 C604 C -0.08914 0.64518 -0.08901
 C605 C -0.10836 0.64009 -0.12274
 C606 C -0.13315 0.66535 -0.13551
 C607 C -0.13857 0.69557 -0.11450
 C608 C -0.12061 0.69986 -0.07986
 C609 C -0.09570 0.67462 -0.06712
 C610 C -0.07780 0.67958 -0.03259
 C611 C -0.08460 0.70849 -0.01104
 C612 C -0.10904 0.73311 -0.02345
 C613 C -0.12684 0.72903 -0.05752
 C614 C -0.15184 0.65984 -0.16950
 C615 C -0.14622 0.63019 -0.19023
 C616 C -0.12195 0.60547 -0.17774
 C617 C -0.10316 0.61023 -0.14443
 C618 C -0.16048 0.72320 -0.13020
 C619 C -0.17741 0.74604 -0.14535
 C620 C -0.06257 0.62013 -0.07723
 C621 C -0.04101 0.59851 -0.06834
 H622 H -0.05874 0.66099 -0.02168
 H623 H -0.07099 0.71169 0.01553
 H624 H -0.11435 0.75543 -0.00653
 H625 H -0.14575 0.74875 -0.06597
 H626 H -0.17113 0.67822 -0.18030
 H627 H -0.16079 0.62636 -0.21611
 H628 H -0.11766 0.58247 -0.19394
 H629 H -0.08462 0.59021 -0.13589
 C630 C 0.10461 0.60175 0.14238
 C631 C 0.14101 0.59856 0.15134
 C632 C 0.15905 0.62609 0.16946
 C633 C 0.14052 0.65655 0.17849
 C634 C 0.10368 0.65895 0.17125
 C635 C 0.08567 0.63148 0.15308
 C636 C 0.04898 0.63480 0.14536
 C637 C 0.03065 0.66442 0.15529
 C638 C 0.04822 0.69120 0.17327
 C639 C 0.08429 0.68864 0.18123
 C640 C 0.19556 0.62259 0.17768
 C641 C 0.21373 0.59267 0.16833
 C642 C 0.19607 0.56575 0.15059
 C643 C 0.16012 0.56855 0.14207
 C644 C 0.15931 0.68625 0.19342
 C645 C 0.17339 0.71206 0.20509
 C646 C 0.08721 0.57633 0.11909
 C647 C 0.07180 0.55750 0.09791
 H648 H 0.03405 0.61458 0.13165
 H649 H 0.00269 0.66666 0.14894
 H650 H 0.03384 0.71412 0.18103
 H651 H 0.09673 0.71017 0.19529
 H652 H 0.21035 0.64285 0.19150
 H653 H 0.24165 0.59036 0.17489
 H654 H 0.21030 0.54256 0.14340
 H655 H 0.14744 0.54693 0.12836
 C656 C 0.36900 1.11181 0.90028
 C657 C 0.34646 1.13511 0.91864
 C658 C 0.32064 1.15411 0.89751
 C659 C 0.31739 1.14955 0.85819
 C660 C 0.34040 1.12673 0.83975
 C661 C 0.36627 1.10782 0.86082
 C662 C 0.38864 1.08480 0.84174
 C663 C 0.38553 1.08058 0.80303
 C664 C 0.36028 1.09911 0.78245
 C665 C 0.33792 1.12196 0.80044
 C666 C 0.29824 1.17708 0.91653
 C667 C 0.30114 1.18106 0.95531
 C668 C 0.32624 1.16235 0.97596
 C669 C 0.34877 1.13963 0.95798
 C670 C 0.28956 1.16722 0.83692
 C671 C 0.26609 1.18132 0.81931
 C672 C 0.39352 1.09017 0.92188
 C673 C 0.41330 1.07023 0.93794
 H674 H 0.40875 1.06982 0.85645
 H675 H 0.40281 1.06282 0.78895
 H676 H 0.35798 1.09576 0.75238
 H677 H 0.31870 1.13578 0.78320
 H678 H 0.27828 1.19215 0.90168
 H679 H 0.28376 1.19871 0.96941
 H680 H 0.32819 1.16543 1.00608
 H681 H 0.36793 1.12568 0.97520
 C682 C 0.36798 0.87313 1.12179
 C683 C 0.34816 0.88963 1.14990
 C684 C 0.32117 0.87086 1.16976
 C685 C 0.31417 0.83565 1.16149
 C686 C 0.33466 0.81888 1.13415
 C687 C 0.36164 0.83770 1.11422
 C688 C 0.38150 0.82052 1.08674
 C689 C 0.37496 0.78569 1.07918
 C690 C 0.34862 0.76728 1.09867
 C691 C 0.32861 0.78356 1.12586
 C692 C 0.30144 0.88807 1.19738
 C693 C 0.30819 0.92280 1.20519
 C694 C 0.33462 0.94114 1.18583
 C695 C 0.35443 0.92491 1.15846
 C696 C 0.28496 0.81731 1.18005
 C697 C 0.26001 0.80310 1.19526
 C698 C 0.39334 0.89342 1.09947
 C699 C 0.41288 0.91225 1.08128
 H700 H 0.40230 0.83378 1.07094
 H701 H 0.39041 0.77292 1.05808
 H702 H 0.34367 0.74023 1.09270
 H703 H 0.30844 0.76818 1.14033
 H704 H 0.28064 0.87490 1.21327
 H705 H 0.29284 0.93555 1.22640
 H706 H 0.33983 0.96810 1.19203
 H707 H 0.37471 0.94032 1.14422
 C708 C 0.59627 1.12075 1.10517
 C709 C 0.60805 1.15228 1.08777
 C710 C 0.63551 1.17203 1.10479
 C711 C 0.65087 1.16018 1.13919
 C712 C 0.63788 1.12948 1.15746
 C713 C 0.61056 1.10968 1.14038
 C714 C 0.59852 1.07870 1.15886
 C715 C 0.61300 1.06764 1.19324
 C716 C 0.63963 1.08708 1.21000
 C717 C 0.65202 1.11764 1.19246
 C718 C 0.64728 1.20317 1.08657
 C719 C 0.63216 1.21462 1.05263
 C720 C 0.60521 1.19538 1.03609
 C721 C 0.59327 1.16446 1.05328
 C722 C 0.68125 1.17820 1.15494
 C723 C 0.70717 1.19152 1.16856
 C724 C 0.57176 1.09803 1.08579
 C725 C 0.55321 1.07685 1.07072
 H726 H 0.57775 1.06273 1.14707
 H727 H 0.60349 1.04388 1.20694
 H728 H 0.65078 1.07842 1.23673
 H729 H 0.67274 1.13186 1.20668
 H730 H 0.66812 1.21901 1.09844
 H731 H 0.64146 1.23852 1.03907
 H732 H 0.59365 1.20433 1.00967
 H733 H 0.57232 1.15029 1.03935
 C734 C 0.60503 0.88565 0.89698
 C735 C 0.62640 0.90349 0.86984
 C736 C 0.65549 0.88638 0.85340
 C737 C 0.66314 0.85156 0.86426
 C738 C 0.64052 0.83312 0.88968
 C739 C 0.61125 0.85020 0.90595
 C740 C 0.58900 0.83131 0.93125
 C741 C 0.59541 0.79642 0.94018
 C742 C 0.62423 0.77981 0.92461
 C743 C 0.64664 0.79784 0.89965
 C744 C 0.67666 0.90487 0.82663
 C745 C 0.66932 0.93929 0.81642
 C746 C 0.64095 0.95608 0.83258
 C747 C 0.61966 0.93853 0.85898
 C748 C 0.69519 0.83553 0.85060
 C749 C 0.72248 0.82341 0.83948
 C750 C 0.57899 0.90503 0.91766
 C751 C 0.55979 0.92410 0.93439
 H752 H 0.56636 0.84324 0.94412
 H753 H 0.57808 0.78228 0.95953
 H754 H 0.62921 0.75278 0.93185
 H755 H 0.66863 0.78382 0.88810
 H756 H 0.69897 0.89291 0.81319
 H757 H 0.68574 0.95300 0.79584
 H758 H 0.63536 0.98283 0.82458
 H759 H 0.59777 0.95267 0.87054
   
