data_POSCAR
  _audit_creation_date              2014-09-24
  _audit_creation_method            'ToBaCCo'
  _symmetry_space_group_name_H-M    'P1'
  _symmetry_Int_Tables_number       1
  _symmetry_cell_setting            triclinic
  loop_
  _symmetry_equiv_pos_as_xyz
 x,y,z
_cell_length_a 11.2682
_cell_length_b 32.9250
_cell_length_c 11.8949
_cell_angle_alpha 88.884500
_cell_angle_beta 90.732800
_cell_angle_gamma 96.403100
loop_
  _atom_site_label
  _atom_site_type_symbol
  _atom_site_fract_x
  _atom_site_fract_y
  _atom_site_fract_z
N1 N 0.21715 0.03723 0.14105
 N2 N 0.29196 0.07104 0.14461
 N3 N 0.07810 -0.04564 0.21404
 N4 N 0.05769 -0.07890 0.27770
 N5 N 0.16654 -0.04893 0.14502
 N6 N 0.20688 -0.08485 0.15852
 N7 N 0.12794 0.03961 0.20971
 N8 N 0.14134 0.07471 0.26253
 C9 C 0.24469 0.09388 0.22220
 C10 C 0.13902 -0.10292 0.24230
 N11 N -0.24625 -0.03602 0.09629
 N12 N -0.32298 -0.06934 0.09079
 N13 N -0.12151 0.04840 0.17554
 N14 N -0.10076 0.08489 0.22059
 N15 N -0.19842 0.04924 0.09187
 N16 N -0.23606 0.08814 0.08168
 N17 N -0.17271 -0.03854 0.18213
 N18 N -0.19636 -0.07407 0.23515
 Mn19 Mn -0.02266 0.00096 0.19679
 C20 C -0.29192 -0.09257 0.17884
 C21 C -0.17172 0.10898 0.16309
 N22 N 0.19932 -0.04958 -0.09457
 N23 N 0.23646 -0.08852 -0.08353
 N24 N 0.17356 0.03825 -0.18493
 N25 N 0.19645 0.07406 -0.23685
 N26 N 0.24708 0.03569 -0.09902
 N27 N 0.32287 0.06920 -0.09246
 N28 N 0.12263 -0.04880 -0.17850
 N29 N 0.10216 -0.08535 -0.22332
 Mn30 Mn 0.20862 -0.00646 0.02351
 C31 C 0.17263 -0.10943 -0.16504
 C32 C 0.29144 0.09265 -0.17986
 N33 N -0.16540 0.04869 -0.14808
 N34 N -0.20437 0.08487 -0.16091
 N35 N -0.12802 -0.04005 -0.21342
 N36 N -0.14094 -0.07551 -0.26501
 N37 N -0.21631 -0.03754 -0.14376
 N38 N -0.29124 -0.07415 -0.14399
 N39 N -0.07721 0.04522 -0.21726
 N40 N -0.05556 0.07862 -0.28013
 Mn41 Mn -0.20759 0.00615 -0.02634
 Mn42 Mn 0.02336 -0.00138 -0.20003
 Cl43 Cl 0.00039 -0.00020 -0.00152
 C44 C -0.13591 0.10294 -0.24442
 C45 C -0.24085 -0.09633 -0.22125
 N46 N 0.75192 0.54460 0.55230
 N47 N 0.80745 0.58098 0.52528
 N48 N 0.67141 0.46098 0.66746
 N49 N 0.68842 0.43009 0.73525
 N50 N 0.72403 0.45763 0.57088
 N51 N 0.77670 0.42363 0.57001
 N52 N 0.69694 0.54635 0.64881
 N53 N 0.71450 0.58361 0.68867
 C54 C 0.78480 0.60490 0.61189
 C55 C 0.75468 0.40710 0.67416
 N56 N 0.32247 0.46100 0.68113
 N57 N 0.25490 0.42644 0.70234
 N58 N 0.45288 0.54722 0.71701
 N59 N 0.47230 0.58011 0.77922
 N60 N 0.35085 0.54684 0.66242
 N61 N 0.29846 0.57958 0.68557
 N62 N 0.42688 0.46080 0.73167
 N63 N 0.43324 0.42561 0.78586
 Mn64 Mn 0.56249 0.50385 0.69234
 C65 C 0.32429 0.40478 0.76848
 C66 C 0.37512 0.59999 0.75914
 N67 N 0.64941 0.45305 0.33818
 N68 N 0.70065 0.41993 0.31638
 N69 N 0.57354 0.53920 0.26882
 N70 N 0.56688 0.57460 0.21577
 N71 N 0.67803 0.53888 0.31911
 N72 N 0.74540 0.57351 0.29862
 N73 N 0.54735 0.45275 0.28362
 N74 N 0.52679 0.41952 0.22290
 Mn75 Mn 0.70253 0.49838 0.44488
 C76 C 0.62329 0.39937 0.24365
 C77 C 0.67580 0.59539 0.23341
 N78 N 0.27666 0.54244 0.42970
 N79 N 0.22390 0.57639 0.43075
 N80 N 0.30325 0.45387 0.35139
 N81 N 0.28421 0.41679 0.31055
 N82 N 0.24854 0.45556 0.44801
 N83 N 0.19195 0.41930 0.47442
 N84 N 0.32916 0.53913 0.33302
 N85 N 0.31180 0.57000 0.26523
 Mn86 Mn 0.29796 0.50160 0.55555
 Mn87 Mn 0.43793 0.49623 0.30809
 Cl88 Cl 0.50023 0.50001 0.50023
 C89 C 0.24561 0.59292 0.32657
 C90 C 0.21339 0.39557 0.38704
 C91 C 0.23903 0.15887 0.32550
 C92 C 0.24455 0.20169 0.32343
 C93 C 0.28764 0.22382 0.22637
 C94 C 0.33094 0.20320 0.13635
 C95 C 0.32690 0.16077 0.13988
 C96 C 0.27672 0.13823 0.23232
 C97 C 0.28351 0.26604 0.21913
 C98 C 0.23883 0.28672 0.30805
 C99 C 0.19773 0.26504 0.40627
 C100 C 0.20183 0.22256 0.41393
 C101 C 0.15113 0.28622 0.49382
 C102 C 0.14955 0.32865 0.48563
 C103 C 0.19457 0.35046 0.38973
 C104 C 0.23623 0.32903 0.30024
 H105 H 0.19994 0.14152 0.39691
 H106 H 0.36365 0.21972 0.06140
 H107 H 0.35550 0.14548 0.06685
 H108 H 0.31274 0.28276 0.14332
 H109 H 0.16813 0.20569 0.48827
 H110 H 0.11748 0.27005 0.56904
 H111 H 0.11657 0.34453 0.55556
 H112 H 0.27086 0.34548 0.22565
 C113 C 0.75296 0.83592 0.20428
 C114 C 0.71884 0.79373 0.20179
 C115 C 0.59683 0.77867 0.19044
 C116 C 0.51144 0.80647 0.17807
 C117 C 0.54692 0.84862 0.17545
 C118 C 0.66764 0.86351 0.18988
 C119 C 0.56291 0.73624 0.19019
 C120 C 0.65017 0.70884 0.19675
 C121 C 0.77220 0.72436 0.20422
 C122 C 0.80557 0.76652 0.20807
 C123 C 0.85961 0.69744 0.20969
 C124 C 0.82745 0.65543 0.21275
 C125 C 0.70685 0.63940 0.20967
 C126 C 0.61809 0.66623 0.19845
 H127 H 0.84675 0.84733 0.21242
 H128 H 0.41783 0.79563 0.16800
 H129 H 0.48028 0.86960 0.16246
 H130 H 0.46918 0.72461 0.18381
 H131 H 0.89923 0.77817 0.21559
 H132 H 0.95275 0.70900 0.21517
 H133 H 0.89715 0.63538 0.22127
 H134 H 0.52457 0.65411 0.19662
 C135 C 0.83414 0.17538 0.79184
 C136 C 0.83416 0.21615 0.75503
 C137 C 0.85751 0.22677 0.64114
 C138 C 0.88631 0.19678 0.56768
 C139 C 0.88961 0.15655 0.60528
 C140 C 0.86120 0.14544 0.71680
 C141 C 0.85160 0.26705 0.60251
 C142 C 0.82441 0.29707 0.67703
 C143 C 0.80642 0.28671 0.79209
 C144 C 0.81157 0.24643 0.83026
 C145 C 0.78367 0.31687 0.86742
 C146 C 0.77149 0.35634 0.82866
 C147 C 0.78384 0.36666 0.71391
 C148 C 0.81365 0.33717 0.63857
 H149 H 0.81519 0.16708 0.87897
 H150 H 0.90641 0.20449 0.48142
 H151 H 0.91218 0.13391 0.54664
 H152 H 0.86754 0.27495 0.51464
 H153 H 0.79715 0.23857 0.91816
 H154 H 0.77382 0.30984 0.95609
 H155 H 0.75016 0.37870 0.88864
 H156 H 0.82372 0.34492 0.54995
 C157 C 0.25442 0.82704 0.87520
 C158 C 0.25482 0.78510 0.85353
 C159 C 0.16782 0.76554 0.78044
 C160 C 0.08175 0.78770 0.73187
 C161 C 0.08631 0.82964 0.74688
 C162 C 0.17200 0.85007 0.81908
 C163 C 0.16999 0.72443 0.75345
 C164 C 0.26035 0.70259 0.79660
 C165 C 0.34600 0.72153 0.87240
 C166 C 0.34171 0.76253 0.90165
 C167 C 0.43468 0.69907 0.91698
 C168 C 0.44247 0.65914 0.88231
 C169 C 0.36045 0.64072 0.80355
 C170 C 0.26774 0.66234 0.76310
 H171 H 0.32125 0.84185 0.93182
 H172 H 0.01477 0.77270 0.67706
 H173 H 0.02129 0.84588 0.70243
 H174 H 0.10345 0.70981 0.69610
 H175 H 0.40622 0.77698 0.96062
 H176 H 0.50013 0.71274 0.97612
 H177 H 0.51422 0.64298 0.91555
 H178 H 0.20352 0.64837 0.70277
 C179 C 0.24574 0.16431 0.79904
 C180 C 0.27992 0.20651 0.80296
 C181 C 0.40209 0.22151 0.81299
 C182 C 0.48754 0.19367 0.82317
 C183 C 0.45215 0.15152 0.82398
 C184 C 0.33130 0.13666 0.81047
 C185 C 0.43615 0.26394 0.81400
 C186 C 0.34903 0.29140 0.80852
 C187 C 0.22685 0.27596 0.80310
 C188 C 0.19323 0.23378 0.79934
 C189 C 0.13960 0.30298 0.79889
 C190 C 0.17209 0.34500 0.79385
 C191 C 0.29285 0.36090 0.79432
 C192 C 0.38140 0.33400 0.80539
 H193 H 0.15191 0.15289 0.79203
 H194 H 0.58123 0.20444 0.83287
 H195 H 0.51901 0.13051 0.83515
 H196 H 0.52992 0.27553 0.81952
 H197 H 0.09948 0.22218 0.79319
 H198 H 0.04623 0.29149 0.79579
 H199 H 0.10242 0.36509 0.78585
 H200 H 0.47494 0.34604 0.80545
 C201 C 0.77612 0.84265 0.67525
 C202 C 0.76099 0.79973 0.67245
 C203 C 0.70230 0.77744 0.76222
 C204 C 0.64889 0.79802 0.84630
 C205 C 0.65707 0.84053 0.84454
 C206 C 0.72811 0.86343 0.76384
 C207 C 0.70028 0.73495 0.76835
 C208 C 0.75303 0.71413 0.68443
 C209 C 0.80665 0.73587 0.59127
 C210 C 0.80895 0.77868 0.58494
 C211 C 0.86045 0.71445 0.50847
 C212 C 0.85866 0.67184 0.51702
 C213 C 0.80282 0.65009 0.60841
 C214 C 0.75196 0.67167 0.69254
 H215 H 0.82763 0.85972 0.60995
 H216 H 0.60465 0.78128 0.91588
 H217 H 0.61741 0.85517 0.91337
 H218 H 0.66029 0.71813 0.83988
 H219 H 0.85291 0.79562 0.51509
 H220 H 0.90328 0.73061 0.43710
 H221 H 0.89879 0.65587 0.45120
 H222 H 0.70837 0.65531 0.76342
 C223 C 0.16433 0.82436 0.20628
 C224 C 0.16768 0.78389 0.24442
 C225 C 0.15559 0.77430 0.36028
 C226 C 0.13558 0.80505 0.43493
 C227 C 0.12785 0.84489 0.39623
 C228 C 0.14459 0.85492 0.28224
 C229 C 0.16373 0.73426 0.39971
 C230 C 0.18244 0.70349 0.32431
 C231 C 0.19075 0.71290 0.20786
 C232 C 0.18279 0.75293 0.16873
 C233 C 0.20610 0.68202 0.13218
 C234 C 0.22006 0.64272 0.17145
 C235 C 0.21591 0.63328 0.28709
 C236 C 0.19395 0.66353 0.36326
 H237 H 0.17505 0.83197 0.11762
 H238 H 0.12655 0.79826 0.52309
 H239 H 0.11174 0.86811 0.45577
 H240 H 0.15566 0.72710 0.48883
 H241 H 0.18833 0.76001 0.07966
 H242 H 0.20848 0.68831 0.04275
 H243 H 0.23576 0.61974 0.11111
 H244 H 0.19073 0.65645 0.45264
 C245 C 0.74292 0.17204 0.12752
 C246 C 0.74179 0.21384 0.15018
 C247 C 0.83172 0.23381 0.21969
 C248 C 0.92107 0.21205 0.26421
 C249 C 0.91720 0.17013 0.24866
 C250 C 0.82866 0.14941 0.17972
 C251 C 0.82959 0.27495 0.24665
 C252 C 0.73687 0.29642 0.20665
 C253 C 0.64803 0.27695 0.13478
 C254 C 0.65142 0.23586 0.10630
 C255 C 0.55734 0.29903 0.09277
 C256 C 0.55089 0.33918 0.12613
 C257 C 0.63617 0.35821 0.20104
 C258 C 0.73058 0.33688 0.23906
 H259 H 0.67399 0.15699 0.07341
 H260 H 0.99161 0.22742 0.31476
 H261 H 0.98583 0.15425 0.28889
 H262 H 0.89841 0.28993 0.30113
 H263 H 0.58323 0.22091 0.05144
 H264 H 0.49032 0.28504 0.03558
 H265 H 0.47797 0.35512 0.09453
 H266 H 0.79740 0.35133 0.29628
   
