data_POSCAR
  _audit_creation_date              2014-09-24
  _audit_creation_method            'ToBaCCo'
  _symmetry_space_group_name_H-M    'P1'
  _symmetry_Int_Tables_number       1
  _symmetry_cell_setting            triclinic
  loop_
  _symmetry_equiv_pos_as_xyz
 x,y,z
_cell_length_a 45.0329
_cell_length_b 44.8012
_cell_length_c 45.2035
_cell_angle_alpha 91.878400
_cell_angle_beta 88.163800
_cell_angle_gamma 86.980300
loop_
  _atom_site_label
  _atom_site_type_symbol
  _atom_site_fract_x
  _atom_site_fract_y
  _atom_site_fract_z
N1 N 0.57651 0.66566 0.61710
 N2 N 0.56470 0.65498 0.64126
 C3 C 0.54014 0.67199 0.64965
 C4 C 0.53622 0.69437 0.62954
 C5 C 0.55968 0.68960 0.60911
 H6 H 0.52609 0.66837 0.66890
 H7 H 0.56468 0.70313 0.59040
 Cu8 Cu 0.58251 0.61983 0.65927
 Cu9 Cu 0.61393 0.64909 0.59903
 Cu10 Cu 0.65052 0.59252 0.63662
 N11 N 0.60104 0.58465 0.67670
 N12 N 0.62810 0.57475 0.66843
 C13 C 0.63647 0.55171 0.68517
 C14 C 0.61320 0.54646 0.70494
 C15 C 0.59100 0.56785 0.69866
 H16 H 0.65781 0.53955 0.68267
 H17 H 0.56953 0.57166 0.70987
 N18 N 0.66593 0.60774 0.59906
 N19 N 0.65218 0.62944 0.58487
 C20 C 0.66849 0.63502 0.56036
 C21 C 0.69342 0.61559 0.55884
 C22 C 0.69101 0.59853 0.58364
 H23 H 0.66253 0.65170 0.54452
 H24 H 0.70659 0.58094 0.59012
 H25 H 0.61274 0.60610 0.61506
 H26 H 0.62970 0.63547 0.63841
 N27 N 0.91008 0.31928 0.12741
 N28 N 0.91597 0.32987 0.15388
 C29 C 0.94006 0.31469 0.16372
 C30 C 0.95018 0.29348 0.14207
 C31 C 0.93046 0.29727 0.11927
 H32 H 0.94976 0.31933 0.18483
 H33 H 0.93031 0.28454 0.09857
 Cu34 Cu 0.89214 0.36296 0.17282
 Cu35 Cu 0.87560 0.33384 0.10615
 Cu36 Cu 0.83751 0.39771 0.13539
 N37 N 0.87444 0.40186 0.18581
 N38 N 0.85251 0.41491 0.17171
 C39 C 0.84376 0.44081 0.18612
 C40 C 0.86141 0.44435 0.21035
 C41 C 0.88072 0.41924 0.20942
 H42 H 0.82618 0.45617 0.17924
 H43 H 0.89772 0.41379 0.22503
 N44 N 0.82596 0.37677 0.09885
 N45 N 0.84009 0.35202 0.08808
 C46 C 0.82632 0.34245 0.06380
 C47 C 0.80260 0.36232 0.05886
 C48 C 0.80309 0.38385 0.08145
 H49 H 0.83315 0.32264 0.05049
 H50 H 0.78750 0.40288 0.08524
 H51 H 0.87840 0.37695 0.12344
 H52 H 0.85034 0.35339 0.14145
 N53 N 0.42427 0.18062 -0.12309
 N54 N 0.43551 0.16783 -0.14785
 C55 C 0.45899 0.18287 -0.15715
 C56 C 0.46280 0.20619 -0.13701
 C57 C 0.44039 0.20402 -0.11564
 H58 H 0.47257 0.17711 -0.17687
 H59 H 0.43584 0.21867 -0.09636
 Cu60 Cu 0.41845 0.13261 -0.16526
 Cu61 Cu 0.38926 0.16638 -0.10268
 Cu62 Cu 0.35870 0.10342 -0.13330
 N63 N 0.40156 0.09693 -0.18187
 N64 N 0.37767 0.08614 -0.16971
 C65 C 0.36989 0.06237 -0.18611
 C66 C 0.39018 0.05780 -0.20965
 C67 C 0.41004 0.08009 -0.20621
 H68 H 0.35107 0.04915 -0.18111
 H69 H 0.42885 0.08406 -0.22076
 N70 N 0.34273 0.12411 -0.09657
 N71 N 0.35388 0.14852 -0.08535
 C72 C 0.33762 0.15783 -0.06093
 C73 C 0.31540 0.13815 -0.05639
 C74 C 0.31936 0.11702 -0.07934
 H75 H 0.34183 0.17722 -0.04715
 H76 H 0.30583 0.09818 -0.08342
 H77 H 0.39614 0.12223 -0.11711
 H78 H 0.37117 0.14659 -0.13937
 N79 N 0.07909 0.82947 0.37971
 N80 N 0.07158 0.83814 0.35339
 C81 C 0.05028 0.82082 0.34330
 C82 C 0.04366 0.80037 0.36471
 C83 C 0.06249 0.80674 0.38757
 H84 H 0.03980 0.82359 0.32234
 H85 H 0.06459 0.79543 0.40821
 Cu86 Cu 0.08919 0.87236 0.33569
 Cu87 Cu 0.11008 0.84798 0.40174
 Cu88 Cu 0.14748 0.90352 0.36702
 N89 N 0.10615 0.90785 0.32001
 N90 N 0.12959 0.91925 0.33168
 C91 C 0.13722 0.94298 0.31618
 C92 C 0.11732 0.94687 0.29375
 C93 C 0.09785 0.92420 0.29690
 H94 H 0.15545 0.95684 0.32129
 H95 H 0.07926 0.91978 0.28316
 N96 N 0.16141 0.88473 0.40321
 N97 N 0.14723 0.86348 0.41631
 C98 C 0.16257 0.85460 0.43984
 C99 C 0.18735 0.87141 0.44192
 C100 C 0.18585 0.89035 0.41841
 H101 H 0.15615 0.83728 0.45449
 H102 H 0.20175 0.90662 0.41255
 H103 H 0.10765 0.89015 0.38285
 H104 H 0.13277 0.86024 0.36399
 C105 C 0.12499 0.14558 0.10981
 C106 C 0.15158 0.13249 0.09715
 C107 C 0.16552 0.10817 0.11006
 C108 C 0.15323 0.09684 0.13601
 C109 C 0.12701 0.10980 0.14854
 C110 C 0.11289 0.13445 0.13546
 C111 C 0.10613 0.16875 0.10151
 N112 N 0.08310 0.17213 0.12167
 C113 C 0.08707 0.15134 0.14258
 C114 C 0.11983 0.09366 0.17290
 N115 N 0.14118 0.07143 0.17557
 C116 C 0.16174 0.07326 0.15315
 C117 C 0.19037 0.09967 0.09267
 N118 N 0.19197 0.11844 0.06974
 C119 C 0.16836 0.13861 0.07233
 H120 H 0.10893 0.18221 0.08226
 H121 H 0.07192 0.14834 0.16120
 H122 H 0.10053 0.09782 0.18766
 H123 H 0.18111 0.05812 0.14923
 H124 H 0.20626 0.08133 0.09651
 H125 H 0.16352 0.15615 0.05701
 C126 C 0.37676 0.85672 0.59696
 C127 C 0.35177 0.87143 0.58519
 C128 C 0.33963 0.89765 0.59871
 C129 C 0.35205 0.90928 0.62440
 C130 C 0.37669 0.89478 0.63601
 C131 C 0.38904 0.86826 0.62229
 C132 C 0.39344 0.83109 0.58836
 N133 N 0.41532 0.82669 0.60801
 C134 C 0.41275 0.84929 0.62886
 C135 C 0.38406 0.91114 0.66075
 N136 N 0.36430 0.93502 0.66456
 C137 C 0.34459 0.93404 0.64247
 C138 C 0.31590 0.90718 0.58237
 N139 N 0.31318 0.88723 0.55948
 C140 C 0.33496 0.86524 0.56106
 H141 H 0.38973 0.81651 0.56941
 H142 H 0.42731 0.85194 0.64726
 H143 H 0.40219 0.90584 0.67518
 H144 H 0.32636 0.95031 0.63962
 H145 H 0.30143 0.92697 0.58697
 H146 H 0.33848 0.84633 0.54557
 C147 C 0.88654 0.65285 0.39696
 C148 C 0.86039 0.64174 0.40891
 C149 C 0.84890 0.61648 0.39624
 C150 C 0.86322 0.60223 0.37121
 C151 C 0.88901 0.61322 0.35936
 C152 C 0.90064 0.63884 0.37221
 C153 C 0.90300 0.67662 0.40504
 N154 N 0.92650 0.67755 0.38558
 C155 C 0.92522 0.65462 0.36535
 C156 C 0.89830 0.59465 0.33562
 N157 N 0.87859 0.57290 0.33264
 C158 C 0.85702 0.57740 0.35425
 C159 C 0.82377 0.61054 0.41268
 N160 N 0.81959 0.63180 0.43474
 C161 C 0.84182 0.65102 0.43259
 H162 H 0.89816 0.69228 0.42354
 H163 H 0.94124 0.64960 0.34727
 H164 H 0.91781 0.59689 0.32141
 H165 H 0.83846 0.56335 0.35764
 H166 H 0.80937 0.59233 0.40871
 H167 H 0.84445 0.67012 0.44739
 C168 C 0.62204 0.35418 -0.10568
 C169 C 0.64706 0.36681 -0.09376
 C170 C 0.65983 0.39037 -0.10751
 C171 C 0.64797 0.40135 -0.13358
 C172 C 0.62322 0.38895 -0.14529
 C173 C 0.61027 0.36509 -0.13133
 C174 C 0.60486 0.33135 -0.09687
 N175 N 0.58313 0.32800 -0.11670
 C176 C 0.58631 0.34853 -0.13788
 C177 C 0.61627 0.40437 -0.17021
 N178 N 0.63643 0.42552 -0.17403
 C179 C 0.65594 0.42382 -0.15179
 C180 C 0.68320 0.39861 -0.09073
 N181 N 0.68506 0.38046 -0.06731
 C182 C 0.66312 0.36087 -0.06903
 H183 H 0.60815 0.31790 -0.07766
 H184 H 0.57201 0.35144 -0.15648
 H185 H 0.59809 0.40035 -0.18467
 H186 H 0.67432 0.43816 -0.14890
 H187 H 0.69787 0.41642 -0.09526
 H188 H 0.65881 0.34394 -0.05312
 C189 C -0.01043 0.26809 0.16971
 C190 C -0.02528 0.27265 0.14308
 C191 C -0.01501 0.25584 0.11747
 C192 C 0.00944 0.23518 0.11841
 C193 C 0.02355 0.23043 0.14545
 C194 C 0.01346 0.24702 0.17092
 C195 C 0.04763 0.20933 0.14648
 C196 C 0.05833 0.19356 0.12063
 C197 C 0.04461 0.19890 0.09373
 C198 C 0.02018 0.21932 0.09265
 H199 H -0.02543 0.25911 0.09650
 H200 H 0.02411 0.24376 0.19182
 H201 H 0.05845 0.20551 0.16720
 H202 H 0.00975 0.22277 0.07168
 H203 H -0.01753 0.28022 0.18999
 H204 H 0.05254 0.18680 0.07364
 C205 C 0.49906 0.72894 0.65747
 C206 C 0.51272 0.71876 0.63035
 C207 C 0.50393 0.73212 0.60409
 C208 C 0.48171 0.75534 0.60489
 C209 C 0.46852 0.76577 0.63236
 C210 C 0.47730 0.75237 0.65850
 C211 C 0.44673 0.78937 0.63324
 C212 C 0.43750 0.80236 0.60696
 C213 C 0.45030 0.79146 0.57972
 C214 C 0.47238 0.76829 0.57869
 H215 H 0.51406 0.72419 0.58301
 H216 H 0.46735 0.76002 0.67973
 H217 H 0.43662 0.79740 0.65428
 H218 H 0.48216 0.76052 0.55742
 H219 H 0.50559 0.71915 0.67801
 H220 H 0.44358 0.80132 0.55927
 C221 C 1.00851 0.77123 0.33695
 C222 C 1.02238 0.77836 0.36363
 C223 C 1.01429 0.76314 0.38927
 C224 C 0.99264 0.74175 0.38839
 C225 C 0.97943 0.73451 0.36134
 C226 C 0.98756 0.74933 0.33577
 C227 C 0.95802 0.71286 0.36042
 C228 C 0.94896 0.69910 0.38641
 C229 C 0.96176 0.70683 0.41330
 C230 C 0.98368 0.72773 0.41425
 H231 H 1.02403 0.76839 0.41026
 H232 H 0.97756 0.74415 0.31486
 H233 H 0.94784 0.70718 0.33972
 H234 H 0.99344 0.73312 0.43524
 H235 H 1.01413 0.78202 0.31663
 H236 H 0.95503 0.69631 0.43349
 C237 C 0.49898 0.23577 -0.16543
 C238 C 0.48577 0.22860 -0.13817
 C239 C 0.49467 0.24292 -0.11203
 C240 C 0.51662 0.26401 -0.11307
 C241 C 0.52947 0.27133 -0.14066
 C242 C 0.52050 0.25708 -0.16670
 C243 C 0.55119 0.29264 -0.14173
 C244 C 0.56067 0.30636 -0.11554
 C245 C 0.54805 0.29863 -0.08820
 C246 C 0.52607 0.27779 -0.08697
 H247 H 0.48494 0.23730 -0.09083
 H248 H 0.53017 0.26236 -0.18803
 H249 H 0.56114 0.29817 -0.16286
 H250 H 0.51652 0.27240 -0.06563
 H251 H 0.49237 0.22522 -0.18590
 H252 H 0.55490 0.30912 -0.06780
 C253 C 0.08991 -0.02046 0.25870
 C254 C 0.11678 -0.02970 0.27144
 C255 C 0.14315 -0.01652 0.26264
 C256 C 0.14275 0.00543 0.24118
 C257 C 0.11553 0.01483 0.22880
 C258 C 0.08924 0.00176 0.23773
 C259 C 0.11509 0.03692 0.20749
 C260 C 0.14161 0.04928 0.19789
 C261 C 0.16860 0.03953 0.21005
 C262 C 0.16915 0.01796 0.23168
 H263 H 0.16407 -0.02374 0.27203
 H264 H 0.06820 0.00864 0.22841
 H265 H 0.09427 0.04405 0.19787
 H266 H 0.19024 0.01097 0.24087
 H267 H 0.06928 -0.03012 0.26526
 H268 H 0.18922 0.04894 0.20303
 C269 C 0.58564 0.51922 -0.25785
 C270 C 0.61250 0.52481 -0.27309
 C271 C 0.63870 0.50851 -0.26558
 C272 C 0.63819 0.48768 -0.24306
 C273 C 0.61099 0.48211 -0.22837
 C274 C 0.58486 0.49791 -0.23600
 C275 C 0.61045 0.46113 -0.20600
 C276 C 0.63693 0.44635 -0.19749
 C277 C 0.66393 0.45237 -0.21186
 C278 C 0.66454 0.47262 -0.23469
 H279 H 0.65982 0.51252 -0.27642
 H280 H 0.56381 0.49397 -0.22490
 H281 H 0.58963 0.45681 -0.19465
 H282 H 0.68565 0.47670 -0.24561
 H283 H 0.56489 0.53084 -0.26299
 H284 H 0.68450 0.44104 -0.20561
 C285 C 0.41730 1.02385 0.75234
 C286 C 0.39037 1.03448 0.76644
 C287 C 0.36359 1.02289 0.75741
 C288 C 0.36365 1.00111 0.73437
 C289 C 0.39092 0.99021 0.72065
 C290 C 0.41761 1.00172 0.72982
 C291 C 0.39101 0.96817 0.69786
 C292 C 0.36415 0.95740 0.68809
 C293 C 0.33714 0.96872 0.70151
 C294 C 0.33689 0.99022 0.72463
 H295 H 0.34265 1.03124 0.76786
 H296 H 0.43871 0.99370 0.71948
 H297 H 0.41187 0.95979 0.68729
 H298 H 0.31578 0.99839 0.73481
 H299 H 0.43821 1.03235 0.75905
 H300 H 0.31626 0.96052 0.69438
 C301 C 0.83247 0.48502 0.23961
 C302 C 0.85976 0.46935 0.23259
 C303 C 0.88544 0.47767 0.24695
 C304 C 0.88391 0.50148 0.26801
 C305 C 0.85621 0.51669 0.27537
 C306 C 0.83065 0.50832 0.26101
 C307 C 0.85458 0.54008 0.29686
 C308 C 0.88037 0.54898 0.31059
 C309 C 0.90788 0.53419 0.30268
 C310 C 0.90962 0.51045 0.28175
 H311 H 0.90666 0.46598 0.24138
 H312 H 0.80927 0.51981 0.26628
 H313 H 0.83337 0.55173 0.30263
 H314 H 0.93106 0.49915 0.27629
 H315 H 0.81239 0.47889 0.22892
 H316 H 0.92795 0.54069 0.31317
 C317 C 0.28200 0.16714 -0.01927
 C318 C 0.29232 0.13948 -0.03231
 C319 C 0.28048 0.11310 -0.02224
 C320 C 0.25866 0.11430 0.00070
 C321 C 0.24801 0.14229 0.01329
 C322 C 0.25985 0.16857 0.00317
 C323 C 0.22582 0.14352 0.03588
 C324 C 0.21463 0.11709 0.04655
 C325 C 0.22575 0.08937 0.03431
 C326 C 0.24741 0.08797 0.01140
 H327 H 0.28860 0.09162 -0.03188
 H328 H 0.25203 0.19021 0.01264
 H329 H 0.21759 0.16494 0.04555
 H330 H 0.25539 0.06631 0.00210
 H331 H 0.29069 0.18776 -0.02678
 H332 H 0.21724 0.06880 0.04217
 C333 C 0.73263 0.58599 0.52840
 C334 C 0.71750 0.61358 0.53579
 C335 C 0.72567 0.63928 0.52122
 C336 C 0.74893 0.63753 0.49971
 C337 C 0.76366 0.60955 0.49204
 C338 C 0.75531 0.58393 0.50650
 C339 C 0.78666 0.60774 0.47026
 C340 C 0.79570 0.63365 0.45666
 C341 C 0.78133 0.66141 0.46481
 C342 C 0.75793 0.66332 0.48594
 H343 H 0.71439 0.66073 0.52708
 H344 H 0.76645 0.56233 0.50099
 H345 H 0.79800 0.58635 0.46430
 H346 H 0.74700 0.68496 0.49165
 H347 H 0.72659 0.56589 0.53927
 H348 H 0.78799 0.68155 0.45441
 C349 C 0.77405 0.33283 0.02262
 C350 C 0.78112 0.36068 0.03489
 C351 C 0.76756 0.38695 0.02416
 C352 C 0.74725 0.38545 0.00131
 C353 C 0.73984 0.35729 -0.01048
 C354 C 0.75339 0.33113 0.00031
 C355 C 0.71912 0.35578 -0.03295
 C356 C 0.70625 0.38207 -0.04429
 C357 C 0.71420 0.40994 -0.03285
 C358 C 0.73434 0.41164 -0.01006
 H359 H 0.77318 0.40856 0.03321
 H360 H 0.74807 0.30936 -0.00856
 H361 H 0.71334 0.33423 -0.04200
 H362 H 0.73985 0.43342 -0.00138
 H363 H 0.78411 0.31230 0.03066
 H364 H 0.70435 0.43041 -0.04123
 C365 C 0.21777 0.84198 0.47725
 C366 C 0.21056 0.86937 0.46425
 C367 C 0.22556 0.89482 0.47277
 C368 C 0.24735 0.89303 0.49424
 C369 C 0.25484 0.86524 0.50680
 C370 C 0.23992 0.83986 0.49814
 C371 C 0.27690 0.86338 0.52799
 C372 C 0.29100 0.88909 0.53739
 C373 C 0.28305 0.91668 0.52519
 C374 C 0.26160 0.91861 0.50358
 H375 H 0.21985 0.91613 0.46316
 H376 H 0.24528 0.81842 0.50762
 H377 H 0.28270 0.84214 0.53768
 H378 H 0.25606 0.94011 0.49429
 H379 H 0.20660 0.82206 0.47089
 H380 H 0.29382 0.93666 0.53212
   
