data_POSCAR
  _audit_creation_date              2014-09-24
  _audit_creation_method            'ToBaCCo'
  _symmetry_space_group_name_H-M    'P1'
  _symmetry_Int_Tables_number       1
  _symmetry_cell_setting            triclinic
  loop_
  _symmetry_equiv_pos_as_xyz
 x,y,z
_cell_length_a 45.9474
_cell_length_b 45.9960
_cell_length_c 45.8525
_cell_angle_alpha 89.999100
_cell_angle_beta 89.995500
_cell_angle_gamma 89.906400
loop_
  _atom_site_label
  _atom_site_type_symbol
  _atom_site_fract_x
  _atom_site_fract_y
  _atom_site_fract_z
C1 C 0.15602 0.17652 0.19916
 C2 C 0.15604 0.19808 0.17754
 C3 C 0.17742 0.19808 0.15622
 C4 C 0.19902 0.17651 0.15625
 C5 C 0.19901 0.15519 0.17762
 C6 C 0.17738 0.15519 0.19921
 C7 C 0.13825 0.17146 0.22282
 N8 N 0.14843 0.14768 0.23697
 C9 C 0.17227 0.13749 0.22289
 C10 C 0.22269 0.13748 0.17257
 N11 N 0.23682 0.14766 0.14874
 C12 C 0.22271 0.17144 0.13853
 C13 C 0.17235 0.22170 0.13846
 N14 N 0.14851 0.23581 0.14860
 C15 C 0.13832 0.22171 0.17242
 H16 H 0.11952 0.18421 0.22937
 H17 H 0.18503 0.11880 0.22951
 H18 H 0.22927 0.11878 0.18534
 H19 H 0.22930 0.18418 0.11980
 H20 H 0.18510 0.22830 0.11975
 H21 H 0.11957 0.22831 0.18513
 C22 C -0.15633 0.82320 0.19955
 C23 C -0.15636 0.80164 0.17792
 C24 C -0.17773 0.80166 0.15659
 C25 C -0.19933 0.82323 0.15663
 C26 C -0.19932 0.84454 0.17802
 C27 C -0.17769 0.84453 0.19960
 C28 C -0.13855 0.82825 0.22319
 N29 N -0.14872 0.85204 0.23735
 C30 C -0.17257 0.86223 0.22328
 C31 C -0.22299 0.86227 0.17297
 N32 N -0.23711 0.85210 0.14914
 C33 C -0.22301 0.82832 0.13891
 C34 C -0.17265 0.77805 0.13882
 N35 N -0.14882 0.76394 0.14894
 C36 C -0.13863 0.77802 0.17277
 H37 H -0.11981 0.81551 0.22973
 H38 H -0.18531 0.88093 0.22990
 H39 H -0.22956 0.88096 0.18575
 H40 H -0.22959 0.81560 0.12017
 H41 H -0.18540 0.77148 0.12009
 H42 H -0.11988 0.77142 0.18548
 C43 C -0.15691 0.17685 -0.19904
 C44 C -0.15696 0.19846 -0.17747
 C45 C -0.17828 0.19852 -0.15610
 C46 C -0.19982 0.17694 -0.15603
 C47 C -0.19977 0.15557 -0.17735
 C48 C -0.17819 0.15552 -0.19898
 C49 C -0.13916 0.17172 -0.22270
 N50 N -0.14926 0.14789 -0.23676
 C51 C -0.17306 0.13774 -0.22261
 C52 C -0.22336 0.13785 -0.17219
 N53 N -0.23747 0.14806 -0.14836
 C54 C -0.22344 0.17189 -0.13823
 C55 C -0.17322 0.22218 -0.13841
 N56 N -0.14944 0.23625 -0.14864
 C57 C -0.13928 0.22208 -0.17245
 H58 H -0.12047 0.18444 -0.22931
 H59 H -0.18574 0.11901 -0.22915
 H60 H -0.22989 0.11911 -0.18491
 H61 H -0.23004 0.18466 -0.11951
 H62 H -0.18593 0.22882 -0.11966
 H63 H -0.12057 0.22863 -0.18522
 C64 C 0.15736 0.82286 -0.19942
 C65 C 0.15741 0.80123 -0.17786
 C66 C 0.17874 0.80117 -0.15649
 C67 C 0.20027 0.82275 -0.15641
 C68 C 0.20022 0.84413 -0.17773
 C69 C 0.17864 0.84419 -0.19935
 C70 C 0.13959 0.82800 -0.22306
 N71 N 0.14969 0.85185 -0.23711
 C72 C 0.17349 0.86199 -0.22297
 C73 C 0.22380 0.86187 -0.17256
 N74 N 0.23791 0.85165 -0.14873
 C75 C 0.22388 0.82781 -0.13861
 C76 C 0.17366 0.77752 -0.13879
 N77 N 0.14988 0.76346 -0.14901
 C78 C 0.13972 0.77762 -0.17283
 H79 H 0.12090 0.81529 -0.22967
 H80 H 0.18617 0.88073 -0.22949
 H81 H 0.23031 0.88062 -0.18526
 H82 H 0.23047 0.81504 -0.11988
 H83 H 0.18636 0.77089 -0.12004
 H84 H 0.12101 0.77109 -0.18558
 C85 C 0.17563 1.15544 0.80185
 C86 C 0.19722 1.15548 0.82346
 C87 C 0.19725 1.17686 0.84474
 C88 C 0.17568 1.19846 0.84468
 C89 C 0.15433 1.19843 0.82333
 C90 C 0.15431 1.17679 0.80178
 C91 C 0.17060 1.13770 0.77819
 N92 N 0.14682 1.14789 0.76402
 C93 C 0.13661 1.17172 0.77808
 C94 C 0.13666 1.22214 0.82830
 N95 N 0.14690 1.23630 0.85207
 C96 C 0.17068 1.22219 0.86232
 C97 C 0.22094 1.17185 0.86245
 N98 N 0.23505 1.14804 0.85231
 C99 C 0.22089 1.13780 0.82854
 H100 H 0.18337 1.11900 0.77163
 H101 H 0.11794 1.18449 0.77141
 H102 H 0.11797 1.22873 0.81550
 H103 H 0.18347 1.22883 0.88101
 H104 H 0.22759 1.18464 0.88111
 H105 H 0.22750 1.11908 0.81583
 C106 C 0.82453 0.84467 0.80192
 C107 C 0.80294 0.84462 0.82353
 C108 C 0.80291 0.82322 0.84480
 C109 C 0.82447 0.80162 0.84472
 C110 C 0.84583 0.80167 0.82336
 C111 C 0.84586 0.82332 0.80184
 C112 C 0.82957 0.86243 0.77828
 N113 N 0.85335 0.85225 0.76410
 C114 C 0.86355 0.82841 0.77814
 C115 C 0.86349 0.77796 0.82831
 N116 N 0.85325 0.76378 0.85207
 C117 C 0.82947 0.77788 0.86234
 C118 C 0.77921 0.82822 0.86250
 N119 N 0.76510 0.85204 0.85238
 C120 C 0.77927 0.86229 0.82863
 H121 H 0.81679 0.88114 0.77173
 H122 H 0.88222 0.81564 0.77146
 H123 H 0.88219 0.77138 0.81551
 H124 H 0.81667 0.77122 0.88101
 H125 H 0.77255 0.81540 0.88115
 H126 H 0.77266 0.88102 0.81593
 C127 C 0.17541 0.84540 1.19805
 C128 C 0.19702 0.84539 1.17646
 C129 C 0.19711 0.82405 1.15513
 C130 C 0.17560 0.80247 1.15514
 C131 C 0.15424 0.80247 1.17648
 C132 C 0.15415 0.82406 1.19807
 C133 C 0.17033 0.86309 1.22175
 N134 N 0.14657 0.85288 1.23589
 C135 C 0.13644 0.82909 1.22178
 C136 C 0.13666 0.77878 1.17145
 N137 N 0.14694 0.76465 1.14766
 C138 C 0.17068 0.77878 1.13747
 C139 C 0.22081 0.82907 1.13746
 N140 N 0.23487 0.85283 1.14766
 C141 C 0.22066 0.86305 1.17143
 H142 H 0.18306 0.88176 1.22836
 H143 H 0.11780 0.81631 1.22842
 H144 H 0.11799 0.77215 1.18420
 H145 H 0.18348 0.77216 1.11878
 H146 H 0.22752 0.81629 1.11879
 H147 H 0.22724 0.88172 1.18420
 C148 C 0.82450 1.15476 1.19818
 C149 C 0.80289 1.15478 1.17659
 C150 C 0.80281 1.17611 1.15525
 C151 C 0.82433 1.19767 1.15524
 C152 C 0.84569 1.19767 1.17658
 C153 C 0.84578 1.17609 1.19818
 C154 C 0.82958 1.13709 1.22188
 N155 N 0.85334 1.14729 1.23602
 C156 C 0.86349 1.17106 1.22189
 C157 C 0.86329 1.22135 1.17153
 N158 N 0.85302 1.23547 1.14774
 C159 C 0.82927 1.22135 1.13756
 C160 C 0.77910 1.17110 1.13760
 N161 N 0.76503 1.14734 1.14781
 C162 C 0.77923 1.13713 1.17158
 H163 H 0.81685 1.11842 1.22851
 H164 H 0.88214 1.18384 1.22852
 H165 H 0.88197 1.22797 1.18427
 H166 H 0.81648 1.22797 1.11887
 H167 H 0.77240 1.18387 1.11892
 H168 H 0.77266 1.11847 1.18436
 N169 N 0.53062 1.05151 0.96886
 N170 N 0.55297 1.06920 0.96546
 N171 N 0.46938 1.03132 0.94860
 N172 N 0.44697 1.03467 0.93089
 N173 N 0.46935 1.05152 0.96885
 N174 N 0.44692 1.06918 0.96550
 N175 N 0.53065 1.03131 0.94861
 N176 N 0.55302 1.03469 0.93085
 C177 C 0.56659 1.05842 0.94166
 C178 C 0.43332 1.05838 0.94172
 N179 N 0.46947 0.94851 0.96886
 N180 N 0.44716 0.93079 0.96543
 N181 N 0.53073 0.96870 0.94862
 N182 N 0.55315 0.96535 0.93093
 N183 N 0.53074 0.94851 0.96889
 N184 N 0.55318 0.93085 0.96556
 N185 N 0.46945 0.96871 0.94860
 N186 N 0.44712 0.96529 0.93081
 Mn187 Mn 0.50005 1.00001 0.94825
 C188 C 0.43356 0.94155 0.94160
 C189 C 0.56679 0.94164 0.94178
 N190 N 0.46930 1.05153 1.03166
 N191 N 0.44690 1.06923 1.03505
 N192 N 0.53060 1.03133 1.05193
 N193 N 0.55302 1.03464 1.06962
 N194 N 0.53057 1.05152 1.03167
 N195 N 0.55298 1.06914 1.03499
 N196 N 0.46933 1.03134 1.05192
 N197 N 0.44694 1.03473 1.06967
 Mn198 Mn 0.49996 1.05187 1.00026
 C199 C 0.43331 1.05846 1.05885
 C200 C 0.56662 1.05833 1.05877
 N201 N 0.53074 0.94851 1.03170
 N202 N 0.55311 0.93078 1.03514
 N203 N 0.46943 0.96873 1.05192
 N204 N 0.44699 0.96543 1.06959
 N205 N 0.46947 0.94853 1.03167
 N206 N 0.44705 0.93092 1.03498
 N207 N 0.53070 0.96871 1.05195
 N208 N 0.55304 0.96530 1.06974
 Mn209 Mn 0.50011 0.94816 1.00028
 Mn210 Mn 0.50001 1.00003 1.05229
 Cl211 Cl 0.50003 1.00002 1.00027
 C212 C 0.56667 0.94155 1.05896
 C213 C 0.43339 0.94175 1.05873
 N214 N -0.05156 0.46957 0.03077
 N215 N -0.06921 0.44719 0.03408
 N216 N -0.03130 0.53073 0.05103
 N217 N -0.03471 0.55306 0.06880
 N218 N -0.05151 0.53078 0.03076
 N219 N -0.06924 0.55315 0.03418
 N220 N -0.03135 0.46953 0.05104
 N221 N -0.03467 0.44712 0.06871
 C222 C -0.05838 0.43355 0.05785
 C223 C -0.05846 0.56670 0.05800
 N224 N 0.05160 0.53049 0.03080
 N225 N 0.06924 0.55287 0.03411
 N226 N 0.03132 0.46934 0.05106
 N227 N 0.03467 0.44698 0.06882
 N228 N 0.05154 0.46928 0.03081
 N229 N 0.06922 0.44688 0.03421
 N230 N 0.03137 0.53054 0.05104
 N231 N 0.03467 0.55296 0.06870
 Mn232 Mn 0.00001 0.50004 0.05140
 C233 C 0.05839 0.56653 0.05786
 C234 C 0.05841 0.43332 0.05801
 N235 N -0.05147 0.53075 -0.03205
 N236 N -0.06911 0.55320 -0.03540
 N237 N -0.03132 0.46948 -0.05229
 N238 N -0.03473 0.44711 -0.07001
 N239 N -0.05154 0.46955 -0.03203
 N240 N -0.06927 0.44724 -0.03540
 N241 N -0.03125 0.53069 -0.05230
 N242 N -0.03455 0.55309 -0.07001
 Mn243 Mn -0.05188 0.50017 -0.00064
 C244 C -0.05826 0.56676 -0.05918
 C245 C -0.05850 0.43360 -0.05918
 N246 N 0.05157 0.46928 -0.03199
 N247 N 0.06921 0.44684 -0.03532
 N248 N 0.03144 0.53054 -0.05228
 N249 N 0.03487 0.55289 -0.07002
 N250 N 0.05164 0.53048 -0.03201
 N251 N 0.06939 0.55278 -0.03539
 N252 N 0.03136 0.46933 -0.05226
 N253 N 0.03468 0.44692 -0.06995
 Mn254 Mn 0.05194 0.49988 -0.00060
 Mn255 Mn 0.00006 0.50001 -0.05264
 Cl256 Cl 0.00003 0.50003 -0.00062
 C257 C 0.05838 0.43326 -0.05910
 C258 C 0.05864 0.56640 -0.05919
 N259 N 0.94842 0.03133 0.53097
 N260 N 0.93069 0.03470 0.55338
 N261 N 0.96861 0.05154 0.46959
 N262 N 0.96528 0.06917 0.44711
 N263 N 0.94843 0.03134 0.46958
 N264 N 0.93080 0.03465 0.44709
 N265 N 0.96860 0.05153 0.53099
 N266 N 0.96516 0.06923 0.55341
 C267 C 0.94142 0.05843 0.56702
 C268 C 0.94159 0.05835 0.43344
 N269 N 1.05154 0.03137 0.46955
 N270 N 1.06924 0.03476 0.44713
 N271 N 1.03128 0.05155 0.53096
 N272 N 1.03460 0.06922 0.55340
 N273 N 1.05154 0.03137 0.53095
 N274 N 1.06922 0.03473 0.55340
 N275 N 1.03129 0.05157 0.46956
 N276 N 1.03464 0.06926 0.44713
 Mn277 Mn 0.99994 0.05190 0.50027
 C278 C 1.05841 0.05848 0.43350
 C279 C 1.05836 0.05844 0.56703
 N280 N 0.94855 -0.03128 0.46956
 N281 N 0.93081 -0.03468 0.44717
 N282 N 0.96881 -0.05146 0.53096
 N283 N 0.96551 -0.06912 0.55341
 N284 N 0.94855 -0.03128 0.53096
 N285 N 0.93089 -0.03464 0.55342
 N286 N 0.96880 -0.05147 0.46956
 N287 N 0.96541 -0.06919 0.44716
 Mn288 Mn 0.94813 0.00003 0.50027
 C289 C 0.94163 -0.05842 0.43354
 C290 C 0.94176 -0.05834 0.56706
 N291 N 1.05167 -0.03124 0.53095
 N292 N 1.06945 -0.03466 0.55332
 N293 N 1.03147 -0.05144 0.46957
 N294 N 1.03478 -0.06905 0.44708
 N295 N 1.05164 -0.03124 0.46956
 N296 N 1.06927 -0.03454 0.44705
 N297 N 1.03150 -0.05144 0.53097
 N298 N 1.03498 -0.06918 0.55335
 Mn299 Mn 1.05195 0.00007 0.50025
 Mn300 Mn 1.00014 -0.05181 0.50027
 Cl301 Cl 1.00004 0.00005 0.50027
 C302 C 1.05874 -0.05841 0.56694
 C303 C 1.05846 -0.05822 0.43340
 C304 C 1.07484 0.10833 0.33466
 C305 C 1.09863 0.13212 0.33325
 C306 C 1.11466 0.11423 0.30993
 C307 C 1.09106 0.09062 0.31093
 C308 C 1.09264 0.09250 0.35819
 C309 C 1.10867 0.07460 0.33488
 C310 C 1.11624 0.11611 0.35718
 C311 C 1.13245 0.09840 0.33346
 C312 C 1.12698 0.12640 0.28312
 C313 C 1.13717 0.13650 0.26112
 C314 C 1.08042 0.08041 0.38509
 C315 C 1.07039 0.07044 0.40721
 H316 H 1.05101 0.11227 0.33546
 H317 H 1.09463 0.15591 0.33228
 H318 H 1.08084 0.08026 0.29161
 H319 H 1.11266 0.05081 0.33584
 H320 H 1.12646 0.12646 0.37650
 H321 H 1.15628 0.09444 0.33267
 C322 C 0.88439 -0.11691 0.35745
 C323 C 0.86726 -0.09942 0.33420
 C324 C 0.88517 -0.11442 0.31020
 C325 C 0.90210 -0.13209 0.33304
 C326 C 0.90726 -0.09259 0.35837
 C327 C 0.92516 -0.10758 0.33438
 C328 C 0.89032 -0.07492 0.33553
 C329 C 0.90804 -0.09010 0.31112
 C330 C 0.87280 -0.12664 0.28343
 C331 C 0.86257 -0.13676 0.26147
 C332 C 0.91953 -0.08045 0.38522
 C333 C 0.92961 -0.07043 0.40730
 H334 H 0.87480 -0.12780 0.37679
 H335 H 0.84332 -0.09620 0.33382
 H336 H 0.90682 -0.15573 0.33172
 H337 H 0.94911 -0.11081 0.33475
 H338 H 0.88562 -0.05128 0.33685
 H339 H 0.91763 -0.07922 0.29178
 C340 C 0.92297 0.11346 0.66271
 C341 C 0.89516 0.13248 0.66439
 C342 C 0.88470 0.11424 0.69041
 C343 C 0.91232 0.09541 0.68916
 C344 C 0.90691 0.09247 0.64224
 C345 C 0.89645 0.07422 0.66827
 C346 C 0.87929 0.11130 0.64350
 C347 C 0.86864 0.09324 0.66994
 C348 C 0.87228 0.12646 0.71718
 C349 C 0.86203 0.13662 0.73914
 C350 C 0.91924 0.08037 0.61538
 C351 C 0.92936 0.07040 0.59329
 H352 H 0.94546 0.12164 0.65944
 H353 H 0.89450 0.15657 0.66309
 H354 H 0.92576 0.08900 0.70823
 H355 H 0.89712 0.05013 0.66956
 H356 H 0.86585 0.11771 0.62444
 H357 H 0.84616 0.08506 0.67321
 C358 C 1.07853 -0.09147 0.67204
 C359 C 1.08651 -0.12387 0.67676
 C360 C 1.11566 -0.11442 0.69014
 C361 C 1.10787 -0.08221 0.68584
 C362 C 1.09337 -0.09259 0.64203
 C363 C 1.12252 -0.08313 0.65542
 C364 C 1.10116 -0.12480 0.64634
 C365 C 1.13049 -0.11553 0.66013
 C366 C 1.12811 -0.12667 0.71688
 C367 C 1.13838 -0.13686 0.73881
 C368 C 1.08100 -0.08044 0.61521
 C369 C 1.07084 -0.07043 0.59316
 H370 H 1.05702 -0.08144 0.67664
 H371 H 1.07184 -0.14076 0.68583
 H372 H 1.11076 -0.06482 0.70238
 H373 H 1.13718 -0.06625 0.64634
 H374 H 1.09827 -0.14218 0.62980
 H375 H 1.15200 -0.12556 0.65553
 C376 C 0.35684 1.11807 1.11460
 C377 C 0.33163 1.13146 1.09658
 C378 C 0.30979 1.11418 1.11508
 C379 C 0.33458 1.10099 1.13328
 C380 C 0.35804 1.09247 1.09312
 C381 C 0.33620 1.07519 1.11161
 C382 C 0.33325 1.10566 1.07491
 C383 C 0.31099 1.08857 1.09359
 C384 C 0.28297 1.12636 1.12737
 C385 C 0.26097 1.13646 1.13753
 C386 C 0.38494 1.08038 1.08090
 C387 C 0.40704 1.07042 1.07086
 H388 H 0.37598 1.13007 1.12311
 H389 H 0.32946 1.15473 1.09053
 H390 H 0.33483 1.09919 1.15743
 H391 H 0.33837 1.05192 1.11766
 H392 H 0.33301 1.10745 1.05076
 H393 H 0.29184 1.07657 1.08509
 C394 C 0.35721 0.87923 0.88910
 C395 C 0.33035 0.86953 0.90703
 C396 C 0.31055 0.88535 0.88516
 C397 C 0.33700 0.89486 0.86704
 C398 C 0.35859 0.90729 0.90721
 C399 C 0.33879 0.92311 0.88534
 C400 C 0.33214 0.89779 0.92534
 C401 C 0.31192 0.91342 0.90328
 C402 C 0.28385 0.87306 0.87282
 C403 C 0.26195 0.86288 0.86258
 C404 C 0.38537 0.91949 0.91946
 C405 C 0.40739 0.92954 0.92954
 H406 H 0.37613 0.86530 0.88340
 H407 H 0.32658 0.84737 0.91582
 H408 H 0.33871 0.89352 0.84292
 H409 H 0.34256 0.94528 0.87656
 H410 H 0.33043 0.89913 0.94945
 H411 H 0.29300 0.92734 0.90897
 C412 C 0.64354 0.89074 1.12236
 C413 C 0.66302 0.86763 1.10736
 C414 C 0.68998 0.88564 1.11543
 C415 C 0.67091 0.90856 1.13061
 C416 C 0.64179 0.90742 1.09339
 C417 C 0.66875 0.92544 1.10145
 C418 C 0.66086 0.88451 1.07820
 C419 C 0.68824 0.90233 1.08645
 C420 C 0.71677 0.87344 1.12775
 C421 C 0.73875 0.86332 1.13792
 C422 C 0.61494 0.91955 1.08112
 C423 C 0.59288 0.92955 1.07103
 H424 H 0.62487 0.88610 1.13700
 H425 H 0.66096 0.84373 1.10993
 H426 H 0.67534 0.91833 1.15230
 H427 H 0.67081 0.94935 1.09888
 H428 H 0.65643 0.87475 1.05651
 H429 H 0.70691 0.90697 1.07182
 C430 C 0.64267 1.11741 0.88504
 C431 C 0.66727 1.13190 0.90297
 C432 C 0.68980 1.11444 0.88543
 C433 C 0.66560 1.10013 0.86732
 C434 C 0.64169 1.09255 0.90739
 C435 C 0.66421 1.07507 0.88986
 C436 C 0.66588 1.10685 0.92551
 C437 C 0.68882 1.08957 0.90778
 C438 C 0.71653 1.12670 0.87313
 C439 C 0.73845 1.13685 0.86293
 C440 C 0.61486 1.08039 0.91959
 C441 C 0.59281 1.07039 0.92964
 H442 H 0.62340 1.12873 0.87583
 H443 H 0.66882 1.15541 0.90824
 H444 H 0.66579 1.09750 0.84325
 H445 H 0.66266 1.05157 0.88460
 H446 H 0.66569 1.10947 0.94958
 H447 H 0.70809 1.07825 0.91700
 C448 C 0.11135 0.33646 0.07517
 C449 C 0.13254 0.33487 0.10141
 C450 C 0.11429 0.30999 0.11422
 C451 C 0.09330 0.31116 0.08817
 C452 C 0.09246 0.35815 0.09227
 C453 C 0.07421 0.33327 0.10508
 C454 C 0.11346 0.35697 0.11832
 C455 C 0.09540 0.33168 0.13132
 C456 C 0.12652 0.28322 0.12652
 C457 C 0.13666 0.26128 0.13670
 C458 C 0.08034 0.38500 0.08007
 C459 C 0.07035 0.40708 0.07003
 H460 H 0.11778 0.33872 0.05194
 H461 H 0.15665 0.33523 0.10003
 H462 H 0.08515 0.29203 0.07590
 H463 H 0.05010 0.33291 0.10645
 H464 H 0.12161 0.37610 0.13059
 H465 H 0.08897 0.32941 0.15454
 C466 C -0.11450 0.35740 -0.11861
 C467 C -0.09664 0.33219 -0.13213
 C468 C -0.11501 0.31040 -0.11466
 C469 C -0.13305 0.33520 -0.10132
 C470 C -0.09288 0.35852 -0.09307
 C471 C -0.11125 0.33674 -0.07559
 C472 C -0.07483 0.33372 -0.10641
 C473 C -0.09339 0.31152 -0.08912
 C474 C -0.12737 0.28365 -0.12677
 C475 C -0.13757 0.26171 -0.13684
 C476 C -0.08059 0.38535 -0.08106
 C477 C -0.07051 0.40739 -0.07113
 H478 H -0.12305 0.37656 -0.13060
 H479 H -0.09077 0.33002 -0.15552
 H480 H -0.15713 0.33552 -0.09935
 H481 H -0.11712 0.33891 -0.05221
 H482 H -0.05075 0.33341 -0.10838
 H483 H -0.08484 0.29235 -0.07713
 C484 C 0.09810 0.64690 -0.12590
 C485 C 0.08490 0.67771 -0.12225
 C486 C 0.11534 0.68940 -0.11492
 C487 C 0.12873 0.65901 -0.11876
 C488 C 0.09314 0.64136 -0.09324
 C489 C 0.12358 0.65305 -0.08591
 C490 C 0.07975 0.67175 -0.08940
 C491 C 0.11038 0.68386 -0.08226
 C492 C 0.12775 0.71611 -0.12708
 C493 C 0.13798 0.73803 -0.13718
 C494 C 0.08081 0.61458 -0.08116
 C495 C 0.07069 0.59257 -0.07118
 H496 H 0.09291 0.63141 -0.14372
 H497 H 0.06913 0.68814 -0.13733
 H498 H 0.14900 0.65405 -0.13096
 H499 H 0.13934 0.64261 -0.07083
 H500 H 0.05947 0.67669 -0.07719
 H501 H 0.11557 0.69935 -0.06444
 C502 C -0.12383 0.64476 0.10415
 C503 C -0.11173 0.66100 0.13114
 C504 C -0.11454 0.68984 0.11445
 C505 C -0.12683 0.67401 0.08765
 C506 C -0.09266 0.64175 0.09239
 C507 C -0.09547 0.67058 0.07570
 C508 C -0.08037 0.65758 0.11919
 C509 C -0.08337 0.68683 0.10269
 C510 C -0.12680 0.71657 0.12680
 C511 C -0.13695 0.73850 0.13702
 C512 C -0.08049 0.61494 0.08013
 C513 C -0.07046 0.59290 0.07005
 H514 H -0.14034 0.62717 0.10461
 H515 H -0.11855 0.65736 0.15407
 H516 H -0.14607 0.68106 0.07481
 H517 H -0.08865 0.67422 0.05276
 H518 H -0.06113 0.65053 0.13203
 H519 H -0.06686 0.70442 0.10223
 C520 C 1.11509 0.11666 0.64366
 C521 C 1.09712 0.13204 0.66775
 C522 C 1.11362 0.11434 0.69089
 C523 C 1.13177 0.09915 0.66722
 C524 C 1.09209 0.09249 0.64250
 C525 C 1.10858 0.07479 0.66564
 C526 C 1.07393 0.10767 0.66617
 C527 C 1.09061 0.09017 0.68973
 C528 C 1.12568 0.12658 0.71777
 C529 C 1.13571 0.13671 0.73982
 C530 C 1.08012 0.08035 0.61553
 C531 C 1.07023 0.07036 0.59337
 H532 H 1.12503 0.12742 0.62442
 H533 H 1.09255 0.15571 0.66893
 H534 H 1.15569 0.09578 0.66795
 H535 H 1.11316 0.05111 0.66446
 H536 H 1.05001 0.11104 0.66544
 H537 H 1.08069 0.07941 0.70898
 C538 C 0.89493 -0.07417 0.66741
 C539 C 0.86914 -0.09576 0.66911
 C540 C 0.88655 -0.11419 0.69096
 C541 C 0.91215 -0.09279 0.68969
 C542 C 0.90806 -0.09235 0.64256
 C543 C 0.92547 -0.11077 0.66441
 C544 C 0.88246 -0.11375 0.64384
 C545 C 0.89968 -0.13237 0.66611
 C546 C 0.87448 -0.12643 0.71785
 C547 C 0.86446 -0.13656 0.73990
 C548 C 0.92002 -0.08022 0.61558
 C549 C 0.92990 -0.07024 0.59341
 H550 H 0.89311 -0.05010 0.66764
 H551 H 0.84585 -0.08973 0.67135
 H552 H 0.92422 -0.08431 0.70885
 H553 H 0.94876 -0.11681 0.66218
 H554 H 0.87039 -0.12224 0.62468
 H555 H 0.90150 -0.15643 0.66588
 C556 C 1.11716 -0.11402 0.35632
 C557 C 1.09972 -0.13194 0.33370
 C558 C 1.11340 -0.11377 0.30917
 C559 C 1.13103 -0.09604 0.33138
 C560 C 1.09200 -0.09202 0.35770
 C561 C 1.10568 -0.07385 0.33316
 C562 C 1.07437 -0.10976 0.33549
 C563 C 1.08824 -0.09178 0.31053
 C564 C 1.12543 -0.12594 0.28223
 C565 C 1.13545 -0.13601 0.26014
 C566 C 1.08010 -0.07996 0.38474
 C567 C 1.07027 -0.07005 0.40698
 H568 H 1.12892 -0.12302 0.37545
 H569 H 1.09740 -0.15596 0.33361
 H570 H 1.15446 -0.09053 0.32938
 H571 H 1.10799 -0.04983 0.33326
 H572 H 1.05094 -0.11526 0.33749
 H573 H 1.07648 -0.08278 0.29140
 C574 C 0.92548 0.09650 0.32957
 C575 C 0.89983 0.08339 0.31204
 C576 C 0.88654 0.11394 0.30928
 C577 C 0.91199 0.12723 0.32639
 C578 C 0.90797 0.09220 0.35779
 C579 C 0.89468 0.12274 0.35503
 C580 C 0.88252 0.07889 0.34068
 C581 C 0.86904 0.10963 0.33750
 C582 C 0.87450 0.12610 0.28234
 C583 C 0.86447 0.13617 0.26026
 C584 C 0.91990 0.08013 0.38483
 C585 C 0.92975 0.07020 0.40705
 H586 H 0.94882 0.09097 0.32663
 H587 H 0.90182 0.06735 0.29405
 H588 H 0.92398 0.14724 0.32021
 H589 H 0.89269 0.13878 0.37301
 H590 H 0.87054 0.05888 0.34686
 H591 H 0.84570 0.11516 0.34045
 C592 C 0.10425 0.33266 -0.07457
 C593 C 0.08736 0.31091 -0.09402
 C594 C 0.11366 0.30943 -0.11466
 C595 C 0.13073 0.33076 -0.09539
 C596 C 0.09210 0.35782 -0.09297
 C597 C 0.11840 0.35634 -0.11360
 C598 C 0.07503 0.33649 -0.11223
 C599 C 0.10152 0.33459 -0.13305
 C600 C 0.12575 0.28256 -0.12679
 C601 C 0.13579 0.26050 -0.13684
 C602 C 0.08011 0.38477 -0.08092
 C603 C 0.07023 0.40693 -0.07098
 H604 H 0.10523 0.33217 -0.05038
 H605 H 0.07473 0.29192 -0.08610
 H606 H 0.15377 0.32810 -0.08860
 H607 H 0.13103 0.37532 -0.12152
 H608 H 0.05198 0.33915 -0.11901
 H609 H 0.10052 0.33508 -0.15724
 C610 C -0.10502 0.33344 0.07348
 C611 C -0.08774 0.31120 0.09208
 C612 C -0.11334 0.30986 0.11359
 C613 C -0.13080 0.33168 0.09519
 C614 C -0.09195 0.35818 0.09176
 C615 C -0.11755 0.35683 0.11327
 C616 C -0.07449 0.33636 0.11016
 C617 C -0.10027 0.33460 0.13186
 C618 C -0.12534 0.28302 0.12581
 C619 C -0.13530 0.26101 0.13593
 C620 C -0.08005 0.38511 0.07966
 C621 C -0.07021 0.40725 0.06971
 H622 H -0.10683 0.33328 0.04934
 H623 H -0.07562 0.29213 0.08350
 H624 H -0.15409 0.32944 0.08916
 H625 H -0.12967 0.37590 0.12185
 H626 H -0.05120 0.33860 0.11618
 H627 H -0.09845 0.33477 0.15600
 C628 C -0.11264 0.66271 -0.07658
 C629 C -0.09444 0.68896 -0.08724
 C630 C -0.11351 0.69061 -0.11471
 C631 C -0.13190 0.66477 -0.10424
 C632 C -0.09194 0.64222 -0.09306
 C633 C -0.11102 0.64387 -0.12053
 C634 C -0.07354 0.66805 -0.10353
 C635 C -0.09281 0.67013 -0.13118
 C636 C -0.12560 0.71750 -0.12683
 C637 C -0.13564 0.73956 -0.13686
 C638 C -0.07996 0.61525 -0.08101
 C639 C -0.07009 0.59309 -0.07108
 H640 H -0.12066 0.65935 -0.05400
 H641 H -0.08775 0.70781 -0.07369
 H642 H -0.15603 0.66373 -0.10467
 H643 H -0.11770 0.62503 -0.13408
 H644 H -0.04941 0.66909 -0.10310
 H645 H -0.08478 0.67348 -0.15377
 C646 C 0.09800 0.66952 0.07395
 C647 C 0.08363 0.68786 0.09839
 C648 C 0.11334 0.69023 0.11356
 C649 C 0.12789 0.67232 0.08931
 C650 C 0.09196 0.64190 0.09177
 C651 C 0.12166 0.64427 0.10694
 C652 C 0.07740 0.65981 0.11601
 C653 C 0.10730 0.66260 0.13137
 C654 C 0.12533 0.71708 0.12577
 C655 C 0.13528 0.73910 0.13587
 C656 C 0.08005 0.61496 0.07967
 C657 C 0.07022 0.59282 0.06972
 H658 H 0.09404 0.67206 0.05020
 H659 H 0.06813 0.70609 0.09501
 H660 H 0.14879 0.67776 0.07847
 H661 H 0.13717 0.62604 0.11032
 H662 H 0.05650 0.65437 0.12685
 H663 H 0.11125 0.66007 0.15512
 C664 C 0.33421 1.10742 0.92606
 C665 C 0.33253 1.13179 0.90280
 C666 C 0.30952 1.11404 0.88628
 C667 C 0.31078 1.08986 0.90936
 C668 C 0.35791 1.09231 0.90788
 C669 C 0.33490 1.07456 0.89137
 C670 C 0.35664 1.11649 0.88481
 C671 C 0.33322 1.09893 0.86811
 C672 C 0.28265 1.12621 0.87417
 C673 C 0.26061 1.13628 0.86410
 C674 C 0.38486 1.08023 0.91990
 C675 C 0.40701 1.07027 0.92982
 H676 H 0.33493 1.11077 0.95003
 H677 H 0.33125 1.15546 0.90736
 H678 H 0.29162 1.07904 0.91932
 H679 H 0.33619 1.05089 0.88681
 H680 H 0.37580 1.12731 0.87485
 H681 H 0.33251 1.09557 0.84415
 C682 C 0.35650 0.88335 1.11479
 C683 C 0.33349 0.90083 1.13222
 C684 C 0.30941 0.88662 1.11388
 C685 C 0.33201 0.86896 1.09664
 C686 C 0.35786 0.90814 1.09238
 C687 C 0.33378 0.89393 1.07404
 C688 C 0.33526 0.92581 1.10962
 C689 C 0.31076 0.91141 1.09147
 C690 C 0.28251 0.87455 1.12594
 C691 C 0.26045 0.86454 1.13595
 C692 C 0.38486 0.92010 1.08043
 C693 C 0.40705 0.92995 1.07056
 H694 H 0.37561 0.87195 1.12424
 H695 H 0.33305 0.90353 1.15627
 H696 H 0.33036 0.84544 1.09144
 H697 H 0.33421 0.89123 1.04999
 H698 H 0.33690 0.94932 1.11482
 H699 H 0.29165 0.92280 1.08203
 C700 C 0.66237 1.07573 1.11357
 C701 C 0.68883 1.08591 1.09530
 C702 C 0.69050 1.11355 1.11403
 C703 C 0.66446 1.10355 1.13248
 C704 C 0.64208 1.09200 1.09249
 C705 C 0.64376 1.11964 1.11122
 C706 C 0.66812 1.10199 1.07404
 C707 C 0.67022 1.12981 1.09295
 C708 C 0.71740 1.12562 1.12609
 C709 C 0.73945 1.13563 1.13610
 C710 C 0.61511 1.08002 1.08051
 C711 C 0.59294 1.07015 1.07062
 H712 H 0.65884 1.05335 1.12191
 H713 H 0.70767 1.07218 1.08889
 H714 H 0.66327 1.10433 1.15665
 H715 H 0.62493 1.13337 1.11763
 H716 H 0.66932 1.10120 1.04987
 H717 H 0.67376 1.15219 1.08461
 C718 C 0.66595 0.89267 0.92616
 C719 C 0.66764 0.86826 0.90294
 C720 C 0.69062 0.88600 0.88638
 C721 C 0.68936 0.91023 0.90942
 C722 C 0.64223 0.90773 0.90798
 C723 C 0.66522 0.92547 0.89142
 C724 C 0.64351 0.88351 0.88494
 C725 C 0.66690 0.90107 0.86820
 C726 C 0.71750 0.87385 0.87426
 C727 C 0.73954 0.86379 0.86418
 C728 C 0.61527 0.91981 0.91999
 C729 C 0.59312 0.92975 0.92990
 H730 H 0.66525 0.88936 0.95013
 H731 H 0.66895 0.84460 0.90754
 H732 H 0.70851 0.92107 0.91934
 H733 H 0.66391 0.94914 0.88682
 H734 H 0.62435 0.87266 0.87501
 H735 H 0.66760 0.90438 0.84423
   
