data_POSCAR
  _audit_creation_date              2014-09-24
  _audit_creation_method            'ToBaCCo'
  _symmetry_space_group_name_H-M    'P1'
  _symmetry_Int_Tables_number       1
  _symmetry_cell_setting            triclinic
  loop_
  _symmetry_equiv_pos_as_xyz
 x,y,z
_cell_length_a 48.3427
_cell_length_b 27.0845
_cell_length_c 20.5377
_cell_angle_alpha 90.237400
_cell_angle_beta 90.012900
_cell_angle_gamma 89.301600
loop_
  _atom_site_label
  _atom_site_type_symbol
  _atom_site_fract_x
  _atom_site_fract_y
  _atom_site_fract_z
C1 C 0.67806 0.29970 0.49344
 C2 C 0.69309 0.29932 0.55215
 C3 C 0.72027 0.28039 0.55169
 C4 C 0.73161 0.25757 0.49560
 C5 C 0.71560 0.25732 0.43798
 C6 C 0.68922 0.27917 0.43636
 C7 C 0.75994 0.23421 0.49741
 C8 C 0.77577 0.22915 0.44000
 C9 C 0.80238 0.20784 0.44076
 C10 C 0.81367 0.19281 0.50080
 C11 C 0.79864 0.19823 0.55881
 C12 C 0.77155 0.21712 0.55648
 H13 H 0.65816 0.31815 0.49056
 H14 H 0.73232 0.28280 0.59594
 H15 H 0.72317 0.23958 0.39411
 H16 H 0.76786 0.24299 0.39424
 H17 H 0.83361 0.17448 0.50295
 H18 H 0.75982 0.21858 0.60128
 C19 C 0.18983 0.84358 0.50050
 C20 C 0.20370 0.83986 0.56065
 C21 C 0.23202 0.82682 0.56048
 C22 C 0.24574 0.81225 0.50241
 C23 C 0.23079 0.81509 0.44349
 C24 C 0.20327 0.83148 0.44205
 C25 C 0.27456 0.79032 0.50330
 C26 C 0.29076 0.78759 0.44587
 C27 C 0.31508 0.75898 0.44375
 C28 C 0.32463 0.73585 0.50021
 C29 C 0.31034 0.74117 0.55937
 C30 C 0.28532 0.76809 0.56032
 H31 H 0.16896 0.85814 0.49822
 H32 H 0.24296 0.82675 0.60639
 H33 H 0.23995 0.80318 0.39802
 H34 H 0.28433 0.80615 0.40182
 H35 H 0.34418 0.71600 0.49794
 H36 H 0.27372 0.76896 0.60527
 C37 C 0.31690 0.28491 -0.49822
 C38 C 0.30522 0.27157 -0.55815
 C39 C 0.28368 0.23749 -0.55984
 C40 C 0.27421 0.21511 -0.50232
 C41 C 0.28744 0.22688 -0.44304
 C42 C 0.30811 0.26264 -0.44052
 C43 C 0.25024 0.18067 -0.50368
 C44 C 0.23246 0.17775 -0.44942
 C45 C 0.20991 0.14564 -0.44904
 C46 C 0.20370 0.11927 -0.50619
 C47 C 0.22004 0.12397 -0.56203
 C48 C 0.24395 0.15258 -0.55976
 H49 H 0.33402 0.31034 -0.49678
 H50 H 0.27420 0.22935 -0.60631
 H51 H 0.28169 0.20860 -0.39837
 H52 H 0.23609 0.20054 -0.40690
 H53 H 0.18513 0.09745 -0.50950
 H54 H 0.25676 0.15438 -0.60284
 C55 C -0.19359 0.83087 -0.49292
 C56 C -0.20214 0.81166 -0.55324
 C57 C -0.22408 0.77802 -0.55438
 C58 C -0.23927 0.76703 -0.49740
 C59 C -0.22987 0.78661 -0.43769
 C60 C -0.20679 0.81727 -0.43509
 C61 C -0.26512 0.73664 -0.50077
 C62 C -0.27582 0.71246 -0.44516
 C63 C -0.30127 0.68808 -0.44794
 C64 C -0.31461 0.68287 -0.50802
 C65 C -0.30423 0.70538 -0.56380
 C66 C -0.28035 0.73381 -0.55948
 H67 H -0.17523 0.85319 -0.48990
 H68 H -0.22954 0.76128 -0.60045
 H69 H -0.24042 0.77894 -0.39257
 H70 H -0.26521 0.71369 -0.39890
 H71 H -0.33382 0.66274 -0.51091
 H72 H -0.27399 0.75364 -0.60241
 O73 O -0.04755 0.93654 0.12350
 O74 O -0.07236 0.99235 0.06217
 C75 C -0.07034 0.95933 0.10763
 O76 O 0.04855 1.08081 0.10992
 O77 O 0.07313 1.01913 0.05824
 C78 C 0.07136 1.05741 0.09636
 O79 O -0.02704 1.10495 0.11945
 O80 O -0.06276 1.07240 0.06022
 C81 C -0.05297 1.10156 0.10472
 O82 O 0.02743 0.90217 0.11791
 O83 O 0.06309 0.93544 0.05925
 C84 C 0.05338 0.90552 0.10267
 Zr85 Zr -0.00713 0.94382 0.08541
 O86 O -0.00506 0.94120 0.18825
 O87 O -0.01752 0.86843 0.07817
 Zr88 Zr 0.00748 1.06527 0.08369
 O89 O 0.01073 1.06165 0.18648
 O90 O 0.01341 1.14240 0.08842
 O91 O -0.02396 1.01456 0.09747
 O92 O 0.02378 0.99533 0.09695
 O93 O 0.02750 0.90025 -0.11044
 O94 O 0.06304 0.93441 -0.05200
 C95 C 0.05351 0.90436 -0.09577
 O96 O -0.02745 1.10012 -0.11932
 O97 O -0.06291 1.07015 -0.05713
 C98 C -0.05337 1.09724 -0.10386
 O99 O 0.04863 1.07374 -0.11301
 O100 O 0.07292 1.01677 -0.05276
 C101 C 0.07131 1.05083 -0.09656
 O102 O -0.04797 0.93385 -0.11483
 O103 O -0.07245 0.99110 -0.05459
 C104 C -0.07063 0.95742 -0.09935
 Zr105 Zr -0.00733 0.94163 -0.07744
 O106 O -0.00525 0.93679 -0.18022
 O107 O -0.01885 0.86657 -0.07158
 Zr108 Zr 0.00752 1.06356 -0.07997
 O109 O 0.01065 1.06343 -0.18274
 O110 O 0.01360 1.14090 -0.07791
 Zr111 Zr -0.04052 1.02042 0.00277
 Zr112 Zr 0.04072 0.98744 0.00312
 O113 O 0.02340 0.99299 -0.09080
 O114 O -0.02393 1.01219 -0.09176
 O115 O 0.01616 0.92365 0.00423
 O116 O -0.01517 1.08300 0.00153
 O117 O -0.03221 0.94397 0.00413
 O118 O 0.03288 1.06424 0.00172
 H119 H 0.03604 0.99127 0.13528
 H120 H -0.02408 1.11614 0.00075
 H121 H 0.03513 0.98787 -0.12984
 H122 H -0.04798 0.92092 0.00456
 H123 H 0.02436 1.15142 0.04977
 H124 H 0.03223 1.14694 -0.05980
 H125 H -0.00526 1.04481 -0.19982
 H126 H -0.01648 0.96435 -0.19800
 H127 H -0.00478 0.84935 -0.04469
 H128 H -0.01892 0.85624 0.12345
 H129 H -0.01487 0.97090 0.20492
 H130 H -0.00781 1.05425 0.20403
 O131 O 0.45595 0.42405 0.12642
 O132 O 0.42699 0.47237 0.06418
 C133 C 0.43168 0.44160 0.11109
 O134 O 0.54171 0.58396 0.10498
 O135 O 0.56881 0.52905 0.04712
 C136 C 0.56553 0.56515 0.08807
 O137 O 0.46390 0.59377 0.11599
 O138 O 0.43088 0.55172 0.05844
 C139 C 0.43834 0.58369 0.10184
 O140 O 0.53266 0.40443 0.11466
 O141 O 0.56477 0.44396 0.05184
 C142 C 0.55791 0.41237 0.09632
 Zr143 Zr 0.49518 0.43794 0.08455
 O144 O 0.49905 0.43689 0.18712
 O145 O 0.48987 0.36066 0.08083
 Zr146 Zr 0.50122 0.56258 0.07781
 O147 O 0.50574 0.56632 0.18019
 O148 O 0.50185 0.64058 0.07157
 O149 O 0.47404 0.50503 0.09585
 O150 O 0.52220 0.49634 0.09144
 O151 O 0.52935 0.39642 -0.10978
 O152 O 0.56326 0.44099 -0.05881
 C153 C 0.55501 0.40627 -0.09778
 O154 O 0.46044 0.58453 -0.12223
 O155 O 0.42908 0.54659 -0.05560
 C156 C 0.43534 0.57507 -0.10364
 O157 O 0.53829 0.57614 -0.12159
 O158 O 0.56753 0.52581 -0.06301
 C159 C 0.56278 0.55942 -0.10662
 O160 O 0.45255 0.41487 -0.11137
 O161 O 0.42528 0.46766 -0.05079
 C162 C 0.42872 0.43348 -0.09454
 Zr163 Zr 0.49279 0.43249 -0.07874
 O164 O 0.49435 0.42798 -0.18155
 O165 O 0.48632 0.35548 -0.07300
 Zr166 Zr 0.49880 0.55700 -0.08604
 O167 O 0.50050 0.55511 -0.18896
 O168 O 0.49927 0.63515 -0.08750
 Zr169 Zr 0.45618 0.50468 0.00224
 Zr170 Zr 0.53818 0.49014 -0.00377
 O171 O 0.51946 0.49006 -0.09630
 O172 O 0.47130 0.49855 -0.09369
 O173 O 0.51832 0.42146 0.00173
 O174 O 0.47635 0.57290 -0.00303
 O175 O 0.46938 0.43055 0.00529
 O176 O 0.52522 0.56484 -0.00650
 H177 H 0.53498 0.49521 0.12918
 H178 H 0.46495 0.60354 -0.00403
 H179 H 0.53123 0.48650 -0.13554
 H180 H 0.45526 0.40442 0.00798
 H181 H 0.51819 0.64960 0.04540
 H182 H 0.51666 0.64579 -0.06664
 H183 H 0.48530 0.53381 -0.20405
 H184 H 0.47991 0.45058 -0.19877
 H185 H 0.49976 0.34201 -0.04116
 H186 H 0.48941 0.34936 0.12665
 H187 H 0.48941 0.46673 0.20372
 H188 H 0.48944 0.55034 0.19969
 C189 C 0.31725 0.28902 0.38031
 C190 C 0.32849 0.33581 0.37412
 C191 C 0.34727 0.34768 0.32054
 N192 N 0.35226 0.39544 0.30545
 N193 N 0.37094 0.40657 0.26032
 C194 C 0.38558 0.37031 0.22945
 N195 N 0.38068 0.32257 0.24475
 N196 N 0.36175 0.31143 0.28926
 C197 C 0.40766 0.38228 0.18348
 C198 C 0.40791 0.42691 0.15038
 H199 H 0.32456 0.36361 0.41115
 H200 H 0.42409 0.35536 0.17542
 H201 H 0.31838 0.26343 0.33965
 H202 H 0.39017 0.45169 0.15309
 C203 C -0.18854 0.82365 0.38833
 C204 C -0.17270 0.86617 0.38084
 C205 C -0.15574 0.87531 0.32286
 N206 N -0.14884 0.92223 0.30733
 N207 N -0.13146 0.93103 0.25851
 C208 C -0.12004 0.89313 0.22394
 N209 N -0.12693 0.84617 0.23945
 N210 N -0.14461 0.83739 0.28775
 C211 C -0.09843 0.90213 0.17517
 C212 C -0.09540 0.94773 0.14487
 H213 H -0.17334 0.89497 0.41751
 H214 H -0.08386 0.87246 0.16452
 H215 H -0.19164 0.80044 0.34586
 H216 H -0.11139 0.97585 0.14985
 C217 C 0.68063 0.70122 0.37421
 C218 C 0.67148 0.65551 0.35253
 C219 C 0.65233 0.64981 0.29770
 N220 N 0.64976 0.60497 0.26896
 N221 N 0.63077 0.59772 0.22311
 C222 C 0.61341 0.63491 0.20479
 N223 N 0.61594 0.67983 0.23357
 N224 N 0.63518 0.68725 0.27901
 C225 C 0.59062 0.62546 0.15921
 C226 C 0.59059 0.58340 0.12002
 H227 H 0.67820 0.62246 0.37787
 H228 H 0.57285 0.65023 0.15965
 H229 H 0.67691 0.73402 0.34538
 H230 H 0.60922 0.56093 0.11623
 C231 C 0.20969 1.10463 0.37542
 C232 C 0.18414 1.12180 0.35323
 C233 C 0.16991 1.10405 0.29469
 N234 N 0.14844 1.13119 0.27142
 N235 N 0.13310 1.11446 0.22263
 C236 C 0.13840 1.06964 0.19525
 N237 N 0.16015 1.04246 0.21805
 N238 N 0.17571 1.05944 0.26689
 C239 C 0.11915 1.04945 0.14620
 C240 C 0.09614 1.07748 0.12731
 H241 H 0.17366 1.15061 0.38097
 H242 H 0.12132 1.01134 0.13072
 H243 H 0.22238 1.08005 0.34600
 H244 H 0.09424 1.11529 0.14433
 C245 C 0.68174 0.31721 -0.38899
 C246 C 0.65332 0.32364 -0.37918
 C247 C 0.64116 0.33982 -0.31717
 N248 N 0.61409 0.33082 -0.30610
 N249 N 0.60197 0.34641 -0.25162
 C250 C 0.61635 0.37192 -0.20607
 N251 N 0.64350 0.38118 -0.21712
 N252 N 0.65578 0.36512 -0.27162
 C253 C 0.60190 0.39231 -0.14857
 C254 C 0.57526 0.37659 -0.13429
 H255 H 0.63875 0.31213 -0.41596
 H256 H 0.61083 0.42302 -0.12234
 H257 H 0.69530 0.32243 -0.34753
 H258 H 0.56721 0.34494 -0.16018
 C259 C 0.19001 0.84838 -0.37945
 C260 C 0.16116 0.84766 -0.37261
 C261 C 0.14659 0.85563 -0.31040
 N262 N 0.11947 0.84381 -0.30614
 N263 N 0.10523 0.85266 -0.25179
 C264 C 0.11752 0.87389 -0.19943
 N265 N 0.14472 0.88568 -0.20354
 N266 N 0.15906 0.87650 -0.25793
 C267 C 0.10104 0.88834 -0.14172
 C268 C 0.07319 0.87572 -0.13608
 H269 H 0.14823 0.83761 -0.41338
 H270 H 0.11008 0.91380 -0.10715
 H271 H 0.20232 0.85175 -0.33556
 H272 H 0.06454 0.84970 -0.17045
 C273 C 0.32110 0.72175 -0.38244
 C274 C 0.34050 0.68322 -0.38106
 C275 C 0.35693 0.67173 -0.32317
 N276 N 0.36472 0.62439 -0.31138
 N277 N 0.38214 0.61386 -0.26308
 C278 C 0.39288 0.65042 -0.22579
 N279 N 0.38528 0.69790 -0.23786
 N280 N 0.36744 0.70836 -0.28550
 C281 C 0.41375 0.63871 -0.17629
 C282 C 0.41220 0.59501 -0.14153
 H283 H 0.34376 0.66006 -0.42353
 H284 H 0.43076 0.66373 -0.16844
 H285 H 0.31368 0.73650 -0.33639
 H286 H 0.39350 0.57339 -0.14407
 C287 C -0.18893 1.18348 -0.37805
 C288 C -0.16083 1.19039 -0.36578
 C289 C -0.14643 1.17332 -0.30676
 N290 N -0.11954 1.18531 -0.29831
 N291 N -0.10528 1.16820 -0.24764
 C292 C -0.11729 1.13823 -0.20331
 N293 N -0.14432 1.12640 -0.21143
 N294 N -0.15868 1.14369 -0.26221
 C295 C -0.10074 1.11628 -0.15005
 C296 C -0.07260 1.12631 -0.14425
 H297 H -0.14846 1.20925 -0.40168
 H298 H -0.11015 1.08906 -0.11883
 H299 H -0.20214 1.16926 -0.34007
 H300 H -0.06343 1.15301 -0.17663
 C301 C 0.68463 0.67174 -0.38783
 C302 C 0.65659 0.68313 -0.37968
 C303 C 0.63916 0.66754 -0.32504
 N304 N 0.64706 0.63183 -0.28221
 N305 N 0.62949 0.61637 -0.23651
 C306 C 0.60354 0.63622 -0.23220
 N307 N 0.59595 0.67200 -0.27469
 N308 N 0.61335 0.68722 -0.32023
 C309 C 0.58272 0.61863 -0.18582
 C310 C 0.58651 0.57912 -0.14320
 H311 H 0.64643 0.70563 -0.41633
 H312 H 0.56256 0.63645 -0.18839
 H313 H 0.69633 0.65440 -0.34903
 H314 H 0.60665 0.56159 -0.13834
 C315 C 0.19339 1.14284 -0.39296
 C316 C 0.17562 1.10380 -0.38047
 C317 C 0.15715 1.10392 -0.32398
 N318 N 0.14919 1.06050 -0.29782
 N319 N 0.13130 1.05985 -0.24863
 C320 C 0.12044 1.10259 -0.22438
 N321 N 0.12824 1.14606 -0.25086
 N322 N 0.14647 1.14675 -0.29952
 C323 C 0.09891 1.10145 -0.17414
 C324 C 0.09666 1.06116 -0.13285
 H325 H 0.17632 1.07068 -0.41011
 H326 H 0.08376 1.13122 -0.17217
 H327 H 0.19563 1.17086 -0.35549
 H328 H 0.11328 1.03400 -0.13098
 C329 C 0.32171 0.27430 -0.37806
 C330 C 0.32901 0.32244 -0.36183
 C331 C 0.34659 0.33391 -0.30554
 N332 N 0.34846 0.38118 -0.28399
 N333 N 0.36605 0.39285 -0.23655
 C334 C 0.38261 0.35770 -0.20938
 N335 N 0.38070 0.31042 -0.23086
 N336 N 0.36292 0.29866 -0.27784
 C337 C 0.40423 0.37094 -0.16234
 C338 C 0.40404 0.41583 -0.12896
 H339 H 0.32218 0.35270 -0.39245
 H340 H 0.42145 0.34542 -0.15603
 H341 H 0.32570 0.24463 -0.34399
 H342 H 0.38583 0.43952 -0.13036
 C343 C -0.19484 0.83071 -0.37137
 C344 C -0.18126 0.87512 -0.36118
 C345 C -0.16213 0.88209 -0.30650
 N346 N -0.15429 0.92824 -0.28925
 N347 N -0.13499 0.93483 -0.24385
 C348 C -0.12254 0.89547 -0.21475
 N349 N -0.13033 0.84931 -0.23210
 N350 N -0.14988 0.84273 -0.27694
 C351 C -0.09951 0.90238 -0.16913
 C352 C -0.09590 0.94675 -0.13606
 H353 H -0.18336 0.90456 -0.39643
 H354 H -0.08483 0.87228 -0.16236
 H355 H -0.19542 0.80370 -0.33262
 H356 H -0.11199 0.97493 -0.13777
 C357 C 0.33059 0.75174 0.38248
 C358 C 0.33774 0.70403 0.36254
 C359 C 0.35742 0.69260 0.31004
 N360 N 0.35734 0.64697 0.28274
 N361 N 0.37660 0.63365 0.23967
 C362 C 0.39698 0.66521 0.22288
 N363 N 0.39715 0.71094 0.25029
 N364 N 0.37763 0.72450 0.29297
 C365 C 0.41935 0.64884 0.17877
 C366 C 0.41582 0.60797 0.13835
 H367 H 0.32896 0.67306 0.38827
 H368 H 0.43884 0.66812 0.17934
 H369 H 0.33634 0.78337 0.35360
 H370 H 0.39551 0.59170 0.13457
 C371 C -0.18355 1.20078 0.38134
 C372 C -0.15533 1.18980 0.37684
 C373 C -0.14175 1.17611 0.31543
 N374 N -0.11383 1.17783 0.31176
 N375 N -0.10071 1.16259 0.25837
 C376 C -0.11495 1.14460 0.20662
 N377 N -0.14296 1.14268 0.21023
 N378 N -0.15616 1.15839 0.26365
 C379 C -0.09992 1.12416 0.15005
 C380 C -0.07171 1.13257 0.14370
 H381 H -0.14208 1.19283 0.41902
 H382 H -0.11033 1.09904 0.11731
 H383 H -0.19502 1.20521 0.33630
 H384 H -0.06203 1.15897 0.17601
 C385 C 0.67377 0.28275 0.37427
 C386 C 0.64510 0.27801 0.37254
 C387 C 0.62791 0.29255 0.31658
 N388 N 0.63779 0.32125 0.26783
 N389 N 0.62090 0.33826 0.22138
 C390 C 0.59357 0.32701 0.22206
 N391 N 0.58391 0.29775 0.27019
 N392 N 0.60071 0.28104 0.31667
 C393 C 0.57373 0.34825 0.17533
 C394 C 0.58015 0.38495 0.13038
 H395 H 0.63448 0.26518 0.41562
 H396 H 0.55240 0.33709 0.18056
 H397 H 0.68502 0.29025 0.32987
 H398 H 0.60142 0.39582 0.12332
 C399 C 0.18917 0.83710 0.37850
 C400 C 0.16080 0.83056 0.37104
 C401 C 0.14617 0.84164 0.30998
 N402 N 0.11914 0.82970 0.30401
 N403 N 0.10493 0.84222 0.25095
 C404 C 0.11716 0.86732 0.20184
 N405 N 0.14427 0.87907 0.20760
 N406 N 0.15855 0.86632 0.26064
 C407 C 0.10072 0.88570 0.14638
 C408 C 0.07267 0.87504 0.14096
 H409 H 0.14869 0.81722 0.41155
 H410 H 0.10997 0.91226 0.11392
 H411 H 0.20161 0.84561 0.33622
 H412 H 0.06369 0.84831 0.17360
   
