data_POSCAR
  _audit_creation_date              2014-09-24
  _audit_creation_method            'ToBaCCo'
  _symmetry_space_group_name_H-M    'P1'
  _symmetry_Int_Tables_number       1
  _symmetry_cell_setting            triclinic
  loop_
  _symmetry_equiv_pos_as_xyz
 x,y,z
_cell_length_a 45.4899
_cell_length_b 44.8475
_cell_length_c 38.1404
_cell_angle_alpha 90.070900
_cell_angle_beta 89.897900
_cell_angle_gamma 89.630100
loop_
  _atom_site_label
  _atom_site_type_symbol
  _atom_site_fract_x
  _atom_site_fract_y
  _atom_site_fract_z
O1 O 0.03533 0.28217 -0.01507
 O2 O -0.01716 0.27617 0.05704
 O3 O 0.03685 0.26888 0.04895
 O4 O -0.02314 0.28789 -0.01302
 O5 O -0.02610 0.24053 -0.02860
 O6 O 0.02622 0.22141 0.04069
 O7 O -0.03108 0.23216 0.03770
 O8 O 0.02985 0.23436 -0.02680
 Cu9 Cu 0.00748 0.28385 0.01980
 Cu10 Cu -0.00072 0.22714 0.00498
 C11 C 0.04244 0.25915 -0.03256
 C12 C -0.03339 0.25340 0.05970
 C13 C 0.04097 0.24148 0.05610
 C14 C -0.03381 0.26748 -0.03232
 O15 O 0.52564 0.78769 0.46289
 O16 O 0.47325 0.78585 0.53706
 O17 O 0.53013 0.78407 0.53065
 O18 O 0.46802 0.79085 0.46944
 O19 O 0.46563 0.74188 0.46511
 O20 O 0.52713 0.73495 0.52733
 O21 O 0.47096 0.73674 0.53243
 O22 O 0.52282 0.73864 0.45856
 Cu23 Cu 0.49951 0.79207 0.50017
 Cu24 Cu 0.49661 0.73312 0.49510
 C25 C 0.53315 0.76334 0.44828
 C26 C 0.46346 0.76088 0.54741
 C27 C 0.53863 0.75831 0.54006
 C28 C 0.45586 0.76762 0.45728
 O29 O 1.02885 0.68954 0.02558
 O30 O 0.96760 0.69363 -0.03636
 O31 O 1.02462 0.69203 -0.04158
 O32 O 0.97151 0.69248 0.03087
 O33 O 0.97277 0.74160 0.03263
 O34 O 1.02626 0.74111 -0.04041
 O35 O 0.96895 0.74279 -0.03520
 O36 O 1.03055 0.73857 0.02817
 Cu37 Cu 0.99803 0.68707 -0.00544
 Cu38 Cu 0.99993 0.74598 -0.00342
 C39 C 1.04061 0.71315 0.03720
 C40 C 0.95747 0.71871 -0.04611
 C41 C 1.03476 0.71638 -0.05339
 C42 C 0.96240 0.71706 0.04355
 O43 O 0.48389 0.22034 0.47482
 O44 O 0.54089 0.23637 0.54076
 O45 O 0.48570 0.22011 0.54249
 O46 O 0.53870 0.23687 0.47196
 O47 O 0.52427 0.28394 0.47312
 O48 O 0.47164 0.26731 0.54320
 O49 O 0.52595 0.28331 0.54242
 O50 O 0.46998 0.26758 0.47561
 Cu51 Cu 0.51396 0.22373 0.50744
 Cu52 Cu 0.49688 0.28037 0.50867
 C53 C 0.46704 0.24115 0.46418
 C54 C 0.54253 0.26248 0.55348
 C55 C 0.46931 0.24082 0.55450
 C56 C 0.53993 0.26324 0.45994
 O57 O 0.67393 0.04174 -0.02895
 O58 O 0.67541 -0.02374 0.02932
 O59 O 0.67504 0.03341 0.03906
 O60 O 0.67374 -0.01695 -0.03735
 O61 O 0.72222 -0.01822 -0.03774
 O62 O 0.72343 0.03590 0.03474
 O63 O 0.72382 -0.02200 0.03031
 O64 O 0.72228 0.04021 -0.03296
 Cu65 Cu 0.66962 0.00888 0.00037
 Cu66 Cu 0.72778 0.00900 -0.00176
 C67 C 0.69784 0.05227 -0.04082
 C68 C 0.69990 -0.03401 0.04008
 C69 C 0.69952 0.04340 0.04963
 C70 C 0.69775 -0.02730 -0.04950
 O71 O 0.17891 0.46059 0.53391
 O72 O 0.17272 0.51737 0.46457
 O73 O 0.17356 0.45797 0.46590
 O74 O 0.17833 0.51739 0.53249
 O75 O 0.22662 0.51817 0.52566
 O76 O 0.22173 0.45895 0.45931
 O77 O 0.22094 0.51719 0.45834
 O78 O 0.22720 0.46009 0.52700
 Cu79 Cu 0.17088 0.48826 0.49921
 Cu80 Cu 0.22892 0.48856 0.49177
 C81 C 0.20420 0.45106 0.54252
 C82 C 0.19584 0.52764 0.45037
 C83 C 0.19693 0.44785 0.45182
 C84 C 0.20339 0.52759 0.54061
 O85 O 0.31954 0.96036 -0.04379
 O86 O 0.33108 1.01450 0.02707
 O87 O 0.32306 0.95464 0.02691
 O88 O 0.32201 1.01434 -0.03982
 O89 O 0.27462 1.02075 -0.02932
 O90 O 0.27636 0.96399 0.03890
 O91 O 0.28299 1.01874 0.03475
 O92 O 0.27225 0.95966 -0.03105
 Cu93 Cu 0.32878 0.98463 -0.00672
 Cu94 Cu 0.27163 0.99012 0.00271
 C95 C 0.29384 0.95093 -0.04978
 C96 C 0.30905 1.02639 0.04226
 C97 C 0.29999 0.94992 0.04491
 C98 C 0.29777 1.02761 -0.04605
 O99 O 0.83366 0.54043 0.52845
 O100 O 0.83034 0.47787 0.46637
 O101 O 0.82869 0.53552 0.46064
 O102 O 0.83290 0.48170 0.53387
 O103 O 0.78446 0.48165 0.53690
 O104 O 0.78036 0.53732 0.46679
 O105 O 0.78185 0.47931 0.46856
 O106 O 0.78538 0.53978 0.53393
 Cu107 Cu 0.83630 0.50893 0.49716
 Cu108 Cu 0.77818 0.50943 0.50207
 C109 C 0.81013 0.55106 0.54149
 C110 C 0.80558 0.46805 0.45660
 C111 C 0.80369 0.54576 0.45168
 C112 C 0.80922 0.47196 0.54729
 C113 C 0.26097 0.18744 0.19247
 C114 C 0.23211 0.19183 0.18074
 C115 C 0.21366 0.21352 0.19543
 C116 C 0.22398 0.23147 0.22319
 C117 C 0.25277 0.22673 0.23635
 C118 C 0.27166 0.20534 0.22028
 C119 C 0.30078 0.20283 0.23220
 C120 C 0.31007 0.21822 0.26179
 C121 C 0.29079 0.23721 0.28022
 C122 C 0.26249 0.24296 0.26616
 C123 C 0.20620 0.25368 0.23847
 C124 C 0.21618 0.27038 0.26681
 C125 C 0.24378 0.26456 0.28204
 C126 C 0.25344 0.27990 0.31242
 C127 C 0.28076 0.27254 0.32709
 C128 C 0.29928 0.25102 0.31199
 H129 H 0.31671 0.18884 0.21889
 H130 H 0.33266 0.21521 0.26997
 H131 H 0.18436 0.25839 0.22863
 H132 H 0.20178 0.28766 0.27681
 H133 H 0.22344 0.17753 0.16031
 H134 H 0.28723 0.28305 0.35150
 C135 C 0.74852 0.71303 0.30965
 C136 C 0.72107 0.72267 0.32218
 C137 C 0.70623 0.74694 0.30718
 C138 C 0.71911 0.76226 0.27863
 C139 C 0.74667 0.75264 0.26534
 C140 C 0.76201 0.72889 0.28187
 C141 C 0.79060 0.72190 0.27037
 C142 C 0.80218 0.73500 0.24043
 C143 C 0.78574 0.75584 0.22103
 C144 C 0.75864 0.76626 0.23487
 C145 C 0.70540 0.78720 0.26331
 C146 C 0.71746 0.80096 0.23391
 C147 C 0.74321 0.78975 0.21797
 C148 C 0.75424 0.80151 0.18594
 C149 C 0.78029 0.78963 0.17170
 C150 C 0.79588 0.76668 0.18837
 H151 H 0.80430 0.70608 0.28427
 H152 H 0.82417 0.72851 0.23256
 H153 H 0.68521 0.79635 0.27400
 H154 H 0.70621 0.82042 0.22381
 H155 H 0.71030 0.71011 0.34276
 H156 H 0.78776 0.79735 0.14629
 C157 C 0.69964 0.28308 0.30009
 C158 C 0.71666 0.30611 0.31383
 C159 C 0.74535 0.31127 0.30216
 C160 C 0.75696 0.29320 0.27489
 C161 C 0.74096 0.26813 0.26293
 C162 C 0.71195 0.26329 0.27515
 C163 C 0.69591 0.23930 0.26154
 C164 C 0.70866 0.21953 0.23763
 C165 C 0.73813 0.22269 0.22693
 C166 C 0.75405 0.24793 0.23865
 C167 C 0.78361 0.30013 0.25835
 C168 C 0.79591 0.28100 0.23359
 C169 C 0.78277 0.25349 0.22558
 C170 C 0.79691 0.23189 0.20395
 C171 C 0.78132 0.20637 0.19428
 C172 C 0.75198 0.20194 0.20408
 H173 H 0.67334 0.23556 0.26935
 H174 H 0.69502 0.20183 0.22767
 H175 H 0.79496 0.32071 0.26399
 H176 H 0.81578 0.28829 0.22079
 H177 H 0.70748 0.31977 0.33468
 H178 H 0.79216 0.18951 0.17837
 C179 C 0.28484 0.73387 0.31505
 C180 C 0.26876 0.71047 0.32966
 C181 C 0.24415 0.69861 0.31275
 C182 C 0.23527 0.71038 0.27992
 C183 C 0.25150 0.73389 0.26454
 C184 C 0.27664 0.74532 0.28186
 C185 C 0.29332 0.76742 0.26512
 C186 C 0.28433 0.77962 0.23341
 C187 C 0.25847 0.77002 0.21690
 C188 C 0.24264 0.74601 0.23172
 C189 C 0.21083 0.69909 0.26184
 C190 C 0.20193 0.71123 0.23000
 C191 C 0.21781 0.73436 0.21402
 C192 C 0.20934 0.74647 0.18111
 C193 C 0.22439 0.77122 0.16788
 C194 C 0.24830 0.78357 0.18567
 H195 H 0.31365 0.77545 0.27622
 H196 H 0.29814 0.79649 0.22174
 H197 H 0.19820 0.68069 0.27202
 H198 H 0.18219 0.70238 0.21836
 H199 H 0.27500 0.70191 0.35519
 H200 H 0.21717 0.78126 0.14350
 C201 C 0.79509 0.25706 0.82497
 C202 C 0.77839 0.23434 0.84016
 C203 C 0.75112 0.22585 0.82637
 C204 C 0.74039 0.24022 0.79572
 C205 C 0.75685 0.26369 0.78039
 C206 C 0.78383 0.27263 0.79558
 C207 C 0.79859 0.29730 0.78137
 C208 C 0.78849 0.31130 0.75117
 C209 C 0.76306 0.30138 0.73404
 C210 C 0.74643 0.27816 0.74960
 C211 C 0.71403 0.23145 0.77949
 C212 C 0.70341 0.24622 0.74995
 C213 C 0.71925 0.26963 0.73466
 C214 C 0.70875 0.28460 0.70458
 C215 C 0.72611 0.30620 0.68844
 C216 C 0.75325 0.31468 0.70239
 H217 H 0.81804 0.30629 0.79362
 H218 H 0.80068 0.33030 0.74174
 H219 H 0.70139 0.21288 0.78919
 H220 H 0.68289 0.23873 0.73870
 H221 H 0.78696 0.22279 0.86296
 H222 H 0.71807 0.31687 0.66478
 C223 C 0.29424 0.72894 0.69008
 C224 C 0.27998 0.70511 0.67381
 C225 C 0.25111 0.69736 0.68258
 C226 C 0.23538 0.71529 0.70696
 C227 C 0.25002 0.73853 0.72504
 C228 C 0.27969 0.74513 0.71692
 C229 C 0.29398 0.76751 0.73605
 C230 C 0.27946 0.78305 0.76261
 C231 C 0.24945 0.77830 0.76971
 C232 C 0.23499 0.75501 0.75155
 C233 C 0.20526 0.71098 0.71334
 C234 C 0.19081 0.72659 0.73979
 C235 C 0.20578 0.74744 0.76054
 C236 C 0.19222 0.76090 0.79005
 C237 C 0.20554 0.78583 0.80531
 C238 C 0.23363 0.79550 0.79503
 H239 H 0.31673 0.77296 0.73115
 H240 H 0.29239 0.79840 0.77790
 H241 H 0.19254 0.69543 0.69798
 H242 H 0.16768 0.72222 0.74389
 H243 H 0.29205 0.69178 0.65482
 H244 H 0.19411 0.79738 0.82621
 C245 C 0.24248 0.19112 0.80780
 C246 C 0.21409 0.19992 0.81845
 C247 C 0.20004 0.22501 0.80424
 C248 C 0.21289 0.23942 0.77510
 C249 C 0.24194 0.23194 0.76491
 C250 C 0.25742 0.20897 0.78271
 C251 C 0.28761 0.20531 0.77565
 C252 C 0.30104 0.22057 0.74833
 C253 C 0.28510 0.24092 0.72773
 C254 C 0.25580 0.24799 0.73741
 C255 C 0.19735 0.26102 0.75581
 C256 C 0.21073 0.27633 0.72845
 C257 C 0.24036 0.27106 0.71973
 C258 C 0.25487 0.28777 0.69337
 C259 C 0.28304 0.27886 0.68247
 C260 C 0.29800 0.25510 0.69845
 H261 H 0.30137 0.19093 0.79143
 H262 H 0.32424 0.21663 0.74388
 H263 H 0.17449 0.26593 0.76146
 H264 H 0.19742 0.29215 0.71401
 H265 H 0.20300 0.18769 0.83894
 H266 H 0.29353 0.29062 0.66108
 C267 C 0.75845 0.72418 0.67566
 C268 C 0.73147 0.73326 0.66151
 C269 C 0.71390 0.75469 0.67811
 C270 C 0.72424 0.76905 0.70861
 C271 C 0.75096 0.75947 0.72408
 C272 C 0.76801 0.73670 0.70780
 C273 C 0.79360 0.72649 0.72466
 C274 C 0.80222 0.73831 0.75671
 C275 C 0.78534 0.76043 0.77364
 C276 C 0.75999 0.77185 0.75664
 C277 C 0.70850 0.79270 0.72400
 C278 C 0.71834 0.80609 0.75473
 C279 C 0.74332 0.79517 0.77241
 C280 C 0.75229 0.80698 0.80522
 C281 C 0.77701 0.79484 0.82201
 C282 C 0.79310 0.77128 0.80723
 H283 H 0.80700 0.70879 0.71373
 H284 H 0.82238 0.72985 0.76807
 H285 H 0.68867 0.80136 0.71197
 H286 H 0.70586 0.82491 0.76454
 H287 H 0.72339 0.72252 0.63796
 H288 H 0.78295 0.80288 0.84786
 C289 C 0.30123 0.09783 0.09213
 C290 C 0.31086 0.08900 0.12474
 C291 C 0.32273 0.06079 0.13099
 C292 C 0.32413 0.04074 0.10266
 C293 C 0.31319 0.04910 0.06934
 C294 C 0.30198 0.07812 0.06388
 O295 O 0.28901 0.12474 0.09207
 C296 C 0.29060 0.13301 0.12539
 C297 C 0.30350 0.11188 0.14659
 C298 C 0.30416 0.11455 0.18293
 C299 C 0.29081 0.13989 0.19794
 C300 C 0.27801 0.16237 0.17651
 C301 C 0.27826 0.15881 0.13964
 H302 H 0.32973 0.05413 0.15694
 H303 H 0.33213 0.01825 0.10705
 H304 H 0.29274 0.08460 0.03884
 H305 H 0.31336 0.09711 0.19923
 H306 H 0.28959 0.14153 0.22623
 H307 H 0.26779 0.17499 0.12261
 C308 C 0.78699 0.61333 0.60219
 C309 C 0.81167 0.63089 0.60157
 C310 C 0.83710 0.62274 0.58356
 C311 C 0.83687 0.59566 0.56500
 C312 C 0.81133 0.57760 0.56442
 C313 C 0.78620 0.58652 0.58377
 O314 O 0.76485 0.62539 0.62001
 C315 C 0.77570 0.65121 0.63069
 C316 C 0.80421 0.65581 0.61999
 C317 C 0.81912 0.68222 0.62669
 C318 C 0.80401 0.70471 0.64521
 C319 C 0.77481 0.70013 0.65713
 C320 C 0.76053 0.67297 0.64960
 H321 H 0.85623 0.63697 0.58326
 H322 H 0.85623 0.58931 0.55013
 H323 H 0.76628 0.57341 0.58371
 H324 H 0.84134 0.68562 0.61739
 H325 H 0.81485 0.72573 0.65011
 H326 H 0.73808 0.66911 0.65782
 C327 C 0.72670 0.90579 0.09910
 C328 C 0.70127 0.88984 0.10356
 C329 C 0.67466 0.89846 0.08879
 C330 C 0.67424 0.92449 0.06839
 C331 C 0.70042 0.94097 0.06226
 C332 C 0.72703 0.93129 0.07814
 O333 O 0.74954 0.89404 0.11590
 C334 C 0.73830 0.87002 0.13106
 C335 C 0.70893 0.86624 0.12399
 C336 C 0.69318 0.84172 0.13577
 C337 C 0.70828 0.82037 0.15588
 C338 C 0.73826 0.82445 0.16499
 C339 C 0.75349 0.84955 0.15189
 H340 H 0.65487 0.88563 0.09287
 H341 H 0.65359 0.93126 0.05667
 H342 H 0.74742 0.94323 0.07447
 H343 H 0.67026 0.83882 0.12912
 H344 H 0.69668 0.80062 0.16431
 H345 H 0.77655 0.85290 0.15759
 C346 C 0.22292 0.38247 0.59455
 C347 C 0.21406 0.39135 0.62750
 C348 C 0.20108 0.41899 0.63403
 C349 C 0.19719 0.43828 0.60542
 C350 C 0.20696 0.42987 0.57152
 C351 C 0.22000 0.40161 0.56595
 O352 O 0.23456 0.35527 0.59396
 C353 C 0.23327 0.34689 0.62729
 C354 C 0.22122 0.36827 0.64895
 C355 C 0.21942 0.36480 0.68510
 C356 C 0.23048 0.33821 0.69947
 C357 C 0.24202 0.31528 0.67758
 C358 C 0.24345 0.31991 0.64088
 H359 H 0.19421 0.42546 0.66015
 H360 H 0.18727 0.46001 0.60971
 H361 H 0.22754 0.39480 0.54019
 H362 H 0.21055 0.38225 0.70173
 H363 H 0.23035 0.33559 0.72769
 H364 H 0.25264 0.30318 0.62348
 C365 C 0.90005 0.23607 0.11160
 C366 C 0.90767 0.24827 0.14339
 C367 C 0.93391 0.26330 0.14861
 C368 C 0.95307 0.26577 0.11991
 C369 C 0.94660 0.25163 0.08744
 C370 C 0.91977 0.23615 0.08353
 O371 O 0.87264 0.22612 0.11092
 C372 C 0.86299 0.23173 0.14315
 C373 C 0.88385 0.24440 0.16436
 C374 C 0.87873 0.25094 0.19948
 C375 C 0.85067 0.24488 0.21299
 C376 C 0.82771 0.23494 0.19068
 C377 C 0.83446 0.22742 0.15541
 H378 H 0.93901 0.27362 0.17352
 H379 H 0.97344 0.27781 0.12340
 H380 H 0.91368 0.22604 0.05880
 H381 H 0.89582 0.26000 0.21600
 H382 H 0.84658 0.24885 0.24058
 H383 H 0.81780 0.21927 0.13764
 C384 C 0.39398 0.75829 0.60036
 C385 C 0.40492 0.75003 0.63260
 C386 C 0.43487 0.74642 0.63888
 C387 C 0.45423 0.75117 0.61070
 C388 C 0.44332 0.75948 0.57734
 C389 C 0.41285 0.76336 0.57214
 O390 O 0.36484 0.75887 0.59928
 C391 C 0.35718 0.75078 0.63146
 C392 C 0.38083 0.74512 0.65294
 C393 C 0.37766 0.73486 0.68719
 C394 C 0.34897 0.73018 0.69970
 C395 C 0.32434 0.73600 0.67798
 C396 C 0.32857 0.74643 0.64341
 H397 H 0.44299 0.73949 0.66427
 H398 H 0.47759 0.74775 0.61454
 H399 H 0.40409 0.76895 0.54657
 H400 H 0.39659 0.73007 0.70344
 H401 H 0.34584 0.72160 0.72596
 H402 H 0.31008 0.75035 0.62612
 C403 C 0.10327 0.73293 0.09529
 C404 C 0.11607 0.70530 0.09937
 C405 C 0.10441 0.67957 0.08490
 C406 C 0.07864 0.68240 0.06506
 C407 C 0.06527 0.71081 0.05927
 C408 C 0.07791 0.73644 0.07499
 O409 O 0.11775 0.75443 0.11175
 C410 C 0.14024 0.74003 0.12629
 C411 C 0.14038 0.70997 0.11919
 C412 C 0.16255 0.69084 0.13059
 C413 C 0.18538 0.70316 0.15049
 C414 C 0.18512 0.73386 0.15960
 C415 C 0.16236 0.75261 0.14679
 H416 H 0.11481 0.65804 0.08870
 H417 H 0.06961 0.66238 0.05351
 H418 H 0.06845 0.75845 0.07149
 H419 H 0.16248 0.66736 0.12403
 H420 H 0.20320 0.68880 0.15906
 H421 H 0.16187 0.77622 0.15272
 C422 C 0.60985 0.26169 0.61129
 C423 C 0.60035 0.27983 0.63820
 C424 C 0.57274 0.29332 0.63853
 C425 C 0.55409 0.28776 0.61004
 C426 C 0.56308 0.26859 0.58237
 C427 C 0.59133 0.25522 0.58312
 O428 O 0.63755 0.25270 0.61501
 C429 C 0.64564 0.26532 0.64498
 C430 C 0.62354 0.28188 0.66041
 C431 C 0.62739 0.29763 0.69148
 C432 C 0.65534 0.29679 0.70694
 C433 C 0.67866 0.28068 0.69096
 C434 C 0.67373 0.26446 0.65974
 H435 H 0.56595 0.30790 0.65972
 H436 H 0.53246 0.29801 0.60975
 H437 H 0.59885 0.24084 0.56207
 H438 H 0.60972 0.31064 0.70297
 H439 H 0.65924 0.30962 0.73053
 H440 H 0.69146 0.25258 0.64676
 C441 C 0.72229 0.11518 0.90015
 C442 C 0.69777 0.13328 0.90092
 C443 C 0.67221 0.12554 0.91872
 C444 C 0.67206 0.09823 0.93678
 C445 C 0.69736 0.07949 0.93717
 C446 C 0.72273 0.08812 0.91821
 O447 O 0.74448 0.12683 0.88226
 C448 C 0.73382 0.15293 0.87167
 C449 C 0.70539 0.15809 0.88256
 C450 C 0.69061 0.18476 0.87592
 C451 C 0.70573 0.20693 0.85725
 C452 C 0.73480 0.20184 0.84490
 C453 C 0.74900 0.17441 0.85249
 H454 H 0.65320 0.14017 0.91908
 H455 H 0.65253 0.09215 0.95131
 H456 H 0.74245 0.07447 0.91806
 H457 H 0.66847 0.18861 0.88539
 H458 H 0.69495 0.22817 0.85262
 H459 H 0.77138 0.17010 0.84409
 C460 C 0.21783 0.58834 0.38752
 C461 C 0.19230 0.60490 0.38605
 C462 C 0.16662 0.59631 0.40304
 C463 C 0.16749 0.56991 0.42287
 C464 C 0.19387 0.55295 0.42564
 C465 C 0.21921 0.56218 0.40710
 O466 O 0.24011 0.60082 0.37071
 C467 C 0.22850 0.62592 0.35850
 C468 C 0.19934 0.62962 0.36725
 C469 C 0.18349 0.65529 0.35889
 C470 C 0.19830 0.67794 0.34070
 C471 C 0.22819 0.67425 0.33074
 C472 C 0.24346 0.64789 0.34002
 H473 H 0.14683 0.60978 0.40174
 H474 H 0.14796 0.56334 0.43709
 H475 H 0.23978 0.55000 0.40887
 H476 H 0.16076 0.65804 0.36672
 H477 H 0.18668 0.69842 0.33457
 H478 H 0.26647 0.64485 0.33348
 C479 C 0.26426 0.89002 0.89534
 C480 C 0.27902 0.89531 0.86450
 C481 C 0.30004 0.91749 0.86117
 C482 C 0.30588 0.93504 0.89080
 C483 C 0.28921 0.93160 0.92209
 C484 C 0.26782 0.90887 0.92415
 O485 O 0.24770 0.86578 0.89413
 C486 C 0.25164 0.85598 0.86158
 C487 C 0.26979 0.87383 0.84204
 C488 C 0.27509 0.86894 0.80662
 C489 C 0.26163 0.84421 0.79097
 C490 C 0.24557 0.82334 0.81139
 C491 C 0.24004 0.82998 0.84726
 H492 H 0.31207 0.92062 0.83696
 H493 H 0.32237 0.95228 0.88878
 H494 H 0.25541 0.90505 0.94798
 H495 H 0.28842 0.88406 0.79137
 H496 H 0.26428 0.84103 0.76300
 H497 H 0.22758 0.81518 0.86391
 C498 C 0.77902 0.41345 0.38840
 C499 C 0.80252 0.39401 0.38717
 C500 C 0.82775 0.39794 0.40710
 C501 C 0.82877 0.42288 0.42929
 C502 C 0.80455 0.44291 0.43167
 C503 C 0.77935 0.43811 0.41075
 O504 O 0.75690 0.40525 0.36798
 C505 C 0.76655 0.37997 0.35380
 C506 C 0.79425 0.37200 0.36485
 C507 C 0.80765 0.34524 0.35536
 C508 C 0.79170 0.32574 0.33392
 C509 C 0.76323 0.33360 0.32156
 C510 C 0.75069 0.36136 0.33156
 H511 H 0.84589 0.38224 0.40583
 H512 H 0.84814 0.42615 0.44529
 H513 H 0.76052 0.45298 0.41202
 H514 H 0.82915 0.33908 0.36519
 H515 H 0.80115 0.30412 0.32784
 H516 H 0.72880 0.36780 0.32330
 C517 C 0.09758 0.24002 0.89614
 C518 C 0.11055 0.26735 0.89153
 C519 C 0.10215 0.29259 0.91021
 C520 C 0.07945 0.28959 0.93478
 C521 C 0.06573 0.26161 0.94045
 C522 C 0.07490 0.23648 0.92055
 O523 O 0.10984 0.21867 0.87671
 C524 C 0.13105 0.23287 0.85963
 C525 C 0.13235 0.26269 0.86785
 C526 C 0.15396 0.28143 0.85492
 C527 C 0.17542 0.26887 0.83296
 C528 C 0.17466 0.23817 0.82373
 C529 C 0.15188 0.21998 0.83717
 H530 H 0.11292 0.31378 0.90631
 H531 H 0.07285 0.30909 0.94966
 H532 H 0.06511 0.21479 0.92436
 H533 H 0.15491 0.30467 0.86250
 H534 H 0.19329 0.28285 0.82416
 H535 H 0.15102 0.19638 0.83135
 C536 C 0.60379 0.76678 0.39722
 C537 C 0.59393 0.75970 0.36414
 C538 C 0.56446 0.75424 0.35689
 C539 C 0.54441 0.75599 0.38489
 C540 C 0.55408 0.76353 0.41901
 C541 C 0.58412 0.76927 0.42524
 O542 O 0.63283 0.76907 0.39905
 C543 C 0.64152 0.76338 0.36645
 C544 C 0.61856 0.75771 0.34399
 C545 C 0.62279 0.75006 0.30897
 C546 C 0.65185 0.74784 0.29670
 C547 C 0.67586 0.75313 0.31949
 C548 C 0.67058 0.76113 0.35483
 H549 H 0.55729 0.74814 0.33082
 H550 H 0.52144 0.75124 0.38017
 H551 H 0.59201 0.77434 0.45134
 H552 H 0.60441 0.74534 0.29190
 H553 H 0.65576 0.74111 0.26980
 H554 H 0.68858 0.76461 0.37288
 C555 C 0.89616 0.74616 0.89486
 C556 C 0.88102 0.72007 0.88988
 C557 C 0.89001 0.69302 0.90405
 C558 C 0.91560 0.69283 0.92444
 C559 C 0.93152 0.71950 0.93058
 C560 C 0.92160 0.74657 0.91536
 O561 O 0.88379 0.76938 0.87888
 C562 C 0.86030 0.75762 0.86363
 C563 C 0.85758 0.72755 0.86975
 C564 C 0.83433 0.71080 0.85701
 C565 C 0.81312 0.72560 0.83678
 C566 C 0.81583 0.75642 0.82909
 C567 C 0.83957 0.77277 0.84320
 H568 H 0.87771 0.67278 0.89969
 H569 H 0.92267 0.67193 0.93594
 H570 H 0.93318 0.76729 0.91952
 H571 H 0.83249 0.68724 0.86261
 H572 H 0.79461 0.71310 0.82685
 H573 H 0.84186 0.79640 0.83817
 C574 C 0.40506 0.25112 0.39941
 C575 C 0.39685 0.22199 0.39432
 C576 C 0.41122 0.19813 0.41025
 C577 C 0.43488 0.20459 0.43255
 C578 C 0.44341 0.23453 0.43881
 C579 C 0.42831 0.25807 0.42169
 O580 O 0.38821 0.27053 0.38238
 C581 C 0.36882 0.25329 0.36631
 C582 C 0.37306 0.22341 0.37288
 C583 C 0.35437 0.20155 0.36013
 C584 C 0.33034 0.21088 0.33979
 C585 C 0.32582 0.24153 0.33194
 C586 C 0.34539 0.26301 0.34562
 H587 H 0.40427 0.17538 0.40594
 H588 H 0.44606 0.18632 0.44554
 H589 H 0.43419 0.28115 0.42592
 H590 H 0.35777 0.17823 0.36626
 H591 H 0.31497 0.19430 0.33054
 H592 H 0.34216 0.28658 0.34073
 C593 C 0.72296 0.91457 0.88523
 C594 C 0.69764 0.89830 0.88144
 C595 C 0.67125 0.90642 0.89737
 C596 C 0.67112 0.93202 0.91863
 C597 C 0.69723 0.94862 0.92397
 C598 C 0.72340 0.93991 0.90646
 O599 O 0.74591 0.90256 0.86880
 C600 C 0.73489 0.87806 0.85454
 C601 C 0.70549 0.87427 0.86168
 C602 C 0.69011 0.84903 0.85134
 C603 C 0.70564 0.82694 0.83270
 C604 C 0.73572 0.83083 0.82396
 C605 C 0.75053 0.85671 0.83540
 H606 H 0.65164 0.89317 0.89419
 H607 H 0.65097 0.93813 0.93206
 H608 H 0.74377 0.95185 0.91022
 H609 H 0.66719 0.84613 0.85809
 H610 H 0.69436 0.80671 0.82524
 H611 H 0.77369 0.85985 0.83000
 C612 C 0.22003 0.38881 0.38686
 C613 C 0.19653 0.36973 0.38864
 C614 C 0.17163 0.37593 0.40872
 C615 C 0.17123 0.40260 0.42818
 C616 C 0.19570 0.42210 0.42764
 C617 C 0.22020 0.41520 0.40615
 O618 O 0.24204 0.37840 0.36747
 C619 C 0.23237 0.35206 0.35695
 C620 C 0.20472 0.34551 0.36929
 C621 C 0.19145 0.31805 0.36350
 C622 C 0.20736 0.29656 0.34426
 C623 C 0.23564 0.30314 0.33061
 C624 C 0.24822 0.33133 0.33720
 H625 H 0.15347 0.36050 0.40998
 H626 H 0.15242 0.40740 0.44473
 H627 H 0.23933 0.42943 0.40536
 H628 H 0.17002 0.31304 0.37426
 H629 H 0.19796 0.27467 0.34047
 H630 H 0.27011 0.33663 0.32800
 C631 C 0.27404 0.09398 0.90404
 C632 C 0.28972 0.08984 0.87356
 C633 C 0.31015 0.06689 0.86935
 C634 C 0.31418 0.04716 0.89755
 C635 C 0.29629 0.04947 0.92803
 C636 C 0.27595 0.07335 0.93119
 O637 O 0.25743 0.11838 0.90379
 C638 C 0.26221 0.12952 0.87212
 C639 C 0.28102 0.11242 0.85217
 C640 C 0.28658 0.11840 0.81708
 C641 C 0.27259 0.14337 0.80226
 C642 C 0.25557 0.16333 0.82327
 C643 C 0.25006 0.15571 0.85877
 H644 H 0.32279 0.06449 0.84543
 H645 H 0.32989 0.02905 0.89470
 H646 H 0.26251 0.07621 0.95445
 H647 H 0.30030 0.10379 0.80135
 H648 H 0.27534 0.14728 0.77446
 H649 H 0.23687 0.16972 0.87581
 C650 C 0.78536 0.61607 0.40310
 C651 C 0.79129 0.60737 0.36919
 C652 C 0.80293 0.57944 0.36085
 C653 C 0.80830 0.55955 0.38859
 C654 C 0.80138 0.56777 0.42349
 C655 C 0.78991 0.59643 0.43089
 O656 O 0.77427 0.64345 0.40542
 C657 C 0.77291 0.65218 0.37223
 C658 C 0.78273 0.63081 0.34901
 C659 C 0.78144 0.63457 0.31289
 C660 C 0.76984 0.66154 0.30024
 C661 C 0.76087 0.68458 0.32364
 C662 C 0.76212 0.67952 0.36024
 H663 H 0.80741 0.57310 0.33397
 H664 H 0.81681 0.53746 0.38287
 H665 H 0.78428 0.60299 0.45742
 H666 H 0.78849 0.61711 0.29508
 H667 H 0.76777 0.66450 0.27218
 H668 H 0.75474 0.69629 0.37877
 C669 C 0.08899 0.74048 0.87942
 C670 C 0.10093 0.71330 0.87041
 C671 C 0.09109 0.68656 0.88428
 C672 C 0.06817 0.68782 0.90881
 C673 C 0.05598 0.71564 0.91979
 C674 C 0.06650 0.74236 0.90435
 O675 O 0.10214 0.76322 0.86366
 C676 C 0.12301 0.75006 0.84461
 C677 C 0.12331 0.71957 0.84815
 C678 C 0.14478 0.70149 0.83317
 C679 C 0.16697 0.71541 0.81383
 C680 C 0.16682 0.74681 0.80849
 C681 C 0.14429 0.76433 0.82426
 H682 H 0.10095 0.66547 0.87677
 H683 H 0.06066 0.66702 0.92001
 H684 H 0.05791 0.76402 0.91190
 H685 H 0.14512 0.67763 0.83740
 H686 H 0.18477 0.70170 0.80379
 H687 H 0.14376 0.78835 0.82161
 C688 C 0.60151 0.25938 0.39347
 C689 C 0.59409 0.28308 0.37231
 C690 C 0.56972 0.30116 0.37855
 C691 C 0.55216 0.29447 0.40771
 C692 C 0.55908 0.26992 0.42974
 C693 C 0.58405 0.25201 0.42229
 O694 O 0.62679 0.24650 0.38447
 C695 C 0.63548 0.26239 0.35702
 C696 C 0.61610 0.28490 0.34837
 C697 C 0.62165 0.30543 0.32193
 C698 C 0.64865 0.30319 0.30432
 C699 C 0.66928 0.28072 0.31341
 C700 C 0.66242 0.25967 0.33967
 H701 H 0.56465 0.32002 0.36190
 H702 H 0.53306 0.30831 0.41299
 H703 H 0.59014 0.23344 0.43895
 H704 H 0.60628 0.32324 0.31602
 H705 H 0.65417 0.31973 0.28475
 H706 H 0.67834 0.24303 0.34783
 C707 C 0.89548 0.27628 0.91841
 C708 C 0.90585 0.27400 0.88457
 C709 C 0.93565 0.27266 0.87649
 C710 C 0.95557 0.27286 0.90449
 C711 C 0.94543 0.27448 0.93956
 C712 C 0.91500 0.27673 0.94668
 O713 O 0.86635 0.27515 0.92044
 C714 C 0.85819 0.27191 0.88723
 C715 C 0.88156 0.27093 0.86430
 C716 C 0.87828 0.26526 0.82869
 C717 C 0.84971 0.26071 0.81611
 C718 C 0.82509 0.26251 0.83895
 C719 C 0.82950 0.26793 0.87515
 H720 H 0.94323 0.27030 0.84971
 H721 H 0.97884 0.27031 0.89904
 H722 H 0.90680 0.27671 0.97336
 H723 H 0.89708 0.26372 0.81135
 H724 H 0.84669 0.25561 0.78859
 H725 H 0.81120 0.26861 0.89332
 C726 C 0.39196 0.74858 0.39821
 C727 C 0.37836 0.77596 0.39555
 C728 C 0.38940 0.80150 0.41132
 C729 C 0.41537 0.79867 0.43090
 C730 C 0.42962 0.77056 0.43460
 C731 C 0.41770 0.74521 0.41772
 O732 O 0.37779 0.72709 0.38143
 C733 C 0.35468 0.74118 0.36797
 C734 C 0.35392 0.77110 0.37596
 C735 C 0.33120 0.78990 0.36532
 C736 C 0.30847 0.77738 0.34541
 C737 C 0.30913 0.74674 0.33606
 C738 C 0.33245 0.72834 0.34791
 H739 H 0.37829 0.82281 0.40887
 H740 H 0.42403 0.81829 0.44372
 H741 H 0.42791 0.72343 0.42001
 H742 H 0.33087 0.81329 0.37233
 H743 H 0.29034 0.79148 0.33716
 H744 H 0.33323 0.70480 0.34160
 C745 C 0.29260 0.87881 0.09540
 C746 C 0.28894 0.89012 0.12871
 C747 C 0.29126 0.92033 0.13642
 C748 C 0.29687 0.93977 0.10849
 C749 C 0.30023 0.92869 0.07393
 C750 C 0.29863 0.89776 0.06729
 O751 O 0.28708 0.84982 0.09330
 C752 C 0.27965 0.84274 0.12592
 C753 C 0.28043 0.86663 0.14856
 C754 C 0.27129 0.86485 0.18328
 C755 C 0.26106 0.83726 0.19522
 C756 C 0.26051 0.81209 0.17262
 C757 C 0.26984 0.81497 0.13739
 H758 H 0.28767 0.92875 0.16269
 H759 H 0.29743 0.96356 0.11343
 H760 H 0.29995 0.88906 0.04083
 H761 H 0.27136 0.88417 0.20031
 H762 H 0.25315 0.83550 0.22194
 H763 H 0.26892 0.79631 0.11937
 C764 C 0.78508 0.41777 0.61696
 C765 C 0.80958 0.39978 0.61951
 C766 C 0.83528 0.40528 0.60078
 C767 C 0.83552 0.43001 0.57814
 C768 C 0.81015 0.44833 0.57428
 C769 C 0.78476 0.44223 0.59448
 O770 O 0.76253 0.40819 0.63584
 C771 C 0.77290 0.38348 0.65047
 C772 C 0.80153 0.37718 0.64124
 C773 C 0.81588 0.35118 0.65170
 C774 C 0.80003 0.33089 0.67237
 C775 C 0.77063 0.33718 0.68272
 C776 C 0.75702 0.36399 0.67156
 H777 H 0.85425 0.39071 0.60296
 H778 H 0.85505 0.43420 0.56268
 H779 H 0.76495 0.45558 0.59200
 H780 H 0.83817 0.34628 0.64343
 H781 H 0.81040 0.31003 0.67978
 H782 H 0.73442 0.36912 0.67836
 C783 C 0.71637 0.11082 0.10389
 C784 C 0.70604 0.10213 0.13624
 C785 C 0.69210 0.07492 0.14154
 C786 C 0.68897 0.05594 0.11239
 C787 C 0.70044 0.06420 0.07926
 C788 C 0.71418 0.09204 0.07495
 O789 O 0.72914 0.13727 0.10424
 C790 C 0.72712 0.14542 0.13756
 C791 C 0.71350 0.12466 0.15844
 C792 C 0.71120 0.12799 0.19468
 C793 C 0.72355 0.15366 0.20984
 C794 C 0.73692 0.17572 0.18855
 C795 C 0.73854 0.17137 0.15186
 H796 H 0.68415 0.06847 0.16717
 H797 H 0.67853 0.03449 0.11577
 H798 H 0.72315 0.09873 0.04985
 H799 H 0.70113 0.11102 0.21078
 H800 H 0.72319 0.15612 0.23808
 H801 H 0.74927 0.18741 0.13501
 C802 C 0.22244 0.59792 0.58894
 C803 C 0.21167 0.59137 0.62177
 C804 C 0.19724 0.56487 0.62932
 C805 C 0.19389 0.54424 0.60192
 C806 C 0.20562 0.55018 0.56824
 C807 C 0.22010 0.57736 0.56163
 O808 O 0.23503 0.62450 0.58718
 C809 C 0.23239 0.63484 0.61966
 C810 C 0.21859 0.61528 0.64193
 C811 C 0.21497 0.62092 0.67751
 C812 C 0.22591 0.64789 0.69062
 C813 C 0.23908 0.66913 0.66795
 C814 C 0.24255 0.66221 0.63192
 H815 H 0.18885 0.56027 0.65531
 H816 H 0.18287 0.52335 0.60707
 H817 H 0.22910 0.58234 0.53600
 H818 H 0.20472 0.60485 0.69470
 H819 H 0.22428 0.65219 0.71850
 H820 H 0.25305 0.67758 0.61405
 C821 C 0.90254 0.74292 0.10577
 C822 C 0.88912 0.71621 0.11282
 C823 C 0.89951 0.68912 0.10000
 C824 C 0.92450 0.68958 0.07846
 C825 C 0.93841 0.71691 0.06984
 C826 C 0.92739 0.74394 0.08423
 O827 O 0.88862 0.76615 0.11993
 C828 C 0.86585 0.75380 0.13609
 C829 C 0.86510 0.72330 0.13231
 C830 C 0.84242 0.70596 0.14543
 C831 C 0.81971 0.72059 0.16354
 C832 C 0.82040 0.75192 0.16900
 C833 C 0.84368 0.76880 0.15458
 H834 H 0.88847 0.66840 0.10585
 H835 H 0.93242 0.66869 0.06764
 H836 H 0.93723 0.76520 0.07796
 H837 H 0.84199 0.68207 0.14139
 H838 H 0.80151 0.70756 0.17336
 H839 H 0.84441 0.79279 0.15763
 C840 C 0.40917 0.25119 0.62147
 C841 C 0.39955 0.22236 0.62516
 C842 C 0.41294 0.19836 0.60820
 C843 C 0.43692 0.20442 0.58610
 C844 C 0.44661 0.23413 0.58102
 C845 C 0.43274 0.25772 0.59952
 O846 O 0.39261 0.27098 0.63839
 C847 C 0.37190 0.25434 0.65287
 C848 C 0.37503 0.22445 0.64547
 C849 C 0.35437 0.20341 0.65557
 C850 C 0.32943 0.21365 0.67376
 C851 C 0.32588 0.24435 0.68216
 C852 C 0.34767 0.26489 0.67165
 H853 H 0.40480 0.17588 0.61121
 H854 H 0.44714 0.18614 0.57194
 H855 H 0.43940 0.28067 0.59602
 H856 H 0.35685 0.18013 0.64859
 H857 H 0.31246 0.19782 0.68049
 H858 H 0.34532 0.28851 0.67692
 C859 C 0.10795 0.24076 0.11455
 C860 C 0.10362 0.21447 0.13233
 C861 C 0.07948 0.19628 0.12658
 C862 C 0.05894 0.20553 0.10140
 C863 C 0.06271 0.23266 0.08286
 C864 C 0.08748 0.25068 0.08983
 O865 O 0.13330 0.25370 0.12238
 C866 C 0.14519 0.23519 0.14562
 C867 C 0.12778 0.21094 0.15275
 C868 C 0.13643 0.18806 0.17510
 C869 C 0.16438 0.18999 0.19031
 C870 C 0.18294 0.21445 0.18289
 C871 C 0.17313 0.23756 0.16051
 H872 H 0.07681 0.17547 0.14054
 H873 H 0.04006 0.19157 0.09639
 H874 H 0.09117 0.27124 0.07566
 H875 H 0.12246 0.16905 0.17996
 H876 H 0.17202 0.17206 0.20706
 H877 H 0.18728 0.25603 0.15384
 C878 C 0.60957 0.76525 0.58996
 C879 C 0.60174 0.75188 0.62105
 C880 C 0.57421 0.73944 0.62666
 C881 C 0.55379 0.74109 0.59920
 C882 C 0.56107 0.75552 0.56737
 C883 C 0.58929 0.76789 0.56266
 O884 O 0.63744 0.77389 0.58927
 C885 C 0.64735 0.76597 0.62067
 C886 C 0.62624 0.75277 0.64125
 C887 C 0.63192 0.74226 0.67485
 C888 C 0.66071 0.74485 0.68749
 C889 C 0.68308 0.75739 0.66632
 C890 C 0.67628 0.76836 0.63254
 H891 H 0.56875 0.72858 0.65113
 H892 H 0.53216 0.73162 0.60284
 H893 H 0.59533 0.77871 0.53835
 H894 H 0.61496 0.73183 0.69046
 H895 H 0.66597 0.73593 0.71312
 H896 H 0.69318 0.77744 0.61571
   
