data_POSCAR
  _audit_creation_date              2014-09-24
  _audit_creation_method            'ToBaCCo'
  _symmetry_space_group_name_H-M    'P1'
  _symmetry_Int_Tables_number       1
  _symmetry_cell_setting            triclinic
  loop_
  _symmetry_equiv_pos_as_xyz
 x,y,z
_cell_length_a 53.5335
_cell_length_b 53.4964
_cell_length_c 53.4917
_cell_angle_alpha 89.984500
_cell_angle_beta 89.991800
_cell_angle_gamma 90.012100
loop_
  _atom_site_label
  _atom_site_type_symbol
  _atom_site_fract_x
  _atom_site_fract_y
  _atom_site_fract_z
C1 C 0.18819 0.21241 0.22487
 C2 C 0.20457 0.19226 0.22869
 C3 C 0.22487 0.18817 0.21256
 C4 C 0.22869 0.20456 0.19239
 C5 C 0.21253 0.22482 0.18825
 C6 C 0.19233 0.22859 0.20459
 H7 H 0.20189 0.18010 0.24466
 H8 H 0.24391 0.20114 0.17949
 H9 H 0.17979 0.24418 0.20152
 C10 C 0.68821 0.71254 0.72483
 C11 C 0.69235 0.72874 0.70457
 C12 C 0.71252 0.72496 0.68820
 C13 C 0.72866 0.70467 0.69230
 C14 C 0.72484 0.68826 0.71246
 C15 C 0.70456 0.69236 0.72861
 H16 H 0.67982 0.74435 0.70153
 H17 H 0.74386 0.70125 0.67938
 H18 H 0.70187 0.68018 0.74457
 C19 C 0.31149 0.78770 0.72516
 C20 C 0.30751 0.77163 0.70487
 C21 C 0.28747 0.77546 0.68846
 C22 C 0.27125 0.79570 0.69253
 C23 C 0.27470 0.81228 0.71281
 C24 C 0.29510 0.80784 0.72901
 H25 H 0.32046 0.75644 0.70146
 H26 H 0.25515 0.79747 0.68046
 H27 H 0.29892 0.82036 0.74439
 C28 C 0.81223 0.28759 0.22556
 C29 C 0.80774 0.27140 0.20516
 C30 C 0.78756 0.27522 0.18881
 C31 C 0.77152 0.29553 0.19283
 C32 C 0.77541 0.31195 0.21286
 C33 C 0.79569 0.30790 0.22903
 H34 H 0.82065 0.25645 0.20090
 H35 H 0.75555 0.29821 0.18068
 H36 H 0.79794 0.32041 0.24473
 C37 C 0.81177 0.71253 0.27491
 C38 C 0.79542 0.69233 0.27115
 C39 C 0.77512 0.68825 0.28729
 C40 C 0.77128 0.70468 0.30741
 C41 C 0.78742 0.72498 0.31149
 C42 C 0.80761 0.72874 0.29514
 H43 H 0.79812 0.68014 0.25521
 H44 H 0.75567 0.70165 0.31993
 H45 H 0.82051 0.74396 0.29856
 C46 C 0.31235 0.21212 -0.22535
 C47 C 0.29581 0.19180 -0.22884
 C48 C 0.27551 0.18775 -0.21270
 C49 C 0.27158 0.20417 -0.19268
 C50 C 0.28761 0.22449 -0.18865
 C51 C 0.30782 0.22831 -0.20496
 H52 H 0.29809 0.17928 -0.24453
 H53 H 0.25559 0.20150 -0.18055
 H54 H 0.32072 0.24327 -0.20069
 C55 C 0.68791 0.28710 -0.22515
 C56 C 0.69240 0.27092 -0.20473
 C57 C 0.71258 0.27480 -0.18839
 C58 C 0.72863 0.29510 -0.19245
 C59 C 0.72474 0.31148 -0.21252
 C60 C 0.70447 0.30739 -0.22868
 H61 H 0.67990 0.25554 -0.20085
 H62 H 0.74384 0.29853 -0.17954
 H63 H 0.70264 0.31943 -0.24481
 C64 C 0.18836 0.78767 0.27514
 C65 C 0.20473 0.80783 0.27129
 C66 C 0.22529 0.81214 0.28729
 C67 C 0.22893 0.79542 0.30744
 C68 C 0.21274 0.77516 0.31153
 C69 C 0.19253 0.77145 0.29530
 H70 H 0.20196 0.81926 0.25484
 H71 H 0.24355 0.79871 0.32099
 H72 H 0.17997 0.75587 0.29837
 C73 C 0.46237 0.43822 0.47514
 C74 C 0.44224 0.45462 0.47898
 C75 C 0.43815 0.47494 0.46284
 C76 C 0.45452 0.47874 0.44266
 C77 C 0.47476 0.46256 0.43851
 C78 C 0.47853 0.44235 0.45486
 H79 H 0.42970 0.45156 0.49458
 H80 H 0.45110 0.49397 0.42976
 H81 H 0.49447 0.43018 0.45218
 C82 C -0.03762 -0.06136 0.97496
 C83 C -0.02144 -0.05717 0.95479
 C84 C -0.02518 -0.03696 0.93855
 C85 C -0.04542 -0.02076 0.94266
 C86 C -0.06212 -0.02444 0.96281
 C87 C -0.05779 -0.04502 0.97882
 H88 H -0.00623 -0.07008 0.95132
 H89 H -0.04832 -0.00569 0.92952
 H90 H -0.06920 -0.04781 0.99527
 C91 C 1.03754 0.56169 0.97467
 C92 C 1.02133 0.55753 0.95444
 C93 C 1.02510 0.53735 0.93808
 C94 C 1.04540 0.52121 0.94215
 C95 C 1.06182 0.52506 0.96227
 C96 C 1.05773 0.54535 0.97842
 H97 H 1.00611 0.57043 0.95104
 H98 H 1.04843 0.50561 0.92961
 H99 H 1.06993 0.54804 0.99436
 C100 C 0.53767 0.06168 0.47475
 C101 C 0.52142 0.05748 0.45464
 C102 C 0.52511 0.03724 0.43841
 C103 C 0.54539 0.02108 0.44246
 C104 C 0.56213 0.02475 0.46256
 C105 C 0.55785 0.04534 0.47856
 H106 H 0.50583 0.07001 0.45160
 H107 H 0.54866 0.00645 0.42891
 H108 H 0.56930 0.04813 0.49498
 C109 C -0.03770 0.06154 0.52511
 C110 C -0.05788 0.04520 0.52126
 C111 C -0.06238 0.02477 0.53741
 C112 C -0.04584 0.02125 0.55772
 C113 C -0.02556 0.03741 0.56180
 C114 C -0.02167 0.05749 0.54541
 H115 H -0.07079 0.04949 0.50631
 H116 H -0.04809 0.00552 0.57020
 H117 H -0.00570 0.06963 0.54812
 C118 C 0.46240 0.56176 0.02505
 C119 C 0.44223 0.54540 0.02123
 C120 C 0.43813 0.52507 0.03735
 C121 C 0.45451 0.52120 0.05749
 C122 C 0.47479 0.53735 0.06162
 C123 C 0.47858 0.55758 0.04530
 H124 H 0.43007 0.54812 0.00528
 H125 H 0.45147 0.50557 0.07000
 H126 H 0.49378 0.57049 0.04876
 C127 C 0.53754 -0.06207 0.02484
 C128 C 0.55767 -0.04534 0.02121
 C129 C 0.56175 -0.02509 0.03742
 C130 C 0.54551 -0.02140 0.05764
 C131 C 0.52538 -0.03763 0.06180
 C132 C 0.52153 -0.05778 0.04542
 H133 H 0.57121 -0.04862 0.00658
 H134 H 0.54857 -0.00583 0.07021
 H135 H 0.50510 -0.06920 0.04818
 C136 C 1.03753 0.43875 0.52485
 C137 C 1.02146 0.44274 0.54514
 C138 C 1.02531 0.46277 0.56157
 C139 C 1.04558 0.47896 0.55753
 C140 C 1.06216 0.47550 0.53725
 C141 C 1.05770 0.45511 0.52103
 H142 H 1.00625 0.42980 0.54852
 H143 H 1.04738 0.49506 0.56962
 H144 H 1.07022 0.45129 0.50566
 C145 C 0.41323 0.01161 0.21632
 H146 H 0.41421 0.02858 0.22729
 C147 C 0.42955 0.00809 0.19626
 H148 H 0.44311 0.02241 0.19166
 C149 C 0.39463 -0.02798 0.20910
 H150 H 0.38129 -0.04217 0.21438
 C151 C 0.41061 -0.03225 0.18890
 H152 H 0.40936 -0.04961 0.17854
 N153 N 0.39603 -0.00619 0.22216
 C154 C 0.33684 0.03353 0.26175
 H155 H 0.33585 0.02254 0.27871
 C156 C 0.32053 0.05359 0.25823
 H157 H 0.30696 0.05817 0.27255
 C158 C 0.35547 0.04080 0.22217
 H159 H 0.36881 0.03553 0.20798
 C160 C 0.33949 0.06100 0.21790
 H161 H 0.34077 0.07138 0.20056
 Zn162 Zn 0.37503 -0.00014 0.25001
 N163 N 0.35405 0.02770 0.24396
 C164 C 0.39462 0.02769 0.29093
 N165 N 0.39601 0.00590 0.27786
 C166 C 0.41320 -0.01191 0.28370
 C167 C 0.42950 -0.00840 0.30378
 C168 C 0.41058 0.03194 0.31114
 C169 C 0.33683 -0.03380 0.23824
 C170 C 0.32051 -0.05387 0.24174
 C171 C 0.33944 -0.06130 0.28208
 C172 C 0.35542 -0.04109 0.27783
 N173 N 0.35403 -0.02799 0.25605
 H174 H 0.38129 0.04188 0.28565
 H175 H 0.41418 -0.02887 0.27273
 H176 H 0.44305 -0.02272 0.30838
 H177 H 0.40933 0.04929 0.32151
 H178 H 0.33585 -0.02281 0.22129
 H179 H 0.30695 -0.05845 0.22742
 H180 H 0.34070 -0.07168 0.29942
 H181 H 0.36876 -0.03583 0.29202
 C182 C 0.32192 0.06748 0.23613
 C183 C 0.42817 -0.01402 0.18240
 C184 C 0.32189 -0.06777 0.26384
 C185 C 0.42813 0.01370 0.31764
 C186 C 0.08665 -0.01190 0.71620
 H187 H 0.08566 -0.02887 0.72716
 C188 C 0.07035 -0.00836 0.69612
 H189 H 0.05679 -0.02267 0.69151
 C190 C 0.10526 0.02770 0.70900
 H191 H 0.11860 0.04188 0.71429
 C192 C 0.08930 0.03199 0.68879
 H193 H 0.09057 0.04935 0.67844
 N194 N 0.10385 0.00590 0.72206
 C195 C 0.16297 -0.03388 0.76169
 H196 H 0.16394 -0.02291 0.77865
 C197 C 0.17927 -0.05394 0.75819
 H198 H 0.19282 -0.05855 0.77252
 C199 C 0.14440 -0.04110 0.72208
 H200 H 0.13108 -0.03582 0.70788
 C201 C 0.16037 -0.06131 0.71783
 H202 H 0.15913 -0.07167 0.70047
 Zn203 Zn 0.12482 -0.00018 0.74991
 N204 N 0.14578 -0.02803 0.74387
 C205 C 0.10519 -0.02799 0.79085
 N206 N 0.10382 -0.00621 0.77776
 C207 C 0.08664 0.01161 0.78359
 C208 C 0.07033 0.00813 0.80367
 C209 C 0.08923 -0.03223 0.81108
 C210 C 0.16304 0.03347 0.73815
 C211 C 0.17939 0.05352 0.74167
 C212 C 0.16047 0.06089 0.78203
 C213 C 0.14446 0.04071 0.77776
 N214 N 0.14583 0.02765 0.75596
 H215 H 0.11851 -0.04220 0.78558
 H216 H 0.08567 0.02857 0.77260
 H217 H 0.05680 0.02246 0.80826
 H218 H 0.09047 -0.04957 0.82146
 H219 H 0.16401 0.02251 0.72119
 H220 H 0.19295 0.05811 0.72736
 H221 H 0.15923 0.07125 0.79939
 H222 H 0.13112 0.03544 0.79195
 C223 C 0.17791 -0.06781 0.73608
 C224 C 0.07174 0.01376 0.68227
 C225 C 0.17803 0.06737 0.76379
 C226 C 0.07170 -0.01397 0.81756
 C227 C 0.58665 0.48819 0.21638
 H228 H 0.58565 0.47124 0.22737
 C229 C 0.57034 0.49169 0.19631
 H230 H 0.55678 0.47738 0.19172
 C231 C 0.60528 0.52777 0.20910
 H232 H 0.61862 0.54195 0.21436
 C233 C 0.58931 0.53202 0.18888
 H234 H 0.59058 0.54936 0.17849
 N235 N 0.60386 0.50599 0.22220
 C236 C 0.66303 0.46629 0.26183
 H237 H 0.66401 0.47728 0.27878
 C238 C 0.67935 0.44623 0.25833
 H239 H 0.69291 0.44165 0.27265
 C240 C 0.64443 0.45901 0.22225
 H241 H 0.63109 0.46427 0.20805
 C242 C 0.66041 0.43881 0.21800
 H243 H 0.65916 0.42843 0.20065
 Zn244 Zn 0.62485 0.49995 0.25005
 N245 N 0.64582 0.47210 0.24403
 C246 C 0.60525 0.47214 0.29100
 N247 N 0.60386 0.49393 0.27791
 C248 C 0.58668 0.51174 0.28375
 C249 C 0.57037 0.50824 0.30384
 C250 C 0.58929 0.46789 0.31122
 C251 C 0.66306 0.53359 0.23824
 C252 C 0.67939 0.55365 0.24171
 C253 C 0.66045 0.56112 0.28204
 C254 C 0.64446 0.54092 0.27782
 N255 N 0.64585 0.52780 0.25605
 H256 H 0.61857 0.45795 0.28572
 H257 H 0.58570 0.52870 0.27277
 H258 H 0.55683 0.52256 0.30844
 H259 H 0.59054 0.45054 0.32159
 H260 H 0.66403 0.52258 0.22130
 H261 H 0.69295 0.55821 0.22738
 H262 H 0.65919 0.57152 0.29936
 H263 H 0.63112 0.53567 0.29202
 C264 C 0.67797 0.43235 0.23623
 C265 C 0.57174 0.51379 0.18241
 C266 C 0.67801 0.56756 0.26379
 C267 C 0.57175 0.48613 0.31772
 C268 C 0.91311 0.51162 0.71617
 H269 H 0.91409 0.52857 0.72716
 C270 C 0.92945 0.50813 0.69611
 H271 H 0.94302 0.52244 0.69154
 C272 C 0.89450 0.47204 0.70887
 H273 H 0.88115 0.45785 0.71412
 C274 C 0.91050 0.46780 0.68867
 H275 H 0.90924 0.45046 0.67828
 N276 N 0.89590 0.49382 0.72197
 C277 C 0.83666 0.53348 0.76152
 H278 H 0.83566 0.52249 0.77848
 C279 C 0.82035 0.55354 0.75800
 H280 H 0.80677 0.55812 0.77230
 C281 C 0.85532 0.54077 0.72196
 H282 H 0.86868 0.53551 0.70779
 C283 C 0.83935 0.56097 0.71769
 H284 H 0.84063 0.57136 0.70034
 Zn285 Zn 0.87489 0.49984 0.74981
 N286 N 0.85389 0.52767 0.74374
 C287 C 0.89442 0.52770 0.79074
 N288 N 0.89586 0.50592 0.77766
 C289 C 0.91309 0.48815 0.78349
 C290 C 0.92940 0.49169 0.80356
 C291 C 0.91039 0.53199 0.81095
 C292 C 0.83672 0.46613 0.73808
 C293 C 0.82041 0.44605 0.74162
 C294 C 0.83937 0.43869 0.78195
 C295 C 0.85534 0.45890 0.77767
 N296 N 0.85392 0.47198 0.75587
 H297 H 0.88106 0.54187 0.78547
 H298 H 0.91411 0.47119 0.77251
 H299 H 0.94299 0.47740 0.80815
 H300 H 0.90910 0.54933 0.82132
 H301 H 0.83572 0.47710 0.72111
 H302 H 0.80685 0.44144 0.72731
 H303 H 0.84065 0.42833 0.79931
 H304 H 0.86868 0.46419 0.79185
 C305 C 0.82176 0.56744 0.73590
 C306 C 0.92807 0.48604 0.68222
 C307 C 0.82181 0.43219 0.76373
 C308 C 0.92798 0.51379 0.81743
 C309 C 0.21638 0.41302 0.01136
 H310 H 0.22737 0.41401 0.02831
 C311 C 0.19634 0.42935 0.00785
 H312 H 0.19178 0.44293 0.02216
 C313 C 0.20909 0.39438 -0.02820
 H314 H 0.21433 0.38101 -0.04238
 C315 C 0.18890 0.41037 -0.03246
 H316 H 0.17852 0.40910 -0.04980
 N317 N 0.22218 0.39579 -0.00643
 C318 C 0.26171 0.33655 0.03331
 H319 H 0.27866 0.33555 0.02233
 C320 C 0.25818 0.32024 0.05339
 H321 H 0.27248 0.30667 0.05800
 C322 C 0.22216 0.35519 0.04054
 H323 H 0.20799 0.36854 0.03526
 C324 C 0.21788 0.33922 0.06076
 H325 H 0.20055 0.34049 0.07113
 Zn326 Zn 0.24999 0.37477 -0.00039
 N327 N 0.24394 0.35377 0.02747
 C328 C 0.29090 0.39435 0.02745
 N329 N 0.27783 0.39577 0.00566
 C330 C 0.28366 0.41300 -0.01214
 C331 C 0.30371 0.42933 -0.00861
 C332 C 0.31109 0.41034 0.03172
 C333 C 0.23824 0.33655 -0.03405
 C334 C 0.24175 0.32022 -0.05411
 C335 C 0.28206 0.33920 -0.06153
 C336 C 0.27780 0.35519 -0.04133
 N337 N 0.25603 0.35377 -0.02823
 H338 H 0.28563 0.38099 0.04163
 H339 H 0.27269 0.41400 -0.02909
 H340 H 0.30830 0.44291 -0.02292
 H341 H 0.32145 0.40906 0.04906
 H342 H 0.22130 0.33556 -0.02306
 H343 H 0.22745 0.30664 -0.05869
 H344 H 0.29939 0.34047 -0.07191
 H345 H 0.29197 0.36854 -0.03606
 C346 C 0.23609 0.32164 0.06726
 C347 C 0.18245 0.42796 -0.01424
 C348 C 0.26384 0.32162 -0.06800
 C349 C 0.31757 0.42793 0.01349
 C350 C 0.71654 0.08684 -0.01142
 H351 H 0.72753 0.08589 -0.02837
 C352 C 0.69649 0.07051 -0.00794
 H353 H 0.69191 0.05696 -0.02228
 C354 C 0.70925 0.10541 0.02819
 H355 H 0.71450 0.11874 0.04240
 C356 C 0.68906 0.08941 0.03242
 H357 H 0.67867 0.09064 0.04976
 N358 N 0.72235 0.10404 0.00641
 C359 C 0.76190 0.16333 -0.03328
 H360 H 0.77884 0.16432 -0.02231
 C361 C 0.75838 0.17965 -0.05336
 H362 H 0.77268 0.19322 -0.05797
 C363 C 0.72234 0.14469 -0.04052
 H364 H 0.70817 0.13133 -0.03524
 C365 C 0.71807 0.16067 -0.06073
 H366 H 0.70074 0.15939 -0.07110
 Zn367 Zn 0.75016 0.12508 0.00039
 N368 N 0.74411 0.14610 -0.02744
 C369 C 0.79109 0.10555 -0.02744
 N370 N 0.77800 0.10410 -0.00566
 C371 C 0.78383 0.08687 0.01213
 C372 C 0.80390 0.07056 0.00860
 C373 C 0.81130 0.08958 -0.03171
 C374 C 0.73838 0.16325 0.03410
 C375 C 0.74187 0.17956 0.05418
 C376 C 0.78218 0.16062 0.06157
 C377 C 0.77794 0.14465 0.04135
 N378 N 0.75618 0.14605 0.02826
 H379 H 0.78582 0.11891 -0.04162
 H380 H 0.77285 0.08585 0.02908
 H381 H 0.80849 0.05698 0.02291
 H382 H 0.82167 0.09088 -0.04905
 H383 H 0.72144 0.16423 0.02312
 H384 H 0.72756 0.19311 0.05878
 H385 H 0.79952 0.15936 0.07195
 H386 H 0.79213 0.13132 0.03607
 C387 C 0.73629 0.17824 -0.06724
 C388 C 0.68260 0.07186 0.01415
 C389 C 0.76395 0.17818 0.06806
 C390 C 0.81778 0.07199 -0.01350
 C391 C 0.21622 0.58699 0.48846
 H392 H 0.22718 0.58600 0.47149
 C393 C 0.19613 0.57070 0.49198
 H394 H 0.19151 0.55715 0.47766
 C395 C 0.20902 0.60561 0.52805
 H396 H 0.21432 0.61894 0.54224
 C397 C 0.18880 0.58965 0.53233
 H398 H 0.17844 0.59093 0.54968
 N399 N 0.22208 0.60419 0.50626
 C400 C 0.26170 0.66336 0.46646
 H401 H 0.27866 0.66433 0.47741
 C402 C 0.25819 0.67968 0.44638
 H403 H 0.27252 0.69321 0.44175
 C404 C 0.22209 0.64481 0.45929
 H405 H 0.20790 0.63149 0.46460
 C406 C 0.21783 0.66078 0.43908
 H407 H 0.20048 0.65954 0.42873
 Zn408 Zn 0.24993 0.62516 0.50018
 N409 N 0.24389 0.64618 0.47234
 C410 C 0.29079 0.60553 0.47230
 N411 N 0.27773 0.60413 0.49410
 C412 C 0.28355 0.58690 0.51189
 C413 C 0.30359 0.57057 0.50836
 C414 C 0.31097 0.58954 0.46802
 C415 C 0.23828 0.66339 0.53387
 C416 C 0.24184 0.67971 0.55393
 C417 C 0.28212 0.66068 0.56129
 C418 C 0.27781 0.64471 0.54109
 N419 N 0.25603 0.64615 0.52802
 H420 H 0.28552 0.61889 0.45812
 H421 H 0.27259 0.58591 0.52886
 H422 H 0.30818 0.55699 0.52267
 H423 H 0.32132 0.59081 0.45067
 H424 H 0.22133 0.66440 0.52291
 H425 H 0.22756 0.69330 0.55854
 H426 H 0.29946 0.65939 0.57165
 H427 H 0.29196 0.63134 0.53580
 C428 C 0.23608 0.67832 0.43254
 C429 C 0.18228 0.57210 0.51409
 C430 C 0.26393 0.67828 0.56779
 C431 C 0.31745 0.57196 0.48625
 C432 C 0.71619 0.91339 0.51153
 H433 H 0.72715 0.91438 0.52850
 C434 C 0.69612 0.92969 0.50801
 H435 H 0.69151 0.94324 0.52232
 C436 C 0.70900 0.89477 0.47193
 H437 H 0.71429 0.88144 0.45775
 C438 C 0.68879 0.91073 0.46766
 H439 H 0.67844 0.90946 0.45031
 N440 N 0.72205 0.89619 0.49373
 C441 C 0.76165 0.83699 0.53346
 H442 H 0.77861 0.83604 0.52250
 C443 C 0.75814 0.82065 0.55352
 H444 H 0.77246 0.80710 0.55813
 C445 C 0.72206 0.85555 0.54068
 H446 H 0.70787 0.86888 0.53540
 C447 C 0.71780 0.83954 0.56088
 H448 H 0.70044 0.84077 0.57123
 Zn449 Zn 0.74990 0.87522 0.49979
 N450 N 0.74385 0.85419 0.52762
 C451 C 0.79074 0.89484 0.52768
 N452 N 0.77770 0.89625 0.50587
 C453 C 0.78355 0.91347 0.48808
 C454 C 0.80359 0.92980 0.49162
 C455 C 0.81092 0.91083 0.53197
 C456 C 0.73823 0.83700 0.46610
 C457 C 0.74177 0.82069 0.44603
 C458 C 0.78206 0.83972 0.43866
 C459 C 0.77776 0.85569 0.45886
 N460 N 0.75599 0.85424 0.47194
 H461 H 0.78545 0.88149 0.54186
 H462 H 0.77260 0.91446 0.47111
 H463 H 0.80821 0.94337 0.47731
 H464 H 0.82126 0.90957 0.54934
 H465 H 0.72128 0.83598 0.47707
 H466 H 0.72749 0.80710 0.44143
 H467 H 0.79939 0.84101 0.42829
 H468 H 0.79192 0.86905 0.46414
 C469 C 0.73603 0.82199 0.56738
 C470 C 0.68227 0.92829 0.48589
 C471 C 0.76386 0.82212 0.43216
 C472 C 0.81743 0.92841 0.51375
 C473 C 0.01163 0.21638 0.41331
 H474 H 0.02860 0.22733 0.41431
 C475 C 0.00808 0.19631 0.42963
 H476 H 0.02237 0.19169 0.44320
 C477 C -0.02793 0.20920 0.39467
 H478 H -0.04209 0.21450 0.38132
 C479 C -0.03223 0.18899 0.41065
 H480 H -0.04958 0.17864 0.40937
 N481 N -0.00614 0.22225 0.39609
 C482 C 0.03371 0.26177 0.33688
 H483 H 0.02279 0.27876 0.33589
 C484 C 0.05377 0.25821 0.32058
 H485 H 0.05842 0.27252 0.30702
 C486 C 0.04081 0.22215 0.35550
 H487 H 0.03549 0.20797 0.36883
 C488 C 0.06101 0.21784 0.33953
 H489 H 0.07132 0.20046 0.34079
 Zn490 Zn -0.00002 0.25008 0.37507
 N491 N 0.02781 0.24397 0.35409
 C492 C 0.02787 0.29095 0.39468
 N493 N 0.00607 0.27792 0.39607
 C494 C -0.01174 0.28380 0.41326
 C495 C -0.00820 0.30388 0.42956
 C496 C 0.03215 0.31116 0.41065
 C497 C -0.03369 0.23838 0.33685
 C498 C -0.05374 0.24192 0.32053
 C499 C -0.06103 0.28228 0.33945
 C500 C -0.04084 0.27799 0.35543
 N501 N -0.02782 0.25618 0.35405
 H502 H 0.04206 0.28563 0.38137
 H503 H -0.02871 0.27287 0.41423
 H504 H -0.02252 0.30853 0.44309
 H505 H 0.04952 0.32150 0.40940
 H506 H -0.02276 0.22139 0.33588
 H507 H -0.05837 0.22760 0.30698
 H508 H -0.07135 0.29965 0.34070
 H509 H -0.03554 0.29218 0.36876
 C510 C 0.06757 0.23607 0.32197
 C511 C -0.01403 0.18246 0.42822
 C512 C -0.06756 0.26405 0.32190
 C513 C 0.01392 0.31771 0.42818
 C514 C -0.01154 0.71639 0.08665
 H515 H -0.02851 0.72733 0.08571
 C516 C -0.00803 0.69633 0.07032
 H517 H -0.02235 0.69171 0.05679
 C518 C 0.02807 0.70921 0.10520
 H519 H 0.04226 0.71451 0.11852
 C520 C 0.03233 0.68902 0.08920
 H521 H 0.04969 0.67868 0.09043
 N522 N 0.00627 0.72225 0.10384
 C523 C -0.03348 0.76171 0.16311
 H524 H -0.02254 0.77869 0.16410
 C525 C -0.05354 0.75816 0.17943
 H526 H -0.05817 0.77246 0.19298
 C527 C -0.04064 0.72211 0.14449
 H528 H -0.03534 0.70794 0.13115
 C529 C -0.06084 0.71781 0.16047
 H530 H -0.07117 0.70044 0.15920
 Zn531 Zn 0.00019 0.75006 0.12488
 N532 N -0.02761 0.74393 0.14590
 C533 C -0.02773 0.79093 0.10532
 N534 N -0.00591 0.77792 0.10391
 C535 C 0.01187 0.78384 0.08671
 C536 C 0.00830 0.80393 0.07042
 C537 C -0.03204 0.81115 0.08937
 C538 C 0.03391 0.73830 0.16304
 C539 C 0.05397 0.74182 0.17936
 C540 C 0.06123 0.78223 0.16049
 C541 C 0.04104 0.77796 0.14451
 N542 N 0.02802 0.75613 0.14587
 H543 H -0.04190 0.78558 0.11865
 H544 H 0.02885 0.77293 0.08572
 H545 H 0.02260 0.80860 0.05687
 H546 H -0.04941 0.82146 0.09064
 H547 H 0.02298 0.72131 0.16400
 H548 H 0.05861 0.72749 0.19289
 H549 H 0.07155 0.79961 0.15926
 H550 H 0.03572 0.79216 0.13120
 C551 C -0.06737 0.73603 0.17803
 C552 C 0.01409 0.68250 0.07167
 C553 C 0.06778 0.76397 0.17801
 C554 C -0.01383 0.81773 0.07182
 C555 C 0.48845 0.21616 0.58699
 H556 H 0.47148 0.22711 0.58605
 C557 C 0.49196 0.19612 0.57064
 H558 H 0.47763 0.19151 0.55710
 C559 C 0.52806 0.20896 0.60552
 H560 H 0.54225 0.21424 0.61885
 C561 C 0.53232 0.18878 0.58950
 H562 H 0.54967 0.17844 0.59072
 N563 N 0.50626 0.22200 0.60418
 C564 C 0.46655 0.26143 0.66350
 H565 H 0.47748 0.27841 0.66450
 C566 C 0.44649 0.25786 0.67982
 H567 H 0.44187 0.27215 0.69339
 C568 C 0.45938 0.22184 0.64485
 H569 H 0.46467 0.20768 0.63149
 C570 C 0.43919 0.21752 0.66083
 H571 H 0.42885 0.20016 0.65955
 Zn572 Zn 0.50020 0.24980 0.62524
 N573 N 0.47241 0.24366 0.64626
 C574 C 0.47229 0.29070 0.60573
 N575 N 0.49409 0.27767 0.60428
 C576 C 0.51185 0.28356 0.58705
 C577 C 0.50828 0.30365 0.57075
 C578 C 0.46798 0.31093 0.58978
 C579 C 0.53393 0.23803 0.66338
 C580 C 0.55401 0.24154 0.67967
 C581 C 0.56128 0.28194 0.66079
 C582 C 0.54107 0.27767 0.64483
 N583 N 0.52804 0.25586 0.64621
 H584 H 0.45814 0.28538 0.61908
 H585 H 0.52881 0.27262 0.58603
 H586 H 0.52256 0.30829 0.55717
 H587 H 0.45063 0.32126 0.59107
 H588 H 0.52300 0.22104 0.66435
 H589 H 0.55865 0.22720 0.69320
 H590 H 0.57161 0.29931 0.65954
 H591 H 0.53575 0.29188 0.63152
 C592 C 0.43266 0.23573 0.67841
 C593 C 0.51407 0.18228 0.57197
 C594 C 0.56783 0.26368 0.67831
 C595 C 0.48617 0.31748 0.57219
 C596 C 0.51166 0.71662 0.91327
 H597 H 0.52863 0.72756 0.91425
 C598 C 0.50810 0.69656 0.92959
 H599 H 0.52240 0.69192 0.94315
 C600 C 0.47208 0.70947 0.89466
 H601 H 0.45791 0.71478 0.88132
 C602 C 0.46777 0.68927 0.91064
 H603 H 0.45041 0.67893 0.90938
 N604 N 0.49388 0.72250 0.89606
 C605 C 0.53375 0.76197 0.83684
 H606 H 0.52284 0.77896 0.83584
 C607 C 0.55382 0.75840 0.82054
 H608 H 0.55848 0.77271 0.80698
 C609 C 0.54084 0.72236 0.85547
 H610 H 0.53551 0.70819 0.86881
 C611 C 0.56104 0.71804 0.83952
 H612 H 0.57135 0.70066 0.84079
 Zn613 Zn 0.50001 0.75032 0.87503
 N614 N 0.52784 0.74419 0.85405
 C615 C 0.52791 0.79119 0.89462
 N616 N 0.50610 0.77817 0.89601
 C617 C 0.48830 0.78405 0.91320
 C618 C 0.49185 0.80412 0.92952
 C619 C 0.53220 0.81140 0.91059
 C620 C 0.46635 0.73858 0.83681
 C621 C 0.44630 0.74210 0.82049
 C622 C 0.43901 0.78249 0.83937
 C623 C 0.45919 0.77821 0.85536
 N624 N 0.47222 0.75640 0.85399
 H625 H 0.54209 0.78588 0.88129
 H626 H 0.47133 0.77311 0.91418
 H627 H 0.47754 0.80875 0.94307
 H628 H 0.54956 0.82173 0.90934
 H629 H 0.47728 0.72160 0.83586
 H630 H 0.44167 0.72777 0.80695
 H631 H 0.42867 0.79985 0.84060
 H632 H 0.46449 0.79241 0.86868
 C633 C 0.56761 0.73626 0.82195
 C634 C 0.48598 0.68273 0.92821
 C635 C 0.43248 0.76423 0.82184
 C636 C 0.51398 0.81794 0.92814
 C637 C 0.12636 0.22453 0.27472
 C638 C 0.13237 0.20029 0.26694
 C639 C 0.15249 0.19634 0.25074
 C640 C 0.16685 0.21661 0.24210
 C641 C 0.16065 0.24091 0.25004
 C642 C 0.14053 0.24481 0.26625
 C643 C 0.10564 0.22858 0.29138
 C644 C 0.08828 0.23199 0.30533
 H645 H 0.12148 0.18446 0.27334
 H646 H 0.15661 0.17746 0.24472
 H647 H 0.17155 0.25685 0.24398
 H648 H 0.13608 0.26365 0.27221
 C649 C 0.62641 0.72469 0.77473
 C650 C 0.63239 0.70045 0.76692
 C651 C 0.65250 0.69648 0.75072
 C652 C 0.66689 0.71675 0.74209
 C653 C 0.66072 0.74104 0.75006
 C654 C 0.64062 0.74496 0.76628
 C655 C 0.60570 0.72876 0.79138
 C656 C 0.58834 0.73217 0.80532
 H657 H 0.62148 0.68463 0.77330
 H658 H 0.65659 0.67761 0.74467
 H659 H 0.67165 0.75697 0.74402
 H660 H 0.63619 0.76379 0.77227
 C661 C 0.37362 0.77566 0.77465
 C662 C 0.35919 0.75541 0.76656
 C663 C 0.33900 0.75931 0.75044
 C664 C 0.33297 0.78356 0.74224
 C665 C 0.34762 0.80380 0.75047
 C666 C 0.36780 0.79985 0.76657
 C667 C 0.39437 0.77163 0.79127
 C668 C 0.41175 0.76826 0.80520
 H669 H 0.36350 0.73661 0.77275
 H670 H 0.32791 0.74341 0.74464
 H671 H 0.34366 0.82263 0.74419
 H672 H 0.37891 0.81565 0.77266
 C673 C -0.12639 0.27557 0.27470
 C674 C -0.13685 0.25554 0.26167
 C675 C -0.15699 0.25943 0.24550
 C676 C -0.16722 0.28359 0.24199
 C677 C -0.15628 0.30360 0.25544
 C678 C -0.13612 0.29958 0.27155
 C679 C -0.10565 0.27150 0.29133
 C680 C -0.08828 0.26810 0.30526
 H681 H -0.12957 0.23680 0.26415
 H682 H -0.16500 0.24313 0.23665
 H683 H -0.16241 0.32269 0.25294
 H684 H -0.12800 0.31529 0.28141
 C685 C -0.12624 0.72455 0.22521
 C686 C -0.14034 0.74486 0.23372
 C687 C -0.16050 0.74098 0.24988
 C688 C -0.16682 0.71668 0.25774
 C689 C -0.15253 0.69638 0.24906
 C690 C -0.13237 0.70032 0.23291
 C691 C -0.10549 0.72858 0.20858
 C692 C -0.08811 0.73197 0.19465
 H693 H -0.13579 0.76370 0.22781
 H694 H -0.17133 0.75694 0.25598
 H695 H -0.15674 0.67750 0.25503
 H696 H -0.12154 0.68447 0.22649
 C697 C 0.37380 0.22415 0.72557
 C698 C 0.36332 0.24418 0.73859
 C699 C 0.34316 0.24029 0.75474
 C700 C 0.33292 0.21612 0.75824
 C701 C 0.34388 0.19612 0.74481
 C702 C 0.36406 0.20015 0.72873
 C703 C 0.39456 0.22823 0.70896
 C704 C 0.41193 0.23165 0.69504
 H705 H 0.37060 0.26292 0.73612
 H706 H 0.33513 0.25659 0.76357
 H707 H 0.33775 0.17703 0.74732
 H708 H 0.37221 0.18444 0.71888
 C709 C 0.62666 0.27513 0.72552
 C710 C 0.63706 0.25507 0.73858
 C711 C 0.65717 0.25892 0.75480
 C712 C 0.66744 0.28307 0.75833
 C713 C 0.65657 0.30309 0.74484
 C714 C 0.63645 0.29911 0.72869
 C715 C 0.60594 0.27109 0.70887
 C716 C 0.58857 0.26771 0.69493
 H717 H 0.62975 0.23635 0.73609
 H718 H 0.66513 0.24260 0.76364
 H719 H 0.66276 0.32217 0.74736
 H720 H 0.62837 0.31484 0.71880
 C721 C 0.12654 0.77548 0.22528
 C722 C 0.14083 0.75523 0.23362
 C723 C 0.16094 0.75916 0.24983
 C724 C 0.16702 0.78344 0.25791
 C725 C 0.15254 0.80368 0.24940
 C726 C 0.13244 0.79971 0.23320
 C727 C 0.10584 0.77142 0.20862
 C728 C 0.08849 0.76802 0.19466
 H729 H 0.13647 0.73641 0.22755
 H730 H 0.17193 0.74324 0.25579
 H731 H 0.15659 0.82255 0.25552
 H732 H 0.12146 0.81551 0.22691
 C733 C 0.27466 0.12628 0.22469
 C734 C 0.24889 0.12315 0.22778
 C735 C 0.23269 0.14326 0.22385
 C736 C 0.24207 0.16679 0.21677
 C737 C 0.26802 0.16974 0.21371
 C738 C 0.28419 0.14960 0.21766
 C739 C 0.29132 0.10556 0.22872
 C740 C 0.30528 0.08820 0.23209
 H741 H 0.24132 0.10515 0.23315
 H742 H 0.21279 0.14032 0.22604
 H743 H 0.27583 0.18770 0.20858
 H744 H 0.30411 0.15225 0.21529
 C745 C 0.77455 0.62628 0.72448
 C746 C 0.78410 0.64960 0.71746
 C747 C 0.76796 0.66977 0.71354
 C748 C 0.74201 0.66685 0.71662
 C749 C 0.73260 0.64333 0.72369
 C750 C 0.74878 0.62319 0.72758
 C751 C 0.79119 0.60554 0.72849
 C752 C 0.80512 0.58817 0.73186
 H753 H 0.80403 0.65222 0.71508
 H754 H 0.77579 0.68772 0.70843
 H755 H 0.71270 0.64042 0.72589
 H756 H 0.74118 0.60519 0.73295
 C757 C 0.77455 0.37338 0.77529
 C758 C 0.74876 0.37655 0.77239
 C759 C 0.73256 0.35643 0.77634
 C760 C 0.74195 0.33286 0.78328
 C761 C 0.76791 0.32988 0.78616
 C762 C 0.78408 0.35002 0.78218
 C763 C 0.79121 0.39410 0.77121
 C764 C 0.80516 0.41146 0.76779
 H765 H 0.74118 0.39457 0.76712
 H766 H 0.71265 0.35938 0.77428
 H767 H 0.77573 0.31190 0.79118
 H768 H 0.80402 0.34735 0.78442
 C769 C 0.27461 -0.12658 0.27528
 C770 C 0.25000 -0.12544 0.26673
 C771 C 0.23376 -0.14553 0.27062
 C772 C 0.24179 -0.16736 0.28327
 C773 C 0.26684 -0.16805 0.29177
 C774 C 0.28298 -0.14790 0.28779
 C775 C 0.29127 -0.10586 0.27124
 C776 C 0.30523 -0.08849 0.26786
 H777 H 0.24325 -0.10889 0.25719
 H778 H 0.21465 -0.14326 0.26450
 H779 H 0.27457 -0.18447 0.30067
 H780 H 0.30211 -0.14906 0.29431
 C781 C 0.22523 -0.12657 0.72470
 C782 C 0.22845 -0.13636 0.70072
 C783 C 0.24466 -0.15645 0.69677
 C784 C 0.25813 -0.16728 0.71681
 C785 C 0.25454 -0.15702 0.74095
 C786 C 0.23828 -0.13694 0.74477
 C787 C 0.20854 -0.10587 0.72870
 C788 C 0.19457 -0.08852 0.73206
 H789 H 0.21858 -0.12831 0.68497
 H790 H 0.24721 -0.16264 0.67770
 H791 H 0.26338 -0.16495 0.75729
 H792 H 0.23574 -0.12963 0.76349
 C793 C 0.72535 0.37363 0.22484
 C794 C 0.73350 0.35925 0.24512
 C795 C 0.74977 0.33918 0.24126
 C796 C 0.75811 0.33324 0.21703
 C797 C 0.74976 0.34779 0.19676
 C798 C 0.73350 0.36786 0.20067
 C799 C 0.70864 0.39431 0.22885
 C800 C 0.69465 0.41165 0.23221
 H801 H 0.72724 0.36351 0.26390
 H802 H 0.75558 0.32811 0.25718
 H803 H 0.75607 0.34383 0.17794
 H804 H 0.72734 0.37890 0.18485
 C805 C 0.72531 0.62637 0.27515
 C806 C 0.71577 0.64975 0.28196
 C807 C 0.73194 0.66989 0.28591
 C808 C 0.75790 0.66689 0.28307
 C809 C 0.76730 0.64331 0.27618
 C810 C 0.75109 0.62320 0.27226
 C811 C 0.70864 0.60565 0.27113
 C812 C 0.69468 0.58829 0.26777
 H813 H 0.69583 0.65242 0.28418
 H814 H 0.72412 0.68788 0.29087
 H815 H 0.78721 0.64035 0.27415
 H816 H 0.75868 0.60516 0.26704
 C817 C 0.22544 0.12607 0.77524
 C818 C 0.23364 0.14044 0.75498
 C819 C 0.24991 0.16051 0.75886
 C820 C 0.25820 0.16645 0.78311
 C821 C 0.24981 0.15191 0.80336
 C822 C 0.23355 0.13184 0.79943
 C823 C 0.20872 0.10539 0.77121
 C824 C 0.19472 0.08806 0.76783
 H825 H 0.22741 0.13618 0.73619
 H826 H 0.25575 0.17158 0.74295
 H827 H 0.25608 0.15587 0.82219
 H828 H 0.22735 0.12080 0.81524
 C829 C 0.22461 0.27445 0.12617
 C830 C 0.20040 0.26664 0.13219
 C831 C 0.19644 0.25051 0.15237
 C832 C 0.21669 0.24196 0.16680
 C833 C 0.24097 0.24990 0.16057
 C834 C 0.24488 0.26605 0.14039
 C835 C 0.22866 0.29107 0.10540
 C836 C 0.23205 0.30500 0.08801
 H837 H 0.18458 0.27298 0.12126
 H838 H 0.17758 0.24446 0.15649
 H839 H 0.25689 0.24389 0.17151
 H840 H 0.26370 0.27203 0.13592
 C841 C 0.72459 0.77468 0.62619
 C842 C 0.70037 0.76689 0.63223
 C843 C 0.69642 0.75072 0.65239
 C844 C 0.71668 0.74212 0.66677
 C845 C 0.74096 0.75005 0.66053
 C846 C 0.74486 0.76623 0.64037
 C847 C 0.72862 0.79135 0.60546
 C848 C 0.73200 0.80531 0.58809
 H849 H 0.68455 0.77327 0.62133
 H850 H 0.67756 0.74469 0.65652
 H851 H 0.75689 0.74399 0.67143
 H852 H 0.76368 0.77220 0.63590
 C853 C 0.77538 0.77482 0.37338
 C854 C 0.77241 0.74902 0.37656
 C855 C 0.77632 0.73280 0.35645
 C856 C 0.78327 0.74218 0.33288
 C857 C 0.78622 0.76815 0.32989
 C858 C 0.78229 0.78435 0.35002
 C859 C 0.77133 0.79150 0.39409
 C860 C 0.76793 0.80546 0.41144
 H861 H 0.76714 0.74145 0.39459
 H862 H 0.77423 0.71288 0.35943
 H863 H 0.79126 0.77596 0.31190
 H864 H 0.78457 0.80429 0.34734
 C865 C 0.27534 0.27431 -0.12678
 C866 C 0.27242 0.24851 -0.12361
 C867 C 0.27639 0.23229 -0.14371
 C868 C 0.28335 0.24170 -0.16727
 C869 C 0.28624 0.26767 -0.17026
 C870 C 0.28225 0.28385 -0.15013
 C871 C 0.27127 0.29098 -0.10606
 C872 C 0.26788 0.30495 -0.08871
 H873 H 0.26714 0.24091 -0.10558
 H874 H 0.27433 0.21237 -0.14075
 H875 H 0.29129 0.27549 -0.18824
 H876 H 0.28450 0.30380 -0.15281
 C877 C 0.72478 0.22539 -0.12617
 C878 C 0.74498 0.23348 -0.14068
 C879 C 0.74103 0.24957 -0.16089
 C880 C 0.71677 0.25775 -0.16688
 C881 C 0.69659 0.24953 -0.15215
 C882 C 0.70060 0.23346 -0.13193
 C883 C 0.72886 0.20879 -0.10539
 C884 C 0.73226 0.19487 -0.08799
 H885 H 0.76378 0.22730 -0.13641
 H886 H 0.75689 0.25536 -0.17205
 H887 H 0.67776 0.25579 -0.15606
 H888 H 0.68484 0.22737 -0.12077
 C889 C 0.22469 0.72551 0.37363
 C890 C 0.20051 0.73347 0.36769
 C891 C 0.19659 0.74961 0.34751
 C892 C 0.21685 0.75801 0.33299
 C893 C 0.24109 0.74990 0.33913
 C894 C 0.24496 0.73375 0.35931
 C895 C 0.22869 0.70889 0.39440
 C896 C 0.23206 0.69496 0.41179
 H897 H 0.18469 0.72726 0.37870
 H898 H 0.17775 0.75578 0.34346
 H899 H 0.25701 0.75581 0.32812
 H900 H 0.26375 0.72765 0.36371
 C901 C 0.27547 0.72559 0.62657
 C902 C 0.27251 0.75138 0.62339
 C903 C 0.27641 0.76761 0.64350
 C904 C 0.28334 0.75822 0.66708
 C905 C 0.28629 0.73225 0.67007
 C906 C 0.28236 0.71606 0.64994
 C907 C 0.27141 0.70891 0.60586
 C908 C 0.26801 0.69494 0.58851
 H909 H 0.26724 0.75896 0.60536
 H910 H 0.27430 0.78752 0.64054
 H911 H 0.29130 0.72444 0.68806
 H912 H 0.28464 0.69612 0.65261
 C913 C 0.77539 0.22544 0.12689
 C914 C 0.78227 0.21588 0.15025
 C915 C 0.78623 0.23205 0.17039
 C916 C 0.78335 0.25803 0.16742
 C917 C 0.77642 0.26745 0.14385
 C918 C 0.77248 0.25124 0.12373
 C919 C 0.77135 0.20878 0.10616
 C920 C 0.76797 0.19483 0.08880
 H921 H 0.78451 0.19593 0.15291
 H922 H 0.79124 0.22422 0.18838
 H923 H 0.77436 0.28737 0.14090
 H924 H 0.76723 0.25884 0.10571
 C925 C 0.47459 0.37632 0.52495
 C926 C 0.46770 0.39966 0.53451
 C927 C 0.46372 0.41981 0.51834
 C928 C 0.46660 0.41685 0.49236
 C929 C 0.47355 0.39330 0.48294
 C930 C 0.47751 0.37318 0.49914
 C931 C 0.47866 0.35559 0.54161
 C932 C 0.48208 0.33822 0.55555
 H933 H 0.46546 0.40231 0.55447
 H934 H 0.45871 0.43778 0.52618
 H935 H 0.47561 0.39036 0.46301
 H936 H 0.48278 0.35516 0.49154
 C937 C -0.02541 0.87662 0.02465
 C938 C -0.00516 0.89085 0.01620
 C939 C -0.00910 0.91101 0.00004
 C940 C -0.03339 0.91722 -0.00787
 C941 C -0.05363 0.90279 0.00074
 C942 C -0.04964 0.88263 0.01689
 C943 C -0.02134 0.85587 0.04127
 C944 C -0.01792 0.83848 0.05519
 H945 H 0.01366 0.88640 0.02215
 H946 H 0.00681 0.92195 -0.00601
 H947 H -0.07250 0.90692 -0.00526
 H948 H -0.06545 0.87170 0.02327
 C949 C 0.02552 0.62366 0.02442
 C950 C 0.00523 0.60954 0.01591
 C951 C 0.00911 0.58939 -0.00027
 C952 C 0.03339 0.58309 -0.00814
 C953 C 0.05367 0.59741 0.00054
 C954 C 0.04974 0.61755 0.01671
 C955 C 0.02149 0.64440 0.04106
 C956 C 0.01811 0.66177 0.05501
 H957 H -0.01360 0.61407 0.02182
 H958 H -0.00684 0.57854 -0.00637
 H959 H 0.07254 0.59322 -0.00543
 H960 H 0.06558 0.62841 0.02313
 C961 C 0.52553 0.12353 0.52462
 C962 C 0.50529 0.10920 0.51634
 C963 C 0.50920 0.08908 0.50012
 C964 C 0.53346 0.08304 0.49198
 C965 C 0.55368 0.09756 0.50043
 C966 C 0.54972 0.11767 0.51664
 C967 C 0.52148 0.14423 0.54131
 C968 C 0.51809 0.16158 0.55528
 H969 H 0.48649 0.11353 0.52247
 H970 H 0.49330 0.07806 0.49421
 H971 H 0.57253 0.09354 0.49426
 H972 H 0.56552 0.12868 0.52289
 C973 C -0.02554 0.12357 0.47543
 C974 C -0.02262 0.12667 0.50124
 C975 C -0.02656 0.10652 0.51741
 C976 C -0.03349 0.08297 0.50795
 C977 C -0.03637 0.08006 0.48196
 C978 C -0.03241 0.10023 0.46583
 C979 C -0.02149 0.14434 0.45880
 C980 C -0.01809 0.16172 0.44486
 H981 H -0.01737 0.14468 0.50887
 H982 H -0.02450 0.10943 0.53734
 H983 H -0.04138 0.06209 0.47410
 H984 H -0.03465 0.09762 0.44587
 C985 C 0.47448 0.62383 0.97540
 C986 C 0.49477 0.60972 0.98393
 C987 C 0.49087 0.58954 1.00008
 C988 C 0.46657 0.58320 1.00790
 C989 C 0.44630 0.59751 0.99920
 C990 C 0.45025 0.61769 0.98307
 C991 C 0.47852 0.64459 0.95877
 C992 C 0.48192 0.66198 0.94484
 H993 H 0.51360 0.61428 0.97806
 H994 H 0.50681 0.57870 1.00620
 H995 H 0.42742 0.59329 1.00514
 H996 H 0.43442 0.62853 0.97662
 C997 C 0.52552 0.87670 0.97546
 C998 C 0.51697 0.87554 1.00010
 C999 C 0.52087 0.89562 1.01635
 C1000 C 0.53352 0.91745 1.00832
 C1001 C 0.54202 0.91815 0.98326
 C1002 C 0.53803 0.89802 0.96709
 C1003 C 0.52145 0.85600 0.95878
 C1004 C 0.51804 0.83865 0.94481
 H1005 H 0.50744 0.85899 1.00684
 H1006 H 0.51475 0.89333 1.03548
 H1007 H 0.55092 0.93457 0.97553
 H1008 H 0.54455 0.89919 0.94795
 C1009 C 0.02541 0.37662 0.47533
 C1010 C 0.00520 0.39110 0.48341
 C1011 C 0.00913 0.41129 0.49953
 C1012 C 0.03337 0.41728 0.50775
 C1013 C 0.05357 0.40258 0.49954
 C1014 C 0.04959 0.38239 0.48343
 C1015 C 0.02135 0.35585 0.45873
 C1016 C 0.01796 0.33846 0.44481
 H1017 H -0.01359 0.38683 0.47721
 H1018 H -0.00674 0.42242 0.50532
 H1019 H 0.07239 0.40650 0.50583
 H1020 H 0.06536 0.37125 0.47735
 C1021 C 0.37623 0.52469 0.47482
 C1022 C 0.37308 0.49889 0.47776
 C1023 C 0.39320 0.48269 0.47388
 C1024 C 0.41676 0.49211 0.46698
 C1025 C 0.41972 0.51809 0.46405
 C1026 C 0.39957 0.53425 0.46796
 C1027 C 0.35551 0.54134 0.47883
 C1028 C 0.33815 0.55530 0.48221
 H1029 H 0.35506 0.49128 0.48300
 H1030 H 0.39024 0.46277 0.47595
 H1031 H 0.43769 0.52592 0.45905
 H1032 H 0.40223 0.55420 0.46569
 C1033 C 0.87660 0.02480 -0.02501
 C1034 C 0.87547 0.00012 -0.01659
 C1035 C 0.89557 -0.01608 -0.02053
 C1036 C 0.91740 -0.00794 -0.03310
 C1037 C 0.91808 0.01717 -0.04146
 C1038 C 0.89792 0.03327 -0.03743
 C1039 C 0.85587 0.04142 -0.02094
 C1040 C 0.83850 0.05536 -0.01754
 H1041 H 0.85892 -0.00671 -0.00712
 H1042 H 0.89331 -0.03524 -0.01451
 H1043 H 0.93449 0.02499 -0.05026
 H1044 H 0.89908 0.05245 -0.04385
 C1045 C 0.62376 0.02461 0.02548
 C1046 C 0.60947 0.01636 0.00519
 C1047 C 0.58932 0.00019 0.00906
 C1048 C 0.58318 -0.00793 0.03331
 C1049 C 0.59767 0.00046 0.05360
 C1050 C 0.61782 0.01662 0.04968
 C1051 C 0.64450 0.04125 0.02148
 C1052 C 0.66187 0.05520 0.01814
 H1053 H 0.61387 0.02248 -0.01361
 H1054 H 0.57834 -0.00571 -0.00688
 H1055 H 0.59362 -0.00572 0.07244
 H1056 H 0.62881 0.02284 0.06552
 C1057 C 0.12341 0.52489 0.52545
 C1058 C 0.11360 0.52166 0.54942
 C1059 C 0.09346 0.50549 0.55335
 C1060 C 0.08263 0.49205 0.53328
 C1061 C 0.09293 0.49564 0.50916
 C1062 C 0.11304 0.51187 0.50536
 C1063 C 0.14415 0.54154 0.52147
 C1064 C 0.16153 0.55548 0.51812
 H1065 H 0.12165 0.53151 0.56518
 H1066 H 0.08725 0.50293 0.57241
 H1067 H 0.08499 0.48683 0.49280
 H1068 H 0.12037 0.51441 0.48665
 C1069 C 0.12369 0.47526 -0.02563
 C1070 C 0.12684 0.50106 -0.02272
 C1071 C 0.10673 0.51726 -0.02663
 C1072 C 0.08318 0.50784 -0.03353
 C1073 C 0.08019 0.48186 -0.03638
 C1074 C 0.10033 0.46570 -0.03245
 C1075 C 0.14440 0.45860 -0.02162
 C1076 C 0.16175 0.44463 -0.01826
 H1077 H 0.14487 0.50866 -0.01751
 H1078 H 0.10968 0.53719 -0.02459
 H1079 H 0.06222 0.47402 -0.04134
 H1080 H 0.09767 0.44574 -0.03467
 C1081 C 0.62345 0.97550 0.47446
 C1082 C 0.60212 0.96708 0.46202
 C1083 C 0.58196 0.98321 0.45807
 C1084 C 0.58265 1.00827 0.46655
 C1085 C 0.60448 1.01636 0.47913
 C1086 C 0.62458 1.00014 0.48299
 C1087 C 0.64418 0.95886 0.47848
 C1088 C 0.66154 0.94492 0.48185
 H1089 H 0.60097 0.94793 0.45552
 H1090 H 0.56555 0.97544 0.44922
 H1091 H 0.60674 1.03549 0.48523
 H1092 H 0.64113 1.00692 0.49248
 C1093 C 0.87624 0.97563 0.52531
 C1094 C 0.88597 0.97874 0.54932
 C1095 C 0.90613 0.99485 0.55337
 C1096 C 0.91707 1.00834 0.53338
 C1097 C 0.90683 1.00488 0.50922
 C1098 C 0.88670 0.98871 0.50530
 C1099 C 0.85551 0.95900 0.52122
 C1100 C 0.83814 0.94506 0.51780
 H1101 H 0.87784 0.96885 0.56502
 H1102 H 0.91225 0.99732 0.57247
 H1103 H 0.91485 1.01377 0.49293
 H1104 H 0.87942 0.98627 0.48656
 C1105 C 0.37632 0.47523 0.02502
 C1106 C 0.39966 0.46568 0.03188
 C1107 C 0.41978 0.48186 0.03589
 C1108 C 0.41679 0.50785 0.03307
 C1109 C 0.39324 0.51726 0.02614
 C1110 C 0.37315 0.50104 0.02216
 C1111 C 0.35562 0.45856 0.02094
 C1112 C 0.33827 0.44460 0.01754
 H1113 H 0.40234 0.44573 0.03408
 H1114 H 0.43775 0.47403 0.04088
 H1115 H 0.39028 0.53718 0.02413
 H1116 H 0.35513 0.50864 0.01692
 C1117 C 0.52451 0.47467 0.37656
 C1118 C 0.51683 0.45042 0.38267
 C1119 C 0.50066 0.44646 0.40281
 C1120 C 0.49194 0.46674 0.41711
 C1121 C 0.49978 0.49105 0.41081
 C1122 C 0.51596 0.49497 0.39066
 C1123 C 0.54116 0.47872 0.35583
 C1124 C 0.55511 0.48210 0.33846
 H1125 H 0.52328 0.43458 0.37183
 H1126 H 0.49471 0.42757 0.40700
 H1127 H 0.49365 0.50701 0.42165
 H1128 H 0.52185 0.51381 0.38613
 C1129 C 0.02450 -0.02525 0.87647
 C1130 C 0.03408 -0.03169 0.89994
 C1131 C 0.01794 -0.03551 0.92013
 C1132 C -0.00804 -0.03292 0.91709
 C1133 C -0.01750 -0.02647 0.89340
 C1134 C -0.00131 -0.02266 0.87324
 C1135 C 0.04114 -0.02129 0.85571
 C1136 C 0.05507 -0.01796 0.83832
 H1137 H 0.05404 -0.03368 0.90266
 H1138 H 0.02577 -0.04020 0.93819
 H1139 H -0.03742 -0.02469 0.89039
 H1140 H -0.00893 -0.01776 0.85513
 C1141 C 0.02445 0.02529 0.62350
 C1142 C 0.01631 0.04947 0.61776
 C1143 C 0.00007 0.05343 0.59768
 C1144 C -0.00827 0.03320 0.58309
 C1145 C 0.00006 0.00896 0.58899
 C1146 C 0.01631 0.00505 0.60907
 C1147 C 0.04113 0.02123 0.64420
 C1148 C 0.05509 0.01783 0.66155
 H1149 H 0.02246 0.06527 0.62885
 H1150 H -0.00622 0.07226 0.59375
 H1151 H -0.00574 -0.00693 0.57788
 H1152 H 0.02256 -0.01374 0.61331
 C1153 C 0.52452 0.52525 0.12358
 C1154 C 0.49874 0.52227 0.12671
 C1155 C 0.48255 0.52620 0.10659
 C1156 C 0.49196 0.53317 0.08303
 C1157 C 0.51791 0.53614 0.08008
 C1158 C 0.53407 0.53219 0.10023
 C1159 C 0.54116 0.52120 0.14431
 C1160 C 0.55510 0.51781 0.16167
 H1161 H 0.49114 0.51697 0.14473
 H1162 H 0.46264 0.52410 0.10953
 H1163 H 0.52574 0.54120 0.06211
 H1164 H 0.55400 0.53448 0.09758
 C1165 C 0.47549 -0.02550 0.12364
 C1166 C 0.48383 -0.00523 0.10935
 C1167 C 0.50005 -0.00913 0.08924
 C1168 C 0.50814 -0.03341 0.08316
 C1169 C 0.49963 -0.05367 0.09763
 C1170 C 0.48342 -0.04971 0.11774
 C1171 C 0.45880 -0.02145 0.14434
 C1172 C 0.44483 -0.01806 0.16168
 H1173 H 0.47775 0.01359 0.11372
 H1174 H 0.50602 0.00679 0.07826
 H1175 H 0.50575 -0.07253 0.09358
 H1176 H 0.47712 -0.06553 0.12871
 C1177 C 0.97541 0.47469 0.62344
 C1178 C 0.96591 0.46787 0.60005
 C1179 C 0.98211 0.46398 0.57992
 C1180 C 1.00807 0.46690 0.58294
 C1181 C 1.01743 0.47377 0.60654
 C1182 C 1.00119 0.47763 0.62665
 C1183 C 0.95872 0.47868 0.64415
 C1184 C 0.94475 0.48203 0.66150
 H1185 H 0.94598 0.46561 0.59735
 H1186 H 0.97432 0.45901 0.56191
 H1187 H 1.03733 0.47586 0.60952
 H1188 H 1.00875 0.48285 0.64469
 C1189 C 0.97527 0.52530 0.87620
 C1190 C 1.00105 0.52237 0.87301
 C1191 C 1.01727 0.52628 0.89311
 C1192 C 1.00790 0.53320 0.91670
 C1193 C 0.98194 0.53612 0.91970
 C1194 C 0.96576 0.53218 0.89957
 C1195 C 0.95860 0.52125 0.85550
 C1196 C 0.94463 0.51785 0.83815
 H1197 H 1.00862 0.51712 0.85498
 H1198 H 1.03717 0.52422 0.89013
 H1199 H 0.97415 0.54113 0.93769
 H1200 H 0.94582 0.53444 0.90226
 C1201 C 0.47536 0.02517 0.37647
 C1202 C 0.48366 0.00490 0.39078
 C1203 C 0.49984 0.00882 0.41091
 C1204 C 0.50793 0.03309 0.41701
 C1205 C 0.49948 0.05334 0.40250
 C1206 C 0.48330 0.04938 0.38236
 C1207 C 0.45871 0.02111 0.35574
 C1208 C 0.44477 0.01773 0.33838
 H1209 H 0.47757 -0.01392 0.38642
 H1210 H 0.50579 -0.00710 0.42191
 H1211 H 0.50563 0.07220 0.40651
 H1212 H 0.47705 0.06519 0.37136
   
