data_POSCAR
  _audit_creation_date              2014-09-24
  _audit_creation_method            'ToBaCCo'
  _symmetry_space_group_name_H-M    'P1'
  _symmetry_Int_Tables_number       1
  _symmetry_cell_setting            triclinic
  loop_
  _symmetry_equiv_pos_as_xyz
 x,y,z
_cell_length_a 18.0153
_cell_length_b 17.9234
_cell_length_c 25.0060
_cell_angle_alpha 88.647200
_cell_angle_beta 89.536500
_cell_angle_gamma 100.365900
loop_
  _atom_site_label
  _atom_site_type_symbol
  _atom_site_fract_x
  _atom_site_fract_y
  _atom_site_fract_z
O1 O 0.07478 0.57964 1.04259
 O2 O 0.05862 0.43816 0.93819
 O3 O 0.06968 0.58547 0.93876
 O4 O 0.05022 0.43160 1.04225
 O5 O -0.07337 0.42508 1.04194
 O6 O -0.05408 0.57665 0.93947
 O7 O -0.06518 0.42944 0.93812
 O8 O -0.04874 0.57315 1.04348
 Cu9 Cu 0.07561 0.50943 0.99040
 Cu10 Cu -0.07261 0.50038 0.99077
 C11 C 0.01636 0.60111 1.06071
 C12 C -0.00562 0.40912 0.92052
 C13 C 0.01064 0.60754 0.92174
 C14 C -0.01550 0.40196 1.05940
 O15 O 0.42254 -0.09528 0.45021
 O16 O 0.56427 -0.10039 0.55259
 O17 O 0.41994 -0.09244 0.55417
 O18 O 0.56981 -0.07363 0.44922
 O19 O 0.58144 0.05094 0.45261
 O20 O 0.43606 0.03254 0.55625
 O21 O 0.58263 0.02420 0.55773
 O22 O 0.43695 0.02934 0.45399
 Cu23 Cu 0.49274 -0.10261 0.50127
 Cu24 Cu 0.51220 0.04536 0.50670
 C25 C 0.40483 -0.03319 0.43451
 C26 C 0.59849 -0.03970 0.57240
 C27 C 0.40207 -0.03217 0.57253
 C28 C 0.60085 -0.00726 0.43295
 C29 C -0.08280 0.00855 0.28033
 C30 C -0.01786 0.02553 0.24814
 C31 C -0.00425 0.09214 0.21657
 C32 C -0.05575 0.14257 0.21682
 C33 C -0.12126 0.12451 0.24904
 C34 C -0.13471 0.05805 0.28170
 C35 C 0.03542 -0.02742 0.24685
 C36 C 0.02115 -0.09066 0.21433
 C37 C 0.07162 -0.14164 0.21234
 C38 C 0.13578 -0.12962 0.24521
 C39 C 0.14976 -0.06674 0.27899
 C40 C 0.09984 -0.01513 0.27855
 H41 H -0.09247 -0.04323 0.30469
 H42 H 0.04532 0.10249 0.19092
 H43 H -0.02896 -0.09940 0.18987
 H44 H 0.10995 0.03379 0.30395
 H45 H -0.16196 0.16209 0.24771
 H46 H 0.17454 -0.16897 0.24466
 C47 C -0.02690 -0.08464 0.77716
 C48 C -0.02716 -0.01731 0.74782
 C49 C -0.09181 -0.00639 0.72025
 C50 C -0.15728 -0.06267 0.72205
 C51 C -0.15633 -0.13003 0.75192
 C52 C -0.09150 -0.14180 0.77942
 C53 C 0.03987 0.04302 0.74729
 C54 C 0.10492 0.03420 0.71896
 C55 C 0.16933 0.09169 0.71870
 C56 C 0.16728 0.15786 0.74741
 C57 C 0.10224 0.16724 0.77599
 C58 C 0.03853 0.10908 0.77568
 H59 H 0.02303 -0.09049 0.79946
 H60 H -0.08941 0.04550 0.69687
 H61 H 0.10374 -0.01659 0.69623
 H62 H -0.01165 0.11324 0.79863
 H63 H -0.20642 -0.17385 0.75365
 H64 H 0.21669 0.20248 0.74747
 C65 C 0.02406 -0.34006 0.10159
 C66 C 0.09220 -0.30676 0.11884
 C67 C 0.10654 -0.24483 0.15764
 C68 C 0.05430 -0.20682 0.17604
 H69 H 0.14211 -0.32533 0.10355
 H70 H 0.16483 -0.22793 0.16884
 H71 H -0.02708 -0.32401 0.11657
 H72 H -0.00299 -0.22052 0.16198
 C73 C -0.02686 0.33901 0.09918
 C74 C 0.03023 0.31136 0.12155
 C75 C 0.02037 0.24468 0.15892
 C76 C -0.04563 0.21219 0.18206
 H77 H 0.08769 0.33643 0.11038
 H78 H 0.07115 0.22283 0.16773
 H79 H -0.08476 0.31394 0.10846
 H80 H -0.09502 0.23774 0.17652
 C81 C 0.34004 -0.03725 0.61210
 C82 C 0.32147 0.02532 0.63274
 C83 C 0.25529 0.02260 0.66819
 C84 C 0.23794 0.08709 0.68660
 H85 H 0.35426 0.08049 0.62178
 H86 H 0.22070 -0.03186 0.67815
 H87 H 0.30776 -0.09261 0.62303
 H88 H 0.27603 0.14002 0.67739
 C89 C -0.34537 -0.04525 0.60961
 C90 C -0.30400 0.01473 0.63297
 C91 C -0.23938 0.00938 0.66841
 C92 C -0.22610 -0.05563 0.69130
 H93 H -0.31407 0.07129 0.62328
 H94 H -0.20191 0.06231 0.67543
 H95 H -0.33400 -0.10159 0.61768
 H96 H -0.26735 -0.10704 0.68784
 C97 C 0.01753 -0.33285 0.88395
 C98 C -0.04259 -0.30636 0.86523
 C99 C -0.03416 -0.23948 0.82884
 C100 C -0.09498 -0.21225 0.81246
 H101 H -0.09906 -0.33256 0.87825
 H102 H 0.02205 -0.21232 0.81634
 H103 H 0.07365 -0.30622 0.87050
 H104 H -0.15049 -0.24305 0.82396
 C105 C -0.01158 0.34988 0.88011
 C106 C 0.04946 0.32604 0.86091
 C107 C 0.04281 0.26157 0.82476
 C108 C 0.10444 0.23615 0.80813
 H109 H 0.10522 0.35237 0.87370
 H110 H -0.01292 0.23433 0.81283
 H111 H -0.06733 0.32343 0.86741
 H112 H 0.15950 0.26702 0.81891
 C113 C -0.33927 0.00231 0.39143
 C114 C -0.30519 0.07179 0.37424
 C115 C -0.24181 0.08861 0.33527
 C116 C -0.20214 0.03761 0.31728
 H117 H -0.32416 0.12112 0.38984
 H118 H -0.22491 0.14782 0.32394
 H119 H -0.32313 -0.04830 0.37590
 H120 H -0.21593 -0.02069 0.33154
 C121 C 0.34581 -0.03402 0.39379
 C122 C 0.31076 -0.09979 0.37361
 C123 C 0.24870 -0.10896 0.33462
 C124 C 0.21541 -0.05299 0.31531
 H125 H 0.32756 -0.15224 0.38681
 H126 H 0.22774 -0.16682 0.32358
 H127 H 0.33116 0.01958 0.38139
 H128 H 0.23313 0.00428 0.32873
   
