data_POSCAR
  _audit_creation_date              2014-09-24
  _audit_creation_method            'ToBaCCo'
  _symmetry_space_group_name_H-M    'P1'
  _symmetry_Int_Tables_number       1
  _symmetry_cell_setting            triclinic
  loop_
  _symmetry_equiv_pos_as_xyz
 x,y,z
_cell_length_a 52.3977
_cell_length_b 52.4061
_cell_length_c 52.3999
_cell_angle_alpha 90.002200
_cell_angle_beta 89.993700
_cell_angle_gamma 89.965100
loop_
  _atom_site_label
  _atom_site_type_symbol
  _atom_site_fract_x
  _atom_site_fract_y
  _atom_site_fract_z
C1 C 0.20429 0.19213 0.22915
 C2 C 0.18361 0.19636 0.24563
 C3 C 0.16709 0.21698 0.24153
 C4 C 0.17109 0.23353 0.22092
 C5 C 0.19166 0.22959 0.20424
 C6 C 0.20836 0.20880 0.20834
 C7 C 0.22096 0.17155 0.23307
 C8 C 0.24154 0.16751 0.21649
 C9 C 0.24562 0.18400 0.19585
 C10 C 0.22914 0.20468 0.19164
 C11 C 0.23304 0.22133 0.17103
 C12 C 0.21646 0.24192 0.16702
 C13 C 0.19585 0.24604 0.18355
 H14 H 0.18035 0.18365 0.26164
 H15 H 0.15818 0.24944 0.21791
 H16 H 0.21796 0.15866 0.24899
 H17 H 0.26161 0.18070 0.18312
 H18 H 0.24894 0.21831 0.15812
 H19 H 0.18312 0.26204 0.18027
 C20 C 0.70425 0.69164 0.72875
 C21 C 0.68357 0.69579 0.74524
 C22 C 0.66699 0.71637 0.74116
 C23 C 0.67095 0.73296 0.72057
 C24 C 0.69154 0.72909 0.70390
 C25 C 0.70829 0.70834 0.70797
 C26 C 0.72098 0.67110 0.73266
 C27 C 0.74158 0.66714 0.71609
 C28 C 0.74563 0.68367 0.69547
 C29 C 0.72909 0.70431 0.69127
 C30 C 0.73296 0.72099 0.67070
 C31 C 0.71633 0.74154 0.66670
 C32 C 0.69570 0.74558 0.68322
 H33 H 0.68033 0.68305 0.76123
 H34 H 0.65800 0.74884 0.71758
 H35 H 0.71802 0.65819 0.74857
 H36 H 0.76164 0.68044 0.68275
 H37 H 0.74888 0.71803 0.65779
 H38 H 0.68293 0.76155 0.67996
 C39 C 0.29471 0.80834 0.72971
 C40 C 0.31536 0.80409 0.74622
 C41 C 0.33185 0.78343 0.74215
 C42 C 0.32784 0.76686 0.72157
 C43 C 0.30728 0.77082 0.70487
 C44 C 0.29062 0.79165 0.70893
 C45 C 0.27810 0.82897 0.73360
 C46 C 0.25753 0.83306 0.71698
 C47 C 0.25344 0.81651 0.69635
 C48 C 0.26988 0.79579 0.69220
 C49 C 0.26597 0.77913 0.67160
 C50 C 0.28252 0.75850 0.66762
 C51 C 0.30309 0.75435 0.68419
 H52 H 0.31865 0.81681 0.76221
 H53 H 0.34072 0.75092 0.71858
 H54 H 0.28116 0.84185 0.74953
 H55 H 0.23748 0.81978 0.68355
 H56 H 0.25010 0.78217 0.65867
 H57 H 0.31580 0.73833 0.68094
 C58 C 0.79610 0.30815 0.22929
 C59 C 0.81673 0.30403 0.24585
 C60 C 0.83333 0.28341 0.24188
 C61 C 0.82940 0.26677 0.22130
 C62 C 0.80886 0.27062 0.20456
 C63 C 0.79211 0.29140 0.20854
 C64 C 0.77939 0.32873 0.23309
 C65 C 0.75884 0.33267 0.21644
 C66 C 0.75484 0.31608 0.19586
 C67 C 0.77137 0.29541 0.19177
 C68 C 0.76755 0.27869 0.17122
 C69 C 0.78417 0.25811 0.16732
 C70 C 0.80475 0.25408 0.18392
 H71 H 0.81987 0.31685 0.26181
 H72 H 0.84231 0.25084 0.21832
 H73 H 0.78231 0.34168 0.24897
 H74 H 0.73888 0.31930 0.18307
 H75 H 0.75168 0.28164 0.15826
 H76 H 0.81750 0.23809 0.18073
 C77 C 0.79632 0.69206 0.27014
 C78 C 0.81702 0.69615 0.25366
 C79 C 0.83359 0.71676 0.25767
 C80 C 0.82956 0.73344 0.27821
 C81 C 0.80894 0.72962 0.29487
 C82 C 0.79223 0.70885 0.29085
 C83 C 0.77963 0.67149 0.26629
 C84 C 0.75902 0.66759 0.28286
 C85 C 0.75492 0.68421 0.30341
 C86 C 0.77142 0.70487 0.30754
 C87 C 0.76749 0.72163 0.32804
 C88 C 0.78408 0.74220 0.33199
 C89 C 0.80473 0.74619 0.31547
 H90 H 0.82024 0.68330 0.23773
 H91 H 0.84244 0.74937 0.28122
 H92 H 0.78264 0.65852 0.25045
 H93 H 0.73890 0.68102 0.31612
 H94 H 0.75156 0.71871 0.34094
 H95 H 0.81747 0.76218 0.31870
 C96 C 0.29628 0.19232 -0.22966
 C97 C 0.31702 0.19645 -0.24608
 C98 C 0.33351 0.21711 -0.24204
 C99 C 0.32936 0.23381 -0.22154
 C100 C 0.30871 0.22995 -0.20494
 C101 C 0.29207 0.20913 -0.20899
 C102 C 0.27966 0.17170 -0.23353
 C103 C 0.25901 0.16775 -0.21701
 C104 C 0.25480 0.18438 -0.19651
 C105 C 0.27122 0.20510 -0.19236
 C106 C 0.26719 0.22187 -0.17188
 C107 C 0.28371 0.24249 -0.16790
 C108 C 0.30439 0.24653 -0.18436
 H109 H 0.32033 0.18359 -0.26198
 H110 H 0.34220 0.24977 -0.21851
 H111 H 0.28276 0.15871 -0.24935
 H112 H 0.23876 0.18116 -0.18383
 H113 H 0.25124 0.21890 -0.15902
 H114 H 0.31707 0.26255 -0.18112
 C115 C 0.70406 0.30775 -0.22933
 C116 C 0.68338 0.30358 -0.24581
 C117 C 0.66686 0.28294 -0.24177
 C118 C 0.67092 0.26631 -0.22120
 C119 C 0.69151 0.27021 -0.20454
 C120 C 0.70818 0.29100 -0.20859
 C121 C 0.72071 0.32834 -0.23320
 C122 C 0.74131 0.33232 -0.21663
 C123 C 0.74543 0.31575 -0.19606
 C124 C 0.72897 0.29506 -0.19190
 C125 C 0.73292 0.27835 -0.17136
 C126 C 0.71637 0.25774 -0.16739
 C127 C 0.69574 0.25368 -0.18390
 H128 H 0.68014 0.31639 -0.26177
 H129 H 0.65806 0.25036 -0.21817
 H130 H 0.71769 0.34128 -0.24908
 H131 H 0.76143 0.31899 -0.18334
 H132 H 0.74883 0.28133 -0.15846
 H133 H 0.68304 0.23767 -0.18066
 C134 C 0.20472 0.80851 0.27014
 C135 C 0.18408 0.80429 0.25362
 C136 C 0.16760 0.78364 0.25767
 C137 C 0.17160 0.76706 0.27825
 C138 C 0.19214 0.77099 0.29495
 C139 C 0.20881 0.79181 0.29092
 C140 C 0.22135 0.82913 0.26627
 C141 C 0.24191 0.83317 0.28291
 C142 C 0.24599 0.81662 0.30353
 C143 C 0.22954 0.79591 0.30766
 C144 C 0.23344 0.77923 0.32824
 C145 C 0.21690 0.75862 0.33220
 C146 C 0.19633 0.75451 0.31563
 H147 H 0.18081 0.81702 0.23763
 H148 H 0.15873 0.75113 0.28121
 H149 H 0.21829 0.84201 0.25034
 H150 H 0.26194 0.81985 0.31634
 H151 H 0.24931 0.78225 0.34119
 H152 H 0.18363 0.73850 0.31886
 C153 C 0.44225 0.45449 0.47969
 C154 C 0.44644 0.43382 0.49618
 C155 C 0.46706 0.41728 0.49211
 C156 C 0.48366 0.42127 0.47153
 C157 C 0.47976 0.44185 0.45485
 C158 C 0.45897 0.45856 0.45892
 C159 C 0.42166 0.47116 0.48358
 C160 C 0.41766 0.49174 0.46698
 C161 C 0.43420 0.49582 0.44638
 C162 C 0.45489 0.47933 0.44221
 C163 C 0.47157 0.48323 0.42163
 C164 C 0.49217 0.46664 0.41764
 C165 C 0.49625 0.44603 0.43418
 H166 H 0.43370 0.43056 0.51217
 H167 H 0.49957 0.40836 0.46854
 H168 H 0.40874 0.46817 0.49947
 H169 H 0.43094 0.51180 0.43364
 H170 H 0.46857 0.49912 0.40872
 H171 H 0.51225 0.43330 0.43092
 C172 C -0.05841 -0.04563 0.97911
 C173 C -0.05432 -0.06639 0.99552
 C174 C -0.03371 -0.08294 0.99144
 C175 C -0.01704 -0.07888 0.97095
 C176 C -0.02084 -0.05822 0.95435
 C177 C -0.04162 -0.04149 0.95842
 C178 C -0.07899 -0.02894 0.98302
 C179 C -0.08291 -0.00825 0.96651
 C180 C -0.06626 -0.00412 0.94597
 C181 C -0.04559 -0.02063 0.94180
 C182 C -0.02882 -0.01667 0.92131
 C183 C -0.00824 -0.03328 0.91732
 C184 C -0.00426 -0.05397 0.93377
 H185 H -0.06712 -0.06971 1.01144
 H186 H -0.00114 -0.09180 0.96796
 H187 H -0.09194 -0.03204 0.99888
 H188 H -0.06939 0.01193 0.93326
 H189 H -0.03173 -0.00070 0.90846
 H190 H 0.01173 -0.06672 0.93051
 C191 C 1.05803 0.54540 0.98006
 C192 C 1.05383 0.56606 0.99656
 C193 C 1.03317 0.58258 0.99252
 C194 C 1.01656 0.57856 0.97194
 C195 C 1.02049 0.55799 0.95525
 C196 C 1.04131 0.54131 0.95930
 C197 C 1.07866 0.52876 0.98392
 C198 C 1.08270 0.50817 0.96730
 C199 C 1.06612 0.50409 0.94670
 C200 C 1.04541 0.52056 0.94257
 C201 C 1.02872 0.51665 0.92200
 C202 C 1.00810 0.53321 0.91804
 C203 C 1.00399 0.55379 0.93459
 H204 H 1.06662 0.56928 1.01253
 H205 H 1.00060 0.59141 0.96891
 H206 H 1.09156 0.53182 0.99983
 H207 H 1.06935 0.48813 0.93390
 H208 H 1.03174 0.50077 0.90907
 H209 H 0.98797 0.56650 0.93135
 C210 C 0.55824 0.04489 0.47985
 C211 C 0.55411 0.06555 0.49638
 C212 C 0.53344 0.08206 0.49243
 C213 C 0.51674 0.07805 0.47194
 C214 C 0.52059 0.05750 0.45523
 C215 C 0.54142 0.04081 0.45917
 C216 C 0.57888 0.02825 0.48362
 C217 C 0.58284 0.00768 0.46698
 C218 C 0.56618 0.00360 0.44645
 C219 C 0.54544 0.02006 0.44242
 C220 C 0.52866 0.01617 0.42193
 C221 C 0.50803 0.03273 0.41806
 C222 C 0.50399 0.05331 0.43464
 H223 H 0.56693 0.06882 0.51230
 H224 H 0.50080 0.09095 0.46905
 H225 H 0.59185 0.03131 0.49948
 H226 H 0.56935 -0.01236 0.43364
 H227 H 0.53162 0.00029 0.40897
 H228 H 0.48796 0.06603 0.43148
 C229 C -0.05826 0.04613 0.52093
 C230 C -0.05413 0.06684 0.50449
 C231 C -0.03352 0.08335 0.50855
 C232 C -0.01687 0.07931 0.52907
 C233 C -0.02071 0.05869 0.54571
 C234 C -0.04149 0.04200 0.54165
 C235 C -0.07884 0.02946 0.51705
 C236 C -0.08278 0.00884 0.53359
 C237 C -0.06619 0.00470 0.55415
 C238 C -0.04551 0.02118 0.55832
 C239 C -0.02877 0.01723 0.57884
 C240 C -0.00818 0.03380 0.58281
 C241 C -0.00416 0.05445 0.56632
 H242 H -0.06691 0.07013 0.48854
 H243 H -0.00096 0.09221 0.53205
 H244 H -0.09180 0.03249 0.50119
 H245 H -0.06940 -0.01132 0.56685
 H246 H -0.03172 0.00130 0.59172
 H247 H 0.01183 0.06718 0.56957
 C248 C 0.44176 0.54618 0.02043
 C249 C 0.44598 0.56681 0.00390
 C250 C 0.46666 0.58330 0.00792
 C251 C 0.48326 0.57926 0.02851
 C252 C 0.47931 0.55872 0.04522
 C253 C 0.45848 0.54209 0.04119
 C254 C 0.42113 0.52957 0.01658
 C255 C 0.41710 0.50903 0.03320
 C256 C 0.43364 0.50493 0.05380
 C257 C 0.45436 0.52135 0.05793
 C258 C 0.47105 0.51742 0.07850
 C259 C 0.49168 0.53394 0.08245
 C260 C 0.49581 0.55451 0.06588
 H261 H 0.43320 0.57004 -0.01208
 H262 H 0.49924 0.59209 0.03152
 H263 H 0.40822 0.53258 0.00068
 H264 H 0.43034 0.48896 0.06655
 H265 H 0.46802 0.50155 0.09143
 H266 H 0.51184 0.56718 0.06911
 C267 C 0.55847 -0.04609 0.02126
 C268 C 0.55425 -0.06673 0.00474
 C269 C 0.53360 -0.08321 0.00879
 C270 C 0.51701 -0.07920 0.02937
 C271 C 0.52094 -0.05866 0.04608
 C272 C 0.54176 -0.04200 0.04204
 C273 C 0.57908 -0.02946 0.01739
 C274 C 0.58310 -0.00891 0.03400
 C275 C 0.56657 -0.00481 0.05461
 C276 C 0.54586 -0.02125 0.05877
 C277 C 0.52918 -0.01734 0.07935
 C278 C 0.50856 -0.03387 0.08331
 C279 C 0.50445 -0.05445 0.06675
 H280 H 0.56698 -0.07000 -0.01125
 H281 H 0.50108 -0.09207 0.03234
 H282 H 0.59199 -0.03246 0.00148
 H283 H 0.56986 0.01116 0.06736
 H284 H 0.53219 -0.00146 0.09228
 H285 H 0.48843 -0.06714 0.06998
 C286 C 1.05784 0.45425 0.52005
 C287 C 1.05359 0.43366 0.50348
 C288 C 1.03299 0.41710 0.50757
 C289 C 1.01649 0.42102 0.52827
 C290 C 1.02047 0.44152 0.54502
 C291 C 1.04123 0.45823 0.54093
 C292 C 1.07840 0.47094 0.51614
 C293 C 1.08247 0.49143 0.53281
 C294 C 1.06603 0.49542 0.55352
 C295 C 1.04538 0.47892 0.55772
 C296 C 1.02880 0.48274 0.57839
 C297 C 1.00824 0.46615 0.58240
 C298 C 1.00408 0.44562 0.56579
 H299 H 1.06630 0.43052 0.48742
 H300 H 1.00057 0.40813 0.53134
 H301 H 1.09124 0.46802 0.50016
 H302 H 1.06935 0.51135 0.56631
 H303 H 1.03185 0.49858 0.59136
 H304 H 0.98810 0.43288 0.56907
 C305 C 0.41377 0.01154 0.21629
 H306 H 0.41476 0.02883 0.22752
 C307 C 0.43052 0.00794 0.19587
 H308 H 0.44442 0.02252 0.19126
 C309 C 0.39470 -0.02881 0.20874
 H310 H 0.38102 -0.04326 0.21404
 C311 C 0.41111 -0.03317 0.18818
 H312 H 0.40983 -0.05086 0.17756
 N313 N 0.39612 -0.00659 0.22213
 C314 C 0.33556 0.03414 0.26229
 H315 H 0.33445 0.02296 0.27961
 C316 C 0.31897 0.05468 0.25861
 H317 H 0.30507 0.05943 0.27316
 C318 C 0.35477 0.04144 0.22195
 H319 H 0.36844 0.03600 0.20752
 C320 C 0.33852 0.06212 0.21751
 H321 H 0.33992 0.07268 0.19979
 Zn322 Zn 0.37455 -0.00038 0.25046
 N323 N 0.35320 0.02811 0.24419
 C324 C 0.39446 0.02797 0.29234
 N325 N 0.39588 0.00572 0.27899
 C326 C 0.41340 -0.01249 0.28499
 C327 C 0.43003 -0.00895 0.30551
 C328 C 0.41074 0.03228 0.31301
 C329 C 0.33552 -0.03466 0.23826
 C330 C 0.31882 -0.05513 0.24175
 C331 C 0.33799 -0.06275 0.28300
 C332 C 0.35434 -0.04213 0.27875
 N333 N 0.35302 -0.02875 0.25652
 H334 H 0.38088 0.04249 0.28692
 H335 H 0.41441 -0.02980 0.27378
 H336 H 0.44385 -0.02359 0.31023
 H337 H 0.40946 0.05000 0.32359
 H338 H 0.33461 -0.02343 0.22096
 H339 H 0.30504 -0.05978 0.22706
 H340 H 0.33919 -0.07336 0.30071
 H341 H 0.36791 -0.03679 0.29330
 C342 C 0.32052 0.06882 0.23604
 C343 C 0.42912 -0.01460 0.18166
 C344 C 0.32013 -0.06933 0.26430
 C345 C 0.42863 0.01363 0.31967
 C346 C 0.08653 -0.01180 0.71575
 H347 H 0.08550 -0.02910 0.72697
 C348 C 0.06983 -0.00818 0.69530
 H349 H 0.05594 -0.02276 0.69064
 C350 C 0.10561 0.02855 0.70829
 H351 H 0.11928 0.04300 0.71363
 C352 C 0.08926 0.03294 0.68769
 H353 H 0.09057 0.05063 0.67708
 N354 N 0.10415 0.00633 0.72166
 C355 C 0.16457 -0.03439 0.76203
 H356 H 0.16563 -0.02318 0.77933
 C357 C 0.18115 -0.05496 0.75844
 H358 H 0.19500 -0.05970 0.77304
 C359 C 0.14549 -0.04174 0.72164
 H360 H 0.13186 -0.03631 0.70717
 C361 C 0.16172 -0.06244 0.71729
 H362 H 0.16037 -0.07304 0.69959
 Zn363 Zn 0.12562 0.00011 0.75006
 N364 N 0.14699 -0.02838 0.74387
 C365 C 0.10557 -0.02824 0.79186
 N366 N 0.10419 -0.00599 0.77851
 C367 C 0.08665 0.01222 0.78448
 C368 C 0.06996 0.00866 0.80495
 C369 C 0.08923 -0.03257 0.81247
 C370 C 0.16469 0.03439 0.73798
 C371 C 0.18137 0.05486 0.74151
 C372 C 0.16207 0.06250 0.78270
 C373 C 0.14573 0.04188 0.77841
 N374 N 0.14713 0.02849 0.75618
 H375 H 0.11917 -0.04276 0.78646
 H376 H 0.08568 0.02954 0.77328
 H377 H 0.05612 0.02330 0.80964
 H378 H 0.09047 -0.05030 0.82303
 H379 H 0.16566 0.02316 0.72068
 H380 H 0.19520 0.05951 0.72687
 H381 H 0.16080 0.07312 0.80040
 H382 H 0.13211 0.03654 0.79292
 C383 C 0.17965 -0.06914 0.73588
 C384 C 0.07127 0.01437 0.68111
 C385 C 0.17999 0.06907 0.76405
 C386 C 0.07131 -0.01392 0.81909
 C387 C 0.58622 0.48831 0.21552
 H388 H 0.58523 0.47098 0.22670
 C389 C 0.56953 0.49193 0.19506
 H390 H 0.55568 0.47733 0.19036
 C391 C 0.60521 0.52872 0.20815
 H392 H 0.61885 0.54319 0.21353
 C393 C 0.58887 0.53311 0.18755
 H394 H 0.59015 0.55083 0.17698
 N395 N 0.60380 0.50646 0.22147
 C396 C 0.66436 0.46585 0.26172
 H397 H 0.66540 0.47705 0.27904
 C398 C 0.68102 0.44536 0.25810
 H399 H 0.69490 0.44066 0.27268
 C400 C 0.64526 0.45846 0.22135
 H401 H 0.63160 0.46385 0.20690
 C402 C 0.66157 0.43783 0.21696
 H403 H 0.66025 0.42724 0.19925
 Zn404 Zn 0.62531 0.50024 0.24984
 N405 N 0.64674 0.47181 0.24359
 C406 C 0.60540 0.47176 0.29161
 N407 N 0.60394 0.49404 0.27832
 C408 C 0.58639 0.51222 0.28438
 C409 C 0.56978 0.50859 0.30491
 C410 C 0.58914 0.46737 0.31228
 C411 C 0.66431 0.53457 0.23777
 C412 C 0.68101 0.55503 0.24132
 C413 C 0.66176 0.56259 0.28255
 C414 C 0.64541 0.54199 0.27824
 N415 N 0.64678 0.52864 0.25599
 H416 H 0.61900 0.45728 0.28615
 H417 H 0.58536 0.52956 0.27323
 H418 H 0.55595 0.52321 0.30968
 H419 H 0.59045 0.44963 0.32281
 H420 H 0.66527 0.52336 0.22045
 H421 H 0.69483 0.55969 0.22667
 H422 H 0.66052 0.57318 0.30026
 H423 H 0.63181 0.53663 0.29275
 C424 C 0.67956 0.43119 0.23553
 C425 C 0.57092 0.51451 0.18092
 C426 C 0.67966 0.56919 0.26389
 C427 C 0.57122 0.48599 0.31901
 C428 C 0.91415 0.51148 0.71588
 H429 H 0.91517 0.52881 0.72706
 C430 C 0.93082 0.50784 0.69540
 H431 H 0.94468 0.52243 0.69068
 C432 C 0.89509 0.47110 0.70852
 H433 H 0.88144 0.45665 0.71391
 C434 C 0.91141 0.46670 0.68789
 H435 H 0.91009 0.44899 0.67731
 N436 N 0.89654 0.49336 0.72184
 C437 C 0.83602 0.53413 0.76200
 H438 H 0.83495 0.52298 0.77934
 C439 C 0.81938 0.55462 0.75830
 H440 H 0.80549 0.55937 0.77286
 C441 C 0.85516 0.54138 0.72161
 H442 H 0.86882 0.53593 0.70718
 C443 C 0.83887 0.56201 0.71715
 H444 H 0.84022 0.57254 0.69941
 Zn445 Zn 0.87503 0.49964 0.75020
 N446 N 0.85365 0.52809 0.74389
 C447 C 0.89495 0.52812 0.79197
 N448 N 0.89639 0.50584 0.77869
 C449 C 0.91391 0.48765 0.78476
 C450 C 0.93051 0.49126 0.80529
 C451 C 0.91120 0.53250 0.81264
 C452 C 0.83598 0.46535 0.73815
 C453 C 0.81927 0.44491 0.74171
 C454 C 0.83848 0.43737 0.78295
 C455 C 0.85486 0.45795 0.77863
 N456 N 0.85352 0.47128 0.75636
 H457 H 0.88137 0.54262 0.78649
 H458 H 0.91493 0.47030 0.77361
 H459 H 0.94432 0.47663 0.81007
 H460 H 0.90990 0.55025 0.82317
 H461 H 0.83505 0.47653 0.72082
 H462 H 0.80545 0.44024 0.72705
 H463 H 0.83970 0.42680 0.80068
 H464 H 0.86845 0.46331 0.79314
 C465 C 0.82087 0.56871 0.73569
 C466 C 0.92937 0.48527 0.68124
 C467 C 0.82059 0.43076 0.76429
 C468 C 0.92909 0.51387 0.81939
 C469 C 0.21504 0.41466 0.01189
 H470 H 0.22627 0.41561 0.02919
 C471 C 0.19452 0.43131 0.00840
 H472 H 0.18982 0.44509 0.02309
 C473 C 0.20762 0.39582 -0.02860
 H474 H 0.21302 0.38226 -0.04315
 C475 C 0.18696 0.41212 -0.03285
 H476 H 0.17635 0.41089 -0.05055
 N477 N 0.22101 0.39717 -0.00637
 C478 C 0.26160 0.33661 0.03390
 H479 H 0.27891 0.33567 0.02267
 C480 C 0.25807 0.31987 0.05433
 H481 H 0.27272 0.30603 0.05896
 C482 C 0.22114 0.35552 0.04140
 H483 H 0.20663 0.36914 0.03608
 C484 C 0.21685 0.33913 0.06198
 H485 H 0.19914 0.34035 0.07259
 Zn486 Zn 0.24949 0.37575 -0.00031
 N487 N 0.24338 0.35418 0.02802
 C488 C 0.29126 0.39569 0.02816
 N489 N 0.27787 0.39721 0.00594
 C490 C 0.28378 0.41487 -0.01216
 C491 C 0.30425 0.43153 -0.00853
 C492 C 0.31187 0.41200 0.03255
 C493 C 0.23760 0.33687 -0.03489
 C494 C 0.24127 0.32027 -0.05542
 C495 C 0.28243 0.33972 -0.06282
 C496 C 0.27799 0.35597 -0.04215
 N497 N 0.25572 0.35445 -0.02884
 H498 H 0.28591 0.38200 0.04259
 H499 H 0.27255 0.41594 -0.02945
 H500 H 0.30891 0.44544 -0.02309
 H501 H 0.32249 0.41064 0.05024
 H502 H 0.22027 0.33579 -0.02372
 H503 H 0.22671 0.30640 -0.06018
 H504 H 0.30016 0.34106 -0.07336
 H505 H 0.29244 0.36959 -0.03669
 C506 C 0.23551 0.32120 0.06853
 C507 C 0.18032 0.42997 -0.01415
 C508 C 0.26387 0.32176 -0.06953
 C509 C 0.31846 0.43002 0.01401
 C510 C 0.71627 0.08528 -0.01175
 H511 H 0.72741 0.08425 -0.02910
 C512 C 0.69579 0.06863 -0.00806
 H513 H 0.69105 0.05477 -0.02264
 C514 C 0.70901 0.10435 0.02867
 H515 H 0.71444 0.11800 0.04311
 C516 C 0.68840 0.08805 0.03312
 H517 H 0.67787 0.08938 0.05087
 N518 N 0.72228 0.10289 0.00638
 C519 C 0.76244 0.16330 -0.03446
 H520 H 0.77981 0.16434 -0.02334
 C521 C 0.75873 0.17994 -0.05494
 H522 H 0.77330 0.19380 -0.05972
 C523 C 0.72201 0.14426 -0.04163
 H524 H 0.70757 0.13063 -0.03615
 C525 C 0.71753 0.16055 -0.06225
 H526 H 0.69977 0.15924 -0.07274
 Zn527 Zn 0.75066 0.12433 0.00005
 N528 N 0.74432 0.14572 -0.02839
 C529 C 0.79235 0.10431 -0.02852
 N530 N 0.77909 0.10291 -0.00622
 C531 C 0.78515 0.08536 0.01196
 C532 C 0.80564 0.06871 0.00830
 C533 C 0.81298 0.08800 -0.03294
 C534 C 0.73874 0.16339 0.03441
 C535 C 0.74237 0.18009 0.05486
 C536 C 0.78361 0.16078 0.06228
 C537 C 0.77921 0.14443 0.04169
 N538 N 0.75691 0.14582 0.02841
 H539 H 0.78688 0.11791 -0.04300
 H540 H 0.77401 0.08438 0.02932
 H541 H 0.81041 0.05488 0.02292
 H542 H 0.82349 0.08927 -0.05070
 H543 H 0.72138 0.16437 0.02326
 H544 H 0.72775 0.19393 0.05958
 H545 H 0.80136 0.15952 0.07281
 H546 H 0.79369 0.13081 0.03627
 C547 C 0.73609 0.17850 -0.06899
 C548 C 0.68170 0.07009 0.01456
 C549 C 0.76499 0.17871 0.06895
 C550 C 0.81971 0.07009 -0.01433
 C551 C 0.21558 0.58610 0.48769
 H552 H 0.22685 0.58511 0.47042
 C553 C 0.19512 0.56940 0.49121
 H554 H 0.19051 0.55554 0.47657
 C555 C 0.20799 0.60508 0.52809
 H556 H 0.21329 0.61871 0.54260
 C557 C 0.18738 0.58873 0.53237
 H558 H 0.17673 0.58999 0.55004
 N559 N 0.22143 0.60368 0.50589
 C560 C 0.26195 0.66418 0.46553
 H561 H 0.27921 0.66520 0.47682
 C562 C 0.25842 0.68085 0.44504
 H563 H 0.27304 0.69472 0.44042
 C564 C 0.22159 0.64514 0.45794
 H565 H 0.20711 0.63150 0.46326
 C566 C 0.21731 0.66146 0.43730
 H567 H 0.19965 0.66015 0.42664
 Zn568 Zn 0.24985 0.62515 0.49985
 N569 N 0.24377 0.64659 0.47140
 C570 C 0.29179 0.60518 0.47160
 N571 N 0.27834 0.60373 0.49379
 C572 C 0.28424 0.58615 0.51198
 C573 C 0.30476 0.56950 0.50847
 C574 C 0.31245 0.58887 0.46733
 C575 C 0.23764 0.66414 0.53419
 C576 C 0.24111 0.68080 0.55470
 C577 C 0.28229 0.66148 0.56241
 C578 C 0.27805 0.64517 0.54176
 N579 N 0.25587 0.64658 0.52831
 H580 H 0.28645 0.61881 0.45710
 H581 H 0.27296 0.58513 0.52925
 H582 H 0.30940 0.55565 0.52310
 H583 H 0.32312 0.59017 0.44966
 H584 H 0.22037 0.66513 0.52291
 H585 H 0.22645 0.69463 0.55934
 H586 H 0.29996 0.66020 0.57307
 H587 H 0.29258 0.63156 0.53643
 C588 C 0.23592 0.67942 0.43077
 C589 C 0.18087 0.57078 0.51373
 C590 C 0.26362 0.67940 0.56897
 C591 C 0.31902 0.57093 0.48596
 C592 C 0.71528 0.91438 0.51163
 H593 H 0.72645 0.91534 0.52896
 C594 C 0.69473 0.93099 0.50809
 H595 H 0.68997 0.94476 0.52276
 C596 C 0.70800 0.89552 0.47112
 H597 H 0.71345 0.88197 0.45659
 C598 C 0.68732 0.91180 0.46681
 H599 H 0.67676 0.91055 0.44908
 N600 N 0.72132 0.89690 0.49339
 C601 C 0.76177 0.83634 0.53380
 H602 H 0.77912 0.83541 0.52264
 C603 C 0.75816 0.81960 0.55422
 H604 H 0.77280 0.80577 0.55891
 C605 C 0.72128 0.85525 0.54115
 H606 H 0.70678 0.86887 0.53578
 C607 C 0.71691 0.83885 0.56171
 H608 H 0.69916 0.84007 0.57225
 Zn609 Zn 0.74978 0.87548 0.49954
 N610 N 0.74357 0.85391 0.52786
 C611 C 0.79145 0.89543 0.52817
 N612 N 0.77815 0.89694 0.50590
 C613 C 0.78413 0.91459 0.48781
 C614 C 0.80459 0.93125 0.49152
 C615 C 0.81205 0.91173 0.53264
 C616 C 0.73800 0.83659 0.46495
 C617 C 0.74172 0.81999 0.44443
 C618 C 0.78289 0.83943 0.43713
 C619 C 0.77841 0.85569 0.45779
 N620 N 0.75611 0.85417 0.47104
 H621 H 0.78604 0.88174 0.54258
 H622 H 0.77297 0.91566 0.47047
 H623 H 0.80931 0.94515 0.47697
 H624 H 0.82260 0.91037 0.55036
 H625 H 0.72064 0.83552 0.47608
 H626 H 0.72717 0.80612 0.43964
 H627 H 0.80066 0.84078 0.42663
 H628 H 0.79284 0.86931 0.46328
 C629 C 0.73555 0.82093 0.56833
 C630 C 0.68060 0.92963 0.48550
 C631 C 0.76436 0.82148 0.43037
 C632 C 0.81871 0.92974 0.51411
 C633 C 0.01154 0.21658 0.41404
 H634 H 0.02883 0.22780 0.41502
 C635 C 0.00798 0.19612 0.43075
 H636 H 0.02260 0.19148 0.44461
 C637 C -0.02886 0.20908 0.39504
 H638 H -0.04335 0.21441 0.38139
 C639 C -0.03318 0.18848 0.41140
 H640 H -0.05087 0.17787 0.41012
 N641 N -0.00664 0.22246 0.39644
 C642 C 0.03391 0.26270 0.33587
 H643 H 0.02270 0.28001 0.33482
 C644 C 0.05440 0.25905 0.31922
 H645 H 0.05909 0.27362 0.30533
 C646 C 0.04131 0.22234 0.35500
 H647 H 0.03592 0.20790 0.36867
 C648 C 0.06194 0.21793 0.33870
 H649 H 0.07253 0.20022 0.34004
 Zn650 Zn -0.00049 0.25082 0.37492
 N651 N 0.02795 0.24458 0.35350
 C652 C 0.02792 0.29263 0.39483
 N653 N 0.00566 0.27931 0.39627
 C654 C -0.01252 0.28533 0.41382
 C655 C -0.00892 0.30583 0.43047
 C656 C 0.03229 0.31326 0.41113
 C657 C -0.03480 0.23867 0.33591
 C658 C -0.05527 0.24219 0.31920
 C659 C -0.06292 0.28341 0.33842
 C660 C -0.04231 0.27914 0.35478
 N661 N -0.02891 0.25691 0.35344
 H662 H 0.04241 0.28719 0.38123
 H663 H -0.02985 0.27416 0.41484
 H664 H -0.02353 0.31056 0.44431
 H665 H 0.05003 0.32380 0.40985
 H666 H -0.02357 0.22137 0.33498
 H667 H -0.05991 0.22752 0.30538
 H668 H -0.07354 0.30112 0.33963
 H669 H -0.03697 0.29366 0.36838
 C670 C 0.06857 0.23648 0.32070
 C671 C -0.01456 0.18192 0.42935
 C672 C -0.06948 0.26474 0.32052
 C673 C 0.01368 0.31994 0.42906
 C674 C -0.01220 0.71475 0.08587
 H675 H -0.02955 0.72590 0.08488
 C676 C -0.00859 0.69420 0.06928
 H677 H -0.02324 0.68941 0.05550
 C678 C 0.02831 0.70755 0.10476
 H679 H 0.04283 0.71304 0.11831
 C680 C 0.03269 0.68687 0.08851
 H681 H 0.05044 0.67634 0.08978
 N682 N 0.00602 0.72083 0.10335
 C683 C -0.03443 0.76146 0.16379
 H684 H -0.02325 0.77878 0.16469
 C685 C -0.05488 0.75793 0.18052
 H686 H -0.05955 0.77260 0.19432
 C687 C -0.04184 0.72096 0.14497
 H688 H -0.03648 0.70643 0.13138
 C689 C -0.06243 0.71667 0.16136
 H690 H -0.07300 0.69895 0.16017
 Zn691 Zn -0.00017 0.74934 0.12469
 N692 N -0.02851 0.74322 0.14627
 C693 C -0.02874 0.79102 0.10464
 N694 N -0.00648 0.77767 0.10316
 C695 C 0.01162 0.78360 0.08550
 C696 C 0.00797 0.80407 0.06883
 C697 C -0.03315 0.81163 0.08832
 C698 C 0.03441 0.73760 0.16364
 C699 C 0.05494 0.74133 0.18021
 C700 C 0.06226 0.78244 0.16066
 C701 C 0.04159 0.77796 0.14443
 N702 N 0.02832 0.75568 0.14601
 H703 H -0.04317 0.78566 0.11833
 H704 H 0.02895 0.77240 0.08446
 H705 H 0.02254 0.80875 0.05493
 H706 H -0.05086 0.82223 0.08967
 H707 H 0.02327 0.72026 0.16476
 H708 H 0.05973 0.72679 0.19411
 H709 H 0.07278 0.80018 0.15926
 H710 H 0.03610 0.79237 0.13077
 C711 C -0.06903 0.73536 0.17924
 C712 C 0.01403 0.68011 0.07067
 C713 C 0.06902 0.76393 0.17865
 C714 C -0.01460 0.81824 0.07032
 C715 C 0.48834 0.21542 0.58677
 H716 H 0.47104 0.22666 0.58574
 C717 C 0.49190 0.19490 0.57014
 H718 H 0.47729 0.19022 0.55629
 C719 C 0.52873 0.20796 0.60582
 H720 H 0.54321 0.21333 0.61944
 C721 C 0.53306 0.18730 0.58953
 H722 H 0.55075 0.17667 0.59085
 N723 N 0.50651 0.22136 0.60435
 C724 C 0.46594 0.26193 0.66474
 H725 H 0.47716 0.27922 0.66574
 C726 C 0.44541 0.25839 0.68137
 H727 H 0.44071 0.27304 0.69520
 C728 C 0.45852 0.22150 0.64577
 H729 H 0.46391 0.20699 0.63217
 C730 C 0.43786 0.21721 0.66206
 H731 H 0.42725 0.19951 0.66077
 Zn732 Zn 0.50035 0.24983 0.62575
 N733 N 0.47190 0.24372 0.64719
 C734 C 0.47197 0.29161 0.60567
 N735 N 0.49421 0.27823 0.60427
 C736 C 0.51239 0.28414 0.58669
 C737 C 0.50882 0.30461 0.57000
 C738 C 0.46763 0.31222 0.58932
 C739 C 0.53472 0.23783 0.66480
 C740 C 0.55521 0.24141 0.68146
 C741 C 0.56279 0.28255 0.66204
 C742 C 0.54216 0.27821 0.64573
 N743 N 0.52878 0.25599 0.64720
 H744 H 0.45747 0.28626 0.61930
 H745 H 0.52970 0.27292 0.58571
 H746 H 0.52345 0.30926 0.55614
 H747 H 0.44992 0.32282 0.59059
 H748 H 0.52349 0.22054 0.66583
 H749 H 0.55989 0.22681 0.69532
 H750 H 0.57340 0.30024 0.66073
 H751 H 0.53679 0.29268 0.63209
 C752 C 0.43122 0.23585 0.67996
 C753 C 0.51445 0.18068 0.57159
 C754 C 0.56940 0.26395 0.68001
 C755 C 0.48626 0.31880 0.57138
 C756 C 0.51186 0.71509 0.91404
 H757 H 0.52919 0.72626 0.91498
 C758 C 0.50831 0.69462 0.93072
 H759 H 0.52297 0.68990 0.94452
 C760 C 0.47135 0.70778 0.89520
 H761 H 0.45682 0.71320 0.88164
 C762 C 0.46704 0.68716 0.91154
 H763 H 0.44930 0.67662 0.91033
 N764 N 0.49362 0.72109 0.89654
 C765 C 0.53395 0.76157 0.83598
 H766 H 0.52274 0.77888 0.83505
 C767 C 0.55438 0.75800 0.81924
 H768 H 0.55902 0.77264 0.80540
 C769 C 0.54143 0.72112 0.85489
 H770 H 0.53610 0.70662 0.86852
 C771 C 0.56200 0.71679 0.83849
 H772 H 0.57260 0.69907 0.83972
 Zn773 Zn 0.49973 0.74953 0.87512
 N774 N 0.52807 0.74337 0.85355
 C775 C 0.52824 0.79125 0.89508
 N776 N 0.50600 0.77791 0.89658
 C777 C 0.48789 0.78385 0.91424
 C778 C 0.49155 0.80430 0.93092
 C779 C 0.53266 0.81185 0.91142
 C780 C 0.46517 0.73764 0.83623
 C781 C 0.44462 0.74129 0.81965
 C782 C 0.43721 0.78246 0.83909
 C783 C 0.45790 0.77804 0.85532
 N784 N 0.47122 0.75578 0.85381
 H785 H 0.54267 0.78588 0.88139
 H786 H 0.47058 0.77265 0.91529
 H787 H 0.47699 0.80898 0.94484
 H788 H 0.55036 0.82243 0.91007
 H789 H 0.47635 0.72031 0.83515
 H790 H 0.43986 0.72671 0.80579
 H791 H 0.42666 0.80019 0.84044
 H792 H 0.46336 0.79250 0.86894
 C793 C 0.56856 0.73543 0.82056
 C794 C 0.48571 0.68050 0.92941
 C795 C 0.43049 0.76389 0.82115
 C796 C 0.51411 0.81846 0.92944
 C797 C 0.14592 0.22116 0.25853
 C798 C 0.12820 0.22468 0.27278
 C799 C 0.10745 0.22879 0.28945
 C800 C 0.08973 0.23229 0.30370
 C801 C 0.64582 0.72048 0.75818
 C802 C 0.62811 0.72392 0.77246
 C803 C 0.60738 0.72792 0.78918
 C804 C 0.58968 0.73134 0.80348
 C805 C 0.35302 0.77923 0.75916
 C806 C 0.37075 0.77572 0.77338
 C807 C 0.39153 0.77160 0.79002
 C808 C 0.40928 0.76808 0.80421
 C809 C -0.14668 0.27955 0.25805
 C810 C -0.12900 0.27614 0.27237
 C811 C -0.10829 0.27217 0.28913
 C812 C -0.09060 0.26878 0.30344
 C813 C -0.14636 0.72060 0.24157
 C814 C -0.12863 0.72399 0.22730
 C815 C -0.10788 0.72794 0.21059
 C816 C -0.09017 0.73132 0.19631
 C817 C 0.35363 0.22098 0.74194
 C818 C 0.37142 0.22440 0.72775
 C819 C 0.39223 0.22840 0.71113
 C820 C 0.41000 0.23180 0.69693
 C821 C 0.64682 0.27901 0.74213
 C822 C 0.62909 0.27554 0.72789
 C823 C 0.60832 0.27149 0.71123
 C824 C 0.59058 0.26805 0.69700
 C825 C 0.14645 0.77946 0.24064
 C826 C 0.12873 0.77592 0.22641
 C827 C 0.10797 0.77176 0.20977
 C828 C 0.09022 0.76819 0.19558
 C829 C 0.25853 0.14632 0.22066
 C830 C 0.27275 0.12858 0.22418
 C831 C 0.28938 0.10779 0.22830
 C832 C 0.30358 0.09003 0.23182
 C833 C 0.75865 0.64601 0.72026
 C834 C 0.77293 0.62831 0.72377
 C835 C 0.78962 0.60758 0.72791
 C836 C 0.80387 0.58987 0.73145
 C837 C 0.75831 0.35349 0.77925
 C838 C 0.77256 0.37120 0.77581
 C839 C 0.78926 0.39194 0.77179
 C840 C 0.80353 0.40964 0.76837
 C841 C 0.25797 -0.14675 0.27903
 C842 C 0.27219 -0.12900 0.27563
 C843 C 0.28886 -0.10823 0.27167
 C844 C 0.30310 -0.09049 0.26831
 C845 C 0.24149 -0.14684 0.72086
 C846 C 0.22731 -0.12904 0.72430
 C847 C 0.21073 -0.10819 0.72832
 C848 C 0.19657 -0.09039 0.73177
 C849 C 0.74179 0.35382 0.22050
 C850 C 0.72752 0.37154 0.22391
 C851 C 0.71082 0.39229 0.22793
 C852 C 0.69656 0.41002 0.23139
 C853 C 0.74198 0.64645 0.27877
 C854 C 0.72771 0.62875 0.27535
 C855 C 0.71099 0.60803 0.27135
 C856 C 0.69671 0.59033 0.26796
 C857 C 0.24207 0.14653 0.77888
 C858 C 0.22786 0.12877 0.77547
 C859 C 0.21122 0.10799 0.77149
 C860 C 0.19699 0.09025 0.76810
 C861 C 0.22060 0.25891 0.14583
 C862 C 0.22405 0.27316 0.12811
 C863 C 0.22805 0.28985 0.10737
 C864 C 0.23146 0.30413 0.08966
 C865 C 0.72045 0.75857 0.64555
 C866 C 0.72391 0.77284 0.62784
 C867 C 0.72796 0.78956 0.60712
 C868 C 0.73142 0.80385 0.58944
 C869 C 0.77990 0.75929 0.35309
 C870 C 0.77636 0.77357 0.37077
 C871 C 0.77220 0.79027 0.39150
 C872 C 0.76863 0.80450 0.40921
 C873 C 0.27944 0.25957 -0.14681
 C874 C 0.27586 0.27385 -0.12913
 C875 C 0.27168 0.29054 -0.10841
 C876 C 0.26811 0.30478 -0.09070
 C877 C 0.72058 0.24069 -0.14626
 C878 C 0.72412 0.22643 -0.12857
 C879 C 0.72827 0.20974 -0.10784
 C880 C 0.73183 0.19549 -0.09014
 C881 C 0.22103 0.74162 0.35338
 C882 C 0.22446 0.72737 0.37111
 C883 C 0.22847 0.71069 0.39187
 C884 C 0.23187 0.69644 0.40960
 C885 C 0.27840 0.74152 0.64643
 C886 C 0.27497 0.72730 0.62868
 C887 C 0.27100 0.71064 0.60790
 C888 C 0.26762 0.69640 0.59016
 C889 C 0.78009 0.24103 0.14619
 C890 C 0.77666 0.22675 0.12850
 C891 C 0.77262 0.21003 0.10778
 C892 C 0.76915 0.19575 0.09008
 C893 C 0.47120 0.39611 0.50912
 C894 C 0.47466 0.37839 0.52337
 C895 C 0.47871 0.35765 0.54007
 C896 C 0.48215 0.33994 0.55433
 C897 C -0.02965 0.89581 0.00838
 C898 C -0.02623 0.87803 0.02256
 C899 C -0.02220 0.85721 0.03916
 C900 C -0.01875 0.83944 0.05336
 C901 C 0.02923 0.60263 0.00863
 C902 C 0.02574 0.62037 0.02286
 C903 C 0.02166 0.64114 0.03950
 C904 C 0.01818 0.65890 0.05371
 C905 C 0.52937 0.10323 0.50946
 C906 C 0.52596 0.12096 0.52371
 C907 C 0.52196 0.14173 0.54039
 C908 C 0.51854 0.15948 0.55461
 C909 C -0.02943 0.10455 0.49156
 C910 C -0.02601 0.12229 0.47732
 C911 C -0.02203 0.14305 0.46064
 C912 C -0.01862 0.16077 0.44639
 C913 C 0.47062 0.60329 0.99177
 C914 C 0.47410 0.62098 0.97749
 C915 C 0.47816 0.64169 0.96075
 C916 C 0.48161 0.65938 0.94647
 C917 C 0.52941 0.89567 0.99174
 C918 C 0.52589 0.87799 0.97746
 C919 C 0.52178 0.85728 0.96074
 C920 C 0.51829 0.83959 0.94647
 C921 C 0.02900 0.39713 0.49139
 C922 C 0.02547 0.37946 0.47709
 C923 C 0.02135 0.35877 0.46036
 C924 C 0.01785 0.34108 0.44609
 C925 C 0.39647 0.50874 0.47110
 C926 C 0.37873 0.52299 0.47453
 C927 C 0.35796 0.53967 0.47852
 C928 C 0.34021 0.55392 0.48192
 C929 C 0.89706 0.00787 -0.02958
 C930 C 0.87934 0.02214 -0.02610
 C931 C 0.85859 0.03883 -0.02202
 C932 C 0.84087 0.05309 -0.01852
 C933 C 0.60429 0.00806 0.02986
 C934 C 0.62203 0.02227 0.02637
 C935 C 0.64280 0.03891 0.02228
 C936 C 0.66054 0.05312 0.01876
 C937 C 0.10362 0.50846 0.52866
 C938 C 0.12132 0.52273 0.52520
 C939 C 0.14204 0.53944 0.52119
 C940 C 0.15974 0.55373 0.51778
 C941 C 0.10279 0.49211 -0.02883
 C942 C 0.12055 0.47788 -0.02545
 C943 C 0.14135 0.46121 -0.02151
 C944 C 0.15911 0.44697 -0.01816
 C945 C 0.60295 0.99161 0.47076
 C946 C 0.62074 0.97740 0.47412
 C947 C 0.64157 0.96078 0.47806
 C948 C 0.65936 0.94658 0.48144
 C949 C 0.89606 0.99183 0.52945
 C950 C 0.87834 0.97760 0.52596
 C951 C 0.85759 0.96095 0.52185
 C952 C 0.83987 0.94672 0.51833
 C953 C 0.39589 0.49208 0.02908
 C954 C 0.37814 0.47787 0.02564
 C955 C 0.35736 0.46123 0.02160
 C956 C 0.33963 0.44701 0.01815
 C957 C 0.50917 0.47078 0.39647
 C958 C 0.52341 0.47426 0.37874
 C959 C 0.54006 0.47833 0.35796
 C960 C 0.55427 0.48182 0.34021
 C961 C 0.00886 -0.02908 0.89623
 C962 C 0.02318 -0.02558 0.87857
 C963 C 0.03993 -0.02151 0.85788
 C964 C 0.05424 -0.01804 0.84021
 C965 C 0.00889 0.02960 0.60392
 C966 C 0.02319 0.02610 0.62159
 C967 C 0.03993 0.02201 0.64229
 C968 C 0.05422 0.01852 0.65998
 C969 C 0.50871 0.52975 0.10359
 C970 C 0.52296 0.52624 0.12131
 C971 C 0.53964 0.52214 0.14205
 C972 C 0.55390 0.51866 0.15977
 C973 C 0.49152 -0.02971 0.10446
 C974 C 0.47725 -0.02624 0.12216
 C975 C 0.46051 -0.02218 0.14287
 C976 C 0.44621 -0.01873 0.16056
 C977 C 0.99131 0.47022 0.60366
 C978 C 0.97713 0.47365 0.62145
 C979 C 0.96052 0.47768 0.64227
 C980 C 0.94633 0.48113 0.66004
 C981 C 0.99110 0.52906 0.89687
 C982 C 0.97688 0.52558 0.87913
 C983 C 0.96024 0.52150 0.85835
 C984 C 0.94603 0.51802 0.84059
 C985 C 0.49093 0.02861 0.39696
 C986 C 0.47663 0.02517 0.37927
 C987 C 0.45991 0.02115 0.35855
 C988 C 0.44564 0.01772 0.34084
   
