data_POSCAR
  _audit_creation_date              2014-09-24
  _audit_creation_method            'ToBaCCo'
  _symmetry_space_group_name_H-M    'P1'
  _symmetry_Int_Tables_number       1
  _symmetry_cell_setting            triclinic
  loop_
  _symmetry_equiv_pos_as_xyz
 x,y,z
_cell_length_a 43.9954
_cell_length_b 44.0000
_cell_length_c 43.9282
_cell_angle_alpha 90.187700
_cell_angle_beta 90.312200
_cell_angle_gamma 89.994000
loop_
  _atom_site_label
  _atom_site_type_symbol
  _atom_site_fract_x
  _atom_site_fract_y
  _atom_site_fract_z
C1 C 0.14289 0.16354 0.18785
 C2 C 0.14251 0.18685 0.16622
 C3 C 0.16537 0.18876 0.14496
 C4 C 0.18886 0.16724 0.14498
 C5 C 0.18928 0.14427 0.16627
 C6 C 0.16608 0.14247 0.18809
 C7 C 0.12448 0.15742 0.21214
 N8 N 0.13569 0.13299 0.22769
 C9 C 0.16132 0.12379 0.21276
 C10 C 0.21528 0.12758 0.16133
 N11 N 0.23088 0.13975 0.13742
 C12 C 0.21444 0.16419 0.12752
 C13 C 0.16016 0.21457 0.12809
 N14 N 0.13461 0.22843 0.13861
 C15 C 0.12367 0.21140 0.16192
 H16 H 0.10509 0.17111 0.21836
 H17 H 0.17593 0.10509 0.21908
 H18 H 0.22216 0.10837 0.17496
 H19 H 0.22008 0.17909 0.10892
 H20 H 0.17470 0.22316 0.11029
 H21 H 0.10361 0.21651 0.17512
 C22 C -0.13587 0.84277 0.17961
 C23 C -0.13575 0.82139 0.15591
 C24 C -0.15815 0.82202 0.13378
 C25 C -0.18111 0.84416 0.13514
 C26 C -0.18114 0.86518 0.15849
 C27 C -0.15830 0.86451 0.18091
 C28 C -0.11782 0.84639 0.20494
 N29 N -0.12860 0.86997 0.22209
 C30 C -0.15353 0.88110 0.20711
 C31 C -0.20681 0.88261 0.15512
 N32 N -0.22288 0.87282 0.13022
 C33 C -0.20686 0.84915 0.11797
 C34 C -0.15326 0.79749 0.11484
 N35 N -0.12847 0.78193 0.12505
 C36 C -0.11775 0.79657 0.15023
 H37 H -0.09834 0.83234 0.21005
 H38 H -0.16818 0.89924 0.21478
 H39 H -0.21332 0.90042 0.17074
 H40 H -0.21320 0.83581 0.09826
 H41 H -0.16707 0.79135 0.09533
 H42 H -0.09898 0.78908 0.16435
 C43 C -0.14160 0.16277 -0.18605
 C44 C -0.14170 0.18428 -0.16240
 C45 C -0.16307 0.18233 -0.13959
 C46 C -0.18478 0.15898 -0.14020
 C47 C -0.18470 0.13793 -0.16349
 C48 C -0.16286 0.13980 -0.18659
 C49 C -0.12431 0.15980 -0.21183
 N50 N -0.13437 0.13541 -0.22843
 C51 C -0.15817 0.12321 -0.21273
 C52 C -0.20938 0.11928 -0.15933
 N53 N -0.22492 0.12844 -0.13402
 C54 C -0.20951 0.15283 -0.12228
 C55 C -0.15887 0.20698 -0.12071
 N56 N -0.13554 0.22408 -0.13154
 C57 C -0.12493 0.21018 -0.15710
 H58 H -0.10600 0.17498 -0.21771
 H59 H -0.17182 0.10393 -0.21952
 H60 H -0.21566 0.10109 -0.17467
 H61 H -0.21573 0.16611 -0.10257
 H62 H -0.17219 0.21209 -0.10071
 H63 H -0.10716 0.21880 -0.17164
 C64 C 0.13734 0.83862 -0.18094
 C65 C 0.13780 0.81587 -0.15867
 C66 C 0.15925 0.81686 -0.13567
 C67 C 0.18064 0.84046 -0.13471
 C68 C 0.18036 0.86271 -0.15672
 C69 C 0.15838 0.86183 -0.18005
 C70 C 0.11996 0.84253 -0.20665
 N71 N 0.12970 0.86771 -0.22190
 C72 C 0.15341 0.87951 -0.20541
 C73 C 0.20510 0.88117 -0.15126
 N74 N 0.22068 0.87069 -0.12638
 C75 C 0.20537 0.84569 -0.11628
 C76 C 0.15558 0.79114 -0.11841
 N77 N 0.13249 0.77429 -0.13046
 C78 C 0.12147 0.78944 -0.15513
 H79 H 0.10213 0.82715 -0.21368
 H80 H 0.16667 0.89933 -0.21106
 H81 H 0.21113 0.90048 -0.16509
 H82 H 0.21209 0.83100 -0.09778
 H83 H 0.16911 0.78510 -0.09871
 H84 H 0.10374 0.78133 -0.17026
 C85 C 0.15736 1.13693 0.82094
 C86 C 0.18027 1.13694 0.84331
 C87 C 0.17933 1.15787 0.86680
 C88 C 0.15566 1.17916 0.86821
 C89 C 0.13329 1.17924 0.84618
 C90 C 0.13412 1.15791 0.82239
 C91 C 0.15336 1.12056 0.79448
 N92 N 0.12817 1.13106 0.77948
 C93 C 0.11644 1.15402 0.79683
 C94 C 0.11492 1.20392 0.85177
 N95 N 0.12557 1.21926 0.87675
 C96 C 0.15057 1.20376 0.88686
 C97 C 0.20528 1.15407 0.88390
 N98 N 0.22221 1.13144 0.87134
 C99 C 0.20693 1.12080 0.84647
 H100 H 0.16877 1.10318 0.78656
 H101 H 0.09652 1.16745 0.79169
 H102 H 0.09568 1.21017 0.83777
 H103 H 0.16538 1.21029 0.90544
 H104 H 0.21146 1.16725 0.90383
 H105 H 0.21513 1.10353 0.83096
 C106 C 0.83425 0.85775 0.81159
 C107 C 0.81227 0.85799 0.83461
 C108 C 0.81184 0.83502 0.85586
 C109 C 0.83335 0.81161 0.85453
 C110 C 0.85502 0.81130 0.83201
 C111 C 0.85544 0.83465 0.81022
 C112 C 0.83903 0.87631 0.78704
 N113 N 0.86270 0.86529 0.77027
 C114 C 0.87280 0.83967 0.78473
 C115 C 0.87204 0.78526 0.83604
 N116 N 0.86120 0.76959 0.86055
 C117 C 0.83741 0.78604 0.87178
 C118 C 0.78724 0.83993 0.87437
 N119 N 0.77256 0.86549 0.86500
 C120 C 0.78790 0.87669 0.84063
 H121 H 0.82560 0.89626 0.78215
 H122 H 0.89081 0.82480 0.77721
 H123 H 0.89046 0.77831 0.82141
 H124 H 0.82364 0.78049 0.89125
 H125 H 0.78000 0.82515 0.89257
 H126 H 0.78178 0.89680 0.82790
 C127 C 0.16233 0.86218 1.18448
 C128 C 0.18267 0.86429 1.16016
 C129 C 0.18158 0.84327 1.13683
 C130 C 0.16018 0.81968 1.13760
 C131 C 0.14021 0.81745 1.16171
 C132 C 0.14123 0.83905 1.18533
 C133 C 0.15928 0.87882 1.21073
 N134 N 0.13663 0.86664 1.22798
 C135 C 0.12558 0.84210 1.21225
 C136 C 0.12379 0.79110 1.15751
 N137 N 0.13335 0.77724 1.13150
 C138 C 0.15554 0.79481 1.11920
 C139 C 0.20538 0.84953 1.11764
 N140 N 0.22112 0.87378 1.12889
 C141 C 0.20715 0.88292 1.15493
 H142 H 0.17281 0.89859 1.21619
 H143 H 0.10805 0.82671 1.21978
 H144 H 0.10712 0.78206 1.17309
 H145 H 0.16788 0.78976 1.09856
 H146 H 0.21107 0.83678 1.09737
 H147 H 0.21505 0.90077 1.17000
 C148 C 0.84386 1.13725 1.18118
 C149 C 0.81971 1.13844 1.16021
 C150 C 0.81756 1.16232 1.13992
 C151 C 0.83969 1.18529 1.14018
 C152 C 0.86357 1.18390 1.16067
 C153 C 0.86559 1.15976 1.18132
 C154 C 0.85010 1.11843 1.20538
 N155 N 0.87518 1.12897 1.22063
 C156 C 0.88470 1.15431 1.20550
 C157 C 0.88051 1.20984 1.15712
 N158 N 0.86752 1.22719 1.13502
 C159 C 0.84248 1.21221 1.12452
 C160 C 0.79087 1.15863 1.12385
 N161 N 0.77672 1.13306 1.13382
 C162 C 0.79435 1.12062 1.15608
 H163 H 0.83639 1.09906 1.21151
 H164 H 0.90318 1.16914 1.21207
 H165 H 0.90075 1.21564 1.16998
 H166 H 0.82672 1.22068 1.10757
 H167 H 0.78195 1.17416 1.10696
 H168 H 0.78914 1.10019 1.16865
 N169 N 0.53286 1.05232 0.96596
 N170 N 0.55803 1.06841 0.96343
 N171 N 0.46773 1.03216 0.94580
 N172 N 0.44273 1.03437 0.92916
 N173 N 0.46891 1.05408 0.96613
 N174 N 0.44488 1.07185 0.96374
 N175 N 0.53189 1.03078 0.94521
 N176 N 0.55640 1.03166 0.92805
 C177 C 0.57242 1.05539 0.93953
 C178 C 0.42883 1.05941 0.94047
 N179 N 0.46668 0.94616 0.96903
 N180 N 0.44152 0.92988 0.96807
 N181 N 0.53056 0.96550 0.94685
 N182 N 0.55497 0.96261 0.92974
 N183 N 0.53080 0.94531 0.96879
 N184 N 0.55544 0.92827 0.96725
 N185 N 0.46647 0.96674 0.94745
 N186 N 0.44116 0.96493 0.93123
 Mn187 Mn 0.49910 0.99879 0.94590
 C188 C 0.42590 0.94165 0.94424
 C189 C 0.57019 0.93916 0.94261
 N190 N 0.46931 1.05595 1.03156
 N191 N 0.44540 1.07396 1.03361
 N192 N 0.53259 1.03399 1.05337
 N193 N 0.55672 1.03645 1.07114
 N194 N 0.53346 1.05422 1.03150
 N195 N 0.55835 1.07090 1.03373
 N196 N 0.46872 1.03527 1.05302
 N197 N 0.44445 1.03865 1.07021
 Mn198 Mn 0.50120 1.05456 0.99876
 C199 C 0.43018 1.06299 1.05795
 C200 C 0.57254 1.05964 1.05872
 N201 N 0.53136 0.94722 1.03430
 N202 N 0.55617 0.93045 1.03664
 N203 N 0.46736 0.97000 1.05466
 N204 N 0.44229 0.96935 1.07099
 N205 N 0.46724 0.94802 1.03437
 N206 N 0.44212 0.93179 1.03648
 N207 N 0.53142 0.96882 1.05499
 N208 N 0.55622 0.96730 1.07191
 Mn209 Mn 0.49907 0.94626 1.00162
 Mn210 Mn 0.49998 1.00201 1.05438
 Cl211 Cl 0.49984 1.00041 1.00016
 C212 C 0.57136 0.94313 1.06039
 C213 C 0.42687 0.94522 1.05958
 N214 N -0.03414 0.46721 -0.05247
 N215 N -0.03662 0.44206 -0.06879
 N216 N -0.05445 0.53195 -0.03305
 N217 N -0.07187 0.55611 -0.03609
 N218 N -0.03338 0.53146 -0.05409
 N219 N -0.03590 0.55545 -0.07198
 N220 N -0.05517 0.46814 -0.03140
 N221 N -0.07263 0.44380 -0.03297
 C222 C -0.06089 0.42779 -0.05650
 C223 C -0.06018 0.57054 -0.06052
 N224 N -0.03280 0.53464 0.05333
 N225 N -0.03395 0.56013 0.06914
 N226 N -0.05483 0.47001 0.03409
 N227 N -0.07206 0.44563 0.03695
 N228 N -0.03384 0.47072 0.05543
 N229 N -0.03635 0.44697 0.07348
 N230 N -0.05419 0.53413 0.03237
 N231 N -0.07057 0.55928 0.03352
 Mn232 Mn -0.05506 0.50103 0.00051
 C233 C -0.05778 0.57518 0.05674
 C234 C -0.06040 0.43160 0.06180
 N235 N 0.03211 0.53054 -0.05385
 N236 N 0.03464 0.55488 -0.07121
 N237 N 0.05222 0.46654 -0.03100
 N238 N 0.06829 0.44126 -0.03168
 N239 N 0.03120 0.46624 -0.05234
 N240 N 0.03247 0.44062 -0.06808
 N241 N 0.05344 0.53037 -0.03283
 N242 N 0.07116 0.55436 -0.03548
 Mn243 Mn -0.00104 0.49889 -0.05366
 C244 C 0.05931 0.56937 -0.05960
 C245 C 0.05591 0.42537 -0.05506
 N246 N 0.03153 0.46972 0.05559
 N247 N 0.03357 0.44590 0.07366
 N248 N 0.05362 0.53249 0.03262
 N249 N 0.07138 0.55662 0.03436
 N250 N 0.03244 0.53370 0.05352
 N251 N 0.03514 0.55874 0.06993
 N252 N 0.05237 0.46848 0.03435
 N253 N 0.06902 0.44371 0.03730
 Mn254 Mn -0.00068 0.50222 0.05485
 Mn255 Mn 0.05329 0.49945 0.00077
 Cl256 Cl -0.00088 0.50040 0.00060
 C257 C 0.05717 0.42994 0.06206
 C258 C 0.05966 0.57273 0.05786
 N259 N 0.94852 -0.03237 0.46672
 N260 N 0.93225 -0.03451 0.44146
 N261 N 0.96794 -0.05302 0.53163
 N262 N 0.96501 -0.06986 0.55628
 N263 N 0.94698 -0.03179 0.53086
 N264 N 0.92925 -0.03365 0.55491
 N265 N 0.96950 -0.05358 0.46748
 N266 N 0.96800 -0.07072 0.44282
 C267 C 0.94452 -0.05869 0.42687
 C268 C 0.94063 -0.05762 0.57049
 N269 N 1.05450 -0.03245 0.53421
 N270 N 1.07071 -0.03451 0.55952
 N271 N 1.03491 -0.05395 0.46936
 N272 N 1.03774 -0.07122 0.44488
 N273 N 1.05622 -0.03307 0.47012
 N274 N 1.07411 -0.03561 0.44626
 N275 N 1.03328 -0.05342 0.53349
 N276 N 1.03450 -0.07027 0.55823
 Mn277 Mn 1.00140 -0.05390 0.50048
 C278 C 1.05807 -0.05837 0.57420
 C279 C 1.06245 -0.05962 0.43079
 N280 N 0.94742 0.03362 0.53058
 N281 N 0.92990 0.03637 0.55478
 N282 N 0.97025 0.05382 0.46681
 N283 N 0.96937 0.07018 0.44171
 N284 N 0.94895 0.03293 0.46627
 N285 N 0.93304 0.03455 0.44074
 N286 N 0.96867 0.05456 0.53083
 N287 N 0.96614 0.07211 0.55505
 Mn288 Mn 0.94754 0.00060 0.49861
 C289 C 0.94176 0.06066 0.56973
 C290 C 0.94591 0.05807 0.42573
 N291 N 1.05659 0.03234 0.46945
 N292 N 1.07376 0.03407 0.44489
 N293 N 1.03393 0.05412 0.53287
 N294 N 1.03535 0.07135 0.55746
 N295 N 1.05492 0.03293 0.53378
 N296 N 1.07110 0.03515 0.55910
 N297 N 1.03549 0.05343 0.46889
 N298 N 1.03773 0.07001 0.44409
 Mn299 Mn 1.05599 -0.00007 0.50191
 Mn300 Mn 1.00209 0.05434 0.49985
 Cl301 Cl 1.00176 0.00023 0.50021
 C302 C 1.06180 0.05789 0.42939
 C303 C 1.05877 0.05940 0.57354
 C304 C 1.10062 0.09963 0.31053
 C305 C 1.12835 0.08826 0.29912
 C306 C 1.13976 0.09894 0.27123
 C307 C 1.12390 0.12108 0.25409
 C308 C 1.09556 0.13102 0.26528
 C309 C 1.08419 0.12058 0.29285
 C310 C 1.08992 0.08892 0.34101
 C311 C 1.06357 0.10044 0.35501
 C312 C 1.05479 0.09025 0.38362
 C313 C 1.07187 0.06825 0.39911
 C314 C 1.09813 0.05646 0.38544
 C315 C 1.10742 0.06686 0.35667
 C316 C 1.14465 0.06642 0.31572
 C317 C 1.13427 0.05576 0.34371
 H318 H 1.16582 0.05744 0.30695
 H319 H 1.14773 0.03888 0.35562
 H320 H 1.16142 0.09030 0.26362
 H321 H 1.08148 0.14682 0.25287
 H322 H 1.03440 0.09969 0.39362
 H323 H 1.11153 0.03950 0.39731
 H324 H 1.06239 0.12927 0.29978
 H325 H 1.04953 0.11756 0.34452
 C326 C 0.90586 -0.10090 0.30744
 C327 C 0.88243 -0.08444 0.29280
 C328 C 0.87129 -0.09398 0.26427
 C329 C 0.88293 -0.12013 0.24962
 C330 C 0.90665 -0.13598 0.26443
 C331 C 0.91785 -0.12660 0.29269
 C332 C 0.91668 -0.09038 0.33816
 C333 C 0.93980 -0.10536 0.35465
 C334 C 0.94871 -0.09498 0.38338
 C335 C 0.93484 -0.06947 0.39647
 C336 C 0.91202 -0.05416 0.38019
 C337 C 0.90290 -0.06438 0.35122
 C338 C 0.87005 -0.05860 0.30680
 C339 C 0.88004 -0.04881 0.33536
 H340 H 0.85217 -0.04584 0.29558
 H341 H 0.86957 -0.02882 0.34527
 H342 H 0.85359 -0.08057 0.25374
 H343 H 0.91663 -0.15621 0.25485
 H344 H 0.96653 -0.10706 0.39541
 H345 H 0.90135 -0.03423 0.39003
 H346 H 0.93577 -0.14007 0.30263
 H347 H 0.95131 -0.12515 0.34591
 C348 C 0.90018 0.10561 0.68678
 C349 C 0.87583 0.09005 0.70061
 C350 C 0.86452 0.09990 0.72885
 C351 C 0.87697 0.12545 0.74407
 C352 C 0.90147 0.14050 0.72996
 C353 C 0.91280 0.13082 0.70198
 C354 C 0.91140 0.09455 0.65651
 C355 C 0.93549 0.10859 0.64090
 C356 C 0.94506 0.09753 0.61276
 C357 C 0.93092 0.07225 0.59934
 C358 C 0.90694 0.05800 0.61463
 C359 C 0.89713 0.06893 0.64305
 C360 C 0.86278 0.06472 0.68615
 C361 C 0.87319 0.05439 0.65802
 H362 H 0.84413 0.05268 0.69672
 H363 H 0.86229 0.03473 0.64781
 H364 H 0.84591 0.08731 0.73855
 H365 H 0.91233 0.16004 0.74012
 H366 H 0.96371 0.10887 0.60149
 H367 H 0.89597 0.03832 0.60450
 H368 H 0.93147 0.14357 0.69268
 H369 H 0.94733 0.12811 0.64992
 C370 C 1.09557 -0.10114 0.69352
 C371 C 1.12069 -0.08657 0.70742
 C372 C 1.13176 -0.09671 0.73573
 C373 C 1.11826 -0.12156 0.75089
 C374 C 1.09268 -0.13524 0.73696
 C375 C 1.08161 -0.12530 0.70893
 C376 C 1.08504 -0.09032 0.66289
 C377 C 1.06072 -0.10392 0.64687
 C378 C 1.05214 -0.09343 0.61818
 C379 C 1.06750 -0.06913 0.60463
 C380 C 1.09157 -0.05518 0.62041
 C381 C 1.10049 -0.06564 0.64931
 C382 C 1.13481 -0.06204 0.69290
 C383 C 1.12487 -0.05174 0.66455
 H384 H 1.15398 -0.05068 0.70357
 H385 H 1.13666 -0.03277 0.65425
 H386 H 1.15126 -0.08521 0.74533
 H387 H 1.08061 -0.15377 0.74739
 H388 H 1.03337 -0.10447 0.60654
 H389 H 1.10350 -0.03626 0.61015
 H390 H 1.06206 -0.13700 0.69978
 H391 H 1.04806 -0.12279 0.65591
 C392 C 0.31462 1.10939 1.10132
 C393 C 0.30004 1.09277 1.12452
 C394 C 0.27215 1.10285 1.13637
 C395 C 0.25810 1.12969 1.12566
 C396 C 0.27307 1.14594 1.10247
 C397 C 0.30068 1.13603 1.09057
 C398 C 0.34442 1.09797 1.08937
 C399 C 0.36056 1.11269 1.06600
 C400 C 0.38834 1.10127 1.05587
 C401 C 0.40081 1.07499 1.06880
 C402 C 0.38488 1.06000 1.09190
 C403 C 0.35684 1.07118 1.10216
 C404 C 0.31340 1.06619 1.13592
 C405 C 0.34120 1.05568 1.12505
 H406 H 0.30225 1.05335 1.15368
 H407 H 0.35062 1.03507 1.13473
 H408 H 0.26163 1.08929 1.15383
 H409 H 0.26404 1.16679 1.09328
 H410 H 0.40012 1.11314 1.03788
 H411 H 0.39424 1.03948 1.10186
 H412 H 0.31075 1.14980 1.07306
 H413 H 0.35219 1.13300 1.05516
 C414 C 0.30501 0.90203 0.90814
 C415 C 0.29231 0.91513 0.88163
 C416 C 0.26393 0.90515 0.87055
 C417 C 0.24754 0.88192 0.88540
 C418 C 0.26005 0.87011 0.91257
 C419 C 0.28814 0.87991 0.92367
 C420 C 0.33599 0.91216 0.91837
 C421 C 0.35114 0.89940 0.94364
 C422 C 0.38025 0.90905 0.95183
 C423 C 0.39508 0.93168 0.93516
 C424 C 0.38018 0.94477 0.91010
 C425 C 0.35091 0.93505 0.90149
 C426 C 0.30816 0.93791 0.86610
 C427 C 0.33673 0.94776 0.87590
 H428 H 0.29841 0.94819 0.84589
 H429 H 0.34809 0.96530 0.86297
 H430 H 0.25536 0.91525 0.84985
 H431 H 0.24837 0.85322 0.92586
 H432 H 0.39119 0.89869 0.97136
 H433 H 0.39145 0.96234 0.89710
 H434 H 0.29618 0.86971 0.94448
 H435 H 0.34112 0.88176 0.95728
 C436 C 0.69138 0.90595 1.10140
 C437 C 0.70498 0.88108 1.08628
 C438 C 0.73365 0.87038 1.09565
 C439 C 0.74954 0.88399 1.12024
 C440 C 0.73588 0.90931 1.13449
 C441 C 0.70746 0.92003 1.12532
 C442 C 0.66040 0.91615 1.09130
 C443 C 0.64466 0.94021 1.10546
 C444 C 0.61577 0.94869 1.09540
 C445 C 0.60175 0.93347 1.07104
 C446 C 0.61715 0.90950 1.05671
 C447 C 0.64626 0.90072 1.06668
 C448 C 0.68983 0.86688 1.06194
 C449 C 0.66118 0.87656 1.05228
 H450 H 0.70025 0.84789 1.05018
 H451 H 0.65044 0.86478 1.03337
 H452 H 0.74300 0.85108 1.08370
 H453 H 0.74682 0.92141 1.15289
 H454 H 0.60440 0.96734 1.10679
 H455 H 0.60652 0.89766 1.03776
 H456 H 0.69856 0.93941 1.13739
 H457 H 0.65409 0.95276 1.12438
 C458 C 0.69126 1.09305 0.89677
 C459 C 0.70509 1.11785 0.91195
 C460 C 0.73320 1.12913 0.90202
 C461 C 0.74826 1.11636 0.87666
 C462 C 0.73448 1.09106 0.86233
 C463 C 0.70660 1.07967 0.87213
 C464 C 0.66073 1.08236 0.90747
 C465 C 0.64475 1.05825 0.89348
 C466 C 0.61613 1.04959 0.90395
 C467 C 0.60269 1.06470 0.92856
 C468 C 0.61846 1.08854 0.94284
 C469 C 0.64723 1.09749 0.93248
 C470 C 0.69065 1.13155 0.93683
 C471 C 0.66238 1.12158 0.94688
 H472 H 0.70127 1.15048 0.94862
 H473 H 0.65209 1.13313 0.96607
 H474 H 0.74273 1.14825 0.91418
 H475 H 0.74482 1.07963 0.84326
 H476 H 0.60448 1.03099 0.89265
 H477 H 0.60832 1.10026 0.96202
 H478 H 0.69744 1.06044 0.85991
 H479 H 0.65380 1.04583 0.87438
 C480 C 0.09892 0.31373 0.10829
 C481 C 0.11735 0.29594 0.08883
 C482 C 0.12856 0.26772 0.09871
 C483 C 0.12228 0.25700 0.12813
 C484 C 0.10430 0.27496 0.14743
 C485 C 0.09272 0.30282 0.13771
 C486 C 0.08734 0.34368 0.09689
 C487 C 0.06766 0.36237 0.11391
 C488 C 0.05785 0.39027 0.10246
 C489 C 0.06756 0.40036 0.07392
 C490 C 0.08680 0.38180 0.05656
 C491 C 0.09644 0.35347 0.06764
 C492 C 0.12484 0.30659 0.05980
 C493 C 0.11488 0.33487 0.04955
 H494 H 0.13899 0.29301 0.04489
 H495 H 0.12159 0.34222 0.02704
 H496 H 0.14217 0.25411 0.08339
 H497 H 0.09957 0.26784 0.17046
 H498 H 0.04276 0.40410 0.11613
 H499 H 0.09398 0.38923 0.03421
 H500 H 0.07938 0.31560 0.15379
 H501 H 0.05941 0.35587 0.13601
 C502 C -0.10558 0.30995 -0.09621
 C503 C -0.08637 0.29249 -0.11517
 C504 C -0.09606 0.26403 -0.12613
 C505 C -0.12512 0.25278 -0.11919
 C506 C -0.14418 0.27042 -0.10063
 C507 C -0.13459 0.29847 -0.08922
 C508 C -0.09444 0.34023 -0.08502
 C509 C -0.11119 0.35863 -0.06483
 C510 C -0.10012 0.38692 -0.05558
 C511 C -0.07223 0.39772 -0.06633
 C512 C -0.05506 0.37941 -0.08599
 C513 C -0.06578 0.35069 -0.09511
 C514 C -0.05782 0.30375 -0.12354
 C515 C -0.04791 0.33236 -0.11402
 H516 H -0.04309 0.29043 -0.13811
 H517 H -0.02584 0.34021 -0.12150
 H518 H -0.08086 0.25072 -0.14015
 H519 H -0.16694 0.26294 -0.09532
 H520 H -0.11360 0.40050 -0.04009
 H521 H -0.03317 0.38736 -0.09394
 H522 H -0.15049 0.31099 -0.07543
 H523 H -0.13278 0.35159 -0.05575
 C524 C 0.10412 0.68661 -0.09954
 C525 C 0.08426 0.70473 -0.11727
 C526 C 0.09353 0.73367 -0.12704
 C527 C 0.12271 0.74478 -0.11997
 C528 C 0.14247 0.72637 -0.10290
 C529 C 0.13337 0.69781 -0.09277
 C530 C 0.09323 0.65611 -0.08907
 C531 C 0.11063 0.63722 -0.06986
 C532 C 0.09950 0.60910 -0.06059
 C533 C 0.07091 0.59888 -0.07038
 C534 C 0.05328 0.61746 -0.08945
 C535 C 0.06405 0.64611 -0.09851
 C536 C 0.05540 0.69376 -0.12536
 C537 C 0.04565 0.66496 -0.11646
 H538 H 0.04019 0.70755 -0.13903
 H539 H 0.02323 0.65746 -0.12351
 H540 H 0.07787 0.74755 -0.14005
 H541 H 0.16537 0.73373 -0.09769
 H542 H 0.11342 0.59525 -0.04568
 H543 H 0.03091 0.60992 -0.09669
 H544 H 0.14979 0.68478 -0.08002
 H545 H 0.13271 0.64381 -0.06140
 C546 C -0.09417 0.69663 0.09323
 C547 C -0.12387 0.70607 0.08515
 C548 C -0.13492 0.73432 0.09522
 C549 C -0.11657 0.75381 0.11288
 C550 C -0.08655 0.74496 0.11932
 C551 C -0.07549 0.71683 0.10975
 C552 C -0.08394 0.66550 0.08385
 C553 C -0.05603 0.65291 0.09338
 C554 C -0.04781 0.62356 0.08464
 C555 C -0.06699 0.60610 0.06596
 C556 C -0.09481 0.61837 0.05626
 C557 C -0.10365 0.64766 0.06551
 C558 C -0.14238 0.68722 0.06717
 C559 C -0.13230 0.65886 0.05715
 H560 H -0.16501 0.69454 0.06065
 H561 H -0.14745 0.64519 0.04319
 H562 H -0.15810 0.74068 0.08985
 H563 H -0.07139 0.75980 0.13188
 H564 H -0.02624 0.61456 0.09244
 H565 H -0.10989 0.60486 0.04206
 H566 H -0.05226 0.71143 0.11550
 H567 H -0.04040 0.66509 0.10795
 C568 C 1.09569 0.10201 0.69337
 C569 C 1.11885 0.08558 0.70847
 C570 C 1.12936 0.09511 0.73724
 C571 C 1.11730 0.12119 0.75168
 C572 C 1.09388 0.13702 0.73640
 C573 C 1.08333 0.12767 0.70790
 C574 C 1.08548 0.09147 0.66246
 C575 C 1.06271 0.10645 0.64551
 C576 C 1.05424 0.09596 0.61671
 C577 C 1.06822 0.07034 0.60396
 C578 C 1.09079 0.05508 0.62063
 C579 C 1.09948 0.06542 0.64971
 C580 C 1.13152 0.05974 0.69474
 C581 C 1.12205 0.04989 0.66601
 H582 H 1.14919 0.04700 0.70632
 H583 H 1.13267 0.02985 0.65636
 H584 H 1.14679 0.08170 0.74821
 H585 H 1.08373 0.15727 0.74579
 H586 H 1.03663 0.10803 0.60437
 H587 H 1.10158 0.03510 0.61102
 H588 H 1.06559 0.14112 0.69760
 H589 H 1.05112 0.12631 0.65397
 C590 C 0.89462 -0.09877 0.68704
 C591 C 0.90974 -0.12348 0.70095
 C592 C 0.89928 -0.13515 0.72878
 C593 C 0.87353 -0.12276 0.74344
 C594 C 0.85906 -0.09779 0.72934
 C595 C 0.86934 -0.08608 0.70180
 C596 C 0.90611 -0.08735 0.65706
 C597 C 0.89243 -0.06304 0.64126
 C598 C 0.90372 -0.05354 0.61323
 C599 C 0.92888 -0.06797 0.60016
 C600 C 0.94287 -0.09204 0.61575
 C601 C 0.93170 -0.10180 0.64399
 C602 C 0.93516 -0.13655 0.68696
 C603 C 0.94590 -0.12595 0.65913
 H604 H 0.94689 -0.15543 0.69761
 H605 H 0.96557 -0.13695 0.64922
 H606 H 0.91163 -0.15388 0.73873
 H607 H 0.83927 -0.08708 0.73898
 H608 H 0.89263 -0.03479 0.60175
 H609 H 0.96247 -0.10323 0.60590
 H610 H 0.85693 -0.06715 0.69242
 H611 H 0.87298 -0.05103 0.65002
 C612 C 1.10778 -0.10080 0.31382
 C613 C 1.09137 -0.12406 0.29876
 C614 C 1.10104 -0.13489 0.27023
 C615 C 1.12715 -0.12294 0.25598
 C616 C 1.14327 -0.09982 0.27150
 C617 C 1.13383 -0.08900 0.29975
 C618 C 1.09672 -0.08977 0.34415
 C619 C 1.11135 -0.06644 0.36071
 C620 C 1.10018 -0.05693 0.38881
 C621 C 1.07422 -0.07039 0.40124
 C622 C 1.05938 -0.09360 0.38498
 C623 C 1.07037 -0.10330 0.35657
 C624 C 1.06534 -0.13640 0.31223
 C625 C 1.05510 -0.12628 0.34051
 H626 H 1.05267 -0.15422 0.30075
 H627 H 1.03487 -0.13660 0.34993
 H628 H 1.08760 -0.15233 0.25922
 H629 H 1.16376 -0.08998 0.26245
 H630 H 1.11195 -0.03886 0.40083
 H631 H 1.03914 -0.10399 0.39432
 H632 H 1.14746 -0.07144 0.31017
 H633 H 1.13136 -0.05509 0.35244
 C634 C 0.91026 0.09758 0.30469
 C635 C 0.88457 0.08346 0.29137
 C636 C 0.87342 0.09341 0.26303
 C637 C 0.88734 0.11766 0.24729
 C638 C 0.91384 0.13043 0.26033
 C639 C 0.92502 0.12065 0.28840
 C640 C 0.92044 0.08748 0.33570
 C641 C 0.94482 0.10122 0.35151
 C642 C 0.95291 0.09157 0.38066
 C643 C 0.93701 0.06800 0.39485
 C644 C 0.91286 0.05394 0.37928
 C645 C 0.90437 0.06362 0.34998
 C646 C 0.86987 0.05970 0.30657
 C647 C 0.87966 0.04988 0.33514
 H648 H 0.85032 0.04863 0.29631
 H649 H 0.86738 0.03156 0.34599
 H650 H 0.85340 0.08237 0.25397
 H651 H 0.92643 0.14821 0.24921
 H652 H 0.97171 0.10271 0.39215
 H653 H 0.90047 0.03563 0.39006
 H654 H 0.94525 0.13166 0.29692
 H655 H 0.95780 0.11962 0.34199
 C656 C 0.09468 0.30386 -0.08938
 C657 C 0.08113 0.29086 -0.11558
 C658 C 0.09093 0.26239 -0.12635
 C659 C 0.11452 0.24620 -0.11158
 C660 C 0.12686 0.25902 -0.08473
 C661 C 0.11719 0.28721 -0.07387
 C662 C 0.08468 0.33496 -0.07951
 C663 C 0.09775 0.35037 -0.05449
 C664 C 0.08831 0.37964 -0.04676
 C665 C 0.06555 0.39434 -0.06362
 C666 C 0.05208 0.37914 -0.08836
 C667 C 0.06160 0.34973 -0.09652
 C668 C 0.05812 0.30653 -0.13120
 C669 C 0.04850 0.33525 -0.12181
 H670 H 0.04752 0.29654 -0.15118
 H671 H 0.03083 0.34650 -0.13485
 H672 H 0.08036 0.25361 -0.14679
 H673 H 0.14414 0.24756 -0.07158
 H674 H 0.09896 0.39080 -0.02745
 H675 H 0.03439 0.39030 -0.10148
 H676 H 0.12782 0.29554 -0.05332
 H677 H 0.11547 0.34044 -0.04071
 C678 C -0.10127 0.31483 0.10696
 C679 C -0.11970 0.29705 0.08730
 C680 C -0.12974 0.26821 0.09654
 C681 C -0.12216 0.25681 0.12546
 C682 C -0.10446 0.27491 0.14509
 C683 C -0.09411 0.30341 0.13603
 C684 C -0.09044 0.34519 0.09604
 C685 C -0.07056 0.36376 0.11317
 C686 C -0.06100 0.39178 0.10197
 C687 C -0.07116 0.40216 0.07358
 C688 C -0.09085 0.38388 0.05623
 C689 C -0.10023 0.35538 0.06705
 C690 C -0.12816 0.30823 0.05865
 C691 C -0.11890 0.33689 0.04888
 H692 H -0.14237 0.29471 0.04361
 H693 H -0.12623 0.34457 0.02659
 H694 H -0.14325 0.25455 0.08102
 H695 H -0.09886 0.26729 0.16781
 H696 H -0.04561 0.40541 0.11566
 H697 H -0.09843 0.39155 0.03401
 H698 H -0.08081 0.31618 0.15230
 H699 H -0.06183 0.35701 0.13510
 C700 C -0.10721 0.68574 -0.10448
 C701 C -0.09129 0.70034 -0.12815
 C702 C -0.10178 0.72828 -0.13976
 C703 C -0.12830 0.74228 -0.12822
 C704 C -0.14385 0.72717 -0.10466
 C705 C -0.13357 0.69960 -0.09307
 C706 C -0.09543 0.65602 -0.09268
 C707 C -0.10960 0.64009 -0.06888
 C708 C -0.09800 0.61245 -0.05877
 C709 C -0.07199 0.59980 -0.07201
 C710 C -0.05747 0.61549 -0.09562
 C711 C -0.06896 0.64351 -0.10597
 C712 C -0.06501 0.68690 -0.14016
 C713 C -0.05416 0.65909 -0.12938
 H714 H -0.05269 0.69800 -0.15830
 H715 H -0.03385 0.64963 -0.13956
 H716 H -0.08881 0.73893 -0.15759
 H717 H -0.16451 0.73599 -0.09496
 H718 H -0.10955 0.60093 -0.04040
 H719 H -0.03717 0.60599 -0.10583
 H720 H -0.14689 0.68952 -0.07524
 H721 H -0.12963 0.64847 -0.05762
 C722 C 0.10428 0.69049 0.09784
 C723 C 0.08504 0.70789 0.11685
 C724 C 0.09452 0.73655 0.12751
 C725 C 0.12329 0.74811 0.12001
 C726 C 0.14242 0.73049 0.10151
 C727 C 0.13310 0.70220 0.09052
 C728 C 0.09332 0.66010 0.08680
 C729 C 0.11014 0.64172 0.06663
 C730 C 0.09909 0.61345 0.05727
 C731 C 0.07116 0.60266 0.06790
 C732 C 0.05404 0.62086 0.08770
 C733 C 0.06471 0.64956 0.09691
 C734 C 0.05663 0.69646 0.12541
 C735 C 0.04681 0.66780 0.11590
 H736 H 0.04188 0.70972 0.14000
 H737 H 0.02477 0.65987 0.12341
 H738 H 0.07937 0.74987 0.14159
 H739 H 0.16501 0.73825 0.09587
 H740 H 0.11258 0.59990 0.04175
 H741 H 0.03220 0.61286 0.09569
 H742 H 0.14903 0.68976 0.07670
 H743 H 0.13176 0.64876 0.05763
 C744 C 0.31048 1.10348 0.90175
 C745 C 0.29215 1.08350 0.88424
 C746 C 0.26305 1.09267 0.87455
 C747 C 0.25195 1.12181 0.88159
 C748 C 0.27053 1.14168 0.89846
 C749 C 0.29927 1.13270 0.90846
 C750 C 0.34119 1.09274 0.91206
 C751 C 0.36039 1.11031 0.93093
 C752 C 0.38878 1.09937 0.93994
 C753 C 0.39892 1.07078 0.93024
 C754 C 0.37999 1.05295 0.91159
 C755 C 0.35112 1.06355 0.90276
 C756 C 0.30307 1.05464 0.87629
 C757 C 0.33203 1.04500 0.88508
 H758 H 0.28912 1.03934 0.86280
 H759 H 0.33949 1.02257 0.87814
 H760 H 0.24901 1.07697 0.86167
 H761 H 0.26312 1.16455 0.90361
 H762 H 0.40289 1.11343 0.95454
 H763 H 0.38748 1.03058 0.90440
 H764 H 0.31241 1.14919 0.92108
 H765 H 0.35389 1.13243 0.93927
 C766 C 0.30616 0.90877 1.09762
 C767 C 0.29602 0.87972 1.08809
 C768 C 0.26790 0.86853 1.09804
 C769 C 0.24915 0.88605 1.11707
 C770 C 0.25870 0.91545 1.12520
 C771 C 0.28677 0.92666 1.11573
 C772 C 0.33714 0.91910 1.08803
 C773 C 0.35036 0.94649 1.09833
 C774 C 0.37954 0.95478 1.08921
 C775 C 0.39619 0.93613 1.06946
 C776 C 0.38328 0.90888 1.05901
 C777 C 0.35416 0.90005 1.06844
 C778 C 0.31406 0.86192 1.06883
 C779 C 0.34231 0.87205 1.05888
 H780 H 0.30618 0.83980 1.06126
 H781 H 0.35535 0.85745 1.04391
 H782 H 0.26110 0.84580 1.09147
 H783 H 0.24449 0.92997 1.13902
 H784 H 0.38903 0.97597 1.09753
 H785 H 0.39609 0.89425 1.04387
 H786 H 0.29279 0.94936 1.12284
 H787 H 0.33875 0.96166 1.11369
 C788 C 0.68981 1.10018 1.10432
 C789 C 0.70739 1.11883 1.08501
 C790 C 0.73607 1.12927 1.09467
 C791 C 0.74748 1.12190 1.12368
 C792 C 0.72969 1.10379 1.14287
 C793 C 0.70136 1.09303 1.13340
 C794 C 0.65947 1.08924 1.09310
 C795 C 0.64098 1.06941 1.11001
 C796 C 0.61285 1.05998 1.09869
 C797 C 0.60228 1.07015 1.07036
 C798 C 0.62055 1.08968 1.05314
 C799 C 0.64914 1.09901 1.06415
 C800 C 0.69613 1.12719 1.05633
 C801 C 0.66752 1.11774 1.04625
 H802 H 0.70953 1.14153 1.04154
 H803 H 0.65975 1.12506 1.02400
 H804 H 0.74954 1.14303 1.07945
 H805 H 0.73737 1.09826 1.16561
 H806 H 0.59926 1.04468 1.11229
 H807 H 0.61273 1.09726 1.03098
 H808 H 0.68879 1.07948 1.14938
 H809 H 0.64782 1.06070 1.13190
 C810 C 0.68856 0.89767 0.90196
 C811 C 0.69764 0.90643 0.87240
 C812 C 0.72535 0.89606 0.86048
 C813 C 0.74473 0.87736 0.87776
 C814 C 0.73614 0.86984 0.90756
 C815 C 0.70850 0.87973 0.91949
 C816 C 0.65812 0.90799 0.91327
 C817 C 0.64601 0.89867 0.94139
 C818 C 0.61738 0.90863 0.95070
 C819 C 0.60021 0.92827 0.93238
 C820 C 0.61199 0.93768 0.90435
 C821 C 0.64053 0.92740 0.89451
 C822 C 0.67900 0.92546 0.85488
 C823 C 0.65126 0.93603 0.86585
 H824 H 0.68603 0.93240 0.83234
 H825 H 0.63776 0.95082 0.85145
 H826 H 0.73142 0.90214 0.83745
 H827 H 0.75085 0.85628 0.92190
 H828 H 0.60877 0.90108 0.97247
 H829 H 0.59874 0.95271 0.88994
 H830 H 0.70329 0.87314 0.94250
 H831 H 0.65807 0.88348 0.95641
   
