data_POSCAR
  _audit_creation_date              2014-09-24
  _audit_creation_method            'ToBaCCo'
  _symmetry_space_group_name_H-M    'P1'
  _symmetry_Int_Tables_number       1
  _symmetry_cell_setting            triclinic
  loop_
  _symmetry_equiv_pos_as_xyz
 x,y,z
_cell_length_a 48.5001
_cell_length_b 49.9261
_cell_length_c 48.3830
_cell_angle_alpha 92.929500
_cell_angle_beta 90.579700
_cell_angle_gamma 93.168900
loop_
  _atom_site_label
  _atom_site_type_symbol
  _atom_site_fract_x
  _atom_site_fract_y
  _atom_site_fract_z
N1 N 0.59309 0.66500 0.61256
 N2 N 0.58216 0.65442 0.63455
 C3 C 0.56044 0.66851 0.64258
 C4 C 0.55750 0.68867 0.62441
 C5 C 0.57847 0.68583 0.60559
 H6 H 0.54755 0.66434 0.66013
 H7 H 0.58298 0.69828 0.58837
 Cu8 Cu 0.59708 0.62294 0.65011
 Cu9 Cu 0.62601 0.65175 0.59515
 Cu10 Cu 0.65471 0.59745 0.62393
 N11 N 0.61369 0.59252 0.66608
 N12 N 0.63677 0.58336 0.65634
 C13 C 0.64433 0.56310 0.67155
 C14 C 0.62473 0.55910 0.69168
 C15 C 0.60551 0.57805 0.68762
 H16 H 0.66247 0.55181 0.66795
 H17 H 0.58718 0.58120 0.69963
 N18 N 0.66987 0.61442 0.59108
 N19 N 0.65930 0.63551 0.58049
 C20 C 0.67453 0.64280 0.55870
 C21 C 0.69539 0.62525 0.55526
 C22 C 0.69183 0.60748 0.57603
 H23 H 0.67059 0.65939 0.54597
 H24 H 0.70447 0.59087 0.57994
 H25 H 0.62007 0.61252 0.60654
 H26 H 0.64158 0.63597 0.63038
 N27 N 0.89702 0.31620 0.11536
 N28 N 0.90535 0.32605 0.13995
 C29 C 0.92600 0.31169 0.14902
 C30 C 0.93105 0.29201 0.12880
 C31 C 0.91224 0.29539 0.10773
 H32 H 0.93697 0.31575 0.16849
 H33 H 0.90981 0.28371 0.08832
 Cu34 Cu 0.88942 0.35757 0.15721
 Cu35 Cu 0.86679 0.33129 0.09565
 Cu36 Cu 0.86428 0.39934 0.11186
 N37 N 0.88096 0.39404 0.16840
 N38 N 0.87247 0.41071 0.15033
 C39 C 0.87048 0.43513 0.16303
 C40 C 0.87769 0.43349 0.19058
 C41 C 0.88415 0.40713 0.19334
 H42 H 0.86402 0.45267 0.15303
 H43 H 0.89140 0.39838 0.21188
 N44 N 0.84665 0.38137 0.07830
 N45 N 0.84670 0.35520 0.07283
 C46 C 0.83035 0.34846 0.05067
 C47 C 0.81948 0.37155 0.04172
 C48 C 0.83030 0.39207 0.05958
 H49 H 0.82601 0.32818 0.04222
 H50 H 0.82534 0.41294 0.05990
 H51 H 0.88768 0.36579 0.10794
 H52 H 0.85258 0.36171 0.12335
 N53 N 0.39984 0.17197 -0.11154
 N54 N 0.41053 0.16038 -0.13366
 C55 C 0.43161 0.17637 -0.14244
 C56 C 0.43442 0.19891 -0.12464
 C57 C 0.41403 0.19546 -0.10522
 H58 H 0.44436 0.17179 -0.16008
 H59 H 0.40974 0.20913 -0.08794
 Cu60 Cu 0.39658 0.12504 -0.14804
 Cu61 Cu 0.36794 0.15611 -0.09300
 Cu62 Cu 0.34265 0.09316 -0.11814
 N63 N 0.38294 0.08915 -0.16107
 N64 N 0.36124 0.07724 -0.14991
 C65 C 0.35530 0.05342 -0.16359
 C66 C 0.37456 0.05011 -0.18413
 C67 C 0.39187 0.07306 -0.18193
 H68 H 0.33835 0.03947 -0.15888
 H69 H 0.40924 0.07784 -0.19498
 N70 N 0.32666 0.11253 -0.08617
 N71 N 0.33583 0.13682 -0.07708
 C72 C 0.32013 0.14500 -0.05578
 C73 C 0.30046 0.12476 -0.05108
 C74 C 0.30519 0.10445 -0.07059
 H75 H 0.32291 0.16413 -0.04429
 H76 H 0.29358 0.08537 -0.07338
 H77 H 0.37646 0.11670 -0.10311
 H78 H 0.35220 0.13273 -0.12661
 N79 N 0.09946 0.83941 0.37792
 N80 N 0.08121 0.85606 0.36994
 C81 C 0.05635 0.84280 0.36690
 C82 C 0.05935 0.81630 0.37287
 C83 C 0.08700 0.81480 0.37965
 H84 H 0.03771 0.85159 0.36013
 H85 H 0.09722 0.79728 0.38578
 Cu86 Cu 0.09206 0.89281 0.36192
 Cu87 Cu 0.13781 0.85111 0.38610
 Cu88 Cu 0.15314 0.91952 0.38521
 N89 N 0.10901 0.92488 0.34651
 N90 N 0.13334 0.93501 0.35522
 C91 C 0.14079 0.95621 0.34032
 C92 C 0.11991 0.95953 0.32136
 C93 C 0.09998 0.93940 0.32590
 H94 H 0.16003 0.96815 0.34296
 H95 H 0.08077 0.93518 0.31457
 N96 N 0.17624 0.89544 0.40470
 N97 N 0.17112 0.86917 0.40412
 C98 C 0.18996 0.85834 0.42022
 C99 C 0.20754 0.87887 0.43151
 C100 C 0.19830 0.90210 0.42118
 H101 H 0.18990 0.83733 0.42468
 H102 H 0.20647 0.92241 0.42600
 H103 H 0.12588 0.88825 0.39870
 H104 H 0.14136 0.88536 0.36351
 C105 C 0.09631 0.12615 0.15342
 C106 C 0.07582 0.14486 0.15290
 C107 C 0.07494 0.16290 0.13160
 C108 C 0.09499 0.16233 0.11085
 C109 C 0.11601 0.14415 0.11145
 C110 C 0.11660 0.12586 0.13272
 C111 C 0.09683 0.10772 0.17431
 C112 C 0.11767 0.08930 0.17512
 C113 C 0.13803 0.08931 0.15465
 C114 C 0.13748 0.10729 0.13331
 C115 C 0.15747 0.10700 0.11255
 C116 C 0.15720 0.12540 0.09152
 C117 C 0.13647 0.14398 0.09116
 H118 H 0.06027 0.14512 0.16883
 H119 H 0.09447 0.17637 0.09449
 H120 H 0.08120 0.10793 0.19016
 H121 H 0.15406 0.07503 0.15510
 H122 H 0.17351 0.09274 0.11301
 H123 H 0.13606 0.15807 0.07487
 C124 C 0.39989 0.86556 0.64925
 C125 C 0.41908 0.84552 0.64911
 C126 C 0.42005 0.82657 0.62667
 C127 C 0.40148 0.82769 0.60431
 C128 C 0.38181 0.84726 0.60439
 C129 C 0.38102 0.86629 0.62692
 C130 C 0.39933 0.88496 0.67127
 C131 C 0.37967 0.90461 0.67158
 C132 C 0.36063 0.90491 0.64957
 C133 C 0.36141 0.88613 0.62708
 C134 C 0.34301 0.88702 0.60467
 C135 C 0.34366 0.86815 0.58214
 C136 C 0.36300 0.84819 0.58224
 H137 H 0.43354 0.84491 0.66626
 H138 H 0.40209 0.81307 0.58700
 H139 H 0.41395 0.88460 0.68834
 H140 H 0.34559 0.92020 0.64964
 H141 H 0.32803 0.90236 0.60488
 H142 H 0.36371 0.83362 0.56490
 C143 C 0.90010 0.62514 0.35135
 C144 C 0.91931 0.64711 0.35039
 C145 C 0.91756 0.66956 0.36885
 C146 C 0.89613 0.67015 0.38815
 C147 C 0.87723 0.64799 0.38990
 C148 C 0.87940 0.62526 0.37163
 C149 C 0.90125 0.60307 0.33236
 C150 C 0.88243 0.58078 0.33383
 C151 C 0.86270 0.58044 0.35490
 C152 C 0.86088 0.60265 0.37364
 C153 C 0.84065 0.60275 0.39415
 C154 C 0.83820 0.62542 0.41222
 C155 C 0.85643 0.64805 0.40982
 H156 H 0.93557 0.64682 0.33518
 H157 H 0.89474 0.68748 0.40241
 H158 H 0.91682 0.60321 0.31644
 H159 H 0.84818 0.56324 0.35614
 H160 H 0.82647 0.58535 0.39573
 H161 H 0.85478 0.66551 0.42386
 C162 C 0.60121 0.38364 -0.15011
 C163 C 0.57926 0.36415 -0.14937
 C164 C 0.57914 0.34440 -0.12970
 C165 C 0.60126 0.34412 -0.11079
 C166 C 0.62367 0.36301 -0.11174
 C167 C 0.62366 0.38292 -0.13140
 C168 C 0.60118 0.40375 -0.16934
 C169 C 0.62360 0.42271 -0.17056
 C170 C 0.64608 0.42161 -0.15218
 C171 C 0.64615 0.40202 -0.13241
 C172 C 0.66838 0.40114 -0.11372
 C173 C 0.66863 0.38115 -0.09429
 C174 C 0.64618 0.36216 -0.09347
 H175 H 0.56211 0.36451 -0.16388
 H176 H 0.60132 0.32876 -0.09573
 H177 H 0.58394 0.40437 -0.18369
 H178 H 0.66336 0.43628 -0.15301
 H179 H 0.68567 0.41578 -0.11458
 H180 H 0.64610 0.34679 -0.07842
 C181 C -0.00886 0.23725 0.13000
 N182 N -0.02452 0.23943 0.10689
 N183 N -0.04421 0.25700 0.10660
 C184 C -0.04874 0.27326 0.12928
 N185 N -0.03298 0.27113 0.15234
 N186 N -0.01352 0.25333 0.15275
 C187 C 0.01283 0.21792 0.13037
 N188 N 0.02302 0.21017 0.15475
 N189 N 0.04266 0.19257 0.15512
 C190 C 0.05311 0.18233 0.13113
 N191 N 0.04302 0.19024 0.10674
 N192 N 0.02313 0.20760 0.10637
 C193 C 0.49865 0.74683 0.62566
 N194 N 0.51349 0.74165 0.60255
 N195 N 0.53228 0.72317 0.60222
 C196 C 0.53670 0.70897 0.62489
 N197 N 0.52175 0.71401 0.64796
 N198 N 0.50315 0.73271 0.64838
 C199 C 0.47816 0.76740 0.62600
 N200 N 0.46839 0.77760 0.65030
 N201 N 0.45003 0.79651 0.65053
 C202 C 0.44053 0.80572 0.62647
 N203 N 0.45022 0.79537 0.60218
 N204 N 0.46879 0.77668 0.60196
 C205 C 0.99931 0.75488 0.37018
 N206 N 0.99257 0.78055 0.36681
 N207 N 1.01207 0.80046 0.36750
 C208 C 1.03897 0.79548 0.37197
 N209 N 1.04564 0.76981 0.37552
 N210 N 1.02619 0.74986 0.37446
 C211 C 0.97793 0.73288 0.36933
 N212 N 0.98471 0.70718 0.36377
 N213 N 0.96540 0.68712 0.36321
 C214 C 0.93865 0.69198 0.36855
 N215 N 0.93190 0.71771 0.37424
 N216 N 0.95116 0.73782 0.37443
 C217 C 0.49387 0.26258 -0.12734
 N218 N 0.48774 0.24648 -0.15029
 N219 N 0.46880 0.22617 -0.14944
 C220 C 0.45510 0.22143 -0.12570
 N221 N 0.46105 0.23768 -0.10282
 N222 N 0.48023 0.25778 -0.10358
 C223 C 0.51540 0.28438 -0.12797
 N224 N 0.52782 0.29457 -0.10416
 N225 N 0.54799 0.31375 -0.10472
 C226 C 0.55624 0.32372 -0.12908
 N227 N 0.54358 0.31373 -0.15288
 N228 N 0.52364 0.29429 -0.15236
 C229 C 0.11896 0.01538 0.25993
 N230 N 0.09531 0.00180 0.26712
 N231 N 0.09561 -0.01599 0.28671
 C232 C 0.11951 -0.02061 0.30004
 N233 N 0.14313 -0.00688 0.29299
 N234 N 0.14289 0.01070 0.27320
 C235 C 0.11868 0.03466 0.23804
 N236 N 0.14252 0.04320 0.22600
 N237 N 0.14220 0.06046 0.20591
 C238 C 0.11806 0.07004 0.19730
 N239 N 0.09425 0.06157 0.20948
 N240 N 0.09453 0.04410 0.22937
 C241 C 0.62402 0.50221 -0.24987
 N242 N 0.64604 0.50577 -0.26664
 N243 N 0.64618 0.52414 -0.28566
 C244 C 0.62446 0.53989 -0.28840
 N245 N 0.60251 0.53645 -0.27146
 N246 N 0.60222 0.51784 -0.25266
 C247 C 0.62385 0.48174 -0.22914
 N248 N 0.59978 0.47249 -0.21804
 N249 N 0.59967 0.45363 -0.19952
 C250 C 0.62366 0.44355 -0.19116
 N251 N 0.64773 0.45295 -0.20216
 N252 N 0.64781 0.47157 -0.22093
 C253 C 0.37751 0.98614 0.75696
 N254 N 0.40025 1.00267 0.76266
 N255 N 0.39934 1.02306 0.78146
 C256 C 0.37575 1.02744 0.79545
 N257 N 0.35310 1.01075 0.78994
 N258 N 0.35391 0.99058 0.77090
 C259 C 0.37813 0.96435 0.73548
 N260 N 0.35431 0.95384 0.72335
 N261 N 0.35483 0.93473 0.70316
 C262 C 0.37914 0.92514 0.69458
 N263 N 0.40296 0.93544 0.70695
 N264 N 0.40247 0.95481 0.72692
 C265 C 0.88100 0.49562 0.25199
 N266 N 0.88007 0.46958 0.25893
 N267 N 0.87918 0.44976 0.23936
 C268 C 0.87882 0.45528 0.21217
 N269 N 0.87959 0.48131 0.20525
 N270 N 0.88082 0.50112 0.22480
 C271 C 0.88197 0.51751 0.27345
 N272 N 0.89017 0.54288 0.26718
 N273 N 0.89073 0.56287 0.28651
 C274 C 0.88282 0.55832 0.31279
 N275 N 0.87454 0.53292 0.31903
 N276 N 0.87429 0.51285 0.29976
 C277 C 0.23945 0.12499 0.00935
 N278 N 0.24635 0.10159 -0.00363
 N279 N 0.26568 0.10154 -0.02300
 C280 C 0.27902 0.12484 -0.02986
 N281 N 0.27223 0.14821 -0.01677
 N282 N 0.25269 0.14830 0.00238
 C283 C 0.21806 0.12507 0.03060
 N284 N 0.20615 0.14817 0.03850
 N285 N 0.18668 0.14823 0.05773
 C286 C 0.17860 0.12526 0.07000
 N287 N 0.19065 0.10220 0.06217
 N288 N 0.20990 0.10207 0.04273
 C289 C 0.75602 0.62540 0.49447
 N290 N 0.74104 0.64728 0.49948
 N291 N 0.72163 0.64719 0.51877
 C292 C 0.71670 0.62533 0.53393
 N293 N 0.73177 0.60351 0.52902
 N294 N 0.75099 0.60350 0.50954
 C295 C 0.77729 0.62542 0.47311
 N296 N 0.78770 0.60207 0.46357
 N297 N 0.80693 0.60206 0.44411
 C298 C 0.81669 0.62543 0.43365
 N299 N 0.80634 0.64880 0.44332
 N300 N 0.78690 0.64878 0.46258
 C301 C 0.75784 0.37608 -0.01863
 N302 N 0.77117 0.39881 -0.00749
 N303 N 0.79104 0.39741 0.01154
 C304 C 0.79842 0.37324 0.01994
 N305 N 0.78527 0.35055 0.00859
 N306 N 0.76529 0.35195 -0.01027
 C307 C 0.73514 0.37746 -0.03873
 N308 N 0.71845 0.35533 -0.04543
 N309 N 0.69739 0.35655 -0.06309
 C310 C 0.69227 0.37990 -0.07490
 N311 N 0.70912 0.40202 -0.06833
 N312 N 0.73009 0.40085 -0.05048
 C313 C 0.26789 0.87383 0.49305
 N314 N 0.25935 0.89802 0.48598
 N315 N 0.24049 0.89958 0.46603
 C316 C 0.22932 0.87700 0.45253
 N317 N 0.23789 0.85278 0.45952
 N318 N 0.25692 0.85123 0.47937
 C319 C 0.28799 0.87227 0.51573
 N320 N 0.29981 0.84889 0.52053
 N321 N 0.31768 0.84759 0.54147
 C322 C 0.32421 0.86954 0.55855
 N323 N 0.31234 0.89288 0.55367
 N324 N 0.29465 0.89424 0.53263
   
