data_POSCAR
  _audit_creation_date              2014-09-24
  _audit_creation_method            'ToBaCCo'
  _symmetry_space_group_name_H-M    'P1'
  _symmetry_Int_Tables_number       1
  _symmetry_cell_setting            triclinic
  loop_
  _symmetry_equiv_pos_as_xyz
 x,y,z
_cell_length_a 20.0193
_cell_length_b 20.0773
_cell_length_c 20.0697
_cell_angle_alpha 90.432200
_cell_angle_beta 90.300800
_cell_angle_gamma 89.810600
loop_
  _atom_site_label
  _atom_site_type_symbol
  _atom_site_fract_x
  _atom_site_fract_y
  _atom_site_fract_z
O1 O 0.58190 0.17293 0.01594
 O2 O 0.66121 0.09049 0.01231
 C3 C 0.64341 0.15241 0.01888
 O4 O 0.40142 -0.01110 0.16209
 O5 O 0.33031 -0.01267 0.07227
 C6 C 0.34199 -0.01414 0.13594
 O7 O 0.58666 0.01888 0.16871
 O8 O 0.66436 0.00655 0.08650
 C9 C 0.64814 0.01648 0.14837
 O10 O 0.39681 0.16123 -0.00819
 O11 O 0.32857 0.06959 -0.00778
 C12 C 0.33855 0.13320 -0.01053
 Zr13 Zr 0.49288 0.11794 0.00145
 O14 O 0.47645 0.19120 0.07576
 O15 O 0.50126 0.19342 -0.07111
 Zr16 Zr 0.49681 -0.00332 0.11735
 O17 O 0.48602 0.05835 0.20260
 O18 O 0.50887 -0.08373 0.18408
 O19 O 0.55280 0.07000 0.07120
 O20 O 0.43594 0.06243 0.06598
 O21 O 0.41314 0.00350 -0.17321
 O22 O 0.33656 -0.00747 -0.08904
 C23 C 0.35257 -0.00185 -0.15142
 O24 O 0.60658 -0.16060 -0.00579
 O25 O 0.67382 -0.06925 -0.00142
 C26 C 0.66529 -0.13288 -0.00535
 O27 O 0.41951 -0.17417 0.00315
 O28 O 0.33982 -0.09238 -0.00584
 C29 C 0.35777 -0.15414 0.00149
 O30 O 0.60002 0.00537 -0.16501
 O31 O 0.67120 0.00994 -0.07480
 C32 C 0.65924 0.00869 -0.13845
 Zr33 Zr 0.50464 0.00180 -0.12009
 O34 O 0.50433 -0.07313 -0.19491
 O35 O 0.50997 0.07680 -0.19341
 Zr36 Zr 0.50896 -0.11901 -0.00484
 O37 O 0.50658 -0.18685 -0.08622
 O38 O 0.51966 -0.20133 0.05930
 Zr39 Zr 0.60028 0.00533 0.00268
 Zr40 Zr 0.40099 -0.00682 -0.00525
 O41 O 0.44902 -0.07081 -0.07336
 O42 O 0.56722 -0.06396 -0.06968
 O43 O 0.43895 0.06554 -0.07066
 O44 O 0.56146 -0.06657 0.06752
 O45 O 0.55678 0.07232 -0.06509
 O46 O 0.44393 -0.07428 0.06322
 H47 H 0.40280 0.08812 0.09222
 H48 H 0.59336 -0.09209 0.09542
 H49 H 0.42091 -0.09977 -0.10199
 H50 H 0.58650 0.10268 -0.08969
 H51 H 0.46715 -0.11006 0.18278
 H52 H 0.51489 -0.18394 0.10516
 H53 H 0.55010 -0.18433 -0.10918
 H54 H 0.54512 -0.10040 -0.18879
 H55 H 0.47267 0.10820 -0.18543
 H56 H 0.46542 0.18625 -0.10440
 H57 H 0.49844 0.17480 0.11668
 H58 H 0.46085 0.09850 0.18912
 O59 O 0.00599 0.58904 -0.17168
 O60 O 0.01245 0.66269 -0.08399
 C61 C 0.01106 0.64879 -0.14719
 O62 O -0.17191 0.41669 0.01080
 O63 O -0.09010 0.33717 0.00336
 C64 C -0.15181 0.35518 0.01262
 O65 O -0.15805 0.60180 -0.00491
 O66 O -0.06594 0.66863 -0.00682
 C67 C -0.12999 0.66015 -0.00619
 O68 O 0.01168 0.40362 -0.17223
 O69 O -0.01117 0.33120 -0.08801
 C70 C -0.00091 0.34420 -0.15072
 Zr71 Zr 0.00047 0.49619 -0.12309
 O72 O -0.08191 0.49258 -0.18967
 O73 O 0.06402 0.49666 -0.20671
 Zr74 Zr -0.11620 0.50480 -0.00402
 O75 O -0.18313 0.50420 -0.08575
 O76 O -0.19708 0.51766 0.06211
 O77 O -0.06300 0.56098 -0.07222
 O78 O -0.07082 0.44197 -0.07236
 O79 O 0.16302 0.39119 -0.01279
 O80 O 0.07078 0.32334 -0.00906
 C81 C 0.13456 0.33310 -0.01323
 O82 O 0.01344 0.58940 0.16419
 O83 O 0.01452 0.66294 0.07703
 C84 C 0.01568 0.64914 0.13996
 O85 O -0.00514 0.40254 0.16241
 O86 O -0.00520 0.32936 0.07454
 C87 C -0.00751 0.34239 0.13784
 O88 O 0.17627 0.57852 0.00409
 O89 O 0.09354 0.65781 -0.00023
 C90 C 0.15568 0.64005 0.00474
 Zr91 Zr 0.12172 0.48843 -0.00568
 O92 O 0.20095 0.47483 0.06285
 O93 O 0.19368 0.49298 -0.08246
 Zr94 Zr 0.00435 0.49614 0.11465
 O95 O 0.07930 0.48388 0.18846
 O96 O -0.06893 0.50699 0.18967
 Zr97 Zr 0.00940 0.59541 -0.00353
 Zr98 Zr -0.00387 0.39717 -0.00506
 O99 O 0.06823 0.43401 0.06255
 O100 O 0.07640 0.55071 0.06452
 O101 O 0.06650 0.43272 -0.07407
 O102 O -0.06071 0.55870 0.06454
 O103 O 0.07379 0.54952 -0.07269
 O104 O -0.06877 0.44245 0.06438
 H105 H -0.10065 0.41220 -0.09847
 H106 H -0.08633 0.59053 0.09247
 H107 H 0.09473 0.40213 0.08941
 H108 H 0.10383 0.57778 -0.09934
 H109 H -0.17788 0.51864 0.10755
 H110 H -0.10325 0.47244 0.18156
 H111 H 0.11032 0.52197 0.18528
 H112 H 0.18397 0.48890 0.10684
 H113 H 0.18589 0.45464 -0.11268
 H114 H 0.10993 0.49101 -0.18934
 H115 H -0.10387 0.53682 -0.18840
 H116 H -0.22843 0.50735 -0.06637
 O117 O 0.16119 -0.01016 0.39786
 O118 O 0.07113 -0.00622 0.32724
 C119 C 0.13486 -0.00986 0.33853
 O120 O 0.00126 -0.17408 0.58825
 O121 O 0.00446 -0.08742 0.66350
 C122 C 0.00510 -0.15050 0.64854
 O123 O 0.00493 -0.17283 0.40303
 O124 O -0.00932 -0.08635 0.33014
 C125 C 0.00018 -0.14880 0.34347
 O126 O 0.16936 -0.00075 0.58457
 O127 O 0.08499 -0.00559 0.66151
 C128 C 0.14752 -0.00262 0.64532
 Zr129 Zr 0.11596 -0.00490 0.49300
 O130 O 0.19200 -0.07839 0.49676
 O131 O 0.18874 0.07066 0.48322
 Zr132 Zr -0.00385 -0.12401 0.49591
 O133 O 0.06244 -0.20598 0.49450
 O134 O -0.08484 -0.19155 0.49108
 O135 O 0.06326 -0.07362 0.43510
 O136 O 0.06763 -0.07363 0.55140
 O137 O 0.00286 0.16252 0.59221
 O138 O 0.00495 0.07507 0.66504
 C139 C 0.00456 0.13835 0.65213
 O140 O -0.17554 0.00386 0.41147
 O141 O -0.09167 -0.00123 0.33426
 C142 C -0.15406 0.00533 0.35062
 O143 O -0.16865 -0.00486 0.59578
 O144 O -0.07825 -0.00674 0.66662
 C145 C -0.14216 -0.00406 0.65488
 O146 O -0.01210 0.16275 0.40546
 O147 O -0.01015 0.07588 0.33091
 C148 C -0.01345 0.13900 0.34495
 Zr149 Zr -0.00324 0.11333 0.49846
 O150 O -0.07730 0.18830 0.50827
 O151 O 0.07210 0.18647 0.48941
 Zr152 Zr -0.12177 -0.00646 0.50174
 O153 O -0.20403 0.05922 0.50899
 O154 O -0.18633 -0.08949 0.50101
 Zr155 Zr -0.00716 -0.00504 0.39741
 Zr156 Zr 0.00135 -0.00598 0.59726
 O157 O -0.06847 0.06190 0.55807
 O158 O -0.07445 0.06317 0.44148
 O159 O 0.06802 0.06323 0.55545
 O160 O -0.07386 -0.07340 0.43970
 O161 O 0.06251 0.06293 0.43730
 O162 O -0.06931 -0.07455 0.55972
 H163 H 0.09766 -0.10143 0.57897
 H164 H -0.10239 -0.10028 0.40930
 H165 H -0.09465 0.09038 0.58862
 H166 H 0.08899 0.09062 0.40654
 H167 H -0.10732 -0.19059 0.53490
 H168 H -0.23228 -0.07103 0.50093
 H169 H -0.18541 0.10470 0.50948
 H170 H -0.11087 0.18085 0.47263
 H171 H 0.10284 0.18165 0.52783
 H172 H 0.18415 0.10119 0.52185
 H173 H 0.18366 -0.11035 0.45990
 H174 H 0.10773 -0.18746 0.48922
 C175 C -0.19174 0.23896 -0.00218
 C176 C -0.24147 0.19082 -0.00263
 C177 C -0.30289 0.20277 0.02829
 C178 C -0.31045 0.26197 0.06699
 C179 C -0.26003 0.31190 0.06557
 C180 C -0.20222 0.30213 0.02574
 C181 C -0.26730 0.36769 0.10783
 N182 N -0.32184 0.37392 0.14709
 N183 N -0.36903 0.32747 0.14819
 C184 C -0.36481 0.27157 0.11021
 H185 H -0.14453 0.22665 -0.02428
 H186 H -0.23217 0.14439 -0.02890
 H187 H -0.22883 0.40469 0.11303
 H188 H -0.40239 0.23411 0.11679
 C189 C 0.19892 0.74966 -0.03000
 C190 C 0.24687 0.79976 -0.02994
 C191 C 0.30462 0.79497 0.00944
 C192 C 0.30953 0.74236 0.05622
 C193 C 0.26054 0.69122 0.05646
 C194 C 0.20622 0.69365 0.01069
 C195 C 0.26607 0.64107 0.10485
 N196 N 0.31687 0.64228 0.14972
 N197 N 0.36209 0.69068 0.15017
 C198 C 0.35984 0.74092 0.10551
 H199 H 0.15643 0.75401 -0.06341
 H200 H 0.23912 0.84223 -0.06171
 H201 H 0.22952 0.60213 0.10924
 H202 H 0.39590 0.78036 0.11089
 C203 C 0.18660 0.23302 0.03591
 C204 C 0.23675 0.18454 0.03671
 C205 C 0.28018 0.17728 -0.01738
 C206 C 0.26985 0.21583 -0.07529
 C207 C 0.21854 0.26445 -0.07636
 C208 C 0.17875 0.27480 -0.01917
 C209 C 0.20850 0.30104 -0.13508
 N210 N 0.24807 0.28981 -0.18867
 N211 N 0.29678 0.24449 -0.18745
 C212 C 0.30903 0.20715 -0.13266
 H213 H 0.15603 0.24024 0.07980
 H214 H 0.24388 0.15486 0.08108
 H215 H 0.16884 0.33750 -0.13922
 H216 H 0.34847 0.17031 -0.13480
 C217 C -0.24035 0.70737 -0.03220
 C218 C -0.28871 0.75657 -0.03253
 C219 C -0.27531 0.82155 -0.01029
 C220 C -0.20801 0.83764 0.00852
 C221 C -0.15874 0.78572 0.01216
 C222 C -0.17563 0.71936 -0.00827
 C223 C -0.09499 0.80253 0.03755
 N224 N -0.08015 0.86630 0.05367
 N225 N -0.12451 0.91500 0.04663
 C226 C -0.18734 0.90313 0.02461
 H227 H -0.25481 0.65846 -0.05021
 H228 H -0.33800 0.74264 -0.05016
 H229 H -0.05633 0.76671 0.04627
 H230 H -0.21865 0.94610 0.01961
 C231 C -0.04485 -0.20692 0.24400
 C232 C -0.04094 -0.25625 0.19488
 C233 C 0.01695 -0.29502 0.18773
 C234 C 0.07291 -0.28228 0.22901
 C235 C 0.06890 -0.23250 0.27920
 C236 C 0.00873 -0.19601 0.28771
 C237 C 0.12604 -0.21995 0.31844
 N238 N 0.18280 -0.25552 0.30800
 N239 N 0.18630 -0.30266 0.26110
 C240 C 0.13332 -0.31728 0.22130
 H241 H -0.09089 -0.17895 0.24966
 H242 H -0.08433 -0.26599 0.16389
 H243 H 0.12653 -0.18151 0.35644
 H244 H 0.13905 -0.35547 0.18352
 C245 C 0.04085 0.24622 0.70001
 C246 C 0.03742 0.29825 0.74622
 C247 C -0.00254 0.29380 0.80359
 C248 C -0.04419 0.23680 0.80996
 C249 C -0.03810 0.18216 0.76472
 C250 C 0.00441 0.18737 0.70837
 C251 C -0.07907 0.12640 0.77510
 N252 N -0.12734 0.12802 0.82193
 N253 N -0.13785 0.18197 0.85899
 C254 C -0.09854 0.23642 0.85410
 H255 H 0.07262 0.25214 0.65691
 H256 H 0.06863 0.34139 0.73784
 H257 H -0.07485 0.08196 0.74628
 H258 H -0.11262 0.28025 0.88205
 C259 C 0.01531 0.24958 0.29946
 C260 C 0.01736 0.29744 0.24978
 C261 C -0.01068 0.28605 0.18642
 C262 C -0.04212 0.22331 0.17378
 C263 C -0.04654 0.17543 0.22585
 C264 C -0.01590 0.18800 0.28900
 C265 C -0.08381 0.11740 0.21337
 N266 N -0.11103 0.10552 0.15269
 N267 N -0.10433 0.14843 0.10327
 C268 C -0.07128 0.20658 0.11176
 H269 H 0.03928 0.26092 0.34671
 H270 H 0.04228 0.34402 0.26115
 H271 H -0.09350 0.08209 0.25123
 H272 H -0.06895 0.23795 0.06940
 C273 C -0.02718 -0.19323 0.75970
 C274 C -0.02554 -0.24138 0.80956
 C275 C 0.01750 -0.29632 0.80465
 C276 C 0.06331 -0.30007 0.75112
 C277 C 0.06067 -0.25208 0.69973
 C278 C 0.01332 -0.19923 0.70317
 C279 C 0.10788 -0.25714 0.64807
 N280 N 0.15394 -0.30672 0.64811
 N281 N 0.15672 -0.35133 0.69669
 C282 C 0.11351 -0.34934 0.74837
 H283 H -0.06217 -0.15237 0.76403
 H284 H -0.05998 -0.23711 0.85088
 H285 H 0.11103 -0.22054 0.60941
 H286 H 0.12028 -0.38505 0.78767
 C287 C 0.23568 0.05337 0.71188
 C288 C 0.28548 0.05346 0.76085
 C289 C 0.29866 -0.00374 0.79836
 C290 C 0.26250 -0.06270 0.78481
 C291 C 0.21105 -0.06241 0.73612
 C292 C 0.19763 -0.00384 0.69946
 C293 C 0.17627 -0.12186 0.72398
 N294 N 0.19294 -0.17798 0.75739
 N295 N 0.24237 -0.17868 0.80192
 C296 C 0.27790 -0.12307 0.81648
 H297 H 0.22677 0.09822 0.68342
 H298 H 0.31425 0.09831 0.76920
 H299 H 0.13671 -0.12434 0.68764
 H300 H 0.31795 -0.12679 0.85240
 C301 C -0.19564 -0.01835 0.23620
 C302 C -0.24281 -0.01317 0.18523
 C303 C -0.30233 0.02332 0.19416
 C304 C -0.30844 0.06403 0.25253
 C305 C -0.25822 0.06134 0.30291
 C306 C -0.20390 0.01603 0.29654
 C307 C -0.26187 0.10734 0.35614
 N308 N -0.31303 0.15146 0.35975
 N309 N -0.36000 0.15418 0.31281
 C310 C -0.35897 0.11299 0.25908
 H311 H -0.15308 -0.05108 0.22899
 H312 H -0.23537 -0.04348 0.14116
 H313 H -0.22300 0.11126 0.39319
 H314 H -0.39568 0.12185 0.22060
 C315 C 0.24237 0.02348 0.29026
 C316 C 0.29211 0.02189 0.24235
 C317 C 0.28477 -0.01510 0.18328
 C318 C 0.22435 -0.05091 0.17256
 C319 C 0.17232 -0.04770 0.22087
 C320 C 0.18222 -0.01106 0.28130
 C321 C 0.11333 -0.08340 0.20743
 N322 N 0.10743 -0.12087 0.15135
 N323 N 0.15671 -0.12548 0.10749
 C324 C 0.21476 -0.09215 0.11640
 H325 H 0.25123 0.05242 0.33523
 H326 H 0.33720 0.05022 0.25188
 H327 H 0.07175 -0.08264 0.24040
 H328 H 0.25286 -0.09951 0.08004
 C329 C -0.18977 -0.04288 0.76228
 C330 C -0.23708 -0.03914 0.81324
 C331 C -0.28415 0.01266 0.81493
 C332 C -0.28056 0.06408 0.76727
 C333 C -0.23270 0.06034 0.71559
 C334 C -0.18839 0.00496 0.71180
 C335 C -0.22990 0.11338 0.67022
 N336 N -0.27247 0.16570 0.67602
 N337 N -0.31754 0.16896 0.72440
 C338 C -0.32294 0.12013 0.77024
 H339 H -0.15605 -0.08497 0.76059
 H340 H -0.23906 -0.07866 0.84967
 H341 H -0.19368 0.11468 0.63101
 H342 H -0.35942 0.12630 0.80920
   
