data_POSCAR
  _audit_creation_date              2014-09-24
  _audit_creation_method            'ToBaCCo'
  _symmetry_space_group_name_H-M    'P1'
  _symmetry_Int_Tables_number       1
  _symmetry_cell_setting            triclinic
  loop_
  _symmetry_equiv_pos_as_xyz
 x,y,z
_cell_length_a 29.4434
_cell_length_b 30.8756
_cell_length_c 9.0932
_cell_angle_alpha 90.377000
_cell_angle_beta 90.000800
_cell_angle_gamma 90.097400
loop_
  _atom_site_label
  _atom_site_type_symbol
  _atom_site_fract_x
  _atom_site_fract_y
  _atom_site_fract_z
O1 O 0.29973 0.20741 0.15426
 O2 O 0.21218 0.29110 0.10454
 O3 O 0.29960 0.29106 0.15425
 O4 O 0.21239 0.20664 0.10400
 O5 O 0.19876 0.20758 0.34280
 O6 O 0.28636 0.29165 0.39342
 O7 O 0.19898 0.29126 0.34372
 O8 O 0.28622 0.20730 0.39325
 Cu9 Cu 0.25720 0.24902 0.10529
 Cu10 Cu 0.24133 0.24946 0.39225
 C11 C 0.30822 0.19348 0.28237
 C12 C 0.19039 0.30511 0.21561
 C13 C 0.30821 0.30532 0.28252
 C14 C 0.19027 0.19311 0.21462
 O15 O 0.70026 0.29191 0.15417
 O16 O 0.78781 0.20801 0.10465
 O17 O 0.70040 0.20825 0.15430
 O18 O 0.78761 0.29247 0.10385
 O19 O 0.80123 0.29249 0.34266
 O20 O 0.71363 0.20862 0.39346
 O21 O 0.80102 0.20882 0.34382
 O22 O 0.71378 0.29297 0.39316
 Cu23 Cu 0.74280 0.25010 0.10527
 Cu24 Cu 0.75867 0.25081 0.39223
 C25 C 0.69178 0.30634 0.28227
 C26 C 0.80960 0.19445 0.21573
 C27 C 0.69179 0.19450 0.28258
 C28 C 0.80973 0.30645 0.21446
 O29 O 0.71405 0.79307 0.60670
 O30 O 0.80065 0.70852 0.65654
 O31 O 0.71336 0.70872 0.60659
 O32 O 0.80160 0.79219 0.65686
 O33 O 0.78801 0.79327 0.89567
 O34 O 0.70011 0.70947 0.84576
 O35 O 0.78743 0.70881 0.89571
 O36 O 0.70056 0.79312 0.84570
 Cu37 Cu 0.75867 0.75062 0.60772
 Cu38 Cu 0.74281 0.75125 0.89468
 C39 C 0.69212 0.80703 0.71754
 C40 C 0.80908 0.69459 0.78468
 C41 C 0.69145 0.69519 0.71755
 C42 C 0.81026 0.80659 0.78501
 O43 O 0.29972 0.79270 0.84556
 O44 O 0.21229 0.70868 0.89621
 O45 O 0.29963 0.70904 0.84597
 O46 O 0.21230 0.79314 0.89529
 O47 O 0.19866 0.79190 0.65652
 O48 O 0.28638 0.70821 0.60681
 O49 O 0.19910 0.70823 0.65703
 O50 O 0.28621 0.79256 0.60657
 Cu51 Cu 0.25721 0.75098 0.89474
 Cu52 Cu 0.24134 0.75020 0.60777
 C53 C 0.30823 0.80653 0.71732
 C54 C 0.19056 0.69443 0.78529
 C55 C 0.30822 0.69469 0.71784
 C56 C 0.19012 0.80643 0.78454
 C57 C 1.04224 0.08321 0.12858
 C58 C 1.00089 0.10286 0.16386
 C59 C 0.95940 0.08319 0.12928
 C60 C 0.95895 0.04144 0.06408
 C61 C 1.00069 0.02047 0.03168
 C62 C 1.04250 0.04155 0.06295
 C63 C 1.08339 0.02012 0.03026
 C64 C 1.08331 -0.02102 -0.03322
 C65 C 1.04233 -0.04257 -0.06490
 C66 C 1.00061 -0.02160 -0.03263
 C67 C 0.91800 0.01977 0.03304
 C68 C 0.91792 -0.02134 -0.03065
 C69 C 0.95881 -0.04271 -0.06380
 C70 C 0.95908 -0.08437 -0.12952
 C71 C 1.00045 -0.10398 -0.16504
 C72 C 1.04190 -0.08427 -0.13032
 H73 H 1.11595 0.03481 0.05442
 H74 H 1.11581 -0.03561 -0.05821
 H75 H 0.88548 0.03419 0.05879
 H76 H 0.88536 -0.03606 -0.05449
 H77 H 1.00101 0.13515 0.21170
 H78 H 1.00039 -0.13626 -0.21301
 C79 C 0.54116 0.58413 0.62994
 C80 C 0.49973 0.60365 0.66512
 C81 C 0.45831 0.58391 0.63019
 C82 C 0.45799 0.54223 0.56455
 C83 C 0.49978 0.52132 0.53253
 C84 C 0.54154 0.54245 0.56431
 C85 C 0.58247 0.52103 0.53211
 C86 C 0.58250 0.47999 0.46801
 C87 C 0.54161 0.45833 0.43612
 C88 C 0.49982 0.47924 0.46815
 C89 C 0.41710 0.52058 0.53259
 C90 C 0.41713 0.47954 0.46852
 C91 C 0.45806 0.45811 0.43636
 C92 C 0.45844 0.41642 0.37072
 C93 C 0.49988 0.39690 0.33558
 C94 C 0.54130 0.41665 0.37051
 H95 H 0.61501 0.53561 0.55708
 H96 H 0.61507 0.46561 0.44279
 H97 H 0.38453 0.53499 0.55773
 H98 H 0.38458 0.46496 0.44353
 H99 H 0.49971 0.63592 0.71314
 H100 H 0.49991 0.36463 0.28753
 C101 C 0.04094 0.58293 -0.12737
 C102 C -0.00045 0.60242 -0.16243
 C103 C -0.04192 0.58282 -0.12824
 C104 C -0.04236 0.54128 -0.06348
 C105 C -0.00061 0.52041 -0.03133
 C106 C 0.04121 0.54142 -0.06231
 C107 C 0.08208 0.52004 -0.03004
 C108 C 0.08200 0.47912 0.03322
 C109 C 0.04104 0.45759 0.06436
 C110 C -0.00069 0.47849 0.03232
 C111 C -0.08332 0.51970 -0.03275
 C112 C -0.08339 0.47876 0.03032
 C113 C -0.04250 0.45748 0.06318
 C114 C -0.04225 0.41602 0.12844
 C115 C -0.00090 0.39649 0.16360
 C116 C 0.04059 0.41605 0.12917
 H117 H 0.11466 0.53455 -0.05431
 H118 H 0.11451 0.46471 0.05842
 H119 H -0.11583 0.53408 -0.05824
 H120 H -0.11595 0.46408 0.05388
 H121 H -0.00038 0.63458 -0.20993
 H122 H -0.00102 0.36435 0.21121
 C123 C 0.45883 0.91684 0.62862
 C124 C 0.50028 0.89742 0.66361
 C125 C 0.54171 0.91706 0.62885
 C126 C 0.54201 0.95854 0.56354
 C127 C 0.50022 0.97934 0.53167
 C128 C 0.45846 0.95831 0.56331
 C129 C 0.41753 0.97965 0.53135
 C130 C 0.41750 1.02048 0.46759
 C131 C 0.45839 1.04203 0.43581
 C132 C 0.50018 1.02122 0.46766
 C133 C 0.58290 0.98009 0.53180
 C134 C 0.58287 1.02094 0.46806
 C135 C 0.54194 1.04226 0.43603
 C136 C 0.54156 1.08373 0.37070
 C137 C 0.50011 1.10314 0.33571
 C138 C 0.45870 1.08350 0.37050
 H139 H 0.38499 0.96517 0.55626
 H140 H 0.38493 1.03479 0.44254
 H141 H 0.61547 0.96578 0.55687
 H142 H 0.61541 1.03544 0.44323
 H143 H 0.50030 0.86532 0.71148
 H144 H 0.50009 1.13525 0.28787
 N145 N 1.12861 0.15152 0.30971
 C146 C 1.15545 0.16308 0.19490
 N147 N 1.14607 0.14663 0.05930
 N148 N 1.11097 0.11994 0.03914
 C149 C 1.08396 0.10874 0.15379
 N150 N 1.09331 0.12511 0.28932
 N151 N 0.64659 0.64556 0.56319
 C152 C 0.65457 0.66372 0.69711
 N153 N 0.62612 0.65435 0.81002
 N154 N 0.59074 0.62806 0.78953
 C155 C 0.58282 0.60978 0.65580
 N156 N 0.61133 0.61908 0.54289
 N157 N -0.12863 0.34844 0.30953
 C158 C -0.15546 0.33640 0.19471
 N159 N -0.14605 0.35230 0.05908
 N160 N -0.11095 0.37890 0.03892
 C161 C -0.08396 0.39058 0.15360
 N162 N -0.09334 0.37477 0.28915
 N163 N 0.35313 0.85545 0.56256
 C164 C 0.34513 0.83790 0.69661
 N165 N 0.37370 0.84762 0.80930
 N166 N 0.40920 0.87367 0.78853
 C167 C 0.41714 0.89135 0.65468
 N168 N 0.38851 0.88170 0.54197
 N169 N -0.12615 0.65287 -0.30800
 C170 C -0.15457 0.66273 -0.19516
 N171 N -0.14696 0.64475 -0.06157
 N172 N -0.11204 0.61803 -0.04148
 C173 C -0.08351 0.60831 -0.15427
 N174 N -0.09110 0.62637 -0.28771
 N175 N 0.37365 1.15260 0.19012
 C176 C 0.34507 1.16217 0.30283
 N177 N 0.35300 1.14450 0.43670
 N178 N 0.38833 1.11831 0.45715
 C179 C 0.41698 1.10881 0.34445
 N180 N 0.40910 1.12660 0.21075
 N181 N 1.14582 -0.14719 -0.06062
 C182 C 1.15520 -0.16375 -0.19603
 N183 N 1.12826 -0.15249 -0.31087
 N184 N 1.09289 -0.12626 -0.29072
 C185 C 1.08356 -0.10978 -0.15538
 N186 N 1.11066 -0.12069 -0.04070
 N187 N 0.62634 0.34687 0.19003
 C188 C 0.65493 0.33773 0.30272
 N189 N 0.64700 0.35591 0.43661
 N190 N 0.61167 0.38218 0.45709
 C191 C 0.58302 0.39124 0.34440
 N192 N 0.59089 0.37295 0.21069
 N193 N 0.87231 -0.15236 -0.31023
 C194 C 0.84538 -0.16371 -0.19535
 N195 N 0.85496 -0.14735 -0.05976
 N196 N 0.89028 -0.12093 -0.03972
 C197 C 0.91734 -0.10990 -0.15446
 N198 N 0.90782 -0.12620 -0.28996
 N199 N 0.37347 0.34631 0.19024
 C200 C 0.34500 0.33688 0.30307
 N201 N 0.35298 0.35498 0.43709
 N202 N 0.38824 0.38146 0.45754
 C203 C 0.41677 0.39080 0.34471
 N204 N 0.40885 0.37258 0.21088
 N205 N 0.14611 0.64499 -0.06040
 C206 C 0.15399 0.66270 -0.19430
 N207 N 0.12567 0.65266 -0.30731
 N208 N 0.09047 0.62623 -0.28693
 C209 C 0.08262 0.60844 -0.15320
 N210 N 0.11103 0.61836 -0.04020
 N211 N 0.62652 1.15316 0.19030
 C212 C 0.65499 1.16302 0.30314
 N213 N 0.64702 1.14543 0.43714
 N214 N 0.61176 1.11903 0.45757
 C215 C 0.58323 1.10925 0.34473
 N216 N 0.59114 1.12696 0.21091
 N217 N 0.12524 0.34629 0.30844
 C218 C 0.15371 0.33663 0.19551
 N219 N 0.14589 0.35452 0.06190
 N220 N 0.11075 0.38099 0.04194
 C221 C 0.08221 0.39055 0.15486
 N222 N 0.08998 0.37256 0.28827
 N223 N 0.62676 0.84806 0.80961
 C224 C 0.65536 0.83844 0.69698
 N225 N 0.64743 0.85604 0.56300
 N226 N 0.61210 0.88223 0.54242
 C227 C 0.58344 0.89177 0.65505
 N228 N 0.59131 0.87405 0.78884
 N229 N 0.85407 0.14441 0.06210
 C230 C 0.84628 0.16284 0.19567
 N231 N 0.87477 0.15366 0.30856
 N232 N 0.91003 0.12732 0.28840
 C233 C 0.91778 0.10877 0.15502
 N234 N 0.88921 0.11786 0.04214
 N235 N 0.35286 0.64497 0.56369
 C236 C 0.34496 0.66318 0.69753
 N237 N 0.37344 0.65391 0.81038
 N238 N 0.40878 0.62768 0.78988
 C239 C 0.41663 0.60936 0.65620
 N240 N 0.38807 0.61854 0.54338
   
