data_POSCAR
  _audit_creation_date              2014-09-24
  _audit_creation_method            'ToBaCCo'
  _symmetry_space_group_name_H-M    'P1'
  _symmetry_Int_Tables_number       1
  _symmetry_cell_setting            triclinic
  loop_
  _symmetry_equiv_pos_as_xyz
 x,y,z
_cell_length_a 43.1387
_cell_length_b 42.8544
_cell_length_c 43.0432
_cell_angle_alpha 89.999100
_cell_angle_beta 90.008100
_cell_angle_gamma 90.022800
loop_
  _atom_site_label
  _atom_site_type_symbol
  _atom_site_fract_x
  _atom_site_fract_y
  _atom_site_fract_z
C1 C 0.33249 0.37850 1.35705
 C2 C 0.35486 0.37989 1.33345
 C3 C 0.37816 0.35779 1.33222
 C4 C 0.37934 0.33394 1.35452
 C5 C 0.35734 0.33265 1.37769
 C6 C 0.33368 0.35507 1.37893
 C7 C 0.30672 0.39623 1.36341
 N8 N 0.29183 0.38423 1.38877
 C9 C 0.30859 0.35890 1.39825
 C10 C 0.36366 0.30674 1.39540
 N11 N 0.38911 0.29186 1.38365
 C12 C 0.39868 0.30875 1.35848
 C13 C 0.39593 0.36433 1.30648
 N14 N 0.38396 0.38984 1.29200
 C15 C 0.35880 0.39948 1.30844
 H16 H 0.29936 0.41594 1.34962
 H17 H 0.30342 0.34392 1.41775
 H18 H 0.34978 0.29927 1.41491
 H19 H 0.41828 0.30362 1.34374
 H20 H 0.41561 0.35092 1.29845
 H21 H 0.34436 0.41930 1.30271
 C22 C 1.16887 0.62230 0.85832
 C23 C 1.14644 0.62086 0.83478
 C24 C 1.12309 0.64290 0.83360
 C25 C 1.12194 0.66676 0.85589
 C26 C 1.14400 0.66813 0.87900
 C27 C 1.16772 0.64574 0.88019
 C28 C 1.19467 0.60459 0.86461
 N29 N 1.20962 0.61660 0.88993
 C30 C 1.19288 0.64194 0.89945
 C31 C 1.13764 0.69404 0.89670
 N32 N 1.11210 0.70883 0.88500
 C33 C 1.10252 0.69187 0.85987
 C34 C 1.10526 0.63633 0.80791
 N35 N 1.11723 0.61084 0.79341
 C36 C 1.14245 0.60126 0.80978
 H37 H 1.20200 0.58489 0.85080
 H38 H 1.19811 0.65690 0.91894
 H39 H 1.15152 0.70156 0.91620
 H40 H 1.08288 0.69691 0.84516
 H41 H 1.08553 0.64971 0.79994
 H42 H 1.15691 0.58146 0.80401
 C43 C 0.66797 -0.12033 0.14184
 C44 C 0.64554 -0.11892 0.16538
 C45 C 0.62217 -0.14097 0.16651
 C46 C 0.62100 -0.16479 0.14419
 C47 C 0.64305 -0.16611 0.12108
 C48 C 0.66678 -0.14373 0.11993
 C49 C 0.69382 -0.10265 0.13559
 N50 N 0.70875 -0.11466 0.11026
 C51 C 0.69195 -0.13995 0.10070
 C52 C 0.63672 -0.19203 0.10337
 N53 N 0.61121 -0.20687 0.11506
 C54 C 0.60161 -0.18994 0.14019
 C55 C 0.60436 -0.13448 0.19222
 N56 N 0.61636 -0.10903 0.20679
 C57 C 0.64158 -0.09939 0.19044
 H58 H 0.70120 -0.08298 0.14943
 H59 H 0.69715 -0.15491 0.08120
 H60 H 0.65063 -0.19954 0.08390
 H61 H 0.58197 -0.19503 0.15491
 H62 H 0.58464 -0.14790 0.20017
 H63 H 0.65607 -0.07962 0.19629
 C64 C -0.16899 1.11999 -0.35772
 C65 C -0.14656 1.11854 -0.33416
 C66 C -0.12315 1.14054 -0.33302
 C67 C -0.12192 1.16436 -0.35533
 C68 C -0.14397 1.16574 -0.37845
 C69 C -0.16774 1.14341 -0.37962
 C70 C -0.19485 1.10236 -0.36402
 N71 N -0.20973 1.11439 -0.38937
 C72 C -0.19288 1.13966 -0.39889
 C73 C -0.13757 1.19165 -0.39616
 N74 N -0.11202 1.20642 -0.38444
 C75 C -0.10247 1.18945 -0.35931
 C76 C -0.10535 1.13401 -0.30732
 N77 N -0.11738 1.10858 -0.29275
 C78 C -0.14263 1.09899 -0.30910
 H79 H -0.20227 1.08268 -0.35021
 H80 H -0.19803 1.15464 -0.41840
 H81 H -0.15143 1.19917 -0.41565
 H82 H -0.08283 1.19449 -0.34458
 H83 H -0.08560 1.14739 -0.29937
 H84 H -0.15715 1.07924 -0.30326
 C85 C 0.66863 0.62101 0.64194
 C86 C 0.64627 0.61981 0.66556
 C87 C 0.62295 0.64190 0.66660
 C88 C 0.62173 0.66557 0.64412
 C89 C 0.64370 0.66674 0.62091
 C90 C 0.66738 0.64435 0.61981
 C91 C 0.69445 0.60326 0.63570
 N92 N 0.70896 0.61525 0.61031
 C93 C 0.69247 0.64042 0.60047
 C94 C 0.63733 0.69253 0.60305
 N95 N 0.61187 0.70745 0.61473
 C96 C 0.60235 0.69070 0.64002
 C97 C 0.60517 0.63559 0.69238
 N98 N 0.61713 0.61021 0.70708
 C99 C 0.64231 0.60044 0.69075
 H100 H 0.70249 0.58357 0.64922
 H101 H 0.69823 0.65488 0.58068
 H102 H 0.65116 0.69989 0.58346
 H103 H 0.58277 0.69589 0.65477
 H104 H 0.58548 0.64907 0.70027
 H105 H 0.65675 0.58067 0.69667
 C106 C 0.83164 0.37920 0.14391
 C107 C 0.85411 0.38035 0.16746
 C108 C 0.87739 0.35822 0.16841
 C109 C 0.87846 0.33456 0.14590
 C110 C 0.85638 0.33350 0.12280
 C111 C 0.83274 0.35596 0.12183
 C112 C 0.80588 0.39702 0.13777
 N113 N 0.79091 0.38526 0.11234
 C114 C 0.80761 0.35999 0.10260
 C115 C 0.86260 0.30773 0.10484
 N116 N 0.88807 0.29272 0.11638
 C117 C 0.89776 0.30939 0.14166
 C118 C 0.89528 0.36450 0.19413
 N119 N 0.88342 0.38990 0.20887
 C120 C 0.85819 0.39972 0.19262
 H121 H 0.79860 0.41664 0.15172
 H122 H 0.80237 0.34518 0.08300
 H123 H 0.84865 0.30046 0.08531
 H124 H 0.91740 0.30412 0.15630
 H125 H 0.91498 0.35099 0.20195
 H126 H 0.84381 0.41952 0.19859
 C127 C 0.33133 0.12162 0.85675
 C128 C 0.35381 0.12015 0.83324
 C129 C 0.37729 0.14207 0.83218
 C130 C 0.37856 0.16584 0.85454
 C131 C 0.35639 0.16724 0.87768
 C132 C 0.33256 0.14497 0.87872
 C133 C 0.30542 0.10401 0.86292
 N134 N 0.29050 0.11600 0.88826
 C135 C 0.30736 0.14122 0.89790
 C136 C 0.36283 0.19312 0.89548
 N137 N 0.38836 0.20750 0.88369
 C138 C 0.39810 0.19088 0.85861
 C139 C 0.39511 0.13553 0.80651
 N140 N 0.38302 0.11016 0.79188
 C141 C 0.35771 0.10063 0.80817
 H142 H 0.29802 0.08439 0.84903
 H143 H 0.30219 0.15614 0.91744
 H144 H 0.34935 0.20130 0.91505
 H145 H 0.41797 0.19651 0.84432
 H146 H 0.41492 0.14885 0.79861
 H147 H 0.34314 0.08094 0.80228
 C148 C 0.16731 0.87829 0.35745
 C149 C 0.14481 0.87971 0.33398
 C150 C 0.12139 0.85772 0.33292
 C151 C 0.12021 0.83394 0.35527
 C152 C 0.14241 0.83259 0.37839
 C153 C 0.16618 0.85493 0.37941
 C154 C 0.19318 0.89596 0.36357
 N155 N 0.20821 0.88401 0.38886
 C156 C 0.19144 0.85875 0.39854
 C157 C 0.13607 0.80669 0.39618
 N158 N 0.11057 0.79223 0.38441
 C159 C 0.10075 0.80883 0.35934
 C160 C 0.10354 0.86423 0.30723
 N161 N 0.11558 0.88963 0.29261
 C162 C 0.14085 0.89922 0.30891
 H163 H 0.20052 0.91559 0.34965
 H164 H 0.19671 0.84383 0.41807
 H165 H 0.14960 0.79854 0.41574
 H166 H 0.08088 0.80315 0.34506
 H167 H 0.08377 0.85086 0.29932
 H168 H 0.15538 0.91895 0.30303
 Zn169 Zn 0.00614 1.03833 -0.01913
 Zn170 Zn -0.02457 0.97576 -0.02431
 Zn171 Zn 0.03728 0.98182 0.00682
 Zn172 Zn -0.01930 1.00740 0.03756
 O173 O -0.00014 1.00080 0.00021
 O174 O -0.01288 1.04057 -0.05600
 O175 O -0.00568 0.94002 -0.03512
 O176 O 0.06936 1.00424 -0.00735
 O177 O -0.03561 0.99433 -0.06003
 O178 O 0.04624 1.04613 -0.02670
 O179 O 0.04003 0.94475 -0.01203
 O180 O 0.00283 0.99339 0.06990
 O181 O -0.06010 0.96466 -0.00557
 O182 O 0.04485 0.97446 0.04708
 O183 O -0.05603 0.98823 0.04011
 O184 O -0.02687 1.04780 0.04504
 O185 O -0.00805 1.07078 0.00294
 C186 C -0.02949 1.02119 -0.07076
 C187 C 0.02109 0.92961 -0.02874
 C188 C 0.07047 1.03043 -0.02099
 C189 C 0.02899 0.98002 0.07123
 C190 C -0.07076 0.97119 0.02111
 C191 C -0.02141 1.07208 0.02914
 Zn192 Zn 0.49292 -0.03813 0.48026
 Zn193 Zn 0.52393 0.02426 0.47508
 Zn194 Zn 0.46196 0.01856 0.50603
 Zn195 Zn 0.51834 -0.00723 0.53699
 O196 O 0.49931 -0.00061 0.49956
 O197 O 0.51189 -0.04047 0.44340
 O198 O 0.50523 0.06006 0.46415
 O199 O 0.42981 -0.00378 0.49188
 O200 O 0.53496 0.00560 0.43941
 O201 O 0.45279 -0.04586 0.47276
 O202 O 0.45942 0.05561 0.48708
 O203 O 0.49612 0.00679 0.56926
 O204 O 0.55945 0.03527 0.49392
 O205 O 0.45431 0.02600 0.54626
 O206 O 0.55509 0.01188 0.53966
 O207 O 0.52588 -0.04764 0.54446
 O208 O 0.50707 -0.07059 0.50234
 C209 C 0.52865 -0.02121 0.42867
 C210 C 0.47849 0.07062 0.47040
 C211 C 0.42861 -0.03005 0.47840
 C212 C 0.47002 0.02030 0.57048
 C213 C 0.56996 0.02880 0.52067
 C214 C 0.52043 -0.07190 0.52853
 Zn215 Zn 1.00771 0.46103 0.48217
 Zn216 Zn 1.03855 0.51780 0.50798
 Zn217 Zn 0.97665 0.52334 0.47686
 Zn218 Zn 0.98212 0.49193 0.53882
 O219 O 1.00123 0.49855 0.50143
 O220 O 1.04785 0.45344 0.47464
 O221 O 1.04107 0.55486 0.48906
 O222 O 0.96567 0.50462 0.44119
 O223 O 1.07074 0.49556 0.49381
 O224 O 0.98874 0.45859 0.44530
 O225 O 0.99534 0.55916 0.46595
 O226 O 0.94535 0.51099 0.54139
 O227 O 1.04613 0.52525 0.54823
 O228 O 0.94111 0.53432 0.49561
 O229 O 1.00426 0.50604 0.57114
 O230 O 0.97461 0.45150 0.54630
 O231 O 0.99360 0.42856 0.50426
 C232 C 1.07199 0.46933 0.48026
 C233 C 1.02203 0.56980 0.47230
 C234 C 0.97198 0.47779 0.43051
 C235 C 0.93053 0.52788 0.52234
 C236 C 1.03035 0.51959 0.57242
 C237 C 0.98015 0.42724 0.53040
 Zn238 Zn 0.48139 0.49403 0.96245
 Zn239 Zn 0.47601 0.52535 1.02447
 Zn240 Zn 0.50698 0.46299 1.01903
 Zn241 Zn 0.53789 0.51973 0.99330
 O242 O 0.50054 0.50055 0.99984
 O243 O 0.44466 0.51321 0.95991
 O244 O 0.46504 0.50658 1.06013
 O245 O 0.49285 0.43057 0.99687
 O246 O 0.44046 0.53642 1.00575
 O247 O 0.47378 0.45363 0.95493
 O248 O 0.48800 0.46051 1.05587
 O249 O 0.57004 0.49749 1.00756
 O250 O 0.49475 0.56114 1.03538
 O251 O 0.54710 0.45535 1.02661
 O252 O 0.54042 0.55681 1.01216
 O253 O 0.54554 0.52708 0.95305
 O254 O 0.50359 0.50804 0.93014
 C255 C 0.42987 0.53008 0.97899
 C256 C 0.47131 0.47970 1.07073
 C257 C 0.47935 0.42933 0.97074
 C258 C 0.57126 0.47125 1.02108
 C259 C 0.52143 0.57177 1.02895
 C260 C 0.52976 0.52143 0.92886
 C261 C 1.22196 0.38966 0.43887
 C262 C 1.20849 0.41711 0.42782
 C263 C 1.22302 0.43386 0.40412
 C264 C 1.25080 0.42314 0.39128
 C265 C 1.26478 0.39519 0.40184
 C266 C 1.24976 0.37880 0.42615
 C267 C 1.17948 0.42789 0.44035
 C268 C 1.15503 0.43706 0.45036
 C269 C 1.12624 0.44802 0.46147
 C270 C 1.10153 0.45760 0.47039
 H271 H 1.21084 0.37645 0.45722
 H272 H 1.21281 0.45525 0.39544
 H273 H 1.26103 0.43725 0.37324
 H274 H 1.25879 0.35723 0.43534
 C275 C 0.27834 0.56682 0.90518
 C276 C 0.29309 0.58365 0.92868
 C277 C 0.27978 0.61121 0.93966
 C278 C 0.25193 0.62210 0.92705
 C279 C 0.23670 0.60563 0.90292
 C280 C 0.25052 0.57756 0.89244
 C281 C 0.32217 0.57281 0.94103
 C282 C 0.34668 0.56348 0.95076
 C283 C 0.37553 0.55222 0.96142
 C284 C 0.40029 0.54230 0.96984
 H285 H 0.28842 0.54535 0.89655
 H286 H 0.29107 0.62449 0.95786
 H287 H 0.24302 0.64376 0.93615
 H288 H 0.24012 0.56337 0.87456
 C289 C -0.22231 0.93489 0.09515
 C290 C -0.20767 0.91809 0.07157
 C291 C -0.22112 0.89063 0.06050
 C292 C -0.24900 0.87981 0.07309
 C293 C -0.26413 0.89626 0.09730
 C294 C -0.25016 0.92423 0.10787
 C295 C -0.17856 0.92884 0.05921
 C296 C -0.15403 0.93807 0.04944
 C297 C -0.12515 0.94920 0.03873
 C298 C -0.10037 0.95903 0.03027
 H299 H -0.21211 0.95630 0.10385
 H300 H -0.20992 0.87737 0.04224
 H301 H -0.25802 0.85822 0.06391
 H302 H -0.26047 0.93838 0.12582
 C303 C 0.72029 0.10915 0.56063
 C304 C 0.70676 0.08171 0.57169
 C305 C 0.72129 0.06492 0.59535
 C306 C 0.74912 0.07557 0.60816
 C307 C 0.76316 0.10350 0.59760
 C308 C 0.74814 0.11994 0.57332
 C309 C 0.67769 0.07098 0.55922
 C310 C 0.65318 0.06178 0.54934
 C311 C 0.62433 0.05070 0.53851
 C312 C 0.59956 0.04091 0.52995
 H313 H 0.70916 0.12239 0.54232
 H314 H 0.71104 0.04354 0.60403
 H315 H 0.75935 0.06143 0.62617
 H316 H 0.75721 0.14151 0.56414
 C317 C 0.43911 0.22156 0.38947
 C318 C 0.42804 0.20813 0.41686
 C319 C 0.40440 0.22285 0.43343
 C320 C 0.39160 0.25075 0.42261
 C321 C 0.40216 0.26470 0.39472
 C322 C 0.42643 0.24951 0.37850
 C323 C 0.44043 0.17893 0.42776
 C324 C 0.45020 0.15431 0.43712
 C325 C 0.46089 0.12531 0.44838
 C326 C 0.46933 0.10040 0.45827
 H327 H 0.45741 0.21029 0.37639
 H328 H 0.39570 0.21268 0.45478
 H329 H 0.37362 0.26114 0.43660
 H330 H 0.43560 0.25850 0.35698
 C331 C 0.93854 0.27632 0.60969
 C332 C 0.92737 0.29000 0.58248
 C333 C 0.90344 0.27559 0.56602
 C334 C 0.89048 0.24773 0.57680
 C335 C 0.90116 0.23354 0.60453
 C336 C 0.92571 0.24844 0.62062
 C337 C 0.94001 0.31913 0.57166
 C338 C 0.95010 0.34369 0.56249
 C339 C 0.96129 0.37263 0.55157
 C340 C 0.97026 0.39749 0.54204
 H341 H 0.95707 0.28736 0.62268
 H342 H 0.89466 0.28596 0.54481
 H343 H 0.87225 0.23759 0.56293
 H344 H 0.93500 0.23926 0.64200
 C345 C 0.06156 0.77871 -0.10903
 C346 C 0.07274 0.79236 -0.08180
 C347 C 0.09668 0.77794 -0.06538
 C348 C 0.10964 0.75011 -0.07620
 C349 C 0.09894 0.73594 -0.10394
 C350 C 0.07439 0.75085 -0.12000
 C351 C 0.06012 0.82147 -0.07092
 C352 C 0.05012 0.84603 -0.06164
 C353 C 0.03914 0.87497 -0.05052
 C354 C 0.03047 0.89984 -0.04075
 H355 H 0.04302 0.78974 -0.12199
 H356 H 0.10548 0.78829 -0.04417
 H357 H 0.12788 0.73997 -0.06236
 H358 H 0.06508 0.74168 -0.14139
 C359 C 0.56101 0.72295 1.10925
 C360 C 0.57217 0.70939 1.08197
 C361 C 0.59594 0.72399 1.06545
 C362 C 0.60877 0.75190 1.07623
 C363 C 0.59813 0.76597 1.10402
 C364 C 0.57372 0.75090 1.12017
 C365 C 0.55972 0.68018 1.07114
 C366 C 0.54989 0.65555 1.06188
 C367 C 0.53912 0.62652 1.05076
 C368 C 0.53062 0.60159 1.04098
 H369 H 0.54261 0.71178 1.12228
 H370 H 0.60470 0.71371 1.04419
 H371 H 0.62687 0.76218 1.06230
 H372 H 0.56447 0.75999 1.14161
 C373 C 0.38613 0.43210 1.21554
 C374 C 0.41748 0.42937 1.20767
 C375 C 0.43786 0.41403 1.22782
 C376 C 0.42692 0.40124 1.25563
 C377 C 0.39539 0.40364 1.26366
 C378 C 0.37514 0.41936 1.24334
 C379 C 0.42862 0.44159 1.17859
 C380 C 0.43806 0.45132 1.15407
 C381 C 0.44933 0.46203 1.12519
 C382 C 0.45920 0.47051 1.10039
 H383 H 0.37011 0.44379 1.20003
 H384 H 0.46219 0.41180 1.22198
 H385 H 0.44318 0.38968 1.27092
 H386 H 0.35069 0.42125 1.24859
 C387 C 0.61413 -0.06739 0.28358
 C388 C 0.58276 -0.07017 0.29136
 C389 C 0.56238 -0.08526 0.27102
 C390 C 0.57334 -0.09778 0.24312
 C391 C 0.60489 -0.09538 0.23517
 C392 C 0.62514 -0.07987 0.25567
 C393 C 0.57158 -0.05829 0.32056
 C394 C 0.56208 -0.04886 0.34517
 C395 C 0.55073 -0.03848 0.37413
 C396 C 0.54080 -0.03023 0.39897
 H397 H 0.63014 -0.05588 0.29924
 H398 H 0.53803 -0.08752 0.27680
 H399 H 0.55709 -0.10917 0.22769
 H400 H 0.64960 -0.07797 0.25048
 C401 C -0.06338 1.08476 -0.22855
 C402 C -0.08376 1.06974 -0.20816
 C403 C -0.11514 1.06699 -0.21593
 C404 C -0.12616 1.07944 -0.24386
 C405 C -0.10591 1.09489 -0.26438
 C406 C -0.07434 1.09725 -0.25646
 C407 C -0.07258 1.05793 -0.17893
 C408 C -0.06305 1.04858 -0.15431
 C409 C -0.05165 1.03830 -0.12533
 C410 C -0.04168 1.03012 -0.10046
 H411 H -0.03903 1.08700 -0.22278
 H412 H -0.13116 1.05554 -0.20024
 H413 H -0.15063 1.07757 -0.24903
 H414 H -0.05809 1.10860 -0.27191
 C415 C 1.06319 0.58663 0.72934
 C416 C 1.08354 0.57133 0.70913
 C417 C 1.11492 0.56864 0.71692
 C418 C 1.12596 0.58138 0.74471
 C419 C 1.10574 0.59705 0.76509
 C420 C 1.07418 0.59941 0.75712
 C421 C 1.07235 0.55904 0.68010
 C422 C 1.06293 0.54919 0.65562
 C423 C 1.05178 0.53821 0.62680
 C424 C 1.04210 0.52938 0.60204
 H425 H 1.03884 0.58882 0.72355
 H426 H 1.13091 0.55698 0.70138
 H427 H 1.15043 0.57951 0.74990
 H428 H 1.05795 0.61093 0.77246
 C429 C 0.77344 0.56122 0.58700
 C430 C 0.79355 0.58177 0.57176
 C431 C 0.78556 0.61327 0.56880
 C432 C 0.75766 0.62424 0.58121
 C433 C 0.73738 0.60383 0.59683
 C434 C 0.74555 0.57215 0.59946
 C435 C 0.82269 0.57064 0.55984
 C436 C 0.84724 0.56118 0.55035
 C437 C 0.87613 0.54989 0.53985
 C438 C 0.90091 0.54001 0.53149
 H439 H 0.77938 0.53678 0.58940
 H440 H 0.80103 0.62941 0.55718
 H441 H 0.75231 0.64881 0.57915
 H442 H 0.73030 0.55576 0.61094
 C443 C 0.72210 0.43508 1.09754
 C444 C 0.70760 0.41864 1.07361
 C445 C 0.72107 0.39132 1.06225
 C446 C 0.74885 0.38029 1.07487
 C447 C 0.76386 0.39638 1.09940
 C448 C 0.74986 0.42420 1.11029
 C449 C 0.67862 0.42958 1.06113
 C450 C 0.65420 0.43885 1.05113
 C451 C 0.62545 0.44987 1.03999
 C452 C 0.60077 0.45949 1.03102
 H453 H 0.71188 0.45636 1.10647
 H454 H 0.70997 0.37834 1.04372
 H455 H 0.75788 0.35884 1.06541
 H456 H 0.76007 0.43806 1.12853
 C457 C 0.22040 1.11064 -0.06195
 C458 C 0.20692 1.08321 -0.07308
 C459 C 0.22150 1.06648 -0.09674
 C460 C 0.24934 1.07717 -0.10947
 C461 C 0.26336 1.10509 -0.09882
 C462 C 0.24827 1.12148 -0.07455
 C463 C 0.17788 1.07240 -0.06063
 C464 C 0.15342 1.06315 -0.05070
 C465 C 0.12464 1.05207 -0.03968
 C466 C 0.09995 1.04235 -0.03082
 H467 H 0.20924 1.12384 -0.04362
 H468 H 0.21129 1.04511 -0.10548
 H469 H 0.25962 1.06307 -0.12748
 H470 H 0.25732 1.14303 -0.06531
 C471 C 0.27857 -0.11054 0.43829
 C472 C 0.29189 -0.08304 0.42715
 C473 C 0.27710 -0.06627 0.40364
 C474 C 0.24922 -0.07701 0.39105
 C475 C 0.23537 -0.10502 0.40169
 C476 C 0.25065 -0.12144 0.42582
 C477 C 0.32100 -0.07217 0.43942
 C478 C 0.34551 -0.06287 0.44918
 C479 C 0.37435 -0.05172 0.46000
 C480 C 0.39908 -0.04197 0.46870
 H481 H 0.28990 -0.12377 0.45649
 H482 H 0.28719 -0.04483 0.39491
 H483 H 0.23878 -0.06287 0.37317
 H484 H 0.24173 -0.14305 0.43503
 C485 C 0.59648 -0.22373 0.56471
 C486 C 0.57273 -0.20907 0.58118
 C487 C 0.56164 -0.22247 0.60857
 C488 C 0.57439 -0.25032 0.61965
 C489 C 0.59876 -0.26547 0.60355
 C490 C 0.60935 -0.25156 0.57564
 C491 C 0.56021 -0.17996 0.57020
 C492 C 0.55022 -0.15542 0.56089
 C493 C 0.53915 -0.12649 0.54983
 C494 C 0.53026 -0.10164 0.54022
 H495 H 0.60519 -0.21358 0.54337
 H496 H 0.54325 -0.21124 0.62156
 H497 H 0.56517 -0.25929 0.64116
 H498 H 0.62744 -0.26190 0.56175
 C499 C 1.08710 0.72764 0.43852
 C500 C 1.07164 0.70745 0.41821
 C501 C 1.06858 0.71543 0.38684
 C502 C 1.08111 0.74339 0.37576
 C503 C 1.09695 0.76375 0.39594
 C504 C 1.09967 0.75560 0.42750
 C505 C 1.05963 0.67820 0.42943
 C506 C 1.05008 0.65356 0.43895
 C507 C 1.03954 0.62453 0.45029
 C508 C 1.03117 0.59960 0.46019
 H509 H 1.08958 0.72171 0.46287
 H510 H 1.05679 0.69989 0.37087
 H511 H 1.07896 0.74873 0.35129
 H512 H 1.11133 0.77092 0.44370
 C513 C -0.06193 1.22251 0.10978
 C514 C -0.07317 1.20924 0.08239
 C515 C -0.09695 1.22403 0.06606
 C516 C -0.10969 1.25186 0.07714
 C517 C -0.09894 1.26564 0.10506
 C518 C -0.07455 1.25037 0.12101
 C519 C -0.06079 1.18013 0.07125
 C520 C -0.05092 1.15558 0.06181
 C521 C -0.03997 1.12666 0.05060
 C522 C -0.03117 1.10182 0.04089
 H523 H -0.04352 1.21118 0.12267
 H524 H -0.10578 1.21398 0.04472
 H525 H -0.12779 1.26230 0.06335
 H526 H -0.06522 1.25923 0.14252
 C527 C 0.43064 0.28414 0.88609
 C528 C 0.42767 0.29211 0.91746
 C529 C 0.41214 0.27199 0.93779
 C530 C 0.39943 0.24409 0.92677
 C531 C 0.40207 0.23594 0.89521
 C532 C 0.41797 0.25624 0.87502
 C533 C 0.43991 0.32126 0.92868
 C534 C 0.44974 0.34582 0.93812
 C535 C 0.46069 0.37476 0.94930
 C536 C 0.46953 0.39960 0.95899
 H537 H 0.44248 0.29962 0.87011
 H538 H 0.40974 0.27792 0.96214
 H539 H 0.38773 0.22882 0.94299
 H540 H 0.42006 0.25090 0.85054
 C541 C 0.56308 0.58675 0.77138
 C542 C 0.58341 0.57165 0.79176
 C543 C 0.61478 0.56881 0.78400
 C544 C 0.62584 0.58121 0.75607
 C545 C 0.60564 0.59670 0.73552
 C546 C 0.57408 0.59918 0.74346
 C547 C 0.57219 0.55974 0.82094
 C548 C 0.56268 0.55020 0.84550
 C549 C 0.55141 0.53958 0.87441
 C550 C 0.54162 0.53100 0.89921
 H551 H 0.53874 0.58904 0.77714
 H552 H 0.63075 0.55730 0.79968
 H553 H 0.65029 0.57925 0.75089
 H554 H 0.55786 0.61056 0.72800
 C555 C 0.38519 0.06850 0.71511
 C556 C 0.41659 0.07109 0.70740
 C557 C 0.43701 0.08610 0.72777
 C558 C 0.42605 0.09870 0.75563
 C559 C 0.39446 0.09647 0.76351
 C560 C 0.37418 0.08106 0.74298
 C561 C 0.42776 0.05903 0.67828
 C562 C 0.43721 0.04937 0.65374
 C563 C 0.44843 0.03862 0.62487
 C564 C 0.45818 0.02995 0.60009
 H565 H 0.36915 0.05706 0.69943
 H566 H 0.46138 0.08820 0.72205
 H567 H 0.44233 0.11001 0.77109
 H568 H 0.34969 0.07930 0.74811
 C569 C 0.06161 0.91368 0.22845
 C570 C 0.08202 0.92879 0.20816
 C571 C 0.11341 0.93141 0.21591
 C572 C 0.12441 0.91880 0.24376
 C573 C 0.10413 0.90331 0.26423
 C574 C 0.07256 0.90101 0.25630
 C575 C 0.07087 0.94096 0.17906
 C576 C 0.06149 0.95071 0.15454
 C577 C 0.05038 0.96157 0.12567
 C578 C 0.04073 0.97032 0.10087
 H579 H 0.03725 0.91154 0.22269
 H580 H 0.12944 0.94294 0.20029
 H581 H 0.14888 0.92060 0.24892
 H582 H 0.05629 0.88963 0.27171
 C583 C 0.93771 0.41336 0.27300
 C584 C 0.91747 0.42852 0.29341
 C585 C 0.88608 0.43139 0.28574
 C586 C 0.87492 0.41897 0.25785
 C587 C 0.89503 0.40342 0.23727
 C588 C 0.92660 0.40089 0.24512
 C589 C 0.92879 0.44042 0.32256
 C590 C 0.93840 0.44989 0.34712
 C591 C 0.94983 0.46035 0.37603
 C592 C 0.95981 0.46868 0.40084
 H593 H 0.96206 0.41102 0.27870
 H594 H 0.87017 0.44295 0.30145
 H595 H 0.85044 0.42096 0.25275
 H596 H 0.94275 0.38946 0.22963
   
