data_POSCAR
  _audit_creation_date              2014-09-24
  _audit_creation_method            'ToBaCCo'
  _symmetry_space_group_name_H-M    'P1'
  _symmetry_Int_Tables_number       1
  _symmetry_cell_setting            triclinic
  loop_
  _symmetry_equiv_pos_as_xyz
 x,y,z
_cell_length_a 42.6807
_cell_length_b 43.3839
_cell_length_c 42.1477
_cell_angle_alpha 90.695400
_cell_angle_beta 89.401500
_cell_angle_gamma 90.123900
loop_
  _atom_site_label
  _atom_site_type_symbol
  _atom_site_fract_x
  _atom_site_fract_y
  _atom_site_fract_z
C1 C 0.36439 0.34591 0.31910
 C2 C 0.38924 0.32870 0.30619
 C3 C 0.39778 0.30053 0.31940
 C4 C 0.38143 0.28938 0.34611
 C5 C 0.35631 0.30624 0.35931
 C6 C 0.34786 0.33465 0.34578
 C7 C 0.35507 0.37365 0.30516
 C8 C 0.32940 0.39009 0.31748
 C9 C 0.31348 0.37908 0.34448
 C10 C 0.32232 0.35144 0.35842
 C11 C 0.30513 0.33977 0.38405
 C12 C 0.31296 0.31152 0.39727
 C13 C 0.33886 0.29486 0.38516
 H14 H 0.40186 0.33695 0.28550
 H15 H 0.38785 0.26746 0.35619
 H16 H 0.36708 0.38204 0.28417
 H17 H 0.29346 0.39150 0.35409
 H18 H 0.28504 0.35229 0.39342
 H19 H 0.34487 0.27282 0.39523
 C20 C 0.35769 0.85503 -0.17985
 C21 C 0.38527 0.83884 -0.18800
 C22 C 0.39179 0.81049 -0.17381
 C23 C 0.37029 0.79779 -0.15238
 C24 C 0.34306 0.81386 -0.14360
 C25 C 0.33667 0.84268 -0.15720
 C26 C 0.35184 0.88431 -0.19220
 C27 C 0.32572 0.90147 -0.18191
 C28 C 0.30475 0.88914 -0.15959
 C29 C 0.31013 0.85978 -0.14697
 C30 C 0.29049 0.84791 -0.12303
 C31 C 0.29738 0.81963 -0.10893
 C32 C 0.32332 0.80246 -0.11980
 H33 H 0.40241 0.84899 -0.20394
 H34 H 0.37593 0.77630 -0.14085
 H35 H 0.36831 0.89439 -0.20891
 H36 H 0.28503 0.90284 -0.15125
 H37 H 0.27049 0.86107 -0.11450
 H38 H 0.32870 0.78054 -0.10907
 C39 C 0.85647 0.35466 -0.18414
 C40 C 0.88540 0.34151 -0.19281
 C41 C 0.89550 0.31432 -0.17861
 C42 C 0.87600 0.29931 -0.15673
 C43 C 0.84695 0.31212 -0.14783
 C44 C 0.83724 0.34013 -0.16132
 C45 C 0.84766 0.38331 -0.19604
 C46 C 0.82042 0.39801 -0.18494
 C47 C 0.80089 0.38343 -0.16272
 C48 C 0.80915 0.35441 -0.15078
 C49 C 0.79082 0.34023 -0.12720
 C50 C 0.80045 0.31247 -0.11365
 C51 C 0.82841 0.29840 -0.12425
 H52 H 0.90098 0.35344 -0.20906
 H53 H 0.88431 0.27868 -0.14525
 H54 H 0.86295 0.39515 -0.21264
 H55 H 0.78018 0.39523 -0.15378
 H56 H 0.76945 0.35110 -0.11868
 H57 H 0.83608 0.27710 -0.11369
 C58 C 0.85867 0.85353 0.32519
 C59 C 0.88404 0.83773 0.31148
 C60 C 0.89141 0.80777 0.32081
 C61 C 0.87322 0.79328 0.34440
 C62 C 0.84742 0.80873 0.35830
 C63 C 0.84001 0.83887 0.34840
 C64 C 0.85208 0.88402 0.31668
 C65 C 0.82703 0.89982 0.33108
 C66 C 0.80784 0.88498 0.35324
 C67 C 0.81422 0.85464 0.36210
 C68 C 0.79585 0.84022 0.38523
 C69 C 0.80321 0.81066 0.39553
 C70 C 0.82899 0.79481 0.38204
 H71 H 0.89832 0.84871 0.29342
 H72 H 0.87892 0.77009 0.35163
 H73 H 0.86703 0.89584 0.29977
 H74 H 0.78875 0.89758 0.36454
 H75 H 0.77605 0.85222 0.39592
 H76 H 0.83460 0.77182 0.38992
 C77 C 0.64008 0.63316 0.30675
 C78 C 0.61408 0.64467 0.29054
 C79 C 0.59709 0.66978 0.30292
 C80 C 0.60568 0.68297 0.33221
 C81 C 0.63161 0.67188 0.34857
 C82 C 0.64899 0.64695 0.33583
 C83 C 0.65800 0.60884 0.29389
 C84 C 0.68482 0.59844 0.30969
 C85 C 0.69345 0.61218 0.33852
 C86 C 0.67581 0.63642 0.35173
 C87 C 0.68514 0.65102 0.38000
 C88 C 0.66811 0.67625 0.39230
 C89 C 0.64127 0.68626 0.37677
 H90 H 0.60754 0.63481 0.26779
 H91 H 0.59285 0.70257 0.34176
 H92 H 0.65138 0.59838 0.27146
 H93 H 0.71424 0.60411 0.35040
 H94 H 0.70613 0.64341 0.39181
 H95 H 0.62851 0.70595 0.38626
 C96 C 0.63399 0.14612 -0.20314
 C97 C 0.61249 0.16273 -0.22105
 C98 C 0.60255 0.19195 -0.21095
 C99 C 0.61474 0.20511 -0.18306
 C100 C 0.63655 0.18891 -0.16511
 C101 C 0.64616 0.15921 -0.17504
 C102 C 0.64271 0.11623 -0.21227
 C103 C 0.66310 0.09925 -0.19353
 C104 C 0.67584 0.11233 -0.16600
 C105 C 0.66751 0.14239 -0.15660
 C106 C 0.67957 0.15571 -0.12879
 C107 C 0.67022 0.18548 -0.11919
 C108 C 0.64866 0.20178 -0.13722
 H109 H 0.60281 0.15271 -0.24252
 H110 H 0.60715 0.22781 -0.17525
 H111 H 0.63274 0.10563 -0.23333
 H112 H 0.69139 0.09880 -0.15152
 H113 H 0.69613 0.14300 -0.11471
 H114 H 0.64161 0.22469 -0.12951
 C115 C 0.13725 0.64878 -0.19100
 C116 C 0.11548 0.66446 -0.20958
 C117 C 0.10479 0.69377 -0.20042
 C118 C 0.11667 0.70800 -0.17298
 C119 C 0.13869 0.69280 -0.15441
 C120 C 0.14895 0.66297 -0.16323
 C121 C 0.14644 0.61866 -0.19898
 C122 C 0.16678 0.60244 -0.17940
 C123 C 0.17905 0.61674 -0.15214
 C124 C 0.17031 0.64710 -0.14390
 C125 C 0.18175 0.66163 -0.11630
 C126 C 0.17170 0.69159 -0.10788
 C127 C 0.15018 0.70680 -0.12685
 H128 H 0.10600 0.65355 -0.23068
 H129 H 0.10852 0.73073 -0.16589
 H130 H 0.13665 0.60722 -0.21966
 H131 H 0.19441 0.60387 -0.13685
 H132 H 0.19830 0.64974 -0.10148
 H133 H 0.14258 0.72981 -0.12007
 C134 C 0.15120 0.15540 0.29041
 C135 C 0.13569 0.17501 0.26949
 C136 C 0.12996 0.20574 0.27812
 C137 C 0.13947 0.21702 0.30773
 C138 C 0.15506 0.19771 0.32883
 C139 C 0.16116 0.16678 0.32019
 C140 C 0.15664 0.12456 0.28215
 C141 C 0.17158 0.10488 0.30323
 C142 C 0.18207 0.11616 0.33265
 C143 C 0.17708 0.14723 0.34132
 C144 C 0.18728 0.15915 0.37073
 C145 C 0.18124 0.19012 0.37909
 C146 C 0.16497 0.20898 0.35826
 H147 H 0.12834 0.16652 0.24642
 H148 H 0.13513 0.24095 0.31408
 H149 H 0.14839 0.11547 0.25964
 H150 H 0.19337 0.10065 0.34894
 H151 H 0.19975 0.14451 0.38695
 H152 H 0.16053 0.23279 0.36496
 C153 C 0.65284 0.36889 0.66791
 C154 C 0.62392 0.35710 0.67865
 C155 C 0.60888 0.33343 0.66142
 C156 C 0.62224 0.32224 0.63326
 C157 C 0.65099 0.33353 0.62243
 C158 C 0.66652 0.35692 0.63970
 C159 C 0.66883 0.39164 0.68533
 C160 C 0.69823 0.40255 0.67481
 C161 C 0.71156 0.39063 0.64673
 C162 C 0.69613 0.36758 0.62924
 C163 C 0.71021 0.35414 0.60213
 C164 C 0.69486 0.33020 0.58563
 C165 C 0.66517 0.32058 0.59544
 H166 H 0.61372 0.36552 0.70074
 H167 H 0.61064 0.30368 0.62050
 H168 H 0.65846 0.40081 0.70702
 H169 H 0.73427 0.39902 0.63892
 H170 H 0.73335 0.36151 0.59457
 H171 H 0.65374 0.30194 0.58265
 C172 C 0.65112 0.86766 1.19763
 C173 C 0.62580 0.85058 1.20986
 C174 C 0.61332 0.82567 1.19253
 C175 C 0.62503 0.81884 1.16204
 C176 C 0.65035 0.83557 1.14942
 C177 C 0.66368 0.85985 1.16743
 C178 C 0.66558 0.89086 1.21598
 C179 C 0.69273 0.90570 1.20487
 C180 C 0.70486 0.89804 1.17466
 C181 C 0.69063 0.87520 1.15598
 C182 C 0.70403 0.86628 1.12680
 C183 C 0.69145 0.84176 1.10924
 C184 C 0.66422 0.82677 1.12032
 H185 H 0.61738 0.85509 1.23383
 H186 H 0.61604 0.79891 1.14926
 H187 H 0.65643 0.89672 1.23936
 H188 H 0.72575 0.90950 1.16589
 H189 H 0.72526 0.87737 1.11834
 H190 H 0.65467 0.80745 1.10703
 C191 C 0.13784 0.36434 1.17021
 C192 C 0.10652 0.35462 1.17248
 C193 C 0.09508 0.33228 1.15129
 C194 C 0.11461 0.31941 1.12795
 C195 C 0.14583 0.32877 1.12541
 C196 C 0.15758 0.35143 1.14643
 C197 C 0.14987 0.38653 1.19131
 C198 C 0.18112 0.39613 1.18872
 C199 C 0.20066 0.38329 1.16489
 C200 C 0.18912 0.36093 1.14382
 C201 C 0.20861 0.34766 1.12035
 C202 C 0.19680 0.32476 1.09982
 C203 C 0.16557 0.31552 1.10242
 H204 H 0.09114 0.36416 1.19073
 H205 H 0.10545 0.30186 1.11198
 H206 H 0.13497 0.39655 1.20967
 H207 H 0.22490 0.39054 1.16285
 H208 H 0.23293 0.35468 1.11843
 H209 H 0.15678 0.29778 1.08648
 C210 C 0.14871 0.86717 0.69162
 C211 C 0.11889 0.86017 0.70368
 C212 C 0.10011 0.83801 0.68865
 C213 C 0.11140 0.82178 0.66200
 C214 C 0.14136 0.82833 0.64969
 C215 C 0.15990 0.85146 0.66431
 C216 C 0.16706 0.89030 0.70577
 C217 C 0.19638 0.89832 0.69261
 C218 C 0.20734 0.88277 0.66543
 C219 C 0.18938 0.85930 0.65129
 C220 C 0.20029 0.84376 0.62413
 C221 C 0.18219 0.82038 0.60975
 C222 C 0.15283 0.81277 0.62261
 H223 H 0.10968 0.87282 0.72408
 H224 H 0.09652 0.80490 0.65036
 H225 H 0.15824 0.90250 0.72658
 H226 H 0.22987 0.88912 0.65533
 H227 H 0.22305 0.84972 0.61435
 H228 H 0.13897 0.79485 0.61134
 C229 C 0.33507 0.64726 0.69570
 C230 C 0.36184 0.66044 0.70921
 C231 C 0.37692 0.68537 0.69457
 C232 C 0.36523 0.69693 0.66624
 C233 C 0.33840 0.68395 0.65248
 C234 C 0.32313 0.65897 0.66724
 C235 C 0.32002 0.62261 0.71039
 C236 C 0.29321 0.60933 0.69731
 C237 C 0.28095 0.62091 0.66892
 C238 C 0.29587 0.64589 0.65374
 C239 C 0.28403 0.65833 0.62558
 C240 C 0.29910 0.68341 0.61101
 C241 C 0.32640 0.69587 0.62449
 H242 H 0.37083 0.65139 0.73116
 H243 H 0.37700 0.71622 0.65512
 H244 H 0.32916 0.61347 0.73226
 H245 H 0.26011 0.61063 0.65882
 H246 H 0.26292 0.64890 0.61517
 H247 H 0.33806 0.71527 0.61348
 C248 C 0.34382 0.13462 1.19656
 C249 C 0.37232 0.13708 1.21248
 C250 C 0.39452 0.15945 1.20389
 C251 C 0.38832 0.17991 1.17910
 C252 C 0.35968 0.17807 1.16284
 C253 C 0.33733 0.15548 1.17196
 C254 C 0.32233 0.11078 1.20365
 C255 C 0.29432 0.10832 1.18666
 C256 C 0.28743 0.12987 1.16348
 C257 C 0.30884 0.15296 1.15567
 C258 C 0.30269 0.17248 1.13057
 C259 C 0.32467 0.19416 1.12064
 C260 C 0.35322 0.19741 1.13689
 H261 H 0.37779 0.12090 1.23104
 H262 H 0.40597 0.19657 1.17209
 H263 H 0.32778 0.09377 1.22139
 H264 H 0.26590 0.12747 1.15017
 H265 H 0.28088 0.17023 1.11772
 H266 H 0.37029 0.21430 1.12915
 C267 C 0.84745 0.63920 1.17829
 C268 C 0.87421 0.65235 1.19233
 C269 C 0.88505 0.68161 1.18284
 C270 C 0.86923 0.69749 1.15924
 C271 C 0.84268 0.68473 1.14492
 C272 C 0.83152 0.65565 1.15460
 C273 C 0.83675 0.60962 1.18675
 C274 C 0.81035 0.59676 1.17194
 C275 C 0.79427 0.61355 1.14911
 C276 C 0.80478 0.64277 1.14007
 C277 C 0.78968 0.65883 1.11590
 C278 C 0.80106 0.68742 1.10589
 C279 C 0.82741 0.70044 1.12070
 H280 H 0.88649 0.63993 1.21054
 H281 H 0.87780 0.71992 1.15206
 H282 H 0.84946 0.59625 1.20394
 H283 H 0.77434 0.60313 1.13731
 H284 H 0.76937 0.64890 1.10435
 H285 H 0.83626 0.72264 1.11317
 C286 C 0.84524 0.15458 0.69273
 C287 C 0.87160 0.16811 0.70689
 C288 C 0.88707 0.19288 0.69230
 C289 C 0.87603 0.20404 0.66342
 C290 C 0.84964 0.19078 0.64897
 C291 C 0.83412 0.16590 0.66369
 C292 C 0.82986 0.12987 0.70719
 C293 C 0.80365 0.11615 0.69321
 C294 C 0.79234 0.12744 0.66432
 C295 C 0.80746 0.15239 0.64945
 C296 C 0.79643 0.16419 0.62071
 C297 C 0.81169 0.18903 0.60602
 C298 C 0.83840 0.20212 0.62021
 H299 H 0.88006 0.15938 0.72920
 H300 H 0.88808 0.22318 0.65232
 H301 H 0.83836 0.12097 0.72943
 H302 H 0.77201 0.11686 0.65349
 H303 H 0.77583 0.15426 0.60975
 H304 H 0.85020 0.22138 0.60910
 C305 C 0.34407 0.37114 0.67492
 C306 C 0.32653 0.39596 0.68705
 C307 C 0.29681 0.40263 0.67477
 C308 C 0.28495 0.38457 0.64972
 C309 C 0.30228 0.35963 0.63716
 C310 C 0.33195 0.35292 0.64988
 C311 C 0.37300 0.36348 0.68825
 C312 C 0.38992 0.33799 0.67684
 C313 C 0.37813 0.32033 0.65145
 C314 C 0.34919 0.32744 0.63815
 C315 C 0.33679 0.30879 0.61404
 C316 C 0.30741 0.31505 0.60140
 C317 C 0.29019 0.34069 0.61280
 H318 H 0.33566 0.40955 0.70662
 H319 H 0.26189 0.38960 0.64060
 H320 H 0.38208 0.37678 0.70807
 H321 H 0.39094 0.30035 0.64276
 H322 H 0.34980 0.28897 0.60521
 H323 H 0.26730 0.34553 0.60318
 C324 C 0.35789 0.86845 0.17758
 C325 C 0.34132 0.89404 0.19002
 C326 C 0.31275 0.90293 0.17645
 C327 C 0.30116 0.88666 0.15026
 C328 C 0.31716 0.86113 0.13772
 C329 C 0.34566 0.85192 0.15132
 C330 C 0.38566 0.85820 0.19169
 C331 C 0.40124 0.83187 0.17997
 C332 C 0.38916 0.81592 0.15348
 C333 C 0.36132 0.82555 0.13931
 C334 C 0.34811 0.80846 0.11424
 C335 C 0.31948 0.81727 0.10115
 C336 C 0.30435 0.84393 0.11266
 H337 H 0.35010 0.90638 0.21060
 H338 H 0.27893 0.89347 0.14031
 H339 H 0.39477 0.87011 0.21240
 H340 H 0.40074 0.79528 0.14466
 H341 H 0.35960 0.78778 0.10536
 H342 H 0.28214 0.85079 0.10273
 C343 C 0.85023 0.34256 0.18079
 C344 C 0.83532 0.36950 0.19181
 C345 C 0.80840 0.38035 0.17660
 C346 C 0.79659 0.36443 0.15028
 C347 C 0.81128 0.33765 0.13889
 C348 C 0.83810 0.32651 0.15425
 C349 C 0.87712 0.33145 0.19567
 C350 C 0.89189 0.30462 0.18443
 C351 C 0.87952 0.28849 0.15824
 C352 C 0.85280 0.29934 0.14303
 C353 C 0.84065 0.28358 0.11664
 C354 C 0.81413 0.29466 0.10130
 C355 C 0.79948 0.32173 0.11248
 H356 H 0.84445 0.38180 0.21226
 H357 H 0.77579 0.37301 0.13879
 H358 H 0.88693 0.34382 0.21575
 H359 H 0.89097 0.26782 0.14934
 H360 H 0.85172 0.26261 0.10794
 H361 H 0.77878 0.33028 0.10082
 C362 C 0.84565 0.86681 0.67501
 C363 C 0.83049 0.89406 0.68436
 C364 C 0.80305 0.90338 0.66909
 C365 C 0.79128 0.88573 0.64380
 C366 C 0.80626 0.85841 0.63404
 C367 C 0.83354 0.84886 0.64978
 C368 C 0.87207 0.85661 0.69127
 C369 C 0.88661 0.82889 0.68258
 C370 C 0.87484 0.81121 0.65716
 C371 C 0.84825 0.82092 0.64088
 C372 C 0.83558 0.80271 0.61649
 C373 C 0.80834 0.81184 0.60105
 C374 C 0.79383 0.83988 0.60967
 H375 H 0.83939 0.90742 0.70421
 H376 H 0.76982 0.89286 0.63249
 H377 H 0.88123 0.86997 0.71101
 H378 H 0.88590 0.78958 0.65055
 H379 H 0.84650 0.78101 0.60980
 H380 H 0.77263 0.84696 0.59788
 C381 C 0.63102 0.63138 0.68811
 C382 C 0.64611 0.60664 0.70315
 C383 C 0.67391 0.59427 0.69001
 C384 C 0.68612 0.60611 0.66184
 C385 C 0.67182 0.63086 0.64698
 C386 C 0.64419 0.64370 0.66001
 C387 C 0.60378 0.64482 0.70117
 C388 C 0.58989 0.67050 0.68668
 C389 C 0.60318 0.68246 0.65886
 C390 C 0.63035 0.66942 0.64542
 C391 C 0.64467 0.68232 0.61837
 C392 C 0.67260 0.66961 0.60594
 C393 C 0.68560 0.64373 0.62000
 H394 H 0.63672 0.59756 0.72512
 H395 H 0.70770 0.59654 0.65215
 H396 H 0.59390 0.63585 0.72297
 H397 H 0.59268 0.70251 0.64820
 H398 H 0.63462 0.70250 0.60755
 H399 H 0.70722 0.63426 0.61032
 C400 C 0.65018 0.13044 0.18925
 C401 C 0.66579 0.10725 0.20552
 C402 C 0.69397 0.09518 0.19379
 C403 C 0.70643 0.10582 0.16488
 C404 C 0.69086 0.12893 0.14809
 C405 C 0.66266 0.14144 0.16042
 C406 C 0.62282 0.14345 0.20198
 C407 C 0.60776 0.16770 0.18650
 C408 C 0.61986 0.17835 0.15756
 C409 C 0.64733 0.16543 0.14437
 C410 C 0.66032 0.17668 0.11600
 C411 C 0.68852 0.16435 0.10375
 C412 C 0.70344 0.14044 0.11973
 H413 H 0.65652 0.09899 0.22792
 H414 H 0.72835 0.09654 0.15579
 H415 H 0.61365 0.13511 0.22437
 H416 H 0.60822 0.19714 0.14578
 H417 H 0.64892 0.19540 0.10390
 H418 H 0.72532 0.13135 0.11032
 C419 C 0.14661 0.62897 0.18872
 C420 C 0.16302 0.60376 0.20058
 C421 C 0.19131 0.59413 0.18622
 C422 C 0.20266 0.60933 0.15947
 C423 C 0.18646 0.63455 0.14733
 C424 C 0.15838 0.64467 0.16202
 C425 C 0.11917 0.63927 0.20380
 C426 C 0.10342 0.66523 0.19299
 C427 C 0.11498 0.68096 0.16611
 C428 C 0.14253 0.67079 0.15047
 C429 C 0.15513 0.68653 0.12411
 C430 C 0.18324 0.67621 0.10965
 C431 C 0.19844 0.65031 0.12125
 H432 H 0.15411 0.59210 0.22142
 H433 H 0.22455 0.60184 0.14862
 H434 H 0.11028 0.62755 0.22462
 H435 H 0.10296 0.70125 0.15780
 H436 H 0.14348 0.70679 0.11523
 H437 H 0.22016 0.64281 0.11005
 C438 C 0.13827 0.13504 0.68893
 C439 C 0.15367 0.11097 0.70482
 C440 C 0.18111 0.09785 0.69159
 C441 C 0.19269 0.10842 0.66256
 C442 C 0.17803 0.13244 0.64677
 C443 C 0.15071 0.14588 0.65983
 C444 C 0.11141 0.14930 0.70202
 C445 C 0.09724 0.17424 0.68646
 C446 C 0.10974 0.18457 0.65765
 C447 C 0.13647 0.17080 0.64423
 C448 C 0.15001 0.18237 0.61620
 C449 C 0.17767 0.16926 0.60374
 C450 C 0.19112 0.14407 0.61877
 H451 H 0.14478 0.10293 0.72742
 H452 H 0.21398 0.09833 0.65277
 H453 H 0.10207 0.14159 0.72457
 H454 H 0.09900 0.20408 0.64618
 H455 H 0.13966 0.20205 0.60472
 H456 H 0.21260 0.13429 0.60911
 C457 C 0.36019 0.64788 0.31425
 C458 C 0.34977 0.61968 0.30149
 C459 C 0.32481 0.60373 0.31571
 C460 C 0.31038 0.61578 0.34327
 C461 C 0.32047 0.64385 0.35636
 C462 C 0.34546 0.65999 0.34184
 C463 C 0.38459 0.66450 0.29961
 C464 C 0.39430 0.69310 0.31233
 C465 C 0.37974 0.70478 0.33981
 C466 C 0.35535 0.68853 0.35461
 C467 C 0.34026 0.70067 0.38163
 C468 C 0.31507 0.68481 0.39587
 C469 C 0.30542 0.65643 0.38326
 H470 H 0.36054 0.61034 0.28005
 H471 H 0.29090 0.60364 0.35415
 H472 H 0.39581 0.65534 0.27835
 H473 H 0.38737 0.72681 0.34945
 H474 H 0.34770 0.72279 0.39113
 H475 H 0.28588 0.64446 0.39423
 C476 C 0.37002 0.15775 0.80955
 C477 C 0.35566 0.13214 0.79501
 C478 C 0.33151 0.11615 0.81058
 C479 C 0.32164 0.12587 0.84111
 C480 C 0.33565 0.15140 0.85598
 C481 C 0.36004 0.16726 0.84023
 C482 C 0.39365 0.17453 0.79380
 C483 C 0.40708 0.20062 0.80853
 C484 C 0.39741 0.20949 0.83897
 C485 C 0.37397 0.19317 0.85489
 C486 C 0.36347 0.20321 0.88475
 C487 C 0.33858 0.18811 0.90012
 C488 C 0.32505 0.16198 0.88589
 H489 H 0.36299 0.12470 0.77144
 H490 H 0.30281 0.11381 0.85317
 H491 H 0.40112 0.16770 0.77009
 H492 H 0.40787 0.22973 0.84995
 H493 H 0.37387 0.22358 0.89545
 H494 H 0.30564 0.15058 0.89772
 C495 C 0.86007 0.65478 0.81507
 C496 C 0.84746 0.62833 0.80044
 C497 C 0.82091 0.61377 0.81329
 C498 C 0.80686 0.62573 0.84117
 C499 C 0.81895 0.65224 0.85596
 C500 C 0.84569 0.66677 0.84297
 C501 C 0.88622 0.66998 0.80190
 C502 C 0.89785 0.69700 0.81637
 C503 C 0.88367 0.70848 0.84414
 C504 C 0.85760 0.69376 0.85749
 C505 C 0.84262 0.70623 0.88450
 C506 C 0.81564 0.69211 0.89708
 C507 C 0.80420 0.66499 0.88299
 H508 H 0.85803 0.61911 0.77884
 H509 H 0.78618 0.61476 0.85103
 H510 H 0.89700 0.66128 0.78020
 H511 H 0.89264 0.72953 0.85484
 H512 H 0.85148 0.72729 0.89521
 H513 H 0.78327 0.65432 0.89272
 C514 C 0.90071 0.14559 0.31753
 C515 C 0.88580 0.11999 0.30373
 C516 C 0.85691 0.10963 0.31550
 C517 C 0.84297 0.12461 0.34187
 C518 C 0.85766 0.15015 0.35612
 C519 C 0.88671 0.16062 0.34396
 C520 C 0.92837 0.15755 0.30417
 C521 C 0.94189 0.18460 0.31675
 C522 C 0.92877 0.19852 0.34384
 C523 C 0.90110 0.18697 0.35735
 C524 C 0.88649 0.20260 0.38267
 C525 C 0.85745 0.19276 0.39438
 C526 C 0.84319 0.16626 0.38140
 H527 H 0.89617 0.10852 0.28319
 H528 H 0.82051 0.11675 0.35091
 H529 H 0.93825 0.14692 0.28294
 H530 H 0.93904 0.21965 0.35302
 H531 H 0.89704 0.22328 0.39258
 H532 H 0.82057 0.15874 0.39031
 C533 C 0.64039 0.34974 0.30909
 C534 C 0.65175 0.37658 0.29476
 C535 C 0.67908 0.39099 0.30563
 C536 C 0.69531 0.37849 0.33139
 C537 C 0.68441 0.35144 0.34597
 C538 C 0.65674 0.33712 0.33483
 C539 C 0.61350 0.33480 0.29750
 C540 C 0.60261 0.30754 0.31133
 C541 C 0.61870 0.29531 0.33735
 C542 C 0.64576 0.30978 0.34898
 C543 C 0.66248 0.29690 0.37401
 C544 C 0.69021 0.31055 0.38485
 C545 C 0.70106 0.33799 0.37092
 H546 H 0.63969 0.38611 0.27461
 H547 H 0.71675 0.38929 0.33947
 H548 H 0.60122 0.34402 0.27734
 H549 H 0.61065 0.27409 0.34802
 H550 H 0.65430 0.27578 0.38486
 H551 H 0.72245 0.34868 0.37930
 C552 C 0.63935 0.84794 0.80528
 C553 C 0.65181 0.87358 0.78987
 C554 C 0.67759 0.88928 0.80227
 C555 C 0.69133 0.87924 0.83062
 C556 C 0.67915 0.85337 0.84641
 C557 C 0.65301 0.83771 0.83361
 C558 C 0.61344 0.83233 0.79277
 C559 C 0.60107 0.80661 0.80812
 C560 C 0.61468 0.79627 0.83624
 C561 C 0.64054 0.81168 0.84902
 C562 C 0.65426 0.80127 0.87684
 C563 C 0.68021 0.81638 0.88962
 C564 C 0.69265 0.84260 0.87453
 H565 H 0.64144 0.88155 0.76808
 H566 H 0.71137 0.89140 0.84022
 H567 H 0.60276 0.84009 0.77106
 H568 H 0.60514 0.77630 0.84817
 H569 H 0.64500 0.78105 0.88859
 H570 H 0.71292 0.85422 0.88434
 C571 C 0.14777 0.33877 0.82779
 C572 C 0.15594 0.36572 0.81178
 C573 C 0.18200 0.38304 0.82095
 C574 C 0.20035 0.37330 0.84654
 C575 C 0.19255 0.34617 0.86281
 C576 C 0.16603 0.32887 0.85340
 C577 C 0.12173 0.32145 0.81834
 C578 C 0.11346 0.29420 0.83417
 C579 C 0.13148 0.28448 0.85978
 C580 C 0.15784 0.30157 0.86943
 C581 C 0.17634 0.29172 0.89461
 C582 C 0.20285 0.30853 0.90390
 C583 C 0.21088 0.33585 0.88808
 H584 H 0.14208 0.37337 0.79196
 H585 H 0.22070 0.38659 0.85357
 H586 H 0.10791 0.32924 0.79858
 H587 H 0.12508 0.26345 0.87191
 H588 H 0.17039 0.27069 0.90697
 H589 H 0.23136 0.34887 0.89526
 C590 C 0.13542 0.85316 0.31590
 C591 C 0.14846 0.87938 0.30207
 C592 C 0.17537 0.89314 0.31454
 C593 C 0.18930 0.88097 0.34169
 C594 C 0.17648 0.85455 0.35596
 C595 C 0.14947 0.84052 0.34291
 C596 C 0.10912 0.83888 0.30252
 C597 C 0.09681 0.81186 0.31541
 C598 C 0.11060 0.79928 0.34259
 C599 C 0.13689 0.81350 0.35640
 C600 C 0.15135 0.80074 0.38293
 C601 C 0.17820 0.81439 0.39590
 C602 C 0.19062 0.84141 0.38247
 H603 H 0.13809 0.88893 0.28097
 H604 H 0.21029 0.89155 0.35117
 H605 H 0.09854 0.84832 0.28148
 H606 H 0.10124 0.77827 0.35264
 H607 H 0.14213 0.77980 0.39328
 H608 H 0.21150 0.85189 0.39231
 O609 O 0.22946 1.02071 0.20345
 O610 O 0.20948 0.95943 0.25783
 O611 O 0.18957 1.01370 0.25056
 O612 O 0.25084 0.96558 0.21402
 O613 O 0.28530 0.98329 0.24847
 O614 O 0.22408 1.03461 0.28310
 O615 O 0.24263 0.97795 0.29322
 O616 O 0.26504 1.03958 0.23607
 Cu617 Cu 0.21661 0.98838 0.22773
 Cu618 Cu 0.25786 1.01090 0.26854
 C619 C 0.25046 1.04033 0.20989
 C620 C 0.22198 0.95827 0.28491
 C621 C 0.19613 1.03186 0.27334
 C622 C 0.27821 0.96537 0.22559
 O623 O 0.22284 0.52678 0.71699
 O624 O 0.20303 0.45959 0.76682
 O625 O 0.18471 0.51623 0.76598
 O626 O 0.23879 0.46821 0.71819
 O627 O 0.27683 0.47967 0.75148
 O628 O 0.22294 0.52957 0.79833
 O629 O 0.24069 0.47234 0.80015
 O630 O 0.26122 0.53788 0.74993
 Cu631 Cu 0.20845 0.49193 0.73852
 Cu632 Cu 0.25428 0.50645 0.77804
 C633 C 0.24599 0.54350 0.72495
 C634 C 0.21864 0.45450 0.79180
 C635 C 0.19427 0.53031 0.79060
 C636 C 0.26677 0.46486 0.72745
 O637 O 0.77745 -0.02919 0.22697
 O638 O 0.81444 0.03685 0.26767
 O639 O 0.81696 -0.02214 0.27449
 O640 O 0.77802 0.03015 0.21908
 O641 O 0.73738 0.03322 0.25187
 O642 O 0.77658 -0.01828 0.30752
 O643 O 0.77360 0.04032 0.30021
 O644 O 0.73691 -0.02623 0.25986
 Cu645 Cu 0.80074 0.00324 0.24371
 Cu646 Cu 0.75189 0.00719 0.28304
 C647 C 0.75060 -0.03844 0.23597
 C648 C 0.80029 0.04975 0.29097
 C649 C 0.80398 -0.02789 0.30097
 C650 C 0.75120 0.04083 0.22626
 O651 O 0.76334 0.47161 0.80163
 O652 O 0.70248 0.52413 0.77027
 O653 O 0.71395 0.46513 0.76471
 O654 O 0.75099 0.53049 0.80646
 O655 O 0.78061 0.53975 0.76430
 O656 O 0.74467 0.47316 0.72312
 O657 O 0.73271 0.53183 0.72825
 O658 O 0.79348 0.48210 0.76021
 Cu659 Cu 0.72969 0.49664 0.78995
 Cu660 Cu 0.76577 0.50721 0.73961
 C661 C 0.78924 0.46908 0.78663
 C662 C 0.70764 0.53716 0.74387
 C663 C 0.72268 0.45832 0.73666
 C664 C 0.77185 0.54638 0.79248
 O665 O 0.20710 0.52040 0.26337
 O666 O 0.25201 0.46314 0.30483
 O667 O 0.25211 0.52309 0.30305
 O668 O 0.21779 0.46162 0.25253
 O669 O 0.25789 0.46629 0.21931
 O670 O 0.29168 0.52647 0.26901
 O671 O 0.29091 0.46614 0.26999
 O672 O 0.24532 0.52541 0.22800
 Cu673 Cu 0.22868 0.49107 0.28397
 Cu674 Cu 0.27478 0.49689 0.24339
 C675 C 0.21833 0.53291 0.23889
 C676 C 0.27848 0.45434 0.29468
 C677 C 0.27761 0.53569 0.29395
 C678 C 0.23223 0.45377 0.22703
 O679 O 0.70851 0.96375 0.75044
 O680 O 0.73308 1.03272 0.70559
 O681 O 0.74632 0.97173 0.70573
 O682 O 0.68756 1.01682 0.74850
 O683 O 0.72239 1.03136 0.78417
 O684 O 0.78159 0.98354 0.74195
 O685 O 0.76791 1.04299 0.74252
 O686 O 0.74251 0.97567 0.78792
 Cu687 Cu 0.71603 0.99668 0.72307
 Cu688 Cu 0.75726 1.01016 0.76744
 C689 C 0.72129 0.95820 0.77698
 C690 C 0.75518 1.04934 0.71638
 C691 C 0.77333 0.96839 0.71737
 C692 C 0.69432 1.03039 0.77426
 O693 O 0.79350 0.46734 0.24269
 O694 O 0.74345 0.53068 0.27258
 O695 O 0.75044 0.47191 0.28556
 O696 O 0.78827 0.52545 0.22866
 O697 O 0.75388 0.51086 0.19266
 O698 O 0.71420 0.46089 0.25012
 O699 O 0.70854 0.51979 0.23582
 O700 O 0.75686 0.45465 0.20816
 Cu701 Cu 0.77230 0.50058 0.26106
 Cu702 Cu 0.72933 0.48610 0.21828
 C703 C 0.78332 0.44985 0.22072
 C704 C 0.71741 0.53588 0.25937
 C705 C 0.72653 0.45654 0.27700
 C706 C 0.77831 0.52574 0.20035
 O707 O 0.27189 -0.02428 0.80358
 O708 O 0.21073 0.02909 0.77324
 O709 O 0.21818 -0.03101 0.77386
 O710 O 0.25982 0.03457 0.80925
 O711 O 0.28697 0.04155 0.76497
 O712 O 0.24655 -0.02652 0.73011
 O713 O 0.23961 0.03501 0.72995
 O714 O 0.30060 -0.01456 0.76092
 Cu715 Cu 0.23733 0.00128 0.79426
 Cu716 Cu 0.27035 0.00825 0.74174
 C717 C 0.29724 -0.02734 0.78755
 C718 C 0.21529 0.04142 0.74628
 C719 C 0.22514 -0.03998 0.74605
 C720 C 0.28017 0.04935 0.79346
 O721 O 0.28804 0.30755 0.97493
 O722 O 0.33115 0.26986 1.04023
 O723 O 0.33174 0.26572 0.97750
 O724 O 0.28742 0.31142 1.03684
 O725 O 0.25102 0.27511 1.03716
 O726 O 0.29554 0.22927 0.97876
 O727 O 0.29433 0.23405 1.04094
 O728 O 0.25243 0.27054 0.97634
 Cu729 Cu 0.31344 0.29219 1.00717
 Cu730 Cu 0.26994 0.24839 1.00856
 C731 C 0.26290 0.29538 0.96465
 C732 C 0.31919 0.24579 1.05225
 C733 C 0.32079 0.24025 0.96744
 C734 C 0.26144 0.30095 1.04689
 O735 O 0.25836 0.80382 0.47078
 O736 O 0.29724 0.75982 0.53358
 O737 O 0.30195 0.76231 0.47188
 O738 O 0.25898 0.80574 0.53249
 O739 O 0.22087 0.77116 0.53227
 O740 O 0.26436 0.72724 0.47015
 O741 O 0.25930 0.72511 0.53225
 O742 O 0.22051 0.76902 0.46989
 Cu743 Cu 0.28291 0.78630 0.50224
 Cu744 Cu 0.23741 0.74467 0.50088
 C745 C 0.23277 0.79366 0.45955
 C746 C 0.28455 0.73535 0.54399
 C747 C 0.29060 0.73774 0.46040
 C748 C 0.23316 0.79581 0.54321
 O749 O 0.27975 0.75142 -0.02580
 O750 O 0.23230 0.71748 0.03804
 O751 O 0.24005 0.70661 -0.02250
 O752 O 0.27710 0.75856 0.03566
 O753 O 0.24006 0.79320 0.02852
 O754 O 0.20368 0.74167 -0.03086
 O755 O 0.19511 0.75185 0.03050
 O756 O 0.24321 0.78658 -0.03308
 Cu757 Cu 0.26094 0.73009 0.00732
 Cu758 Cu 0.21668 0.77172 -0.00177
 C759 C 0.26937 0.77452 -0.04058
 C760 C 0.20560 0.72878 0.04515
 C761 C 0.21619 0.71569 -0.03732
 C762 C 0.26507 0.78467 0.04193
 O763 O 0.28646 0.24006 0.47566
 O764 O 0.23188 0.20673 0.53339
 O765 O 0.24207 0.19957 0.47192
 O766 O 0.27214 0.25251 0.53459
 O767 O 0.23545 0.28633 0.52315
 O768 O 0.20679 0.23479 0.46052
 O769 O 0.19564 0.24094 0.52186
 O770 O 0.25127 0.27539 0.46417
 Cu771 Cu 0.26147 0.22117 0.50533
 Cu772 Cu 0.21865 0.26266 0.49122
 C773 C 0.27821 0.26328 0.45996
 C774 C 0.20480 0.21806 0.53786
 C775 C 0.21974 0.20899 0.45482
 C776 C 0.25887 0.27851 0.53930
 O777 O 0.71062 0.76960 1.02787
 O778 O 0.76217 0.73195 0.96898
 O779 O 0.75733 0.73154 1.03080
 O780 O 0.71938 0.77405 0.96650
 O781 O 0.75339 0.81212 0.97212
 O782 O 0.79186 0.76930 1.03545
 O783 O 0.79647 0.76991 0.97359
 O784 O 0.74503 0.80729 1.03377
 Cu785 Cu 0.73389 0.74807 0.99800
 Cu786 Cu 0.77507 0.79347 1.00428
 C787 C 0.71922 0.79440 1.04133
 C788 C 0.78783 0.74459 0.96092
 C789 C 0.78114 0.74345 1.04413
 C790 C 0.73022 0.80009 0.95809
 O791 O 0.77550 0.29765 0.45394
 O792 O 0.81312 0.25813 0.52089
 O793 O 0.81432 0.25110 0.45899
 O794 O 0.77742 0.30571 0.51516
 O795 O 0.73675 0.27429 0.51886
 O796 O 0.77388 0.21949 0.46290
 O797 O 0.77253 0.22667 0.52476
 O798 O 0.73520 0.26585 0.45778
 Cu799 Cu 0.79929 0.28111 0.48660
 Cu800 Cu 0.75055 0.24338 0.49135
 C801 C 0.74869 0.28864 0.44476
 C802 C 0.79890 0.23617 0.53464
 C803 C 0.80058 0.22614 0.45137
 C804 C 0.75082 0.29904 0.52680
 O805 O 0.73581 0.20068 0.02656
 O806 O 0.78313 0.23845 -0.03531
 O807 O 0.77793 0.24348 0.02635
 O808 O 0.74097 0.19529 -0.03527
 O809 O 0.70459 0.23091 -0.04088
 O810 O 0.74110 0.27868 0.02084
 O811 O 0.74652 0.27388 -0.04077
 O812 O 0.69883 0.23570 0.02105
 Cu813 Cu 0.76314 0.21590 -0.00390
 Cu814 Cu 0.71897 0.25826 -0.01048
 C815 C 0.70953 0.21210 0.03477
 C816 C 0.77285 0.26236 -0.04874
 C817 C 0.76553 0.26905 0.03434
 C818 C 0.71684 0.20534 -0.04904
 O819 O 0.78038 0.73893 0.47517
 O820 O 0.72757 0.70760 0.53627
 O821 O 0.73731 0.69710 0.47583
 O822 O 0.77038 0.75081 0.53515
 O823 O 0.73414 0.78518 0.52398
 O824 O 0.70125 0.73170 0.46474
 O825 O 0.69145 0.74212 0.52526
 O826 O 0.74454 0.77373 0.46398
 Cu827 Cu 0.75743 0.72010 0.50699
 Cu828 Cu 0.71420 0.76163 0.49336
 C829 C 0.77130 0.76160 0.45900
 C830 C 0.70069 0.71935 0.54125
 C831 C 0.71393 0.70559 0.45980
 C832 C 0.75797 0.77716 0.53953
 O833 O 1.02928 0.29716 0.20763
 O834 O 1.00069 0.23918 0.26382
 O835 O 1.05763 0.26468 0.24802
 O836 O 0.97668 0.27910 0.22376
 O837 O 0.97941 0.24046 0.18904
 O838 O 1.06126 0.22732 0.21218
 O839 O 1.00340 0.20301 0.22662
 O840 O 1.02967 0.26117 0.16993
 Cu841 Cu 1.01585 0.27237 0.24074
 Cu842 Cu 1.02052 0.22880 0.19667
 C843 C 1.03272 0.28909 0.17873
 C844 C 0.99535 0.21178 0.25426
 C845 C 1.07363 0.24450 0.23320
 C846 C 0.96464 0.26296 0.20162
 O847 O 0.47593 0.27293 0.68764
 O848 O 0.53696 0.23629 0.73466
 O849 O 0.47764 0.22752 0.72682
 O850 O 0.53617 0.28154 0.69510
 O851 O 0.52693 0.31468 0.73429
 O852 O 0.46898 0.26023 0.76654
 O853 O 0.52832 0.26962 0.77386
 O854 O 0.46641 0.30578 0.72702
 Cu855 Cu 0.50770 0.25149 0.70687
 Cu856 Cu 0.49657 0.29104 0.75428
 C857 C 0.46030 0.29507 0.69959
 C858 C 0.54293 0.24661 0.76228
 C859 C 0.46358 0.23468 0.75248
 C860 C 0.54203 0.30681 0.70945
 O861 O -0.03649 0.20512 0.77157
 O862 O 0.03400 0.24444 0.80346
 O863 O -0.02566 0.25138 0.81148
 O864 O 0.02458 0.19616 0.76806
 O865 O 0.02624 0.22746 0.72714
 O866 O -0.02587 0.28219 0.77013
 O867 O 0.03343 0.27558 0.76232
 O868 O -0.03510 0.23576 0.73015
 Cu869 Cu -0.00138 0.22094 0.79264
 Cu870 Cu -0.00074 0.25800 0.74308
 C871 C -0.04763 0.21380 0.74528
 C872 C 0.04547 0.26697 0.78807
 C873 C -0.03329 0.27657 0.79878
 C874 C 0.03514 0.20304 0.74085
 O875 O 0.53148 0.22567 0.31087
 O876 O 0.47728 0.17189 0.27249
 O877 O 0.53662 0.18089 0.27061
 O878 O 0.47047 0.21921 0.31175
 O879 O 0.46721 0.25186 0.27215
 O880 O 0.53083 0.21143 0.22948
 O881 O 0.47011 0.20395 0.23293
 O882 O 0.52868 0.25682 0.26993
 Cu883 Cu 0.50406 0.19637 0.29561
 Cu884 Cu 0.49840 0.23435 0.24721
 C885 C 0.54038 0.24969 0.29654
 C886 C 0.46494 0.17819 0.24618
 C887 C 0.54489 0.18957 0.24309
 C888 C 0.45797 0.24248 0.29908
 O889 O 1.01258 0.81468 0.74615
 O890 O 0.96373 0.75459 0.77973
 O891 O 1.02527 0.76650 0.78406
 O892 O 0.95839 0.79534 0.73827
 O893 O 0.97238 0.76453 0.69843
 O894 O 1.03712 0.73435 0.74482
 O895 O 0.97674 0.72224 0.74091
 O896 O 1.02946 0.78296 0.70828
 Cu897 Cu 0.99000 0.78523 0.76666
 Cu898 Cu 1.00564 0.74778 0.71938
 C899 C 1.02848 0.80971 0.72117
 C900 C 0.96066 0.72875 0.76574
 C901 C 1.04216 0.74503 0.77236
 C902 C 0.95429 0.78478 0.71029
 O903 O 0.46493 0.74658 0.27261
 O904 O 0.53490 0.78911 0.24440
 O905 O 0.47269 0.79273 0.23310
 O906 O 0.52367 0.74715 0.28467
 O907 O 0.53030 0.71207 0.24664
 O908 O 0.47965 0.75813 0.19498
 O909 O 0.54280 0.75260 0.20824
 O910 O 0.47296 0.71084 0.23562
 Cu911 Cu 0.49790 0.77295 0.26190
 Cu912 Cu 0.50597 0.73133 0.21629
 C913 C 0.45787 0.72084 0.25969
 C914 C 0.55229 0.77614 0.22353
 C915 C 0.46660 0.78247 0.20555
 C916 C 0.53594 0.72225 0.27445
 O917 O -0.03797 0.76767 0.26897
 O918 O 0.02186 0.73469 0.21601
 O919 O -0.03888 0.72651 0.22398
 O920 O 0.02324 0.76874 0.26742
 O921 O 0.02688 0.72968 0.30029
 O922 O -0.03274 0.68691 0.25574
 O923 O 0.02805 0.69585 0.24872
 O924 O -0.03464 0.72813 0.30127
 Cu925 Cu -0.00837 0.75318 0.24088
 Cu926 Cu -0.00260 0.70625 0.27961
 C927 C -0.04701 0.75366 0.29366
 C928 C 0.03572 0.71015 0.22350
 C929 C -0.04662 0.69955 0.23295
 C930 C 0.03558 0.75614 0.29143
 O931 O 0.52410 0.72974 0.80713
 O932 O 0.45344 0.69457 0.77297
 O933 O 0.51630 0.68655 0.76862
 O934 O 0.46770 0.73964 0.81603
 O935 O 0.46419 0.77168 0.77587
 O936 O 0.51650 0.71970 0.72921
 O937 O 0.45505 0.72732 0.73336
 O938 O 0.52374 0.76431 0.76894
 Cu939 Cu 0.48866 0.70855 0.79426
 Cu940 Cu 0.48941 0.74885 0.74760
 C941 C 0.53570 0.75331 0.79385
 C942 C 0.44244 0.70468 0.74731
 C943 C 0.52634 0.69497 0.74165
 C944 C 0.45893 0.76516 0.80477
 N945 N 0.42269 0.28347 0.30451
 N946 N 0.43329 0.25840 0.31545
 N947 N 0.41995 0.79866 0.82448
 N948 N 0.44657 0.78795 0.82610
 N949 N -0.07506 0.30624 0.81870
 N950 N -0.04688 0.30021 0.81821
 N951 N -0.08298 0.79267 0.30488
 N952 N -0.07188 0.76661 0.31253
 N953 N 0.57306 0.68334 0.28414
 N954 N 0.55781 0.70681 0.29399
 N955 N 0.57938 0.20743 0.77094
 N956 N 0.56620 0.23203 0.78080
 N957 N 1.08083 0.70801 0.78137
 N958 N 1.06656 0.73221 0.79086
 N959 N 1.11736 0.22447 0.25784
 N960 N 1.10644 0.24257 0.23863
 N961 N 0.58175 0.31785 0.67321
 N962 N 0.56700 0.32581 0.69831
 N963 N 0.59692 0.80471 0.20743
 N964 N 0.58490 0.78344 0.22236
 N965 N 1.06639 0.32228 0.15382
 N966 N 1.03971 0.31179 0.15574
 N967 N 1.07089 0.83532 0.69768
 N968 N 1.04340 0.83541 0.70668
 N969 N 0.40402 0.69950 0.70819
 N970 N 0.41550 0.69025 0.73411
 N971 N 0.42199 0.15867 0.21738
 N972 N 0.44709 0.15458 0.23085
 N973 N -0.08840 0.69633 0.19713
 N974 N -0.07200 0.68354 0.21824
 N975 N -0.08598 0.20717 0.70627
 N976 N -0.07457 0.19866 0.73256
 N977 N 0.31790 0.41635 0.30091
 N978 N 0.29320 0.42982 0.31084
 N979 N 0.32320 -0.06987 0.80910
 N980 N 0.32362 -0.04289 0.80033
 N981 N 0.81614 0.42691 0.80772
 N982 N 0.81538 0.45437 0.80075
 N983 N 0.82388 -0.07056 0.32701
 N984 N 0.82162 -0.04240 0.32504
 N985 N 0.27977 0.58390 0.71392
 N986 N 0.25566 0.56871 0.70555
 N987 N 0.27586 1.08433 0.18880
 N988 N 0.25698 1.06295 0.18648
 N989 N 0.80308 0.56768 0.17559
 N990 N 0.79613 0.54011 0.17579
 N991 N 0.78971 1.09042 0.70903
 N992 N 0.76641 1.07511 0.69867
 N993 N 0.70412 0.57428 0.29682
 N994 N 0.69752 0.55985 0.27129
 N995 N 0.66739 1.07013 0.79980
 N996 N 0.66946 1.04254 0.79327
 N997 N 0.17060 0.57285 0.81559
 N998 N 0.17178 0.54477 0.81112
 N999 N 0.17257 1.07544 0.29631
 N1000 N 0.17108 1.04797 0.28880
 N1001 N 0.71492 0.42590 0.69212
 N1002 N 0.70675 0.43419 0.72005
 N1003 N 0.70797 -0.07173 0.22459
 N1004 N 0.73540 -0.06202 0.21787
 N1005 N 0.19263 0.41919 0.21026
 N1006 N 0.21978 0.43072 0.20641
 N1007 N 0.21490 -0.07721 0.70592
 N1008 N 0.20794 -0.06512 0.73271
 N1009 N 0.29301 0.29965 0.42178
 N1010 N 0.29938 0.27526 0.43675
 N1011 N 0.27859 0.80903 -0.08282
 N1012 N 0.28743 0.78631 -0.06635
 N1013 N 0.78194 0.29935 -0.08858
 N1014 N 0.79119 0.27588 -0.07346
 N1015 N 0.78402 0.79763 0.41999
 N1016 N 0.79151 0.77348 0.43487
 N1017 N 0.70974 0.31301 0.56065
 N1018 N 0.73697 0.31907 0.54998
 N1019 N 0.70873 0.83056 1.08215
 N1020 N 0.70023 0.80684 1.06642
 N1021 N 0.21609 0.30951 1.07670
 N1022 N 0.24367 0.31830 1.06960
 N1023 N 0.19385 0.80368 0.58260
 N1024 N 0.21897 0.81230 0.56890
 N1025 N 0.28560 0.69708 0.58349
 N1026 N 0.29844 0.72014 0.57014
 N1027 N 0.31650 0.21132 1.09322
 N1028 N 0.33273 0.23200 1.07959
 N1029 N 0.78582 0.70266 1.08032
 N1030 N 0.79613 0.72801 1.06946
 N1031 N 0.79896 0.20135 0.57740
 N1032 N 0.81250 0.22290 0.56218
 N1033 N 0.67892 0.69381 0.41899
 N1034 N 0.70263 0.68600 0.43503
 N1035 N 0.68294 0.20036 -0.09178
 N1036 N 0.70419 0.18836 -0.07505
 N1037 N 0.18354 0.70791 -0.08084
 N1038 N 0.20431 0.69713 -0.06268
 N1039 N 0.19184 0.20399 0.40805
 N1040 N 0.21004 0.19134 0.42774
 N1041 N 0.27740 0.42616 0.68894
 N1042 N 0.28692 0.44312 0.71179
 N1043 N 0.29332 0.92670 0.18986
 N1044 N 0.30079 0.94393 0.21324
 N1045 N 0.79191 0.40706 0.18774
 N1046 N 0.80162 0.42415 0.21031
 N1047 N 0.78492 0.92878 0.68099
 N1048 N 0.79384 0.94567 0.70410
 N1049 N 0.69204 0.57108 0.70513
 N1050 N 0.68564 0.55873 0.73164
 N1051 N 0.70985 0.07310 0.21272
 N1052 N 0.73655 0.06200 0.20546
 N1053 N 0.20963 0.56998 0.19945
 N1054 N 0.20033 0.55614 0.22419
 N1055 N 0.19927 0.07485 0.70711
 N1056 N 0.19344 0.06331 0.73417
 N1057 N 0.31320 0.57638 0.30052
 N1058 N 0.28964 0.56154 0.31114
 N1059 N 0.31693 0.09040 0.79485
 N1060 N 0.29531 0.07498 0.80837
 N1061 N 0.80800 0.58743 0.79715
 N1062 N 0.78527 0.57211 0.80885
 N1063 N 0.84184 0.08437 0.29957
 N1064 N 0.81460 0.07499 0.30735
 N1065 N 0.69101 0.41679 0.28826
 N1066 N 0.71439 0.43290 0.29708
 N1067 N 0.68897 0.91545 0.78534
 N1068 N 0.71145 0.93223 0.79499
 N1069 N 0.18947 0.41007 0.80324
 N1070 N 0.21173 0.42820 0.81064
 N1071 N 0.18844 0.91846 0.29756
 N1072 N 0.21199 0.93452 0.30596
 N1073 N 0.41761 0.32870 0.69302
 N1074 N 0.43448 0.30670 0.68237
 N1075 N 0.42733 0.81985 0.19718
 N1076 N 0.44310 0.79685 0.18689
 N1077 N 0.92055 0.29516 0.19867
 N1078 N 0.93495 0.27108 0.18918
 N1079 N 0.91267 0.81860 0.70063
 N1080 N 0.92895 0.79551 0.69179
 N1081 N 0.57641 0.29160 0.29752
 N1082 N 0.56487 0.26769 0.31041
 N1083 N 0.57449 0.79145 0.79479
 N1084 N 0.56241 0.76771 0.80740
 N1085 N 0.08697 0.27620 0.82422
 N1086 N 0.07212 0.28342 0.79939
 N1087 N 0.07127 0.79700 0.29945
 N1088 N 0.06015 0.77126 0.30836
 N1089 N 0.56382 0.68645 0.70101
 N1090 N 0.55045 0.67727 0.72632
 N1091 N 0.58103 0.18260 0.20069
 N1092 N 0.57075 0.17462 0.22784
 N1093 N 0.07682 0.67582 0.21111
 N1094 N 0.06099 0.69941 0.20377
 N1095 N 0.07175 0.19130 0.70045
 N1096 N 0.05863 0.18384 0.72648
 N1097 N 0.41889 0.71089 0.29802
 N1098 N 0.43314 0.70250 0.27270
 N1099 N 0.42982 0.21960 0.79310
 N1100 N 0.44144 0.21373 0.76583
 N1101 N 0.92259 0.71486 0.80263
 N1102 N 0.93795 0.70742 0.77765
 N1103 N 0.96515 0.20145 0.29947
 N1104 N 0.97686 0.19172 0.27338
 N1105 N 0.29558 0.29448 0.57747
 N1106 N 0.27020 0.29949 0.56293
 N1107 N 0.30540 0.79794 0.07739
 N1108 N 0.27940 0.80470 0.06468
 N1109 N 0.80190 0.27751 0.07499
 N1110 N 0.77842 0.28692 0.05957
 N1111 N 0.79537 0.79160 0.57748
 N1112 N 0.77067 0.79813 0.56237
 N1113 N 0.29811 0.69794 0.42222
 N1114 N 0.30747 0.72273 0.43539
 N1115 N 0.32478 0.20098 0.92843
 N1116 N 0.33615 0.22506 0.94152
 N1117 N 0.79831 0.70581 0.92291
 N1118 N 0.80677 0.73079 0.93651
 N1119 N 0.84214 0.21154 0.41795
 N1120 N 0.81503 0.20553 0.42906
 N1121 N 0.70680 0.29568 0.40985
 N1122 N 0.73353 0.30451 0.41960
 N1123 N 0.69403 0.80337 0.91715
 N1124 N 0.71688 0.81556 0.93178
 N1125 N 0.22125 0.29676 0.92926
 N1126 N 0.24619 0.30947 0.93943
 N1127 N 0.19311 0.79955 0.42191
 N1128 N 0.21812 0.80983 0.43442
 N1129 N 0.68970 0.68323 0.58030
 N1130 N 0.68088 0.70702 0.56554
 N1131 N 0.70369 0.17692 0.07629
 N1132 N 0.69238 0.19917 0.06070
 N1133 N 0.19817 0.69172 0.08382
 N1134 N 0.18749 0.71540 0.07019
 N1135 N 0.19437 0.18236 0.57751
 N1136 N 0.18498 0.20553 0.56204
   
