data_POSCAR
  _audit_creation_date              2014-09-24
  _audit_creation_method            'ToBaCCo'
  _symmetry_space_group_name_H-M    'P1'
  _symmetry_Int_Tables_number       1
  _symmetry_cell_setting            triclinic
  loop_
  _symmetry_equiv_pos_as_xyz
 x,y,z
_cell_length_a 49.5232
_cell_length_b 49.4137
_cell_length_c 47.8612
_cell_angle_alpha 89.967200
_cell_angle_beta 89.963700
_cell_angle_gamma 89.896100
loop_
  _atom_site_label
  _atom_site_type_symbol
  _atom_site_fract_x
  _atom_site_fract_y
  _atom_site_fract_z
O1 O -0.02592 0.27935 0.02712
 O2 O 0.02774 0.28206 -0.02599
 O3 O -0.02478 0.28002 -0.02718
 O4 O 0.02653 0.28129 0.02837
 O5 O 0.02828 0.23669 0.02787
 O6 O -0.02285 0.23543 -0.02795
 O7 O 0.02972 0.23751 -0.02638
 O8 O -0.02415 0.23475 0.02667
 Cu9 Cu 0.00071 0.28514 0.00062
 Cu10 Cu 0.00288 0.23162 -0.00004
 C11 C -0.03416 0.25662 0.03608
 C12 C 0.03807 0.26027 -0.03527
 C13 C -0.03259 0.25753 -0.03712
 C14 C 0.03618 0.25921 0.03767
 O15 O 0.47569 0.78093 0.52671
 O16 O 0.52744 0.78177 0.47149
 O17 O 0.47492 0.78055 0.47234
 O18 O 0.52826 0.78217 0.52583
 O19 O 0.52941 0.73755 0.52618
 O20 O 0.47612 0.73593 0.47251
 O21 O 0.52867 0.73715 0.47194
 O22 O 0.47684 0.73631 0.52718
 Cu23 Cu 0.50143 0.78582 0.49907
 Cu24 Cu 0.50280 0.73226 0.49950
 C25 C 0.46744 0.75850 0.53647
 C26 C 0.53698 0.75961 0.46231
 C27 C 0.46646 0.75798 0.46316
 C28 C 0.53804 0.76015 0.53511
 O29 O 0.97663 0.71727 -0.02959
 O30 O 1.02812 0.71762 0.02586
 O31 O 0.97547 0.71658 0.02499
 O32 O 1.02895 0.71841 -0.02846
 O33 O 1.02722 0.76296 -0.02858
 O34 O 0.97531 0.76119 0.02653
 O35 O 1.02772 0.76224 0.02586
 O36 O 0.97437 0.76177 -0.02776
 Cu37 Cu 1.00236 0.71300 -0.00184
 Cu38 Cu 1.00106 0.76651 -0.00099
 C39 C 0.96647 0.73944 -0.03808
 C40 C 1.03689 0.73999 0.03523
 C41 C 0.96641 0.73857 0.03511
 C42 C 1.03720 0.74100 -0.03785
 O43 O 0.52728 0.21901 0.52758
 O44 O 0.47414 0.22067 0.47388
 O45 O 0.52664 0.21931 0.47327
 O46 O 0.47466 0.22030 0.52824
 O47 O 0.47576 0.26492 0.52862
 O48 O 0.52771 0.26393 0.47351
 O49 O 0.47523 0.26529 0.47400
 O50 O 0.52830 0.26363 0.52784
 Cu51 Cu 0.50055 0.21535 0.50074
 Cu52 Cu 0.50181 0.26892 0.50104
 C53 C 0.53695 0.24104 0.53687
 C54 C 0.46567 0.24324 0.46464
 C55 C 0.53609 0.24144 0.46396
 C56 C 0.46633 0.24277 0.53789
 O57 O 0.71156 0.02454 -0.02849
 O58 O 0.71109 -0.02886 0.02516
 O59 O 0.71073 0.02386 0.02584
 O60 O 0.71207 -0.02810 -0.02926
 O61 O 0.75659 -0.02773 -0.02857
 O62 O 0.75526 0.02400 0.02663
 O63 O 0.75558 -0.02881 0.02571
 O64 O 0.75609 0.02491 -0.02761
 Cu65 Cu 0.70690 -0.00219 -0.00174
 Cu66 Cu 0.76034 -0.00189 -0.00085
 C67 C 0.73391 0.03393 -0.03719
 C68 C 0.73325 -0.03813 0.03459
 C69 C 0.73280 0.03293 0.03558
 C70 C 0.73457 -0.03679 -0.03838
 O71 O 0.20962 0.47636 0.52999
 O72 O 0.20895 0.52865 0.47510
 O73 O 0.20901 0.47589 0.47560
 O74 O 0.20948 0.52910 0.52948
 O75 O 0.25402 0.52906 0.52895
 O76 O 0.25354 0.47591 0.47507
 O77 O 0.25348 0.52867 0.47467
 O78 O 0.25415 0.47629 0.52934
 Cu79 Cu 0.20480 0.50250 0.50260
 Cu80 Cu 0.25826 0.50248 0.50195
 C81 C 0.23202 0.46729 0.53900
 C82 C 0.23112 0.53770 0.46556
 C83 C 0.23120 0.46672 0.46617
 C84 C 0.23184 0.53825 0.53839
 O85 O 0.28484 1.02903 0.03008
 O86 O 0.28627 0.97729 -0.02523
 O87 O 0.28556 1.02997 -0.02442
 O88 O 0.28540 0.97671 0.02946
 O89 O 0.24083 0.97672 0.02916
 O90 O 0.24113 1.02841 -0.02627
 O91 O 0.24172 0.97581 -0.02491
 O92 O 0.24039 1.02980 0.02817
 Cu93 Cu 0.28997 1.00329 0.00251
 Cu94 Cu 0.23656 1.00270 0.00153
 C95 C 0.26239 1.03848 0.03852
 C96 C 0.26425 0.96753 -0.03434
 C97 C 0.26339 1.03817 -0.03485
 C98 C 0.26306 0.96774 0.03863
 O99 O 0.78162 0.52461 0.52528
 O100 O 0.78213 0.47267 0.47022
 O101 O 0.78097 0.52515 0.47097
 O102 O 0.78283 0.47191 0.52474
 O103 O 0.73830 0.47172 0.52619
 O104 O 0.73646 0.52350 0.47084
 O105 O 0.73762 0.47071 0.47191
 O106 O 0.73708 0.52415 0.52550
 Cu107 Cu 0.78635 0.49867 0.49776
 Cu108 Cu 0.73289 0.49747 0.49862
 C109 C 0.75928 0.53331 0.53480
 C110 C 0.75996 0.46271 0.46178
 C111 C 0.75841 0.53327 0.46150
 C112 C 0.76089 0.46288 0.53487
 C113 C 0.23942 0.26164 0.25274
 C114 C 0.26019 0.24357 0.25171
 C115 C 0.26080 0.22212 0.23014
 C116 C 0.28271 0.24386 0.27220
 C117 C 0.23664 0.28180 0.27557
 C118 C 0.21830 0.26196 0.23080
 C119 C 0.24421 0.19934 0.23265
 C120 C 0.24455 0.17927 0.21208
 C121 C 0.26102 0.18194 0.18819
 C122 C 0.27750 0.20508 0.18586
 C123 C 0.27770 0.22471 0.20686
 C124 C 0.28935 0.22018 0.28684
 C125 C 0.30960 0.22042 0.30711
 C126 C 0.32371 0.24439 0.31316
 C127 C 0.31758 0.26793 0.29786
 C128 C 0.29742 0.26761 0.27743
 C129 C 0.23369 0.30931 0.26898
 C130 C 0.23177 0.32865 0.29015
 C131 C 0.23264 0.32084 0.31838
 C132 C 0.23501 0.29319 0.32496
 C133 C 0.23678 0.27383 0.30375
 C134 C 0.22495 0.26794 0.20299
 C135 C 0.20503 0.26794 0.18236
 C136 C 0.17802 0.26223 0.18923
 C137 C 0.17138 0.25671 0.21724
 C138 C 0.19135 0.25668 0.23786
 H139 H 0.23117 0.19704 0.25067
 H140 H 0.23208 0.16157 0.21516
 H141 H 0.28999 0.20837 0.16764
 H142 H 0.29051 0.24233 0.20462
 H143 H 0.27847 0.20156 0.28300
 H144 H 0.31423 0.20180 0.31805
 H145 H 0.29300 0.28600 0.26599
 H146 H 0.23343 0.31588 0.24738
 H147 H 0.23022 0.34980 0.28443
 H148 H 0.23528 0.28654 0.34652
 H149 H 0.23841 0.25264 0.30929
 H150 H 0.24558 0.27262 0.19729
 H151 H 0.21083 0.27207 0.16097
 H152 H 0.15069 0.25268 0.22326
 H153 H 0.18585 0.25232 0.25930
 H154 H 0.32795 0.28675 0.30208
 C155 C 0.75780 0.73619 0.24519
 C156 C 0.73839 0.75585 0.24525
 C157 C 0.73649 0.77647 0.22268
 C158 C 0.71812 0.75787 0.26810
 C159 C 0.75777 0.71395 0.26616
 C160 C 0.78021 0.73614 0.22447
 C161 C 0.73513 0.80403 0.22962
 C162 C 0.73373 0.82368 0.20870
 C163 C 0.73362 0.81615 0.18040
 C164 C 0.73451 0.78853 0.17345
 C165 C 0.73566 0.76885 0.19441
 C166 C 0.72620 0.75941 0.29617
 C167 C 0.70693 0.76048 0.31748
 C168 C 0.67923 0.76049 0.31108
 C169 C 0.67123 0.75971 0.28292
 C170 C 0.69050 0.75847 0.26164
 C171 C 0.73471 0.69798 0.27053
 C172 C 0.73452 0.67812 0.29132
 C173 C 0.75756 0.67348 0.30783
 C174 C 0.78093 0.68884 0.30266
 C175 C 0.78102 0.70884 0.28204
 C176 C 0.78572 0.71268 0.20899
 C177 C 0.80639 0.71248 0.18910
 C178 C 0.82203 0.73577 0.18432
 C179 C 0.81682 0.75909 0.20031
 C180 C 0.79629 0.75918 0.22036
 H181 H 0.73562 0.81034 0.25128
 H182 H 0.73329 0.84482 0.21464
 H183 H 0.73402 0.78216 0.15181
 H184 H 0.73601 0.74768 0.18860
 H185 H 0.74744 0.75962 0.30157
 H186 H 0.71368 0.76154 0.33897
 H187 H 0.68387 0.75745 0.24010
 H188 H 0.71671 0.70121 0.25812
 H189 H 0.71614 0.66679 0.29483
 H190 H 0.79921 0.68538 0.31454
 H191 H 0.79912 0.72071 0.27880
 H192 H 0.77379 0.69457 0.21208
 H193 H 0.81022 0.69401 0.17760
 H194 H 0.82830 0.77744 0.19704
 H195 H 0.79279 0.77734 0.23251
 H196 H 0.65004 0.75947 0.27737
 C197 C 0.73931 0.23814 0.24851
 C198 C 0.76004 0.25622 0.24896
 C199 C 0.78234 0.25557 0.22818
 C200 C 0.76074 0.27818 0.26997
 C201 C 0.71845 0.23795 0.27080
 C202 C 0.73635 0.21781 0.22590
 C203 C 0.79705 0.23174 0.22309
 C204 C 0.81707 0.23117 0.20247
 C205 C 0.82305 0.25454 0.18686
 C206 C 0.80891 0.27858 0.19274
 C207 C 0.78881 0.27908 0.21319
 C208 C 0.78067 0.27823 0.29069
 C209 C 0.78071 0.29825 0.31129
 C210 C 0.76117 0.31901 0.31113
 C211 C 0.74164 0.31917 0.28974
 C212 C 0.74131 0.29883 0.26950
 C213 C 0.69117 0.24138 0.26384
 C214 C 0.67143 0.24162 0.28471
 C215 C 0.67863 0.23819 0.31291
 C216 C 0.70597 0.23429 0.31975
 C217 C 0.72568 0.23407 0.29886
 C218 C 0.73598 0.22562 0.19769
 C219 C 0.73422 0.20613 0.17664
 C220 C 0.73237 0.17851 0.18344
 C221 C 0.73191 0.17084 0.21172
 C222 C 0.73382 0.19032 0.23274
 H223 H 0.79278 0.21349 0.23480
 H224 H 0.82748 0.21230 0.19839
 H225 H 0.81342 0.29708 0.18156
 H226 H 0.77791 0.29775 0.21695
 H227 H 0.79574 0.26233 0.29132
 H228 H 0.79575 0.29708 0.32763
 H229 H 0.72596 0.29917 0.25339
 H230 H 0.68521 0.24416 0.24225
 H231 H 0.65049 0.24422 0.27876
 H232 H 0.71217 0.23178 0.34128
 H233 H 0.74661 0.23091 0.30457
 H234 H 0.73726 0.24680 0.19199
 H235 H 0.73415 0.21265 0.15503
 H236 H 0.73075 0.14971 0.21759
 H237 H 0.73393 0.18390 0.25438
 H238 H 0.72668 0.33510 0.28845
 C239 C 0.26075 0.75959 0.25025
 C240 C 0.23997 0.74156 0.25081
 C241 C 0.21920 0.74122 0.22844
 C242 C 0.23690 0.72140 0.27362
 C243 C 0.28310 0.75889 0.27098
 C244 C 0.26150 0.78154 0.22918
 C245 C 0.19184 0.74435 0.23529
 C246 C 0.17217 0.74419 0.21436
 C247 C 0.17950 0.74067 0.18620
 C248 C 0.20693 0.73715 0.17947
 C249 C 0.22657 0.73731 0.20041
 C250 C 0.23655 0.72943 0.30177
 C251 C 0.23461 0.71011 0.32301
 C252 C 0.23256 0.68244 0.31649
 C253 C 0.23210 0.67457 0.28827
 C254 C 0.23418 0.69387 0.26706
 C255 C 0.29767 0.73499 0.27615
 C256 C 0.31775 0.73437 0.29668
 C257 C 0.32393 0.75776 0.31215
 C258 C 0.30992 0.78187 0.30619
 C259 C 0.28976 0.78242 0.28582
 C260 C 0.28143 0.78157 0.20844
 C261 C 0.28164 0.80171 0.18793
 C262 C 0.26229 0.82266 0.18823
 C263 C 0.24272 0.82279 0.20961
 C264 C 0.24221 0.80231 0.22973
 H265 H 0.18576 0.74713 0.25684
 H266 H 0.15118 0.74651 0.22025
 H267 H 0.21324 0.73458 0.15797
 H268 H 0.24755 0.73435 0.19476
 H269 H 0.23797 0.75063 0.30726
 H270 H 0.23455 0.71680 0.34455
 H271 H 0.23427 0.68728 0.24548
 H272 H 0.29325 0.71673 0.26454
 H273 H 0.32804 0.71544 0.30081
 H274 H 0.31458 0.80038 0.31725
 H275 H 0.27898 0.80115 0.28200
 H276 H 0.29641 0.76557 0.20773
 H277 H 0.29670 0.80052 0.17159
 H278 H 0.22790 0.83885 0.21103
 H279 H 0.22686 0.80268 0.24586
 H280 H 0.23078 0.65340 0.28260
 C281 C 0.76313 0.25756 0.74863
 C282 C 0.74314 0.23859 0.74892
 C283 C 0.72230 0.23741 0.72664
 C284 C 0.74084 0.21824 0.77165
 C285 C 0.78540 0.25728 0.76947
 C286 C 0.76347 0.27980 0.72768
 C287 C 0.69488 0.23866 0.73385
 C288 C 0.67506 0.23850 0.71312
 C289 C 0.68229 0.23683 0.68477
 C290 C 0.70977 0.23486 0.67762
 C291 C 0.72960 0.23507 0.69839
 C292 C 0.73974 0.22619 0.79980
 C293 C 0.73814 0.20676 0.82096
 C294 C 0.73718 0.17907 0.81433
 C295 C 0.73763 0.17123 0.78611
 C296 C 0.73938 0.19065 0.76498
 C297 C 0.80097 0.23390 0.77403
 C298 C 0.82105 0.23364 0.79454
 C299 C 0.82627 0.25690 0.81058
 C300 C 0.81124 0.28053 0.80526
 C301 C 0.79104 0.28070 0.78492
 C302 C 0.78672 0.28437 0.71163
 C303 C 0.78709 0.30477 0.69141
 C304 C 0.76418 0.32107 0.68686
 C305 C 0.74112 0.31683 0.70346
 C306 C 0.74087 0.29660 0.72384
 H307 H 0.68885 0.24025 0.75555
 H308 H 0.65404 0.23957 0.71928
 H309 H 0.71595 0.23368 0.65595
 H310 H 0.75066 0.23367 0.69245
 H311 H 0.74019 0.24742 0.80536
 H312 H 0.73737 0.21340 0.84251
 H313 H 0.74006 0.18412 0.74339
 H314 H 0.79732 0.21575 0.76194
 H315 H 0.83212 0.21506 0.79819
 H316 H 0.81513 0.29896 0.81678
 H317 H 0.77949 0.29904 0.78152
 H318 H 0.80450 0.27188 0.71451
 H319 H 0.80538 0.30786 0.67943
 H320 H 0.72305 0.32883 0.70040
 H321 H 0.72292 0.29384 0.73645
 H322 H 0.73717 0.15004 0.78038
 C323 C 0.24290 0.74404 0.75101
 C324 C 0.26380 0.76194 0.75163
 C325 C 0.28618 0.76116 0.73094
 C326 C 0.26466 0.78383 0.77276
 C327 C 0.22187 0.74397 0.77316
 C328 C 0.23994 0.72372 0.72835
 C329 C 0.30072 0.73723 0.72585
 C330 C 0.32075 0.73652 0.70525
 C331 C 0.32692 0.75985 0.68964
 C332 C 0.31298 0.78400 0.69556
 C333 C 0.29286 0.78464 0.71600
 C334 C 0.28462 0.78367 0.79346
 C335 C 0.28485 0.80362 0.81414
 C336 C 0.26547 0.82455 0.81409
 C337 C 0.24592 0.82492 0.79271
 C338 C 0.24540 0.80463 0.77240
 C339 C 0.19461 0.74711 0.76595
 C340 C 0.17467 0.74714 0.78662
 C341 C 0.18163 0.74381 0.81490
 C342 C 0.20897 0.74032 0.82201
 C343 C 0.22888 0.74027 0.80131
 C344 C 0.23976 0.73151 0.70012
 C345 C 0.23779 0.71202 0.67906
 C346 C 0.23555 0.68442 0.68586
 C347 C 0.23501 0.67679 0.71415
 C348 C 0.23711 0.69626 0.73517
 H349 H 0.29628 0.71900 0.73753
 H350 H 0.33100 0.71756 0.70115
 H351 H 0.31763 0.80247 0.68439
 H352 H 0.28211 0.80339 0.71977
 H353 H 0.29957 0.76765 0.79401
 H354 H 0.29990 0.80227 0.83045
 H355 H 0.23003 0.80516 0.75631
 H356 H 0.18881 0.74973 0.74430
 H357 H 0.15377 0.74941 0.78043
 H358 H 0.21501 0.73790 0.84360
 H359 H 0.24977 0.73729 0.80724
 H360 H 0.24128 0.75266 0.69442
 H361 H 0.23780 0.71854 0.65746
 H362 H 0.23356 0.65568 0.72003
 H363 H 0.23708 0.68984 0.75681
 H364 H 0.23109 0.84098 0.79148
 C365 C 0.26208 0.24296 0.75258
 C366 C 0.24246 0.26242 0.75288
 C367 C 0.24016 0.28296 0.73027
 C368 C 0.22210 0.26409 0.77568
 C369 C 0.26247 0.22051 0.77335
 C370 C 0.28411 0.24311 0.73142
 C371 C 0.23915 0.31055 0.73710
 C372 C 0.23730 0.33010 0.71611
 C373 C 0.23631 0.32243 0.68785
 C374 C 0.23684 0.29475 0.68107
 C375 C 0.23852 0.27519 0.70210
 C376 C 0.22999 0.26501 0.80386
 C377 C 0.21055 0.26566 0.82504
 C378 C 0.18290 0.26593 0.81841
 C379 C 0.17511 0.26580 0.79019
 C380 C 0.19452 0.26492 0.76905
 C381 C 0.23951 0.20451 0.77809
 C382 C 0.23985 0.18425 0.79847
 C383 C 0.26337 0.17913 0.81412
 C384 C 0.28662 0.19455 0.80854
 C385 C 0.28615 0.21502 0.78841
 C386 C 0.28933 0.21977 0.71564
 C387 C 0.30945 0.21981 0.69518
 C388 C 0.32481 0.24322 0.69005
 C389 C 0.31995 0.26640 0.70637
 C390 C 0.29997 0.26626 0.72701
 H391 H 0.24025 0.31695 0.75871
 H392 H 0.23716 0.35127 0.72195
 H393 H 0.23566 0.28824 0.65950
 H394 H 0.23860 0.25398 0.69641
 H395 H 0.25118 0.26503 0.80943
 H396 H 0.21712 0.26618 0.84661
 H397 H 0.18801 0.26435 0.74745
 H398 H 0.22119 0.20794 0.76626
 H399 H 0.22151 0.17296 0.80231
 H400 H 0.30526 0.19076 0.81968
 H401 H 0.30421 0.22687 0.78483
 H402 H 0.27756 0.20159 0.71893
 H403 H 0.31305 0.20143 0.68344
 H404 H 0.33125 0.28482 0.70288
 H405 H 0.29667 0.28433 0.73935
 H406 H 0.15395 0.26577 0.78448
 C407 C 0.74226 0.75723 0.74899
 C408 C 0.76056 0.73667 0.75016
 C409 C 0.76052 0.71399 0.72981
 C410 C 0.78211 0.73657 0.77156
 C411 C 0.74149 0.77851 0.77081
 C412 C 0.72214 0.75954 0.72610
 C413 C 0.73700 0.69893 0.72475
 C414 C 0.73678 0.67881 0.70424
 C415 C 0.76022 0.67304 0.68871
 C416 C 0.78401 0.68743 0.69466
 C417 C 0.78415 0.70766 0.71500
 C418 C 0.78019 0.71945 0.79477
 C419 C 0.80001 0.72001 0.81553
 C420 C 0.82267 0.73709 0.81301
 C421 C 0.82467 0.75377 0.78919
 C422 C 0.80441 0.75375 0.76887
 C423 C 0.74554 0.80566 0.76349
 C424 C 0.74466 0.82585 0.78390
 C425 C 0.73949 0.81921 0.81198
 C426 C 0.73511 0.79197 0.81915
 C427 C 0.73597 0.77183 0.79872
 C428 C 0.73019 0.75949 0.69795
 C429 C 0.71091 0.76073 0.67667
 C430 C 0.68326 0.76248 0.68315
 C431 C 0.67536 0.76329 0.71135
 C432 C 0.69462 0.76190 0.73260
 H433 H 0.71867 0.70311 0.73633
 H434 H 0.71808 0.66823 0.70010
 H435 H 0.80255 0.68308 0.68353
 H436 H 0.80260 0.71881 0.71872
 H437 H 0.76296 0.70617 0.79712
 H438 H 0.79724 0.70732 0.83372
 H439 H 0.80622 0.76693 0.75088
 H440 H 0.74951 0.81118 0.74197
 H441 H 0.74767 0.84669 0.77766
 H442 H 0.73128 0.78619 0.84061
 H443 H 0.73219 0.75103 0.80464
 H444 H 0.75139 0.75831 0.69249
 H445 H 0.71762 0.76053 0.65513
 H446 H 0.65421 0.76436 0.71700
 H447 H 0.68801 0.76209 0.75417
 H448 H 0.84200 0.76670 0.78596
 C449 C 0.26136 0.09906 0.10143
 C450 C 0.23762 0.09219 0.08690
 C451 C 0.23783 0.07196 0.06647
 C452 C 0.26197 0.05854 0.05935
 C453 C 0.28577 0.06563 0.07363
 C454 C 0.28537 0.08526 0.09461
 C455 C 0.26116 0.12043 0.12355
 C456 C 0.28426 0.13619 0.12876
 C457 C 0.28432 0.15573 0.14984
 C458 C 0.26103 0.16077 0.16588
 C459 C 0.23776 0.14534 0.16035
 C460 C 0.23794 0.12526 0.13979
 H461 H 0.21909 0.06729 0.05585
 H462 H 0.30474 0.05562 0.06905
 H463 H 0.30285 0.16669 0.15363
 H464 H 0.21920 0.14883 0.17174
 H465 H 0.30396 0.08926 0.10571
 H466 H 0.30242 0.13365 0.11645
 H467 H 0.21882 0.10265 0.09094
 H468 H 0.21983 0.11337 0.13692
 C469 C 0.75912 0.59316 0.60011
 C470 C 0.73500 0.58043 0.59207
 C471 C 0.73499 0.56118 0.57068
 C472 C 0.75915 0.55409 0.55705
 C473 C 0.78327 0.56682 0.56515
 C474 C 0.78323 0.58621 0.58637
 C475 C 0.75918 0.61363 0.62275
 C476 C 0.77396 0.63768 0.61976
 C477 C 0.77419 0.65693 0.64110
 C478 C 0.75981 0.65250 0.66603
 C479 C 0.74498 0.62842 0.66898
 C480 C 0.74460 0.60923 0.64753
 H481 H 0.71609 0.55172 0.56495
 H482 H 0.80221 0.56180 0.55508
 H483 H 0.78535 0.67550 0.63789
 H484 H 0.73399 0.62420 0.68805
 H485 H 0.80215 0.59551 0.59234
 H486 H 0.78503 0.64178 0.60071
 H487 H 0.71609 0.58560 0.60213
 H488 H 0.73331 0.59071 0.65052
 C489 C 0.73269 0.89952 0.09540
 C490 C 0.70837 0.91059 0.08554
 C491 C 0.70852 0.93111 0.06543
 C492 C 0.73307 0.94122 0.05482
 C493 C 0.75742 0.93008 0.06486
 C494 C 0.75720 0.90943 0.08481
 C495 C 0.73253 0.87785 0.11685
 C496 C 0.74981 0.85539 0.11441
 C497 C 0.74990 0.83517 0.13484
 C498 C 0.73287 0.83712 0.15825
 C499 C 0.71551 0.85952 0.16062
 C500 C 0.71526 0.87962 0.14009
 H501 H 0.68932 0.93903 0.05828
 H502 H 0.77676 0.93725 0.05730
 H503 H 0.76365 0.81824 0.13261
 H504 H 0.70202 0.86142 0.17833
 H505 H 0.77626 0.90147 0.09229
 H506 H 0.76315 0.85339 0.09659
 H507 H 0.68918 0.90314 0.09316
 H508 H 0.70189 0.89681 0.14261
 C509 C 0.23306 0.40505 0.60202
 C510 C 0.20855 0.41686 0.59357
 C511 C 0.20819 0.43707 0.57312
 C512 C 0.23235 0.44600 0.56078
 C513 C 0.25687 0.43423 0.56931
 C514 C 0.25720 0.41395 0.58966
 C515 C 0.23348 0.38361 0.62375
 C516 C 0.25019 0.36078 0.62072
 C517 C 0.25089 0.34079 0.64137
 C518 C 0.23500 0.34327 0.66557
 C519 C 0.21819 0.36604 0.66854
 C520 C 0.21738 0.38595 0.64781
 H521 H 0.18897 0.44568 0.56698
 H522 H 0.27584 0.44066 0.56024
 H523 H 0.26421 0.32359 0.63864
 H524 H 0.20554 0.36836 0.68685
 H525 H 0.27642 0.40545 0.59600
 H526 H 0.26262 0.35830 0.60227
 H527 H 0.18960 0.41021 0.60253
 H528 H 0.20448 0.40343 0.65083
 C529 C 0.90432 0.25428 0.09965
 C530 C 0.91778 0.23047 0.09160
 C531 C 0.93760 0.23115 0.07078
 C532 C 0.94451 0.25570 0.05776
 C533 C 0.93106 0.27949 0.06588
 C534 C 0.91112 0.27877 0.08652
 C535 C 0.88329 0.25370 0.12172
 C536 C 0.85919 0.26837 0.11839
 C537 C 0.83961 0.26840 0.13939
 C538 C 0.84372 0.25391 0.16432
 C539 C 0.86774 0.23900 0.16754
 C540 C 0.88729 0.23885 0.14643
 H541 H 0.94762 0.21247 0.06500
 H542 H 0.93592 0.29873 0.05629
 H543 H 0.82109 0.27960 0.13596
 H544 H 0.87170 0.22791 0.18662
 H545 H 0.90129 0.29748 0.09254
 H546 H 0.85538 0.27963 0.09937
 H547 H 0.91276 0.21128 0.10120
 H548 H 0.90581 0.22761 0.14969
 C549 C 0.40747 0.75810 0.60168
 C550 C 0.42033 0.73397 0.59363
 C551 C 0.43971 0.73404 0.57236
 C552 C 0.44678 0.75829 0.55885
 C553 C 0.43399 0.78244 0.56703
 C554 C 0.41450 0.78232 0.58814
 C555 C 0.38673 0.75810 0.62407
 C556 C 0.36284 0.77316 0.62092
 C557 C 0.34343 0.77354 0.64209
 C558 C 0.34751 0.75902 0.66702
 C559 C 0.37135 0.74380 0.67008
 C560 C 0.39072 0.74329 0.64880
 H561 H 0.44921 0.71510 0.56655
 H562 H 0.43899 0.80147 0.55708
 H563 H 0.32505 0.78499 0.63878
 H564 H 0.37529 0.73268 0.68915
 H565 H 0.40514 0.80128 0.59413
 H566 H 0.35902 0.78440 0.60189
 H567 H 0.41513 0.71497 0.60353
 H568 H 0.40909 0.73176 0.65191
 C569 C 0.09789 0.74036 0.09939
 C570 C 0.08763 0.76479 0.08867
 C571 C 0.06788 0.76468 0.06783
 C572 C 0.05791 0.74012 0.05723
 C573 C 0.06819 0.71569 0.06793
 C574 C 0.08796 0.71581 0.08876
 C575 C 0.11884 0.74048 0.12160
 C576 C 0.14043 0.72200 0.12081
 C577 C 0.16010 0.72207 0.14173
 C578 C 0.15862 0.74061 0.16394
 C579 C 0.13703 0.75910 0.16473
 C580 C 0.11738 0.75905 0.14379
 H581 H 0.06045 0.78385 0.05999
 H582 H 0.06090 0.69642 0.06028
 H583 H 0.17634 0.70740 0.14068
 H584 H 0.13548 0.77382 0.18141
 H585 H 0.09520 0.69666 0.09684
 H586 H 0.14227 0.70763 0.10384
 H587 H 0.09513 0.78403 0.09617
 H588 H 0.10085 0.77337 0.14514
 C589 C 0.59948 0.23922 0.59935
 C590 C 0.58887 0.26399 0.58992
 C591 C 0.56862 0.26458 0.56962
 C592 C 0.55847 0.24040 0.55833
 C593 C 0.56911 0.21562 0.56773
 C594 C 0.58942 0.21505 0.58799
 C595 C 0.62080 0.23863 0.62112
 C596 C 0.64272 0.22063 0.61900
 C597 C 0.66274 0.22009 0.63957
 C598 C 0.66119 0.23744 0.66277
 C599 C 0.63928 0.25544 0.66487
 C600 C 0.61933 0.25605 0.64427
 H601 H 0.56092 0.28401 0.56277
 H602 H 0.56171 0.19663 0.55948
 H603 H 0.67928 0.20586 0.63751
 H604 H 0.63770 0.26926 0.68235
 H605 H 0.59698 0.19565 0.59508
 H606 H 0.64452 0.20715 0.60126
 H607 H 0.59645 0.28296 0.59804
 H608 H 0.60256 0.26995 0.64663
 C609 C 0.73450 0.09677 0.90045
 C610 C 0.71004 0.08509 0.90915
 C611 C 0.70984 0.06474 0.92944
 C612 C 0.73410 0.05555 0.94140
 C613 C 0.75856 0.06726 0.93270
 C614 C 0.75874 0.08767 0.91249
 C615 C 0.73476 0.11817 0.87870
 C616 C 0.75166 0.14083 0.88141
 C617 C 0.75222 0.16075 0.86067
 C618 C 0.73599 0.15835 0.83673
 C619 C 0.71897 0.13577 0.83411
 C620 C 0.71832 0.11592 0.85490
 H621 H 0.69065 0.05620 0.93572
 H622 H 0.77760 0.06062 0.94148
 H623 H 0.76571 0.17780 0.86313
 H624 H 0.70605 0.13352 0.81602
 H625 H 0.77792 0.09606 0.90595
 H626 H 0.76435 0.14323 0.89965
 H627 H 0.69102 0.09190 0.90046
 H628 H 0.70528 0.09857 0.85212
 C629 C 0.23068 0.60007 0.40264
 C630 C 0.20634 0.58872 0.41212
 C631 C 0.20646 0.56845 0.43253
 C632 C 0.23094 0.55902 0.44380
 C633 C 0.25528 0.57033 0.43423
 C634 C 0.25514 0.59065 0.41392
 C635 C 0.23061 0.62154 0.38094
 C636 C 0.24801 0.64389 0.38314
 C637 C 0.24837 0.66382 0.36242
 C638 C 0.23143 0.66179 0.33898
 C639 C 0.21387 0.63957 0.33688
 C640 C 0.21342 0.61969 0.35767
 H641 H 0.18736 0.56021 0.43949
 H642 H 0.27448 0.56350 0.44246
 H643 H 0.26230 0.68057 0.36447
 H644 H 0.20041 0.63760 0.31918
 H645 H 0.27423 0.59875 0.40675
 H646 H 0.26128 0.64601 0.40098
 H647 H 0.18716 0.59577 0.40402
 H648 H 0.19997 0.60261 0.35528
 C649 C 0.26530 0.90648 0.90149
 C650 C 0.28680 0.92492 0.90419
 C651 C 0.28666 0.94447 0.92531
 C652 C 0.26477 0.94644 0.94383
 C653 C 0.24323 0.92822 0.94116
 C654 C 0.24362 0.90829 0.92046
 C655 C 0.26540 0.88558 0.87899
 C656 C 0.24112 0.87699 0.86662
 C657 C 0.24114 0.85716 0.84583
 C658 C 0.26549 0.84570 0.83634
 C659 C 0.28982 0.85452 0.84845
 C660 C 0.28975 0.87397 0.86965
 H661 H 0.30343 0.95844 0.92677
 H662 H 0.22622 0.92913 0.95538
 H663 H 0.22193 0.85064 0.83745
 H664 H 0.30904 0.84657 0.84146
 H665 H 0.22700 0.89413 0.91959
 H666 H 0.22197 0.88572 0.87280
 H667 H 0.30359 0.92462 0.88972
 H668 H 0.30885 0.87965 0.87888
 C669 C 0.76054 0.40155 0.39778
 C670 C 0.78183 0.42028 0.39999
 C671 C 0.78178 0.43992 0.42099
 C672 C 0.76018 0.44168 0.43989
 C673 C 0.73877 0.42325 0.43764
 C674 C 0.73908 0.40324 0.41703
 C675 C 0.76071 0.38043 0.37554
 C676 C 0.73645 0.37147 0.36342
 C677 C 0.73659 0.35149 0.34278
 C678 C 0.76104 0.34025 0.33324
 C679 C 0.78532 0.34941 0.34515
 C680 C 0.78514 0.36901 0.36618
 H681 H 0.79842 0.45407 0.42211
 H682 H 0.72199 0.42403 0.45214
 H683 H 0.71743 0.34469 0.33454
 H684 H 0.80459 0.34162 0.33811
 H685 H 0.72262 0.38887 0.41647
 H686 H 0.71725 0.38003 0.36967
 H687 H 0.79841 0.42010 0.38526
 H688 H 0.80423 0.37499 0.37525
 C689 C 0.10033 0.26353 0.90405
 C690 C 0.09149 0.23855 0.91462
 C691 C 0.07091 0.23744 0.93458
 C692 C 0.05875 0.26134 0.94462
 C693 C 0.06782 0.28637 0.93405
 C694 C 0.08828 0.28741 0.91396
 C695 C 0.12184 0.26463 0.88249
 C696 C 0.11933 0.28201 0.85939
 C697 C 0.13925 0.28259 0.83871
 C698 C 0.16219 0.26593 0.84080
 C699 C 0.16489 0.24882 0.86409
 C700 C 0.14487 0.24810 0.88467
 H701 H 0.06457 0.21777 0.94210
 H702 H 0.05910 0.30525 0.94122
 H703 H 0.13676 0.29613 0.82110
 H704 H 0.18224 0.23560 0.86610
 H705 H 0.09489 0.30696 0.90638
 H706 H 0.10170 0.29480 0.85704
 H707 H 0.10021 0.21981 0.90711
 H708 H 0.14744 0.23470 0.90239
 C709 C 0.59813 0.76061 0.39830
 C710 C 0.58595 0.78481 0.40725
 C711 C 0.56613 0.78449 0.42805
 C712 C 0.55797 0.75995 0.44026
 C713 C 0.57012 0.73575 0.43126
 C714 C 0.59002 0.73609 0.41055
 C715 C 0.61912 0.76092 0.37617
 C716 C 0.64233 0.74468 0.37857
 C717 C 0.66196 0.74475 0.35758
 C718 C 0.65872 0.76095 0.33367
 C719 C 0.63557 0.77727 0.33132
 C720 C 0.61601 0.77731 0.35238
 H721 H 0.55720 0.80350 0.43455
 H722 H 0.56427 0.71650 0.44022
 H723 H 0.67947 0.73177 0.35983
 H724 H 0.63266 0.79014 0.31325
 H725 H 0.59882 0.71709 0.40383
 H726 H 0.64540 0.73205 0.39679
 H727 H 0.59201 0.80404 0.39841
 H728 H 0.59823 0.78986 0.34985
 C729 C 0.90596 0.73865 0.89910
 C730 C 0.92045 0.71500 0.90585
 C731 C 0.94009 0.71517 0.92680
 C732 C 0.94646 0.73922 0.94108
 C733 C 0.93233 0.76300 0.93403
 C734 C 0.91212 0.76262 0.91366
 C735 C 0.88458 0.73829 0.87705
 C736 C 0.87904 0.76148 0.86093
 C737 C 0.85884 0.76120 0.84055
 C738 C 0.84401 0.73751 0.83508
 C739 C 0.84979 0.71423 0.85096
 C740 C 0.86947 0.71473 0.87186
 H741 H 0.95065 0.69647 0.93135
 H742 H 0.93642 0.78190 0.94466
 H743 H 0.85478 0.77975 0.82929
 H744 H 0.83932 0.69540 0.84718
 H745 H 0.90109 0.78114 0.90969
 H746 H 0.89044 0.77992 0.86377
 H747 H 0.91697 0.69627 0.89474
 H748 H 0.87258 0.69656 0.88407
 C749 C 0.40483 0.24466 0.40042
 C750 C 0.41191 0.22027 0.41364
 C751 C 0.43164 0.21982 0.43448
 C752 C 0.44461 0.24381 0.44270
 C753 C 0.43744 0.26824 0.42956
 C754 C 0.41783 0.26864 0.40856
 C755 C 0.38395 0.24500 0.37822
 C756 C 0.38787 0.25998 0.35358
 C757 C 0.36836 0.25982 0.33246
 C758 C 0.34446 0.24480 0.33560
 C759 C 0.34047 0.23009 0.36042
 C760 C 0.36002 0.23012 0.38143
 H761 H 0.43672 0.20067 0.44416
 H762 H 0.44708 0.28706 0.43540
 H763 H 0.37224 0.27108 0.31347
 H764 H 0.32205 0.21877 0.36378
 H765 H 0.41258 0.28776 0.39890
 H766 H 0.40627 0.27138 0.35042
 H767 H 0.40243 0.20143 0.40757
 H768 H 0.35628 0.21874 0.40039
 C769 C 0.73637 0.90233 0.89730
 C770 C 0.76048 0.91213 0.90896
 C771 C 0.75989 0.93192 0.92979
 C772 C 0.73516 0.94235 0.93945
 C773 C 0.71105 0.93258 0.92776
 C774 C 0.71165 0.91280 0.90691
 C775 C 0.73703 0.88117 0.87530
 C776 C 0.71820 0.85993 0.87550
 C777 C 0.71896 0.83988 0.85494
 C778 C 0.73857 0.84062 0.83371
 C779 C 0.75734 0.86191 0.83345
 C780 C 0.75659 0.88195 0.85402
 H781 H 0.77883 0.93894 0.93842
 H782 H 0.69167 0.94026 0.93467
 H783 H 0.70403 0.82391 0.85552
 H784 H 0.77286 0.86289 0.81753
 H785 H 0.69275 0.90592 0.89808
 H786 H 0.70307 0.85860 0.89177
 H787 H 0.77983 0.90420 0.90228
 H788 H 0.77119 0.89822 0.85312
 C789 C 0.23080 0.40360 0.40410
 C790 C 0.25527 0.41320 0.41511
 C791 C 0.25540 0.43374 0.43517
 C792 C 0.23105 0.44509 0.44475
 C793 C 0.20656 0.43545 0.43377
 C794 C 0.20645 0.41497 0.41363
 C795 C 0.23073 0.38199 0.38255
 C796 C 0.21331 0.38363 0.35944
 C797 C 0.21374 0.36366 0.33878
 C798 C 0.23152 0.34155 0.34081
 C799 C 0.24869 0.33971 0.36410
 C800 C 0.24834 0.35974 0.38471
 H801 H 0.27461 0.44072 0.44318
 H802 H 0.18745 0.44371 0.44075
 H803 H 0.20009 0.36549 0.32120
 H804 H 0.26279 0.32305 0.36611
 H805 H 0.18727 0.40778 0.40575
 H806 H 0.19968 0.40064 0.35707
 H807 H 0.27437 0.40510 0.40791
 H808 H 0.26179 0.35777 0.40243
 C809 C 0.26360 0.09754 0.90125
 C810 C 0.28782 0.08963 0.91413
 C811 C 0.28780 0.06996 0.93514
 C812 C 0.26346 0.05797 0.94403
 C813 C 0.23919 0.06617 0.93116
 C814 C 0.23931 0.08559 0.90992
 C815 C 0.26366 0.11829 0.87888
 C816 C 0.24889 0.11427 0.85420
 C817 C 0.24897 0.13384 0.83310
 C818 C 0.26359 0.15803 0.83635
 C819 C 0.27826 0.16203 0.86118
 C820 C 0.27842 0.14231 0.88212
 H821 H 0.30692 0.06426 0.94444
 H822 H 0.22001 0.05751 0.93733
 H823 H 0.23785 0.12985 0.81409
 H824 H 0.28929 0.18061 0.86468
 H825 H 0.22034 0.09154 0.90048
 H826 H 0.23761 0.09577 0.85106
 H827 H 0.30685 0.09840 0.90766
 H828 H 0.28969 0.14605 0.90111
 C829 C 0.75704 0.59348 0.39647
 C830 C 0.78114 0.58739 0.41061
 C831 C 0.78155 0.56786 0.43172
 C832 C 0.75781 0.55415 0.43932
 C833 C 0.73365 0.56037 0.42529
 C834 C 0.73330 0.57975 0.40399
 C835 C 0.75677 0.61406 0.37391
 C836 C 0.74310 0.60912 0.34872
 C837 C 0.74338 0.62833 0.32725
 C838 C 0.75718 0.65297 0.33059
 C839 C 0.77059 0.65796 0.35596
 C840 C 0.77048 0.63868 0.37732
 H841 H 0.80049 0.56353 0.44211
 H842 H 0.71503 0.55012 0.43064
 H843 H 0.73317 0.62366 0.30785
 H844 H 0.78092 0.67694 0.35949
 H845 H 0.71440 0.58423 0.39358
 H846 H 0.73265 0.59016 0.34542
 H847 H 0.79979 0.59746 0.40505
 H848 H 0.78084 0.64318 0.39668
 C849 C 0.09833 0.74275 0.90011
 C850 C 0.08724 0.76694 0.91048
 C851 C 0.06706 0.76641 0.93091
 C852 C 0.05742 0.74163 0.94151
 C853 C 0.06857 0.71743 0.93100
 C854 C 0.08873 0.71801 0.91058
 C855 C 0.11982 0.74326 0.87844
 C856 C 0.14167 0.72511 0.87977
 C857 C 0.16174 0.72535 0.85924
 C858 C 0.16043 0.74375 0.83687
 C859 C 0.13864 0.76198 0.83559
 C860 C 0.11858 0.76176 0.85615
 H861 H 0.05912 0.78551 0.93844
 H862 H 0.06172 0.69791 0.93845
 H863 H 0.17810 0.71086 0.86067
 H864 H 0.13722 0.77660 0.81879
 H865 H 0.09657 0.69901 0.90272
 H866 H 0.14338 0.71082 0.89684
 H867 H 0.09445 0.78633 0.90307
 H868 H 0.10188 0.77582 0.85438
 C869 C 0.59691 0.24013 0.39961
 C870 C 0.58731 0.26484 0.41027
 C871 C 0.56759 0.26527 0.43116
 C872 C 0.55700 0.24100 0.44184
 C873 C 0.56659 0.21629 0.43117
 C874 C 0.58633 0.21587 0.41030
 C875 C 0.61786 0.23966 0.37741
 C876 C 0.63903 0.22069 0.37834
 C877 C 0.65874 0.22022 0.35744
 C878 C 0.65769 0.23867 0.33512
 C879 C 0.63653 0.25763 0.33418
 C880 C 0.61685 0.25814 0.35511
 H881 H 0.56068 0.28465 0.43898
 H882 H 0.55881 0.19723 0.43889
 H883 H 0.67465 0.20520 0.35860
 H884 H 0.63534 0.27229 0.31739
 H885 H 0.59307 0.19652 0.40225
 H886 H 0.64051 0.20637 0.39541
 H887 H 0.59531 0.28386 0.40270
 H888 H 0.60065 0.27282 0.35366
 C889 C 0.90743 0.25652 0.89781
 C890 C 0.92102 0.23264 0.90538
 C891 C 0.94044 0.23291 0.92658
 C892 C 0.94682 0.25713 0.94048
 C893 C 0.93333 0.28103 0.93275
 C894 C 0.91378 0.28071 0.91173
 C895 C 0.88659 0.25627 0.87557
 C896 C 0.86219 0.27037 0.87921
 C897 C 0.84262 0.27041 0.85822
 C898 C 0.84706 0.25652 0.83298
 C899 C 0.87146 0.24233 0.82940
 C900 C 0.89098 0.24214 0.85051
 H901 H 0.95049 0.21416 0.93203
 H902 H 0.93779 0.30002 0.94303
 H903 H 0.82384 0.28106 0.86192
 H904 H 0.87570 0.23174 0.81009
 H905 H 0.90383 0.29947 0.90611
 H906 H 0.85810 0.28107 0.89849
 H907 H 0.91634 0.21367 0.89516
 H908 H 0.90975 0.23137 0.84703
 C909 C 0.40527 0.75674 0.39925
 C910 C 0.41837 0.73273 0.40731
 C911 C 0.43810 0.73306 0.42821
 C912 C 0.44529 0.75746 0.44132
 C913 C 0.43222 0.78147 0.43318
 C914 C 0.41237 0.78110 0.41245
 C915 C 0.38428 0.75649 0.37714
 C916 C 0.36038 0.77149 0.38044
 C917 C 0.34078 0.77170 0.35947
 C918 C 0.34468 0.75706 0.33460
 C919 C 0.36854 0.74188 0.33140
 C920 C 0.38809 0.74155 0.35247
 H921 H 0.44781 0.71422 0.43399
 H922 H 0.43730 0.80061 0.44284
 H923 H 0.32239 0.78313 0.36289
 H924 H 0.37235 0.73068 0.31237
 H925 H 0.40283 0.79996 0.40645
 H926 H 0.35670 0.78284 0.39942
 H927 H 0.41312 0.71363 0.39767
 H928 H 0.40647 0.73006 0.34923
 C929 C 0.26275 0.90619 0.10235
 C930 C 0.24112 0.90860 0.08341
 C931 C 0.24109 0.92878 0.06294
 C932 C 0.26295 0.94665 0.06049
 C933 C 0.28471 0.94418 0.07908
 C934 C 0.28448 0.92440 0.09997
 C935 C 0.26265 0.88484 0.12442
 C936 C 0.28691 0.87287 0.13352
 C937 C 0.28682 0.85303 0.15435
 C938 C 0.26244 0.84415 0.16631
 C939 C 0.23816 0.85593 0.15702
 C940 C 0.23829 0.87617 0.13661
 H941 H 0.22417 0.93010 0.04866
 H942 H 0.30170 0.95790 0.07779
 H943 H 0.30599 0.84485 0.16119
 H944 H 0.21891 0.84938 0.16528
 H945 H 0.30123 0.92369 0.11446
 H946 H 0.30606 0.87858 0.12439
 H947 H 0.22431 0.89466 0.08406
 H948 H 0.21921 0.88514 0.13061
 C949 C 0.76297 0.40262 0.59979
 C950 C 0.73875 0.41596 0.59313
 C951 C 0.73805 0.43536 0.57190
 C952 C 0.76162 0.44203 0.55706
 C953 C 0.78588 0.42874 0.56379
 C954 C 0.78651 0.40912 0.58484
 C955 C 0.76363 0.38193 0.62221
 C956 C 0.77716 0.35726 0.61811
 C957 C 0.77736 0.33756 0.63906
 C958 C 0.76425 0.34220 0.66471
 C959 C 0.75094 0.36705 0.66885
 C960 C 0.75054 0.38664 0.64779
 H961 H 0.71905 0.44527 0.56724
 H962 H 0.80437 0.43342 0.55273
 H963 H 0.78737 0.31848 0.63495
 H964 H 0.74107 0.37151 0.68851
 H965 H 0.80549 0.39929 0.58972
 H966 H 0.78711 0.35299 0.59844
 H967 H 0.72026 0.41112 0.60414
 H968 H 0.74028 0.40565 0.65163
 C969 C 0.73158 0.09541 0.09822
 C970 C 0.70736 0.08391 0.08865
 C971 C 0.70774 0.06356 0.06838
 C972 C 0.73235 0.05420 0.05733
 C973 C 0.75657 0.06562 0.06704
 C974 C 0.75618 0.08602 0.08722
 C975 C 0.73124 0.11706 0.11968
 C976 C 0.74848 0.13950 0.11731
 C977 C 0.74857 0.15962 0.13781
 C978 C 0.73149 0.15767 0.16117
 C979 C 0.71407 0.13536 0.16342
 C980 C 0.71390 0.11529 0.14286
 H981 H 0.68873 0.05522 0.06130
 H982 H 0.77587 0.05885 0.05899
 H983 H 0.76240 0.17645 0.13565
 H984 H 0.70052 0.13346 0.18107
 H985 H 0.77517 0.09425 0.09448
 H986 H 0.76185 0.14154 0.09953
 H987 H 0.68809 0.09093 0.09655
 H988 H 0.70055 0.09813 0.14536
 C989 C 0.23254 0.60135 0.60050
 C990 C 0.25681 0.59164 0.58900
 C991 C 0.25659 0.57111 0.56893
 C992 C 0.23207 0.55987 0.55983
 C993 C 0.20778 0.56961 0.57129
 C994 C 0.20802 0.59009 0.59143
 C995 C 0.23285 0.62298 0.62202
 C996 C 0.21577 0.62147 0.64543
 C997 C 0.21647 0.64151 0.66600
 C998 C 0.23420 0.66357 0.66358
 C999 C 0.25105 0.66526 0.64001
 C1000 C 0.25042 0.64516 0.61948
 H1001 H 0.27565 0.56405 0.56055
 H1002 H 0.18854 0.56144 0.56468
 H1003 H 0.20307 0.63980 0.68379
 H1004 H 0.26510 0.68188 0.63770
 H1005 H 0.18898 0.59736 0.59968
 H1006 H 0.20218 0.60452 0.64809
 H1007 H 0.27604 0.59966 0.59583
 H1008 H 0.26361 0.64703 0.60154
 C1009 C 0.90527 0.73676 0.09908
 C1010 C 0.91237 0.71302 0.08466
 C1011 C 0.93231 0.71355 0.06397
 C1012 C 0.94537 0.73790 0.05709
 C1013 C 0.93816 0.76165 0.07145
 C1014 C 0.91841 0.76106 0.09230
 C1015 C 0.88412 0.73624 0.12102
 C1016 C 0.88794 0.75000 0.14639
 C1017 C 0.86792 0.74969 0.16699
 C1018 C 0.84354 0.73578 0.16260
 C1019 C 0.83977 0.72203 0.13717
 C1020 C 0.85988 0.72217 0.11667
 H1021 H 0.93740 0.69492 0.05329
 H1022 H 0.94786 0.78072 0.06665
 H1023 H 0.87171 0.76008 0.18650
 H1024 H 0.82106 0.71154 0.13287
 H1025 H 0.91314 0.77970 0.10288
 H1026 H 0.90659 0.76071 0.15043
 H1027 H 0.90271 0.69397 0.08965
 H1028 H 0.85625 0.71171 0.09716
 C1029 C 0.40597 0.24350 0.60268
 C1030 C 0.41241 0.21938 0.58863
 C1031 C 0.43206 0.21914 0.56766
 C1032 C 0.44553 0.24307 0.56012
 C1033 C 0.43900 0.26723 0.57411
 C1034 C 0.41951 0.26741 0.59526
 C1035 C 0.38516 0.24366 0.62498
 C1036 C 0.38963 0.25755 0.65015
 C1037 C 0.37013 0.25737 0.67129
 C1038 C 0.34563 0.24346 0.66763
 C1039 C 0.34113 0.22977 0.64230
 C1040 C 0.36071 0.22978 0.62128
 H1041 H 0.43662 0.20020 0.55730
 H1042 H 0.44904 0.28599 0.56880
 H1043 H 0.37445 0.26777 0.69067
 H1044 H 0.32228 0.21932 0.63854
 H1045 H 0.41476 0.28632 0.60559
 H1046 H 0.40845 0.26814 0.65368
 H1047 H 0.40248 0.20061 0.59412
 H1048 H 0.35657 0.21924 0.60192
 C1049 C 0.09618 0.26071 0.10274
 C1050 C 0.08462 0.28489 0.09287
 C1051 C 0.06515 0.28440 0.07176
 C1052 C 0.05677 0.25973 0.06007
 C1053 C 0.06829 0.23554 0.06997
 C1054 C 0.08778 0.23603 0.09106
 C1055 C 0.11700 0.26123 0.12505
 C1056 C 0.11695 0.24170 0.14642
 C1057 C 0.13666 0.24209 0.16728
 C1058 C 0.15689 0.26200 0.16725
 C1059 C 0.15689 0.28158 0.14593
 C1060 C 0.13718 0.28120 0.12507
 H1061 H 0.05660 0.30339 0.06467
 H1062 H 0.06235 0.21619 0.06134
 H1063 H 0.13629 0.22656 0.18325
 H1064 H 0.17203 0.29735 0.14550
 H1065 H 0.09657 0.21709 0.09795
 H1066 H 0.10150 0.22623 0.14715
 H1067 H 0.09040 0.30419 0.10171
 H1068 H 0.13794 0.29635 0.10874
 C1069 C 0.60100 0.76209 0.59714
 C1070 C 0.58915 0.78621 0.58752
 C1071 C 0.56875 0.78559 0.56736
 C1072 C 0.55968 0.76082 0.55645
 C1073 C 0.57155 0.73669 0.56607
 C1074 C 0.59200 0.73733 0.58616
 C1075 C 0.62246 0.76270 0.61878
 C1076 C 0.64506 0.74557 0.61676
 C1077 C 0.66497 0.74576 0.63745
 C1078 C 0.66265 0.76301 0.66066
 C1079 C 0.64017 0.78031 0.66255
 C1080 C 0.62032 0.78019 0.64182
 H1081 H 0.56008 0.80455 0.56034
 H1082 H 0.56501 0.71727 0.55811
 H1083 H 0.68193 0.73202 0.63555
 H1084 H 0.63797 0.79401 0.68006
 H1085 H 0.60050 0.71838 0.59343
 H1086 H 0.64740 0.73207 0.59910
 H1087 H 0.59587 0.80561 0.59537
 H1088 H 0.60303 0.79346 0.64408
   
