data_POSCAR
  _audit_creation_date              2014-09-24
  _audit_creation_method            'ToBaCCo'
  _symmetry_space_group_name_H-M    'P1'
  _symmetry_Int_Tables_number       1
  _symmetry_cell_setting            triclinic
  loop_
  _symmetry_equiv_pos_as_xyz
 x,y,z
_cell_length_a 18.4874
_cell_length_b 18.5047
_cell_length_c 18.5277
_cell_angle_alpha 88.211500
_cell_angle_beta 93.047400
_cell_angle_gamma 92.149400
loop_
  _atom_site_label
  _atom_site_type_symbol
  _atom_site_fract_x
  _atom_site_fract_y
  _atom_site_fract_z
C1 C 0.64473 0.63548 -0.00055
 C2 C 0.66404 0.56322 0.00311
 C3 C 0.61013 0.50777 0.00548
 C4 C 0.53559 0.52375 0.00009
 C5 C 0.51787 0.59758 -0.00657
 C6 C 0.57181 0.65269 -0.00437
 C7 C 0.47683 0.46467 0.00164
 C8 C 0.40420 0.48096 0.01358
 C9 C 0.34901 0.42719 0.01177
 C10 C 0.36544 0.35528 0.00279
 C11 C 0.43680 0.33700 -0.00626
 C12 C 0.49184 0.39123 -0.00879
 H13 H 0.68650 0.67837 -0.00040
 H14 H 0.62751 0.45279 0.01209
 H15 H 0.46243 0.61377 -0.01390
 H16 H 0.38889 0.53501 0.02466
 H17 H 0.32266 0.31350 0.00293
 H18 H 0.54562 0.37486 -0.01922
 C19 C 0.00063 0.64583 0.36467
 C20 C -0.00753 0.66460 0.43605
 C21 C -0.00970 0.61066 0.49102
 C22 C 0.00018 0.53709 0.47593
 C23 C 0.01119 0.52033 0.40324
 C24 C 0.00907 0.57377 0.34808
 C25 C -0.00098 0.47841 0.53473
 C26 C -0.00681 0.40433 0.51722
 C27 C -0.00448 0.34973 0.57111
 C28 C -0.00115 0.36746 0.64376
 C29 C 0.00178 0.43981 0.66294
 C30 C 0.00384 0.49492 0.60916
 H31 H 0.00058 0.68741 0.32196
 H32 H -0.01938 0.62727 0.54489
 H33 H 0.02183 0.46613 0.38795
 H34 H -0.01360 0.38728 0.46209
 H35 H -0.00086 0.32491 0.68540
 H36 H 0.00970 0.54995 0.62677
 C37 C 0.63725 -0.00119 0.63399
 C38 C 0.56492 -0.00491 0.65167
 C39 C 0.50959 -0.00703 0.59707
 C40 C 0.52557 -0.00103 0.52312
 C41 C 0.59965 0.00488 0.50674
 C42 C 0.65475 0.00260 0.56170
 C43 C 0.46587 -0.00098 0.46405
 C44 C 0.48076 -0.01186 0.39103
 C45 C 0.42574 -0.00971 0.33613
 C46 C 0.35407 -0.00097 0.35329
 C47 C 0.33742 0.00775 0.42502
 C48 C 0.39287 0.00988 0.47956
 H49 H 0.67986 -0.00124 0.67663
 H50 H 0.45469 -0.01383 0.61378
 H51 H 0.61591 0.01179 0.45179
 H52 H 0.53463 -0.02236 0.37529
 H53 H 0.31129 -0.00096 0.31087
 H54 H 0.37757 0.02035 0.53352
 O55 O 0.45657 -0.01765 -0.11636
 O56 O 0.42076 -0.02539 0.07699
 O57 O 0.42542 0.07727 -0.02283
 O58 O 0.45928 -0.11820 -0.01638
 O59 O 0.57520 -0.09344 0.01154
 O60 O 0.54154 0.10112 0.00467
 O61 O 0.53670 -0.00097 0.10485
 O62 O 0.57277 0.00638 -0.08911
 Cu63 Cu 0.42871 -0.02332 -0.02210
 Cu64 Cu 0.56819 0.00580 0.01095
 C65 C 0.52078 -0.00516 -0.13535
 C66 C 0.47236 -0.01431 0.12358
 C67 C 0.47792 0.12217 -0.01033
 C68 C 0.52347 -0.13857 -0.00236
 O69 O -0.07975 0.57425 0.99415
 O70 O 0.11595 0.53983 1.00291
 O71 O 0.01506 0.54536 0.89978
 O72 O 0.02369 0.57830 1.09462
 O73 O -0.00109 0.46236 1.11816
 O74 O -0.00919 0.42917 0.92230
 O75 O 0.09082 0.42388 1.02608
 O76 O -0.10390 0.45806 1.01680
 Cu77 Cu 0.02108 0.57110 0.99548
 Cu78 Cu -0.00840 0.43171 1.02301
 C79 C -0.12480 0.52191 1.00473
 C80 C 0.13623 0.47568 1.01588
 C81 C 0.00230 0.48169 0.87805
 C82 C 0.01259 0.52632 1.13926
 O83 O -0.02259 -0.07982 0.42420
 O84 O -0.01559 0.11589 0.45800
 O85 O 0.07793 0.02306 0.42002
 O86 O -0.11623 0.01510 0.45465
 O87 O -0.08956 -0.00813 0.57067
 O88 O 0.10522 -0.00057 0.53578
 O89 O 0.01177 0.09194 0.57374
 O90 O 0.00434 -0.10289 0.54014
 Cu91 Cu -0.02150 0.02081 0.42745
 Cu92 Cu 0.01083 -0.00735 0.56669
 C93 C -0.01047 -0.12437 0.47661
 C94 C -0.00179 0.13671 0.52209
 C95 C 0.12437 0.01239 0.47170
 C96 C -0.13565 0.00298 0.51858
 C97 C -0.26444 0.54748 1.00394
 C98 C -0.20078 0.53536 1.00407
 C99 C 0.27463 0.44611 1.01608
 C100 C 0.21174 0.46065 1.01712
 C101 C -0.01102 -0.26412 0.45163
 C102 C -0.01187 -0.20045 0.46353
 C103 C -0.00409 0.27501 0.55188
 C104 C -0.00289 0.21212 0.53718
 C105 C 0.54787 -0.00547 -0.27353
 C106 C 0.53507 -0.00515 -0.21052
 C107 C 0.44320 -0.01391 0.26154
 C108 C 0.45713 -0.01513 0.19875
 C109 C 0.55346 -0.27669 -0.00440
 C110 C 0.53861 -0.21389 -0.00342
 C111 C 0.45311 0.26178 -0.01048
 C112 C 0.46486 0.19817 -0.01153
 C113 C -0.27430 0.00316 0.54532
 C114 C -0.21111 0.00290 0.53253
 C115 C 0.26278 0.01197 0.44287
 C116 C 0.19983 0.01321 0.45680
 C117 C 0.01268 0.55556 1.27770
 C118 C 0.01369 0.54100 1.21482
 C119 C 0.00219 0.45671 0.73839
 C120 C 0.00197 0.46865 0.80203
   
