data_POSCAR
  _audit_creation_date              2014-09-24
  _audit_creation_method            'ToBaCCo'
  _symmetry_space_group_name_H-M    'P1'
  _symmetry_Int_Tables_number       1
  _symmetry_cell_setting            triclinic
  loop_
  _symmetry_equiv_pos_as_xyz
 x,y,z
_cell_length_a 26.6237
_cell_length_b 26.3711
_cell_length_c 65.3126
_cell_angle_alpha 88.257100
_cell_angle_beta 88.062200
_cell_angle_gamma 117.953800
loop_
  _atom_site_label
  _atom_site_type_symbol
  _atom_site_fract_x
  _atom_site_fract_y
  _atom_site_fract_z
C1 C -0.00050 0.05382 0.52465
 H2 H 0.03832 0.05016 0.52431
 C3 C -0.00706 0.09098 0.53787
 H4 H 0.02662 0.11463 0.54798
 C5 C -0.09172 0.02582 0.51200
 H6 H -0.12409 0.00111 0.50162
 C7 C -0.10018 0.06251 0.52510
 H8 H -0.13946 0.06535 0.52489
 N9 N -0.04242 0.02217 0.51208
 C10 C 0.00729 -0.11022 0.50022
 H11 H 0.01858 -0.10286 0.48394
 C12 C 0.01274 -0.15345 0.51129
 H13 H 0.02897 -0.17892 0.50352
 C14 C -0.02889 -0.08700 0.53013
 H15 H -0.04598 -0.06168 0.53738
 C16 C -0.02506 -0.13031 0.54167
 H17 H -0.03767 -0.13657 0.55786
 Zn18 Zn -0.02380 -0.02241 0.49428
 N19 N -0.01265 -0.07764 0.50981
 C20 C 0.09363 0.02996 0.47856
 N21 N 0.04292 0.03079 0.47900
 C22 C 0.03685 0.07275 0.46861
 C23 C 0.08240 0.11588 0.45695
 C24 C 0.14060 0.07233 0.46694
 C25 C -0.13567 -0.09881 0.48352
 C26 C -0.17733 -0.13271 0.47028
 C27 C -0.10654 -0.09261 0.44209
 C28 C -0.06673 -0.05898 0.45578
 N29 N -0.08172 -0.06263 0.47608
 H30 H 0.09794 -0.00315 0.48726
 H31 H -0.00397 0.07241 0.46934
 H32 H 0.07433 0.14709 0.44867
 H33 H 0.18061 0.07087 0.46673
 H34 H -0.14603 -0.10231 0.49983
 H35 H -0.21934 -0.16183 0.47684
 H36 H -0.09306 -0.08962 0.42605
 H37 H -0.02326 -0.03150 0.45021
 C38 C -0.00439 -0.16441 0.53219
 C39 C -0.05712 0.09632 0.53799
 C40 C -0.16272 -0.13037 0.44918
 C41 C 0.13573 0.11654 0.45599
 C42 C 1.11035 0.06041 0.14152
 H43 H 1.10842 0.10048 0.14046
 C44 C 1.15143 0.05404 0.12969
 H45 H 1.17999 0.08928 0.11928
 C46 C 1.07366 -0.03441 0.15608
 H47 H 1.04397 -0.06841 0.16664
 C48 C 1.11404 -0.04272 0.14446
 H49 H 1.11457 -0.08348 0.14597
 N50 N 1.07218 0.01639 0.15423
 C51 C 0.93681 0.06494 0.15987
 H52 H 0.93508 0.07025 0.17619
 C53 C 0.90030 0.07451 0.14731
 H54 H 0.87079 0.08775 0.15400
 C55 C 0.97618 0.03956 0.13135
 H56 H 1.00506 0.02495 0.12522
 C57 C 0.93973 0.04761 0.11832
 H58 H 0.94213 0.04058 0.10215
 Zn59 Zn 1.01971 0.03181 0.16960
 N60 N 0.97422 0.04842 0.15171
 C61 C 1.06264 0.14598 0.18390
 N62 N 1.06386 0.09505 0.18547
 C63 C 1.09975 0.08760 0.19804
 C64 C 1.13636 0.13221 0.20971
 C65 C 1.09815 0.19173 0.19548
 C66 C 0.93790 -0.08332 0.17830
 C67 C 0.89740 -0.13056 0.19028
 C68 C 0.92059 -0.07120 0.21953
 C69 C 0.96165 -0.02556 0.20709
 N70 N 0.96935 -0.03226 0.18687
 H71 H 1.03481 0.15164 0.17348
 H72 H 1.10004 0.04669 0.19889
 H73 H 1.16327 0.12354 0.21966
 H74 H 1.09645 0.23193 0.19397
 H75 H 0.94388 -0.08715 0.16207
 H76 H 0.87282 -0.17078 0.18308
 H77 H 0.91626 -0.06410 0.23555
 H78 H 0.98635 0.01567 0.21353
 C79 C 0.90092 0.06492 0.12635
 C80 C 1.15383 0.00195 0.13117
 C81 C 0.88708 -0.12471 0.21110
 C82 C 1.13637 0.18573 0.20846
 C83 C 0.05239 0.92750 0.86506
 H84 H 0.02065 0.88671 0.85998
 C85 C 0.09067 0.92869 0.87928
 H86 H 0.08759 0.88851 0.88527
 C87 C 0.09598 1.02923 0.86280
 H88 H 0.09807 1.06828 0.85618
 C89 C 0.13543 1.03245 0.87702
 H90 H 0.16675 1.07430 0.88139
 N91 N 0.05530 0.97721 0.85723
 C92 C -0.10459 0.96488 0.84264
 H93 H -0.09192 0.99044 0.82834
 C94 C -0.15381 0.95683 0.85369
 H95 H -0.17807 0.97591 0.84711
 C96 C -0.08749 0.90905 0.86772
 H97 H -0.06101 0.89152 0.87344
 C98 C -0.13702 0.89885 0.87910
 H99 H -0.14771 0.87313 0.89339
 Zn100 Zn 0.00250 0.96935 0.83730
 N101 N -0.07121 0.94323 0.85020
 C102 C -0.04519 0.86905 0.81410
 N103 N 0.00325 0.91605 0.81882
 C104 C 0.05507 0.92602 0.81088
 C105 C 0.05970 0.88838 0.79737
 C106 C -0.04259 0.82992 0.80065
 C107 C 0.01688 1.08199 0.83308
 C108 C 0.02140 1.13068 0.82232
 C109 C 0.04325 1.09599 0.79121
 C110 C 0.03686 1.04733 0.80249
 N111 N 0.02308 1.04075 0.82298
 H112 H -0.08586 0.86192 0.82076
 H113 H 0.09294 0.96353 0.81509
 H114 H 0.10161 0.89759 0.79123
 H115 H -0.08213 0.79339 0.79723
 H116 H 0.00519 1.07544 0.84934
 H117 H 0.01382 1.16172 0.83056
 H118 H 0.05170 1.09800 0.77484
 H119 H 0.04048 1.01373 0.79460
 C120 C -0.16957 0.92535 0.87278
 C121 C 0.13313 0.98149 0.88536
 C122 C 0.03394 1.13799 0.80102
 C123 C 0.01067 0.83936 0.79202
 O124 O 0.60172 0.07396 -0.02365
 O125 O 0.51982 0.08874 0.02024
 O126 O 0.61004 0.07447 0.01618
 O127 O 0.51308 0.09026 -0.01931
 O128 O 0.45811 -0.00383 -0.01712
 O129 O 0.55547 -0.01969 0.01815
 O130 O 0.46499 -0.00537 0.02244
 O131 O 0.54719 -0.02021 -0.02134
 Cu132 Cu 0.56685 0.09129 -0.00182
 Cu133 Cu 0.50094 -0.02174 0.00077
 C134 C 0.58838 0.02439 -0.02997
 C135 C 0.47810 0.04426 0.02867
 C136 C 0.59933 0.02474 0.02317
 C137 C 0.46892 0.04591 -0.02416
 O138 O -0.03697 0.39973 0.68812
 O139 O -0.07256 0.48204 0.64962
 O140 O -0.05060 0.39551 0.64863
 O141 O -0.06507 0.48189 0.68915
 O142 O 0.02613 0.54452 0.68434
 O143 O 0.04070 0.45754 0.64354
 O144 O 0.01894 0.54346 0.64465
 O145 O 0.05424 0.46175 0.68268
 Cu146 Cu -0.06542 0.43347 0.66939
 Cu147 Cu 0.04415 0.50812 0.66338
 C148 C 0.01499 0.41678 0.69178
 C149 C -0.03252 0.52681 0.64055
 C150 C -0.00273 0.41169 0.63915
 C151 C -0.02228 0.52800 0.69357
 O152 O 0.50445 0.60190 0.31218
 O153 O 0.39812 0.49524 0.34932
 O154 O 0.48631 0.59489 0.35169
 O155 O 0.41508 0.50049 0.30971
 O156 O 0.46885 0.45804 0.31363
 O157 O 0.54218 0.55440 0.35444
 O158 O 0.45270 0.45369 0.35331
 O159 O 0.55808 0.55889 0.31490
 Cu160 Cu 0.44550 0.55229 0.33026
 Cu161 Cu 0.51087 0.50198 0.33438
 C162 C 0.54958 0.59904 0.30736
 C163 C 0.40731 0.45664 0.35775
 C164 C 0.52688 0.59105 0.36002
 C165 C 0.42928 0.46249 0.30481
 C166 C -0.06551 0.13584 0.55164
 C167 C -0.01988 0.18525 0.55832
 C168 C -0.02697 0.22272 0.57306
 N169 N 0.01942 0.27069 0.57844
 N170 N 0.01440 0.30438 0.59225
 C171 C -0.03725 0.29127 0.60124
 N172 N -0.08372 0.24335 0.59584
 N173 N -0.07871 0.20965 0.58200
 C174 C -0.04323 0.32730 0.61690
 C175 C 0.00312 0.37709 0.62292
 H176 H 0.02306 0.19737 0.55259
 H177 H -0.08519 0.31382 0.62403
 H178 H -0.10865 0.12664 0.55606
 H179 H 0.04501 0.39104 0.61565
 C180 C 0.84362 0.82801 0.22252
 C181 C 0.82006 0.83176 0.24151
 C182 C 0.77286 0.78152 0.25240
 N183 N 0.73818 0.78933 0.26617
 N184 N 0.69522 0.74447 0.27623
 C185 C 0.68567 0.69010 0.27305
 N186 N 0.72078 0.68225 0.25944
 N187 N 0.76342 0.72714 0.24919
 C188 C 0.63923 0.64064 0.28459
 C189 C 0.59297 0.64453 0.29351
 H190 H 0.83234 0.87297 0.24794
 H191 H 0.64140 0.60070 0.28607
 H192 H 0.82438 0.78671 0.21558
 H193 H 0.58887 0.68305 0.29056
 C194 C 0.17338 -0.01931 -0.09967
 C195 C 0.22501 0.02802 -0.09572
 C196 C 0.26464 0.02265 -0.08168
 N197 N 0.31482 0.06921 -0.07825
 N198 N 0.35133 0.06449 -0.06584
 C199 C 0.33900 0.01298 -0.05644
 N200 N 0.28883 -0.03349 -0.05986
 N201 N 0.25235 -0.02876 -0.07224
 C202 C 0.37874 0.00659 -0.04282
 C203 C 0.43005 0.05290 -0.03807
 H204 H 0.23801 0.06945 -0.10344
 H205 H 0.36688 -0.03593 -0.03619
 H206 H 0.16284 -0.06041 -0.09205
 H207 H 0.44171 0.09564 -0.04441
 C208 C 0.00081 0.78959 0.54388
 C209 C -0.03693 0.75783 0.56032
 C210 C -0.02917 0.71531 0.57302
 N211 N -0.07077 0.68032 0.58708
 N212 N -0.06334 0.64330 0.59933
 C213 C -0.01384 0.64021 0.59803
 N214 N 0.02772 0.67518 0.58397
 N215 N 0.02017 0.71194 0.57165
 C216 C -0.00340 0.60216 0.61216
 C217 C -0.04596 0.56020 0.62529
 H218 H -0.07352 0.76410 0.56403
 H219 H 0.03963 0.60791 0.61235
 H220 H 0.03400 0.77916 0.53896
 H221 H -0.08974 0.55170 0.62439
 C222 C 0.17258 0.23299 0.21962
 C223 C 0.21703 0.23505 0.23104
 C224 C 0.25272 0.28443 0.24305
 N225 N 0.29804 0.28533 0.25222
 N226 N 0.33018 0.32864 0.26364
 C227 C 0.31820 0.37276 0.26638
 N228 N 0.27287 0.37197 0.25717
 N229 N 0.24074 0.32863 0.24569
 C230 C 0.35213 0.41949 0.27974
 C231 C 0.39923 0.42156 0.28918
 H232 H 0.22794 0.20047 0.23105
 H233 H 0.33849 0.45140 0.28285
 H234 H 0.16659 0.27093 0.21894
 H235 H 0.41300 0.38986 0.28584
 C236 C 0.78752 -0.07849 -0.11442
 C237 C 0.75839 -0.04625 -0.11689
 C238 C 0.71976 -0.04480 -0.10053
 N239 N 0.70888 0.00054 -0.10007
 N240 N 0.67650 0.00431 -0.08482
 C241 C 0.65339 -0.03741 -0.06952
 N242 N 0.66338 -0.08332 -0.07017
 N243 N 0.69625 -0.08681 -0.08533
 C244 C 0.61868 -0.03306 -0.05234
 C245 C 0.62132 0.01928 -0.04756
 H246 H 0.76844 -0.01576 -0.12974
 H247 H 0.59291 -0.07121 -0.04258
 H248 H 0.77774 -0.10487 -0.10030
 H249 H 0.65022 0.05816 -0.05644
 C250 C 0.19579 -0.00761 0.11865
 C251 C 0.24720 0.03726 0.11052
 C252 C 0.28649 0.02792 0.09668
 N253 N 0.33543 0.07361 0.08915
 N254 N 0.37061 0.06646 0.07598
 C255 C 0.35815 0.01330 0.06984
 N256 N 0.30936 -0.03248 0.07746
 N257 N 0.27413 -0.02533 0.09064
 C258 C 0.39540 0.00511 0.05461
 C259 C 0.44432 0.05124 0.04556
 H260 H 0.25938 0.08108 0.11422
 H261 H 0.38268 -0.03800 0.04981
 H262 H 0.18621 -0.05153 0.11603
 H263 H 0.45698 0.09437 0.05033
 C264 C 0.79943 0.83398 0.43506
 C265 C 0.74107 0.79821 0.43903
 C266 C 0.70696 0.75758 0.42387
 N267 N 0.64962 0.73671 0.42425
 N268 N 0.61873 0.69959 0.41058
 C269 C 0.64409 0.68153 0.39623
 N270 N 0.70126 0.70184 0.39605
 N271 N 0.73214 0.73934 0.40955
 C272 C 0.61113 0.64019 0.38114
 C273 C 0.55688 0.63013 0.37615
 H274 H 0.71932 0.80065 0.45295
 H275 H 0.63175 0.61952 0.37280
 H276 H 0.81680 0.83433 0.41976
 H277 H 0.53771 0.65397 0.38325
 C278 C 0.03254 0.18422 0.79018
 C279 C 0.05078 0.20018 0.76957
 C280 C 0.03765 0.24045 0.75778
 N281 N 0.06795 0.26637 0.73999
 N282 N 0.05440 0.30023 0.72847
 C283 C 0.00954 0.30881 0.73416
 N284 N -0.02104 0.28261 0.75189
 N285 N -0.00710 0.24920 0.76354
 C286 C -0.00711 0.34411 0.72101
 C287 C 0.03108 0.38386 0.70623
 H288 H 0.07578 0.18353 0.76165
 H289 H -0.04966 0.33933 0.72315
 H290 H 0.01572 0.20887 0.79822
 H291 H 0.07495 0.39195 0.70537
 C292 C 0.86089 0.07307 0.11322
 C293 C 0.83675 0.03859 0.09682
 C294 C 0.79576 0.04541 0.08400
 N295 N 0.76384 0.00315 0.07155
 N296 N 0.72675 0.00869 0.05971
 C297 C 0.72054 0.05694 0.05978
 N298 N 0.75281 0.09945 0.07211
 N299 N 0.78960 0.09371 0.08408
 C300 C 0.68050 0.06400 0.04649
 C301 C 0.63820 0.01773 0.03704
 H302 H 0.84604 0.00360 0.09382
 H303 H 0.68372 0.10636 0.04442
 H304 H 0.84689 0.10401 0.11748
 H305 H 0.63267 -0.02522 0.04016
 C306 C 0.18359 0.15894 0.44443
 C307 C 0.18531 0.20777 0.43464
 C308 C 0.23408 0.24977 0.42157
 N309 N 0.23170 0.29605 0.41306
 N310 N 0.27428 0.33420 0.40070
 C311 C 0.32101 0.32759 0.39633
 N312 N 0.32362 0.28136 0.40490
 N313 N 0.28088 0.24306 0.41731
 C314 C 0.36748 0.36920 0.38222
 C315 C 0.36382 0.41530 0.37267
 H316 H 0.15020 0.21722 0.43647
 H317 H 0.40425 0.36285 0.37899
 H318 H 0.22171 0.15392 0.44322
 H319 H 0.32668 0.42103 0.37591
 C320 C 0.01743 0.80255 0.77830
 C321 C -0.02648 0.75125 0.77188
 C322 C -0.01552 0.71572 0.75723
 N323 N -0.05902 0.66520 0.75202
 N324 N -0.04995 0.63276 0.73868
 C325 C 0.00297 0.64962 0.73002
 N326 N 0.04649 0.70014 0.73522
 N327 N 0.03744 0.73256 0.74859
 C328 C 0.01329 0.61460 0.71497
 C329 C -0.03028 0.56224 0.70945
 H330 H -0.07000 0.73566 0.77757
 H331 H 0.05573 0.63081 0.70789
 H332 H 0.06026 0.81476 0.77227
 H333 H -0.07259 0.54608 0.71665
   
