data_POSCAR
  _audit_creation_date              2014-09-24
  _audit_creation_method            'ToBaCCo'
  _symmetry_space_group_name_H-M    'P1'
  _symmetry_Int_Tables_number       1
  _symmetry_cell_setting            triclinic
  loop_
  _symmetry_equiv_pos_as_xyz
 x,y,z
_cell_length_a 39.2943
_cell_length_b 39.3725
_cell_length_c 44.8448
_cell_angle_alpha 91.233300
_cell_angle_beta 89.614900
_cell_angle_gamma 89.461700
loop_
  _atom_site_label
  _atom_site_type_symbol
  _atom_site_fract_x
  _atom_site_fract_y
  _atom_site_fract_z
Si1 Si 1.26858 0.27532 0.25106
 Si2 Si 0.74671 -0.26042 0.24831
 Si3 Si 0.77503 0.22814 -0.25898
 Si4 Si 1.24913 -0.24636 -0.24790
 Si5 Si 0.23064 0.24320 0.74812
 Si6 Si 0.75231 0.77830 0.75557
 Si7 Si 0.73405 0.26283 0.25304
 Si8 Si 0.25163 0.73005 0.24965
 O9 O 1.06423 0.02727 0.05530
 O10 O 0.95091 -0.01781 0.05713
 O11 O 0.98831 0.06248 0.05845
 O12 O 1.02553 -0.05380 0.05474
 O13 O 0.94189 0.03965 0.04463
 O14 O 1.07202 -0.03065 0.04113
 O15 O 0.96932 -0.06285 0.03629
 O16 O 1.04396 0.07211 0.03736
 C17 C 1.06024 0.05832 0.05753
 C18 C 0.95462 -0.04894 0.05799
 C19 C 0.95817 0.05611 0.06385
 C20 C 1.05598 -0.04828 0.05940
 O21 O 1.06532 -0.01293 -0.01827
 O22 O 0.94721 0.02146 -0.01519
 O23 O 1.01882 0.06356 -0.01765
 O24 O 0.99210 -0.05360 -0.02012
 O25 O 0.94474 -0.03552 -0.00255
 O26 O 1.06741 0.04463 -0.00419
 O27 O 1.04972 -0.05928 -0.00073
 O28 O 0.96195 0.06833 0.00341
 Co29 Co 1.06160 0.00679 0.01864
 Co30 Co 0.95171 0.00227 0.02092
 Co31 Co 1.00352 0.06041 0.02033
 Co32 Co 1.00882 -0.05113 0.01761
 O33 O 1.00645 0.00461 0.01948
 C34 C 1.06333 -0.04393 -0.02142
 C35 C 0.94872 0.05241 -0.01763
 C36 C 1.04942 0.05878 -0.02338
 C37 C 0.96130 -0.04836 -0.02389
 O38 O 1.03970 0.53085 0.54777
 O39 O 0.95312 0.46620 0.54523
 O40 O 0.96723 0.57186 0.52858
 O41 O 1.03178 0.43416 0.50858
 O42 O 0.93859 0.52938 0.54707
 O43 O 1.03809 0.47161 0.54269
 O44 O 0.97082 0.42980 0.51156
 O45 O 1.02987 0.57267 0.52053
 C46 C 1.03841 0.56184 0.54527
 C47 C 0.96099 0.43645 0.53798
 C48 C 0.94698 0.56000 0.54761
 C49 C 1.03842 0.44133 0.53520
 O50 O 1.06607 0.47462 0.48662
 O51 O 0.92122 0.52611 0.49095
 O52 O 1.02144 0.55404 0.46394
 O53 O 0.96607 0.46133 0.45726
 O54 O 0.92769 0.46361 0.49046
 O55 O 1.06393 0.53570 0.48979
 O56 O 1.02554 0.46880 0.45618
 O57 O 0.95777 0.56167 0.47165
 Co58 Co 1.04725 0.50323 0.51556
 Co59 Co 0.94110 0.49674 0.51713
 Co60 Co 0.99443 0.55895 0.49675
 Co61 Co 0.99832 0.45305 0.48508
 O62 O 0.99463 0.50357 0.50362
 C63 C 1.05648 0.46947 0.46042
 C64 C 0.92848 0.54972 0.47351
 C65 C 1.05244 0.54781 0.46591
 C66 C 0.93565 0.45941 0.46370
 O67 O 0.55345 0.01347 0.53124
 O68 O 0.43679 -0.02227 0.53294
 O69 O 0.47796 0.05386 0.53805
 O70 O 0.51234 -0.06226 0.52855
 O71 O 0.43038 0.03560 0.52223
 O72 O 0.55837 -0.04250 0.51148
 O73 O 0.45442 -0.06762 0.51202
 O74 O 0.53450 0.06137 0.51850
 C75 C 0.55063 0.04415 0.53671
 C76 C 0.44056 -0.05329 0.53395
 C77 C 0.44731 0.04909 0.54272
 C78 C 0.54309 -0.05716 0.53191
 O79 O 0.54987 -0.01848 0.45505
 O80 O 0.43421 0.02018 0.46200
 O81 O 0.50929 0.05900 0.46231
 O82 O 0.47502 -0.05745 0.45528
 O83 O 0.42837 -0.03843 0.47349
 O84 O 0.55686 0.03767 0.47456
 O85 O 0.53238 -0.06569 0.47028
 O86 O 0.45316 0.06460 0.48296
 Co87 Co 0.54889 -0.00239 0.49330
 Co88 Co 0.43830 -0.00130 0.49741
 Co89 Co 0.49377 0.05367 0.49997
 Co90 Co 0.49359 -0.05725 0.49200
 O91 O 0.49364 -0.00181 0.49565
 C92 C 0.54561 -0.04908 0.45002
 C93 C 0.43835 0.05122 0.46135
 C94 C 0.53974 0.05427 0.45652
 C95 C 0.44398 -0.05373 0.45278
 O96 O 0.57375 0.53224 0.00368
 O97 O 0.45956 0.48255 0.02022
 O98 O 0.46765 0.54276 0.01629
 O99 O 0.54052 0.42683 -0.00608
 O100 O 0.42254 0.52449 -0.00613
 O101 O 0.57423 0.46886 0.00784
 O102 O 0.47806 0.43384 0.00290
 O103 O 0.52632 0.54273 0.02531
 C104 C 0.55769 0.54240 0.02628
 C105 C 0.46413 0.45138 0.02369
 C106 C 0.43589 0.54625 0.01246
 C107 C 0.56451 0.43862 0.01000
 O108 O 0.57588 0.46243 -0.04900
 O109 O 0.45519 0.51367 -0.05546
 O110 O 0.53941 0.56481 -0.03119
 O111 O 0.47205 0.44874 -0.05743
 O112 O 0.43281 0.46292 -0.02827
 O113 O 0.56694 0.52433 -0.05455
 O114 O 0.52947 0.44066 -0.06454
 O115 O 0.47914 0.55979 -0.04165
 Co116 Co 0.56671 0.49705 -0.02284
 Co117 Co 0.45948 0.49920 -0.01753
 Co118 Co 0.50377 0.54760 -0.00915
 Co119 Co 0.50515 0.44212 -0.03022
 O120 O 0.51099 0.49466 -0.02117
 C121 C 0.56040 0.44470 -0.06756
 C122 C 0.46186 0.54377 -0.06048
 C123 C 0.55754 0.55454 -0.05295
 C124 C 0.44151 0.44680 -0.05107
 C125 C 1.19646 0.20589 0.19424
 C126 C 1.20198 0.23988 0.18651
 C127 C 1.22348 0.26054 0.20360
 C128 C 1.23969 0.24767 0.22872
 C129 C 1.23376 0.21404 0.23685
 C130 C 1.21253 0.19327 0.21968
 C131 C 1.17435 0.18366 0.17576
 N132 N 1.17349 0.14959 0.18002
 N133 N 1.15416 0.12954 0.16298
 C134 C 1.13473 0.14275 0.14104
 N135 N 1.13546 0.17683 0.13693
 N136 N 1.15487 0.19684 0.15388
 C137 C 1.11397 0.12055 0.12133
 C138 C 1.09102 0.13502 0.10123
 C139 C 1.07293 0.11458 0.08124
 C140 C 1.07741 0.07912 0.08070
 C141 C 1.09951 0.06440 0.10137
 C142 C 1.11758 0.08494 0.12155
 H143 H 1.19000 0.25046 0.16708
 H144 H 1.22754 0.28654 0.19713
 H145 H 1.24529 0.20368 0.25654
 H146 H 1.20859 0.16737 0.22645
 H147 H 1.08731 0.16228 0.10061
 H148 H 1.05589 0.12669 0.06575
 H149 H 1.10339 0.03713 0.10150
 H150 H 1.13498 0.07296 0.13681
 C151 C 1.16731 0.69650 0.69534
 C152 C 1.17111 0.73187 0.69371
 C153 C 1.19509 0.74866 0.71136
 C154 C 1.21610 0.73040 0.73055
 C155 C 1.21165 0.69534 0.73309
 C156 C 1.18747 0.67850 0.71561
 C157 C 1.14338 0.67833 0.67531
 N158 N 1.13711 0.64481 0.67887
 N159 N 1.11709 0.62799 0.65996
 C160 C 1.10248 0.64388 0.63662
 N161 N 1.10847 0.67750 0.63320
 N162 N 1.12844 0.69438 0.65219
 C163 C 1.08237 0.62427 0.61443
 C164 C 1.07157 0.63893 0.58769
 C165 C 1.05595 0.61906 0.56548
 C166 C 1.05090 0.58421 0.56964
 C167 C 1.06008 0.57005 0.59697
 C168 C 1.07561 0.58980 0.61906
 H169 H 1.15580 0.74658 0.67860
 H170 H 1.19779 0.77589 0.70952
 H171 H 1.22681 0.68086 0.74842
 H172 H 1.18503 0.65128 0.71762
 H173 H 1.07618 0.66547 0.58348
 H174 H 1.04891 0.63067 0.54471
 H175 H 1.05618 0.54334 0.60100
 H176 H 1.08317 0.57772 0.63947
 C177 C 0.69961 0.16484 0.68233
 C178 C 0.70260 0.20019 0.67957
 C179 C 0.72553 0.21840 0.69709
 C180 C 0.74599 0.20180 0.71776
 C181 C 0.74299 0.16662 0.72098
 C182 C 0.72012 0.14819 0.70322
 C183 C 0.67530 0.14586 0.66327
 N184 N 0.67534 0.11133 0.66198
 N185 N 0.65404 0.09464 0.64399
 C186 C 0.63174 0.11179 0.62666
 N187 N 0.63155 0.14626 0.62822
 N188 N 0.65284 0.16290 0.64610
 C189 C 0.60906 0.09367 0.60546
 C190 C 0.58559 0.11207 0.58845
 C191 C 0.56595 0.09573 0.56679
 C192 C 0.56926 0.06058 0.56156
 C193 C 0.59176 0.04186 0.57925
 C194 C 0.61149 0.05825 0.60100
 H195 H 0.68734 0.21390 0.66373
 H196 H 0.72727 0.24562 0.69450
 H197 H 0.75803 0.15336 0.73722
 H198 H 0.71830 0.12102 0.70601
 H199 H 0.58281 0.13932 0.59141
 H200 H 0.54863 0.11080 0.55369
 H201 H 0.59474 0.01469 0.57579
 H202 H 0.62920 0.04328 0.61377
 C203 C 0.68413 0.67114 0.18250
 C204 C 0.68192 0.70675 0.18171
 C205 C 0.70094 0.72682 0.20138
 C206 C 0.72206 0.71170 0.22247
 C207 C 0.72372 0.67617 0.22381
 C208 C 0.70528 0.65604 0.20370
 C209 C 0.66454 0.65000 0.16123
 N210 N 0.67562 0.61838 0.15290
 N211 N 0.65836 0.59976 0.13308
 C212 C 0.62913 0.61188 0.12108
 N213 N 0.61792 0.64336 0.12964
 N214 N 0.63533 0.66209 0.14922
 C215 C 0.61040 0.59189 0.09837
 C216 C 0.57554 0.59796 0.09397
 C217 C 0.55816 0.58080 0.07126
 C218 C 0.57545 0.55773 0.05208
 C219 C 0.61014 0.55104 0.05685
 C220 C 0.62739 0.56773 0.08001
 H221 H 0.66593 0.71910 0.16554
 H222 H 0.69916 0.75422 0.20011
 H223 H 0.73912 0.66377 0.24026
 H224 H 0.70716 0.62865 0.20501
 H225 H 0.56173 0.61624 0.10793
 H226 H 0.53141 0.58646 0.06807
 H227 H 0.62398 0.53323 0.04245
 H228 H 0.65428 0.56259 0.08289
 C229 C 0.82535 -0.19703 0.19464
 C230 C 0.82126 -0.19163 0.22554
 C231 C 0.79889 -0.21174 0.24180
 C232 C 0.77948 -0.23671 0.22726
 C233 C 0.78436 -0.24290 0.19665
 C234 C 0.80722 -0.22338 0.18051
 C235 C 0.84765 -0.17499 0.17688
 N236 N 0.86017 -0.18620 0.15014
 N237 N 0.87900 -0.16608 0.13337
 C238 C 0.88592 -0.13377 0.14246
 N239 N 0.87346 -0.12248 0.16927
 N240 N 0.85481 -0.14275 0.18620
 C241 C 0.90572 -0.11137 0.12283
 C242 C 0.90347 -0.07574 0.12568
 C243 C 0.91995 -0.05506 0.10507
 C244 C 0.93916 -0.06974 0.08151
 C245 C 0.94249 -0.10528 0.07955
 C246 C 0.92587 -0.12580 0.09983
 H247 H 0.83526 -0.17185 0.23710
 H248 H 0.79589 -0.20704 0.26556
 H249 H 0.77028 -0.26251 0.18499
 H250 H 0.80994 -0.22829 0.15676
 H251 H 0.88810 -0.06389 0.14320
 H252 H 0.91706 -0.02772 0.10717
 H253 H 0.95737 -0.11742 0.06184
 H254 H 0.92848 -0.15311 0.09720
 C255 C 0.85502 0.28052 0.67961
 C256 C 0.85401 0.28770 0.71051
 C257 C 0.83062 0.27143 0.72892
 C258 C 0.80750 0.24817 0.71674
 C259 C 0.80930 0.23998 0.68619
 C260 C 0.83277 0.25600 0.66780
 C261 C 0.87780 0.29961 0.65957
 N262 N 0.88014 0.29133 0.63004
 N263 N 0.89843 0.31007 0.61156
 C264 C 0.91518 0.33795 0.62182
 N265 N 0.91331 0.34588 0.65144
 N266 N 0.89509 0.32710 0.66992
 C267 C 0.93218 0.36109 0.60080
 C268 C 0.94218 0.39362 0.61059
 C269 C 0.95316 0.41750 0.59018
 C270 C 0.95484 0.40933 0.55957
 C271 C 0.94736 0.37610 0.54992
 C272 C 0.93589 0.35223 0.57035
 H273 H 0.87098 0.30619 0.72043
 H274 H 0.83013 0.27749 0.75259
 H275 H 0.79247 0.22140 0.67629
 H276 H 0.83296 0.24962 0.64420
 H277 H 0.93999 0.40128 0.63386
 H278 H 0.95927 0.44284 0.59826
 H279 H 0.94857 0.36913 0.52644
 H280 H 0.92875 0.32727 0.56211
 C281 C 0.31846 -0.18669 0.68665
 C282 C 0.31922 -0.17943 0.71747
 C283 C 0.29884 -0.19764 0.73710
 C284 C 0.27665 -0.22255 0.72612
 C285 C 0.27637 -0.23028 0.69549
 C286 C 0.29711 -0.21258 0.67594
 C287 C 0.33949 -0.16736 0.66557
 N288 N 0.34663 -0.18037 0.63794
 N289 N 0.36456 -0.16270 0.61847
 C290 C 0.37594 -0.13115 0.62572
 N291 N 0.36891 -0.11812 0.65341
 N292 N 0.35115 -0.13593 0.67299
 C293 C 0.39451 -0.11116 0.60339
 C294 C 0.39683 -0.07563 0.60642
 C295 C 0.41219 -0.05672 0.58404
 C296 C 0.42586 -0.07305 0.55842
 C297 C 0.42456 -0.10862 0.55592
 C298 C 0.40887 -0.12744 0.57805
 H299 H 0.33576 -0.15993 0.72641
 H300 H 0.30010 -0.19200 0.76080
 H301 H 0.26038 -0.25018 0.68653
 H302 H 0.29606 -0.21890 0.65234
 H303 H 0.38596 -0.06236 0.62568
 H304 H 0.41303 -0.02932 0.58661
 H305 H 0.43503 -0.12192 0.53650
 H306 H 0.40776 -0.15478 0.57517
 C307 C 0.33951 0.33202 0.18403
 C308 C 0.31879 0.35039 0.20446
 C309 C 0.29774 0.33353 0.22441
 C310 C 0.29714 0.29792 0.22467
 C311 C 0.31740 0.27948 0.20406
 C312 C 0.33854 0.29631 0.18406
 C313 C 0.36123 0.35006 0.16238
 N314 N 0.38148 0.33254 0.14266
 N315 N 0.40019 0.34877 0.12269
 C316 C 0.39951 0.38323 0.12158
 N317 N 0.37944 0.40076 0.14144
 N318 N 0.36076 0.38454 0.16142
 C319 C 0.41887 0.40122 0.09826
 C320 C 0.41575 0.43665 0.09554
 C321 C 0.43158 0.45321 0.07198
 C322 C 0.45090 0.43470 0.05062
 C323 C 0.45524 0.39954 0.05404
 C324 C 0.43941 0.38299 0.07757
 H325 H 0.31857 0.37790 0.20493
 H326 H 0.28173 0.34863 0.23929
 H327 H 0.31655 0.25207 0.20294
 H328 H 0.35383 0.28131 0.16841
 H329 H 0.40029 0.45155 0.11113
 H330 H 0.42778 0.48035 0.06999
 H331 H 0.47011 0.38460 0.03802
 H332 H 0.44262 0.35574 0.07908
 C333 C 0.83389 0.17014 -0.18489
 C334 C 0.81362 0.19877 -0.17773
 C335 C 0.79574 0.21557 -0.19985
 C336 C 0.79782 0.20426 -0.22966
 C337 C 0.81845 0.17605 -0.23710
 C338 C 0.83604 0.15881 -0.21483
 C339 C 0.85269 0.15264 -0.16105
 N340 N 0.86466 0.12037 -0.16511
 N341 N 0.88078 0.10461 -0.14320
 C342 C 0.88578 0.12056 -0.11641
 N343 N 0.87402 0.15289 -0.11249
 N344 N 0.85776 0.16854 -0.13429
 C345 C 0.90299 0.10305 -0.09167
 C346 C 0.91485 0.12176 -0.06684
 C347 C 0.93007 0.10534 -0.04297
 C348 C 0.93338 0.06980 -0.04323
 C349 C 0.92187 0.05105 -0.06815
 C350 C 0.90698 0.06752 -0.09220
 H351 H 0.81138 0.20820 -0.15493
 H352 H 0.78071 0.23772 -0.19346
 H353 H 0.82094 0.16737 -0.26010
 H354 H 0.85171 0.13700 -0.22109
 H355 H 0.91236 0.14917 -0.06581
 H356 H 0.93886 0.12045 -0.02414
 H357 H 0.92432 0.02362 -0.06903
 H358 H 0.89805 0.05236 -0.11095
 C359 C 0.79907 0.67543 0.32224
 C360 C 0.77650 0.70213 0.33002
 C361 C 0.76136 0.72162 0.30801
 C362 C 0.76850 0.71491 0.27778
 C363 C 0.79210 0.68928 0.26993
 C364 C 0.80691 0.66934 0.29193
 C365 C 0.81452 0.65452 0.34577
 N366 N 0.82928 0.62390 0.33909
 N367 N 0.84352 0.60548 0.36036
 C368 C 0.84364 0.61697 0.38915
 N369 N 0.82873 0.64747 0.39580
 N370 N 0.81433 0.66576 0.37460
 C371 C 0.86174 0.59799 0.41250
 C372 C 0.87298 0.61527 0.43831
 C373 C 0.89340 0.59875 0.45889
 C374 C 0.90228 0.56448 0.45450
 C375 C 0.88977 0.54651 0.42964
 C376 C 0.86980 0.56324 0.40861
 H377 H 0.77013 0.70772 0.35314
 H378 H 0.74406 0.74186 0.31485
 H379 H 0.79855 0.68423 0.24673
 H380 H 0.82462 0.64932 0.28523
 H381 H 0.86736 0.64202 0.44194
 H382 H 0.90324 0.61304 0.47782
 H383 H 0.89685 0.52014 0.42575
 H384 H 0.86134 0.54924 0.38903
 C385 C 0.32876 0.20367 0.31474
 C386 C 0.30955 0.23120 0.32639
 C387 C 0.29198 0.25278 0.30747
 C388 C 0.29388 0.24786 0.27643
 C389 C 0.31331 0.22053 0.26472
 C390 C 0.33042 0.19847 0.28369
 C391 C 0.34644 0.18045 0.33515
 N392 N 0.35528 0.14827 0.32636
 N393 N 0.37045 0.12732 0.34525
 C394 C 0.37758 0.13786 0.37356
 N395 N 0.36887 0.17006 0.38219
 N396 N 0.35353 0.19085 0.36344
 C397 C 0.39428 0.11504 0.39492
 C398 C 0.41031 0.12903 0.42015
 C399 C 0.42494 0.10812 0.44126
 C400 C 0.42362 0.07260 0.43793
 C401 C 0.40805 0.05839 0.41251
 C402 C 0.39366 0.07949 0.39105
 H403 H 0.30737 0.23563 0.35025
 H404 H 0.27646 0.27276 0.31744
 H405 H 0.31437 0.21540 0.24098
 H406 H 0.34491 0.17739 0.27406
 H407 H 0.41154 0.15629 0.42367
 H408 H 0.43693 0.11990 0.46049
 H409 H 0.40684 0.03108 0.40933
 H410 H 0.38142 0.06800 0.37181
 C411 C 0.32359 0.68311 -0.19599
 C412 C 0.30818 0.71148 -0.18170
 C413 C 0.28547 0.73216 -0.19704
 C414 C 0.27804 0.72510 -0.22703
 C415 C 0.29400 0.69733 -0.24162
 C416 C 0.31615 0.67610 -0.22609
 C417 C 0.34754 0.66139 -0.17944
 N418 N 0.35195 0.62795 -0.18681
 N419 N 0.37273 0.60836 -0.17104
 C420 C 0.39024 0.62158 -0.14753
 N421 N 0.38604 0.65507 -0.14045
 N422 N 0.36506 0.67453 -0.15598
 C423 C 0.41214 0.60001 -0.12881
 C424 C 0.43725 0.61512 -0.11094
 C425 C 0.45497 0.59610 -0.09016
 C426 C 0.44776 0.56155 -0.08645
 C427 C 0.42416 0.54581 -0.10557
 C428 C 0.40659 0.56489 -0.12671
 H429 H 0.31346 0.71754 -0.15853
 H430 H 0.27422 0.75394 -0.18548
 H431 H 0.28921 0.69200 -0.26500
 H432 H 0.32797 0.65465 -0.23774
 H433 H 0.44252 0.64199 -0.11238
 H434 H 0.47327 0.60893 -0.07601
 H435 H 0.41817 0.51919 -0.10328
 H436 H 0.38744 0.55254 -0.14026
 C437 C 1.18577 -0.17815 -0.18079
 C438 C 1.20566 -0.16291 -0.20294
 C439 C 1.22471 -0.18294 -0.22326
 C440 C 1.22446 -0.21843 -0.22153
 C441 C 1.20427 -0.23370 -0.19986
 C442 C 1.18519 -0.21382 -0.17964
 C443 C 1.16591 -0.15729 -0.15877
 N444 N 1.14556 -0.17244 -0.13853
 N445 N 1.12827 -0.15406 -0.11822
 C446 C 1.13053 -0.11967 -0.11719
 N447 N 1.15075 -0.10440 -0.13754
 N448 N 1.16806 -0.12284 -0.15793
 C449 C 1.11205 -0.09960 -0.09373
 C450 C 1.11532 -0.06407 -0.09132
 C451 C 1.09902 -0.04570 -0.06815
 C452 C 1.07926 -0.06255 -0.04693
 C453 C 1.07539 -0.09787 -0.04976
 C454 C 1.09155 -0.11616 -0.07285
 H455 H 1.20644 -0.13555 -0.20464
 H456 H 1.23931 -0.17058 -0.24034
 H457 H 1.20341 -0.26111 -0.19845
 H458 H 1.17013 -0.22650 -0.16300
 H459 H 1.13082 -0.05050 -0.10707
 H460 H 1.10232 -0.01844 -0.06655
 H461 H 1.06011 -0.11153 -0.03389
 H462 H 1.08826 -0.14342 -0.07404
 C463 C 1.20429 0.35272 0.30980
 C464 C 1.18811 0.32983 0.29011
 C465 C 1.20719 0.30700 0.27232
 C466 C 1.24281 0.30684 0.27361
 C467 C 1.25907 0.33020 0.29267
 C468 C 1.24004 0.35280 0.31072
 C469 C 1.18392 0.37542 0.32997
 N470 N 1.19847 0.39151 0.35371
 N471 N 1.17971 0.41037 0.37276
 C472 C 1.14565 0.41409 0.36875
 N473 N 1.13124 0.39837 0.34478
 N474 N 1.14994 0.37943 0.32583
 C475 C 1.12410 0.43276 0.39105
 C476 C 1.08947 0.43869 0.38525
 C477 C 1.06795 0.45225 0.40742
 C478 C 1.08047 0.46011 0.43599
 C479 C 1.11545 0.45615 0.44136
 C480 C 1.13709 0.44263 0.41907
 H481 H 1.16062 0.32899 0.28890
 H482 H 1.19393 0.28926 0.25790
 H483 H 1.28658 0.33053 0.29395
 H484 H 1.25333 0.37018 0.32550
 H485 H 1.07867 0.43185 0.36383
 H486 H 1.04117 0.45535 0.40249
 H487 H 1.12583 0.46223 0.46312
 H488 H 1.16368 0.43862 0.42422
 C489 C 0.66786 -0.18729 0.29575
 C490 C 0.66437 -0.22278 0.29680
 C491 C 0.68753 -0.24430 0.28183
 C492 C 0.71466 -0.23083 0.26567
 C493 C 0.71718 -0.19550 0.26316
 C494 C 0.69413 -0.17390 0.27825
 C495 C 0.64543 -0.16462 0.31413
 N496 N 0.65199 -0.13089 0.31719
 N497 N 0.63348 -0.11113 0.33569
 C498 C 0.60758 -0.12427 0.35187
 N499 N 0.60068 -0.15786 0.34838
 N500 N 0.61919 -0.17759 0.32994
 C501 C 0.58899 -0.10332 0.37464
 C502 C 0.56401 -0.11822 0.39257
 C503 C 0.54925 -0.10006 0.41640
 C504 C 0.55890 -0.06647 0.42282
 C505 C 0.58249 -0.05079 0.40404
 C506 C 0.59752 -0.06912 0.38020
 H507 H 0.64431 -0.23402 0.30987
 H508 H 0.68479 -0.27154 0.28355
 H509 H 0.73707 -0.18437 0.24995
 H510 H 0.69724 -0.14671 0.27656
 H511 H 0.55653 -0.14436 0.38883
 H512 H 0.53075 -0.11263 0.43026
 H513 H 0.59024 -0.02484 0.40843
 H514 H 0.61653 -0.05680 0.36672
 C515 C 0.70118 0.30477 -0.20946
 C516 C 0.72889 0.31716 -0.22589
 C517 C 0.75084 0.29471 -0.24147
 C518 C 0.74579 0.25957 -0.24028
 C519 C 0.71798 0.24722 -0.22425
 C520 C 0.69578 0.26955 -0.20914
 C521 C 0.67852 0.32806 -0.19195
 N522 N 0.64771 0.31739 -0.18215
 N523 N 0.62800 0.33755 -0.16503
 C524 C 0.63830 0.36920 -0.15685
 N525 N 0.66899 0.38002 -0.16687
 N526 N 0.68864 0.35991 -0.18415
 C527 C 0.61736 0.39054 -0.13602
 C528 C 0.63172 0.41838 -0.12070
 C529 C 0.61292 0.43651 -0.09896
 C530 C 0.57924 0.42744 -0.09231
 C531 C 0.56440 0.40054 -0.10851
 C532 C 0.58332 0.38216 -0.13000
 H533 H 0.73358 0.34418 -0.22672
 H534 H 0.77178 0.30490 -0.25407
 H535 H 0.71359 0.22015 -0.22316
 H536 H 0.67482 0.25911 -0.19661
 H537 H 0.65785 0.42553 -0.12480
 H538 H 0.62496 0.45730 -0.08700
 H539 H 0.53849 0.39300 -0.10392
 H540 H 0.57141 0.36102 -0.14156
 C541 C 1.16827 0.17269 -0.18975
 C542 C 1.20406 0.17235 -0.18973
 C543 C 1.22227 0.19310 -0.20882
 C544 C 1.20514 0.21453 -0.22833
 C545 C 1.16951 0.21415 -0.22929
 C546 C 1.15117 0.19353 -0.21001
 C547 C 1.14916 0.15243 -0.16790
 N548 N 1.11497 0.15637 -0.16434
 N549 N 1.09829 0.13957 -0.14338
 C550 C 1.11512 0.11809 -0.12516
 N551 N 1.14920 0.11385 -0.12903
 N552 N 1.16585 0.13066 -0.14991
 C553 C 1.09727 0.10102 -0.10050
 C554 C 1.11541 0.07937 -0.08166
 C555 C 1.09958 0.06524 -0.05701
 C556 C 1.06520 0.07235 -0.05056
 C557 C 1.04662 0.09305 -0.06987
 C558 C 1.06253 0.10730 -0.09460
 H559 H 1.21811 0.15660 -0.17452
 H560 H 1.24981 0.19287 -0.20796
 H561 H 1.15571 0.23000 -0.24453
 H562 H 1.12364 0.19419 -0.21078
 H563 H 1.14211 0.07376 -0.08560
 H564 H 1.11445 0.04906 -0.04272
 H565 H 1.02001 0.09878 -0.06553
 H566 H 1.04778 0.12377 -0.10870
 C567 C 1.19126 0.66142 0.31199
 C568 C 1.22463 0.65273 0.30314
 C569 C 1.24249 0.67320 0.28337
 C570 C 1.22738 0.70279 0.27222
 C571 C 1.19430 0.71180 0.28159
 C572 C 1.17628 0.69108 0.30088
 C573 C 1.17206 0.64030 0.33311
 N574 N 1.13763 0.64269 0.33451
 N575 N 1.12007 0.62477 0.35402
 C576 C 1.13610 0.60376 0.37314
 N577 N 1.17060 0.60122 0.37175
 N578 N 1.18823 0.61903 0.35201
 C579 C 1.11594 0.58544 0.39566
 C580 C 1.13100 0.57202 0.42133
 C581 C 1.11068 0.55845 0.44398
 C582 C 1.07506 0.55809 0.44120
 C583 C 1.06043 0.56970 0.41474
 C584 C 1.08054 0.58323 0.39237
 H585 H 1.23689 0.63011 0.31144
 H586 H 1.26832 0.66607 0.27716
 H587 H 1.18246 0.73528 0.27483
 H588 H 1.15086 0.69886 0.30774
 H589 H 1.15826 0.57321 0.42444
 H590 H 1.12267 0.54938 0.46400
 H591 H 1.03313 0.56926 0.41158
 H592 H 1.06811 0.59276 0.37271
 C593 C 0.66745 0.19117 0.31042
 C594 C 0.70319 0.18892 0.31067
 C595 C 0.72272 0.21064 0.29356
 C596 C 0.70699 0.23479 0.27569
 C597 C 0.67141 0.23725 0.27523
 C598 C 0.65174 0.21562 0.29254
 C599 C 0.64699 0.16846 0.32921
 N600 N 0.61282 0.17302 0.33244
 N601 N 0.59485 0.15322 0.35029
 C602 C 0.61029 0.12799 0.36555
 N603 N 0.64436 0.12327 0.36203
 N604 N 0.66230 0.14306 0.34427
 C605 C 0.59100 0.10714 0.38682
 C606 C 0.60775 0.08149 0.40257
 C607 C 0.59068 0.06372 0.42457
 C608 C 0.55645 0.07109 0.43132
 C609 C 0.53915 0.09566 0.41478
 C610 C 0.55630 0.11359 0.39274
 H611 H 0.71618 0.17056 0.32429
 H612 H 0.75021 0.20854 0.29426
 H613 H 0.65879 0.25598 0.26177
 H614 H 0.62429 0.21806 0.29189
 H615 H 0.63436 0.07560 0.39844
 H616 H 0.60456 0.04462 0.43672
 H617 H 0.51267 0.10171 0.41944
 H618 H 0.54259 0.13305 0.38091
 C619 C 0.68320 0.70845 -0.18692
 C620 C 0.67918 0.74394 -0.18554
 C621 C 0.69998 0.76459 -0.20266
 C622 C 0.72522 0.75023 -0.22140
 C623 C 0.72947 0.71488 -0.22274
 C624 C 0.70859 0.69415 -0.20573
 C625 C 0.66136 0.68638 -0.16870
 N626 N 0.66305 0.65211 -0.17231
 N627 N 0.64408 0.63210 -0.15557
 C628 C 0.62258 0.64543 -0.13447
 N629 N 0.62072 0.67975 -0.13092
 N630 N 0.63967 0.69982 -0.14774
 C631 C 0.60299 0.62272 -0.11495
 C632 C 0.58328 0.63571 -0.09090
 C633 C 0.56738 0.61368 -0.07113
 C634 C 0.57103 0.57834 -0.07507
 C635 C 0.58950 0.56550 -0.09983
 C636 C 0.60522 0.58737 -0.11951
 H637 H 0.65989 0.75581 -0.17134
 H638 H 0.69632 0.79189 -0.20137
 H639 H 0.74890 0.70312 -0.23680
 H640 H 0.71252 0.66691 -0.20722
 H641 H 0.58084 0.66284 -0.08688
 H642 H 0.55313 0.62427 -0.05232
 H643 H 0.59250 0.53837 -0.10372
 H644 H 0.61980 0.57642 -0.13796
 C645 C 0.82108 -0.15579 -0.18149
 C646 C 0.79514 -0.17585 -0.16970
 C647 C 0.77464 -0.19532 -0.18847
 C648 C 0.77894 -0.19442 -0.21950
 C649 C 0.80458 -0.17398 -0.23138
 C650 C 0.82581 -0.15511 -0.21250
 C651 C 0.84298 -0.13614 -0.16110
 N652 N 0.87625 -0.13050 -0.16770
 N653 N 0.89618 -0.11429 -0.14819
 C654 C 0.88341 -0.10284 -0.12156
 N655 N 0.85010 -0.10821 -0.11524
 N656 N 0.83034 -0.12464 -0.13453
 C657 C 0.90502 -0.08593 -0.09905
 C658 C 0.88963 -0.06475 -0.07725
 C659 C 0.90846 -0.05179 -0.05359
 C660 C 0.94319 -0.05986 -0.05094
 C661 C 0.95920 -0.07968 -0.07349
 C662 C 0.94020 -0.09257 -0.09750
 H663 H 0.79126 -0.17716 -0.14581
 H664 H 0.75583 -0.21130 -0.17838
 H665 H 0.80911 -0.17349 -0.25516
 H666 H 0.84573 -0.13989 -0.22210
 H667 H 0.86270 -0.05871 -0.07812
 H668 H 0.89548 -0.03605 -0.03690
 H669 H 0.98602 -0.08602 -0.07208
 H670 H 0.95266 -0.10884 -0.11410
 C671 C 0.78770 0.34094 0.31721
 C672 C 0.76334 0.31838 0.32820
 C673 C 0.74710 0.29543 0.30899
 C674 C 0.75478 0.29458 0.27841
 C675 C 0.77816 0.31783 0.26717
 C676 C 0.79467 0.34065 0.28639
 C677 C 0.80660 0.36358 0.33796
 N678 N 0.83424 0.38088 0.32846
 N679 N 0.85251 0.39947 0.34754
 C680 C 0.84385 0.40170 0.37691
 N681 N 0.81590 0.38483 0.38631
 N682 N 0.79769 0.36616 0.36725
 C683 C 0.86578 0.42001 0.39857
 C684 C 0.85567 0.42424 0.42859
 C685 C 0.87788 0.43831 0.44963
 C686 C 0.91073 0.44815 0.44111
 C687 C 0.92031 0.44530 0.41092
 C688 C 0.89804 0.43150 0.38986
 H689 H 0.75724 0.31795 0.35176
 H690 H 0.72873 0.27827 0.31829
 H691 H 0.78393 0.31809 0.24353
 H692 H 0.81305 0.35788 0.27712
 H693 H 0.83089 0.41594 0.43601
 H694 H 0.86975 0.44042 0.47272
 H695 H 0.94537 0.45301 0.40366
 H696 H 0.90662 0.42880 0.36693
 C697 C 0.31873 -0.20402 0.31092
 C698 C 0.32759 -0.20904 0.28073
 C699 C 0.30797 -0.23005 0.26220
 C700 C 0.27953 -0.24704 0.27361
 C701 C 0.27131 -0.24263 0.30400
 C702 C 0.29062 -0.22138 0.32238
 C703 C 0.33759 -0.17986 0.33028
 N704 N 0.32325 -0.16764 0.35601
 N705 N 0.33976 -0.14571 0.37349
 C706 C 0.37141 -0.13508 0.36608
 N707 N 0.38586 -0.14730 0.34034
 N708 N 0.36921 -0.16912 0.32271
 C709 C 0.38993 -0.11156 0.38630
 C710 C 0.42546 -0.10828 0.38423
 C711 C 0.44305 -0.08849 0.40524
 C712 C 0.42539 -0.07131 0.42849
 C713 C 0.38975 -0.07327 0.42965
 C714 C 0.37225 -0.09331 0.40890
 H715 H 0.34893 -0.19579 0.27117
 H716 H 0.31439 -0.23200 0.23870
 H717 H 0.24932 -0.25462 0.31368
 H718 H 0.28318 -0.21818 0.34557
 H719 H 0.43981 -0.12196 0.36705
 H720 H 0.47054 -0.08733 0.40373
 H721 H 0.37542 -0.06025 0.44723
 H722 H 0.34484 -0.09497 0.41091
 C723 C 0.28773 0.32062 -0.18968
 C724 C 0.29309 0.32047 -0.22076
 C725 C 0.27511 0.29817 -0.23945
 C726 C 0.25214 0.27512 -0.22735
 C727 C 0.24571 0.27619 -0.19654
 C728 C 0.26328 0.29872 -0.17790
 C729 C 0.30849 0.34230 -0.16952
 N730 N 0.30000 0.34655 -0.14023
 N731 N 0.31971 0.36444 -0.12175
 C732 C 0.34888 0.37867 -0.13177
 N733 N 0.35719 0.37466 -0.16111
 N734 N 0.33740 0.35692 -0.17960
 C735 C 0.37196 0.39693 -0.11102
 C736 C 0.40569 0.40324 -0.11966
 C737 C 0.42808 0.41924 -0.10001
 C738 C 0.41722 0.42979 -0.07134
 C739 C 0.38341 0.42397 -0.06268
 C740 C 0.36102 0.40745 -0.08229
 H741 H 0.31142 0.33733 -0.23063
 H742 H 0.27983 0.29827 -0.26327
 H743 H 0.22738 0.25945 -0.18663
 H744 H 0.25830 0.29832 -0.15413
 H745 H 0.41505 0.39532 -0.14151
 H746 H 0.45399 0.42345 -0.10735
 H747 H 0.37443 0.43185 -0.04070
 H748 H 0.33515 0.40300 -0.07498
 C749 C 1.18519 -0.19395 0.19841
 C750 C 1.21556 -0.18343 0.21189
 C751 C 1.23533 -0.20621 0.22796
 C752 C 1.22545 -0.24025 0.23074
 C753 C 1.19482 -0.25062 0.21748
 C754 C 1.17484 -0.22773 0.20166
 C755 C 1.16488 -0.17002 0.18053
 N756 N 1.13282 -0.17790 0.17183
 N757 N 1.11498 -0.15685 0.15497
 C758 C 1.12846 -0.12707 0.14600
 N759 N 1.16046 -0.11911 0.15481
 N760 N 1.17825 -0.14010 0.17179
 C761 C 1.10923 -0.10465 0.12588
 C762 C 1.12568 -0.07851 0.11068
 C763 C 1.10814 -0.05940 0.08968
 C764 C 1.07374 -0.06586 0.08368
 C765 C 1.05692 -0.09095 0.09985
 C766 C 1.07450 -0.11023 0.12061
 H767 H 1.22416 -0.15751 0.21001
 H768 H 1.25845 -0.19677 0.23778
 H769 H 1.18593 -0.27640 0.21950
 H770 H 1.15152 -0.23669 0.19161
 H771 H 1.15240 -0.07349 0.11428
 H772 H 1.12171 -0.04010 0.07766
 H773 H 1.03036 -0.09646 0.09581
 H774 H 1.06097 -0.12992 0.13214
 C775 C 1.16053 0.29960 0.68068
 C776 C 1.18577 0.27663 0.67031
 C777 C 1.20709 0.26020 0.69034
 C778 C 1.20338 0.26608 0.72114
 C779 C 1.17869 0.28938 0.73160
 C780 C 1.15738 0.30597 0.71159
 C781 C 1.13811 0.31723 0.65933
 N782 N 1.11626 0.34214 0.66889
 N783 N 1.09705 0.35883 0.64961
 C784 C 1.09870 0.35126 0.61992
 N785 N 1.12024 0.32606 0.61038
 N786 N 1.13951 0.30940 0.62967
 C787 C 1.07934 0.37178 0.59831
 C788 C 1.07932 0.36306 0.56768
 C789 C 1.06431 0.38473 0.54705
 C790 C 1.04951 0.41566 0.55668
 C791 C 1.04794 0.42348 0.58736
 C792 C 1.06249 0.40172 0.60795
 H793 H 1.18922 0.27140 0.64668
 H794 H 1.22636 0.24291 0.68155
 H795 H 1.17566 0.29450 0.75531
 H796 H 1.13838 0.32365 0.72037
 H797 H 1.09179 0.34000 0.55954
 H798 H 1.06573 0.37809 0.52350
 H799 H 1.03622 0.44698 0.59541
 H800 H 1.06170 0.40915 0.63133
 C801 C 0.68209 -0.15957 0.69226
 C802 C 0.66839 -0.18462 0.71052
 C803 C 0.68924 -0.20266 0.72975
 C804 C 0.72415 -0.19578 0.73150
 C805 C 0.73793 -0.17080 0.71334
 C806 C 0.71710 -0.15272 0.69401
 C807 C 0.66026 -0.14184 0.67062
 N808 N 0.67369 -0.11879 0.65192
 N809 N 0.65443 -0.10400 0.63154
 C810 C 0.62092 -0.11160 0.62897
 N811 N 0.60737 -0.13441 0.64787
 N812 N 0.62665 -0.14921 0.66827
 C813 C 0.60013 -0.09643 0.60517
 C814 C 0.56538 -0.10414 0.60216
 C815 C 0.54648 -0.09108 0.57859
 C816 C 0.56208 -0.07027 0.55756
 C817 C 0.59656 -0.06207 0.56094
 C818 C 0.61532 -0.07491 0.58448
 H819 H 0.64164 -0.19084 0.70955
 H820 H 0.67792 -0.22261 0.74253
 H821 H 0.76485 -0.16561 0.71356
 H822 H 0.72859 -0.13379 0.68007
 H823 H 0.55286 -0.12056 0.61780
 H824 H 0.51987 -0.09764 0.57658
 H825 H 0.60921 -0.04584 0.54522
 H826 H 0.64194 -0.06831 0.58612
 C827 C 0.67174 0.31607 0.17827
 C828 C 0.67181 0.28053 0.18047
 C829 C 0.68988 0.26478 0.20318
 C830 C 0.70813 0.28419 0.22411
 C831 C 0.70702 0.31967 0.22265
 C832 C 0.68918 0.33546 0.19989
 C833 C 0.65458 0.33296 0.15320
 N834 N 0.65999 0.36635 0.14831
 N835 N 0.64569 0.38160 0.12533
 C836 C 0.62527 0.36421 0.10620
 N837 N 0.61954 0.33081 0.11115
 N838 N 0.63402 0.31547 0.13415
 C839 C 0.61019 0.38168 0.08043
 C840 C 0.58315 0.36759 0.06399
 C841 C 0.56849 0.38552 0.04050
 C842 C 0.58081 0.41769 0.03304
 C843 C 0.60842 0.43111 0.04905
 C844 C 0.62279 0.41344 0.07240
 H845 H 0.65844 0.26483 0.16435
 H846 H 0.68951 0.23741 0.20425
 H847 H 0.72007 0.33541 0.23886
 H848 H 0.68926 0.36293 0.19916
 H849 H 0.57288 0.34312 0.06968
 H850 H 0.54718 0.37458 0.02864
 H851 H 0.61877 0.45571 0.04388
 H852 H 0.64380 0.42493 0.08429
 C853 C 0.81250 0.18943 0.20501
 C854 C 0.82399 0.21864 0.22030
 C855 C 0.80089 0.24063 0.23494
 C856 C 0.76587 0.23411 0.23414
 C857 C 0.75449 0.20455 0.21957
 C858 C 0.77748 0.18248 0.20512
 C859 C 0.83653 0.16666 0.18841
 N860 N 0.82537 0.13741 0.17542
 N861 N 0.84629 0.11773 0.15907
 C862 C 0.87933 0.12639 0.15498
 N863 N 0.89068 0.15544 0.16830
 N864 N 0.86971 0.17514 0.18472
 C865 C 0.90153 0.10588 0.13454
 C866 C 0.93515 0.11573 0.12838
 C867 C 0.95442 0.09853 0.10634
 C868 C 0.94030 0.07136 0.08998
 C869 C 0.90746 0.06040 0.09726
 C870 C 0.88833 0.07738 0.11932
 H871 H 0.85084 0.22456 0.22094
 H872 H 0.81066 0.26257 0.24675
 H873 H 0.72781 0.19810 0.21966
 H874 H 0.76768 0.16008 0.19384
 H875 H 0.94619 0.13741 0.13985
 H876 H 0.97977 0.10741 0.10124
 H877 H 0.89610 0.03924 0.08527
 H878 H 0.86271 0.06882 0.12367
 C879 C 0.81956 0.71170 0.69036
 C880 C 0.83494 0.73072 0.71335
 C881 C 0.81506 0.75037 0.73325
 C882 C 0.77960 0.75192 0.73002
 C883 C 0.76422 0.73313 0.70703
 C884 C 0.78397 0.71301 0.68747
 C885 C 0.84022 0.68984 0.66992
 N886 N 0.82574 0.66313 0.65544
 N887 N 0.84414 0.64296 0.63731
 C888 C 0.87775 0.64875 0.63271
 N889 N 0.89229 0.67564 0.64699
 N890 N 0.87390 0.69571 0.66538
 C891 C 0.89766 0.62583 0.61258
 C892 C 0.92716 0.63680 0.59783
 C893 C 0.94395 0.61531 0.57701
 C894 C 0.93177 0.58239 0.57112
 C895 C 0.90312 0.57118 0.58690
 C896 C 0.88618 0.59267 0.60717
 H897 H 0.86226 0.72982 0.71635
 H898 H 0.82752 0.76391 0.75124
 H899 H 0.73686 0.73388 0.70427
 H900 H 0.77138 0.69867 0.66995
 H901 H 0.93658 0.66227 0.60166
 H902 H 0.96609 0.62455 0.56529
 H903 H 0.89301 0.54600 0.58294
 H904 H 0.86379 0.58334 0.61845
 C905 C 0.30660 0.17143 0.69547
 C906 C 0.31914 0.19845 0.71311
 C907 C 0.29679 0.21979 0.72937
 C908 C 0.26156 0.21474 0.72792
 C909 C 0.24907 0.18726 0.71110
 C910 C 0.27130 0.16583 0.69502
 C911 C 0.32981 0.14988 0.67678
 N912 N 0.31760 0.12271 0.66124
 N913 N 0.33775 0.10445 0.64298
 C914 C 0.37103 0.11249 0.63941
 N915 N 0.38344 0.13941 0.65525
 N916 N 0.36325 0.15770 0.67359
 C917 C 0.39241 0.09372 0.61707
 C918 C 0.42636 0.10301 0.61157
 C919 C 0.44500 0.08750 0.58818
 C920 C 0.42990 0.06264 0.56979
 C921 C 0.39662 0.05226 0.57619
 C922 C 0.37814 0.06752 0.59958
 H923 H 0.34619 0.20328 0.71421
 H924 H 0.30721 0.24020 0.74281
 H925 H 0.22197 0.18265 0.71005
 H926 H 0.26069 0.14522 0.68181
 H927 H 0.43819 0.12297 0.62473
 H928 H 0.47069 0.09589 0.58376
 H929 H 0.38448 0.03285 0.56260
 H930 H 0.35222 0.05944 0.60327
 C931 C 0.30751 0.66647 0.17676
 C932 C 0.32543 0.67951 0.20146
 C933 C 0.30846 0.69787 0.22421
 C934 C 0.27332 0.70430 0.22245
 C935 C 0.25520 0.68968 0.19859
 C936 C 0.27207 0.67118 0.17594
 C937 C 0.32573 0.64865 0.15180
 N938 N 0.30839 0.63369 0.12897
 N939 N 0.32490 0.61846 0.10623
 C940 C 0.35946 0.61773 0.10528
 N941 N 0.37672 0.63263 0.12814
 N942 N 0.36025 0.64775 0.15088
 C943 C 0.37822 0.60090 0.08011
 C944 C 0.41377 0.60363 0.07828
 C945 C 0.43203 0.58676 0.05563
 C946 C 0.41532 0.56657 0.03419
 C947 C 0.37968 0.56445 0.03535
 C948 C 0.36126 0.58153 0.05811
 H949 H 0.35266 0.67568 0.20321
 H950 H 0.32310 0.70685 0.24306
 H951 H 0.22798 0.69266 0.19695
 H952 H 0.25733 0.66103 0.15754
 H953 H 0.42772 0.61849 0.09462
 H954 H 0.45948 0.58896 0.05537
 H955 H 0.36615 0.54898 0.01916
 H956 H 0.33386 0.57897 0.05883
   
