data_POSCAR
  _audit_creation_date              2014-09-24
  _audit_creation_method            'ToBaCCo'
  _symmetry_space_group_name_H-M    'P1'
  _symmetry_Int_Tables_number       1
  _symmetry_cell_setting            triclinic
  loop_
  _symmetry_equiv_pos_as_xyz
 x,y,z
_cell_length_a 36.7842
_cell_length_b 34.3521
_cell_length_c 35.5148
_cell_angle_alpha 90.491900
_cell_angle_beta 90.328900
_cell_angle_gamma 89.872900
loop_
  _atom_site_label
  _atom_site_type_symbol
  _atom_site_fract_x
  _atom_site_fract_y
  _atom_site_fract_z
N1 N 0.18672 1.26787 0.16875
 N2 N 0.15664 1.26089 0.18726
 C3 C 0.13058 1.28560 0.17585
 C4 C 0.14506 1.31018 0.14903
 C5 C 0.18111 1.29832 0.14568
 H6 H 0.10324 1.28586 0.18678
 H7 H 0.20123 1.30939 0.12647
 Cu8 Cu 0.15421 1.22049 0.22487
 Cu9 Cu 0.22951 1.23434 0.17432
 Cu10 Cu 0.21329 1.14737 0.22111
 N11 N 0.15560 1.18147 0.26404
 N12 N 0.17880 1.15246 0.26235
 C13 C 0.17215 1.12772 0.29064
 C14 C 0.14294 1.14195 0.31143
 C15 C 0.13346 1.17644 0.29357
 H16 H 0.18687 1.10081 0.29466
 H17 H 0.11137 1.19593 0.30048
 N18 N 0.25529 1.15535 0.18814
 N19 N 0.26210 1.18845 0.17099
 C20 C 0.29185 1.18373 0.14941
 C21 C 0.30443 1.14579 0.15326
 C22 C 0.28049 1.12888 0.17823
 H23 H 0.30273 1.20598 0.13137
 H24 H 0.28049 1.09909 0.18768
 H25 H 0.19550 1.18839 0.18126
 H26 H 0.21906 1.20552 0.22500
 N27 N 0.81203 0.73440 0.16405
 N28 N 0.83615 0.73411 0.19147
 C29 C 0.86143 0.70670 0.18384
 C30 C 0.85270 0.68889 0.14973
 C31 C 0.82090 0.70716 0.13832
 H32 H 0.88561 0.70192 0.20060
 H33 H 0.80626 0.70268 0.11222
 Cu34 Cu 0.83525 0.77375 0.23106
 Cu35 Cu 0.77455 0.77416 0.15973
 Cu36 Cu 0.77564 0.84802 0.22653
 N37 N 0.83349 0.81393 0.27013
 N38 N 0.81249 0.84459 0.26587
 C39 C 0.82070 0.87120 0.29250
 C40 C 0.84800 0.85633 0.31532
 C41 C 0.85508 0.81955 0.30053
 H42 H 0.80752 0.89924 0.29508
 H43 H 0.87636 0.79981 0.30934
 N44 N 0.74006 0.84583 0.18493
 N45 N 0.73914 0.81722 0.15996
 C46 C 0.71213 0.82405 0.13512
 C47 C 0.69509 0.85866 0.14490
 C48 C 0.71356 0.87156 0.17672
 H49 H 0.70554 0.80532 0.11147
 H50 H 0.70857 0.89814 0.19235
 H51 H 0.80466 0.81686 0.18666
 H52 H 0.77210 0.78899 0.21626
 N53 N 0.80226 1.27256 -0.16287
 N54 N 0.82315 1.27452 -0.19264
 C55 C 0.84816 1.30256 -0.18721
 C56 C 0.84279 1.31922 -0.15194
 C57 C 0.81322 1.29937 -0.13744
 H58 H 0.86929 1.30930 -0.20711
 H59 H 0.80136 1.30292 -0.10987
 Cu60 Cu 0.81779 1.23815 -0.23428
 Cu61 Cu 0.76434 1.23335 -0.15814
 Cu62 Cu 0.76353 1.16015 -0.22586
 N63 N 0.82254 1.19328 -0.26730
 N64 N 0.80120 1.16291 -0.26420
 C65 C 0.81161 1.13543 -0.28915
 C66 C 0.84151 1.14911 -0.30890
 C67 C 0.84739 1.18620 -0.29411
 H68 H 0.79903 1.10714 -0.29151
 H69 H 0.86860 1.20645 -0.30133
 N70 N 0.72801 1.16302 -0.18450
 N71 N 0.72836 1.19087 -0.15868
 C72 C 0.70199 1.18393 -0.13350
 C73 C 0.68413 1.14996 -0.14381
 C74 C 0.70140 1.13763 -0.17641
 H75 H 0.69656 1.20206 -0.10917
 H76 H 0.69582 1.11143 -0.19243
 H77 H 0.79415 1.19295 -0.18850
 H78 H 0.75711 1.21898 -0.21448
 N79 N 0.21530 0.70834 -0.18757
 N80 N 0.18937 0.71079 -0.21312
 C81 C 0.16367 0.68413 -0.20583
 C82 C 0.17434 0.66342 -0.17447
 C83 C 0.20721 0.67952 -0.16354
 H84 H 0.13781 0.68209 -0.22038
 H85 H 0.22208 0.67351 -0.13786
 Cu86 Cu 0.18849 0.75228 -0.25011
 Cu87 Cu 0.25301 0.74834 -0.18310
 Cu88 Cu 0.21933 0.83637 -0.21483
 N89 N 0.17920 0.80105 -0.27575
 N90 N 0.18968 0.83406 -0.26032
 C91 C 0.17598 0.86379 -0.28019
 C92 C 0.15614 0.84878 -0.31036
 C93 C 0.15921 0.80858 -0.30677
 H94 H 0.18059 0.89404 -0.27309
 H95 H 0.14597 0.78649 -0.32380
 N96 N 0.26106 0.83207 -0.17997
 N97 N 0.27486 0.79861 -0.16876
 C98 C 0.30401 0.80566 -0.14660
 C99 C 0.30895 0.84565 -0.14400
 C100 C 0.28114 0.86130 -0.16556
 H101 H 0.32045 0.78329 -0.13362
 H102 H 0.27584 0.89177 -0.17059
 H103 H 0.20956 0.78254 -0.19151
 H104 H 0.24389 0.78552 -0.22981
 C105 C 0.49610 1.00095 0.00352
 C106 C 0.00798 0.50572 0.99234
 C107 C 0.99916 0.00020 0.50817
 C108 C 0.08846 0.39568 1.08716
 C109 C 0.06905 0.36724 1.10665
 C110 C 0.08804 0.33969 1.12789
 C111 C 0.12646 0.33924 1.12873
 C112 C 0.14552 0.36802 1.10862
 C113 C 0.12657 0.39683 1.08851
 C114 C 0.06842 0.42467 1.06468
 C115 C 0.08745 0.45430 1.04659
 C116 C 0.06806 0.48183 1.02535
 C117 C 0.03005 0.47784 1.01867
 C118 C 0.01172 0.44889 1.03949
 C119 C 0.03052 0.42245 1.06215
 C120 C 0.14483 0.42689 1.06983
 C121 C 0.12558 0.45548 1.04973
 C122 C 0.03094 0.36655 1.10420
 C123 C 0.01200 0.39355 1.08212
 H124 H 0.17424 0.42845 1.07090
 H125 H 0.14072 0.47820 1.03585
 H126 H 0.01563 0.34467 1.11912
 H127 H -0.01737 0.39168 1.08057
 H128 H 0.07258 0.31770 1.14237
 H129 H 0.17495 0.36881 1.10936
 H130 H 0.08302 0.50618 1.01430
 H131 H -0.01738 0.44672 1.03893
 C132 C -0.08159 0.61034 1.08424
 C133 C -0.07221 0.61773 1.12198
 C134 C -0.09408 0.64286 1.14360
 C135 C -0.12508 0.66070 1.12761
 C136 C -0.13407 0.65249 1.08969
 C137 C -0.11243 0.62753 1.06792
 C138 C -0.05854 0.58433 1.06123
 C139 C -0.06780 0.57740 1.02344
 C140 C -0.04593 0.55276 1.00169
 C141 C -0.01505 0.53387 1.01731
 C142 C -0.00571 0.54254 1.05528
 C143 C -0.02752 0.56731 1.07732
 C144 C -0.12083 0.61981 1.02996
 C145 C -0.09884 0.59522 1.00807
 C146 C -0.04094 0.60011 1.13718
 C147 C -0.01896 0.57539 1.11523
 H148 H -0.14454 0.63299 1.01701
 H149 H -0.10624 0.59004 0.97888
 H150 H -0.03331 0.60556 1.16626
 H151 H 0.00492 0.56245 1.12807
 H152 H -0.08679 0.64856 1.17269
 H153 H -0.15750 0.66594 1.07661
 H154 H -0.05281 0.54822 0.97226
 H155 H 0.01847 0.53024 1.06798
 C156 C -0.08979 0.40267 0.90580
 C157 C -0.12252 0.39080 0.92218
 C158 C -0.14482 0.36422 0.90282
 C159 C -0.13449 0.34917 0.86737
 C160 C -0.10177 0.36206 0.85112
 C161 C -0.07932 0.38872 0.87024
 C162 C -0.06575 0.42977 0.92656
 C163 C -0.03289 0.44138 0.91051
 C164 C -0.00969 0.46645 0.93077
 C165 C -0.01844 0.47992 0.96759
 C166 C -0.05262 0.46804 0.98224
 C167 C -0.07595 0.44320 0.96222
 C168 C -0.04635 0.40134 0.85478
 C169 C -0.02357 0.42726 0.87453
 C170 C -0.13208 0.40536 0.95785
 C171 C -0.10918 0.43113 0.97754
 H172 H -0.03794 0.39089 0.82730
 H173 H 0.00173 0.43601 0.86166
 H174 H -0.15731 0.39651 0.97081
 H175 H -0.11742 0.44141 1.00513
 H176 H -0.16996 0.35514 0.91568
 H177 H -0.09325 0.35098 0.82396
 H178 H 0.01487 0.47474 0.91692
 H179 H -0.06134 0.47778 1.00981
 C180 C 0.10468 0.59665 0.89540
 C181 C 0.09813 0.63661 0.89071
 C182 C 0.12089 0.65803 0.86721
 C183 C 0.15044 0.63994 0.84926
 C184 C 0.15714 0.60004 0.85454
 C185 C 0.13393 0.57804 0.87734
 C186 C 0.08047 0.57391 0.91981
 C187 C 0.08638 0.53392 0.92399
 C188 C 0.06294 0.51245 0.94689
 C189 C 0.03373 0.53038 0.96666
 C190 C 0.02935 0.57126 0.96220
 C191 C 0.05200 0.59272 0.93862
 C192 C 0.13921 0.53790 0.88247
 C193 C 0.11572 0.51618 0.90523
 C194 C 0.06911 0.65439 0.90977
 C195 C 0.04659 0.63287 0.93352
 H196 H 0.16158 0.52311 0.86868
 H197 H 0.12068 0.48526 0.90829
 H198 H 0.06387 0.68523 0.90647
 H199 H 0.02460 0.64778 0.94787
 H200 H 0.11607 0.68889 0.86327
 H201 H 0.18000 0.58626 0.84061
 H202 H 0.06764 0.48145 0.94967
 H203 H 0.00854 0.58738 0.97677
 C204 C 1.08681 0.08629 0.39939
 C205 C 1.07458 0.12250 0.38649
 C206 C 1.09390 0.14137 0.35811
 C207 C 1.12512 0.12407 0.34189
 C208 C 1.13729 0.08788 0.35599
 C209 C 1.11816 0.06888 0.38452
 C210 C 1.06580 0.06572 0.42834
 C211 C 1.07738 0.02908 0.44052
 C212 C 1.05651 0.00896 0.46691
 C213 C 1.02407 0.02504 0.48205
 C214 C 1.01308 0.06208 0.46840
 C215 C 1.03381 0.08248 0.44221
 C216 C 1.12934 0.03236 0.39792
 C217 C 1.10926 0.01278 0.42539
 C218 C 1.04272 0.13877 0.40163
 C219 C 1.02260 0.11903 0.42891
 H220 H 1.15354 0.01855 0.38673
 H221 H 1.11860 -0.01555 0.43459
 H222 H 1.03295 0.16675 0.39193
 H223 H 0.99791 0.13236 0.43946
 H224 H 1.08381 0.16912 0.34839
 H225 H 1.16124 0.07387 0.34461
 H226 H 1.06560 -0.01970 0.47455
 H227 H 0.98757 0.07498 0.47695
 C228 C 1.09337 -0.08786 0.61126
 C229 C 1.10548 -0.06969 0.64452
 C230 C 1.12714 -0.09061 0.66979
 C231 C 1.13573 -0.13014 0.66294
 C232 C 1.12306 -0.14797 0.62931
 C233 C 1.10255 -0.12664 0.60302
 C234 C 1.07055 -0.06578 0.58461
 C235 C 1.05985 -0.08301 0.55047
 C236 C 1.03849 -0.06149 0.52510
 C237 C 1.02445 -0.02415 0.53490
 C238 C 1.03789 -0.00711 0.56880
 C239 C 1.06046 -0.02756 0.59352
 C240 C 1.09114 -0.14314 0.56856
 C241 C 1.07065 -0.12150 0.54248
 C242 C 1.09539 -0.03098 0.65212
 C243 C 1.07308 -0.01034 0.62715
 H244 H 1.09829 -0.17294 0.56157
 H245 H 1.06258 -0.13527 0.51619
 H246 H 1.10453 -0.01664 0.67776
 H247 H 1.06560 0.01934 0.63427
 H248 H 1.13588 -0.07620 0.69549
 H249 H 1.12985 -0.17800 0.62297
 H250 H 1.03352 -0.07390 0.49747
 H251 H 1.03144 0.02244 0.57647
 C252 C 0.90630 -0.08454 0.40073
 C253 C 0.90526 -0.12535 0.40098
 C254 C 0.88628 -0.14514 0.37220
 C255 C 0.86655 -0.12424 0.34468
 C256 C 0.86643 -0.08315 0.34640
 C257 C 0.88709 -0.06327 0.37356
 C258 C 0.92822 -0.06362 0.42926
 C259 C 0.93091 -0.02310 0.42761
 C260 C 0.95334 -0.00359 0.45340
 C261 C 0.97358 -0.02374 0.48128
 C262 C 0.96597 -0.06404 0.48530
 C263 C 0.94549 -0.08440 0.45802
 C264 C 0.88947 -0.02247 0.37361
 C265 C 0.91132 -0.00273 0.39997
 C266 C 0.92316 -0.14538 0.43011
 C267 C 0.94225 -0.12519 0.45861
 H268 H 0.87482 -0.00570 0.35271
 H269 H 0.91296 0.02872 0.39862
 H270 H 0.92221 -0.17687 0.43102
 H271 H 0.95548 -0.14173 0.48064
 H272 H 0.88604 -0.17669 0.37197
 H273 H 0.85205 -0.06636 0.32535
 H274 H 0.95422 0.02764 0.45182
 H275 H 0.97499 -0.07992 0.50971
 C276 C 0.90571 0.08839 0.61145
 C277 C 0.87432 0.07077 0.62557
 C278 C 0.85277 0.09119 0.65159
 C279 C 0.86242 0.12913 0.66379
 C280 C 0.89399 0.14634 0.64867
 C281 C 0.91577 0.12604 0.62285
 C282 C 0.92888 0.06672 0.58470
 C283 C 0.96079 0.08391 0.57149
 C284 C 0.98323 0.06285 0.54694
 C285 C 0.97366 0.02500 0.53397
 C286 C 0.94181 0.00806 0.54904
 C287 C 0.91928 0.02881 0.57384
 C288 C 0.94779 0.14247 0.60868
 C289 C 0.97003 0.12168 0.58358
 C290 C 0.86537 0.03280 0.61376
 C291 C 0.88750 0.01216 0.58839
 H292 H 0.95593 0.17151 0.61732
 H293 H 0.99466 0.13529 0.57358
 H294 H 0.84120 0.01881 0.62442
 H295 H 0.87973 -0.01714 0.58022
 H296 H 0.82871 0.07712 0.66226
 H297 H 0.90236 0.17525 0.65723
 H298 H 1.00901 0.07556 0.53928
 H299 H 0.93462 -0.02164 0.54195
 C300 C 0.38917 1.08696 0.09231
 C301 C 0.37957 1.12510 0.08234
 C302 C 0.35240 1.14463 0.10280
 C303 C 0.33473 1.12617 0.13293
 C304 C 0.34529 1.08805 0.14277
 C305 C 0.37222 1.06826 0.12242
 C306 C 0.41703 1.06591 0.07036
 C307 C 0.42578 1.02743 0.07967
 C308 C 0.45154 1.00721 0.05817
 C309 C 0.46989 1.02541 0.02818
 C310 C 0.45956 1.06387 0.01861
 C311 C 0.43359 1.08429 0.03983
 C312 C 0.38208 1.02985 0.13123
 C313 C 0.40830 1.00971 0.11010
 C314 C 0.39692 1.14265 0.05171
 C315 C 0.42343 1.12258 0.03079
 H316 H 0.36915 1.01508 0.15441
 H317 H 0.41488 0.98000 0.11761
 H318 H 0.38978 1.17205 0.04365
 H319 H 0.43597 1.13712 0.00725
 H320 H 0.34466 1.17379 0.09466
 H321 H 0.33247 1.07339 0.16601
 H322 H 0.45741 0.97708 0.06472
 H323 H 0.47085 1.07778 -0.00590
 C324 C 0.60093 1.08982 -0.08330
 C325 C 0.61950 1.12073 -0.06578
 C326 C 0.64625 1.14070 -0.08587
 C327 C 0.65469 1.12981 -0.12321
 C328 C 0.63547 1.09886 -0.14037
 C329 C 0.60870 1.07868 -0.12051
 C330 C 0.57330 1.06820 -0.06204
 C331 C 0.55536 1.03671 -0.07924
 C332 C 0.52989 1.01555 -0.05859
 C333 C 0.52121 1.02622 -0.02106
 C334 C 0.54066 1.05738 -0.00417
 C335 C 0.56621 1.07868 -0.02456
 C336 C 0.58988 1.04723 -0.13694
 C337 C 0.56376 1.02653 -0.11661
 C338 C 0.61136 1.13064 -0.02828
 C339 C 0.58522 1.10991 -0.00799
 H340 H 0.59563 1.03832 -0.16563
 H341 H 0.55010 1.00224 -0.13023
 H342 H 0.62553 1.15442 -0.01440
 H343 H 0.57998 1.11829 0.02095
 H344 H 0.66089 1.16411 -0.07201
 H345 H 0.64131 1.09025 -0.16910
 H346 H 0.51778 0.99009 -0.07164
 H347 H 0.53607 1.06476 0.02515
 C348 C 0.39022 0.90979 -0.08264
 C349 C 0.37079 0.92792 -0.11175
 C350 C 0.34460 0.90661 -0.13188
 C351 C 0.33755 0.86741 -0.12307
 C352 C 0.35751 0.84959 -0.09388
 C353 C 0.38378 0.87074 -0.07345
 C354 C 0.41755 0.93229 -0.06111
 C355 C 0.43654 0.91448 -0.03154
 C356 C 0.46213 0.93620 -0.01081
 C357 C 0.46988 0.97533 -0.02019
 C358 C 0.44913 0.99282 -0.04919
 C359 C 0.42352 0.97143 -0.06999
 C360 C 0.40346 0.85383 -0.04372
 C361 C 0.42929 0.87537 -0.02305
 C362 C 0.37771 0.96714 -0.11996
 C363 C 0.40358 0.98856 -0.09937
 H364 H 0.39872 0.82377 -0.03624
 H365 H 0.44373 0.86125 -0.00025
 H366 H 0.36287 0.98146 -0.14237
 H367 H 0.40798 1.01878 -0.10648
 H368 H 0.32990 0.92067 -0.15451
 H369 H 0.35219 0.81960 -0.08656
 H370 H 0.47526 0.92265 0.01307
 H371 H 0.45308 1.02331 -0.05556
 C372 C 0.60831 0.91670 0.08656
 C373 C 0.61720 0.92816 0.12350
 C374 C 0.64534 0.90884 0.14257
 C375 C 0.66470 0.87834 0.12491
 C376 C 0.65524 0.86721 0.08781
 C377 C 0.62717 0.88637 0.06849
 C378 C 0.57905 0.93727 0.06621
 C379 C 0.57075 0.92645 0.02900
 C380 C 0.54351 0.94666 0.00951
 C381 C 0.52347 0.97693 0.02712
 C382 C 0.53345 0.98809 0.06427
 C383 C 0.56067 0.96806 0.08400
 C384 C 0.61787 0.87614 0.03127
 C385 C 0.59020 0.89592 0.01183
 C386 C 0.59800 0.95897 0.14050
 C387 C 0.57029 0.97866 0.12104
 H388 H 0.63225 0.85282 0.01697
 H389 H 0.58404 0.88729 -0.01692
 H390 H 0.60461 0.96813 0.16899
 H391 H 0.55633 1.00243 0.13510
 H392 H 0.65199 0.91759 0.17114
 H393 H 0.67005 0.84418 0.07361
 H394 H 0.53795 0.93907 -0.01963
 H395 H 0.52092 1.01306 0.07772
   
