data_POSCAR
  _audit_creation_date              2014-09-24
  _audit_creation_method            'ToBaCCo'
  _symmetry_space_group_name_H-M    'P1'
  _symmetry_Int_Tables_number       1
  _symmetry_cell_setting            triclinic
  loop_
  _symmetry_equiv_pos_as_xyz
 x,y,z
_cell_length_a 23.0364
_cell_length_b 22.8484
_cell_length_c 23.0364
_cell_angle_alpha 90.000100
_cell_angle_beta 95.735300
_cell_angle_gamma 90.000200
loop_
  _atom_site_label
  _atom_site_type_symbol
  _atom_site_fract_x
  _atom_site_fract_y
  _atom_site_fract_z
Zn1 Zn 0.79370 0.72752 0.81706
 Zn2 Zn 0.79389 0.78708 0.70170
 Zn3 Zn 0.72016 0.68258 0.71266
 Zn4 Zn 0.68857 0.79550 0.76746
 O5 O 0.74898 0.74826 0.74987
 O6 O 0.86652 0.75489 0.81945
 O7 O 0.79324 0.75501 0.63088
 O8 O 0.74600 0.61754 0.74852
 O9 O 0.86891 0.79270 0.73106
 O10 O 0.80064 0.64924 0.82665
 O11 O 0.73911 0.67609 0.63926
 O12 O 0.61823 0.76469 0.74368
 O13 O 0.76938 0.85985 0.68829
 O14 O 0.64247 0.67851 0.70900
 O15 O 0.69168 0.86842 0.73717
 O16 O 0.68712 0.80438 0.84461
 O17 O 0.76480 0.75443 0.88112
 C18 C 0.89379 0.77960 0.78104
 C19 C 0.76912 0.70897 0.60948
 C20 C 0.77883 0.60773 0.79495
 C21 C 0.60429 0.71464 0.72260
 C22 C 0.72767 0.88984 0.70457
 C23 C 0.72004 0.78507 0.88783
 Zn24 Zn 0.18035 0.72752 0.70372
 Zn25 Zn 0.22995 0.79550 0.80885
 Zn26 Zn 0.28476 0.68258 0.77726
 Zn27 Zn 0.29572 0.78708 0.70353
 O28 O 0.24755 0.74826 0.74843
 O29 O 0.11630 0.75444 0.73262
 O30 O 0.25373 0.76469 0.87919
 O31 O 0.24890 0.61754 0.75142
 O32 O 0.15280 0.80438 0.81030
 O33 O 0.17076 0.64924 0.69678
 O34 O 0.28842 0.67851 0.85495
 O35 O 0.36654 0.75501 0.70418
 O36 O 0.26025 0.86842 0.80573
 O37 O 0.35815 0.67609 0.75831
 O38 O 0.30912 0.85985 0.72804
 O39 O 0.26636 0.79270 0.62850
 O40 O 0.17797 0.75489 0.63090
 C41 C 0.10959 0.78507 0.77738
 C42 C 0.27482 0.71464 0.89312
 C43 C 0.20246 0.60773 0.71859
 C44 C 0.38794 0.70897 0.72830
 C45 C 0.29285 0.88984 0.76975
 C46 C 0.21638 0.77960 0.60362
 Zn47 Zn 0.68857 0.20183 0.76746
 Zn48 Zn 0.79389 0.21026 0.70170
 Zn49 Zn 0.72016 0.31475 0.71266
 Zn50 Zn 0.79370 0.26982 0.81706
 O51 O 0.74898 0.24908 0.74987
 O52 O 0.69168 0.12891 0.73717
 O53 O 0.79323 0.24232 0.63088
 O54 O 0.64247 0.31882 0.70900
 O55 O 0.76938 0.13748 0.68829
 O56 O 0.61822 0.23265 0.74368
 O57 O 0.73911 0.32124 0.63926
 O58 O 0.80064 0.34809 0.82665
 O59 O 0.86891 0.20464 0.73106
 O60 O 0.74600 0.37979 0.74852
 O61 O 0.86652 0.24244 0.81945
 O62 O 0.76479 0.24290 0.88111
 O63 O 0.68711 0.19295 0.84461
 C64 C 0.72767 0.10749 0.70457
 C65 C 0.76912 0.28837 0.60948
 C66 C 0.60429 0.28269 0.72260
 C67 C 0.77883 0.38960 0.79495
 C68 C 0.89379 0.21774 0.78103
 C69 C 0.72004 0.21226 0.88783
 Zn70 Zn 0.29571 0.21026 0.70353
 Zn71 Zn 0.22995 0.20183 0.80884
 Zn72 Zn 0.28476 0.31475 0.77725
 Zn73 Zn 0.18035 0.26982 0.70372
 O74 O 0.24755 0.24908 0.74843
 O75 O 0.30912 0.13748 0.72804
 O76 O 0.25373 0.23265 0.87919
 O77 O 0.35815 0.32124 0.75831
 O78 O 0.26025 0.12891 0.80573
 O79 O 0.36654 0.24232 0.70418
 O80 O 0.28842 0.31882 0.85494
 O81 O 0.17076 0.34809 0.69678
 O82 O 0.15280 0.19295 0.81030
 O83 O 0.24890 0.37979 0.75142
 O84 O 0.11630 0.24290 0.73262
 O85 O 0.17796 0.24244 0.63090
 O86 O 0.26636 0.20464 0.62850
 C87 C 0.29285 0.10749 0.76974
 C88 C 0.27482 0.28269 0.89312
 C89 C 0.38794 0.28837 0.72829
 C90 C 0.20246 0.38960 0.71859
 C91 C 0.10959 0.21226 0.77738
 C92 C 0.21638 0.21774 0.60362
 Zn93 Zn 0.68035 0.72752 0.20372
 Zn94 Zn 0.79572 0.78708 0.20353
 Zn95 Zn 0.72995 0.79550 0.30885
 Zn96 Zn 0.78476 0.68258 0.27725
 O97 O 0.74755 0.74826 0.24843
 O98 O 0.67797 0.75489 0.13090
 O99 O 0.80912 0.85985 0.22804
 O100 O 0.65280 0.80438 0.31030
 O101 O 0.76636 0.79270 0.12850
 O102 O 0.61630 0.75444 0.23262
 O103 O 0.76025 0.86842 0.30573
 O104 O 0.78842 0.67851 0.35494
 O105 O 0.86654 0.75501 0.20418
 O106 O 0.75373 0.76469 0.37919
 O107 O 0.85815 0.67609 0.25831
 O108 O 0.74890 0.61754 0.25142
 O109 O 0.67076 0.64924 0.19678
 C110 C 0.71638 0.77960 0.10362
 C111 C 0.79285 0.88984 0.26975
 C112 C 0.60959 0.78507 0.27738
 C113 C 0.77482 0.71464 0.39312
 C114 C 0.88794 0.70897 0.22830
 C115 C 0.70246 0.60773 0.21859
 Zn116 Zn 0.29389 0.78708 0.20170
 Zn117 Zn 0.22016 0.68258 0.21266
 Zn118 Zn 0.29370 0.72752 0.31706
 Zn119 Zn 0.18857 0.79550 0.26746
 O120 O 0.24898 0.74826 0.24987
 O121 O 0.29323 0.75501 0.13088
 O122 O 0.24600 0.61754 0.24852
 O123 O 0.36652 0.75490 0.31945
 O124 O 0.23911 0.67609 0.13926
 O125 O 0.36891 0.79270 0.23106
 O126 O 0.30064 0.64924 0.32665
 O127 O 0.18711 0.80438 0.34461
 O128 O 0.14247 0.67851 0.20900
 O129 O 0.26479 0.75443 0.38112
 O130 O 0.11822 0.76469 0.24368
 O131 O 0.19168 0.86842 0.23717
 O132 O 0.26938 0.85985 0.18829
 C133 C 0.26912 0.70897 0.10948
 C134 C 0.27883 0.60774 0.29495
 C135 C 0.39379 0.77960 0.28104
 C136 C 0.22004 0.78507 0.38783
 C137 C 0.10429 0.71464 0.22260
 C138 C 0.22767 0.88984 0.20457
 Zn139 Zn 0.68035 0.26982 0.20371
 Zn140 Zn 0.79571 0.21026 0.20353
 Zn141 Zn 0.78476 0.31475 0.27725
 Zn142 Zn 0.72995 0.20183 0.30884
 O143 O 0.74755 0.24908 0.24843
 O144 O 0.67796 0.24244 0.13089
 O145 O 0.86653 0.24232 0.20418
 O146 O 0.74889 0.37979 0.25141
 O147 O 0.76635 0.20464 0.12850
 O148 O 0.67076 0.34809 0.19678
 O149 O 0.85815 0.32124 0.25831
 O150 O 0.75373 0.23265 0.37919
 O151 O 0.80912 0.13748 0.22804
 O152 O 0.78842 0.31882 0.35494
 O153 O 0.76025 0.12891 0.30573
 O154 O 0.65280 0.19295 0.31030
 O155 O 0.61630 0.24290 0.23262
 C156 C 0.71638 0.21774 0.10362
 C157 C 0.88793 0.28837 0.22829
 C158 C 0.70246 0.38960 0.21859
 C159 C 0.77481 0.28269 0.39312
 C160 C 0.79285 0.10749 0.26975
 C161 C 0.60959 0.21226 0.27738
 Zn162 Zn 0.22016 0.31475 0.21265
 Zn163 Zn 0.29388 0.21026 0.20170
 Zn164 Zn 0.29370 0.26982 0.31706
 Zn165 Zn 0.18857 0.20183 0.26746
 O166 O 0.24898 0.24908 0.24986
 O167 O 0.23911 0.32124 0.13926
 O168 O 0.36891 0.20464 0.23106
 O169 O 0.30064 0.34809 0.32665
 O170 O 0.29323 0.24232 0.13088
 O171 O 0.24600 0.37979 0.24852
 O172 O 0.36652 0.24244 0.31945
 O173 O 0.18711 0.19295 0.34461
 O174 O 0.26937 0.13748 0.18829
 O175 O 0.26479 0.24290 0.38111
 O176 O 0.19168 0.12891 0.23717
 O177 O 0.11822 0.23265 0.24368
 O178 O 0.14247 0.31882 0.20900
 C179 C 0.26912 0.28837 0.10948
 C180 C 0.39379 0.21774 0.28103
 C181 C 0.27883 0.38960 0.29495
 C182 C 0.22003 0.21227 0.38783
 C183 C 0.22767 0.10749 0.20457
 C184 C 0.10429 0.28269 0.22260
 N185 N 0.03766 0.80986 0.84709
 N186 N -0.01947 0.80704 0.84847
 C187 C -0.04411 0.79256 0.79493
 C188 C -0.00100 0.78548 0.75782
 C189 C 0.05033 0.79626 0.79286
 H190 H -0.00599 0.77048 0.71302
 H191 H 0.06741 0.81791 0.88347
 H192 H -0.04090 0.81342 0.88584
 N193 N 0.74671 0.02750 0.63712
 N194 N 0.74671 -0.03017 0.63712
 C195 C 0.72266 -0.04922 0.68457
 C196 C 0.70552 -0.00133 0.71592
 C197 C 0.72266 0.04655 0.68456
 H198 H 0.68997 -0.00133 0.75873
 H199 H 0.76606 0.05318 0.60685
 H200 H 0.76606 -0.05585 0.60685
 N201 N 0.64895 0.80704 0.01689
 N202 N 0.65033 0.80985 -0.04024
 C203 C 0.70456 0.79626 -0.05292
 C204 C 0.73960 0.78548 -0.00158
 C205 C 0.70249 0.79256 0.04153
 H206 H 0.78439 0.77048 0.00340
 H207 H 0.61158 0.81342 0.03831
 H208 H 0.61395 0.81791 -0.06999
 N209 N 0.46855 0.63826 0.71897
 N210 N 0.52544 0.64003 0.71558
 C211 C 0.54281 0.69640 0.71671
 C212 C 0.49471 0.73221 0.71996
 C213 C 0.44861 0.69347 0.72142
 H214 H 0.49381 0.77941 0.72387
 H215 H 0.44415 0.59985 0.72038
 H216 H 0.55210 0.60309 0.71510
 N217 N 0.36030 0.02750 0.75070
 N218 N 0.36030 -0.03016 0.75070
 C219 C 0.31285 -0.04922 0.77476
 C220 C 0.28149 -0.00133 0.79189
 C221 C 0.31285 0.04655 0.77476
 H222 H 0.23869 -0.00133 0.80745
 H223 H 0.39057 0.05318 0.73135
 H224 H 0.39057 -0.05585 0.73135
 N225 N 0.27845 0.63826 0.02886
 N226 N 0.28184 0.64003 -0.02802
 C227 C 0.28071 0.69640 -0.04539
 C228 C 0.27746 0.73221 0.00271
 C229 C 0.27600 0.69347 0.04881
 H230 H 0.27355 0.77941 0.00361
 H231 H 0.27704 0.59985 0.05327
 H232 H 0.28232 0.60309 -0.05468
 N233 N 0.03766 0.18748 0.84709
 N234 N -0.01947 0.19029 0.84846
 C235 C -0.04411 0.20477 0.79493
 C236 C -0.00100 0.21186 0.75782
 C237 C 0.05033 0.20107 0.79286
 H238 H -0.00599 0.22685 0.71302
 H239 H 0.06741 0.17942 0.88347
 H240 H -0.04090 0.18391 0.88584
 N241 N 0.82417 0.46966 0.85920
 N242 N 0.82417 0.52767 0.85920
 C243 C 0.79077 0.54644 0.81142
 C244 C 0.76873 0.49867 0.77985
 C245 C 0.79077 0.45089 0.81142
 H246 H 0.74033 0.49867 0.73945
 H247 H 0.84653 0.44370 0.89138
 H248 H 0.84654 0.55364 0.89138
 N249 N 0.64895 0.19029 0.01689
 N250 N 0.65033 0.18748 -0.04024
 C251 C 0.70456 0.20107 -0.05292
 C252 C 0.73959 0.21186 -0.00158
 C253 C 0.70248 0.20477 0.04153
 H254 H 0.78439 0.22685 0.00340
 H255 H 0.61157 0.18391 0.03831
 H256 H 0.61395 0.17943 -0.07000
 N257 N 0.46855 0.35907 0.71897
 N258 N 0.52544 0.35730 0.71557
 C259 C 0.54281 0.30093 0.71670
 C260 C 0.49471 0.26512 0.71995
 C261 C 0.44861 0.30387 0.72142
 H262 H 0.49381 0.21793 0.72386
 H263 H 0.44415 0.39749 0.72038
 H264 H 0.55210 0.39425 0.71510
 N265 N 0.13822 0.46966 0.67325
 N266 N 0.13822 0.52767 0.67325
 C267 C 0.18599 0.54644 0.70665
 C268 C 0.21757 0.49867 0.72869
 C269 C 0.18599 0.45089 0.70665
 H270 H 0.25797 0.49867 0.75709
 H271 H 0.10603 0.44370 0.65088
 H272 H 0.10603 0.55364 0.65089
 N273 N 0.27845 0.35907 0.02886
 N274 N 0.28184 0.35730 -0.02802
 C275 C 0.28071 0.30093 -0.04540
 C276 C 0.27746 0.26512 0.00270
 C277 C 0.27599 0.30387 0.04881
 H278 H 0.27355 0.21793 0.00361
 H279 H 0.27704 0.39749 0.05326
 H280 H 0.28232 0.39425 -0.05469
 N281 N 0.02544 0.64003 0.21558
 N282 N -0.03145 0.63826 0.21897
 C283 C -0.05139 0.69347 0.22142
 C284 C -0.00529 0.73221 0.21996
 C285 C 0.04281 0.69640 0.21671
 H286 H -0.00619 0.77941 0.22387
 H287 H 0.05210 0.60309 0.21510
 H288 H -0.05585 0.59985 0.22038
 N289 N 0.86030 0.02750 0.25071
 N290 N 0.86030 -0.03016 0.25071
 C291 C 0.81285 -0.04922 0.27476
 C292 C 0.78149 -0.00133 0.29189
 C293 C 0.81285 0.04655 0.27476
 H294 H 0.73869 -0.00133 0.30745
 H295 H 0.89057 0.05318 0.23135
 H296 H 0.89057 -0.05585 0.23135
 N297 N 0.78184 0.64003 0.47198
 N298 N 0.77845 0.63826 0.52886
 C299 C 0.77599 0.69347 0.54881
 C300 C 0.77746 0.73221 0.50271
 C301 C 0.78071 0.69640 0.45461
 H302 H 0.77355 0.77941 0.50361
 H303 H 0.78232 0.60309 0.44531
 H304 H 0.77704 0.59985 0.55327
 N305 N 0.48053 0.80704 0.34847
 N306 N 0.53766 0.80985 0.34709
 C307 C 0.55033 0.79626 0.29286
 C308 C 0.49900 0.78548 0.25782
 C309 C 0.45589 0.79256 0.29493
 H310 H 0.49401 0.77049 0.21302
 H311 H 0.45910 0.81342 0.38584
 H312 H 0.56741 0.81791 0.38347
 N313 N 0.24670 0.02750 0.13712
 N314 N 0.24670 -0.03017 0.13712
 C315 C 0.22265 -0.04922 0.18457
 C316 C 0.20552 -0.00133 0.21593
 C317 C 0.22265 0.04655 0.18456
 H318 H 0.18997 -0.00133 0.25873
 H319 H 0.26606 0.05318 0.10685
 H320 H 0.26606 -0.05585 0.10685
 N321 N 0.15033 0.80985 0.45976
 N322 N 0.14895 0.80704 0.51689
 C323 C 0.20249 0.79256 0.54153
 C324 C 0.23960 0.78548 0.49842
 C325 C 0.20456 0.79626 0.44708
 H326 H 0.28439 0.77048 0.50340
 H327 H 0.11395 0.81790 0.43001
 H328 H 0.11157 0.81342 0.53831
 N329 N 0.02544 0.35730 0.21557
 N330 N -0.03145 0.35907 0.21896
 C331 C -0.05139 0.30387 0.22142
 C332 C -0.00529 0.26512 0.21995
 C333 C 0.04281 0.30093 0.21670
 H334 H -0.00619 0.21793 0.22386
 H335 H 0.05210 0.39425 0.21509
 H336 H -0.05585 0.39749 0.22037
 N337 N 0.63821 0.46966 0.17325
 N338 N 0.63821 0.52767 0.17325
 C339 C 0.68599 0.54644 0.20664
 C340 C 0.71756 0.49867 0.22868
 C341 C 0.68599 0.45089 0.20664
 H342 H 0.75796 0.49867 0.25709
 H343 H 0.60603 0.44370 0.15088
 H344 H 0.60603 0.55364 0.15088
 N345 N 0.78184 0.35730 0.47198
 N346 N 0.77845 0.35907 0.52886
 C347 C 0.77599 0.30387 0.54881
 C348 C 0.77746 0.26512 0.50270
 C349 C 0.78071 0.30093 0.45460
 H350 H 0.77355 0.21793 0.50361
 H351 H 0.78232 0.39425 0.44531
 H352 H 0.77704 0.39749 0.55326
 N353 N 0.48053 0.19029 0.34846
 N354 N 0.53766 0.18748 0.34709
 C355 C 0.55033 0.20107 0.29286
 C356 C 0.49899 0.21185 0.25782
 C357 C 0.45589 0.20477 0.29493
 H358 H 0.49401 0.22685 0.21302
 H359 H 0.45910 0.18391 0.38584
 H360 H 0.56741 0.17943 0.38347
 N361 N 0.32417 0.46966 0.35920
 N362 N 0.32417 0.52767 0.35920
 C363 C 0.29077 0.54644 0.31142
 C364 C 0.26873 0.49867 0.27985
 C365 C 0.29077 0.45089 0.31142
 H366 H 0.24033 0.49867 0.23945
 H367 H 0.34653 0.44370 0.39138
 H368 H 0.34653 0.55364 0.39138
 N369 N 0.15033 0.18748 0.45976
 N370 N 0.14895 0.19030 0.51689
 C371 C 0.20248 0.20478 0.54153
 C372 C 0.23959 0.21186 0.49842
 C373 C 0.20456 0.20108 0.44708
 H374 H 0.28439 0.22685 0.50340
 H375 H 0.11394 0.17943 0.43000
 H376 H 0.11157 0.18392 0.53831
   
