data_POSCAR
  _audit_creation_date              2014-09-24
  _audit_creation_method            'ToBaCCo'
  _symmetry_space_group_name_H-M    'P1'
  _symmetry_Int_Tables_number       1
  _symmetry_cell_setting            triclinic
  loop_
  _symmetry_equiv_pos_as_xyz
 x,y,z
_cell_length_a 17.4554
_cell_length_b 17.4671
_cell_length_c 17.5033
_cell_angle_alpha 90.158000
_cell_angle_beta 90.166800
_cell_angle_gamma 89.995400
loop_
  _atom_site_label
  _atom_site_type_symbol
  _atom_site_fract_x
  _atom_site_fract_y
  _atom_site_fract_z
O1 O 0.42783 0.93601 -0.57272
 O2 O 0.57845 0.94082 -0.42508
 O3 O 0.43023 0.93448 -0.42411
 O4 O 0.57717 0.93729 -0.57381
 O5 O 0.57767 1.06368 -0.57113
 O6 O 0.42368 1.06067 -0.42784
 O7 O 0.57199 1.06699 -0.42248
 O8 O 0.42855 1.06236 -0.57630
 Cu9 Cu 0.50379 0.92442 -0.49905
 Cu10 Cu 0.50018 1.07613 -0.49961
 C11 C 0.40276 0.99859 -0.59994
 C12 C 0.60000 1.00476 -0.39753
 C13 C 0.40170 0.99702 -0.40055
 C14 C 0.60323 1.00079 -0.59737
 O15 O -0.57710 1.42408 -0.05754
 O16 O -0.42722 1.57217 -0.06101
 O17 O -0.42830 1.42408 -0.05982
 O18 O -0.57674 1.57355 -0.06134
 O19 O -0.57613 1.57566 0.06470
 O20 O -0.42791 1.42583 0.06633
 O21 O -0.42702 1.57511 0.06510
 O22 O -0.57693 1.42726 0.06850
 Cu23 Cu -0.50265 1.49833 -0.07260
 Cu24 Cu -0.50182 1.50126 0.07881
 C25 C -0.60276 1.40034 0.00605
 C26 C -0.40117 1.59853 0.00158
 C27 C -0.40279 1.39943 0.00349
 C28 C -0.60206 1.60011 0.00138
 O29 O 0.06173 0.42537 0.42660
 O30 O 0.06483 0.57488 0.57422
 O31 O 0.05904 0.42631 0.57483
 O32 O 0.05949 0.57419 0.42505
 O33 O -0.06694 0.57708 0.42753
 O34 O -0.06744 0.42643 0.57328
 O35 O -0.06155 0.57603 0.57579
 O36 O -0.06474 0.42866 0.42461
 Cu37 Cu 0.07396 0.50017 0.50014
 Cu38 Cu -0.07786 0.50218 0.50057
 C39 C -0.00173 0.40187 0.39994
 C40 C 0.00237 0.60078 0.60079
 C41 C -0.00453 0.40045 0.59883
 C42 C -0.00384 0.60094 0.40088
 O43 O -0.19735 1.00351 -0.10326
 O44 O 0.19612 0.99696 -0.10629
 O45 O -0.00437 1.10517 -0.19599
 O46 O 0.00006 0.89775 -0.19840
 O47 O 0.00209 0.80365 -0.10616
 O48 O -0.00117 1.19777 -0.10178
 O49 O 0.10153 0.99963 -0.19853
 O50 O -0.10450 1.00296 -0.19673
 Zr51 Zr -0.00088 1.00087 -0.13517
 O52 O 0.06926 0.93055 -0.07170
 O53 O -0.06956 1.07019 -0.06917
 C54 C -0.17512 1.00364 -0.17404
 C55 C 0.17258 0.99788 -0.17671
 C56 C -0.00347 1.17582 -0.17262
 C57 C 0.00112 0.82676 -0.17659
 H58 H 0.10152 1.10213 -0.10223
 O59 O 0.06908 1.06932 -0.06971
 H60 H -0.10256 0.89886 -0.10249
 O61 O -0.06938 0.93133 -0.06998
 O62 O 0.19875 1.00185 0.10048
 O63 O -0.19524 0.99703 0.10353
 O64 O 0.10491 1.19622 0.00396
 O65 O 0.10383 0.80267 -0.00577
 O66 O -0.10365 0.80320 0.00005
 O67 O -0.10268 1.19686 -0.00170
 O68 O 0.00536 1.10193 0.19650
 O69 O -0.00047 0.89518 0.19443
 O70 O 0.00257 1.19611 0.10439
 O71 O -0.00008 0.80219 0.10056
 O72 O 0.19808 1.10262 -0.00045
 O73 O -0.19631 1.10366 -0.00065
 O74 O -0.19660 0.89711 0.00263
 O75 O 0.19741 0.89596 -0.00596
 O76 O 0.10638 0.99993 0.19451
 O77 O -0.10103 0.99717 0.19626
 Zr78 Zr 0.13525 0.99950 -0.00224
 Zr79 Zr -0.13404 1.00021 -0.00011
 Zr80 Zr 0.00091 1.13449 0.00053
 Zr81 Zr 0.00036 0.86513 -0.00225
 Zr82 Zr 0.00200 0.99897 0.13328
 O83 O -0.06836 0.93000 0.06819
 O84 O 0.07116 1.06875 0.06856
 C85 C 0.17695 1.00209 0.17132
 C86 C -0.17206 0.99574 0.17404
 C87 C 0.17572 1.17343 0.00227
 C88 C 0.17468 0.82521 -0.00752
 C89 C -0.17437 0.82623 0.00282
 C90 C -0.17357 1.17436 -0.00240
 C91 C 0.00499 1.17291 0.17475
 C92 C -0.00032 0.82451 0.17138
 H93 H -0.10019 1.10112 0.10213
 O94 O -0.06773 1.06862 0.06911
 H95 H 0.10346 0.89734 0.09868
 O96 O 0.07033 0.93019 0.06667
 C97 C 0.34225 0.99823 0.33879
 C98 C 0.37245 1.02561 0.26119
 C99 C 0.31818 1.02752 0.20521
 C100 C 0.23822 1.00178 0.23192
 C101 C 0.25083 0.92193 0.26632
 C102 C 0.30527 0.91990 0.32213
 C103 C 0.27450 1.05152 0.35669
 C104 C 0.22039 1.05378 0.30062
 H105 H 0.43149 1.04231 0.25122
 H106 H 0.33107 1.04650 0.14765
 H107 H 0.21972 0.87121 0.24805
 H108 H 0.32018 0.86736 0.35161
 H109 H 0.26972 1.08501 0.40881
 H110 H 0.16981 1.08964 0.30468
 C111 C -0.33605 1.00056 0.34190
 C112 C -0.36613 0.97103 0.26477
 C113 C -0.31212 0.96868 0.20896
 C114 C -0.23243 0.99623 0.23523
 C115 C -0.24607 1.07661 0.26829
 C116 C -0.30032 1.07907 0.32399
 C117 C -0.26740 0.94871 0.36081
 C118 C -0.21337 0.94610 0.30486
 H119 H -0.42499 0.95336 0.25491
 H120 H -0.32511 0.94852 0.15168
 H121 H -0.21544 1.12729 0.24961
 H122 H -0.31565 1.13196 0.35280
 H123 H -0.26178 0.91676 0.41365
 H124 H -0.16181 0.91171 0.30991
 C125 C -0.34271 1.00591 -0.33933
 C126 C -0.35964 0.95136 -0.27256
 C127 C -0.30371 0.94995 -0.21820
 C128 C -0.23619 1.00390 -0.23483
 C129 C -0.20830 0.97986 -0.31490
 C130 C -0.26399 0.98098 -0.36931
 C131 C -0.32838 1.08431 -0.30090
 C132 C -0.27271 1.08296 -0.24627
 H133 H -0.41110 0.91669 -0.26837
 H134 H -0.30730 0.91378 -0.16797
 H135 H -0.15001 0.96272 -0.32793
 H136 H -0.25290 0.96534 -0.42837
 H137 H -0.35932 1.13639 -0.31476
 H138 H -0.25605 1.13364 -0.21424
 C139 C 0.34051 0.99624 -0.34042
 C140 C 0.26067 1.01397 -0.37277
 C141 C 0.20435 1.01467 -0.31918
 C142 C 0.23311 0.99769 -0.23759
 C143 C 0.27498 0.92067 -0.24405
 C144 C 0.33113 0.91973 -0.29785
 C145 C 0.35312 1.05591 -0.27691
 C146 C 0.29671 1.05702 -0.22343
 H147 H 0.24941 1.02515 -0.43277
 H148 H 0.14514 1.02689 -0.33381
 H149 H 0.26153 0.87107 -0.20929
 H150 H 0.36580 0.86925 -0.30851
 H151 H 0.40201 1.09426 -0.27438
 H152 H 0.29722 1.09665 -0.17557
 C153 C 0.33990 1.34212 0.00650
 C154 C 0.27113 1.36007 -0.04561
 C155 C 0.21741 1.30365 -0.04776
 C156 C 0.23653 1.23451 0.00315
 C157 C 0.31633 1.20826 -0.02372
 C158 C 0.37021 1.26454 -0.02197
 C159 C 0.30402 1.32465 0.08506
 C160 C 0.25005 1.26840 0.08302
 H161 H 0.26520 1.41256 -0.07823
 H162 H 0.16602 1.30791 -0.08260
 H163 H 0.32965 1.15054 -0.04255
 H164 H 0.42915 1.25456 -0.03904
 H165 H 0.31951 1.35352 0.13789
 H166 H 0.22045 1.24903 0.13388
 C167 C 0.34025 0.65805 -0.00011
 C168 C 0.30922 0.68284 0.07863
 C169 C 0.25453 0.73817 0.07495
 C170 C 0.23547 0.76417 -0.00660
 C171 C 0.31289 0.78820 -0.04102
 C172 C 0.36763 0.73276 -0.03744
 C173 C 0.26852 0.63470 -0.04592
 C174 C 0.21391 0.69028 -0.04963
 H175 H 0.32798 0.65903 0.13277
 H176 H 0.22710 0.76130 0.12563
 H177 H 0.32370 0.84367 -0.06665
 H178 H 0.42510 0.74130 -0.05947
 H179 H 0.26137 0.57931 -0.07338
 H180 H 0.16054 0.68238 -0.08068
 C181 C -0.33998 0.65910 0.00112
 C182 C -0.30159 0.67270 -0.07679
 C183 C -0.24699 0.72832 -0.07546
 C184 C -0.23555 0.76557 0.00330
 C185 C -0.31591 0.79370 0.02653
 C186 C -0.37031 0.73794 0.02539
 C187 C -0.27315 0.64266 0.05614
 C188 C -0.21875 0.69856 0.05764
 H189 H -0.31570 0.64133 -0.12856
 H190 H -0.21510 0.74465 -0.12603
 H191 H -0.32917 0.85219 0.04277
 H192 H -0.42965 0.74899 0.04029
 H193 H -0.26907 0.59156 0.09110
 H194 H -0.16847 0.69534 0.09418
 C195 C -0.34155 1.33894 0.00303
 C196 C -0.36274 1.26848 -0.04541
 C197 C -0.30677 1.21427 -0.04824
 C198 C -0.23471 1.23502 -0.00174
 C199 C -0.20970 1.31335 -0.03321
 C200 C -0.26562 1.36760 -0.03057
 C201 C -0.31999 1.30627 0.08183
 C202 C -0.26424 1.25186 0.07914
 H203 H -0.41708 1.26183 -0.07503
 H204 H -0.31338 1.16149 -0.08048
 H205 H -0.15333 1.32509 -0.05645
 H206 H -0.25673 1.42558 -0.05093
 H207 H -0.34659 1.32359 0.13511
 H208 H -0.24347 1.22291 0.12995
 C209 C -0.00123 1.34081 0.33936
 C210 C -0.07874 1.32559 0.29995
 C211 C -0.07592 1.26964 0.24571
 C212 C 0.00378 1.23369 0.23577
 C213 C 0.05725 1.30165 0.21960
 C214 C 0.05432 1.35783 0.27354
 C215 C 0.02400 1.26260 0.37033
 C216 C 0.02653 1.20647 0.31635
 H217 H -0.13119 1.35626 0.31297
 H218 H -0.12589 1.25250 0.21282
 H219 H 0.09352 1.30579 0.16953
 H220 H 0.08808 1.40985 0.26944
 H221 H 0.03809 1.25212 0.42987
 H222 H 0.04285 1.14819 0.33018
 C223 C -0.00494 1.33981 -0.34040
 C224 C -0.07987 1.29360 -0.33470
 C225 C -0.07915 1.23975 -0.27859
 C226 C -0.00385 1.23681 -0.23314
 C227 C 0.05882 1.22536 -0.29367
 C228 C 0.05799 1.27894 -0.34999
 C229 C 0.00770 1.37293 -0.26007
 C230 C 0.00821 1.31929 -0.20386
 H231 H -0.12902 1.30182 -0.37191
 H232 H -0.12765 1.20245 -0.26774
 H233 H 0.10015 1.17889 -0.29248
 H234 H 0.09835 1.27793 -0.39706
 H235 H 0.01553 1.43353 -0.24839
 H236 H 0.01676 1.33458 -0.14429
 C237 C 0.00328 0.65881 -0.34163
 C238 C -0.04716 0.63974 -0.27233
 C239 C -0.04867 0.69583 -0.21822
 C240 C 0.00111 0.76584 -0.23759
 C241 C 0.08122 0.73306 -0.25259
 C242 C 0.08266 0.67718 -0.30694
 C243 C -0.02684 0.73613 -0.37070
 C244 C -0.02804 0.79209 -0.31645
 H245 H -0.07892 0.58665 -0.26618
 H246 H -0.08199 0.69056 -0.16623
 H247 H 0.13251 0.75213 -0.22286
 H248 H 0.13550 0.64865 -0.32297
 H249 H -0.04573 0.74608 -0.42902
 H250 H -0.04846 0.84946 -0.32870
 C251 C -0.00365 0.66089 0.33942
 C252 C -0.08275 0.69513 0.32012
 C253 C -0.08091 0.74897 0.26413
 C254 C -0.00055 0.76391 0.23224
 C255 C 0.04879 0.78408 0.30255
 C256 C 0.04679 0.73038 0.35870
 C257 C 0.02707 0.63095 0.26281
 C258 C 0.02880 0.68474 0.20667
 H259 H -0.13576 0.67875 0.34790
 H260 H -0.13214 0.77799 0.24403
 H261 H 0.08259 0.83603 0.30773
 H262 H 0.07847 0.73666 0.41182
 H263 H 0.04620 0.57250 0.25362
 H264 H 0.04997 0.67206 0.14976
   
