data_POSCAR
  _audit_creation_date              2014-09-24
  _audit_creation_method            'ToBaCCo'
  _symmetry_space_group_name_H-M    'P1'
  _symmetry_Int_Tables_number       1
  _symmetry_cell_setting            triclinic
  loop_
  _symmetry_equiv_pos_as_xyz
 x,y,z
_cell_length_a 24.3491
_cell_length_b 22.2310
_cell_length_c 74.5310
_cell_angle_alpha 88.704800
_cell_angle_beta 90.527800
_cell_angle_gamma 121.555400
loop_
  _atom_site_label
  _atom_site_type_symbol
  _atom_site_fract_x
  _atom_site_fract_y
  _atom_site_fract_z
C1 C -0.02509 0.11214 0.51393
 H2 H 0.00838 0.14681 0.50372
 C3 C -0.04387 0.14058 0.52734
 H4 H -0.02503 0.19681 0.52707
 C5 C -0.08571 -0.00174 0.52752
 H6 H -0.10003 -0.05676 0.52777
 C7 C -0.10489 0.02471 0.54137
 H8 H -0.13474 -0.01064 0.55212
 N9 N -0.04510 0.04240 0.51445
 C10 C 0.00918 -0.10178 0.51387
 H11 H -0.02252 -0.13332 0.50322
 C12 C 0.02517 -0.13437 0.52739
 H13 H 0.00604 -0.19054 0.52675
 C14 C 0.06791 0.00805 0.52840
 H15 H 0.08253 0.06306 0.52895
 C16 C 0.08433 -0.02266 0.54235
 H17 H 0.11237 0.00948 0.55349
 Zn18 Zn -0.00627 0.00742 0.49945
 N19 N 0.02951 -0.03212 0.51480
 C20 C 0.11923 0.09964 0.48405
 N21 N 0.05616 0.08012 0.48443
 C22 C 0.03149 0.10520 0.47202
 C23 C 0.07001 0.15031 0.45820
 C24 C 0.15979 0.14494 0.47034
 C25 C -0.12899 -0.08258 0.48261
 C26 C -0.16706 -0.12571 0.46860
 C27 C -0.07363 -0.12422 0.45722
 C28 C -0.03788 -0.08158 0.47135
 N29 N -0.06552 -0.06103 0.48355
 H30 H 0.13734 0.07771 0.49386
 H31 H -0.01916 0.08760 0.47247
 H32 H 0.04849 0.16791 0.44825
 H33 H 0.20933 0.15817 0.46983
 H34 H -0.14957 -0.06445 0.49233
 H35 H -0.21715 -0.14085 0.46795
 H36 H -0.04907 -0.13809 0.44764
 H37 H 0.01299 -0.06268 0.47232
 C38 C 0.06125 -0.09531 0.54221
 C39 C -0.08237 0.09720 0.54165
 C40 C -0.13913 -0.14595 0.45530
 C41 C 0.13470 0.16944 0.45693
 C42 C 1.10162 0.06381 0.13736
 H43 H 1.08438 0.09987 0.13702
 C44 C 1.14424 0.06921 0.12425
 H45 H 1.15973 0.11009 0.11395
 C46 C 1.10019 -0.03422 0.15109
 H47 H 1.08171 -0.07511 0.16143
 C48 C 1.14339 -0.03057 0.13814
 H49 H 1.15802 -0.06894 0.13862
 N50 N 1.08018 0.01261 0.15036
 C51 C 0.93261 0.05259 0.14968
 H52 H 0.94912 0.09224 0.15987
 C53 C 0.88940 0.04833 0.13644
 H54 H 0.87283 0.08500 0.13653
 C55 C 0.93553 -0.04212 0.13674
 H56 H 0.95415 -0.07692 0.13689
 C57 C 0.89314 -0.04792 0.12333
 H58 H 0.87933 -0.08773 0.11327
 Zn59 Zn 1.01671 0.00981 0.16538
 N60 N 0.95460 0.00753 0.14952
 C61 C 1.02066 0.09528 0.19349
 N62 N 1.05565 0.09041 0.18010
 C63 C 1.12018 0.13727 0.17861
 C64 C 1.15238 0.19005 0.19118
 C65 C 1.05119 0.14698 0.20653
 C66 C 0.91206 -0.11879 0.17876
 C67 C 0.87827 -0.17183 0.19168
 C68 C 0.97726 -0.12833 0.20825
 C69 C 1.00947 -0.07638 0.19484
 N70 N 0.97625 -0.07150 0.18069
 H71 H 0.96959 0.05670 0.19457
 H72 H 1.14774 0.13198 0.16820
 H73 H 1.20411 0.22491 0.18999
 H74 H 1.02295 0.14813 0.21750
 H75 H 0.88591 -0.11359 0.16769
 H76 H 0.82678 -0.20695 0.19011
 H77 H 1.00399 -0.12938 0.21982
 H78 H 1.06027 -0.03750 0.19623
 C79 C 0.86984 -0.00203 0.12291
 C80 C 1.16511 0.02114 0.12432
 C81 C 0.91033 -0.17575 0.20699
 C82 C 1.11831 0.19413 0.20571
 C83 C 0.02807 0.93247 0.86629
 H84 H -0.02341 0.89520 0.86634
 C85 C 0.06614 0.92809 0.87962
 H86 H 0.04332 0.88685 0.88984
 C87 C 0.11919 1.03206 0.85289
 H88 H 0.13907 1.07292 0.84254
 C89 C 0.15954 1.02932 0.86603
 H90 H 0.21063 1.06846 0.86573
 N91 N 0.05471 0.98403 0.85338
 C92 C -0.13225 0.94032 0.85308
 H93 H -0.15384 0.89871 0.84338
 C94 C -0.17097 0.94595 0.86596
 H95 H -0.22242 0.90832 0.86594
 C96 C -0.03878 1.03843 0.86521
 H97 H 0.01297 1.07399 0.86491
 C98 C -0.07508 1.04570 0.87827
 H99 H -0.05007 1.08753 0.88784
 Zn100 Zn -0.00706 0.98363 0.83780
 N101 N -0.06739 0.98646 0.85300
 C102 C -0.08761 0.89007 0.81081
 N103 N -0.04238 0.90232 0.82346
 C104 C -0.01074 0.86685 0.82350
 C105 C -0.02031 0.82114 0.80973
 C106 C -0.09956 0.84345 0.79687
 C107 C 0.01062 1.11052 0.82268
 C108 C 0.02349 1.15817 0.80850
 C109 C 0.07499 1.10714 0.79263
 C110 C 0.06214 1.06121 0.80729
 N111 N 0.02857 1.06213 0.82166
 H112 H -0.11067 0.92050 0.81074
 H113 H 0.02626 0.87840 0.83329
 H114 H 0.00855 0.79711 0.80933
 H115 H -0.13248 0.83754 0.78622
 H116 H -0.01723 1.10970 0.83396
 H117 H 0.00594 1.19385 0.80928
 H118 H 0.09860 1.10301 0.78090
 H119 H 0.07491 1.02144 0.80667
 C120 C -0.14225 0.99879 0.87900
 C121 C 0.13270 0.97729 0.87978
 C122 C 0.05365 1.15488 0.79291
 C123 C -0.06331 0.81110 0.79588
 C124 C 0.35864 -0.00292 0.00185
 C125 C 0.38104 -0.01308 -0.01433
 C126 C 0.43783 -0.01469 -0.01443
 C127 C 0.47440 -0.00330 0.00140
 C128 C 0.45084 0.00804 0.01748
 C129 C 0.39276 0.00700 0.01780
 C130 C 0.53663 -0.00273 0.00109
 C131 C 0.56431 -0.01039 0.01713
 C132 C 0.62310 -0.00788 0.01692
 C133 C 0.65371 -0.00032 0.00051
 C134 C 0.62696 0.00571 -0.01560
 C135 C 0.56947 0.00581 -0.01524
 H136 H 0.31429 -0.00261 0.00201
 H137 H 0.45180 -0.02652 -0.02694
 H138 H 0.47772 0.01973 0.02982
 H139 H 0.54024 -0.02004 0.02989
 H140 H 0.69869 0.00071 0.00023
 H141 H 0.55226 0.01460 -0.02783
 C142 C -0.00197 0.65603 0.66812
 C143 C -0.02605 0.61228 0.68346
 C144 C -0.03840 0.54329 0.68303
 C145 C -0.02446 0.51846 0.66756
 C146 C -0.00152 0.56268 0.65214
 C147 C 0.00889 0.63113 0.65221
 C148 C -0.03095 0.44794 0.66774
 C149 C -0.05066 0.40650 0.65229
 C150 C -0.05326 0.34186 0.65210
 C151 C -0.03703 0.31806 0.66772
 C152 C -0.01750 0.35838 0.68332
 C153 C -0.01456 0.42319 0.68318
 H154 H 0.00670 0.70902 0.66853
 H155 H -0.05714 0.50980 0.69495
 H156 H 0.00983 0.54456 0.64017
 H157 H -0.06420 0.42445 0.64038
 H158 H -0.03871 0.26841 0.66765
 H159 H 0.00260 0.45556 0.69497
 C160 C 0.67642 0.63101 0.33019
 C161 C 0.64742 0.59843 0.31398
 C162 C 0.58032 0.55071 0.31356
 C163 C 0.54190 0.53803 0.32892
 C164 C 0.57222 0.57492 0.34467
 C165 C 0.63933 0.61962 0.34559
 C166 C 0.47058 0.48636 0.32879
 C167 C 0.43841 0.45033 0.34476
 C168 C 0.37124 0.40534 0.34531
 C169 C 0.33601 0.39285 0.32942
 C170 C 0.36693 0.42460 0.31307
 C171 C 0.43402 0.47261 0.31294
 H172 H 0.72808 0.66725 0.33071
 H173 H 0.55852 0.52311 0.30130
 H174 H 0.54379 0.56876 0.35641
 H175 H 0.46545 0.45730 0.35693
 H176 H 0.28434 0.35640 0.32970
 H177 H 0.45728 0.49952 0.30049
 C178 C -0.09645 0.19217 0.58792
 N179 N -0.11251 0.12376 0.58841
 N180 N -0.11079 0.09263 0.57354
 C181 C -0.09267 0.12875 0.55760
 N182 N -0.07772 0.19685 0.55709
 N183 N -0.07974 0.22790 0.57194
 C184 C -0.09132 0.22878 0.60458
 N185 N -0.07700 0.29658 0.60408
 N186 N -0.06669 0.33184 0.61920
 C187 C -0.06982 0.30088 0.63540
 N188 N -0.08489 0.23274 0.63586
 N189 N -0.09552 0.19735 0.62076
 C190 C 0.80099 0.70023 0.25119
 N191 N 0.77292 0.69363 0.23496
 N192 N 0.80816 0.73085 0.22076
 C193 C 0.87286 0.77616 0.22219
 N194 N 0.90105 0.78147 0.23838
 N195 N 0.86580 0.74429 0.25259
 C196 C 0.76128 0.66640 0.26730
 N197 N 0.78895 0.68042 0.28376
 N198 N 0.75273 0.65656 0.29852
 C199 C 0.68735 0.61767 0.29747
 N200 N 0.65974 0.60237 0.28096
 N201 N 0.69600 0.62638 0.26616
 C202 C 0.24195 -0.02749 -0.07693
 N203 N 0.27190 0.01020 -0.09212
 N204 N 0.23755 0.01166 -0.10601
 C205 C 0.17205 -0.02481 -0.10523
 N206 N 0.14254 -0.06272 -0.09006
 N207 N 0.17671 -0.06383 -0.07619
 C208 C 0.27853 -0.02673 -0.06108
 N209 N 0.24778 -0.05166 -0.04510
 N210 N 0.28031 -0.04851 -0.03036
 C211 C 0.34487 -0.02097 -0.03103
 N212 N 0.37565 0.00307 -0.04710
 N213 N 0.34309 0.00049 -0.06186
 C214 C 0.06590 0.79631 0.58840
 N215 N 0.04962 0.76415 0.57231
 N216 N 0.05067 0.79942 0.55749
 C217 C 0.06830 0.86831 0.55817
 N218 N 0.08599 0.90079 0.57424
 N219 N 0.08471 0.86547 0.58907
 C220 C 0.05730 0.75528 0.60499
 N221 N 0.06272 0.78428 0.62123
 N222 N 0.04888 0.74529 0.63624
 C223 C 0.02919 0.67578 0.63563
 N224 N 0.02482 0.64718 0.61936
 N225 N 0.03841 0.68609 0.60434
 C226 C 0.22164 0.31905 0.24945
 N227 N 0.15670 0.27478 0.25046
 N228 N 0.12340 0.23722 0.23634
 C229 C 0.15374 0.24233 0.22066
 N230 N 0.21858 0.28780 0.21961
 N231 N 0.25187 0.32542 0.23370
 C232 C 0.25915 0.35361 0.26561
 N233 N 0.32452 0.39416 0.26494
 N234 N 0.35881 0.41907 0.27993
 C235 C 0.32909 0.40419 0.29618
 N236 N 0.26363 0.36471 0.29673
 N237 N 0.22936 0.33995 0.28177
 C238 C 0.75476 0.01178 -0.07915
 N239 N 0.81955 0.05538 -0.08026
 N240 N 0.85216 0.05181 -0.09397
 C241 C 0.82168 0.00404 -0.10712
 N242 N 0.75645 -0.03935 -0.10607
 N243 N 0.72359 -0.03545 -0.09236
 C244 C 0.72064 0.01328 -0.06319
 N245 N 0.65532 -0.02029 -0.06264
 N246 N 0.62535 -0.02092 -0.04767
 C247 C 0.65962 0.01138 -0.03270
 N248 N 0.72485 0.04518 -0.03335
 N249 N 0.75474 0.04646 -0.04833
 C250 C 0.27640 0.02563 0.08104
 N251 N 0.24727 0.06349 0.08047
 N252 N 0.21309 0.06268 0.09437
 C253 C 0.20611 0.02363 0.10940
 N254 N 0.23554 -0.01420 0.11003
 N255 N 0.27020 -0.01309 0.09610
 C256 C 0.31035 0.02399 0.06505
 N257 N 0.34729 -0.00530 0.06556
 N258 N 0.37524 -0.00895 0.05064
 C259 C 0.36677 0.01601 0.03469
 N260 N 0.33020 0.04566 0.03429
 N261 N 0.30285 0.04988 0.04918
 C262 C 0.76288 0.74945 0.41056
 N263 N 0.73268 0.76333 0.42359
 N264 N 0.76428 0.79672 0.43838
 C265 C 0.82726 0.81733 0.44076
 N266 N 0.85665 0.80219 0.42771
 N267 N 0.82529 0.76921 0.41294
 C268 C 0.72995 0.71541 0.39386
 N269 N 0.76400 0.71118 0.38016
 N270 N 0.73518 0.68120 0.36484
 C271 C 0.67105 0.65399 0.36260
 N272 N 0.63690 0.65805 0.37637
 N273 N 0.66584 0.68845 0.39169
 C274 C 0.04377 0.25672 0.74606
 N275 N 0.05758 0.20509 0.74516
 N276 N 0.06354 0.17484 0.76009
 C277 C 0.05575 0.19489 0.77649
 N278 N 0.04297 0.24739 0.77734
 N279 N 0.03732 0.27788 0.76243
 C280 C 0.03143 0.28564 0.72966
 N281 N 0.02044 0.33939 0.73052
 N282 N 0.00560 0.36296 0.71579
 C283 C 0.00064 0.33334 0.69964
 N284 N 0.01192 0.27971 0.69881
 N285 N 0.02705 0.25634 0.71353
 C286 C 0.75383 -0.01220 0.07963
 N287 N 0.78685 -0.04580 0.07924
 N288 N 0.82286 -0.04290 0.09310
 C289 C 0.82783 -0.00589 0.10790
 N290 N 0.79467 0.02784 0.10832
 N291 N 0.75819 0.02462 0.09445
 C292 C 0.71687 -0.01368 0.06379
 N293 N 0.67662 0.01141 0.06420
 N294 N 0.64532 0.01166 0.04943
 C295 C 0.65353 -0.01268 0.03371
 N296 N 0.69348 -0.03808 0.03343
 N297 N 0.72426 -0.03886 0.04818
 C298 C 0.24050 0.27730 0.41063
 N299 N 0.17719 0.25514 0.41205
 N300 N 0.14436 0.22236 0.42692
 C301 C 0.17332 0.21017 0.44099
 N302 N 0.23695 0.23276 0.43961
 N303 N 0.27000 0.26592 0.42472
 C304 C 0.27523 0.31104 0.39386
 N305 N 0.33981 0.33950 0.39247
 N306 N 0.37044 0.36945 0.37707
 C307 C 0.33760 0.37159 0.36245
 N308 N 0.27300 0.34292 0.36391
 N309 N 0.24247 0.31335 0.37930
 C310 C -0.05471 0.72031 0.74824
 N311 N -0.11271 0.70477 0.75481
 N312 N -0.11615 0.73311 0.77005
 C313 C -0.06175 0.77679 0.77938
 N314 N -0.00408 0.79158 0.77283
 N315 N -0.00057 0.76429 0.75750
 C316 C -0.04926 0.69222 0.73118
 N317 N 0.00487 0.73002 0.72108
 N318 N 0.01159 0.70480 0.70578
 C319 C -0.03512 0.64024 0.70015
 N320 N -0.08925 0.60206 0.71030
 N321 N -0.09644 0.62786 0.72549
   
