data_POSCAR
  _audit_creation_date              2014-09-24
  _audit_creation_method            'ToBaCCo'
  _symmetry_space_group_name_H-M    'P1'
  _symmetry_Int_Tables_number       1
  _symmetry_cell_setting            triclinic
  loop_
  _symmetry_equiv_pos_as_xyz
 x,y,z
_cell_length_a 21.0680
_cell_length_b 21.3493
_cell_length_c 31.4937
_cell_angle_alpha 90.000000
_cell_angle_beta 89.797500
_cell_angle_gamma 90.000100
loop_
  _atom_site_label
  _atom_site_type_symbol
  _atom_site_fract_x
  _atom_site_fract_y
  _atom_site_fract_z
O1 O 0.10837 0.03437 0.05239
 O2 O -0.10842 -0.03086 0.05290
 O3 O -0.03282 0.10871 0.05284
 O4 O 0.03272 -0.10526 0.05271
 O5 O -0.12057 0.07434 0.03001
 O6 O 0.12056 -0.07069 0.02953
 O7 O -0.07379 -0.11722 0.02931
 O8 O 0.07372 0.12079 0.02910
 C9 C 0.10048 0.09088 0.05802
 C10 C -0.10053 -0.08741 0.05840
 C11 C -0.09028 0.10147 0.05877
 C12 C 0.09004 -0.09759 0.05836
 O13 O 0.10843 -0.03086 -0.05283
 O14 O -0.10836 0.03438 -0.05231
 O15 O 0.03284 0.10870 -0.05277
 O16 O -0.03271 -0.10527 -0.05264
 O17 O -0.12054 -0.07069 -0.02946
 O18 O 0.12059 0.07434 -0.02994
 O19 O 0.07380 -0.11722 -0.02923
 O20 O -0.07371 0.12079 -0.02903
 Co21 Co 0.10351 0.00179 -0.00020
 Co22 Co -0.10350 0.00179 0.00027
 Co23 Co 0.00001 0.10392 0.00004
 Co24 Co 0.00001 -0.10042 0.00004
 O25 O 0.00001 0.00176 0.00004
 C26 C 0.10054 -0.08742 -0.05833
 C27 C -0.10047 0.09089 -0.05795
 C28 C 0.09029 0.10146 -0.05870
 C29 C -0.09002 -0.09759 -0.05828
 O30 O 0.42592 0.37959 0.47147
 O31 O 0.57415 0.61822 0.47128
 O32 O 0.37978 0.57105 0.47003
 O33 O 0.62032 0.42679 0.46957
 O34 O 0.46780 0.60596 0.44723
 O35 O 0.53241 0.39173 0.44711
 O36 O 0.60835 0.53206 0.44730
 O37 O 0.39169 0.46587 0.44781
 C38 C 0.39925 0.40927 0.44243
 C39 C 0.60080 0.58868 0.44206
 C40 C 0.41055 0.59804 0.44134
 C41 C 0.58965 0.39975 0.44100
 O42 O 0.57409 0.37959 0.52860
 O43 O 0.42586 0.61822 0.52879
 O44 O 0.37970 0.42679 0.53050
 O45 O 0.62024 0.57106 0.53005
 O46 O 0.53221 0.60596 0.55285
 O47 O 0.46761 0.39172 0.55296
 O48 O 0.60832 0.46587 0.55226
 O49 O 0.39167 0.53206 0.55277
 Co50 Co 0.50001 0.39656 0.50004
 Co51 Co 0.50001 0.60119 0.50004
 Co52 Co 0.39660 0.49895 0.50027
 Co53 Co 0.60342 0.49895 0.49981
 O54 O 0.50001 0.49890 0.50004
 C55 C 0.60077 0.40928 0.55764
 C56 C 0.39921 0.58868 0.55801
 C57 C 0.41036 0.39975 0.55907
 C58 C 0.58946 0.59804 0.55874
 C59 C 0.18754 0.11638 0.16136
 C60 C 0.18095 0.18104 0.16687
 C61 C 0.14695 0.21631 0.13714
 C62 C 0.12015 0.18703 0.10173
 C63 C 0.12725 0.12215 0.09574
 C64 C 0.16083 0.08705 0.12608
 C65 C 0.20996 0.21100 0.20277
 C66 C 0.23487 0.23545 0.23288
 C67 C 0.26428 0.26382 0.26811
 C68 C 0.28921 0.28834 0.29818
 C69 C 0.31828 0.31846 0.33400
 C70 C 0.31191 0.38319 0.33927
 C71 C 0.33876 0.41272 0.37442
 C72 C 0.37227 0.37776 0.40488
 C73 C 0.37911 0.31280 0.39913
 C74 C 0.35217 0.28332 0.36385
 H75 H 0.21368 0.08866 0.18421
 H76 H 0.14150 0.26642 0.14119
 H77 H 0.09425 0.21511 0.07899
 H78 H 0.16688 0.03694 0.12241
 H79 H 0.28586 0.41081 0.31632
 H80 H 0.33290 0.46287 0.37790
 H81 H 0.40495 0.28483 0.42197
 H82 H 0.35745 0.23316 0.35999
 C83 C 0.81203 0.88600 0.16191
 C84 C 0.81898 0.82133 0.16718
 C85 C 0.85336 0.78649 0.13727
 C86 C 0.88017 0.81617 0.10192
 C87 C 0.87271 0.88105 0.09614
 C88 C 0.83877 0.91576 0.12666
 C89 C 0.78994 0.79083 0.20299
 C90 C 0.76506 0.76573 0.23297
 C91 C 0.73570 0.73654 0.26804
 C92 C 0.71081 0.71137 0.29799
 C93 C 0.68172 0.68068 0.33372
 C94 C 0.68841 0.61593 0.33870
 C95 C 0.66155 0.58595 0.37382
 C96 C 0.62775 0.62050 0.40449
 C97 C 0.62057 0.68546 0.39901
 C98 C 0.64750 0.71538 0.36378
 H99 H 0.78558 0.91339 0.18491
 H100 H 0.85909 0.73638 0.14114
 H101 H 0.90636 0.78839 0.07903
 H102 H 0.83245 0.96585 0.12315
 H103 H 0.71472 0.58865 0.31557
 H104 H 0.66766 0.53580 0.37711
 H105 H 0.59450 0.71313 0.42202
 H106 H 0.64198 0.76554 0.36014
 C107 C 0.85306 0.21631 0.86293
 C108 C 0.81905 0.18104 0.83321
 C109 C 0.81246 0.11638 0.83872
 C110 C 0.83917 0.08705 0.87400
 C111 C 0.87276 0.12215 0.90434
 C112 C 0.87986 0.18703 0.89834
 C113 C 0.79004 0.21100 0.79730
 C114 C 0.76514 0.23546 0.76720
 C115 C 0.73572 0.26382 0.73197
 C116 C 0.71079 0.28834 0.70190
 C117 C 0.68173 0.31846 0.66607
 C118 C 0.64783 0.28332 0.63622
 C119 C 0.62089 0.31281 0.60094
 C120 C 0.62774 0.37776 0.59520
 C121 C 0.66125 0.41272 0.62565
 C122 C 0.68810 0.38319 0.66081
 H123 H 0.85851 0.26642 0.85888
 H124 H 0.78631 0.08866 0.81587
 H125 H 0.83312 0.03695 0.87767
 H126 H 0.90577 0.21511 0.92108
 H127 H 0.64255 0.23317 0.64009
 H128 H 0.59506 0.28484 0.57810
 H129 H 0.66711 0.46288 0.62218
 H130 H 0.71415 0.41081 0.68376
 C131 C 0.14665 0.78648 0.86280
 C132 C 0.18102 0.82133 0.83289
 C133 C 0.18797 0.88600 0.83816
 C134 C 0.16123 0.91575 0.87341
 C135 C 0.12730 0.88105 0.90394
 C136 C 0.11984 0.81617 0.89816
 C137 C 0.21007 0.79083 0.79708
 C138 C 0.23495 0.76573 0.76710
 C139 C 0.26431 0.73654 0.73203
 C140 C 0.28920 0.71137 0.70208
 C141 C 0.31829 0.68068 0.66636
 C142 C 0.35250 0.71538 0.63629
 C143 C 0.37943 0.68546 0.60106
 C144 C 0.37226 0.62050 0.59558
 C145 C 0.33846 0.58595 0.62626
 C146 C 0.31161 0.61593 0.66137
 H147 H 0.14092 0.73638 0.85894
 H148 H 0.21442 0.91339 0.81516
 H149 H 0.16756 0.96585 0.87692
 H150 H 0.09365 0.78838 0.92104
 H151 H 0.35803 0.76554 0.63993
 H152 H 0.40550 0.71313 0.57805
 H153 H 0.33236 0.53580 0.62297
 H154 H 0.28529 0.58865 0.68450
 C155 C 0.21523 0.14646 0.86516
 C156 C 0.17962 0.17959 0.83519
 C157 C 0.11397 0.18518 0.84045
 C158 C 0.08396 0.15852 0.87571
 C159 C 0.11929 0.12575 0.90667
 C160 C 0.18545 0.11965 0.90058
 C161 C 0.21025 0.20876 0.79930
 C162 C 0.23524 0.23379 0.76923
 C163 C 0.26419 0.26339 0.73401
 C164 C 0.28906 0.28852 0.70394
 C165 C 0.31940 0.31795 0.66803
 C166 C 0.28366 0.35244 0.63878
 C167 C 0.31319 0.37969 0.60342
 C168 C 0.37888 0.37262 0.59691
 C169 C 0.41449 0.33855 0.62678
 C170 C 0.38489 0.31138 0.66202
 H171 H 0.26612 0.14170 0.86132
 H172 H 0.08589 0.21059 0.81740
 H173 H 0.03301 0.16422 0.87874
 H174 H 0.21452 0.09459 0.92326
 H175 H 0.23293 0.35793 0.64315
 H176 H 0.28465 0.40590 0.58108
 H177 H 0.46520 0.33245 0.62275
 H178 H 0.41307 0.28491 0.68446
 C179 C 0.88432 0.81397 0.83897
 C180 C 0.81874 0.82008 0.83352
 C181 C 0.78296 0.85429 0.86307
 C182 C 0.81258 0.88172 0.89819
 C183 C 0.87837 0.87511 0.90415
 C184 C 0.91399 0.84132 0.87397
 C185 C 0.78837 0.79043 0.79786
 C186 C 0.76359 0.76506 0.76797
 C187 C 0.73487 0.73511 0.73295
 C188 C 0.71016 0.70975 0.70304
 C189 C 0.67998 0.68011 0.66731
 C190 C 0.61448 0.68645 0.66158
 C191 C 0.58502 0.65916 0.62647
 C192 C 0.62079 0.62521 0.59646
 C193 C 0.68649 0.61834 0.60270
 C194 C 0.71589 0.64571 0.63792
 H195 H 0.91250 0.78771 0.81629
 H196 H 0.73217 0.85941 0.85912
 H197 H 0.78403 0.90772 0.92078
 H198 H 0.96477 0.83558 0.87758
 H199 H 0.58619 0.71286 0.68412
 H200 H 0.53430 0.66511 0.62264
 H201 H 0.71515 0.59221 0.58024
 H202 H 0.76662 0.64040 0.64209
 C203 C 0.21705 0.85428 0.13700
 C204 C 0.18128 0.82008 0.16656
 C205 C 0.11570 0.81398 0.16111
 C206 C 0.08603 0.84133 0.12610
 C207 C 0.12164 0.87511 0.09593
 C208 C 0.18743 0.88172 0.10188
 C209 C 0.21164 0.79043 0.20222
 C210 C 0.23642 0.76506 0.23210
 C211 C 0.26514 0.73511 0.26712
 C212 C 0.28985 0.70975 0.29704
 C213 C 0.32004 0.68011 0.33277
 C214 C 0.28413 0.64571 0.36215
 C215 C 0.31352 0.61834 0.39738
 C216 C 0.37923 0.62521 0.40362
 C217 C 0.41499 0.65916 0.37361
 C218 C 0.38554 0.68645 0.33850
 H219 H 0.26785 0.85940 0.14095
 H220 H 0.08751 0.78773 0.18379
 H221 H 0.03524 0.83559 0.12250
 H222 H 0.21599 0.90770 0.07929
 H223 H 0.23339 0.64040 0.35799
 H224 H 0.28486 0.59222 0.41983
 H225 H 0.46572 0.66511 0.37743
 H226 H 0.41383 0.71286 0.31595
 C227 C 0.78479 0.14646 0.13491
 C228 C 0.82040 0.17960 0.16488
 C229 C 0.88605 0.18519 0.15962
 C230 C 0.91605 0.15854 0.12436
 C231 C 0.88073 0.12576 0.09340
 C232 C 0.81456 0.11965 0.09949
 C233 C 0.78977 0.20876 0.20078
 C234 C 0.76477 0.23379 0.23084
 C235 C 0.73582 0.26340 0.26606
 C236 C 0.71095 0.28853 0.29613
 C237 C 0.68061 0.31795 0.33204
 C238 C 0.71636 0.35244 0.36129
 C239 C 0.68682 0.37969 0.39665
 C240 C 0.62113 0.37263 0.40316
 C241 C 0.58553 0.33855 0.37330
 C242 C 0.61512 0.31138 0.33805
 H243 H 0.73389 0.14170 0.13875
 H244 H 0.91412 0.21061 0.18267
 H245 H 0.96700 0.16423 0.12133
 H246 H 0.78550 0.09459 0.07681
 H247 H 0.76708 0.35794 0.35692
 H248 H 0.71537 0.40591 0.41899
 H249 H 0.53481 0.33245 0.37733
 H250 H 0.58695 0.28490 0.31561
   
