data_POSCAR
  _audit_creation_date              2014-09-24
  _audit_creation_method            'ToBaCCo'
  _symmetry_space_group_name_H-M    'P1'
  _symmetry_Int_Tables_number       1
  _symmetry_cell_setting            triclinic
  loop_
  _symmetry_equiv_pos_as_xyz
 x,y,z
_cell_length_a 36.6914
_cell_length_b 36.6849
_cell_length_c 36.6811
_cell_angle_alpha 90.388800
_cell_angle_beta 90.148500
_cell_angle_gamma 90.395300
loop_
  _atom_site_label
  _atom_site_type_symbol
  _atom_site_fract_x
  _atom_site_fract_y
  _atom_site_fract_z
N1 N 0.16928 1.16941 0.16940
 N2 N 0.76572 0.76654 0.24555
 N3 N 0.76728 1.24481 -0.23273
 N4 N 0.24587 0.76618 -0.23446
 C5 C 0.56549 1.05609 -0.00991
 H6 H 0.56541 1.05713 0.01957
 C7 C 0.58868 1.07908 -0.02950
 H8 H 0.60648 1.09801 -0.01513
 C9 C 0.54290 1.02975 -0.06480
 H10 H 0.52553 1.01009 -0.07847
 C11 C 0.56565 1.05222 -0.08540
 H12 H 0.56544 1.05003 -0.11487
 N13 N 0.54295 1.03231 -0.02775
 C14 C 0.45423 1.00903 0.04751
 H15 H 0.45553 0.97958 0.04768
 C16 C 0.42656 1.02684 0.06643
 H17 H 0.40653 1.01111 0.08136
 C18 C 0.47780 1.06549 0.02654
 H19 H 0.49725 1.08037 0.01024
 C20 C 0.45047 1.08441 0.04508
 H21 H 0.44914 1.11383 0.04325
 Zn22 Zn 0.51298 1.00122 0.00045
 N23 N 0.47915 1.02845 0.02812
 C24 C 0.53996 0.97543 0.06825
 N25 N 0.54370 0.97390 0.03135
 C26 C 0.57024 0.95354 0.01548
 C27 C 0.59372 0.93281 0.03689
 C28 C 0.56289 0.95512 0.09066
 C29 C 0.45992 0.98600 -0.05205
 C30 C 0.43703 0.96476 -0.07413
 C31 C 0.46588 0.91076 -0.05052
 C32 C 0.48829 0.93303 -0.02885
 N33 N 0.48508 0.96996 -0.03018
 H34 H 0.51933 0.99243 0.08041
 H35 H 0.57296 0.95327 -0.01388
 H36 H 0.61456 0.91640 0.02404
 H37 H 0.55960 0.95627 0.11998
 H38 H 0.45751 1.01538 -0.05205
 H39 H 0.41700 0.97778 -0.09135
 H40 H 0.46840 0.88140 -0.04921
 H41 H 0.50776 0.92075 -0.01064
 C42 C 0.42454 1.06484 0.06502
 C43 C 0.58869 1.07713 -0.06760
 C44 C 0.44000 0.92681 -0.07330
 C45 C 0.58988 0.93351 0.07481
 C46 C -0.00990 0.56451 1.05530
 H47 H 0.01957 0.56453 1.05627
 C48 C -0.02950 0.58771 1.07827
 H49 H -0.01515 0.60560 1.09711
 C50 C -0.06474 0.54167 1.02914
 H51 H -0.07839 0.52420 1.00955
 C52 C -0.08535 0.56443 1.05159
 H53 H -0.11481 0.56412 1.04946
 N54 N -0.02771 0.54185 1.03161
 C55 C 0.04755 0.45335 1.00837
 H56 H 0.04778 0.45459 0.97891
 C57 C 0.06644 0.42581 1.02621
 H58 H 0.08141 0.40581 1.01048
 C59 C 0.02649 0.47696 1.06483
 H60 H 0.01016 0.49638 1.07969
 C61 C 0.04499 0.44977 1.08377
 H62 H 0.04311 0.44849 1.11320
 Zn63 Zn 0.00053 0.51191 1.00053
 N64 N 0.02813 0.47824 1.02777
 C65 C 0.06837 0.53912 0.97453
 N66 N 0.03149 0.54270 0.97308
 C67 C 0.01567 0.56915 0.95271
 C68 C 0.03712 0.59272 0.93191
 C69 C 0.09082 0.56214 0.95417
 C70 C -0.05196 0.45862 0.98552
 C71 C -0.07399 0.43560 0.96436
 C72 C -0.05024 0.46443 0.91026
 C73 C -0.02862 0.48697 0.93245
 N74 N -0.03004 0.48383 0.96938
 H75 H 0.08050 0.51856 0.99154
 H76 H -0.01369 0.57174 0.95250
 H77 H 0.02430 0.61349 0.91551
 H78 H 0.12014 0.55899 0.95527
 H79 H -0.05204 0.45627 1.01490
 H80 H -0.09126 0.41553 0.97745
 H81 H -0.04884 0.46690 0.88088
 H82 H -0.01036 0.50648 0.92008
 C83 C 0.06497 0.42387 1.06421
 C84 C -0.06758 0.58759 1.07639
 C85 C -0.07307 0.43849 0.92640
 C86 C 0.07502 0.58905 0.93255
 C87 C 1.05542 -0.00946 0.56540
 H88 H 1.05647 0.02002 0.56548
 C89 C 1.07843 -0.02909 0.58835
 H90 H 1.09739 -0.01476 0.60612
 C91 C 1.02902 -0.06429 0.54264
 H92 H 1.00932 -0.07792 0.52529
 C93 C 1.05150 -0.08493 0.56514
 H94 H 1.04930 -0.11440 0.56476
 N95 N 1.03160 -0.02725 0.54289
 C96 C 1.00834 0.04812 0.45465
 H97 H 0.97890 0.04834 0.45610
 C98 C 1.02616 0.06703 0.42697
 H99 H 1.01043 0.08199 0.40708
 C100 C 1.06478 0.02707 0.47784
 H101 H 1.07964 0.01074 0.49714
 C102 C 1.08369 0.04559 0.45050
 H103 H 1.11311 0.04372 0.44900
 Zn104 Zn 1.00052 0.00102 0.51321
 N105 N 1.02775 0.02869 0.47939
 C106 C 0.97481 0.06880 0.54070
 N107 N 0.97326 0.03190 0.54425
 C108 C 0.95290 0.01602 0.57081
 C109 C 0.93222 0.03742 0.59452
 C110 C 0.95455 0.09120 0.56386
 C111 C 0.98521 -0.05140 0.45995
 C112 C 0.96394 -0.07343 0.43703
 C113 C 0.91000 -0.04981 0.46628
 C114 C 0.93230 -0.02819 0.48871
 N115 N 0.96922 -0.02955 0.48531
 H116 H 0.99181 0.08098 0.52004
 H117 H 0.95262 -0.01334 0.57337
 H118 H 0.91581 0.02455 0.61538
 H119 H 0.95572 0.12052 0.56072
 H120 H 1.01458 -0.05143 0.45739
 H121 H 0.97692 -0.09064 0.41684
 H122 H 0.88064 -0.04847 0.46896
 H123 H 0.92005 -0.00999 0.50834
 C124 C 1.06414 0.06556 0.42474
 C125 C 1.07646 -0.06718 0.58814
 C126 C 0.92600 -0.07257 0.44019
 C127 C 0.93294 0.07534 0.59088
 C128 C 0.15957 0.20464 1.16020
 C129 C 0.15050 0.23491 1.15152
 C130 C 0.13869 0.27035 1.14006
 C131 C 0.15672 0.28811 1.11154
 C132 C 0.14329 0.32101 1.09814
 C133 C 0.11177 0.33626 1.11319
 C134 C 0.09422 0.31892 1.14225
 C135 C 0.10765 0.28603 1.15566
 C136 C 0.09604 0.36819 1.09711
 C137 C 0.08220 0.39407 1.08265
 H138 H 0.18060 0.27611 1.09912
 H139 H 0.15692 0.33405 1.07548
 H140 H 0.06968 0.33035 1.15391
 H141 H 0.09336 0.27239 1.17755
 C142 C -0.21239 0.74385 1.22473
 C143 C -0.19351 0.72416 1.20642
 C144 C -0.17126 0.70075 1.18421
 C145 C -0.13936 0.68560 1.19851
 C146 C -0.11788 0.66277 1.17684
 C147 C -0.12822 0.65503 1.14079
 C148 C -0.16009 0.67024 1.12650
 C149 C -0.18155 0.69305 1.14816
 C150 C -0.10638 0.63135 1.11846
 C151 C -0.08846 0.61144 1.09945
 H152 H -0.13115 0.69139 1.22636
 H153 H -0.09330 0.65114 1.18817
 H154 H -0.16835 0.66441 1.09867
 H155 H -0.20616 0.70463 1.13682
 C156 C -0.21375 0.26896 0.78605
 C157 C -0.19632 0.29119 0.80330
 C158 C -0.17549 0.31755 0.82396
 C159 C -0.18743 0.32868 0.85850
 C160 C -0.16693 0.35391 0.87882
 C161 C -0.13441 0.36813 0.86467
 C162 C -0.12254 0.35711 0.83006
 C163 C -0.14304 0.33187 0.80974
 C164 C -0.11291 0.39340 0.88599
 C165 C -0.09480 0.41420 0.90420
 H166 H -0.21246 0.31774 0.86977
 H167 H -0.17631 0.36218 0.90559
 H168 H -0.09739 0.36786 0.81890
 H169 H -0.13354 0.32341 0.78307
 C170 C 0.22453 0.74373 0.78718
 C171 C 0.20581 0.72425 0.80589
 C172 C 0.18324 0.70111 0.82805
 C173 C 0.14601 0.69734 0.82020
 C174 C 0.12403 0.67478 0.84162
 C175 C 0.13919 0.65588 0.87099
 C176 C 0.17641 0.65968 0.87888
 C177 C 0.19840 0.68226 0.85746
 C178 C 0.11660 0.63246 0.89284
 C179 C 0.09764 0.61274 0.91102
 H180 H 0.13400 0.71180 0.79753
 H181 H 0.09528 0.67202 0.83526
 H182 H 0.18842 0.64518 0.90152
 H183 H 0.22715 0.68498 0.86377
 C184 C 1.16007 0.15979 0.20471
 C185 C 1.15140 0.15079 0.23505
 C186 C 1.13994 0.13905 0.27059
 C187 C 1.11161 0.15717 0.28853
 C188 C 1.09820 0.14379 0.32153
 C189 C 1.11308 0.11225 0.33672
 C190 C 1.14197 0.09461 0.31920
 C191 C 1.15538 0.10798 0.28619
 C192 C 1.09700 0.09658 0.36878
 C193 C 1.08254 0.08277 0.39478
 H194 H 1.09931 0.18107 0.27658
 H195 H 1.07568 0.15750 0.33472
 H196 H 1.15350 0.07005 0.33057
 H197 H 1.17713 0.09362 0.27242
 C198 C 1.22506 -0.21201 0.74294
 C199 C 1.20676 -0.19319 0.72332
 C200 C 1.18457 -0.17103 0.70000
 C201 C 1.19613 -0.13588 0.69047
 C202 C 1.17441 -0.11440 0.66784
 C203 C 1.14108 -0.12801 0.65468
 C204 C 1.12955 -0.16315 0.66422
 C205 C 1.15124 -0.18461 0.68683
 C206 C 1.11867 -0.10608 0.63133
 C207 C 1.09959 -0.08811 0.61169
 H208 H 1.22185 -0.12511 0.70052
 H209 H 1.18359 -0.08727 0.66062
 H210 H 1.10382 -0.17394 0.65419
 H211 H 1.14203 -0.21174 0.69405
 C212 C 0.78546 -0.21340 0.27110
 C213 C 0.80264 -0.19596 0.29330
 C214 C 0.82327 -0.17510 0.31965
 C215 C 0.85712 -0.18772 0.33179
 C216 C 0.87745 -0.16719 0.35697
 C217 C 0.86402 -0.13396 0.37012
 C218 C 0.83009 -0.12141 0.35811
 C219 C 0.80976 -0.14195 0.33292
 C220 C 0.88540 -0.11243 0.39531
 C221 C 0.90368 -0.09431 0.41602
 H222 H 0.86784 -0.21329 0.32167
 H223 H 0.90369 -0.17710 0.36601
 H224 H 0.81949 -0.09571 0.36803
 H225 H 0.78363 -0.13192 0.32367
 C226 C 0.78777 0.22460 0.74603
 C227 C 0.80649 0.20589 0.72650
 C228 C 0.82862 0.18335 0.70330
 C229 C 0.81961 0.14649 0.69814
 C230 C 0.84101 0.12455 0.67553
 C231 C 0.87152 0.13936 0.65798
 C232 C 0.88057 0.17620 0.66318
 C233 C 0.85917 0.19816 0.68581
 C234 C 0.89334 0.11681 0.63448
 C235 C 0.91147 0.09790 0.61468
 H236 H 0.79605 0.13477 0.71155
 H237 H 0.83374 0.09610 0.67168
 H238 H 0.90410 0.18794 0.64972
 H239 H 0.86639 0.22662 0.68962
 C240 C 0.20458 1.16032 0.15968
 C241 C 0.23492 1.15174 0.15061
 C242 C 0.27046 1.14039 0.13878
 C243 C 0.28842 1.11225 0.15699
 C244 C 0.32141 1.09893 0.14355
 C245 C 0.33658 1.11369 0.11184
 C246 C 0.31904 1.14239 0.09410
 C247 C 0.28604 1.15572 0.10754
 C248 C 0.36863 1.09766 0.09611
 C249 C 0.39461 1.08323 0.08227
 H250 H 0.27649 1.10004 0.18102
 H251 H 0.33462 1.07655 0.15733
 H252 H 0.33039 1.15383 0.06942
 H253 H 0.27225 1.17732 0.09311
 C254 C 0.74560 1.22518 -0.21211
 C255 C 0.72567 1.20696 -0.19333
 C256 C 0.70199 1.18489 -0.17123
 C257 C 0.69301 1.19609 -0.13579
 C258 C 0.67007 1.17447 -0.11436
 C259 C 0.65603 1.14158 -0.12830
 C260 C 0.66503 1.13041 -0.16373
 C261 C 0.68796 1.15201 -0.18514
 C262 C 0.63240 1.11925 -0.10641
 C263 C 0.61252 1.10022 -0.08848
 H264 H 0.70374 1.22146 -0.12476
 H265 H 0.66328 1.18336 -0.08700
 H266 H 0.65433 1.10504 -0.17479
 H267 H 0.69475 1.14308 -0.21250
 C268 C 0.27132 0.78603 -0.21440
 C269 C 0.29344 0.80331 -0.19694
 C270 C 0.31968 0.82404 -0.17606
 C271 C 0.32995 0.85905 -0.18731
 C272 C 0.35505 0.87943 -0.16674
 C273 C 0.37001 0.86489 -0.13485
 C274 C 0.35987 0.82982 -0.12368
 C275 C 0.33475 0.80943 -0.14425
 C276 C 0.39516 0.88626 -0.11327
 C277 C 0.41585 0.90453 -0.09510
 H278 H 0.31843 0.87062 -0.21183
 H279 H 0.36264 0.90656 -0.17558
 H280 H 0.37120 0.81835 -0.09902
 H281 H 0.32697 0.78240 -0.13529
 C282 C 0.74348 0.78819 0.22421
 C283 C 0.72417 0.80691 0.20549
 C284 C 0.70121 0.82908 0.18292
 C285 C 0.69680 0.82051 0.14588
 C286 C 0.67441 0.84193 0.12391
 C287 C 0.65634 0.87202 0.13889
 C288 C 0.66079 0.88062 0.17592
 C289 C 0.68319 0.85919 0.19789
 C290 C 0.63306 0.89386 0.11632
 C291 C 0.61346 0.91201 0.09739
 H292 H 0.71061 0.79729 0.13403
 H293 H 0.67114 0.83502 0.09532
 H294 H 0.64692 0.90381 0.18778
 H295 H 0.68642 0.86606 0.22650
   
