data_POSCAR
  _audit_creation_date              2014-09-24
  _audit_creation_method            'ToBaCCo'
  _symmetry_space_group_name_H-M    'P1'
  _symmetry_Int_Tables_number       1
  _symmetry_cell_setting            triclinic
  loop_
  _symmetry_equiv_pos_as_xyz
 x,y,z
_cell_length_a 24.6624
_cell_length_b 24.6598
_cell_length_c 24.6597
_cell_angle_alpha 90.000000
_cell_angle_beta 90.000000
_cell_angle_gamma 90.000000
loop_
  _atom_site_label
  _atom_site_type_symbol
  _atom_site_fract_x
  _atom_site_fract_y
  _atom_site_fract_z
C1 C 0.25000 0.50000 1.00000
 C2 C 0.75000 0.50000 -0.00000
 C3 C 0.00000 0.25003 0.50000
 C4 C 1.00000 0.74997 0.50000
 C5 C 0.50000 0.00001 0.24997
 C6 C 0.50000 -0.00001 0.75003
 C7 C 0.33224 0.04259 0.43566
 H8 H 0.33209 0.07386 0.46642
 C9 C 0.37068 0.04394 0.39419
 H10 H 0.40022 0.07644 0.39286
 C11 C 0.29564 -0.03949 0.40126
 H12 H 0.26730 -0.07266 0.40504
 C13 C 0.33356 -0.03971 0.35909
 H14 H 0.33407 -0.07285 0.33026
 N15 N 0.29580 0.00128 0.43853
 C16 C 0.16777 0.06434 0.54259
 H17 H 0.16791 0.03358 0.57386
 C18 C 0.12932 0.10581 0.54394
 H19 H 0.09979 0.10714 0.57644
 C20 C 0.20436 0.09874 0.46051
 H21 H 0.23270 0.09495 0.42734
 C22 C 0.16644 0.14091 0.46029
 H23 H 0.16594 0.16974 0.42714
 Zn24 Zn 0.25000 -0.00000 0.50000
 N25 N 0.20420 0.06147 0.50128
 C26 C 0.29564 0.03949 0.59874
 N27 N 0.29580 -0.00128 0.56147
 C28 C 0.33224 -0.04259 0.56434
 C29 C 0.37068 -0.04394 0.60581
 C30 C 0.33356 0.03971 0.64091
 C31 C 0.16777 -0.06434 0.45741
 C32 C 0.12932 -0.10581 0.45606
 C33 C 0.16644 -0.14091 0.53971
 C34 C 0.20436 -0.09874 0.53949
 N35 N 0.20420 -0.06147 0.49872
 H36 H 0.26730 0.07266 0.59496
 H37 H 0.33209 -0.07386 0.53358
 H38 H 0.40022 -0.07644 0.60714
 H39 H 0.33407 0.07285 0.66974
 H40 H 0.16791 -0.03358 0.42614
 H41 H 0.09979 -0.10714 0.42356
 H42 H 0.16594 -0.16974 0.57286
 H43 H 0.23270 -0.09495 0.57266
 C44 C 0.12837 0.14416 0.50220
 C45 C 0.37163 0.00220 0.35584
 C46 C 0.12837 -0.14416 0.49780
 C47 C 0.37163 -0.00220 0.64416
 C48 C 0.66777 0.04258 0.56435
 H49 H 0.66792 0.07386 0.53358
 C50 C 0.62932 0.04394 0.60582
 H51 H 0.59979 0.07644 0.60715
 C52 C 0.70436 -0.03949 0.59873
 H53 H 0.73270 -0.07267 0.59495
 C54 C 0.66644 -0.03972 0.64091
 H55 H 0.66593 -0.07287 0.66974
 N56 N 0.70420 0.00127 0.56147
 C57 C 0.83223 0.06435 0.45742
 H58 H 0.83209 0.03358 0.42614
 C59 C 0.87068 0.10582 0.45606
 H60 H 0.90021 0.10715 0.42356
 C61 C 0.79565 0.09873 0.53950
 H62 H 0.76731 0.09495 0.57267
 C63 C 0.83356 0.14091 0.53972
 H64 H 0.83407 0.16974 0.57287
 Zn65 Zn 0.75000 -0.00000 0.50000
 N66 N 0.79580 0.06147 0.49873
 C67 C 0.70436 0.03949 0.40127
 N68 N 0.70420 -0.00127 0.43853
 C69 C 0.66777 -0.04258 0.43565
 C70 C 0.62932 -0.04394 0.39418
 C71 C 0.66644 0.03972 0.35909
 C72 C 0.83223 -0.06435 0.54258
 C73 C 0.87068 -0.10582 0.54394
 C74 C 0.83356 -0.14091 0.46028
 C75 C 0.79565 -0.09873 0.46050
 N76 N 0.79580 -0.06147 0.50127
 H77 H 0.73270 0.07267 0.40505
 H78 H 0.66792 -0.07386 0.46642
 H79 H 0.59979 -0.07644 0.39285
 H80 H 0.66593 0.07287 0.33026
 H81 H 0.83209 -0.03358 0.57386
 H82 H 0.90021 -0.10715 0.57644
 H83 H 0.83407 -0.16974 0.42713
 H84 H 0.76731 -0.09495 0.42733
 C85 C 0.87163 0.14416 0.49780
 C86 C 0.62837 0.00220 0.64416
 C87 C 0.87163 -0.14416 0.50220
 C88 C 0.62837 -0.00220 0.35584
 C89 C 0.45713 0.16771 1.06416
 H90 H 0.42601 0.16774 1.03323
 C91 C 0.45572 0.12924 1.10562
 H92 H 0.42334 0.09958 1.10679
 C93 C 0.53891 0.20457 1.09894
 H94 H 0.57202 0.23301 1.09531
 C95 C 0.53908 0.16666 1.14111
 H96 H 0.57209 0.16625 1.17008
 N97 N 0.49833 0.20428 1.06148
 C98 C 0.43615 0.33242 0.95692
 H99 H 0.46730 0.33241 0.92603
 C100 C 0.39464 0.37082 0.95514
 H101 H 0.39371 0.40048 0.92274
 C102 C 0.40077 0.29551 1.03843
 H103 H 0.40416 0.26705 1.07155
 C104 C 0.35854 0.33336 1.03822
 H105 H 0.32931 0.33373 1.07101
 Zn106 Zn 0.50000 0.25007 1.00000
 N107 N 0.43855 0.29586 0.99816
 C108 C 0.46109 0.20457 0.90105
 N109 N 0.50167 0.20428 0.93851
 C110 C 0.54287 0.16771 0.93583
 C111 C 0.54428 0.12924 0.89437
 C112 C 0.46092 0.16665 0.85889
 C113 C 0.56385 0.33243 1.04307
 C114 C 0.60535 0.37082 1.04485
 C115 C 0.64146 0.33336 0.96177
 C116 C 0.59923 0.29551 0.96156
 N117 N 0.56145 0.29587 1.00183
 H118 H 0.42798 0.23300 0.90468
 H119 H 0.57399 0.16774 0.96676
 H120 H 0.57666 0.09957 0.89321
 H121 H 0.42791 0.16624 0.82992
 H122 H 0.53269 0.33241 1.07395
 H123 H 0.60629 0.40049 1.07724
 H124 H 0.67069 0.33373 0.92898
 H125 H 0.59584 0.26705 0.92844
 C126 C 0.35576 0.37157 0.99639
 C127 C 0.49730 0.12842 1.14416
 C128 C 0.64423 0.37157 1.00361
 C129 C 0.50270 0.12842 0.85584
 C130 C 0.45713 0.83229 -0.06416
 H131 H 0.42601 0.83226 -0.03323
 C132 C 0.45572 0.87076 -0.10562
 H133 H 0.42334 0.90042 -0.10679
 C134 C 0.53891 0.79543 -0.09894
 H135 H 0.57202 0.76699 -0.09531
 C136 C 0.53908 0.83334 -0.14111
 H137 H 0.57209 0.83375 -0.17008
 N138 N 0.49833 0.79572 -0.06148
 C139 C 0.43615 0.66758 0.04308
 H140 H 0.46730 0.66759 0.07397
 C141 C 0.39464 0.62918 0.04486
 H142 H 0.39371 0.59952 0.07726
 C143 C 0.40077 0.70449 -0.03843
 H144 H 0.40416 0.73295 -0.07155
 C145 C 0.35854 0.66664 -0.03822
 H146 H 0.32931 0.66627 -0.07101
 Zn147 Zn 0.50000 0.74993 0.00000
 N148 N 0.43855 0.70414 0.00184
 C149 C 0.46109 0.79543 0.09895
 N150 N 0.50167 0.79572 0.06149
 C151 C 0.54287 0.83229 0.06417
 C152 C 0.54428 0.87076 0.10563
 C153 C 0.46092 0.83335 0.14111
 C154 C 0.56385 0.66757 -0.04307
 C155 C 0.60535 0.62918 -0.04485
 C156 C 0.64146 0.66664 0.03823
 C157 C 0.59923 0.70449 0.03844
 N158 N 0.56145 0.70413 -0.00183
 H159 H 0.42798 0.76700 0.09532
 H160 H 0.57399 0.83226 0.03324
 H161 H 0.57666 0.90043 0.10679
 H162 H 0.42791 0.83376 0.17008
 H163 H 0.53269 0.66759 -0.07395
 H164 H 0.60629 0.59951 -0.07724
 H165 H 0.67069 0.66627 0.07102
 H166 H 0.59584 0.73295 0.07156
 C167 C 0.35576 0.62843 0.00361
 C168 C 0.49730 0.87158 -0.14416
 C169 C 0.64423 0.62843 -0.00361
 C170 C 0.50270 0.87158 0.14416
 C171 C 1.06385 0.45692 0.16758
 H172 H 1.03269 0.42603 0.16759
 C173 C 1.10536 0.45514 0.12918
 H174 H 1.10629 0.42275 0.09952
 C175 C 1.09923 0.53843 0.20449
 H176 H 1.09584 0.57155 0.23295
 C177 C 1.14146 0.53822 0.16664
 H178 H 1.17069 0.57101 0.16627
 N179 N 1.06145 0.49816 0.20414
 C180 C 0.95713 0.43583 0.33229
 H181 H 0.92601 0.46676 0.33226
 C182 C 0.95572 0.39437 0.37076
 H183 H 0.92334 0.39321 0.40043
 C184 C 1.03891 0.40105 0.29543
 H185 H 1.07202 0.40468 0.26700
 C186 C 1.03908 0.35889 0.33335
 H187 H 1.07210 0.32992 0.33375
 Zn188 Zn 1.00000 0.49999 0.24993
 N189 N 0.99833 0.43851 0.29572
 C190 C 0.90077 0.46156 0.20449
 N191 N 0.93855 0.50183 0.20414
 C192 C 0.93615 0.54307 0.16757
 C193 C 0.89465 0.54485 0.12918
 C194 C 0.85854 0.46177 0.16664
 C195 C 1.04287 0.56416 0.33229
 C196 C 1.04427 0.60562 0.37076
 C197 C 0.96092 0.64111 0.33334
 C198 C 0.96109 0.59894 0.29543
 N199 N 1.00167 0.56148 0.29572
 H200 H 0.90416 0.42844 0.23295
 H201 H 0.96731 0.57395 0.16759
 H202 H 0.89371 0.57724 0.09951
 H203 H 0.82931 0.42898 0.16627
 H204 H 1.07399 0.53323 0.33227
 H205 H 1.07666 0.60679 0.40042
 H206 H 0.92790 0.67008 0.33375
 H207 H 0.92798 0.59531 0.26699
 C208 C 0.99730 0.35584 0.37158
 C209 C 1.14423 0.49639 0.12843
 C210 C 1.00270 0.64416 0.37158
 C211 C 0.85577 0.50361 0.12843
 C212 C -0.06385 0.45693 0.83243
 H213 H -0.03269 0.42605 0.83241
 C214 C -0.10535 0.45515 0.87082
 H215 H -0.10629 0.42276 0.90049
 C216 C -0.09923 0.53844 0.79551
 H217 H -0.09584 0.57156 0.76705
 C218 C -0.14146 0.53823 0.83336
 H219 H -0.17069 0.57102 0.83373
 N220 N -0.06145 0.49817 0.79586
 C221 C 0.04287 0.43584 0.66771
 H222 H 0.07399 0.46677 0.66773
 C223 C 0.04427 0.39438 0.62924
 H224 H 0.07666 0.39321 0.59958
 C225 C -0.03891 0.40106 0.70457
 H226 H -0.07202 0.40469 0.73301
 C227 C -0.03908 0.35889 0.66666
 H228 H -0.07210 0.32992 0.66625
 Zn229 Zn -0.00000 0.50001 0.75007
 N230 N 0.00167 0.43852 0.70428
 C231 C 0.09923 0.46157 0.79551
 N232 N 0.06145 0.50184 0.79586
 C233 C 0.06385 0.54308 0.83242
 C234 C 0.10536 0.54486 0.87082
 C235 C 0.14146 0.46178 0.83336
 C236 C -0.04287 0.56417 0.66771
 C237 C -0.04428 0.60563 0.62924
 C238 C 0.03908 0.64111 0.66665
 C239 C 0.03891 0.59895 0.70457
 N240 N -0.00167 0.56149 0.70428
 H241 H 0.09584 0.42845 0.76705
 H242 H 0.03269 0.57397 0.83241
 H243 H 0.10629 0.57725 0.90048
 H244 H 0.17069 0.42899 0.83373
 H245 H -0.07399 0.53324 0.66774
 H246 H -0.07666 0.60679 0.59957
 H247 H 0.07210 0.67008 0.66625
 H248 H 0.07202 0.59532 0.73300
 C249 C 0.00270 0.35584 0.62842
 C250 C -0.14423 0.49639 0.87157
 C251 C -0.00270 0.64416 0.62842
 C252 C 0.14423 0.50361 0.87157
 C253 C 0.04811 0.21517 0.50003
 C254 C 0.08577 0.18398 0.50071
 C255 C 0.71515 0.54810 -0.00123
 C256 C 0.68399 0.58578 -0.00227
 C257 C 0.95189 -0.21517 0.50002
 C258 C 0.91423 -0.18398 0.50070
 C259 C 0.28485 0.45190 0.99876
 C260 C 0.31601 0.41422 0.99772
 C261 C 0.95189 0.21517 0.49998
 C262 C 0.91423 0.18398 0.49930
 C263 C 0.28485 0.54810 0.00124
 C264 C 0.31601 0.58578 0.00228
 C265 C 0.04811 -0.21517 0.49997
 C266 C 0.08577 -0.18398 0.49929
 C267 C 0.71515 0.45190 1.00123
 C268 C 0.68399 0.41422 1.00227
 C269 C 0.49970 0.04812 1.21511
 C270 C 0.49885 0.08579 1.18393
 C271 C -0.00030 0.71511 0.54811
 C272 C -0.00115 0.68393 0.58578
 C273 C 0.49970 0.95188 -0.21511
 C274 C 0.49885 0.91421 -0.18393
 C275 C 0.99970 0.28489 0.45189
 C276 C 0.99885 0.31607 0.41422
 C277 C 0.50030 0.95189 0.21511
 C278 C 0.50115 0.91422 0.18393
 C279 C 0.00030 0.28489 0.54812
 C280 C 0.00115 0.31607 0.58579
 C281 C 0.50030 0.04811 0.78489
 C282 C 0.50115 0.08578 0.81607
 C283 C 1.00030 0.71511 0.45188
 C284 C 1.00115 0.68393 0.41421
 C285 C 1.21515 0.49876 0.04810
 C286 C 1.18399 0.49772 0.08578
 C287 C 0.54811 0.00002 0.71517
 C288 C 0.58577 0.00070 0.68398
 C289 C -0.21515 0.49877 0.95190
 C290 C -0.18399 0.49773 0.91422
 C291 C 0.45189 0.00003 0.28483
 C292 C 0.41423 0.00071 0.31602
 C293 C 0.21515 0.50124 0.95190
 C294 C 0.18399 0.50228 0.91422
 C295 C 0.54811 -0.00002 0.28483
 C296 C 0.58577 -0.00070 0.31602
 C297 C 0.78485 0.50123 0.04810
 C298 C 0.81601 0.50227 0.08578
 C299 C 0.45189 -0.00003 0.71517
 C300 C 0.41423 -0.00071 0.68398
   
