data_POSCAR
  _audit_creation_date              2014-09-24
  _audit_creation_method            'ToBaCCo'
  _symmetry_space_group_name_H-M    'P1'
  _symmetry_Int_Tables_number       1
  _symmetry_cell_setting            triclinic
  loop_
  _symmetry_equiv_pos_as_xyz
 x,y,z
_cell_length_a 56.5303
_cell_length_b 57.0998
_cell_length_c 56.4038
_cell_angle_alpha 89.654400
_cell_angle_beta 89.576600
_cell_angle_gamma 89.682100
loop_
  _atom_site_label
  _atom_site_type_symbol
  _atom_site_fract_x
  _atom_site_fract_y
  _atom_site_fract_z
C1 C 0.26843 0.23988 0.24039
 C2 C 0.25823 0.22979 0.26073
 C3 C 0.23827 0.23976 0.27087
 C4 C 0.22829 0.26004 0.26086
 C5 C 0.23834 0.26999 0.24081
 C6 C 0.25859 0.25987 0.23053
 C7 C 0.28781 0.23394 0.22676
 N8 N 0.29002 0.24985 0.20886
 C9 C 0.27218 0.26578 0.21108
 C10 C 0.22498 0.28938 0.23502
 N11 N 0.20704 0.29148 0.25108
 C12 C 0.20898 0.27357 0.26696
 C13 C 0.23226 0.22628 0.29028
 N14 N 0.24812 0.20837 0.29221
 C15 C 0.26406 0.21044 0.27416
 H16 H 0.29962 0.21928 0.22991
 H17 H 0.26907 0.28045 0.19925
 H18 H 0.22831 0.30125 0.22035
 H19 H 0.19706 0.27037 0.28171
 H20 H 0.21761 0.22951 0.30230
 H21 H 0.27868 0.19857 0.27079
 C22 C 0.72951 -0.23995 0.24131
 C23 C 0.74106 -0.22839 0.25975
 C24 C 0.76166 -0.23767 0.26905
 C25 C 0.77089 -0.25873 0.26014
 C26 C 0.75917 -0.27039 0.24240
 C27 C 0.73839 -0.26082 0.23280
 C28 C 0.70962 -0.23463 0.22844
 N29 N 0.70605 -0.25173 0.21202
 C30 C 0.72372 -0.26790 0.21489
 C31 C 0.77183 -0.29048 0.23764
 N32 N 0.79128 -0.29125 0.25181
 C33 C 0.79072 -0.27169 0.26558
 C34 C 0.76871 -0.22303 0.28693
 N35 N 0.75282 -0.20516 0.28881
 C36 C 0.73592 -0.20828 0.27210
 H37 H 0.69866 -0.21933 0.23128
 H38 H 0.72655 -0.28342 0.20435
 H39 H 0.76742 -0.30311 0.22417
 H40 H 0.80332 -0.26735 0.27918
 H41 H 0.78389 -0.22568 0.29824
 H42 H 0.72087 -0.19685 0.26918
 C43 C 0.73264 0.24107 0.75741
 C44 C 0.74287 0.23119 0.73705
 C45 C 0.76263 0.24130 0.72677
 C46 C 0.77238 0.26153 0.73670
 C47 C 0.76231 0.27118 0.75674
 C48 C 0.74221 0.26095 0.76711
 C49 C 0.71342 0.23498 0.77115
 N50 N 0.71083 0.25076 0.78911
 C51 C 0.72860 0.26672 0.78653
 C52 C 0.77550 0.29044 0.76254
 N53 N 0.79351 0.29297 0.74646
 C54 C 0.79149 0.27515 0.73055
 C55 C 0.76873 0.22799 0.70738
 N56 N 0.75311 0.21006 0.70560
 C57 C 0.73724 0.21193 0.72373
 H58 H 0.70200 0.22032 0.76763
 H59 H 0.73203 0.28133 0.79806
 H60 H 0.77160 0.30188 0.77726
 H61 H 0.80323 0.27166 0.71577
 H62 H 0.78329 0.23134 0.69528
 H63 H 0.72280 0.19999 0.72722
 C64 C 0.26895 -0.24136 0.76294
 C65 C 0.25898 -0.23118 0.74262
 C66 C 0.23944 -0.24125 0.73230
 C67 C 0.22967 -0.26169 0.74210
 C68 C 0.23946 -0.27165 0.76210
 C69 C 0.25936 -0.26147 0.77254
 C70 C 0.28794 -0.23539 0.77668
 N71 N 0.29039 -0.25145 0.79456
 C72 C 0.27275 -0.26747 0.79193
 C73 C 0.22626 -0.29110 0.76771
 N74 N 0.20855 -0.29341 0.75154
 C75 C 0.21076 -0.27527 0.73579
 C76 C 0.23353 -0.22769 0.71296
 N77 N 0.24905 -0.20962 0.71125
 C78 C 0.26468 -0.21168 0.72936
 H79 H 0.29932 -0.22060 0.77320
 H80 H 0.26928 -0.28232 0.80338
 H81 H 0.22992 -0.30282 0.78236
 H82 H 0.19927 -0.27152 0.72101
 H83 H 0.21919 -0.23096 0.70084
 H84 H 0.27899 -0.19970 0.73288
 C85 C 0.73073 -0.23981 0.76040
 C86 C 0.74101 -0.22955 0.74017
 C87 C 0.76085 -0.23961 0.72990
 C88 C 0.77064 -0.26010 0.73965
 C89 C 0.76055 -0.27012 0.75956
 C90 C 0.74036 -0.25997 0.76993
 C91 C 0.71144 -0.23391 0.77414
 N92 N 0.70887 -0.25007 0.79193
 C93 C 0.72673 -0.26607 0.78925
 C94 C 0.77381 -0.28959 0.76520
 N95 N 0.79188 -0.29187 0.74915
 C96 C 0.78982 -0.27369 0.73342
 C97 C 0.76701 -0.22598 0.71066
 N98 N 0.75137 -0.20788 0.70895
 C99 C 0.73539 -0.20998 0.72697
 H100 H 0.69995 -0.21909 0.77076
 H101 H 0.73022 -0.28096 0.80064
 H102 H 0.76994 -0.30133 0.77979
 H103 H 0.80159 -0.26993 0.71873
 H104 H 0.78163 -0.22924 0.69860
 H105 H 0.72090 -0.19799 0.73046
 C106 C 0.27061 0.23968 0.75964
 C107 C 0.26027 0.22940 0.73973
 C108 C 0.24041 0.23943 0.72966
 C109 C 0.23065 0.25994 0.73929
 C110 C 0.24088 0.27006 0.75888
 C111 C 0.26106 0.25988 0.76906
 C112 C 0.28988 0.23371 0.77316
 N113 N 0.29251 0.24986 0.79071
 C114 C 0.27473 0.26594 0.78809
 C115 C 0.22767 0.28959 0.76447
 N116 N 0.20967 0.29161 0.74872
 C117 C 0.21142 0.27351 0.73323
 C118 C 0.23422 0.22578 0.71070
 N119 N 0.24989 0.20770 0.70897
 C120 C 0.26588 0.20982 0.72671
 H121 H 0.30129 0.21883 0.76979
 H122 H 0.27129 0.28083 0.79936
 H123 H 0.23112 0.30158 0.77880
 H124 H 0.19936 0.27019 0.71883
 H125 H 0.21960 0.22902 0.69883
 H126 H 0.28040 0.19786 0.73012
 C127 C 0.26966 -0.24308 0.24514
 C128 C 0.25949 -0.23302 0.26544
 C129 C 0.23969 -0.24299 0.27580
 C130 C 0.22985 -0.26323 0.26602
 C131 C 0.23986 -0.27306 0.24604
 C132 C 0.26000 -0.26298 0.23559
 C133 C 0.28882 -0.23710 0.23128
 N134 N 0.29128 -0.25297 0.21338
 C135 C 0.27349 -0.26888 0.21613
 C136 C 0.22652 -0.29222 0.24031
 N137 N 0.20846 -0.29451 0.25636
 C138 C 0.21061 -0.27665 0.27220
 C139 C 0.23360 -0.22947 0.29504
 N140 N 0.24926 -0.21156 0.29665
 C141 C 0.26516 -0.21365 0.27857
 H142 H 0.30028 -0.22243 0.23464
 H143 H 0.26993 -0.28352 0.20467
 H144 H 0.23032 -0.30374 0.22562
 H145 H 0.19885 -0.27297 0.28691
 H146 H 0.21900 -0.23265 0.30714
 H147 H 0.27960 -0.20176 0.27495
 C148 C 0.73415 0.23908 0.23593
 C149 C 0.74421 0.22911 0.25631
 C150 C 0.76384 0.23923 0.26639
 C151 C 0.77364 0.25952 0.25630
 C152 C 0.76381 0.26928 0.23622
 C153 C 0.74386 0.25905 0.22598
 C154 C 0.71495 0.23312 0.22246
 N155 N 0.71270 0.24902 0.20456
 C156 C 0.73036 0.26495 0.20662
 C157 C 0.77692 0.28873 0.23043
 N158 N 0.79460 0.29126 0.24658
 C159 C 0.79249 0.27322 0.26247
 C160 C 0.76975 0.22594 0.28591
 N161 N 0.75415 0.20798 0.28796
 C162 C 0.73845 0.20985 0.26988
 H163 H 0.70323 0.21852 0.22574
 H164 H 0.73335 0.27965 0.19479
 H165 H 0.77315 0.30035 0.21573
 H166 H 0.80396 0.26969 0.27732
 H167 H 0.78415 0.22933 0.29793
 H168 H 0.72404 0.19791 0.26662
 O169 O 0.22858 0.02213 0.47857
 O170 O 0.22872 -0.02344 0.52506
 O171 O 0.22873 0.02218 0.52472
 O172 O 0.22861 -0.02353 0.47893
 O173 O 0.26762 -0.02370 0.47855
 O174 O 0.26775 0.02194 0.52432
 O175 O 0.26774 -0.02361 0.52468
 O176 O 0.26759 0.02191 0.47816
 Cu177 Cu 0.22475 -0.00064 0.50185
 Cu178 Cu 0.27158 -0.00088 0.50138
 C179 C 0.24806 0.02984 0.47041
 C180 C 0.24826 -0.03134 0.53284
 C181 C 0.24827 0.02988 0.53238
 C182 C 0.24811 -0.03148 0.47093
 O183 O 0.73477 0.02358 0.52206
 O184 O 0.73482 -0.02190 0.47606
 O185 O 0.73453 -0.02201 0.52226
 O186 O 0.73484 0.02363 0.47594
 O187 O 0.77386 0.02336 0.47580
 O188 O 0.77354 -0.02239 0.52213
 O189 O 0.77384 -0.02223 0.47591
 O190 O 0.77379 0.02327 0.52193
 Cu191 Cu 0.73084 0.00084 0.49911
 Cu192 Cu 0.77767 0.00045 0.49895
 C193 C 0.75427 0.03127 0.52984
 C194 C 0.75433 -0.02981 0.46805
 C195 C 0.75396 -0.03003 0.53015
 C196 C 0.75439 0.03132 0.46792
 O197 O 0.47790 0.23058 0.02203
 O198 O 0.52401 0.23071 -0.02445
 O199 O 0.52399 0.23054 0.02171
 O200 O 0.47803 0.23067 -0.02416
 O201 O 0.47775 0.26930 -0.02422
 O202 O 0.52378 0.26917 0.02162
 O203 O 0.52386 0.26934 -0.02447
 O204 O 0.47769 0.26920 0.02191
 Cu205 Cu 0.50100 0.22675 -0.00119
 Cu206 Cu 0.50074 0.27312 -0.00130
 C207 C 0.46988 0.24987 0.02992
 C208 C 0.53185 0.25005 -0.03241
 C209 C 0.53180 0.24982 0.02949
 C210 C 0.47002 0.25001 -0.03207
 O211 O 0.52252 0.72810 0.02509
 O212 O 0.47659 0.72831 -0.02088
 O213 O 0.52274 0.72850 -0.02108
 O214 O 0.47644 0.72815 0.02522
 O215 O 0.47626 0.76678 0.02525
 O216 O 0.52238 0.76713 -0.02112
 O217 O 0.47636 0.76694 -0.02093
 O218 O 0.52221 0.76673 0.02512
 Cu219 Cu 0.49962 0.72440 0.00207
 Cu220 Cu 0.49929 0.77076 0.00206
 C221 C 0.53018 0.74738 0.03304
 C222 C 0.46858 0.74766 -0.02876
 C223 C 0.53047 0.74788 -0.02905
 C224 C 0.46844 0.74742 0.03319
 O225 O 0.02194 0.47844 0.23278
 O226 O -0.02328 0.52511 0.23294
 O227 O 0.02258 0.52389 0.23378
 O228 O -0.02416 0.47934 0.23197
 O229 O -0.02441 0.47753 0.27105
 O230 O 0.02083 0.52361 0.27286
 O231 O -0.02541 0.52296 0.27201
 O232 O 0.02151 0.47794 0.27189
 Cu233 Cu -0.00067 0.50178 0.22895
 Cu234 Cu -0.00195 0.50045 0.27588
 C235 C 0.02961 0.47032 0.25231
 C236 C -0.03219 0.53185 0.25250
 C237 C 0.02961 0.53150 0.25362
 C238 C -0.03213 0.47063 0.25120
 O239 O 0.02380 0.52332 0.72885
 O240 O -0.02206 0.47776 0.72805
 O241 O -0.02221 0.52344 0.72845
 O242 O 0.02396 0.47770 0.72843
 O243 O 0.02328 0.47708 0.76753
 O244 O -0.02281 0.52286 0.76755
 O245 O -0.02278 0.47733 0.76715
 O246 O 0.02331 0.52262 0.76795
 Cu247 Cu 0.00092 0.50062 0.72452
 Cu248 Cu 0.00019 0.49993 0.77146
 C249 C 0.03145 0.53074 0.74854
 C250 C -0.03028 0.46975 0.74748
 C251 C -0.03042 0.53099 0.74801
 C252 C 0.03152 0.46955 0.74798
 C253 C 0.34380 0.24983 0.15524
 C254 C 0.33324 0.27093 0.16266
 C255 C 0.31561 0.27093 0.18017
 C256 C 0.30815 0.24984 0.19073
 C257 C 0.31869 0.22875 0.18332
 C258 C 0.33628 0.22873 0.16577
 C259 C 0.36252 0.24982 0.13666
 N260 N 0.37230 0.22941 0.12900
 N261 N 0.38911 0.22941 0.11232
 C262 C 0.39689 0.24981 0.10260
 N263 N 0.38711 0.27021 0.11027
 N264 N 0.37029 0.27022 0.12693
 C265 C 0.41561 0.24981 0.08402
 C266 C 0.42410 0.27100 0.07450
 C267 C 0.44172 0.27101 0.05699
 C268 C 0.45126 0.24984 0.04855
 C269 C 0.44280 0.22865 0.05806
 C270 C 0.42520 0.22863 0.07560
 H271 H 0.33861 0.28751 0.15499
 H272 H 0.30807 0.28749 0.18569
 H273 H 0.31313 0.21219 0.19086
 H274 H 0.34396 0.21214 0.16046
 H275 H 0.41715 0.28765 0.08056
 H276 H 0.44784 0.28765 0.05003
 H277 H 0.44978 0.21203 0.05195
 H278 H 0.41909 0.21198 0.08251
 C279 C 0.65266 0.74717 0.16006
 C280 C 0.65622 0.76717 0.17388
 C281 C 0.67369 0.76748 0.19127
 C282 C 0.68839 0.74777 0.19535
 C283 C 0.68449 0.72764 0.18145
 C284 C 0.66689 0.72737 0.16417
 C285 C 0.63436 0.74707 0.14134
 N286 N 0.62936 0.72716 0.12934
 N287 N 0.61305 0.72716 0.11241
 C288 C 0.60109 0.74709 0.10669
 N289 N 0.60609 0.76699 0.11869
 N290 N 0.62235 0.76698 0.13565
 C291 C 0.58300 0.74714 0.08776
 C292 C 0.57247 0.76825 0.08021
 C293 C 0.55543 0.76833 0.06238
 C294 C 0.54844 0.74730 0.05175
 C295 C 0.55894 0.72620 0.05929
 C296 C 0.57608 0.72612 0.07704
 H297 H 0.64555 0.78276 0.17122
 H298 H 0.67580 0.78358 0.20092
 H299 H 0.69465 0.71177 0.18392
 H300 H 0.66456 0.71158 0.15392
 H301 H 0.57741 0.78477 0.08803
 H302 H 0.54766 0.78489 0.05700
 H303 H 0.55396 0.70969 0.05144
 H304 H 0.58379 0.70955 0.08243
 C305 C 0.65777 0.25047 -0.15781
 C306 C 0.67250 0.26995 -0.16095
 C307 C 0.69014 0.27005 -0.17843
 C308 C 0.69356 0.25065 -0.19356
 C309 C 0.67857 0.23114 -0.19026
 C310 C 0.66106 0.23106 -0.17264
 C311 C 0.63907 0.25040 -0.13922
 N312 N 0.62663 0.23065 -0.13429
 N313 N 0.60986 0.23059 -0.11758
 C314 C 0.60475 0.25029 -0.10512
 N315 N 0.61717 0.27004 -0.11007
 N316 N 0.63399 0.27009 -0.12674
 C317 C 0.58605 0.25023 -0.08654
 C318 C 0.57882 0.27122 -0.07569
 C319 C 0.56117 0.27117 -0.05820
 C320 C 0.55044 0.25012 -0.05104
 C321 C 0.55769 0.22912 -0.06183
 C322 C 0.57524 0.22919 -0.07942
 H323 H 0.67044 0.28525 -0.14985
 H324 H 0.70061 0.28572 -0.18018
 H325 H 0.68043 0.21553 -0.20081
 H326 H 0.65004 0.21570 -0.17069
 H327 H 0.58672 0.28775 -0.08076
 H328 H 0.55601 0.28764 -0.05022
 H329 H 0.54976 0.21260 -0.05674
 H330 H 0.58040 0.21269 -0.08736
 C331 C 0.34294 0.74832 -0.15263
 C332 C 0.33965 0.76795 -0.16734
 C333 C 0.32229 0.76805 -0.18484
 C334 C 0.30745 0.74850 -0.18816
 C335 C 0.31084 0.72889 -0.17312
 C336 C 0.32834 0.72880 -0.15574
 C337 C 0.36154 0.74821 -0.13420
 N338 N 0.36668 0.72836 -0.12182
 N339 N 0.38345 0.72826 -0.10534
 C340 C 0.39576 0.74800 -0.10050
 N341 N 0.39059 0.76785 -0.11285
 N342 N 0.37387 0.76794 -0.12937
 C343 C 0.41443 0.74790 -0.08215
 C344 C 0.42517 0.76890 -0.07520
 C345 C 0.44270 0.76882 -0.05785
 C346 C 0.45001 0.74773 -0.04715
 C347 C 0.43936 0.72672 -0.05416
 C348 C 0.42173 0.72681 -0.07140
 H349 H 0.35055 0.78334 -0.16540
 H350 H 0.32043 0.78383 -0.19530
 H351 H 0.30047 0.71319 -0.17487
 H352 H 0.33040 0.71334 -0.14472
 H353 H 0.41996 0.78547 -0.08306
 H354 H 0.45057 0.78531 -0.05287
 H355 H 0.44457 0.71018 -0.04624
 H356 H 0.41389 0.71031 -0.07636
 C357 C 0.15397 0.34505 0.25153
 C358 C 0.16456 0.33785 0.23013
 C359 C 0.18194 0.32034 0.22999
 C360 C 0.18911 0.30955 0.25124
 C361 C 0.17851 0.31671 0.27263
 C362 C 0.16117 0.33427 0.27279
 C363 C 0.13556 0.36367 0.25168
 N364 N 0.12576 0.37114 0.27238
 N365 N 0.10923 0.38786 0.27249
 C366 C 0.10176 0.39783 0.25192
 N367 N 0.11156 0.39035 0.23122
 N368 N 0.12810 0.37364 0.23110
 C369 C 0.08332 0.41642 0.25203
 C370 C 0.07511 0.42617 0.23065
 C371 C 0.05770 0.44364 0.23074
 C372 C 0.04810 0.45183 0.25222
 C373 C 0.05633 0.44214 0.27361
 C374 C 0.07371 0.42463 0.27352
 H375 H 0.15943 0.34571 0.21341
 H376 H 0.18951 0.31501 0.21319
 H377 H 0.18385 0.30898 0.28933
 H378 H 0.15345 0.33939 0.28961
 H379 H 0.08209 0.42028 0.21376
 H380 H 0.05177 0.45074 0.21395
 H381 H 0.04930 0.44804 0.29047
 H382 H 0.07962 0.41755 0.29033
 C383 C 0.15645 0.65391 0.75059
 C384 C 0.15955 0.66901 0.73111
 C385 C 0.17676 0.68647 0.73141
 C386 C 0.19163 0.68935 0.75121
 C387 C 0.18845 0.67393 0.77066
 C388 C 0.17109 0.65659 0.77036
 C389 C 0.13800 0.63554 0.75029
 N390 N 0.13295 0.62279 0.77009
 N391 N 0.11630 0.60638 0.76983
 C392 C 0.10401 0.60196 0.74975
 N393 N 0.10910 0.61467 0.72994
 N394 N 0.12571 0.63113 0.73022
 C395 C 0.08545 0.58371 0.74945
 C396 C 0.07483 0.57719 0.72803
 C397 C 0.05736 0.55996 0.72773
 C398 C 0.05000 0.54896 0.74885
 C399 C 0.06056 0.55551 0.77028
 C400 C 0.07813 0.57263 0.77057
 H401 H 0.14861 0.66741 0.71554
 H402 H 0.17847 0.69725 0.71572
 H403 H 0.19887 0.67533 0.78654
 H404 H 0.16918 0.64526 0.78571
 H405 H 0.08006 0.58532 0.71142
 H406 H 0.04956 0.55534 0.71093
 H407 H 0.05531 0.54733 0.78686
 H408 H 0.08589 0.57725 0.78739
 C409 C -0.15642 0.65608 0.25244
 C410 C -0.15151 0.67844 0.26117
 C411 C -0.16900 0.69584 0.26138
 C412 C -0.19168 0.69155 0.25207
 C413 C -0.19628 0.66904 0.24300
 C414 C -0.17899 0.65146 0.24356
 C415 C -0.13803 0.63767 0.25253
 N416 N -0.14375 0.61500 0.25704
 N417 N -0.12710 0.59839 0.25724
 C418 C -0.10415 0.60377 0.25259
 N419 N -0.09846 0.62642 0.24791
 N420 N -0.11505 0.64307 0.24805
 C421 C -0.08576 0.58537 0.25258
 C422 C -0.06695 0.58626 0.23620
 C423 C -0.04971 0.56862 0.23593
 C424 C -0.05059 0.55022 0.25253
 C425 C -0.06918 0.54952 0.26916
 C426 C -0.08684 0.56676 0.26893
 H427 H -0.13418 0.68239 0.26812
 H428 H -0.16429 0.71287 0.26808
 H429 H -0.21348 0.66458 0.23615
 H430 H -0.18316 0.63429 0.23672
 H431 H -0.06582 0.60040 0.22337
 H432 H -0.03546 0.56954 0.22302
 H433 H -0.07024 0.53543 0.28206
 H434 H -0.10114 0.56578 0.28179
 C435 C -0.15432 0.34561 0.74635
 C436 C -0.15697 0.33090 0.72671
 C437 C -0.17418 0.31341 0.72673
 C438 C -0.18950 0.31014 0.74639
 C439 C -0.18671 0.32515 0.76601
 C440 C -0.16938 0.34249 0.76598
 C441 C -0.13596 0.36407 0.74641
 N442 N -0.13150 0.37639 0.76640
 N443 N -0.11499 0.39293 0.76651
 C444 C -0.10224 0.39792 0.74662
 N445 N -0.10671 0.38562 0.72661
 N446 N -0.12319 0.36903 0.72652
 C447 C -0.08385 0.41634 0.74679
 C448 C -0.07269 0.42352 0.72562
 C449 C -0.05538 0.44092 0.72582
 C450 C -0.04873 0.45143 0.74721
 C451 C -0.05983 0.44423 0.76837
 C452 C -0.07724 0.42694 0.76816
 H453 H -0.14568 0.33284 0.71124
 H454 H -0.17555 0.30292 0.71096
 H455 H -0.19743 0.32342 0.78183
 H456 H -0.16782 0.35349 0.78146
 H457 H -0.07738 0.41577 0.70883
 H458 H -0.04714 0.44605 0.70921
 H459 H -0.05514 0.45200 0.78515
 H460 H -0.08542 0.42182 0.78480
 C461 C 0.24798 0.15492 0.34553
 C462 C 0.22673 0.16565 0.33839
 C463 C 0.22678 0.18318 0.32098
 C464 C 0.24806 0.19036 0.31024
 C465 C 0.26931 0.17964 0.31736
 C466 C 0.26928 0.16215 0.33481
 C467 C 0.24796 0.13631 0.36400
 N468 N 0.26855 0.12643 0.37143
 N469 N 0.26854 0.10973 0.38802
 C470 C 0.24795 0.10216 0.39790
 N471 N 0.22736 0.11204 0.39047
 N472 N 0.22737 0.12875 0.37389
 C473 C 0.24796 0.08358 0.41640
 C474 C 0.22658 0.07526 0.42607
 C475 C 0.22661 0.05779 0.44354
 C476 C 0.24802 0.04825 0.45179
 C477 C 0.26939 0.05654 0.44212
 C478 C 0.26937 0.07398 0.42463
 H479 H 0.20999 0.16050 0.34622
 H480 H 0.21008 0.19087 0.31568
 H481 H 0.28604 0.18498 0.30968
 H482 H 0.28600 0.15433 0.33989
 H483 H 0.20976 0.08222 0.42016
 H484 H 0.20983 0.05180 0.45063
 H485 H 0.28620 0.04956 0.44807
 H486 H 0.28617 0.07996 0.41760
 C487 C 0.75365 0.15678 0.65275
 C488 C 0.73231 0.16402 0.66344
 C489 C 0.73215 0.18147 0.68071
 C490 C 0.75330 0.19216 0.68767
 C491 C 0.77463 0.18502 0.67691
 C492 C 0.77482 0.16751 0.65968
 C493 C 0.75380 0.13814 0.63453
 N494 N 0.77445 0.13045 0.62477
 N495 N 0.77456 0.11367 0.60846
 C496 C 0.75403 0.10387 0.60118
 N497 N 0.73339 0.11157 0.61094
 N498 N 0.73328 0.12833 0.62726
 C499 C 0.75412 0.08520 0.58300
 C500 C 0.73276 0.07576 0.57486
 C501 C 0.73282 0.05825 0.55765
 C502 C 0.75423 0.04972 0.54819
 C503 C 0.77560 0.05908 0.55636
 C504 C 0.77554 0.07663 0.57354
 H505 H 0.71566 0.15621 0.65851
 H506 H 0.71539 0.18680 0.68840
 H507 H 0.79126 0.19270 0.68208
 H508 H 0.79159 0.16236 0.65186
 H509 H 0.71592 0.08193 0.58172
 H510 H 0.71604 0.05141 0.55175
 H511 H 0.79241 0.05291 0.54943
 H512 H 0.79233 0.08347 0.57940
 C513 C 0.24877 -0.15599 0.65813
 C514 C 0.22760 -0.16687 0.66524
 C515 C 0.22770 -0.18443 0.68261
 C516 C 0.24895 -0.19150 0.69334
 C517 C 0.27011 -0.18059 0.68629
 C518 C 0.27003 -0.16307 0.66887
 C519 C 0.24868 -0.13741 0.63963
 N520 N 0.26921 -0.12752 0.63204
 N521 N 0.26914 -0.11088 0.61539
 C522 C 0.24853 -0.10338 0.60562
 N523 N 0.22800 -0.11325 0.61322
 N524 N 0.22808 -0.12991 0.62986
 C525 C 0.24845 -0.08488 0.58704
 C526 C 0.22703 -0.07650 0.57763
 C527 C 0.22696 -0.05910 0.56009
 C528 C 0.24832 -0.04970 0.55150
 C529 C 0.26974 -0.05805 0.56090
 C530 C 0.26981 -0.07542 0.57848
 H531 H 0.21088 -0.16183 0.65740
 H532 H 0.21107 -0.19226 0.68786
 H533 H 0.28681 -0.18584 0.69398
 H534 H 0.28668 -0.15512 0.66382
 H535 H 0.21025 -0.08335 0.58380
 H536 H 0.21015 -0.05305 0.55322
 H537 H 0.28650 -0.05117 0.55469
 H538 H 0.28664 -0.08145 0.58530
 C539 C 0.75376 -0.15151 0.34127
 C540 C 0.77498 -0.16172 0.33311
 C541 C 0.77469 -0.17916 0.31581
 C542 C 0.75320 -0.18677 0.30623
 C543 C 0.73201 -0.17642 0.31425
 C544 C 0.73228 -0.15903 0.33156
 C545 C 0.75395 -0.13331 0.35994
 N546 N 0.73340 -0.12392 0.36825
 N547 N 0.73351 -0.10774 0.38515
 C548 C 0.75418 -0.10023 0.39449
 N549 N 0.77475 -0.10959 0.38617
 N550 N 0.77464 -0.12579 0.36926
 C551 C 0.75426 -0.08225 0.41338
 C552 C 0.77568 -0.07411 0.42271
 C553 C 0.77571 -0.05714 0.44048
 C554 C 0.75433 -0.04792 0.44935
 C555 C 0.73292 -0.05609 0.44007
 C556 C 0.73288 -0.07303 0.42229
 H557 H 0.79185 -0.15631 0.34012
 H558 H 0.79133 -0.18657 0.30981
 H559 H 0.71513 -0.18210 0.30751
 H560 H 0.71559 -0.15160 0.33743
 H561 H 0.79248 -0.08081 0.41628
 H562 H 0.79252 -0.05123 0.44725
 H563 H 0.71613 -0.04935 0.44650
 H564 H 0.71605 -0.07889 0.41555
 C565 C 0.65580 0.74935 -0.15501
 C566 C 0.65895 0.76905 -0.16966
 C567 C 0.67645 0.76926 -0.18729
 C568 C 0.69157 0.74975 -0.19077
 C569 C 0.68826 0.73004 -0.17585
 C570 C 0.67063 0.72985 -0.15835
 C571 C 0.63717 0.74912 -0.13636
 N572 N 0.63232 0.72922 -0.12397
 N573 N 0.61560 0.72901 -0.10722
 C574 C 0.60303 0.74870 -0.10208
 N575 N 0.60789 0.76861 -0.11445
 N576 N 0.62458 0.76881 -0.13124
 C577 C 0.58445 0.74848 -0.08339
 C578 C 0.57344 0.76942 -0.07616
 C579 C 0.55598 0.76922 -0.05849
 C580 C 0.54903 0.74807 -0.04772
 C581 C 0.55996 0.72712 -0.05497
 C582 C 0.57752 0.72733 -0.07256
 H583 H 0.64784 0.78443 -0.16755
 H584 H 0.67821 0.78508 -0.19771
 H585 H 0.69880 0.71434 -0.17775
 H586 H 0.66868 0.71433 -0.14740
 H587 H 0.57836 0.78603 -0.08408
 H588 H 0.54788 0.78566 -0.05332
 H589 H 0.55502 0.71054 -0.04701
 H590 H 0.58559 0.71087 -0.07771
 C591 C 0.34538 0.24999 -0.15683
 C592 C 0.33070 0.26960 -0.16021
 C593 C 0.31315 0.26957 -0.17752
 C594 C 0.30977 0.24991 -0.19221
 C595 C 0.32475 0.23031 -0.18871
 C596 C 0.34218 0.23035 -0.17127
 C597 C 0.36391 0.25002 -0.13836
 N598 N 0.37636 0.23023 -0.13324
 N599 N 0.39295 0.23024 -0.11660
 C600 C 0.39786 0.25005 -0.10440
 N601 N 0.38544 0.26985 -0.10955
 N602 N 0.36881 0.26982 -0.12615
 C603 C 0.41634 0.25006 -0.08589
 C604 C 0.42330 0.27109 -0.07521
 C605 C 0.44076 0.27109 -0.05780
 C606 C 0.45157 0.25004 -0.05055
 C607 C 0.44458 0.22900 -0.06116
 C608 C 0.42722 0.22901 -0.07867
 H609 H 0.33271 0.28508 -0.14943
 H610 H 0.30270 0.28533 -0.17946
 H611 H 0.32294 0.21452 -0.19894
 H612 H 0.35317 0.21490 -0.16913
 H613 H 0.41533 0.28762 -0.08036
 H614 H 0.44573 0.28759 -0.04995
 H615 H 0.45259 0.21248 -0.05601
 H616 H 0.42227 0.21249 -0.08648
 C617 C 0.34381 0.74710 0.15981
 C618 C 0.34069 0.76656 0.17460
 C619 C 0.32337 0.76654 0.19239
 C620 C 0.30840 0.74705 0.19591
 C621 C 0.31167 0.72759 0.18084
 C622 C 0.32913 0.72761 0.16318
 C623 C 0.36227 0.74712 0.14099
 N624 N 0.36720 0.72741 0.12849
 N625 N 0.38381 0.72743 0.11161
 C626 C 0.39615 0.74718 0.10646
 N627 N 0.39119 0.76690 0.11894
 N628 N 0.37463 0.76687 0.13586
 C629 C 0.41462 0.74723 0.08766
 C630 C 0.42534 0.76828 0.08043
 C631 C 0.44273 0.76834 0.06269
 C632 C 0.44992 0.74734 0.05187
 C633 C 0.43925 0.72628 0.05912
 C634 C 0.42175 0.72623 0.07676
 H635 H 0.35168 0.78191 0.17247
 H636 H 0.32162 0.78219 0.20291
 H637 H 0.30123 0.71191 0.18277
 H638 H 0.33107 0.71227 0.15212
 H639 H 0.42025 0.78477 0.08840
 H640 H 0.45063 0.78486 0.05754
 H641 H 0.44437 0.70981 0.05111
 H642 H 0.41391 0.70970 0.08192
 C643 C 0.65878 0.24927 0.15193
 C644 C 0.66918 0.27033 0.15921
 C645 C 0.68689 0.27024 0.17636
 C646 C 0.69459 0.24910 0.18669
 C647 C 0.68423 0.22805 0.17940
 C648 C 0.66656 0.22812 0.16221
 C649 C 0.63991 0.24936 0.13380
 N650 N 0.63024 0.22900 0.12631
 N651 N 0.61327 0.22908 0.11005
 C652 C 0.60521 0.24953 0.10060
 N653 N 0.61487 0.26989 0.10809
 N654 N 0.63186 0.26981 0.12433
 C655 C 0.58633 0.24961 0.08248
 C656 C 0.57756 0.27083 0.07321
 C657 C 0.55982 0.27090 0.05608
 C658 C 0.55045 0.24975 0.04779
 C659 C 0.55917 0.22853 0.05708
 C660 C 0.57688 0.22846 0.07423
 H661 H 0.66361 0.28695 0.15171
 H662 H 0.69429 0.28677 0.18181
 H663 H 0.68999 0.21145 0.18677
 H664 H 0.65901 0.21157 0.15699
 H665 H 0.58440 0.28745 0.07916
 H666 H 0.55350 0.28756 0.04928
 H667 H 0.55232 0.21193 0.05108
 H668 H 0.58320 0.21179 0.08097
 C669 C -0.15561 0.65529 0.74855
 C670 C -0.15836 0.67042 0.72906
 C671 C -0.17569 0.68796 0.72924
 C672 C -0.19104 0.69087 0.74892
 C673 C -0.18817 0.67543 0.76839
 C674 C -0.17070 0.65802 0.76821
 C675 C -0.13708 0.63680 0.74842
 N676 N -0.13249 0.62403 0.76826
 N677 N -0.11579 0.60747 0.76818
 C678 C -0.10302 0.60293 0.74823
 N679 N -0.10763 0.61568 0.72836
 N680 N -0.12428 0.63228 0.72847
 C681 C -0.08444 0.58451 0.74815
 C682 C -0.07325 0.57783 0.72687
 C683 C -0.05578 0.56042 0.72681
 C684 C -0.04898 0.54938 0.74805
 C685 C -0.06010 0.55608 0.76933
 C686 C -0.07767 0.57339 0.76937
 H687 H -0.14705 0.66878 0.71357
 H688 H -0.17714 0.69878 0.71356
 H689 H -0.19892 0.67686 0.78421
 H690 H -0.16906 0.64668 0.78357
 H691 H -0.07806 0.58599 0.71019
 H692 H -0.04753 0.55567 0.71011
 H693 H -0.05529 0.54789 0.78599
 H694 H -0.08587 0.57812 0.78609
 C695 C -0.15422 0.34479 0.24756
 C696 C -0.16871 0.34179 0.22772
 C697 C -0.18571 0.32412 0.22738
 C698 C -0.18870 0.30870 0.24687
 C699 C -0.17392 0.31186 0.26670
 C700 C -0.15707 0.32964 0.26703
 C701 C -0.13626 0.36361 0.24799
 N702 N -0.12414 0.36820 0.26812
 N703 N -0.10800 0.38508 0.26857
 C704 C -0.10323 0.39808 0.24888
 N705 N -0.11532 0.39349 0.22873
 N706 N -0.13152 0.37663 0.22830
 C707 C -0.08517 0.41680 0.24942
 C708 C -0.07813 0.42837 0.22847
 C709 C -0.06091 0.44584 0.22902
 C710 C -0.05046 0.45224 0.25055
 C711 C -0.05760 0.44078 0.27150
 C712 C -0.07470 0.42322 0.27093
 H713 H -0.16696 0.35314 0.21237
 H714 H -0.19604 0.32249 0.21147
 H715 H -0.17548 0.30107 0.28240
 H716 H -0.14622 0.33146 0.28265
 H717 H -0.08580 0.42384 0.21158
 H718 H -0.05582 0.45437 0.21257
 H719 H -0.04988 0.44526 0.28838
 H720 H -0.07973 0.41473 0.28742
 C721 C 0.15654 0.34505 0.74834
 C722 C 0.16374 0.33425 0.72712
 C723 C 0.18112 0.31675 0.72725
 C724 C 0.19176 0.30968 0.74858
 C725 C 0.18461 0.32049 0.76978
 C726 C 0.16719 0.33794 0.76968
 C727 C 0.13803 0.36356 0.74825
 N728 N 0.13034 0.37330 0.76884
 N729 N 0.11369 0.38990 0.76877
 C730 C 0.10403 0.39748 0.74811
 N731 N 0.11173 0.38775 0.72752
 N732 N 0.12836 0.37114 0.72759
 C733 C 0.08548 0.41595 0.74806
 C734 C 0.07622 0.42450 0.72659
 C735 C 0.05874 0.44191 0.72656
 C736 C 0.05007 0.45114 0.74799
 C737 C 0.05930 0.44259 0.76945
 C738 C 0.07681 0.42522 0.76949
 H739 H 0.15596 0.33931 0.71036
 H740 H 0.18645 0.30897 0.71059
 H741 H 0.19224 0.31523 0.78654
 H742 H 0.16206 0.34583 0.78636
 H743 H 0.08249 0.41779 0.70976
 H744 H 0.05200 0.44811 0.70972
 H745 H 0.05301 0.44934 0.78627
 H746 H 0.08351 0.41905 0.78635
 C747 C 0.15555 0.65360 0.25635
 C748 C 0.15832 0.66829 0.27598
 C749 C 0.17580 0.68552 0.27601
 C750 C 0.19126 0.68852 0.25642
 C751 C 0.18837 0.67350 0.23683
 C752 C 0.17078 0.65643 0.23681
 C753 C 0.13687 0.63548 0.25616
 N754 N 0.13243 0.62320 0.23615
 N755 N 0.11561 0.60697 0.23587
 C756 C 0.10253 0.60227 0.25561
 N757 N 0.10698 0.61453 0.27565
 N758 N 0.12378 0.63081 0.27591
 C759 C 0.08381 0.58420 0.25521
 C760 C 0.07217 0.57726 0.27620
 C761 C 0.05461 0.56011 0.27573
 C762 C 0.04820 0.54964 0.25424
 C763 C 0.05977 0.55664 0.23326
 C764 C 0.07741 0.57366 0.23374
 H765 H 0.14691 0.66656 0.29138
 H766 H 0.17725 0.69603 0.29177
 H767 H 0.19920 0.67503 0.22107
 H768 H 0.16915 0.64542 0.22134
 H769 H 0.07669 0.58498 0.29304
 H770 H 0.04600 0.55511 0.29220
 H771 H 0.05528 0.54890 0.21641
 H772 H 0.08595 0.57861 0.21723
 C773 C 0.75225 -0.15423 0.65587
 C774 C 0.73084 -0.16122 0.66653
 C775 C 0.73057 -0.17872 0.68396
 C776 C 0.75167 -0.18970 0.69110
 C777 C 0.77308 -0.18270 0.68047
 C778 C 0.77337 -0.16516 0.66309
 C779 C 0.75254 -0.13572 0.63730
 N780 N 0.77326 -0.12843 0.62747
 N781 N 0.77351 -0.11185 0.61075
 C782 C 0.75306 -0.10186 0.60312
 N783 N 0.73234 -0.10915 0.61296
 N784 N 0.73209 -0.12571 0.62969
 C785 C 0.75332 -0.08345 0.58445
 C786 C 0.73204 -0.07377 0.57600
 C787 C 0.73227 -0.05647 0.55837
 C788 C 0.75377 -0.04839 0.54881
 C789 C 0.77505 -0.05802 0.55726
 C790 C 0.77483 -0.07536 0.57486
 H791 H 0.71423 -0.15322 0.66139
 H792 H 0.71376 -0.18391 0.69158
 H793 H 0.78967 -0.19058 0.68580
 H794 H 0.79019 -0.16019 0.65531
 H795 H 0.71515 -0.07958 0.58295
 H796 H 0.71555 -0.04941 0.55227
 H797 H 0.79192 -0.05218 0.55026
 H798 H 0.79155 -0.08240 0.58095
 C799 C 0.24869 -0.15776 0.34892
 C800 C 0.27004 -0.16514 0.33835
 C801 C 0.27022 -0.18276 0.32127
 C802 C 0.24906 -0.19348 0.31437
 C803 C 0.22771 -0.18619 0.32499
 C804 C 0.22752 -0.16851 0.34204
 C805 C 0.24853 -0.13897 0.36696
 N806 N 0.22788 -0.13122 0.37666
 N807 N 0.22776 -0.11431 0.39284
 C808 C 0.24829 -0.10444 0.40002
 N809 N 0.26893 -0.11220 0.39032
 N810 N 0.26905 -0.12908 0.37414
 C811 C 0.24820 -0.08566 0.41807
 C812 C 0.26956 -0.07612 0.42607
 C813 C 0.26952 -0.05852 0.44317
 C814 C 0.24811 -0.05000 0.45266
 C815 C 0.22674 -0.05946 0.44462
 C816 C 0.22678 -0.07710 0.42754
 H817 H 0.28670 -0.15731 0.34325
 H818 H 0.28698 -0.18819 0.31367
 H819 H 0.21109 -0.19389 0.31986
 H820 H 0.21074 -0.16326 0.34977
 H821 H 0.28639 -0.08227 0.41918
 H822 H 0.28630 -0.05160 0.44897
 H823 H 0.20994 -0.05329 0.45159
 H824 H 0.20999 -0.08401 0.42178
 C825 C 0.75435 0.15511 0.34182
 C826 C 0.73308 0.16217 0.33109
 C827 C 0.73302 0.17945 0.31343
 C828 C 0.75422 0.19013 0.30613
 C829 C 0.77548 0.18310 0.31687
 C830 C 0.77555 0.16577 0.33448
 C831 C 0.75440 0.13675 0.36054
 N832 N 0.77499 0.12927 0.37036
 N833 N 0.77503 0.11278 0.38716
 C834 C 0.75446 0.10307 0.39489
 N835 N 0.73387 0.11055 0.38507
 N836 N 0.73384 0.12703 0.36826
 C837 C 0.75448 0.08471 0.41360
 C838 C 0.73308 0.07536 0.42217
 C839 C 0.73307 0.05807 0.43981
 C840 C 0.75445 0.04968 0.44927
 C841 C 0.77585 0.05899 0.44071
 C842 C 0.77586 0.07633 0.42310
 H843 H 0.71640 0.15438 0.33632
 H844 H 0.71632 0.18469 0.30574
 H845 H 0.79213 0.19076 0.31143
 H846 H 0.79227 0.16074 0.34231
 H847 H 0.71628 0.08141 0.41529
 H848 H 0.71627 0.05126 0.44600
 H849 H 0.79263 0.05291 0.44763
 H850 H 0.79267 0.08311 0.41691
 C851 C 0.24925 0.15411 0.65650
 C852 C 0.22808 0.16495 0.66389
 C853 C 0.22829 0.18249 0.68107
 C854 C 0.24966 0.18955 0.69132
 C855 C 0.27082 0.17866 0.68400
 C856 C 0.27063 0.16118 0.66678
 C857 C 0.24906 0.13560 0.63817
 N858 N 0.26957 0.12568 0.63041
 N859 N 0.26942 0.10911 0.61389
 C860 C 0.24875 0.10173 0.60443
 N861 N 0.22824 0.11163 0.61220
 N862 N 0.22839 0.12822 0.62871
 C863 C 0.24860 0.08330 0.58600
 C864 C 0.22714 0.07512 0.57681
 C865 C 0.22703 0.05777 0.55943
 C866 C 0.24837 0.04823 0.55082
 C867 C 0.26982 0.05641 0.55999
 C868 C 0.26994 0.07372 0.57739
 H869 H 0.21129 0.15992 0.65641
 H870 H 0.21167 0.19030 0.68654
 H871 H 0.28760 0.18392 0.69132
 H872 H 0.28728 0.15325 0.66150
 H873 H 0.21038 0.08209 0.58303
 H874 H 0.21020 0.05186 0.55272
 H875 H 0.28657 0.04941 0.55375
 H876 H 0.28679 0.07960 0.58405
   
