data_POSCAR
  _audit_creation_date              2014-09-24
  _audit_creation_method            'ToBaCCo'
  _symmetry_space_group_name_H-M    'P1'
  _symmetry_Int_Tables_number       1
  _symmetry_cell_setting            triclinic
  loop_
  _symmetry_equiv_pos_as_xyz
 x,y,z
_cell_length_a 36.4043
_cell_length_b 36.2895
_cell_length_c 17.1656
_cell_angle_alpha 89.904800
_cell_angle_beta 90.063600
_cell_angle_gamma 119.732400
loop_
  _atom_site_label
  _atom_site_type_symbol
  _atom_site_fract_x
  _atom_site_fract_y
  _atom_site_fract_z
C1 C 0.50046 0.99943 0.46138
 C2 C 0.49997 0.99964 0.54072
 C3 C 0.47984 0.95976 0.58687
 C4 C 0.51945 1.03964 0.58652
 C5 C 0.52118 1.03930 0.41501
 C6 C 0.48003 0.95926 0.41596
 C7 C 0.44786 0.95270 0.63970
 C8 C 0.42934 0.91631 0.68594
 C9 C 0.44250 0.88548 0.68174
 C10 C 0.47512 0.89339 0.62757
 C11 C 0.49343 0.92993 0.58116
 C12 C 0.50769 1.07074 0.57525
 C13 C 0.52577 1.10758 0.62074
 C14 C 0.55552 1.11369 0.67898
 C15 C 0.56676 1.08217 0.69044
 C16 C 0.54893 1.04562 0.64475
 C17 C 0.56391 1.06984 0.42598
 C18 C 0.58275 1.10672 0.38046
 C19 C 0.55933 1.11345 0.32247
 C20 C 0.51673 1.08244 0.31117
 C21 C 0.49792 1.04585 0.35690
 C22 C 0.50354 0.95237 0.35904
 C23 C 0.48477 0.91580 0.31338
 C24 C 0.44195 0.88513 0.32366
 C25 C 0.41836 0.89210 0.38080
 C26 C 0.43714 0.92899 0.42609
 H27 H 0.43742 0.97580 0.64579
 H28 H 0.40652 0.91449 0.72809
 H29 H 0.48593 0.87095 0.61760
 H30 H 0.51836 0.93500 0.54080
 H31 H 0.48434 1.06637 0.53166
 H32 H 0.51657 1.13130 0.61018
 H33 H 0.55807 1.02181 0.65502
 H34 H 0.58269 1.06502 0.46949
 H35 H 0.61555 1.13003 0.39089
 H36 H 0.49802 1.08604 0.26587
 H37 H 0.46506 1.02248 0.34687
 H38 H 0.53652 0.97556 0.34961
 H39 H 0.50365 0.91205 0.26877
 H40 H 0.38540 0.86906 0.39056
 H41 H 0.41812 0.93409 0.46849
 H42 H 0.58875 1.08530 0.73590
 C43 C -0.00011 0.49998 0.45915
 C44 C -0.00031 0.50039 0.53851
 C45 C 0.03946 0.52101 0.58479
 C46 C -0.04033 0.48002 0.58404
 C47 C -0.03987 0.48013 0.41300
 C48 C 0.03979 0.51936 0.41334
 C49 C 0.04587 0.49758 0.64288
 C50 C 0.08232 0.51632 0.68861
 C51 C 0.11333 0.55903 0.67732
 C52 C 0.10674 0.58263 0.61934
 C53 C 0.06999 0.56385 0.57383
 C54 C -0.07072 0.43707 0.57381
 C55 C -0.10753 0.41839 0.61905
 C56 C -0.11433 0.44212 0.67623
 C57 C -0.08354 0.48498 0.68666
 C58 C -0.04703 0.50366 0.64107
 C59 C -0.06976 0.49357 0.41998
 C60 C -0.10625 0.47541 0.37379
 C61 C -0.11374 0.44335 0.31886
 C62 C -0.08309 0.43033 0.31278
 C63 C -0.04678 0.44857 0.35888
 C64 C 0.04600 0.54907 0.35520
 C65 C 0.08244 0.56678 0.30950
 C66 C 0.11364 0.55520 0.32086
 C67 C 0.10731 0.52521 0.37900
 C68 C 0.07057 0.50724 0.42450
 H69 H 0.02249 0.46464 0.65291
 H70 H 0.08581 0.49749 0.73390
 H71 H 0.13005 0.61552 0.60892
 H72 H 0.06528 0.58277 0.53034
 H73 H -0.06577 0.41795 0.53128
 H74 H -0.13067 0.38539 0.60918
 H75 H -0.02377 0.53669 0.65058
 H76 H -0.06475 0.51827 0.46104
 H77 H -0.12890 0.48596 0.38341
 H78 H -0.08558 0.40747 0.26980
 H79 H -0.02372 0.43822 0.35184
 H80 H 0.02243 0.55848 0.34501
 H81 H 0.08575 0.58897 0.26411
 H82 H 0.13078 0.51573 0.38948
 H83 H 0.06602 0.48371 0.46802
 H84 H -0.08716 0.50397 0.73132
 C85 C 0.50019 0.50013 0.46171
 C86 C 0.50006 0.50022 0.54083
 C87 C 0.47950 0.51978 0.58592
 C88 C 0.52043 0.48075 0.58692
 C89 C 0.51997 0.47969 0.41663
 C90 C 0.48054 0.52043 0.41563
 C91 C 0.49449 0.56351 0.58283
 C92 C 0.47559 0.58155 0.62815
 C93 C 0.44093 0.55617 0.67747
 C94 C 0.42595 0.51200 0.67881
 C95 C 0.44527 0.49426 0.63426
 C96 C 0.55451 0.50637 0.63548
 C97 C 0.57369 0.48871 0.68086
 C98 C 0.55872 0.44454 0.68015
 C99 C 0.52418 0.41906 0.63068
 C100 C 0.50542 0.43701 0.58454
 C101 C 0.49527 0.44731 0.36381
 C102 C 0.51339 0.42851 0.31880
 C103 C 0.55674 0.44201 0.32522
 C104 C 0.58148 0.47448 0.37833
 C105 C 0.56325 0.49322 0.42359
 C106 C 0.43723 0.50688 0.42189
 C107 C 0.41913 0.52552 0.37581
 C108 C 0.44403 0.55789 0.32253
 C109 C 0.48739 0.57138 0.31675
 C110 C 0.50539 0.55268 0.36261
 H111 H 0.52101 0.58369 0.54570
 H112 H 0.48765 0.61530 0.62230
 H113 H 0.40068 0.49094 0.71729
 H114 H 0.43358 0.46042 0.63780
 H115 H 0.56620 0.54021 0.63848
 H116 H 0.59886 0.50985 0.71941
 H117 H 0.47901 0.41676 0.54727
 H118 H 0.46189 0.43671 0.35725
 H119 H 0.49368 0.40414 0.27745
 H120 H 0.61492 0.48541 0.38474
 H121 H 0.58295 0.51861 0.46325
 H122 H 0.41742 0.48157 0.46169
 H123 H 0.38568 0.51461 0.38174
 H124 H 0.50723 0.59568 0.27532
 H125 H 0.53879 0.56328 0.35658
 H126 H 0.51213 0.38530 0.62532
 O127 O 0.39677 0.65744 -0.06770
 O128 O 0.39494 0.72777 -0.08903
 C129 C 0.37493 0.74741 -0.10271
 O130 O 0.34202 0.74038 -0.06505
 O131 O 0.27209 0.66899 -0.08915
 C132 C 0.25293 0.62968 -0.10466
 O133 O 0.25991 0.60322 -0.06830
 O134 O 0.33147 0.60478 -0.09158
 C135 C 0.37082 0.62472 -0.10564
 O136 O 0.39476 0.66734 0.08755
 O137 O 0.39634 0.73932 0.06629
 C138 C 0.37022 0.74604 0.10403
 O139 O 0.33091 0.72679 0.08955
 O140 O 0.25963 0.65696 0.06565
 C141 C 0.25279 0.62360 0.10204
 O142 O 0.27206 0.60346 0.08659
 O143 O 0.34217 0.60195 0.06316
 C144 C 0.37488 0.62779 0.10118
 Cr145 Cr 0.39326 0.69675 -0.00074
 Cr146 Cr 0.30239 0.69704 0.00018
 Cr147 Cr 0.30262 0.60582 -0.00248
 O148 O 0.33274 0.66653 -0.00102
 O149 O 0.60306 0.34320 -0.06423
 O150 O 0.60424 0.27268 -0.08694
 C151 C 0.62424 0.25326 -0.10238
 O152 O 0.65749 0.26008 -0.06610
 O153 O 0.72731 0.33142 -0.09001
 C154 C 0.74662 0.37083 -0.10470
 O155 O 0.73997 0.39714 -0.06726
 O156 O 0.66835 0.39585 -0.08864
 C157 C 0.62893 0.37600 -0.10224
 O158 O 0.60589 0.33269 0.09084
 O159 O 0.60394 0.26070 0.06800
 C160 C 0.63021 0.25354 0.10433
 O161 O 0.66939 0.27259 0.08873
 O162 O 0.74067 0.34258 0.06466
 C163 C 0.74778 0.37571 0.10202
 O164 O 0.72840 0.39594 0.08797
 O165 O 0.65843 0.39806 0.06633
 C166 C 0.62586 0.37219 0.10461
 Cr167 Cr 0.60674 0.30354 0.00186
 Cr168 Cr 0.69748 0.30291 -0.00063
 Cr169 Cr 0.69757 0.39428 -0.00037
 O170 O 0.66726 0.33356 0.00024
 C171 C 0.44608 0.82704 -0.25462
 C172 C 0.42506 0.85034 -0.27067
 C173 C 0.38544 0.83616 -0.23366
 C174 C 0.36902 0.80238 -0.18109
 C175 C 0.39114 0.78100 -0.16331
 C176 C 0.42945 0.79320 -0.20174
 H177 H 0.47693 0.83608 -0.27801
 H178 H 0.36558 0.84974 -0.24644
 H179 H 0.33882 0.79319 -0.15395
 H180 H 0.44740 0.77737 -0.18928
 C181 C 0.17075 0.55520 -0.24834
 C182 C 0.15163 0.57879 -0.27236
 C183 C 0.16820 0.62055 -0.24485
 C184 C 0.20209 0.63771 -0.19239
 C185 C 0.21992 0.61335 -0.16589
 C186 C 0.20431 0.57217 -0.19548
 H187 H 0.15947 0.52332 -0.26981
 H188 H 0.15399 0.63946 -0.26155
 H189 H 0.21334 0.66951 -0.17052
 H190 H 0.21770 0.55276 -0.17702
 C191 C 0.38008 0.55038 -0.24865
 C192 C 0.42254 0.57435 -0.27386
 C193 C 0.44650 0.61650 -0.24664
 C194 C 0.42941 0.63307 -0.19354
 C195 C 0.38767 0.60841 -0.16686
 C196 C 0.36294 0.56723 -0.19634
 H197 H 0.35938 0.51867 -0.27021
 H198 H 0.47944 0.63628 -0.26202
 H199 H 0.44931 0.66503 -0.17207
 H200 H 0.33048 0.54752 -0.17761
 C201 C 0.54912 0.16895 -0.24314
 C202 C 0.57404 0.15200 -0.27050
 C203 C 0.61641 0.17066 -0.24606
 C204 C 0.63292 0.20417 -0.19297
 C205 C 0.60761 0.22018 -0.16357
 C206 C 0.56578 0.20280 -0.19046
 H207 H 0.51626 0.15509 -0.26016
 H208 H 0.63678 0.15905 -0.26739
 H209 H 0.66544 0.21722 -0.17424
 H210 H 0.54544 0.21438 -0.16876
 C211 C 0.82825 0.44569 -0.24894
 C212 C 0.84749 0.42226 -0.27312
 C213 C 0.83117 0.38052 -0.24543
 C214 C 0.79740 0.36320 -0.19281
 C215 C 0.77946 0.38739 -0.16617
 C216 C 0.79483 0.42857 -0.19579
 H217 H 0.83932 0.47754 -0.27051
 H218 H 0.84549 0.36173 -0.26211
 H219 H 0.78635 0.33142 -0.17085
 H220 H 0.78134 0.44783 -0.17716
 C221 C 0.55307 0.38434 -0.24301
 C222 C 0.57705 0.42646 -0.27056
 C223 C 0.61948 0.45047 -0.24524
 C224 C 0.63664 0.43364 -0.19272
 C225 C 0.61194 0.39244 -0.16313
 C226 C 0.57018 0.36780 -0.18970
 H227 H 0.52014 0.36456 -0.25842
 H228 H 0.64019 0.48217 -0.26697
 H229 H 0.66912 0.45334 -0.17405
 H230 H 0.55030 0.33583 -0.16813
 C231 C 0.82871 0.44807 0.25064
 C232 C 0.84991 0.42548 0.26977
 C233 C 0.83443 0.38483 0.23639
 C234 C 0.80080 0.36848 0.18375
 C235 C 0.78115 0.39191 0.16273
 C236 C 0.79495 0.43154 0.19787
 H237 H 0.83936 0.47972 0.27236
 H238 H 0.84742 0.36470 0.25172
 H239 H 0.79042 0.33740 0.15901
 H240 H 0.78053 0.45049 0.18283
 C241 C 0.55575 0.17121 0.24813
 C242 C 0.57915 0.15191 0.27216
 C243 C 0.62077 0.16841 0.24464
 C244 C 0.63799 0.20243 0.19217
 C245 C 0.61382 0.22044 0.16564
 C246 C 0.57278 0.20489 0.19525
 H247 H 0.52398 0.15997 0.26961
 H248 H 0.63953 0.15406 0.26136
 H249 H 0.66968 0.21362 0.17028
 H250 H 0.55352 0.21842 0.17677
 C251 C 0.55489 0.37973 0.25786
 C252 C 0.57616 0.42346 0.27393
 C253 C 0.61512 0.44972 0.23739
 C254 C 0.63176 0.43286 0.18398
 C255 C 0.60986 0.38932 0.16599
 C256 C 0.57157 0.36282 0.20460
 H257 H 0.52508 0.35864 0.28599
 H258 H 0.63205 0.48358 0.24797
 H259 H 0.66138 0.45419 0.15550
 H260 H 0.55397 0.32912 0.19245
 C261 C 0.16851 0.54842 0.24283
 C262 C 0.15185 0.57362 0.27035
 C263 C 0.17072 0.61617 0.24605
 C264 C 0.20413 0.63260 0.19292
 C265 C 0.21984 0.60704 0.16334
 C266 C 0.20226 0.56501 0.19011
 H267 H 0.15448 0.51542 0.25975
 H268 H 0.15935 0.63674 0.26750
 H269 H 0.21735 0.66528 0.17428
 H270 H 0.21360 0.54447 0.16826
 C271 C 0.38042 0.83088 0.24512
 C272 C 0.42197 0.84692 0.27286
 C273 C 0.44509 0.82739 0.24856
 C274 C 0.42786 0.79397 0.19525
 C275 C 0.38688 0.77888 0.16561
 C276 C 0.36299 0.79709 0.19236
 H277 H 0.36187 0.84543 0.26187
 H278 H 0.47678 0.83823 0.27014
 H279 H 0.44688 0.78025 0.17655
 H280 H 0.33137 0.78627 0.17038
 C281 C 0.38585 0.55015 0.23387
 C282 C 0.42476 0.57641 0.27058
 C283 C 0.44605 0.62014 0.25429
 C284 C 0.42938 0.63706 0.20084
 C285 C 0.39108 0.61057 0.16224
 C286 C 0.36923 0.56701 0.18027
 H287 H 0.36892 0.51628 0.24461
 H288 H 0.47582 0.64124 0.28252
 H289 H 0.44694 0.67077 0.18865
 H290 H 0.33961 0.54568 0.15180
   
