data_POSCAR
  _audit_creation_date              2014-09-24
  _audit_creation_method            'ToBaCCo'
  _symmetry_space_group_name_H-M    'P1'
  _symmetry_Int_Tables_number       1
  _symmetry_cell_setting            triclinic
  loop_
  _symmetry_equiv_pos_as_xyz
 x,y,z
_cell_length_a 25.8188
_cell_length_b 25.8190
_cell_length_c 25.7435
_cell_angle_alpha 90.179400
_cell_angle_beta 90.185400
_cell_angle_gamma 90.003700
loop_
  _atom_site_label
  _atom_site_type_symbol
  _atom_site_fract_x
  _atom_site_fract_y
  _atom_site_fract_z
O1 O 0.57290 0.12953 0.00544
 O2 O 0.63080 0.06210 0.00224
 C3 C 0.61963 0.11105 0.00470
 O4 O 0.42837 -0.00454 0.13223
 O5 O 0.37049 -0.00082 0.06440
 C6 C 0.38163 -0.00350 0.11352
 O7 O 0.57274 0.00309 0.13262
 O8 O 0.63067 -0.00073 0.06535
 C9 C 0.61965 0.00207 0.11451
 O10 O 0.42848 0.12964 -0.00171
 O11 O 0.37050 0.06229 0.00123
 C12 C 0.38173 0.11122 -0.00118
 Zr13 Zr 0.50064 0.09127 0.00203
 O14 O 0.49480 0.14857 0.06077
 O15 O 0.50649 0.14943 -0.05546
 Zr16 Zr 0.50053 -0.00112 0.09397
 O17 O 0.49532 0.05475 0.15408
 O18 O 0.50314 -0.06272 0.14780
 O19 O 0.54708 0.05235 0.05549
 O20 O 0.45543 0.05189 0.05469
 O21 O 0.42824 0.00272 -0.12939
 O22 O 0.37037 -0.00045 -0.06193
 C23 C 0.38151 0.00206 -0.11097
 O24 O 0.57273 -0.13138 -0.00179
 O25 O 0.63069 -0.06398 0.00156
 C26 C 0.61947 -0.11293 -0.00104
 O27 O 0.42853 -0.13137 0.00528
 O28 O 0.37059 -0.06400 0.00107
 C29 C 0.38179 -0.11293 0.00397
 O30 O 0.57263 -0.00421 -0.12909
 O31 O 0.63066 -0.00087 -0.06137
 C32 C 0.61939 -0.00336 -0.11050
 Zr33 Zr 0.50050 -0.00086 -0.09081
 O34 O 0.49452 -0.05897 -0.14876
 O35 O 0.50638 0.05695 -0.14866
 Zr36 Zr 0.50057 -0.09297 0.00134
 O37 O 0.49464 -0.15045 -0.05725
 O38 O 0.50546 -0.15074 0.05930
 Zr39 Zr 0.57853 -0.00088 0.00182
 Zr40 Zr 0.42266 -0.00077 0.00134
 O41 O 0.45530 -0.05368 -0.05166
 O42 O 0.54706 -0.05422 -0.05195
 O43 O 0.45413 0.05258 -0.05185
 O44 O 0.54596 -0.05373 0.05456
 O45 O 0.54571 0.05196 -0.05105
 O46 O 0.45397 -0.05412 0.05467
 H47 H 0.43246 0.07358 0.07654
 H48 H 0.56909 -0.07537 0.07631
 H49 H 0.43216 -0.07536 -0.07348
 H50 H 0.56870 0.07368 -0.07271
 H51 H 0.50325 -0.04651 0.18275
 H52 H 0.48155 -0.14057 0.08751
 H53 H 0.52401 -0.14563 -0.08132
 H54 H 0.52368 -0.08329 -0.14372
 H55 H 0.47755 0.08160 -0.14336
 H56 H 0.47807 0.14379 -0.08070
 H57 H 0.52472 0.14429 0.08446
 H58 H 0.52097 0.08211 0.14647
 O59 O -0.00324 0.57148 -0.13203
 O60 O 0.00027 0.62933 -0.06418
 C61 C -0.00240 0.61821 -0.11331
 O62 O -0.12990 0.42701 0.00222
 O63 O -0.06254 0.36905 -0.00179
 C64 C -0.11146 0.38026 0.00113
 O65 O -0.12988 0.57129 -0.00506
 O66 O -0.06250 0.62923 -0.00116
 C67 C -0.11144 0.61803 -0.00392
 O68 O 0.00346 0.42698 -0.13252
 O69 O 0.00048 0.36901 -0.06525
 C70 C 0.00270 0.38006 -0.11441
 Zr71 Zr 0.00017 0.49917 -0.09388
 O72 O -0.05819 0.49331 -0.15159
 O73 O 0.05772 0.50501 -0.15198
 Zr74 Zr -0.09152 0.49909 -0.00123
 O75 O -0.15129 0.49378 -0.05749
 O76 O -0.14533 0.50173 0.06043
 O77 O -0.05300 0.54560 -0.05472
 O78 O -0.05250 0.45395 -0.05451
 O79 O 0.13098 0.42687 -0.00511
 O80 O 0.06358 0.36893 -0.00223
 C81 C 0.11252 0.38013 -0.00453
 O82 O 0.00398 0.57145 0.12960
 O83 O 0.00096 0.62930 0.06210
 C84 C 0.00333 0.61817 0.11117
 O85 O -0.00345 0.42723 0.12924
 O86 O 0.00064 0.36919 0.06158
 C87 C -0.00233 0.38047 0.11067
 O88 O 0.13110 0.57125 0.00226
 O89 O 0.06372 0.62920 -0.00108
 C90 C 0.11266 0.61799 0.00154
 Zr91 Zr 0.09272 0.49909 -0.00154
 O92 O 0.15075 0.49319 0.05645
 O93 O 0.15013 0.50497 -0.05978
 Zr94 Zr 0.00094 0.49920 0.09091
 O95 O 0.05965 0.49331 0.14824
 O96 O -0.05654 0.50403 0.14914
 Zr97 Zr 0.00059 0.57706 -0.00123
 Zr98 Zr 0.00059 0.42119 -0.00178
 O99 O 0.05357 0.45390 0.05134
 O100 O 0.05416 0.54568 0.05214
 O101 O 0.05371 0.45263 -0.05522
 O102 O -0.05206 0.54449 0.05169
 O103 O 0.05321 0.54430 -0.05435
 O104 O -0.05243 0.45260 0.05182
 H105 H -0.07438 0.43097 -0.07629
 H106 H -0.07370 0.56756 0.07349
 H107 H 0.07524 0.43077 0.07305
 H108 H 0.07484 0.56735 -0.07604
 H109 H -0.18015 0.50180 0.04410
 H110 H -0.08522 0.48086 0.13846
 H111 H 0.08314 0.52325 0.14403
 H112 H 0.14533 0.52184 0.08143
 H113 H 0.14504 0.47578 -0.08423
 H114 H 0.08245 0.47624 -0.14670
 H115 H -0.08213 0.52284 -0.14684
 H116 H -0.14397 0.51992 -0.08447
 O117 O 0.12946 -0.00284 0.42800
 O118 O 0.06207 0.00034 0.36968
 C119 C 0.11103 -0.00217 0.38107
 O120 O -0.00417 -0.12967 0.57218
 O121 O -0.00079 -0.06225 0.63046
 C122 C -0.00331 -0.11122 0.61909
 O123 O 0.00256 -0.12990 0.42753
 O124 O -0.00093 -0.06266 0.36945
 C125 C 0.00171 -0.11158 0.38067
 O126 O 0.12962 0.00435 0.57267
 O127 O 0.06235 0.00111 0.63069
 C128 C 0.11127 0.00361 0.61951
 Zr129 Zr 0.09118 0.00082 0.50023
 O130 O 0.14909 -0.05695 0.50620
 O131 O 0.14871 0.05897 0.49448
 Zr132 Zr -0.00087 -0.09143 0.49992
 O133 O 0.05714 -0.14911 0.50589
 O134 O -0.05882 -0.14919 0.49380
 O135 O 0.05240 -0.05268 0.45343
 O136 O 0.05200 -0.05199 0.54540
 O137 O 0.00246 0.13132 0.57259
 O138 O -0.00066 0.06406 0.63066
 C139 C 0.00178 0.11299 0.61946
 O140 O -0.13154 0.00384 0.42745
 O141 O -0.06426 0.00048 0.36941
 C142 C -0.11320 0.00297 0.38058
 O143 O -0.13126 -0.00276 0.57232
 O144 O -0.06374 0.00075 0.63050
 C145 C -0.11270 -0.00188 0.61923
 O146 O -0.00458 0.13098 0.42770
 O147 O -0.00128 0.06344 0.36955
 C148 C -0.00380 0.11241 0.38080
 Zr149 Zr -0.00106 0.09284 0.50013
 O150 O -0.05916 0.15044 0.50599
 O151 O 0.05676 0.15070 0.49441
 Zr152 Zr -0.09309 0.00060 0.49991
 O153 O -0.15085 0.05854 0.50581
 O154 O -0.15079 -0.05742 0.49384
 Zr155 Zr -0.00105 0.00054 0.42187
 Zr156 Zr -0.00082 0.00084 0.57823
 O157 O -0.05376 0.05356 0.54536
 O158 O -0.05443 0.05389 0.45334
 O159 O 0.05240 0.05422 0.54687
 O160 O -0.05380 -0.05227 0.45456
 O161 O 0.05176 0.05350 0.45487
 O162 O -0.05418 -0.05262 0.54656
 H163 H 0.07375 -0.07363 0.56852
 H164 H -0.07550 -0.07403 0.43137
 H165 H -0.07543 0.07526 0.56849
 H166 H 0.07341 0.07515 0.43181
 H167 H -0.08325 -0.14402 0.52286
 H168 H -0.14561 -0.08180 0.52295
 H169 H -0.14577 0.08295 0.47674
 H170 H -0.08351 0.14533 0.47668
 H171 H 0.08138 0.14553 0.52344
 H172 H 0.14375 0.08330 0.52379
 H173 H 0.14375 -0.08170 0.47728
 H174 H 0.08158 -0.14401 0.47685
 C175 C -0.26183 0.22140 0.00614
 N176 N -0.31227 0.23563 0.00919
 N177 N -0.34962 0.20021 0.00905
 C178 C -0.33808 0.14907 0.00588
 N179 N -0.28755 0.13456 0.00300
 N180 N -0.25001 0.17016 0.00311
 C181 C -0.22164 0.26166 0.00543
 N182 N -0.17045 0.24984 0.00185
 N183 N -0.13492 0.28741 0.00061
 C184 C -0.14945 0.33798 0.00286
 N185 N -0.20053 0.34953 0.00651
 N186 N -0.23588 0.31214 0.00777
 C187 C 0.26319 0.77679 0.00588
 N188 N 0.25139 0.82799 0.00256
 N189 N 0.28895 0.86357 0.00223
 C190 C 0.33950 0.84906 0.00520
 N191 N 0.35102 0.79796 0.00864
 N192 N 0.31365 0.76257 0.00899
 C193 C 0.22296 0.73656 0.00543
 N194 N 0.23719 0.68608 0.00791
 N195 N 0.20179 0.64872 0.00684
 C196 C 0.15068 0.66027 0.00326
 N197 N 0.13618 0.71083 0.00090
 N198 N 0.17176 0.74838 0.00195
 C199 C 0.26314 0.22143 -0.00552
 N200 N 0.25132 0.17023 -0.00233
 N201 N 0.28889 0.13468 -0.00111
 C202 C 0.33946 0.14922 -0.00298
 N203 N 0.35101 0.20033 -0.00625
 N204 N 0.31363 0.23569 -0.00750
 C205 C 0.22288 0.26162 -0.00617
 N206 N 0.23710 0.31209 -0.00889
 N207 N 0.20168 0.34942 -0.00868
 C208 C 0.15055 0.33786 -0.00577
 N209 N 0.13605 0.28730 -0.00321
 N210 N 0.17166 0.24978 -0.00340
 C211 C -0.26199 0.77680 -0.00502
 N212 N -0.25013 0.82801 -0.00160
 N213 N -0.28768 0.86358 -0.00049
 C214 C -0.33826 0.84906 -0.00272
 N215 N -0.34984 0.79794 -0.00622
 N216 N -0.31248 0.76256 -0.00735
 C217 C -0.22175 0.73658 -0.00558
 N218 N -0.23600 0.68612 -0.00863
 N219 N -0.20059 0.64876 -0.00839
 C220 C -0.14946 0.66030 -0.00511
 N221 N -0.13493 0.71086 -0.00221
 N222 N -0.17052 0.74840 -0.00244
 C223 C 0.00548 -0.26282 0.22168
 N224 N 0.00809 -0.31323 0.23605
 N225 N 0.00765 -0.35076 0.20060
 C226 C 0.00461 -0.33944 0.14929
 N227 N 0.00214 -0.28894 0.13465
 N228 N 0.00255 -0.25123 0.17027
 C229 C 0.00518 -0.22240 0.26194
 N230 N 0.00195 -0.17124 0.24997
 N231 N 0.00103 -0.13548 0.28756
 C232 C 0.00328 -0.14975 0.33831
 N233 N 0.00661 -0.20081 0.35000
 N234 N 0.00755 -0.23638 0.31260
 C235 C 0.00486 0.26440 0.77851
 N236 N 0.00649 0.31478 0.76398
 N237 N 0.00594 0.35241 0.79930
 C238 C 0.00376 0.34137 0.85079
 N239 N 0.00230 0.29077 0.86550
 N240 N 0.00281 0.25295 0.82997
 C241 C 0.00476 0.22389 0.73827
 N242 N 0.00216 0.17269 0.75024
 N243 N 0.00142 0.13692 0.71264
 C244 C 0.00324 0.15120 0.66187
 N245 N 0.00595 0.20229 0.65019
 N246 N 0.00670 0.23787 0.68760
 C247 C -0.00594 0.26228 0.22133
 N248 N -0.00236 0.25025 0.17000
 N249 N -0.00143 0.28766 0.13429
 C250 C -0.00402 0.33829 0.14878
 N251 N -0.00770 0.35002 0.20001
 N252 N -0.00865 0.31281 0.23553
 C253 C -0.00619 0.22222 0.26174
 N254 N -0.00904 0.23667 0.31233
 N255 N -0.00853 0.20144 0.34986
 C256 C -0.00517 0.15027 0.33836
 N257 N -0.00246 0.13554 0.28768
 N258 N -0.00295 0.17095 0.24997
 C259 C -0.00556 -0.26259 0.77711
 N260 N -0.00809 -0.31300 0.76236
 N261 N -0.00727 -0.35059 0.79750
 C262 C -0.00392 -0.33935 0.84888
 N263 N -0.00152 -0.28886 0.86390
 N264 N -0.00231 -0.25108 0.82858
 C265 C -0.00572 -0.22210 0.73714
 N266 N -0.00256 -0.17093 0.74945
 N267 N -0.00204 -0.13512 0.71211
 C268 C -0.00462 -0.14937 0.66127
 N269 N -0.00789 -0.20044 0.64926
 N270 N -0.00844 -0.23604 0.68640
 C271 C 0.26251 0.00566 0.77856
 N272 N 0.25090 0.00244 0.82992
 N273 N 0.28861 0.00150 0.86554
 C274 C 0.33913 0.00370 0.85092
 N275 N 0.35047 0.00702 0.79965
 N276 N 0.31294 0.00799 0.76422
 C277 C 0.22208 0.00597 0.73829
 N278 N 0.23608 0.00867 0.68767
 N279 N 0.20051 0.00818 0.65026
 C280 C 0.14943 0.00499 0.66190
 N281 N 0.13515 0.00243 0.71262
 N282 N 0.17091 0.00289 0.75022
 C283 C -0.26464 0.00517 0.22155
 N284 N -0.25321 0.00256 0.17009
 N285 N -0.29105 0.00176 0.13458
 C286 C -0.34164 0.00346 0.14930
 N287 N -0.35266 0.00622 0.20078
 N288 N -0.31501 0.00706 0.23608
 C289 C -0.22411 0.00534 0.26178
 N290 N -0.23808 0.00770 0.31245
 N291 N -0.20249 0.00716 0.34985
 C292 C -0.15140 0.00424 0.33817
 N293 N -0.13714 0.00201 0.28740
 N294 N -0.17293 0.00254 0.24980
 C295 C 0.26243 -0.00577 0.22311
 N296 N 0.25093 -0.00265 0.17164
 N297 N 0.28871 -0.00217 0.13632
 C298 C 0.33919 -0.00478 0.15134
 N299 N 0.35042 -0.00802 0.20271
 N300 N 0.31282 -0.00851 0.23785
 C301 C 0.22193 -0.00555 0.26307
 N302 N 0.23586 -0.00802 0.31381
 N303 N 0.20025 -0.00714 0.35094
 C304 C 0.14919 -0.00377 0.33892
 N305 N 0.13497 -0.00143 0.28808
 N306 N 0.17078 -0.00228 0.25074
 C307 C -0.26248 -0.00547 0.77873
 N308 N -0.25043 -0.00241 0.83011
 N309 N -0.28781 -0.00200 0.86586
 C310 C -0.33844 -0.00461 0.85136
 N311 N -0.35020 -0.00778 0.80008
 N312 N -0.31301 -0.00822 0.76452
 C313 C -0.22245 -0.00519 0.73830
 N314 N -0.23693 -0.00762 0.68768
 N315 N -0.20173 -0.00673 0.65014
 C316 C -0.15056 -0.00339 0.66165
 N317 N -0.13580 -0.00108 0.71236
 N318 N -0.17119 -0.00194 0.75009
   
