data_POSCAR
  _audit_creation_date              2014-09-24
  _audit_creation_method            'ToBaCCo'
  _symmetry_space_group_name_H-M    'P1'
  _symmetry_Int_Tables_number       1
  _symmetry_cell_setting            triclinic
  loop_
  _symmetry_equiv_pos_as_xyz
 x,y,z
_cell_length_a 54.6393
_cell_length_b 54.4462
_cell_length_c 19.4358
_cell_angle_alpha 89.956400
_cell_angle_beta 90.053600
_cell_angle_gamma 120.203900
loop_
  _atom_site_label
  _atom_site_type_symbol
  _atom_site_fract_x
  _atom_site_fract_y
  _atom_site_fract_z
O1 O 0.25166 0.45541 0.56310
 O2 O 0.20367 0.45506 0.43198
 O3 O 0.25104 0.45513 0.43116
 O4 O 0.20410 0.45499 0.56455
 O5 O 0.22681 0.50182 0.56548
 O6 O 0.27501 0.50196 0.42979
 O7 O 0.22651 0.50184 0.42998
 O8 O 0.27548 0.50225 0.56447
 Cu9 Cu 0.22530 0.45060 0.49775
 Cu10 Cu 0.25326 0.50675 0.49742
 C11 C 0.27202 0.47858 0.58570
 C12 C 0.20646 0.47808 0.40838
 C13 C 0.27131 0.47826 0.40819
 C14 C 0.20701 0.47808 0.58774
 O15 O 0.54893 -0.20711 0.56947
 O16 O 0.53647 -0.25945 0.43369
 O17 O 0.54959 -0.20605 0.43749
 O18 O 0.53586 -0.26055 0.56818
 O19 O 0.49039 -0.27447 0.56702
 O20 O 0.50394 -0.22031 0.43628
 O21 O 0.49098 -0.27328 0.43291
 O22 O 0.50330 -0.22166 0.56950
 Cu23 Cu 0.54725 -0.23213 0.50229
 Cu24 Cu 0.49261 -0.24887 0.50128
 C25 C 0.52817 -0.20511 0.59199
 C26 C 0.51166 -0.27528 0.40998
 C27 C 0.52903 -0.20359 0.41556
 C28 C 0.51084 -0.27684 0.59023
 O29 O 1.24142 0.79537 0.43468
 O30 O 1.20126 0.74142 0.56746
 O31 O 1.24091 0.79527 0.56623
 O32 O 1.20175 0.74172 0.43247
 O33 O 1.23396 0.72866 0.43381
 O34 O 1.27285 0.78176 0.56783
 O35 O 1.23356 0.72854 0.56792
 O36 O 1.27333 0.78183 0.43493
 Cu37 Cu 1.21782 0.76944 0.50018
 Cu38 Cu 1.25657 0.75380 0.50125
 C39 C 1.26461 0.79810 0.41321
 C40 C 1.21052 0.72577 0.59072
 C41 C 1.26398 0.79802 0.58863
 C42 C 1.21118 0.72615 0.40994
 O43 O 0.79684 0.54483 0.43604
 O44 O 0.74884 0.54536 0.56562
 O45 O 0.79608 0.54518 0.56800
 O46 O 0.74979 0.54540 0.43312
 O47 O 0.72544 0.49858 0.43242
 O48 O 0.77304 0.49834 0.56937
 O49 O 0.72475 0.49859 0.56787
 O50 O 0.77359 0.49799 0.43469
 Cu51 Cu 0.77515 0.54974 0.50065
 Cu52 Cu 0.74671 0.49359 0.50110
 C53 C 0.79396 0.52163 0.41365
 C54 C 0.72847 0.52237 0.58908
 C55 C 0.79305 0.52203 0.59123
 C56 C 0.72957 0.52232 0.40982
 O57 O 0.46279 0.25889 0.43211
 O58 O 0.45086 0.20650 0.56773
 O59 O 0.46331 0.25966 0.56715
 O60 O 0.45002 0.20553 0.43606
 O61 O 0.49575 0.22015 0.43472
 O62 O 0.50892 0.27399 0.56576
 O63 O 0.49656 0.22136 0.56752
 O64 O 0.50834 0.27300 0.43157
 Cu65 Cu 0.45219 0.23151 0.50077
 Cu66 Cu 0.50696 0.24866 0.49970
 C67 C 0.48759 0.27483 0.40843
 C68 C 0.47174 0.20460 0.58992
 C69 C 0.48830 0.27593 0.58929
 C70 C 0.47067 0.20321 0.41430
 O71 O 0.79708 0.25976 0.56769
 O72 O 0.75654 0.20591 0.43514
 O73 O 0.79660 0.25949 0.43288
 O74 O 0.75713 0.20591 0.56606
 O75 O 0.72536 0.21966 0.56752
 O76 O 0.76472 0.27298 0.43399
 O77 O 0.72490 0.21983 0.43501
 O78 O 0.76496 0.27290 0.56843
 Cu79 Cu 0.78037 0.23179 0.50042
 Cu80 Cu 0.74191 0.24783 0.50136
 C81 C 0.78798 0.27553 0.59107
 C82 C 0.73333 0.20325 0.41390
 C83 C 0.78744 0.27530 0.41038
 C84 C 0.73397 0.20312 0.58785
 O85 O 0.97240 0.43694 0.12423
 O86 O 0.93597 0.43515 0.06118
 C87 C 0.94585 0.42529 0.10779
 O88 O 1.02891 0.56600 0.11656
 O89 O 1.06545 0.56625 0.05776
 C90 C 1.05546 0.57733 0.10060
 O91 O 0.95237 0.51117 0.12408
 O92 O 0.92622 0.47063 0.06053
 C93 C 0.92860 0.48884 0.10714
 O94 O 1.05008 0.48793 0.11723
 O95 O 1.07566 0.52947 0.05679
 C96 C 1.07372 0.51047 0.10043
 Zr97 Zr 1.00804 0.47383 0.08591
 O98 O 1.01107 0.47688 0.19456
 O99 O 1.01399 0.43830 0.08820
 Zr100 Zr 0.99373 0.52719 0.08523
 O101 O 0.99657 0.52975 0.19390
 O102 O 0.98335 0.55967 0.07929
 O103 O 0.97601 0.48354 0.09953
 O104 O 1.02514 0.51708 0.09821
 O105 O 1.04979 0.48756 -0.11864
 O106 O 1.07549 0.52931 -0.05906
 C107 C 1.07345 0.51017 -0.10228
 O108 O 0.95183 0.51112 -0.12427
 O109 O 0.92601 0.47045 -0.06081
 C110 C 0.92816 0.48873 -0.10696
 O111 O 1.02842 0.56582 -0.11883
 O112 O 1.06519 0.56609 -0.06094
 C113 C 1.05506 0.57713 -0.10359
 O114 O 0.97209 0.43648 -0.12462
 O115 O 0.93582 0.43492 -0.06149
 C116 C 0.94558 0.42488 -0.10790
 Zr117 Zr 1.00780 0.47353 -0.08705
 O118 O 1.01050 0.47622 -0.19575
 O119 O 1.01377 0.43801 -0.08870
 Zr120 Zr 0.99346 0.52680 -0.08758
 O121 O 0.99658 0.52754 -0.19628
 O122 O 0.98215 0.55867 -0.09039
 Zr123 Zr 0.95898 0.47182 -0.00044
 Zr124 Zr 1.04249 0.52881 -0.00113
 O125 O 1.02492 0.51674 -0.10028
 O126 O 0.97566 0.48312 -0.10080
 O127 O 1.03389 0.48643 -0.00072
 O128 O 0.96825 0.51430 -0.00088
 O129 O 0.98471 0.45322 -0.00032
 O130 O 1.01739 0.54812 -0.00137
 H131 H 1.03768 0.52566 0.13863
 H132 H 0.95257 0.51847 -0.00067
 H133 H 1.03743 0.52525 -0.14074
 H134 H 0.97573 0.43224 -0.00011
 H135 H 0.98203 0.56495 0.12737
 H136 H 0.99131 0.57120 -0.05033
 H137 H 0.98148 0.50897 -0.21371
 H138 H 0.99208 0.47287 -0.21338
 H139 H 1.02998 0.44238 -0.05829
 H140 H 1.03015 0.44258 0.05776
 H141 H 0.99257 0.47316 0.21246
 H142 H 0.98418 0.51037 0.21212
 O143 O 0.44097 0.48880 0.12340
 O144 O 0.45564 0.52946 0.06013
 C145 C 0.43963 0.51115 0.10636
 O146 O 0.56261 0.51279 0.11705
 O147 O 0.54648 0.47116 0.05711
 C148 C 0.56364 0.49024 0.10041
 O149 O 0.53569 0.56348 0.12410
 O150 O 0.50098 0.56512 0.06103
 C151 C 0.52075 0.57506 0.10765
 O152 O 0.46331 0.43440 0.11718
 O153 O 0.49920 0.43389 0.05706
 C154 C 0.47837 0.42296 0.10070
 Zr155 Zr 0.46682 0.47320 0.08589
 O156 O 0.46907 0.47204 0.19456
 O157 O 0.42339 0.44168 0.08869
 Zr158 Zr 0.53453 0.52668 0.08579
 O159 O 0.53470 0.52381 0.19445
 O160 O 0.57603 0.56235 0.08754
 O161 O 0.49272 0.51687 0.09964
 O162 O 0.50842 0.48343 0.09859
 O163 O 0.46314 0.43459 -0.11890
 O164 O 0.49946 0.43436 -0.06004
 C165 C 0.47843 0.42333 -0.10313
 O166 O 0.53567 0.56375 -0.12491
 O167 O 0.50090 0.56514 -0.06164
 C168 C 0.52066 0.57521 -0.10817
 O169 O 0.56239 0.51289 -0.11915
 O170 O 0.54611 0.47101 -0.06011
 C171 C 0.56332 0.49022 -0.10319
 O172 O 0.44091 0.48900 -0.12452
 O173 O 0.45552 0.52953 -0.06086
 C174 C 0.43950 0.51128 -0.10728
 Zr175 Zr 0.46676 0.47336 -0.08725
 O176 O 0.46894 0.47234 -0.19594
 O177 O 0.42332 0.44186 -0.09011
 Zr178 Zr 0.53440 0.52678 -0.08727
 O179 O 0.53427 0.52396 -0.19597
 O180 O 0.57593 0.56239 -0.08919
 Zr181 Zr 0.48728 0.52837 -0.00048
 Zr182 Zr 0.51393 0.47164 -0.00075
 O183 O 0.50831 0.48357 -0.10000
 O184 O 0.49260 0.51703 -0.10080
 O185 O 0.46937 0.45216 -0.00079
 O186 O 0.53166 0.54712 -0.00061
 O187 O 0.45410 0.48577 -0.00057
 O188 O 0.54774 0.51405 -0.00086
 H189 H 0.51248 0.47484 0.13881
 H190 H 0.54364 0.56811 -0.00050
 H191 H 0.51227 0.47510 -0.14055
 H192 H 0.43418 0.48145 -0.00055
 H193 H 0.58791 0.55807 0.05716
 H194 H 0.58783 0.55807 -0.05892
 H195 H 0.51931 0.52748 -0.21358
 H196 H 0.47281 0.49100 -0.21359
 H197 H 0.42059 0.42645 -0.05852
 H198 H 0.42068 0.42624 0.05723
 H199 H 0.47293 0.49068 0.21234
 H200 H 0.51951 0.52690 0.21229
 O201 O 0.47701 0.03998 0.12345
 O202 O 0.51527 0.07046 0.05791
 C203 C 0.49664 0.06535 0.10528
 O204 O 0.52330 -0.04102 0.11976
 O205 O 0.48395 -0.07153 0.05741
 C206 C 0.50349 -0.06642 0.10222
 O207 O 0.56211 0.03934 0.12503
 O208 O 0.55525 0.07010 0.05833
 C209 C 0.56844 0.06482 0.10625
 O210 O 0.43409 -0.04037 0.11765
 O211 O 0.44276 -0.07123 0.05671
 C212 C 0.42822 -0.06588 0.10053
 Zr213 Zr 0.46819 -0.00030 0.08534
 O214 O 0.46566 -0.00289 0.19400
 O215 O 0.43044 0.00131 0.07811
 Zr216 Zr 0.53009 -0.00078 0.08681
 O217 O 0.52931 -0.00331 0.19554
 O218 O 0.56914 0.00009 0.08141
 O219 O 0.51192 0.02469 0.09929
 O220 O 0.48670 -0.02502 0.09881
 O221 O 0.43389 -0.04051 -0.11887
 O222 O 0.44226 -0.07128 -0.05656
 C223 C 0.42769 -0.06600 -0.10045
 O224 O 0.56303 0.03909 -0.12459
 O225 O 0.55539 0.06989 -0.06051
 C226 C 0.56919 0.06459 -0.10652
 O227 O 0.52385 -0.04115 -0.11973
 O228 O 0.48418 -0.07157 -0.05813
 C229 C 0.50368 -0.06647 -0.10301
 O230 O 0.47710 0.03965 -0.12721
 O231 O 0.51484 0.07038 -0.06026
 C232 C 0.49670 0.06503 -0.10919
 Zr233 Zr 0.46845 -0.00045 -0.08840
 O234 O 0.46723 -0.00380 -0.19700
 O235 O 0.43134 0.00260 -0.08932
 Zr236 Zr 0.53044 -0.00094 -0.08741
 O237 O 0.52877 -0.00374 -0.19612
 O238 O 0.57007 0.00093 -0.08668
 Zr239 Zr 0.52066 0.04139 -0.00134
 Zr240 Zr 0.47808 -0.04253 -0.00075
 O241 O 0.48697 -0.02523 -0.10052
 O242 O 0.51228 0.02453 -0.10174
 O243 O 0.45086 -0.02564 -0.00134
 O244 O 0.54718 0.02375 -0.00028
 O245 O 0.47653 0.02441 -0.00171
 O246 O 0.52210 -0.02624 -0.00001
 H247 H 0.48015 -0.03773 0.13946
 H248 H 0.56800 0.03649 0.00011
 H249 H 0.48024 -0.03823 -0.14059
 H250 H 0.46881 0.03744 -0.00198
 H251 H 0.57496 -0.00006 0.12965
 H252 H 0.56929 -0.01199 -0.04980
 H253 H 0.52790 0.01285 -0.21378
 H254 H 0.48523 0.01208 -0.21474
 H255 H 0.41891 -0.00995 -0.05228
 H256 H 0.42428 0.00128 0.12607
 H257 H 0.48428 0.01175 0.21211
 H258 H 0.52623 0.01197 0.21306
 C259 C 1.18812 0.50126 0.33109
 C260 C 1.16699 0.49894 0.28522
 C261 C 1.14426 0.47172 0.26785
 C262 C 1.14331 0.44741 0.29432
 C263 C 1.16423 0.44980 0.33922
 C264 C 1.18670 0.47663 0.35942
 C265 C 1.12242 0.46903 0.22515
 C266 C 1.12279 0.49318 0.19928
 C267 C 1.14581 0.52050 0.21417
 C268 C 1.16784 0.52325 0.25721
 C269 C 1.14600 0.54448 0.18661
 C270 C 1.12314 0.54137 0.14685
 C271 C 1.09962 0.51427 0.13476
 C272 C 1.09999 0.49029 0.15999
 H273 H 1.20528 0.52213 0.34535
 H274 H 1.12612 0.42643 0.28100
 H275 H 1.16233 0.43032 0.35909
 H276 H 1.10482 0.44807 0.21305
 H277 H 1.18531 0.54420 0.26970
 H278 H 1.16354 0.56563 0.19683
 H279 H 1.12342 0.56016 0.12762
 H280 H 1.08218 0.46922 0.15009
 C281 C 0.52840 0.69809 0.33730
 C282 C 0.52332 0.67671 0.28956
 C283 C 0.49624 0.66064 0.25914
 C284 C 0.47480 0.66647 0.27666
 C285 C 0.47992 0.68756 0.32497
 C286 C 0.50668 0.70342 0.35619
 C287 C 0.49091 0.63863 0.21299
 C288 C 0.51214 0.63207 0.19824
 C289 C 0.53922 0.64831 0.22867
 C290 C 0.54473 0.67071 0.27329
 C291 C 0.56021 0.64140 0.21549
 C292 C 0.55420 0.61799 0.17470
 C293 C 0.52725 0.60129 0.14512
 C294 C 0.50651 0.60896 0.15550
 H295 H 0.54911 0.71008 0.36105
 H296 H 0.45392 0.65441 0.25389
 H297 H 0.46282 0.69128 0.33832
 H298 H 0.47007 0.62614 0.19010
 H299 H 0.56547 0.68298 0.29682
 H300 H 0.58108 0.65367 0.23819
 H301 H 0.57067 0.61275 0.16685
 H302 H 0.48575 0.59631 0.13276
 C303 C 0.30157 -0.18167 0.32205
 C304 C 0.32097 -0.15877 0.28178
 C305 C 0.32150 -0.13255 0.28455
 C306 C 0.30155 -0.13023 0.32521
 C307 C 0.28202 -0.15332 0.36468
 C308 C 0.28237 -0.17894 0.36467
 C309 C 0.34229 -0.10904 0.24786
 C310 C 0.36237 -0.11156 0.20808
 C311 C 0.36085 -0.13823 0.20312
 C312 C 0.34028 -0.16157 0.24010
 C313 C 0.38021 -0.14112 0.16197
 C314 C 0.40143 -0.11769 0.12739
 C315 C 0.40412 -0.09069 0.13406
 C316 C 0.38418 -0.08785 0.17389
 H317 H 0.30177 -0.20149 0.32130
 H318 H 0.30144 -0.11040 0.32763
 H319 H 0.26743 -0.15076 0.39744
 H320 H 0.34311 -0.08875 0.25110
 H321 H 0.33960 -0.18181 0.23731
 H322 H 0.37913 -0.16147 0.15701
 H323 H 0.41610 -0.12071 0.09631
 H324 H 0.38574 -0.06728 0.17870
 C325 C 0.81334 0.49845 0.33415
 C326 C 0.83521 0.50066 0.29117
 C327 C 0.85935 0.52768 0.27943
 C328 C 0.86103 0.55193 0.30852
 C329 C 0.83935 0.54962 0.35034
 C330 C 0.81545 0.52298 0.36462
 C331 C 0.88177 0.53021 0.23949
 C332 C 0.88054 0.50614 0.21040
 C333 C 0.85623 0.47912 0.21961
 C334 C 0.83367 0.47648 0.26032
 C335 C 0.85520 0.45533 0.18822
 C336 C 0.87828 0.45833 0.14962
 C337 C 0.90295 0.48503 0.14300
 C338 C 0.90358 0.50885 0.17276
 H339 H 0.79502 0.47779 0.34443
 H340 H 0.87934 0.57275 0.29959
 H341 H 0.84170 0.56890 0.37272
 H342 H 0.90038 0.55096 0.23163
 H343 H 0.81514 0.45573 0.26840
 H344 H 0.83666 0.43443 0.19390
 H345 H 0.87705 0.43974 0.12622
 H346 H 0.92220 0.52973 0.16685
 C347 C 0.47049 0.30039 0.33235
 C348 C 0.47561 0.32164 0.28400
 C349 C 0.50309 0.33857 0.25635
 C350 C 0.52486 0.33368 0.27686
 C351 C 0.51967 0.31269 0.32550
 C352 C 0.49254 0.29603 0.35427
 C353 C 0.50851 0.36053 0.20997
 C354 C 0.48693 0.36619 0.19211
 C355 C 0.45940 0.34904 0.21935
 C356 C 0.45384 0.32668 0.26435
 C357 C 0.43803 0.35509 0.20288
 C358 C 0.44411 0.37863 0.16228
 C359 C 0.47153 0.39624 0.13619
 C360 C 0.49268 0.38940 0.14964
 H361 H 0.44948 0.28773 0.35405
 H362 H 0.54604 0.34640 0.25616
 H363 H 0.53704 0.30973 0.34112
 H364 H 0.52967 0.37371 0.18940
 H365 H 0.43277 0.31375 0.28564
 H366 H 0.41680 0.34213 0.22310
 H367 H 0.42741 0.38335 0.15218
 H368 H 0.51390 0.40294 0.13005
 C369 C 0.69587 0.18227 0.32381
 C370 C 0.67586 0.15885 0.28582
 C371 C 0.67469 0.13239 0.29178
 C372 C 0.69461 0.13026 0.33313
 C373 C 0.71477 0.15385 0.37015
 C374 C 0.71508 0.17979 0.36706
 C375 C 0.65337 0.10847 0.25733
 C376 C 0.63352 0.11086 0.21618
 C377 C 0.63570 0.13772 0.20789
 C378 C 0.65666 0.16143 0.24309
 C379 C 0.61679 0.14050 0.16464
 C380 C 0.59553 0.11684 0.13079
 C381 C 0.59211 0.08969 0.14086
 C382 C 0.61146 0.08689 0.18329
 H383 H 0.69615 0.20230 0.32082
 H384 H 0.69422 0.11025 0.33797
 H385 H 0.72930 0.15146 0.40360
 H386 H 0.65209 0.08803 0.26300
 H387 H 0.65786 0.18185 0.23770
 H388 H 0.61846 0.16100 0.15684
 H389 H 0.58161 0.11989 0.09689
 H390 H 0.60947 0.06622 0.19042
 C391 C 0.49082 0.18243 -0.33480
 C392 C 0.48689 0.16000 -0.29215
 C393 C 0.45924 0.13776 -0.27695
 C394 C 0.43591 0.13911 -0.30239
 C395 C 0.43996 0.16179 -0.34424
 C396 C 0.46747 0.18336 -0.36245
 C397 C 0.45543 0.11448 -0.23736
 C398 C 0.47901 0.11346 -0.21212
 C399 C 0.50661 0.13641 -0.22524
 C400 C 0.51036 0.15937 -0.26544
 C401 C 0.53016 0.13599 -0.19846
 C402 C 0.52652 0.11289 -0.15970
 C403 C 0.49940 0.08957 -0.14785
 C404 C 0.47559 0.08990 -0.17418
 H405 H 0.51222 0.19899 -0.34712
 H406 H 0.41452 0.12242 -0.29076
 H407 H 0.42147 0.16184 -0.36421
 H408 H 0.43423 0.09714 -0.22665
 H409 H 0.53158 0.17665 -0.27642
 H410 H 0.55142 0.15344 -0.20779
 H411 H 0.54505 0.11292 -0.14036
 H412 H 0.45457 0.07204 -0.16468
 C413 C 0.68680 0.49929 -0.33402
 C414 C 0.66794 0.50166 -0.28856
 C415 C 0.67236 0.52889 -0.27191
 C416 C 0.69571 0.55317 -0.29871
 C417 C 0.71431 0.55073 -0.34312
 C418 C 0.71003 0.52388 -0.36255
 C419 C 0.65319 0.53162 -0.22952
 C420 C 0.62947 0.50750 -0.20314
 C421 C 0.62524 0.48019 -0.21733
 C422 C 0.64452 0.47740 -0.26015
 C423 C 0.60154 0.45624 -0.18918
 C424 C 0.58185 0.45937 -0.14943
 C425 C 0.58534 0.48644 -0.13795
 C426 C 0.60959 0.51040 -0.16389
 H427 H 0.68315 0.47841 -0.34769
 H428 H 0.69945 0.57416 -0.28596
 H429 H 0.73190 0.57018 -0.36320
 H430 H 0.65649 0.55257 -0.21795
 H431 H 0.64109 0.45644 -0.27207
 H432 H 0.59799 0.43509 -0.19885
 H433 H 0.56346 0.44060 -0.12958
 H434 H 0.61281 0.53146 -0.15447
 C435 C 0.83016 0.30091 -0.33646
 C436 C 0.84651 0.32271 -0.28954
 C437 C 0.83607 0.33983 -0.26296
 C438 C 0.80933 0.33472 -0.28355
 C439 C 0.79335 0.31332 -0.33118
 C440 C 0.80360 0.29625 -0.35879
 C441 C 0.85276 0.36215 -0.21750
 C442 C 0.88011 0.36804 -0.19981
 C443 C 0.89049 0.35087 -0.22659
 C444 C 0.87350 0.32809 -0.27034
 C445 C 0.91806 0.35722 -0.21073
 C446 C 0.93559 0.38095 -0.17081
 C447 C 0.92573 0.39846 -0.14464
 C448 C 0.89765 0.39143 -0.15776
 H449 H 0.83856 0.28811 -0.35686
 H450 H 0.80095 0.34761 -0.26371
 H451 H 0.77298 0.31034 -0.34667
 H452 H 0.84480 0.37540 -0.19748
 H453 H 0.88161 0.31507 -0.29100
 H454 H 0.92634 0.34426 -0.23069
 H455 H 0.95707 0.38577 -0.16084
 H456 H 0.88991 0.40479 -0.13783
 C457 C 0.50940 -0.18339 -0.33052
 C458 C 0.51348 -0.16117 -0.28697
 C459 C 0.54116 -0.13875 -0.27275
 C460 C 0.56441 -0.13980 -0.29982
 C461 C 0.56021 -0.16235 -0.34233
 C462 C 0.53264 -0.18402 -0.35977
 C463 C 0.54505 -0.11558 -0.23255
 C464 C 0.52154 -0.11488 -0.20568
 C465 C 0.49397 -0.13810 -0.21756
 C466 C 0.49012 -0.16092 -0.25839
 C467 C 0.47051 -0.13805 -0.18917
 C468 C 0.47414 -0.11498 -0.15046
 C469 C 0.50122 -0.09126 -0.14012
 C470 C 0.52498 -0.09133 -0.16763
 H471 H 0.48797 -0.20007 -0.34212
 H472 H 0.58582 -0.12299 -0.28891
 H473 H 0.57863 -0.16218 -0.36350
 H474 H 0.56626 -0.09807 -0.22276
 H475 H 0.46889 -0.17836 -0.26852
 H476 H 0.44928 -0.15573 -0.19748
 H477 H 0.45554 -0.11534 -0.13025
 H478 H 0.54597 -0.07321 -0.15944
 C479 C 0.31441 0.50165 -0.33394
 C480 C 0.33403 0.49941 -0.29081
 C481 C 0.33118 0.47240 -0.27946
 C482 C 0.30863 0.44819 -0.30896
 C483 C 0.28929 0.45052 -0.35089
 C484 C 0.29205 0.47717 -0.36490
 C485 C 0.35109 0.46987 -0.23955
 C486 C 0.37391 0.49391 -0.21009
 C487 C 0.37655 0.52090 -0.21879
 C488 C 0.35661 0.52354 -0.25948
 C489 C 0.39925 0.54464 -0.18693
 C490 C 0.41939 0.54165 -0.14849
 C491 C 0.41749 0.51502 -0.14259
 C492 C 0.39431 0.49122 -0.17266
 H493 H 0.31674 0.52230 -0.34399
 H494 H 0.30613 0.42737 -0.30030
 H495 H 0.27239 0.43128 -0.37366
 H496 H 0.34899 0.44914 -0.23205
 H497 H 0.35880 0.54428 -0.26723
 H498 H 0.40154 0.56551 -0.19214
 H499 H 0.43669 0.56021 -0.12465
 H500 H 0.39213 0.47038 -0.16725
 C501 C 1.16896 0.70077 -0.33476
 C502 C 1.15294 0.67911 -0.28721
 C503 C 1.16331 0.66166 -0.26226
 C504 C 1.18969 0.66640 -0.28471
 C505 C 1.20538 0.68777 -0.33262
 C506 C 1.19515 0.70507 -0.35890
 C507 C 1.14690 0.63938 -0.21651
 C508 C 1.11992 0.63391 -0.19666
 C509 C 1.10967 0.65152 -0.22133
 C510 C 1.12637 0.67420 -0.26565
 C511 C 1.08246 0.64563 -0.20297
 C512 C 1.06511 0.62188 -0.16286
 C513 C 1.07481 0.60388 -0.13915
 C514 C 1.10258 0.61046 -0.15467
 H515 H 1.16062 0.71381 -0.35399
 H516 H 1.19801 0.65328 -0.26606
 H517 H 1.22549 0.69048 -0.34948
 H518 H 1.15477 0.62584 -0.19794
 H519 H 1.11834 0.68752 -0.28489
 H520 H 1.07430 0.65893 -0.22126
 H521 H 1.04385 0.61733 -0.15114
 H522 H 1.11015 0.59659 -0.13700
 C523 C 0.81227 0.49876 -0.32942
 C524 C 0.83392 0.50093 -0.28576
 C525 C 0.85742 0.52806 -0.27108
 C526 C 0.85854 0.55245 -0.29768
 C527 C 0.83707 0.55016 -0.34037
 C528 C 0.81397 0.52341 -0.35790
 C529 C 0.87981 0.53055 -0.23105
 C530 C 0.87919 0.50631 -0.20496
 C531 C 0.85541 0.47915 -0.21681
 C532 C 0.83286 0.47658 -0.25747
 C533 C 0.85490 0.45515 -0.18827
 C534 C 0.87808 0.45810 -0.15023
 C535 C 0.90233 0.48497 -0.14151
 C536 C 0.90237 0.50898 -0.16800
 H537 H 0.79454 0.47802 -0.34220
 H538 H 0.87632 0.57336 -0.28639
 H539 H 0.83901 0.56954 -0.36105
 H540 H 0.89799 0.55139 -0.22109
 H541 H 0.81479 0.45573 -0.26777
 H542 H 0.83673 0.43414 -0.19590
 H543 H 0.87731 0.43936 -0.12910
 H544 H 0.92066 0.52994 -0.16021
 C545 C 0.47132 0.30151 -0.33502
 C546 C 0.47641 0.32280 -0.28705
 C547 C 0.50401 0.34018 -0.26043
 C548 C 0.52597 0.33573 -0.28180
 C549 C 0.52078 0.31467 -0.33014
 C550 C 0.49349 0.29751 -0.35764
 C551 C 0.50933 0.36209 -0.21415
 C552 C 0.48752 0.36726 -0.19548
 C553 C 0.45989 0.34972 -0.22187
 C554 C 0.45444 0.32739 -0.26669
 C555 C 0.43830 0.35535 -0.20471
 C556 C 0.44425 0.37884 -0.16418
 C557 C 0.47174 0.39677 -0.13885
 C558 C 0.49312 0.39037 -0.15304
 H559 H 0.45018 0.28845 -0.35576
 H560 H 0.54724 0.34881 -0.26192
 H561 H 0.53824 0.31197 -0.34637
 H562 H 0.53056 0.37560 -0.19427
 H563 H 0.43329 0.31411 -0.28726
 H564 H 0.41701 0.34209 -0.22433
 H565 H 0.42739 0.38326 -0.15347
 H566 H 0.51438 0.40418 -0.13401
 C567 C 0.69798 0.18228 -0.31914
 C568 C 0.67775 0.15868 -0.28216
 C569 C 0.67501 0.13171 -0.29287
 C570 C 0.69378 0.12922 -0.33761
 C571 C 0.71422 0.15299 -0.37351
 C572 C 0.71590 0.17946 -0.36591
 C573 C 0.65324 0.10769 -0.25988
 C574 C 0.63451 0.11045 -0.21547
 C575 C 0.63840 0.13774 -0.20211
 C576 C 0.65979 0.16159 -0.23590
 C577 C 0.62072 0.14080 -0.15537
 C578 C 0.59889 0.11703 -0.12328
 C579 C 0.59357 0.08951 -0.13893
 C580 C 0.61185 0.08642 -0.18444
 H581 H 0.69937 0.20274 -0.31280
 H582 H 0.69221 0.10881 -0.34606
 H583 H 0.72778 0.15039 -0.40980
 H584 H 0.65068 0.08689 -0.26934
 H585 H 0.66224 0.18238 -0.22678
 H586 H 0.62377 0.16161 -0.14351
 H587 H 0.58601 0.12033 -0.08636
 H588 H 0.60850 0.06545 -0.19569
 C589 C 1.18791 0.50112 -0.33192
 C590 C 1.16677 0.49874 -0.28620
 C591 C 1.14396 0.47148 -0.26921
 C592 C 1.14297 0.44720 -0.29603
 C593 C 1.16390 0.44970 -0.34092
 C594 C 1.18637 0.47655 -0.36035
 C595 C 1.12210 0.46876 -0.22670
 C596 C 1.12249 0.49289 -0.20077
 C597 C 1.14557 0.52022 -0.21534
 C598 C 1.16764 0.52301 -0.25809
 C599 C 1.14576 0.54419 -0.18780
 C600 C 1.12286 0.54106 -0.14836
 C601 C 1.09931 0.51396 -0.13656
 C602 C 1.09966 0.48998 -0.16177
 H603 H 1.20514 0.52194 -0.34616
 H604 H 1.12572 0.42619 -0.28311
 H605 H 1.16211 0.43038 -0.36148
 H606 H 1.10445 0.44780 -0.21487
 H607 H 1.18515 0.54397 -0.27034
 H608 H 1.16333 0.56535 -0.19781
 H609 H 1.12314 0.55984 -0.12911
 H610 H 1.08182 0.46892 -0.15205
 C611 C 0.52785 0.69817 -0.33708
 C612 C 0.52254 0.67636 -0.29046
 C613 C 0.49482 0.65859 -0.26512
 C614 C 0.47291 0.66307 -0.28670
 C615 C 0.47823 0.68453 -0.33403
 C616 C 0.50572 0.70225 -0.36029
 C617 C 0.48937 0.63629 -0.21985
 C618 C 0.51117 0.63109 -0.20114
 C619 C 0.53888 0.64890 -0.22672
 C620 C 0.54446 0.67163 -0.27030
 C621 C 0.56045 0.64320 -0.20986
 C622 C 0.55448 0.61953 -0.17003
 C623 C 0.52698 0.60146 -0.14499
 C624 C 0.50555 0.60778 -0.15924
 H625 H 0.54919 0.71149 -0.35646
 H626 H 0.45153 0.64967 -0.26782
 H627 H 0.46066 0.68707 -0.35028
 H628 H 0.46806 0.62255 -0.20074
 H629 H 0.56570 0.68516 -0.29004
 H630 H 0.58179 0.65664 -0.22895
 H631 H 0.57139 0.61519 -0.15919
 H632 H 0.48432 0.59388 -0.14036
 C633 C 0.29959 -0.18205 -0.31726
 C634 C 0.31922 -0.15896 -0.27784
 C635 C 0.32114 -0.13219 -0.28490
 C636 C 0.30219 -0.12946 -0.32860
 C637 C 0.28241 -0.15272 -0.36713
 C638 C 0.28154 -0.17891 -0.36311
 C639 C 0.34237 -0.10855 -0.24957
 C640 C 0.36149 -0.11148 -0.20688
 C641 C 0.35846 -0.13864 -0.19729
 C642 C 0.33747 -0.16214 -0.23295
 C643 C 0.37680 -0.14186 -0.15292
 C644 C 0.39857 -0.11830 -0.11997
 C645 C 0.40292 -0.09086 -0.13181
 C646 C 0.38389 -0.08768 -0.17448
 H647 H 0.29881 -0.20231 -0.31353
 H648 H 0.30314 -0.10920 -0.33427
 H649 H 0.26869 -0.14988 -0.40250
 H650 H 0.34432 -0.08785 -0.25625
 H651 H 0.33568 -0.18279 -0.22677
 H652 H 0.37448 -0.16259 -0.14418
 H653 H 0.41233 -0.12163 -0.08598
 H654 H 0.38664 -0.06676 -0.18307
 C655 C 0.51220 -0.18285 0.32578
 C656 C 0.51596 -0.15990 0.28537
 C657 C 0.54206 -0.13399 0.28707
 C658 C 0.56439 -0.13200 0.32700
 C659 C 0.56055 -0.15513 0.36662
 C660 C 0.53425 -0.18048 0.36750
 C661 C 0.54516 -0.11044 0.24994
 C662 C 0.52254 -0.11262 0.21077
 C663 C 0.49691 -0.13898 0.20704
 C664 C 0.49376 -0.16236 0.24446
 C665 C 0.47459 -0.14150 0.16658
 C666 C 0.47728 -0.11801 0.13135
 C667 C 0.50215 -0.09134 0.13659
 C668 C 0.52492 -0.08886 0.17590
 H669 H 0.49193 -0.20245 0.32567
 H670 H 0.58462 -0.11241 0.32861
 H671 H 0.57783 -0.15283 0.39861
 H672 H 0.56498 -0.09039 0.25227
 H673 H 0.47387 -0.18236 0.24252
 H674 H 0.45493 -0.16160 0.16265
 H675 H 0.45951 -0.12071 0.10091
 H676 H 0.54434 -0.06853 0.17967
 C677 C 0.31400 0.50143 0.32935
 C678 C 0.33351 0.49919 0.28603
 C679 C 0.32984 0.47205 0.27179
 C680 C 0.30654 0.44770 0.29859
 C681 C 0.28733 0.45005 0.34092
 C682 C 0.29097 0.47682 0.35791
 C683 C 0.34972 0.46950 0.23191
 C684 C 0.37333 0.49369 0.20548
 C685 C 0.37677 0.52086 0.21702
 C686 C 0.35684 0.52350 0.25756
 C687 C 0.40027 0.54482 0.18824
 C688 C 0.42042 0.54182 0.15012
 C689 C 0.41770 0.51493 0.14144
 C690 C 0.39376 0.49096 0.16838
 H691 H 0.31702 0.52218 0.34173
 H692 H 0.30338 0.42678 0.28767
 H693 H 0.26985 0.43071 0.36170
 H694 H 0.34700 0.44864 0.22223
 H695 H 0.35966 0.54436 0.26755
 H696 H 0.40319 0.56585 0.19571
 H697 H 0.43841 0.56053 0.12885
 H698 H 0.39103 0.46999 0.16074
 C699 C 1.16922 0.70042 0.33219
 C700 C 1.15335 0.67900 0.28413
 C701 C 1.16381 0.66168 0.25887
 C702 C 1.19020 0.66640 0.28148
 C703 C 1.20576 0.68761 0.32987
 C704 C 1.19532 0.70463 0.35623
 C705 C 1.14744 0.63954 0.21278
 C706 C 1.12045 0.63410 0.19297
 C707 C 1.11018 0.65165 0.21787
 C708 C 1.12683 0.67419 0.26248
 C709 C 1.08298 0.64582 0.19956
 C710 C 1.06561 0.62210 0.15944
 C711 C 1.07530 0.60412 0.13569
 C712 C 1.10309 0.61071 0.15092
 H713 H 1.16091 0.71338 0.35197
 H714 H 1.19859 0.65339 0.26262
 H715 H 1.22587 0.69047 0.34722
 H716 H 1.15532 0.62605 0.19400
 H717 H 1.11878 0.68744 0.28198
 H718 H 1.07482 0.65909 0.21800
 H719 H 1.04432 0.61754 0.14786
 H720 H 1.11064 0.59686 0.13312
 C721 C 0.48755 0.18230 0.32535
 C722 C 0.48402 0.15910 0.28645
 C723 C 0.45822 0.13293 0.28986
 C724 C 0.43590 0.13091 0.32979
 C725 C 0.43950 0.15429 0.36784
 C726 C 0.46555 0.17991 0.36716
 C727 C 0.45538 0.10919 0.25432
 C728 C 0.47792 0.11145 0.21478
 C729 C 0.50320 0.13804 0.20917
 C730 C 0.50615 0.16159 0.24532
 C731 C 0.52528 0.14066 0.16771
 C732 C 0.52265 0.11710 0.13302
 C733 C 0.49822 0.09023 0.14035
 C734 C 0.47572 0.08760 0.18095
 H735 H 0.50763 0.20210 0.32409
 H736 H 0.41589 0.11112 0.33265
 H737 H 0.42228 0.15197 0.40000
 H738 H 0.43581 0.08896 0.25796
 H739 H 0.52579 0.18179 0.24197
 H740 H 0.54463 0.16095 0.16209
 H741 H 0.53998 0.11996 0.10080
 H742 H 0.45654 0.06713 0.18601
 C743 C 0.68738 0.49928 0.32942
 C744 C 0.66866 0.50165 0.28348
 C745 C 0.67337 0.52892 0.26579
 C746 C 0.69689 0.55321 0.29209
 C747 C 0.71528 0.55072 0.33723
 C748 C 0.71060 0.52386 0.35743
 C749 C 0.65424 0.53165 0.22320
 C750 C 0.63024 0.50750 0.19790
 C751 C 0.62576 0.48016 0.21311
 C752 C 0.64505 0.47737 0.25592
 C753 C 0.60175 0.45617 0.18619
 C754 C 0.58196 0.45931 0.14680
 C755 C 0.58574 0.48644 0.13446
 C756 C 0.61030 0.51042 0.15898
 H757 H 0.68357 0.47845 0.34426
 H758 H 0.70085 0.57422 0.27861
 H759 H 0.73298 0.57004 0.35743
 H760 H 0.65773 0.55262 0.21088
 H761 H 0.64141 0.45640 0.26870
 H762 H 0.59800 0.43500 0.19668
 H763 H 0.56327 0.44053 0.12809
 H764 H 0.61367 0.53150 0.14881
 C765 C 0.83051 0.30202 0.33693
 C766 C 0.84680 0.32358 0.28963
 C767 C 0.83603 0.34014 0.26104
 C768 C 0.80895 0.33458 0.27996
 C769 C 0.79298 0.31326 0.32785
 C770 C 0.80368 0.29694 0.35721
 C771 C 0.85274 0.36232 0.21530
 C772 C 0.88033 0.36854 0.19920
 C773 C 0.89094 0.35183 0.22784
 C774 C 0.87400 0.32926 0.27202
 C775 C 0.91867 0.35842 0.21337
 C776 C 0.93615 0.38196 0.17297
 C777 C 0.92610 0.39907 0.14509
 C778 C 0.89787 0.39179 0.15686
 H779 H 0.83907 0.28965 0.35921
 H780 H 0.80031 0.34701 0.25859
 H781 H 0.77232 0.30972 0.34234
 H782 H 0.84459 0.37519 0.19378
 H783 H 0.88228 0.31662 0.29419
 H784 H 0.92709 0.34579 0.23474
 H785 H 0.95775 0.38697 0.16400
 H786 H 0.88999 0.40485 0.13558
   
