data_POSCAR
  _audit_creation_date              2014-09-24
  _audit_creation_method            'ToBaCCo'
  _symmetry_space_group_name_H-M    'P1'
  _symmetry_Int_Tables_number       1
  _symmetry_cell_setting            triclinic
  loop_
  _symmetry_equiv_pos_as_xyz
 x,y,z
_cell_length_a 35.9709
_cell_length_b 35.7654
_cell_length_c 16.8946
_cell_angle_alpha 89.774800
_cell_angle_beta 90.157000
_cell_angle_gamma 119.695900
loop_
  _atom_site_label
  _atom_site_type_symbol
  _atom_site_fract_x
  _atom_site_fract_y
  _atom_site_fract_z
C1 C 0.49867 0.99843 0.46178
 C2 C 0.49698 0.99903 0.54223
 C3 C 0.47528 0.95853 0.58888
 C4 C 0.51680 1.03958 0.58884
 C5 C 0.52088 1.03829 0.41303
 C6 C 0.47717 0.95729 0.41743
 C7 C 0.44147 0.95131 0.63918
 C8 C 0.42232 0.91479 0.68736
 C9 C 0.43688 0.88479 0.68662
 C10 C 0.47080 0.89213 0.63580
 C11 C 0.48979 0.92864 0.58724
 C12 C 0.50793 1.07301 0.57290
 C13 C 0.52657 1.11043 0.61893
 C14 C 0.55353 1.11445 0.68242
 C15 C 0.56151 1.08070 0.69942
 C16 C 0.54357 1.04376 0.65282
 C17 C 0.56347 1.07014 0.42804
 C18 C 0.58330 1.10733 0.38111
 C19 C 0.56116 1.11263 0.31749
 C20 C 0.51923 1.08027 0.30104
 C21 C 0.49919 1.04363 0.34861
 C22 C 0.50150 0.94611 0.36842
 C23 C 0.48155 0.90891 0.32251
 C24 C 0.43691 0.88266 0.32393
 C25 C 0.41249 0.89345 0.37367
 C26 C 0.43252 0.93059 0.42021
 H27 H 0.43020 0.97431 0.64170
 H28 H 0.39692 0.91101 0.72634
 H29 H 0.48309 0.86994 0.63473
 H30 H 0.51642 0.93413 0.54976
 H31 H 0.48637 1.07000 0.52536
 H32 H 0.51928 1.13575 0.60592
 H33 H 0.55051 1.01827 0.66686
 H34 H 0.58135 1.06618 0.47585
 H35 H 0.61603 1.13154 0.39374
 H36 H 0.50189 1.08346 0.25138
 H37 H 0.46654 1.01938 0.33524
 H38 H 0.53593 0.96646 0.36532
 H39 H 0.50084 0.90105 0.28435
 H40 H 0.37802 0.87371 0.37563
 H41 H 0.41322 0.93906 0.45700
 H42 H 0.58162 1.08289 0.74904
 C43 C 0.00005 0.49785 0.45655
 C44 C 0.00001 0.49835 0.53700
 C45 C 0.04016 0.52036 0.58387
 C46 C -0.04017 0.47700 0.58371
 C47 C -0.04002 0.47953 0.40947
 C48 C 0.04022 0.51591 0.40991
 C49 C 0.07200 0.50861 0.57855
 C50 C 0.10861 0.52894 0.62620
 C51 C 0.11349 0.56069 0.68050
 C52 C 0.08177 0.57252 0.68522
 C53 C 0.04544 0.55247 0.63747
 C54 C -0.04564 0.44534 0.63898
 C55 C -0.08175 0.42627 0.68731
 C56 C -0.11303 0.43870 0.68161
 C57 C -0.10797 0.46999 0.62560
 C58 C -0.07161 0.48926 0.57719
 C59 C -0.04513 0.50603 0.35436
 C60 C -0.08106 0.48951 0.30554
 C61 C -0.11265 0.44591 0.31046
 C62 C -0.10792 0.41941 0.36661
 C63 C -0.07171 0.43603 0.41547
 C64 C 0.07185 0.55947 0.41507
 C65 C 0.10827 0.57583 0.36702
 C66 C 0.11316 0.54905 0.31250
 C67 C 0.08171 0.50550 0.30806
 C68 C 0.04555 0.48915 0.35620
 H69 H 0.06821 0.48340 0.53849
 H70 H 0.13272 0.51930 0.62201
 H71 H 0.08466 0.59697 0.72616
 H72 H 0.02118 0.56189 0.64257
 H73 H -0.02166 0.43559 0.64506
 H74 H -0.08473 0.40217 0.72956
 H75 H -0.06763 0.51416 0.53578
 H76 H -0.02096 0.53964 0.34879
 H77 H -0.08357 0.51108 0.26368
 H78 H -0.13185 0.38568 0.37152
 H79 H -0.06803 0.41488 0.45684
 H80 H 0.06798 0.58084 0.45517
 H81 H 0.13218 0.60958 0.37099
 H82 H 0.08463 0.48403 0.26692
 H83 H 0.02143 0.45550 0.35120
 H84 H -0.13174 0.48006 0.62058
 C85 C 0.50112 0.50085 0.46299
 C86 C 0.50226 0.50235 0.54347
 C87 C 0.48177 0.52270 0.58910
 C88 C 0.52396 0.48381 0.59120
 C89 C 0.51990 0.47898 0.41695
 C90 C 0.48077 0.52094 0.41561
 C91 C 0.49351 0.56613 0.57809
 C92 C 0.47435 0.58468 0.62330
 C93 C 0.44358 0.56017 0.68086
 C94 C 0.43211 0.51685 0.69187
 C95 C 0.45104 0.49833 0.64649
 C96 C 0.55558 0.51025 0.64549
 C97 C 0.57492 0.49344 0.69467
 C98 C 0.56282 0.44963 0.69089
 C99 C 0.53157 0.42319 0.63564
 C100 C 0.51202 0.44007 0.58652
 C101 C 0.49385 0.44678 0.36311
 C102 C 0.51093 0.42739 0.31521
 C103 C 0.55452 0.44001 0.31991
 C104 C 0.58060 0.47174 0.37462
 C105 C 0.56348 0.49136 0.42255
 C106 C 0.43742 0.50869 0.42519
 C107 C 0.41887 0.52742 0.37825
 C108 C 0.44331 0.55815 0.32054
 C109 C 0.48649 0.57017 0.31085
 C110 C 0.50506 0.55170 0.35791
 H111 H 0.51780 0.58570 0.53518
 H112 H 0.48430 0.61829 0.61406
 H113 H 0.40876 0.49743 0.73638
 H114 H 0.44176 0.46487 0.65622
 H115 H 0.56513 0.54404 0.65010
 H116 H 0.59903 0.51494 0.73587
 H117 H 0.48715 0.41894 0.54594
 H118 H 0.46020 0.43688 0.35778
 H119 H 0.48994 0.40291 0.27404
 H120 H 0.61435 0.48195 0.37888
 H121 H 0.58430 0.51666 0.46280
 H122 H 0.41792 0.48437 0.46831
 H123 H 0.38535 0.51727 0.38614
 H124 H 0.50569 0.59357 0.26613
 H125 H 0.53845 0.56134 0.34925
 H126 H 0.52168 0.38930 0.63165
 O127 O 0.39874 0.65799 -0.06612
 O128 O 0.39569 0.72877 -0.09047
 C129 C 0.37558 0.74899 -0.10253
 O130 O 0.34244 0.74198 -0.06401
 O131 O 0.27287 0.66929 -0.09377
 C132 C 0.25279 0.62928 -0.10777
 O133 O 0.25939 0.60223 -0.07044
 O134 O 0.33287 0.60570 -0.09648
 C135 C 0.37300 0.62569 -0.10703
 O136 O 0.39502 0.66822 0.09083
 O137 O 0.39594 0.74106 0.06645
 C138 C 0.36877 0.74643 0.10525
 O139 O 0.32890 0.72535 0.09212
 O140 O 0.25742 0.65429 0.06231
 C141 C 0.25166 0.62093 0.09963
 O142 O 0.27281 0.60197 0.08624
 O143 O 0.34418 0.60149 0.06020
 C144 C 0.37601 0.62784 0.10129
 Cr145 Cr 0.39403 0.69781 0.00011
 Cr146 Cr 0.30161 0.69659 -0.00087
 Cr147 Cr 0.30345 0.60518 -0.00506
 O148 O 0.33301 0.66653 -0.00199
 O149 O 0.60328 0.34488 -0.06080
 O150 O 0.60366 0.27295 -0.08764
 C151 C 0.62324 0.25267 -0.10338
 O152 O 0.65719 0.25916 -0.06821
 O153 O 0.72728 0.33159 -0.09438
 C154 C 0.74830 0.37181 -0.10560
 O155 O 0.74262 0.39848 -0.06546
 O156 O 0.66979 0.39679 -0.08933
 C157 C 0.62970 0.37771 -0.10030
 O158 O 0.60726 0.33221 0.09594
 O159 O 0.60455 0.25925 0.06880
 C160 C 0.63152 0.25184 0.10390
 O161 O 0.67115 0.27159 0.08845
 O162 O 0.74322 0.34301 0.06255
 C163 C 0.74965 0.37585 0.10222
 O164 O 0.72899 0.39563 0.09135
 O165 O 0.65864 0.39891 0.06751
 C166 C 0.62638 0.37238 0.10746
 Cr167 Cr 0.60705 0.30351 0.00392
 Cr168 Cr 0.69855 0.30256 -0.00272
 Cr169 Cr 0.69882 0.39507 0.00101
 O170 O 0.66809 0.33360 0.00074
 C171 C 0.43196 0.79991 -0.21594
 C172 C 0.40634 0.80451 -0.28547
 C173 C 0.41973 0.84877 -0.26020
 C174 C 0.44565 0.84696 -0.19435
 C175 C 0.38162 0.83482 -0.20992
 C176 C 0.36628 0.78751 -0.23204
 C177 C 0.39232 0.78434 -0.16224
 C178 C 0.40666 0.83120 -0.13879
 H179 H 0.45359 0.78615 -0.22005
 H180 H 0.40671 0.79519 -0.34799
 H181 H 0.47874 0.87294 -0.18116
 H182 H 0.36032 0.84899 -0.20797
 H183 H 0.33320 0.76327 -0.24952
 H184 H 0.40735 0.84350 -0.07825
 C185 C 0.20529 0.63957 -0.22062
 C186 C 0.19838 0.60866 -0.29039
 C187 C 0.15145 0.58034 -0.26470
 C188 C 0.15802 0.61104 -0.19557
 C189 C 0.16387 0.55330 -0.21123
 C190 C 0.21123 0.58184 -0.23612
 C191 C 0.21754 0.61244 -0.16730
 C192 C 0.17069 0.58409 -0.14183
 H193 H 0.22273 0.67525 -0.22423
 H194 H 0.20941 0.61864 -0.35214
 H195 H 0.13671 0.62356 -0.17692
 H196 H 0.14648 0.51763 -0.20753
 H197 H 0.23355 0.57007 -0.25219
 H198 H 0.15957 0.57403 -0.08015
 C199 C 0.38520 0.56353 -0.16466
 C200 C 0.37708 0.55967 -0.25508
 C201 C 0.42547 0.57883 -0.26883
 C202 C 0.43369 0.58250 -0.17903
 C203 C 0.43178 0.62469 -0.27179
 C204 C 0.38312 0.60572 -0.25707
 C205 C 0.39149 0.60926 -0.16744
 C206 C 0.43982 0.62844 -0.18132
 H207 H 0.36586 0.53854 -0.12005
 H208 H 0.35136 0.53122 -0.28598
 H209 H 0.45469 0.57290 -0.14710
 H210 H 0.45076 0.65034 -0.31554
 H211 H 0.36205 0.61541 -0.28843
 H212 H 0.46561 0.65688 -0.15051
 C213 C 0.59916 0.17300 -0.14723
 C214 C 0.55357 0.15218 -0.18242
 C215 C 0.57219 0.15322 -0.26476
 C216 C 0.61773 0.17385 -0.23004
 C217 C 0.57753 0.19799 -0.28143
 C218 C 0.55909 0.19732 -0.19827
 C219 C 0.60456 0.21774 -0.16364
 C220 C 0.62332 0.21900 -0.24584
 H221 H 0.60818 0.16299 -0.09144
 H222 H 0.52470 0.12435 -0.15673
 H223 H 0.64190 0.16408 -0.24351
 H224 H 0.56871 0.20832 -0.33704
 H225 H 0.53510 0.20731 -0.18464
 H226 H 0.65222 0.24692 -0.27123
 C227 C 0.79460 0.36136 -0.21906
 C228 C 0.80209 0.39282 -0.28850
 C229 C 0.84923 0.41998 -0.26314
 C230 C 0.84204 0.38872 -0.19425
 C231 C 0.83798 0.44756 -0.20920
 C232 C 0.79038 0.42015 -0.23372
 C233 C 0.78349 0.38897 -0.16518
 C234 C 0.83055 0.41617 -0.14001
 H235 H 0.77639 0.32571 -0.22294
 H236 H 0.79072 0.38330 -0.35020
 H237 H 0.86259 0.37516 -0.17592
 H238 H 0.85621 0.48321 -0.20537
 H239 H 0.76870 0.43284 -0.24931
 H240 H 0.84200 0.42576 -0.07838
 C241 C 0.58494 0.41616 -0.13335
 C242 C 0.61195 0.45534 -0.18748
 C243 C 0.58090 0.43168 -0.25629
 C244 C 0.55375 0.39268 -0.20244
 C245 C 0.60824 0.41172 -0.28222
 C246 C 0.63948 0.43521 -0.21284
 C247 C 0.61232 0.39632 -0.15908
 C248 C 0.58137 0.37251 -0.22753
 H249 H 0.57538 0.41772 -0.07158
 H250 H 0.62524 0.48925 -0.16853
 H251 H 0.51830 0.37534 -0.19826
 H252 H 0.61777 0.41013 -0.34401
 H253 H 0.67493 0.45252 -0.21693
 H254 H 0.56903 0.33826 -0.24333
 C255 C 0.79224 0.36963 0.22985
 C256 C 0.83968 0.38907 0.20464
 C257 C 0.85156 0.42827 0.25789
 C258 C 0.80462 0.40904 0.28398
 C259 C 0.84433 0.45221 0.18867
 C260 C 0.83215 0.41284 0.13514
 C261 C 0.78529 0.39375 0.16100
 C262 C 0.79707 0.43283 0.21421
 H263 H 0.77039 0.33548 0.24611
 H264 H 0.85755 0.37121 0.20080
 H265 H 0.79357 0.40770 0.34575
 H266 H 0.86483 0.48602 0.16912
 H267 H 0.84318 0.41415 0.07338
 H268 H 0.77917 0.45067 0.21799
 C269 C 0.59896 0.21842 0.24712
 C270 C 0.55843 0.17441 0.23219
 C271 C 0.58200 0.15151 0.26462
 C272 C 0.62241 0.19514 0.28041
 C273 C 0.59807 0.14980 0.18118
 C274 C 0.57464 0.17289 0.14828
 C275 C 0.61494 0.21650 0.16382
 C276 C 0.63868 0.19382 0.19614
 H277 H 0.59954 0.24707 0.27356
 H278 H 0.52526 0.16631 0.24741
 H279 H 0.64207 0.20437 0.33514
 H280 H 0.59754 0.12123 0.15445
 H281 H 0.55511 0.16399 0.09336
 H282 H 0.67189 0.20214 0.18074
 C283 C 0.57002 0.36227 0.22127
 C284 C 0.59371 0.39366 0.29036
 C285 C 0.57359 0.42107 0.26483
 C286 C 0.54979 0.38988 0.19629
 C287 C 0.61202 0.44847 0.21051
 C288 C 0.63237 0.42081 0.23521
 C289 C 0.60835 0.38970 0.16703
 C290 C 0.58836 0.41716 0.14169
 H291 H 0.55291 0.32661 0.22551
 H292 H 0.59567 0.38409 0.35214
 H293 H 0.51590 0.37656 0.17819
 H294 H 0.62912 0.48413 0.20631
 H295 H 0.66653 0.43329 0.25058
 H296 H 0.58639 0.42681 0.07998
 C297 C 0.16938 0.58282 0.13398
 C298 C 0.15758 0.54352 0.18794
 C299 C 0.15080 0.56749 0.25712
 C300 C 0.16234 0.60662 0.20346
 C301 C 0.19792 0.58671 0.28226
 C302 C 0.20506 0.56290 0.21245
 C303 C 0.21641 0.60195 0.15895
 C304 C 0.20988 0.62606 0.22783
 H305 H 0.15791 0.58145 0.07243
 H306 H 0.13660 0.50960 0.16968
 H307 H 0.14443 0.62445 0.19997
 H308 H 0.20931 0.58808 0.34388
 H309 H 0.22302 0.54511 0.21584
 H310 H 0.23183 0.66022 0.24361
 C311 C 0.37640 0.81887 0.16441
 C312 C 0.36813 0.81385 0.25481
 C313 C 0.41618 0.84476 0.26914
 C314 C 0.42448 0.85009 0.17938
 C315 C 0.42488 0.80676 0.27108
 C316 C 0.37664 0.77535 0.25591
 C317 C 0.38518 0.78097 0.16638
 C318 C 0.43312 0.81188 0.18085
 H319 H 0.35631 0.82353 0.11982
 H320 H 0.34107 0.81444 0.28501
 H321 H 0.44426 0.88112 0.14810
 H322 H 0.44500 0.80209 0.31556
 H323 H 0.35680 0.74417 0.28670
 H324 H 0.45990 0.81096 0.15012
 C325 C 0.39564 0.61818 0.25189
 C326 C 0.37769 0.56940 0.26705
 C327 C 0.42367 0.57681 0.26596
 C328 C 0.44182 0.62533 0.25166
 C329 C 0.42079 0.56863 0.17623
 C330 C 0.37470 0.56137 0.17669
 C331 C 0.39288 0.60985 0.16234
 C332 C 0.43876 0.61725 0.16131
 H333 H 0.38515 0.63884 0.28228
 H334 H 0.35223 0.54980 0.31043
 H335 H 0.46961 0.65150 0.28315
 H336 H 0.43122 0.54803 0.14544
 H337 H 0.34694 0.53506 0.14537
 H338 H 0.46371 0.63711 0.11724
   
