data_POSCAR
  _audit_creation_date              2014-09-24
  _audit_creation_method            'ToBaCCo'
  _symmetry_space_group_name_H-M    'P1'
  _symmetry_Int_Tables_number       1
  _symmetry_cell_setting            triclinic
  loop_
  _symmetry_equiv_pos_as_xyz
 x,y,z
_cell_length_a 21.6443
_cell_length_b 38.3682
_cell_length_c 22.0307
_cell_angle_alpha 90.173200
_cell_angle_beta 89.821800
_cell_angle_gamma 89.883800
loop_
  _atom_site_label
  _atom_site_type_symbol
  _atom_site_fract_x
  _atom_site_fract_y
  _atom_site_fract_z
N1 N 0.10725 0.03710 0.06484
 N2 N 0.14442 0.06405 0.07177
 N3 N 0.06466 -0.03612 0.10766
 N4 N 0.07127 -0.06292 0.14455
 N5 N 0.10803 -0.03629 0.06581
 N6 N 0.14536 -0.06321 0.07305
 N7 N 0.06391 0.03723 0.10670
 N8 N 0.07035 0.06428 0.14330
 C9 C 0.12079 0.08056 0.12093
 C10 C 0.12187 -0.07937 0.12243
 N11 N -0.11084 -0.03675 0.06426
 N12 N -0.14778 -0.06380 0.07105
 N13 N -0.06909 0.03706 0.10571
 N14 N -0.07600 0.06450 0.14149
 N15 N -0.11163 0.03657 0.06337
 N16 N -0.15046 0.06538 0.07004
 N17 N -0.06839 -0.03634 0.10674
 N18 N -0.07524 -0.06311 0.14364
 Mn19 Mn -0.00224 0.00046 0.10744
 C20 C -0.12502 -0.07978 0.12083
 C21 C -0.12596 0.08137 0.11917
 N22 N 0.10952 -0.03698 -0.06493
 N23 N 0.14843 -0.06575 -0.07147
 N24 N 0.06615 0.03585 -0.10845
 N25 N 0.07292 0.06265 -0.14533
 N26 N 0.10855 0.03633 -0.06592
 N27 N 0.14537 0.06345 -0.07269
 N28 N 0.06695 -0.03757 -0.10722
 N29 N 0.07392 -0.06504 -0.14289
 Mn30 Mn 0.10909 0.00004 -0.00004
 C31 C 0.12394 -0.08181 -0.12050
 C32 C 0.12261 0.07942 -0.12249
 N33 N -0.11015 0.03577 -0.06741
 N34 N -0.14728 0.06278 -0.07457
 N35 N -0.06615 -0.03793 -0.10818
 N36 N -0.07210 -0.06531 -0.14421
 N37 N -0.10958 -0.03754 -0.06646
 N38 N -0.14803 -0.06634 -0.07382
 N39 N -0.06688 0.03548 -0.10936
 N40 N -0.07333 0.06230 -0.14623
 Mn41 Mn -0.11129 -0.00048 -0.00157
 Mn42 Mn 0.00003 -0.00106 -0.10906
 Cl43 Cl -0.00110 -0.00026 -0.00081
 C44 C -0.12377 0.07885 -0.12401
 C45 C -0.12237 -0.08225 -0.12266
 N46 N 0.61024 0.53678 0.56538
 N47 N 0.64763 0.56367 0.57200
 N48 N 0.56736 0.46353 0.60772
 N49 N 0.57423 0.43660 0.64426
 N50 N 0.61016 0.46340 0.56532
 N51 N 0.64737 0.43637 0.57181
 N52 N 0.56743 0.53691 0.60778
 N53 N 0.57449 0.56389 0.64444
 C54 C 0.62476 0.58015 0.62156
 C55 C 0.62440 0.42012 0.62130
 N56 N 0.39125 0.46365 0.56656
 N57 N 0.35404 0.43671 0.57344
 N58 N 0.43435 0.53703 0.60856
 N59 N 0.42749 0.56397 0.64540
 N60 N 0.39131 0.53704 0.56666
 N61 N 0.35394 0.56398 0.57380
 N62 N 0.43429 0.46365 0.60848
 N63 N 0.42757 0.43671 0.64504
 Mn64 Mn 0.50086 0.50028 0.60888
 C65 C 0.37726 0.42035 0.62264
 C66 C 0.37709 0.58033 0.62314
 N67 N 0.60978 0.46314 0.43458
 N68 N 0.64702 0.43610 0.42754
 N69 N 0.56682 0.53651 0.39274
 N70 N 0.57349 0.56342 0.35614
 N71 N 0.60987 0.53653 0.43463
 N72 N 0.64706 0.56347 0.42772
 N73 N 0.56673 0.46315 0.39269
 N74 N 0.57345 0.43613 0.35597
 Mn75 Mn 0.61078 0.49996 0.49997
 C76 C 0.62378 0.41970 0.37826
 C77 C 0.62380 0.57977 0.37849
 N78 N 0.39098 0.53693 0.43591
 N79 N 0.35380 0.56399 0.42943
 N80 N 0.43369 0.46342 0.39344
 N81 N 0.42666 0.43647 0.35675
 N82 N 0.39087 0.46354 0.43583
 N83 N 0.35349 0.43666 0.42917
 N84 N 0.43379 0.53679 0.39352
 N85 N 0.42695 0.56373 0.35699
 Mn86 Mn 0.39034 0.50029 0.50125
 Mn87 Mn 0.50025 0.49996 0.39236
 Cl88 Cl 0.50056 0.50013 0.50062
 C89 C 0.37680 0.58026 0.37993
 C90 C 0.37640 0.42023 0.37960
 C91 C 0.14526 0.11229 0.14546
 C92 C 0.16550 0.13905 0.16600
 C93 C 0.18937 0.17108 0.19048
 C94 C 0.14909 0.19564 0.21610
 C95 C 0.17217 0.22683 0.23978
 C96 C 0.23595 0.23382 0.23814
 C97 C 0.27607 0.20893 0.21229
 C98 C 0.25287 0.17777 0.18860
 C99 C 0.26053 0.26692 0.26327
 C100 C 0.31563 0.26716 0.29699
 C101 C 0.33876 0.29835 0.32059
 C102 C 0.30720 0.32968 0.31080
 C103 C 0.25236 0.32974 0.27734
 C104 C 0.22911 0.29858 0.25372
 C105 C 0.33120 0.36174 0.33498
 C106 C 0.35162 0.38852 0.35531
 H107 H 0.09986 0.19067 0.21790
 H108 H 0.14024 0.24527 0.26007
 H109 H 0.32527 0.21375 0.20965
 H110 H 0.28441 0.15896 0.16868
 H111 H 0.34042 0.24316 0.30578
 H112 H 0.38118 0.29801 0.34657
 H113 H 0.22768 0.35388 0.26935
 H114 H 0.18704 0.29931 0.22730
 C115 C 0.85065 0.88849 0.14528
 C116 C 0.83064 0.86169 0.16575
 C117 C 0.80714 0.82960 0.19012
 C118 C 0.84611 0.80752 0.22298
 C119 C 0.82345 0.77625 0.24651
 C120 C 0.76143 0.76668 0.23746
 C121 C 0.72262 0.78908 0.20438
 C122 C 0.74540 0.82033 0.18085
 C123 C 0.73732 0.73347 0.26242
 C124 C 0.67810 0.73205 0.28881
 C125 C 0.65545 0.70077 0.31231
 C126 C 0.69161 0.67053 0.30973
 C127 C 0.75056 0.67165 0.28357
 C128 C 0.77333 0.70291 0.26007
 C129 C 0.66815 0.63838 0.33389
 C130 C 0.64815 0.61155 0.35420
 H131 H 0.89396 0.81450 0.23051
 H132 H 0.85424 0.75978 0.27244
 H133 H 0.67490 0.78222 0.19598
 H134 H 0.71491 0.83720 0.15529
 H135 H 0.64962 0.75522 0.29201
 H136 H 0.60981 0.70020 0.33262
 H137 H 0.77885 0.64835 0.28120
 H138 H 0.81875 0.70307 0.23934
 C139 C 0.85211 0.11066 0.85153
 C140 C 0.83225 0.13754 0.83120
 C141 C 0.80888 0.16976 0.80714
 C142 C 0.84125 0.20080 0.81677
 C143 C 0.81861 0.23217 0.79353
 C144 C 0.76323 0.23286 0.76026
 C145 C 0.73107 0.20148 0.75077
 C146 C 0.75377 0.17015 0.77411
 C147 C 0.73911 0.26616 0.73561
 C148 C 0.71313 0.26742 0.67718
 C149 C 0.69031 0.29877 0.65408
 C150 C 0.69310 0.32924 0.68902
 C151 C 0.71887 0.32828 0.74715
 C152 C 0.74177 0.29696 0.77034
 C153 C 0.66922 0.36143 0.66530
 C154 C 0.64894 0.38830 0.64531
 H155 H 0.88406 0.20076 0.84214
 H156 H 0.84482 0.25580 0.80091
 H157 H 0.68792 0.20124 0.72603
 H158 H 0.72828 0.14626 0.76655
 H159 H 0.71116 0.24425 0.64907
 H160 H 0.67057 0.29926 0.60895
 H161 H 0.72105 0.35171 0.77465
 H162 H 0.76075 0.29673 0.81575
 C163 C 0.14541 0.88913 0.85709
 C164 C 0.16530 0.86218 0.83659
 C165 C 0.18915 0.82999 0.81239
 C166 C 0.15884 0.81333 0.76442
 C167 C 0.18201 0.78202 0.74093
 C168 C 0.23590 0.76699 0.76516
 C169 C 0.26598 0.78396 0.81343
 C170 C 0.24270 0.81524 0.83687
 C171 C 0.26068 0.73381 0.74016
 C172 C 0.32471 0.72915 0.73220
 C173 C 0.34802 0.69791 0.70863
 C174 C 0.30773 0.67093 0.69275
 C175 C 0.24399 0.67528 0.70050
 C176 C 0.22056 0.70651 0.72403
 C177 C 0.33185 0.63884 0.66835
 C178 C 0.35233 0.61206 0.64780
 H179 H 0.11741 0.82457 0.74507
 H180 H 0.15828 0.76982 0.70328
 H181 H 0.30705 0.77281 0.83358
 H182 H 0.26638 0.82788 0.87416
 H183 H 0.35669 0.74983 0.74342
 H184 H 0.39744 0.69484 0.70261
 H185 H 0.21242 0.65451 0.68847
 H186 H 0.17114 0.70914 0.73035
 C187 C 0.14691 0.11123 0.85309
 C188 C 0.16703 0.13808 0.83278
 C189 C 0.19083 0.17024 0.80872
 C190 C 0.25418 0.17730 0.81130
 C191 C 0.27727 0.20860 0.78822
 C192 C 0.23724 0.23330 0.76217
 C193 C 0.17361 0.22593 0.75975
 C194 C 0.15063 0.19462 0.78290
 C195 C 0.26171 0.26660 0.73767
 C196 C 0.23859 0.28043 0.68315
 C197 C 0.26175 0.31172 0.66008
 C198 C 0.30825 0.32964 0.69116
 C199 C 0.33151 0.31615 0.74544
 C200 C 0.30846 0.28484 0.76858
 C201 C 0.33233 0.36176 0.66718
 C202 C 0.35269 0.38857 0.64696
 H203 H 0.28575 0.15858 0.83107
 H204 H 0.32655 0.21329 0.79004
 H205 H 0.14151 0.24458 0.74073
 H206 H 0.10147 0.18948 0.78086
 H207 H 0.20321 0.26679 0.65788
 H208 H 0.24356 0.32186 0.61790
 H209 H 0.36742 0.32984 0.76994
 H210 H 0.32665 0.27514 0.81103
 C211 C 0.85678 0.88876 0.85423
 C212 C 0.83731 0.86191 0.83317
 C213 C 0.81377 0.82982 0.80838
 C214 C 0.84766 0.79891 0.81424
 C215 C 0.82449 0.76767 0.79078
 C216 C 0.76697 0.76692 0.76116
 C217 C 0.73335 0.79817 0.75538
 C218 C 0.75664 0.82938 0.77884
 C219 C 0.74203 0.73369 0.73662
 C220 C 0.67882 0.72577 0.74241
 C221 C 0.65536 0.69452 0.71930
 C222 C 0.69466 0.67076 0.69009
 C223 C 0.75759 0.67837 0.68411
 C224 C 0.78117 0.70960 0.70722
 C225 C 0.67031 0.63867 0.66607
 C226 C 0.64968 0.61189 0.64585
 H227 H 0.89185 0.79893 0.83723
 H228 H 0.85110 0.74400 0.79666
 H229 H 0.68937 0.79856 0.73212
 H230 H 0.73007 0.85316 0.77393
 H231 H 0.64765 0.74353 0.76550
 H232 H 0.60658 0.68886 0.72431
 H233 H 0.78840 0.66022 0.66140
 H234 H 0.82986 0.71512 0.70135
 C235 C 0.14641 0.88893 0.14714
 C236 C 0.16671 0.86218 0.16773
 C237 C 0.19069 0.83015 0.19218
 C238 C 0.24610 0.81621 0.16984
 C239 C 0.26925 0.78501 0.19333
 C240 C 0.23720 0.76728 0.23953
 C241 C 0.18152 0.78152 0.26167
 C242 C 0.15848 0.81274 0.23814
 C243 C 0.26170 0.73407 0.26444
 C244 C 0.22162 0.70627 0.27789
 C245 C 0.24475 0.67503 0.30126
 C246 C 0.30815 0.67112 0.31153
 C247 C 0.34839 0.69860 0.29835
 C248 C 0.32538 0.72986 0.27495
 C249 C 0.33198 0.63896 0.33561
 C250 C 0.35223 0.61210 0.35580
 H251 H 0.27129 0.82940 0.13410
 H252 H 0.31177 0.77449 0.17476
 H253 H 0.15618 0.76876 0.29773
 H254 H 0.11560 0.82333 0.25585
 H255 H 0.17250 0.70852 0.26958
 H256 H 0.21320 0.65389 0.31115
 H257 H 0.39754 0.69590 0.30630
 H258 H 0.35732 0.75091 0.26583
 C259 C 0.85266 0.11044 0.14179
 C260 C 0.83297 0.13738 0.16260
 C261 C 0.80952 0.16959 0.18732
 C262 C 0.77460 0.16947 0.24089
 C263 C 0.75169 0.20073 0.26486
 C264 C 0.76346 0.23259 0.23552
 C265 C 0.79870 0.23242 0.18172
 C266 C 0.82152 0.20112 0.15782
 C267 C 0.73899 0.26582 0.26086
 C268 C 0.77536 0.29619 0.26050
 C269 C 0.75223 0.32745 0.28431
 C270 C 0.69251 0.32880 0.30873
 C271 C 0.65597 0.29875 0.30930
 C272 C 0.67901 0.26746 0.28557
 C273 C 0.66864 0.36099 0.33317
 C274 C 0.64837 0.38785 0.35370
 H275 H 0.76518 0.14522 0.26420
 H276 H 0.72543 0.20003 0.30674
 H277 H 0.80788 0.25643 0.15765
 H278 H 0.84836 0.20151 0.11623
 H279 H 0.82197 0.29567 0.24254
 H280 H 0.78099 0.35053 0.28379
 H281 H 0.60960 0.29952 0.32794
 H282 H 0.64958 0.24468 0.28579
   
