data_POSCAR
  _audit_creation_date              2014-09-24
  _audit_creation_method            'ToBaCCo'
  _symmetry_space_group_name_H-M    'P1'
  _symmetry_Int_Tables_number       1
  _symmetry_cell_setting            triclinic
  loop_
  _symmetry_equiv_pos_as_xyz
 x,y,z
_cell_length_a 36.1807
_cell_length_b 36.1821
_cell_length_c 36.1848
_cell_angle_alpha 107.724600
_cell_angle_beta 68.473900
_cell_angle_gamma 74.481400
loop_
  _atom_site_label
  _atom_site_type_symbol
  _atom_site_fract_x
  _atom_site_fract_y
  _atom_site_fract_z
C1 C 0.53363 0.50945 -0.00756
 C2 C 0.49807 0.54536 0.00014
 C3 C 0.45938 0.54111 0.00351
 C4 C 0.45503 0.50243 -0.00234
 C5 C 0.49073 0.46689 -0.01040
 C6 C 0.52917 0.47083 -0.01357
 H7 H 0.55453 0.44407 -0.01664
 H8 H 0.43378 0.56716 0.00604
 C9 C -0.00549 0.46137 0.51167
 C10 C -0.00209 0.49296 0.54290
 C11 C -0.00231 0.52997 0.53787
 C12 C -0.00404 0.53591 0.50161
 C13 C -0.00674 0.50338 0.46993
 C14 C -0.00795 0.46706 0.47595
 H15 H -0.01092 0.44266 0.45239
 H16 H 0.00086 0.55368 0.56186
 C17 C 0.50202 0.00458 0.46093
 C18 C 0.47133 -0.00323 0.49127
 C19 C 0.47700 -0.00762 0.52619
 C20 C 0.51230 -0.00394 0.53263
 C21 C 0.54384 0.00360 0.50146
 C22 C 0.53734 0.00823 0.46665
 H23 H 0.56135 0.01265 0.44185
 H24 H 0.45192 -0.01200 0.54996
 O25 O 0.46694 0.01033 -0.03709
 O26 O 0.46262 0.02977 0.07092
 O27 O 0.46255 0.07343 0.02509
 O28 O 0.46630 -0.03315 0.00905
 O29 O 0.53875 -0.06151 -0.02488
 O30 O 0.53500 0.04542 -0.00817
 O31 O 0.53507 0.00130 0.03716
 O32 O 0.53939 -0.01695 -0.07012
 Cu33 Cu 0.45734 0.02285 0.02034
 Cu34 Cu 0.54431 -0.01084 -0.01979
 C35 C 0.50393 -0.00565 -0.07187
 C36 C 0.49828 0.01828 0.07235
 C37 C 0.49818 0.07755 0.01048
 C38 C 0.50303 -0.06548 -0.01013
 O39 O -0.07943 0.53925 1.03434
 O40 O 0.02916 0.53536 1.01453
 O41 O -0.01254 0.53304 0.96857
 O42 O -0.03696 0.53988 1.07968
 O43 O -0.00833 0.46919 1.05022
 O44 O 0.01480 0.46239 0.94018
 O45 O 0.05774 0.46467 0.98499
 O46 O -0.05134 0.46860 1.00563
 Cu47 Cu -0.02774 0.54395 1.02719
 Cu48 Cu 0.00608 0.45917 0.99245
 C49 C -0.08381 0.50454 1.02253
 C50 C 0.06191 0.49952 0.99697
 C51 C 0.00431 0.49647 0.93563
 C52 C -0.02600 0.50545 1.08368
 O53 O 0.03516 -0.07857 0.45317
 O54 O 0.02235 0.02737 0.45705
 O55 O 0.08198 -0.03462 0.45308
 O56 O -0.02470 -0.01667 0.45665
 O57 O -0.05770 0.01079 0.52986
 O58 O 0.04802 -0.00331 0.52640
 O59 O -0.01349 0.05726 0.53040
 O60 O 0.00320 -0.04895 0.52639
 Cu61 Cu 0.03200 -0.02856 0.44760
 Cu62 Cu -0.00831 0.00699 0.53560
 C63 C 0.02111 -0.08179 0.48927
 C64 C 0.00248 0.06036 0.49442
 C65 C 0.08308 -0.02123 0.48927
 C66 C -0.05924 -0.00093 0.49383
 C67 C -0.35452 0.51236 1.00522
 C68 C -0.39540 0.54840 1.03247
 C69 C -0.43210 0.54798 1.02786
 C70 C -0.42880 0.51164 0.99544
 C71 C -0.38738 0.47597 0.96775
 C72 C -0.35094 0.47634 0.97258
 C73 C -0.31584 0.51164 1.01101
 N74 N -0.27891 0.47440 0.98977
 N75 N -0.24399 0.47338 0.99467
 C76 C -0.24440 0.50958 1.02101
 N77 N -0.28137 0.54689 1.04236
 N78 N -0.31641 0.54788 1.03758
 C79 C -0.20474 0.50840 1.02498
 C80 C -0.20186 0.54655 1.04549
 C81 C -0.16309 0.54529 1.04608
 C82 C -0.12644 0.50586 1.02644
 C83 C -0.12993 0.46769 1.00749
 C84 C -0.16855 0.46894 1.00666
 H85 H -0.39938 0.57658 1.05820
 H86 H -0.46344 0.57552 1.05112
 H87 H -0.38278 0.44770 0.94159
 H88 H -0.31986 0.44819 0.95058
 H89 H -0.22912 0.57748 1.06002
 H90 H -0.16150 0.57530 1.06099
 H91 H -0.10234 0.43677 0.99204
 H92 H -0.16970 0.43890 0.99090
 C93 C 0.33925 0.49789 0.99523
 C94 C 0.33732 0.53487 1.02496
 C95 C 0.37514 0.53599 1.02619
 C96 C 0.41634 0.50009 0.99771
 C97 C 0.41800 0.46297 0.96798
 C98 C 0.37999 0.46182 0.96698
 C99 C 0.29904 0.49749 0.99336
 N100 N 0.29882 0.46055 0.96924
 N101 N 0.26254 0.46051 0.96775
 C102 C 0.22502 0.49744 0.99011
 N103 N 0.22535 0.53432 1.01407
 N104 N 0.26152 0.53434 1.01568
 C105 C 0.18424 0.49764 0.98928
 C106 C 0.14736 0.53670 1.00826
 C107 C 0.10817 0.53720 1.00953
 C108 C 0.10472 0.49865 0.99204
 C109 C 0.14184 0.45954 0.97215
 C110 C 0.18122 0.45904 0.97065
 H111 H 0.30643 0.56315 1.04755
 H112 H 0.37170 0.56494 1.05043
 H113 H 0.44896 0.43531 0.94377
 H114 H 0.38278 0.43295 0.94326
 H115 H 0.14853 0.56706 1.02266
 H116 H 0.08025 0.56790 1.02512
 H117 H 0.14028 0.42927 0.95837
 H118 H 0.20899 0.42838 0.95571
 C119 C 0.00646 -0.35226 0.49297
 C120 C 0.02817 -0.39151 0.45439
 C121 C 0.02441 -0.42834 0.45682
 C122 C -0.00157 -0.42677 0.49791
 C123 C -0.02348 -0.38710 0.53632
 C124 C -0.01961 -0.35051 0.53386
 C125 C 0.01128 -0.31330 0.49122
 N126 N -0.00593 -0.27710 0.52940
 N127 N -0.00186 -0.24192 0.52834
 C128 C 0.01961 -0.24132 0.48906
 N129 N 0.03693 -0.27755 0.45076
 N130 N 0.03293 -0.31286 0.45182
 C131 C 0.02288 -0.20151 0.48839
 C132 C 0.04073 -0.19874 0.44819
 C133 C 0.04128 -0.16018 0.44824
 C134 C 0.02410 -0.12367 0.48849
 C135 C 0.00744 -0.12687 0.52851
 C136 C 0.00681 -0.16526 0.52847
 H137 H 0.04892 -0.39408 0.42238
 H138 H 0.04369 -0.45837 0.42671
 H139 H -0.04464 -0.38392 0.56851
 H140 H -0.03717 -0.32076 0.56425
 H141 H 0.05347 -0.22607 0.41672
 H142 H 0.05435 -0.15875 0.41683
 H143 H -0.00598 -0.09941 0.56010
 H144 H -0.00691 -0.16625 0.56006
 C145 C -0.00505 0.34338 0.51385
 C146 C 0.03332 0.35001 0.50403
 C147 C 0.03291 0.38898 0.50469
 C148 C -0.00563 0.42152 0.51441
 C149 C -0.04396 0.41508 0.52434
 C150 C -0.04385 0.37655 0.52465
 C151 C -0.00442 0.30169 0.51155
 N152 N -0.04194 0.29905 0.53499
 N153 N -0.04156 0.26134 0.53212
 C154 C -0.00373 0.22468 0.50528
 N155 N 0.03378 0.22732 0.48178
 N156 N 0.03348 0.26508 0.48497
 C157 C -0.00330 0.18277 0.50181
 C158 C 0.02915 0.14459 0.46366
 C159 C 0.03009 0.10488 0.46068
 C160 C -0.00084 0.10252 0.49618
 C161 C -0.03346 0.14069 0.53423
 C162 C -0.03498 0.18047 0.53680
 H163 H 0.06361 0.32505 0.49580
 H164 H 0.06282 0.39345 0.49668
 H165 H -0.07390 0.43991 0.53169
 H166 H -0.07382 0.37227 0.53210
 H167 H 0.05381 0.14542 0.43606
 H168 H 0.05578 0.07594 0.43109
 H169 H -0.05772 0.13977 0.56206
 H170 H -0.06032 0.20937 0.56664
 C171 C 0.50996 -0.00506 -0.34923
 C172 C 0.52267 0.02344 -0.36402
 C173 C 0.52312 0.02426 -0.40259
 C174 C 0.51222 -0.00441 -0.42819
 C175 C 0.49928 -0.03274 -0.41277
 C176 C 0.49800 -0.03289 -0.37383
 C177 C 0.50911 -0.00595 -0.30837
 N178 N 0.48305 -0.02088 -0.28534
 N179 N 0.48246 -0.02203 -0.24869
 C180 C 0.50826 -0.00871 -0.23386
 N181 N 0.53441 0.00613 -0.25696
 N182 N 0.53471 0.00764 -0.29338
 C183 C 0.50776 -0.01004 -0.19327
 C184 C 0.54390 -0.01151 -0.18664
 C185 C 0.54312 -0.01162 -0.14782
 C186 C 0.50585 -0.00944 -0.11442
 C187 C 0.46982 -0.00836 -0.12116
 C188 C 0.47095 -0.00913 -0.16045
 H189 H 0.53137 0.04578 -0.34524
 H190 H 0.53108 0.04810 -0.41169
 H191 H 0.49141 -0.05598 -0.43157
 H192 H 0.48842 -0.05549 -0.36344
 H193 H 0.57282 -0.01254 -0.21149
 H194 H 0.57127 -0.01218 -0.14342
 H195 H 0.44067 -0.00665 -0.09593
 H196 H 0.44258 -0.00789 -0.16466
 C197 C 0.49667 0.01507 0.34746
 C198 C 0.46022 0.04153 0.39031
 C199 C 0.46162 0.03820 0.42737
 C200 C 0.49925 0.00797 0.42211
 C201 C 0.53542 -0.01866 0.37935
 C202 C 0.53421 -0.01512 0.34247
 C203 C 0.49615 0.01883 0.30799
 N204 N 0.53384 -0.00145 0.26837
 N205 N 0.53376 0.00128 0.23256
 C206 C 0.49598 0.02435 0.23473
 N207 N 0.45821 0.04477 0.27440
 N208 N 0.45831 0.04217 0.31034
 C209 C 0.49613 0.02586 0.19421
 C210 C 0.45661 0.04300 0.19377
 C211 C 0.45717 0.04157 0.15446
 C212 C 0.49727 0.02321 0.11489
 C213 C 0.53673 0.00737 0.11576
 C214 C 0.53617 0.00860 0.15487
 H215 H 0.43088 0.06522 0.39530
 H216 H 0.43357 0.05948 0.46016
 H217 H 0.56471 -0.04231 0.37452
 H218 H 0.56277 -0.03620 0.30998
 H219 H 0.42520 0.05658 0.22351
 H220 H 0.42620 0.05410 0.15489
 H221 H 0.56820 -0.00692 0.08591
 H222 H 0.56725 -0.00458 0.15404
 C223 C 0.50430 -0.34005 -0.00436
 C224 C 0.54154 -0.37963 -0.03228
 C225 C 0.53994 -0.41730 -0.03042
 C226 C 0.50112 -0.41634 -0.00020
 C227 C 0.46417 -0.37632 0.02809
 C228 C 0.46577 -0.33887 0.02606
 C229 C 0.50496 -0.30019 -0.00729
 N230 N 0.46716 -0.26360 0.01528
 N231 N 0.46728 -0.22772 0.01269
 C232 C 0.50520 -0.22679 -0.01258
 N233 N 0.54310 -0.26339 -0.03520
 N234 N 0.54296 -0.29938 -0.03271
 C235 C 0.50502 -0.18636 -0.01450
 C236 C 0.54454 -0.18309 -0.03518
 C237 C 0.54401 -0.14412 -0.03474
 C238 C 0.50393 -0.10767 -0.01380
 C239 C 0.46447 -0.11133 0.00578
 C240 C 0.46501 -0.15013 0.00551
 H241 H 0.57168 -0.38174 -0.05637
 H242 H 0.56865 -0.44738 -0.05406
 H243 H 0.43393 -0.37368 0.05262
 H244 H 0.43656 -0.30890 0.04844
 H245 H 0.57595 -0.21038 -0.05096
 H246 H 0.57499 -0.14236 -0.05014
 H247 H 0.43302 -0.08391 0.02217
 H248 H 0.43392 -0.15150 0.02150
 C249 C 0.48708 0.35107 -0.00362
 C250 C 0.52106 0.34922 -0.04022
 C251 C 0.52129 0.38677 -0.04307
 C252 C 0.48767 0.42702 -0.00937
 C253 C 0.45324 0.42899 0.02686
 C254 C 0.45277 0.39134 0.02955
 C255 C 0.48839 0.31125 0.00041
 N256 N 0.45294 0.31126 0.03139
 N257 N 0.45456 0.27541 0.03514
 C258 C 0.49180 0.23815 0.00828
 N259 N 0.52723 0.23822 -0.02258
 N260 N 0.52555 0.27398 -0.02645
 C261 C 0.49361 0.19798 0.01169
 C262 C 0.53397 0.16151 -0.01104
 C263 C 0.53559 0.12285 -0.01003
 C264 C 0.49685 0.11964 0.01344
 C265 C 0.45659 0.15637 0.03716
 C266 C 0.45502 0.19518 0.03647
 H267 H 0.54781 0.31875 -0.06652
 H268 H 0.54816 0.38452 -0.07131
 H269 H 0.42731 0.45971 0.05359
 H270 H 0.42618 0.39389 0.05823
 H271 H 0.56438 0.16263 -0.03016
 H272 H 0.56712 0.09514 -0.02872
 H273 H 0.42616 0.15493 0.05561
 H274 H 0.42340 0.22267 0.05441
 C275 C -0.33693 0.00163 0.49840
 C276 C -0.36059 0.03040 0.48789
 C277 C -0.39988 0.03124 0.48939
 C278 C -0.41659 0.00301 0.50109
 C279 C -0.39192 -0.02664 0.51043
 C280 C -0.35299 -0.02683 0.50979
 C281 C -0.29577 0.00153 0.49750
 N282 N -0.28128 -0.01295 0.52235
 N283 N -0.24459 -0.01223 0.52213
 C284 C -0.22074 0.00268 0.49679
 N285 N -0.23507 0.01688 0.47171
 N286 N -0.27196 0.01651 0.47223
 C287 C -0.18000 0.00335 0.49651
 C288 C -0.14704 0.00264 0.45999
 C289 C -0.10785 0.00168 0.45917
 C290 C -0.10134 0.00236 0.49528
 C291 C -0.13478 0.00416 0.53224
 C292 C -0.17353 0.00423 0.53266
 H293 H -0.34917 0.05296 0.47935
 H294 H -0.41789 0.05515 0.48271
 H295 H -0.40208 -0.05044 0.51730
 H296 H -0.33496 -0.04988 0.51731
 H297 H -0.15114 0.00185 0.43162
 H298 H -0.08259 0.00031 0.43028
 H299 H -0.13053 0.00441 0.56041
 H300 H -0.19849 0.00507 0.56137
 C301 C 0.35736 -0.01334 0.48622
 C302 C 0.35328 0.01726 0.52424
 C303 C 0.39033 0.02080 0.52529
 C304 C 0.43231 -0.00619 0.48845
 C305 C 0.43666 -0.03665 0.45025
 C306 C 0.39944 -0.04004 0.44903
 C307 C 0.31779 -0.01741 0.48603
 N308 N 0.31963 -0.04207 0.44801
 N309 N 0.28367 -0.04519 0.44822
 C310 C 0.24448 -0.02398 0.48650
 N311 N 0.24279 0.00044 0.52447
 N312 N 0.27863 0.00366 0.52423
 C313 C 0.20404 -0.02617 0.48695
 C314 C 0.16489 -0.00756 0.52750
 C315 C 0.12598 -0.00712 0.52820
 C316 C 0.12519 -0.02514 0.48835
 C317 C 0.16455 -0.04482 0.44778
 C318 C 0.20362 -0.04543 0.44709
 H319 H 0.32141 0.03853 0.55337
 H320 H 0.38629 0.04459 0.55503
 H321 H 0.46886 -0.05815 0.42166
 H322 H 0.40370 -0.06400 0.41929
 H323 H 0.16408 0.00729 0.55886
 H324 H 0.09626 0.00823 0.56002
 H325 H 0.16502 -0.05905 0.41650
 H326 H 0.23321 -0.06010 0.41529
 C327 C -0.02040 0.50924 1.35816
 C328 C -0.04874 0.54373 1.40096
 C329 C -0.04438 0.54220 1.43745
 C330 C -0.01112 0.50652 1.43160
 C331 C 0.01739 0.47238 1.38883
 C332 C 0.01277 0.47365 1.35258
 C333 C -0.02526 0.50965 1.31933
 N334 N -0.00438 0.47290 1.28082
 N335 N -0.00795 0.47283 1.24550
 C336 C -0.03247 0.50952 1.24702
 N337 N -0.05352 0.54638 1.28558
 N338 N -0.05010 0.54641 1.32108
 C339 C -0.03467 0.50914 1.20678
 C340 C -0.05146 0.54753 1.20417
 C341 C -0.04998 0.54655 1.16462
 C342 C -0.03195 0.50715 1.12702
 C343 C -0.01678 0.46888 1.13031
 C344 C -0.01803 0.46986 1.16960
 H345 H -0.07473 0.57151 1.40638
 H346 H -0.06713 0.56865 1.47027
 H347 H 0.04332 0.44458 1.38351
 H348 H 0.03537 0.44667 1.32010
 H349 H -0.06457 0.57833 1.23222
 H350 H -0.06197 0.57661 1.16317
 H351 H -0.00279 0.43797 1.10208
 H352 H -0.00519 0.43966 1.17052
 C353 C 0.00828 0.48565 0.65566
 C354 C 0.03794 0.49507 0.62641
 C355 C 0.03521 0.49611 0.58920
 C356 C 0.00230 0.48848 0.58081
 C357 C -0.02740 0.47906 0.61009
 C358 C -0.02406 0.47707 0.64682
 C359 C 0.01040 0.48590 0.69577
 N360 N -0.00537 0.46262 0.71501
 N361 N -0.00392 0.46332 0.75146
 C362 C 0.01297 0.48766 0.77041
 N363 N 0.02862 0.51106 0.75126
 N364 N 0.02756 0.51002 0.71454
 C365 C 0.01348 0.48914 0.81151
 C366 C 0.01269 0.52531 0.84138
 C367 C 0.01040 0.52761 0.88155
 C368 C 0.00991 0.49336 0.89204
 C369 C 0.01218 0.45667 0.86145
 C370 C 0.01349 0.45476 0.82184
 H371 H 0.06338 0.50152 0.63221
 H372 H 0.05863 0.50329 0.56708
 H373 H -0.05386 0.47428 0.60524
 H374 H -0.04765 0.47016 0.66909
 H375 H 0.01252 0.55234 0.83431
 H376 H 0.00867 0.55627 0.90454
 H377 H 0.01155 0.42988 0.86875
 H378 H 0.01436 0.42639 0.79933
   
