data_POSCAR
  _audit_creation_date              2014-09-24
  _audit_creation_method            'ToBaCCo'
  _symmetry_space_group_name_H-M    'P1'
  _symmetry_Int_Tables_number       1
  _symmetry_cell_setting            triclinic
  loop_
  _symmetry_equiv_pos_as_xyz
 x,y,z
_cell_length_a 21.0753
_cell_length_b 21.5754
_cell_length_c 50.4198
_cell_angle_alpha 84.663300
_cell_angle_beta 95.994400
_cell_angle_gamma 122.518000
loop_
  _atom_site_label
  _atom_site_type_symbol
  _atom_site_fract_x
  _atom_site_fract_y
  _atom_site_fract_z
C1 C 0.05899 0.17993 0.53169
 H2 H 0.11434 0.18775 0.53254
 C3 C 0.04650 0.22216 0.54721
 H4 H 0.09300 0.26217 0.55977
 C5 C -0.07012 0.11174 0.51663
 H6 H -0.11581 0.06682 0.50546
 C7 C -0.08525 0.15232 0.53204
 H8 H -0.14272 0.13862 0.53244
 N9 N 0.00070 0.12478 0.51732
 C10 C 0.02388 -0.06547 0.52661
 H11 H 0.02078 -0.07976 0.50635
 C12 C 0.02417 -0.11216 0.54781
 H13 H 0.02383 -0.16058 0.54356
 C14 C 0.02564 0.01322 0.55681
 H15 H 0.02424 0.06075 0.56058
 C16 C 0.02733 -0.03096 0.57847
 H17 H 0.02827 -0.01604 0.59850
 Zn18 Zn 0.01572 0.05608 0.50269
 N19 N 0.02411 -0.00419 0.53138
 C20 C 0.12490 0.06588 0.47149
 N21 N 0.10258 0.10597 0.48238
 C22 C 0.13442 0.17895 0.47580
 C23 C 0.19041 0.21413 0.45756
 C24 C 0.18051 0.09881 0.45304
 C25 C -0.11734 -0.07534 0.48424
 C26 C -0.16914 -0.11980 0.46423
 C27 C -0.11890 -0.01323 0.43373
 C28 C -0.06854 0.02898 0.45437
 N29 N -0.06668 -0.00295 0.47869
 H30 H 0.09726 0.00756 0.47610
 H31 H 0.11348 0.20935 0.48338
 H32 H 0.21161 0.27119 0.45180
 H33 H 0.19581 0.06546 0.44395
 H34 H -0.11607 -0.09935 0.50392
 H35 H -0.20691 -0.17796 0.46898
 H36 H -0.11664 0.01527 0.41478
 H37 H -0.02834 0.08703 0.45066
 C38 C 0.02531 -0.09508 0.57415
 C39 C -0.02698 0.20706 0.54809
 C40 C -0.16831 -0.09000 0.43807
 C41 C 0.21355 0.17366 0.44566
 C42 C 1.17287 0.07501 0.13237
 H43 H 1.16623 0.12082 0.13405
 C44 C 1.21587 0.07765 0.11270
 H45 H 1.24336 0.12647 0.09963
 C46 C 1.13954 -0.04640 0.14610
 H47 H 1.10676 -0.09561 0.15843
 C48 C 1.18182 -0.04635 0.12639
 H49 H 1.18155 -0.09581 0.12416
 N50 N 1.13468 0.01328 0.14821
 C51 C 0.97550 0.07005 0.13944
 H52 H 0.99274 0.10662 0.15560
 C53 C 0.93231 0.07466 0.11711
 H54 H 0.91597 0.11462 0.11617
 C55 C 0.97732 -0.02519 0.12019
 H56 H 0.99522 -0.06394 0.12151
 C57 C 0.93670 -0.02080 0.09737
 H58 H 0.92315 -0.05646 0.08115
 Zn59 Zn 1.06144 0.01158 0.16729
 N60 N 0.99689 0.02046 0.14047
 C61 C 1.06385 0.09715 0.20675
 N62 N 1.10783 0.08898 0.19131
 C63 C 1.18426 0.12898 0.19524
 C64 C 1.21938 0.17916 0.21545
 C65 C 1.09668 0.14681 0.22725
 C66 C 0.92897 -0.11762 0.18345
 C67 C 0.88492 -0.17319 0.20194
 C68 C 0.99883 -0.14735 0.22797
 C69 C 1.04082 -0.09218 0.20891
 N70 N 1.00530 -0.07694 0.18767
 H71 H 1.00311 0.06305 0.20377
 H72 H 1.21825 0.11962 0.18357
 H73 H 1.27996 0.20728 0.21871
 H74 H 1.06077 0.15133 0.23980
 H75 H 0.90168 -0.10410 0.16664
 H76 H 0.82405 -0.20231 0.19895
 H77 H 1.02843 -0.15706 0.24504
 H78 H 1.10161 -0.05865 0.21184
 C79 C 0.91370 0.02933 0.09566
 C80 C 1.21899 0.01588 0.10888
 C81 C 0.91949 -0.18633 0.22517
 C82 C 1.17540 0.18824 0.23198
 C83 C 0.03682 0.92934 0.85866
 H84 H 0.01765 0.88458 0.84573
 C85 C 0.09486 0.94452 0.87814
 H86 H 0.11883 0.91078 0.87960
 C87 C 0.02282 1.02140 0.87411
 H88 H -0.00703 1.04971 0.87284
 C89 C 0.08057 1.03825 0.89401
 H90 H 0.09526 1.08007 0.90792
 N91 N 0.00209 0.96769 0.85690
 C92 C -0.20938 0.93819 0.84870
 H93 H -0.19851 0.97786 0.83234
 C94 C -0.26456 0.92205 0.86593
 H95 H -0.29435 0.95032 0.86213
 C96 C -0.17844 0.85932 0.87435
 H97 H -0.14343 0.83634 0.87777
 C98 C -0.23194 0.84281 0.89247
 H99 H -0.23790 0.80652 0.90970
 Zn100 Zn -0.08359 0.93887 0.83263
 N101 N -0.16721 0.90732 0.85323
 C102 C -0.16459 0.79624 0.81063
 N103 N -0.09895 0.86310 0.81162
 C104 C -0.04188 0.88065 0.79616
 C105 C -0.04861 0.82948 0.77930
 C106 C -0.17451 0.74388 0.79344
 C107 C -0.01002 1.08687 0.80983
 C108 C -0.00487 1.14160 0.79125
 C109 C -0.12474 1.05112 0.77030
 C110 C -0.12719 0.99827 0.78903
 N111 N -0.07094 1.01687 0.80848
 H112 H -0.20980 0.78415 0.82268
 H113 H 0.00896 0.93489 0.79688
 H114 H -0.00294 0.84511 0.76685
 H115 H -0.22757 0.69142 0.79228
 H116 H 0.03468 1.10037 0.82520
 H117 H 0.04408 1.19706 0.79250
 H118 H -0.17191 1.03451 0.75576
 H119 H -0.17487 0.94210 0.78837
 C120 C -0.27544 0.87493 0.88864
 C121 C 0.11732 0.99951 0.89628
 C122 C -0.06239 1.12399 0.77101
 C123 C -0.11573 0.76013 0.77775
 C124 C 0.31787 -0.05040 -0.00282
 C125 C 0.35008 -0.03874 -0.02728
 C126 C 0.41621 -0.03961 -0.02757
 C127 C 0.44973 -0.05280 -0.00383
 C128 C 0.41479 -0.06672 0.02021
 C129 C 0.35074 -0.06319 0.02099
 C130 C 0.52191 -0.05032 -0.00373
 C131 C 0.57418 -0.02404 0.01851
 C132 C 0.64045 -0.02453 0.01984
 C133 C 0.65511 -0.05119 -0.00162
 C134 C 0.60632 -0.07395 -0.02479
 C135 C 0.53885 -0.07451 -0.02546
 H136 H 0.26575 -0.05218 -0.00222
 H137 H 0.44208 -0.02863 -0.04630
 H138 H 0.43804 -0.07907 0.03863
 H139 H 0.56375 -0.00255 0.03499
 H140 H 0.70492 -0.05429 -0.00043
 H141 H 0.49779 -0.09649 -0.04219
 C142 C -0.04092 0.65232 0.67349
 C143 C -0.03225 0.61689 0.69704
 C144 C -0.02079 0.55901 0.69552
 C145 C -0.02421 0.53208 0.67057
 C146 C -0.03569 0.56734 0.64720
 C147 C -0.03990 0.62953 0.64849
 C148 C -0.01657 0.46742 0.66863
 C149 C 0.00923 0.45853 0.64536
 C150 C 0.00815 0.39441 0.64201
 C151 C -0.01226 0.34115 0.66291
 C152 C -0.03472 0.34980 0.68683
 C153 C -0.03760 0.41251 0.68944
 H154 H -0.04735 0.69849 0.67475
 H155 H -0.00994 0.53505 0.71388
 H156 H -0.04039 0.54764 0.62770
 H157 H 0.02879 0.50038 0.62936
 H158 H -0.00842 0.29390 0.66060
 H159 H -0.05827 0.41689 0.70748
 C160 C 0.73761 0.72486 0.33356
 C161 C 0.72108 0.67239 0.31510
 C162 C 0.65445 0.60301 0.31673
 C163 C 0.60462 0.58484 0.33678
 C164 C 0.62360 0.63753 0.35562
 C165 C 0.68942 0.70802 0.35408
 C166 C 0.53209 0.51182 0.33761
 C167 C 0.50060 0.47729 0.36205
 C168 C 0.43190 0.40932 0.36285
 C169 C 0.39401 0.37533 0.33881
 C170 C 0.42420 0.40892 0.31417
 C171 C 0.49302 0.47680 0.31380
 H172 H 0.78877 0.77839 0.33200
 H173 H 0.64221 0.56288 0.30244
 H174 H 0.58542 0.62497 0.37094
 H175 H 0.52991 0.50253 0.38068
 H176 H 0.34099 0.32309 0.33932
 H177 H 0.51504 0.50307 0.29471
 C178 C -0.04665 0.23879 0.56821
 C179 C 0.00308 0.30071 0.58067
 C180 C -0.01773 0.31855 0.60451
 C181 C 0.02731 0.38228 0.61645
 H182 H 0.06001 0.33601 0.57440
 H183 H -0.07013 0.27713 0.61321
 H184 H -0.10426 0.20705 0.57417
 H185 H 0.07749 0.42611 0.60724
 C186 C 0.87080 0.76475 0.24675
 C187 C 0.89498 0.77163 0.27266
 C188 C 0.84489 0.73974 0.29510
 C189 C 0.77018 0.69086 0.29287
 H190 H 0.95375 0.80998 0.27828
 H191 H 0.87173 0.76113 0.31444
 H192 H 0.81135 0.72965 0.24121
 H193 H 0.74318 0.66388 0.27435
 C194 C 0.17278 0.01251 -0.08081
 C195 C 0.22267 -0.00821 -0.07971
 C196 C 0.26722 -0.00472 -0.05469
 C197 C 0.31326 -0.03016 -0.05288
 H198 H 0.22855 -0.03109 -0.09682
 H199 H 0.25944 0.01593 -0.03733
 H200 H 0.17059 0.03811 -0.06369
 H201 H 0.32311 -0.04714 -0.07080
 C202 C 0.02522 0.85854 0.59767
 C203 C -0.00647 0.78571 0.59740
 C204 C -0.00801 0.74398 0.62242
 C205 C -0.04139 0.67078 0.62347
 H206 H -0.03325 0.75669 0.57919
 H207 H 0.02033 0.77438 0.64028
 H208 H 0.04818 0.88516 0.61656
 H209 H -0.06570 0.64115 0.60523
 C210 C 0.20873 0.23465 0.25561
 C211 C 0.28200 0.28675 0.25921
 C212 C 0.31333 0.32420 0.28461
 C213 C 0.38732 0.37350 0.28848
 H214 H 0.32017 0.30089 0.24376
 H215 H 0.27567 0.30996 0.30027
 H216 H 0.17150 0.22404 0.27106
 H217 H 0.42293 0.38904 0.27197
 C218 C 0.67721 -0.13574 -0.09138
 C219 C 0.62574 -0.11283 -0.09403
 C220 C 0.59589 -0.10239 -0.07249
 C221 C 0.62782 -0.09484 -0.04622
 H222 H 0.60682 -0.10247 -0.11375
 H223 H 0.55216 -0.09069 -0.07754
 H224 H 0.68165 -0.16277 -0.07271
 H225 H 0.67772 -0.09772 -0.04257
 C226 C 0.25495 0.01749 0.08487
 C227 C 0.26687 -0.03432 0.07881
 C228 C 0.29591 -0.02869 0.05279
 C229 C 0.31952 -0.07187 0.04695
 H230 H 0.25490 -0.08058 0.09242
 H231 H 0.29957 0.01314 0.03818
 H232 H 0.27064 0.06383 0.07073
 H233 H 0.32122 -0.11014 0.06210
 C234 C 0.78843 0.86363 0.41829
 C235 C 0.79194 0.88406 0.39089
 C236 C 0.75921 0.83442 0.37036
 C237 C 0.70665 0.75863 0.37355
 H238 H 0.82819 0.94064 0.38421
 H239 H 0.77662 0.85802 0.35057
 H240 H 0.75341 0.80574 0.42390
 H241 H 0.67565 0.73792 0.39141
 C242 C -0.05528 0.18235 0.75106
 C243 C -0.09329 0.16755 0.72705
 C244 C -0.08125 0.22370 0.70566
 C245 C -0.05272 0.29500 0.70949
 H246 H -0.12999 0.11126 0.72128
 H247 H -0.09849 0.20383 0.68563
 H248 H -0.01354 0.23889 0.75567
 H249 H -0.04261 0.31395 0.72953
 C250 C 0.87308 0.03411 0.07078
 C251 C 0.80982 0.03435 0.07039
 C252 C 0.76423 0.02309 0.04505
 C253 C 0.69101 -0.00085 0.04453
 H254 H 0.78823 0.03506 0.08888
 H255 H 0.79036 0.03022 0.02670
 H256 H 0.89027 0.02717 0.05229
 H257 H 0.66659 -0.00504 0.06302
 C258 C 0.26483 0.20519 0.42350
 C259 C 0.31244 0.27743 0.41880
 C260 C 0.35227 0.30534 0.39398
 C261 C 0.39860 0.37760 0.38891
 H262 H 0.31990 0.31667 0.43264
 H263 H 0.34119 0.26640 0.37935
 H264 H 0.26124 0.16714 0.40990
 H265 H 0.41211 0.41539 0.40438
 C266 C -0.12761 0.70786 0.75795
 C267 C -0.07228 0.69987 0.75169
 C268 C -0.08144 0.65983 0.72807
 C269 C -0.03092 0.64354 0.72318
 H270 H -0.01825 0.72691 0.76301
 H271 H -0.12804 0.64740 0.71353
 H272 H -0.18285 0.67704 0.74758
 H273 H 0.01314 0.65154 0.73826
   
