data_POSCAR
  _audit_creation_date              2014-09-24
  _audit_creation_method            'ToBaCCo'
  _symmetry_space_group_name_H-M    'P1'
  _symmetry_Int_Tables_number       1
  _symmetry_cell_setting            triclinic
  loop_
  _symmetry_equiv_pos_as_xyz
 x,y,z
_cell_length_a 32.7220
_cell_length_b 32.8269
_cell_length_c 57.4501
_cell_angle_alpha 85.722700
_cell_angle_beta 91.474900
_cell_angle_gamma 93.976200
loop_
  _atom_site_label
  _atom_site_type_symbol
  _atom_site_fract_x
  _atom_site_fract_y
  _atom_site_fract_z
C1 C 0.01035 0.57921 1.02352
 C2 C 0.01486 0.60412 1.00265
 C3 C 0.01340 0.58834 0.98060
 C4 C 0.00982 0.54511 0.97934
 C5 C 0.00641 0.51891 1.00019
 C6 C 0.00674 0.53587 1.02229
 C7 C 0.00599 0.50885 1.04251
 C8 C 0.00127 0.46672 1.04123
 C9 C 0.00131 0.44899 1.01971
 C10 C 0.00375 0.47548 0.99894
 C11 C 0.01242 0.52721 0.95795
 C12 C 0.00776 0.48514 0.95665
 C13 C 0.00341 0.45868 0.97687
 C14 C -0.00137 0.41580 0.97555
 C15 C -0.00552 0.39033 0.99601
 C16 C -0.00288 0.40569 1.01822
 H17 H 0.00954 0.51964 1.05978
 H18 H -0.00263 0.44844 1.05753
 H19 H 0.01871 0.54535 0.94182
 H20 H 0.00800 0.47369 0.93950
 H21 H 0.01539 0.63707 1.00342
 H22 H -0.00780 0.35748 0.99451
 C23 C 0.41415 0.01634 0.51898
 C24 C 0.39173 0.00748 0.49874
 C25 C 0.41114 -0.00042 0.47831
 C26 C 0.45441 -0.00043 0.47819
 C27 C 0.47766 0.00926 0.49849
 C28 C 0.45743 0.01808 0.51887
 C29 C 0.48095 0.02965 0.53835
 C30 C 0.52352 0.03134 0.53812
 C31 C 0.54448 0.02013 0.51869
 C32 C 0.52121 0.01046 0.49834
 C33 C 0.47497 -0.01053 0.45847
 C34 C 0.51752 -0.00923 0.45827
 C35 C 0.54128 0.00237 0.47774
 C36 C 0.58457 0.00553 0.47728
 C37 C 0.60707 0.01497 0.49742
 C38 C 0.58809 0.02099 0.51845
 H39 H 0.46664 0.03834 0.55386
 H40 H 0.53971 0.04256 0.55323
 H41 H 0.45833 -0.01980 0.44301
 H42 H 0.53153 -0.01768 0.44264
 H43 H 0.35855 0.00708 0.49886
 H44 H 0.64022 0.01566 0.49684
 C45 C 0.06686 -0.03761 0.26237
 H46 H 0.07055 -0.03950 0.24383
 C47 C 0.10127 -0.03542 0.27725
 H48 H 0.13150 -0.03537 0.27000
 C49 C 0.02288 -0.03407 0.29420
 H50 H -0.00766 -0.03305 0.30072
 C51 C 0.05640 -0.03167 0.30966
 H52 H 0.05116 -0.02962 0.32806
 N53 N 0.02863 -0.03715 0.27105
 C54 C -0.04828 -0.09235 0.21710
 H55 H -0.06900 -0.06849 0.21278
 C56 C -0.04939 -0.12643 0.20390
 H57 H -0.07047 -0.12744 0.18912
 C58 C 0.00571 -0.11782 0.24086
 H59 H 0.02700 -0.11444 0.25539
 C60 C 0.00465 -0.15317 0.22868
 H61 H 0.02503 -0.17666 0.23439
 Zn62 Zn -0.01664 -0.03848 0.24991
 N63 N -0.01976 -0.08776 0.23448
 C64 C -0.00628 0.00284 0.20489
 N65 N -0.00908 0.00783 0.22808
 C66 C -0.00569 0.04585 0.23622
 C67 C -0.00205 0.08075 0.22069
 C68 C -0.00290 0.03677 0.18879
 C69 C -0.07681 -0.07102 0.28062
 C70 C -0.11084 -0.07167 0.29481
 C71 C -0.12242 -0.00292 0.27931
 C72 C -0.08847 -0.00384 0.26514
 N73 N -0.06578 -0.03715 0.26652
 H74 H -0.00665 -0.02737 0.19870
 H75 H -0.00667 0.04906 0.25480
 H76 H -0.00082 0.11078 0.22740
 H77 H -0.00130 0.03212 0.17038
 H78 H -0.05853 -0.09732 0.28116
 H79 H -0.11887 -0.09902 0.30589
 H80 H -0.13877 0.02470 0.27870
 H81 H -0.07983 0.02252 0.25353
 C82 C -0.02222 -0.15740 0.20932
 C83 C 0.09625 -0.03223 0.30124
 C84 C -0.13368 -0.03692 0.29473
 C85 C -0.00153 0.07635 0.19658
 C86 C 0.01136 0.11228 0.75732
 H87 H 0.01056 0.11766 0.73851
 C88 C 0.01197 0.14533 0.77138
 H89 H 0.01231 0.17614 0.76320
 C90 C 0.01232 0.06550 0.79075
 H91 H 0.01184 0.03436 0.79830
 C92 C 0.01263 0.09750 0.80541
 H93 H 0.01214 0.09036 0.82411
 N94 N 0.01229 0.07336 0.76717
 C95 C 0.06610 -0.00079 0.71761
 H96 H 0.04435 -0.02720 0.71878
 C97 C 0.09993 -0.00032 0.70328
 H98 H 0.10386 -0.02638 0.69325
 C99 C 0.08673 0.06564 0.72890
 H100 H 0.08177 0.09113 0.73906
 C101 C 0.12080 0.06756 0.71459
 H102 H 0.14174 0.09464 0.71386
 Zn103 Zn 0.01176 0.02906 0.74780
 N104 N 0.05973 0.03214 0.72975
 C105 C -0.03059 0.03303 0.70427
 N106 N -0.03516 0.03123 0.72780
 C107 C -0.07273 0.03250 0.73723
 C108 C -0.10774 0.03461 0.72281
 C109 C -0.06465 0.03526 0.68926
 C110 C 0.04612 -0.02925 0.77846
 C111 C 0.04769 -0.06422 0.79371
 C112 C -0.02338 -0.08181 0.78422
 C113 C -0.02344 -0.04667 0.76889
 N114 N 0.01079 -0.02081 0.76668
 H115 H -0.00051 0.03288 0.69702
 H116 H -0.07546 0.03197 0.75598
 H117 H -0.13738 0.03575 0.73060
 H118 H -0.06032 0.03592 0.67061
 H119 H 0.07301 -0.00837 0.77619
 H120 H 0.07627 -0.07028 0.80278
 H121 H -0.05142 -0.10109 0.78639
 H122 H -0.05110 -0.03974 0.75920
 C123 C 0.12749 0.03442 0.70140
 C124 C 0.01291 0.13815 0.79581
 C125 C 0.01241 -0.09074 0.79713
 C126 C -0.10389 0.03602 0.69846
 C127 C 0.00115 -0.35687 0.08502
 C128 C 0.03034 -0.34396 0.06799
 C129 C 0.03394 -0.36568 0.04828
 C130 C 0.00805 -0.40084 0.04457
 C131 C -0.02208 -0.41300 0.06127
 C132 C -0.02491 -0.39189 0.08140
 C133 C -0.00261 -0.33302 0.10595
 C134 C -0.04062 -0.33090 0.11657
 C135 C -0.04428 -0.30661 0.13532
 C136 C -0.01030 -0.28276 0.14361
 C137 C 0.02782 -0.28554 0.13323
 C138 C 0.03172 -0.31079 0.11503
 C139 C -0.01468 -0.25372 0.16214
 C140 C 0.01877 -0.24248 0.17674
 C141 C 0.01615 -0.21190 0.19218
 C142 C -0.02052 -0.19251 0.19422
 C143 C -0.05477 -0.20562 0.18069
 C144 C -0.05171 -0.23519 0.16464
 H145 H 0.05018 -0.31650 0.06954
 H146 H 0.05754 -0.35497 0.03596
 H147 H -0.04444 -0.43816 0.05850
 H148 H -0.04778 -0.40307 0.09401
 H149 H -0.06799 -0.34710 0.11009
 H150 H -0.07400 -0.30636 0.14310
 H151 H 0.05477 -0.26739 0.13861
 H152 H 0.06184 -0.31236 0.10795
 H153 H 0.04750 -0.25674 0.17607
 H154 H 0.04356 -0.20277 0.20191
 H155 H -0.08402 -0.19269 0.18211
 H156 H -0.07824 -0.24240 0.15371
 C157 C 0.00022 0.31415 0.07443
 C158 C -0.02965 0.31142 0.05656
 C159 C -0.03121 0.34212 0.03849
 C160 C -0.00314 0.37674 0.03783
 C161 C 0.02680 0.37935 0.05587
 C162 C 0.02814 0.34863 0.07409
 C163 C 0.00276 0.28024 0.09284
 C164 C 0.00762 0.28806 0.11650
 C165 C 0.00786 0.25563 0.13378
 C166 C 0.00354 0.21480 0.12769
 C167 C -0.00001 0.20720 0.10394
 C168 C -0.00057 0.23949 0.08675
 C169 C 0.00176 0.18005 0.14588
 C170 C -0.02508 0.14540 0.14292
 C171 C -0.02615 0.11203 0.15945
 C172 C -0.00065 0.11252 0.17947
 C173 C 0.02556 0.14745 0.18280
 C174 C 0.02686 0.18086 0.16612
 H175 H -0.05190 0.28541 0.05655
 H176 H -0.05485 0.33893 0.02506
 H177 H 0.05041 0.40420 0.05537
 H178 H 0.05197 0.35107 0.08745
 H179 H 0.01005 0.31922 0.12165
 H180 H 0.01032 0.26254 0.15192
 H181 H -0.00231 0.17618 0.09858
 H182 H -0.00348 0.23260 0.06861
 H183 H -0.04559 0.14415 0.12786
 H184 H -0.04728 0.08588 0.15668
 H185 H 0.04572 0.14851 0.19802
 H186 H 0.04812 0.20693 0.16883
 C187 C 0.34071 0.03248 0.57806
 C188 C 0.36402 -0.00194 0.57769
 C189 C 0.38897 -0.00650 0.55879
 C190 C 0.39094 0.02312 0.53993
 C191 C 0.36844 0.05783 0.54035
 C192 C 0.34379 0.06265 0.55932
 C193 C 0.31189 0.03594 0.59733
 C194 C 0.27353 0.05197 0.59260
 C195 C 0.24560 0.05366 0.61041
 C196 C 0.25517 0.03901 0.63335
 C197 C 0.29357 0.02333 0.63821
 C198 C 0.32172 0.02199 0.62041
 C199 C 0.22446 0.03887 0.65189
 C200 C 0.21663 0.00388 0.66715
 C201 C 0.18561 0.00265 0.68352
 C202 C 0.16210 0.03654 0.68510
 C203 C 0.17074 0.07194 0.67029
 C204 C 0.20147 0.07302 0.65377
 H205 H 0.36192 -0.02606 0.59160
 H206 H 0.40586 -0.03370 0.55856
 H207 H 0.36966 0.08093 0.52585
 H208 H 0.32688 0.08986 0.55920
 H209 H 0.26452 0.06218 0.57498
 H210 H 0.21596 0.06530 0.60611
 H211 H 0.30187 0.01224 0.65581
 H212 H 0.35121 0.01007 0.62475
 H213 H 0.23368 -0.02297 0.66595
 H214 H 0.17979 -0.02489 0.69485
 H215 H 0.15288 0.09837 0.67101
 H216 H 0.20711 0.10048 0.64234
 C217 C -0.33244 0.03219 0.57768
 C218 C -0.32343 0.05451 0.55642
 C219 C -0.34986 0.05124 0.53710
 C220 C -0.38652 0.02605 0.53855
 C221 C -0.39536 0.00359 0.55993
 C222 C -0.36872 0.00673 0.57925
 C223 C -0.30310 0.03439 0.59777
 C224 C -0.29348 -0.00133 0.61123
 C225 C -0.26343 0.00033 0.62895
 C226 C -0.24240 0.03775 0.63361
 C227 C -0.25304 0.07365 0.62066
 C228 C -0.28301 0.07197 0.60293
 C229 C -0.20802 0.03901 0.65100
 C230 C -0.17196 0.06360 0.64607
 C231 C -0.13857 0.06319 0.66169
 C232 C -0.14037 0.03815 0.68262
 C233 C -0.17675 0.01425 0.68784
 C234 C -0.21019 0.01460 0.67217
 H235 H -0.29536 0.07388 0.55455
 H236 H -0.34184 0.06909 0.52104
 H237 H -0.42215 -0.01766 0.56151
 H238 H -0.37640 -0.01098 0.59539
 H239 H -0.30807 -0.03081 0.60748
 H240 H -0.25558 -0.02794 0.63840
 H241 H -0.23794 0.10304 0.62412
 H242 H -0.29031 0.10010 0.59313
 H243 H -0.16910 0.08240 0.62981
 H244 H -0.11118 0.08237 0.65731
 H245 H -0.17896 -0.00555 0.70376
 H246 H -0.23770 -0.00437 0.67657
 C247 C 0.01348 -0.32380 0.92220
 C248 C -0.01441 -0.35840 0.92296
 C249 C -0.01447 -0.38746 0.94205
 C250 C 0.01400 -0.38321 0.96071
 C251 C 0.04134 -0.34804 0.96001
 C252 C 0.04116 -0.31891 0.94105
 C253 C 0.01335 -0.29232 0.90217
 C254 C 0.05032 -0.27222 0.89423
 C255 C 0.05021 -0.24083 0.87645
 C256 C 0.01319 -0.22912 0.86597
 C257 C -0.02370 -0.24997 0.87329
 C258 C -0.02366 -0.28112 0.89129
 C259 C 0.01310 -0.19415 0.84812
 C260 C -0.01030 -0.19678 0.82739
 C261 C -0.01028 -0.16347 0.81070
 C262 C 0.01277 -0.12667 0.81455
 C263 C 0.03587 -0.12415 0.83545
 C264 C 0.03623 -0.15756 0.85195
 H265 H -0.03626 -0.36310 0.90878
 H266 H -0.03757 -0.41277 0.94246
 H267 H 0.06359 -0.34333 0.97402
 H268 H 0.06242 -0.29217 0.94136
 H269 H 0.07944 -0.28068 0.90181
 H270 H 0.07912 -0.22563 0.87086
 H271 H -0.05268 -0.24124 0.86562
 H272 H -0.05272 -0.29553 0.89715
 H273 H -0.02815 -0.22482 0.82398
 H274 H -0.02796 -0.16675 0.79469
 H275 H 0.05317 -0.09607 0.83932
 H276 H 0.05398 -0.15451 0.86797
 C277 C 0.00386 0.35032 0.91365
 C278 C 0.03701 0.37706 0.92015
 C279 C 0.03497 0.39917 0.93991
 C280 C -0.00054 0.39571 0.95328
 C281 C -0.03397 0.36978 0.94661
 C282 C -0.03182 0.34731 0.92702
 C283 C 0.00722 0.32388 0.89392
 C284 C -0.02706 0.31396 0.87965
 C285 C -0.02470 0.28626 0.86246
 C286 C 0.01210 0.26804 0.85899
 C287 C 0.04678 0.27922 0.87264
 C288 C 0.04433 0.30659 0.88996
 C289 C 0.01379 0.23598 0.84210
 C290 C 0.03673 0.20176 0.84757
 C291 C 0.03703 0.17060 0.83235
 C292 C 0.01405 0.17253 0.81133
 C293 C -0.00842 0.20703 0.80564
 C294 C -0.00849 0.23843 0.82083
 H295 H 0.06476 0.38054 0.91013
 H296 H 0.06138 0.41848 0.94503
 H297 H -0.06139 0.36620 0.95694
 H298 H -0.05761 0.32645 0.92287
 H299 H -0.05595 0.32720 0.88195
 H300 H -0.05212 0.27814 0.85242
 H301 H 0.07582 0.26638 0.87017
 H302 H 0.07126 0.31310 0.90074
 H303 H 0.05379 0.19849 0.86392
 H304 H 0.05526 0.14485 0.83712
 H305 H -0.02671 0.20937 0.78968
 H306 H -0.02609 0.26457 0.81592
 C307 C -0.34391 -0.01233 0.41738
 C308 C -0.37266 0.01779 0.41618
 C309 C -0.39625 0.02339 0.43551
 C310 C -0.39212 -0.00149 0.45627
 C311 C -0.36374 -0.03172 0.45749
 C312 C -0.33983 -0.03703 0.43830
 C313 C -0.31722 -0.01720 0.39730
 C314 C -0.30532 -0.05612 0.39263
 C315 C -0.27772 -0.06038 0.37496
 C316 C -0.26185 -0.02594 0.36133
 C317 C -0.27477 0.01278 0.36534
 C318 C -0.30197 0.01715 0.38322
 C319 C -0.23027 -0.03012 0.34381
 C320 C -0.23307 -0.01053 0.32132
 C321 C -0.20230 -0.01345 0.30518
 C322 C -0.16774 -0.03553 0.31133
 C323 C -0.16526 -0.05524 0.33389
 C324 C -0.19628 -0.05280 0.34986
 H325 H -0.37696 0.03707 0.40031
 H326 H -0.41758 0.04730 0.43435
 H327 H -0.35975 -0.05091 0.47344
 H328 H -0.31742 -0.05987 0.44011
 H329 H -0.31715 -0.08336 0.40272
 H330 H -0.26860 -0.09063 0.37199
 H331 H -0.26261 0.03986 0.35520
 H332 H -0.30990 0.04764 0.38651
 H333 H -0.25920 0.00687 0.31620
 H334 H -0.20567 0.00152 0.28787
 H335 H -0.13878 -0.07168 0.33951
 H336 H -0.19312 -0.06767 0.36722
 C337 C 0.32950 -0.01453 0.41923
 C338 C 0.32683 -0.04283 0.43885
 C339 C 0.35420 -0.03895 0.45775
 C340 C 0.38493 -0.00695 0.45732
 C341 C 0.38823 0.02089 0.43760
 C342 C 0.36085 0.01707 0.41869
 C343 C 0.29832 -0.01674 0.40004
 C344 C 0.28176 0.01910 0.39012
 C345 C 0.25047 0.01699 0.37316
 C346 C 0.23503 -0.02100 0.36571
 C347 C 0.25228 -0.05678 0.37519
 C348 C 0.28354 -0.05468 0.39221
 C349 C 0.20006 -0.02335 0.34877
 C350 C 0.19915 -0.05040 0.33088
 C351 C 0.16566 -0.05307 0.31531
 C352 C 0.13228 -0.02893 0.31740
 C353 C 0.13335 -0.00173 0.33520
 C354 C 0.16684 0.00104 0.35068
 H355 H 0.30266 -0.06711 0.43995
 H356 H 0.35093 -0.06044 0.47295
 H357 H 0.41145 0.04611 0.43711
 H358 H 0.36391 0.03910 0.40374
 H359 H 0.29216 0.04875 0.39594
 H360 H 0.23814 0.04512 0.36597
 H361 H 0.24083 -0.08653 0.36993
 H362 H 0.29598 -0.08278 0.39936
 H363 H 0.22445 -0.06933 0.32885
 H364 H 0.16556 -0.07453 0.30187
 H365 H 0.10834 0.01763 0.33708
 H366 H 0.16640 0.02182 0.36444
   
