data_POSCAR
  _audit_creation_date              2014-09-24
  _audit_creation_method            'ToBaCCo'
  _symmetry_space_group_name_H-M    'P1'
  _symmetry_Int_Tables_number       1
  _symmetry_cell_setting            triclinic
  loop_
  _symmetry_equiv_pos_as_xyz
 x,y,z
_cell_length_a 71.7188
_cell_length_b 71.6169
_cell_length_c 24.0439
_cell_angle_alpha 89.975900
_cell_angle_beta 90.010200
_cell_angle_gamma 120.003000
loop_
  _atom_site_label
  _atom_site_type_symbol
  _atom_site_fract_x
  _atom_site_fract_y
  _atom_site_fract_z
O1 O 0.21677 0.47058 0.44674
 O2 O 0.25389 0.47121 0.55358
 O3 O 0.21709 0.47066 0.55449
 O4 O 0.25346 0.47101 0.44596
 O5 O 0.27090 0.50658 0.44568
 O6 O 0.23451 0.50623 0.55420
 O7 O 0.27107 0.50673 0.55387
 O8 O 0.23435 0.50615 0.44603
 Cu9 Cu 0.23355 0.46730 0.50025
 Cu10 Cu 0.25445 0.50998 0.49992
 C11 C 0.21912 0.48827 0.42838
 C12 C 0.26901 0.48908 0.57175
 C13 C 0.21943 0.48839 0.57252
 C14 C 0.26854 0.48885 0.42764
 O15 O 0.53267 -0.21470 0.55595
 O16 O 0.53448 -0.25045 0.44883
 O17 O 0.53290 -0.21474 0.44827
 O18 O 0.53421 -0.25051 0.55622
 O19 O 0.49875 -0.26928 0.55624
 O20 O 0.49741 -0.23368 0.44766
 O21 O 0.49898 -0.26930 0.44804
 O22 O 0.49723 -0.23369 0.55589
 Cu23 Cu 0.53711 -0.23069 0.50240
 Cu24 Cu 0.49454 -0.25337 0.50190
 C25 C 0.51464 -0.21789 0.57399
 C26 C 0.51705 -0.26614 0.43056
 C27 C 0.51492 -0.21797 0.42982
 C28 C 0.51673 -0.26623 0.57431
 O29 O 1.25212 0.78278 0.44694
 O30 O 1.21562 0.74581 0.55411
 O31 O 1.25202 0.78255 0.55469
 O32 O 1.21575 0.74615 0.44646
 O33 O 1.23368 0.72853 0.44620
 O34 O 1.26996 0.76495 0.55439
 O35 O 1.23376 0.72845 0.55443
 O36 O 1.26990 0.76501 0.44624
 Cu37 Cu 1.23208 0.76609 0.50062
 Cu38 Cu 1.25361 0.74497 0.50030
 C39 C 1.26735 0.78031 0.42852
 C40 C 1.21828 0.73063 0.57237
 C41 C 1.26734 0.78013 0.57263
 C42 C 1.21838 0.73098 0.42817
 O43 O 0.74662 0.53089 0.55505
 O44 O 0.78357 0.53154 0.44752
 O45 O 0.74732 0.53208 0.44762
 O46 O 0.78303 0.53069 0.55526
 O47 O 0.76506 0.49513 0.55312
 O48 O 0.72923 0.49652 0.44536
 O49 O 0.76535 0.49599 0.44496
 O50 O 0.72888 0.49537 0.55349
 Cu51 Cu 0.76696 0.53486 0.50156
 Cu52 Cu 0.74533 0.49219 0.49897
 C53 C 0.73125 0.51301 0.57241
 C54 C 0.78087 0.51384 0.42817
 C55 C 0.73198 0.51456 0.42863
 C56 C 0.78030 0.51270 0.57227
 O57 O 0.46719 0.21553 0.55529
 O58 O 0.46636 0.25180 0.44770
 O59 O 0.46591 0.21501 0.44788
 O60 O 0.46728 0.25216 0.55547
 O61 O 0.50279 0.26980 0.55308
 O62 O 0.50142 0.23252 0.44542
 O63 O 0.50186 0.26917 0.44490
 O64 O 0.50266 0.23337 0.55353
 Cu65 Cu 0.46313 0.23189 0.50182
 Cu66 Cu 0.50573 0.25298 0.49896
 C67 C 0.48509 0.21809 0.57254
 C68 C 0.48400 0.26680 0.42819
 C69 C 0.48340 0.21721 0.42879
 C70 C 0.48525 0.26745 0.57234
 O71 O 0.74770 0.21416 0.44810
 O72 O 0.78503 0.25058 0.55466
 O73 O 0.74797 0.21457 0.55585
 O74 O 0.78477 0.25010 0.44731
 O75 O 0.76786 0.26872 0.44676
 O76 O 0.73103 0.23317 0.55548
 O77 O 0.76793 0.26898 0.55494
 O78 O 0.73090 0.23288 0.44730
 Cu79 Cu 0.76804 0.23047 0.50153
 Cu80 Cu 0.74773 0.25279 0.50106
 C81 C 0.73280 0.21718 0.42977
 C82 C 0.78308 0.26621 0.57268
 C83 C 0.73307 0.21765 0.57387
 C84 C 0.78281 0.26567 0.42901
 N85 N 0.97656 0.52114 0.05889
 N86 N 0.96050 0.52489 0.06679
 N87 N 1.02184 0.53087 0.09750
 N88 N 1.03795 0.54143 0.13245
 N89 N 1.02195 0.54385 0.05875
 N90 N 1.03823 0.56360 0.06618
 N91 N 0.97662 0.50824 0.09758
 N92 N 0.96069 0.50293 0.13296
 C93 C 0.95071 0.51338 0.11318
 C94 C 1.04807 0.56183 0.11239
 N95 N 1.02195 0.47777 0.05935
 N96 N 1.03817 0.47425 0.06712
 N97 N 0.97666 0.46803 0.09798
 N98 N 0.96094 0.45737 0.13392
 N99 N 0.97655 0.45502 0.05938
 N100 N 0.96062 0.43516 0.06776
 N101 N 1.02185 0.49070 0.09786
 N102 N 1.03791 0.49626 0.13298
 Mn103 Mn 0.99924 0.49946 0.09834
 C104 C 1.04799 0.48591 0.11327
 C105 C 0.95099 0.43689 0.11440
 N106 N 1.02191 0.54372 -0.06104
 N107 N 1.03811 0.56349 -0.06893
 N108 N 0.97655 0.50800 -0.09938
 N109 N 0.96034 0.50227 -0.13410
 N110 N 0.97650 0.52097 -0.06088
 N111 N 0.96016 0.52432 -0.06821
 N112 N 1.02175 0.53068 -0.09963
 N113 N 1.03771 0.54121 -0.13500
 Mn114 Mn 0.99924 0.53267 -0.00108
 C115 C 1.04783 0.56166 -0.11530
 C116 C 0.95023 0.51255 -0.11412
 N117 N 0.97650 0.45488 -0.06030
 N118 N 0.96065 0.43497 -0.06861
 N119 N 1.02180 0.49051 -0.09921
 N120 N 1.03792 0.49609 -0.13415
 N121 N 1.02192 0.47765 -0.06046
 N122 N 1.03821 0.47422 -0.06787
 N123 N 0.97662 0.46779 -0.09923
 N124 N 0.96102 0.45701 -0.13538
 Mn125 Mn 0.99923 0.46609 -0.00051
 Mn126 Mn 0.99917 0.49925 -0.09997
 Cl127 Cl 0.99921 0.49936 -0.00080
 C128 C 0.95110 0.43657 -0.11559
 C129 C 1.04805 0.48584 -0.11407
 N130 N 0.47748 0.45591 0.05858
 N131 N 0.47351 0.43599 0.06643
 N132 N 0.46832 0.49191 0.09725
 N133 N 0.45789 0.49760 0.13222
 N134 N 0.45532 0.47916 0.05845
 N135 N 0.43566 0.47591 0.06584
 N136 N 0.49042 0.46876 0.09733
 N137 N 0.49554 0.45795 0.13269
 C138 C 0.48492 0.43753 0.11286
 C139 C 0.43753 0.48754 0.11209
 N140 N 0.52178 0.54475 0.05936
 N141 N 0.52597 0.56470 0.06793
 N142 N 0.53086 0.50868 0.09791
 N143 N 0.54131 0.50334 0.13380
 N144 N 0.54398 0.52151 0.05937
 N145 N 0.56371 0.52512 0.06777
 N146 N 0.50879 0.53180 0.09792
 N147 N 0.50392 0.54258 0.13398
 Mn148 Mn 0.49959 0.50028 0.09820
 C149 C 0.51467 0.56307 0.11462
 C150 C 0.56177 0.51362 0.11435
 N151 N 0.45553 0.47936 -0.06132
 N152 N 0.43586 0.47600 -0.06932
 N153 N 0.49077 0.46909 -0.09968
 N154 N 0.49635 0.45848 -0.13439
 N155 N 0.47773 0.45613 -0.06121
 N156 N 0.47418 0.43634 -0.06855
 N157 N 0.46865 0.49220 -0.09984
 N158 N 0.45827 0.49781 -0.13528
 Mn159 Mn 0.46627 0.46740 -0.00139
 C160 C 0.43784 0.48763 -0.11566
 C161 C 0.48590 0.43806 -0.11445
 N162 N 0.54420 0.52172 -0.06038
 N163 N 0.56392 0.52521 -0.06821
 N164 N 0.50914 0.53214 -0.09938
 N165 N 0.50442 0.54307 -0.13535
 N166 N 0.52196 0.54494 -0.06035
 N167 N 0.52614 0.56491 -0.06841
 N168 N 0.53120 0.50901 -0.09926
 N169 N 0.54172 0.50363 -0.13479
 Mn170 Mn 0.53322 0.53347 -0.00050
 Mn171 Mn 0.49993 0.50061 -0.10015
 Cl172 Cl 0.49975 0.50044 -0.00096
 C173 C 0.56211 0.51378 -0.11483
 C174 C 0.51504 0.56347 -0.11536
 N175 N 0.45485 -0.02291 0.05964
 N176 N 0.43506 -0.03908 0.06724
 N177 N 0.49049 0.02232 0.09865
 N178 N 0.49562 0.03807 0.13457
 N179 N 0.47772 0.02256 0.05987
 N180 N 0.47394 0.03859 0.06816
 N181 N 0.46777 -0.02293 0.09828
 N182 N 0.45714 -0.03901 0.13333
 C183 C 0.43675 -0.04899 0.11343
 C184 C 0.48526 0.04816 0.11491
 N185 N 0.54356 0.02225 0.06022
 N186 N 0.56334 0.03837 0.06812
 N187 N 0.50782 -0.02311 0.09847
 N188 N 0.50223 -0.03924 0.13346
 N189 N 0.52071 -0.02320 0.05988
 N190 N 0.52418 -0.03948 0.06743
 N191 N 0.53058 0.02219 0.09879
 N192 N 0.54117 0.03818 0.13411
 Mn193 Mn 0.49917 -0.00038 0.09916
 C194 C 0.56160 0.04818 0.11441
 C195 C 0.51252 -0.04936 0.11353
 N196 N 0.47782 0.02269 -0.05989
 N197 N 0.47416 0.03883 -0.06791
 N198 N 0.46795 -0.02272 -0.09874
 N199 N 0.45740 -0.03880 -0.13381
 N200 N 0.45497 -0.02278 -0.06016
 N201 N 0.43522 -0.03900 -0.06782
 N202 N 0.49067 0.02255 -0.09855
 N203 N 0.49598 0.03846 -0.13411
 Mn204 Mn 0.46610 -0.00011 -0.00014
 C205 C 0.48563 0.04854 -0.11441
 C206 C 0.43699 -0.04886 -0.11398
 N207 N 0.52082 -0.02308 -0.05983
 N208 N 0.52431 -0.03933 -0.06755
 N209 N 0.53076 0.02241 -0.09824
 N210 N 0.54140 0.03859 -0.13303
 N211 N 0.54366 0.02238 -0.05953
 N212 N 0.56342 0.03863 -0.06678
 N213 N 0.50804 -0.02286 -0.09860
 N214 N 0.50260 -0.03885 -0.13394
 Mn215 Mn 0.53243 -0.00041 0.00018
 Mn216 Mn 0.49936 -0.00015 -0.09915
 Cl217 Cl 0.49926 -0.00026 0.00001
 C218 C 0.51282 -0.04904 -0.11399
 C219 C 0.56176 0.04860 -0.11284
 C220 C 1.17270 0.48840 0.31502
 C221 C 1.19266 0.50722 0.32367
 C222 C 1.20791 0.50709 0.35962
 C223 C 1.20366 0.48808 0.38728
 C224 C 1.18405 0.46909 0.37726
 C225 C 1.16870 0.46927 0.34177
 C226 C 1.15574 0.48892 0.28044
 C227 C 1.14176 0.47115 0.24747
 C228 C 1.12495 0.47116 0.21799
 C229 C 1.12180 0.48901 0.22048
 C230 C 1.13617 0.50702 0.25212
 C231 C 1.15285 0.50694 0.28192
 C232 C 1.10317 0.48857 0.19194
 C233 C 1.09205 0.49783 0.21740
 C234 C 1.07430 0.49713 0.19147
 C235 C 1.06709 0.48698 0.13971
 C236 C 1.07814 0.47775 0.11399
 C237 C 1.09605 0.47859 0.13976
 H238 H 1.19646 0.52213 0.30291
 H239 H 1.22296 0.52194 0.36612
 H240 H 1.18025 0.45421 0.39820
 H241 H 1.15341 0.45456 0.33682
 H242 H 1.14370 0.45713 0.24469
 H243 H 1.11409 0.45693 0.19445
 H244 H 1.13446 0.52119 0.25423
 H245 H 1.16311 0.52081 0.30734
 H246 H 1.09679 0.50527 0.25801
 H247 H 1.06603 0.50430 0.21239
 H248 H 1.07299 0.46993 0.07389
 H249 H 1.10440 0.47157 0.11862
 C250 C 0.51861 0.68744 0.32030
 C251 C 0.49968 0.68851 0.32612
 C252 C 0.49925 0.70390 0.36105
 C253 C 0.51784 0.71871 0.39010
 C254 C 0.53697 0.71813 0.38251
 C255 C 0.53731 0.70255 0.34829
 C256 C 0.51856 0.66989 0.28770
 C257 C 0.52702 0.65771 0.31099
 C258 C 0.52621 0.64050 0.28167
 C259 C 0.51721 0.63533 0.22815
 C260 C 0.50912 0.64775 0.20430
 C261 C 0.50960 0.66478 0.23409
 C262 C 0.51596 0.61673 0.19801
 C263 C 0.52319 0.61886 0.14284
 C264 C 0.52276 0.60140 0.11549
 C265 C 0.51474 0.58145 0.14259
 C266 C 0.50707 0.57923 0.19730
 C267 C 0.50783 0.59674 0.22488
 H268 H 0.48503 0.67693 0.30522
 H269 H 0.48429 0.70399 0.36598
 H270 H 0.55154 0.72930 0.40441
 H271 H 0.55213 0.70213 0.34410
 H272 H 0.53384 0.66121 0.35245
 H273 H 0.53268 0.63123 0.30073
 H274 H 0.50202 0.64398 0.16317
 H275 H 0.50304 0.67400 0.21525
 H276 H 0.52960 0.63415 0.12140
 H277 H 0.52870 0.60350 0.07322
 H278 H 0.50078 0.56403 0.21915
 H279 H 0.50198 0.59467 0.26725
 C280 C 0.31396 -0.17345 0.31483
 C281 C 0.31264 -0.19351 0.32348
 C282 C 0.29723 -0.20870 0.35953
 C283 C 0.28262 -0.20430 0.38729
 C284 C 0.28343 -0.18458 0.37724
 C285 C 0.29898 -0.16929 0.34165
 C286 C 0.33150 -0.15655 0.28022
 C287 C 0.32787 -0.14244 0.24727
 C288 C 0.34476 -0.12567 0.21781
 C289 C 0.36567 -0.12268 0.22029
 C290 C 0.36914 -0.13718 0.25190
 C291 C 0.35232 -0.15382 0.28168
 C292 C 0.38395 -0.10408 0.19184
 C293 C 0.40430 -0.09308 0.21739
 C294 C 0.42144 -0.07536 0.19154
 C295 C 0.41862 -0.06806 0.13977
 C296 C 0.39836 -0.07899 0.11396
 C297 C 0.38120 -0.09686 0.13966
 H298 H 0.32362 -0.19744 0.30267
 H299 H 0.29689 -0.22383 0.36605
 H300 H 0.27246 -0.18067 0.39825
 H301 H 0.29970 -0.15392 0.33669
 H302 H 0.31198 -0.14425 0.24452
 H303 H 0.34152 -0.11471 0.19428
 H304 H 0.38495 -0.13560 0.25401
 H305 H 0.35581 -0.16418 0.30708
 H306 H 0.40692 -0.09790 0.25800
 H307 H 0.43686 -0.06719 0.21253
 H308 H 0.39578 -0.07376 0.07386
 H309 H 0.36584 -0.10513 0.11846
 C310 C 0.82721 0.51330 0.31526
 C311 C 0.80704 0.49467 0.32324
 C312 C 0.79181 0.49497 0.35892
 C313 C 0.79629 0.51396 0.38704
 C314 C 0.81612 0.53278 0.37763
 C315 C 0.83144 0.53243 0.34236
 C316 C 0.84411 0.51253 0.28103
 C317 C 0.85839 0.53027 0.24834
 C318 C 0.87506 0.52996 0.21896
 C319 C 0.87779 0.51185 0.22130
 C320 C 0.86317 0.49391 0.25281
 C321 C 0.84662 0.49428 0.28247
 C322 C 0.89621 0.51189 0.19261
 C323 C 0.90704 0.50230 0.21790
 C324 C 0.92457 0.50261 0.19174
 C325 C 0.93182 0.51268 0.13989
 C326 C 0.92104 0.52224 0.11434
 C327 C 0.90337 0.52180 0.14036
 H328 H 0.80305 0.47977 0.30218
 H329 H 0.77659 0.48024 0.36494
 H330 H 0.82010 0.54764 0.39893
 H331 H 0.84689 0.54700 0.33788
 H332 H 0.85676 0.54448 0.24565
 H333 H 0.88613 0.54413 0.19553
 H334 H 0.86457 0.47955 0.25485
 H335 H 0.83612 0.48043 0.30770
 H336 H 0.90224 0.49489 0.25854
 H337 H 0.93263 0.49520 0.21254
 H338 H 0.92623 0.53001 0.07419
 H339 H 0.89523 0.52907 0.11935
 C340 C 0.48444 0.31360 0.31486
 C341 C 0.46538 0.29881 0.34236
 C342 C 0.46506 0.28316 0.37778
 C343 C 0.48383 0.28206 0.38693
 C344 C 0.50274 0.29644 0.35837
 C345 C 0.50301 0.31194 0.32253
 C346 C 0.48522 0.33129 0.28055
 C347 C 0.50352 0.35200 0.28162
 C348 C 0.50393 0.36896 0.25194
 C349 C 0.48597 0.36574 0.22079
 C350 C 0.46780 0.34494 0.21878
 C351 C 0.46745 0.32791 0.24819
 C352 C 0.48597 0.38417 0.19218
 C353 C 0.47599 0.38150 0.14007
 C354 C 0.47567 0.39883 0.11408
 C355 C 0.48541 0.41919 0.13954
 C356 C 0.49552 0.42194 0.19129
 C357 C 0.49571 0.40462 0.21741
 H358 H 0.45086 0.29978 0.33810
 H359 H 0.45026 0.27238 0.39941
 H360 H 0.51742 0.29587 0.36416
 H361 H 0.51784 0.32276 0.30115
 H362 H 0.51740 0.35530 0.30660
 H363 H 0.51832 0.38468 0.25370
 H364 H 0.45361 0.34191 0.19561
 H365 H 0.45320 0.31211 0.24579
 H366 H 0.46859 0.36605 0.11912
 H367 H 0.46787 0.39630 0.07402
 H368 H 0.50306 0.43743 0.21203
 H369 H 0.50317 0.40720 0.25795
 C370 C 0.68522 0.17138 0.31709
 C371 C 0.70015 0.16695 0.34311
 C372 C 0.71599 0.18208 0.37838
 C373 C 0.71715 0.20193 0.38892
 C374 C 0.70255 0.20659 0.36204
 C375 C 0.68684 0.19154 0.32634
 C376 C 0.66748 0.15467 0.28256
 C377 C 0.64674 0.15213 0.28469
 C378 C 0.62976 0.13569 0.25484
 C379 C 0.63300 0.12121 0.22247
 C380 C 0.65382 0.12401 0.21939
 C381 C 0.67087 0.14058 0.24891
 C382 C 0.61458 0.10284 0.19368
 C383 C 0.61723 0.09581 0.14117
 C384 C 0.60001 0.07810 0.11521
 C385 C 0.57976 0.06715 0.14104
 C386 C 0.57700 0.07430 0.19309
 C387 C 0.59422 0.09187 0.21922
 H388 H 0.69920 0.15149 0.33771
 H389 H 0.72692 0.17795 0.39870
 H390 H 0.70314 0.22182 0.36899
 H391 H 0.67588 0.19567 0.30618
 H392 H 0.64345 0.16250 0.31062
 H393 H 0.61402 0.13425 0.25746
 H394 H 0.65688 0.11305 0.19530
 H395 H 0.68668 0.14225 0.24563
 H396 H 0.63259 0.10407 0.11993
 H397 H 0.60254 0.07300 0.07488
 H398 H 0.56158 0.06611 0.21409
 H399 H 0.59167 0.09655 0.26006
 C400 C 0.48658 0.17283 -0.31646
 C401 C 0.46687 0.16994 -0.33638
 C402 C 0.46630 0.18523 -0.37146
 C403 C 0.48547 0.20366 -0.38841
 C404 C 0.50515 0.20682 -0.36713
 C405 C 0.50566 0.19170 -0.33136
 C406 C 0.48733 0.15578 -0.28255
 C407 C 0.50433 0.15150 -0.28921
 C408 C 0.50461 0.13487 -0.25961
 C409 C 0.48774 0.12179 -0.22313
 C410 C 0.47090 0.12626 -0.21571
 C411 C 0.47076 0.14311 -0.24481
 C412 C 0.48743 0.10319 -0.19443
 C413 C 0.47913 0.09719 -0.14021
 C414 C 0.47849 0.07940 -0.11409
 C415 C 0.48636 0.06742 -0.14139
 C416 C 0.49484 0.07349 -0.19520
 C417 C 0.49522 0.09105 -0.22156
 H418 H 0.45186 0.15551 -0.32649
 H419 H 0.45080 0.18214 -0.38679
 H420 H 0.52027 0.22090 -0.37845
 H421 H 0.52110 0.19477 -0.31573
 H422 H 0.51723 0.16066 -0.31839
 H423 H 0.51806 0.13221 -0.26564
 H424 H 0.45753 0.11643 -0.18840
 H425 H 0.45758 0.14612 -0.23789
 H426 H 0.47330 0.10633 -0.11768
 H427 H 0.47200 0.07513 -0.07240
 H428 H 0.50088 0.06444 -0.21738
 H429 H 0.50129 0.09484 -0.26371
 C430 C 0.68475 0.51179 -0.31646
 C431 C 0.70163 0.53148 -0.33647
 C432 C 0.71740 0.53196 -0.37161
 C433 C 0.71651 0.51270 -0.38852
 C434 C 0.69995 0.49304 -0.36717
 C435 C 0.68441 0.49263 -0.33134
 C436 C 0.66706 0.51115 -0.28248
 C437 C 0.64575 0.49422 -0.28911
 C438 C 0.62892 0.49407 -0.25953
 C439 C 0.63285 0.51101 -0.22310
 C440 C 0.65420 0.52776 -0.21567
 C441 C 0.67110 0.52778 -0.24477
 C442 C 0.61466 0.51148 -0.19449
 C443 C 0.61700 0.51980 -0.14028
 C444 C 0.59995 0.52060 -0.11427
 C445 C 0.58016 0.51288 -0.14168
 C446 C 0.57771 0.50440 -0.19549
 C447 C 0.59479 0.50384 -0.22174
 H448 H 0.70231 0.54655 -0.32660
 H449 H 0.72985 0.54744 -0.38701
 H450 H 0.69880 0.47786 -0.37846
 H451 H 0.67199 0.47720 -0.31565
 H452 H 0.64190 0.48128 -0.31826
 H453 H 0.61277 0.48068 -0.26555
 H454 H 0.65785 0.54118 -0.18839
 H455 H 0.68732 0.54090 -0.23787
 H456 H 0.63193 0.52551 -0.11768
 H457 H 0.60221 0.52710 -0.07258
 H458 H 0.56267 0.49847 -0.21776
 H459 H 0.59249 0.49777 -0.26388
 C460 C 0.83003 0.31216 -0.31873
 C461 C 0.83224 0.29509 -0.33962
 C462 C 0.81635 0.27944 -0.37379
 C463 C 0.79807 0.28081 -0.38890
 C464 C 0.79571 0.29772 -0.36663
 C465 C 0.81145 0.31311 -0.33158
 C466 C 0.84763 0.32961 -0.28624
 C467 C 0.84340 0.33647 -0.23544
 C468 C 0.86007 0.35347 -0.20596
 C469 C 0.88109 0.36417 -0.22750
 C470 C 0.88529 0.35727 -0.27820
 C471 C 0.86875 0.34002 -0.30705
 C472 C 0.89859 0.38282 -0.19801
 C473 C 0.91134 0.40226 -0.22650
 C474 C 0.92815 0.41985 -0.19928
 C475 C 0.93278 0.41817 -0.14337
 C476 C 0.92000 0.39874 -0.11476
 C477 C 0.90288 0.38126 -0.14174
 H478 H 0.84641 0.29398 -0.32987
 H479 H 0.81880 0.26669 -0.38975
 H480 H 0.78186 0.29932 -0.37688
 H481 H 0.80947 0.32622 -0.31610
 H482 H 0.82723 0.32862 -0.21862
 H483 H 0.85648 0.35861 -0.16702
 H484 H 0.90141 0.36524 -0.29540
 H485 H 0.87234 0.33512 -0.34636
 H486 H 0.90820 0.40385 -0.26981
 H487 H 0.93776 0.43464 -0.22229
 H488 H 0.92321 0.39709 -0.07156
 H489 H 0.89326 0.36637 -0.11908
 C490 C 0.51226 -0.17316 -0.31493
 C491 C 0.49339 -0.19232 -0.32935
 C492 C 0.49418 -0.20726 -0.36518
 C493 C 0.51395 -0.20360 -0.38706
 C494 C 0.53294 -0.18484 -0.37074
 C495 C 0.53207 -0.16977 -0.33555
 C496 C 0.51123 -0.15635 -0.28075
 C497 C 0.52783 -0.14349 -0.24334
 C498 C 0.52751 -0.12675 -0.21423
 C499 C 0.51046 -0.12259 -0.22132
 C500 C 0.49353 -0.13590 -0.25737
 C501 C 0.49398 -0.15244 -0.28696
 C502 C 0.51065 -0.10402 -0.19283
 C503 C 0.50271 -0.09203 -0.22006
 C504 C 0.50318 -0.07437 -0.19406
 C505 C 0.51189 -0.06808 -0.14054
 C506 C 0.51984 -0.07997 -0.11309
 C507 C 0.51912 -0.09783 -0.13884
 H508 H 0.47790 -0.19574 -0.31325
 H509 H 0.47921 -0.22160 -0.37608
 H510 H 0.54849 -0.18136 -0.38655
 H511 H 0.54692 -0.15509 -0.32608
 H512 H 0.54120 -0.14623 -0.23675
 H513 H 0.54093 -0.11673 -0.18725
 H514 H 0.47992 -0.13346 -0.26313
 H515 H 0.48103 -0.16179 -0.31585
 H516 H 0.49649 -0.09599 -0.26204
 H517 H 0.49706 -0.06541 -0.21633
 H518 H 0.52650 -0.07553 -0.07158
 H519 H 0.52506 -0.10687 -0.11625
 C520 C 0.31555 0.49023 -0.31740
 C521 C 0.31570 0.50936 -0.33149
 C522 C 0.30015 0.50897 -0.36726
 C523 C 0.28380 0.48936 -0.38937
 C524 C 0.28314 0.47012 -0.37336
 C525 C 0.29890 0.47058 -0.33824
 C526 C 0.33321 0.49085 -0.28332
 C527 C 0.32917 0.47406 -0.24613
 C528 C 0.34604 0.47404 -0.21699
 C529 C 0.36736 0.49092 -0.22383
 C530 C 0.37129 0.50802 -0.25971
 C531 C 0.35449 0.50791 -0.28934
 C532 C 0.38552 0.49040 -0.19520
 C533 C 0.40546 0.49819 -0.22221
 C534 C 0.42247 0.49750 -0.19600
 C535 C 0.41989 0.48874 -0.14247
 C536 C 0.40004 0.48091 -0.11527
 C537 C 0.38306 0.48184 -0.14124
 H538 H 0.32796 0.52475 -0.31519
 H539 H 0.30112 0.52413 -0.37789
 H540 H 0.27085 0.45467 -0.38936
 H541 H 0.29839 0.45554 -0.32900
 H542 H 0.31296 0.46082 -0.23972
 H543 H 0.34239 0.46050 -0.19014
 H544 H 0.38743 0.52150 -0.26528
 H545 H 0.35833 0.52098 -0.31807
 H546 H 0.40785 0.50447 -0.26416
 H547 H 0.43757 0.50353 -0.21808
 H548 H 0.39768 0.47420 -0.07378
 H549 H 0.36807 0.47600 -0.11882
 C550 C 1.17287 0.68422 -0.31639
 C551 C 1.16995 0.70092 -0.33738
 C552 C 1.18526 0.71664 -0.37261
 C553 C 1.20378 0.71590 -0.38860
 C554 C 1.20697 0.69952 -0.36631
 C555 C 1.19181 0.68401 -0.33042
 C556 C 1.15580 0.66656 -0.28229
 C557 C 1.15155 0.64525 -0.28815
 C558 C 1.13482 0.62844 -0.25858
 C559 C 1.12164 0.63239 -0.22293
 C560 C 1.12612 0.65375 -0.21620
 C561 C 1.14305 0.67063 -0.24529
 C562 C 1.10291 0.61420 -0.19447
 C563 C 1.09672 0.61664 -0.14061
 C564 C 1.07879 0.59960 -0.11477
 C565 C 1.06684 0.57972 -0.14200
 C566 C 1.07309 0.57718 -0.19545
 C567 C 1.09080 0.59425 -0.22153
 H568 H 1.15547 0.70147 -0.32820
 H569 H 1.18215 0.72895 -0.38874
 H570 H 1.22111 0.69849 -0.37690
 H571 H 1.19488 0.67173 -0.31399
 H572 H 1.16078 0.64138 -0.31674
 H573 H 1.13215 0.61228 -0.26403
 H574 H 1.11621 0.65741 -0.18952
 H575 H 1.14605 0.68687 -0.23899
 H576 H 1.10583 0.63165 -0.11816
 H577 H 1.07438 0.60192 -0.07334
 H578 H 1.06408 0.56206 -0.21757
 H579 H 1.09475 0.59187 -0.26342
 C580 C 0.82569 0.51088 -0.31385
 C581 C 0.80580 0.49220 -0.32432
 C582 C 0.79086 0.49285 -0.36048
 C583 C 0.79538 0.51223 -0.38651
 C584 C 0.81494 0.53104 -0.37471
 C585 C 0.82996 0.53035 -0.33905
 C586 C 0.84235 0.50992 -0.27904
 C587 C 0.85610 0.52732 -0.24470
 C588 C 0.87279 0.52705 -0.21538
 C589 C 0.87606 0.50930 -0.21929
 C590 C 0.86186 0.49160 -0.25213
 C591 C 0.84530 0.49195 -0.28184
 C592 C 0.89467 0.50959 -0.19112
 C593 C 0.90596 0.50070 -0.21747
 C594 C 0.92382 0.50145 -0.19205
 C595 C 0.93097 0.51131 -0.13996
 C596 C 0.91971 0.52013 -0.11330
 C597 C 0.90169 0.51920 -0.13853
 H598 H 0.80180 0.47702 -0.30483
 H599 H 0.77585 0.47812 -0.36842
 H600 H 0.81895 0.54620 -0.39438
 H601 H 0.84522 0.54498 -0.33275
 H602 H 0.85409 0.54127 -0.24085
 H603 H 0.88352 0.54105 -0.19089
 H604 H 0.86365 0.47750 -0.25534
 H605 H 0.83520 0.47836 -0.30828
 H606 H 0.90130 0.49355 -0.25841
 H607 H 0.93225 0.49460 -0.21366
 H608 H 0.92481 0.52769 -0.07290
 H609 H 0.89320 0.52592 -0.11668
 C610 C 0.48707 0.31472 -0.31384
 C611 C 0.46764 0.29957 -0.33914
 C612 C 0.46694 0.28383 -0.37478
 C613 C 0.48571 0.28301 -0.38646
 C614 C 0.50505 0.29782 -0.36032
 C615 C 0.50570 0.31343 -0.32418
 C616 C 0.48806 0.33239 -0.27908
 C617 C 0.50606 0.35327 -0.28176
 C618 C 0.50644 0.37022 -0.25210
 C619 C 0.48874 0.36680 -0.21944
 C620 C 0.47095 0.34582 -0.21564
 C621 C 0.47065 0.32881 -0.24492
 C622 C 0.48851 0.38519 -0.19134
 C623 C 0.47884 0.38263 -0.13884
 C624 C 0.47802 0.39982 -0.11366
 C625 C 0.48699 0.41993 -0.14027
 C626 C 0.49688 0.42260 -0.19228
 C627 C 0.49754 0.40542 -0.21766
 H628 H 0.45305 0.30027 -0.33295
 H629 H 0.45181 0.27272 -0.39453
 H630 H 0.51975 0.29748 -0.36816
 H631 H 0.52085 0.32456 -0.30460
 H632 H 0.51966 0.35672 -0.30807
 H633 H 0.52057 0.38609 -0.25521
 H634 H 0.45696 0.34261 -0.19129
 H635 H 0.45667 0.31287 -0.24115
 H636 H 0.47202 0.36739 -0.11703
 H637 H 0.47042 0.39737 -0.07332
 H638 H 0.50385 0.43791 -0.21386
 H639 H 0.50473 0.40788 -0.25853
 C640 C 0.68573 0.17242 -0.31215
 C641 C 0.70062 0.16786 -0.33789
 C642 C 0.71641 0.18284 -0.37352
 C643 C 0.71756 0.20264 -0.38470
 C644 C 0.70304 0.20745 -0.35802
 C645 C 0.68738 0.19256 -0.32193
 C646 C 0.66796 0.15581 -0.27755
 C647 C 0.64723 0.15327 -0.28011
 C648 C 0.63017 0.13680 -0.25054
 C649 C 0.63333 0.12229 -0.21803
 C650 C 0.65417 0.12513 -0.21440
 C651 C 0.67128 0.14173 -0.24363
 C652 C 0.61484 0.10382 -0.18988
 C653 C 0.61729 0.09664 -0.13735
 C654 C 0.60003 0.07875 -0.11210
 C655 C 0.57993 0.06777 -0.13868
 C656 C 0.57735 0.07508 -0.19069
 C657 C 0.59462 0.09283 -0.21613
 H658 H 0.69964 0.15240 -0.33208
 H659 H 0.72729 0.17860 -0.39368
 H660 H 0.70364 0.22266 -0.36546
 H661 H 0.67645 0.19677 -0.30199
 H662 H 0.64399 0.16363 -0.30627
 H663 H 0.61443 0.13533 -0.25355
 H664 H 0.65717 0.11416 -0.19018
 H665 H 0.68709 0.14341 -0.24000
 H666 H 0.63253 0.10491 -0.11558
 H667 H 0.60240 0.07353 -0.07176
 H668 H 0.56205 0.06687 -0.21224
 H669 H 0.59223 0.09763 -0.25700
 C670 C 1.17325 0.48866 -0.31361
 C671 C 1.16929 0.46946 -0.33985
 C672 C 1.18458 0.46924 -0.37544
 C673 C 1.20410 0.48825 -0.38608
 C674 C 1.20833 0.50733 -0.35887
 C675 C 1.19314 0.50751 -0.32282
 C676 C 1.15630 0.48922 -0.27911
 C677 C 1.15328 0.50715 -0.28118
 C678 C 1.13656 0.50722 -0.25163
 C679 C 1.12225 0.48926 -0.21967
 C680 C 1.12554 0.47151 -0.21654
 C681 C 1.14241 0.47152 -0.24575
 C682 C 1.10353 0.48877 -0.19153
 C683 C 1.09640 0.47891 -0.13921
 C684 C 1.07839 0.47798 -0.11384
 C685 C 1.06725 0.48700 -0.14011
 C686 C 1.07446 0.49703 -0.19201
 C687 C 1.09231 0.49781 -0.21755
 H688 H 1.15405 0.45472 -0.33447
 H689 H 1.18079 0.45430 -0.39602
 H690 H 1.22332 0.52220 -0.36587
 H691 H 1.19692 0.52247 -0.30246
 H692 H 1.16348 0.52096 -0.30690
 H693 H 1.13474 0.52131 -0.25423
 H694 H 1.11474 0.45734 -0.19273
 H695 H 1.14445 0.45757 -0.24252
 H696 H 1.10483 0.47205 -0.11765
 H697 H 1.07324 0.47026 -0.07361
 H698 H 1.06611 0.50403 -0.21335
 H699 H 1.09706 0.50515 -0.25828
 C700 C 0.51824 0.68826 -0.31634
 C701 C 0.49861 0.68707 -0.32943
 C702 C 0.49810 0.70234 -0.36467
 C703 C 0.51729 0.71936 -0.38690
 C704 C 0.53702 0.72100 -0.37146
 C705 C 0.53744 0.70547 -0.33709
 C706 C 0.51856 0.67087 -0.28394
 C707 C 0.52944 0.66064 -0.30484
 C708 C 0.52880 0.64336 -0.27625
 C709 C 0.51760 0.63626 -0.22574
 C710 C 0.50713 0.64680 -0.20407
 C711 C 0.50741 0.66384 -0.23329
 C712 C 0.51645 0.61753 -0.19667
 C713 C 0.52222 0.61890 -0.14040
 C714 C 0.52182 0.60132 -0.11379
 C715 C 0.51519 0.58197 -0.14278
 C716 C 0.50897 0.58049 -0.19871
 C717 C 0.50980 0.59818 -0.22556
 H718 H 0.48359 0.67385 -0.31406
 H719 H 0.48260 0.70054 -0.37516
 H720 H 0.55216 0.73386 -0.38737
 H721 H 0.55277 0.70676 -0.32716
 H722 H 0.53798 0.66568 -0.34405
 H723 H 0.53706 0.63550 -0.29353
 H724 H 0.49833 0.64150 -0.16527
 H725 H 0.49894 0.67154 -0.21643
 H726 H 0.52745 0.63372 -0.11744
 H727 H 0.52661 0.60282 -0.07056
 H728 H 0.50382 0.56577 -0.22200
 H729 H 0.50513 0.59674 -0.26889
 C730 C 0.31413 -0.17364 -0.31408
 C731 C 0.29896 -0.16959 -0.34022
 C732 C 0.28334 -0.18489 -0.37562
 C733 C 0.28265 -0.20452 -0.38616
 C734 C 0.29744 -0.20883 -0.35904
 C735 C 0.31292 -0.19362 -0.32318
 C736 C 0.33173 -0.15670 -0.27972
 C737 C 0.35261 -0.15381 -0.28187
 C738 C 0.36947 -0.13713 -0.25233
 C739 C 0.36598 -0.12274 -0.22029
 C740 C 0.34502 -0.12590 -0.21714
 C741 C 0.32809 -0.14272 -0.24634
 C742 C 0.38427 -0.10411 -0.19200
 C743 C 0.38159 -0.09699 -0.13963
 C744 C 0.39872 -0.07907 -0.11409
 C745 C 0.41890 -0.06799 -0.14022
 C746 C 0.42169 -0.07519 -0.19215
 C747 C 0.40456 -0.09297 -0.21787
 H748 H 0.29958 -0.15428 -0.33491
 H749 H 0.27223 -0.18104 -0.39614
 H750 H 0.29720 -0.22389 -0.36596
 H751 H 0.32406 -0.19747 -0.30289
 H752 H 0.35610 -0.16408 -0.30762
 H753 H 0.38532 -0.13542 -0.25496
 H754 H 0.34176 -0.11503 -0.19328
 H755 H 0.31216 -0.14466 -0.24305
 H756 H 0.36629 -0.10537 -0.11816
 H757 H 0.39618 -0.07392 -0.07384
 H758 H 0.43705 -0.06689 -0.21338
 H759 H 0.40712 -0.09770 -0.25862
 C760 C 0.51273 -0.17276 0.31570
 C761 C 0.53214 -0.16814 0.34171
 C762 C 0.53298 -0.18309 0.37745
 C763 C 0.51438 -0.20294 0.38846
 C764 C 0.49507 -0.20780 0.36159
 C765 C 0.49428 -0.19292 0.32541
 C766 C 0.51156 -0.15621 0.28077
 C767 C 0.49334 -0.15371 0.28288
 C768 C 0.49274 -0.13730 0.25291
 C769 C 0.51042 -0.12284 0.22044
 C770 C 0.52845 -0.12564 0.21727
 C771 C 0.52898 -0.14216 0.24691
 C772 C 0.51037 -0.10444 0.19180
 C773 C 0.52007 -0.09735 0.13932
 C774 C 0.52069 -0.07952 0.11365
 C775 C 0.51150 -0.06850 0.13975
 C776 C 0.50153 -0.07573 0.19171
 C777 C 0.50106 -0.09342 0.21756
 H778 H 0.54658 -0.15267 0.33597
 H779 H 0.54807 -0.17882 0.39776
 H780 H 0.48050 -0.22303 0.36891
 H781 H 0.47916 -0.19718 0.30529
 H782 H 0.47972 -0.16405 0.30896
 H783 H 0.47844 -0.13586 0.25558
 H784 H 0.54243 -0.11469 0.19310
 H785 H 0.54314 -0.14382 0.24362
 H786 H 0.52710 -0.10565 0.11792
 H787 H 0.52834 -0.07436 0.07337
 H788 H 0.49439 -0.06749 0.21289
 H789 H 0.49382 -0.09815 0.25838
 C790 C 0.31523 0.48984 0.31331
 C791 C 0.31401 0.50858 0.32295
 C792 C 0.29858 0.50818 0.35919
 C793 C 0.28386 0.48899 0.38619
 C794 C 0.28458 0.47010 0.37519
 C795 C 0.30014 0.47054 0.33940
 C796 C 0.33274 0.49059 0.27845
 C797 C 0.32900 0.47302 0.24470
 C798 C 0.34587 0.47316 0.21518
 C799 C 0.36686 0.49094 0.21838
 C800 C 0.37044 0.50879 0.25072
 C801 C 0.35364 0.50858 0.28056
 C802 C 0.38510 0.49056 0.18996
 C803 C 0.40535 0.49954 0.21591
 C804 C 0.42240 0.49876 0.19021
 C805 C 0.41956 0.48880 0.13821
 C806 C 0.39941 0.47989 0.11196
 C807 C 0.38236 0.48082 0.13749
 H808 H 0.32510 0.52362 0.30275
 H809 H 0.29831 0.52297 0.36648
 H810 H 0.27354 0.45507 0.39559
 H811 H 0.30078 0.45588 0.33370
 H812 H 0.31305 0.45904 0.24141
 H813 H 0.34254 0.45906 0.19109
 H814 H 0.38632 0.52291 0.25339
 H815 H 0.35719 0.52230 0.30657
 H816 H 0.40795 0.50679 0.25674
 H817 H 0.43773 0.50568 0.21153
 H818 H 0.39683 0.47224 0.07165
 H819 H 0.36709 0.47403 0.11597
 C820 C 1.17260 0.68438 0.31373
 C821 C 1.16839 0.69940 0.34019
 C822 C 1.18353 0.71494 0.37603
 C823 C 1.20315 0.71569 0.38673
 C824 C 1.20761 0.70103 0.35938
 C825 C 1.19256 0.68562 0.32307
 C826 C 1.15582 0.66687 0.27882
 C827 C 1.15297 0.64598 0.28052
 C828 C 1.13638 0.62917 0.25063
 C829 C 1.12203 0.63274 0.21867
 C830 C 1.12517 0.65373 0.21586
 C831 C 1.14190 0.67061 0.24542
 C832 C 1.10341 0.61447 0.19027
 C833 C 1.09629 0.61724 0.13799
 C834 C 1.07833 0.60013 0.11245
 C835 C 1.06724 0.57990 0.13853
 C836 C 1.07446 0.57705 0.19036
 C837 C 1.09226 0.59415 0.21606
 H838 H 1.15308 0.69873 0.33473
 H839 H 1.17957 0.72594 0.39671
 H840 H 1.22267 0.70132 0.36642
 H841 H 1.19651 0.67460 0.30258
 H842 H 1.16319 0.64241 0.30625
 H843 H 1.13468 0.61329 0.25298
 H844 H 1.11434 0.65705 0.19205
 H845 H 1.14382 0.68656 0.24245
 H846 H 1.10467 0.63258 0.11661
 H847 H 1.07317 0.60272 0.07228
 H848 H 1.06616 0.56165 0.21155
 H849 H 1.09700 0.59152 0.25675
 C850 C 0.48227 0.16932 0.31903
 C851 C 0.46354 0.16558 0.34704
 C852 C 0.46373 0.18146 0.38107
 C853 C 0.48276 0.20133 0.38841
 C854 C 0.50138 0.20527 0.35925
 C855 C 0.50109 0.18946 0.32453
 C856 C 0.48246 0.15183 0.28677
 C857 C 0.49136 0.15561 0.23309
 C858 C 0.49186 0.13903 0.20352
 C859 C 0.48384 0.11856 0.22766
 C860 C 0.47494 0.11482 0.28129
 C861 C 0.47413 0.13124 0.31041
 C862 C 0.48494 0.10112 0.19760
 C863 C 0.49296 0.08919 0.22452
 C864 C 0.49343 0.07225 0.19713
 C865 C 0.48558 0.06670 0.14259
 C866 C 0.47773 0.07874 0.11540
 C867 C 0.47758 0.09595 0.14256
 H868 H 0.44879 0.15023 0.34306
 H869 H 0.44914 0.17792 0.40302
 H870 H 0.51626 0.22044 0.36399
 H871 H 0.51576 0.19266 0.30358
 H872 H 0.49782 0.17135 0.21400
 H873 H 0.49887 0.14229 0.16229
 H874 H 0.46853 0.09911 0.30057
 H875 H 0.46737 0.12799 0.35193
 H876 H 0.49891 0.09302 0.26679
 H877 H 0.49960 0.06325 0.21904
 H878 H 0.47167 0.07483 0.07324
 H879 H 0.47125 0.10489 0.12109
 C880 C 0.68528 0.51574 0.31893
 C881 C 0.70030 0.53450 0.34691
 C882 C 0.71598 0.53428 0.38092
 C883 C 0.71676 0.51521 0.38826
 C884 C 0.70205 0.49658 0.35914
 C885 C 0.68655 0.49689 0.32445
 C886 C 0.66763 0.51558 0.28668
 C887 C 0.66252 0.50672 0.23296
 C888 C 0.64551 0.50630 0.20334
 C889 C 0.63311 0.51436 0.22746
 C890 C 0.63825 0.52319 0.28116
 C891 C 0.65542 0.52393 0.31033
 C892 C 0.61468 0.51339 0.19729
 C893 C 0.59472 0.50541 0.22402
 C894 C 0.57742 0.50511 0.19655
 C895 C 0.57985 0.51309 0.14210
 C896 C 0.59975 0.52090 0.11508
 C897 C 0.61699 0.52088 0.14232
 H898 H 0.69974 0.54927 0.34292
 H899 H 0.72706 0.54889 0.40283
 H900 H 0.70230 0.48166 0.36390
 H901 H 0.67505 0.48220 0.30352
 H902 H 0.67177 0.50025 0.21386
 H903 H 0.64177 0.49933 0.16205
 H904 H 0.62900 0.52964 0.30043
 H905 H 0.65893 0.53067 0.35188
 H906 H 0.59251 0.49937 0.26623
 H907 H 0.56225 0.49897 0.21832
 H908 H 0.60201 0.52706 0.07300
 H909 H 0.63227 0.52719 0.12100
 C910 C 0.83041 0.31231 0.31858
 C911 C 0.81039 0.31115 0.32473
 C912 C 0.79466 0.29565 0.35962
 C913 C 0.79857 0.28083 0.38830
 C914 C 0.81830 0.28149 0.38028
 C915 C 0.83412 0.29718 0.34609
 C916 C 0.84785 0.33002 0.28627
 C917 C 0.86845 0.34220 0.30969
 C918 C 0.88480 0.35950 0.28059
 C919 C 0.88097 0.36478 0.22719
 C920 C 0.86049 0.35239 0.20325
 C921 C 0.84398 0.33526 0.23281
 C922 C 0.89832 0.38340 0.19718
 C923 C 0.90345 0.38130 0.14202
 C924 C 0.92056 0.39872 0.11485
 C925 C 0.93255 0.41861 0.14213
 C926 C 0.92705 0.42082 0.19679
 C927 C 0.91021 0.40334 0.22420
 H928 H 0.80723 0.32274 0.30417
 H929 H 0.77959 0.29549 0.36489
 H930 H 0.82181 0.27033 0.40188
 H931 H 0.84939 0.29767 0.34163
 H932 H 0.87176 0.33859 0.35104
 H933 H 0.90052 0.36875 0.29971
 H934 H 0.85717 0.35624 0.16220
 H935 H 0.82823 0.32604 0.21390
 H936 H 0.89454 0.36604 0.12048
 H937 H 0.92443 0.39663 0.07261
 H938 H 0.93601 0.43598 0.21876
 H939 H 0.90641 0.40538 0.26657
   
