data_POSCAR
  _audit_creation_date              2014-09-24
  _audit_creation_method            'ToBaCCo'
  _symmetry_space_group_name_H-M    'P1'
  _symmetry_Int_Tables_number       1
  _symmetry_cell_setting            triclinic
  loop_
  _symmetry_equiv_pos_as_xyz
 x,y,z
_cell_length_a 23.5998
_cell_length_b 24.1745
_cell_length_c 23.6371
_cell_angle_alpha 89.947100
_cell_angle_beta 90.294000
_cell_angle_gamma 89.910700
loop_
  _atom_site_label
  _atom_site_type_symbol
  _atom_site_fract_x
  _atom_site_fract_y
  _atom_site_fract_z
O1 O 0.43849 0.87861 -0.55643
 O2 O 0.55399 0.86856 -0.45107
 O3 O 0.44274 0.87128 -0.44764
 O4 O 0.54812 0.87316 -0.56182
 O5 O 0.55572 0.96378 -0.55342
 O6 O 0.44332 0.96249 -0.44589
 O7 O 0.55340 0.95931 -0.44280
 O8 O 0.44578 0.96965 -0.55524
 Cu9 Cu 0.49588 0.86369 -0.50453
 Cu10 Cu 0.50024 0.97290 -0.49873
 C11 C 0.42273 0.92592 -0.57406
 C12 C 0.57279 0.91241 -0.42794
 C13 C 0.42362 0.91665 -0.42848
 C14 C 0.56988 0.91873 -0.57717
 O15 O -0.56519 1.46384 -0.03330
 O16 O -0.46011 1.57503 -0.05215
 O17 O -0.45621 1.46774 -0.05909
 O18 O -0.56533 1.57206 -0.02828
 O19 O -0.54683 1.56473 0.06291
 O20 O -0.43535 1.46248 0.03195
 O21 O -0.43886 1.57012 0.03881
 O22 O -0.54139 1.45717 0.05670
 Cu23 Cu -0.51403 1.51952 -0.05241
 Cu24 Cu -0.48848 1.51323 0.05668
 C25 C -0.57115 1.44115 0.01492
 C26 C -0.43223 1.59213 -0.00955
 C27 C -0.42685 1.44768 -0.01882
 C28 C -0.57443 1.58688 0.02242
 O29 O 0.06288 0.46501 0.45806
 O30 O 0.03433 0.57972 0.55629
 O31 O 0.05058 0.47542 0.56680
 O32 O 0.04602 0.57209 0.44647
 O33 O -0.04549 0.55583 0.43557
 O34 O -0.04127 0.46046 0.55688
 O35 O -0.05751 0.56737 0.54482
 O36 O -0.02917 0.45150 0.44806
 Cu37 Cu 0.05775 0.52465 0.50747
 Cu38 Cu -0.05267 0.50751 0.49565
 C39 C 0.02162 0.43864 0.43639
 C40 C -0.01642 0.59294 0.56795
 C41 C 0.00535 0.45172 0.58250
 C42 C -0.00039 0.57989 0.42014
 O43 O -0.15041 0.99855 -0.06374
 O44 O 0.13874 1.02410 -0.08825
 O45 O -0.02307 1.07620 -0.15119
 O46 O -0.00037 0.92883 -0.13835
 O47 O 0.01575 0.86868 -0.06397
 O48 O -0.02429 1.14933 -0.08852
 O49 O 0.06510 1.00809 -0.15094
 O50 O -0.08752 0.99661 -0.13826
 Zr51 Zr -0.00773 1.00671 -0.09901
 O52 O 0.05287 0.96731 -0.05075
 O53 O -0.06067 1.05534 -0.05098
 C54 C -0.13809 0.99636 -0.11712
 C55 C 0.11817 1.01554 -0.13840
 C56 C -0.02782 1.12831 -0.13889
 C57 C 0.01056 0.88041 -0.11734
 H58 H 0.06001 1.08969 -0.08793
 O59 O 0.04097 1.06597 -0.05976
 H60 H -0.07146 0.92806 -0.06245
 O61 O -0.04848 0.95606 -0.04229
 O62 O 0.15198 1.03795 0.06298
 O63 O -0.13615 1.00340 0.08931
 O64 O 0.05916 1.16518 -0.01894
 O65 O 0.09277 0.88273 0.00391
 O66 O -0.05828 0.86706 0.02119
 O67 O -0.09297 1.14812 -0.00799
 O68 O 0.00653 1.10426 0.13727
 O69 O 0.02045 0.95563 0.15127
 O70 O -0.01043 1.16389 0.06270
 O71 O 0.02129 0.88219 0.08900
 O72 O 0.13594 1.10587 -0.01605
 O73 O -0.15266 1.07414 0.00770
 O74 O -0.13498 0.92638 0.01864
 O75 O 0.15289 0.95648 -0.01178
 O76 O 0.08917 1.03605 0.13752
 O77 O -0.06228 1.02047 0.15133
 Zr78 Zr 0.09928 1.02661 -0.00866
 Zr79 Zr -0.09795 1.00513 0.00863
 Zr80 Zr -0.01118 1.11212 -0.00889
 Zr81 Zr 0.01199 0.91958 0.00855
 Zr82 Zr 0.00938 1.02531 0.09860
 O83 O -0.03987 0.96566 0.05999
 O84 O 0.05008 1.07636 0.04210
 C85 C 0.13968 1.03906 0.11640
 C86 C -0.11512 1.01072 0.13963
 C87 C 0.11307 1.15457 -0.01990
 C88 C 0.14198 0.90413 -0.00633
 C89 C -0.11213 0.87775 0.02346
 C90 C -0.14252 1.12640 0.00045
 C91 C -0.00295 1.15297 0.11595
 C92 C 0.02355 0.90330 0.13949
 H93 H -0.07614 1.08701 0.07484
 O94 O -0.05143 1.06428 0.05050
 H95 H 0.09021 0.95708 0.07361
 O96 O 0.06149 0.97641 0.05027
 C97 C 0.37213 0.97639 0.34807
 C98 C 0.32706 0.98096 0.30929
 C99 C 0.28499 0.93934 0.30761
 C100 C 0.28956 0.89323 0.34332
 C101 C 0.33515 0.88845 0.38082
 C102 C 0.37637 0.93016 0.38403
 C103 C 0.23908 0.94431 0.27021
 C104 C 0.23536 0.98962 0.23338
 C105 C 0.27821 1.03044 0.23350
 C106 C 0.32350 1.02622 0.27205
 C107 C 0.27515 1.07438 0.19456
 C108 C 0.23010 1.07765 0.15585
 C109 C 0.18690 1.03796 0.15690
 C110 C 0.18972 0.99419 0.19569
 H111 H 0.40412 1.00848 0.34995
 H112 H 0.25784 0.86087 0.34228
 H113 H 0.33750 0.85263 0.40830
 H114 H 0.20649 0.91269 0.26941
 H115 H 0.35612 1.05776 0.27271
 H116 H 0.30784 1.10579 0.19366
 H117 H 0.22862 1.11129 0.12559
 H118 H 0.15707 0.96272 0.19520
 C119 C -0.34817 0.96167 0.37256
 C120 C -0.30982 0.96304 0.32737
 C121 C -0.31314 0.92244 0.28441
 C122 C -0.35354 0.88018 0.28837
 C123 C -0.39067 0.87841 0.33415
 C124 C -0.38880 0.91942 0.37618
 C125 C -0.27604 0.92465 0.23829
 C126 C -0.23472 0.96617 0.23525
 C127 C -0.23010 1.00562 0.27923
 C128 C -0.26813 1.00423 0.32461
 C129 C -0.18727 1.04570 0.27719
 C130 C -0.14941 1.04678 0.23200
 C131 C -0.15462 1.00868 0.18752
 C132 C -0.19751 0.96857 0.18918
 H133 H -0.34610 0.99314 0.40517
 H134 H -0.35646 0.84854 0.25605
 H135 H -0.42180 0.84559 0.33603
 H136 H -0.27908 0.89390 0.20502
 H137 H -0.26502 1.03492 0.35793
 H138 H -0.18289 1.07602 0.31066
 H139 H -0.11657 1.07804 0.23124
 H140 H -0.20109 0.93863 0.15520
 C141 C -0.36968 0.95694 -0.35486
 C142 C -0.32766 0.95450 -0.31276
 C143 C -0.29867 0.90429 -0.30237
 C144 C -0.31379 0.85685 -0.33299
 C145 C -0.35693 0.85917 -0.37378
 C146 C -0.38491 0.90939 -0.38587
 C147 C -0.25523 0.90237 -0.26152
 C148 C -0.24150 0.94977 -0.22999
 C149 C -0.27222 0.99939 -0.23900
 C150 C -0.31454 1.00158 -0.28073
 C151 C -0.25999 1.04622 -0.20620
 C152 C -0.21720 1.04424 -0.16530
 C153 C -0.18546 0.99583 -0.15733
 C154 C -0.19756 0.94858 -0.18959
 H155 H -0.39110 0.99595 -0.36270
 H156 H -0.29236 0.81786 -0.32530
 H157 H -0.36751 0.82171 -0.39661
 H158 H -0.23234 0.86407 -0.25414
 H159 H -0.33740 1.03990 -0.28813
 H160 H -0.28333 1.08441 -0.21233
 H161 H -0.20786 1.08096 -0.14071
 H162 H -0.17291 0.91118 -0.18312
 C163 C 0.35638 0.96619 -0.36433
 C164 C 0.31123 0.96623 -0.32596
 C165 C 0.28635 0.91561 -0.30935
 C166 C 0.30739 0.86580 -0.33120
 C167 C 0.35248 0.86611 -0.36932
 C168 C 0.37730 0.91623 -0.38643
 C169 C 0.24108 0.91561 -0.27105
 C170 C 0.22090 0.96558 -0.24862
 C171 C 0.24618 1.01618 -0.26500
 C172 C 0.29081 1.01617 -0.30386
 C173 C 0.22707 1.06598 -0.24139
 C174 C 0.18418 1.06562 -0.20098
 C175 C 0.15898 1.01571 -0.18469
 C176 C 0.17677 0.96580 -0.20898
 H177 H 0.37505 1.00516 -0.37711
 H178 H 0.28893 0.82661 -0.31890
 H179 H 0.36760 0.82702 -0.38578
 H180 H 0.22202 0.87678 -0.25825
 H181 H 0.31008 1.05499 -0.31640
 H182 H 0.24610 1.10504 -0.25327
 H183 H 0.17101 1.10425 -0.18184
 H184 H 0.15764 0.92723 -0.19552
 C185 C 0.34952 1.38499 -0.01997
 C186 C 0.31006 1.34224 -0.01172
 C187 C 0.31211 1.31047 0.03852
 C188 C 0.35197 1.32327 0.08052
 C189 C 0.38967 1.36703 0.07297
 C190 C 0.38960 1.39805 0.02242
 C191 C 0.27406 1.26664 0.04625
 C192 C 0.23265 1.25524 0.00520
 C193 C 0.22889 1.28848 -0.04400
 C194 C 0.26818 1.33119 -0.05257
 C195 C 0.18571 1.27843 -0.08372
 C196 C 0.14701 1.23558 -0.07500
 C197 C 0.15174 1.20147 -0.02721
 C198 C 0.19463 1.21130 0.01274
 H199 H 0.34807 1.40877 -0.05888
 H200 H 0.35379 1.29964 0.11947
 H201 H 0.41976 1.37570 0.10656
 H202 H 0.27633 1.24176 0.08443
 H203 H 0.26583 1.35611 -0.09070
 H204 H 0.18189 1.30367 -0.12147
 H205 H 0.11425 1.22809 -0.10628
 H206 H 0.19786 1.18510 0.04989
 C207 C 0.36440 0.66153 -0.01125
 C208 C 0.32601 0.70456 -0.00070
 C209 C 0.30569 0.71314 0.05474
 C210 C 0.32627 0.68013 0.09913
 C211 C 0.36655 0.63892 0.08873
 C212 C 0.38546 0.62848 0.03332
 C213 C 0.26546 0.75476 0.06487
 C214 C 0.24691 0.78912 0.02056
 C215 C 0.26970 0.78236 -0.03429
 C216 C 0.30832 0.73955 -0.04474
 C217 C 0.25317 0.81838 -0.07793
 C218 C 0.21343 0.85994 -0.06769
 C219 C 0.18882 0.86520 -0.01416
 C220 C 0.20573 0.83001 0.03001
 H221 H 0.37920 0.65509 -0.05411
 H222 H 0.31162 0.68650 0.14201
 H223 H 0.38193 0.61447 0.12406
 H224 H 0.24890 0.76063 0.10717
 H225 H 0.32487 0.73370 -0.08706
 H226 H 0.27053 0.81407 -0.12006
 H227 H 0.20024 0.88672 -0.10211
 H228 H 0.18658 0.83437 0.07138
 C229 C -0.34590 0.64477 0.02031
 C230 C -0.30891 0.68983 0.01441
 C231 C -0.31979 0.73029 -0.02759
 C232 C -0.36642 0.72412 -0.06398
 C233 C -0.40220 0.67851 -0.05868
 C234 C -0.39266 0.63884 -0.01621
 C235 C -0.28383 0.77610 -0.03272
 C236 C -0.23622 0.78128 0.00257
 C237 C -0.22420 0.73991 0.04332
 C238 C -0.26106 0.69485 0.04951
 C239 C -0.17518 0.74414 0.07686
 C240 C -0.13836 0.78882 0.06997
 C241 C -0.15074 0.83061 0.03059
 C242 C -0.19991 0.82685 -0.00279
 H243 H -0.33798 0.61400 0.05282
 H244 H -0.37518 0.75455 -0.09658
 H245 H -0.43814 0.67483 -0.08710
 H246 H -0.29257 0.80740 -0.06453
 H247 H -0.25221 0.66347 0.08119
 H248 H -0.16510 0.71271 0.10805
 H249 H -0.10063 0.79125 0.09601
 H250 H -0.20908 0.85873 -0.03385
 C251 C -0.37407 1.36191 0.00626
 C252 C -0.33105 1.32315 -0.00382
 C253 C -0.29450 1.33018 -0.05052
 C254 C -0.30334 1.37470 -0.08772
 C255 C -0.34747 1.41224 -0.07827
 C256 C -0.38240 1.40660 -0.03075
 C257 C -0.24982 1.29272 -0.05913
 C258 C -0.24224 1.24753 -0.02247
 C259 C -0.28059 1.23926 0.02262
 C260 C -0.32419 1.27747 0.03208
 C261 C -0.27459 1.19293 0.05779
 C262 C -0.23052 1.15548 0.04903
 C263 C -0.19100 1.16432 0.00580
 C264 C -0.19699 1.21040 -0.02999
 H265 H -0.40156 1.35705 0.04256
 H266 H -0.27612 1.38052 -0.12401
 H267 H -0.35340 1.44654 -0.10722
 H268 H -0.22112 1.29864 -0.09430
 H269 H -0.35287 1.27158 0.06730
 H270 H -0.30380 1.18579 0.09224
 H271 H -0.22625 1.12034 0.07724
 H272 H -0.16675 1.21701 -0.06371
 C273 C -0.00593 1.38337 0.35203
 C274 C 0.00300 1.33977 0.31409
 C275 C 0.04989 1.30398 0.32172
 C276 C 0.08815 1.31381 0.36625
 C277 C 0.07973 1.35838 0.40305
 C278 C 0.03223 1.39291 0.39664
 C279 C 0.05772 1.25922 0.28466
 C280 C 0.02009 1.25083 0.23924
 C281 C -0.02549 1.28812 0.23061
 C282 C -0.03415 1.33179 0.26846
 C283 C -0.06174 1.28128 0.18408
 C284 C -0.05323 1.23777 0.14643
 C285 C -0.00917 1.19964 0.15532
 C286 C 0.02734 1.20608 0.20196
 H287 H -0.04221 1.41046 0.34641
 H288 H 0.12457 1.28712 0.37257
 H289 H 0.10961 1.36517 0.43726
 H290 H 0.09321 1.23127 0.29091
 H291 H -0.06959 1.35981 0.26217
 H292 H -0.09663 1.30963 0.17672
 H293 H -0.08200 1.23313 0.11087
 H294 H 0.06169 1.17690 0.20858
 C295 C -0.02591 1.36587 -0.36780
 C296 C -0.02226 1.32907 -0.32191
 C297 C 0.01340 1.34190 -0.27542
 C298 C 0.04575 1.39044 -0.27619
 C299 C 0.04325 1.42583 -0.32278
 C300 C 0.00726 1.41405 -0.36862
 C301 C 0.01688 1.30566 -0.22929
 C302 C -0.01325 1.25578 -0.22980
 C303 C -0.04761 1.24197 -0.27689
 C304 C -0.05268 1.27918 -0.32227
 C305 C -0.07556 1.19075 -0.27807
 C306 C -0.06902 1.15339 -0.23326
 C307 C -0.03575 1.16740 -0.18603
 C308 C -0.00851 1.21890 -0.18431
 H309 H -0.05319 1.35635 -0.40352
 H310 H 0.07349 1.40070 -0.24107
 H311 H 0.06898 1.46291 -0.32273
 H312 H 0.04392 1.31575 -0.19349
 H313 H -0.07936 1.26888 -0.35824
 H314 H -0.10182 1.17931 -0.31391
 H315 H -0.09043 1.11382 -0.23514
 H316 H 0.01773 1.22959 -0.14819
 C317 C 0.01754 0.65615 -0.35885
 C318 C 0.00711 0.69658 -0.31766
 C319 C -0.04794 0.71890 -0.31187
 C320 C -0.09204 0.69888 -0.34610
 C321 C -0.08185 0.65690 -0.38544
 C322 C -0.02686 0.63536 -0.39279
 C323 C -0.05808 0.76033 -0.27156
 C324 C -0.01429 0.77819 -0.23558
 C325 C 0.04021 0.75403 -0.23984
 C326 C 0.05078 0.71415 -0.28148
 C327 C 0.08327 0.77004 -0.20218
 C328 C 0.07265 0.81000 -0.16098
 C329 C 0.01936 0.83538 -0.15776
 C330 C -0.02404 0.81960 -0.19512
 H331 H 0.06006 0.63962 -0.36300
 H332 H -0.13461 0.71518 -0.34194
 H333 H -0.11705 0.64195 -0.41072
 H334 H -0.10012 0.77810 -0.26770
 H335 H 0.09278 0.69627 -0.28523
 H336 H 0.12512 0.75172 -0.20462
 H337 H 0.10650 0.82228 -0.13253
 H338 H -0.06527 0.83928 -0.19231
 C339 C 0.02656 0.66745 0.37112
 C340 C 0.02281 0.70329 0.32443
 C341 C -0.00805 0.68691 0.27576
 C342 C -0.03589 0.63573 0.27522
 C343 C -0.03364 0.60128 0.32260
 C344 C -0.00216 0.61667 0.37057
 C345 C -0.01142 0.72225 0.22880
 C346 C 0.01374 0.77472 0.23065
 C347 C 0.04293 0.79192 0.27999
 C348 C 0.04826 0.75569 0.32613
 C349 C 0.06543 0.84550 0.28268
 C350 C 0.05852 0.88188 0.23720
 C351 C 0.03074 0.86474 0.18750
 C352 C 0.00903 0.81078 0.18433
 H353 H 0.05026 0.67967 0.40848
 H354 H -0.06001 0.62269 0.23846
 H355 H -0.05592 0.56214 0.32156
 H356 H -0.03467 0.70943 0.19133
 H357 H 0.07111 0.76870 0.36376
 H358 H 0.08757 0.85957 0.32026
 H359 H 0.07533 0.92336 0.24076
 H360 H -0.01283 0.79737 0.14636
   
