data_POSCAR
  _audit_creation_date              2014-09-24
  _audit_creation_method            'ToBaCCo'
  _symmetry_space_group_name_H-M    'P1'
  _symmetry_Int_Tables_number       1
  _symmetry_cell_setting            triclinic
  loop_
  _symmetry_equiv_pos_as_xyz
 x,y,z
_cell_length_a 61.0584
_cell_length_b 54.8465
_cell_length_c 32.0232
_cell_angle_alpha 90.035000
_cell_angle_beta 89.922500
_cell_angle_gamma 90.052900
loop_
  _atom_site_label
  _atom_site_type_symbol
  _atom_site_fract_x
  _atom_site_fract_y
  _atom_site_fract_z
C1 C 1.26620 0.22082 0.26018
 C2 C 1.24919 0.23591 0.24608
 C3 C 1.23025 0.22540 0.22931
 C4 C 1.22807 0.20003 0.22636
 C5 C 1.24514 0.18507 0.24087
 C6 C 1.26447 0.19509 0.25836
 C7 C 1.25085 0.26280 0.24981
 C8 C 1.26935 0.27533 0.23476
 C9 C 1.27093 0.30100 0.23798
 C10 C 1.25339 0.31359 0.25701
 C11 C 1.23490 0.30131 0.27228
 C12 C 1.23370 0.27592 0.26838
 H13 H 1.28086 0.22950 0.27190
 H14 H 1.21705 0.23709 0.21884
 H15 H 1.28256 0.26478 0.22132
 H16 H 1.21956 0.26627 0.28049
 H17 H 1.24277 0.16556 0.23960
 H18 H 1.25320 0.33330 0.25775
 C19 C 0.76720 -0.27321 0.27387
 C20 C 0.75014 -0.25965 0.25575
 C21 C 0.73132 -0.27174 0.24142
 C22 C 0.72950 -0.29713 0.24508
 C23 C 0.74663 -0.31036 0.26334
 C24 C 0.76573 -0.29878 0.27820
 C25 C 0.75215 -0.23279 0.25198
 C26 C 0.77157 -0.22245 0.23658
 C27 C 0.77406 -0.19705 0.23373
 C28 C 0.75672 -0.18192 0.24666
 C29 C 0.73713 -0.19193 0.26236
 C30 C 0.73496 -0.21745 0.26452
 H31 H 0.78112 -0.26339 0.28630
 H32 H 0.71819 -0.26142 0.22715
 H33 H 0.78464 -0.23431 0.22604
 H34 H 0.71996 -0.22543 0.27640
 H35 H 0.74542 -0.33003 0.26332
 H36 H 0.75877 -0.16231 0.24582
 C37 C 0.77060 0.22267 -0.23343
 C38 C 0.75143 0.23295 -0.24984
 C39 C 0.73430 0.21759 -0.26263
 C40 C 0.73630 0.19209 -0.25975
 C41 C 0.75561 0.18213 -0.24296
 C42 C 0.77284 0.19729 -0.22958
 C43 C 0.74958 0.25976 -0.25444
 C44 C 0.76663 0.27304 -0.27334
 C45 C 0.76522 0.29856 -0.27858
 C46 C 0.74626 0.31038 -0.26365
 C47 C 0.72917 0.29743 -0.24451
 C48 C 0.73088 0.27207 -0.24012
 H49 H 0.78389 0.23454 -0.22388
 H50 H 0.71949 0.22554 -0.27526
 H51 H 0.78047 0.26303 -0.28567
 H52 H 0.71776 0.26195 -0.22526
 H53 H 0.75730 0.16253 -0.24055
 H54 H 0.74514 0.33005 -0.26425
 C55 C 1.26716 -0.27516 -0.23087
 C56 C 1.24893 -0.26326 -0.24832
 C57 C 1.23163 -0.27714 -0.26469
 C58 C 1.23226 -0.30262 -0.26349
 C59 C 1.25044 -0.31423 -0.24584
 C60 C 1.26800 -0.30089 -0.22851
 C61 C 1.24719 -0.23631 -0.24742
 C62 C 1.26451 -0.22152 -0.26127
 C63 C 1.26249 -0.19594 -0.26137
 C64 C 1.24294 -0.18534 -0.24670
 C65 C 1.22553 -0.19993 -0.23241
 C66 C 1.22786 -0.22537 -0.23294
 H67 H 1.27984 -0.26411 -0.21674
 H68 H 1.21749 -0.26804 -0.27788
 H69 H 1.27948 -0.22997 -0.27227
 H70 H 1.21473 -0.23678 -0.22121
 H71 H 1.25111 -0.33391 -0.24751
 H72 H 1.24099 -0.16572 -0.24760
 C73 C 0.22826 0.27617 0.73980
 C74 C 0.23688 0.25426 0.75534
 C75 C 0.22266 0.23660 0.77215
 C76 C 0.19987 0.24098 0.77492
 C77 C 0.19182 0.26317 0.75886
 C78 C 0.20579 0.28078 0.74176
 C79 C 0.26093 0.25095 0.75707
 C80 C 0.27399 0.26979 0.77312
 C81 C 0.29698 0.26777 0.77505
 C82 C 0.30655 0.24588 0.76063
 C83 C 0.29369 0.22673 0.74458
 C84 C 0.27083 0.22939 0.74309
 H85 H 0.23915 0.28990 0.72704
 H86 H 0.22976 0.22036 0.78568
 H87 H 0.26578 0.28558 0.78594
 H88 H 0.26074 0.21480 0.73080
 H89 H 0.17439 0.26666 0.75777
 H90 H 0.32417 0.24404 0.75934
 C91 C 0.72730 0.77523 0.74115
 C92 C 0.73830 0.75385 0.75249
 C93 C 0.72647 0.73409 0.76845
 C94 C 0.70355 0.73508 0.77312
 C95 C 0.69278 0.75680 0.76121
 C96 C 0.70431 0.77709 0.74487
 C97 C 0.76230 0.75172 0.74693
 C98 C 0.77651 0.76979 0.76231
 C99 C 0.79928 0.76739 0.75740
 C100 C 0.80764 0.74688 0.73665
 C101 C 0.79368 0.72875 0.72107
 C102 C 0.77102 0.73120 0.72654
 H103 H 0.73696 0.79042 0.72997
 H104 H 0.73560 0.71832 0.77883
 H105 H 0.76988 0.78552 0.77841
 H106 H 0.76012 0.71733 0.71431
 H107 H 0.67511 0.75704 0.76097
 H108 H 0.82521 0.74456 0.73392
 C109 C 0.72540 0.26678 0.22876
 C110 C 0.73764 0.24700 0.24360
 C111 C 0.72686 0.22541 0.25508
 C112 C 0.70392 0.22363 0.25249
 C113 C 0.69192 0.24366 0.23740
 C114 C 0.70253 0.26533 0.22551
 C115 C 0.76162 0.24938 0.24838
 C116 C 0.77037 0.26983 0.26891
 C117 C 0.79305 0.27241 0.27384
 C118 C 0.80700 0.25452 0.25745
 C119 C 0.79860 0.23410 0.23651
 C120 C 0.77582 0.23153 0.23225
 H121 H 0.73382 0.28326 0.21919
 H122 H 0.73633 0.21016 0.26668
 H123 H 0.75948 0.28352 0.28178
 H124 H 0.76914 0.21583 0.21612
 H125 H 0.67420 0.24274 0.23639
 H126 H 0.82457 0.25696 0.25977
 C127 C 0.22179 0.76402 0.22910
 C128 C 0.23571 0.74613 0.24576
 C129 C 0.22683 0.72415 0.26065
 C130 C 0.20423 0.71940 0.25813
 C131 C 0.19067 0.73764 0.24123
 C132 C 0.19905 0.75985 0.22584
 C133 C 0.25980 0.74931 0.24442
 C134 C 0.26980 0.77079 0.25892
 C135 C 0.29273 0.77337 0.25772
 C136 C 0.30552 0.75421 0.24156
 C137 C 0.29572 0.73271 0.22681
 C138 C 0.27287 0.73051 0.22825
 H139 H 0.22907 0.78034 0.21614
 H140 H 0.23790 0.71036 0.27236
 H141 H 0.25974 0.78538 0.27127
 H142 H 0.26513 0.71424 0.21595
 H143 H 0.17312 0.73527 0.24306
 H144 H 0.32321 0.75573 0.24166
 O145 O 1.03862 -0.03417 0.07646
 O146 O 1.01952 -0.06159 0.03638
 C147 C 1.03377 -0.05625 0.06509
 O148 O 0.95999 0.03365 0.07057
 O149 O 0.98095 0.06087 0.03369
 C150 C 0.96521 0.05565 0.05953
 O151 O 0.96249 -0.03389 0.07677
 O152 O 0.98171 -0.06144 0.03717
 C153 C 0.96742 -0.05599 0.06583
 O154 O 1.04099 0.03356 0.07173
 O155 O 1.02065 0.06083 0.03375
 C156 C 1.03602 0.05557 0.06035
 Zr157 Zr 1.02806 -0.00026 0.05268
 O158 O 1.02798 0.00214 0.11867
 O159 O 1.06264 -0.00142 0.04993
 Zr160 Zr 0.97337 -0.00022 0.05282
 O161 O 0.97645 0.00155 0.11847
 O162 O 0.93885 -0.00263 0.05704
 O163 O 1.00066 -0.02226 0.06113
 O164 O 1.00070 0.02145 0.06006
 O165 O 1.04165 0.03293 -0.07117
 O166 O 1.02059 0.06049 -0.03521
 C167 C 1.03642 0.05503 -0.06074
 O168 O 0.96260 -0.03489 -0.07539
 O169 O 0.98170 -0.06196 -0.03473
 C170 C 0.96746 -0.05686 -0.06357
 O171 O 0.96050 0.03290 -0.07271
 O172 O 0.98079 0.06052 -0.03527
 C173 C 0.96545 0.05500 -0.06179
 O174 O 1.03886 -0.03460 -0.07590
 O175 O 1.01948 -0.06177 -0.03575
 C176 C 1.03378 -0.05660 -0.06455
 Zr177 Zr 1.02806 -0.00072 -0.05272
 O178 O 1.02527 0.00041 -0.11846
 O179 O 1.06263 -0.00263 -0.05559
 Zr180 Zr 0.97341 -0.00076 -0.05290
 O181 O 0.97482 0.00130 -0.11888
 O182 O 0.93884 -0.00336 -0.05495
 Zr183 Zr 1.00064 -0.03714 0.00046
 Zr184 Zr 1.00069 0.03627 -0.00047
 O185 O 1.00079 0.02090 -0.06065
 O186 O 1.00075 -0.02286 -0.06061
 O187 O 1.03240 0.02117 -0.00022
 O188 O 0.96916 -0.02155 0.00029
 O189 O 1.03217 -0.02170 0.00023
 O190 O 0.96894 0.02111 -0.00035
 H191 H 1.00067 0.03277 0.08420
 H192 H 0.95604 -0.03220 0.00057
 H193 H 1.00090 0.03205 -0.08500
 H194 H 1.04522 -0.03242 0.00021
 H195 H 0.93278 0.00737 0.03417
 H196 H 0.93290 0.00907 -0.03564
 H197 H 0.98413 -0.01230 -0.12878
 H198 H 1.04045 0.00057 -0.12943
 H199 H 1.06819 0.00489 -0.02959
 H200 H 1.06784 -0.00143 0.07924
 H201 H 1.01725 -0.00996 0.12909
 H202 H 0.96132 0.00172 0.12966
 O203 O 1.02993 0.54235 0.57492
 O204 O 1.05411 0.52027 0.53512
 C205 C 1.04967 0.53636 0.56365
 O206 O 0.96887 0.45445 0.57028
 O207 O 0.94477 0.47794 0.53316
 C208 C 0.94919 0.46043 0.55904
 O209 O 1.03005 0.45764 0.57562
 O210 O 1.05417 0.47944 0.53537
 C211 C 1.04978 0.46369 0.56432
 O212 O 0.96850 0.54470 0.57003
 O213 O 0.94446 0.52102 0.53273
 C214 C 0.94880 0.53841 0.55891
 Zr215 Zr 0.99933 0.53072 0.55114
 O216 O 0.99737 0.53204 0.61708
 O217 O 1.00030 0.56911 0.54587
 Zr218 Zr 0.99936 0.46940 0.55226
 O219 O 0.99794 0.47318 0.61787
 O220 O 1.00149 0.43102 0.55725
 O221 O 1.01895 0.50004 0.55988
 O222 O 0.98007 0.50004 0.55922
 O223 O 0.96941 0.54476 0.42651
 O224 O 0.94505 0.52154 0.46384
 C225 C 0.94965 0.53888 0.43767
 O226 O 1.03011 0.45626 0.42426
 O227 O 1.05422 0.47854 0.46373
 C228 C 1.04982 0.46221 0.43564
 O229 O 0.96856 0.45473 0.42753
 O230 O 0.94453 0.47851 0.46452
 C231 C 0.94887 0.46111 0.43844
 O232 O 1.03066 0.54133 0.42208
 O233 O 1.05444 0.51936 0.46258
 C234 C 1.05030 0.53507 0.43347
 Zr235 Zr 0.99977 0.53025 0.44594
 O236 O 0.99764 0.53116 0.38001
 O237 O 1.00111 0.56869 0.45038
 Zr238 Zr 0.99939 0.46877 0.44632
 O239 O 0.99711 0.46980 0.38036
 O240 O 1.00150 0.43026 0.44473
 Zr241 Zr 1.03207 0.49954 0.49902
 Zr242 Zr 0.96680 0.49973 0.49870
 O243 O 0.98044 0.49958 0.43838
 O244 O 1.01919 0.49934 0.43798
 O245 O 0.98004 0.53518 0.49834
 O246 O 1.01823 0.46440 0.49947
 O247 O 1.01874 0.53483 0.49861
 O248 O 0.98001 0.46423 0.49927
 H249 H 0.96993 0.50006 0.58341
 H250 H 1.02786 0.44987 0.49998
 H251 H 0.97045 0.49964 0.41402
 H252 H 1.02873 0.54908 0.49837
 H253 H 0.99329 0.42415 0.53339
 H254 H 0.98994 0.42379 0.46335
 H255 H 1.01067 0.47744 0.36958
 H256 H 1.00846 0.51935 0.36912
 H257 H 1.00156 0.57483 0.42130
 H258 H 1.00026 0.57549 0.57484
 H259 H 1.00699 0.51898 0.62784
 H260 H 0.99794 0.45639 0.62926
 O261 O 0.52959 0.04305 0.57512
 O262 O 0.55369 0.02081 0.53545
 C263 C 0.54933 0.03695 0.56394
 O264 O 0.46782 -0.04466 0.57199
 O265 O 0.44350 -0.02116 0.53515
 C266 C 0.44802 -0.03849 0.56136
 O267 O 0.52917 -0.04212 0.57698
 O268 O 0.55348 -0.02059 0.53661
 C269 C 0.54894 -0.03632 0.56567
 O270 O 0.46829 0.04568 0.57107
 O271 O 0.44394 0.02201 0.53458
 C272 C 0.44851 0.03954 0.56045
 Zr273 Zr 0.49877 0.03117 0.55208
 O274 O 0.49684 0.03200 0.61808
 O275 O 0.49991 0.06962 0.54802
 Zr276 Zr 0.49861 -0.02997 0.55409
 O277 O 0.49763 -0.02513 0.61952
 O278 O 0.49929 -0.06824 0.56190
 O279 O 0.51842 0.00062 0.56106
 O280 O 0.47936 0.00063 0.56076
 O281 O 0.46809 0.04469 0.42778
 O282 O 0.44393 0.02124 0.46510
 C283 C 0.44835 0.03851 0.43867
 O284 O 0.52956 -0.04350 0.42571
 O285 O 0.55366 -0.02087 0.46461
 C286 C 0.54930 -0.03723 0.43652
 O287 O 0.46823 -0.04577 0.42951
 O288 O 0.44391 -0.02228 0.46636
 C289 C 0.44847 -0.03974 0.44038
 O290 O 0.52920 0.04193 0.42310
 O291 O 0.55351 0.02038 0.46324
 C292 C 0.54897 0.03608 0.43416
 Zr293 Zr 0.49858 0.03009 0.44659
 O294 O 0.49596 0.02826 0.38073
 O295 O 0.50053 0.06857 0.44428
 Zr296 Zr 0.49876 -0.03120 0.44823
 O297 O 0.49634 -0.03063 0.38227
 O298 O 0.50092 -0.06972 0.44779
 Zr299 Zr 0.53142 -0.00003 0.50007
 Zr300 Zr 0.46588 -0.00014 0.50039
 O301 O 0.47941 -0.00068 0.43994
 O302 O 0.51837 -0.00059 0.43914
 O303 O 0.47918 0.03531 0.49938
 O304 O 0.51762 -0.03518 0.50126
 O305 O 0.51773 0.03515 0.49913
 O306 O 0.47933 -0.03555 0.50132
 H307 H 0.46925 0.00082 0.58500
 H308 H 0.52738 -0.04959 0.50153
 H309 H 0.46930 -0.00088 0.41575
 H310 H 0.52752 0.04957 0.49877
 H311 H 0.50212 -0.07537 0.53410
 H312 H 0.48965 -0.07598 0.46728
 H313 H 0.50959 -0.02247 0.37127
 H314 H 0.50908 0.01970 0.37008
 H315 H 0.49236 0.07483 0.46873
 H316 H 0.50005 0.07573 0.57716
 H317 H 0.50784 0.02034 0.62878
 H318 H 0.49693 -0.04172 0.63164
 O319 O 0.53270 0.54319 0.07580
 O320 O 0.55707 0.52158 0.03577
 C321 C 0.55247 0.53753 0.06445
 O322 O 0.47166 0.45541 0.06993
 O323 O 0.44731 0.47887 0.03328
 C324 C 0.45191 0.46130 0.05897
 O325 O 0.53263 0.45830 0.07499
 O326 O 0.55712 0.47984 0.03498
 C327 C 0.55243 0.46390 0.06363
 O328 O 0.47175 0.54579 0.07118
 O329 O 0.44734 0.52271 0.03374
 C330 C 0.45199 0.53998 0.06007
 Zr331 Zr 0.50218 0.53140 0.05208
 O332 O 0.50009 0.53127 0.11807
 O333 O 0.50330 0.56990 0.04956
 Zr334 Zr 0.50212 0.47037 0.05192
 O335 O 0.50078 0.47375 0.11760
 O336 O 0.50426 0.43194 0.05600
 O337 O 0.52190 0.50082 0.06019
 O338 O 0.48275 0.50084 0.05950
 O339 O 0.47210 0.54681 -0.07109
 O340 O 0.44754 0.52305 -0.03520
 C341 C 0.45229 0.54083 -0.06045
 O342 O 0.53301 0.45814 -0.07608
 O343 O 0.55730 0.48020 -0.03661
 C344 C 0.55276 0.46397 -0.06486
 O345 O 0.47195 0.45582 -0.07262
 O346 O 0.44743 0.47902 -0.03567
 C347 C 0.45216 0.46165 -0.06175
 O348 O 0.53303 0.54382 -0.07594
 O349 O 0.55725 0.52168 -0.03658
 C350 C 0.55276 0.53789 -0.06484
 Zr351 Zr 0.50240 0.53153 -0.05340
 O352 O 0.49986 0.52998 -0.11931
 O353 O 0.50440 0.57001 -0.05543
 Zr354 Zr 0.50233 0.47053 -0.05391
 O355 O 0.49994 0.47275 -0.11979
 O356 O 0.50458 0.43210 -0.05767
 Zr357 Zr 0.53506 0.50085 -0.00065
 Zr358 Zr 0.46934 0.50088 -0.00093
 O359 O 0.48298 0.50107 -0.06129
 O360 O 0.52218 0.50102 -0.06174
 O361 O 0.48285 0.53624 -0.00065
 O362 O 0.52109 0.46576 -0.00090
 O363 O 0.52133 0.53600 -0.00050
 O364 O 0.48285 0.46551 -0.00112
 H365 H 0.47262 0.50077 0.08371
 H366 H 0.53062 0.45116 -0.00082
 H367 H 0.47282 0.50120 -0.08541
 H368 H 0.53103 0.55049 -0.00031
 H369 H 0.49503 0.42516 0.03349
 H370 H 0.49453 0.42531 -0.03642
 H371 H 0.51381 0.47974 -0.13043
 H372 H 0.51335 0.52225 -0.13015
 H373 H 0.49729 0.57613 -0.02969
 H374 H 0.50327 0.57566 0.07890
 H375 H 0.51094 0.51931 0.12837
 H376 H 0.50071 0.45689 0.12869
 C377 C 1.17837 0.18952 0.15720
 C378 C 1.16854 0.16947 0.17671
 C379 C 1.17825 0.15927 0.21223
 C380 C 1.19766 0.16908 0.22826
 C381 C 1.20765 0.18926 0.20894
 C382 C 1.19778 0.19937 0.17320
 C383 C 1.14871 0.15900 0.16008
 C384 C 1.13231 0.14952 0.14670
 C385 C 1.11348 0.13728 0.13182
 C386 C 1.09794 0.12556 0.12002
 C387 C 1.08029 0.10976 0.10731
 C388 C 1.07718 0.08785 0.12877
 C389 C 1.06196 0.07083 0.11451
 C390 C 1.04949 0.07541 0.07844
 C391 C 1.05187 0.09800 0.05811
 C392 C 1.06733 0.11504 0.07233
 H393 H 1.17109 0.19749 0.12957
 H394 H 1.17080 0.14374 0.22760
 H395 H 1.20465 0.16112 0.25615
 H396 H 1.20520 0.21475 0.15737
 H397 H 1.08708 0.08354 0.15584
 H398 H 1.06044 0.05371 0.13112
 H399 H 1.04253 0.10202 0.03029
 H400 H 1.06962 0.13194 0.05537
 C401 C 1.18745 0.67347 0.66530
 C402 C 1.18046 0.65287 0.68746
 C403 C 1.18988 0.64732 0.72605
 C404 C 1.20646 0.66206 0.74223
 C405 C 1.21389 0.68257 0.71995
 C406 C 1.20406 0.68830 0.68149
 C407 C 1.16383 0.63712 0.67066
 C408 C 1.14997 0.62358 0.65731
 C409 C 1.13370 0.60758 0.64233
 C410 C 1.11962 0.59404 0.62986
 C411 C 1.10245 0.57829 0.61514
 C412 C 1.10671 0.56091 0.58418
 C413 C 1.08967 0.54660 0.56833
 C414 C 1.06813 0.54961 0.58323
 C415 C 1.06418 0.56671 0.61515
 C416 C 1.08123 0.58094 0.63094
 H417 H 1.18023 0.67791 0.63536
 H418 H 1.18451 0.63149 0.74354
 H419 H 1.21349 0.65743 0.77222
 H420 H 1.20958 0.70387 0.66354
 H421 H 1.12310 0.55872 0.57175
 H422 H 1.09327 0.53367 0.54369
 H423 H 1.04782 0.56950 0.62738
 H424 H 1.07778 0.59433 0.65496
 C425 C 0.69562 0.13965 0.73240
 C426 C 0.68476 0.14524 0.69512
 C427 C 0.69071 0.16614 0.67273
 C428 C 0.70740 0.18137 0.68745
 C429 C 0.71843 0.17593 0.72488
 C430 C 0.71235 0.15486 0.74718
 C431 C 0.66749 0.12966 0.67976
 C432 C 0.65296 0.11688 0.66649
 C433 C 0.63581 0.10223 0.65052
 C434 C 0.62104 0.09003 0.63660
 C435 C 0.60319 0.07589 0.61964
 C436 C 0.60715 0.05817 0.58905
 C437 C 0.58970 0.04517 0.57144
 C438 C 0.56799 0.04975 0.58415
 C439 C 0.56424 0.06738 0.61534
 C440 C 0.58171 0.08033 0.63289
 H441 H 0.69113 0.12358 0.75010
 H442 H 0.68249 0.17064 0.64378
 H443 H 0.71189 0.19722 0.66919
 H444 H 0.72033 0.15031 0.77631
 H445 H 0.62369 0.05459 0.57845
 H446 H 0.59322 0.03179 0.54747
 H447 H 0.54778 0.07141 0.62590
 H448 H 0.57842 0.09401 0.65648
 C449 C 0.68451 0.65585 0.23432
 C450 C 0.67725 0.66014 0.19359
 C451 C 0.68592 0.67966 0.17069
 C452 C 0.70231 0.69437 0.18807
 C453 C 0.71025 0.68955 0.22843
 C454 C 0.70087 0.67045 0.25166
 C455 C 0.66160 0.64378 0.17508
 C456 C 0.64867 0.62954 0.16044
 C457 C 0.63351 0.61258 0.14425
 C458 C 0.62028 0.59819 0.13111
 C459 C 0.60387 0.58150 0.11614
 C460 C 0.58282 0.58230 0.13325
 C461 C 0.56633 0.56729 0.11744
 C462 C 0.57065 0.55120 0.08417
 C463 C 0.59208 0.54994 0.06800
 C464 C 0.60858 0.56507 0.08386
 H465 H 0.67786 0.64086 0.25238
 H466 H 0.68041 0.68313 0.13911
 H467 H 0.70940 0.70882 0.16938
 H468 H 0.70654 0.66651 0.28297
 H469 H 0.57901 0.59490 0.15831
 H470 H 0.55006 0.56872 0.13073
 H471 H 0.59595 0.53782 0.04234
 H472 H 0.62486 0.56430 0.07043
 C473 C 0.81420 -0.15661 0.17496
 C474 C 0.83430 -0.16695 0.18621
 C475 C 0.83474 -0.18699 0.21323
 C476 C 0.81517 -0.19669 0.22883
 C477 C 0.79486 -0.18647 0.21761
 C478 C 0.79461 -0.16628 0.19054
 C479 C 0.85447 -0.15662 0.17076
 C480 C 0.87115 -0.14740 0.15809
 C481 C 0.89031 -0.13562 0.14362
 C482 C 0.90614 -0.12442 0.13170
 C483 C 0.92413 -0.10934 0.11811
 C484 C 0.93599 -0.11490 0.08180
 C485 C 0.95136 -0.09825 0.06602
 C486 C 0.95475 -0.07575 0.08613
 C487 C 0.94358 -0.07098 0.12372
 C488 C 0.92842 -0.08765 0.13954
 H489 H 0.81366 -0.14107 0.15412
 H490 H 0.85019 -0.19504 0.22241
 H491 H 0.81596 -0.21201 0.25008
 H492 H 0.77925 -0.15818 0.18095
 H493 H 0.93275 -0.13162 0.06485
 H494 H 0.95965 -0.10238 0.03699
 H495 H 0.94591 -0.05390 0.14013
 H496 H 0.91938 -0.08312 0.16763
 C497 C 0.82133 0.31841 0.68732
 C498 C 0.81668 0.34091 0.66889
 C499 C 0.79504 0.34887 0.66616
 C500 C 0.77810 0.33473 0.68262
 C501 C 0.78241 0.31220 0.70252
 C502 C 0.80441 0.30411 0.70379
 C503 C 0.83406 0.35633 0.65393
 C504 C 0.84837 0.36973 0.64186
 C505 C 0.86499 0.38572 0.62818
 C506 C 0.87925 0.39939 0.61682
 C507 C 0.89651 0.41549 0.60356
 C508 C 0.89226 0.43424 0.57507
 C509 C 0.90927 0.44934 0.56132
 C510 C 0.93079 0.44579 0.57585
 C511 C 0.93477 0.42712 0.60503
 C512 C 0.91775 0.41211 0.61875
 H513 H 0.83810 0.31213 0.68975
 H514 H 0.79123 0.36615 0.65148
 H515 H 0.76159 0.34142 0.67856
 H516 H 0.80894 0.28740 0.71945
 H517 H 0.87585 0.43701 0.56313
 H518 H 0.90564 0.46347 0.53879
 H519 H 0.95111 0.42385 0.61688
 H520 H 0.92121 0.39767 0.64085
 C521 C 0.30880 -0.17218 0.67033
 C522 C 0.31406 -0.15024 0.69033
 C523 C 0.30264 -0.14336 0.72640
 C524 C 0.28599 -0.15826 0.74228
 C525 C 0.28051 -0.18031 0.72230
 C526 C 0.29217 -0.18711 0.68617
 C527 C 0.33115 -0.13481 0.67380
 C528 C 0.34549 -0.12199 0.65989
 C529 C 0.36240 -0.10714 0.64355
 C530 C 0.37700 -0.09467 0.62965
 C531 C 0.39468 -0.08009 0.61315
 C532 C 0.39050 -0.06166 0.58400
 C533 C 0.40779 -0.04789 0.56748
 C534 C 0.42954 -0.05242 0.57986
 C535 C 0.43350 -0.07089 0.60942
 C536 C 0.41621 -0.08459 0.62589
 H537 H 0.31749 -0.17768 0.64235
 H538 H 0.30660 -0.12647 0.74224
 H539 H 0.27751 -0.15264 0.77040
 H540 H 0.28816 -0.20377 0.66970
 H541 H 0.37391 -0.05802 0.57383
 H542 H 0.40411 -0.03387 0.54475
 H543 H 0.45000 -0.07492 0.61969
 H544 H 0.41966 -0.09881 0.64840
 C545 C 0.31172 0.35101 0.22009
 C546 C 0.32313 0.34223 0.18546
 C547 C 0.31820 0.31914 0.16949
 C548 C 0.30147 0.30512 0.18745
 C549 C 0.28913 0.31411 0.22158
 C550 C 0.29501 0.33717 0.23804
 C551 C 0.33959 0.35732 0.16625
 C552 C 0.35318 0.37060 0.15106
 C553 C 0.36907 0.38654 0.13431
 C554 C 0.38288 0.40017 0.12089
 C555 C 0.39989 0.41611 0.10591
 C556 C 0.39510 0.43526 0.07849
 C557 C 0.41191 0.45040 0.06378
 C558 C 0.43372 0.44648 0.07628
 C559 C 0.43823 0.42735 0.10429
 C560 C 0.42146 0.41233 0.11894
 H561 H 0.31565 0.36870 0.23318
 H562 H 0.32698 0.31216 0.14260
 H563 H 0.29757 0.28791 0.17275
 H564 H 0.28713 0.34455 0.26554
 H565 H 0.37843 0.43839 0.06829
 H566 H 0.40785 0.46495 0.04230
 H567 H 0.45480 0.42375 0.11463
 H568 H 0.42534 0.39761 0.14024
 C569 C 0.82236 0.15635 -0.21430
 C570 C 0.83252 0.16729 -0.17988
 C571 C 0.82309 0.18792 -0.16146
 C572 C 0.80364 0.19760 -0.17747
 C573 C 0.79332 0.18675 -0.21214
 C574 C 0.80290 0.16598 -0.23034
 C575 C 0.85241 0.15703 -0.16323
 C576 C 0.86886 0.14774 -0.14979
 C577 C 0.88775 0.13572 -0.13479
 C578 C 0.90336 0.12419 -0.12283
 C579 C 0.92108 0.10861 -0.10986
 C580 C 0.93397 0.11420 -0.07492
 C581 C 0.94949 0.09736 -0.06037
 C582 C 0.95198 0.07466 -0.08033
 C583 C 0.93959 0.06978 -0.11641
 C584 C 0.92432 0.08660 -0.13099
 H585 H 0.82950 0.14036 -0.22881
 H586 H 0.83072 0.19647 -0.13466
 H587 H 0.79653 0.21341 -0.16244
 H588 H 0.79555 0.15740 -0.25736
 H589 H 0.93158 0.13117 -0.05822
 H590 H 0.95876 0.10161 -0.03254
 H591 H 0.94121 0.05257 -0.13274
 H592 H 0.91447 0.08206 -0.15804
 C593 C 0.82196 0.68096 0.31036
 C594 C 0.81736 0.65825 0.32811
 C595 C 0.79572 0.65023 0.33095
 C596 C 0.77873 0.66454 0.31531
 C597 C 0.78298 0.68733 0.29616
 C598 C 0.80499 0.69543 0.29470
 C599 C 0.83478 0.64275 0.34245
 C600 C 0.84912 0.62932 0.35410
 C601 C 0.86575 0.61332 0.36744
 C602 C 0.88000 0.59964 0.37868
 C603 C 0.89719 0.58354 0.39202
 C604 C 0.91851 0.58696 0.37712
 C605 C 0.93547 0.57201 0.39115
 C606 C 0.93134 0.55338 0.42036
 C607 C 0.90974 0.54977 0.43454
 C608 C 0.89279 0.56479 0.42047
 H609 H 0.83872 0.68729 0.30784
 H610 H 0.79195 0.63279 0.34513
 H611 H 0.76223 0.65780 0.31948
 H612 H 0.80949 0.71232 0.27953
 H613 H 0.92208 0.60140 0.35505
 H614 H 0.95188 0.57533 0.37958
 H615 H 0.90598 0.53566 0.45708
 H616 H 0.87633 0.56199 0.43219
 C617 C 0.30077 0.14061 0.27573
 C618 C 0.31469 0.14916 0.30708
 C619 C 0.31219 0.17293 0.32201
 C620 C 0.29584 0.18808 0.30590
 C621 C 0.28142 0.17979 0.27427
 C622 C 0.28435 0.15565 0.25950
 C623 C 0.33155 0.13362 0.32398
 C624 C 0.34576 0.12080 0.33828
 C625 C 0.36258 0.10605 0.35508
 C626 C 0.37714 0.09373 0.36936
 C627 C 0.39486 0.07940 0.38622
 C628 C 0.41639 0.08400 0.37342
 C629 C 0.43373 0.07055 0.39016
 C630 C 0.42981 0.05223 0.42005
 C631 C 0.40807 0.04762 0.43255
 C632 C 0.39073 0.06114 0.41576
 H633 H 0.30267 0.12229 0.26357
 H634 H 0.32278 0.17973 0.34653
 H635 H 0.29409 0.20589 0.31996
 H636 H 0.27461 0.14838 0.23423
 H637 H 0.41980 0.09810 0.35063
 H638 H 0.45021 0.07465 0.37980
 H639 H 0.40444 0.03372 0.45556
 H640 H 0.37414 0.05743 0.42600
 C641 C 0.29992 0.65040 -0.17392
 C642 C 0.32091 0.66039 -0.17362
 C643 C 0.32440 0.68376 -0.18981
 C644 C 0.30695 0.69690 -0.20709
 C645 C 0.28568 0.68669 -0.20901
 C646 C 0.28252 0.66332 -0.19120
 C647 C 0.33877 0.64602 -0.15786
 C648 C 0.35319 0.63303 -0.14509
 C649 C 0.36966 0.61713 -0.13067
 C650 C 0.38367 0.60333 -0.11880
 C651 C 0.40060 0.58697 -0.10514
 C652 C 0.42211 0.59056 -0.11877
 C653 C 0.43879 0.57517 -0.10500
 C654 C 0.43420 0.55587 -0.07731
 C655 C 0.41242 0.55211 -0.06436
 C656 C 0.39573 0.56761 -0.07817
 H657 H 0.29697 0.63244 -0.16095
 H658 H 0.34067 0.69165 -0.18982
 H659 H 0.31056 0.71446 -0.22081
 H660 H 0.26648 0.65501 -0.18933
 H661 H 0.42605 0.60543 -0.13974
 H662 H 0.45534 0.57864 -0.11565
 H663 H 0.40831 0.53745 -0.04311
 H664 H 0.37909 0.56464 -0.06752
 C665 C 1.16501 -0.18915 -0.21176
 C666 C 1.16566 -0.16855 -0.18601
 C667 C 1.18585 -0.15794 -0.17596
 C668 C 1.20532 -0.16796 -0.19134
 C669 C 1.20485 -0.18878 -0.21699
 C670 C 1.18445 -0.19921 -0.22715
 C671 C 1.14564 -0.15805 -0.17038
 C672 C 1.12906 -0.14874 -0.15749
 C673 C 1.11002 -0.13690 -0.14271
 C674 C 1.09430 -0.12564 -0.13054
 C675 C 1.07645 -0.11047 -0.11673
 C676 C 1.07189 -0.08907 -0.13874
 C677 C 1.05694 -0.07224 -0.12285
 C678 C 1.04623 -0.07655 -0.08463
 C679 C 1.04988 -0.09877 -0.06384
 C680 C 1.06506 -0.11559 -0.07971
 H681 H 1.14949 -0.19742 -0.22000
 H682 H 1.18655 -0.14195 -0.15610
 H683 H 1.22076 -0.15968 -0.18259
 H684 H 1.18352 -0.21503 -0.24731
 H685 H 1.08060 -0.08489 -0.16737
 H686 H 1.05439 -0.05538 -0.13975
 H687 H 1.04196 -0.10252 -0.03429
 H688 H 1.06852 -0.13207 -0.06230
 C689 C 1.20410 0.34945 0.33357
 C690 C 1.18244 0.34455 0.32212
 C691 C 1.17778 0.32476 0.29596
 C692 C 1.19478 0.31021 0.28057
 C693 C 1.21665 0.31539 0.29109
 C694 C 1.22110 0.33497 0.31821
 C695 C 1.16517 0.36038 0.33616
 C696 C 1.15090 0.37396 0.34768
 C697 C 1.13427 0.39001 0.36103
 C698 C 1.12000 0.40362 0.37246
 C699 C 1.10275 0.41952 0.38633
 C700 C 1.08156 0.41658 0.37059
 C701 C 1.06446 0.43101 0.38566
 C702 C 1.06832 0.44861 0.41683
 C703 C 1.08982 0.45187 0.43170
 C704 C 1.10690 0.43737 0.41657
 H705 H 1.20788 0.36468 0.35389
 H706 H 1.16105 0.32084 0.28686
 H707 H 1.19090 0.29540 0.25944
 H708 H 1.23776 0.33919 0.32725
 H709 H 1.07818 0.40282 0.34716
 H710 H 1.04814 0.42801 0.37350
 H711 H 1.09337 0.46517 0.45577
 H712 H 1.12326 0.43977 0.42898
 C713 C 0.69077 -0.16646 0.32865
 C714 C 0.68530 -0.14525 0.30675
 C715 C 0.69677 -0.13926 0.27025
 C716 C 0.71360 -0.15441 0.25574
 C717 C 0.71919 -0.17580 0.27753
 C718 C 0.70757 -0.18162 0.31420
 C719 C 0.66791 -0.12974 0.32183
 C720 C 0.65327 -0.11703 0.33487
 C721 C 0.63601 -0.10246 0.35060
 C722 C 0.62116 -0.09032 0.36436
 C723 C 0.60325 -0.07621 0.38118
 C724 C 0.58178 -0.08084 0.36811
 C725 C 0.56428 -0.06789 0.38555
 C726 C 0.56798 -0.05007 0.41645
 C727 C 0.58968 -0.04531 0.42896
 C728 C 0.60716 -0.05830 0.41147
 H729 H 0.68208 -0.17126 0.35701
 H730 H 0.69266 -0.12293 0.25295
 H731 H 0.72206 -0.14954 0.22719
 H732 H 0.71167 -0.19772 0.33209
 H733 H 0.57853 -0.09467 0.34475
 H734 H 0.54783 -0.07206 0.37514
 H735 H 0.59316 -0.03178 0.45270
 H736 H 0.62369 -0.05458 0.42193
 C737 C 0.68614 0.32151 -0.16963
 C738 C 0.67744 0.34086 -0.19281
 C739 C 0.68449 0.34477 -0.23383
 C740 C 0.70068 0.32995 -0.25120
 C741 C 0.71009 0.31100 -0.22773
 C742 C 0.70236 0.30658 -0.18704
 C743 C 0.66192 0.35740 -0.17435
 C744 C 0.64908 0.37175 -0.15975
 C745 C 0.63398 0.38878 -0.14361
 C746 C 0.62074 0.40319 -0.13056
 C747 C 0.60430 0.41987 -0.11577
 C748 C 0.60895 0.43653 -0.08381
 C749 C 0.59240 0.45167 -0.06817
 C750 C 0.57098 0.45019 -0.08423
 C751 C 0.56672 0.43386 -0.11718
 C752 C 0.58325 0.41884 -0.13277
 H753 H 0.68078 0.31833 -0.13783
 H754 H 0.67780 0.35962 -0.25210
 H755 H 0.70619 0.33358 -0.28276
 H756 H 0.70947 0.29227 -0.16816
 H757 H 0.62522 0.43749 -0.07048
 H758 H 0.59623 0.46400 -0.04279
 H759 H 0.55046 0.43226 -0.13040
 H760 H 0.57949 0.40607 -0.15758
 C761 C 1.17488 0.18207 -0.18894
 C762 C 1.15510 0.19033 -0.17206
 C763 C 1.15055 0.21522 -0.17120
 C764 C 1.16544 0.23184 -0.18791
 C765 C 1.18532 0.22395 -0.20629
 C766 C 1.18995 0.19868 -0.20568
 C767 C 1.13902 0.17342 -0.15663
 C768 C 1.12514 0.15961 -0.14416
 C769 C 1.10875 0.14344 -0.13019
 C770 C 1.09497 0.12918 -0.11884
 C771 C 1.07916 0.11124 -0.10606
 C772 C 1.08163 0.08722 -0.11976
 C773 C 1.06725 0.06919 -0.10604
 C774 C 1.05009 0.07488 -0.07825
 C775 C 1.04727 0.09926 -0.06564
 C776 C 1.06181 0.11734 -0.07936
 H777 H 1.17851 0.16274 -0.18987
 H778 H 1.13540 0.22183 -0.15769
 H779 H 1.16141 0.25097 -0.18509
 H780 H 1.20460 0.19140 -0.21996
 H781 H 1.09495 0.08233 -0.14052
 H782 H 1.06991 0.05067 -0.11660
 H783 H 1.03415 0.10427 -0.04455
 H784 H 1.05974 0.13594 -0.06867
 C785 C 1.16567 0.66682 0.26905
 C786 C 1.17488 0.65417 0.30243
 C787 C 1.19459 0.66221 0.31987
 C788 C 1.20477 0.68330 0.30458
 C789 C 1.19511 0.69698 0.27199
 C790 C 1.17562 0.68789 0.25391
 C791 C 1.16290 0.63416 0.32023
 C792 C 1.15132 0.61841 0.33434
 C793 C 1.13625 0.60127 0.35009
 C794 C 1.12230 0.58774 0.36314
 C795 C 1.10464 0.57292 0.37852
 C796 C 1.10827 0.55581 0.41011
 C797 C 1.09065 0.54295 0.42722
 C798 C 1.06914 0.54717 0.41303
 C799 C 1.06578 0.56400 0.38055
 C800 C 1.08343 0.57677 0.36347
 H801 H 1.15049 0.66062 0.25509
 H802 H 1.20177 0.65260 0.34604
 H803 H 1.21943 0.68952 0.32025
 H804 H 1.16806 0.69670 0.22736
 H805 H 1.12463 0.55279 0.42212
 H806 H 1.09383 0.53016 0.45224
 H807 H 1.04948 0.56767 0.36887
 H808 H 1.08045 0.59007 0.33912
 C809 C 0.68725 0.16959 0.31956
 C810 C 0.66899 0.16082 0.29784
 C811 C 0.66264 0.17201 0.26049
 C812 C 0.67425 0.19212 0.24526
 C813 C 0.69238 0.20136 0.26725
 C814 C 0.69890 0.18970 0.30437
 C815 C 0.65603 0.14125 0.31491
 C816 C 0.64456 0.12543 0.32933
 C817 C 0.63033 0.10766 0.34621
 C818 C 0.61740 0.09324 0.36045
 C819 C 0.60095 0.07709 0.37708
 C820 C 0.57987 0.07750 0.36010
 C821 C 0.56317 0.06357 0.37793
 C822 C 0.56728 0.04894 0.41317
 C823 C 0.58870 0.04803 0.42933
 C824 C 0.60542 0.06211 0.41144
 H825 H 0.69222 0.16120 0.34866
 H826 H 0.64850 0.16541 0.24345
 H827 H 0.66898 0.20052 0.21638
 H828 H 0.71259 0.19657 0.32233
 H829 H 0.57620 0.08905 0.33357
 H830 H 0.54692 0.06464 0.36454
 H831 H 0.59240 0.03705 0.45652
 H832 H 0.62167 0.06173 0.42497
 C833 C 0.68803 0.67055 -0.20090
 C834 C 0.66791 0.67393 -0.18103
 C835 C 0.65955 0.69747 -0.17611
 C836 C 0.67122 0.71759 -0.19109
 C837 C 0.69165 0.71464 -0.21140
 C838 C 0.69980 0.69059 -0.21589
 C839 C 0.65557 0.65326 -0.16636
 C840 C 0.64482 0.63621 -0.15433
 C841 C 0.63153 0.61675 -0.14053
 C842 C 0.61939 0.60077 -0.12900
 C843 C 0.60378 0.58273 -0.11555
 C844 C 0.58330 0.58173 -0.13492
 C845 C 0.56703 0.56629 -0.11949
 C846 C 0.57101 0.55156 -0.08434
 C847 C 0.59197 0.55187 -0.06611
 C848 C 0.60824 0.56748 -0.08154
 H849 H 0.69454 0.65236 -0.20530
 H850 H 0.64400 0.70030 -0.16052
 H851 H 0.66441 0.73546 -0.18515
 H852 H 0.71482 0.68683 -0.23260
 H853 H 0.57966 0.59347 -0.16122
 H854 H 0.55113 0.56642 -0.13442
 H855 H 0.59552 0.54082 -0.03893
 H856 H 0.62404 0.56818 -0.06622
 C857 C 0.84900 -0.19209 -0.23014
 C858 C 0.84676 -0.18436 -0.18874
 C859 C 0.82818 -0.19103 -0.16571
 C860 C 0.81217 -0.20599 -0.18373
 C861 C 0.81470 -0.21448 -0.22491
 C862 C 0.83309 -0.20703 -0.24813
 C863 C 0.86383 -0.16997 -0.17005
 C864 C 0.87841 -0.15786 -0.15551
 C865 C 0.89550 -0.14322 -0.13975
 C866 C 0.90980 -0.12994 -0.12729
 C867 C 0.92611 -0.11281 -0.11360
 C868 C 0.92698 -0.08987 -0.13247
 C869 C 0.94124 -0.07210 -0.11735
 C870 C 0.95489 -0.07697 -0.08298
 C871 C 0.95467 -0.10048 -0.06535
 C872 C 0.94024 -0.11828 -0.08048
 H873 H 0.86323 -0.18689 -0.24832
 H874 H 0.82627 -0.18508 -0.13365
 H875 H 0.79828 -0.21165 -0.16504
 H876 H 0.83531 -0.21309 -0.28005
 H877 H 0.91617 -0.08548 -0.15820
 H878 H 0.94106 -0.05428 -0.13189
 H879 H 0.96503 -0.10483 -0.03899
 H880 H 0.93971 -0.13603 -0.06571
 C881 C 0.80596 0.33793 0.30224
 C882 C 0.82375 0.33472 0.32922
 C883 C 0.83041 0.31122 0.34031
 C884 C 0.81985 0.29094 0.32342
 C885 C 0.80249 0.29393 0.29513
 C886 C 0.79528 0.31760 0.28538
 C887 C 0.83650 0.35520 0.34307
 C888 C 0.84843 0.37140 0.35430
 C889 C 0.86364 0.38918 0.36713
 C890 C 0.87756 0.40337 0.37798
 C891 C 0.89507 0.41913 0.39099
 C892 C 0.89120 0.43795 0.41954
 C893 C 0.90865 0.45205 0.43424
 C894 C 0.93020 0.44737 0.42069
 C895 C 0.93381 0.42871 0.39134
 C896 C 0.91634 0.41470 0.37663
 H897 H 0.80079 0.35608 0.29328
 H898 H 0.84418 0.30855 0.36110
 H899 H 0.82553 0.27290 0.33181
 H900 H 0.78205 0.32037 0.26341
 H901 H 0.87480 0.44144 0.43099
 H902 H 0.90528 0.46626 0.45682
 H903 H 0.95016 0.42462 0.38022
 H904 H 0.91950 0.40010 0.35463
 C905 C 0.30818 -0.17416 0.32951
 C906 C 0.32639 -0.16445 0.30868
 C907 C 0.33285 -0.17428 0.27025
 C908 C 0.32153 -0.19406 0.25318
 C909 C 0.30356 -0.20437 0.27433
 C910 C 0.29678 -0.19396 0.31240
 C911 C 0.33932 -0.14540 0.32752
 C912 C 0.35101 -0.13005 0.34279
 C913 C 0.36568 -0.11281 0.35999
 C914 C 0.37904 -0.09880 0.37399
 C915 C 0.39602 -0.08303 0.38978
 C916 C 0.41744 -0.08589 0.37507
 C917 C 0.43436 -0.07155 0.39108
 C918 C 0.43015 -0.05400 0.42217
 C919 C 0.40848 -0.05096 0.43642
 C920 C 0.39153 -0.06544 0.42035
 H921 H 0.30310 -0.16680 0.35939
 H922 H 0.34691 -0.16694 0.25384
 H923 H 0.32697 -0.20147 0.22357
 H924 H 0.28316 -0.20165 0.32963
 H925 H 0.42113 -0.09945 0.35147
 H926 H 0.45078 -0.07439 0.37928
 H927 H 0.40467 -0.03769 0.46041
 H928 H 0.37502 -0.06310 0.43208
 C929 C 0.34334 0.30226 -0.17543
 C930 C 0.33546 0.32615 -0.17709
 C931 C 0.31504 0.33081 -0.19483
 C932 C 0.30243 0.31169 -0.21070
 C933 C 0.30997 0.28728 -0.20918
 C934 C 0.33081 0.28303 -0.19132
 C935 C 0.34850 0.34596 -0.16123
 C936 C 0.35967 0.36244 -0.14834
 C937 C 0.37329 0.38141 -0.13382
 C938 C 0.38565 0.39710 -0.12201
 C939 C 0.40149 0.41492 -0.10877
 C940 C 0.39669 0.43157 -0.07686
 C941 C 0.41292 0.44757 -0.06243
 C942 C 0.43415 0.44688 -0.07961
 C943 C 0.43853 0.43053 -0.11245
 C944 C 0.42233 0.41471 -0.12687
 H945 H 0.35915 0.29845 -0.16159
 H946 H 0.30891 0.34931 -0.19680
 H947 H 0.28716 0.31647 -0.22564
 H948 H 0.33728 0.26480 -0.18783
 H949 H 0.38060 0.43184 -0.06257
 H950 H 0.40905 0.45990 -0.03708
 H951 H 0.45463 0.42957 -0.12656
 H952 H 0.42621 0.40191 -0.15158
 C953 C 1.14999 -0.21354 0.17290
 C954 C 1.15439 -0.18865 0.17552
 C955 C 1.17417 -0.18063 0.19276
 C956 C 1.18929 -0.19751 0.20837
 C957 C 1.18469 -0.22279 0.20754
 C958 C 1.16491 -0.23041 0.18850
 C959 C 1.13807 -0.17161 0.16167
 C960 C 1.12381 -0.15797 0.15041
 C961 C 1.10683 -0.14229 0.13757
 C962 C 1.09244 -0.12866 0.12684
 C963 C 1.07584 -0.11163 0.11424
 C964 C 1.07528 -0.08854 0.13263
 C965 C 1.06073 -0.07094 0.11801
 C966 C 1.04649 -0.07617 0.08462
 C967 C 1.04638 -0.09984 0.06766
 C968 C 1.06108 -0.11745 0.08229
 H969 H 1.13486 -0.21997 0.15903
 H970 H 1.17770 -0.16131 0.19496
 H971 H 1.20394 -0.19049 0.22307
 H972 H 1.16097 -0.24950 0.18455
 H973 H 1.08658 -0.08388 0.15746
 H974 H 1.06119 -0.05297 0.13200
 H975 H 1.03559 -0.10447 0.04206
 H976 H 1.06135 -0.13533 0.06791
 C977 C 1.19183 0.33411 0.67147
 C978 C 1.17566 0.34578 0.69524
 C979 C 1.17053 0.33717 0.73515
 C980 C 1.18092 0.31649 0.75077
 C981 C 1.19659 0.30410 0.72659
 C982 C 1.20237 0.31340 0.68718
 C983 C 1.16272 0.36504 0.67764
 C984 C 1.15063 0.38029 0.66361
 C985 C 1.13524 0.39703 0.64787
 C986 C 1.12122 0.41037 0.63473
 C987 C 1.10365 0.42518 0.61915
 C988 C 1.08234 0.42133 0.63388
 C989 C 1.06484 0.43429 0.61679
 C990 C 1.06845 0.45128 0.58463
 C991 C 1.09004 0.45544 0.57071
 C992 C 1.10751 0.44241 0.58783
 H993 H 1.19578 0.34053 0.64037
 H994 H 1.15798 0.34602 0.75372
 H995 H 1.17640 0.30985 0.78145
 H996 H 1.21431 0.30408 0.66791
 H997 H 1.07919 0.40794 0.65803
 H998 H 1.04847 0.43065 0.62826
 H999 H 1.09341 0.46836 0.54595
 H1000 H 1.12394 0.44543 0.57609
 C1001 C 0.68972 -0.16650 0.68439
 C1002 C 0.66911 -0.16103 0.70089
 C1003 C 0.66054 -0.17537 0.73303
 C1004 C 0.67225 -0.19540 0.74807
 C1005 C 0.69293 -0.20169 0.73117
 C1006 C 0.70156 -0.18649 0.69938
 C1007 C 0.65621 -0.14147 0.68371
 C1008 C 0.64474 -0.12569 0.66928
 C1009 C 0.63046 -0.10798 0.65247
 C1010 C 0.61748 -0.09362 0.63834
 C1011 C 0.60097 -0.07752 0.62190
 C1012 C 0.57985 -0.07818 0.63882
 C1013 C 0.56313 -0.06422 0.62124
 C1014 C 0.56725 -0.04931 0.58634
 C1015 C 0.58870 -0.04818 0.57020
 C1016 C 0.60544 -0.06228 0.58783
 H1017 H 0.69645 -0.15563 0.65920
 H1018 H 0.64465 -0.17119 0.74632
 H1019 H 0.66513 -0.20547 0.77375
 H1020 H 0.71691 -0.19059 0.68406
 H1021 H 0.57618 -0.08993 0.66511
 H1022 H 0.54687 -0.06549 0.63460
 H1023 H 0.59241 -0.03697 0.54327
 H1024 H 0.62171 -0.06169 0.57435
 C1025 C 0.66046 0.30360 0.16812
 C1026 C 0.66622 0.32715 0.18093
 C1027 C 0.68369 0.33050 0.20855
 C1028 C 0.69542 0.31039 0.22321
 C1029 C 0.68982 0.28663 0.21039
 C1030 C 0.67217 0.28344 0.18275
 C1031 C 0.65395 0.34783 0.16626
 C1032 C 0.64332 0.36492 0.15415
 C1033 C 0.63022 0.38446 0.14022
 C1034 C 0.61827 0.40053 0.12854
 C1035 C 0.60289 0.41870 0.11490
 C1036 C 0.60757 0.43376 0.08072
 C1037 C 0.59150 0.44951 0.06510
 C1038 C 0.57051 0.45013 0.08333
 C1039 C 0.56633 0.43560 0.11866
 C1040 C 0.58240 0.42003 0.13427
 H1041 H 0.64693 0.30081 0.14677
 H1042 H 0.68819 0.34863 0.21889
 H1043 H 0.70872 0.31341 0.24495
 H1044 H 0.66762 0.26541 0.17200
 H1045 H 0.62338 0.43281 0.06540
 H1046 H 0.59520 0.46040 0.03780
 H1047 H 0.55040 0.43571 0.13359
 H1048 H 0.57859 0.40844 0.16071
 C1049 C 0.82693 0.19293 0.15819
 C1050 C 0.84566 0.18616 0.18055
 C1051 C 0.84826 0.19382 0.22190
 C1052 C 0.83253 0.20871 0.24055
 C1053 C 0.81396 0.21619 0.21803
 C1054 C 0.81111 0.20784 0.17686
 C1055 C 0.86239 0.17153 0.16134
 C1056 C 0.87665 0.15910 0.14644
 C1057 C 0.89328 0.14394 0.13042
 C1058 C 0.90713 0.13009 0.11799
 C1059 C 0.92281 0.11216 0.10472
 C1060 C 0.93993 0.11810 0.07737
 C1061 C 0.95437 0.09993 0.06360
 C1062 C 0.95166 0.07564 0.07684
 C1063 C 0.93473 0.07015 0.10523
 C1064 C 0.92047 0.08825 0.11898
 H1065 H 0.82474 0.18702 0.12618
 H1066 H 0.86261 0.18852 0.23958
 H1067 H 0.83500 0.21466 0.27246
 H1068 H 0.79707 0.21353 0.15870
 H1069 H 0.94193 0.13663 0.06629
 H1070 H 0.96732 0.10479 0.04205
 H1071 H 0.93216 0.05172 0.11633
 H1072 H 0.90733 0.08348 0.14027
 C1073 C 0.80667 0.66303 0.69409
 C1074 C 0.82433 0.66608 0.66665
 C1075 C 0.83088 0.68952 0.65484
 C1076 C 0.82035 0.70990 0.67143
 C1077 C 0.80311 0.70709 0.70014
 C1078 C 0.79601 0.68346 0.71065
 C1079 C 0.83703 0.64552 0.65301
 C1080 C 0.84888 0.62922 0.64193
 C1081 C 0.86398 0.61126 0.62927
 C1082 C 0.87778 0.59690 0.61856
 C1083 C 0.89517 0.58090 0.60577
 C1084 C 0.91638 0.58491 0.62075
 C1085 C 0.93376 0.57071 0.60627
 C1086 C 0.93015 0.55226 0.57651
 C1087 C 0.90865 0.54799 0.56235
 C1088 C 0.89128 0.56229 0.57683
 H1089 H 0.80157 0.64495 0.70362
 H1090 H 0.84456 0.69207 0.63368
 H1091 H 0.82595 0.72789 0.66245
 H1092 H 0.78288 0.68082 0.73297
 H1093 H 0.91956 0.59935 0.64305
 H1094 H 0.95007 0.57448 0.61787
 H1095 H 0.90528 0.53397 0.53943
 H1096 H 0.87493 0.55913 0.56490
 C1097 C 0.33348 0.17411 0.73205
 C1098 C 0.32704 0.16437 0.69357
 C1099 C 0.30897 0.17424 0.67269
 C1100 C 0.29768 0.19410 0.68981
 C1101 C 0.30443 0.20441 0.72795
 C1102 C 0.32227 0.19396 0.74915
 C1103 C 0.33987 0.14525 0.67466
 C1104 C 0.35144 0.12985 0.65925
 C1105 C 0.36598 0.11256 0.64183
 C1106 C 0.37925 0.09852 0.62762
 C1107 C 0.39617 0.08275 0.61163
 C1108 C 0.39163 0.06523 0.58096
 C1109 C 0.40854 0.05077 0.56470
 C1110 C 0.43022 0.05376 0.57885
 C1111 C 0.43447 0.07122 0.61005
 C1112 C 0.41760 0.08555 0.62625
 H1113 H 0.34745 0.16666 0.74849
 H1114 H 0.30391 0.16695 0.64276
 H1115 H 0.28417 0.20191 0.67254
 H1116 H 0.32768 0.20131 0.77879
 H1117 H 0.37511 0.06295 0.56930
 H1118 H 0.40471 0.03757 0.54063
 H1119 H 0.45091 0.07402 0.62179
 H1120 H 0.42133 0.09905 0.64992
 C1121 C 0.33968 0.69789 0.16776
 C1122 C 0.33428 0.67375 0.17756
 C1123 C 0.31646 0.66888 0.20374
 C1124 C 0.30401 0.68806 0.21994
 C1125 C 0.30923 0.71240 0.21015
 C1126 C 0.32725 0.71712 0.18395
 C1127 C 0.34730 0.65401 0.16142
 C1128 C 0.35855 0.63766 0.14827
 C1129 C 0.37234 0.61892 0.13344
 C1130 C 0.38487 0.60349 0.12135
 C1131 C 0.40093 0.58600 0.10775
 C1132 C 0.39621 0.56917 0.07608
 C1133 C 0.41258 0.55345 0.06139
 C1134 C 0.43389 0.55459 0.07806
 C1135 C 0.43821 0.57115 0.11063
 C1136 C 0.42186 0.58669 0.12530
 H1137 H 0.35349 0.70186 0.14757
 H1138 H 0.31223 0.65027 0.21177
 H1139 H 0.29042 0.68385 0.24050
 H1140 H 0.33153 0.73563 0.17549
 H1141 H 0.38004 0.56852 0.06222
 H1142 H 0.40874 0.54094 0.03628
 H1143 H 0.45437 0.57247 0.12433
 H1144 H 0.42569 0.59963 0.14982
   
