data_POSCAR
  _audit_creation_date              2014-09-24
  _audit_creation_method            'ToBaCCo'
  _symmetry_space_group_name_H-M    'P1'
  _symmetry_Int_Tables_number       1
  _symmetry_cell_setting            triclinic
  loop_
  _symmetry_equiv_pos_as_xyz
 x,y,z
_cell_length_a 80.4588
_cell_length_b 80.4955
_cell_length_c 23.3474
_cell_angle_alpha 90.000500
_cell_angle_beta 90.110200
_cell_angle_gamma 119.979000
loop_
  _atom_site_label
  _atom_site_type_symbol
  _atom_site_fract_x
  _atom_site_fract_y
  _atom_site_fract_z
C1 C 0.24928 0.49848 0.52643
 C2 C 0.24935 0.49890 0.46784
 C3 C 0.23284 0.49743 0.43469
 C4 C 0.26583 0.50063 0.43396
 C5 C 0.26434 0.49703 0.55958
 C6 C 0.23407 0.49938 0.56038
 C7 C 0.21408 0.48269 0.44519
 C8 C 0.19858 0.48199 0.41598
 C9 C 0.20128 0.49589 0.37391
 C10 C 0.22056 0.51015 0.36217
 C11 C 0.23596 0.51088 0.39212
 C12 C 0.26250 0.48785 0.38876
 C13 C 0.27784 0.48866 0.35843
 C14 C 0.29690 0.50221 0.37286
 C15 C 0.30015 0.51544 0.41696
 C16 C 0.28477 0.51482 0.44660
 C17 C 0.27369 0.50969 0.60516
 C18 C 0.28826 0.50890 0.63547
 C19 C 0.29395 0.49553 0.62056
 C20 C 0.28416 0.48251 0.57582
 C21 C 0.26932 0.48305 0.54631
 C22 C 0.22905 0.51349 0.54953
 C23 C 0.21417 0.51361 0.57992
 C24 C 0.20433 0.49997 0.62310
 C25 C 0.21000 0.48640 0.63550
 C26 C 0.22463 0.48607 0.60435
 H27 H 0.21136 0.47188 0.47721
 H28 H 0.18458 0.47094 0.42965
 H29 H 0.22431 0.52058 0.32846
 H30 H 0.25040 0.52215 0.38229
 H31 H 0.24800 0.47696 0.37762
 H32 H 0.27472 0.47860 0.32373
 H33 H 0.28769 0.52516 0.48034
 H34 H 0.26989 0.52038 0.61679
 H35 H 0.29505 0.51880 0.67065
 H36 H 0.28819 0.47211 0.56265
 H37 H 0.26196 0.47278 0.51233
 H38 H 0.23646 0.52423 0.51685
 H39 H 0.21015 0.52417 0.56870
 H40 H 0.20316 0.47601 0.66942
 H41 H 0.22844 0.47524 0.61410
 H42 H 0.31458 0.52599 0.42965
 C43 C 0.50048 -0.25003 0.52888
 C44 C 0.50017 -0.25015 0.47026
 C45 C 0.49884 -0.26648 0.43649
 C46 C 0.50135 -0.23381 0.43690
 C47 C 0.49880 -0.23515 0.56224
 C48 C 0.50257 -0.26467 0.56239
 C49 C 0.51162 -0.26291 0.39119
 C50 C 0.51107 -0.27807 0.36060
 C51 C 0.49781 -0.29720 0.37492
 C52 C 0.48462 -0.30072 0.41924
 C53 C 0.48496 -0.28551 0.44912
 C54 C 0.51576 -0.21486 0.44823
 C55 C 0.51625 -0.19960 0.41828
 C56 C 0.50264 -0.20298 0.37525
 C57 C 0.48869 -0.22205 0.36252
 C58 C 0.48804 -0.23728 0.39309
 C59 C 0.48417 -0.23096 0.55043
 C60 C 0.48353 -0.21607 0.57917
 C61 C 0.49719 -0.20539 0.62162
 C62 C 0.51125 -0.21030 0.63530
 C63 C 0.51207 -0.22497 0.60580
 C64 C 0.49039 -0.27391 0.60884
 C65 C 0.49171 -0.28815 0.63930
 C66 C 0.50509 -0.29382 0.62351
 C67 C 0.51768 -0.28400 0.57775
 C68 C 0.51667 -0.26940 0.54848
 H69 H 0.52227 -0.24834 0.38008
 H70 H 0.52109 -0.27477 0.32575
 H71 H 0.47430 -0.31522 0.43185
 H72 H 0.47463 -0.28862 0.48297
 H73 H 0.52647 -0.21186 0.48091
 H74 H 0.52709 -0.18514 0.42968
 H75 H 0.47696 -0.25180 0.38306
 H76 H 0.47347 -0.23894 0.51796
 H77 H 0.47259 -0.21266 0.56704
 H78 H 0.52169 -0.20277 0.66875
 H79 H 0.52332 -0.22814 0.61623
 H80 H 0.47947 -0.27043 0.62069
 H81 H 0.48139 -0.29539 0.67309
 H82 H 0.52883 -0.28706 0.56545
 H83 H 0.52680 -0.26191 0.51439
 H84 H 0.47827 -0.22524 0.32876
 C85 C 1.25057 0.74861 0.53019
 C86 C 1.25028 0.74933 0.47177
 C87 C 1.26657 0.76489 0.43951
 C88 C 1.23383 0.73468 0.43752
 C89 C 1.23572 0.73206 0.56328
 C90 C 1.26562 0.76477 0.56392
 C91 C 1.26318 0.77558 0.39869
 C92 C 1.27843 0.79060 0.36946
 C93 C 1.29768 0.79549 0.38036
 C94 C 1.30076 0.78416 0.42072
 C95 C 1.28544 0.76899 0.44913
 C96 C 1.21487 0.72965 0.45080
 C97 C 1.19951 0.71505 0.42053
 C98 C 1.20279 0.70552 0.37522
 C99 C 1.22185 0.71126 0.36032
 C100 C 1.23719 0.72565 0.39122
 C101 C 1.23081 0.71318 0.54969
 C102 C 1.21600 0.69772 0.57882
 C103 C 1.20583 0.70066 0.62340
 C104 C 1.21169 0.71986 0.63839
 C105 C 1.22634 0.73524 0.60872
 C106 C 1.27819 0.76191 0.59844
 C107 C 1.29295 0.77724 0.62829
 C108 C 1.29521 0.79581 0.62557
 C109 C 1.28197 0.79830 0.59196
 C110 C 1.26748 0.78300 0.56127
 H111 H 1.24866 0.77239 0.38969
 H112 H 1.27478 0.79786 0.33720
 H113 H 1.31497 0.78724 0.43292
 H114 H 1.28838 0.76062 0.47950
 H115 H 1.21193 0.73676 0.48541
 H116 H 1.18506 0.71097 0.43361
 H117 H 1.25170 0.72949 0.37962
 H118 H 1.23815 0.71038 0.51545
 H119 H 1.21212 0.68354 0.56384
 H120 H 1.20541 0.72332 0.67403
 H121 H 1.23016 0.74972 0.62081
 H122 H 1.27678 0.74783 0.60143
 H123 H 1.30212 0.77422 0.65504
 H124 H 1.28324 0.81224 0.58673
 H125 H 1.25780 0.78541 0.53489
 H126 H 1.22497 0.70463 0.32478
 C127 C 0.75163 0.50332 0.52828
 C128 C 0.75109 0.50246 0.46994
 C129 C 0.76620 0.50159 0.43554
 C130 C 0.73544 0.50290 0.43760
 C131 C 0.73563 0.50264 0.56176
 C132 C 0.76811 0.50496 0.56153
 C133 C 0.77448 0.51402 0.38888
 C134 C 0.78900 0.51376 0.35690
 C135 C 0.79572 0.50115 0.37112
 C136 C 0.78704 0.48836 0.41706
 C137 C 0.77226 0.48839 0.44833
 C138 C 0.73307 0.51901 0.44035
 C139 C 0.71824 0.51931 0.40998
 C140 C 0.70546 0.50342 0.37684
 C141 C 0.70793 0.48735 0.37397
 C142 C 0.72294 0.48719 0.40366
 C143 C 0.71691 0.48715 0.55638
 C144 C 0.70187 0.48681 0.58715
 C145 C 0.70512 0.50195 0.62473
 C146 C 0.72421 0.51729 0.63044
 C147 C 0.73919 0.51755 0.59956
 C148 C 0.76508 0.49106 0.60250
 C149 C 0.78049 0.49189 0.63252
 C150 C 0.79953 0.50689 0.62304
 C151 C 0.80224 0.52115 0.58259
 C152 C 0.78675 0.52017 0.55239
 H153 H 0.76987 0.52415 0.37755
 H154 H 0.79491 0.52344 0.32090
 H155 H 0.79188 0.47853 0.42967
 H156 H 0.76570 0.47822 0.48296
 H157 H 0.74272 0.53133 0.46602
 H158 H 0.71655 0.53181 0.41305
 H159 H 0.72467 0.47470 0.40092
 H160 H 0.71397 0.47523 0.52850
 H161 H 0.68787 0.47419 0.58261
 H162 H 0.72773 0.52968 0.65667
 H163 H 0.75357 0.52967 0.60416
 H164 H 0.75075 0.47915 0.60996
 H165 H 0.77728 0.48008 0.66099
 H166 H 0.81619 0.53352 0.57496
 H167 H 0.78930 0.53131 0.52178
 H168 H 0.69836 0.47502 0.34828
 C169 C 0.49626 0.24772 0.53096
 C170 C 0.49740 0.24845 0.47259
 C171 C 0.49884 0.26486 0.43911
 C172 C 0.49680 0.23246 0.43922
 C173 C 0.49650 0.23200 0.56369
 C174 C 0.49487 0.26256 0.56521
 C175 C 0.48642 0.26132 0.39263
 C176 C 0.48695 0.27651 0.36218
 C177 C 0.49983 0.29563 0.37774
 C178 C 0.51270 0.29913 0.42322
 C179 C 0.51238 0.28391 0.45303
 C180 C 0.48090 0.21387 0.44270
 C181 C 0.48066 0.19882 0.41219
 C182 C 0.49634 0.20211 0.37783
 C183 C 0.51211 0.22081 0.37378
 C184 C 0.51226 0.23589 0.40386
 C185 C 0.51149 0.22806 0.55711
 C186 C 0.51146 0.21309 0.58748
 C187 C 0.49652 0.20175 0.62619
 C188 C 0.48174 0.20625 0.63331
 C189 C 0.48179 0.22115 0.60255
 C190 C 0.50767 0.27163 0.61051
 C191 C 0.50705 0.28604 0.64207
 C192 C 0.49356 0.29191 0.62925
 C193 C 0.48030 0.28214 0.58449
 C194 C 0.48087 0.26759 0.55338
 H195 H 0.47604 0.24676 0.38048
 H196 H 0.47721 0.27321 0.32643
 H197 H 0.52275 0.31363 0.43674
 H198 H 0.52248 0.28702 0.48771
 H199 H 0.46875 0.21103 0.46934
 H200 H 0.46838 0.18453 0.41629
 H201 H 0.52458 0.25018 0.40042
 H202 H 0.52333 0.23668 0.52862
 H203 H 0.52367 0.21107 0.58188
 H204 H 0.46954 0.19780 0.66061
 H205 H 0.47008 0.22399 0.60824
 H206 H 0.51835 0.26769 0.62118
 H207 H 0.51695 0.29204 0.67757
 H208 H 0.46990 0.28611 0.57104
 H209 H 0.47058 0.26050 0.51920
 H210 H 0.52427 0.22376 0.34704
 C211 C 0.75166 0.24777 0.52902
 C212 C 0.75154 0.24791 0.47041
 C213 C 0.73638 0.23167 0.43669
 C214 C 0.76659 0.26422 0.43676
 C215 C 0.76817 0.26259 0.56287
 C216 C 0.73527 0.23268 0.56232
 C217 C 0.73179 0.21266 0.44726
 C218 C 0.71716 0.19753 0.41638
 C219 C 0.70711 0.20111 0.37321
 C220 C 0.71226 0.22024 0.36137
 C221 C 0.72669 0.23532 0.39285
 C222 C 0.77570 0.26056 0.39133
 C223 C 0.79009 0.27565 0.36000
 C224 C 0.79585 0.29481 0.37367
 C225 C 0.78636 0.29842 0.41838
 C226 C 0.77170 0.28328 0.44902
 C227 C 0.76486 0.27169 0.60901
 C228 C 0.78015 0.28584 0.64056
 C229 C 0.79934 0.29155 0.62632
 C230 C 0.80248 0.28198 0.58053
 C231 C 0.78711 0.26748 0.55005
 C232 C 0.71630 0.22812 0.55087
 C233 C 0.70101 0.21330 0.58052
 C234 C 0.70437 0.20306 0.62352
 C235 C 0.72346 0.20827 0.63657
 C236 C 0.73870 0.22285 0.60617
 H237 H 0.73939 0.20952 0.47994
 H238 H 0.71351 0.18302 0.42709
 H239 H 0.70521 0.22360 0.32754
 H240 H 0.73018 0.24988 0.38337
 H241 H 0.77182 0.24597 0.38048
 H242 H 0.79666 0.27225 0.32492
 H243 H 0.76454 0.28646 0.48291
 H244 H 0.75036 0.26810 0.61995
 H245 H 0.77679 0.29294 0.67413
 H246 H 0.81679 0.28508 0.56925
 H247 H 0.79003 0.26013 0.51611
 H248 H 0.71331 0.23583 0.51823
 H249 H 0.68655 0.20964 0.56882
 H250 H 0.72667 0.20109 0.67037
 H251 H 0.75322 0.22630 0.61637
 H252 H 0.79046 0.31295 0.43054
 O253 O 1.02630 0.54264 0.10232
 O254 O 1.04760 0.53756 0.05068
 C255 C 1.04361 0.54670 0.08908
 O256 O 0.97213 0.45689 0.10105
 O257 O 0.95144 0.46182 0.04557
 C258 C 0.95501 0.45253 0.08453
 O259 O 1.02574 0.48450 0.10833
 O260 O 1.04731 0.50956 0.05308
 C261 C 1.04314 0.49711 0.09371
 O262 O 0.97278 0.51757 0.09463
 O263 O 0.95177 0.49112 0.04251
 C264 C 0.95555 0.50466 0.07923
 Zr265 Zr 0.99962 0.52137 0.06824
 O266 O 0.99790 0.52249 0.15842
 O267 O 1.00052 0.54786 0.05705
 Zr268 Zr 0.99921 0.47930 0.07363
 O269 O 0.99800 0.48132 0.16362
 O270 O 1.00066 0.45380 0.07910
 O271 O 1.01650 0.50882 0.08310
 O272 O 0.98261 0.49215 0.08042
 O273 O 0.97394 0.51642 -0.10618
 O274 O 0.95234 0.49048 -0.05383
 C275 C 0.95653 0.50372 -0.09193
 O276 O 1.02690 0.48344 -0.10197
 O277 O 1.04790 0.50888 -0.04649
 C278 C 1.04412 0.49621 -0.08616
 O279 O 0.97303 0.45505 -0.09740
 O280 O 0.95177 0.46136 -0.05030
 C281 C 0.95573 0.45120 -0.08480
 O282 O 1.02755 0.54079 -0.10905
 O283 O 1.04820 0.53690 -0.05017
 C284 C 1.04469 0.54520 -0.09233
 Zr285 Zr 1.00045 0.52037 -0.07543
 O286 O 0.99914 0.52034 -0.16594
 O287 O 1.00161 0.54713 -0.06987
 Zr288 Zr 0.99994 0.47815 -0.07084
 O289 O 0.99799 0.47623 -0.16131
 O290 O 1.00205 0.45298 -0.06743
 Zr291 Zr 1.02852 0.51384 0.00051
 Zr292 Zr 0.97113 0.48562 -0.00291
 O293 O 0.98359 0.49099 -0.08482
 O294 O 1.01734 0.50756 -0.08350
 O295 O 0.98282 0.51559 -0.00496
 O296 O 1.01624 0.48384 0.00264
 O297 O 1.01700 0.53219 -0.00299
 O298 O 0.98242 0.46699 0.00084
 H299 H 0.97385 0.48816 0.11376
 H300 H 1.02474 0.47822 0.00414
 H301 H 0.97517 0.48651 -0.11905
 H302 H 1.02590 0.54624 -0.00370
 H303 H 0.99070 0.44430 0.05323
 H304 H 0.99121 0.44345 -0.04416
 H305 H 1.00884 0.48813 -0.17695
 H306 H 1.00751 0.51551 -0.18010
 H307 H 1.00217 0.55151 -0.10985
 H308 H 1.00063 0.55274 0.09609
 H309 H 1.00471 0.51614 0.17441
 H310 H 0.99777 0.46978 0.17945
 O311 O 0.45869 0.48572 0.10445
 O312 O 0.46251 0.51031 0.04600
 C313 C 0.45414 0.49834 0.08767
 O314 O 0.54415 0.51730 0.09856
 O315 O 0.53887 0.49063 0.04807
 C316 C 0.54847 0.50429 0.08465
 O317 O 0.51550 0.54231 0.10200
 O318 O 0.49044 0.53811 0.04487
 C319 C 0.50276 0.54677 0.08566
 O320 O 0.48348 0.45683 0.10155
 O321 O 0.50959 0.46148 0.04930
 C322 C 0.49630 0.45229 0.08707
 Zr323 Zr 0.47934 0.47930 0.07097
 O324 O 0.47897 0.47812 0.16148
 O325 O 0.45274 0.45357 0.06395
 Zr326 Zr 0.52128 0.52110 0.06975
 O327 O 0.52054 0.52002 0.16034
 O328 O 0.54711 0.54771 0.06412
 O329 O 0.49180 0.50889 0.08027
 O330 O 0.50869 0.49187 0.08167
 O331 O 0.48300 0.45521 -0.09852
 O332 O 0.50966 0.46094 -0.04703
 C333 C 0.49604 0.45103 -0.08345
 O334 O 0.51648 0.54201 -0.10758
 O335 O 0.49039 0.53747 -0.05547
 C336 C 0.50343 0.54632 -0.09419
 O337 O 0.54429 0.51625 -0.10011
 O338 O 0.53863 0.48981 -0.04792
 C339 C 0.54841 0.50319 -0.08492
 O340 O 0.45782 0.48358 -0.10700
 O341 O 0.46242 0.50962 -0.05443
 C342 C 0.45350 0.49662 -0.09334
 Zr343 Zr 0.47915 0.47828 -0.07280
 O344 O 0.47877 0.47565 -0.16302
 O345 O 0.45259 0.45262 -0.06383
 Zr346 Zr 0.52124 0.52021 -0.07464
 O347 O 0.52157 0.51805 -0.16499
 O348 O 0.54678 0.54716 -0.07636
 Zr349 Zr 0.48600 0.51419 -0.00363
 Zr350 Zr 0.51459 0.48536 -0.00028
 O351 O 0.50849 0.49081 -0.08353
 O352 O 0.49168 0.50778 -0.08628
 O353 O 0.48463 0.46696 0.00017
 O354 O 0.51595 0.53211 -0.00337
 O355 O 0.46782 0.48429 -0.00169
 O356 O 0.53303 0.51527 -0.00156
 H357 H 0.51300 0.48779 0.11597
 H358 H 0.52148 0.54621 -0.00375
 H359 H 0.51276 0.48626 -0.11680
 H360 H 0.45375 0.47902 -0.00153
 H361 H 0.55115 0.55233 0.10380
 H362 H 0.55485 0.54734 -0.04404
 H363 H 0.51007 0.51804 -0.18010
 H364 H 0.48282 0.48848 -0.17907
 H365 H 0.44804 0.44799 -0.10324
 H366 H 0.44818 0.44964 0.10371
 H367 H 0.48613 0.49153 0.17520
 H368 H 0.53223 0.53157 0.17432
 O369 O 0.51673 -0.02692 0.10021
 O370 O 0.49014 -0.04813 0.04893
 C371 C 0.50343 -0.04420 0.08680
 O372 O 0.48415 0.02652 0.10568
 O373 O 0.50951 0.04759 0.05051
 C374 C 0.49671 0.04377 0.08972
 O375 O 0.45926 -0.02709 0.11173
 O376 O 0.46233 -0.04820 0.05301
 C377 C 0.45445 -0.04436 0.09546
 O378 O 0.54509 0.02668 0.09312
 O379 O 0.53853 0.04768 0.04546
 C380 C 0.54890 0.04391 0.07981
 Zr381 Zr 0.52179 -0.00021 0.06772
 O382 O 0.52512 0.00139 0.15779
 O383 O 0.54737 -0.00102 0.05497
 Zr384 Zr 0.47987 -0.00031 0.07684
 O385 O 0.48371 0.00079 0.16662
 O386 O 0.45273 -0.00229 0.08464
 O387 O 0.49248 -0.01735 0.08352
 O388 O 0.50934 0.01649 0.08268
 O389 O 0.54097 0.02629 -0.10710
 O390 O 0.53703 0.04744 -0.05089
 C391 C 0.54574 0.04355 -0.09084
 O392 O 0.45555 -0.02726 -0.09943
 O393 O 0.46058 -0.04834 -0.04642
 C394 C 0.45135 -0.04450 -0.08489
 O395 O 0.48099 0.02650 -0.09388
 O396 O 0.50831 0.04767 -0.04550
 C397 C 0.49427 0.04380 -0.08039
 O398 O 0.51227 -0.02732 -0.11186
 O399 O 0.48848 -0.04836 -0.05188
 C400 C 0.49997 -0.04456 -0.09494
 Zr401 Zr 0.51913 -0.00047 -0.07561
 O402 O 0.52037 -0.00020 -0.16610
 O403 O 0.54505 -0.00104 -0.06980
 Zr404 Zr 0.47718 -0.00041 -0.06753
 O405 O 0.47618 0.00138 -0.15781
 O406 O 0.44993 -0.00257 -0.06051
 Zr407 Zr 0.48507 -0.02904 0.00048
 Zr408 Zr 0.51368 0.02831 0.00005
 O409 O 0.50627 0.01620 -0.08237
 O410 O 0.48942 -0.01748 -0.08284
 O411 O 0.53222 0.01693 -0.00480
 O412 O 0.46710 -0.01706 0.00535
 O413 O 0.51495 -0.01731 -0.00442
 O414 O 0.48375 0.01676 0.00519
 H415 H 0.51425 0.02516 0.11628
 H416 H 0.45303 -0.02571 0.00739
 H417 H 0.50995 0.02478 -0.11608
 H418 H 0.52018 -0.02614 -0.00630
 H419 H 0.45262 0.00725 0.05820
 H420 H 0.45168 0.00888 -0.03953
 H421 H 0.47862 -0.00856 -0.17408
 H422 H 0.51104 0.00345 -0.18006
 H423 H 0.54877 -0.00178 -0.10973
 H424 H 0.55238 -0.00112 0.09370
 H425 H 0.51207 -0.00577 0.17427
 H426 H 0.47240 0.00077 0.18340
 C427 C 1.15431 0.49554 0.29066
 C428 C 1.15184 0.47928 0.31976
 C429 C 1.16735 0.47924 0.34672
 C430 C 1.18602 0.49567 0.34630
 C431 C 1.18809 0.51199 0.31644
 C432 C 1.17257 0.51183 0.28902
 C433 C 1.13785 0.49558 0.26220
 C434 C 1.13973 0.50291 0.20657
 C435 C 1.12427 0.50310 0.17982
 C436 C 1.10665 0.49616 0.20838
 C437 C 1.10482 0.48883 0.26417
 C438 C 1.12023 0.48845 0.29065
 C439 C 1.09027 0.49657 0.18003
 C440 C 1.07132 0.48162 0.18836
 C441 C 1.05599 0.48192 0.16108
 C442 C 1.05926 0.49709 0.12437
 C443 C 1.07819 0.51207 0.11617
 C444 C 1.09348 0.51188 0.14393
 H445 H 1.13791 0.46635 0.32064
 H446 H 1.16439 0.46578 0.36539
 H447 H 1.20135 0.52553 0.31598
 H448 H 1.17477 0.52473 0.26771
 H449 H 1.15309 0.50826 0.18344
 H450 H 1.12609 0.50846 0.13643
 H451 H 1.09159 0.48368 0.28783
 H452 H 1.11850 0.48294 0.33386
 H453 H 1.06833 0.46945 0.21512
 H454 H 1.04160 0.47007 0.16800
 H455 H 1.08124 0.52400 0.08827
 H456 H 1.10783 0.52382 0.13734
 C457 C 0.49870 0.65580 0.28816
 C458 C 0.51577 0.67319 0.29811
 C459 C 0.51546 0.68832 0.32630
 C460 C 0.49803 0.68664 0.34451
 C461 C 0.48092 0.66933 0.33402
 C462 C 0.48126 0.65407 0.30656
 C463 C 0.49913 0.63958 0.25888
 C464 C 0.48422 0.62732 0.22171
 C465 C 0.48469 0.61215 0.19417
 C466 C 0.50021 0.60897 0.20240
 C467 C 0.51514 0.62127 0.23944
 C468 C 0.51453 0.63626 0.26763
 C469 C 0.50088 0.59299 0.17239
 C470 C 0.50897 0.58301 0.19920
 C471 C 0.50980 0.56816 0.17079
 C472 C 0.50225 0.56272 0.11529
 C473 C 0.49403 0.57253 0.08854
 C474 C 0.49349 0.58759 0.11656
 H475 H 0.52944 0.67521 0.28378
 H476 H 0.52897 0.70128 0.33441
 H477 H 0.46719 0.66757 0.34669
 H478 H 0.46784 0.64083 0.30040
 H479 H 0.47225 0.62956 0.21326
 H480 H 0.47278 0.60282 0.16672
 H481 H 0.52746 0.61948 0.24628
 H482 H 0.52611 0.64516 0.29664
 H483 H 0.51445 0.58647 0.24254
 H484 H 0.51604 0.56071 0.19269
 H485 H 0.48825 0.56875 0.04553
 H486 H 0.48751 0.59516 0.09404
 C487 C 0.34483 -0.15688 0.29758
 C488 C 0.32682 -0.15815 0.30082
 C489 C 0.31141 -0.17369 0.32783
 C490 C 0.31336 -0.18873 0.35219
 C491 C 0.33155 -0.18736 0.34800
 C492 C 0.34698 -0.17168 0.32159
 C493 C 0.36129 -0.14023 0.26919
 C494 C 0.37475 -0.14269 0.23749
 C495 C 0.39018 -0.12708 0.21079
 C496 C 0.39242 -0.10863 0.21434
 C497 C 0.37896 -0.10616 0.24604
 C498 C 0.36367 -0.12173 0.27338
 C499 C 0.40855 -0.09212 0.18442
 C500 C 0.41752 -0.07362 0.20860
 C501 C 0.43241 -0.05808 0.17979
 C502 C 0.43882 -0.06073 0.12649
 C503 C 0.43004 -0.07924 0.10266
 C504 C 0.41501 -0.09470 0.13102
 H505 H 0.32453 -0.14713 0.28223
 H506 H 0.29824 -0.17326 0.33100
 H507 H 0.33406 -0.19857 0.36329
 H508 H 0.36069 -0.17115 0.32038
 H509 H 0.37328 -0.15673 0.23261
 H510 H 0.40040 -0.12951 0.18756
 H511 H 0.38005 -0.09223 0.24914
 H512 H 0.35378 -0.11920 0.29814
 H513 H 0.41319 -0.07113 0.25011
 H514 H 0.43899 -0.04403 0.19954
 H515 H 0.43458 -0.08178 0.06155
 H516 H 0.40824 -0.10862 0.11049
 C517 C 0.84293 0.50262 0.27839
 C518 C 0.84205 0.51945 0.28710
 C519 C 0.82684 0.51896 0.31724
 C520 C 0.81187 0.50157 0.33869
 C521 C 0.81260 0.48468 0.32933
 C522 C 0.82799 0.48522 0.29997
 C523 C 0.85945 0.50327 0.24753
 C524 C 0.85687 0.48792 0.21256
 C525 C 0.87245 0.48842 0.18449
 C526 C 0.89099 0.50441 0.18992
 C527 C 0.89352 0.51986 0.22424
 C528 C 0.87801 0.51923 0.25301
 C529 C 0.90766 0.50486 0.16065
 C530 C 0.92589 0.51384 0.18672
 C531 C 0.94150 0.51410 0.15970
 C532 C 0.93921 0.50511 0.10642
 C533 C 0.92105 0.49613 0.08023
 C534 C 0.90550 0.49615 0.10677
 H535 H 0.85309 0.53307 0.27038
 H536 H 0.82699 0.53232 0.32432
 H537 H 0.80123 0.47097 0.34440
 H538 H 0.82826 0.47200 0.29491
 H539 H 0.84277 0.47551 0.20650
 H540 H 0.86994 0.47612 0.15918
 H541 H 0.90749 0.53256 0.22879
 H542 H 0.88067 0.53121 0.28019
 H543 H 0.92808 0.52034 0.22866
 H544 H 0.95528 0.52095 0.18125
 H545 H 0.91888 0.48919 0.03899
 H546 H 0.89181 0.48943 0.08478
 C547 C 0.49877 0.34246 0.29028
 C548 C 0.51617 0.34446 0.31046
 C549 C 0.51658 0.32928 0.33828
 C550 C 0.49956 0.31177 0.34731
 C551 C 0.48216 0.30983 0.32743
 C552 C 0.48179 0.32490 0.29893
 C553 C 0.49829 0.35858 0.26039
 C554 C 0.48261 0.36157 0.26729
 C555 C 0.48200 0.37650 0.23863
 C556 C 0.49718 0.38904 0.20293
 C557 C 0.51295 0.38617 0.19648
 C558 C 0.51343 0.37107 0.22449
 C559 C 0.49660 0.40506 0.17271
 C560 C 0.50461 0.41083 0.11776
 C561 C 0.50446 0.42612 0.08997
 C562 C 0.49602 0.43582 0.11601
 C563 C 0.48770 0.42990 0.17037
 C564 C 0.48812 0.41481 0.19861
 H565 H 0.52951 0.35784 0.30537
 H566 H 0.53028 0.33126 0.35228
 H567 H 0.46871 0.29671 0.33441
 H568 H 0.46816 0.32267 0.28326
 H569 H 0.47081 0.35248 0.29526
 H570 H 0.46949 0.37806 0.24411
 H571 H 0.52506 0.39569 0.17013
 H572 H 0.52562 0.36909 0.21743
 H573 H 0.51087 0.40343 0.09586
 H574 H 0.51080 0.43025 0.04777
 H575 H 0.48125 0.43724 0.19169
 H576 H 0.48213 0.41104 0.24124
 C577 C 0.66067 0.15429 0.28113
 C578 C 0.65997 0.17097 0.29436
 C579 C 0.67496 0.18606 0.32427
 C580 C 0.69121 0.18501 0.34111
 C581 C 0.69201 0.16841 0.32739
 C582 C 0.67689 0.15321 0.29806
 C583 C 0.64448 0.13807 0.25021
 C584 C 0.64789 0.12699 0.21034
 C585 C 0.63264 0.11173 0.18160
 C586 C 0.61369 0.10739 0.19147
 C587 C 0.61023 0.11845 0.23099
 C588 C 0.62543 0.13352 0.26032
 C589 C 0.59749 0.09129 0.16103
 C590 C 0.58308 0.09381 0.13557
 C591 C 0.56750 0.07851 0.10818
 C592 C 0.56588 0.06029 0.10645
 C593 C 0.58039 0.05782 0.13162
 C594 C 0.59612 0.07322 0.15827
 H595 H 0.64788 0.17248 0.28127
 H596 H 0.67367 0.19846 0.33480
 H597 H 0.70438 0.16718 0.33893
 H598 H 0.67784 0.14051 0.28932
 H599 H 0.66237 0.13027 0.20067
 H600 H 0.63567 0.10351 0.15090
 H601 H 0.59570 0.11519 0.23994
 H602 H 0.62218 0.14142 0.29157
 H603 H 0.58390 0.10766 0.13675
 H604 H 0.55654 0.08086 0.08932
 H605 H 0.57957 0.04398 0.13079
 H606 H 0.60701 0.07092 0.17790
 C607 C 0.49549 0.15521 -0.28319
 C608 C 0.50522 0.16145 -0.33549
 C609 C 0.50569 0.17677 -0.36501
 C610 C 0.49631 0.18634 -0.34331
 C611 C 0.48661 0.17992 -0.29043
 C612 C 0.48627 0.16466 -0.26089
 C613 C 0.49487 0.13880 -0.25222
 C614 C 0.49732 0.13943 -0.19248
 C615 C 0.49683 0.12400 -0.16346
 C616 C 0.49377 0.10757 -0.19352
 C617 C 0.49123 0.10692 -0.25321
 C618 C 0.49181 0.12238 -0.28225
 C619 C 0.49343 0.09124 -0.16296
 C620 C 0.47984 0.07226 -0.17750
 C621 C 0.47991 0.05687 -0.15006
 C622 C 0.49362 0.06010 -0.10760
 C623 C 0.50705 0.07911 -0.09251
 C624 C 0.50693 0.09450 -0.11981
 H625 H 0.51255 0.15449 -0.35363
 H626 H 0.51281 0.18044 -0.40610
 H627 H 0.47976 0.18701 -0.27017
 H628 H 0.47861 0.16013 -0.22066
 H629 H 0.49986 0.15196 -0.16827
 H630 H 0.49868 0.12484 -0.11739
 H631 H 0.48906 0.09455 -0.27761
 H632 H 0.48967 0.12140 -0.32820
 H633 H 0.46911 0.06932 -0.21004
 H634 H 0.46932 0.04243 -0.16267
 H635 H 0.51782 0.08214 -0.06000
 H636 H 0.51769 0.10897 -0.10808
 C637 C 0.65912 0.50193 -0.28420
 C638 C 0.67800 0.51242 -0.26369
 C639 C 0.69306 0.51236 -0.29322
 C640 C 0.68976 0.50182 -0.34460
 C641 C 0.67061 0.49125 -0.36461
 C642 C 0.65559 0.49131 -0.33484
 C643 C 0.64317 0.50219 -0.25312
 C644 C 0.62543 0.48526 -0.24640
 C645 C 0.61034 0.48555 -0.21773
 C646 C 0.61263 0.50278 -0.19540
 C647 C 0.63038 0.51970 -0.20196
 C648 C 0.64550 0.51939 -0.23038
 C649 C 0.59646 0.50313 -0.16601
 C650 C 0.59250 0.51799 -0.17668
 C651 C 0.57700 0.51809 -0.15011
 C652 C 0.56514 0.50337 -0.11206
 C653 C 0.56926 0.48862 -0.10090
 C654 C 0.58472 0.48849 -0.12767
 H655 H 0.68111 0.52043 -0.22405
 H656 H 0.70715 0.52008 -0.27391
 H657 H 0.66706 0.48351 -0.40472
 H658 H 0.64121 0.48339 -0.35234
 H659 H 0.62327 0.47175 -0.26298
 H660 H 0.59678 0.47232 -0.21382
 H661 H 0.63261 0.53316 -0.18475
 H662 H 0.65894 0.53269 -0.23534
 H663 H 0.60118 0.52936 -0.20650
 H664 H 0.57425 0.52967 -0.15972
 H665 H 0.56047 0.47706 -0.07176
 H666 H 0.58756 0.47698 -0.11807
 C667 C 0.84590 0.33737 -0.28373
 C668 C 0.84782 0.33358 -0.34136
 C669 C 0.83271 0.31833 -0.37050
 C670 C 0.81493 0.30659 -0.34340
 C671 C 0.81309 0.31049 -0.28553
 C672 C 0.82837 0.32547 -0.25611
 C673 C 0.86200 0.35376 -0.25283
 C674 C 0.85834 0.36399 -0.21061
 C675 C 0.87342 0.37942 -0.18195
 C676 C 0.89262 0.38533 -0.19542
 C677 C 0.89628 0.37514 -0.23777
 C678 C 0.88120 0.35948 -0.26564
 C679 C 0.90873 0.40212 -0.16592
 C680 C 0.92625 0.40270 -0.15545
 C681 C 0.94154 0.41867 -0.12936
 C682 C 0.93954 0.43427 -0.11198
 C683 C 0.92199 0.43363 -0.12130
 C684 C 0.90683 0.41784 -0.14848
 H685 H 0.86088 0.34269 -0.36471
 H686 H 0.83481 0.31653 -0.41534
 H687 H 0.80011 0.30153 -0.26170
 H688 H 0.82647 0.32752 -0.21129
 H689 H 0.84380 0.36028 -0.20005
 H690 H 0.86995 0.38665 -0.14898
 H691 H 0.91082 0.37938 -0.25014
 H692 H 0.88467 0.35181 -0.29709
 H693 H 0.92817 0.39074 -0.16690
 H694 H 0.95485 0.41871 -0.12207
 H695 H 0.92013 0.44556 -0.10877
 H696 H 0.89377 0.41818 -0.15676
 C697 C 0.49691 -0.15734 -0.29650
 C698 C 0.47961 -0.17376 -0.31224
 C699 C 0.47966 -0.18941 -0.33796
 C700 C 0.49704 -0.18897 -0.34944
 C701 C 0.51434 -0.17252 -0.33390
 C702 C 0.51427 -0.15700 -0.30741
 C703 C 0.49689 -0.14069 -0.26868
 C704 C 0.51162 -0.12183 -0.27973
 C705 C 0.51188 -0.10624 -0.25248
 C706 C 0.49726 -0.10906 -0.21406
 C707 C 0.48234 -0.12790 -0.20384
 C708 C 0.48223 -0.14350 -0.23043
 C709 C 0.49774 -0.09249 -0.18400
 C710 C 0.49112 -0.09439 -0.12733
 C711 C 0.49166 -0.07888 -0.09884
 C712 C 0.49912 -0.06098 -0.12592
 C713 C 0.50586 -0.05897 -0.18236
 C714 C 0.50503 -0.07458 -0.21125
 H715 H 0.46597 -0.17449 -0.30530
 H716 H 0.46604 -0.20191 -0.34854
 H717 H 0.52802 -0.17148 -0.34284
 H718 H 0.52787 -0.14478 -0.29509
 H719 H 0.52298 -0.11904 -0.30967
 H720 H 0.52375 -0.09200 -0.26093
 H721 H 0.47064 -0.13064 -0.17534
 H722 H 0.47078 -0.15779 -0.22021
 H723 H 0.48582 -0.10778 -0.10441
 H724 H 0.48656 -0.08082 -0.05509
 H725 H 0.51154 -0.04537 -0.20444
 H726 H 0.50993 -0.07265 -0.25517
 C727 C 0.34151 0.49539 -0.29321
 C728 C 0.34131 0.51259 -0.30157
 C729 C 0.32597 0.51262 -0.32960
 C730 C 0.31021 0.49541 -0.34914
 C731 C 0.31028 0.47816 -0.34011
 C732 C 0.32579 0.47818 -0.31295
 C733 C 0.35807 0.49545 -0.26423
 C734 C 0.35529 0.48002 -0.22925
 C735 C 0.37084 0.48009 -0.20228
 C736 C 0.38945 0.49572 -0.20883
 C737 C 0.39232 0.51119 -0.24332
 C738 C 0.37683 0.51098 -0.27118
 C739 C 0.40586 0.49596 -0.17950
 C740 C 0.41848 0.51179 -0.14607
 C741 C 0.43386 0.51194 -0.11771
 C742 C 0.43718 0.49644 -0.12333
 C743 C 0.42456 0.48065 -0.15719
 C744 C 0.40895 0.48035 -0.18459
 H745 H 0.35296 0.52611 -0.28616
 H746 H 0.32665 0.52624 -0.33654
 H747 H 0.29830 0.46458 -0.35371
 H748 H 0.32550 0.46467 -0.30812
 H749 H 0.34105 0.46799 -0.22186
 H750 H 0.36831 0.46809 -0.17536
 H751 H 0.40661 0.52331 -0.24941
 H752 H 0.37965 0.52292 -0.29874
 H753 H 0.41624 0.52391 -0.14115
 H754 H 0.44312 0.52420 -0.09139
 H755 H 0.42662 0.46842 -0.16210
 H756 H 0.39941 0.46802 -0.21036
 C757 C 1.15826 0.65354 -0.29397
 C758 C 1.17231 0.65100 -0.32156
 C759 C 1.18799 0.66641 -0.34817
 C760 C 1.19012 0.68496 -0.34844
 C761 C 1.17585 0.68728 -0.32030
 C762 C 1.16030 0.67189 -0.29343
 C763 C 1.14150 0.63715 -0.26591
 C764 C 1.12327 0.63551 -0.26823
 C765 C 1.10760 0.62039 -0.24084
 C766 C 1.10969 0.60640 -0.21084
 C767 C 1.12786 0.60789 -0.20913
 C768 C 1.14359 0.62311 -0.23616
 C769 C 1.09304 0.59049 -0.18090
 C770 C 1.09548 0.58378 -0.12771
 C771 C 1.07981 0.56901 -0.09920
 C772 C 1.06129 0.56070 -0.12293
 C773 C 1.05882 0.56738 -0.17608
 C774 C 1.07452 0.58203 -0.20486
 H775 H 1.17115 0.63702 -0.32307
 H776 H 1.19863 0.66362 -0.36679
 H777 H 1.17599 0.70077 -0.32049
 H778 H 1.14984 0.67443 -0.27204
 H779 H 1.12107 0.64589 -0.29150
 H780 H 1.09389 0.61985 -0.24247
 H781 H 1.12994 0.59723 -0.18711
 H782 H 1.15744 0.62403 -0.23297
 H783 H 1.10946 0.59017 -0.10751
 H784 H 1.08219 0.56429 -0.05811
 H785 H 1.04476 0.56116 -0.19576
 H786 H 1.07217 0.58660 -0.24620
 C787 C 0.84662 0.50744 -0.29035
 C788 C 0.82811 0.49757 -0.26719
 C789 C 0.81275 0.49763 -0.29495
 C790 C 0.81533 0.50743 -0.34745
 C791 C 0.83417 0.51751 -0.36992
 C792 C 0.84953 0.51755 -0.34167
 C793 C 0.86278 0.50698 -0.26132
 C794 C 0.88058 0.52382 -0.25463
 C795 C 0.89577 0.52334 -0.22700
 C796 C 0.89356 0.50597 -0.20595
 C797 C 0.87574 0.48911 -0.21309
 C798 C 0.86051 0.48963 -0.24020
 C799 C 0.90973 0.50542 -0.17670
 C800 C 0.90631 0.49313 -0.12986
 C801 C 0.92146 0.49250 -0.10266
 C802 C 0.94045 0.50429 -0.12118
 C803 C 0.94391 0.51662 -0.16787
 C804 C 0.92872 0.51712 -0.19544
 H805 H 0.82555 0.48999 -0.22691
 H806 H 0.79903 0.49042 -0.27355
 H807 H 0.83721 0.52473 -0.41080
 H808 H 0.86364 0.52506 -0.36091
 H809 H 0.88263 0.53742 -0.26994
 H810 H 0.90916 0.53666 -0.22138
 H811 H 0.87363 0.47542 -0.19849
 H812 H 0.84703 0.47639 -0.24554
 H813 H 0.89191 0.48415 -0.11366
 H814 H 0.91827 0.48284 -0.06683
 H815 H 0.95834 0.52579 -0.18353
 H816 H 0.93187 0.52649 -0.23198
 C817 C 0.49374 0.33818 -0.28029
 C818 C 0.51020 0.33641 -0.28202
 C819 C 0.51015 0.32129 -0.31148
 C820 C 0.49351 0.30722 -0.34011
 C821 C 0.47695 0.30908 -0.33759
 C822 C 0.47711 0.32431 -0.30833
 C823 C 0.49400 0.35454 -0.24979
 C824 C 0.47790 0.35195 -0.21877
 C825 C 0.47814 0.36739 -0.19059
 C826 C 0.49452 0.38572 -0.19242
 C827 C 0.51065 0.38832 -0.22304
 C828 C 0.51037 0.37293 -0.25161
 C829 C 0.49473 0.40217 -0.16319
 C830 C 0.51077 0.41521 -0.13106
 C831 C 0.51111 0.43094 -0.10454
 C832 C 0.49547 0.43406 -0.11008
 C833 C 0.47938 0.42093 -0.14201
 C834 C 0.47899 0.40511 -0.16806
 H835 H 0.52324 0.34675 -0.26046
 H836 H 0.52358 0.32133 -0.31325
 H837 H 0.46349 0.29855 -0.35648
 H838 H 0.46417 0.32530 -0.30817
 H839 H 0.46519 0.33793 -0.21564
 H840 H 0.46559 0.36495 -0.16671
 H841 H 0.52336 0.40236 -0.22587
 H842 H 0.52287 0.37553 -0.27597
 H843 H 0.52302 0.41317 -0.12619
 H844 H 0.52373 0.44078 -0.08026
 H845 H 0.46708 0.42288 -0.14700
 H846 H 0.46651 0.39537 -0.19300
 C847 C 0.65691 0.15563 -0.28977
 C848 C 0.67396 0.15538 -0.30096
 C849 C 0.68924 0.17068 -0.32911
 C850 C 0.68807 0.18683 -0.34605
 C851 C 0.67112 0.18720 -0.33425
 C852 C 0.65570 0.17175 -0.30687
 C853 C 0.64049 0.13912 -0.26064
 C854 C 0.62862 0.14207 -0.22279
 C855 C 0.61318 0.12657 -0.19570
 C856 C 0.60934 0.10771 -0.20502
 C857 C 0.62128 0.10478 -0.24261
 C858 C 0.63653 0.12024 -0.27036
 C859 C 0.59301 0.09119 -0.17565
 C860 C 0.58256 0.07330 -0.20323
 C861 C 0.56736 0.05777 -0.17548
 C862 C 0.56201 0.05985 -0.11992
 C863 C 0.57229 0.07769 -0.09237
 C864 C 0.58771 0.09313 -0.11970
 H865 H 0.67559 0.14339 -0.28765
 H866 H 0.70190 0.16968 -0.33820
 H867 H 0.66975 0.19948 -0.34584
 H868 H 0.64275 0.17239 -0.29978
 H869 H 0.63134 0.15639 -0.21352
 H870 H 0.60416 0.12941 -0.16781
 H871 H 0.61900 0.09053 -0.25028
 H872 H 0.64512 0.11733 -0.29989
 H873 H 0.58593 0.07132 -0.24666
 H874 H 0.55956 0.04422 -0.19794
 H875 H 0.56861 0.07965 -0.04924
 H876 H 0.59563 0.10652 -0.09655
 C877 C 1.15679 0.49898 -0.28759
 C878 C 1.15690 0.48189 -0.29907
 C879 C 1.17224 0.48223 -0.32806
 C880 C 1.18807 0.49970 -0.34557
 C881 C 1.18808 0.51682 -0.33344
 C882 C 1.17259 0.51646 -0.30523
 C883 C 1.14021 0.49855 -0.25771
 C884 C 1.14299 0.51333 -0.21992
 C885 C 1.12741 0.51296 -0.19228
 C886 C 1.10865 0.49765 -0.20097
 C887 C 1.10589 0.48279 -0.23842
 C888 C 1.12143 0.48331 -0.26674
 C889 C 1.09203 0.49717 -0.17127
 C890 C 1.07402 0.48931 -0.19845
 C891 C 1.05841 0.48876 -0.17050
 C892 C 1.06050 0.49636 -0.11513
 C893 C 1.07847 0.50433 -0.08796
 C894 C 1.09400 0.50459 -0.11549
 H895 H 1.14518 0.46817 -0.28537
 H896 H 1.17152 0.46871 -0.33738
 H897 H 1.20011 0.53057 -0.34542
 H898 H 1.17293 0.52990 -0.29795
 H899 H 1.15724 0.52516 -0.21115
 H900 H 1.13011 0.52482 -0.16451
 H901 H 1.09173 0.47060 -0.24560
 H902 H 1.11863 0.47182 -0.29619
 H903 H 1.07201 0.48384 -0.24176
 H904 H 1.04478 0.48272 -0.19271
 H905 H 1.08045 0.51015 -0.04504
 H906 H 1.10749 0.51039 -0.09266
 C907 C 0.50586 0.65960 -0.29173
 C908 C 0.50056 0.67147 -0.26221
 C909 C 0.50023 0.68669 -0.28994
 C910 C 0.50567 0.69091 -0.34791
 C911 C 0.51139 0.67920 -0.37693
 C912 C 0.51123 0.66369 -0.34953
 C913 C 0.50560 0.64296 -0.26261
 C914 C 0.51872 0.63700 -0.27797
 C915 C 0.51822 0.62118 -0.25151
 C916 C 0.50486 0.61108 -0.20796
 C917 C 0.49192 0.61721 -0.19206
 C918 C 0.49214 0.63276 -0.21940
 C919 C 0.50446 0.59431 -0.17924
 C920 C 0.48710 0.57890 -0.15899
 C921 C 0.48679 0.56339 -0.13109
 C922 C 0.50373 0.56265 -0.12402
 C923 C 0.52103 0.57781 -0.14487
 C924 C 0.52143 0.59355 -0.17155
 H925 H 0.49690 0.66922 -0.21722
 H926 H 0.49645 0.69560 -0.26477
 H927 H 0.51503 0.68125 -0.42196
 H928 H 0.51489 0.65463 -0.37437
 H929 H 0.52953 0.64461 -0.31026
 H930 H 0.52823 0.61679 -0.26579
 H931 H 0.48164 0.61010 -0.15808
 H932 H 0.48157 0.63662 -0.20689
 H933 H 0.47364 0.57865 -0.16514
 H934 H 0.47325 0.55183 -0.11576
 H935 H 0.53435 0.57771 -0.13934
 H936 H 0.53516 0.60526 -0.18522
 C937 C 0.34095 -0.15696 -0.28648
 C938 C 0.34295 -0.17242 -0.30559
 C939 C 0.32789 -0.18801 -0.33370
 C940 C 0.31037 -0.18852 -0.34478
 C941 C 0.30853 -0.17286 -0.32580
 C942 C 0.32349 -0.15747 -0.29669
 C943 C 0.35702 -0.14038 -0.25627
 C944 C 0.36013 -0.12169 -0.26351
 C945 C 0.37518 -0.10616 -0.23513
 C946 C 0.38776 -0.10882 -0.19942
 C947 C 0.38473 -0.12749 -0.19246
 C948 C 0.36948 -0.14307 -0.22008
 C949 C 0.40399 -0.09222 -0.16976
 C950 C 0.41002 -0.09440 -0.11502
 C951 C 0.42544 -0.07893 -0.08767
 C952 C 0.43500 -0.06082 -0.11385
 C953 C 0.42890 -0.05851 -0.16813
 C954 C 0.41369 -0.07406 -0.19599
 H955 H 0.35634 -0.17235 -0.30000
 H956 H 0.33049 -0.19918 -0.34911
 H957 H 0.29523 -0.17273 -0.33095
 H958 H 0.32118 -0.14610 -0.28128
 H959 H 0.35105 -0.11896 -0.29166
 H960 H 0.37684 -0.09207 -0.24094
 H961 H 0.39425 -0.13012 -0.16609
 H962 H 0.36742 -0.15725 -0.21262
 H963 H 0.40269 -0.10800 -0.09285
 H964 H 0.42974 -0.08109 -0.04562
 H965 H 0.43613 -0.04476 -0.18960
 H966 H 0.40976 -0.07189 -0.23853
 C967 C 0.50305 -0.15554 0.28716
 C968 C 0.48566 -0.17231 0.29950
 C969 C 0.48554 -0.18763 0.32802
 C970 C 0.50282 -0.18670 0.34434
 C971 C 0.52022 -0.17001 0.33145
 C972 C 0.52033 -0.15459 0.30355
 C973 C 0.50314 -0.13909 0.25760
 C974 C 0.51770 -0.12777 0.21831
 C975 C 0.51783 -0.11226 0.19093
 C976 C 0.50328 -0.10789 0.20159
 C977 C 0.48867 -0.11920 0.24045
 C978 C 0.48866 -0.13455 0.26846
 C979 C 0.50333 -0.09156 0.17223
 C980 C 0.48654 -0.09386 0.14636
 C981 C 0.48661 -0.07849 0.11828
 C982 C 0.50341 -0.06045 0.11629
 C983 C 0.52016 -0.05813 0.14265
 C984 C 0.52016 -0.07359 0.16996
 H985 H 0.47207 -0.17371 0.28680
 H986 H 0.47184 -0.20011 0.33793
 H987 H 0.53382 -0.16886 0.34260
 H988 H 0.53400 -0.14183 0.29550
 H989 H 0.52886 -0.13104 0.20799
 H990 H 0.52913 -0.10387 0.16060
 H991 H 0.47742 -0.11596 0.24990
 H992 H 0.47745 -0.14266 0.29927
 H993 H 0.47342 -0.10762 0.14727
 H994 H 0.47345 -0.08070 0.09860
 H995 H 0.53333 -0.04442 0.14166
 H996 H 0.53324 -0.07145 0.18997
 C997 C 0.34455 0.50201 0.28805
 C998 C 0.32728 0.48481 0.29778
 C999 C 0.31192 0.48491 0.32524
 C1000 C 0.31326 0.50224 0.34297
 C1001 C 0.33044 0.51947 0.33265
 C1002 C 0.34592 0.51935 0.30589
 C1003 C 0.36101 0.50180 0.25955
 C1004 C 0.37321 0.51670 0.22245
 C1005 C 0.38856 0.51641 0.19551
 C1006 C 0.39199 0.50109 0.20430
 C1007 C 0.37979 0.48620 0.24138
 C1008 C 0.36461 0.48662 0.26894
 C1009 C 0.40810 0.50054 0.17459
 C1010 C 0.41822 0.49264 0.20166
 C1011 C 0.43306 0.49178 0.17332
 C1012 C 0.43836 0.49909 0.11762
 C1013 C 0.42844 0.50718 0.09068
 C1014 C 0.41339 0.50775 0.11864
 H1015 H 0.32552 0.47120 0.28384
 H1016 H 0.29908 0.47131 0.33324
 H1017 H 0.33195 0.53312 0.34495
 H1018 H 0.35905 0.53287 0.29986
 H1019 H 0.37078 0.52851 0.21352
 H1020 H 0.39781 0.52830 0.16803
 H1021 H 0.38177 0.47402 0.24866
 H1022 H 0.35576 0.47506 0.29794
 H1023 H 0.41484 0.48729 0.24509
 H1024 H 0.44059 0.48565 0.19537
 H1025 H 0.43208 0.51277 0.04751
 H1026 H 0.40572 0.51358 0.09590
 C1027 C 1.15507 0.65827 0.28826
 C1028 C 1.17236 0.65827 0.29723
 C1029 C 1.18776 0.67355 0.32528
 C1030 C 1.18643 0.68941 0.34447
 C1031 C 1.16923 0.68953 0.33486
 C1032 C 1.15372 0.67413 0.30745
 C1033 C 1.13852 0.64178 0.25934
 C1034 C 1.12624 0.64471 0.22300
 C1035 C 1.11068 0.62921 0.19610
 C1036 C 1.10721 0.61046 0.20426
 C1037 C 1.11946 0.60747 0.24022
 C1038 C 1.13485 0.62292 0.26779
 C1039 C 1.09089 0.59407 0.17515
 C1040 C 1.09359 0.58033 0.14606
 C1041 C 1.07825 0.56499 0.11791
 C1042 C 1.05983 0.56290 0.11911
 C1043 C 1.05712 0.57657 0.14875
 C1044 C 1.07253 0.59208 0.17611
 H1045 H 1.17407 0.64649 0.28228
 H1046 H 1.20064 0.67276 0.33264
 H1047 H 1.16773 0.70159 0.34828
 H1048 H 1.14058 0.67456 0.30203
 H1049 H 1.12880 0.65902 0.21455
 H1050 H 1.10155 0.63189 0.16801
 H1051 H 1.11693 0.59311 0.24772
 H1052 H 1.14371 0.62003 0.29637
 H1053 H 1.10765 0.58164 0.14436
 H1054 H 1.08082 0.55473 0.09541
 H1055 H 1.04313 0.57541 0.15026
 H1056 H 1.07008 0.60243 0.19859
 C1057 C 0.49630 0.15524 0.28853
 C1058 C 0.48002 0.15745 0.28747
 C1059 C 0.48001 0.17263 0.31652
 C1060 C 0.49635 0.18606 0.34678
 C1061 C 0.51266 0.18398 0.34758
 C1062 C 0.51262 0.16870 0.31902
 C1063 C 0.49623 0.13893 0.25832
 C1064 C 0.51282 0.14136 0.23073
 C1065 C 0.51284 0.12596 0.20312
 C1066 C 0.49621 0.10777 0.20199
 C1067 C 0.47957 0.10537 0.22915
 C1068 C 0.47960 0.12073 0.25715
 C1069 C 0.49627 0.09133 0.17295
 C1070 C 0.48605 0.07276 0.19619
 C1071 C 0.48610 0.05732 0.16902
 C1072 C 0.49651 0.06010 0.11823
 C1073 C 0.50678 0.07865 0.09502
 C1074 C 0.50658 0.09407 0.12192
 H1075 H 0.46733 0.14757 0.26359
 H1076 H 0.46732 0.17404 0.31465
 H1077 H 0.52535 0.19399 0.37128
 H1078 H 0.52527 0.16726 0.32170
 H1079 H 0.52581 0.15522 0.23008
 H1080 H 0.52598 0.12828 0.18328
 H1081 H 0.46644 0.09164 0.22848
 H1082 H 0.46664 0.11826 0.27853
 H1083 H 0.47824 0.07017 0.23595
 H1084 H 0.47816 0.04323 0.18825
 H1085 H 0.51483 0.08126 0.05570
 H1086 H 0.51434 0.10810 0.10227
 C1087 C 0.65905 0.50392 0.28679
 C1088 C 0.65565 0.48816 0.32094
 C1089 C 0.67077 0.48792 0.34973
 C1090 C 0.68951 0.50356 0.34560
 C1091 C 0.69291 0.51937 0.31170
 C1092 C 0.67783 0.51947 0.28217
 C1093 C 0.64302 0.50418 0.25644
 C1094 C 0.64466 0.50919 0.19826
 C1095 C 0.62945 0.50932 0.16960
 C1096 C 0.61246 0.50474 0.19891
 C1097 C 0.61088 0.49986 0.25718
 C1098 C 0.62596 0.49944 0.28558
 C1099 C 0.59639 0.50502 0.16886
 C1100 C 0.58732 0.51432 0.19350
 C1101 C 0.57197 0.51437 0.16563
 C1102 C 0.56518 0.50485 0.11300
 C1103 C 0.57429 0.49557 0.08829
 C1104 C 0.58985 0.49579 0.11576
 H1105 H 0.64130 0.47595 0.32488
 H1106 H 0.66780 0.47563 0.37591
 H1107 H 0.70727 0.53154 0.30764
 H1108 H 0.68078 0.53183 0.25638
 H1109 H 0.65764 0.51279 0.17483
 H1110 H 0.63103 0.51322 0.12473
 H1111 H 0.59786 0.49614 0.28056
 H1112 H 0.62441 0.49564 0.33054
 H1113 H 0.59221 0.52165 0.23421
 H1114 H 0.56519 0.52159 0.18579
 H1115 H 0.56943 0.48819 0.04763
 H1116 H 0.59656 0.48843 0.09609
 C1117 C 0.84272 0.34157 0.28309
 C1118 C 0.82705 0.34322 0.30248
 C1119 C 0.81178 0.32804 0.33122
 C1120 C 0.81188 0.31089 0.34201
 C1121 C 0.82756 0.30928 0.32269
 C1122 C 0.84267 0.32433 0.29323
 C1123 C 0.85913 0.35779 0.25302
 C1124 C 0.87794 0.36129 0.26096
 C1125 C 0.89335 0.37641 0.23270
 C1126 C 0.89046 0.38869 0.19644
 C1127 C 0.87166 0.38526 0.18864
 C1128 C 0.85618 0.36993 0.21626
 C1129 C 0.90701 0.40507 0.16739
 C1130 C 0.90506 0.41087 0.11208
 C1131 C 0.92061 0.42634 0.08520
 C1132 C 0.93854 0.43616 0.11264
 C1133 C 0.94057 0.43032 0.16759
 C1134 C 0.92497 0.41509 0.19484
 H1135 H 0.82667 0.35635 0.29620
 H1136 H 0.79985 0.32974 0.34467
 H1137 H 0.82835 0.29646 0.33094
 H1138 H 0.85428 0.32235 0.27816
 H1139 H 0.88086 0.35247 0.28958
 H1140 H 0.90755 0.37837 0.23910
 H1141 H 0.86887 0.39454 0.16170
 H1142 H 0.84189 0.36755 0.20839
 H1143 H 0.89158 0.40331 0.08913
 H1144 H 0.91868 0.43044 0.04258
 H1145 H 0.95417 0.43778 0.19005
 H1146 H 0.92695 0.41136 0.23786
   
