data_POSCAR
  _audit_creation_date              2014-09-24
  _audit_creation_method            'ToBaCCo'
  _symmetry_space_group_name_H-M    'P1'
  _symmetry_Int_Tables_number       1
  _symmetry_cell_setting            triclinic
  loop_
  _symmetry_equiv_pos_as_xyz
 x,y,z
_cell_length_a 27.8202
_cell_length_b 27.8832
_cell_length_c 66.7288
_cell_angle_alpha 84.657600
_cell_angle_beta 92.693300
_cell_angle_gamma 120.116900
loop_
  _atom_site_label
  _atom_site_type_symbol
  _atom_site_fract_x
  _atom_site_fract_y
  _atom_site_fract_z
C1 C 0.00718 0.10508 0.52539
 H2 H 0.04638 0.10592 0.52470
 C3 C 0.00209 0.14054 0.53740
 H4 H 0.03741 0.16871 0.54608
 C5 C -0.08658 0.06765 0.51471
 H6 H -0.12069 0.03954 0.50566
 C7 C -0.09347 0.10261 0.52660
 H8 H -0.13308 0.10117 0.52682
 N9 N -0.03684 0.06933 0.51448
 C10 C -0.00114 -0.06268 0.50613
 H11 H 0.00157 -0.05995 0.48991
 C12 C 0.00090 -0.10603 0.51774
 H13 H 0.00576 -0.13650 0.51048
 C14 C -0.01432 -0.02846 0.53542
 H15 H -0.02221 0.00055 0.54223
 C16 C -0.01242 -0.07102 0.54756
 H17 H -0.01805 -0.07407 0.56367
 Zn18 Zn -0.02240 0.02563 0.49845
 N19 N -0.00908 -0.02527 0.51508
 C20 C 0.08763 0.07344 0.48248
 N21 N 0.03997 0.07591 0.48245
 C22 C 0.03538 0.11694 0.47140
 C23 C 0.07946 0.15724 0.45948
 C24 C 0.13291 0.11312 0.47071
 C25 C -0.13085 -0.05897 0.49073
 C26 C -0.17339 -0.09785 0.47914
 C27 C -0.11791 -0.04963 0.44935
 C28 C -0.07646 -0.01185 0.46148
 N29 N -0.08330 -0.01750 0.48180
 H30 H 0.09070 0.04107 0.49166
 H31 H -0.00277 0.11823 0.47190
 H32 H 0.07528 0.18963 0.45068
 H33 H 0.17075 0.11103 0.47071
 H34 H -0.13463 -0.06326 0.50694
 H35 H -0.21025 -0.13180 0.48650
 H36 H -0.11107 -0.04564 0.43326
 H37 H -0.03787 0.02029 0.45470
 C38 C -0.00552 -0.11057 0.53862
 C39 C -0.04861 0.13933 0.53804
 C40 C -0.16640 -0.09364 0.45827
 C41 C 0.12863 0.15533 0.45911
 C42 C 1.14166 0.06106 0.13979
 H43 H 1.14311 0.10052 0.13995
 C44 C 1.17909 0.05672 0.12798
 H45 H 1.20940 0.09289 0.11892
 C46 C 1.10057 -0.03425 0.15154
 H47 H 1.07022 -0.06933 0.16092
 C48 C 1.13740 -0.04041 0.13989
 H49 H 1.13514 -0.08040 0.14017
 N50 N 1.10313 0.01589 0.15111
 C51 C 0.96931 0.05085 0.15834
 H52 H 0.96861 0.05116 0.17452
 C53 C 0.92774 0.05363 0.14656
 H54 H 0.89522 0.05667 0.15364
 C55 C 1.01009 0.04242 0.12940
 H56 H 1.04086 0.03591 0.12282
 C57 C 0.96943 0.04518 0.11710
 H58 H 0.96960 0.04155 0.10108
 Zn59 Zn 1.05623 0.02856 0.16670
 N60 N 1.00899 0.04469 0.14966
 C61 C 1.10072 0.13580 0.18186
 N62 N 1.10325 0.08820 0.18227
 C63 C 1.14180 0.08158 0.19357
 C64 C 1.17928 0.12336 0.20539
 C65 C 1.13760 0.17880 0.19352
 C66 C 0.96926 -0.08071 0.17509
 C67 C 0.92773 -0.12506 0.18689
 C68 C 0.96960 -0.07480 0.21633
 C69 C 1.01022 -0.03139 0.20401
 N70 N 1.00902 -0.03481 0.18375
 H71 H 1.07035 0.14051 0.17250
 H72 H 1.14321 0.04354 0.19339
 H73 H 1.20960 0.11751 0.21443
 H74 H 1.13536 0.21653 0.19326
 H75 H 0.96848 -0.08176 0.15890
 H76 H 0.89515 -0.16066 0.17982
 H77 H 0.96985 -0.07096 0.23235
 H78 H 1.04105 0.00595 0.21058
 C79 C 0.92738 0.04988 0.12579
 C80 C 1.17691 0.00557 0.12799
 C81 C 0.92748 -0.12161 0.20766
 C82 C 1.17713 0.17234 0.20541
 C83 C 0.03497 0.91746 0.86184
 H84 H -0.00316 0.87797 0.86131
 C85 C 0.07901 0.92129 0.87379
 H86 H 0.07481 0.88472 0.88260
 C87 C 0.08723 1.01329 0.85079
 H88 H 0.09032 1.04875 0.84160
 C89 C 0.13246 1.01895 0.86260
 H90 H 0.17029 1.05893 0.86263
 N91 N 0.03959 0.96310 0.85078
 C92 C -0.13121 0.92698 0.84241
 H93 H -0.13496 0.92751 0.82619
 C94 C -0.17375 0.92329 0.85398
 H95 H -0.21061 0.92039 0.84665
 C96 C -0.07688 0.93428 0.87168
 H97 H -0.03831 0.94076 0.87849
 C98 C -0.11835 0.93057 0.88379
 H99 H -0.11165 0.93343 0.89988
 Zn100 Zn -0.02274 0.95094 0.83475
 N101 N -0.08368 0.93309 0.85137
 C102 C -0.08689 0.84469 0.81845
 N103 N -0.03715 0.89280 0.81871
 C104 C 0.00690 0.90112 0.80783
 C105 C 0.00182 0.86057 0.79581
 C106 C -0.09377 0.80284 0.80656
 C107 C -0.00147 1.06054 0.82707
 C108 C 0.00060 1.10594 0.81546
 C109 C -0.01263 1.05764 0.78564
 C110 C -0.01456 1.01316 0.79778
 N111 N -0.00939 1.01519 0.81812
 H112 H -0.12103 0.83865 0.82749
 H113 H 0.04610 0.93951 0.80854
 H114 H 0.03715 0.86775 0.78715
 H115 H -0.13338 0.76463 0.80632
 H116 H 0.00120 1.06051 0.84330
 H117 H 0.00545 1.14128 0.82272
 H118 H -0.01822 1.05507 0.76952
 H119 H -0.02244 0.97626 0.79097
 C120 C -0.16678 0.92606 0.87484
 C121 C 0.12816 0.97244 0.87420
 C122 C -0.00576 1.10408 0.79458
 C123 C -0.04889 0.81103 0.79515
 O124 O 0.54877 -0.05138 0.02254
 O125 O 0.44361 -0.06307 -0.01566
 O126 O 0.53584 -0.06622 -0.01574
 O127 O 0.45372 -0.05402 0.02289
 O128 O 0.49865 0.03743 0.01661
 O129 O 0.58165 0.02518 -0.02215
 O130 O 0.48953 0.02838 -0.02193
 O131 O 0.59370 0.04002 0.01612
 Cu132 Cu 0.49099 -0.06787 0.00414
 Cu133 Cu 0.54552 0.04195 -0.00347
 C134 C 0.58910 -0.00349 0.02571
 C135 C 0.44878 -0.01904 -0.02513
 C136 C 0.57269 -0.02280 -0.02541
 C137 C 0.46184 -0.00649 0.02618
 O138 O 0.00084 0.54280 0.68612
 O139 O 0.00088 0.45724 0.64709
 O140 O 0.00386 0.55225 0.64703
 O141 O 0.00383 0.45077 0.68618
 O142 O -0.08807 0.40420 0.68625
 O143 O -0.08804 0.50681 0.64691
 O144 O -0.09102 0.41163 0.64711
 O145 O -0.09106 0.49639 0.68606
 Cu146 Cu 0.01158 0.50539 0.66661
 Cu147 Cu -0.09880 0.45013 0.66658
 C148 C -0.04532 0.53407 0.69259
 C149 C -0.04526 0.41976 0.64059
 C150 C -0.04181 0.54706 0.64043
 C151 C -0.04186 0.41023 0.69276
 O152 O 0.58236 0.55714 0.35572
 O153 O 0.49913 0.46195 0.31693
 O154 O 0.59423 0.55445 0.31744
 O155 O 0.49017 0.46175 0.35549
 O156 O 0.44431 0.50730 0.34929
 O157 O 0.54936 0.60095 0.31110
 O158 O 0.45426 0.50849 0.31073
 O159 O 0.53661 0.60275 0.34939
 Cu160 Cu 0.54611 0.50426 0.33703
 Cu161 Cu 0.49164 0.55958 0.32950
 C162 C 0.57347 0.59616 0.35903
 C163 C 0.46232 0.46909 0.30739
 C164 C 0.58964 0.59339 0.30788
 C165 C 0.44946 0.46840 0.35872
 C166 C -0.06753 0.31597 0.57748
 C167 C -0.01753 0.30993 0.57179
 C168 C -0.05441 0.24638 0.57482
 C169 C -0.10443 0.25175 0.58028
 C170 C -0.05016 0.31626 0.59969
 C171 C -0.08703 0.25271 0.60272
 C172 C -0.00019 0.31083 0.59421
 C173 C -0.03706 0.24676 0.59703
 C174 C -0.05520 0.20753 0.56129
 C175 C -0.05364 0.17601 0.55050
 C176 C -0.04763 0.35452 0.61389
 C177 C -0.04601 0.38499 0.62590
 H178 H -0.07995 0.34493 0.56960
 H179 H 0.01099 0.33303 0.55890
 H180 H -0.14729 0.22702 0.57441
 H181 H -0.11554 0.22960 0.61561
 H182 H 0.04269 0.33552 0.60007
 H183 H -0.02461 0.21784 0.60494
 C184 C 0.76694 0.69457 0.26610
 C185 C 0.76301 0.70114 0.24286
 C186 C 0.79683 0.76459 0.24360
 C187 C 0.80144 0.75858 0.26662
 C188 C 0.71353 0.69740 0.26781
 C189 C 0.74739 0.76086 0.26852
 C190 C 0.70883 0.70335 0.24478
 C191 C 0.74342 0.76743 0.24530
 C192 C 0.84351 0.80321 0.23043
 C193 C 0.88193 0.83653 0.21989
 C194 C 0.66794 0.66036 0.28165
 C195 C 0.63150 0.62991 0.29342
 H196 H 0.77611 0.66418 0.27482
 H197 H 0.76999 0.67701 0.23217
 H198 H 0.84003 0.78164 0.27547
 H199 H 0.74047 0.78505 0.27920
 H200 H 0.67021 0.68027 0.23596
 H201 H 0.73426 0.79782 0.23659
 C202 C 0.30665 0.01577 -0.06401
 C203 C 0.31248 0.02790 -0.08717
 C204 C 0.25385 -0.02200 -0.08947
 C205 C 0.24739 -0.03412 -0.06651
 C206 C 0.33024 -0.02335 -0.06504
 C207 C 0.27160 -0.07323 -0.06734
 C208 C 0.33677 -0.01122 -0.08799
 C209 C 0.27741 -0.06114 -0.09051
 C210 C 0.21044 -0.02206 -0.10278
 C211 C 0.17361 -0.02353 -0.11343
 C212 C 0.37252 -0.02349 -0.05114
 C213 C 0.40727 -0.02239 -0.03941
 H214 H 0.31911 0.04738 -0.05295
 H215 H 0.32879 0.06948 -0.09546
 H216 H 0.21021 -0.04345 -0.05782
 H217 H 0.25526 -0.11482 -0.05906
 H218 H 0.37398 -0.00189 -0.09666
 H219 H 0.26491 -0.09274 -0.10158
 C220 C -0.05406 0.70954 0.60343
 C221 C 0.00233 0.76032 0.59652
 C222 C -0.01941 0.75557 0.57478
 C223 C -0.07576 0.70544 0.58150
 C224 C -0.03163 0.67095 0.59946
 C225 C -0.05341 0.66610 0.57773
 C226 C 0.02471 0.72109 0.59274
 C227 C 0.00305 0.71703 0.57079
 C228 C -0.01300 0.80319 0.56142
 C229 C -0.00875 0.84256 0.55082
 C230 C -0.03743 0.62491 0.61361
 C231 C -0.04057 0.58845 0.62566
 H232 H -0.07766 0.70594 0.61699
 H233 H 0.02537 0.79956 0.60409
 H234 H -0.11702 0.69955 0.57671
 H235 H -0.07645 0.62683 0.57018
 H236 H 0.06598 0.72702 0.59753
 H237 H 0.02666 0.72069 0.55723
 C238 C 0.32850 0.37564 0.24973
 C239 C 0.34198 0.34327 0.23540
 C240 C 0.28780 0.29010 0.24198
 C241 C 0.27373 0.32182 0.25608
 C242 C 0.35893 0.36066 0.26679
 C243 C 0.30474 0.30747 0.27333
 C244 C 0.37304 0.32894 0.25269
 C245 C 0.31826 0.27516 0.25904
 C246 C 0.24800 0.24974 0.22851
 C247 C 0.21542 0.21524 0.21778
 C248 C 0.39757 0.39952 0.28092
 C249 C 0.42803 0.43129 0.29286
 H250 H 0.33321 0.41744 0.24606
 H251 H 0.35678 0.35756 0.21964
 H252 H 0.23249 0.31850 0.25732
 H253 H 0.28988 0.29311 0.28909
 H254 H 0.41428 0.33227 0.25146
 H255 H 0.31357 0.23337 0.26273
 C256 C 0.67954 -0.01829 -0.08781
 C257 C 0.74120 -0.00158 -0.08409
 C258 C 0.72823 -0.05871 -0.09017
 C259 C 0.66711 -0.07559 -0.09412
 C260 C 0.66648 -0.04298 -0.06588
 C261 C 0.65347 -0.10014 -0.07195
 C262 C 0.72760 -0.02615 -0.06196
 C263 C 0.71513 -0.08336 -0.06823
 C264 C 0.76414 -0.06639 -0.10332
 C265 C 0.79558 -0.07100 -0.11376
 C266 C 0.63276 -0.03450 -0.05194
 C267 C 0.60533 -0.02841 -0.04005
 H268 H 0.66458 0.00861 -0.09570
 H269 H 0.77769 0.03889 -0.08923
 H270 H 0.64264 -0.09607 -0.10748
 H271 H 0.61698 -0.14059 -0.06680
 H272 H 0.75215 -0.00566 -0.04861
 H273 H 0.73008 -0.11026 -0.06032
 C274 C 0.33334 -0.04263 0.08527
 C275 C 0.34476 0.00630 0.09773
 C276 C 0.28751 -0.00163 0.09148
 C277 C 0.27549 -0.05050 0.07925
 C278 C 0.35859 -0.00119 0.06672
 C279 C 0.30132 -0.00910 0.06050
 C280 C 0.37063 0.04770 0.07894
 C281 C 0.31278 0.03978 0.07292
 C282 C 0.24773 -0.00102 0.10493
 C283 C 0.21517 0.00094 0.11564
 C284 C 0.39719 -0.00149 0.05261
 C285 C 0.42760 -0.00289 0.04069
 H286 H 0.34230 -0.07648 0.09020
 H287 H 0.36212 0.01255 0.11321
 H288 H 0.23596 -0.09086 0.07953
 H289 H 0.28391 -0.01535 0.04503
 H290 H 0.41015 0.08806 0.07866
 H291 H 0.30384 0.07365 0.06798
 C292 C 0.72654 0.75840 0.39447
 C293 C 0.71100 0.79897 0.40269
 C294 C 0.72973 0.78771 0.42375
 C295 C 0.74577 0.74773 0.41572
 C296 C 0.66767 0.71018 0.39948
 C297 C 0.68637 0.69885 0.42055
 C298 C 0.65158 0.75014 0.40751
 C299 C 0.67087 0.73953 0.42881
 C300 C 0.76583 0.83133 0.43689
 C301 C 0.79743 0.86739 0.44732
 C302 C 0.63379 0.66795 0.38555
 C303 C 0.60624 0.63442 0.37367
 H304 H 0.74912 0.76570 0.38021
 H305 H 0.72145 0.84059 0.39549
 H306 H 0.78493 0.74723 0.41923
 H307 H 0.67592 0.65723 0.42773
 H308 H 0.61243 0.75062 0.40398
 H309 H 0.64838 0.73232 0.44307
 C310 C -0.01142 0.25807 0.72739
 C311 C 0.02762 0.27257 0.74591
 C312 C -0.01955 0.22408 0.75841
 C313 C -0.05852 0.20901 0.74008
 C314 C -0.03174 0.29650 0.73373
 C315 C -0.07895 0.24802 0.74623
 C316 C 0.00724 0.31163 0.75206
 C317 C -0.03989 0.26246 0.76479
 C318 C -0.01318 0.18287 0.77177
 C319 C -0.00896 0.14774 0.78237
 C320 C -0.03752 0.33674 0.71958
 C321 C -0.04065 0.37006 0.70753
 H322 H 0.00015 0.25663 0.71185
 H323 H 0.07149 0.28224 0.74592
 H324 H -0.08545 0.16635 0.73529
 H325 H -0.12282 0.23836 0.74620
 H326 H 0.03417 0.35430 0.75684
 H327 H -0.05144 0.26383 0.78034
 C328 C 0.76749 0.07246 0.06686
 C329 C 0.76418 0.06407 0.09015
 C330 C 0.79658 0.03288 0.08991
 C331 C 0.80057 0.04139 0.06684
 C332 C 0.71316 0.01664 0.06575
 C333 C 0.74560 -0.01450 0.06552
 C334 C 0.70908 0.00811 0.08881
 C335 C 0.74225 -0.02294 0.08879
 C336 C 0.84332 0.04100 0.10306
 C337 C 0.88179 0.04614 0.11357
 C338 C 0.66751 0.00802 0.05192
 C339 C 0.63102 0.00195 0.04016
 H340 H 0.77737 0.11160 0.05768
 H341 H 0.77238 0.09650 0.10041
 H342 H 0.83870 0.05524 0.05794
 H343 H 0.73746 -0.04694 0.05527
 H344 H 0.67092 -0.00575 0.09769
 H345 H 0.73239 -0.06208 0.09797
 C346 C 0.27667 0.30435 0.39158
 C347 C 0.28598 0.26515 0.40723
 C348 C 0.25446 0.27583 0.42291
 C349 C 0.24451 0.31441 0.40746
 C350 C 0.33090 0.35382 0.39856
 C351 C 0.29939 0.36454 0.41423
 C352 C 0.34088 0.31526 0.41400
 C353 C 0.30866 0.32528 0.42991
 C354 C 0.21101 0.23234 0.43618
 C355 C 0.17414 0.19688 0.44679
 C356 C 0.37320 0.39638 0.38469
 C357 C 0.40795 0.43012 0.37298
 H358 H 0.26392 0.29624 0.37568
 H359 H 0.28003 0.22384 0.40450
 H360 H 0.20437 0.31354 0.40490
 H361 H 0.30535 0.40586 0.41695
 H362 H 0.38102 0.31614 0.41655
 H363 H 0.32135 0.33333 0.44582
 C364 C -0.00795 0.65958 0.75032
 C365 C -0.00610 0.71533 0.74398
 C366 C -0.05464 0.69820 0.75837
 C367 C -0.05652 0.64298 0.76493
 C368 C -0.05031 0.63261 0.73349
 C369 C -0.09890 0.61539 0.74787
 C370 C -0.04843 0.68784 0.72696
 C371 C -0.09700 0.67124 0.74154
 C372 C -0.05545 0.73625 0.77190
 C373 C -0.05390 0.76933 0.78269
 C374 C -0.04775 0.59691 0.71930
 C375 C -0.04610 0.56807 0.70729
 H376 H 0.02871 0.65443 0.75377
 H377 H 0.03205 0.75686 0.74252
 H378 H -0.05995 0.62493 0.78070
 H379 H -0.13702 0.57383 0.74931
 H380 H -0.04499 0.70595 0.71120
 H381 H -0.13365 0.67640 0.73809
   
