data_POSCAR
  _audit_creation_date              2014-09-24
  _audit_creation_method            'ToBaCCo'
  _symmetry_space_group_name_H-M    'P1'
  _symmetry_Int_Tables_number       1
  _symmetry_cell_setting            triclinic
  loop_
  _symmetry_equiv_pos_as_xyz
 x,y,z
_cell_length_a 50.4862
_cell_length_b 50.5284
_cell_length_c 50.4469
_cell_angle_alpha 90.014100
_cell_angle_beta 89.997300
_cell_angle_gamma 89.984100
loop_
  _atom_site_label
  _atom_site_type_symbol
  _atom_site_fract_x
  _atom_site_fract_y
  _atom_site_fract_z
C1 C 0.15410 0.17312 0.19304
 C2 C 0.15407 0.19277 0.17341
 C3 C 0.17342 0.19279 0.15403
 C4 C 0.19311 0.17320 0.15407
 C5 C 0.19309 0.15389 0.17335
 C6 C 0.17341 0.15385 0.19301
 C7 C 0.13805 0.16849 0.21454
 N8 N 0.14699 0.14670 0.22788
 C9 C 0.16877 0.13777 0.21449
 C10 C 0.21458 0.13784 0.16871
 N11 N 0.22798 0.14681 0.14694
 C12 C 0.21462 0.16860 0.13801
 C13 C 0.16877 0.21429 0.13795
 N14 N 0.14707 0.22737 0.14711
 C15 C 0.13798 0.21427 0.16883
 H16 H 0.12106 0.18044 0.21962
 H17 H 0.18102 0.12107 0.21982
 H18 H 0.21992 0.12113 0.18093
 H19 H 0.21969 0.18055 0.12101
 H20 H 0.18070 0.22025 0.12116
 H21 H 0.12082 0.21981 0.18042
 C22 C -0.15404 0.82681 0.19303
 C23 C -0.15400 0.80723 0.17331
 C24 C -0.17338 0.80725 0.15397
 C25 C -0.19302 0.82690 0.15403
 C26 C -0.19298 0.84616 0.17337
 C27 C -0.17333 0.84611 0.19304
 C28 C -0.13798 0.83140 0.21455
 N29 N -0.14691 0.85317 0.22793
 C30 C -0.16868 0.86215 0.21455
 C31 C -0.21446 0.86225 0.16876
 N32 N -0.22786 0.85333 0.14696
 C33 C -0.21452 0.83155 0.13798
 C34 C -0.16880 0.78577 0.13784
 N35 N -0.14707 0.77267 0.14691
 C36 C -0.13792 0.78574 0.16863
 H37 H -0.12098 0.81945 0.21959
 H38 H -0.18091 0.87885 0.21992
 H39 H -0.21979 0.87893 0.18103
 H40 H -0.21961 0.81962 0.12097
 H41 H -0.18038 0.78024 0.12067
 H42 H -0.12112 0.77978 0.18055
 C43 C -0.15404 0.17305 -0.19281
 C44 C -0.15404 0.19269 -0.17316
 C45 C -0.17342 0.19270 -0.15380
 C46 C -0.19302 0.17303 -0.15380
 C47 C -0.19296 0.15373 -0.17310
 C48 C -0.17334 0.15377 -0.19280
 C49 C -0.13797 0.16841 -0.21431
 N50 N -0.14693 0.14665 -0.22769
 C51 C -0.16871 0.13772 -0.21431
 C52 C -0.21443 0.13765 -0.16846
 N53 N -0.22784 0.14661 -0.14669
 C54 C -0.21452 0.16841 -0.13775
 C55 C -0.16886 0.21423 -0.13774
 N56 N -0.14716 0.22732 -0.14685
 C57 C -0.13798 0.21420 -0.16853
 H58 H -0.12128 0.18065 -0.21968
 H59 H -0.18065 0.12072 -0.21937
 H60 H -0.21976 0.12096 -0.18071
 H61 H -0.21962 0.18038 -0.12076
 H62 H -0.18045 0.21980 -0.12058
 H63 H -0.12120 0.22014 -0.18048
 C64 C 0.15410 0.82722 -0.19288
 C65 C 0.15416 0.80747 -0.17335
 C66 C 0.17352 0.80741 -0.15399
 C67 C 0.19314 0.82706 -0.15394
 C68 C 0.19310 0.84640 -0.17319
 C69 C 0.17341 0.84649 -0.19283
 C70 C 0.13801 0.83192 -0.21434
 N71 N 0.14696 0.85372 -0.22766
 C72 C 0.16877 0.86260 -0.21428
 C73 C 0.21460 0.86243 -0.16855
 N74 N 0.22799 0.85344 -0.14679
 C75 C 0.21464 0.83165 -0.13787
 C76 C 0.16892 0.78584 -0.13798
 N77 N 0.14725 0.77276 -0.14718
 C78 C 0.13812 0.78594 -0.16884
 H79 H 0.12134 0.81969 -0.21975
 H80 H 0.18072 0.87960 -0.21931
 H81 H 0.21963 0.87945 -0.18046
 H82 H 0.22003 0.81936 -0.12121
 H83 H 0.18087 0.77985 -0.12122
 H84 H 0.12094 0.78042 -0.18043
 C85 C 0.17232 1.15335 0.80775
 C86 C 0.19191 1.15331 0.82747
 C87 C 0.19190 1.17270 0.84680
 C88 C 0.17227 1.19234 0.84672
 C89 C 0.15300 1.19230 0.82739
 C90 C 0.15303 1.17264 0.80773
 C91 C 0.16776 1.13732 0.78622
 N92 N 0.14601 1.14627 0.77281
 C93 C 0.13701 1.16802 0.78619
 C94 C 0.13695 1.21381 0.83194
 N95 N 0.14592 1.22724 0.85370
 C96 C 0.16767 1.21388 0.86271
 C97 C 0.21343 1.16815 0.86289
 N98 N 0.22654 1.14645 0.85381
 C99 C 0.21343 1.13726 0.83213
 H100 H 0.17973 1.12033 0.78118
 H101 H 0.12034 1.18028 0.78078
 H102 H 0.12029 1.21917 0.81964
 H103 H 0.17963 1.21898 0.87971
 H104 H 0.21900 1.17976 0.88003
 H105 H 0.21940 1.12049 0.82019
 C106 C 0.82764 0.84637 0.80754
 C107 C 0.80802 0.84638 0.82723
 C108 C 0.80805 0.82700 0.84656
 C109 C 0.82772 0.80739 0.84650
 C110 C 0.84699 0.80744 0.82717
 C111 C 0.84692 0.82708 0.80749
 C112 C 0.83223 0.86244 0.78605
 N113 N 0.85396 0.85347 0.77260
 C114 C 0.86293 0.83169 0.78594
 C115 C 0.86307 0.78596 0.83173
 N116 N 0.85412 0.77255 0.85350
 C117 C 0.83234 0.78588 0.86250
 C118 C 0.78652 0.83154 0.86265
 N119 N 0.77340 0.85324 0.85358
 C120 C 0.78650 0.86242 0.83190
 H121 H 0.81997 0.87913 0.78072
 H122 H 0.87992 0.81974 0.78082
 H123 H 0.87974 0.78062 0.81944
 H124 H 0.82039 0.78078 0.87950
 H125 H 0.78096 0.81994 0.87980
 H126 H 0.78053 0.87920 0.81998
 C127 C 0.17223 0.84695 1.19224
 C128 C 0.19197 0.84691 1.17268
 C129 C 0.19207 0.82756 1.15331
 C130 C 0.17244 0.80792 1.15328
 C131 C 0.15305 0.80794 1.17262
 C132 C 0.15297 0.82763 1.19223
 C133 C 0.16756 0.86300 1.21373
 N134 N 0.14580 0.85401 1.22711
 C135 C 0.13690 0.83222 1.21374
 C136 C 0.13706 0.78638 1.16806
 N137 N 0.14624 0.77324 1.14640
 C138 C 0.16791 0.78636 1.13724
 C139 C 0.21366 0.83215 1.13732
 N140 N 0.22673 0.85382 1.14652
 C141 C 0.21352 0.86295 1.16818
 H142 H 0.17981 0.87967 1.21913
 H143 H 0.11993 0.82024 1.21882
 H144 H 0.11989 0.78081 1.17964
 H145 H 0.17991 0.78038 1.12050
 H146 H 0.21969 0.82021 1.12057
 H147 H 0.21903 0.88011 1.17977
 C148 C 0.82764 1.15356 1.19247
 C149 C 0.80790 1.15362 1.17290
 C150 C 0.80785 1.17297 1.15354
 C151 C 0.82750 1.19257 1.15352
 C152 C 0.84688 1.19253 1.17287
 C153 C 0.84692 1.17284 1.19248
 C154 C 0.83228 1.13749 1.21395
 N155 N 0.85405 1.14644 1.22734
 C156 C 0.86299 1.16822 1.21398
 C157 C 0.86292 1.21406 1.16831
 N158 N 0.85378 1.22720 1.14664
 C159 C 0.83209 1.21411 1.13748
 C160 C 0.78627 1.16838 1.13752
 N161 N 0.77317 1.14673 1.14671
 C162 C 0.78634 1.13760 1.16838
 H163 H 0.82001 1.12084 1.21934
 H164 H 0.87997 1.18017 1.21907
 H165 H 0.88010 1.21960 1.17989
 H166 H 0.82011 1.22009 1.12073
 H167 H 0.78027 1.18032 1.12076
 H168 H 0.78081 1.12045 1.17996
 N169 N 0.47212 1.04688 1.02849
 N170 N 0.45141 1.06260 1.03123
 N171 N 0.52792 1.02860 1.04690
 N172 N 0.54862 1.03138 1.06264
 N173 N 0.52789 1.04695 1.02848
 N174 N 0.54857 1.06270 1.03119
 N175 N 0.47214 1.02853 1.04691
 N176 N 0.45146 1.03127 1.06267
 C177 C 0.43873 1.05268 1.05271
 C178 C 0.56129 1.05280 1.05265
 N179 N 0.52804 0.95325 1.02857
 N180 N 0.54874 0.93754 1.03134
 N181 N 0.47223 0.97157 1.04696
 N182 N 0.45151 0.96886 1.06267
 N183 N 0.47226 0.95318 1.02857
 N184 N 0.45156 0.93747 1.03129
 N185 N 0.52801 0.97164 1.04695
 N186 N 0.54870 0.96893 1.06272
 Mn187 Mn 0.50008 1.00009 1.04727
 C188 C 0.56142 0.94751 1.05279
 C189 C 0.43883 0.94743 1.05271
 N190 N 0.52790 1.04688 0.97143
 N191 N 0.54858 1.06261 0.96868
 N192 N 0.47214 1.02842 0.95306
 N193 N 0.45141 1.03109 0.93734
 N194 N 0.47212 1.04681 0.97144
 N195 N 0.45139 1.06249 0.96873
 N196 N 0.52792 1.02849 0.95305
 N197 N 0.54862 1.03121 0.93730
 Mn198 Mn 0.50001 1.04722 0.99996
 C199 C 0.56130 1.05265 0.94724
 C200 C 0.43868 1.05250 0.94730
 N201 N 0.47225 0.95311 0.97152
 N202 N 0.45157 0.93737 0.96881
 N203 N 0.52800 0.97153 0.95310
 N204 N 0.54871 0.96881 0.93736
 N205 N 0.52802 0.95318 0.97152
 N206 N 0.54875 0.93749 0.96881
 N207 N 0.47222 0.97146 0.95311
 N208 N 0.45152 0.96870 0.93737
 Mn209 Mn 0.50014 0.95284 1.00005
 Mn210 Mn 0.50007 0.99998 0.95274
 Cl211 Cl 0.50007 1.00003 1.00000
 C212 C 0.43885 0.94728 0.94735
 C213 C 0.56144 0.94742 0.94735
 N214 N 0.02870 0.47211 0.04654
 N215 N 0.03142 0.45145 0.06231
 N216 N 0.04718 0.52781 0.02816
 N217 N 0.06292 0.54849 0.03086
 N218 N 0.02880 0.52784 0.04656
 N219 N 0.03153 0.54855 0.06228
 N220 N 0.04708 0.47208 0.02814
 N221 N 0.06280 0.45139 0.03089
 C222 C 0.05285 0.43873 0.05236
 C223 C 0.05297 0.56121 0.05230
 N224 N 0.02880 0.52786 -0.04729
 N225 N 0.03157 0.54854 -0.06303
 N226 N 0.04706 0.47208 -0.02891
 N227 N 0.06272 0.45133 -0.03162
 N228 N 0.02868 0.47213 -0.04731
 N229 N 0.03132 0.45141 -0.06302
 N230 N 0.04718 0.52781 -0.02889
 N231 N 0.06296 0.54846 -0.03162
 Mn232 Mn 0.04747 0.49994 -0.00038
 C233 C 0.05303 0.56118 -0.05306
 C234 C 0.05271 0.43865 -0.05305
 N235 N -0.02821 0.52798 0.04657
 N236 N -0.03093 0.54864 0.06236
 N237 N -0.04670 0.47229 0.02816
 N238 N -0.06247 0.45163 0.03088
 N239 N -0.02831 0.47225 0.04655
 N240 N -0.03107 0.45157 0.06229
 N241 N -0.04659 0.52802 0.02818
 N242 N -0.06232 0.54871 0.03095
 Mn243 Mn 0.00024 0.50005 0.04690
 C244 C -0.05236 0.56136 0.05242
 C245 C -0.05253 0.43892 0.05233
 N246 N -0.02833 0.47226 -0.04730
 N247 N -0.03110 0.45157 -0.06304
 N248 N -0.04659 0.52803 -0.02888
 N249 N -0.06227 0.54876 -0.03159
 N250 N -0.02821 0.52799 -0.04728
 N251 N -0.03088 0.54869 -0.06301
 N252 N -0.04671 0.47230 -0.02890
 N253 N -0.06248 0.45165 -0.03162
 Mn254 Mn 0.00023 0.50006 -0.04763
 Mn255 Mn -0.04699 0.50016 -0.00036
 Cl256 Cl 0.00024 0.50005 -0.00037
 C257 C -0.05255 0.43893 -0.05308
 C258 C -0.05228 0.56144 -0.05303
 N259 N 0.95310 0.02857 0.52794
 N260 N 0.93736 0.03132 0.54864
 N261 N 0.97150 0.04690 0.47211
 N262 N 0.96880 0.06259 0.45138
 N263 N 0.95312 0.02854 0.47211
 N264 N 0.93741 0.03124 0.45137
 N265 N 0.97149 0.04694 0.52793
 N266 N 0.96874 0.06268 0.54864
 C267 C 0.94730 0.05274 0.56135
 C268 C 0.94739 0.05264 0.43865
 N269 N 1.04689 0.02853 0.47212
 N270 N 1.06265 0.03124 0.45143
 N271 N 1.02849 0.04694 0.52793
 N272 N 1.03118 0.06265 0.54866
 N273 N 1.04688 0.02857 0.52795
 N274 N 1.06258 0.03128 0.54869
 N275 N 1.02851 0.04690 0.47211
 N276 N 1.03126 0.06262 0.45140
 Mn277 Mn 1.00000 0.04726 0.50002
 C278 C 1.05271 0.05266 0.43870
 C279 C 1.05260 0.05270 0.56140
 N280 N 0.95312 -0.02843 0.47214
 N281 N 0.93737 -0.03119 0.45144
 N282 N 0.97151 -0.04676 0.52797
 N283 N 0.96879 -0.06246 0.54869
 N284 N 0.95311 -0.02839 0.52797
 N285 N 0.93739 -0.03110 0.54869
 N286 N 0.97151 -0.04680 0.47215
 N287 N 0.96876 -0.06255 0.45146
 Mn288 Mn 0.95277 0.00007 0.50004
 C289 C 0.94731 -0.05262 0.43875
 C290 C 0.94736 -0.05251 0.56141
 N291 N 1.04689 -0.02839 0.52797
 N292 N 1.06263 -0.03110 0.54868
 N293 N 1.02851 -0.04680 0.47216
 N294 N 1.03119 -0.06249 0.45141
 N295 N 1.04689 -0.02843 0.47215
 N296 N 1.06258 -0.03113 0.45139
 N297 N 1.02851 -0.04676 0.52799
 N298 N 1.03126 -0.06246 0.54871
 Mn299 Mn 1.04723 0.00007 0.50005
 Mn300 Mn 1.00001 -0.04712 0.50007
 Cl301 Cl 1.00000 0.00007 0.50004
 C302 C 1.05269 -0.05250 0.56141
 C303 C 1.05260 -0.05253 0.43867
 C304 C 1.11460 0.11427 0.29764
 C305 C 1.13569 0.10168 0.28494
 C306 C 1.14643 0.11233 0.26174
 C307 C 1.13629 0.13600 0.25061
 C308 C 1.11478 0.14830 0.26381
 C309 C 1.10416 0.13753 0.28701
 C310 C 1.10379 0.10343 0.32170
 C311 C 1.09478 0.09445 0.34192
 C312 C 1.08410 0.08383 0.36613
 C313 C 1.09588 0.06174 0.37801
 C314 C 1.08566 0.05156 0.40166
 C315 C 1.06352 0.06340 0.41371
 C316 C 1.05174 0.08553 0.40162
 C317 C 1.06199 0.09568 0.37797
 H318 H 1.14390 0.08357 0.29300
 H319 H 1.16256 0.10159 0.25275
 H320 H 1.10604 0.16645 0.25675
 H321 H 1.08781 0.14748 0.29674
 H322 H 1.11299 0.05241 0.36901
 H323 H 1.09508 0.03444 0.41050
 H324 H 1.03462 0.09500 0.41043
 H325 H 1.05271 0.11279 0.36893
 C326 C 0.88551 -0.11446 0.29772
 C327 C 0.86451 -0.10178 0.28497
 C328 C 0.85376 -0.11241 0.26175
 C329 C 0.86380 -0.13615 0.25067
 C330 C 0.88521 -0.14855 0.26393
 C331 C 0.89584 -0.13780 0.28714
 C332 C 0.89632 -0.10362 0.32178
 C333 C 0.90532 -0.09462 0.34200
 C334 C 0.91598 -0.08396 0.36621
 C335 C 0.90416 -0.06186 0.37806
 C336 C 0.91436 -0.05163 0.40171
 C337 C 0.93652 -0.06342 0.41377
 C338 C 0.94834 -0.08555 0.40170
 C339 C 0.93810 -0.09576 0.37806
 H340 H 0.85638 -0.08361 0.29298
 H341 H 0.83772 -0.10159 0.25271
 H342 H 0.89386 -0.16676 0.25691
 H343 H 0.91212 -0.14782 0.29691
 H344 H 0.88704 -0.05257 0.36906
 H345 H 0.90491 -0.03452 0.41053
 H346 H 0.96547 -0.09498 0.41052
 H347 H 0.94741 -0.11286 0.36904
 C348 C 0.88550 0.11433 0.70250
 C349 C 0.89818 0.13528 0.71529
 C350 C 0.88754 0.14600 0.73852
 C351 C 0.86377 0.13596 0.74957
 C352 C 0.85137 0.11459 0.73628
 C353 C 0.86214 0.10399 0.71306
 C354 C 0.89635 0.10355 0.67842
 C355 C 0.90535 0.09460 0.65818
 C356 C 0.91601 0.08398 0.63395
 C357 C 0.93811 0.09580 0.62211
 C358 C 0.94833 0.08563 0.59844
 C359 C 0.93652 0.06351 0.58635
 C360 C 0.91438 0.05170 0.59842
 C361 C 0.90419 0.06190 0.62208
 H362 H 0.91637 0.14340 0.70730
 H363 H 0.89836 0.16200 0.74760
 H364 H 0.83314 0.10595 0.74327
 H365 H 0.85211 0.08775 0.70325
 H366 H 0.94741 0.11289 0.63114
 H367 H 0.96545 0.09507 0.58962
 H368 H 0.90493 0.03460 0.58958
 H369 H 0.88708 0.05260 0.63109
 C370 C 1.11453 -0.11386 0.70260
 C371 C 1.13793 -0.10358 0.71313
 C372 C 1.14869 -0.11420 0.73634
 C373 C 1.13625 -0.13554 0.74963
 C374 C 1.11244 -0.14551 0.73861
 C375 C 1.10180 -0.13478 0.71541
 C376 C 1.10369 -0.10310 0.67852
 C377 C 1.09468 -0.09416 0.65828
 C378 C 1.08401 -0.08359 0.63405
 C379 C 1.09581 -0.06152 0.62214
 C380 C 1.08561 -0.05137 0.59847
 C381 C 1.06347 -0.06321 0.58642
 C382 C 1.05168 -0.08532 0.59854
 C383 C 1.06191 -0.09544 0.62222
 H384 H 1.14799 -0.08737 0.70331
 H385 H 1.16696 -0.10562 0.74331
 H386 H 1.10158 -0.16148 0.74771
 H387 H 1.08359 -0.14286 0.70743
 H388 H 1.11292 -0.05219 0.63114
 H389 H 1.09505 -0.03428 0.58961
 H390 H 1.03457 -0.09479 0.58974
 H391 H 1.05262 -0.11252 0.63127
 C392 C 0.29773 1.11442 1.11453
 C393 C 0.28715 1.13774 1.10417
 C394 C 0.26396 1.14850 1.11480
 C395 C 0.25071 1.13613 1.13623
 C396 C 0.26178 1.11240 1.14630
 C397 C 0.28498 1.10176 1.13555
 C398 C 0.32178 1.10357 1.10371
 C399 C 0.34200 1.09458 1.09472
 C400 C 0.36620 1.08393 1.08405
 C401 C 0.37802 1.09573 1.06191
 C402 C 0.40166 1.08555 1.05167
 C403 C 0.41375 1.06344 1.06350
 C404 C 0.40171 1.05165 1.08568
 C405 C 0.37807 1.06187 1.09589
 H406 H 0.29692 1.14775 1.08788
 H407 H 0.25694 1.16670 1.10613
 H408 H 0.25275 1.10160 1.16236
 H409 H 0.29300 1.08361 1.14370
 H410 H 0.36899 1.11281 1.05258
 H411 H 0.41046 1.09497 1.03452
 H412 H 0.41055 1.03457 1.09515
 H413 H 0.36908 1.05258 1.11303
 C414 C 0.29778 0.88568 0.88565
 C415 C 0.28717 0.89611 0.86234
 C416 C 0.26396 0.88553 0.85157
 C417 C 0.25073 0.86410 0.86392
 C418 C 0.26184 0.85397 0.88763
 C419 C 0.28505 0.86465 0.89828
 C420 C 0.32185 0.89643 0.89650
 C421 C 0.34207 0.90538 0.90550
 C422 C 0.36629 0.91601 0.91612
 C423 C 0.37813 0.93808 0.90427
 C424 C 0.40178 0.94829 0.91443
 C425 C 0.41387 0.93650 0.93659
 C426 C 0.40181 0.91439 0.94844
 C427 C 0.37816 0.90421 0.93824
 H428 H 0.29692 0.91240 0.85236
 H429 H 0.25691 0.89425 0.83339
 H430 H 0.25281 0.83790 0.89841
 H431 H 0.29309 0.85646 0.91643
 H432 H 0.36911 0.94736 0.88714
 H433 H 0.41059 0.96538 0.90495
 H434 H 0.41064 0.90496 0.96557
 H435 H 0.36915 0.88713 0.94758
 C436 C 0.70240 0.88582 1.11465
 C437 C 0.71514 0.89841 1.13571
 C438 C 0.73834 0.88775 1.14643
 C439 C 0.74942 0.86405 1.13628
 C440 C 0.73618 0.85174 1.11481
 C441 C 0.71299 0.86252 1.10421
 C442 C 0.67836 0.89668 1.10386
 C443 C 0.65815 0.90568 1.09486
 C444 C 0.63395 0.91631 1.08418
 C445 C 0.62207 0.93840 1.09599
 C446 C 0.59844 0.94859 1.08577
 C447 C 0.58640 0.93677 1.06361
 C448 C 0.59849 0.91464 1.05180
 C449 C 0.62213 0.90448 1.06206
 H450 H 0.70713 0.91655 1.14392
 H451 H 0.74737 0.89850 1.16253
 H452 H 0.74320 0.83356 1.10607
 H453 H 0.70323 0.85256 1.08788
 H454 H 0.63106 0.94772 1.11312
 H455 H 0.58959 0.96570 1.09521
 H456 H 0.58969 0.90518 1.03467
 H457 H 0.63116 0.88738 1.05276
 C458 C 0.70239 1.11423 0.88562
 C459 C 0.71292 1.13758 0.89598
 C460 C 0.73613 1.14833 0.88539
 C461 C 0.74943 1.13592 0.86400
 C462 C 0.73840 1.11218 0.85393
 C463 C 0.71519 1.10155 0.86464
 C464 C 0.67832 1.10341 0.89639
 C465 C 0.65809 1.09444 0.90535
 C466 C 0.63387 1.08383 0.91598
 C467 C 0.62199 1.09569 0.93807
 C468 C 0.59833 1.08553 0.94828
 C469 C 0.58628 1.06339 0.93647
 C470 C 0.59838 1.05154 0.91434
 C471 C 0.62204 1.06173 0.90417
 H472 H 0.70311 1.14761 0.91224
 H473 H 0.74311 1.16654 0.89406
 H474 H 0.74749 1.10135 0.83790
 H475 H 0.70721 1.08338 0.85649
 H476 H 0.63099 1.11280 0.94737
 H477 H 0.58949 1.09501 0.96538
 H478 H 0.58957 1.03443 0.90490
 H479 H 0.63107 1.05240 0.88707
 C480 C 0.11451 0.29795 0.11444
 C481 C 0.12812 0.28012 0.09816
 C482 C 0.13877 0.25691 0.10885
 C483 C 0.13593 0.25121 0.13601
 C484 C 0.12214 0.26926 0.15218
 C485 C 0.11152 0.29246 0.14145
 C486 C 0.10375 0.32195 0.10350
 C487 C 0.09478 0.34213 0.09444
 C488 C 0.08413 0.36629 0.08374
 C489 C 0.09591 0.37806 0.06157
 C490 C 0.08572 0.40167 0.05131
 C491 C 0.06362 0.41378 0.06316
 C492 C 0.05184 0.40179 0.08537
 C493 C 0.06206 0.37818 0.09560
 H494 H 0.13050 0.28415 0.07720
 H495 H 0.14895 0.24330 0.09580
 H496 H 0.11991 0.26568 0.17321
 H497 H 0.10110 0.30617 0.15426
 H498 H 0.11299 0.36901 0.05223
 H499 H 0.09515 0.41043 0.03414
 H500 H 0.03475 0.41065 0.09485
 H501 H 0.05278 0.36924 0.11276
 C502 C -0.11456 0.29800 -0.11446
 C503 C -0.09827 0.28014 -0.12801
 C504 C -0.10894 0.25689 -0.13860
 C505 C -0.13608 0.25119 -0.13575
 C506 C -0.15226 0.26927 -0.12201
 C507 C -0.14155 0.29251 -0.11146
 C508 C -0.10364 0.32205 -0.10377
 C509 C -0.09459 0.34225 -0.09485
 C510 C -0.08392 0.36645 -0.08426
 C511 C -0.06178 0.37821 -0.09610
 C512 C -0.05153 0.40184 -0.08594
 C513 C -0.06336 0.41398 -0.06383
 C514 C -0.08554 0.40199 -0.05200
 C515 C -0.09575 0.37837 -0.06219
 H516 H -0.07733 0.28417 -0.13039
 H517 H -0.09589 0.24325 -0.14874
 H518 H -0.17326 0.26569 -0.11978
 H519 H -0.15435 0.30625 -0.10107
 H520 H -0.05246 0.36914 -0.11318
 H521 H -0.03439 0.41059 -0.09540
 H522 H -0.09500 0.41087 -0.03491
 H523 H -0.11289 0.36943 -0.05287
 C524 C 0.11479 0.70205 -0.11474
 C525 C 0.12839 0.71983 -0.09840
 C526 C 0.13901 0.74308 -0.10902
 C527 C 0.13615 0.74888 -0.13616
 C528 C 0.12238 0.73087 -0.15239
 C529 C 0.11180 0.70763 -0.14174
 C530 C 0.10404 0.67802 -0.10387
 C531 C 0.09507 0.65782 -0.09488
 C532 C 0.08441 0.63363 -0.08426
 C533 C 0.09619 0.62177 -0.06214
 C534 C 0.08598 0.59815 -0.05195
 C535 C 0.06384 0.58612 -0.06381
 C536 C 0.05206 0.59820 -0.08598
 C537 C 0.06231 0.62182 -0.09614
 H538 H 0.13076 0.71574 -0.07746
 H539 H 0.14917 0.75666 -0.09593
 H540 H 0.12015 0.73451 -0.17340
 H541 H 0.10138 0.69395 -0.15459
 H542 H 0.11330 0.63075 -0.05279
 H543 H 0.09540 0.58932 -0.03481
 H544 H 0.03495 0.58941 -0.09546
 H545 H 0.05303 0.63084 -0.11326
 C546 C -0.11437 0.70212 0.11429
 C547 C -0.14137 0.70760 0.11131
 C548 C -0.15211 0.73080 0.12194
 C549 C -0.13596 0.74885 0.13574
 C550 C -0.10881 0.74316 0.13857
 C551 C -0.09811 0.71996 0.12791
 C552 C -0.10341 0.67812 0.10351
 C553 C -0.09435 0.65795 0.09452
 C554 C -0.08367 0.63379 0.08383
 C555 C -0.09550 0.62197 0.06171
 C556 C -0.08529 0.59837 0.05144
 C557 C -0.06313 0.58631 0.06324
 C558 C -0.05131 0.59835 0.08540
 C559 C -0.06154 0.62196 0.09563
 H560 H -0.15415 0.69388 0.10088
 H561 H -0.17312 0.73436 0.11972
 H562 H -0.09578 0.75678 0.14875
 H563 H -0.07716 0.71594 0.13027
 H564 H -0.11262 0.63096 0.05242
 H565 H -0.09475 0.58956 0.03431
 H566 H -0.03418 0.58954 0.09484
 H567 H -0.05223 0.63095 0.11276
 C568 C 1.11383 0.11405 0.70285
 C569 C 1.10108 0.13497 0.71565
 C570 C 1.11164 0.14566 0.73892
 C571 C 1.13538 0.13561 0.75002
 C572 C 1.14785 0.11427 0.73673
 C573 C 1.13717 0.10371 0.71346
 C574 C 1.10308 0.10332 0.67872
 C575 C 1.09417 0.09439 0.65843
 C576 C 1.08362 0.08381 0.63415
 C577 C 1.06155 0.09564 0.62225
 C578 C 1.05142 0.08551 0.59854
 C579 C 1.06330 0.06342 0.58644
 C580 C 1.08542 0.05161 0.59855
 C581 C 1.09552 0.06177 0.62227
 H582 H 1.08291 0.14310 0.70761
 H583 H 1.10077 0.16164 0.74800
 H584 H 1.16607 0.10563 0.74376
 H585 H 1.14725 0.08749 0.70366
 H586 H 1.05219 0.11270 0.63129
 H587 H 1.03432 0.09495 0.58968
 H588 H 1.09492 0.03453 0.58971
 H589 H 1.11261 0.05246 0.63132
 C590 C 0.88610 -0.11414 0.70272
 C591 C 0.86518 -0.10144 0.71559
 C592 C 0.85453 -0.11207 0.73884
 C593 C 0.86460 -0.13584 0.74984
 C594 C 0.88593 -0.14825 0.73647
 C595 C 0.89646 -0.13750 0.71322
 C596 C 0.89680 -0.10330 0.67861
 C597 C 0.90570 -0.09432 0.65835
 C598 C 0.91626 -0.08370 0.63409
 C599 C 0.90439 -0.06163 0.62224
 C600 C 0.91451 -0.05144 0.59855
 C601 C 0.93663 -0.06325 0.58643
 C602 C 0.94849 -0.08536 0.59850
 C603 C 0.93834 -0.09552 0.62218
 H604 H 0.85704 -0.08326 0.70764
 H605 H 0.83855 -0.10123 0.74798
 H606 H 0.89458 -0.16648 0.74342
 H607 H 0.91267 -0.14753 0.70335
 H608 H 0.88730 -0.05233 0.63130
 H609 H 0.90503 -0.03435 0.58973
 H610 H 0.96559 -0.09481 0.58963
 H611 H 0.94768 -0.11260 0.63119
 C612 C 1.11358 -0.11378 0.29706
 C613 C 1.10330 -0.13717 0.28653
 C614 C 1.11386 -0.14785 0.26325
 C615 C 1.13512 -0.13534 0.24988
 C616 C 1.14508 -0.11154 0.26089
 C617 C 1.13442 -0.10098 0.28417
 C618 C 1.10289 -0.10303 0.32121
 C619 C 1.09402 -0.09411 0.34152
 C620 C 1.08351 -0.08356 0.36583
 C621 C 1.06147 -0.09541 0.37776
 C622 C 1.05138 -0.08531 0.40151
 C623 C 1.06326 -0.06323 0.41360
 C624 C 1.08534 -0.05138 0.40145
 C625 C 1.09540 -0.06152 0.37771
 H626 H 1.08715 -0.14728 0.29641
 H627 H 1.10528 -0.16611 0.25628
 H628 H 1.16099 -0.10063 0.25174
 H629 H 1.14249 -0.08277 0.29214
 H630 H 1.05212 -0.11247 0.36873
 H631 H 1.03431 -0.09477 0.41039
 H632 H 1.09484 -0.03431 0.41029
 H633 H 1.11247 -0.05219 0.36863
 C634 C 0.88626 0.11411 0.29722
 C635 C 0.89657 0.13749 0.28672
 C636 C 0.88602 0.14821 0.26346
 C637 C 0.86472 0.13576 0.25009
 C638 C 0.85472 0.11197 0.26108
 C639 C 0.86539 0.10136 0.28433
 C640 C 0.89695 0.10331 0.32134
 C641 C 0.90584 0.09435 0.34162
 C642 C 0.91638 0.08375 0.36590
 C643 C 0.93844 0.09558 0.37782
 C644 C 0.94856 0.08545 0.40153
 C645 C 0.93669 0.06336 0.41361
 C646 C 0.91459 0.05154 0.40147
 C647 C 0.90450 0.06170 0.37776
 H648 H 0.91275 0.14756 0.29659
 H649 H 0.89463 0.16647 0.25651
 H650 H 0.83878 0.10109 0.25193
 H651 H 0.85729 0.08316 0.29229
 H652 H 0.94779 0.11265 0.36880
 H653 H 0.96565 0.09490 0.41040
 H654 H 0.90510 0.03446 0.41030
 H655 H 0.88742 0.05240 0.36869
 C656 C 0.11370 0.29718 -0.11426
 C657 C 0.13699 0.28658 -0.10381
 C658 C 0.14768 0.26332 -0.11431
 C659 C 0.13527 0.25002 -0.13570
 C660 C 0.11157 0.26111 -0.14585
 C661 C 0.10100 0.28439 -0.13523
 C662 C 0.10295 0.32132 -0.10359
 C663 C 0.09406 0.34160 -0.09469
 C664 C 0.08356 0.36589 -0.08413
 C665 C 0.09547 0.37774 -0.06206
 C666 C 0.08542 0.40146 -0.05191
 C667 C 0.06335 0.41360 -0.06377
 C668 C 0.05145 0.40154 -0.08588
 C669 C 0.06152 0.37782 -0.09600
 H670 H 0.14703 0.29639 -0.08756
 H671 H 0.16586 0.25629 -0.10558
 H672 H 0.10075 0.25204 -0.16188
 H673 H 0.08287 0.29242 -0.14344
 H674 H 0.11252 0.36866 -0.05272
 H675 H 0.09493 0.41028 -0.03481
 H676 H 0.03438 0.41042 -0.09536
 H677 H 0.05216 0.36881 -0.11308
 C678 C -0.11393 0.29793 0.11409
 C679 C -0.11089 0.29238 0.14109
 C680 C -0.12141 0.26913 0.15178
 C681 C -0.13516 0.25108 0.13558
 C682 C -0.13806 0.25684 0.10843
 C683 C -0.12750 0.28010 0.09778
 C684 C -0.10327 0.32199 0.10319
 C685 C -0.09436 0.34221 0.09418
 C686 C -0.08376 0.36642 0.08355
 C687 C -0.06169 0.37827 0.09541
 C688 C -0.05149 0.40190 0.08524
 C689 C -0.06330 0.41396 0.06308
 C690 C -0.08542 0.40189 0.05123
 C691 C -0.09559 0.37825 0.06143
 H692 H -0.10050 0.30610 0.15391
 H693 H -0.11914 0.26551 0.17279
 H694 H -0.14821 0.24322 0.09536
 H695 H -0.12991 0.28418 0.07684
 H696 H -0.05238 0.36926 0.11253
 H697 H -0.03439 0.41072 0.09472
 H698 H -0.09487 0.41071 0.03410
 H699 H -0.11268 0.36924 0.05210
 C700 C -0.11353 0.70270 -0.11440
 C701 C -0.10087 0.71548 -0.13539
 C702 C -0.11148 0.73872 -0.14603
 C703 C -0.13519 0.74979 -0.13588
 C704 C -0.14758 0.73651 -0.11448
 C705 C -0.13684 0.71327 -0.10396
 C706 C -0.10274 0.67860 -0.10370
 C707 C -0.09380 0.65835 -0.09478
 C708 C -0.08326 0.63410 -0.08419
 C709 C -0.06121 0.62218 -0.09605
 C710 C -0.05109 0.59850 -0.08591
 C711 C -0.06296 0.58645 -0.06377
 C712 C -0.08505 0.59859 -0.05191
 C713 C -0.09513 0.62227 -0.06209
 H714 H -0.08272 0.70747 -0.14360
 H715 H -0.10068 0.74779 -0.16207
 H716 H -0.16577 0.74352 -0.10575
 H717 H -0.14686 0.70348 -0.08769
 H718 H -0.05186 0.63118 -0.11315
 H719 H -0.03401 0.58962 -0.09538
 H720 H -0.09453 0.58978 -0.03480
 H721 H -0.11220 0.63134 -0.05275
 C722 C 0.11411 0.70241 0.11389
 C723 C 0.12765 0.72024 0.09758
 C724 C 0.13816 0.74354 0.10821
 C725 C 0.13523 0.74932 0.13535
 C726 C 0.12151 0.73127 0.15156
 C727 C 0.11104 0.70798 0.14088
 C728 C 0.10349 0.67832 0.10301
 C729 C 0.09462 0.65807 0.09402
 C730 C 0.08407 0.63383 0.08342
 C731 C 0.09593 0.62196 0.06133
 C732 C 0.08581 0.59828 0.05117
 C733 C 0.06370 0.58621 0.06303
 C734 C 0.05185 0.59829 0.08516
 C735 C 0.06200 0.62196 0.09529
 H736 H 0.13008 0.71614 0.07663
 H737 H 0.14829 0.75715 0.09514
 H738 H 0.11922 0.73491 0.17257
 H739 H 0.10066 0.69426 0.15371
 H740 H 0.11301 0.63098 0.05199
 H741 H 0.09527 0.58945 0.03405
 H742 H 0.03476 0.58946 0.09464
 H743 H 0.05267 0.63099 0.11239
 C744 C 0.29734 1.11396 0.88614
 C745 C 0.29182 1.14093 0.88911
 C746 C 0.26853 1.15160 0.87859
 C747 C 0.25044 1.13541 0.86490
 C748 C 0.25616 1.10828 0.86208
 C749 C 0.27946 1.09766 0.87264
 C750 C 0.32144 1.10309 0.89678
 C751 C 0.34170 1.09411 0.90566
 C752 C 0.36596 1.08353 0.91622
 C753 C 0.37786 1.09540 0.93829
 C754 C 0.40156 1.08529 0.94843
 C755 C 0.41365 1.06319 0.93658
 C756 C 0.40153 1.05132 0.91448
 C757 C 0.37782 1.06146 0.90437
 H758 H 0.30558 1.15375 0.89945
 H759 H 0.26494 1.17259 0.88080
 H760 H 0.24251 1.09522 0.85198
 H761 H 0.28352 1.07673 0.87028
 H762 H 0.36884 1.11248 0.94762
 H763 H 0.41042 1.09478 0.96552
 H764 H 0.41037 1.03422 0.90501
 H765 H 0.36877 1.05211 0.88729
 C766 C 0.29757 0.88616 1.11418
 C767 C 0.29195 0.88918 1.14117
 C768 C 0.26866 0.87864 1.15179
 C769 C 0.25065 0.86490 1.13553
 C770 C 0.25648 0.86203 1.10840
 C771 C 0.27978 0.87260 1.09781
 C772 C 0.32167 0.89684 1.10335
 C773 C 0.34193 0.90575 1.09439
 C774 C 0.36618 0.91632 1.08381
 C775 C 0.37803 0.93837 1.09569
 C776 C 0.40172 0.94853 1.08557
 C777 C 0.41382 0.93671 1.06343
 C778 C 0.40175 0.91461 1.05156
 C779 C 0.37806 0.90448 1.06172
 H780 H 0.30564 0.89956 1.15403
 H781 H 0.26498 0.88088 1.17279
 H782 H 0.24290 0.85189 1.09529
 H783 H 0.28392 0.87021 1.07687
 H784 H 0.36899 0.94769 1.11279
 H785 H 0.41055 0.96562 1.09506
 H786 H 0.41060 0.90515 1.03445
 H787 H 0.36904 0.88741 1.05237
 C788 C 0.70236 1.11438 1.11427
 C789 C 0.72018 1.12793 1.09793
 C790 C 0.74346 1.13851 1.10855
 C791 C 0.74925 1.13566 1.13569
 C792 C 0.73121 1.12194 1.15193
 C793 C 0.70794 1.11140 1.14127
 C794 C 0.67829 1.10367 1.10341
 C795 C 0.65806 1.09473 1.09442
 C796 C 0.63384 1.08410 1.08382
 C797 C 0.62198 1.09586 1.06168
 C798 C 0.59833 1.08567 1.05150
 C799 C 0.58626 1.06359 1.06340
 C800 C 0.59834 1.05183 1.08557
 C801 C 0.62199 1.06206 1.09572
 H802 H 0.71608 1.13029 1.07698
 H803 H 0.75707 1.14864 1.09545
 H804 H 0.73485 1.11972 1.17294
 H805 H 0.69423 1.10102 1.15412
 H806 H 0.63099 1.11293 1.05232
 H807 H 0.58949 1.09507 1.03436
 H808 H 0.58952 1.03476 1.09508
 H809 H 0.63101 1.05280 1.11286
 C810 C 0.70264 0.88575 0.88602
 C811 C 0.70816 0.85878 0.88898
 C812 C 0.73143 0.84810 0.87842
 C813 C 0.74951 0.86429 0.86471
 C814 C 0.74379 0.89141 0.86190
 C815 C 0.72051 0.90205 0.87250
 C816 C 0.67856 0.89663 0.89671
 C817 C 0.65832 0.90564 0.90562
 C818 C 0.63408 0.91626 0.91620
 C819 C 0.62221 0.90444 0.93830
 C820 C 0.59853 0.91459 0.94847
 C821 C 0.58645 0.93669 0.93661
 C822 C 0.59855 0.94851 0.91448
 C823 C 0.62223 0.93832 0.90434
 H824 H 0.69442 0.84597 0.89934
 H825 H 0.73503 0.82711 0.88062
 H826 H 0.75743 0.90446 0.85178
 H827 H 0.71646 0.92297 0.87015
 H828 H 0.63122 0.88736 0.94764
 H829 H 0.58969 0.90514 0.96559
 H830 H 0.58972 0.96559 0.90500
 H831 H 0.63126 0.94763 0.88723
   
