data_POSCAR
  _audit_creation_date              2014-09-24
  _audit_creation_method            'ToBaCCo'
  _symmetry_space_group_name_H-M    'P1'
  _symmetry_Int_Tables_number       1
  _symmetry_cell_setting            triclinic
  loop_
  _symmetry_equiv_pos_as_xyz
 x,y,z
_cell_length_a 21.9983
_cell_length_b 21.9902
_cell_length_c 21.9644
_cell_angle_alpha 89.969700
_cell_angle_beta 90.015400
_cell_angle_gamma 89.922400
loop_
  _atom_site_label
  _atom_site_type_symbol
  _atom_site_fract_x
  _atom_site_fract_y
  _atom_site_fract_z
C1 C 0.22709 0.14681 0.22680
 C2 C 0.20113 0.12086 0.27904
 C3 C 0.14894 0.14658 0.30610
 C4 C 0.12258 0.19865 0.27959
 C5 C 0.14803 0.22509 0.22733
 C6 C 0.20047 0.19913 0.20086
 C7 C 0.27961 0.12157 0.20046
 C8 C 0.30618 0.14813 0.14848
 C9 C 0.27887 0.20013 0.12277
 C10 C 0.22648 0.22573 0.14860
 C11 C 0.20007 0.27795 0.12319
 C12 C 0.14809 0.30427 0.14945
 C13 C 0.12215 0.27746 0.20140
 H14 H 0.22201 0.08072 0.29874
 H15 H 0.08240 0.21899 0.29970
 H16 H 0.29991 0.08145 0.22082
 H17 H 0.29849 0.22119 0.08268
 H18 H 0.22031 0.29835 0.08309
 H19 H 0.08199 0.29749 0.22184
 C20 C -0.22699 0.85402 0.22685
 C21 C -0.20094 0.87949 0.27941
 C22 C -0.14882 0.85324 0.30602
 C23 C -0.12264 0.80147 0.27886
 C24 C -0.14808 0.77564 0.22656
 C25 C -0.20047 0.80185 0.20041
 C26 C -0.27948 0.87948 0.20067
 C27 C -0.30603 0.85327 0.14852
 C28 C -0.27883 0.80141 0.12243
 C29 C -0.22649 0.77557 0.14802
 C30 C -0.20012 0.72340 0.12232
 C31 C -0.14810 0.69696 0.14847
 C32 C -0.12217 0.72353 0.20041
 H33 H -0.22159 0.91944 0.29969
 H34 H -0.08244 0.78070 0.29856
 H35 H -0.29976 0.91946 0.22128
 H36 H -0.29849 0.78065 0.08223
 H37 H -0.22038 0.70318 0.08215
 H38 H -0.08200 0.70343 0.22081
 C39 C -0.22694 0.14828 -0.22628
 C40 C -0.20049 0.12275 -0.27848
 C41 C -0.14863 0.14904 -0.30494
 C42 C -0.12292 0.20110 -0.27834
 C43 C -0.14888 0.22712 -0.22612
 C44 C -0.20113 0.20067 -0.19994
 C45 C -0.27911 0.12246 -0.20039
 C46 C -0.30628 0.14834 -0.14839
 C47 C -0.27994 0.20046 -0.12213
 C48 C -0.22772 0.22681 -0.14764
 C49 C -0.20198 0.27924 -0.12201
 C50 C -0.15015 0.30596 -0.14810
 C51 C -0.12372 0.27947 -0.19997
 H52 H -0.22056 0.08254 -0.29870
 H53 H -0.08287 0.22160 -0.29845
 H54 H -0.29864 0.08226 -0.22118
 H55 H -0.30017 0.22093 -0.08204
 H56 H -0.22251 0.29943 -0.08195
 H57 H -0.08368 0.29978 -0.22028
 C58 C 0.22616 0.85182 -0.22702
 C59 C 0.19979 0.87739 -0.27932
 C60 C 0.14791 0.85100 -0.30595
 C61 C 0.12228 0.79886 -0.27903
 C62 C 0.14818 0.77288 -0.22690
 C63 C 0.20034 0.79930 -0.20073
 C64 C 0.27828 0.87760 -0.20090
 C65 C 0.30506 0.85145 -0.14900
 C66 C 0.27896 0.79929 -0.12289
 C67 C 0.22687 0.77297 -0.14847
 C68 C 0.20117 0.72044 -0.12295
 C69 C 0.14934 0.69380 -0.14912
 C70 C 0.12295 0.72046 -0.20089
 H71 H 0.22004 0.91763 -0.29938
 H72 H 0.08224 0.77797 -0.29880
 H73 H 0.29818 0.91787 -0.22122
 H74 H 0.29936 0.77892 -0.08283
 H75 H 0.22171 0.70017 -0.08291
 H76 H 0.08292 0.70019 -0.22127
 C77 C 0.14671 1.22595 0.77283
 C78 C 0.12139 1.19954 0.72041
 C79 C 0.14788 1.14753 0.69394
 C80 C 0.19998 1.12191 0.72114
 C81 C 0.22576 1.14792 0.77335
 C82 C 0.19912 1.20013 0.79936
 C83 C 0.12074 1.27813 0.79881
 C84 C 0.14651 1.30518 0.85096
 C85 C 0.19864 1.27881 0.87724
 C86 C 0.22514 1.22669 0.85172
 C87 C 0.27765 1.20104 0.87744
 C88 C 0.30460 1.14926 0.85141
 C89 C 0.27820 1.12277 0.79958
 H90 H 0.08121 1.21981 0.70017
 H91 H 0.22102 1.08182 0.70154
 H92 H 0.08053 1.29776 0.77801
 H93 H 0.21904 1.29897 0.91739
 H94 H 0.29772 1.22162 0.91751
 H95 H 0.29868 1.08274 0.77932
 C96 C 0.85230 0.77395 0.77377
 C97 C 0.87791 0.79994 0.72149
 C98 C 0.85192 0.85193 0.69444
 C99 C 0.79987 0.87810 0.72105
 C100 C 0.77373 0.85244 0.77342
 C101 C 0.80001 0.80013 0.79989
 C102 C 0.87798 0.72174 0.79988
 C103 C 0.85204 0.69482 0.85193
 C104 C 0.79998 0.72149 0.87805
 C105 C 0.77379 0.77379 0.85227
 C106 C 0.72141 0.79984 0.87769
 C107 C 0.69478 0.85169 0.85134
 C108 C 0.72135 0.87791 0.79941
 H109 H 0.91809 0.77919 0.70176
 H110 H 0.77929 0.91818 0.70090
 H111 H 0.91816 0.70196 0.77918
 H112 H 0.77944 0.70145 0.91819
 H113 H 0.70117 0.77947 0.91780
 H114 H 0.70107 0.91796 0.77894
 C115 C 0.14803 0.77198 1.22564
 C116 C 0.12220 0.79784 1.27803
 C117 C 0.14815 0.84971 1.30487
 C118 C 0.19996 0.87609 1.27856
 C119 C 0.22624 0.85085 1.22628
 C120 C 0.20032 0.79853 1.19969
 C121 C 0.12276 0.71971 1.19918
 C122 C 0.14924 0.69321 1.14713
 C123 C 0.20127 0.72034 1.12143
 C124 C 0.22691 0.77263 1.14737
 C125 C 0.27912 0.79913 1.12209
 C126 C 0.30524 0.85110 1.14858
 C127 C 0.27840 0.87683 1.20052
 H128 H 0.08215 0.77733 1.29811
 H129 H 0.22013 0.91617 1.29895
 H130 H 0.08266 0.69954 1.21954
 H131 H 0.22222 0.70070 1.08129
 H132 H 0.29959 0.77906 1.08194
 H133 H 0.29828 0.91693 1.22116
 C134 C 0.85249 1.22720 1.22784
 C135 C 0.87831 1.20068 1.28003
 C136 C 0.85229 1.14846 1.30650
 C137 C 0.80024 1.12268 1.27949
 C138 C 0.77410 1.14859 1.22739
 C139 C 0.80019 1.20108 1.20144
 C140 C 0.87780 1.27976 1.20191
 C141 C 0.85140 1.30660 1.15009
 C142 C 0.79956 1.28008 1.12389
 C143 C 0.77374 1.22761 1.14923
 C144 C 0.72156 1.20154 1.12345
 C145 C 0.69522 1.14939 1.14931
 C146 C 0.72189 1.12305 1.20114
 H147 H 0.91842 1.22109 1.30015
 H148 H 0.77961 1.08240 1.29908
 H149 H 0.91787 1.29993 1.22229
 H150 H 0.77903 1.30045 1.08388
 H151 H 0.70127 1.22211 1.08343
 H152 H 0.70186 1.08277 1.22130
 N153 N 0.56451 1.10778 0.93391
 N154 N 0.61152 1.14436 0.92629
 N155 N 0.43598 1.06616 0.89235
 N156 N 0.38910 1.07322 0.85555
 N157 N 0.43633 1.10857 0.93438
 N158 N 0.38959 1.14563 0.92733
 N159 N 0.56366 1.06551 0.89184
 N160 N 0.61289 1.07304 0.85280
 C161 C 0.64085 1.12263 0.87636
 C162 C 0.36056 1.12305 0.87785
 N163 N 0.43570 0.89316 0.93470
 N164 N 0.38927 0.85594 0.92744
 N165 N 0.56346 0.93491 0.89216
 N166 N 0.61014 0.92772 0.85513
 N167 N 0.56359 0.89284 0.93456
 N168 N 0.61033 0.85584 0.92753
 N169 N 0.43555 0.93537 0.89247
 N170 N 0.38903 0.92803 0.85526
 Mn171 Mn 0.49964 1.00049 0.89149
 C172 C 0.36054 0.87823 0.87763
 C173 C 0.63896 0.87812 0.87770
 N174 N 0.43682 1.10880 1.06545
 N175 N 0.38729 1.14754 1.07308
 N176 N 0.56430 1.06597 1.10773
 N177 N 0.61077 1.07324 1.14504
 N178 N 0.56463 1.10797 1.06521
 N179 N 0.61124 1.14498 1.07251
 N180 N 0.43611 1.06663 1.10772
 N181 N 0.38896 1.07392 1.14432
 Mn182 Mn 0.50061 1.10906 0.99974
 C183 C 0.35934 1.12375 1.12270
 C184 C 0.63965 1.12279 1.12255
 N185 N 0.56357 0.89290 1.06549
 N186 N 0.61305 0.85417 1.07311
 N187 N 0.43588 0.93536 1.10781
 N188 N 0.38927 0.92787 1.14490
 N189 N 0.43597 0.89326 1.06547
 N190 N 0.38955 0.85603 1.07255
 N191 N 0.56410 0.93489 1.10787
 N192 N 0.61121 0.92752 1.14455
 Mn193 Mn 0.49974 0.89234 1.00006
 Mn194 Mn 0.50007 1.00072 1.10863
 Cl195 Cl 0.50001 1.00068 1.00002
 C196 C 0.64087 0.87779 1.12283
 C197 C 0.36079 0.87811 1.12232
 N198 N 0.06524 0.43592 0.10782
 N199 N 0.07235 0.38952 0.14536
 N200 N 0.10887 0.56271 0.06455
 N201 N 0.14805 0.61187 0.07190
 N202 N 0.06680 0.56411 0.10683
 N203 N 0.07457 0.61129 0.14321
 N204 N 0.10695 0.43490 0.06510
 N205 N 0.14360 0.38795 0.07245
 C206 C 0.12152 0.36000 0.12274
 C207 C 0.12456 0.64025 0.12143
 N208 N 0.06556 0.56305 -0.10819
 N209 N 0.07280 0.60990 -0.14501
 N210 N 0.10625 0.43421 -0.06619
 N211 N 0.14277 0.38712 -0.07410
 N212 N 0.06385 0.43531 -0.10812
 N213 N 0.07118 0.38618 -0.14738
 N214 N 0.10812 0.56234 -0.06631
 N215 N 0.14544 0.60875 -0.07343
 Mn216 Mn 0.10831 0.49847 -0.00071
 C217 C 0.12290 0.63798 -0.12283
 C218 C 0.12082 0.35799 -0.12405
 N219 N -0.06440 0.56579 0.10736
 N220 N -0.07151 0.61258 0.14434
 N221 N -0.10791 0.43778 0.06627
 N222 N -0.14491 0.39116 0.07372
 N223 N -0.06557 0.43775 0.10842
 N224 N -0.07260 0.39113 0.14561
 N225 N -0.10684 0.56573 0.06532
 N226 N -0.14387 0.61242 0.07249
 Mn227 Mn 0.00052 0.50096 0.10842
 C228 C -0.12133 0.64128 0.12200
 C229 C -0.12238 0.36248 0.12350
 N230 N -0.06657 0.43683 -0.10739
 N231 N -0.07401 0.39012 -0.14427
 N232 N -0.10743 0.56540 -0.06569
 N233 N -0.14401 0.61255 -0.07329
 N234 N -0.06516 0.56454 -0.10773
 N235 N -0.07272 0.61378 -0.14681
 N236 N -0.10859 0.43719 -0.06499
 N237 N -0.14584 0.39067 -0.07192
 Mn238 Mn -0.00059 0.49998 -0.10854
 Mn239 Mn -0.10850 0.50149 0.00025
 Cl240 Cl -0.00007 0.50022 -0.00011
 C241 C -0.12371 0.36173 -0.12168
 C242 C -0.12229 0.64187 -0.12324
 N243 N 0.89200 -0.06595 0.43621
 N244 N 0.85523 -0.07290 0.38910
 N245 N 0.93467 -0.10831 0.56404
 N246 N 0.92707 -0.14717 0.61343
 N247 N 0.89251 -0.06614 0.56476
 N248 N 0.85590 -0.07350 0.61192
 N249 N 0.93427 -0.10802 0.43642
 N250 N 0.92653 -0.14643 0.38678
 C251 C 0.87685 -0.12250 0.35916
 C252 C 0.87755 -0.12341 0.64141
 N253 N 1.10725 -0.06710 0.56451
 N254 N 1.14387 -0.07459 0.61162
 N255 N 1.06483 -0.10879 0.43595
 N256 N 1.07176 -0.14579 0.38918
 N257 N 1.10740 -0.06707 0.43625
 N258 N 1.14443 -0.07445 0.38960
 N259 N 1.06500 -0.10905 0.56378
 N260 N 1.07255 -0.14792 0.61319
 Mn261 Mn 0.99968 -0.10919 0.50001
 C262 C 1.12216 -0.12435 0.64111
 C263 C 1.12169 -0.12382 0.36065
 N264 N 0.89304 0.06501 0.56438
 N265 N 0.85597 0.07248 0.61100
 N266 N 0.93485 0.10688 0.43563
 N267 N 0.92726 0.14373 0.38864
 N268 N 0.89255 0.06488 0.43651
 N269 N 0.85349 0.07288 0.38732
 N270 N 0.93516 0.10727 0.56404
 N271 N 0.92787 0.14460 0.61055
 Mn272 Mn 0.89173 -0.00052 0.50051
 C273 C 0.87819 0.12235 0.63944
 C274 C 0.87717 0.12244 0.35934
 N275 N 1.10825 0.06356 0.43628
 N276 N 1.14734 0.07104 0.38702
 N277 N 1.06630 0.10654 0.56412
 N278 N 1.07379 0.14343 0.61103
 N279 N 1.10800 0.06385 0.56401
 N280 N 1.14673 0.07156 0.61350
 N281 N 1.06637 0.10608 0.43548
 N282 N 1.07419 0.14273 0.38840
 Mn283 Mn 1.10845 -0.00169 0.50032
 Mn284 Mn 1.00067 0.10759 0.49975
 Cl285 Cl 1.00012 -0.00087 0.50015
 C286 C 1.12403 0.12082 0.35903
 C287 C 1.12333 0.12159 0.64096
   
