data_POSCAR
  _audit_creation_date              2014-09-24
  _audit_creation_method            'ToBaCCo'
  _symmetry_space_group_name_H-M    'P1'
  _symmetry_Int_Tables_number       1
  _symmetry_cell_setting            triclinic
  loop_
  _symmetry_equiv_pos_as_xyz
 x,y,z
_cell_length_a 36.1047
_cell_length_b 36.0309
_cell_length_c 35.7835
_cell_angle_alpha 90.009500
_cell_angle_beta 89.907400
_cell_angle_gamma 89.901800
loop_
  _atom_site_label
  _atom_site_type_symbol
  _atom_site_fract_x
  _atom_site_fract_y
  _atom_site_fract_z
O1 O -0.03303 0.29741 0.03204
 O2 O 0.03895 0.29697 -0.04069
 O3 O -0.03299 0.29519 -0.04042
 O4 O 0.03913 0.29824 0.03224
 O5 O 0.04022 0.23691 0.03356
 O6 O -0.03156 0.23384 -0.03894
 O7 O 0.04009 0.23564 -0.03963
 O8 O -0.03160 0.23609 0.03382
 Cu9 Cu 0.00299 0.30315 -0.00432
 Cu10 Cu 0.00451 0.22943 -0.00261
 C11 C -0.04451 0.26686 0.04526
 C12 C 0.05136 0.26630 -0.05289
 C13 C -0.04438 0.26393 -0.05201
 C14 C 0.05164 0.26802 0.04539
 O15 O 0.46026 0.79683 0.53736
 O16 O 0.53322 0.79915 0.46553
 O17 O 0.46098 0.79797 0.46436
 O18 O 0.53216 0.79731 0.53804
 O19 O 0.53404 0.73601 0.53550
 O20 O 0.46136 0.73662 0.46363
 O21 O 0.53313 0.73782 0.46320
 O22 O 0.46198 0.73551 0.53698
 Cu23 Cu 0.49644 0.80401 0.50140
 Cu24 Cu 0.49751 0.73029 0.49973
 C25 C 0.44921 0.76580 0.54979
 C26 C 0.54553 0.76889 0.45222
 C27 C 0.44927 0.76737 0.45140
 C28 C 0.54541 0.76651 0.54894
 O29 O 0.96074 0.69967 -0.03649
 O30 O 1.03366 0.70125 0.03531
 O31 O 0.96159 0.69990 0.03637
 O32 O 1.03296 0.70086 -0.03707
 O33 O 1.03163 0.76220 -0.03750
 O34 O 0.96053 0.76125 0.03631
 O35 O 1.03229 0.76260 0.03523
 O36 O 0.95973 0.76099 -0.03690
 Cu37 Cu 0.99725 0.69423 -0.00048
 Cu38 Cu 0.99581 0.76795 -0.00078
 C39 C 0.94808 0.73006 -0.04910
 C40 C 1.04531 0.73220 0.04741
 C41 C 0.94928 0.73040 0.04907
 C42 C 1.04451 0.73169 -0.04963
 O43 O 0.53785 0.19858 0.53280
 O44 O 0.46530 0.20456 0.46105
 O45 O 0.53733 0.20100 0.46035
 O46 O 0.46583 0.20298 0.53382
 O47 O 0.46928 0.26422 0.53547
 O48 O 0.54038 0.26227 0.46189
 O49 O 0.46871 0.26580 0.46249
 O50 O 0.54093 0.25984 0.53468
 Cu51 Cu 0.50117 0.19559 0.49684
 Cu52 Cu 0.50510 0.26922 0.49881
 C53 C 0.55163 0.22819 0.54592
 C54 C 0.45498 0.23615 0.44937
 C55 C 0.55088 0.23133 0.44864
 C56 C 0.45568 0.23397 0.54727
 O57 O 0.69528 0.03140 -0.03213
 O58 O 0.69533 -0.04158 0.03965
 O59 O 0.69813 0.03066 0.04048
 O60 O 0.69348 -0.04097 -0.03273
 O61 O 0.75468 -0.04281 -0.03480
 O62 O 0.75930 0.02850 0.03827
 O63 O 0.75652 -0.04335 0.03790
 O64 O 0.75643 0.02916 -0.03457
 Cu65 Cu 0.68936 -0.00486 0.00401
 Cu66 Cu 0.76291 -0.00729 0.00147
 C67 C 0.72581 0.04254 -0.04561
 C68 C 0.72590 -0.05483 0.05097
 C69 C 0.72956 0.04157 0.05184
 C70 C 0.72337 -0.05406 -0.04605
 O71 O 0.20063 0.46892 0.53519
 O72 O 0.19658 0.54173 0.46304
 O73 O 0.20013 0.46965 0.46239
 O74 O 0.19702 0.54111 0.53589
 O75 O 0.25816 0.54440 0.53502
 O76 O 0.26126 0.47293 0.46158
 O77 O 0.25774 0.54498 0.46298
 O78 O 0.26177 0.47226 0.53492
 Cu79 Cu 0.19242 0.50499 0.49920
 Cu80 Cu 0.26592 0.50873 0.49860
 C81 C 0.23191 0.45845 0.54743
 C82 C 0.22650 0.55580 0.45096
 C83 C 0.23119 0.45944 0.44930
 C84 C 0.22707 0.55504 0.54770
 O85 O 0.30471 1.04352 0.03452
 O86 O 0.30068 0.97027 -0.03703
 O87 O 0.30267 1.04237 -0.03803
 O88 O 0.30215 0.97112 0.03575
 O89 O 0.24095 0.97282 0.03687
 O90 O 0.24158 1.04544 -0.03525
 O91 O 0.23952 0.97318 -0.03635
 O92 O 0.24354 1.04470 0.03711
 Cu93 Cu 0.30872 1.00653 -0.00132
 Cu94 Cu 0.23522 1.00909 0.00071
 C95 C 0.27483 1.05651 0.04798
 C96 C 0.26946 0.95965 -0.04916
 C97 C 0.27219 1.05625 -0.04886
 C98 C 0.27144 0.95999 0.04886
 O99 O 0.79680 0.53151 0.53948
 O100 O 0.80192 0.45944 0.46692
 O101 O 0.79834 0.53172 0.46658
 O102 O 0.79957 0.45944 0.53937
 O103 O 0.73839 0.45706 0.53791
 O104 O 0.73719 0.52900 0.46513
 O105 O 0.74076 0.45707 0.46513
 O106 O 0.73564 0.52877 0.53820
 Cu107 Cu 0.80534 0.49588 0.50319
 Cu108 Cu 0.73182 0.49278 0.50137
 C109 C 0.76539 0.54201 0.55145
 C110 C 0.77221 0.44604 0.45376
 C111 C 0.76751 0.54241 0.45339
 C112 C 0.76915 0.44617 0.55106
 C113 C 0.24024 0.27070 0.24698
 C114 C 0.26814 0.24514 0.24661
 C115 C 0.27202 0.21767 0.21597
 C116 C 0.29608 0.24318 0.27682
 C117 C 0.23799 0.30009 0.27613
 C118 C 0.21046 0.27011 0.21834
 C119 C 0.26990 0.17964 0.22401
 C120 C 0.27173 0.15353 0.19522
 C121 C 0.27658 0.16502 0.15809
 C122 C 0.27955 0.20304 0.15010
 C123 C 0.27723 0.22922 0.17887
 C124 C 0.28545 0.23701 0.31406
 C125 C 0.31212 0.23608 0.34232
 C126 C 0.34964 0.24154 0.33374
 C127 C 0.36027 0.24701 0.29642
 C128 C 0.33369 0.24757 0.26814
 C129 C 0.26838 0.32319 0.28383
 C130 C 0.26631 0.34957 0.31240
 C131 C 0.23357 0.35397 0.33307
 C132 C 0.20284 0.33170 0.32469
 C133 C 0.20504 0.30499 0.29644
 C134 C 0.20284 0.30210 0.19732
 C135 C 0.17599 0.30131 0.16923
 C136 C 0.15648 0.26854 0.16169
 C137 C 0.16326 0.23688 0.18347
 C138 C 0.18977 0.23777 0.21181
 H139 H 0.26588 0.17026 0.25249
 H140 H 0.26917 0.12432 0.20185
 H141 H 0.28301 0.21259 0.12165
 H142 H 0.27917 0.25848 0.17224
 H143 H 0.25655 0.23304 0.32116
 H144 H 0.30350 0.23140 0.37094
 H145 H 0.34237 0.25210 0.23951
 H146 H 0.29378 0.32060 0.26791
 H147 H 0.29025 0.36663 0.31838
 H148 H 0.17729 0.33445 0.34026
 H149 H 0.18121 0.28765 0.29084
 H150 H 0.21819 0.32743 0.20219
 H151 H 0.17080 0.32612 0.15295
 H152 H 0.14811 0.21145 0.17873
 H153 H 0.19444 0.21310 0.22844
 H154 H 0.38907 0.25070 0.28897
 C155 C 0.76190 0.73246 0.25242
 C156 C 0.73547 0.75953 0.25219
 C157 C 0.73238 0.78650 0.22109
 C158 C 0.70807 0.76336 0.28283
 C159 C 0.76222 0.70294 0.28147
 C160 C 0.79136 0.73091 0.22335
 C161 C 0.73619 0.82455 0.22830
 C162 C 0.73452 0.85014 0.19906
 C163 C 0.72814 0.83812 0.16236
 C164 C 0.72369 0.80009 0.15520
 C165 C 0.72585 0.77442 0.18440
 C166 C 0.71959 0.76946 0.31978
 C167 C 0.69348 0.77205 0.34855
 C168 C 0.65557 0.76848 0.34072
 C169 C 0.64411 0.76269 0.30376
 C170 C 0.67014 0.76055 0.27495
 C171 C 0.73050 0.68151 0.28857
 C172 C 0.73065 0.65481 0.31686
 C173 C 0.76274 0.64860 0.33803
 C174 C 0.79483 0.66901 0.33007
 C175 C 0.79458 0.69601 0.30203
 C176 C 0.79741 0.69795 0.20331
 C177 C 0.82402 0.69656 0.17494
 C178 C 0.84500 0.72814 0.16620
 C179 C 0.83951 0.76088 0.18666
 C180 C 0.81327 0.76213 0.21535
 H181 H 0.74121 0.83431 0.25647
 H182 H 0.73819 0.87937 0.20503
 H183 H 0.71898 0.79014 0.12709
 H184 H 0.72259 0.74514 0.17843
 H185 H 0.74877 0.77198 0.32627
 H186 H 0.70300 0.77629 0.37688
 H187 H 0.66080 0.75585 0.24660
 H188 H 0.70556 0.68559 0.27230
 H189 H 0.70571 0.63901 0.32197
 H190 H 0.81995 0.66430 0.34590
 H191 H 0.81946 0.71193 0.29673
 H192 H 0.78098 0.67350 0.20917
 H193 H 0.82767 0.67100 0.15950
 H194 H 0.85557 0.78546 0.18038
 H195 H 0.80978 0.78758 0.23107
 H196 H 0.61498 0.75968 0.29727
 C197 C 0.74376 0.23297 0.25061
 C198 C 0.77051 0.25962 0.25033
 C199 C 0.79721 0.26306 0.21901
 C200 C 0.77422 0.28667 0.28127
 C201 C 0.71452 0.23196 0.27992
 C202 C 0.74245 0.20351 0.22158
 C203 C 0.83529 0.25957 0.22586
 C204 C 0.86057 0.26095 0.19631
 C205 C 0.84820 0.26663 0.15961
 C206 C 0.81016 0.27093 0.15283
 C207 C 0.78482 0.26912 0.18234
 C208 C 0.78044 0.27461 0.31804
 C209 C 0.78193 0.30026 0.34729
 C210 C 0.77723 0.33826 0.34010
 C211 C 0.77160 0.35031 0.30328
 C212 C 0.77049 0.32473 0.27400
 C213 C 0.69281 0.26342 0.28779
 C214 C 0.66584 0.26220 0.31578
 C215 C 0.65943 0.22928 0.33561
 C216 C 0.68049 0.19759 0.32725
 C217 C 0.70782 0.19894 0.29961
 C218 C 0.70948 0.19705 0.20193
 C219 C 0.70807 0.16977 0.17425
 C220 C 0.73963 0.14868 0.16570
 C221 C 0.77238 0.15450 0.18588
 C222 C 0.77367 0.18146 0.21388
 H223 H 0.84532 0.25489 0.25399
 H224 H 0.88982 0.25748 0.20201
 H225 H 0.79993 0.27518 0.12476
 H226 H 0.75552 0.27215 0.17662
 H227 H 0.78365 0.24532 0.32405
 H228 H 0.78604 0.29028 0.37549
 H229 H 0.76562 0.33447 0.24580
 H230 H 0.69676 0.28891 0.27229
 H231 H 0.64976 0.28689 0.32182
 H232 H 0.67619 0.17192 0.34229
 H233 H 0.72408 0.17430 0.29382
 H234 H 0.68497 0.21347 0.20772
 H235 H 0.68247 0.16535 0.15917
 H236 H 0.79691 0.13814 0.18028
 H237 H 0.79906 0.18520 0.22949
 H238 H 0.76778 0.37953 0.29729
 C239 C 0.26106 0.76949 0.24917
 C240 C 0.23242 0.74478 0.24985
 C241 C 0.20550 0.74240 0.21863
 C242 C 0.22725 0.71805 0.28111
 C243 C 0.29101 0.76854 0.27770
 C244 C 0.26377 0.79866 0.21985
 C245 C 0.16758 0.74732 0.22565
 C246 C 0.14206 0.74529 0.19643
 C247 C 0.15399 0.73751 0.15993
 C248 C 0.19188 0.73215 0.15294
 C249 C 0.21748 0.73461 0.18210
 C250 C 0.22735 0.72997 0.31852
 C251 C 0.22555 0.70414 0.34760
 C252 C 0.22270 0.66612 0.33969
 C253 C 0.22041 0.65439 0.30242
 C254 C 0.22278 0.68012 0.27335
 C255 C 0.31055 0.73561 0.28522
 C256 C 0.33708 0.73454 0.31360
 C257 C 0.34501 0.76656 0.33442
 C258 C 0.32664 0.79981 0.32589
 C259 C 0.29983 0.80081 0.29777
 C260 C 0.29691 0.80323 0.19978
 C261 C 0.29961 0.83017 0.17181
 C262 C 0.26919 0.85297 0.16349
 C263 C 0.23623 0.84880 0.18383
 C264 C 0.23367 0.82221 0.21210
 H265 H 0.15786 0.75321 0.25368
 H266 H 0.11293 0.74962 0.20228
 H267 H 0.20179 0.72628 0.12502
 H268 H 0.24663 0.73034 0.17627
 H269 H 0.22964 0.75919 0.32519
 H270 H 0.22668 0.71394 0.37615
 H271 H 0.22220 0.67030 0.24474
 H272 H 0.30485 0.71061 0.26945
 H273 H 0.35126 0.70868 0.31921
 H274 H 0.33268 0.82487 0.34144
 H275 H 0.28537 0.82658 0.29220
 H276 H 0.32053 0.78555 0.20545
 H277 H 0.32529 0.83277 0.15645
 H278 H 0.21253 0.86628 0.17786
 H279 H 0.20815 0.81991 0.22786
 H280 H 0.21783 0.62517 0.29584
 C281 C 0.76402 0.25396 0.74970
 C282 C 0.73688 0.22769 0.74980
 C283 C 0.71004 0.22445 0.71870
 C284 C 0.73269 0.20104 0.78106
 C285 C 0.79334 0.25459 0.77880
 C286 C 0.76573 0.28327 0.72048
 C287 C 0.67207 0.22876 0.72579
 C288 C 0.64671 0.22800 0.69639
 C289 C 0.65887 0.22207 0.65963
 C290 C 0.69677 0.21678 0.65262
 C291 C 0.72221 0.21799 0.68198
 C292 C 0.72666 0.21361 0.81772
 C293 C 0.72412 0.18828 0.84718
 C294 C 0.72765 0.15008 0.84035
 C295 C 0.73326 0.13754 0.80367
 C296 C 0.73536 0.16282 0.77416
 C297 C 0.81460 0.22280 0.78649
 C298 C 0.84150 0.22349 0.81448
 C299 C 0.84807 0.25618 0.83469
 C300 C 0.82774 0.28826 0.82620
 C301 C 0.80052 0.28747 0.79852
 C302 C 0.79892 0.28945 0.70097
 C303 C 0.80081 0.31668 0.67323
 C304 C 0.76952 0.33812 0.66460
 C305 C 0.73646 0.33228 0.68432
 C306 C 0.73470 0.30545 0.71241
 H307 H 0.66223 0.23379 0.75396
 H308 H 0.61758 0.23229 0.70225
 H309 H 0.70682 0.21240 0.62447
 H310 H 0.75143 0.21434 0.67610
 H311 H 0.72424 0.24303 0.82346
 H312 H 0.71994 0.19863 0.87525
 H313 H 0.73998 0.15266 0.74605
 H314 H 0.81032 0.19745 0.77085
 H315 H 0.85725 0.19854 0.82003
 H316 H 0.83273 0.31382 0.84130
 H317 H 0.78474 0.31240 0.79275
 H318 H 0.82324 0.27285 0.70692
 H319 H 0.82659 0.32057 0.65832
 H320 H 0.71208 0.34868 0.67808
 H321 H 0.70910 0.30192 0.72779
 H322 H 0.73616 0.10816 0.79794
 C323 C 0.23118 0.74315 0.75005
 C324 C 0.25973 0.76795 0.75118
 C325 C 0.29021 0.76688 0.72315
 C326 C 0.26187 0.79720 0.78055
 C327 C 0.20390 0.74056 0.78097
 C328 C 0.22660 0.71646 0.71864
 C329 C 0.30986 0.73389 0.71608
 C330 C 0.33665 0.73256 0.68787
 C331 C 0.34472 0.76439 0.66683
 C332 C 0.32630 0.79773 0.67498
 C333 C 0.29923 0.79898 0.70291
 C334 C 0.29477 0.80212 0.80080
 C335 C 0.29698 0.82913 0.82876
 C336 C 0.26630 0.85169 0.83692
 C337 C 0.23353 0.84712 0.81646
 C338 C 0.23147 0.82046 0.78817
 C339 C 0.16606 0.74540 0.77366
 C340 C 0.14025 0.74348 0.80271
 C341 C 0.15185 0.73589 0.83931
 C342 C 0.18967 0.73051 0.84657
 C343 C 0.21553 0.73285 0.81758
 C344 C 0.22721 0.72849 0.68127
 C345 C 0.22596 0.70274 0.65207
 C346 C 0.22315 0.66468 0.65980
 C347 C 0.22039 0.65283 0.69701
 C348 C 0.22224 0.67848 0.72621
 H349 H 0.30397 0.70902 0.73199
 H350 H 0.35087 0.70666 0.68253
 H351 H 0.33247 0.82265 0.65924
 H352 H 0.28468 0.82478 0.70814
 H353 H 0.31862 0.78466 0.79529
 H354 H 0.32254 0.83198 0.84420
 H355 H 0.20610 0.81791 0.77228
 H356 H 0.15662 0.75124 0.74554
 H357 H 0.11118 0.74780 0.79667
 H358 H 0.19933 0.72479 0.87458
 H359 H 0.24462 0.72863 0.82363
 H360 H 0.22945 0.75774 0.67473
 H361 H 0.22743 0.71264 0.62358
 H362 H 0.21780 0.62357 0.70346
 H363 H 0.22131 0.66857 0.75477
 H364 H 0.20962 0.86438 0.82227
 C365 C 0.26770 0.24212 0.74971
 C366 C 0.23998 0.26790 0.74798
 C367 C 0.23955 0.29717 0.71862
 C368 C 0.20927 0.26859 0.77576
 C369 C 0.27102 0.21545 0.78125
 C370 C 0.29615 0.23928 0.71987
 C371 C 0.27058 0.31991 0.71254
 C372 C 0.27029 0.34654 0.68417
 C373 C 0.23869 0.35142 0.66194
 C374 C 0.20723 0.32968 0.66885
 C375 C 0.20766 0.30271 0.69692
 C376 C 0.20115 0.30157 0.79499
 C377 C 0.17398 0.30215 0.82282
 C378 C 0.15443 0.26973 0.83183
 C379 C 0.16179 0.23697 0.81198
 C380 C 0.18864 0.23649 0.78381
 C381 C 0.27478 0.17737 0.77380
 C382 C 0.27623 0.15181 0.80309
 C383 C 0.27373 0.16386 0.84025
 C384 C 0.27131 0.20199 0.84785
 C385 C 0.27042 0.22763 0.81857
 C386 C 0.28599 0.23266 0.68260
 C387 C 0.31301 0.23119 0.65463
 C388 C 0.35046 0.23649 0.66351
 C389 C 0.36065 0.24224 0.70089
 C390 C 0.33370 0.24337 0.72889
 H391 H 0.29508 0.31694 0.72970
 H392 H 0.29467 0.36342 0.67990
 H393 H 0.18245 0.33338 0.65222
 H394 H 0.18328 0.28581 0.70142
 H395 H 0.21657 0.32667 0.78913
 H396 H 0.16891 0.32777 0.83773
 H397 H 0.19388 0.21092 0.76879
 H398 H 0.27577 0.16737 0.74527
 H399 H 0.27853 0.12250 0.79675
 H400 H 0.27005 0.21202 0.87632
 H401 H 0.26867 0.25695 0.82500
 H402 H 0.25715 0.22888 0.67523
 H403 H 0.30471 0.22638 0.62597
 H404 H 0.38937 0.24592 0.70856
 H405 H 0.34202 0.24822 0.75755
 H406 H 0.14687 0.21173 0.81848
 C407 C 0.73174 0.75781 0.75235
 C408 C 0.75767 0.73021 0.75364
 C409 C 0.75823 0.69980 0.72557
 C410 C 0.78682 0.72930 0.78306
 C411 C 0.72807 0.78515 0.78308
 C412 C 0.70525 0.76162 0.72074
 C413 C 0.72622 0.67896 0.71802
 C414 C 0.72637 0.65232 0.68965
 C415 C 0.75872 0.64561 0.66896
 C416 C 0.79112 0.66517 0.67763
 C417 C 0.79089 0.69210 0.70571
 C418 C 0.79299 0.69667 0.80359
 C419 C 0.82006 0.69559 0.83147
 C420 C 0.84140 0.72717 0.83926
 C421 C 0.83556 0.75966 0.81853
 C422 C 0.80887 0.76060 0.79032
 C423 C 0.73197 0.82313 0.77555
 C424 C 0.72967 0.84899 0.80451
 C425 C 0.72259 0.83730 0.84120
 C426 C 0.71790 0.79936 0.84864
 C427 C 0.72064 0.77343 0.81974
 C428 C 0.71757 0.76158 0.68345
 C429 C 0.69211 0.76302 0.65409
 C430 C 0.65404 0.76543 0.66159
 C431 C 0.64184 0.76732 0.69875
 C432 C 0.66720 0.76530 0.72809
 H433 H 0.70097 0.68384 0.73365
 H434 H 0.70118 0.63717 0.68391
 H435 H 0.81642 0.66003 0.66216
 H436 H 0.81595 0.70760 0.71132
 H437 H 0.77650 0.67214 0.79832
 H438 H 0.82394 0.67022 0.84714
 H439 H 0.80537 0.78578 0.77419
 H440 H 0.73760 0.83260 0.74739
 H441 H 0.73355 0.87816 0.79836
 H442 H 0.71268 0.78967 0.87676
 H443 H 0.71718 0.74421 0.82592
 H444 H 0.74685 0.75991 0.67708
 H445 H 0.70225 0.76223 0.62564
 H446 H 0.61256 0.76960 0.70502
 H447 H 0.65706 0.76581 0.75659
 H448 H 0.85187 0.78425 0.82406
 C449 C 0.29970 0.10019 0.12906
 C450 C 0.26484 0.07852 0.11651
 C451 C 0.27623 0.08454 0.07559
 C452 C 0.31110 0.10579 0.08770
 C453 C 0.25384 0.12081 0.07380
 C454 C 0.24247 0.11517 0.11517
 C455 C 0.27726 0.13655 0.12742
 C456 C 0.28868 0.14249 0.08635
 H457 H 0.31865 0.09195 0.15201
 H458 H 0.25507 0.05191 0.12864
 H459 H 0.33940 0.10170 0.07620
 H460 H 0.23493 0.12902 0.05079
 H461 H 0.21421 0.11936 0.12671
 H462 H 0.29870 0.16871 0.07362
 C463 C 0.78220 0.58202 0.63843
 C464 C 0.74893 0.56076 0.62157
 C465 C 0.76337 0.56983 0.58220
 C466 C 0.79666 0.59073 0.59867
 C467 C 0.74035 0.60570 0.58121
 C468 C 0.72585 0.59700 0.62102
 C469 C 0.75917 0.61796 0.63757
 C470 C 0.77359 0.62697 0.59808
 H471 H 0.79935 0.57246 0.66229
 H472 H 0.73887 0.53316 0.63089
 H473 H 0.82583 0.58799 0.58919
 H474 H 0.72323 0.61519 0.55729
 H475 H 0.69646 0.59931 0.62985
 H476 H 0.78367 0.65452 0.58866
 C477 C 0.76115 0.88705 0.11720
 C478 C 0.74801 0.88096 0.07644
 C479 C 0.72593 0.91737 0.07881
 C480 C 0.73907 0.92387 0.11908
 C481 C 0.69148 0.89651 0.09280
 C482 C 0.71360 0.85967 0.09088
 C483 C 0.72677 0.86608 0.13130
 C484 C 0.70465 0.90260 0.13349
 H485 H 0.78983 0.88282 0.12750
 H486 H 0.76588 0.87235 0.05268
 H487 H 0.74950 0.95057 0.13038
 H488 H 0.66274 0.90061 0.08258
 H489 H 0.70291 0.83337 0.07895
 H490 H 0.68673 0.91127 0.15718
 C491 C 0.27105 0.40226 0.61607
 C492 C 0.25767 0.39450 0.57572
 C493 C 0.23371 0.42976 0.57743
 C494 C 0.24703 0.43786 0.61736
 C495 C 0.20062 0.40746 0.59249
 C496 C 0.22464 0.37182 0.59120
 C497 C 0.23794 0.37989 0.63125
 C498 C 0.21396 0.41519 0.63282
 H499 H 0.30030 0.40038 0.62536
 H500 H 0.27557 0.38623 0.55187
 H501 H 0.25615 0.46537 0.62783
 H502 H 0.17161 0.40977 0.58253
 H503 H 0.21549 0.34437 0.58063
 H504 H 0.19603 0.42352 0.65662
 C505 C 0.86868 0.27855 0.08726
 C506 C 0.90481 0.30167 0.08772
 C507 C 0.92652 0.26714 0.07501
 C508 C 0.89079 0.24404 0.07416
 C509 C 0.93368 0.25594 0.11580
 C510 C 0.91161 0.29047 0.12888
 C511 C 0.87581 0.26733 0.12816
 C512 C 0.89760 0.23284 0.11539
 H513 H 0.84207 0.28808 0.07509
 H514 H 0.90801 0.33005 0.07609
 H515 H 0.88255 0.22491 0.05133
 H516 H 0.96073 0.24667 0.12721
 H517 H 0.91997 0.30965 0.15162
 H518 H 0.89435 0.20447 0.12704
 C519 C 0.36434 0.77721 0.59581
 C520 C 0.40110 0.79924 0.59622
 C521 C 0.42121 0.76495 0.58049
 C522 C 0.38480 0.74296 0.57968
 C523 C 0.42956 0.75101 0.62019
 C524 C 0.40909 0.78529 0.63630
 C525 C 0.37262 0.76331 0.63562
 C526 C 0.39277 0.72897 0.61982
 H527 H 0.33721 0.78797 0.58599
 H528 H 0.40466 0.82819 0.58626
 H529 H 0.37505 0.72561 0.55603
 H530 H 0.45673 0.74029 0.62991
 H531 H 0.41892 0.80267 0.65989
 H532 H 0.38961 0.69980 0.62919
 C533 C 0.10418 0.76920 0.11478
 C534 C 0.11043 0.75589 0.07408
 C535 C 0.07465 0.73298 0.07669
 C536 C 0.06805 0.74627 0.11696
 C537 C 0.09642 0.69906 0.09077
 C538 C 0.13261 0.72201 0.08856
 C539 C 0.12604 0.73533 0.12895
 C540 C 0.09019 0.71237 0.13143
 H541 H 0.10768 0.79811 0.12490
 H542 H 0.11844 0.77380 0.05018
 H543 H 0.04118 0.75619 0.12834
 H544 H 0.09297 0.67014 0.08068
 H545 H 0.15905 0.71181 0.07646
 H546 H 0.08208 0.69440 0.15526
 C547 C 0.61158 0.25838 0.61561
 C548 C 0.61767 0.24677 0.57437
 C549 C 0.58064 0.22585 0.57540
 C550 C 0.57420 0.23747 0.61621
 C551 C 0.60026 0.19008 0.58800
 C552 C 0.63771 0.21101 0.58738
 C553 C 0.63129 0.22266 0.62830
 C554 C 0.59419 0.20170 0.62920
 H555 H 0.61655 0.28649 0.62724
 H556 H 0.62701 0.26537 0.55151
 H557 H 0.54777 0.24835 0.62775
 H558 H 0.59534 0.16196 0.57638
 H559 H 0.66374 0.19991 0.57517
 H560 H 0.58475 0.18306 0.65199
 C561 C 0.70279 0.08692 0.87095
 C562 C 0.73691 0.06434 0.88398
 C563 C 0.72575 0.07164 0.92479
 C564 C 0.69161 0.09386 0.91214
 C565 C 0.74929 0.10712 0.92573
 C566 C 0.76046 0.10017 0.88450
 C567 C 0.72636 0.12248 0.87176
 C568 C 0.71517 0.12976 0.91268
 H569 H 0.68357 0.07884 0.84818
 H570 H 0.74583 0.03713 0.87249
 H571 H 0.66323 0.09101 0.92375
 H572 H 0.76845 0.11512 0.94857
 H573 H 0.78883 0.10308 0.87287
 H574 H 0.70601 0.15656 0.92488
 C575 C 0.24868 0.60334 0.36927
 C576 C 0.25836 0.60967 0.41085
 C577 C 0.22508 0.58550 0.42201
 C578 C 0.21540 0.57881 0.38077
 C579 C 0.19974 0.61980 0.42332
 C580 C 0.23301 0.64436 0.41177
 C581 C 0.22331 0.63772 0.37040
 C582 C 0.19004 0.61350 0.38159
 H583 H 0.26892 0.59679 0.34682
 H584 H 0.28655 0.60789 0.42306
 H585 H 0.20823 0.55153 0.36833
 H586 H 0.17960 0.62621 0.44589
 H587 H 0.24045 0.67119 0.42497
 H588 H 0.16189 0.61541 0.36930
 C589 C 0.30273 0.89317 0.88871
 C590 C 0.29005 0.93397 0.88403
 C591 C 0.26819 0.93095 0.92079
 C592 C 0.28083 0.89052 0.92584
 C593 C 0.23343 0.91830 0.89956
 C594 C 0.25533 0.92095 0.86241
 C595 C 0.26797 0.88041 0.86738
 C596 C 0.24605 0.87747 0.90419
 H597 H 0.33156 0.88328 0.88453
 H598 H 0.30811 0.95758 0.87598
 H599 H 0.29123 0.87826 0.95229
 H600 H 0.20489 0.92885 0.90425
 H601 H 0.24492 0.93332 0.83603
 H602 H 0.22796 0.85390 0.91225
 C603 C 0.79813 0.40307 0.37032
 C604 C 0.76262 0.42344 0.38342
 C605 C 0.77423 0.41700 0.42419
 C606 C 0.80973 0.39700 0.41150
 C607 C 0.75303 0.38007 0.42532
 C608 C 0.74144 0.38617 0.38412
 C609 C 0.77690 0.36607 0.37133
 C610 C 0.78853 0.35965 0.41223
 H611 H 0.81677 0.41232 0.34746
 H612 H 0.75197 0.45000 0.37190
 H613 H 0.83785 0.40172 0.42302
 H614 H 0.73443 0.37094 0.44827
 H615 H 0.71332 0.38140 0.37259
 H616 H 0.79941 0.33352 0.42443
 C617 C 0.13229 0.24852 0.89998
 C618 C 0.11698 0.28259 0.92155
 C619 C 0.07777 0.26658 0.91790
 C620 C 0.09265 0.23247 0.89681
 C621 C 0.07179 0.28748 0.88097
 C622 C 0.11140 0.30355 0.88421
 C623 C 0.12644 0.26950 0.86297
 C624 C 0.08711 0.25346 0.85944
 H625 H 0.15750 0.23252 0.90752
 H626 H 0.12905 0.29445 0.94744
 H627 H 0.08477 0.20319 0.90222
 H628 H 0.04656 0.30344 0.87339
 H629 H 0.11858 0.33309 0.87934
 H630 H 0.07497 0.24158 0.83360
 C631 C 0.63311 0.78139 0.41233
 C632 C 0.59676 0.80426 0.41069
 C633 C 0.57508 0.76970 0.42311
 C634 C 0.61101 0.74686 0.42515
 C635 C 0.56911 0.75803 0.38227
 C636 C 0.59117 0.79258 0.36944
 C637 C 0.62716 0.76969 0.37137
 C638 C 0.60538 0.73519 0.38390
 H639 H 0.65933 0.79120 0.42505
 H640 H 0.59292 0.83271 0.42195
 H641 H 0.61885 0.72801 0.44838
 H642 H 0.54246 0.74847 0.37023
 H643 H 0.58325 0.81148 0.34629
 H644 H 0.60926 0.70673 0.37265
 C645 C 0.86646 0.74913 0.90606
 C646 C 0.88107 0.71514 0.92820
 C647 C 0.92078 0.72933 0.92259
 C648 C 0.90659 0.76333 0.90091
 C649 C 0.92465 0.70700 0.88620
 C650 C 0.88449 0.69277 0.89137
 C651 C 0.87018 0.72677 0.86958
 C652 C 0.91004 0.74094 0.86412
 H653 H 0.84222 0.76643 0.91398
 H654 H 0.86941 0.70463 0.95489
 H655 H 0.91585 0.79242 0.90498
 H656 H 0.94891 0.68973 0.87826
 H657 H 0.87578 0.66349 0.88766
 H658 H 0.92181 0.75147 0.83749
 C659 C 0.37412 0.26173 0.40175
 C660 C 0.38617 0.22605 0.42267
 C661 C 0.42677 0.23831 0.41910
 C662 C 0.41511 0.27396 0.39865
 C663 C 0.43071 0.21757 0.38178
 C664 C 0.38973 0.20531 0.38493
 C665 C 0.37803 0.24092 0.36435
 C666 C 0.41875 0.25322 0.36093
 H667 H 0.35059 0.27999 0.40968
 H668 H 0.37309 0.21492 0.44841
 H669 H 0.42573 0.30224 0.40457
 H670 H 0.45429 0.19936 0.37388
 H671 H 0.37907 0.17705 0.37896
 H672 H 0.43269 0.26466 0.33581
 C673 C 0.75626 0.88587 0.88567
 C674 C 0.73474 0.92297 0.88400
 C675 C 0.72193 0.91682 0.92449
 C676 C 0.74345 0.88005 0.92655
 C677 C 0.68703 0.89648 0.91102
 C678 C 0.69984 0.90224 0.87012
 C679 C 0.72142 0.86541 0.87209
 C680 C 0.70858 0.85929 0.91269
 H681 H 0.78477 0.88118 0.87499
 H682 H 0.74546 0.94950 0.87254
 H683 H 0.76142 0.87125 0.95010
 H684 H 0.65853 0.90116 0.92173
 H685 H 0.68183 0.91112 0.84664
 H686 H 0.69760 0.83319 0.92485
 C687 C 0.24428 0.42273 0.35985
 C688 C 0.20976 0.43512 0.38235
 C689 C 0.23214 0.43137 0.41866
 C690 C 0.26671 0.41935 0.39656
 C691 C 0.21988 0.39079 0.42301
 C692 C 0.19746 0.39417 0.38633
 C693 C 0.23203 0.38204 0.36413
 C694 C 0.25446 0.37838 0.40049
 H695 H 0.25425 0.43572 0.33358
 H696 H 0.19142 0.45881 0.37516
 H697 H 0.29522 0.42992 0.40100
 H698 H 0.20994 0.37791 0.44935
 H699 H 0.16865 0.38425 0.38243
 H700 H 0.27284 0.35472 0.40770
 C701 C 0.24824 0.10113 0.87068
 C702 C 0.28191 0.07703 0.88215
 C703 C 0.27237 0.08413 0.92338
 C704 C 0.23868 0.10782 0.91231
 C705 C 0.29728 0.11865 0.92412
 C706 C 0.30682 0.11197 0.88239
 C707 C 0.27319 0.13576 0.87122
 C708 C 0.26361 0.14276 0.91260
 H709 H 0.22798 0.09416 0.84847
 H710 H 0.28936 0.04969 0.86993
 H711 H 0.21056 0.10592 0.92477
 H712 H 0.31747 0.12556 0.94643
 H713 H 0.33488 0.11400 0.86984
 H714 H 0.25589 0.16968 0.92553
 C715 C 0.78640 0.58447 0.36750
 C716 C 0.80016 0.59225 0.40769
 C717 C 0.76665 0.57086 0.42315
 C718 C 0.75292 0.56271 0.38336
 C719 C 0.74351 0.60666 0.42466
 C720 C 0.77695 0.62844 0.40878
 C721 C 0.76321 0.62032 0.36889
 C722 C 0.72971 0.59883 0.38448
 H723 H 0.80399 0.57553 0.34366
 H724 H 0.82916 0.58935 0.41752
 H725 H 0.74313 0.53531 0.37321
 H726 H 0.72595 0.61555 0.44854
 H727 H 0.78678 0.65578 0.41902
 H728 H 0.70043 0.60120 0.37541
 C729 C 0.13008 0.72083 0.91061
 C730 C 0.10803 0.75490 0.92496
 C731 C 0.07218 0.73214 0.92241
 C732 C 0.09380 0.69803 0.90849
 C733 C 0.06568 0.74529 0.88212
 C734 C 0.10194 0.76805 0.88419
 C735 C 0.12368 0.73401 0.87017
 C736 C 0.08773 0.71121 0.86778
 H737 H 0.15641 0.71055 0.92278
 H738 H 0.11609 0.77289 0.94877
 H739 H 0.09024 0.66914 0.91865
 H740 H 0.03889 0.75529 0.87070
 H741 H 0.10563 0.79689 0.87395
 H742 H 0.07962 0.69318 0.84402
 C743 C 0.63437 0.24967 0.40287
 C744 C 0.59456 0.26488 0.39810
 C745 C 0.57961 0.23057 0.41870
 C746 C 0.61904 0.21536 0.42387
 C747 C 0.57555 0.20948 0.38161
 C748 C 0.59088 0.24374 0.36063
 C749 C 0.63043 0.22856 0.36572
 C750 C 0.61539 0.19421 0.38639
 H751 H 0.65888 0.26619 0.41136
 H752 H 0.58576 0.29399 0.40313
 H753 H 0.63033 0.20377 0.45025
 H754 H 0.55099 0.19301 0.37316
 H755 H 0.57946 0.25536 0.33433
 H756 H 0.62359 0.16487 0.38177
 C757 C 0.86938 0.27286 0.90443
 C758 C 0.89098 0.23969 0.92122
 C759 C 0.92692 0.26228 0.91820
 C760 C 0.90571 0.29552 0.90182
 C761 C 0.93432 0.24680 0.87888
 C762 C 0.89804 0.22414 0.88151
 C763 C 0.87674 0.25738 0.86500
 C764 C 0.91272 0.28001 0.86209
 H765 H 0.84236 0.28350 0.91473
 H766 H 0.88231 0.22321 0.94593
 H767 H 0.90909 0.32491 0.91046
 H768 H 0.96140 0.23620 0.86869
 H769 H 0.89517 0.19451 0.87360
 H770 H 0.92145 0.29652 0.83742
 C771 C 0.36457 0.78013 0.40538
 C772 C 0.38462 0.74577 0.42176
 C773 C 0.42128 0.76734 0.42075
 C774 C 0.40161 0.80173 0.40479
 C775 C 0.42953 0.75297 0.38116
 C776 C 0.39252 0.73135 0.38176
 C777 C 0.37278 0.76576 0.36568
 C778 C 0.40950 0.78735 0.36479
 H779 H 0.33755 0.79126 0.41514
 H780 H 0.37460 0.72875 0.44557
 H781 H 0.40552 0.83071 0.41453
 H782 H 0.45660 0.74186 0.37149
 H783 H 0.38909 0.70211 0.37271
 H784 H 0.41957 0.80440 0.34104
 C785 C 0.30581 0.89365 0.11087
 C786 C 0.28337 0.89095 0.07412
 C787 C 0.27119 0.93152 0.07911
 C788 C 0.29359 0.93464 0.11545
 C789 C 0.23661 0.91935 0.10104
 C790 C 0.24878 0.87841 0.09645
 C791 C 0.27119 0.88142 0.13286
 C792 C 0.25905 0.92210 0.13776
 H793 H 0.33456 0.88343 0.11469
 H794 H 0.29330 0.87843 0.04757
 H795 H 0.31199 0.95813 0.12298
 H796 H 0.20811 0.93012 0.09680
 H797 H 0.23034 0.85496 0.08888
 H798 H 0.24910 0.93477 0.16422
 C799 C 0.80529 0.38137 0.61358
 C800 C 0.78424 0.37772 0.57609
 C801 C 0.76956 0.41745 0.58103
 C802 C 0.79056 0.42152 0.61811
 C803 C 0.73507 0.40307 0.60168
 C804 C 0.74975 0.36295 0.59715
 C805 C 0.77077 0.36691 0.63430
 C806 C 0.75611 0.40677 0.63914
 H807 H 0.83444 0.37280 0.61828
 H808 H 0.79574 0.36607 0.54978
 H809 H 0.80729 0.44598 0.62644
 H810 H 0.70614 0.41221 0.59658
 H811 H 0.73297 0.33854 0.58878
 H812 H 0.74459 0.41856 0.66537
 C813 C 0.72220 0.12781 0.09605
 C814 C 0.75487 0.10578 0.07883
 C815 C 0.73185 0.07009 0.08185
 C816 C 0.69909 0.09173 0.09866
 C817 C 0.74747 0.06228 0.12098
 C818 C 0.77057 0.09833 0.11837
 C819 C 0.73782 0.12006 0.13530
 C820 C 0.71475 0.08432 0.13820
 H821 H 0.71189 0.15508 0.08601
 H822 H 0.77126 0.11435 0.05403
 H823 H 0.66966 0.08879 0.09027
 H824 H 0.75775 0.03495 0.13091
 H825 H 0.80023 0.10077 0.12603
 H826 H 0.69834 0.07570 0.16297
 C827 C 0.24910 0.60179 0.63002
 C828 C 0.21574 0.57761 0.61811
 C829 C 0.22588 0.58448 0.57698
 C830 C 0.25925 0.60830 0.58854
 C831 C 0.20084 0.61900 0.57576
 C832 C 0.19067 0.61251 0.61736
 C833 C 0.22402 0.63639 0.62895
 C834 C 0.23419 0.64320 0.58769
 H835 H 0.26906 0.59492 0.65256
 H836 H 0.20823 0.55031 0.63032
 H837 H 0.28754 0.60635 0.57650
 H838 H 0.18097 0.62575 0.55310
 H839 H 0.16241 0.61456 0.62945
 H840 H 0.24199 0.67005 0.57473
 C841 C 0.86765 0.74953 0.09836
 C842 C 0.90784 0.76397 0.10179
 C843 C 0.92145 0.72983 0.07990
 C844 C 0.88164 0.71539 0.07605
 C845 C 0.92667 0.70793 0.11637
 C846 C 0.91270 0.74201 0.13865
 C847 C 0.87278 0.72759 0.13489
 C848 C 0.88647 0.69343 0.11292
 H849 H 0.84305 0.76663 0.09123
 H850 H 0.91684 0.79302 0.09698
 H851 H 0.86914 0.70455 0.04991
 H852 H 0.95131 0.69088 0.12348
 H853 H 0.92535 0.75289 0.16469
 H854 H 0.87808 0.66414 0.11726
 C855 C 0.37560 0.25856 0.59657
 C856 C 0.41680 0.26978 0.60003
 C857 C 0.42771 0.23483 0.57794
 C858 C 0.38687 0.22359 0.57404
 C859 C 0.43127 0.21241 0.61429
 C860 C 0.42005 0.24737 0.63677
 C861 C 0.37907 0.23610 0.63300
 C862 C 0.39001 0.20117 0.61082
 H863 H 0.35246 0.27765 0.58955
 H864 H 0.42799 0.29808 0.59534
 H865 H 0.37353 0.21385 0.54790
 H866 H 0.45447 0.19339 0.62124
 H867 H 0.43429 0.25738 0.66229
 H868 H 0.37877 0.17290 0.61560
 C869 C 0.10890 0.23320 0.11495
 C870 C 0.07184 0.25480 0.11559
 C871 C 0.07979 0.26876 0.07581
 C872 C 0.11652 0.24721 0.07478
 C873 C 0.09941 0.30334 0.09127
 C874 C 0.09184 0.28936 0.13147
 C875 C 0.12862 0.26776 0.13056
 C876 C 0.13654 0.28173 0.09067
 H877 H 0.11249 0.20402 0.12419
 H878 H 0.04486 0.24379 0.12554
 H879 H 0.12645 0.22994 0.05108
 H880 H 0.09530 0.33220 0.08123
 H881 H 0.08187 0.30665 0.15513
 H882 H 0.16347 0.29276 0.08063
 C883 C 0.60271 0.79970 0.61984
 C884 C 0.60942 0.79079 0.57799
 C885 C 0.57473 0.76614 0.57822
 C886 C 0.56765 0.77504 0.61961
 C887 C 0.59807 0.73202 0.58884
 C888 C 0.63316 0.75667 0.58901
 C889 C 0.62612 0.76561 0.63052
 C890 C 0.59135 0.74091 0.63059
 H891 H 0.60492 0.82758 0.63283
 H892 H 0.61654 0.81134 0.55602
 H893 H 0.54038 0.78253 0.63188
 H894 H 0.59591 0.70411 0.57587
 H895 H 0.66000 0.74892 0.57601
 H896 H 0.58412 0.72028 0.65244
   
