data_POSCAR
  _audit_creation_date              2014-09-24
  _audit_creation_method            'ToBaCCo'
  _symmetry_space_group_name_H-M    'P1'
  _symmetry_Int_Tables_number       1
  _symmetry_cell_setting            triclinic
  loop_
  _symmetry_equiv_pos_as_xyz
 x,y,z
_cell_length_a 32.6109
_cell_length_b 32.6039
_cell_length_c 32.5497
_cell_angle_alpha 96.493600
_cell_angle_beta 96.638500
_cell_angle_gamma 96.587000
loop_
  _atom_site_label
  _atom_site_type_symbol
  _atom_site_fract_x
  _atom_site_fract_y
  _atom_site_fract_z
C1 C 0.69484 0.71902 0.98131
 H2 H 0.72611 0.73438 0.99148
 C3 C 0.66442 0.74127 0.96376
 H4 H 0.67230 0.77379 0.96035
 C5 C 0.64612 0.65777 0.97230
 H6 H 0.63946 0.62503 0.97527
 C7 C 0.61494 0.67875 0.95476
 H8 H 0.58410 0.66218 0.94427
 N9 N 0.68528 0.67783 0.98450
 C10 C 0.79582 0.67170 1.06322
 H11 H 0.77856 0.65586 1.08445
 C12 C 0.83783 0.68667 1.07535
 H13 H 0.85242 0.68301 1.10613
 C14 C 0.79937 0.69281 0.99618
 H15 H 0.78452 0.69350 0.96482
 C16 C 0.84153 0.70810 1.00706
 H17 H 0.85901 0.72127 0.98426
 Zn18 Zn 0.72486 0.64388 1.00360
 N19 N 0.77761 0.67447 1.02399
 C20 C 0.76409 0.58115 0.96539
 N21 N 0.73450 0.60653 0.95806
 C22 C 0.71805 0.61050 0.91848
 C23 C 0.73234 0.58930 0.88428
 C24 C 0.77914 0.55937 0.93213
 C25 C 0.69382 0.64165 1.07901
 C26 C 0.67817 0.62498 1.11249
 C27 C 0.68216 0.55596 1.07837
 C28 C 0.69792 0.57408 1.04538
 N29 N 0.70367 0.61627 1.04651
 H30 H 0.77755 0.57959 0.99706
 H31 H 0.69558 0.63185 0.91321
 H32 H 0.72024 0.59373 0.85290
 H33 H 0.80372 0.54030 0.93825
 H34 H 0.69835 0.67503 1.07888
 H35 H 0.67047 0.64577 1.13810
 H36 H 0.67751 0.52237 1.07715
 H37 H 0.70535 0.55446 1.01894
 C38 C 0.86109 0.70421 1.04674
 C39 C 0.62424 0.72072 0.94997
 C40 C 0.67231 0.58175 1.11235
 C41 C 0.76376 0.56419 0.89126
 C42 C 0.72023 0.34113 0.51484
 H43 H 0.75179 0.34406 0.53037
 C44 C 0.68862 0.31621 0.52905
 H45 H 0.69585 0.29971 0.55552
 C46 C 0.67169 0.36153 0.46338
 H47 H 0.66508 0.38038 0.43878
 C48 C 0.63902 0.33703 0.47680
 H49 H 0.60735 0.33686 0.46235
 N50 N 0.71127 0.36342 0.48282
 C51 C 0.83105 0.39857 0.44168
 H52 H 0.83100 0.43191 0.44354
 C53 C 0.86457 0.38049 0.42796
 H54 H 0.89046 0.39988 0.41899
 C55 C 0.79707 0.33236 0.45045
 H56 H 0.77045 0.31368 0.45867
 C57 C 0.83000 0.31300 0.43683
 H58 H 0.82876 0.27947 0.43471
 Zn59 Zn 0.75497 0.40210 0.47186
 N60 N 0.79847 0.37450 0.45312
 C61 C 0.81406 0.43677 0.54122
 N62 N 0.77403 0.43579 0.52342
 C63 C 0.74514 0.45206 0.54521
 C64 C 0.75561 0.46811 0.58734
 C65 C 0.82586 0.45281 0.58302
 C66 C 0.72431 0.41150 0.39088
 C67 C 0.70832 0.43142 0.35798
 C68 C 0.71720 0.49563 0.40504
 C69 C 0.73311 0.47447 0.43715
 N70 N 0.73565 0.43299 0.42963
 H71 H 0.83632 0.42270 0.52402
 H72 H 0.71329 0.44992 0.53066
 H73 H 0.73190 0.47874 0.60513
 H74 H 0.85725 0.45144 0.59742
 H75 H 0.72697 0.37859 0.38582
 H76 H 0.69824 0.41377 0.32752
 H77 H 0.71408 0.52838 0.41141
 H78 H 0.74270 0.49094 0.46812
 C79 C 0.86409 0.33737 0.42573
 C80 C 0.64760 0.31469 0.51033
 C81 C 0.70438 0.47376 0.36520
 C82 C 0.79613 0.46748 0.60661
 C83 C 0.21911 -0.15845 0.01405
 H84 H 0.25069 -0.15562 0.02954
 C85 C 0.18745 -0.18329 0.02829
 H86 H 0.19465 -0.19984 0.05473
 C87 C 0.17062 -0.13789 -0.03734
 H88 H 0.16405 -0.11903 -0.06193
 C89 C 0.13791 -0.16231 -0.02391
 H90 H 0.10625 -0.16241 -0.03834
 N91 N 0.21021 -0.13613 -0.01795
 C92 C 0.32972 -0.10149 -0.05986
 H93 H 0.32968 -0.06817 -0.05818
 C94 C 0.36318 -0.11967 -0.07361
 H95 H 0.38902 -0.10036 -0.08277
 C96 C 0.29585 -0.16756 -0.05053
 H97 H 0.26932 -0.18616 -0.04203
 C98 C 0.32872 -0.18703 -0.06416
 H99 H 0.32753 -0.22054 -0.06602
 Zn100 Zn 0.25399 -0.09763 -0.02909
 N101 N 0.29725 -0.12544 -0.04810
 C102 C 0.31364 -0.06309 0.03985
 N103 N 0.27349 -0.06399 0.02243
 C104 C 0.24488 -0.04763 0.04455
 C105 C 0.25578 -0.03156 0.08664
 C106 C 0.32585 -0.04703 0.08159
 C107 C 0.22312 -0.08812 -0.10996
 C108 C 0.20692 -0.06823 -0.14278
 C109 C 0.21592 -0.00401 -0.09560
 C110 C 0.23204 -0.02520 -0.06361
 N111 N 0.23459 -0.06666 -0.07122
 H112 H 0.33569 -0.07722 0.02240
 H113 H 0.21293 -0.04970 0.03030
 H114 H 0.23229 -0.02085 0.10470
 H115 H 0.35735 -0.04846 0.09569
 H116 H 0.22582 -0.12102 -0.11507
 H117 H 0.19677 -0.08603 -0.17318
 H118 H 0.21286 0.02877 -0.08896
 H119 H 0.24174 -0.00877 -0.03264
 C120 C 0.36274 -0.16276 -0.07553
 C121 C 0.14644 -0.18471 0.00958
 C122 C 0.20287 -0.02585 -0.13549
 C123 C 0.29643 -0.03226 0.10552
 C124 C 0.19609 0.21904 0.48031
 H125 H 0.22733 0.23445 0.49062
 C126 C 0.16565 0.24128 0.46281
 H127 H 0.17346 0.27385 0.45959
 C128 C 0.14751 0.15765 0.47092
 H129 H 0.14092 0.12488 0.47375
 C130 C 0.11631 0.17863 0.45342
 H131 H 0.08551 0.16201 0.44283
 N132 N 0.18662 0.17779 0.48331
 C133 C 0.29674 0.17157 0.56258
 H134 H 0.27929 0.15562 0.58360
 C135 C 0.33872 0.18649 0.57507
 H136 H 0.35307 0.18267 0.60589
 C137 C 0.30085 0.19301 0.49575
 H138 H 0.28624 0.19384 0.46433
 C139 C 0.34299 0.20825 0.50698
 H140 H 0.36069 0.22152 0.48440
 Zn141 Zn 0.22621 0.14388 0.50246
 N142 N 0.27884 0.17452 0.52328
 C143 C 0.26589 0.08150 0.46421
 N144 N 0.23619 0.10677 0.45687
 C145 C 0.21979 0.11076 0.41728
 C146 C 0.23422 0.08970 0.38309
 C147 C 0.28108 0.05986 0.43096
 C148 C 0.19459 0.14121 0.57753
 C149 C 0.17905 0.12435 0.61096
 C150 C 0.18393 0.05555 0.57701
 C151 C 0.19956 0.07381 0.54402
 N152 N 0.20486 0.11601 0.54512
 H153 H 0.27930 0.07990 0.49589
 H154 H 0.19723 0.13203 0.41201
 H155 H 0.22212 0.09413 0.35170
 H156 H 0.30571 0.04085 0.43709
 H157 H 0.19877 0.17460 0.57740
 H158 H 0.17102 0.14482 0.63659
 H159 H 0.17966 0.02200 0.57602
 H160 H 0.20733 0.05430 0.51768
 C161 C 0.36225 0.20415 0.54673
 C162 C 0.12551 0.22066 0.44885
 C163 C 0.17376 0.08118 0.61086
 C164 C 0.26572 0.06469 0.39008
 C165 C 0.21980 0.47962 0.19526
 H166 H 0.23516 0.48987 0.22657
 C167 C 0.24196 0.46179 0.16497
 H168 H 0.27444 0.45829 0.17297
 C169 C 0.15858 0.47060 0.14635
 H170 H 0.12588 0.47366 0.13959
 C171 C 0.17948 0.45278 0.11531
 H172 H 0.16289 0.44220 0.08444
 N173 N 0.17866 0.48294 0.18555
 C174 C 0.17230 0.56248 0.29532
 H175 H 0.15648 0.58338 0.27758
 C176 C 0.18702 0.57510 0.33737
 H177 H 0.18319 0.60592 0.35150
 C178 C 0.19357 0.49580 0.30006
 H179 H 0.19439 0.46437 0.28567
 C180 C 0.20862 0.50717 0.34229
 H181 H 0.22173 0.48471 0.36028
 Zn182 Zn 0.14471 0.50219 0.22499
 N183 N 0.17524 0.52318 0.27769
 C184 C 0.08232 0.46409 0.26482
 N185 N 0.10757 0.45672 0.23510
 C186 C 0.11143 0.41719 0.21874
 C187 C 0.09024 0.38309 0.23322
 C188 C 0.06056 0.43093 0.28005
 C189 C 0.14194 0.57695 0.19279
 C190 C 0.12498 0.61027 0.17719
 C191 C 0.05626 0.57628 0.18242
 C192 C 0.07461 0.54341 0.19810
 N193 N 0.11681 0.54459 0.20329
 H194 H 0.08083 0.49572 0.27819
 H195 H 0.13267 0.41189 0.19617
 H196 H 0.09456 0.35174 0.22116
 H197 H 0.04157 0.43707 0.30470
 H198 H 0.17533 0.57690 0.19691
 H199 H 0.14538 0.63589 0.16902
 H200 H 0.02271 0.57524 0.17828
 H201 H 0.05517 0.51710 0.20605
 C202 C 0.20449 0.54692 0.36126
 C203 C 0.22138 0.44784 0.12477
 C204 C 0.08181 0.61010 0.17207
 C205 C 0.06525 0.39012 0.26473
 C206 C -0.15986 0.01551 0.21901
 H207 H -0.15719 0.03072 0.25069
 C208 C -0.18433 0.03012 0.18723
 H209 H -0.20076 0.05655 0.19457
 C210 C -0.13914 -0.03546 0.17038
 H211 H -0.12031 -0.05999 0.16382
 C212 C -0.16316 -0.02166 0.13754
 H213 H -0.16298 -0.03587 0.10581
 N214 N -0.13760 -0.01642 0.21009
 C215 C -0.10279 -0.05860 0.32977
 H216 H -0.06948 -0.05691 0.32956
 C217 C -0.12077 -0.07250 0.36333
 H218 H -0.10135 -0.08178 0.38909
 C219 C -0.16898 -0.04915 0.29617
 H220 H -0.18768 -0.04055 0.26969
 C221 C -0.18826 -0.06295 0.32917
 H222 H -0.22176 -0.06484 0.32812
 Zn223 Zn -0.09918 -0.02773 0.25396
 N224 N -0.12688 -0.04674 0.29737
 C225 C -0.06437 0.04099 0.31361
 N226 N -0.06534 0.02357 0.27343
 C227 C -0.04882 0.04556 0.24473
 C228 C -0.03249 0.08751 0.25556
 C229 C -0.04806 0.08259 0.32576
 C230 C -0.08991 -0.10843 0.22303
 C231 C -0.06999 -0.14123 0.20714
 C232 C -0.00562 -0.09434 0.21665
 C233 C -0.02679 -0.06231 0.23244
 N234 N -0.06834 -0.06980 0.23462
 H235 H -0.07863 0.02364 0.33572
 H236 H -0.05095 0.03131 0.21275
 H237 H -0.02165 0.10549 0.23200
 H238 H -0.04943 0.09671 0.35728
 H239 H -0.12288 -0.11346 0.22543
 H240 H -0.08769 -0.17159 0.19685
 H241 H 0.02721 -0.08800 0.21381
 H242 H -0.01025 -0.03145 0.24225
 C243 C -0.16384 -0.07448 0.36309
 C244 C -0.18543 0.01186 0.14605
 C245 C -0.02756 -0.13405 0.20357
 C246 C -0.03312 0.10640 0.29624
 C247 C 0.34073 0.51502 0.71995
 H248 H 0.34354 0.53026 0.75164
 C249 C 0.31593 0.52944 0.68831
 H250 H 0.29938 0.55576 0.69563
 C251 C 0.36134 0.46411 0.67118
 H252 H 0.38023 0.43965 0.66450
 C253 C 0.33696 0.47772 0.63848
 H254 H 0.33689 0.46356 0.60672
 N255 N 0.36307 0.48318 0.71090
 C256 C 0.39790 0.44110 0.83053
 H257 H 0.43126 0.44315 0.83060
 C258 C 0.37975 0.42687 0.86387
 H259 H 0.39912 0.41773 0.88975
 C260 C 0.33171 0.44986 0.79641
 H261 H 0.31307 0.45828 0.76980
 C262 C 0.31227 0.43572 0.82916
 H263 H 0.27873 0.43343 0.82781
 Zn264 Zn 0.40160 0.47195 0.75468
 N265 N 0.37387 0.45276 0.79797
 C266 C 0.43610 0.54084 0.81426
 N267 N 0.43529 0.52333 0.77414
 C268 C 0.45180 0.54529 0.74542
 C269 C 0.46796 0.58729 0.75615
 C270 C 0.45222 0.58252 0.82632
 C271 C 0.41099 0.39135 0.72366
 C272 C 0.43094 0.35859 0.70773
 C273 C 0.49526 0.40556 0.71722
 C274 C 0.47406 0.43754 0.73306
 N275 N 0.43252 0.42999 0.73527
 H276 H 0.42183 0.52351 0.83638
 H277 H 0.44980 0.53096 0.71348
 H278 H 0.47879 0.60522 0.73255
 H279 H 0.45072 0.59671 0.85777
 H280 H 0.37803 0.38626 0.72609
 H281 H 0.41328 0.32821 0.69744
 H282 H 0.52808 0.41195 0.71437
 H283 H 0.49056 0.46842 0.74289
 C284 C 0.33661 0.42435 0.86322
 C285 C 0.31457 0.51108 0.64717
 C286 C 0.47336 0.36583 0.70414
 C287 C 0.46715 0.60628 0.79675
 C288 C 0.72100 0.98029 0.69686
 H289 H 0.73663 0.99024 0.72812
 C290 C 0.74282 0.96265 0.66615
 H291 H 0.77531 0.95899 0.67379
 C292 C 0.65943 0.97185 0.64848
 H293 H 0.62673 0.97506 0.64207
 C294 C 0.67999 0.95423 0.61703
 H295 H 0.66313 0.94396 0.58623
 N296 N 0.67985 0.98382 0.68760
 C297 C 0.67412 1.06306 0.79785
 H298 H 0.65818 1.08398 0.78025
 C299 C 0.68903 1.07563 0.83987
 H300 H 0.68520 1.10646 0.85401
 C301 C 0.69551 0.99640 0.80228
 H302 H 0.69632 0.96501 0.78778
 C303 C 0.71076 1.00768 0.84449
 H304 H 0.72403 0.98511 0.86225
 Zn305 Zn 0.64622 1.00296 0.72743
 N306 N 0.67702 1.02381 0.78008
 C307 C 0.58392 0.96471 0.76731
 N308 N 0.60909 0.95745 0.73751
 C309 C 0.61275 0.91797 0.72082
 C310 C 0.59134 0.88380 0.73499
 C311 C 0.56195 0.93148 0.78225
 C312 C 0.64330 1.07785 0.69548
 C313 C 0.62625 1.11104 0.67967
 C314 C 0.55759 1.07684 0.68478
 C315 C 0.57602 1.04412 0.70066
 N316 N 0.61824 1.04544 0.70597
 H317 H 0.58257 0.99630 0.78092
 H318 H 0.63392 0.91276 0.69816
 H319 H 0.59543 0.85248 0.72261
 H320 H 0.54296 0.93752 0.80692
 H321 H 0.67671 1.07790 0.69965
 H322 H 0.64660 1.13666 0.67144
 H323 H 0.52402 1.07565 0.68047
 H324 H 0.55663 1.01776 0.70858
 C325 C 0.70668 1.04740 0.86365
 C326 C 0.72189 0.94911 0.62600
 C327 C 0.58306 1.11068 0.67434
 C328 C 0.56636 0.89070 0.76653
 C329 C 0.01447 0.21938 -0.15869
 H330 H 0.02974 0.25102 -0.15583
 C331 C 0.02896 0.18786 -0.18343
 H332 H 0.05536 0.19524 -0.19990
 C333 C -0.03653 0.17057 -0.13818
 H334 H -0.06103 0.16382 -0.11934
 C335 C -0.02283 0.13799 -0.16251
 H336 H -0.03699 0.10626 -0.16257
 N337 N -0.01743 0.21025 -0.13641
 C338 C -0.05926 0.32964 -0.10105
 H339 H -0.05736 0.32940 -0.06767
 C340 C -0.07322 0.36317 -0.11904
 H341 H -0.08232 0.38888 -0.09954
 C342 C -0.05033 0.29612 -0.16743
 H343 H -0.04193 0.26968 -0.18622
 C344 C -0.06419 0.32908 -0.18672
 H345 H -0.06632 0.32804 -0.22029
 Zn346 Zn -0.02861 0.25378 -0.09767
 N347 N -0.04763 0.29728 -0.12524
 C348 C 0.04042 0.31309 -0.06286
 N349 N 0.02285 0.27299 -0.06386
 C350 C 0.04480 0.24417 -0.04757
 C351 C 0.08686 0.25477 -0.03150
 C352 C 0.08216 0.32501 -0.04680
 C353 C -0.10929 0.22266 -0.08838
 C354 C -0.14206 0.20647 -0.06851
 C355 C -0.09498 0.21550 -0.00407
 C356 C -0.06304 0.23160 -0.02524
 N357 N -0.07063 0.23415 -0.06680
 H358 H 0.02309 0.33530 -0.07695
 H359 H 0.03042 0.21227 -0.04973
 H360 H 0.10478 0.23111 -0.02088
 H361 H 0.09639 0.35645 -0.04817
 H362 H -0.11439 0.22537 -0.12135
 H363 H -0.17241 0.19634 -0.08641
 H364 H -0.08836 0.21248 0.02879
 H365 H -0.03214 0.24134 -0.00871
 C366 C -0.07550 0.36294 -0.16221
 C367 C 0.01062 0.14675 -0.18480
 C368 C -0.13480 0.20246 -0.02602
 C369 C 0.10591 0.29535 -0.03213
 C370 C 0.48141 0.19565 0.21970
 H371 H 0.49122 0.22696 0.23508
 C372 C 0.46375 0.16515 0.24182
 H373 H 0.45996 0.17301 0.27428
 C374 C 0.47320 0.14694 0.15846
 H375 H 0.47646 0.14032 0.12576
 C376 C 0.45557 0.11569 0.17932
 H377 H 0.44537 0.08484 0.16269
 N378 N 0.48504 0.18613 0.17856
 C379 C 0.56357 0.29661 0.17195
 H380 H 0.58462 0.27918 0.15613
 C381 C 0.57583 0.33868 0.18657
 H382 H 0.60651 0.35311 0.18267
 C383 C 0.49686 0.30057 0.19332
 H384 H 0.46555 0.28588 0.19421
 C385 C 0.50786 0.34280 0.20826
 H386 H 0.48523 0.36047 0.22138
 Zn387 Zn 0.50386 0.22580 0.14450
 N388 N 0.52443 0.27858 0.17499
 C389 C 0.46503 0.26513 0.08190
 N390 N 0.45810 0.23541 0.10729
 C391 C 0.41873 0.21864 0.11130
 C392 C 0.38434 0.23269 0.09011
 C393 C 0.43158 0.27996 0.06013
 C394 C 0.57905 0.19456 0.14174
 C395 C 0.61242 0.17918 0.12475
 C396 C 0.57806 0.18387 0.05589
 C397 C 0.54515 0.19934 0.07426
 N398 N 0.54647 0.20466 0.11655
 H399 H 0.49654 0.27883 0.08029
 H400 H 0.41376 0.19605 0.13265
 H401 H 0.35312 0.22029 0.09454
 H402 H 0.43737 0.30461 0.04102
 H403 H 0.57911 0.19875 0.17520
 H404 H 0.63817 0.17127 0.14521
 H405 H 0.57687 0.17956 0.02227
 H406 H 0.51868 0.20697 0.05477
 C407 C 0.54744 0.36218 0.20404
 C408 C 0.45030 0.12494 0.22120
 C409 C 0.61208 0.17387 0.08149
 C410 C 0.39091 0.26421 0.06497
 C411 C 0.97938 0.69536 0.72047
 H412 H 0.98970 0.72656 0.73593
 C413 C 0.96179 0.66492 0.74269
 H414 H 0.95853 0.67271 0.77529
 C415 C 0.97001 0.64685 0.65900
 H416 H 0.97286 0.64028 0.62620
 C417 C 0.95241 0.61567 0.67995
 H418 H 0.94179 0.58490 0.66328
 N419 N 0.98243 0.68592 0.67919
 C420 C 1.06194 0.79575 0.67297
 H421 H 1.08278 0.77816 0.65699
 C422 C 1.07465 0.83767 0.68788
 H423 H 1.10546 0.85184 0.68403
 C424 C 0.99536 0.80027 0.69448
 H425 H 0.96395 0.78585 0.69534
 C426 C 1.00682 0.84237 0.70972
 H427 H 0.98442 0.86023 0.72302
 Zn428 Zn 1.00159 0.72554 0.64525
 N429 N 1.02266 0.77807 0.67594
 C430 C 0.96341 0.76549 0.58282
 N431 N 0.95606 0.73573 0.60808
 C432 C 0.91654 0.71926 0.61189
 C433 C 0.88242 0.73362 0.59056
 C434 C 0.93023 0.78062 0.56093
 C435 C 1.07635 0.69353 0.64231
 C436 C 1.10964 0.67805 0.62525
 C437 C 1.07553 0.68349 0.55648
 C438 C 1.04270 0.69903 0.57491
 N439 N 1.04396 0.70406 0.61720
 H440 H 0.99503 0.77894 0.58138
 H441 H 0.91126 0.69664 0.63314
 H442 H 0.85107 0.72144 0.59480
 H443 H 0.93635 0.80527 0.54189
 H444 H 1.07636 0.69751 0.67576
 H445 H 1.13528 0.66985 0.64565
 H446 H 1.07443 0.67947 0.52286
 H447 H 1.01637 0.70701 0.55548
 C448 C 1.04656 0.86140 0.70559
 C449 C 0.94779 0.62484 0.72201
 C450 C 1.10939 0.67310 0.58200
 C451 C 0.88941 0.76514 0.56551
 C452 C 0.51417 0.72042 0.33896
 H453 H 0.52951 0.75202 0.34171
 C454 C 0.52855 0.68877 0.31427
 H455 H 0.55493 0.69602 0.29775
 C456 C 0.46309 0.67182 0.35964
 H457 H 0.43860 0.66520 0.37854
 C458 C 0.47667 0.63913 0.33538
 H459 H 0.46244 0.60743 0.33542
 N460 N 0.48227 0.71145 0.36130
 C461 C 0.44067 0.83101 0.39646
 H462 H 0.44250 0.83073 0.42983
 C463 C 0.42682 0.86461 0.37851
 H464 H 0.41775 0.89028 0.39812
 C465 C 0.44970 0.79756 0.33009
 H466 H 0.45811 0.77112 0.31131
 C467 C 0.43595 0.83057 0.31080
 H468 H 0.43394 0.82949 0.27722
 Zn469 Zn 0.47118 0.75515 0.39992
 N470 N 0.45229 0.79866 0.37226
 C471 C 0.54019 0.81442 0.43488
 N472 N 0.52258 0.77433 0.43382
 C473 C 0.54437 0.74556 0.45040
 C474 C 0.58631 0.75622 0.46693
 C475 C 0.58179 0.82641 0.45139
 C476 C 0.39044 0.72420 0.40932
 C477 C 0.35768 0.70828 0.42936
 C478 C 0.40475 0.71771 0.49376
 C479 C 0.43671 0.73352 0.47247
 N480 N 0.42912 0.73576 0.43085
 H481 H 0.52299 0.83660 0.42057
 H482 H 0.52997 0.71366 0.44821
 H483 H 0.60412 0.73260 0.47784
 H484 H 0.59606 0.85785 0.45010
 H485 H 0.38532 0.72665 0.37630
 H486 H 0.32728 0.69803 0.41170
 H487 H 0.41117 0.71484 0.52664
 H488 H 0.46761 0.74331 0.48898
 C489 C 0.42463 0.86447 0.33533
 C490 C 0.51011 0.64771 0.31303
 C491 C 0.36498 0.70467 0.47187
 C492 C 0.60539 0.79681 0.46644
 C493 C 0.37666 -0.04009 0.28781
 C494 C 0.35190 -0.05082 0.24427
 C495 C 0.33318 -0.01857 0.23071
 C496 C 0.34045 0.02129 0.26231
 C497 C 0.40730 -0.00136 0.28492
 C498 C 0.38821 0.03078 0.27138
 C499 C 0.34580 -0.02492 0.31594
 C500 C 0.32688 0.00712 0.30284
 H501 H 0.35306 -0.07955 0.22418
 H502 H 0.32465 0.04737 0.25163
 H503 H 0.44087 -0.00110 0.28851
 H504 H 0.34158 -0.03646 0.34544
 C505 C 0.07483 1.05811 0.76283
 C506 C 0.09396 1.07137 0.72501
 C507 C 0.11975 1.04501 0.71004
 C508 C 0.12425 1.00754 0.73443
 C509 C 0.05317 1.01353 0.74902
 C510 C 0.07928 0.98706 0.73428
 C511 C 0.11183 1.05354 0.79476
 C512 C 0.13751 1.02673 0.78016
 H513 H 0.08768 1.09923 0.71123
 H514 H 0.14544 0.98617 0.72211
 H515 H 0.02110 1.00333 0.75289
 H516 H 0.11393 1.06537 0.82764
 C517 C 0.57423 0.55904 0.26058
 C518 C 0.59325 0.57245 0.22276
 C519 C 0.61918 0.54628 0.20774
 C520 C 0.62391 0.50880 0.23207
 C521 C 0.55278 0.51438 0.24675
 C522 C 0.57902 0.48808 0.23196
 C523 C 0.61134 0.55460 0.29246
 C524 C 0.63715 0.52797 0.27780
 H525 H 0.58693 0.60038 0.20913
 H526 H 0.64520 0.48758 0.21968
 H527 H 0.52080 0.50398 0.25077
 H528 H 0.61342 0.56638 0.32536
 C529 C 0.87517 0.45987 0.78924
 C530 C 0.85056 0.44898 0.74565
 C531 C 0.83165 0.48108 0.73199
 C532 C 0.83858 0.52094 0.76356
 C533 C 0.90560 0.49877 0.78640
 C534 C 0.88631 0.53075 0.77275
 C535 C 0.84412 0.47481 0.81725
 C536 C 0.82500 0.50669 0.80406
 H537 H 0.85205 0.42034 0.72556
 H538 H 0.82261 0.54688 0.75281
 H539 H 0.93919 0.49922 0.79000
 H540 H 0.83996 0.46329 0.84678
 C541 C 0.28803 0.37461 -0.04006
 C542 C 0.24451 0.35002 -0.05088
 C543 C 0.23101 0.33115 -0.01865
 C544 C 0.26267 0.33810 0.02125
 C545 C 0.28533 0.40507 -0.00115
 C546 C 0.27185 0.38583 0.03096
 C547 C 0.31607 0.34357 -0.02506
 C548 C 0.30305 0.32450 0.00697
 H549 H 0.22437 0.35147 -0.07958
 H550 H 0.25205 0.32218 0.04731
 H551 H 0.28887 0.43866 -0.00079
 H552 H 0.34554 0.33946 -0.03655
 C553 C 0.76365 0.07490 1.05842
 C554 C 0.72597 0.09415 1.07164
 C555 C 0.71100 0.11993 1.04516
 C556 C 0.73526 0.12431 1.00760
 C557 C 0.74975 0.05320 1.01380
 C558 C 0.73502 0.07931 0.98720
 C559 C 0.79555 0.11182 1.05374
 C560 C 0.78095 0.13749 1.02679
 H561 H 0.71227 0.08793 1.09956
 H562 H 0.72294 0.14550 0.98612
 H563 H 0.75358 0.02111 1.00366
 H564 H 0.82839 0.11385 1.06558
 C565 C 0.26148 0.57499 0.55834
 C566 C 0.22366 0.59387 0.57170
 C567 C 0.20840 0.61959 0.54531
 C568 C 0.23251 0.62428 0.50770
 C569 C 0.24761 0.55332 0.51371
 C570 C 0.23259 0.57936 0.48721
 C571 C 0.29309 0.61216 0.55366
 C572 C 0.27818 0.63776 0.52681
 H573 H 0.21013 0.58751 0.59968
 H574 H 0.21994 0.64540 0.48630
 H575 H 0.25178 0.52135 0.50347
 H576 H 0.32597 0.61439 0.56541
 C577 C 0.78768 0.87635 0.46017
 C578 C 0.74413 0.85187 0.44916
 C579 C 0.73044 0.83295 0.48126
 C580 C 0.76193 0.83976 0.52128
 C581 C 0.78491 0.90677 0.49911
 C582 C 0.77125 0.88747 0.53111
 C583 C 0.81556 0.84519 0.47523
 C584 C 0.80233 0.82608 0.50715
 H585 H 0.72415 0.85333 0.42036
 H586 H 0.75112 0.82380 0.54724
 H587 H 0.78875 0.94037 0.49963
 H588 H 0.84507 0.84102 0.46385
 C589 C -0.03928 0.28849 0.37655
 C590 C -0.05048 0.24507 0.35183
 C591 C -0.01852 0.23134 0.33282
 C592 C 0.02152 0.26266 0.33978
 C593 C -0.00041 0.28536 0.40698
 C594 C 0.03143 0.27163 0.38759
 C595 C -0.02419 0.31652 0.34549
 C596 C 0.00755 0.30323 0.32628
 H597 H -0.07926 0.22516 0.35324
 H598 H 0.04736 0.25183 0.32374
 H599 H 0.00012 0.28889 0.44064
 H600 H -0.03553 0.34608 0.34135
 C601 C 1.05780 0.76217 0.07342
 C602 C 1.07128 0.72437 0.09239
 C603 C 1.04515 0.70918 0.11833
 C604 C 1.00767 0.73334 0.12315
 C605 C 1.01312 0.74832 0.05193
 C606 C 0.98689 0.73335 0.07821
 C607 C 1.05338 0.79383 0.11064
 C608 C 1.02680 0.77900 0.13648
 H609 H 1.09913 0.71077 0.08589
 H610 H 0.98648 0.72083 0.14447
 H611 H 1.00269 0.75232 0.01987
 H612 H 1.06509 0.82670 0.11276
 C613 C 0.55894 0.26175 0.57425
 C614 C 0.57237 0.22404 0.59345
 C615 C 0.54615 0.20899 0.61938
 C616 C 0.50863 0.23316 0.62393
 C617 C 0.51433 0.24782 0.55266
 C618 C 0.48799 0.23298 0.57891
 C619 C 0.55441 0.29355 0.61131
 C620 C 0.52774 0.27883 0.63712
 H621 H 0.60031 0.21048 0.58721
 H622 H 0.48736 0.22074 0.64522
 H623 H 0.50399 0.25173 0.52055
 H624 H 0.56616 0.32640 0.61336
 C625 C 0.45982 0.78837 0.87618
 C626 C 0.44888 0.74499 0.85134
 C627 C 0.48110 0.73132 0.83273
 C628 C 0.52112 0.76268 0.84015
 C629 C 0.49840 0.78522 0.90700
 C630 C 0.53050 0.77157 0.88800
 C631 C 0.47531 0.81648 0.84536
 C632 C 0.50732 0.80328 0.82655
 H633 H 0.42007 0.72501 0.85249
 H634 H 0.54717 0.75191 0.82443
 H635 H 0.49855 0.78870 0.94062
 H636 H 0.46409 0.84609 0.84120
 C637 C 0.41004 -0.10342 0.31749
 C638 C 0.39594 -0.07480 0.30310
 C639 C 0.90899 0.39679 0.81894
 C640 C 0.89468 0.42532 0.80459
 C641 C 0.02957 1.11374 0.79494
 C642 C 0.04840 1.08761 0.77955
 C643 C 0.52894 0.61459 0.29278
 C644 C 0.54774 0.58843 0.27737
 C645 C 0.55802 0.40653 0.21467
 C646 C 0.56726 0.44371 0.22262
 C647 C 0.05761 0.90565 0.71653
 C648 C 0.06719 0.94277 0.72470
 C649 C 0.92716 0.59319 0.74272
 C650 C 0.90894 0.56538 0.75765
 C651 C 0.42945 0.09325 0.24171
 C652 C 0.41104 0.06542 0.25647
 C653 C 0.31763 0.40859 -0.10312
 C654 C 0.30326 0.39415 -0.07466
 C655 C 0.81734 0.91009 0.39699
 C656 C 0.80302 0.89584 0.42558
 C657 C 0.79567 0.02986 1.11456
 C658 C 0.78035 0.04855 1.08813
 C659 C 0.29411 0.52990 0.61406
 C660 C 0.27851 0.54865 0.58787
 C661 C 0.21519 0.55787 0.40562
 C662 C 0.22318 0.56737 0.44282
 C663 C 0.71709 0.05772 0.90563
 C664 C 0.72536 0.06722 0.94283
 C665 C 0.74213 0.92841 0.59407
 C666 C 0.75664 0.91014 0.56600
 C667 C 0.24199 0.42695 0.09328
 C668 C 0.25685 0.40856 0.06555
 C669 C -0.10213 0.31841 0.41036
 C670 C -0.07369 0.30395 0.39611
 C671 C 0.39659 0.81822 0.90933
 C672 C 0.42516 0.80377 0.89534
 C673 C 1.11330 0.79479 0.02823
 C674 C 1.08714 0.77917 0.04694
 C675 C 0.61449 0.29420 0.52902
 C676 C 0.58834 0.27863 0.54777
 C677 C 0.40653 0.21512 0.55755
 C678 C 0.44368 0.22334 0.56696
 C679 C 0.90540 0.71530 0.05723
 C680 C 0.94256 0.72362 0.06642
 C681 C 0.59265 0.74143 0.92926
 C682 C 0.56493 0.75641 0.91091
 C683 C 0.09385 0.24142 0.42833
 C684 C 0.06603 0.25642 0.41018
 C685 C 0.56585 0.14456 0.65664
 C686 C 0.55484 0.17375 0.64053
 C687 C 1.06469 0.64425 0.15479
 C688 C 1.05376 0.67366 0.13905
 C689 C 0.99231 0.83376 0.18295
 C690 C 1.00827 0.80782 0.16326
 C691 C 0.49326 0.33367 0.68351
 C692 C 0.50922 0.30772 0.66384
 C693 C 0.47582 0.65078 0.80712
 C694 C 0.47982 0.68783 0.81763
 C695 C -0.02422 0.15086 0.30678
 C696 C -0.02004 0.18789 0.31747
 C697 C 0.04634 0.35619 0.28361
 C698 C 0.02963 0.33020 0.30186
 C699 C 0.54703 0.85662 0.78491
 C700 C 0.52991 0.83047 0.80269
 C701 C 0.65620 0.56634 0.14326
 C702 C 0.64023 0.55509 0.17246
 C703 C 0.15640 1.06418 0.64507
 C704 C 0.14058 1.05339 0.67452
 C705 C 0.18377 0.99217 0.83531
 C706 C 0.16416 1.00818 0.80922
 C707 C 0.68366 0.49359 0.33288
 C708 C 0.66393 0.50950 0.30682
 C709 C 0.80629 0.47603 0.65123
 C710 C 0.81666 0.47992 0.68838
 C711 C 0.30705 -0.02365 0.15010
 C712 C 0.31780 -0.01973 0.18719
 C713 C 0.28452 0.04588 0.35606
 C714 C 0.30265 0.02922 0.32997
 C715 C 0.78253 0.54535 0.85723
 C716 C 0.80068 0.52871 0.83115
 C717 C 0.14349 0.65592 0.56480
 C718 C 0.17289 0.64025 0.55385
 C719 C 0.64618 0.15659 1.06437
 C720 C 0.67556 0.14080 1.05352
 C721 C 0.83603 0.18349 0.99203
 C722 C 0.80997 0.16399 1.00810
 C723 C 0.33283 0.68407 0.49189
 C724 C 0.30694 0.66445 0.50803
 C725 C 0.64988 0.80719 0.47554
 C726 C 0.68694 0.81776 0.47981
 C727 C 0.15045 0.30564 -0.02361
 C728 C 0.18752 0.31610 -0.01975
 C729 C 0.35665 0.28262 0.04602
 C730 C 0.33037 0.30048 0.02922
 C731 C 0.85544 0.78382 0.54637
 C732 C 0.82940 0.80188 0.52945
   
