data_POSCAR
  _audit_creation_date              2014-09-24
  _audit_creation_method            'ToBaCCo'
  _symmetry_space_group_name_H-M    'P1'
  _symmetry_Int_Tables_number       1
  _symmetry_cell_setting            triclinic
  loop_
  _symmetry_equiv_pos_as_xyz
 x,y,z
_cell_length_a 55.4922
_cell_length_b 55.4576
_cell_length_c 54.8455
_cell_angle_alpha 89.863300
_cell_angle_beta 90.077100
_cell_angle_gamma 90.010000
loop_
  _atom_site_label
  _atom_site_type_symbol
  _atom_site_fract_x
  _atom_site_fract_y
  _atom_site_fract_z
C1 C 0.28277 0.37313 -0.00271
 C2 C 0.28861 0.36228 0.01949
 C3 C 0.30566 0.34367 0.02032
 C4 C 0.31809 0.33649 -0.00100
 C5 C 0.31231 0.34825 -0.02318
 C6 C 0.29434 0.36597 -0.02409
 C7 C 0.33708 0.31715 -0.00009
 C8 C 0.34364 0.30426 -0.02133
 C9 C 0.36211 0.28704 -0.02067
 C10 C 0.37335 0.28142 0.00142
 C11 C 0.36672 0.29339 0.02273
 C12 C 0.34918 0.31151 0.02194
 H13 H 0.26926 0.38728 -0.00330
 H14 H 0.30896 0.33500 0.03767
 H15 H 0.32177 0.34404 -0.03986
 H16 H 0.33458 0.30740 -0.03851
 H17 H 0.38743 0.26785 0.00203
 H18 H 0.34541 0.32121 0.03857
 C19 C 0.71824 0.62679 0.00122
 C20 C 0.71143 0.63860 0.02256
 C21 C 0.69441 0.65724 0.02162
 C22 C 0.68298 0.66349 -0.00062
 C23 C 0.68975 0.65077 -0.02188
 C24 C 0.70766 0.63302 -0.02100
 C25 C 0.66398 0.68281 -0.00164
 C26 C 0.65843 0.69476 -0.02379
 C27 C 0.63996 0.71197 -0.02489
 C28 C 0.62769 0.71847 -0.00370
 C29 C 0.63329 0.70743 0.01847
 C30 C 0.65086 0.68934 0.01946
 H31 H 0.73168 0.61260 0.00192
 H32 H 0.69033 0.66666 0.03834
 H33 H 0.68111 0.65421 -0.03921
 H34 H 0.66828 0.69091 -0.04033
 H35 H 0.61360 0.73203 -0.00444
 H36 H 0.65384 0.68036 0.03671
 C37 C 0.71561 0.37506 1.00623
 C38 C 0.70960 0.36336 0.98458
 C39 C 0.69248 0.34479 0.98472
 C40 C 0.68017 0.33850 1.00644
 C41 C 0.68617 0.35112 1.02802
 C42 C 0.70417 0.36881 1.02796
 C43 C 0.66108 0.31921 1.00656
 C44 C 0.65458 0.30724 1.02843
 C45 C 0.63607 0.29003 1.02865
 C46 C 0.62472 0.28356 1.00691
 C47 C 0.63125 0.29462 0.98503
 C48 C 0.64886 0.31271 0.98488
 H49 H 0.72914 0.38920 1.00614
 H50 H 0.68903 0.33545 0.96780
 H51 H 0.67688 0.34765 1.04497
 H52 H 0.66371 0.31106 1.04541
 H53 H 0.61061 0.26999 1.00699
 H54 H 0.65256 0.32170 0.96779
 C55 C 0.28258 0.62717 0.99559
 C56 C 0.28906 0.63812 0.97364
 C57 C 0.30599 0.65685 0.97347
 C58 C 0.31763 0.66405 0.99526
 C59 C 0.31120 0.65220 1.01719
 C60 C 0.29340 0.63434 1.01735
 C61 C 0.33650 0.68346 0.99513
 C62 C 0.34199 0.69654 1.01657
 C63 C 0.36042 0.71380 1.01668
 C64 C 0.37270 0.71923 0.99517
 C65 C 0.36714 0.70705 0.97367
 C66 C 0.34960 0.68891 0.97370
 H67 H 0.26921 0.61289 0.99572
 H68 H 0.30986 0.66558 0.95628
 H69 H 0.32003 0.65642 1.03423
 H70 H 0.33215 0.69348 1.03330
 H71 H 0.38679 0.73281 0.99516
 H72 H 0.34663 0.67904 0.95699
 C73 C 0.00058 0.27867 0.36656
 C74 C 0.02173 0.29105 0.36091
 C75 C 0.02114 0.31031 0.34429
 C76 C -0.00060 0.31671 0.33232
 C77 C -0.02158 0.30335 0.33785
 C78 C -0.02106 0.28498 0.35532
 C79 C -0.00162 0.33728 0.31448
 C80 C -0.02353 0.34956 0.30978
 C81 C -0.02460 0.36824 0.29255
 C82 C -0.00362 0.37574 0.28074
 C83 C 0.01828 0.36436 0.28562
 C84 C 0.01925 0.34492 0.30192
 H85 H 0.00089 0.26429 0.38001
 H86 H 0.03759 0.32032 0.34119
 H87 H -0.03853 0.30707 0.32885
 H88 H -0.03985 0.34496 0.31949
 H89 H -0.00428 0.39055 0.26777
 H90 H 0.03634 0.33589 0.30452
 C91 C 0.00384 0.71745 0.62975
 C92 C 0.02437 0.70448 0.63633
 C93 C 0.02267 0.68587 0.65356
 C94 C 0.00054 0.68078 0.66539
 C95 C -0.01989 0.69454 0.65872
 C96 C -0.01828 0.71232 0.64062
 C97 C -0.00117 0.66133 0.68446
 C98 C -0.02339 0.64993 0.68999
 C99 C -0.02466 0.63191 0.70799
 C100 C -0.00369 0.62432 0.71983
 C101 C 0.01839 0.63499 0.71431
 C102 C 0.01959 0.65377 0.69732
 H103 H 0.00505 0.73147 0.61596
 H104 H 0.03869 0.67541 0.65731
 H105 H -0.03713 0.69172 0.66743
 H106 H -0.03971 0.65464 0.68029
 H107 H -0.00447 0.60992 0.73325
 H108 H 0.03688 0.66225 0.69434
 C109 C 1.00546 0.71899 0.37584
 C110 C 0.98356 0.71347 0.36464
 C111 C 0.98283 0.69664 0.34563
 C112 C 1.00388 0.68406 0.33844
 C113 C 1.02571 0.68955 0.35056
 C114 C 1.02655 0.70730 0.36865
 C115 C 1.00305 0.66511 0.31886
 C116 C 1.02413 0.65818 0.30608
 C117 C 1.02339 0.63969 0.28868
 C118 C 1.00145 0.62883 0.28280
 C119 C 0.98038 0.63581 0.29467
 C120 C 0.98120 0.65334 0.31296
 H121 H 1.00601 0.73231 0.39031
 H122 H 0.96574 0.69359 0.33668
 H123 H 1.04216 0.67997 0.34638
 H124 H 1.04122 0.66694 0.30943
 H125 H 1.00075 0.61476 0.26909
 H126 H 0.96470 0.65732 0.32259
 C127 C 0.99662 0.28055 0.62547
 C128 C 0.97557 0.29275 0.63185
 C129 C 0.97629 0.31072 0.64978
 C130 C 0.99798 0.31591 0.66239
 C131 C 1.01889 0.30283 0.65600
 C132 C 1.01827 0.28576 0.63728
 C133 C 0.99888 0.33485 0.68191
 C134 C 1.02077 0.34656 0.68798
 C135 C 1.02156 0.36388 0.70656
 C136 C 1.00038 0.37057 0.71847
 C137 C 0.97854 0.35970 0.71235
 C138 C 0.97782 0.34157 0.69467
 H139 H 0.99618 0.26708 0.61116
 H140 H 0.95992 0.32061 0.65347
 H141 H 1.03578 0.30566 0.66541
 H142 H 1.03724 0.34261 0.67826
 H143 H 1.00083 0.38442 0.73243
 H144 H 0.96074 0.33287 0.69111
 C145 C 0.37168 0.00289 0.28271
 C146 C 0.36418 0.02352 0.29505
 C147 C 0.34663 0.02177 0.31329
 C148 C 0.33541 -0.00057 0.31862
 C149 C 0.34293 -0.02113 0.30544
 C150 C 0.36136 -0.01946 0.28807
 C151 C 0.31617 -0.00241 0.33782
 C152 C 0.31114 -0.02458 0.34966
 C153 C 0.29300 -0.02614 0.36737
 C154 C 0.28044 -0.00548 0.37432
 C155 C 0.28545 0.01664 0.36329
 C156 C 0.30268 0.01809 0.34474
 H157 H 0.38571 0.00425 0.26899
 H158 H 0.34215 0.03792 0.32330
 H159 H 0.33460 -0.03852 0.30843
 H160 H 0.32131 -0.04068 0.34558
 H161 H 0.26686 -0.00658 0.38850
 H162 H 0.30533 0.03533 0.33591
 C163 C 0.62934 0.00515 0.71958
 C164 C 0.64079 0.02666 0.71327
 C165 C 0.65919 0.02664 0.69582
 C166 C 0.66551 0.00520 0.68340
 C167 C 0.65322 -0.01628 0.68971
 C168 C 0.63570 -0.01634 0.70807
 C169 C 0.68435 0.00533 0.66374
 C170 C 0.69666 -0.01605 0.65709
 C171 C 0.71349 -0.01593 0.63807
 C172 C 0.71923 0.00564 0.62630
 C173 C 0.70777 0.02701 0.63293
 C174 C 0.69006 0.02681 0.65106
 H175 H 0.61529 0.00522 0.73333
 H176 H 0.66833 0.04347 0.69214
 H177 H 0.65683 -0.03300 0.68029
 H178 H 0.69339 -0.03289 0.66649
 H179 H 0.73254 0.00577 0.61182
 H180 H 0.68073 0.04350 0.65481
 C181 C 0.37470 0.99936 0.71882
 C182 C 0.36356 0.97762 0.71289
 C183 C 0.34479 0.97724 0.69584
 C184 C 0.33781 0.99847 0.68328
 C185 C 0.34973 1.02025 0.68929
 C186 C 0.36763 1.02069 0.70734
 C187 C 0.31865 0.99771 0.66383
 C188 C 0.30596 1.01875 0.65667
 C189 C 0.28860 1.01783 0.63805
 C190 C 0.28281 0.99580 0.62724
 C191 C 0.29474 0.97481 0.63434
 C192 C 0.31294 0.97581 0.65195
 H193 H 0.38906 0.99964 0.73226
 H194 H 0.33591 0.96021 0.69258
 H195 H 0.34559 1.03692 0.67994
 H196 H 0.30930 1.03588 0.66540
 H197 H 0.26908 0.99497 0.61314
 H198 H 0.32260 0.95935 0.65594
 C199 C 0.62377 0.99864 0.28060
 C200 C 0.63575 0.97714 0.28591
 C201 C 0.65504 0.97703 0.30242
 C202 C 0.66181 0.99834 0.31487
 C203 C 0.64889 1.01974 0.30969
 C204 C 0.63047 1.01997 0.29223
 C205 C 0.68191 0.99826 0.33328
 C206 C 0.69405 1.01985 0.33955
 C207 C 0.71184 1.01997 0.35765
 C208 C 0.71881 0.99844 0.36877
 C209 C 0.70764 0.97683 0.36240
 C210 C 0.68894 0.97673 0.34522
 H211 H 0.60910 0.99870 0.26748
 H212 H 0.66456 0.96026 0.30531
 H213 H 0.65275 1.03633 0.31925
 H214 H 0.68986 1.03674 0.33063
 H215 H 0.73279 0.99854 0.38262
 H216 H 0.67988 0.95984 0.34169
 O217 O 0.82149 0.85618 0.52469
 O218 O 0.85473 0.82316 0.47747
 O219 O 0.81958 0.85446 0.47755
 O220 O 0.85564 0.82418 0.52484
 O221 O 0.82877 0.79477 0.52660
 O222 O 0.79268 0.82507 0.47916
 O223 O 0.82801 0.79362 0.47904
 O224 O 0.79445 0.82693 0.52652
 Cu225 Cu 0.84058 0.84242 0.50090
 Cu226 Cu 0.80828 0.80709 0.50295
 C227 C 0.80235 0.84727 0.53352
 C228 C 0.84718 0.80277 0.47039
 C229 C 0.79990 0.84505 0.47059
 C230 C 0.84828 0.80437 0.53372
 O231 O 0.17743 0.14380 0.52322
 O232 O 0.14515 0.18034 0.47751
 O233 O 0.17671 0.14550 0.47589
 O234 O 0.14537 0.17786 0.52468
 O235 O 0.17448 0.20509 0.52571
 O236 O 0.20612 0.17239 0.47665
 O237 O 0.17439 0.20742 0.47830
 O238 O 0.20670 0.17085 0.52420
 Cu239 Cu 0.15825 0.15915 0.50018
 Cu240 Cu 0.19341 0.19166 0.50125
 C241 C 0.19751 0.15115 0.53145
 C242 C 0.15417 0.20016 0.47038
 C243 C 0.19676 0.15328 0.46815
 C244 C 0.15449 0.19695 0.53338
 O245 O 0.16033 0.80504 0.52638
 O246 O 0.19395 0.83869 0.47972
 O247 O 0.16084 0.80532 0.47930
 O248 O 0.19376 0.83821 0.52679
 O249 O 0.22205 0.81013 0.52701
 O250 O 0.18889 0.77699 0.47924
 O251 O 0.22225 0.81062 0.47965
 O252 O 0.18836 0.77670 0.52660
 Cu253 Cu 0.17440 0.82463 0.50306
 Cu254 Cu 0.20824 0.79075 0.50316
 C255 C 0.16839 0.78504 0.53411
 C256 C 0.21389 0.83058 0.47202
 C257 C 0.16907 0.78547 0.47147
 C258 C 0.21363 0.83000 0.53463
 O259 O 0.81389 0.15220 0.47248
 O260 O 0.84565 0.18844 0.51839
 O261 O 0.81177 0.15563 0.51948
 O262 O 0.84718 0.18477 0.47132
 O263 O 0.81953 0.21331 0.46781
 O264 O 0.78388 0.18394 0.51624
 O265 O 0.81802 0.21699 0.51515
 O266 O 0.78603 0.18053 0.46896
 Cu267 Cu 0.83241 0.16743 0.49589
 Cu268 Cu 0.79904 0.20161 0.49184
 C269 C 0.79467 0.16021 0.46292
 C270 C 0.83747 0.20896 0.52428
 C271 C 0.79168 0.16455 0.52570
 C272 C 0.83934 0.20387 0.46136
 O273 O 0.47998 0.84722 0.81459
 O274 O 0.52984 0.81566 0.84487
 O275 O 0.52650 0.84956 0.81207
 O276 O 0.48329 0.81242 0.84628
 O277 O 0.48352 0.78530 0.81679
 O278 O 0.52699 0.82248 0.78253
 O279 O 0.53035 0.78835 0.81555
 O280 O 0.48018 0.82033 0.78488
 Cu281 Cu 0.50489 0.83392 0.83242
 Cu282 Cu 0.50532 0.80136 0.79694
 C283 C 0.47176 0.83931 0.79458
 C284 C 0.53838 0.79661 0.83556
 C285 C 0.53388 0.84241 0.79143
 C286 C 0.47619 0.79255 0.83739
 O287 O 0.52207 0.18743 0.15898
 O288 O 0.47349 0.15695 0.19246
 O289 O 0.47543 0.19012 0.15856
 O290 O 0.51992 0.15471 0.19293
 O291 O 0.52133 0.18295 0.22131
 O292 O 0.47657 0.21857 0.18671
 O293 O 0.47465 0.18516 0.22088
 O294 O 0.52349 0.21589 0.18712
 Cu295 Cu 0.49754 0.16950 0.17287
 Cu296 Cu 0.49907 0.20357 0.20683
 C297 C 0.53094 0.20681 0.16728
 C298 C 0.46620 0.16556 0.21254
 C299 C 0.46869 0.21043 0.16661
 C300 C 0.52795 0.16267 0.21301
 O301 O 0.52540 0.15303 0.81879
 O302 O 0.47519 0.18275 0.85014
 O303 O 0.47883 0.15061 0.81576
 O304 O 0.52169 0.18607 0.85227
 O305 O 0.52154 0.21469 0.82413
 O306 O 0.47846 0.17920 0.78759
 O307 O 0.47480 0.21155 0.82217
 O308 O 0.52529 0.18146 0.79045
 Cu309 Cu 0.50031 0.16524 0.83705
 Cu310 Cu 0.49999 0.19961 0.80322
 C311 C 0.53373 0.16202 0.79928
 C312 C 0.46666 0.20226 0.84169
 C313 C 0.47153 0.15882 0.79545
 C314 C 0.52869 0.20646 0.84448
 O315 O 0.47224 0.82011 0.14453
 O316 O 0.52114 0.85120 0.17686
 O317 O 0.51879 0.81700 0.14439
 O318 O 0.47439 0.85381 0.17721
 O319 O 0.47282 0.82643 0.20655
 O320 O 0.51743 0.78949 0.17362
 O321 O 0.51980 0.82389 0.20627
 O322 O 0.47064 0.79254 0.17370
 Cu323 Cu 0.49684 0.83830 0.15783
 Cu324 Cu 0.49508 0.80533 0.19304
 C325 C 0.46325 0.80106 0.15353
 C326 C 0.52864 0.84296 0.19706
 C327 C 0.52542 0.79693 0.15328
 C328 C 0.46606 0.84634 0.19738
 O329 O 0.81652 0.47459 0.85153
 O330 O 0.84791 0.52067 0.81514
 O331 O 0.81476 0.52117 0.84907
 O332 O 0.84932 0.47400 0.81791
 O333 O 0.82108 0.47146 0.78953
 O334 O 0.78631 0.51886 0.82091
 O335 O 0.81967 0.51837 0.78677
 O336 O 0.78811 0.47205 0.82333
 Cu337 Cu 0.83498 0.49796 0.83623
 Cu338 Cu 0.80093 0.49505 0.80224
 C339 C 0.79701 0.46556 0.84364
 C340 C 0.83934 0.52707 0.79468
 C341 C 0.79453 0.52768 0.84056
 C342 C 0.84108 0.46475 0.79850
 O343 O 0.18127 0.47876 0.14582
 O344 O 0.14900 0.52660 0.17855
 O345 O 0.18377 0.52533 0.14655
 O346 O 0.14727 0.47977 0.17819
 O347 O 0.17427 0.47807 0.20784
 O348 O 0.21090 0.52383 0.17609
 O349 O 0.17593 0.52512 0.20826
 O350 O 0.20847 0.47702 0.17529
 Cu351 Cu 0.16258 0.50285 0.15934
 Cu352 Cu 0.19511 0.50092 0.19491
 C353 C 0.20033 0.46986 0.15490
 C354 C 0.15684 0.53384 0.19899
 C355 C 0.20364 0.53203 0.15576
 C356 C 0.15462 0.47116 0.19830
 O357 O 0.84341 0.47970 0.19277
 O358 O 0.81265 0.52755 0.15842
 O359 O 0.84520 0.52620 0.19259
 O360 O 0.81006 0.48090 0.15911
 O361 O 0.78168 0.48228 0.18734
 O362 O 0.81692 0.52785 0.22092
 O363 O 0.78416 0.52922 0.18653
 O364 O 0.81528 0.48109 0.22125
 Cu365 Cu 0.83063 0.50339 0.17286
 Cu366 Cu 0.79660 0.50521 0.20684
 C367 C 0.83489 0.47261 0.21298
 C368 C 0.79319 0.53640 0.16652
 C369 C 0.83716 0.53448 0.21252
 C370 C 0.78982 0.47413 0.16739
 O371 O 0.18587 0.51891 0.84658
 O372 O 0.15355 0.47212 0.81226
 O373 O 0.18819 0.47229 0.84479
 O374 O 0.15155 0.51867 0.81469
 O375 O 0.17840 0.52143 0.78503
 O376 O 0.21533 0.47478 0.81541
 O377 O 0.18043 0.47460 0.78264
 O378 O 0.21292 0.52165 0.81711
 Cu379 Cu 0.16710 0.49508 0.83254
 Cu380 Cu 0.19952 0.49822 0.79704
 C381 C 0.20477 0.52826 0.83765
 C382 C 0.16121 0.46578 0.79146
 C383 C 0.20812 0.46601 0.83551
 C384 C 0.15876 0.52794 0.79485
 C385 C 0.25729 0.39286 0.07902
 N386 N 0.27034 0.40832 0.09289
 N387 N 0.25956 0.42198 0.10960
 C388 C 0.23538 0.42062 0.11294
 N389 N 0.22235 0.40506 0.09915
 N390 N 0.23314 0.39140 0.08244
 C391 C 0.26844 0.38044 0.05906
 C392 C 0.27769 0.37135 0.04145
 C393 C 0.22342 0.43718 0.12896
 C394 C 0.21307 0.45179 0.14138
 C395 C 0.73974 0.61074 0.08517
 N396 N 0.72606 0.59571 0.09894
 N397 N 0.73599 0.58282 0.11687
 C398 C 0.75993 0.58455 0.12157
 N399 N 0.77359 0.59969 0.10789
 N400 N 0.76365 0.61257 0.08996
 C401 C 0.72963 0.62222 0.06401
 C402 C 0.72128 0.63050 0.04548
 C403 C 0.77114 0.56856 0.13881
 C404 C 0.78096 0.55428 0.15214
 C405 C 0.74086 0.39163 0.92371
 N406 N 0.76509 0.39057 0.92071
 N407 N 0.77582 0.40362 0.90341
 C408 C 0.76266 0.41818 0.88860
 N409 N 0.73841 0.41916 0.89153
 N410 N 0.72768 0.40610 0.90882
 C411 C 0.72969 0.37995 0.94417
 C412 C 0.72045 0.37153 0.96218
 C413 C 0.77448 0.43408 0.87172
 C414 C 0.78463 0.44813 0.85842
 C415 C 0.25977 0.60687 0.91345
 N416 N 0.23575 0.60835 0.90913
 N417 N 0.22542 0.59424 0.89249
 C418 C 0.23878 0.57818 0.87971
 N419 N 0.26283 0.57679 0.88393
 N420 N 0.27316 0.59091 0.90057
 C421 C 0.27030 0.61966 0.93352
 C422 C 0.27895 0.62896 0.95134
 C423 C 0.22724 0.56123 0.86379
 C424 C 0.21720 0.54640 0.85137
 C425 C 0.08070 0.26508 0.39665
 N426 N 0.09188 0.24514 0.38791
 N427 N 0.10795 0.23333 0.40152
 C428 C 0.11329 0.24106 0.42435
 N429 N 0.10221 0.26107 0.43305
 N430 N 0.08614 0.27287 0.41943
 C431 C 0.06120 0.27586 0.38326
 C432 C 0.04377 0.28363 0.37266
 C433 C 0.12873 0.22702 0.43993
 C434 C 0.14080 0.21487 0.45353
 C435 C 0.08661 0.72666 0.60374
 N436 N 0.09350 0.71769 0.58184
 N437 N 0.11146 0.72792 0.56945
 C438 C 0.12310 0.74745 0.57855
 N439 N 0.11629 0.75636 0.60050
 N440 N 0.09833 0.74611 0.61289
 C441 C 0.06554 0.71742 0.61577
 C442 C 0.04713 0.71081 0.62538
 C443 C 0.14047 0.76011 0.56390
 C444 C 0.15391 0.77127 0.55079
 C445 C 0.92446 0.74499 0.39516
 N446 N 0.91087 0.73212 0.41110
 N447 N 0.89403 0.74297 0.42448
 C448 C 0.89027 0.76705 0.42236
 N449 N 0.90378 0.77991 0.40635
 N450 N 0.92062 0.76906 0.39297
 C451 C 0.94435 0.73378 0.38283
 C452 C 0.96183 0.72449 0.37375
 C453 C 0.87389 0.77916 0.43852
 C454 C 0.86112 0.78970 0.45275
 C455 C 0.91511 0.27003 0.59636
 N456 N 0.90233 0.25131 0.60569
 N457 N 0.88519 0.24066 0.59249
 C458 C 0.88029 0.24840 0.56953
 N459 N 0.89298 0.26720 0.56025
 N460 N 0.91012 0.27785 0.57345
 C461 C 0.93545 0.27952 0.60943
 C462 C 0.95333 0.28629 0.61992
 C463 C 0.86384 0.23522 0.55431
 C464 C 0.85114 0.22352 0.54094
 C465 C 0.39553 0.08605 0.27214
 N466 N 0.41644 0.09398 0.28215
 N467 N 0.42880 0.11180 0.27165
 C468 C 0.42065 0.12225 0.25082
 N469 N 0.39968 0.11441 0.24089
 N470 N 0.38731 0.09660 0.25140
 C471 C 0.38382 0.06495 0.28165
 C472 C 0.37458 0.04643 0.28846
 C473 C 0.43556 0.13912 0.23787
 C474 C 0.44901 0.15199 0.22648
 C475 C 0.61176 0.08697 0.74364
 N476 N 0.59675 0.10083 0.73000
 N477 N 0.58321 0.11773 0.74046
 C478 C 0.58425 0.12129 0.76489
 N479 N 0.59937 0.10753 0.77851
 N480 N 0.61291 0.09063 0.76805
 C481 C 0.62377 0.06670 0.73287
 C482 C 0.63239 0.04884 0.72392
 C483 C 0.56744 0.13718 0.77656
 C484 C 0.55245 0.14926 0.78671
 C485 C 0.39391 0.91720 0.74211
 N486 N 0.40833 0.90344 0.72783
 N487 N 0.42191 0.88611 0.73762
 C488 C 0.42148 0.88200 0.76200
 N489 N 0.40696 0.89567 0.77626
 N490 N 0.39339 0.91300 0.76647
 C491 C 0.38163 0.93767 0.73196
 C492 C 0.37263 0.95557 0.72337
 C493 C 0.43824 0.86547 0.77292
 C494 C 0.45316 0.85280 0.78252
 C495 C 0.60621 0.91759 0.25450
 N496 N 0.60751 0.91428 0.23004
 N497 N 0.59387 0.89769 0.21918
 C498 C 0.57848 0.88391 0.23242
 N499 N 0.57728 0.88712 0.25690
 N500 N 0.59092 0.90371 0.26776
 C501 C 0.61841 0.93753 0.26570
 C502 C 0.62719 0.95516 0.27497
 C503 C 0.56177 0.86816 0.22036
 C504 C 0.54698 0.85604 0.20992
 C505 C 0.39033 0.25651 0.91989
 N506 N 0.39009 0.23223 0.91705
 N507 N 0.40323 0.22188 0.89964
 C508 C 0.41701 0.23550 0.88453
 N509 N 0.41714 0.25979 0.88728
 N510 N 0.40401 0.27014 0.90469
 C511 C 0.37866 0.26737 0.94046
 C512 C 0.37020 0.27654 0.95843
 C513 C 0.43342 0.22415 0.86793
 C514 C 0.44815 0.21433 0.85521
 C515 C 0.61395 0.74086 0.91366
 N516 N 0.61587 0.76488 0.90937
 N517 N 0.60300 0.77525 0.89169
 C518 C 0.58781 0.76193 0.87775
 N519 N 0.58602 0.73789 0.88194
 N520 N 0.59889 0.72752 0.89962
 C521 C 0.62505 0.73035 0.93481
 C522 C 0.63284 0.72167 0.95340
 C523 C 0.57150 0.77364 0.86119
 C524 C 0.55683 0.78388 0.84867
 C525 C 0.38685 0.74512 0.07648
 N526 N 0.38657 0.76945 0.07880
 N527 N 0.39974 0.78017 0.09598
 C528 C 0.41362 0.76689 0.11133
 N529 N 0.41377 0.74255 0.10911
 N530 N 0.40059 0.73183 0.09194
 C531 C 0.37552 0.73389 0.05592
 C532 C 0.36761 0.72447 0.03782
 C533 C 0.43013 0.77860 0.12759
 C534 C 0.44487 0.78869 0.14008
 C535 C 0.60761 0.26094 0.08883
 N536 N 0.59293 0.27455 0.10299
 N537 N 0.57954 0.26431 0.12031
 C538 C 0.58038 0.24013 0.12399
 N539 N 0.59516 0.22654 0.10992
 N540 N 0.60855 0.23678 0.09260
 C541 C 0.61951 0.27151 0.06818
 C542 C 0.62806 0.28025 0.04998
 C543 C 0.56389 0.22876 0.14056
 C544 C 0.54922 0.21892 0.15339
 C545 C 0.25613 0.07489 0.60779
 N546 N 0.23179 0.07697 0.60869
 N547 N 0.22044 0.09323 0.59489
 C548 C 0.23307 0.10784 0.57970
 N549 N 0.25741 0.10583 0.57888
 N550 N 0.26876 0.08958 0.59268
 C551 C 0.26803 0.05549 0.62034
 C552 C 0.27781 0.03825 0.62946
 C553 C 0.22068 0.12384 0.56330
 C554 C 0.21017 0.13662 0.54898
 C555 C 0.74103 0.08065 0.38709
 N556 N 0.72733 0.09434 0.40213
 N557 N 0.73736 0.11162 0.41560
 C558 C 0.76143 0.11570 0.41448
 N559 N 0.77512 0.10209 0.39935
 N560 N 0.76508 0.08482 0.38588
 C561 C 0.73071 0.06020 0.37498
 C562 C 0.72210 0.04224 0.36622
 C563 C 0.77263 0.13247 0.43084
 C564 C 0.78243 0.14564 0.44522
 C565 C 0.74457 0.92417 0.60887
 N566 N 0.73170 0.91058 0.59296
 N567 N 0.74253 0.89366 0.57968
 C568 C 0.76658 0.88982 0.58188
 N569 N 0.77942 0.90332 0.59788
 N570 N 0.76859 0.92025 0.61116
 C571 C 0.73347 0.94430 0.62085
 C572 C 0.72430 0.96203 0.62954
 C573 C 0.77870 0.87356 0.56566
 C574 C 0.78926 0.86095 0.55132
 C575 C 0.27139 0.91178 0.40085
 N576 N 0.25191 0.89986 0.39200
 N577 N 0.24186 0.88202 0.40476
 C578 C 0.25099 0.87553 0.42678
 N579 N 0.27055 0.88737 0.43556
 N580 N 0.28059 0.90521 0.42280
 C581 C 0.28040 0.93277 0.38844
 C582 C 0.28683 0.95113 0.37856
 C583 C 0.23855 0.85830 0.44179
 C584 C 0.22753 0.84496 0.45515
 C585 C 0.08161 0.39596 0.73066
 N586 N 0.09250 0.38727 0.75103
 N587 N 0.11002 0.39974 0.76187
 C588 C 0.11720 0.42130 0.75268
 N589 N 0.10640 0.42993 0.73224
 N590 N 0.08887 0.41746 0.72140
 C591 C 0.06093 0.38388 0.72070
 C592 C 0.04279 0.37426 0.71345
 C593 C 0.13407 0.43601 0.76584
 C594 C 0.14712 0.44914 0.77737
 C595 C 0.08121 0.61000 0.25724
 N596 N 0.08449 0.61160 0.23278
 N597 N 0.10107 0.59809 0.22175
 C598 C 0.11488 0.58253 0.23482
 N599 N 0.11168 0.58102 0.25929
 N600 N 0.09510 0.59452 0.27032
 C601 C 0.06143 0.62227 0.26866
 C602 C 0.04396 0.63121 0.27812
 C603 C 0.13086 0.56617 0.22258
 C604 C 0.14329 0.55173 0.21200
 C605 C 0.91467 0.40117 0.27145
 N606 N 0.90252 0.39249 0.25186
 N607 N 0.88470 0.40521 0.24180
 C608 C 0.87844 0.42699 0.25103
 N609 N 0.89050 0.43560 0.27071
 N610 N 0.90833 0.42289 0.28077
 C611 C 0.93568 0.38883 0.28037
 C612 C 0.95403 0.37896 0.28670
 C613 C 0.86147 0.44205 0.23836
 C614 C 0.84852 0.45553 0.22706
 C615 C 0.91554 0.59903 0.73158
 N616 N 0.90939 0.57694 0.72302
 N617 N 0.89252 0.56387 0.73422
 C618 C 0.88130 0.57246 0.75437
 N619 N 0.88736 0.59460 0.76287
 N620 N 0.90422 0.60766 0.75166
 C621 C 0.93588 0.61167 0.72154
 C622 C 0.95394 0.62156 0.71442
 C623 C 0.86520 0.55724 0.76802
 C624 C 0.85277 0.54383 0.77998
 C625 C 0.73350 0.59859 0.91890
 N626 N 0.72440 0.57703 0.91176
 N627 N 0.73530 0.56433 0.89437
 C628 C 0.75560 0.57280 0.88358
 N629 N 0.76462 0.59441 0.89064
 N630 N 0.75373 0.60712 0.90803
 C631 C 0.72327 0.61108 0.93929
 C632 C 0.71562 0.62122 0.95709
 C633 C 0.76879 0.55787 0.86697
 C634 C 0.78036 0.54454 0.85420
 C635 C 0.27087 0.39726 0.91459
 N636 N 0.25140 0.38781 0.90307
 N637 N 0.24051 0.39999 0.88522
 C638 C 0.24877 0.42198 0.87831
 N639 N 0.26833 0.43136 0.88973
 N640 N 0.27922 0.41918 0.90759
 C641 C 0.28062 0.38554 0.93576
 C642 C 0.28765 0.37618 0.95431
 C643 C 0.23517 0.43649 0.86154
 C644 C 0.22309 0.44950 0.84882
 C645 C 0.26767 0.60165 0.07850
 N646 N 0.24770 0.61077 0.08932
 N647 N 0.23628 0.59827 0.10657
 C648 C 0.24449 0.57627 0.11351
 N649 N 0.26454 0.56722 0.10279
 N650 N 0.27596 0.57971 0.08554
 C651 C 0.27809 0.61372 0.05793
 C652 C 0.28572 0.62335 0.03981
 C653 C 0.23060 0.56157 0.12979
 C654 C 0.21845 0.54848 0.14230
 C655 C 0.72867 0.40347 0.08853
 N656 N 0.74809 0.39445 0.10050
 N657 N 0.75899 0.40730 0.11781
 C658 C 0.75079 0.42957 0.12367
 N659 N 0.73129 0.43855 0.11179
 N660 N 0.72040 0.42570 0.09448
 C661 C 0.71870 0.39080 0.06809
 C662 C 0.71142 0.38058 0.05016
 C663 C 0.76403 0.44446 0.14034
 C664 C 0.77563 0.45763 0.15329
 C665 C 0.92427 0.74731 0.61103
 N666 N 0.90736 0.73459 0.59864
 N667 N 0.89107 0.74593 0.58491
 C668 C 0.89125 0.77032 0.58311
 N669 N 0.90808 0.78304 0.59559
 N670 N 0.92436 0.77170 0.60932
 C671 C 0.94356 0.73502 0.62321
 C672 C 0.96057 0.72467 0.63200
 C673 C 0.87532 0.78234 0.56647
 C674 C 0.86264 0.79240 0.55180
 C675 C 0.91852 0.25431 0.38338
 N676 N 0.90266 0.26858 0.39538
 N677 N 0.88527 0.25886 0.40895
 C678 C 0.88327 0.23457 0.41092
 N679 N 0.89903 0.22030 0.39879
 N680 N 0.91642 0.23002 0.38523
 C681 C 0.93906 0.26475 0.37166
 C682 C 0.95699 0.27378 0.36335
 C683 C 0.86657 0.22415 0.42780
 C684 C 0.85358 0.21511 0.44280
 C685 C 0.07808 0.25377 0.60930
 N686 N 0.09283 0.26696 0.59476
 N687 N 0.10995 0.25622 0.58168
 C688 C 0.11283 0.23197 0.58277
 N689 N 0.09819 0.21880 0.59743
 N690 N 0.08107 0.22954 0.61050
 C691 C 0.05779 0.26493 0.62078
 C692 C 0.04005 0.27435 0.62906
 C693 C 0.12900 0.22009 0.56637
 C694 C 0.14135 0.20975 0.55170
 C695 C 0.08748 0.72891 0.40082
 N696 N 0.09881 0.74886 0.39222
 N697 N 0.11695 0.75869 0.40466
 C698 C 0.12432 0.74885 0.42606
 N699 N 0.11308 0.72882 0.43458
 N700 N 0.09494 0.71898 0.42214
 C701 C 0.06630 0.72003 0.38885
 C702 C 0.04787 0.71356 0.37923
 C703 C 0.14163 0.76113 0.44097
 C704 C 0.15491 0.77202 0.45439
 C705 C 0.60236 0.92429 0.73198
 N706 N 0.58019 0.91825 0.72355
 N707 N 0.56766 0.90064 0.73419
 C708 C 0.57691 0.88856 0.75359
 N709 N 0.59912 0.89453 0.76195
 N710 N 0.61165 0.91214 0.75131
 C711 C 0.61475 0.94483 0.72222
 C712 C 0.62475 0.96277 0.71504
 C713 C 0.56247 0.87129 0.76645
 C714 C 0.54974 0.85763 0.77770
 C715 C 0.39163 0.92381 0.25542
 N716 N 0.39097 0.92162 0.23081
 N717 N 0.40440 0.90508 0.21965
 C718 C 0.41894 0.89026 0.23276
 N719 N 0.41952 0.89237 0.25738
 N720 N 0.40609 0.90891 0.26854
 C721 C 0.37930 0.94330 0.26717
 C722 C 0.37020 0.96045 0.27699
 C723 C 0.43495 0.87396 0.22058
 C724 C 0.44894 0.86098 0.21013
 C725 C 0.59680 0.08007 0.27070
 N726 N 0.57447 0.08557 0.27902
 N727 N 0.56201 0.10362 0.26904
 C728 C 0.57150 0.11671 0.25047
 N729 N 0.59388 0.11128 0.24224
 N730 N 0.60634 0.09324 0.25221
 C731 C 0.60915 0.05913 0.27961
 C732 C 0.61924 0.04095 0.28605
 C733 C 0.55701 0.13422 0.23797
 C734 C 0.54414 0.14785 0.22684
 C735 C 0.40178 0.08080 0.73226
 N736 N 0.39247 0.09279 0.75161
 N737 N 0.40534 0.10967 0.76296
 C738 C 0.42796 0.11505 0.75534
 N739 N 0.43723 0.10315 0.73592
 N740 N 0.42436 0.08626 0.72457
 C741 C 0.38909 0.06069 0.72198
 C742 C 0.37898 0.04291 0.71456
 C743 C 0.44270 0.13146 0.76900
 C744 C 0.45559 0.14439 0.78092
 C745 C 0.59690 0.73328 0.07732
 N746 N 0.60613 0.75225 0.08980
 N747 N 0.59289 0.76364 0.10644
 C748 C 0.57000 0.75642 0.11109
 N749 N 0.56081 0.73738 0.09869
 N750 N 0.57405 0.72599 0.08205
 C751 C 0.61016 0.72283 0.05756
 C752 C 0.62091 0.71515 0.04014
 C753 C 0.55492 0.77016 0.12710
 C754 C 0.54174 0.78219 0.13959
 C755 C 0.40002 0.27034 0.08483
 N756 N 0.42221 0.27857 0.09098
 N757 N 0.43462 0.26811 0.10894
 C758 C 0.42522 0.24910 0.12130
 N759 N 0.40297 0.24095 0.11523
 N760 N 0.39056 0.25141 0.09727
 C761 C 0.38783 0.27977 0.06377
 C762 C 0.37801 0.28661 0.04539
 C763 C 0.43970 0.23615 0.13863
 C764 C 0.45255 0.22467 0.15207
 C765 C 0.59720 0.26878 0.92465
 N766 N 0.57475 0.27644 0.91864
 N767 N 0.56214 0.26515 0.90141
 C768 C 0.57157 0.24583 0.88968
 N769 N 0.59406 0.23823 0.89561
 N770 N 0.60667 0.24952 0.91284
 C771 C 0.60970 0.27922 0.94496
 C772 C 0.61976 0.28692 0.96282
 C773 C 0.55713 0.23236 0.87279
 C774 C 0.54446 0.22066 0.85942
 C775 C 0.40406 0.73015 0.91399
 N776 N 0.39472 0.74817 0.90014
 N777 N 0.40822 0.75915 0.88338
 C778 C 0.43147 0.75247 0.87999
 N779 N 0.44078 0.73436 0.89374
 N780 N 0.42728 0.72338 0.91050
 C781 C 0.39054 0.72049 0.93400
 C782 C 0.37962 0.71362 0.95167
 C783 C 0.44673 0.76597 0.86389
 C784 C 0.45996 0.77789 0.85131
 C785 C 0.73477 0.91771 0.39684
 N786 N 0.72611 0.91068 0.41885
 N787 N 0.73799 0.89446 0.43220
 C788 C 0.75890 0.88481 0.42397
 N789 N 0.76750 0.89174 0.40191
 N790 N 0.75561 0.90796 0.38856
 C791 C 0.72378 0.93738 0.38398
 C792 C 0.71571 0.95488 0.37381
 C793 C 0.77303 0.86957 0.43956
 C794 C 0.78523 0.85782 0.45335
 C795 C 0.27159 0.91237 0.60312
 N796 N 0.25139 0.90171 0.61195
 N797 N 0.24121 0.88342 0.60005
 C798 C 0.25095 0.87521 0.57898
 N799 N 0.27122 0.88579 0.57023
 N800 N 0.28140 0.90408 0.58212
 C801 C 0.28093 0.93367 0.61449
 C802 C 0.28779 0.95217 0.62365
 C803 C 0.23835 0.85772 0.56457
 C804 C 0.22725 0.84429 0.55147
 C805 C 0.25283 0.07557 0.39266
 N806 N 0.22852 0.07801 0.39223
 N807 N 0.21783 0.09514 0.40534
 C808 C 0.23112 0.11034 0.41928
 N809 N 0.25544 0.10797 0.41961
 N810 N 0.26613 0.09085 0.40649
 C811 C 0.26412 0.05550 0.38083
 C812 C 0.27372 0.03804 0.37214
 C813 C 0.21942 0.12683 0.43553
 C814 C 0.20928 0.13957 0.45003
 C815 C 0.73100 0.08776 0.59839
 N816 N 0.75065 0.09939 0.60720
 N817 N 0.76119 0.11677 0.59421
 C818 C 0.75236 0.12306 0.57203
 N819 N 0.73261 0.11153 0.56329
 N820 N 0.72208 0.09415 0.57627
 C821 C 0.72154 0.06718 0.61100
 C822 C 0.71466 0.04917 0.62117
 C823 C 0.76552 0.13934 0.55668
 C824 C 0.77721 0.15165 0.54298
 C825 C 0.91874 0.60347 0.27119
 N826 N 0.91136 0.58216 0.28076
 N827 N 0.89350 0.56985 0.27033
 C828 C 0.88249 0.57848 0.25002
 N829 N 0.88978 0.59986 0.24052
 N830 N 0.90763 0.61217 0.25096
 C831 C 0.93965 0.61536 0.28072
 C832 C 0.95790 0.62488 0.28769
 C833 C 0.86526 0.56393 0.23729
 C834 C 0.85183 0.55092 0.22613
 C835 C 0.91889 0.38881 0.74368
 N836 N 0.91610 0.38854 0.76824
 N837 N 0.89905 0.40187 0.77871
 C838 C 0.88430 0.41588 0.76494
 N839 N 0.88700 0.41604 0.74038
 N840 N 0.90405 0.40271 0.72991
 C841 C 0.93906 0.37693 0.73271
 C842 C 0.95674 0.36830 0.72347
 C843 C 0.86789 0.43225 0.77641
 C844 C 0.85511 0.44677 0.78631
 C845 C 0.07807 0.60401 0.74402
 N846 N 0.09271 0.59083 0.72943
 N847 N 0.11020 0.57734 0.73902
 C848 C 0.11354 0.57663 0.76350
 N849 N 0.09898 0.58990 0.77809
 N850 N 0.08149 0.60339 0.76849
 C851 C 0.05770 0.61634 0.73387
 C852 C 0.04001 0.62551 0.72514
 C853 C 0.13060 0.56024 0.77402
 C854 C 0.14399 0.54577 0.78325
 C855 C 0.07698 0.39505 0.25388
 N856 N 0.09163 0.40927 0.26748
 N857 N 0.10835 0.42292 0.25682
 C858 C 0.11089 0.42279 0.23223
 N859 N 0.09633 0.40848 0.21864
 N860 N 0.07961 0.39483 0.22930
 C861 C 0.05721 0.38266 0.26506
 C862 C 0.03983 0.37355 0.27444
 C863 C 0.12720 0.43919 0.22059
 C864 C 0.14012 0.45356 0.21057
   
