data_POSCAR
  _audit_creation_date              2014-09-24
  _audit_creation_method            'ToBaCCo'
  _symmetry_space_group_name_H-M    'P1'
  _symmetry_Int_Tables_number       1
  _symmetry_cell_setting            triclinic
  loop_
  _symmetry_equiv_pos_as_xyz
 x,y,z
_cell_length_a 24.7910
_cell_length_b 22.6367
_cell_length_c 12.3021
_cell_angle_alpha 90.418100
_cell_angle_beta 89.204800
_cell_angle_gamma 120.454200
loop_
  _atom_site_label
  _atom_site_type_symbol
  _atom_site_fract_x
  _atom_site_fract_y
  _atom_site_fract_z
O1 O 0.41151 0.93120 0.58389
 O2 O 0.50361 1.06304 0.37846
 O3 O 0.43481 0.92943 0.37693
 O4 O 0.48097 1.06367 0.58561
 O5 O 0.56464 1.05612 0.61808
 O6 O 0.51820 0.92151 0.41029
 O7 O 0.58656 1.05415 0.41051
 O8 O 0.49462 0.92274 0.61719
 Cu9 Cu 0.44943 0.99763 0.47718
 Cu10 Cu 0.54930 0.98782 0.51800
 C11 C 0.43768 0.90457 0.63591
 C12 C 0.56050 1.08118 0.35906
 C13 C 0.46833 0.90258 0.35797
 C14 C 0.53102 1.08277 0.63753
 O15 O 0.06147 0.51707 0.60232
 O16 O -0.06389 0.46168 0.40117
 O17 O 0.05706 0.51728 0.39069
 O18 O -0.05942 0.46207 0.61296
 O19 O -0.04967 0.56456 0.61361
 O20 O 0.06778 0.62026 0.39265
 O21 O -0.05254 0.56494 0.40180
 O22 O 0.07220 0.62001 0.60421
 Cu23 Cu -0.00228 0.47920 0.50150
 Cu24 Cu 0.01051 0.60277 0.50398
 C25 C 0.08827 0.57824 0.63772
 C26 C -0.07915 0.50389 0.36638
 C27 C 0.08204 0.57790 0.35343
 C28 C -0.07463 0.50404 0.65102
 O29 O 0.42405 0.48302 0.40289
 O30 O 0.48289 0.40813 0.60044
 O31 O 0.42763 0.48030 0.61387
 O32 O 0.47728 0.40981 0.38927
 O33 O 0.56979 0.50463 0.38759
 O34 O 0.52029 0.57477 0.61355
 O35 O 0.57532 0.50308 0.59872
 O36 O 0.51628 0.57826 0.40221
 Cu37 Cu 0.44369 0.43577 0.50230
 Cu38 Cu 0.55470 0.54972 0.50007
 C39 C 0.46044 0.54356 0.36868
 C40 C 0.53894 0.44264 0.63320
 C41 C 0.46515 0.53943 0.65199
 C42 C 0.53211 0.44541 0.34998
 O43 O 0.40631 0.61412 -0.08223
 O44 O 0.41619 0.73232 -0.11679
 C45 C 0.39107 0.76594 -0.14696
 O46 O 0.34096 0.75886 -0.10455
 O47 O 0.23382 0.64765 -0.13676
 C48 C 0.20076 0.58398 -0.15403
 O49 O 0.20547 0.53971 -0.09871
 O50 O 0.30776 0.53401 -0.12043
 C51 C 0.36621 0.56297 -0.13719
 O52 O 0.39781 0.63292 0.13374
 O53 O 0.41133 0.75298 0.09864
 C54 C 0.37315 0.76877 0.14099
 O55 O 0.31705 0.74273 0.11143
 O56 O 0.20898 0.63379 0.07980
 C57 C 0.19511 0.58061 0.13574
 O58 O 0.21881 0.54327 0.11846
 O59 O 0.31688 0.52970 0.09663
 C60 C 0.36478 0.56933 0.15195
 Cr61 Cr 0.40428 0.68131 0.00800
 Cr62 Cr 0.27674 0.69350 -0.01222
 Cr63 Cr 0.26427 0.54064 -0.00107
 O64 O 0.31520 0.63869 -0.00189
 O65 O 0.60187 0.35177 -0.13568
 O66 O 0.58765 0.23126 -0.10209
 C67 C 0.62597 0.21553 -0.14408
 O68 O 0.68186 0.24102 -0.11330
 O69 O 0.79023 0.34911 -0.07674
 C70 C 0.80551 0.40287 -0.13188
 O71 O 0.78119 0.43988 -0.11667
 O72 O 0.68337 0.45442 -0.09767
 C73 C 0.63532 0.41539 -0.15317
 O74 O 0.59209 0.36923 0.08029
 O75 O 0.58103 0.25039 0.11342
 C76 C 0.60532 0.21590 0.14328
 O77 O 0.65551 0.22281 0.10171
 O78 O 0.76215 0.33338 0.13874
 C79 C 0.79478 0.39679 0.15795
 O80 O 0.79210 0.44190 0.10110
 O81 O 0.69058 0.44891 0.11974
 C82 C 0.63211 0.42002 0.13597
 Cr83 Cr 0.59429 0.30240 -0.01064
 Cr84 Cr 0.72095 0.28887 0.01220
 Cr85 Cr 0.73475 0.44231 0.00152
 O86 O 0.68321 0.34435 0.00098
 C87 C 0.40137 0.85250 -0.28052
 C88 C 0.42402 0.81661 -0.23364
 H89 H 0.35548 0.84360 -0.25759
 H90 H 0.46928 0.82470 -0.25944
 C91 C 0.13555 0.60072 -0.28528
 C92 C 0.15346 0.55956 -0.24031
 H93 H 0.15725 0.65371 -0.25916
 H94 H 0.13088 0.50591 -0.26288
 C95 C 0.44616 0.56660 -0.26355
 C96 C 0.38750 0.53409 -0.22375
 H97 H 0.48002 0.61641 -0.23140
 H98 H 0.35275 0.48533 -0.25790
 C99 C 0.54971 0.13607 -0.27826
 C100 C 0.60563 0.16392 -0.23105
 H101 H 0.51711 0.15264 -0.25519
 H102 H 0.63847 0.14818 -0.25688
 C103 C 0.88067 0.48440 -0.26587
 C104 C 0.85394 0.42280 -0.21736
 H105 H 0.86763 0.52138 -0.23971
 H106 H 0.86804 0.38613 -0.23977
 C107 C 0.56080 0.41143 -0.28716
 C108 C 0.61683 0.44622 -0.23956
 H109 H 0.52851 0.35872 -0.26417
 H110 H 0.64846 0.49953 -0.26005
 C111 C 0.87288 0.48297 0.28211
 C112 C 0.83924 0.41800 0.24817
 H113 H 0.86608 0.52220 0.24594
 H114 H 0.84517 0.37872 0.28650
 C115 C 0.59500 0.13096 0.28037
 C116 C 0.57126 0.16431 0.22826
 H117 H 0.64244 0.14303 0.26226
 H118 H 0.52465 0.15418 0.24893
 C119 C 0.55165 0.41698 0.25994
 C120 C 0.61077 0.44840 0.22320
 H121 H 0.51698 0.36846 0.22516
 H122 H 0.64562 0.49587 0.26057
 C123 C 0.12785 0.59986 0.26331
 C124 C 0.14857 0.55953 0.22439
 H125 H 0.14537 0.65052 0.22944
 H126 H 0.13224 0.50971 0.26073
 C127 C 0.44972 0.84913 0.27401
 C128 C 0.39376 0.82102 0.22700
 H129 H 0.48231 0.83246 0.25131
 H130 H 0.36091 0.83679 0.25263
 C131 C 0.43879 0.57455 0.28826
 C132 C 0.38336 0.53910 0.23906
 H133 H 0.47075 0.62746 0.26591
 H134 H 0.35214 0.48562 0.25907
   
