data_POSCAR
  _audit_creation_date              2014-09-24
  _audit_creation_method            'ToBaCCo'
  _symmetry_space_group_name_H-M    'P1'
  _symmetry_Int_Tables_number       1
  _symmetry_cell_setting            triclinic
  loop_
  _symmetry_equiv_pos_as_xyz
 x,y,z
_cell_length_a 48.1949
_cell_length_b 48.9366
_cell_length_c 49.2520
_cell_angle_alpha 89.802800
_cell_angle_beta 89.819000
_cell_angle_gamma 90.013000
loop_
  _atom_site_label
  _atom_site_type_symbol
  _atom_site_fract_x
  _atom_site_fract_y
  _atom_site_fract_z
N1 N 0.29413 0.23854 0.21758
 N2 N 0.28333 0.26102 0.20746
 C3 C 0.29788 0.26844 0.18523
 C4 C 0.31886 0.24954 0.18111
 C5 C 0.31578 0.23083 0.20207
 H6 H 0.29332 0.28606 0.17271
 H7 H 0.32854 0.21310 0.20598
 Cu8 Cu 0.25106 0.27814 0.22414
 Cu9 Cu 0.27952 0.22104 0.25020
 Cu10 Cu 0.22153 0.25052 0.27982
 N11 N 0.21798 0.29396 0.24058
 N12 N 0.20678 0.28326 0.26253
 C13 C 0.18459 0.29824 0.26984
 C14 C 0.18155 0.31945 0.25141
 C15 C 0.20312 0.31603 0.23307
 H16 H 0.17141 0.29378 0.28710
 H17 H 0.20783 0.32888 0.21577
 N18 N 0.23945 0.21737 0.29434
 N19 N 0.26174 0.20634 0.28327
 C20 C 0.26922 0.18431 0.29801
 C21 C 0.25067 0.18120 0.31930
 C22 C 0.23206 0.20252 0.31629
 H23 H 0.28668 0.17125 0.29339
 H24 H 0.21463 0.20709 0.32936
 H25 H 0.23919 0.23442 0.24506
 H26 H 0.26209 0.25565 0.26707
 N27 N 0.70578 -0.23500 0.21628
 N28 N 0.71662 -0.25737 0.20613
 C29 C 0.70189 -0.26491 0.18420
 C30 C 0.68070 -0.24606 0.18010
 C31 C 0.68403 -0.22731 0.20098
 H32 H 0.70659 -0.28261 0.17199
 H33 H 0.67129 -0.20969 0.20529
 Cu34 Cu 0.74922 -0.27428 0.22233
 Cu35 Cu 0.71995 -0.21807 0.24919
 Cu36 Cu 0.77647 -0.24914 0.27983
 N37 N 0.78102 -0.29143 0.23977
 N38 N 0.79108 -0.28191 0.26260
 C39 C 0.81246 -0.29766 0.27053
 C40 C 0.81638 -0.31822 0.25148
 C41 C 0.79590 -0.31344 0.23221
 H42 H 0.82457 -0.29388 0.28854
 H43 H 0.79177 -0.32524 0.21418
 N44 N 0.75885 -0.21580 0.29416
 N45 N 0.73721 -0.20408 0.28263
 C46 C 0.72992 -0.18198 0.29726
 C47 C 0.74795 -0.17954 0.31893
 C48 C 0.76603 -0.20134 0.31627
 H49 H 0.71298 -0.16839 0.29230
 H50 H 0.78299 -0.20643 0.32967
 H51 H 0.76038 -0.23148 0.24511
 H52 H 0.73640 -0.25347 0.26549
 N53 N 0.71334 0.22968 0.78637
 N54 N 0.72467 0.25153 0.79709
 C55 C 0.70875 0.26015 0.81789
 C56 C 0.68635 0.24255 0.82052
 C57 C 0.69003 0.22343 0.80013
 H58 H 0.71354 0.27750 0.83057
 H59 H 0.67673 0.20627 0.79552
 Cu60 Cu 0.75988 0.26574 0.78379
 Cu61 Cu 0.73023 0.21054 0.75597
 Cu62 Cu 0.78134 0.24678 0.72154
 N63 N 0.78853 0.28583 0.76437
 N64 N 0.79617 0.27892 0.73973
 C65 C 0.81585 0.29637 0.73095
 C66 C 0.82111 0.31533 0.75128
 C67 C 0.80319 0.30782 0.77223
 H68 H 0.82598 0.29475 0.71143
 H69 H 0.80063 0.31763 0.79169
 N70 N 0.76386 0.21349 0.70690
 N71 N 0.74444 0.19974 0.72006
 C72 C 0.73690 0.17801 0.70510
 C73 C 0.75257 0.17784 0.68151
 C74 C 0.76946 0.20063 0.68338
 H75 H 0.72151 0.16309 0.71117
 H76 H 0.78468 0.20734 0.66863
 H77 H 0.77080 0.22559 0.75581
 H78 H 0.74306 0.24757 0.74103
 N79 N 0.29283 -0.23676 0.78283
 N80 N 0.28157 -0.25881 0.79347
 C81 C 0.29600 -0.26610 0.81573
 C82 C 0.31737 -0.24752 0.81933
 C83 C 0.31464 -0.22916 0.79804
 H84 H 0.29121 -0.28346 0.82854
 H85 H 0.32783 -0.21183 0.79365
 Cu86 Cu 0.24912 -0.27574 0.77709
 Cu87 Cu 0.27880 -0.21982 0.74975
 Cu88 Cu 0.22152 -0.25012 0.71984
 N89 N 0.21668 -0.29231 0.76033
 N90 N 0.20650 -0.28260 0.73756
 C91 C 0.18481 -0.29805 0.72994
 C92 C 0.18083 -0.31862 0.74910
 C93 C 0.20158 -0.31414 0.76816
 H94 H 0.17261 -0.29411 0.71199
 H95 H 0.20577 -0.32608 0.78616
 N96 N 0.23960 -0.21711 0.70501
 N97 N 0.26157 -0.20574 0.71624
 C98 C 0.26910 -0.18377 0.70138
 C99 C 0.25089 -0.18104 0.67987
 C100 C 0.23245 -0.20254 0.68286
 H101 H 0.28627 -0.17043 0.70612
 H102 H 0.21524 -0.20733 0.66970
 H103 H 0.23822 -0.23275 0.75433
 H104 H 0.26166 -0.25489 0.73370
 N105 N 0.70842 -0.23379 0.78402
 N106 N 0.72036 -0.25506 0.79538
 C107 C 0.70581 -0.26231 0.81766
 C108 C 0.68370 -0.24448 0.82052
 C109 C 0.68607 -0.22662 0.79879
 H110 H 0.71101 -0.27917 0.83092
 H111 H 0.67223 -0.20997 0.79378
 Cu112 Cu 0.75362 -0.27153 0.78009
 Cu113 Cu 0.72225 -0.21745 0.75061
 Cu114 Cu 0.77936 -0.24801 0.72071
 N115 N 0.78507 -0.28884 0.76222
 N116 N 0.79453 -0.28004 0.73876
 C117 C 0.81563 -0.29611 0.73072
 C118 C 0.81991 -0.31615 0.75032
 C119 C 0.79999 -0.31072 0.77006
 H120 H 0.82718 -0.29297 0.71214
 H121 H 0.79617 -0.32206 0.78854
 N122 N 0.76119 -0.21537 0.70554
 N123 N 0.73925 -0.20389 0.71679
 C124 C 0.73161 -0.18218 0.70170
 C125 C 0.74972 -0.17976 0.67998
 C126 C 0.76822 -0.20115 0.68310
 H127 H 0.71445 -0.16879 0.70642
 H128 H 0.78541 -0.20609 0.66985
 H129 H 0.73968 -0.25322 0.73612
 H130 H 0.76313 -0.22948 0.75492
 N131 N 0.29284 0.23644 0.78125
 N132 N 0.28142 0.25825 0.79203
 C133 C 0.29615 0.26569 0.81399
 C134 C 0.31785 0.24745 0.81725
 C135 C 0.31505 0.22913 0.79608
 H136 H 0.29125 0.28287 0.82689
 H137 H 0.32840 0.21198 0.79155
 Cu138 Cu 0.24826 0.27459 0.77653
 Cu139 Cu 0.27836 0.21934 0.74863
 Cu140 Cu 0.22018 0.24891 0.71959
 N141 N 0.21593 0.29121 0.75967
 N142 N 0.20526 0.28126 0.73727
 C143 C 0.18346 0.29669 0.72981
 C144 C 0.18017 0.31742 0.74861
 C145 C 0.20117 0.31326 0.76730
 H146 H 0.17073 0.29288 0.71219
 H147 H 0.20558 0.32561 0.78492
 N148 N 0.23831 0.21611 0.70475
 N149 N 0.26065 0.20506 0.71562
 C150 C 0.26826 0.18327 0.70073
 C151 C 0.24973 0.18035 0.67954
 C152 C 0.23100 0.20153 0.68276
 H153 H 0.28575 0.17021 0.70519
 H154 H 0.21354 0.20615 0.66982
 H155 H 0.26044 0.25438 0.73294
 H156 H 0.23766 0.23162 0.75384
 N157 N 0.29483 -0.23801 0.22002
 N158 N 0.28402 -0.26045 0.20999
 C159 C 0.29856 -0.26782 0.18780
 C160 C 0.31953 -0.24891 0.18364
 C161 C 0.31648 -0.23026 0.20451
 H162 H 0.29398 -0.28537 0.17533
 H163 H 0.32926 -0.21254 0.20834
 Cu164 Cu 0.25174 -0.27763 0.22658
 Cu165 Cu 0.28020 -0.22062 0.25250
 Cu166 Cu 0.22199 -0.24999 0.28198
 N167 N 0.21848 -0.29321 0.24287
 N168 N 0.20718 -0.28254 0.26470
 C169 C 0.18479 -0.29736 0.27184
 C170 C 0.18175 -0.31842 0.25339
 C171 C 0.20351 -0.31510 0.23525
 H172 H 0.17146 -0.29289 0.28895
 H173 H 0.20824 -0.32787 0.21799
 N174 N 0.24002 -0.21703 0.29646
 N175 N 0.26238 -0.20604 0.28543
 C176 C 0.26989 -0.18408 0.30008
 C177 C 0.25126 -0.18098 0.32127
 C178 C 0.23259 -0.20223 0.31831
 H179 H 0.28737 -0.17103 0.29545
 H180 H 0.21508 -0.20677 0.33133
 H181 H 0.26259 -0.25524 0.26944
 H182 H 0.23985 -0.23394 0.24717
 N183 N 0.70523 0.23641 0.21591
 N184 N 0.71653 0.25841 0.20523
 C185 C 0.70201 0.26582 0.18309
 C186 C 0.68052 0.24738 0.17963
 C187 C 0.68326 0.22897 0.20086
 H188 H 0.70689 0.28312 0.17023
 H189 H 0.67013 0.21157 0.20520
 Cu190 Cu 0.74896 0.27522 0.22153
 Cu191 Cu 0.71990 0.21881 0.24838
 Cu192 Cu 0.78215 0.24424 0.27282
 N193 N 0.78195 0.29116 0.23766
 N194 N 0.79448 0.27917 0.25815
 C195 C 0.81643 0.29433 0.26564
 C196 C 0.81785 0.31703 0.24886
 C197 C 0.79563 0.31432 0.23131
 H198 H 0.83059 0.28892 0.28177
 H199 H 0.78976 0.32831 0.21530
 N200 N 0.76257 0.21314 0.28961
 N201 N 0.73854 0.20389 0.28074
 C202 C 0.73025 0.18310 0.29680
 C203 C 0.75003 0.17901 0.31672
 C204 C 0.77021 0.19848 0.31151
 H205 H 0.71143 0.17147 0.29393
 H206 H 0.78888 0.20201 0.32307
 H207 H 0.74105 0.25206 0.26451
 H208 H 0.75968 0.22994 0.23953
 O209 O 0.27373 0.02689 0.47316
 O210 O 0.27376 -0.02620 0.52637
 O211 O 0.27382 -0.02623 0.47343
 O212 O 0.27359 0.02691 0.52612
 O213 O 0.22782 0.02685 0.52612
 O214 O 0.22805 -0.02640 0.47357
 O215 O 0.22800 -0.02645 0.52631
 O216 O 0.22796 0.02690 0.47335
 Cu217 Cu 0.27831 0.00036 0.49976
 Cu218 Cu 0.22337 0.00022 0.49984
 C219 C 0.25084 0.03600 0.46415
 C220 C 0.25089 -0.03546 0.53542
 C221 C 0.25097 -0.03544 0.46449
 C222 C 0.25066 0.03599 0.53514
 O223 O 0.72651 0.02686 0.52593
 O224 O 0.72590 -0.02592 0.47274
 O225 O 0.72621 -0.02621 0.52572
 O226 O 0.72620 0.02721 0.47293
 O227 O 0.77196 0.02684 0.47243
 O228 O 0.77198 -0.02637 0.52536
 O229 O 0.77166 -0.02640 0.47262
 O230 O 0.77228 0.02694 0.52518
 Cu231 Cu 0.72161 0.00052 0.49937
 Cu232 Cu 0.77656 0.00023 0.49887
 C233 C 0.74951 0.03597 0.53462
 C234 C 0.74869 -0.03524 0.46362
 C235 C 0.74911 -0.03542 0.53459
 C236 C 0.74909 0.03614 0.46360
 O237 O 0.47274 0.27041 0.02413
 O238 O 0.52713 0.26960 -0.02867
 O239 O 0.47297 0.27005 -0.02870
 O240 O 0.52681 0.26998 0.02411
 O241 O 0.52632 0.22491 0.02466
 O242 O 0.47269 0.22498 -0.02831
 O243 O 0.52658 0.22453 -0.02826
 O244 O 0.47246 0.22534 0.02464
 Cu245 Cu 0.49994 0.27454 -0.00234
 Cu246 Cu 0.49946 0.22043 -0.00178
 C247 C 0.46336 0.24800 0.03350
 C248 C 0.53617 0.24690 -0.03750
 C249 C 0.46363 0.24752 -0.03758
 C250 C 0.53575 0.24743 0.03347
 O251 O 0.52700 0.73087 0.02628
 O252 O 0.47264 0.73057 -0.02617
 O253 O 0.52678 0.73107 -0.02640
 O254 O 0.47287 0.73039 0.02667
 O255 O 0.47236 0.77546 0.02658
 O256 O 0.52642 0.77615 -0.02631
 O257 O 0.47248 0.77565 -0.02637
 O258 O 0.52616 0.77595 0.02669
 Cu259 Cu 0.49984 0.72621 0.00008
 Cu260 Cu 0.49931 0.78032 0.00013
 C261 C 0.53579 0.75346 0.03553
 C262 C 0.46331 0.75307 -0.03532
 C263 C 0.53588 0.75374 -0.03540
 C264 C 0.46342 0.75281 0.03576
 O265 O 0.02506 0.47398 0.27367
 O266 O -0.02886 0.52728 0.27379
 O267 O -0.02883 0.47392 0.27351
 O268 O 0.02500 0.52723 0.27397
 O269 O 0.02526 0.52765 0.22918
 O270 O -0.02857 0.47433 0.22872
 O271 O -0.02891 0.52737 0.22899
 O272 O 0.02553 0.47452 0.22889
 Cu273 Cu -0.00195 0.50056 0.27823
 Cu274 Cu -0.00163 0.50102 0.22445
 C275 C 0.03457 0.46514 0.25127
 C276 C -0.03814 0.53641 0.25142
 C277 C -0.03790 0.46498 0.25104
 C278 C 0.03436 0.53657 0.25166
 O279 O 0.02580 0.52721 0.72734
 O280 O -0.02809 0.47382 0.72743
 O281 O -0.02797 0.52720 0.72744
 O282 O 0.02580 0.47390 0.72718
 O283 O 0.02577 0.47357 0.77197
 O284 O -0.02807 0.52692 0.77224
 O285 O -0.02832 0.47380 0.77222
 O286 O 0.02613 0.52667 0.77214
 Cu287 Cu -0.00113 0.50054 0.72286
 Cu288 Cu -0.00113 0.50023 0.77664
 C289 C 0.03522 0.53604 0.74972
 C290 C -0.03743 0.46466 0.74984
 C291 C -0.03718 0.53623 0.74987
 C292 C 0.03499 0.46458 0.74952
 C293 C 0.38010 0.24887 0.11774
 C294 C 0.37365 0.22449 0.13148
 C295 C 0.35364 0.22485 0.15222
 C296 C 0.33996 0.24932 0.15913
 C297 C 0.34659 0.27356 0.14498
 C298 C 0.36674 0.27347 0.12435
 C299 C 0.40128 0.24864 0.09605
 C300 C 0.40799 0.27309 0.08253
 C301 C 0.42832 0.27280 0.06207
 C302 C 0.44177 0.24824 0.05498
 C303 C 0.43461 0.22388 0.06868
 C304 C 0.41448 0.22400 0.08931
 C305 C 0.37391 0.29750 0.11028
 C306 C 0.39422 0.29732 0.08976
 C307 C 0.38732 0.20023 0.12417
 C308 C 0.40736 0.19998 0.10342
 H309 H 0.36380 0.31662 0.11520
 H310 H 0.39917 0.31631 0.07947
 H311 H 0.38250 0.18127 0.13459
 H312 H 0.41740 0.18083 0.09843
 H313 H 0.34854 0.20601 0.16270
 H314 H 0.33644 0.29256 0.15026
 H315 H 0.43358 0.29164 0.05163
 H316 H 0.44487 0.20488 0.06350
 C317 C 0.61955 0.75386 0.11866
 C318 C 0.62217 0.77667 0.13561
 C319 C 0.64234 0.77654 0.15609
 C320 C 0.66032 0.75394 0.15952
 C321 C 0.65740 0.73132 0.14194
 C322 C 0.63695 0.73109 0.12173
 C323 C 0.59815 0.75378 0.09730
 C324 C 0.59515 0.73070 0.08071
 C325 C 0.57456 0.73062 0.06063
 C326 C 0.55738 0.75360 0.05680
 C327 C 0.56088 0.77668 0.07346
 C328 C 0.58107 0.77678 0.09392
 C329 C 0.63346 0.70844 0.10458
 C330 C 0.61284 0.70821 0.08450
 C331 C 0.60459 0.79925 0.13170
 C332 C 0.58447 0.79935 0.11114
 H333 H 0.64671 0.69069 0.10677
 H334 H 0.61079 0.69029 0.07180
 H335 H 0.60643 0.81704 0.14461
 H336 H 0.57139 0.81720 0.10879
 H337 H 0.64415 0.79435 0.16890
 H338 H 0.67053 0.71353 0.14411
 H339 H 0.57212 0.71283 0.04779
 H340 H 0.54763 0.79438 0.07078
 C341 C 0.62180 0.24471 -0.11939
 C342 C 0.62781 0.22007 -0.13268
 C343 C 0.64878 0.21955 -0.15247
 C344 C 0.66391 0.24339 -0.15884
 C345 C 0.65763 0.26793 -0.14523
 C346 C 0.63650 0.26872 -0.12557
 C347 C 0.59976 0.24534 -0.09854
 C348 C 0.59360 0.27003 -0.08538
 C349 C 0.57261 0.27051 -0.06556
 C350 C 0.55805 0.24645 -0.05869
 C351 C 0.56460 0.22187 -0.07209
 C352 C 0.58535 0.22123 -0.09211
 C353 C 0.62976 0.29303 -0.11194
 C354 C 0.60864 0.29369 -0.09224
 C355 C 0.61282 0.19639 -0.12580
 C356 C 0.59199 0.19695 -0.10582
 H357 H 0.64091 0.31172 -0.11655
 H358 H 0.60410 0.31286 -0.08223
 H359 H 0.61728 0.17724 -0.13588
 H360 H 0.58099 0.17821 -0.10107
 H361 H 0.65359 0.20048 -0.16254
 H362 H 0.66892 0.28645 -0.15011
 H363 H 0.56783 0.28951 -0.05532
 H364 H 0.55347 0.20327 -0.06708
 C365 C 0.37930 0.75277 -0.11833
 C366 C 0.37308 0.77713 -0.13215
 C367 C 0.35283 0.77691 -0.15254
 C368 C 0.33866 0.75259 -0.15901
 C369 C 0.34507 0.72837 -0.14477
 C370 C 0.36548 0.72832 -0.12451
 C371 C 0.40075 0.75285 -0.09702
 C372 C 0.40723 0.72841 -0.08343
 C373 C 0.42778 0.72856 -0.06331
 C374 C 0.44165 0.75298 -0.05659
 C375 C 0.43473 0.77733 -0.07037
 C376 C 0.41440 0.77735 -0.09069
 C377 C 0.37244 0.70430 -0.11037
 C378 C 0.39300 0.70433 -0.09023
 C379 C 0.38722 0.80124 -0.12528
 C380 C 0.40749 0.80136 -0.10486
 H381 H 0.36195 0.68529 -0.11497
 H382 H 0.39777 0.68534 -0.07987
 H383 H 0.38258 0.82019 -0.13576
 H384 H 0.41789 0.82039 -0.10019
 H385 H 0.34790 0.79573 -0.16311
 H386 H 0.33455 0.70948 -0.14972
 H387 H 0.43284 0.70972 -0.05279
 H388 H 0.44532 0.79622 -0.06546
 C389 C 0.11899 0.38176 0.25133
 C390 C 0.13303 0.37558 0.22710
 C391 C 0.15360 0.35528 0.22726
 C392 C 0.15996 0.34104 0.25137
 C393 C 0.14556 0.34748 0.27546
 C394 C 0.12514 0.36790 0.27558
 C395 C 0.09741 0.40314 0.25131
 C396 C 0.08355 0.40949 0.27560
 C397 C 0.06311 0.42989 0.27549
 C398 C 0.05632 0.44374 0.25127
 C399 C 0.07039 0.43700 0.22706
 C400 C 0.09104 0.41680 0.22700
 C401 C 0.11078 0.37478 0.29947
 C402 C 0.09037 0.39526 0.29949
 C403 C 0.12615 0.38976 0.20319
 C404 C 0.10548 0.40998 0.20313
 H405 H 0.11536 0.36427 0.31832
 H406 H 0.07982 0.39995 0.31836
 H407 H 0.13681 0.38516 0.18435
 H408 H 0.10078 0.42038 0.18424
 H409 H 0.16430 0.35035 0.20854
 H410 H 0.15045 0.33691 0.29420
 H411 H 0.05237 0.43481 0.29421
 H412 H 0.06542 0.44758 0.20832
 C413 C 0.11933 0.61968 0.74936
 C414 C 0.13621 0.62307 0.77225
 C415 C 0.15677 0.64338 0.77200
 C416 C 0.16033 0.66072 0.74920
 C417 C 0.14286 0.65695 0.72647
 C418 C 0.12258 0.63639 0.72639
 C419 C 0.09782 0.59821 0.74946
 C420 C 0.08126 0.59451 0.72635
 C421 C 0.06098 0.57395 0.72647
 C422 C 0.05688 0.55747 0.74965
 C423 C 0.07354 0.56161 0.77274
 C424 C 0.09421 0.58182 0.77266
 C425 C 0.10550 0.63217 0.70370
 C426 C 0.08527 0.61152 0.70364
 C427 C 0.13210 0.60613 0.79503
 C428 C 0.11139 0.58594 0.79527
 H429 H 0.10783 0.64490 0.68579
 H430 H 0.07260 0.60892 0.68570
 H431 H 0.14495 0.60857 0.81287
 H432 H 0.10887 0.57340 0.81329
 H433 H 0.16951 0.64581 0.78987
 H434 H 0.14515 0.66956 0.70853
 H435 H 0.04815 0.57103 0.70867
 H436 H 0.07064 0.54892 0.79061
 C437 C -0.12237 0.61988 0.25161
 C438 C -0.13909 0.62348 0.22862
 C439 C -0.15961 0.64382 0.22878
 C440 C -0.16326 0.66099 0.25157
 C441 C -0.14598 0.65698 0.27441
 C442 C -0.12574 0.63639 0.27460
 C443 C -0.10085 0.59843 0.25158
 C444 C -0.08442 0.59453 0.27477
 C445 C -0.06410 0.57401 0.27470
 C446 C -0.05985 0.55778 0.25148
 C447 C -0.07639 0.56212 0.22832
 C448 C -0.09709 0.58227 0.22835
 C449 C -0.10881 0.63195 0.29738
 C450 C -0.08858 0.61131 0.29751
 C451 C -0.13485 0.60676 0.20583
 C452 C -0.11414 0.58659 0.20565
 H453 H -0.11124 0.64451 0.31530
 H454 H -0.07602 0.60855 0.31551
 H455 H -0.14758 0.60936 0.18791
 H456 H -0.11150 0.57422 0.18762
 H457 H -0.17221 0.64642 0.21082
 H458 H -0.14836 0.66945 0.29236
 H459 H -0.05136 0.57093 0.29255
 H460 H -0.07337 0.54961 0.21043
 C461 C -0.11995 0.37943 0.75036
 C462 C -0.13467 0.37372 0.77432
 C463 C -0.15446 0.35268 0.77445
 C464 C -0.15941 0.33695 0.75090
 C465 C -0.14425 0.34318 0.72702
 C466 C -0.12467 0.36440 0.72663
 C467 C -0.09905 0.40149 0.75014
 C468 C -0.08447 0.40733 0.72609
 C469 C -0.06457 0.42826 0.72601
 C470 C -0.05895 0.44305 0.74987
 C471 C -0.07378 0.43687 0.77384
 C472 C -0.09396 0.41620 0.77404
 C473 C -0.10966 0.37084 0.70294
 C474 C -0.08996 0.39198 0.70265
 C475 C -0.12917 0.38906 0.79778
 C476 C -0.10910 0.40987 0.79766
 H477 H -0.11315 0.35943 0.68445
 H478 H -0.07884 0.39626 0.68396
 H479 H -0.14037 0.38485 0.81644
 H480 H -0.10541 0.42110 0.81622
 H481 H -0.16549 0.34846 0.79316
 H482 H -0.14765 0.33185 0.70851
 H483 H -0.05320 0.43274 0.70750
 H484 H -0.06972 0.44820 0.79227
 C485 C 0.25075 0.11922 0.38107
 C486 C 0.27549 0.12538 0.36722
 C487 C 0.27532 0.14558 0.34693
 C488 C 0.25070 0.15976 0.34064
 C489 C 0.22610 0.15336 0.35486
 C490 C 0.22598 0.13302 0.37500
 C491 C 0.25077 0.09791 0.40234
 C492 C 0.22597 0.09155 0.41599
 C493 C 0.22607 0.07119 0.43611
 C494 C 0.25082 0.05739 0.44279
 C495 C 0.27554 0.06416 0.42894
 C496 C 0.27560 0.08432 0.40861
 C497 C 0.20159 0.12614 0.38916
 C498 C 0.20157 0.10572 0.40926
 C499 C 0.29991 0.11127 0.37400
 C500 C 0.29998 0.09113 0.39438
 H501 H 0.18233 0.13661 0.38465
 H502 H 0.18229 0.10103 0.41966
 H503 H 0.31915 0.11585 0.36350
 H504 H 0.31927 0.08077 0.39901
 H505 H 0.29443 0.15049 0.33636
 H506 H 0.20697 0.16388 0.35003
 H507 H 0.20695 0.06624 0.44669
 H508 H 0.29468 0.05363 0.43383
 C509 C 0.75095 0.11794 0.61826
 C510 C 0.77521 0.13321 0.62256
 C511 C 0.77551 0.15303 0.64307
 C512 C 0.75191 0.15733 0.65947
 C513 C 0.72780 0.14175 0.65492
 C514 C 0.72715 0.12214 0.63421
 C515 C 0.75052 0.09708 0.59671
 C516 C 0.72617 0.08203 0.59220
 C517 C 0.72585 0.06224 0.57166
 C518 C 0.74980 0.05719 0.55596
 C519 C 0.77408 0.07243 0.56086
 C520 C 0.77450 0.09253 0.58110
 C521 C 0.70319 0.10662 0.62914
 C522 C 0.70268 0.08697 0.60844
 C523 C 0.79872 0.12821 0.60638
 C524 C 0.79840 0.10816 0.58606
 H525 H 0.68467 0.10970 0.64127
 H526 H 0.68377 0.07547 0.60519
 H527 H 0.81758 0.13982 0.60953
 H528 H 0.81702 0.10488 0.57413
 H529 H 0.79426 0.16468 0.64659
 H530 H 0.70945 0.14508 0.66723
 H531 H 0.70711 0.05053 0.56814
 H532 H 0.79256 0.06881 0.54880
 C533 C 0.25093 -0.11898 0.61819
 C534 C 0.22626 -0.13306 0.62414
 C535 C 0.22640 -0.15346 0.64422
 C536 C 0.25093 -0.15962 0.65851
 C537 C 0.27546 -0.14517 0.65232
 C538 C 0.27560 -0.12492 0.63209
 C539 C 0.25092 -0.09758 0.59701
 C540 C 0.27566 -0.08370 0.59085
 C541 C 0.27557 -0.06347 0.57060
 C542 C 0.25090 -0.05690 0.55672
 C543 C 0.22624 -0.07098 0.56330
 C544 C 0.22617 -0.09143 0.58333
 C545 C 0.29993 -0.11052 0.62542
 C546 C 0.29998 -0.09030 0.60511
 C547 C 0.20192 -0.12640 0.60995
 C548 C 0.20186 -0.10589 0.58993
 H549 H 0.31912 -0.11493 0.63596
 H550 H 0.31920 -0.07972 0.60058
 H551 H 0.18273 -0.13709 0.61437
 H552 H 0.18263 -0.10136 0.57951
 H553 H 0.20733 -0.16420 0.64898
 H554 H 0.29451 -0.14990 0.66295
 H555 H 0.29464 -0.05271 0.56580
 H556 H 0.20716 -0.06619 0.55270
 C557 C 0.74818 -0.11799 0.38067
 C558 C 0.77273 -0.13227 0.37483
 C559 C 0.77250 -0.15246 0.35470
 C560 C 0.74801 -0.15823 0.34025
 C561 C 0.72360 -0.14357 0.34628
 C562 C 0.72354 -0.12352 0.36658
 C563 C 0.74828 -0.09682 0.40194
 C564 C 0.72365 -0.08275 0.40799
 C565 C 0.72384 -0.06273 0.42832
 C566 C 0.74850 -0.05656 0.44234
 C567 C 0.77304 -0.07083 0.43588
 C568 C 0.77301 -0.09107 0.41579
 C569 C 0.69933 -0.10894 0.37315
 C570 C 0.69937 -0.08896 0.39355
 C571 C 0.79705 -0.12601 0.38921
 C572 C 0.79720 -0.10572 0.40929
 H573 H 0.68016 -0.11305 0.36247
 H574 H 0.68023 -0.07823 0.39800
 H575 H 0.81614 -0.13686 0.38487
 H576 H 0.81640 -0.10150 0.41986
 H577 H 0.79148 -0.16336 0.35005
 H578 H 0.70457 -0.14801 0.33551
 H579 H 0.70487 -0.05181 0.43304
 H580 H 0.79211 -0.06634 0.44660
 C581 C 0.62077 0.75481 -0.11789
 C582 C 0.63536 0.73068 -0.12366
 C583 C 0.65607 0.73107 -0.14371
 C584 C 0.66202 0.75529 -0.15813
 C585 C 0.64708 0.77928 -0.15213
 C586 C 0.62652 0.77918 -0.13193
 C587 C 0.59902 0.75454 -0.09676
 C588 C 0.58464 0.77874 -0.09079
 C589 C 0.56407 0.77840 -0.07059
 C590 C 0.55767 0.75402 -0.05661
 C591 C 0.57224 0.72989 -0.06299
 C592 C 0.59304 0.73008 -0.08295
 C593 C 0.61162 0.80298 -0.12545
 C594 C 0.59108 0.80277 -0.10518
 C595 C 0.62886 0.70662 -0.10933
 C596 C 0.60801 0.70631 -0.08936
 H597 H 0.61590 0.82192 -0.13611
 H598 H 0.58011 0.82157 -0.10078
 H599 H 0.63994 0.68786 -0.11363
 H600 H 0.60361 0.68732 -0.07883
 H601 H 0.66720 0.71242 -0.14834
 H602 H 0.65168 0.79810 -0.16288
 H603 H 0.55291 0.79704 -0.06593
 H604 H 0.56757 0.71105 -0.05228
 C605 C 0.37997 0.24749 -0.12075
 C606 C 0.36605 0.27189 -0.12709
 C607 C 0.34564 0.27174 -0.14731
 C608 C 0.33931 0.24748 -0.16132
 C609 C 0.35359 0.22323 -0.15476
 C610 C 0.37385 0.22310 -0.13439
 C611 C 0.40136 0.24750 -0.09942
 C612 C 0.41507 0.22305 -0.09289
 C613 C 0.43532 0.22314 -0.07252
 C614 C 0.44209 0.24752 -0.05890
 C615 C 0.42819 0.27190 -0.06582
 C616 C 0.40771 0.27197 -0.08598
 C617 C 0.38806 0.19904 -0.12735
 C618 C 0.40829 0.19901 -0.10690
 C619 C 0.37289 0.29594 -0.11313
 C620 C 0.39341 0.29600 -0.09296
 H621 H 0.38350 0.18008 -0.13770
 H622 H 0.41874 0.18001 -0.10207
 H623 H 0.36233 0.31491 -0.11786
 H624 H 0.39810 0.31500 -0.08272
 H625 H 0.33502 0.29057 -0.15237
 H626 H 0.34870 0.20438 -0.16518
 H627 H 0.44597 0.20430 -0.06745
 H628 H 0.43314 0.29075 -0.05540
 C629 C 0.38057 0.75186 0.12022
 C630 C 0.37408 0.77626 0.13375
 C631 C 0.35415 0.77587 0.15453
 C632 C 0.34058 0.75136 0.16168
 C633 C 0.34727 0.72711 0.14777
 C634 C 0.36734 0.72722 0.12710
 C635 C 0.40167 0.75212 0.09848
 C636 C 0.40840 0.72766 0.08517
 C637 C 0.42864 0.72798 0.06465
 C638 C 0.44195 0.75258 0.05730
 C639 C 0.43478 0.77695 0.07077
 C640 C 0.41474 0.77680 0.09147
 C641 C 0.37454 0.70318 0.11324
 C642 C 0.39476 0.70339 0.09266
 C643 C 0.38764 0.80055 0.12618
 C644 C 0.40759 0.80083 0.10536
 H645 H 0.36450 0.68403 0.11839
 H646 H 0.39975 0.68439 0.08253
 H647 H 0.38278 0.81952 0.13644
 H648 H 0.41755 0.82000 0.10015
 H649 H 0.34898 0.79471 0.16486
 H650 H 0.33720 0.70807 0.15326
 H651 H 0.43392 0.70913 0.05436
 H652 H 0.44496 0.79596 0.06537
 C653 C 0.61897 0.24735 0.11707
 C654 C 0.63283 0.27174 0.12335
 C655 C 0.65306 0.27161 0.14374
 C656 C 0.65927 0.24736 0.15798
 C657 C 0.64506 0.22310 0.15146
 C658 C 0.62497 0.22295 0.13094
 C659 C 0.59773 0.24735 0.09559
 C660 C 0.58403 0.22290 0.08916
 C661 C 0.56389 0.22300 0.06869
 C662 C 0.55724 0.24739 0.05486
 C663 C 0.57116 0.27174 0.06165
 C664 C 0.59151 0.27181 0.08193
 C665 C 0.61079 0.19890 0.12397
 C666 C 0.59070 0.19887 0.10340
 C667 C 0.62612 0.29580 0.10916
 C668 C 0.60576 0.29584 0.08883
 H669 H 0.61527 0.17994 0.13449
 H670 H 0.58026 0.17987 0.09864
 H671 H 0.63665 0.31476 0.11383
 H672 H 0.60117 0.31484 0.07842
 H673 H 0.66362 0.29046 0.14876
 H674 H 0.64986 0.20426 0.16205
 H675 H 0.55324 0.20417 0.06371
 H676 H 0.56629 0.29060 0.05108
 C677 C -0.11990 0.62103 0.75005
 C678 C -0.12348 0.63722 0.72678
 C679 C -0.14335 0.65813 0.72702
 C680 C -0.16004 0.66280 0.75022
 C681 C -0.15616 0.64599 0.77332
 C682 C -0.13603 0.62530 0.77340
 C683 C -0.09881 0.59920 0.74998
 C684 C -0.09486 0.58332 0.77346
 C685 C -0.07456 0.56279 0.77338
 C686 C -0.05857 0.55786 0.74991
 C687 C -0.06300 0.57383 0.72646
 C688 C -0.08295 0.59467 0.72646
 C689 C -0.13163 0.60885 0.79644
 C690 C -0.11132 0.58829 0.79651
 C691 C -0.10713 0.63214 0.70365
 C692 C -0.08728 0.61117 0.70347
 H693 H -0.14391 0.61197 0.81463
 H694 H -0.10853 0.57615 0.81473
 H695 H -0.10973 0.64446 0.68552
 H696 H -0.07514 0.60791 0.68521
 H697 H -0.14591 0.67034 0.70885
 H698 H -0.16831 0.64910 0.79155
 H699 H -0.07139 0.55051 0.79146
 H700 H -0.05068 0.57030 0.70836
 C701 C -0.12112 0.38062 0.24999
 C702 C -0.13562 0.37529 0.22590
 C703 C -0.15577 0.35462 0.22571
 C704 C -0.16118 0.33912 0.24929
 C705 C -0.14636 0.34469 0.27325
 C706 C -0.12639 0.36553 0.27375
 C707 C -0.09992 0.40234 0.25031
 C708 C -0.08560 0.40785 0.27446
 C709 C -0.06548 0.42855 0.27466
 C710 C -0.05944 0.44346 0.25084
 C711 C -0.07396 0.43758 0.22677
 C712 C -0.09434 0.41713 0.22643
 C713 C -0.11160 0.37159 0.29751
 C714 C -0.09159 0.39244 0.29789
 C715 C -0.12958 0.39064 0.20246
 C716 C -0.10924 0.41117 0.20270
 H717 H -0.11552 0.36013 0.31599
 H718 H -0.08066 0.39647 0.31664
 H719 H -0.14061 0.38670 0.18374
 H720 H -0.10515 0.42247 0.18416
 H721 H -0.16683 0.35031 0.20710
 H722 H -0.15057 0.33309 0.29158
 H723 H -0.05433 0.43282 0.29325
 H724 H -0.06956 0.44902 0.20837
 C725 C 0.11844 0.38040 0.74897
 C726 C 0.12498 0.36715 0.72453
 C727 C 0.14513 0.34649 0.72455
 C728 C 0.15886 0.33921 0.74873
 C729 C 0.15211 0.35284 0.77303
 C730 C 0.13182 0.37338 0.77328
 C731 C 0.09714 0.40203 0.74910
 C732 C 0.09039 0.41508 0.77359
 C733 C 0.06999 0.43551 0.77363
 C734 C 0.05654 0.44304 0.74937
 C735 C 0.06370 0.42981 0.72496
 C736 C 0.08391 0.40920 0.72474
 C737 C 0.12459 0.38697 0.79737
 C738 C 0.10418 0.40743 0.79753
 C739 C 0.11126 0.37486 0.70057
 C740 C 0.09110 0.39557 0.70066
 H741 H 0.13474 0.38171 0.81627
 H742 H 0.09918 0.41737 0.81655
 H743 H 0.11615 0.36482 0.68158
 H744 H 0.08103 0.40090 0.68174
 H745 H 0.15033 0.33639 0.70568
 H746 H 0.16229 0.34724 0.79182
 H747 H 0.06472 0.44561 0.79251
 H748 H 0.05342 0.43535 0.70620
 C749 C 0.11880 0.61978 0.25260
 C750 C 0.13296 0.62624 0.22847
 C751 C 0.15363 0.64641 0.22886
 C752 C 0.15999 0.66023 0.25311
 C753 C 0.14545 0.65355 0.27709
 C754 C 0.12492 0.63325 0.27698
 C755 C 0.09714 0.59850 0.25234
 C756 C 0.08319 0.59184 0.27654
 C757 C 0.06273 0.57148 0.27622
 C758 C 0.05602 0.55799 0.25187
 C759 C 0.07015 0.56506 0.22775
 C760 C 0.09083 0.58522 0.22790
 C761 C 0.11044 0.62609 0.30077
 C762 C 0.08997 0.60569 0.30056
 C763 C 0.12612 0.61245 0.20442
 C764 C 0.10536 0.59232 0.20413
 H765 H 0.11501 0.63631 0.31972
 H766 H 0.07933 0.60076 0.31936
 H767 H 0.13687 0.61728 0.18566
 H768 H 0.10070 0.58220 0.18515
 H769 H 0.16445 0.65156 0.21022
 H770 H 0.15035 0.66382 0.29593
 H771 H 0.05192 0.56629 0.29487
 H772 H 0.06523 0.55474 0.20893
 C773 C 0.74935 -0.11848 0.61767
 C774 C 0.72471 -0.12438 0.63179
 C775 C 0.72496 -0.14442 0.65221
 C776 C 0.74956 -0.15867 0.65835
 C777 C 0.77404 -0.15259 0.64383
 C778 C 0.77408 -0.13241 0.62356
 C779 C 0.74926 -0.09727 0.59633
 C780 C 0.77399 -0.09113 0.58244
 C781 C 0.77384 -0.07080 0.56231
 C782 C 0.74914 -0.05684 0.55587
 C783 C 0.72449 -0.06340 0.56992
 C784 C 0.72447 -0.08351 0.59027
 C785 C 0.79839 -0.12578 0.60914
 C786 C 0.79835 -0.10544 0.58897
 C787 C 0.70032 -0.11014 0.62520
 C788 C 0.70019 -0.09009 0.60475
 H789 H 0.81761 -0.13636 0.61352
 H790 H 0.81756 -0.10092 0.57837
 H791 H 0.68116 -0.11454 0.63592
 H792 H 0.68093 -0.07960 0.60028
 H793 H 0.70594 -0.14912 0.66303
 H794 H 0.79316 -0.16319 0.64857
 H795 H 0.79289 -0.06600 0.55155
 H796 H 0.70539 -0.05271 0.56522
 C797 C 0.25116 -0.11891 0.38240
 C798 C 0.22639 -0.13265 0.37632
 C799 C 0.22656 -0.15305 0.35640
 C800 C 0.25124 -0.15955 0.34242
 C801 C 0.27587 -0.14546 0.34873
 C802 C 0.27598 -0.12520 0.36879
 C803 C 0.25112 -0.09753 0.40342
 C804 C 0.27596 -0.08398 0.40969
 C805 C 0.27583 -0.06374 0.42978
 C806 C 0.25103 -0.05687 0.44338
 C807 C 0.22628 -0.07062 0.43671
 C808 C 0.22624 -0.09105 0.41683
 C809 C 0.30041 -0.11114 0.37556
 C810 C 0.30041 -0.09091 0.39571
 C811 C 0.20192 -0.12566 0.39024
 C812 C 0.20183 -0.10517 0.41011
 H813 H 0.31970 -0.11583 0.36523
 H814 H 0.31970 -0.08059 0.40035
 H815 H 0.18265 -0.13609 0.38570
 H816 H 0.18251 -0.10038 0.42034
 H817 H 0.20742 -0.16352 0.35153
 H818 H 0.29504 -0.15047 0.33833
 H819 H 0.29496 -0.05323 0.43467
 H820 H 0.20711 -0.06558 0.44711
 C821 C 0.74949 0.11851 0.37983
 C822 C 0.77468 0.13071 0.37209
 C823 C 0.77471 0.15061 0.35155
 C824 C 0.74981 0.15820 0.33863
 C825 C 0.72473 0.14570 0.34667
 C826 C 0.72445 0.12590 0.36731
 C827 C 0.74935 0.09754 0.40140
 C828 C 0.72415 0.08543 0.40923
 C829 C 0.72414 0.06547 0.42972
 C830 C 0.74914 0.05747 0.44222
 C831 C 0.77423 0.06986 0.43406
 C832 C 0.77444 0.08996 0.41371
 C833 C 0.69963 0.11332 0.37570
 C834 C 0.69948 0.09345 0.39633
 C835 C 0.79936 0.12267 0.38496
 C836 C 0.79925 0.10261 0.40540
 H837 H 0.68016 0.11887 0.36622
 H838 H 0.67990 0.08425 0.40218
 H839 H 0.81893 0.13191 0.37915
 H840 H 0.81874 0.09695 0.41476
 H841 H 0.79418 0.15982 0.34538
 H842 H 0.70540 0.15154 0.33713
 H843 H 0.70472 0.05603 0.43577
 H844 H 0.79358 0.06395 0.44358
 C845 C 0.25017 0.11892 0.61778
 C846 C 0.22532 0.13252 0.62400
 C847 C 0.22532 0.15272 0.64412
 C848 C 0.24989 0.15916 0.65815
 C849 C 0.27461 0.14522 0.65169
 C850 C 0.27489 0.12516 0.63143
 C851 C 0.25031 0.09772 0.59657
 C852 C 0.27522 0.08430 0.59018
 C853 C 0.27526 0.06421 0.56995
 C854 C 0.25055 0.05735 0.55633
 C855 C 0.22573 0.07098 0.56310
 C856 C 0.22553 0.09127 0.58313
 C857 C 0.29940 0.11124 0.62451
 C858 C 0.29957 0.09119 0.60420
 C859 C 0.20095 0.12558 0.61003
 C860 C 0.20104 0.10526 0.58998
 H861 H 0.31862 0.11590 0.63487
 H862 H 0.31892 0.08096 0.59947
 H863 H 0.18163 0.13590 0.61467
 H864 H 0.18179 0.10049 0.57973
 H865 H 0.20612 0.16309 0.64910
 H866 H 0.29370 0.15019 0.66211
 H867 H 0.29445 0.05379 0.56498
 H868 H 0.20663 0.06595 0.55269
   
