data_POSCAR
  _audit_creation_date              2014-09-24
  _audit_creation_method            'ToBaCCo'
  _symmetry_space_group_name_H-M    'P1'
  _symmetry_Int_Tables_number       1
  _symmetry_cell_setting            triclinic
  loop_
  _symmetry_equiv_pos_as_xyz
 x,y,z
_cell_length_a 48.7189
_cell_length_b 50.0629
_cell_length_c 44.7340
_cell_angle_alpha 92.007800
_cell_angle_beta 89.488300
_cell_angle_gamma 91.251900
loop_
  _atom_site_label
  _atom_site_type_symbol
  _atom_site_fract_x
  _atom_site_fract_y
  _atom_site_fract_z
C1 C 0.27747 0.46291 0.99231
 C2 C 0.25789 0.46007 1.01916
 C3 C 0.24094 0.48127 1.02331
 C4 C 0.24504 0.50327 1.00049
 C5 C 0.25881 0.46735 0.96560
 C6 C 0.24182 0.48845 0.97001
 C7 C 0.29273 0.48964 0.99798
 C8 C 0.27575 0.51069 1.00229
 H9 H 0.25705 0.44270 1.03307
 H10 H 0.23126 0.52053 1.00393
 H11 H 0.25820 0.45431 0.94566
 H12 H 0.31496 0.49166 0.99909
 C13 C 0.72452 0.53778 0.00791
 C14 C 0.74238 0.53278 0.03513
 C15 C 0.75938 0.51164 0.03078
 C16 C 0.75693 0.49739 -0.00012
 C17 C 0.74485 0.54105 -0.01819
 C18 C 0.76181 0.51985 -0.02224
 C19 C 0.70934 0.51123 0.00110
 C20 C 0.72626 0.49017 -0.00312
 H21 H 0.74276 0.54567 0.05518
 H22 H 0.77070 0.48011 -0.00352
 H23 H 0.74617 0.55867 -0.03167
 H24 H 0.68715 0.50933 -0.00092
 C25 C 0.03708 0.22064 0.50512
 C26 C 0.03510 0.23548 0.47788
 C27 C 0.01162 0.25217 0.47752
 C28 C -0.00555 0.25094 0.50428
 C29 C 0.03664 0.24184 0.53083
 C30 C 0.01421 0.25774 0.53025
 C31 C 0.00973 0.20518 0.50792
 C32 C -0.01258 0.22107 0.50749
 H33 H 0.05122 0.23610 0.46094
 H34 H -0.02392 0.26376 0.50400
 H35 H 0.05315 0.24495 0.54683
 H36 H 0.00815 0.18364 0.51019
 C37 C 0.96192 0.77994 0.49326
 C38 C 0.96216 0.75920 0.46716
 C39 C 0.98467 0.74341 0.46698
 C40 C 1.00482 0.74977 0.49260
 C41 C 0.96448 0.76357 0.52144
 C42 C 0.98695 0.74772 0.52095
 C43 C 0.98915 0.79551 0.49070
 C44 C 1.01153 0.77976 0.49035
 H45 H 0.94531 0.75609 0.45159
 H46 H 1.02322 0.73700 0.49227
 H47 H 0.94881 0.76282 0.53885
 H48 H 0.99060 0.81713 0.48916
 C49 C 0.50915 0.04899 0.21597
 C50 C 0.48262 0.04879 0.23481
 C51 C 0.48177 0.02909 0.25516
 C52 C 0.50733 0.01158 0.25486
 C53 C 0.53246 0.05138 0.23885
 C54 C 0.53141 0.03169 0.25920
 C55 C 0.51090 0.02220 0.20255
 C56 C 0.50989 0.00171 0.22404
 H57 H 0.46590 0.06246 0.23189
 H58 H 0.50660 -0.00434 0.27162
 H59 H 0.54851 0.06680 0.23865
 H60 H 0.51144 0.01795 0.17855
 C61 C 0.49035 -0.05167 0.78340
 C62 C 0.46606 -0.05274 0.76183
 C63 C 0.46702 -0.03285 0.74181
 C64 C 0.49199 -0.01375 0.74500
 C65 C 0.51608 -0.05202 0.76340
 C66 C 0.51684 -0.03209 0.74339
 C67 C 0.49012 -0.02347 0.79800
 C68 C 0.49101 -0.00371 0.77777
 H69 H 0.44941 -0.06750 0.76268
 H70 H 0.49264 0.00239 0.72854
 H71 H 0.53262 -0.06601 0.76565
 H72 H 0.49005 -0.01951 0.82204
 C73 C 0.29104 0.01230 0.45951
 H74 H 0.29114 0.02610 0.47867
 C75 C 0.31049 0.01526 0.43677
 H76 H 0.32558 0.03146 0.43829
 C77 C 0.27165 -0.02608 0.43443
 H78 H 0.25678 -0.04241 0.43390
 C79 C 0.29083 -0.02385 0.41114
 H80 H 0.29056 -0.03832 0.39256
 N81 N 0.27204 -0.00800 0.45789
 C82 C 0.20622 0.02051 0.51664
 H83 H 0.20469 0.00448 0.53222
 C84 C 0.18879 0.04224 0.51970
 H85 H 0.17377 0.04304 0.53770
 C86 C 0.22732 0.03896 0.47381
 H87 H 0.24203 0.03745 0.45568
 C88 C 0.21029 0.06103 0.47607
 H89 H 0.21211 0.07653 0.45982
 Zn90 Zn 0.24803 -0.01073 0.49109
 N91 N 0.22522 0.01941 0.49416
 C92 C 0.26940 0.00613 0.54812
 N93 N 0.27060 -0.01236 0.52511
 C94 C 0.28949 -0.03200 0.52459
 C95 C 0.30797 -0.03380 0.54802
 C96 C 0.28757 0.00506 0.57203
 C97 C 0.20687 -0.04349 0.46454
 C98 C 0.18867 -0.06539 0.46178
 C99 C 0.20824 -0.08315 0.50618
 C100 C 0.22606 -0.06095 0.50813
 N101 N 0.22514 -0.04171 0.48740
 H102 H 0.25473 0.02198 0.54776
 H103 H 0.29030 -0.04611 0.50574
 H104 H 0.32302 -0.04943 0.54736
 H105 H 0.28669 0.01992 0.59018
 H106 H 0.20626 -0.02771 0.44866
 H107 H 0.17399 -0.06654 0.44370
 H108 H 0.20890 -0.09821 0.52295
 H109 H 0.24021 -0.05891 0.52654
 C110 C 0.19093 0.06271 0.49926
 C111 C 0.31043 -0.00301 0.41243
 C112 C 0.18933 -0.08534 0.48287
 C113 C 0.30706 -0.01506 0.57188
 C114 C 0.70958 0.02878 0.54846
 H115 H 0.70939 0.04553 0.53383
 C116 C 0.69006 0.02681 0.57137
 H117 H 0.67486 0.04215 0.57458
 C118 C 0.72868 -0.01245 0.56124
 H119 H 0.74319 -0.02810 0.55668
 C120 C 0.70952 -0.01520 0.58438
 H121 H 0.70953 -0.03283 0.59777
 N122 N 0.72834 0.00928 0.54380
 C123 C 0.79326 0.04579 0.49017
 H124 H 0.79383 0.03144 0.47152
 C125 C 0.81137 0.06777 0.49092
 H126 H 0.82596 0.07044 0.47279
 C127 C 0.77384 0.05966 0.53685
 H128 H 0.75945 0.05620 0.55488
 C129 C 0.79166 0.08192 0.53851
 H130 H 0.79086 0.09565 0.55775
 Zn131 Zn 0.75147 0.01165 0.50981
 N132 N 0.77480 0.04229 0.51276
 C133 C 0.72910 0.03469 0.45831
 N134 N 0.72806 0.01346 0.47652
 C135 C 0.70878 -0.00643 0.47280
 C136 C 0.68962 -0.00556 0.44987
 C137 C 0.71032 0.03633 0.43507
 C138 C 0.79265 -0.02227 0.52775
 C139 C 0.80989 -0.04420 0.52607
 C140 C 0.78898 -0.05790 0.47903
 C141 C 0.77211 -0.03572 0.48160
 N142 N 0.77398 -0.01864 0.50590
 H143 H 0.74409 0.05062 0.46207
 H144 H 0.70812 -0.02282 0.48796
 H145 H 0.67420 -0.02136 0.44720
 H146 H 0.71107 0.05338 0.42081
 H147 H 0.79403 -0.00813 0.54656
 H148 H 0.82461 -0.04703 0.54363
 H149 H 0.78736 -0.07143 0.45967
 H150 H 0.75768 -0.03212 0.46408
 C151 C 0.81052 0.08601 0.51528
 C152 C 0.68992 0.00449 0.58931
 C153 C 0.80793 -0.06222 0.50155
 C154 C 0.69037 0.01607 0.43093
 C155 C 0.49533 0.21772 0.99869
 H156 H 0.47972 0.21634 0.98162
 C157 C 0.49459 0.20001 1.02208
 H158 H 0.47832 0.18496 1.02313
 C159 C 0.53606 0.23855 1.01775
 H160 H 0.55247 0.25324 1.01566
 C161 C 0.53607 0.22121 1.04157
 H162 H 0.55235 0.22273 1.05793
 N163 N 0.51574 0.23660 0.99702
 C164 C 0.48060 0.29715 0.94190
 H165 H 0.49557 0.29792 0.92393
 C166 C 0.45812 0.31403 0.94215
 H167 H 0.45569 0.32784 0.92431
 C168 C 0.46573 0.27871 0.98757
 H169 H 0.46902 0.26533 1.00554
 C170 C 0.44298 0.29521 0.98867
 H171 H 0.42871 0.29431 1.00734
 Zn172 Zn 0.51542 0.25829 0.96326
 N173 N 0.48389 0.27982 0.96430
 C174 C 0.49350 0.23347 0.91012
 N175 N 0.51501 0.23461 0.92939
 C176 C 0.53559 0.21669 0.92705
 C177 C 0.53483 0.19633 0.90493
 C178 C 0.49193 0.21336 0.88769
 C179 C 0.54898 0.29995 0.98564
 C180 C 0.57120 0.31802 0.98657
 C181 C 0.58816 0.29780 0.94034
 C182 C 0.56561 0.28004 0.94029
 N183 N 0.54670 0.28132 0.96287
 H184 H 0.47699 0.24742 0.91285
 H185 H 0.55210 0.21771 0.94308
 H186 H 0.55088 0.18167 0.90381
 H187 H 0.47431 0.21200 0.87308
 H188 H 0.53344 0.30076 1.00306
 H189 H 0.57283 0.33282 1.00476
 H190 H 0.60307 0.29680 0.92224
 H191 H 0.56311 0.26548 0.92207
 C192 C 0.43917 0.31304 0.96579
 C193 C 0.51515 0.20176 1.04367
 C194 C 0.59094 0.31694 0.96371
 C195 C 0.51261 0.19442 0.88537
 C196 C 0.46572 0.78164 0.00283
 H197 H 0.45078 0.78358 0.02076
 C198 C 0.46516 0.79881 -0.02105
 H199 H 0.44970 0.81400 -0.02161
 C200 C 0.50467 0.75999 -0.01798
 H201 H 0.52038 0.74524 -0.01639
 C202 C 0.50485 0.77680 -0.04227
 H203 H 0.52055 0.77479 -0.05947
 N204 N 0.48516 0.76260 0.00386
 C205 C 0.44932 0.70347 0.06296
 H206 H 0.46473 0.70311 0.08019
 C207 C 0.42658 0.68597 0.06381
 H208 H 0.42443 0.67207 0.08174
 C209 C 0.43384 0.72109 0.01769
 H210 H 0.43706 0.73423 -0.00069
 C211 C 0.41085 0.70397 0.01771
 H212 H 0.39639 0.70414 -0.00054
 Zn213 Zn 0.48517 0.74163 0.03823
 N214 N 0.45255 0.72051 0.04008
 C215 C 0.46852 0.76758 0.09326
 N216 N 0.48801 0.76595 0.07130
 C217 C 0.50967 0.78352 0.07062
 C218 C 0.51239 0.80381 0.09257
 C219 C 0.47043 0.78772 0.11570
 C220 C 0.51574 0.69917 0.01458
 C221 C 0.53766 0.68172 0.01193
 C222 C 0.55792 0.70346 0.05577
 C223 C 0.53559 0.72051 0.05763
 N224 N 0.51529 0.71835 0.03689
 H225 H 0.45113 0.75380 0.09298
 H226 H 0.52454 0.78205 0.05256
 H227 H 0.52947 0.81799 0.09153
 H228 H 0.45461 0.78933 0.13279
 H229 H 0.49914 0.69766 -0.00133
 H230 H 0.53800 0.66668 -0.00607
 H231 H 0.57412 0.70542 0.07218
 H232 H 0.53457 0.73541 0.07561
 C233 C 0.40731 0.68612 0.04083
 C234 C 0.48494 0.79639 -0.04374
 C235 C 0.55902 0.68402 0.03260
 C236 C 0.49249 0.80607 0.11515
 C237 C 1.03343 0.46623 0.21160
 H238 H 1.01780 0.45054 0.21048
 C239 C 1.05550 0.46571 0.19148
 H240 H 1.05700 0.44950 0.17489
 C241 C 1.05021 0.50695 0.23403
 H242 H 1.04779 0.52324 0.25023
 C243 C 1.07263 0.50719 0.21430
 H244 H 1.08756 0.52353 0.21557
 N245 N 1.03124 0.48657 0.23242
 C246 C 0.97808 0.45402 0.30214
 H247 H 0.96179 0.46839 0.30279
 C248 C 0.97750 0.43297 0.32187
 H249 H 0.96065 0.43098 0.33766
 C250 C 1.02031 0.43935 0.28130
 H251 H 1.03724 0.44218 0.26592
 C252 C 1.02055 0.41806 0.30067
 H253 H 1.03751 0.40441 0.29988
 Zn254 Zn 0.99949 0.48650 0.25718
 N255 N 0.99914 0.45668 0.28219
 C256 C 0.94887 0.46601 0.23248
 N257 N 0.96889 0.48537 0.23126
 C258 C 0.96839 0.50448 0.21038
 C259 C 0.94690 0.50496 0.19001
 C260 C 0.92693 0.46580 0.21250
 C261 C 1.01860 0.52129 0.30343
 C262 C 1.01858 0.54378 0.32285
 C263 C 0.97747 0.55829 0.29893
 C264 C 0.97822 0.53554 0.28000
 N265 N 0.99875 0.51774 0.28233
 H266 H 0.94990 0.45068 0.24880
 H267 H 0.98477 0.51939 0.20963
 H268 H 0.94664 0.52033 0.17356
 H269 H 0.91098 0.45044 0.21366
 H270 H 1.03443 0.50661 0.30512
 H271 H 1.03449 0.54655 0.33951
 H272 H 0.96112 0.57242 0.29683
 H273 H 0.96227 0.53210 0.26363
 C274 C 0.99895 0.41483 0.32110
 C275 C 1.07522 0.48641 0.19279
 C276 C 0.99786 0.56247 0.32048
 C277 C 0.92595 0.48550 0.19112
 C278 C -0.02979 0.49409 0.78962
 H279 H -0.01429 0.47896 0.78992
 C280 C -0.05124 0.49387 0.81053
 H281 H -0.05239 0.47845 0.82693
 C282 C -0.04694 0.53309 0.76837
 H283 H -0.04491 0.54863 0.75230
 C284 C -0.06872 0.53361 0.78890
 H285 H -0.08357 0.54939 0.78839
 N286 N -0.02812 0.51341 0.76896
 C287 C 0.02172 0.47959 0.69608
 H288 H 0.03734 0.49517 0.69434
 C289 C 0.02221 0.45721 0.67657
 H290 H 0.03829 0.45545 0.65979
 C291 C -0.01849 0.46288 0.71992
 H292 H -0.03451 0.46530 0.73656
 C293 C -0.01874 0.44016 0.70086
 H294 H -0.03479 0.42502 0.70309
 Zn295 Zn 0.00260 0.51302 0.74273
 N296 N 0.00175 0.48188 0.71743
 C297 C 0.05260 0.49357 0.76500
 N298 N 0.03426 0.51370 0.76702
 C299 C 0.03690 0.53387 0.78807
 C300 C 0.05870 0.53433 0.80818
 C301 C 0.07471 0.49329 0.78464
 C302 C -0.01828 0.54410 0.69790
 C303 C -0.01918 0.56515 0.67829
 C304 C 0.02300 0.58310 0.69969
 C305 C 0.02313 0.56169 0.71893
 N306 N 0.00254 0.54285 0.71785
 H307 H 0.04983 0.47739 0.74864
 H308 H 0.02176 0.54936 0.78952
 H309 H 0.06049 0.55028 0.82509
 H310 H 0.08904 0.47705 0.78312
 H311 H -0.03415 0.52863 0.69721
 H312 H -0.03585 0.56600 0.66250
 H313 H 0.03944 0.59802 0.70064
 H314 H 0.03980 0.56005 0.73446
 C315 C 0.00184 0.43730 0.67906
 C316 C -0.07085 0.51384 0.81018
 C317 C 0.00164 0.58481 0.67920
 C318 C 0.07767 0.51376 0.80654
 C319 C 0.13903 0.12593 0.50552
 C320 C 0.14138 0.14678 0.48499
 C321 C 0.12192 0.16754 0.48573
 C322 C 0.10024 0.16735 0.50701
 C323 C 0.09842 0.14697 0.52817
 C324 C 0.11787 0.12621 0.52742
 C325 C 0.11550 0.10594 0.54864
 C326 C 0.09449 0.10616 0.56997
 C327 C 0.07546 0.12645 0.57071
 C328 C 0.07729 0.14667 0.55011
 C329 C 0.12453 0.18804 0.46483
 C330 C 0.14583 0.18807 0.44383
 C331 C 0.16488 0.16778 0.44311
 C332 C 0.16277 0.14730 0.46338
 C333 C 0.07904 0.18724 0.50628
 C334 C 0.06061 0.20290 0.50568
 C335 C 0.15777 0.10378 0.50353
 C336 C 0.17300 0.08512 0.50170
 H337 H 0.12986 0.08977 0.54902
 H338 H 0.09298 0.09050 0.58603
 H339 H 0.05917 0.12653 0.58733
 H340 H 0.06204 0.16206 0.55165
 H341 H 0.11023 0.20427 0.46457
 H342 H 0.14757 0.20393 0.42805
 H343 H 0.18139 0.16790 0.42676
 H344 H 0.17809 0.13197 0.46197
 C345 C 0.62309 0.63261 0.02428
 C346 C 0.61791 0.60664 0.01177
 C347 C 0.63964 0.58826 0.00865
 C348 C 0.66645 0.59594 0.01804
 C349 C 0.67168 0.62194 0.03041
 C350 C 0.64992 0.64035 0.03354
 C351 C 0.65562 0.66623 0.04598
 C352 C 0.68206 0.67372 0.05506
 C353 C 0.70332 0.65573 0.05200
 C354 C 0.69830 0.63009 0.03983
 C355 C 0.63392 0.56238 -0.00391
 C356 C 0.60753 0.55491 -0.01311
 C357 C 0.58629 0.57290 -0.01006
 C358 C 0.59129 0.59848 0.00222
 C359 C 0.68838 0.57684 0.01510
 C360 C 0.70548 0.55988 0.01216
 C361 C 0.60075 0.65125 0.02759
 C362 C 0.58186 0.66634 0.03005
 H363 H 0.63975 0.68092 0.04881
 H364 H 0.68607 0.69361 0.06453
 H365 H 0.72382 0.66165 0.05910
 H366 H 0.71548 0.61677 0.03788
 H367 H 0.64973 0.54765 -0.00679
 H368 H 0.60355 0.53505 -0.02267
 H369 H 0.56581 0.56700 -0.01725
 H370 H 0.57407 0.61175 0.00411
 C371 C 0.85966 -0.12561 0.49545
 C372 C 0.87975 -0.12657 0.47239
 C373 C 0.89924 -0.14730 0.47134
 C374 C 0.89853 -0.16695 0.49336
 C375 C 0.87797 -0.16644 0.51592
 C376 C 0.85846 -0.14570 0.51696
 C377 C 0.83820 -0.14550 0.53983
 C378 C 0.83723 -0.16523 0.56106
 C379 C 0.85631 -0.18549 0.56004
 C380 C 0.87651 -0.18618 0.53779
 C381 C 0.91927 -0.14769 0.44821
 C382 C 0.91999 -0.12821 0.42671
 C383 C 0.90092 -0.10795 0.42773
 C384 C 0.88100 -0.10703 0.45026
 C385 C 0.91979 -0.18683 0.49354
 C386 C 0.93828 -0.20244 0.49353
 C387 C 0.84086 -0.10349 0.49753
 C388 C 0.82568 -0.08480 0.49932
 H389 H 0.82290 -0.13016 0.54152
 H390 H 0.82157 -0.16480 0.57838
 H391 H 0.85545 -0.20078 0.57657
 H392 H 0.89088 -0.20235 0.53786
 H393 H 0.93452 -0.16307 0.44642
 H394 H 0.93543 -0.12885 0.40915
 H395 H 0.90156 -0.09286 0.41097
 H396 H 0.86659 -0.09089 0.45008
 C397 C 0.37523 0.36483 0.97128
 C398 C 0.37662 0.38874 0.95529
 C399 C 0.35556 0.40781 0.95898
 C400 C 0.33320 0.40286 0.97862
 C401 C 0.33145 0.37866 0.99404
 C402 C 0.35253 0.35958 0.99036
 C403 C 0.35041 0.33559 1.00613
 C404 C 0.32808 0.33057 1.02494
 C405 C 0.30748 0.34922 1.02855
 C406 C 0.30906 0.37305 1.01336
 C407 C 0.35752 0.43166 0.94291
 C408 C 0.37962 0.43649 0.92371
 C409 C 0.40019 0.41783 0.92008
 C410 C 0.39882 0.39420 0.93564
 C411 C 0.31259 0.42310 0.98359
 C412 C 0.29624 0.44062 0.98762
 C413 C 0.39756 0.34610 0.96884
 C414 C 0.41641 0.33088 0.96719
 H415 H 0.36591 0.32047 1.00403
 H416 H 0.32674 0.31209 1.03678
 H417 H 0.29017 0.34521 1.04318
 H418 H 0.29254 0.38695 1.01685
 H419 H 0.34202 0.44678 0.94494
 H420 H 0.38077 0.45482 0.91158
 H421 H 0.41730 0.42167 0.90512
 H422 H 0.41531 0.38028 0.93204
 C423 C 0.86672 0.14800 0.51716
 C424 C 0.87241 0.16173 0.49059
 C425 C 0.89517 0.17994 0.48938
 C426 C 0.91205 0.18428 0.51475
 C427 C 0.90527 0.17188 0.54189
 C428 C 0.88253 0.15367 0.54309
 C429 C 0.87642 0.14115 0.57031
 C430 C 0.89234 0.14647 0.59564
 C431 C 0.91459 0.16428 0.59447
 C432 C 0.92109 0.17689 0.56796
 C433 C 0.90076 0.19308 0.46244
 C434 C 0.88428 0.18844 0.43740
 C435 C 0.86202 0.17064 0.43859
 C436 C 0.85607 0.15736 0.46481
 C437 C 0.93777 0.19923 0.51217
 C438 C 0.95998 0.21009 0.51000
 C439 C 0.84599 0.12673 0.51713
 C440 C 0.82949 0.10842 0.51658
 H441 H 0.85925 0.12723 0.57232
 H442 H 0.88737 0.13674 0.61629
 H443 H 0.92689 0.16835 0.61421
 H444 H 0.93852 0.19067 0.56816
 H445 H 0.91780 0.20718 0.46051
 H446 H 0.88879 0.19871 0.41698
 H447 H 0.84926 0.16711 0.41909
 H448 H 0.83850 0.14376 0.46469
 C449 C 0.34625 0.62895 0.03329
 C450 C 0.33267 0.62554 0.00551
 C451 C 0.31508 0.60291 0.00006
 C452 C 0.31119 0.58384 0.02241
 C453 C 0.32341 0.58813 0.05083
 C454 C 0.34101 0.61076 0.05628
 C455 C 0.35338 0.61442 0.08467
 C456 C 0.34846 0.59623 0.10708
 C457 C 0.33126 0.57408 0.10175
 C458 C 0.31884 0.56996 0.07398
 C459 C 0.30211 0.59966 -0.02805
 C460 C 0.30636 0.61829 -0.05015
 C461 C 0.32355 0.64044 -0.04482
 C462 C 0.33663 0.64412 -0.01735
 C463 C 0.29683 0.55873 0.01536
 C464 C 0.28638 0.53718 0.00938
 C465 C 0.36711 0.64989 0.03727
 C466 C 0.38514 0.66670 0.03953
 H467 H 0.36684 0.63139 0.08987
 H468 H 0.35804 0.59934 0.12871
 H469 H 0.32751 0.56001 0.11923
 H470 H 0.30553 0.55251 0.07092
 H471 H 0.28846 0.58280 -0.03317
 H472 H 0.29625 0.61553 -0.07153
 H473 H 0.32678 0.65487 -0.06205
 H474 H 0.34974 0.66171 -0.01421
 C475 C 0.13187 -0.14630 0.48113
 C476 C 0.11614 -0.15196 0.45513
 C477 C 0.09342 -0.17021 0.45622
 C478 C 0.08657 -0.18267 0.48331
 C479 C 0.10331 -0.17825 0.50878
 C480 C 0.12603 -0.15999 0.50769
 C481 C 0.14222 -0.15557 0.53358
 C482 C 0.13616 -0.16885 0.55977
 C483 C 0.11394 -0.18670 0.56082
 C484 C 0.09760 -0.19140 0.53569
 C485 C 0.07773 -0.17525 0.43007
 C486 C 0.08434 -0.16265 0.40359
 C487 C 0.10655 -0.14478 0.40253
 C488 C 0.12232 -0.13941 0.42795
 C489 C 0.06096 -0.19787 0.48571
 C490 C 0.03887 -0.20898 0.48782
 C491 C 0.15289 -0.12528 0.48111
 C492 C 0.16975 -0.10728 0.48158
 H493 H 0.15976 -0.14193 0.53380
 H494 H 0.14879 -0.16526 0.57936
 H495 H 0.10934 -0.19698 0.58122
 H496 H 0.08060 -0.20554 0.53752
 H497 H 0.06032 -0.18907 0.42978
 H498 H 0.07216 -0.16677 0.38377
 H499 H 0.11159 -0.13504 0.38191
 H500 H 0.13946 -0.12543 0.42604
 C501 C 0.65219 0.37422 0.96592
 C502 C 0.67454 0.37271 0.98576
 C503 C 0.69281 0.39502 0.99003
 C504 C 0.68857 0.41868 0.97446
 C505 C 0.66725 0.41957 0.95321
 C506 C 0.64900 0.39727 0.94894
 C507 C 0.62756 0.39878 0.92794
 C508 C 0.62429 0.42166 0.91158
 C509 C 0.64213 0.44349 0.91577
 C510 C 0.66338 0.44258 0.93634
 C511 C 0.71478 0.39322 1.01027
 C512 C 0.71865 0.36996 1.02580
 C513 C 0.70077 0.34814 1.02165
 C514 C 0.67889 0.34940 1.00192
 C515 C 0.70425 0.44289 0.98216
 C516 C 0.71543 0.46394 0.98885
 C517 C 0.63138 0.35302 0.96450
 C518 C 0.61331 0.33618 0.96387
 H519 H 0.61321 0.38229 0.92384
 H520 H 0.60782 0.42246 0.89557
 H521 H 0.63951 0.46121 0.90299
 H522 H 0.67679 0.46003 0.93871
 H523 H 0.72925 0.40967 1.01413
 H524 H 0.73563 0.36885 1.04113
 H525 H 0.70388 0.33012 1.03377
 H526 H 0.66556 0.33192 0.99935
 C527 C 0.51367 0.14672 1.10921
 C528 C 0.50610 0.11998 1.10114
 C529 C 0.50521 0.10024 1.12322
 C530 C 0.51186 0.10737 1.15324
 C531 C 0.51939 0.13412 1.16132
 C532 C 0.52029 0.15386 1.13923
 C533 C 0.52787 0.18046 1.14781
 C534 C 0.53440 0.18737 1.17739
 C535 C 0.53354 0.16807 1.19899
 C536 C 0.52613 0.14171 1.19118
 C537 C 0.49763 0.07363 1.11461
 C538 C 0.49113 0.06671 1.08503
 C539 C 0.49197 0.08601 1.06345
 C540 C 0.49935 0.11237 1.07127
 C541 C 0.51099 0.08713 1.17568
 C542 C 0.51019 0.07004 1.19399
 C543 C 0.51458 0.16679 1.08656
 C544 C 0.51505 0.18302 1.06729
 H545 H 0.52882 0.19618 1.13180
 H546 H 0.54018 0.20782 1.18357
 H547 H 0.53865 0.17354 1.22193
 H548 H 0.52574 0.12740 1.20877
 H549 H 0.49665 0.05789 1.13059
 H550 H 0.48540 0.04626 1.07884
 H551 H 0.48690 0.08054 1.04050
 H552 H 0.49968 0.12665 1.05367
 C553 C -0.00057 0.64599 0.62081
 C554 C -0.00762 0.64026 0.59058
 C555 C -0.00938 0.66138 0.57029
 C556 C -0.00408 0.68813 0.58036
 C557 C 0.00328 0.69382 0.61051
 C558 C 0.00502 0.67269 0.63079
 C559 C 0.01230 0.67889 0.66084
 C560 C 0.01774 0.70521 0.67057
 C561 C 0.01605 0.72586 0.65074
 C562 C 0.00890 0.72035 0.62103
 C563 C -0.01659 0.65515 0.54021
 C564 C -0.02197 0.62883 0.53048
 C565 C -0.02017 0.60818 0.55029
 C566 C -0.01310 0.61371 0.58001
 C567 C -0.00673 0.70973 0.55980
 C568 C -0.00937 0.72731 0.54237
 C569 C 0.00052 0.62446 0.64169
 C570 C 0.00117 0.60647 0.65890
 H571 H 0.01389 0.66351 0.67710
 H572 H 0.02329 0.70959 0.69363
 H573 H 0.02031 0.74626 0.65841
 H574 H 0.00786 0.73708 0.60643
 H575 H -0.01816 0.67050 0.52391
 H576 H -0.02753 0.62443 0.50743
 H577 H -0.02431 0.58776 0.54259
 H578 H -0.01199 0.59696 0.59457
 C579 C 0.48553 0.85005 -0.11067
 C580 C 0.50190 0.84620 -0.13671
 C581 C 0.50273 0.86593 -0.15881
 C582 C 0.48716 0.88934 -0.15472
 C583 C 0.47051 0.89302 -0.12887
 C584 C 0.46967 0.87330 -0.10679
 C585 C 0.45288 0.87744 -0.08111
 C586 C 0.43743 0.90043 -0.07735
 C587 C 0.43830 0.91974 -0.09892
 C588 C 0.45461 0.91619 -0.12444
 C589 C 0.51933 0.86172 -0.18460
 C590 C 0.53465 0.83866 -0.18846
 C591 C 0.53381 0.81935 -0.16687
 C592 C 0.51766 0.82297 -0.14123
 C593 C 0.48845 0.90981 -0.17686
 C594 C 0.48938 0.92708 -0.19494
 C595 C 0.48542 0.83046 -0.08753
 C596 C 0.48527 0.81465 -0.06783
 H597 H 0.45148 0.86298 -0.06371
 H598 H 0.42471 0.90327 -0.05758
 H599 H 0.42627 0.93758 -0.09590
 H600 H 0.45458 0.93177 -0.14060
 H601 H 0.52063 0.87617 -0.20202
 H602 H 0.54724 0.83575 -0.20833
 H603 H 0.54574 0.80146 -0.16999
 H604 H 0.51765 0.80738 -0.12507
 C605 C 1.00061 0.35302 0.37879
 C606 C 1.01002 0.32777 0.36834
 C607 C 1.01176 0.30647 0.38840
 C608 C 1.00409 0.31052 0.41879
 C609 C 0.99440 0.33568 0.42918
 C610 C 0.99266 0.35699 0.40913
 C611 C 0.98306 0.38198 0.42009
 C612 C 0.97535 0.38581 0.44999
 C613 C 0.97696 0.36496 0.46956
 C614 C 0.98642 0.34015 0.45943
 C615 C 1.02134 0.28146 0.37746
 C616 C 1.02903 0.27761 0.34756
 C617 C 1.02734 0.29843 0.32796
 C618 C 1.01795 0.32326 0.33809
 C619 C 1.00665 0.28904 0.43952
 C620 C 1.00893 0.27153 0.45711
 C621 C 0.99959 0.37499 0.35845
 C622 C 0.99910 0.39318 0.34147
 H623 H 0.98138 0.39879 0.40570
 H624 H 0.96807 0.40506 0.45800
 H625 H 0.97092 0.36802 0.49275
 H626 H 0.98735 0.32458 0.47554
 H627 H 1.02298 0.26464 0.39184
 H628 H 1.03634 0.25836 0.33958
 H629 H 1.03335 0.29533 0.30476
 H630 H 1.01696 0.33882 0.32197
 C631 C 0.49983 0.87257 0.17029
 C632 C 0.47713 0.88403 0.18550
 C633 C 0.47981 0.90996 0.19930
 C634 C 0.50515 0.92425 0.19764
 C635 C 0.52829 0.91211 0.18402
 C636 C 0.52562 0.88616 0.17033
 C637 C 0.54895 0.87454 0.15648
 C638 C 0.57418 0.88819 0.15615
 C639 C 0.57677 0.91359 0.16953
 C640 C 0.55416 0.92551 0.18334
 C641 C 0.45678 0.92115 0.21418
 C642 C 0.43180 0.90709 0.21537
 C643 C 0.42916 0.88177 0.20177
 C644 C 0.45150 0.87028 0.18694
 C645 C 0.50698 0.95198 0.20812
 C646 C 0.50843 0.97525 0.21588
 C647 C 0.49631 0.84796 0.15251
 C648 C 0.49412 0.82835 0.13625
 H649 H 0.54799 0.85477 0.14590
 H650 H 0.59180 0.87899 0.14548
 H651 H 0.59642 0.92411 0.16922
 H652 H 0.55721 0.94525 0.19356
 H653 H 0.45789 0.94075 0.22515
 H654 H 0.41440 0.91591 0.22690
 H655 H 0.40971 0.87095 0.20275
 H656 H 0.44853 0.85049 0.17679
 C657 C 0.00334 0.37069 0.62324
 C658 C -0.00180 0.34515 0.63501
 C659 C -0.00030 0.32187 0.61598
 C660 C 0.00635 0.32428 0.58531
 C661 C 0.01113 0.34983 0.57344
 C662 C 0.00965 0.37311 0.59248
 C663 C 0.01470 0.39843 0.58015
 C664 C 0.02105 0.40068 0.54990
 C665 C 0.02249 0.37793 0.53129
 C666 C 0.01755 0.35275 0.54278
 C667 C -0.00545 0.29656 0.62827
 C668 C -0.01184 0.29429 0.65851
 C669 C -0.01328 0.31704 0.67713
 C670 C -0.00835 0.34223 0.66563
 C671 C 0.00882 0.30047 0.56608
 C672 C 0.01115 0.28086 0.54994
 C673 C 0.00257 0.39438 0.64289
 C674 C 0.00213 0.41398 0.65934
 H675 H 0.01381 0.41671 0.59374
 H676 H 0.02489 0.42020 0.54085
 H677 H 0.02744 0.37979 0.50780
 H678 H 0.01881 0.33565 0.52738
 H679 H -0.00460 0.27828 0.61467
 H680 H -0.01570 0.27478 0.66754
 H681 H -0.01824 0.31518 0.70061
 H682 H -0.00975 0.35934 0.68100
 C683 C 0.50284 0.12676 0.83227
 C684 C 0.47697 0.11332 0.83288
 C685 C 0.47389 0.08734 0.81934
 C686 C 0.49668 0.07501 0.80523
 C687 C 0.52208 0.08910 0.80299
 C688 C 0.52519 0.11505 0.81664
 C689 C 0.55089 0.12860 0.81454
 C690 C 0.57286 0.11690 0.79923
 C691 C 0.56978 0.09156 0.78580
 C692 C 0.54474 0.07770 0.78763
 C693 C 0.44794 0.07412 0.82057
 C694 C 0.42561 0.08630 0.83464
 C695 C 0.42860 0.11173 0.84786
 C696 C 0.45395 0.12515 0.84712
 C697 C 0.49442 0.04736 0.79461
 C698 C 0.49273 0.02416 0.78664
 C699 C 0.50680 0.15163 0.84951
 C700 C 0.50969 0.17158 0.86516
 H701 H 0.55420 0.14840 0.82452
 H702 H 0.59236 0.12757 0.79776
 H703 H 0.58688 0.08257 0.77388
 H704 H 0.54329 0.05807 0.77675
 H705 H 0.44459 0.05435 0.81052
 H706 H 0.40588 0.07596 0.83526
 H707 H 0.41118 0.12112 0.85873
 H708 H 0.45524 0.14493 0.85764
 C709 C 0.99525 0.62989 0.37492
 C710 C 1.00400 0.62967 0.40501
 C711 C 1.00226 0.65322 0.42357
 C712 C 0.99173 0.67683 0.41193
 C713 C 0.98316 0.67711 0.38180
 C714 C 0.98492 0.65357 0.36323
 C715 C 0.97616 0.65434 0.33319
 C716 C 0.96593 0.67767 0.32184
 C717 C 0.96423 0.70068 0.34000
 C718 C 0.97272 0.70052 0.36965
 C719 C 1.01114 0.65253 0.45358
 C720 C 1.02147 0.62925 0.46492
 C721 C 1.02308 0.60620 0.44681
 C722 C 1.01449 0.60629 0.41718
 C723 C 0.98938 0.70069 0.43106
 C724 C 0.98727 0.72033 0.44718
 C725 C 0.99659 0.60576 0.35602
 C726 C 0.99737 0.58591 0.34000
 H727 H 0.97710 0.63696 0.31816
 H728 H 0.95930 0.67790 0.29881
 H729 H 0.95628 0.71876 0.33108
 H730 H 0.97102 0.71893 0.38289
 H731 H 1.01023 0.66994 0.46857
 H732 H 1.02822 0.62909 0.48791
 H733 H 1.03104 0.58814 0.45576
 H734 H 1.01618 0.58787 0.40394
 C735 C 1.13827 0.48623 0.13152
 C736 C 1.13624 0.50132 0.10547
 C737 C 1.15757 0.50052 0.08357
 C738 C 1.18080 0.48463 0.08785
 C739 C 1.18294 0.46970 0.11400
 C740 C 1.16160 0.47049 0.13589
 C741 C 1.16413 0.45526 0.16175
 C742 C 1.18707 0.43970 0.16588
 C743 C 1.20795 0.43897 0.14451
 C744 C 1.20603 0.45377 0.11883
 C745 C 1.15503 0.51573 0.05767
 C746 C 1.13208 0.53128 0.05353
 C747 C 1.11121 0.53202 0.07491
 C748 C 1.11316 0.51727 0.10063
 C749 C 1.20232 0.48339 0.06519
 C750 C 1.22003 0.48236 0.04623
 C751 C 1.11617 0.48653 0.15355
 C752 C 1.09763 0.48658 0.17162
 H753 H 1.14844 0.45520 0.17902
 H754 H 1.18865 0.42815 0.18578
 H755 H 1.22573 0.42686 0.14782
 H756 H 1.22280 0.45256 0.10285
 H757 H 1.17072 0.51579 0.04039
 H758 H 1.13050 0.54283 0.03364
 H759 H 1.09341 0.54410 0.07157
 H760 H 1.09641 0.51852 0.11663
 C761 C 0.62816 -0.00792 0.65017
 C762 C 0.61599 0.01354 0.66649
 C763 C 0.59340 0.00852 0.68598
 C764 C 0.58314 -0.01794 0.68899
 C765 C 0.59558 -0.03945 0.67304
 C766 C 0.61817 -0.03444 0.65357
 C767 C 0.63022 -0.05627 0.63779
 C768 C 0.62025 -0.08230 0.64116
 C769 C 0.59815 -0.08720 0.66019
 C770 C 0.58587 -0.06610 0.67600
 C771 C 0.58150 0.03029 0.70202
 C772 C 0.59163 0.05630 0.69889
 C773 C 0.61371 0.06121 0.67981
 C774 C 0.62583 0.04016 0.66374
 C775 C 0.55965 -0.02302 0.70827
 C776 C 0.54012 -0.02725 0.72423
 C777 C 0.65046 -0.00280 0.62928
 C778 C 0.66866 0.00088 0.61137
 H779 H 0.64748 -0.05350 0.62274
 H780 H 0.62974 -0.09876 0.62894
 H781 H 0.59048 -0.10745 0.66275
 H782 H 0.56874 -0.07093 0.69055
 H783 H 0.56429 0.02747 0.71714
 H784 H 0.58229 0.07272 0.71133
 H785 H 0.62150 0.08145 0.67744
 H786 H 0.64299 0.04496 0.64921
 C787 C -0.13319 0.51575 0.87226
 C788 C -0.15700 0.53049 0.86678
 C789 C -0.17862 0.53140 0.88833
 C790 C -0.17624 0.51767 0.91529
 C791 C -0.15239 0.50302 0.92084
 C792 C -0.13084 0.50198 0.89922
 C793 C -0.10729 0.48705 0.90518
 C794 C -0.10505 0.47361 0.93178
 C795 C -0.12606 0.47473 0.95298
 C796 C -0.14950 0.48925 0.94771
 C797 C -0.20226 0.54619 0.88230
 C798 C -0.20446 0.55974 0.85578
 C799 C -0.18330 0.55891 0.83474
 C800 C -0.15980 0.54448 0.84005
 C801 C -0.19833 0.51856 0.93728
 C802 C -0.21658 0.51921 0.95563
 C803 C -0.11110 0.51489 0.85024
 C804 C -0.09277 0.51433 0.83194
 H805 H -0.09039 0.48559 0.88937
 H806 H -0.08690 0.46226 0.93596
 H807 H -0.12421 0.46426 0.97361
 H808 H -0.16528 0.48953 0.96489
 H809 H -0.21926 0.54745 0.89799
 H810 H -0.22268 0.57095 0.85153
 H811 H -0.18509 0.56949 0.81418
 H812 H -0.14391 0.54442 0.82300
 C813 C 0.37059 0.00711 0.34923
 C814 C 0.38095 0.03342 0.34527
 C815 C 0.40339 0.03784 0.32543
 C816 C 0.41531 0.01595 0.30965
 C817 C 0.40460 -0.01029 0.31312
 C818 C 0.38217 -0.01473 0.33300
 C819 C 0.37189 -0.04113 0.33625
 C820 C 0.38342 -0.06255 0.32026
 C821 C 0.40535 -0.05822 0.30079
 C822 C 0.41591 -0.03243 0.29718
 C823 C 0.41349 0.06430 0.32194
 C824 C 0.40171 0.08577 0.33758
 C825 C 0.37976 0.08145 0.35698
 C826 C 0.36943 0.05563 0.36090
 C827 C 0.43880 0.02043 0.29019
 C828 C 0.45838 0.02436 0.27420
 C829 C 0.34868 0.00259 0.37077
 C830 C 0.33094 -0.00041 0.38936
 H831 H 0.35482 -0.04547 0.35109
 H832 H 0.37530 -0.08262 0.32299
 H833 H 0.41423 -0.07493 0.28841
 H834 H 0.43297 -0.03005 0.28177
 H835 H 0.43053 0.06868 0.30709
 H836 H 0.40967 0.10587 0.33460
 H837 H 0.37067 0.09820 0.36907
 H838 H 0.35230 0.05331 0.37622
 C839 C 0.13953 0.50993 0.86758
 C840 C 0.13360 0.51252 0.89860
 C841 C 0.15474 0.50915 0.91977
 C842 C 0.18168 0.50331 0.90980
 C843 C 0.18770 0.50117 0.87879
 C844 C 0.16657 0.50451 0.85762
 C845 C 0.17307 0.50213 0.82674
 C846 C 0.19967 0.49656 0.81706
 C847 C 0.22031 0.49324 0.83776
 C848 C 0.21453 0.49550 0.86829
 C849 C 0.14826 0.51152 0.95066
 C850 C 0.12166 0.51709 0.96035
 C851 C 0.10103 0.52049 0.93965
 C852 C 0.10681 0.51826 0.90910
 C853 C 0.20303 0.49872 0.93135
 C854 C 0.22075 0.49436 0.94904
 C855 C 0.11767 0.51190 0.84595
 C856 C 0.09949 0.51302 0.82793
 H857 H 0.15772 0.50457 0.80978
 H858 H 0.20428 0.49479 0.79336
 H859 H 0.24093 0.48887 0.83012
 H860 H 0.23129 0.49276 0.88351
 H861 H 0.16363 0.50909 0.96762
 H862 H 0.11703 0.51876 0.98404
 H863 H 0.08041 0.52486 0.94730
 H864 H 0.09007 0.52109 0.89386
 C865 C 0.63192 0.02127 0.36641
 C866 C 0.63392 0.04156 0.34519
 C867 C 0.61313 0.04364 0.32336
 C868 C 0.59050 0.02540 0.32289
 C869 C 0.58852 0.00509 0.34409
 C870 C 0.60931 0.00301 0.36591
 C871 C 0.60691 -0.01745 0.38689
 C872 C 0.58457 -0.03532 0.38635
 C873 C 0.56422 -0.03327 0.36502
 C874 C 0.56607 -0.01335 0.34406
 C875 C 0.61553 0.06413 0.30241
 C876 C 0.63783 0.08205 0.30301
 C877 C 0.65817 0.07999 0.32435
 C878 C 0.65636 0.06002 0.34524
 C879 C 0.56933 0.02751 0.30054
 C880 C 0.55193 0.02937 0.28182
 C881 C 0.65291 0.01939 0.38899
 C882 C 0.67014 0.01786 0.40797
 H883 H 0.62223 -0.01988 0.40389
 H884 H 0.58305 -0.05084 0.40258
 H885 H 0.54691 -0.04719 0.36471
 H886 H 0.54973 -0.01256 0.32791
 H887 H 0.60023 0.06654 0.28538
 H888 H 0.63933 0.09761 0.28684
 H889 H 0.67546 0.09396 0.32472
 H890 H 0.67271 0.05921 0.36138
 C891 C 0.86304 0.48900 0.13126
 C892 C 0.83536 0.48825 0.14118
 C893 C 0.81382 0.49166 0.12050
 C894 C 0.82009 0.49582 0.09003
 C895 C 0.84773 0.49590 0.07995
 C896 C 0.86927 0.49252 0.10064
 C897 C 0.89675 0.49294 0.09008
 C898 C 0.90278 0.49652 0.05995
 C899 C 0.88172 0.49974 0.03971
 C900 C 0.85448 0.49945 0.04947
 C901 C 0.78633 0.49096 0.13097
 C902 C 0.78027 0.48699 0.16101
 C903 C 0.80132 0.48370 0.18124
 C904 C 0.82859 0.48431 0.17157
 C905 C 0.79823 0.50088 0.06922
 C906 C 0.78034 0.50555 0.05184
 C907 C 0.88512 0.48701 0.15266
 C908 C 0.90361 0.48596 0.17031
 H909 H 0.91384 0.49047 0.10495
 H910 H 0.92392 0.49679 0.05227
 H911 H 0.88652 0.50251 0.01633
 H912 H 0.83882 0.50199 0.03286
 H913 H 0.76925 0.49339 0.11608
 H914 H 0.75912 0.48647 0.16864
 H915 H 0.79650 0.48064 0.20456
 H916 H 0.84425 0.48162 0.18813
 C917 C 0.36418 -0.01936 0.63795
 C918 C 0.38397 0.00152 0.64237
 C919 C 0.40497 -0.00093 0.66388
 C920 C 0.40603 -0.02422 0.68084
 C921 C 0.38599 -0.04491 0.67678
 C922 C 0.36499 -0.04247 0.65526
 C923 C 0.34521 -0.06343 0.65154
 C924 C 0.34613 -0.08614 0.66862
 C925 C 0.36667 -0.08852 0.68966
 C926 C 0.38643 -0.06822 0.69378
 C927 C 0.42459 0.02014 0.66786
 C928 C 0.42342 0.04303 0.65111
 C929 C 0.40287 0.04545 0.63008
 C930 C 0.38333 0.02497 0.62564
 C931 C 0.42778 -0.02702 0.70235
 C932 C 0.44575 -0.02957 0.72027
 C933 C 0.34349 -0.01743 0.61504
 C934 C 0.32664 -0.01617 0.59561
 H935 H 0.32881 -0.06248 0.63549
 H936 H 0.33082 -0.10196 0.66552
 H937 H 0.36730 -0.10619 0.70289
 H938 H 0.40199 -0.07099 0.71044
 H939 H 0.44096 0.01919 0.68395
 H940 H 0.43855 0.05899 0.65449
 H941 H 0.40204 0.06328 0.61715
 H942 H 0.36772 0.02778 0.60905
   
