data_POSCAR
  _audit_creation_date              2014-09-24
  _audit_creation_method            'ToBaCCo'
  _symmetry_space_group_name_H-M    'P1'
  _symmetry_Int_Tables_number       1
  _symmetry_cell_setting            triclinic
  loop_
  _symmetry_equiv_pos_as_xyz
 x,y,z
_cell_length_a 14.9841
_cell_length_b 14.1665
_cell_length_c 37.2815
_cell_angle_alpha 92.226300
_cell_angle_beta 91.723200
_cell_angle_gamma 118.566100
loop_
  _atom_site_label
  _atom_site_type_symbol
  _atom_site_fract_x
  _atom_site_fract_y
  _atom_site_fract_z
C1 C -0.03477 0.06767 0.51494
 C2 C -0.12197 -0.01753 0.48968
 C3 C -0.09682 -0.08487 0.47035
 C4 C 0.01272 -0.06296 0.47862
 C5 C 0.00088 0.00448 0.53807
 C6 C 0.02195 -0.06597 0.51987
 C7 C 0.05367 0.12412 0.49019
 C8 C 0.07782 0.05691 0.47097
 H9 H -0.19549 -0.02090 0.48630
 H10 H 0.03351 -0.11789 0.46339
 H11 H 0.00320 0.00992 0.56721
 H12 H 0.09469 0.20957 0.48691
 C13 C 0.88649 -0.17257 0.18423
 C14 C 0.96846 -0.18324 0.16266
 C15 C 1.03344 -0.09133 0.14661
 C16 C 1.00751 0.00071 0.15231
 C17 C 0.94180 -0.07634 0.20805
 C18 C 1.01232 0.01762 0.19135
 C19 C 0.83189 -0.13783 0.15641
 C20 C 0.89434 -0.04871 0.13959
 H21 H 0.97402 -0.25665 0.16038
 H22 H 1.05798 0.07315 0.13815
 H23 H 0.93564 -0.07649 0.23694
 H24 H 0.75087 -0.17603 0.15042
 C25 C 0.05197 1.02859 0.86727
 C26 C 0.07489 1.12963 0.84616
 C27 C -0.00646 1.11752 0.82466
 C28 C -0.10157 1.00607 0.82564
 C29 C -0.04247 1.00890 0.88691
 C30 C -0.12312 0.99587 0.86591
 C31 C 0.01753 0.93926 0.83792
 C32 C -0.06233 0.92533 0.81615
 H33 H 0.14646 1.20347 0.84784
 H34 H -0.16710 0.99627 0.80816
 H35 H -0.04211 1.01366 0.91603
 H36 H 0.05725 0.89306 0.83376
 O37 O 0.55113 -0.07252 0.03255
 O38 O 0.35256 -0.06550 -0.02555
 O39 O 0.51027 -0.08956 -0.03546
 O40 O 0.36174 -0.11021 0.04205
 O41 O 0.42910 0.06692 0.04814
 O42 O 0.58676 0.08804 -0.02835
 O43 O 0.42926 0.11174 -0.01859
 O44 O 0.62374 0.10408 0.04137
 Cu45 Cu 0.43647 -0.09971 0.00321
 Cu46 Cu 0.52509 0.10970 0.01232
 C47 C 0.62422 0.01613 0.04572
 C48 C 0.35666 0.02415 -0.03199
 C49 C 0.57379 0.00189 -0.04536
 C50 C 0.36530 -0.02680 0.05709
 O51 O -0.09606 0.56035 0.63059
 O52 O -0.11414 0.37618 0.70204
 O53 O -0.14411 0.54587 0.69716
 O54 O -0.13565 0.35921 0.63069
 O55 O 0.03184 0.43478 0.63750
 O56 O 0.02373 0.63304 0.70377
 O57 O 0.05361 0.45994 0.70724
 O58 O 0.07074 0.62946 0.63591
 Cu59 Cu -0.13818 0.45151 0.66478
 Cu60 Cu 0.05960 0.54738 0.67259
 C61 C -0.00694 0.62850 0.62167
 C62 C -0.03084 0.38857 0.71697
 C63 C -0.06321 0.62290 0.71116
 C64 C -0.05286 0.36343 0.62251
 O65 O 0.53859 0.55418 0.29141
 O66 O 0.36704 0.39375 0.36087
 O67 O 0.53477 0.58581 0.35946
 O68 O 0.35455 0.40106 0.29033
 O69 O 0.42597 0.29639 0.29240
 O70 O 0.61700 0.49206 0.36101
 O71 O 0.44633 0.29707 0.36234
 O72 O 0.60979 0.44878 0.29249
 Cu73 Cu 0.44017 0.49192 0.32613
 Cu74 Cu 0.53163 0.37421 0.32820
 C75 C 0.60469 0.52851 0.28062
 C76 C 0.37732 0.31639 0.37319
 C77 C 0.61103 0.57678 0.37002
 C78 C 0.35923 0.31856 0.27893
 C79 C -0.12187 0.09904 0.56974
 C80 C -0.06253 0.13952 0.53909
 C81 C -0.01487 0.25153 0.53526
 C82 C -0.01051 0.32241 0.56293
 C83 C -0.05664 0.28437 0.59498
 C84 C -0.11516 0.17211 0.59843
 C85 C -0.18495 -0.01258 0.57324
 C86 C -0.23476 -0.05100 0.60470
 C87 C -0.22375 0.02034 0.63328
 C88 C -0.16488 0.13082 0.63029
 H89 H -0.19615 -0.07172 0.55199
 H90 H -0.28143 -0.13676 0.60703
 H91 H -0.26126 -0.01002 0.65787
 H92 H -0.15797 0.18318 0.65332
 H93 H 0.02156 0.28695 0.51117
 H94 H 0.02916 0.40815 0.55922
 C95 C 0.85550 0.70580 0.23812
 C96 C 0.81825 0.72894 0.20565
 C97 C 0.71266 0.66928 0.19680
 C98 C 0.64487 0.60530 0.22140
 C99 C 0.67979 0.59440 0.25521
 C100 C 0.78585 0.64219 0.26362
 C101 C 0.96063 0.74739 0.24647
 C102 C 0.99660 0.73251 0.27949
 C103 C 0.92875 0.67587 0.30510
 C104 C 0.82445 0.63110 0.29741
 H105 H 1.01620 0.79202 0.22773
 H106 H 1.07765 0.76622 0.28537
 H107 H 0.95698 0.66614 0.33100
 H108 H 0.77508 0.58871 0.31836
 H109 H 0.67986 0.67229 0.17107
 H110 H 0.56404 0.56439 0.21402
 C111 C 0.10280 -0.06333 -0.08336
 C112 C 0.13076 0.02453 -0.10648
 C113 C 0.23144 0.10884 -0.10364
 C114 C 0.30289 0.10825 -0.07899
 C115 C 0.27588 0.02548 -0.05538
 C116 C 0.17369 -0.05757 -0.05595
 C117 C 0.00527 -0.15641 -0.08611
 C118 C -0.02451 -0.23334 -0.06051
 C119 C 0.04154 -0.22066 -0.03165
 C120 C 0.13961 -0.13403 -0.02928
 H121 H -0.05045 -0.17193 -0.10763
 H122 H -0.10010 -0.30216 -0.06273
 H123 H 0.01701 -0.27862 -0.01113
 H124 H 0.18697 -0.12674 -0.00581
 H125 H 0.25697 0.17502 -0.12100
 H126 H 0.38074 0.17264 -0.07873
 C127 C 0.10715 0.88453 0.56902
 C128 C 0.03196 0.85220 0.54048
 C129 C -0.05265 0.74935 0.53964
 C130 C -0.06330 0.67789 0.56581
 C131 C 0.00813 0.70858 0.59483
 C132 C 0.09352 0.81442 0.59719
 C133 C 0.19255 0.98860 0.57119
 C134 C 0.26173 1.02434 0.60080
 C135 C 0.24598 0.95854 0.62921
 C136 C 0.16251 0.85547 0.62778
 H137 H 0.20554 1.04393 0.55032
 H138 H 0.32642 1.10451 0.60212
 H139 H 0.29803 0.98807 0.65276
 H140 H 0.15180 0.81133 0.65161
 H141 H -0.11562 0.72687 0.52049
 H142 H -0.12986 0.59889 0.56395
 C143 C 0.14923 0.20810 0.20374
 C144 C 0.10025 0.09721 0.21111
 C145 C 0.14440 0.06348 0.23828
 C146 C 0.23264 0.13533 0.25796
 C147 C 0.28085 0.24447 0.25164
 C148 C 0.24193 0.28135 0.22336
 C149 C 0.10515 0.24979 0.17923
 C150 C 0.15575 0.35805 0.17158
 C151 C 0.25014 0.42739 0.18855
 C152 C 0.29284 0.38995 0.21434
 H153 H 0.03044 0.19999 0.16634
 H154 H 0.12148 0.38831 0.15238
 H155 H 0.28976 0.51104 0.18211
 H156 H 0.36635 0.44659 0.22686
 H157 H 0.11178 -0.02022 0.24431
 H158 H 0.26101 0.10572 0.27945
 C159 C 0.68725 -0.07433 -0.12489
 C160 C 0.79095 0.00103 -0.11690
 C161 C 0.81637 0.08117 -0.08912
 C162 C 0.74314 0.08547 -0.06860
 C163 C 0.64113 0.00825 -0.07431
 C164 C 0.61130 -0.06949 -0.10378
 C165 C 0.65727 -0.15693 -0.15226
 C166 C 0.55460 -0.22962 -0.15996
 C167 C 0.48024 -0.22179 -0.14054
 C168 C 0.50792 -0.14270 -0.11268
 H169 H 0.71239 -0.16675 -0.16773
 H170 H 0.53257 -0.29225 -0.18118
 H171 H 0.40064 -0.27770 -0.14698
 H172 H 0.44766 -0.13846 -0.09865
 H173 H 0.89502 0.14046 -0.08251
 H174 H 0.76786 0.14563 -0.04637
 C175 C 0.19758 -0.10412 0.13802
 C176 C 0.12223 -0.07693 0.12571
 C177 C 0.13503 -0.02668 0.09311
 C178 C 0.21649 -0.00775 0.07219
 C179 C 0.28788 -0.03951 0.08274
 C180 C 0.27921 -0.08812 0.11579
 C181 C 0.19689 -0.14223 0.17244
 C182 C 0.27004 -0.17048 0.18377
 C183 C 0.34679 -0.15920 0.16140
 C184 C 0.35228 -0.11738 0.12783
 H185 H 0.14217 -0.14756 0.19129
 H186 H 0.26782 -0.20016 0.21024
 H187 H 0.40366 -0.18073 0.17043
 H188 H 0.41512 -0.10628 0.11173
 H189 H 0.08115 -0.00182 0.08343
 H190 H 0.22214 0.02932 0.04686
 C191 C 0.79084 0.86048 0.41231
 C192 C 0.83435 0.83355 0.44188
 C193 C 0.81570 0.72690 0.44349
 C194 C 0.74515 0.64506 0.41965
 C195 C 0.69396 0.66777 0.39222
 C196 C 0.72210 0.77749 0.38681
 C197 C 0.81821 0.96873 0.40641
 C198 C 0.77962 0.99505 0.37623
 C199 C 0.71502 0.91485 0.35091
 C200 C 0.68728 0.80748 0.35580
 H201 H 0.87165 1.03459 0.42436
 H202 H 0.80184 1.07844 0.37207
 H203 H 0.68749 0.93611 0.32702
 H204 H 0.64153 0.74965 0.33426
 H205 H 0.85443 0.70547 0.46367
 H206 H 0.72880 0.56289 0.42323
 C207 C -0.07180 0.24449 0.80476
 C208 C -0.00485 0.20043 0.80092
 C209 C 0.05392 0.22343 0.77086
 C210 C 0.04201 0.28220 0.74376
 C211 C -0.02897 0.32025 0.74575
 C212 C -0.08573 0.30293 0.77680
 C213 C -0.12164 0.23581 0.83671
 C214 C -0.18829 0.27770 0.84071
 C215 C -0.20429 0.33207 0.81311
 C216 C -0.15263 0.34611 0.78159
 H217 H -0.10489 0.20136 0.85926
 H218 H -0.22606 0.26976 0.86559
 H219 H -0.25517 0.36569 0.81643
 H220 H -0.16480 0.39239 0.76157
 H221 H 0.10577 0.19096 0.76744
 H222 H 0.08773 0.29664 0.72057
 C223 C 0.82560 -0.06036 0.07616
 C224 C 0.85120 -0.00983 0.11128
 C225 C 0.81267 0.05883 0.12202
 C226 C 0.74331 0.07146 0.09961
 C227 C 0.71091 0.01587 0.06581
 C228 C 0.75735 -0.04478 0.05285
 C229 C 0.86444 -0.12841 0.06398
 C230 C 0.84217 -0.17412 0.02888
 C231 C 0.77992 -0.15413 0.00545
 C232 C 0.73726 -0.09070 0.01725
 H233 H 0.91277 -0.14622 0.08133
 H234 H 0.87385 -0.22473 0.01975
 H235 H 0.76409 -0.18847 -0.02195
 H236 H 0.69010 -0.07658 -0.00194
 H237 H 0.83021 0.09624 0.14904
 H238 H 0.70985 0.11956 0.10966
 C239 C 0.25381 0.12062 0.44802
 C240 C 0.15239 0.10098 0.44276
 C241 C 0.12774 0.14870 0.41465
 C242 C 0.20186 0.21826 0.39288
 C243 C 0.30407 0.24411 0.39859
 C244 C 0.33114 0.19525 0.42663
 C245 C 0.28053 0.07034 0.47501
 C246 C 0.38158 0.09545 0.48192
 C247 C 0.45780 0.17187 0.46238
 C248 C 0.43339 0.22191 0.43517
 H249 H 0.22334 0.01031 0.49056
 H250 H 0.40096 0.05631 0.50280
 H251 H 0.53645 0.19280 0.46843
 H252 H 0.49595 0.28314 0.42178
 H253 H 0.05079 0.13584 0.41054
 H254 H 0.17900 0.25315 0.37148
 C255 C -0.07697 0.86986 0.74950
 C256 C -0.09606 0.84236 0.78574
 C257 C -0.11539 0.73920 0.79488
 C258 C -0.10369 0.66981 0.77039
 C259 C -0.07245 0.70099 0.73590
 C260 C -0.06324 0.79939 0.72456
 C261 C -0.07059 0.96564 0.73740
 C262 C -0.04904 0.99307 0.70195
 C263 C -0.03377 0.92534 0.67782
 C264 C -0.04114 0.82908 0.68888
 H265 H -0.08619 1.01772 0.75470
 H266 H -0.04505 1.06681 0.69309
 H267 H -0.01724 0.94688 0.65032
 H268 H -0.03024 0.77786 0.66927
 H269 H -0.13101 0.71591 0.82229
 H270 H -0.11552 0.59256 0.77889
   
