data_POSCAR
  _audit_creation_date              2014-09-24
  _audit_creation_method            'ToBaCCo'
  _symmetry_space_group_name_H-M    'P1'
  _symmetry_Int_Tables_number       1
  _symmetry_cell_setting            triclinic
  loop_
  _symmetry_equiv_pos_as_xyz
 x,y,z
_cell_length_a 45.4566
_cell_length_b 46.4490
_cell_length_c 42.6326
_cell_angle_alpha 89.065500
_cell_angle_beta 89.662700
_cell_angle_gamma 92.116700
loop_
  _atom_site_label
  _atom_site_type_symbol
  _atom_site_fract_x
  _atom_site_fract_y
  _atom_site_fract_z
N1 N 0.14358 0.19590 0.22741
 N2 N 0.16170 0.17445 0.22788
 C3 C 0.15204 0.15450 0.24916
 C4 C 0.12666 0.16404 0.26262
 C5 C 0.12173 0.19033 0.24846
 H6 H 0.16251 0.13446 0.25438
 H7 H 0.10364 0.20421 0.25294
 Cu8 Cu 0.19591 0.17405 0.20035
 Cu9 Cu 0.14967 0.22900 0.19906
 Cu10 Cu 0.20963 0.22823 0.14829
 N11 N 0.22894 0.17368 0.17122
 N12 N 0.23426 0.19481 0.15080
 C13 C 0.25801 0.18876 0.13334
 C14 C 0.26786 0.16250 0.14355
 C15 C 0.24908 0.15344 0.16746
 H16 H 0.26722 0.20226 0.11456
 H17 H 0.24990 0.13351 0.18086
 N18 N 0.18225 0.26017 0.14931
 N19 N 0.15948 0.26049 0.16871
 C20 C 0.14451 0.28452 0.16302
 C21 C 0.15860 0.29990 0.13908
 C22 C 0.18231 0.28398 0.13077
 H23 H 0.12438 0.29005 0.17473
 H24 H 0.19790 0.28900 0.11203
 H25 H 0.17156 0.20704 0.16468
 H26 H 0.19476 0.22635 0.19422
 N27 N -0.18754 0.78794 0.26233
 N28 N -0.20184 0.81189 0.25902
 C29 C -0.19832 0.82777 0.28491
 C30 C -0.18092 0.81302 0.30547
 C31 C -0.17423 0.78788 0.29053
 H32 H -0.20648 0.84914 0.28791
 H33 H -0.15966 0.77157 0.29885
 Cu34 Cu -0.22092 0.82197 0.22011
 Cu35 Cu -0.18543 0.76016 0.22848
 Cu36 Cu -0.22809 0.77345 0.16288
 N37 N -0.24844 0.82684 0.18613
 N38 N -0.25132 0.80789 0.16366
 C39 C -0.27147 0.81694 0.14298
 C40 C -0.28153 0.84280 0.15336
 C41 C -0.26664 0.84853 0.18070
 H42 H -0.27812 0.80569 0.12202
 H43 H -0.26878 0.86710 0.19543
 N44 N -0.20291 0.73993 0.16671
 N45 N -0.18657 0.73486 0.19160
 C46 C -0.17030 0.71175 0.18612
 C47 C -0.17689 0.70194 0.15653
 C48 C -0.19748 0.72020 0.14480
 H49 H -0.15395 0.70344 0.20184
 H50 H -0.20674 0.71989 0.12150
 H51 H -0.19325 0.78722 0.19078
 H52 H -0.22618 0.77052 0.21144
 N53 N -0.16193 0.20406 -0.25757
 N54 N -0.18165 0.18261 -0.25769
 C55 C -0.17146 0.16119 -0.27513
 C56 C -0.14404 0.16974 -0.28643
 C57 C -0.13850 0.19701 -0.27502
 H58 H -0.18299 0.14085 -0.27926
 H59 H -0.11894 0.21057 -0.27897
 Cu60 Cu -0.21857 0.18416 -0.23475
 Cu61 Cu -0.16806 0.23907 -0.23423
 Cu62 Cu -0.23301 0.24203 -0.19149
 N63 N -0.25433 0.18591 -0.20981
 N64 N -0.25997 0.20856 -0.19296
 C65 C -0.28512 0.20330 -0.17664
 C66 C -0.29562 0.17601 -0.18388
 C67 C -0.27567 0.16545 -0.20478
 H68 H -0.29438 0.21770 -0.15984
 H69 H -0.27607 0.14409 -0.21452
 N70 N -0.20304 0.27376 -0.19289
 N71 N -0.17827 0.27262 -0.20913
 C72 C -0.16163 0.29663 -0.20379
 C73 C -0.17672 0.31351 -0.18337
 C74 C -0.20277 0.29850 -0.17679
 H75 H -0.13967 0.30103 -0.21299
 H76 H -0.21966 0.30464 -0.16050
 H77 H -0.19531 0.21968 -0.20041
 H78 H -0.21348 0.23667 -0.23487
 N79 N 0.21142 0.78706 -0.28484
 N80 N 0.23136 0.80834 -0.28524
 C81 C 0.22422 0.82794 -0.30729
 C82 C 0.19868 0.81818 -0.32153
 C83 C 0.19099 0.79231 -0.30676
 H84 H 0.23596 0.84829 -0.31175
 H85 H 0.17133 0.77905 -0.31065
 Cu86 Cu 0.26310 0.80893 -0.25502
 Cu87 Cu 0.21170 0.75576 -0.25359
 Cu88 Cu 0.26616 0.76034 -0.19657
 N89 N 0.29203 0.81335 -0.22204
 N90 N 0.29338 0.79392 -0.19931
 C91 C 0.31407 0.80254 -0.17864
 C92 C 0.32614 0.82864 -0.18916
 C93 C 0.31167 0.83509 -0.21656
 H94 H 0.31907 0.79130 -0.15701
 H95 H 0.31446 0.85455 -0.23072
 N96 N 0.23640 0.72825 -0.19814
 N97 N 0.21582 0.72649 -0.21989
 C98 C 0.19770 0.70356 -0.21331
 C99 C 0.20739 0.69038 -0.18632
 C100 C 0.23183 0.70648 -0.17716
 H101 H 0.17803 0.69767 -0.22621
 H102 H 0.24438 0.70334 -0.15599
 H103 H 0.23203 0.78000 -0.21911
 H104 H 0.25607 0.75755 -0.24346
 N105 N 0.18017 1.16171 0.77422
 N106 N 0.16216 1.18299 0.77040
 C107 C 0.14100 1.17516 0.74995
 C108 C 0.14614 1.14756 0.74056
 C109 C 0.17111 1.13956 0.75622
 H110 H 0.12331 1.18855 0.74240
 H111 H 0.18191 1.11927 0.75452
 Cu112 Cu 0.16797 1.21896 0.79222
 Cu113 Cu 0.21402 1.16466 0.80214
 Cu114 Cu 0.21866 1.22485 0.84909
 N115 N 0.16724 1.24952 0.82253
 N116 N 0.18709 1.25188 0.84477
 C117 C 0.18084 1.27434 0.86293
 C118 C 0.15582 1.28646 0.85130
 C119 C 0.14766 1.27031 0.82578
 H120 H 0.19316 1.28096 0.88338
 H121 H 0.12860 1.27308 0.81110
 N122 N 0.24829 1.19492 0.84973
 N123 N 0.24649 1.17192 0.83190
 C124 C 0.26934 1.15517 0.83835
 C125 C 0.28615 1.16837 0.86116
 C126 C 0.27231 1.19341 0.86798
 H127 H 0.27318 1.13462 0.82779
 H128 H 0.27890 1.20898 0.88541
 H129 H 0.19244 1.19118 0.83235
 H130 H 0.21908 1.20902 0.80389
 N131 N 0.76721 0.81378 0.72975
 N132 N 0.78875 0.79562 0.72963
 C133 C 0.80419 0.79916 0.70272
 C134 C 0.79161 0.82050 0.68511
 C135 C 0.76830 0.82952 0.70289
 H136 H 0.82442 0.78868 0.69734
 H137 H 0.75465 0.84758 0.69777
 Cu138 Cu 0.79769 0.77249 0.76646
 Cu139 Cu 0.74245 0.81881 0.76668
 Cu140 Cu 0.76351 0.78340 0.83483
 N141 N 0.80606 0.74961 0.80371
 N142 N 0.79276 0.75412 0.83057
 C143 C 0.80418 0.73717 0.85299
 C144 C 0.82570 0.72132 0.83929
 C145 C 0.82644 0.72963 0.80812
 H146 H 0.79797 0.73705 0.87753
 H147 H 0.84143 0.72240 0.79036
 N148 N 0.72940 0.80831 0.83294
 N149 N 0.72103 0.82139 0.80690
 C150 C 0.69768 0.83739 0.81345
 C151 C 0.69113 0.83394 0.84492
 C152 C 0.71153 0.81549 0.85665
 H153 H 0.68687 0.85127 0.79687
 H154 H 0.71361 0.80845 0.88081
 H155 H 0.77583 0.81049 0.79684
 H156 H 0.74946 0.77964 0.78919
 N157 N 0.22181 0.80669 1.28794
 N158 N 0.20074 0.78651 1.28920
 C159 C 0.18275 0.79149 1.31356
 C160 C 0.19322 0.81600 1.32821
 C161 C 0.21789 0.82528 1.31139
 H162 H 0.16255 0.77935 1.31906
 H163 H 0.23101 0.84486 1.31485
 Cu164 Cu 0.19678 0.75821 1.25628
 Cu165 Cu 0.25017 0.80941 1.25346
 Cu166 Cu 0.25314 0.74878 1.20696
 N167 N 0.19439 0.72923 1.22403
 N168 N 0.21654 0.72559 1.20467
 C169 C 0.20903 0.70466 1.18439
 C170 C 0.18070 0.69492 1.19157
 C171 C 0.17197 0.71084 1.21672
 H172 H 0.22291 0.69752 1.16556
 H173 H 0.15070 0.70952 1.22829
 N174 N 0.28363 0.78015 1.20590
 N175 N 0.28233 0.80326 1.22348
 C176 C 0.30519 0.82141 1.21618
 C177 C 0.32146 0.80917 1.19292
 C178 C 0.30730 0.78313 1.18675
 H179 H 0.30914 0.84244 1.22620
 H180 H 0.31307 0.76808 1.16881
 H181 H 0.23013 0.78344 1.21937
 H182 H 0.25004 0.76574 1.25215
 N183 N 0.81540 1.17933 1.25130
 N184 N 0.83611 1.19982 1.25239
 C185 C 0.85897 1.19022 1.26906
 C186 C 0.85204 1.16238 1.27885
 C187 C 0.82433 1.15601 1.26730
 H188 H 0.87908 1.20247 1.27385
 H189 H 0.81164 1.13600 1.27037
 Cu190 Cu 0.83136 1.23681 1.23146
 Cu191 Cu 0.77867 1.18433 1.22880
 Cu192 Cu 0.76960 1.25059 1.19191
 N193 N 0.82600 1.27389 1.21097
 N194 N 0.80175 1.27923 1.19559
 C195 C 0.80479 1.30531 1.18142
 C196 C 0.83229 1.31681 1.18852
 C197 C 0.84530 1.29640 1.20706
 H198 H 0.78893 1.31449 1.16570
 H199 H 0.86770 1.29726 1.21546
 N200 N 0.73960 1.21884 1.19090
 N201 N 0.74311 1.19360 1.20488
 C202 C 0.71989 1.17594 1.19820
 C203 C 0.70105 1.19081 1.17927
 C204 C 0.71407 1.21784 1.17494
 H205 H 0.71737 1.15356 1.20546
 H206 H 0.70608 1.23503 1.16024
 H207 H 0.79491 1.21473 1.19663
 H208 H 0.77804 1.22850 1.23316
 O209 O 0.51975 0.97813 0.96351
 O210 O 0.47319 0.98029 1.07535
 O211 O 0.56125 1.00659 1.04171
 O212 O 0.46749 0.96714 0.97928
 O213 O 0.52842 0.98285 1.07098
 O214 O 0.47223 0.99750 0.94326
 O215 O 0.46449 0.95890 1.03245
 O216 O 0.55831 0.99526 0.98591
 C217 C 0.54619 0.97601 0.96978
 C218 C 0.46497 0.95814 1.06138
 C219 C 0.55445 0.98666 1.06142
 C220 C 0.46213 0.97353 0.95167
 O221 O 0.48292 1.04600 0.96765
 O222 O 0.52749 1.03871 1.07271
 O223 O 0.53675 1.04859 0.97397
 O224 O 0.43996 1.01111 1.04197
 O225 O 0.47179 1.03577 1.07026
 O226 O 0.52225 1.02550 0.93300
 O227 O 0.44441 1.02166 0.98591
 O228 O 0.53837 1.05869 1.02831
 Co229 Co 0.50228 1.01233 0.96747
 Co230 Co 0.50027 1.00932 1.06684
 Co231 Co 0.54460 1.02558 1.00798
 Co232 Co 0.45756 0.99123 1.01007
 O233 O 0.50014 1.00858 1.01513
 C234 C 0.45573 1.04442 0.97321
 C235 C 0.53798 1.05981 1.05729
 C236 C 0.54063 1.04414 0.94503
 C237 C 0.44598 1.03138 1.06073
 O238 O 0.03708 0.49602 0.03385
 O239 O 0.03032 0.54028 -0.07174
 O240 O 0.00298 0.45403 -0.03921
 O241 O 0.03930 0.54882 0.02674
 O242 O 0.02783 0.48573 -0.06858
 O243 O 0.01519 0.53385 0.06810
 O244 O 0.05011 0.55049 -0.02766
 O245 O 0.01285 0.45815 0.01667
 C246 C 0.03588 0.46943 0.02876
 C247 C 0.05192 0.54977 -0.05661
 C248 C 0.02351 0.46032 -0.05869
 C249 C 0.03457 0.55185 0.05582
 O250 O -0.03289 0.53120 0.03813
 O251 O -0.02869 0.48651 -0.07300
 O252 O -0.04328 0.47983 0.02348
 O253 O -0.00328 0.57265 -0.04099
 O254 O -0.02684 0.54043 -0.06934
 O255 O -0.01261 0.48489 0.05895
 O256 O -0.01541 0.56926 0.01500
 O257 O -0.05093 0.47689 -0.02982
 Co258 Co 0.00235 0.51457 0.03406
 Co259 Co 0.00048 0.51328 -0.06515
 Co260 Co -0.01810 0.47068 -0.00744
 Co261 Co 0.01595 0.55629 -0.00718
 O262 O -0.00092 0.51267 -0.01344
 C263 C -0.03515 0.55712 0.03156
 C264 C -0.05093 0.47676 -0.05875
 C265 C -0.03680 0.47450 0.05106
 C266 C -0.02329 0.56589 -0.06043
 O267 O 1.03642 0.02741 0.47155
 O268 O 0.95725 0.02683 0.52498
 O269 O 0.96992 -0.00576 0.43443
 O270 O 1.01718 -0.00062 0.56665
 O271 O 0.96325 0.02548 0.46922
 O272 O 1.04251 0.02485 0.53141
 O273 O 0.96313 -0.00336 0.56237
 O274 O 1.02294 -0.00267 0.43549
 C275 C 1.03163 0.02234 0.44333
 C276 C 0.95814 0.02179 0.55355
 C277 C 0.96407 0.01949 0.44113
 C278 C 1.03438 0.02039 0.55925
 O279 O 1.05617 -0.02949 0.52717
 O280 O 0.93620 -0.02839 0.46895
 O281 O 1.02292 -0.05705 0.46160
 O282 O 0.96524 -0.05721 0.54124
 O283 O 0.93277 -0.02751 0.52536
 O284 O 1.05670 -0.02532 0.46915
 O285 O 1.02095 -0.05464 0.55195
 O286 O 0.97035 -0.05818 0.46391
 Co287 Co 1.04284 -0.00189 0.49960
 Co288 Co 0.95134 -0.00211 0.49723
 Co289 Co 0.99646 -0.02958 0.45306
 Co290 Co 0.99168 -0.02786 0.55015
 O291 O 0.99583 -0.01526 0.50036
 C292 C 1.04760 -0.05050 0.54469
 C293 C 0.94376 -0.05350 0.46346
 C294 C 1.04947 -0.05067 0.46271
 C295 C 0.93901 -0.05200 0.53605
 C296 C 1.06183 0.09111 0.40400
 C297 C 1.05737 0.08503 0.37230
 C298 C 1.04283 0.05920 0.36396
 C299 C 1.03364 0.03914 0.38714
 C300 C 1.11009 0.14985 0.28507
 C301 C 1.05261 0.07111 0.42723
 C302 C 1.06986 0.10411 0.34836
 C303 C 1.08148 0.11937 0.32837
 C304 C 1.09635 0.13631 0.30500
 C305 C 1.03897 0.04462 0.41900
 H306 H 1.07316 0.11097 0.41074
 H307 H 1.03932 0.05422 0.33950
 H308 H 1.02298 0.01906 0.38007
 H309 H 1.05693 0.07603 0.45155
 C310 C 0.87547 -0.08879 0.42851
 C311 C 0.88579 -0.11588 0.42095
 C312 C 0.91382 -0.12358 0.43061
 C313 C 0.93208 -0.10376 0.44622
 C314 C 0.83205 -0.17533 0.33340
 C315 C 0.89370 -0.06891 0.44425
 C316 C 0.86948 -0.13414 0.39977
 C317 C 0.85693 -0.14845 0.38028
 C318 C 0.84322 -0.16376 0.35570
 C319 C 0.92257 -0.07588 0.45225
 H320 H 0.85389 -0.08252 0.42092
 H321 H 0.92211 -0.14440 0.42473
 H322 H 0.95415 -0.10981 0.45225
 H323 H 0.88579 -0.04763 0.44862
 C324 C 0.93934 0.05800 0.62972
 C325 C 0.92996 0.08468 0.61873
 C326 C 0.93139 0.09136 0.58663
 C327 C 0.94142 0.07120 0.56549
 C328 C 0.87446 0.15323 0.69385
 C329 C 0.94939 0.03776 0.60860
 C330 C 0.91680 0.10434 0.63995
 C331 C 0.90458 0.12037 0.65728
 C332 C 0.88893 0.13849 0.67714
 C333 C 0.94999 0.04396 0.57619
 H334 H 0.93820 0.05256 0.65452
 H335 H 0.92405 0.11189 0.57784
 H336 H 0.94174 0.07665 0.54069
 H337 H 0.95602 0.01705 0.61755
 C338 C 1.12008 -0.08402 0.56541
 C339 C 1.11049 -0.10623 0.58606
 C340 C 1.08038 -0.11113 0.59172
 C341 C 1.05994 -0.09347 0.57755
 C342 C 1.18132 -0.16622 0.65637
 C343 C 1.09961 -0.06629 0.55111
 C344 C 1.13129 -0.12294 0.60320
 C345 C 1.14781 -0.13680 0.61890
 C346 C 1.16623 -0.15281 0.63861
 C347 C 1.06932 -0.07052 0.55749
 H348 H 1.14336 -0.08001 0.56090
 H349 H 1.07271 -0.12821 0.60770
 H350 H 1.03681 -0.09744 0.58291
 H351 H 1.10752 -0.04891 0.53566
 C352 C 0.37082 1.06290 1.07103
 C353 C 0.37708 1.08522 1.09189
 C354 C 0.40582 1.08980 1.10281
 C355 C 0.42825 1.07219 1.09286
 C356 C 0.29085 1.14788 1.13206
 C357 C 0.39318 1.04521 1.06112
 C358 C 0.35388 1.10309 1.10243
 C359 C 0.33424 1.11770 1.11145
 C360 C 0.31097 1.13428 1.12234
 C361 C 0.42218 1.04968 1.07188
 H362 H 0.34865 1.05912 1.06246
 H363 H 0.41090 1.10698 1.11903
 H364 H 0.45034 1.07624 1.10156
 H365 H 0.38776 1.02810 1.04496
 C366 C 0.42432 0.94263 0.88008
 C367 C 0.41470 0.91544 0.89157
 C368 C 0.42134 0.90707 0.92231
 C369 C 0.43713 0.92592 0.94168
 C370 C 0.34555 0.84616 0.82631
 C371 C 0.44022 0.96154 0.89946
 C372 C 0.39685 0.89652 0.87250
 C373 C 0.38125 0.88058 0.85733
 C374 C 0.36229 0.86193 0.84034
 C375 C 0.44653 0.95341 0.93052
 H376 H 0.41921 0.94933 0.85634
 H377 H 0.41394 0.88612 0.93146
 H378 H 0.44170 0.91910 0.96553
 H379 H 0.44719 0.98261 0.89032
 C380 C 0.62743 0.95071 1.07162
 C381 C 0.62013 0.92969 1.09453
 C382 C 0.59159 0.92767 1.10701
 C383 C 0.57034 0.94647 1.09653
 C384 C 0.69836 0.85972 1.13954
 C385 C 0.60619 0.96960 1.06110
 C386 C 0.64187 0.91030 1.10563
 C387 C 0.65980 0.89407 1.11557
 C388 C 0.68060 0.87531 1.12807
 C389 C 0.57738 0.96762 1.07341
 H390 H 0.64948 0.95246 1.06182
 H391 H 0.58574 0.91151 1.12480
 H392 H 0.54835 0.94432 1.10644
 H393 H 0.61225 0.98552 1.04315
 C394 C 0.58439 1.07531 0.87575
 C395 C 0.59980 1.09835 0.88975
 C396 C 0.59537 1.10390 0.92153
 C397 C 0.57587 1.08637 0.93938
 C398 C 0.68154 1.16094 0.83002
 C399 C 0.56477 1.05772 0.89360
 C400 C 0.62106 1.11574 0.87208
 C401 C 0.63951 1.13027 0.85816
 C402 C 0.66184 1.14703 0.84270
 C403 C 0.56048 1.06303 0.92564
 H404 H 0.58780 1.07074 0.85118
 H405 H 0.60726 1.12160 0.93261
 H406 H 0.57296 1.09102 0.96400
 H407 H 0.55327 1.03982 0.88249
 C408 C 0.07918 0.40255 0.04139
 C409 C 0.09820 0.41099 0.06548
 C410 C 0.09894 0.43962 0.07547
 C411 C 0.07979 0.45940 0.06225
 C412 C 0.14854 0.32546 0.12366
 C413 C 0.05997 0.42213 0.02837
 C414 C 0.11464 0.38938 0.08158
 C415 C 0.12670 0.37007 0.09499
 C416 C 0.13912 0.34637 0.11055
 C417 C 0.05952 0.45054 0.03920
 H418 H 0.07837 0.38048 0.03349
 H419 H 0.11350 0.44637 0.09420
 H420 H 0.07982 0.48112 0.07112
 H421 H 0.04471 0.41472 0.01057
 C422 C -0.09373 0.44344 -0.12549
 C423 C -0.11398 0.42528 -0.10921
 C424 C -0.11584 0.42648 -0.07646
 C425 C -0.09652 0.44473 -0.05994
 C426 C -0.16559 0.33913 -0.16838
 C427 C -0.07437 0.46165 -0.10905
 C428 C -0.13029 0.40321 -0.12577
 C429 C -0.14254 0.38376 -0.13952
 C430 C -0.15549 0.36005 -0.15530
 C431 C -0.07495 0.46182 -0.07606
 H432 H -0.09198 0.44260 -0.15082
 H433 H -0.13131 0.41238 -0.06360
 H434 H -0.09743 0.44430 -0.03454
 H435 H -0.05804 0.47458 -0.12211
 C436 C 0.12226 0.59396 -0.07282
 C437 C 0.12340 0.59373 -0.10563
 C438 C 0.10258 0.57717 -0.12218
 C439 C 0.08002 0.56177 -0.10611
 C440 C 0.19199 0.66786 -0.16866
 C441 C 0.09976 0.57850 -0.05666
 C442 C 0.14412 0.61252 -0.12246
 C443 C 0.16032 0.62918 -0.13683
 C444 C 0.17799 0.64965 -0.15392
 C445 C 0.07797 0.56280 -0.07320
 H446 H 0.13815 0.60687 -0.05977
 H447 H 0.10318 0.57693 -0.14759
 H448 H 0.06363 0.54984 -0.11951
 H449 H 0.09875 0.57979 -0.03133
 C450 C -0.09893 0.57871 0.08255
 C451 C -0.10066 0.60792 0.07439
 C452 C -0.08272 0.61974 0.05031
 C453 C -0.06232 0.60279 0.03530
 C454 C -0.16215 0.68014 0.13952
 C455 C -0.07856 0.56165 0.06749
 C456 C -0.11908 0.62640 0.09214
 C457 C -0.13345 0.64265 0.10719
 C458 C -0.14928 0.66251 0.12478
 C459 C -0.05956 0.57373 0.04423
 H460 H -0.11265 0.56934 0.10121
 H461 H -0.08384 0.64232 0.04380
 H462 H -0.04805 0.61268 0.01744
 H463 H -0.07688 0.53937 0.07493
 C464 C 1.04935 0.05242 0.63911
 C465 C 1.07152 0.07319 0.63173
 C466 C 1.08026 0.07781 0.60048
 C467 C 1.06748 0.06125 0.57677
 C468 C 1.12944 0.13110 0.71815
 C469 C 1.03652 0.03578 0.61540
 C470 C 1.08632 0.08897 0.65616
 C471 C 1.09947 0.10214 0.67614
 C472 C 1.11548 0.11764 0.69901
 C473 C 1.04581 0.03970 0.58401
 H474 H 1.04238 0.04870 0.66323
 H475 H 1.09740 0.09382 0.59451
 H476 H 1.07514 0.06483 0.55287
 H477 H 1.01980 0.01947 0.62173
 C478 C 0.90098 -0.11770 0.57362
 C479 C 0.87194 -0.10888 0.57563
 C480 C 0.86426 -0.08280 0.56157
 C481 C 0.88585 -0.06494 0.54690
 C482 C 0.80503 -0.16494 0.65839
 C483 C 0.92260 -0.09986 0.55910
 C484 C 0.85118 -0.12489 0.59541
 C485 C 0.83513 -0.13783 0.61379
 C486 C 0.81804 -0.15258 0.63712
 C487 C 0.91544 -0.07286 0.54648
 H488 H 0.90720 -0.13779 0.58453
 H489 H 0.84188 -0.07569 0.56314
 H490 H 0.87963 -0.04433 0.53729
 H491 H 0.94513 -0.10666 0.55897
 C492 C 1.12161 -0.08071 0.43622
 C493 C 1.11216 -0.10773 0.42526
 C494 C 1.08268 -0.11697 0.42899
 C495 C 1.06246 -0.09885 0.44246
 C496 C 1.17807 -0.16830 0.35169
 C497 C 1.10140 -0.06254 0.44977
 C498 C 1.13181 -0.12481 0.40744
 C499 C 1.14733 -0.13881 0.39106
 C500 C 1.16441 -0.15486 0.37041
 C501 C 1.07148 -0.07116 0.45228
 H502 H 1.14435 -0.07327 0.43331
 H503 H 1.07511 -0.13779 0.42045
 H504 H 1.03958 -0.10611 0.44414
 H505 H 1.10898 -0.04137 0.45720
 C506 C 0.93993 0.05099 0.36337
 C507 C 0.93096 0.07815 0.37248
 C508 C 0.93513 0.08693 0.40343
 C509 C 0.94712 0.06824 0.42550
 C510 C 0.86987 0.14407 0.29774
 C511 C 0.95197 0.03224 0.38545
 C512 C 0.91550 0.09622 0.35089
 C513 C 0.90164 0.11128 0.33355
 C514 C 0.88470 0.12891 0.31396
 C515 C 0.95499 0.04043 0.41692
 H516 H 0.93682 0.04397 0.33947
 H517 H 0.92827 0.10790 0.41072
 H518 H 0.94934 0.07522 0.44951
 H519 H 0.95799 0.01101 0.37814
 C520 C 0.08301 0.42203 -0.10247
 C521 C 0.07787 0.39355 -0.09205
 C522 C 0.05500 0.38691 -0.07075
 C523 C 0.03724 0.40862 -0.05995
 C524 C 0.14027 0.30996 -0.13593
 C525 C 0.06530 0.44380 -0.09167
 C526 C 0.09565 0.37104 -0.10366
 C527 C 0.11018 0.35199 -0.11360
 C528 C 0.12667 0.32944 -0.12550
 C529 C 0.04217 0.43731 -0.07033
 H530 H 0.10064 0.42738 -0.11900
 H531 H 0.05081 0.36492 -0.06258
 H532 H 0.01964 0.40291 -0.04352
 H533 H 0.06971 0.46568 -0.10005
 C534 C -0.06582 0.43346 0.12280
 C535 C -0.09297 0.42264 0.11191
 C536 C -0.10231 0.42999 0.08171
 C537 C -0.08428 0.44750 0.06215
 C538 C -0.15319 0.34166 0.17416
 C539 C -0.04776 0.45107 0.10329
 C540 C -0.11025 0.40222 0.13061
 C541 C -0.12433 0.38406 0.14527
 C542 C -0.14023 0.36167 0.16131
 C543 C -0.05666 0.45787 0.07262
 H544 H -0.05832 0.42773 0.14608
 H545 H -0.12322 0.42160 0.07300
 H546 H -0.09166 0.45241 0.03861
 H547 H -0.02657 0.45876 0.11187
 C548 C -0.06064 0.63686 -0.07339
 C549 C -0.08115 0.62932 -0.09652
 C550 C -0.08233 0.60133 -0.10811
 C551 C -0.06327 0.58086 -0.09657
 C552 C -0.15473 0.70209 -0.14540
 C553 C -0.04145 0.61637 -0.06179
 C554 C -0.10107 0.65008 -0.10865
 C555 C -0.11802 0.66684 -0.11956
 C556 C -0.13792 0.68595 -0.13315
 C557 C -0.04264 0.58810 -0.07323
 H558 H -0.05954 0.65851 -0.06427
 H559 H -0.09807 0.59528 -0.12604
 H560 H -0.06481 0.55930 -0.10588
 H561 H -0.02593 0.62256 -0.04371
 C562 C 0.09770 0.60201 0.07927
 C563 C 0.09313 0.60386 0.11163
 C564 C 0.06931 0.58865 0.12587
 C565 C 0.05009 0.57166 0.10775
 C566 C 0.16287 0.67413 0.17498
 C567 C 0.07855 0.58511 0.06115
 C568 C 0.11246 0.62211 0.12986
 C569 C 0.12862 0.63796 0.14449
 C570 C 0.14732 0.65718 0.16106
 C571 C 0.05457 0.56976 0.07521
 H572 H 0.11599 0.61377 0.06799
 H573 H 0.06549 0.59005 0.15090
 H574 H 0.03172 0.56015 0.11914
 H575 H 0.08254 0.58405 0.03613
 C576 C 0.42570 1.10640 0.92593
 C577 C 0.39616 1.10513 0.93563
 C578 C 0.38701 1.08590 0.95962
 C579 C 0.40687 1.06710 0.97291
 C580 C 0.31130 1.15699 0.87669
 C581 C 0.44574 1.08769 0.93940
 C582 C 0.37450 1.12150 0.91939
 C583 C 0.35532 1.13378 0.90578
 C584 C 0.33190 1.14678 0.88998
 C585 C 0.43627 1.06732 0.96244
 H586 H 0.43299 1.12111 0.90724
 H587 H 0.36421 1.08467 0.96729
 H588 H 0.39895 1.05170 0.99062
 H589 H 0.46821 1.08821 0.93076
 C590 C 0.43805 0.91008 1.12885
 C591 C 0.42275 0.88814 1.11294
 C592 C 0.42355 0.88772 1.08012
 C593 C 0.43858 0.90980 1.06323
 C594 C 0.34542 0.82301 1.17571
 C595 C 0.45304 0.93221 1.11203
 C596 C 0.40362 0.86808 1.13011
 C597 C 0.38631 0.85257 1.14450
 C598 C 0.36475 0.83594 1.16133
 C599 C 0.45280 0.93270 1.07903
 H600 H 0.43746 0.91069 1.15424
 H601 H 0.41162 0.87093 1.06758
 H602 H 0.43798 0.90958 1.03784
 H603 H 0.46388 0.94948 1.12486
 C604 C 0.57123 1.10480 1.12210
 C605 C 0.58953 1.12426 1.10499
 C606 C 0.58851 1.12468 1.07217
 C607 C 0.57027 1.10479 1.05649
 C608 C 0.67548 1.17905 1.16367
 C609 C 0.55305 1.08486 1.10650
 C610 C 0.61158 1.14143 1.12101
 C611 C 0.63099 1.15444 1.13452
 C612 C 0.65464 1.16828 1.15031
 C613 C 0.55302 1.08408 1.07352
 H614 H 0.57193 1.10421 1.14750
 H615 H 0.60270 1.13956 1.05869
 H616 H 0.57082 1.10470 1.03109
 H617 H 0.54000 1.06924 1.12027
 C618 C 0.61041 0.92976 0.95053
 C619 C 0.59803 0.91146 0.92801
 C620 C 0.56804 0.91272 0.92104
 C621 C 0.55072 0.93290 0.93573
 C622 C 0.66979 0.84908 0.86266
 C623 C 0.59318 0.94997 0.96519
 C624 C 0.61663 0.89298 0.91055
 C625 C 0.63283 0.87842 0.89554
 C626 C 0.65246 0.86226 0.87777
 C627 C 0.56330 0.95218 0.95743
 H628 H 0.63360 0.92901 0.95608
 H629 H 0.55824 0.89870 0.90360
 H630 H 0.52778 0.93411 0.92926
 H631 H 0.60347 0.96446 0.98186
   
