data_POSCAR
  _audit_creation_date              2014-09-24
  _audit_creation_method            'ToBaCCo'
  _symmetry_space_group_name_H-M    'P1'
  _symmetry_Int_Tables_number       1
  _symmetry_cell_setting            triclinic
  loop_
  _symmetry_equiv_pos_as_xyz
 x,y,z
_cell_length_a 33.4575
_cell_length_b 32.9227
_cell_length_c 33.6149
_cell_angle_alpha 89.691000
_cell_angle_beta 88.378400
_cell_angle_gamma 89.863000
loop_
  _atom_site_label
  _atom_site_type_symbol
  _atom_site_fract_x
  _atom_site_fract_y
  _atom_site_fract_z
C1 C 0.58961 0.65406 0.62987
 C2 C 0.59106 0.62289 0.65865
 C3 C 0.62064 0.59227 0.65661
 C4 C 0.65091 0.59561 0.62676
 C5 C 0.65046 0.62647 0.59774
 C6 C 0.61872 0.65452 0.59886
 H7 H 0.56921 0.62231 0.68260
 H8 H 0.67523 0.57382 0.62583
 H9 H 0.61588 0.67698 0.57566
 C10 C 0.90248 0.34866 0.12175
 C11 C 0.90137 0.37826 0.15190
 C12 C 0.87148 0.40833 0.15392
 C13 C 0.84295 0.40951 0.12397
 C14 C 0.84275 0.38017 0.09370
 C15 C 0.87165 0.34908 0.09400
 H16 H 0.92393 0.37776 0.17441
 H17 H 0.82076 0.43296 0.12440
 H18 H 0.86912 0.32514 0.07245
 C19 C 0.40652 0.15464 -0.12308
 C20 C 0.40720 0.12597 -0.15396
 C21 C 0.37805 0.09539 -0.15598
 C22 C 0.34702 0.09465 -0.12687
 C23 C 0.34583 0.12241 -0.09517
 C24 C 0.37534 0.15273 -0.09419
 H25 H 0.43033 0.12877 -0.17678
 H26 H 0.32349 0.07267 -0.12998
 H27 H 0.37295 0.17497 -0.07087
 C28 C 0.09583 0.84323 0.37226
 C29 C 0.12377 0.84248 0.40290
 C30 C 0.15463 0.87131 0.40463
 C31 C 0.15598 0.90276 0.37618
 C32 C 0.12841 0.90481 0.34544
 C33 C 0.09784 0.87560 0.34463
 H34 H 0.12027 0.81978 0.42598
 H35 H 0.17814 0.92618 0.37927
 H36 H 0.07510 0.87942 0.32278
 N37 N 0.07602 0.19488 0.11240
 N38 N 0.06042 0.17864 0.14508
 C39 C 0.02725 0.19955 0.15598
 C40 C 0.02184 0.23060 0.12863
 C41 C 0.05347 0.22671 0.10154
 H42 H 0.00847 0.19253 0.18174
 H43 H 0.05921 0.24549 0.07551
 Cu44 Cu 0.08483 0.13149 0.16991
 Cu45 Cu 0.12349 0.17284 0.08552
 Cu46 Cu 0.16612 0.08733 0.12746
 N47 N 0.10887 0.08306 0.19270
 N48 N 0.14057 0.06599 0.17589
 C49 C 0.15095 0.03327 0.19742
 C50 C 0.12441 0.02951 0.22951
 C51 C 0.09800 0.06169 0.22554
 H52 H 0.17599 0.01349 0.19040
 H53 H 0.07278 0.06903 0.24495
 N54 N 0.18764 0.11341 0.07855
 N55 N 0.17153 0.14609 0.06267
 C56 C 0.19286 0.15652 0.02960
 C57 C 0.22393 0.12903 0.02439
 C58 C 0.21964 0.10219 0.05598
 H59 H 0.18608 0.18212 0.01074
 H60 H 0.23861 0.07634 0.06186
 H61 H 0.11511 0.11385 0.10547
 H62 H 0.14815 0.14687 0.13531
 N63 N 0.41714 0.81187 0.60564
 N64 N 0.43291 0.82878 0.63683
 C65 C 0.46474 0.80669 0.64771
 C66 C 0.46918 0.77421 0.62202
 C67 C 0.43837 0.77849 0.59562
 H68 H 0.48333 0.81335 0.67263
 H69 H 0.43156 0.75882 0.57113
 Cu70 Cu 0.41005 0.87768 0.66043
 Cu71 Cu 0.36991 0.83402 0.58078
 Cu72 Cu 0.32751 0.92034 0.62325
 N73 N 0.38553 0.92559 0.68437
 N74 N 0.35338 0.94227 0.66967
 C75 C 0.34299 0.97499 0.69153
 C76 C 0.37013 0.97902 0.72164
 C77 C 0.39659 0.94707 0.71616
 H78 H 0.31762 0.99427 0.68578
 H79 H 0.42212 0.94032 0.73410
 N80 N 0.30580 0.89360 0.57617
 N81 N 0.32210 0.86087 0.55994
 C82 C 0.30064 0.85000 0.52846
 C83 C 0.26928 0.87700 0.52466
 C84 C 0.27351 0.90432 0.55543
 H85 H 0.30708 0.82421 0.50954
 H86 H 0.25460 0.93011 0.56229
 H87 H 0.37795 0.89360 0.59796
 H88 H 0.34611 0.86106 0.63162
 N89 N 0.92326 0.68818 0.39528
 N90 N 0.94040 0.67159 0.36366
 C91 C 0.97260 0.69379 0.35252
 C92 C 0.97576 0.72608 0.37842
 C93 C 0.94390 0.72148 0.40527
 H94 H 0.99240 0.68726 0.32737
 H95 H 0.93620 0.74067 0.43030
 Cu96 Cu 0.91850 0.62302 0.33984
 Cu97 Cu 0.87549 0.66544 0.42120
 Cu98 Cu 0.83643 0.57838 0.37980
 N99 N 0.89600 0.57443 0.31661
 N100 N 0.86408 0.55701 0.33265
 C101 C 0.85397 0.52508 0.31030
 C102 C 0.88079 0.52234 0.27837
 C103 C 0.90718 0.55418 0.28336
 H104 H 0.82831 0.50580 0.31608
 H105 H 0.93202 0.56262 0.26387
 N106 N 0.81267 0.60461 0.42742
 N107 N 0.82742 0.63784 0.44309
 C108 C 0.80417 0.64867 0.47464
 C109 C 0.77328 0.62104 0.47906
 C110 C 0.77967 0.59347 0.44857
 H111 H 0.80894 0.67495 0.49306
 H112 H 0.76150 0.56746 0.44192
 H113 H 0.88562 0.60630 0.40346
 H114 H 0.85354 0.63818 0.37109
 N115 N 0.58508 0.30451 -0.11352
 N116 N 0.57418 0.31811 -0.14840
 C117 C 0.54144 0.29790 -0.15952
 C118 C 0.53127 0.26999 -0.12996
 C119 C 0.55972 0.27503 -0.10131
 H120 H 0.52635 0.30332 -0.18704
 H121 H 0.56156 0.25851 -0.07353
 Cu122 Cu 0.60347 0.36103 -0.17609
 Cu123 Cu 0.63092 0.32646 -0.08644
 Cu124 Cu 0.67492 0.41199 -0.12878
 N125 N 0.62336 0.41295 -0.19558
 N126 N 0.65115 0.43289 -0.17700
 C127 C 0.65870 0.46804 -0.19639
 C128 C 0.63422 0.47028 -0.22891
 C129 C 0.61227 0.43470 -0.22743
 H130 H 0.68020 0.49027 -0.18718
 H131 H 0.58954 0.42568 -0.24784
 N132 N 0.69443 0.38595 -0.08009
 N133 N 0.67764 0.35339 -0.06388
 C134 C 0.69731 0.34323 -0.03084
 C135 C 0.72798 0.37078 -0.02602
 C136 C 0.72524 0.39733 -0.05784
 H137 H 0.68966 0.31778 -0.01174
 H138 H 0.74431 0.42321 -0.06398
 H139 H 0.62236 0.38357 -0.11064
 H140 H 0.66172 0.35097 -0.13511
 C141 C -0.06671 0.31762 0.12194
 C142 C -0.02430 0.33459 0.12783
 C143 C 0.00453 0.30557 0.13081
 C144 C -0.01104 0.26197 0.12707
 C145 C -0.04454 0.25826 0.15913
 C146 C -0.07345 0.28718 0.15639
 C147 C -0.06139 0.29082 0.08439
 C148 C -0.03271 0.26169 0.08745
 H149 H -0.01730 0.36676 0.12865
 H150 H 0.03577 0.31305 0.13462
 H151 H -0.04600 0.23488 0.18193
 H152 H -0.09915 0.28812 0.17684
 H153 H -0.07570 0.29589 0.05629
 H154 H -0.02453 0.24181 0.06285
 C155 C 0.55648 0.68611 0.62970
 C156 C 0.57247 0.72966 0.62374
 C157 C 0.54345 0.75843 0.62048
 C158 C 0.50075 0.74153 0.62395
 C159 C 0.49921 0.70844 0.59192
 C160 C 0.52819 0.67966 0.59501
 C161 C 0.52838 0.68948 0.66690
 C162 C 0.49931 0.71820 0.66361
 H163 H 0.60403 0.73732 0.62275
 H164 H 0.55029 0.79042 0.61638
 H165 H 0.47736 0.70726 0.56877
 H166 H 0.53069 0.65426 0.57461
 H167 H 0.53181 0.67327 0.69468
 H168 H 0.47817 0.72488 0.68781
 C169 C 1.06439 0.81300 0.37216
 C170 C 1.07935 0.76927 0.37969
 C171 C 1.04977 0.74102 0.38246
 C172 C 1.00768 0.75840 0.37684
 C173 C 1.00327 0.79236 0.40789
 C174 C 1.03274 0.82070 0.40538
 C175 C 1.04011 0.80882 0.33383
 C176 C 1.01041 0.78066 0.33662
 H177 H 1.11067 0.76098 0.38166
 H178 H 1.05590 0.70900 0.38725
 H179 H 0.97900 0.79461 0.42981
 H180 H 1.03327 0.84666 0.42516
 H181 H 1.04722 0.82351 0.30561
 H182 H 0.99204 0.77322 0.31157
 C183 C 0.43925 0.18693 -0.12305
 C184 C 0.43835 0.21418 -0.16037
 C185 C 0.46851 0.24176 -0.16321
 C186 C 0.49720 0.24005 -0.12827
 C187 C 0.47005 0.24488 -0.09102
 C188 C 0.43989 0.21722 -0.08802
 C189 C 0.48148 0.16816 -0.12392
 C190 C 0.51159 0.19579 -0.12682
 H191 H 0.41545 0.21224 -0.18253
 H192 H 0.47093 0.26303 -0.18786
 H193 H 0.47455 0.26778 -0.06847
 H194 H 0.41975 0.21713 -0.06230
 H195 H 0.48721 0.13574 -0.12202
 H196 H 0.54287 0.18693 -0.12764
 C197 C 0.12897 -0.06104 0.31450
 C198 C 0.09461 -0.03066 0.32189
 C199 C 0.09257 -0.00051 0.29418
 C200 C 0.12521 -0.00316 0.26114
 C201 C 0.16471 -0.00420 0.28328
 C202 C 0.16696 -0.03445 0.31089
 C203 C 0.12336 -0.07621 0.27171
 C204 C 0.12113 -0.04605 0.24402
 H205 H 0.07370 -0.03262 0.34712
 H206 H 0.06981 0.02292 0.29611
 H207 H 0.18960 0.01603 0.27651
 H208 H 0.19452 -0.04004 0.32614
 H209 H 0.12197 -0.10807 0.26372
 H210 H 0.11745 -0.05222 0.21264
 C211 C 0.62277 0.56025 -0.31374
 C212 C 0.65322 0.57036 -0.28185
 C213 C 0.65742 0.54105 -0.25363
 C214 C 0.63073 0.50372 -0.25948
 C215 C 0.58815 0.52089 -0.26155
 C216 C 0.58370 0.54996 -0.29003
 C217 C 0.63627 0.51856 -0.33033
 C218 C 0.64076 0.48935 -0.30198
 H219 H 0.67007 0.59851 -0.28142
 H220 H 0.67786 0.54463 -0.22947
 H221 H 0.56300 0.50934 -0.24380
 H222 H 0.55424 0.56131 -0.29691
 H223 H 0.64044 0.51197 -0.36178
 H224 H 0.64939 0.45841 -0.30931
 C225 C 0.37762 1.06441 0.81037
 C226 C 0.34287 1.07210 0.78226
 C227 C 0.33982 1.04424 0.75277
 C228 C 0.37195 1.01078 0.75370
 C229 C 0.41183 1.03375 0.75290
 C230 C 0.41508 1.06150 0.78248
 C231 C 0.37149 1.02047 0.82533
 C232 C 0.36830 0.99263 0.79582
 H233 H 0.32246 1.09767 0.78521
 H234 H 0.31675 1.04637 0.73087
 H235 H 0.43621 1.02748 0.73181
 H236 H 0.44299 1.07730 0.78646
 H237 H 0.37033 1.01188 0.85657
 H238 H 0.36409 0.96049 0.80192
 C239 C 0.87237 0.43960 0.18734
 C240 C 0.90801 0.46874 0.18198
 C241 C 0.91144 0.49622 0.21177
 C242 C 0.87877 0.49239 0.24468
 C243 C 0.83925 0.49532 0.22277
 C244 C 0.83559 0.46775 0.19312
 C245 C 0.87744 0.42046 0.22885
 C246 C 0.88103 0.44797 0.25864
 H247 H 0.92887 0.46782 0.15666
 H248 H 0.93536 0.51836 0.21155
 H249 H 0.81524 0.51610 0.23115
 H250 H 0.80763 0.46501 0.17796
 H251 H 0.87755 0.38796 0.23448
 H252 H 0.88455 0.43891 0.28944
 C253 C 0.31241 0.12240 -0.06327
 C254 C 0.32779 0.12680 -0.02071
 C255 C 0.29835 0.12974 0.00791
 C256 C 0.25591 0.12745 -0.00814
 C257 C 0.25434 0.16122 -0.03987
 C258 C 0.28375 0.15849 -0.06850
 C259 C 0.28486 0.08479 -0.06038
 C260 C 0.25535 0.08771 -0.03179
 H261 H 0.35923 0.12688 -0.01357
 H262 H 0.30474 0.13271 0.03925
 H263 H 0.23220 0.18527 -0.04027
 H264 H 0.28633 0.18008 -0.09296
 H265 H 0.28920 0.05690 -0.07688
 H266 H 0.23455 0.06310 -0.02540
 C267 C 0.68319 0.62688 0.56515
 C268 C 0.67952 0.59040 0.53712
 C269 C 0.70899 0.58792 0.50854
 C270 C 0.73994 0.62231 0.51022
 C271 C 0.71518 0.66156 0.50843
 C272 C 0.68574 0.66423 0.53710
 C273 C 0.72566 0.62343 0.58149
 C274 C 0.75514 0.62079 0.55287
 H275 H 0.65547 0.56836 0.53950
 H276 H 0.70972 0.56361 0.48694
 H277 H 0.72137 0.68602 0.48737
 H278 H 0.66829 0.69179 0.54039
 H279 H 0.73207 0.62372 0.61297
 H280 H 0.78652 0.61846 0.55998
 C281 C 0.81114 0.37949 0.06174
 C282 C 0.78389 0.41722 0.05748
 C283 C 0.75613 0.41354 0.02891
 C284 C 0.75799 0.37304 0.00655
 C285 C 0.80139 0.36986 -0.00922
 C286 C 0.82909 0.37348 0.01943
 C287 C 0.78197 0.34383 0.06799
 C288 C 0.75431 0.34037 0.03932
 H289 H 0.78717 0.44568 0.07298
 H290 H 0.73581 0.43808 0.02167
 H291 H 0.80968 0.36571 -0.04039
 H292 H 0.86097 0.37275 0.01248
 H293 H 0.78289 0.32309 0.09317
 H294 H 0.73197 0.31659 0.04040
 C295 C 0.18517 0.87111 0.43757
 C296 C 0.18783 0.83263 0.46396
 C297 C 0.21515 0.83533 0.49307
 C298 C 0.23798 0.87572 0.49325
 C299 C 0.25588 0.87995 0.45087
 C300 C 0.22847 0.87729 0.42185
 C301 C 0.17778 0.90601 0.46711
 C302 C 0.20520 0.90850 0.49611
 H303 H 0.17222 0.80441 0.45910
 H304 H 0.22127 0.81018 0.51303
 H305 H 0.28756 0.88406 0.44421
 H306 H 0.23699 0.87877 0.39048
 H307 H 0.15272 0.92692 0.46548
 H308 H 0.20318 0.93161 0.51891
   
