data_POSCAR
  _audit_creation_date              2014-09-24
  _audit_creation_method            'ToBaCCo'
  _symmetry_space_group_name_H-M    'P1'
  _symmetry_Int_Tables_number       1
  _symmetry_cell_setting            triclinic
  loop_
  _symmetry_equiv_pos_as_xyz
 x,y,z
_cell_length_a 22.4977
_cell_length_b 22.5511
_cell_length_c 40.9528
_cell_angle_alpha 90.028700
_cell_angle_beta 90.073300
_cell_angle_gamma 121.058700
loop_
  _atom_site_label
  _atom_site_type_symbol
  _atom_site_fract_x
  _atom_site_fract_y
  _atom_site_fract_z
Zn1 Zn 0.95396 0.04234 1.01417
 Zn2 Zn 1.08841 0.04570 1.01405
 Zn3 Zn 0.95436 -0.09070 1.01515
 Zn4 Zn 0.99827 -0.00279 0.95537
 O5 O 0.99862 -0.00146 0.99977
 O6 O 1.00853 0.11730 1.03889
 O7 O 1.10927 -0.00693 1.03835
 O8 O 0.88064 -0.11112 1.04037
 O9 O 1.10744 0.11856 1.03880
 O10 O 0.88116 -0.01272 1.03924
 O11 O 1.01033 -0.10755 1.03956
 O12 O 0.95477 -0.08822 0.93895
 O13 O 1.15075 0.07901 0.98161
 O14 O 0.92283 -0.15429 0.98299
 O15 O 1.08328 0.04038 0.93801
 O16 O 0.95611 0.03840 0.93826
 O17 O 0.92130 0.07123 0.98144
 C18 C 1.07139 0.14417 1.04778
 C19 C 1.07372 -0.06953 1.04758
 C20 C 0.85497 -0.07478 1.04890
 C21 C 0.92566 -0.14754 0.95214
 C22 C 1.14316 0.07337 0.95085
 C23 C 0.92582 0.06731 0.95069
 Zn24 Zn 0.04170 0.95265 0.51082
 Zn25 Zn -0.09100 0.95209 0.51480
 Zn26 Zn 0.04576 1.08763 0.51579
 Zn27 Zn -0.00431 1.00298 0.45509
 O28 O -0.00192 0.99899 0.49927
 O29 O -0.01235 0.87706 0.53452
 O30 O -0.10763 1.00509 0.54107
 O31 O 0.11996 1.10385 0.53957
 O32 O -0.11056 0.87670 0.53812
 O33 O 0.11709 1.00452 0.53535
 O34 O -0.00753 1.10484 0.54225
 O35 O 0.03805 1.08880 0.44017
 O36 O -0.15573 0.92310 0.48314
 O37 O 0.07757 1.15379 0.48450
 O38 O -0.08987 0.96382 0.43917
 O39 O 0.03559 0.96213 0.43515
 O40 O 0.06956 0.92360 0.47645
 C41 C -0.07419 0.85004 0.54478
 C42 C -0.07057 1.06721 0.55091
 C43 C 0.14498 1.06597 0.54621
 C44 C 0.07002 1.14776 0.45369
 C45 C -0.14913 0.93224 0.45248
 C46 C 0.06452 0.93050 0.44599
 O47 O 0.22199 0.55019 0.27807
 O48 O 0.22589 0.66750 0.28489
 C49 C 0.25793 0.73261 0.28882
 O50 O 0.31177 0.77398 0.27260
 O51 O 0.42521 0.77439 0.28696
 C52 C 0.45609 0.74313 0.29550
 O53 O 0.44635 0.68844 0.28152
 O54 O 0.32817 0.57478 0.29168
 C55 C 0.26315 0.54205 0.29618
 O56 O 0.22945 0.56713 0.21288
 O57 O 0.22654 0.68137 0.21943
 C58 C 0.27072 0.73302 0.20279
 O59 O 0.33510 0.76480 0.20893
 O60 O 0.45061 0.77082 0.22307
 C61 C 0.46146 0.72724 0.20885
 O62 O 0.43008 0.66368 0.21654
 O63 O 0.31352 0.54720 0.22694
 C64 C 0.26180 0.53518 0.20928
 Cr65 Cr 0.22981 0.61845 0.24886
 Cr66 Cr 0.37876 0.76715 0.24802
 Cr67 Cr 0.37763 0.62036 0.25402
 O68 O 0.32885 0.66866 0.25028
 O69 O 0.77124 0.42948 0.78656
 O70 O 0.77255 0.31559 0.77712
 C71 C 0.73012 0.26472 0.79463
 O72 O 0.66501 0.23326 0.79015
 O73 O 0.54800 0.22841 0.77788
 C74 C 0.53912 0.27234 0.79313
 O75 O 0.57329 0.33650 0.78670
 O76 O 0.68858 0.45266 0.77446
 C77 C 0.74034 0.46245 0.79142
 O78 O 0.77419 0.44924 0.72152
 O79 O 0.76856 0.33141 0.71230
 C80 C 0.73626 0.26624 0.70838
 O81 O 0.68406 0.22499 0.72565
 O82 O 0.57064 0.22641 0.71356
 C83 C 0.53853 0.25746 0.70678
 O84 O 0.54907 0.31129 0.72203
 O85 O 0.66719 0.42505 0.70998
 C86 C 0.73194 0.45798 0.70456
 Cr87 Cr 0.76795 0.37969 0.74939
 Cr88 Cr 0.61880 0.23196 0.75175
 Cr89 Cr 0.62130 0.37949 0.74834
 O90 O 0.66928 0.33037 0.74974
 C91 C 0.16239 0.31764 0.11296
 C92 C 0.20403 0.29513 0.09858
 C93 C 0.17439 0.23918 0.07707
 C94 C 0.10349 0.20578 0.06938
 C95 C 0.06410 0.23136 0.08334
 N96 N 0.09405 0.28567 0.10454
 C97 C 0.19057 0.37470 0.13723
 N98 N 0.15701 0.40980 0.14228
 C99 C 0.17899 0.46157 0.16471
 C100 C 0.23786 0.48036 0.18400
 C101 C 0.27294 0.44455 0.17927
 C102 C 0.24949 0.39181 0.15613
 H103 H 0.20709 0.22198 0.06654
 H104 H 0.00936 0.20752 0.07792
 H105 H 0.15007 0.48747 0.16761
 H106 H 0.31820 0.45666 0.19372
 H107 H 0.25902 0.32039 0.10356
 H108 H 0.27650 0.36391 0.15386
 C109 C 0.67982 0.84080 0.11311
 C110 C 0.71487 0.91140 0.10483
 C111 C 0.77120 0.93828 0.08365
 C112 C 0.79396 0.89570 0.07086
 C113 C 0.75833 0.82562 0.08001
 N114 N 0.70304 0.80035 0.10062
 C115 C 0.62017 0.81009 0.13605
 N116 N 0.60236 0.74971 0.15165
 C117 C 0.55039 0.72061 0.17415
 C118 C 0.51386 0.75345 0.18252
 C119 C 0.52981 0.81430 0.16597
 C120 C 0.58204 0.84224 0.14258
 H121 H 0.79762 0.99285 0.07771
 H122 H 0.77434 0.79098 0.07085
 H123 H 0.53924 0.67324 0.18618
 H124 H 0.50177 0.84045 0.17111
 H125 H 0.70061 0.94652 0.11503
 H126 H 0.59178 0.88841 0.12990
 C127 C 0.16832 0.84666 0.10778
 C128 C 0.20773 0.91556 0.09702
 C129 C 0.17698 0.94263 0.07721
 C130 C 0.10697 0.90162 0.06814
 C131 C 0.06935 0.83303 0.07938
 N132 N 0.10042 0.80785 0.09875
 C133 C 0.19706 0.81608 0.13020
 N134 N 0.15235 0.76072 0.14875
 C135 C 0.17447 0.73178 0.17111
 C136 C 0.24574 0.75919 0.17617
 C137 C 0.29275 0.81470 0.15652
 C138 C 0.26873 0.84298 0.13345
 H139 H 0.20791 0.99597 0.06931
 H140 H 0.01520 0.79956 0.07306
 H141 H 0.13628 0.68866 0.18551
 H142 H 0.34818 0.83696 0.15925
 H143 H 0.26112 0.94921 0.10440
 H144 H 0.30619 0.88533 0.11851
 C145 C 0.84402 0.67260 0.60698
 C146 C 0.90718 0.69578 0.59067
 C147 C 0.93326 0.75304 0.57009
 C148 C 0.89639 0.78698 0.56523
 C149 C 0.83211 0.76054 0.58093
 N150 N 0.80810 0.70508 0.60122
 C151 C 0.81616 0.61495 0.63084
 N152 N 0.74724 0.58049 0.63820
 C153 C 0.71872 0.52918 0.66093
 C154 C 0.76060 0.51052 0.67822
 C155 C 0.83169 0.54526 0.67091
 C156 C 0.85959 0.59734 0.64744
 H157 H 0.98253 0.77089 0.55809
 H158 H 0.80163 0.78473 0.57766
 H159 H 0.66369 0.50403 0.66586
 H160 H 0.86621 0.53309 0.68372
 H161 H 0.93639 0.67022 0.59353
 H162 H 0.91496 0.62469 0.64332
 C163 C 0.32132 0.14403 0.60971
 C164 C 0.29048 0.07625 0.59739
 C165 C 0.23378 0.05131 0.57628
 C166 C 0.20711 0.09326 0.56745
 C167 C 0.23954 0.16073 0.58015
 N168 N 0.29466 0.18384 0.60073
 C169 C 0.37960 0.17269 0.63347
 N170 N 0.39266 0.22895 0.65148
 C171 C 0.44357 0.25744 0.67446
 C172 C 0.48509 0.22887 0.68069
 C173 C 0.47362 0.17175 0.66195
 C174 C 0.42138 0.14379 0.63828
 H175 H 0.21013 -0.00129 0.56732
 H176 H 0.22070 0.19489 0.57409
 H177 H 0.45074 0.30177 0.68812
 H178 H 0.50490 0.14850 0.66560
 H179 H 0.30812 0.04171 0.60448
 H180 H 0.41469 0.10051 0.62395
 C181 C 0.83865 0.14860 0.61514
 C182 C 0.79688 0.08330 0.60064
 C183 C 0.82665 0.05705 0.57978
 C184 C 0.89787 0.09573 0.57282
 C185 C 0.93759 0.16165 0.58704
 N186 N 0.90745 0.18597 0.60759
 C187 C 0.80990 0.17759 0.63853
 N188 N 0.84377 0.24734 0.64342
 C189 C 0.82095 0.27713 0.66505
 C190 C 0.76088 0.23587 0.68360
 C191 C 0.72547 0.16390 0.67896
 C192 C 0.74978 0.13467 0.65670
 H193 H 0.79368 0.00645 0.56898
 H194 H 0.99258 0.19353 0.58212
 H195 H 0.85019 0.33282 0.66796
 H196 H 0.67931 0.12979 0.69289
 H197 H 0.74159 0.05275 0.60491
 H198 H 0.72245 0.07892 0.65459
 C199 C 0.31979 0.16642 0.88795
 C200 C 0.32691 0.18970 0.92033
 C201 C 0.26944 0.15891 0.94108
 C202 C 0.20491 0.10576 0.92951
 C203 C 0.20016 0.08411 0.89699
 N204 N 0.25698 0.11412 0.87743
 C205 C 0.37879 0.19567 0.86502
 N206 N 0.38018 0.15372 0.84154
 C207 C 0.43147 0.17688 0.81893
 C208 C 0.48495 0.24667 0.81863
 C209 C 0.48440 0.29113 0.84247
 C210 C 0.43168 0.26573 0.86586
 H211 H 0.27531 0.17702 0.96604
 H212 H 0.15154 0.04290 0.88716
 H213 H 0.42950 0.14094 0.80082
 H214 H 0.52459 0.34537 0.84301
 H215 H 0.37643 0.23020 0.92970
 H216 H 0.43137 0.30090 0.88375
 C217 C 0.84273 0.67688 0.88875
 C218 C 0.85686 0.66968 0.92146
 C219 C 0.88272 0.72658 0.94251
 C220 C 0.89522 0.79058 0.93090
 C221 C 0.87965 0.79521 0.89814
 N222 N 0.85382 0.73903 0.87828
 C223 C 0.81538 0.61900 0.86521
 N224 N 0.77433 0.61736 0.84038
 C225 C 0.74912 0.56745 0.81701
 C226 C 0.76630 0.51580 0.81734
 C227 C 0.80902 0.51669 0.84259
 C228 C 0.83332 0.56793 0.86669
 H229 H 0.89391 0.72085 0.96764
 H230 H 0.88786 0.84340 0.88828
 H231 H 0.71672 0.56901 0.79787
 H232 H 0.82355 0.47782 0.84372
 H233 H 0.84728 0.62062 0.93079
 H234 H 0.86719 0.56855 0.88565
 C235 C 0.84267 0.15571 0.88643
 C236 C 0.89290 0.14161 0.87510
 C237 C 0.91935 0.11235 0.89609
 C238 C 0.89650 0.09753 0.92854
 C239 C 0.84570 0.11189 0.93895
 N240 N 0.81991 0.13982 0.91782
 C241 C 0.81476 0.18749 0.86451
 N242 N 0.74559 0.16441 0.86435
 C243 C 0.71719 0.18918 0.84291
 C244 C 0.75935 0.24014 0.82002
 C245 C 0.83105 0.26604 0.82075
 C246 C 0.85875 0.23985 0.84280
 H247 H 0.95828 0.10198 0.88697
 H248 H 0.82622 0.10051 0.96371
 H249 H 0.66178 0.16834 0.84342
 H250 H 0.86584 0.30559 0.80378
 H251 H 0.91104 0.15240 0.85010
 H252 H 0.91412 0.26013 0.84274
 C253 C 0.67375 0.85878 0.39084
 C254 C 0.73581 0.91940 0.38258
 C255 C 0.79347 0.94309 0.40282
 C256 C 0.78912 0.90736 0.43157
 C257 C 0.72575 0.84765 0.43935
 N258 N 0.67055 0.82441 0.41875
 C259 C 0.61378 0.82970 0.36853
 N260 N 0.57777 0.76043 0.36248
 C261 C 0.52590 0.73138 0.33997
 C262 C 0.50773 0.77287 0.32210
 C263 C 0.54236 0.84398 0.32894
 C264 C 0.59572 0.87263 0.35197
 H265 H 0.84149 0.98947 0.39602
 H266 H 0.72069 0.81857 0.46126
 H267 H 0.49967 0.67613 0.33571
 H268 H 0.52982 0.87772 0.31573
 H269 H 0.74035 0.94697 0.36020
 H270 H 0.62307 0.92784 0.35655
 C271 C 0.14741 0.32394 0.39127
 C272 C 0.09170 0.25976 0.38115
 C273 C 0.06688 0.20286 0.40170
 C274 C 0.09678 0.20943 0.43256
 C275 C 0.15220 0.27463 0.44201
 N276 N 0.17648 0.32951 0.42120
 C277 C 0.17606 0.38413 0.36911
 N278 N 0.24599 0.42779 0.36698
 C279 C 0.27511 0.48002 0.34469
 C280 C 0.23300 0.49005 0.32270
 C281 C 0.16073 0.44724 0.32555
 C282 C 0.13221 0.39446 0.34862
 H283 H 0.02402 0.15357 0.39340
 H284 H 0.17694 0.28160 0.46554
 H285 H 0.33105 0.51247 0.34367
 H286 H 0.12605 0.45335 0.30943
 H287 H 0.06851 0.25309 0.35722
 H288 H 0.07635 0.36146 0.35013
 C289 C 0.14782 0.84812 0.37834
 C290 C 0.13223 0.89782 0.36790
 C291 C 0.10466 0.92424 0.38996
 C292 C 0.09303 0.90178 0.42252
 C293 C 0.10875 0.85151 0.43196
 N294 N 0.13499 0.82589 0.40987
 C295 C 0.17770 0.81962 0.35561
 N296 N 0.15853 0.75174 0.35770
 C297 C 0.18337 0.72260 0.33682
 C298 C 0.23099 0.76280 0.31237
 C299 C 0.25240 0.83319 0.31038
 C300 C 0.22579 0.86162 0.33179
 H301 H 0.09299 0.96268 0.38158
 H302 H 0.09981 0.83227 0.45677
 H303 H 0.16606 0.66828 0.33939
 H304 H 0.28915 0.86625 0.29198
 H305 H 0.14038 0.91548 0.34282
 H306 H 0.24328 0.91612 0.32993
   
