data_POSCAR
  _audit_creation_date              2014-09-24
  _audit_creation_method            'ToBaCCo'
  _symmetry_space_group_name_H-M    'P1'
  _symmetry_Int_Tables_number       1
  _symmetry_cell_setting            triclinic
  loop_
  _symmetry_equiv_pos_as_xyz
 x,y,z
_cell_length_a 31.2573
_cell_length_b 36.4283
_cell_length_c 31.6165
_cell_angle_alpha 89.635700
_cell_angle_beta 89.081900
_cell_angle_gamma 96.185500
loop_
  _atom_site_label
  _atom_site_type_symbol
  _atom_site_fract_x
  _atom_site_fract_y
  _atom_site_fract_z
N1 N 0.31424 0.28340 0.21285
 N2 N 0.31013 0.31877 0.20875
 C3 C 0.33803 0.33364 0.17898
 C4 C 0.36059 0.30605 0.16321
 C5 C 0.34471 0.27441 0.18526
 H6 H 0.34116 0.36227 0.16904
 H7 H 0.35514 0.24719 0.18206
 Cu8 Cu 0.26735 0.34198 0.24079
 Cu9 Cu 0.28091 0.25276 0.25530
 Cu10 Cu 0.19936 0.29302 0.30784
 N11 N 0.21345 0.35941 0.25823
 N12 N 0.18683 0.34069 0.28512
 C13 C 0.15285 0.35982 0.29245
 C14 C 0.15845 0.39185 0.26819
 C15 C 0.19712 0.39058 0.24684
 H16 H 0.12586 0.35085 0.31323
 H17 H 0.21245 0.41095 0.22484
 N18 N 0.21140 0.24155 0.31820
 N19 N 0.24361 0.22683 0.29960
 C20 C 0.24583 0.19284 0.31593
 C21 C 0.21290 0.18559 0.34539
 C22 C 0.19150 0.21683 0.34589
 H23 H 0.26951 0.17461 0.30709
 H24 H 0.16441 0.22162 0.36605
 H25 H 0.22740 0.28164 0.25114
 H26 H 0.26509 0.29361 0.29526
 N27 N 0.64589 -0.30937 0.24191
 N28 N 0.65696 -0.34305 0.24530
 C29 C 0.63317 -0.36531 0.21864
 C30 C 0.60633 -0.34406 0.19703
 C31 C 0.61536 -0.30873 0.21262
 H32 H 0.63633 -0.39430 0.21420
 H33 H 0.60119 -0.28419 0.20319
 Cu34 Cu 0.70430 -0.35297 0.28143
 Cu35 Cu 0.67318 -0.26838 0.27428
 Cu36 Cu 0.72711 -0.29555 0.36239
 N37 N 0.75136 -0.35942 0.31933
 N38 N 0.75801 -0.33857 0.35289
 C39 C 0.78998 -0.35053 0.37552
 C40 C 0.80516 -0.37963 0.35409
 C41 C 0.78000 -0.38449 0.31849
 H42 H 0.80249 -0.33779 0.40423
 H43 H 0.78195 -0.40503 0.29418
 N44 N 0.70912 -0.24563 0.35534
 N45 N 0.68879 -0.23536 0.32170
 C46 C 0.68133 -0.19986 0.32590
 C47 C 0.69857 -0.18700 0.36357
 C48 C 0.71609 -0.21661 0.38145
 H49 H 0.66508 -0.18438 0.30297
 H50 H 0.73267 -0.21697 0.41119
 H51 H 0.72811 -0.28896 0.29873
 H52 H 0.67410 -0.30488 0.32231
 N53 N 0.71172 0.21514 0.76697
 N54 N 0.72855 0.24473 0.78727
 C55 C 0.70088 0.25239 0.81844
 C56 C 0.66538 0.22601 0.81767
 C57 C 0.67340 0.20309 0.78465
 H58 H 0.70685 0.27452 0.84093
 H59 H 0.65374 0.17832 0.77533
 Cu60 Cu 0.78696 0.26926 0.77315
 Cu61 Cu 0.74235 0.18938 0.72318
 Cu62 Cu 0.84581 0.21869 0.71169
 N63 N 0.83594 0.29245 0.73866
 N64 N 0.85681 0.27184 0.71328
 C65 C 0.88459 0.29332 0.68881
 C66 C 0.88205 0.32963 0.69958
 C67 C 0.85129 0.32828 0.73207
 H68 H 0.90499 0.28297 0.66470
 H69 H 0.83896 0.35149 0.74748
 N70 N 0.82382 0.16979 0.69407
 N71 N 0.78238 0.15901 0.69641
 C72 C 0.77432 0.12693 0.67571
 C73 C 0.81303 0.11705 0.66013
 C74 C 0.84386 0.14471 0.67256
 H75 H 0.74260 0.11259 0.67119
 H76 H 0.87767 0.14784 0.66387
 H77 H 0.78841 0.21155 0.76488
 H78 H 0.77571 0.24174 0.71996
 N79 N 0.32350 -0.22062 0.78116
 N80 N 0.30400 -0.25397 0.78815
 C81 C 0.32760 -0.27173 0.81556
 C82 C 0.36389 -0.24809 0.82546
 C83 C 0.36008 -0.21612 0.80293
 H84 H 0.31897 -0.29949 0.82746
 H85 H 0.38184 -0.19097 0.80295
 Cu86 Cu 0.24924 -0.27014 0.76070
 Cu87 Cu 0.29963 -0.18470 0.74593
 Cu88 Cu 0.22622 -0.21462 0.67559
 N89 N 0.20392 -0.28534 0.71889
 N90 N 0.19679 -0.26435 0.68604
 C91 C 0.16618 -0.28207 0.66217
 C92 C 0.15283 -0.31583 0.68066
 C93 C 0.17727 -0.31710 0.71683
 H94 H 0.15421 -0.27099 0.63345
 H95 H 0.17647 -0.33970 0.73929
 N96 N 0.25852 -0.16605 0.67072
 N97 N 0.28788 -0.15424 0.69813
 C98 C 0.30595 -0.12043 0.68633
 C99 C 0.28638 -0.11049 0.64972
 C100 C 0.25637 -0.13997 0.64075
 H101 H 0.33131 -0.10435 0.70309
 H102 H 0.23505 -0.14246 0.61408
 H103 H 0.22879 -0.22083 0.74028
 H104 H 0.27198 -0.24019 0.70916
 N105 N 0.70588 -0.27332 0.81853
 N106 N 0.72791 -0.30185 0.82312
 C107 C 0.71104 -0.32269 0.85591
 C108 C 0.67709 -0.30594 0.87292
 C109 C 0.67493 -0.27460 0.84868
 H110 H 0.72139 -0.34887 0.86538
 H111 H 0.65058 -0.25571 0.85084
 Cu112 Cu 0.77367 -0.31133 0.78346
 Cu113 Cu 0.71385 -0.23990 0.77025
 Cu114 Cu 0.78813 -0.26065 0.69464
 N115 N 0.80463 -0.32837 0.73467
 N116 N 0.80627 -0.30968 0.69890
 C117 C 0.82622 -0.32802 0.66916
 C118 C 0.83881 -0.35960 0.68739
 C119 C 0.82488 -0.35897 0.72924
 H120 H 0.83278 -0.31807 0.63717
 H121 H 0.82831 -0.37947 0.75349
 N122 N 0.75610 -0.21749 0.69048
 N123 N 0.72706 -0.20973 0.71883
 C124 C 0.70922 -0.17963 0.70577
 C125 C 0.72830 -0.16799 0.66758
 C126 C 0.75789 -0.19249 0.65888
 H127 H 0.68418 -0.16717 0.72262
 H128 H 0.77845 -0.19262 0.63106
 H129 H 0.73517 -0.27939 0.73091
 H130 H 0.77657 -0.24725 0.75781
 N131 N 0.31603 0.28577 0.77624
 N132 N 0.30058 0.31603 0.78986
 C133 C 0.32629 0.33148 0.82010
 C134 C 0.35885 0.30945 0.82652
 C135 C 0.35134 0.28060 0.79848
 H136 H 0.32101 0.35633 0.83706
 H137 H 0.37020 0.25760 0.79466
 Cu138 Cu 0.24695 0.33299 0.76914
 Cu139 Cu 0.28874 0.25438 0.73098
 Cu140 Cu 0.19242 0.27628 0.70168
 N141 N 0.20460 0.35049 0.73134
 N142 N 0.18508 0.32830 0.70338
 C143 C 0.16095 0.34756 0.67859
 C144 C 0.16473 0.38353 0.69240
 C145 C 0.19243 0.38463 0.72615
 H146 H 0.14220 0.33627 0.65232
 H147 H 0.20448 0.40865 0.74405
 N148 N 0.21163 0.22933 0.68709
 N149 N 0.25053 0.22140 0.69606
 C150 C 0.25714 0.18918 0.67747
 C151 C 0.21991 0.17625 0.65661
 C152 C 0.19172 0.20227 0.66361
 H153 H 0.28661 0.17620 0.67901
 H154 H 0.15987 0.20241 0.65077
 H155 H 0.26420 0.30425 0.71854
 H156 H 0.23906 0.27488 0.76275
 N157 N 0.28684 -0.22885 0.20342
 N158 N 0.25551 -0.25565 0.19946
 C159 C 0.26482 -0.27759 0.16747
 C160 C 0.30427 -0.26413 0.15030
 C161 C 0.31749 -0.23296 0.17373
 H162 H 0.24505 -0.30248 0.15870
 H163 H 0.34737 -0.21519 0.17010
 Cu164 Cu 0.20755 -0.26299 0.23903
 Cu165 Cu 0.28362 -0.19151 0.24738
 Cu166 Cu 0.22098 -0.22368 0.33406
 N167 N 0.17419 -0.28177 0.28792
 N168 N 0.18111 -0.26826 0.32595
 C169 C 0.15823 -0.29052 0.35444
 C170 C 0.13581 -0.31920 0.33263
 C171 C 0.14650 -0.31251 0.29060
 H172 H 0.15871 -0.28667 0.38833
 H173 H 0.13711 -0.33003 0.26410
 N174 N 0.25593 -0.17498 0.33285
 N175 N 0.28075 -0.16313 0.30023
 C176 C 0.29829 -0.12841 0.30778
 C177 C 0.28318 -0.11775 0.34664
 C178 C 0.25645 -0.14787 0.36166
 H179 H 0.31864 -0.11145 0.28571
 H180 H 0.23774 -0.14949 0.39081
 H181 H 0.26277 -0.23507 0.28485
 H182 H 0.22094 -0.20343 0.27253
 N183 N 0.70064 0.19717 0.20736
 N184 N 0.71610 0.22756 0.18734
 C185 C 0.69107 0.23338 0.15437
 C186 C 0.65800 0.20510 0.15360
 C187 C 0.66497 0.18246 0.18764
 H188 H 0.69589 0.25700 0.13328
 H189 H 0.64508 0.15779 0.19795
 Cu190 Cu 0.76512 0.25855 0.20784
 Cu191 Cu 0.72698 0.18110 0.25898
 Cu192 Cu 0.82610 0.22869 0.28369
 N193 N 0.80292 0.29247 0.24046
 N194 N 0.82790 0.28137 0.26990
 C195 C 0.85222 0.31109 0.28525
 C196 C 0.84125 0.34222 0.26421
 C197 C 0.80989 0.32924 0.23622
 H198 H 0.87634 0.31005 0.30926
 H199 H 0.79375 0.34518 0.21369
 N200 N 0.80563 0.17953 0.30728
 N201 N 0.76700 0.16254 0.29979
 C202 C 0.76199 0.13033 0.32136
 C203 C 0.79941 0.12672 0.34286
 C204 C 0.82647 0.15830 0.33324
 H205 H 0.73381 0.11034 0.32034
 H206 H 0.85873 0.16545 0.34461
 H207 H 0.76250 0.22983 0.27777
 H208 H 0.78699 0.20134 0.23705
 O209 O 0.20031 0.05092 0.45613
 O210 O 0.23883 -0.01195 0.53498
 O211 O 0.20339 0.04907 0.53767
 O212 O 0.23558 -0.01173 0.45338
 O213 O 0.29999 0.01982 0.44994
 O214 O 0.26768 0.08091 0.53507
 O215 O 0.30316 0.01986 0.53260
 O216 O 0.26491 0.08213 0.45244
 Cu217 Cu 0.21308 0.01589 0.49552
 Cu218 Cu 0.29045 0.05383 0.49192
 C219 C 0.22581 0.07763 0.44146
 C220 C 0.27735 -0.00651 0.54753
 C221 C 0.22988 0.07517 0.55086
 C222 C 0.27344 -0.00675 0.43780
 O223 O 0.75373 0.01836 0.54082
 O224 O 0.70827 -0.04729 0.46097
 O225 O 0.71096 -0.04626 0.54356
 O226 O 0.74885 0.01936 0.45861
 O227 O 0.81078 -0.00462 0.45527
 O228 O 0.77279 -0.07044 0.54011
 O229 O 0.76973 -0.07206 0.45828
 O230 O 0.81558 -0.00577 0.53666
 Cu231 Cu 0.72420 -0.01153 0.50106
 Cu232 Cu 0.79836 -0.04080 0.49679
 C233 C 0.79233 0.01729 0.55241
 C234 C 0.73117 -0.07132 0.44670
 C235 C 0.73570 -0.06914 0.55668
 C236 C 0.78655 0.01913 0.44320
 O237 O 0.50126 0.30527 0.03378
 O238 O 0.56690 0.27055 -0.05117
 O239 O 0.49977 0.30747 -0.04796
 O240 O 0.56358 0.26312 0.03121
 O241 O 0.51786 0.21255 0.02873
 O242 O 0.45535 0.25611 -0.05092
 O243 O 0.52190 0.21953 -0.05359
 O244 O 0.45568 0.25456 0.03196
 Cu245 Cu 0.53752 0.29161 -0.00825
 Cu246 Cu 0.48322 0.23059 -0.01121
 C247 C 0.46741 0.28621 0.04722
 C248 C 0.55541 0.23929 -0.06714
 C249 C 0.46665 0.28905 -0.06295
 C250 C 0.55124 0.23033 0.04363
 O251 O 0.49199 0.63964 0.04850
 O252 O 0.44577 0.67830 -0.04736
 O253 O 0.51809 0.65161 -0.02865
 O254 O 0.41941 0.66585 0.03056
 O255 O 0.44720 0.72170 0.04888
 O256 O 0.54605 0.70783 -0.01176
 O257 O 0.47484 0.73375 -0.02896
 O258 O 0.51942 0.69587 0.06583
 Cu259 Cu 0.46575 0.65323 -0.00100
 Cu260 Cu 0.49955 0.72041 0.02036
 C261 C 0.51408 0.66139 0.07308
 C262 C 0.45312 0.71281 -0.05446
 C263 C 0.54892 0.67728 -0.03018
 C264 C 0.41641 0.69593 0.04982
 O265 O 0.03214 0.47256 0.32973
 O266 O -0.05550 0.52338 0.37100
 O267 O -0.05183 0.45970 0.33284
 O268 O 0.02756 0.53707 0.36635
 O269 O 0.02191 0.56337 0.30383
 O270 O -0.05547 0.48746 0.27087
 O271 O -0.06104 0.54905 0.30805
 O272 O 0.02802 0.50030 0.26783
 Cu273 Cu -0.01135 0.49532 0.35627
 Cu274 Cu -0.01689 0.52764 0.28139
 C275 C 0.04503 0.47797 0.29169
 C276 C -0.07311 0.54480 0.34645
 C277 C -0.06736 0.46098 0.29598
 C278 C 0.03760 0.56367 0.34055
 O279 O 0.03742 0.55639 0.62304
 O280 O -0.02936 0.46781 0.62640
 O281 O -0.04397 0.53694 0.62225
 O282 O 0.05175 0.48792 0.62374
 O283 O 0.05000 0.48676 0.69363
 O284 O -0.04429 0.54060 0.69196
 O285 O -0.03333 0.46956 0.69617
 O286 O 0.03963 0.55717 0.69284
 Cu287 Cu 0.00378 0.51213 0.61696
 Cu288 Cu 0.00268 0.51371 0.70082
 C289 C 0.05029 0.57180 0.65707
 C290 C -0.04208 0.45316 0.66152
 C291 C -0.05967 0.54825 0.65634
 C292 C 0.06678 0.47827 0.65858
 N293 N 0.44542 0.33787 0.09029
 N294 N 0.41708 0.34318 0.12040
 C295 C 0.39491 0.31050 0.13066
 C296 C 0.40952 0.28306 0.10572
 C297 C 0.44152 0.30176 0.08043
 H298 H 0.39830 0.25390 0.10574
 H299 H 0.46669 0.35880 0.07647
 H300 H 0.41336 0.36881 0.13377
 N301 N 0.54210 0.61153 0.11590
 N302 N 0.56929 0.61030 0.15044
 C303 C 0.57796 0.64510 0.16464
 C304 C 0.55667 0.66883 0.14020
 C305 C 0.53521 0.64703 0.10989
 H306 H 0.55860 0.69860 0.14238
 H307 H 0.53194 0.58912 0.09675
 H308 H 0.58149 0.58656 0.16165
 N309 N 0.56954 0.19435 -0.12308
 N310 N 0.59816 0.19112 -0.15361
 C311 C 0.62824 0.22057 -0.15278
 C312 C 0.61831 0.24363 -0.12019
 C313 C 0.58074 0.22591 -0.10222
 H314 H 0.63562 0.26964 -0.11109
 H315 H 0.54266 0.17531 -0.11701
 H316 H 0.59685 0.16897 -0.17451
 N317 N 0.45604 0.76211 -0.10846
 N318 N 0.43292 0.77229 -0.14006
 C319 C 0.39884 0.74678 -0.14502
 C320 C 0.40079 0.71854 -0.11549
 C321 C 0.43753 0.72976 -0.09269
 H322 H 0.37755 0.69474 -0.10967
 H323 H 0.48361 0.77762 -0.09739
 H324 H 0.44007 0.79692 -0.15702
 N325 N 0.10195 0.46827 0.23848
 N326 N 0.13194 0.44585 0.23248
 C327 C 0.12968 0.42112 0.26451
 C328 C 0.09693 0.42825 0.29242
 C329 C 0.08030 0.45853 0.27468
 H330 H 0.08688 0.41371 0.32147
 H331 H 0.09681 0.49006 0.21820
 H332 H 0.15331 0.44747 0.20664
 N333 N 0.07606 0.62947 0.61933
 N334 N 0.10414 0.66103 0.62611
 C335 C 0.12189 0.65764 0.66435
 C336 C 0.10512 0.62426 0.68305
 C337 C 0.07657 0.60762 0.65371
 H338 H 0.11288 0.61336 0.71358
 H339 H 0.05782 0.62437 0.59218
 H340 H 0.11039 0.68255 0.60418
 N341 N -0.10787 0.58044 0.40158
 N342 N -0.14118 0.60305 0.40305
 C343 C -0.16059 0.60087 0.36523
 C344 C -0.14018 0.57755 0.33898
 C345 C -0.10726 0.56576 0.36265
 H346 H -0.14699 0.57129 0.30618
 H347 H -0.08583 0.57786 0.42561
 H348 H -0.14888 0.61869 0.42911
 N349 N -0.05659 0.39205 0.62941
 N350 N -0.07593 0.35723 0.64087
 C351 C -0.09567 0.36002 0.67876
 C352 C -0.08902 0.39647 0.69257
 C353 C -0.06383 0.41537 0.66087
 H354 H -0.09921 0.40733 0.72243
 H355 H -0.03736 0.39785 0.60236
 H356 H -0.07512 0.33373 0.62227
 N357 N 0.16743 0.11021 0.41077
 N358 N 0.16407 0.13932 0.38636
 C359 C 0.20359 0.15234 0.37194
 C360 C 0.23355 0.13081 0.38805
 C361 C 0.20924 0.10453 0.41281
 H362 H 0.26819 0.13479 0.38398
 H363 H 0.14165 0.09548 0.42702
 H364 H 0.13522 0.15022 0.38018
 N365 N 0.85254 0.04845 0.59394
 N366 N 0.85805 0.07484 0.62241
 C367 C 0.81953 0.08647 0.63163
 C368 C 0.78813 0.06683 0.60798
 C369 C 0.81050 0.04318 0.58433
 H370 H 0.75414 0.07004 0.60713
 H371 H 0.87733 0.03489 0.58083
 H372 H 0.88776 0.08483 0.63487
 N373 N 0.32858 -0.02442 0.60177
 N374 N 0.33065 -0.05165 0.62927
 C375 C 0.29553 -0.07616 0.62506
 C376 C 0.26988 -0.06400 0.59381
 C377 C 0.29194 -0.03109 0.57994
 H378 H 0.23935 -0.07707 0.58289
 H379 H 0.35166 -0.00157 0.59847
 H380 H 0.35584 -0.05336 0.65026
 N381 N 0.67862 -0.09532 0.39234
 N382 N 0.67033 -0.12577 0.37007
 C383 C 0.69855 -0.14962 0.38070
 C384 C 0.72637 -0.13356 0.41055
 C385 C 0.71266 -0.09913 0.41695
 H386 H 0.75251 -0.14539 0.42580
 H387 H 0.66128 -0.07242 0.39056
 H388 H 0.64531 -0.13025 0.34859
 N389 N 0.60219 0.63826 -0.06068
 N390 N 0.63688 0.64282 -0.08542
 C391 C 0.64519 0.67897 -0.09517
 C392 C 0.61501 0.69836 -0.07520
 C393 C 0.58828 0.67149 -0.05386
 H394 H 0.61149 0.72752 -0.07780
 H395 H 0.58795 0.61275 -0.04940
 H396 H 0.65320 0.62129 -0.09688
 N397 N 0.43852 0.34257 -0.09857
 N398 N 0.40939 0.34790 -0.12720
 C399 C 0.39304 0.31484 -0.14208
 C400 C 0.41218 0.28723 -0.12186
 C401 C 0.44063 0.30600 -0.09432
 H402 H 0.40544 0.25768 -0.12569
 H403 H 0.45564 0.36359 -0.08147
 H404 H 0.40084 0.37374 -0.13616
 N405 N 0.34072 0.67638 0.07090
 N406 N 0.31119 0.68701 0.09697
 C407 C 0.32751 0.71800 0.11666
 C408 C 0.36936 0.72778 0.10215
 C409 C 0.37643 0.70040 0.07329
 H410 H 0.39185 0.75061 0.11221
 H411 H 0.33646 0.65277 0.05220
 H412 H 0.28067 0.67270 0.10151
 N413 N 0.56345 0.17923 0.09339
 N414 N 0.59146 0.17256 0.12260
 C415 C 0.62186 0.20165 0.12420
 C416 C 0.61286 0.22798 0.09479
 C417 C 0.57550 0.21273 0.07604
 H418 H 0.63044 0.25475 0.08848
 H419 H 0.53632 0.16128 0.08595
 H420 H 0.58947 0.14859 0.14114
 N421 N -0.10475 0.58715 0.61612
 N422 N -0.13194 0.61402 0.62489
 C423 C -0.13807 0.61472 0.66714
 C424 C -0.11533 0.58842 0.68623
 C425 C -0.09424 0.57238 0.65317
 H426 H -0.11175 0.58372 0.71977
 H427 H -0.09227 0.58207 0.58614
 H428 H -0.14408 0.63080 0.60210
 N429 N -0.12685 0.43865 0.24944
 N430 N -0.15097 0.40772 0.24120
 C431 C -0.14013 0.38097 0.26730
 C432 C -0.10785 0.39575 0.29398
 C433 C -0.10035 0.43248 0.28120
 H434 H -0.09109 0.38159 0.31775
 H435 H -0.12829 0.46348 0.23307
 H436 H -0.17369 0.40511 0.21727
 N437 N 0.11961 0.44388 0.62090
 N438 N 0.14536 0.41861 0.62981
 C439 C 0.14595 0.41407 0.67203
 C440 C 0.11936 0.43744 0.69109
 C441 C 0.10281 0.45555 0.65729
 H442 H 0.11003 0.43831 0.72415
 H443 H 0.11187 0.45132 0.59022
 H444 H 0.16067 0.40357 0.60718
 N445 N 0.08169 0.60412 0.39151
 N446 N 0.10690 0.63580 0.38955
 C447 C 0.10912 0.64788 0.34909
 C448 C 0.08426 0.62307 0.32446
 C449 C 0.06749 0.59576 0.35233
 H450 H 0.07917 0.62450 0.29073
 H451 H 0.07431 0.58876 0.41917
 H452 H 0.12267 0.64848 0.41536
 N453 N 0.68641 -0.09169 0.61641
 N454 N 0.68481 -0.11745 0.64623
 C455 C 0.71887 -0.13679 0.64094
 C456 C 0.74325 -0.12275 0.60648
 C457 C 0.72164 -0.09417 0.59191
 H458 H 0.77284 -0.13172 0.59405
 H459 H 0.66405 -0.07254 0.61339
 H460 H 0.66073 -0.12162 0.66958
 N461 N 0.32137 -0.02615 0.37995
 N462 N 0.32379 -0.05539 0.35577
 C463 C 0.29105 -0.08114 0.36630
 C464 C 0.26644 -0.06758 0.39822
 C465 C 0.28672 -0.03261 0.40586
 H466 H 0.23796 -0.08125 0.41382
 H467 H 0.34305 -0.00224 0.37851
 H468 H 0.34777 -0.05767 0.33284
 N469 N 0.84487 0.05750 0.40350
 N470 N 0.84838 0.08661 0.37799
 C471 C 0.80863 0.09545 0.36960
 C472 C 0.77847 0.07110 0.39078
 C473 C 0.80283 0.04759 0.41210
 H474 H 0.74387 0.07128 0.39175
 H475 H 0.87093 0.04548 0.41579
 H476 H 0.87755 0.10018 0.36681
 N477 N 0.17427 0.09943 0.59650
 N478 N 0.17162 0.12607 0.62418
 C479 C 0.21137 0.14310 0.63054
 C480 C 0.24080 0.12671 0.60562
 C481 C 0.21570 0.09926 0.58423
 H482 H 0.27503 0.13473 0.60202
 H483 H 0.14784 0.08245 0.58533
 H484 H 0.14287 0.13276 0.63790
   
