data_POSCAR
  _audit_creation_date              2014-09-24
  _audit_creation_method            'ToBaCCo'
  _symmetry_space_group_name_H-M    'P1'
  _symmetry_Int_Tables_number       1
  _symmetry_cell_setting            triclinic
  loop_
  _symmetry_equiv_pos_as_xyz
 x,y,z
_cell_length_a 38.5692
_cell_length_b 37.7943
_cell_length_c 38.9459
_cell_angle_alpha 89.904700
_cell_angle_beta 90.040900
_cell_angle_gamma 89.999900
loop_
  _atom_site_label
  _atom_site_type_symbol
  _atom_site_fract_x
  _atom_site_fract_y
  _atom_site_fract_z
C1 C 0.61496 0.65766 0.61392
 C2 C 0.64481 0.64272 0.59942
 C3 C 0.65998 0.61337 0.61449
 C4 C 0.64563 0.59869 0.64433
 C5 C 0.61614 0.61341 0.65866
 C6 C 0.60072 0.64313 0.64338
 C7 C 0.59435 0.68574 0.60441
 N8 N 0.56811 0.68853 0.62741
 C9 C 0.57175 0.66272 0.65136
 C10 C 0.60773 0.59338 0.68703
 N11 N 0.63152 0.56712 0.69022
 C12 C 0.65479 0.57008 0.66425
 C13 C 0.68802 0.60410 0.59462
 N14 N 0.69017 0.62717 0.56801
 C15 C 0.66398 0.65094 0.57069
 H16 H 0.59807 0.70271 0.58232
 H17 H 0.55435 0.65840 0.67276
 H18 H 0.58593 0.59749 0.70407
 H19 H 0.67659 0.55264 0.65992
 H20 H 0.70544 0.58212 0.59911
 H21 H 0.65913 0.67234 0.55281
 C22 C 0.89011 0.34363 0.11172
 C23 C 0.86019 0.35770 0.09644
 C24 C 0.84445 0.38728 0.11041
 C25 C 0.85834 0.40309 0.13992
 C26 C 0.88787 0.38919 0.15500
 C27 C 0.90382 0.35925 0.14086
 C28 C 0.91085 0.31518 0.10375
 N29 N 0.93659 0.31316 0.12744
 C30 C 0.93258 0.33997 0.15024
 C31 C 0.89545 0.40977 0.18313
 N32 N 0.87118 0.43559 0.18545
 C33 C 0.84836 0.43182 0.15920
 C34 C 0.81610 0.39509 0.09033
 N35 N 0.81426 0.37090 0.06474
 C36 C 0.84104 0.34791 0.06817
 H37 H 0.90746 0.29717 0.08241
 H38 H 0.94929 0.34517 0.17199
 H39 H 0.91690 0.40624 0.20075
 H40 H 0.82619 0.44869 0.15448
 H41 H 0.79803 0.41668 0.09400
 H42 H 0.84627 0.32581 0.05132
 C43 C 0.38888 0.15435 -0.11357
 C44 C 0.35924 0.14011 -0.09799
 C45 C 0.34353 0.11042 -0.11176
 C46 C 0.35718 0.09468 -0.14140
 C47 C 0.38646 0.10874 -0.15678
 C48 C 0.40238 0.13881 -0.14281
 C49 C 0.40955 0.18291 -0.10576
 N50 N 0.43504 0.18505 -0.12961
 C51 C 0.43097 0.15827 -0.15240
 C52 C 0.39386 0.08816 -0.18496
 N53 N 0.36967 0.06218 -0.18706
 C54 C 0.34713 0.06587 -0.16056
 C55 C 0.31544 0.10248 -0.09138
 N56 N 0.31375 0.12672 -0.06582
 C57 C 0.34036 0.14986 -0.06956
 H58 H 0.40635 0.20089 -0.08438
 H59 H 0.44759 0.15324 -0.17422
 H60 H 0.41513 0.09184 -0.20275
 H61 H 0.32510 0.04891 -0.15549
 H62 H 0.29743 0.08080 -0.09486
 H63 H 0.34564 0.17205 -0.05284
 C64 C 0.10897 0.84564 0.38770
 C65 C 0.13868 0.85968 0.40333
 C66 C 0.15481 0.88908 0.38933
 C67 C 0.14154 0.90470 0.35940
 C68 C 0.11221 0.89081 0.34396
 C69 C 0.09585 0.86108 0.35817
 C70 C 0.08799 0.81733 0.39560
 N71 N 0.06265 0.81523 0.37151
 C72 C 0.06717 0.84185 0.34850
 C73 C 0.10522 0.91114 0.31546
 N74 N 0.12967 0.93684 0.31321
 C75 C 0.15202 0.93320 0.33993
 C76 C 0.18291 0.89682 0.40979
 N77 N 0.18421 0.87274 0.43560
 C78 C 0.15733 0.84991 0.43195
 H79 H 0.09094 0.79945 0.41717
 H80 H 0.05088 0.84692 0.32639
 H81 H 0.08400 0.90752 0.29758
 H82 H 0.17417 0.94999 0.34494
 H83 H 0.20123 0.91820 0.40616
 H84 H 0.15175 0.82788 0.44885
 N85 N 0.08446 0.18060 0.11088
 N86 N 0.07168 0.16578 0.13870
 C87 C 0.04362 0.18418 0.14893
 C88 C 0.03865 0.21177 0.12622
 C89 C 0.06488 0.20878 0.10238
 H90 H 0.02793 0.17805 0.17115
 H91 H 0.06943 0.22598 0.08062
 Cu92 Cu 0.09285 0.12386 0.15875
 Cu93 Cu 0.12569 0.16254 0.08807
 Cu94 Cu 0.16493 0.08873 0.12415
 N95 N 0.11555 0.08291 0.17906
 N96 N 0.14388 0.06945 0.16557
 C97 C 0.15425 0.04166 0.18467
 C98 C 0.13113 0.03757 0.21139
 C99 C 0.10690 0.06404 0.20714
 H100 H 0.17678 0.02553 0.17944
 H101 H 0.08472 0.06905 0.22339
 N102 N 0.18232 0.11206 0.08227
 N103 N 0.16758 0.14038 0.06874
 C104 C 0.18565 0.15031 0.04075
 C105 C 0.21284 0.12706 0.03651
 C106 C 0.21003 0.10313 0.06309
 H107 H 0.17950 0.17269 0.02454
 H108 H 0.22709 0.08101 0.06807
 H109 H 0.12026 0.11057 0.10383
 H110 H 0.14748 0.13991 0.13141
 N111 N 0.41388 0.81749 0.61174
 N112 N 0.42648 0.83164 0.63994
 C113 C 0.45505 0.81358 0.64947
 C114 C 0.46050 0.78693 0.62593
 C115 C 0.43400 0.79008 0.60234
 H116 H 0.47092 0.81941 0.67165
 H117 H 0.42973 0.77370 0.58000
 Cu118 Cu 0.40458 0.87255 0.66108
 Cu119 Cu 0.37248 0.83566 0.58922
 Cu120 Cu 0.33371 0.90943 0.62544
 N121 N 0.38298 0.91447 0.68060
 N122 N 0.35510 0.92854 0.66672
 C123 C 0.34533 0.95681 0.68534
 C124 C 0.36841 0.96064 0.71215
 C125 C 0.39200 0.93349 0.70844
 H126 H 0.32322 0.97343 0.67974
 H127 H 0.41395 0.92808 0.72492
 N128 N 0.31593 0.88626 0.58371
 N129 N 0.33047 0.85789 0.57016
 C130 C 0.31220 0.84809 0.54226
 C131 C 0.28510 0.87148 0.53808
 C132 C 0.28816 0.89535 0.56463
 H133 H 0.31820 0.82575 0.52602
 H134 H 0.27124 0.91756 0.56961
 H135 H 0.37851 0.88727 0.60583
 H136 H 0.35020 0.85791 0.63236
 N137 N 0.91491 0.68238 0.38740
 N138 N 0.92789 0.66764 0.35968
 C139 C 0.95583 0.68626 0.34945
 C140 C 0.96052 0.71391 0.37206
 C141 C 0.93423 0.71074 0.39584
 H142 H 0.97170 0.68017 0.32737
 H143 H 0.92955 0.72784 0.41758
 Cu144 Cu 0.90726 0.62539 0.33985
 Cu145 Cu 0.87396 0.66378 0.41041
 Cu146 Cu 0.83576 0.58935 0.37475
 N147 N 0.88508 0.58408 0.31977
 N148 N 0.85695 0.57031 0.33338
 C149 C 0.84687 0.54233 0.31450
 C150 C 0.86999 0.53841 0.28778
 C151 C 0.89392 0.56520 0.29180
 H152 H 0.82456 0.52593 0.31990
 H153 H 0.91601 0.57043 0.27548
 N154 N 0.81813 0.61243 0.41653
 N155 N 0.83243 0.64101 0.42992
 C156 C 0.81443 0.65044 0.45811
 C157 C 0.78781 0.62656 0.46262
 C158 C 0.79081 0.60283 0.43596
 H159 H 0.82032 0.67277 0.47441
 H160 H 0.77429 0.58027 0.43116
 H161 H 0.88016 0.61191 0.39493
 H162 H 0.85250 0.64078 0.36723
 N163 N 0.58450 0.31869 -0.11261
 N164 N 0.57186 0.33375 -0.14040
 C165 C 0.54380 0.31548 -0.15091
 C166 C 0.53872 0.28770 -0.12844
 C167 C 0.56487 0.29046 -0.10444
 H168 H 0.52813 0.32188 -0.17309
 H169 H 0.56927 0.27312 -0.08275
 Cu170 Cu 0.59326 0.37584 -0.15990
 Cu171 Cu 0.62556 0.33654 -0.08926
 Cu172 Cu 0.66357 0.41212 -0.12298
 N173 N 0.61440 0.41868 -0.17811
 N174 N 0.64208 0.43253 -0.16368
 C175 C 0.65192 0.46129 -0.18163
 C176 C 0.62911 0.46567 -0.20859
 C177 C 0.60560 0.43833 -0.20567
 H178 H 0.67409 0.47767 -0.17565
 H179 H 0.58404 0.43304 -0.22266
 N180 N 0.68149 0.38761 -0.08197
 N181 N 0.66722 0.35862 -0.06931
 C182 C 0.68562 0.34799 -0.04174
 C183 C 0.71252 0.37147 -0.03689
 C184 C 0.70921 0.39625 -0.06267
 H185 H 0.67990 0.32497 -0.02624
 H186 H 0.72595 0.41876 -0.06701
 H187 H 0.61904 0.38863 -0.10413
 H188 H 0.64769 0.36064 -0.13156
 C189 C -0.01656 0.24325 0.15561
 C190 C -0.00992 0.28374 0.15591
 C191 C -0.03755 0.28784 0.12786
 C192 C -0.04487 0.24802 0.12768
 C193 C -0.01050 0.28421 0.09934
 C194 C 0.01776 0.27936 0.12735
 C195 C 0.01084 0.23924 0.12713
 C196 C -0.01709 0.24374 0.09920
 H197 H -0.01889 0.22621 0.17873
 H198 H -0.00696 0.30019 0.17930
 H199 H -0.07103 0.23576 0.12783
 H200 H -0.00856 0.30153 0.07638
 H201 H 0.04382 0.29183 0.12717
 H202 H -0.01966 0.22697 0.07597
 C203 C 0.49507 0.73263 0.65424
 C204 C 0.50169 0.70439 0.62615
 C205 C 0.54014 0.71449 0.62651
 C206 C 0.53418 0.74208 0.65466
 C207 C 0.53472 0.74212 0.59815
 C208 C 0.49561 0.73261 0.59784
 C209 C 0.48929 0.76049 0.62594
 C210 C 0.52804 0.77026 0.62630
 H211 H 0.47842 0.72907 0.67723
 H212 H 0.49150 0.67692 0.62609
 H213 H 0.55055 0.74542 0.67788
 H214 H 0.55115 0.74591 0.57506
 H215 H 0.47956 0.72884 0.57446
 H216 H 0.53847 0.79764 0.62639
 C217 C 1.01593 0.74592 0.39951
 C218 C 1.04403 0.75015 0.37131
 C219 C 1.03674 0.78997 0.37088
 C220 C 1.00938 0.78639 0.39913
 C221 C 1.00942 0.78587 0.34256
 C222 C 1.01602 0.74538 0.34309
 C223 C 0.98831 0.74142 0.37130
 C224 C 0.98142 0.78154 0.37085
 H225 H 1.01824 0.72916 0.42283
 H226 H 1.07017 0.73786 0.37148
 H227 H 1.00721 0.80373 0.42200
 H228 H 1.00673 0.80231 0.31908
 H229 H 1.01858 0.72831 0.32007
 H230 H 0.95537 0.79403 0.37070
 C231 C 0.48328 0.25640 -0.15790
 C232 C 0.48982 0.21590 -0.15824
 C233 C 0.46232 0.21177 -0.13013
 C234 C 0.45512 0.25162 -0.12986
 C235 C 0.48956 0.21537 -0.10173
 C236 C 0.51767 0.22019 -0.12981
 C237 C 0.51083 0.26031 -0.12952
 C238 C 0.48304 0.25582 -0.10149
 H239 H 0.48087 0.27349 -0.18098
 H240 H 0.49243 0.19932 -0.18159
 H241 H 0.42898 0.26391 -0.12989
 H242 H 0.49158 0.19802 -0.07879
 H243 H 0.54370 0.20765 -0.12975
 H244 H 0.48061 0.27256 -0.07823
 C245 C 0.13116 0.01852 0.27767
 C246 C 0.10254 -0.00987 0.28273
 C247 C 0.13101 -0.03761 0.28781
 C248 C 0.15967 -0.00985 0.28352
 C249 C 0.13152 -0.04641 0.24945
 C250 C 0.10311 -0.01795 0.24372
 C251 C 0.13164 0.01012 0.23901
 C252 C 0.16008 -0.01795 0.24445
 H253 H 0.13099 0.04551 0.28886
 H254 H 0.07905 -0.00709 0.29894
 H255 H 0.18297 -0.00655 0.29993
 H256 H 0.13167 -0.07349 0.23846
 H257 H 0.07995 -0.02092 0.22704
 H258 H 0.18370 -0.02107 0.22849
 C259 C 0.60183 0.52158 -0.24158
 C260 C 0.63048 0.55006 -0.24599
 C261 C 0.63152 0.54150 -0.28439
 C262 C 0.60283 0.51377 -0.28065
 C263 C 0.65993 0.51366 -0.27908
 C264 C 0.65878 0.52154 -0.24002
 C265 C 0.63014 0.49345 -0.23589
 C266 C 0.63120 0.48532 -0.27459
 H267 H 0.57803 0.52445 -0.22582
 H268 H 0.63021 0.57707 -0.23484
 H269 H 0.58001 0.51114 -0.29783
 H270 H 0.68392 0.51037 -0.29446
 H271 H 0.68177 0.52458 -0.22312
 H272 H 0.63145 0.45840 -0.28596
 C273 C 0.39678 1.01626 0.74418
 C274 C 0.36846 1.04492 0.74933
 C275 C 0.36859 1.03643 0.78779
 C276 C 0.39696 1.00850 0.78329
 C277 C 0.33984 1.00878 0.78350
 C278 C 0.33981 1.01658 0.74436
 C279 C 0.36814 0.98830 0.73949
 C280 C 0.36823 0.98022 0.77825
 H281 H 0.42009 1.01896 0.72770
 H282 H 0.36855 1.07190 0.73804
 H283 H 0.42030 1.00574 0.79977
 H284 H 0.31635 1.00571 0.79967
 H285 H 0.31633 1.01973 0.72815
 H286 H 0.36817 0.95332 0.78974
 C287 C 0.89824 0.48283 0.25577
 C288 C 0.86990 0.45425 0.25049
 C289 C 0.87012 0.46271 0.21202
 C290 C 0.89850 0.49062 0.21669
 C291 C 0.84144 0.49043 0.21627
 C292 C 0.84128 0.48260 0.25539
 C293 C 0.86963 0.51082 0.26038
 C294 C 0.86984 0.51894 0.22164
 H295 H 0.92151 0.48007 0.27234
 H296 H 0.86993 0.42724 0.26173
 H297 H 0.92188 0.49335 0.20030
 H298 H 0.81807 0.49338 0.19988
 H299 H 0.81775 0.47947 0.27150
 H300 H 0.86984 0.54585 0.21017
 C301 C 0.24402 0.09841 -0.01827
 C302 C 0.24845 0.12740 -0.04615
 C303 C 0.28749 0.12747 -0.03890
 C304 C 0.28366 0.09843 -0.01170
 C305 C 0.28360 0.15667 -0.01190
 C306 C 0.24394 0.15653 -0.01852
 C307 C 0.23979 0.12753 0.00899
 C308 C 0.27910 0.12761 0.01590
 H309 H 0.22742 0.07453 -0.02053
 H310 H 0.23647 0.12732 -0.07207
 H311 H 0.30046 0.07469 -0.00946
 H312 H 0.30001 0.18064 -0.00944
 H313 H 0.22742 0.18043 -0.02117
 H314 H 0.29131 0.12766 0.04171
 C315 C 0.73439 0.59711 0.49680
 C316 C 0.74325 0.59752 0.53564
 C317 C 0.71590 0.62650 0.54060
 C318 C 0.70645 0.62601 0.50240
 C319 C 0.74277 0.65576 0.53495
 C320 C 0.77068 0.62679 0.52929
 C321 C 0.76157 0.62632 0.49081
 C322 C 0.73398 0.65523 0.49611
 H323 H 0.73107 0.57298 0.48093
 H324 H 0.74693 0.57377 0.55202
 H325 H 0.67966 0.62569 0.49198
 H326 H 0.74568 0.67971 0.55115
 H327 H 0.79738 0.62714 0.53995
 H328 H 0.73051 0.67887 0.47952
 C329 C 0.74387 0.39922 0.01818
 C330 C 0.74882 0.36977 0.04552
 C331 C 0.78779 0.37024 0.03799
 C332 C 0.78344 0.39971 0.01131
 C333 C 0.78395 0.34148 0.01054
 C334 C 0.74434 0.34110 0.01743
 C335 C 0.73968 0.37055 -0.00955
 C336 C 0.77892 0.37099 -0.01673
 H337 H 0.72707 0.42288 0.02097
 H338 H 0.73707 0.36927 0.07153
 H339 H 0.80000 0.42365 0.00936
 H340 H 0.80059 0.31773 0.00757
 H341 H 0.72805 0.31700 0.01976
 H342 H 0.79091 0.37153 -0.04263
 C343 C 0.25365 0.84227 0.48319
 C344 C 0.21399 0.84259 0.48974
 C345 C 0.21043 0.87178 0.46259
 C346 C 0.24947 0.87139 0.45541
 C347 C 0.21456 0.90082 0.48965
 C348 C 0.21880 0.87165 0.51740
 C349 C 0.25810 0.87127 0.51057
 C350 C 0.25420 0.90039 0.48315
 H351 H 0.26991 0.81818 0.48069
 H352 H 0.19733 0.81880 0.49229
 H353 H 0.26146 0.87129 0.42951
 H354 H 0.19801 0.92475 0.49174
 H355 H 0.20658 0.87178 0.54320
 H356 H 0.27105 0.92407 0.48079
   
