data_POSCAR
  _audit_creation_date              2014-09-24
  _audit_creation_method            'ToBaCCo'
  _symmetry_space_group_name_H-M    'P1'
  _symmetry_Int_Tables_number       1
  _symmetry_cell_setting            triclinic
  loop_
  _symmetry_equiv_pos_as_xyz
 x,y,z
_cell_length_a 33.3115
_cell_length_b 33.9524
_cell_length_c 31.0465
_cell_angle_alpha 89.475900
_cell_angle_beta 87.660300
_cell_angle_gamma 93.356800
loop_
  _atom_site_label
  _atom_site_type_symbol
  _atom_site_fract_x
  _atom_site_fract_y
  _atom_site_fract_z
C1 C 0.28747 0.45320 0.97814
 C2 C 0.25960 0.44658 1.01863
 C3 C 0.23629 0.47775 1.02809
 C4 C 0.24332 0.51259 0.99575
 C5 C 0.25925 0.46299 0.94246
 C6 C 0.23609 0.49420 0.95100
 C7 C 0.31135 0.49194 0.98641
 C8 C 0.28897 0.52324 0.99568
 H9 H 0.25860 0.41936 1.03715
 H10 H 0.22465 0.53757 1.00375
 H11 H 0.25559 0.44467 0.91423
 H12 H 0.34387 0.49356 0.98868
 C13 C 0.71711 0.54403 0.03163
 C14 C 0.74097 0.53514 0.07139
 C15 C 0.76408 0.50301 0.06722
 C16 C 0.76045 0.48269 0.02285
 C17 C 0.74905 0.54809 -0.00558
 C18 C 0.77237 0.51624 -0.01000
 C19 C 0.69325 0.50563 0.02272
 C20 C 0.71507 0.47340 0.01789
 H21 H 0.74432 0.55620 0.09726
 H22 H 0.77811 0.45631 0.01901
 H23 H 0.75254 0.57393 -0.02650
 H24 H 0.66135 0.50480 0.01632
 C25 C 0.04917 0.21256 0.51924
 C26 C 0.04543 0.23383 0.47873
 C27 C 0.01087 0.25761 0.47758
 C28 C -0.01306 0.25561 0.51847
 C29 C 0.04945 0.24440 0.55388
 C30 C 0.01730 0.26787 0.55328
 C31 C 0.00881 0.18950 0.52720
 C32 C -0.02427 0.21122 0.52668
 H33 H 0.06949 0.23581 0.45400
 H34 H -0.03991 0.27333 0.51954
 H35 H 0.07313 0.24763 0.57675
 H36 H 0.00656 0.15747 0.52666
 C37 C 0.94273 0.78613 0.48690
 C38 C 0.95125 0.75984 0.44791
 C39 C 0.98450 0.73799 0.45139
 C40 C 1.00580 0.74463 0.49446
 C41 C 0.93949 0.75750 0.52560
 C42 C 0.97224 0.73518 0.52955
 C43 C 0.98211 0.81041 0.49234
 C44 C 1.01519 0.78953 0.49689
 H45 H 0.93013 0.75542 0.42244
 H46 H 1.03255 0.72738 0.49853
 H47 H 0.91346 0.75590 0.54774
 H48 H 0.98410 0.84242 0.48967
 C49 C 0.50133 0.06954 0.19340
 C50 C 0.46826 0.07382 0.22873
 C51 C 0.46639 0.04436 0.25932
 C52 C 0.49755 0.01320 0.25089
 C53 C 0.54017 0.06684 0.21803
 C54 C 0.53860 0.03677 0.24783
 C55 C 0.49342 0.03036 0.17609
 C56 C 0.49049 -0.00103 0.20747
 H57 H 0.44640 0.09617 0.22711
 H58 H 0.49598 -0.01025 0.27598
 H59 H 0.56545 0.08836 0.21389
 H60 H 0.49479 0.02488 0.14166
 C61 C 0.49476 -0.07025 0.79351
 C62 C 0.46157 -0.07545 0.76088
 C63 C 0.46246 -0.04622 0.73020
 C64 C 0.49644 -0.01414 0.73562
 C65 C 0.53416 -0.06625 0.76596
 C66 C 0.53542 -0.03639 0.73589
 C67 C 0.48996 -0.02897 0.81199
 C68 C 0.49032 0.00061 0.78192
 H69 H 0.43766 -0.09845 0.76442
 H70 H 0.49702 0.00961 0.71087
 H71 H 0.55779 -0.08665 0.76883
 H72 H 0.49079 -0.02340 0.84631
 C73 C 0.31615 0.03071 0.45743
 H74 H 0.31820 0.04819 0.48630
 C75 C 0.34416 0.03761 0.42333
 H76 H 0.36784 0.06058 0.42619
 C77 C 0.28342 -0.02132 0.41953
 H78 H 0.26011 -0.04475 0.41864
 C79 C 0.31096 -0.01552 0.38461
 H80 H 0.30789 -0.03506 0.35765
 N81 N 0.28637 0.00189 0.45481
 C82 C 0.19100 0.03653 0.54339
 H83 H 0.18656 0.01025 0.56341
 C84 C 0.16539 0.06737 0.54893
 H85 H 0.14084 0.06348 0.57268
 C86 C 0.22598 0.07065 0.48517
 H87 H 0.24867 0.07134 0.45931
 C88 C 0.20131 0.10236 0.48987
 H89 H 0.20527 0.12682 0.46720
 Zn90 Zn 0.25157 -0.00612 0.50367
 N91 N 0.22053 0.03859 0.51186
 C92 C 0.28370 0.01025 0.58553
 N93 N 0.28458 -0.01339 0.55048
 C94 C 0.31177 -0.04147 0.54591
 C95 C 0.33941 -0.04688 0.57754
 C96 C 0.31088 0.00586 0.61809
 C97 C 0.18782 -0.04868 0.46710
 C98 C 0.15868 -0.07935 0.46252
 C99 C 0.18890 -0.11558 0.51875
 C100 C 0.21738 -0.08395 0.52251
 N101 N 0.21623 -0.05129 0.49692
 H102 H 0.26255 0.03315 0.58787
 H103 H 0.31235 -0.05923 0.51716
 H104 H 0.36124 -0.06905 0.57292
 H105 H 0.30980 0.02589 0.64478
 H106 H 0.18696 -0.02201 0.44790
 H107 H 0.13500 -0.07508 0.44043
 H108 H 0.18917 -0.14025 0.54101
 H109 H 0.23946 -0.08506 0.54694
 C110 C 0.17058 0.10134 0.52233
 C111 C 0.34193 0.01449 0.38607
 C112 C 0.15895 -0.11375 0.48828
 C113 C 0.33933 -0.02321 0.61448
 C114 C 0.67897 0.02749 0.53916
 H115 H 0.67455 0.04954 0.51470
 C116 C 0.65181 0.02260 0.57447
 H117 H 0.62623 0.04083 0.57649
 C118 C 0.71614 -0.02495 0.56402
 H119 H 0.74089 -0.04388 0.55935
 C120 C 0.68976 -0.03081 0.59989
 H121 H 0.69430 -0.05498 0.62170
 N122 N 0.71025 0.00375 0.53455
 C123 C 0.80508 0.06276 0.45283
 H124 H 0.80612 0.04225 0.42638
 C125 C 0.83403 0.09398 0.45434
 H126 H 0.85727 0.09576 0.42907
 C127 C 0.77554 0.08118 0.51967
 H128 H 0.75338 0.07538 0.54570
 C129 C 0.80371 0.11327 0.52222
 H130 H 0.80326 0.13146 0.55069
 Zn131 Zn 0.74349 0.00892 0.48400
 N132 N 0.77731 0.05616 0.48574
 C133 C 0.71395 0.04205 0.40812
 N134 N 0.70959 0.01130 0.43663
 C135 C 0.67879 -0.01655 0.43403
 C136 C 0.65171 -0.01485 0.40104
 C137 C 0.68760 0.04488 0.37463
 C138 C 0.81596 -0.03008 0.48525
 C139 C 0.84068 -0.06172 0.48414
 C140 C 0.78267 -0.10566 0.47271
 C141 C 0.75894 -0.07284 0.47351
 N142 N 0.77581 -0.03586 0.47969
 H143 H 0.73714 0.06512 0.41177
 H144 H 0.67423 -0.03929 0.45859
 H145 H 0.62665 -0.03657 0.40089
 H146 H 0.69104 0.07034 0.35329
 H147 H 0.82898 -0.00101 0.49170
 H148 H 0.87256 -0.05618 0.48878
 H149 H 0.76819 -0.13449 0.46810
 H150 H 0.72692 -0.07722 0.47002
 C151 C 0.83426 0.11965 0.48978
 C152 C 0.65729 -0.00645 0.60600
 C153 C 0.82429 -0.10036 0.47836
 C154 C 0.65647 0.01565 0.36995
 C155 C 0.50187 0.18884 0.97953
 H156 H 0.49603 0.17562 0.94873
 C157 C 0.50089 0.16511 1.01629
 H158 H 0.49468 0.13360 1.01325
 C159 C 0.51667 0.24577 1.02093
 H160 H 0.52279 0.27738 1.02219
 C161 C 0.51588 0.22304 1.05874
 H162 H 0.52172 0.23785 1.08860
 N163 N 0.50972 0.22837 0.98244
 C164 C 0.45494 0.31067 0.89795
 H165 H 0.47479 0.31141 0.86945
 C166 C 0.42274 0.33526 0.90045
 H167 H 0.41824 0.35398 0.87304
 C168 C 0.43679 0.28388 0.96706
 H169 H 0.44218 0.26386 0.99310
 C170 C 0.40408 0.30762 0.97074
 H171 H 0.38491 0.30565 0.99980
 Zn172 Zn 0.51074 0.25955 0.93191
 N173 N 0.46263 0.28719 0.93196
 C174 C 0.48049 0.21492 0.86276
 N175 N 0.51399 0.22561 0.88438
 C176 C 0.54837 0.20638 0.87865
 C177 C 0.54900 0.17281 0.85330
 C178 C 0.47988 0.18163 0.83666
 C179 C 0.55451 0.33331 0.92295
 C180 C 0.58631 0.36042 0.93044
 C181 C 0.62407 0.30755 0.95734
 C182 C 0.59136 0.28129 0.94921
 N183 N 0.55718 0.29461 0.93300
 H184 H 0.45316 0.23003 0.86865
 H185 H 0.57433 0.21492 0.89682
 H186 H 0.57581 0.15650 0.85316
 H187 H 0.45191 0.17165 0.82259
 H188 H 0.52703 0.34374 0.91119
 H189 H 0.58216 0.39140 0.92479
 H190 H 0.64961 0.29650 0.97296
 H191 H 0.59236 0.25060 0.95848
 C192 C 0.39812 0.33575 0.93848
 C193 C 0.50779 0.18197 1.05674
 C194 C 0.62165 0.34794 0.94843
 C195 C 0.51391 0.15896 0.83309
 C196 C 0.47069 0.80321 0.00525
 H197 H 0.45608 0.81148 0.03530
 C198 C 0.46945 0.82753 -0.03086
 H199 H 0.45457 0.85490 -0.02767
 C200 C 0.51056 0.75905 -0.03368
 H201 H 0.52745 0.73287 -0.03430
 C202 C 0.50961 0.78237 -0.07095
 H203 H 0.52650 0.77394 -0.09953
 N204 N 0.49096 0.76968 0.00333
 C205 C 0.44456 0.67543 0.08674
 H206 H 0.47111 0.66887 0.10377
 C207 C 0.41275 0.64695 0.08458
 H208 H 0.41612 0.61855 0.09957
 C209 C 0.41149 0.71844 0.04146
 H210 H 0.41181 0.74560 0.02307
 C211 C 0.37883 0.69100 0.03879
 H212 H 0.35491 0.69740 0.01771
 Zn213 Zn 0.49276 0.74104 0.05561
 N214 N 0.44406 0.70971 0.06398
 C215 C 0.47165 0.78182 0.13216
 N216 N 0.49914 0.77858 0.09905
 C217 C 0.52952 0.80641 0.09133
 C218 C 0.53230 0.84009 0.11625
 C219 C 0.47324 0.81530 0.15809
 C220 C 0.53362 0.67618 0.02764
 C221 C 0.56524 0.65132 0.02314
 C222 C 0.60358 0.69304 0.07099
 C223 C 0.57078 0.71680 0.07523
 N224 N 0.53699 0.70846 0.05295
 H225 H 0.44702 0.75978 0.13666
 H226 H 0.55000 0.80367 0.06370
 H227 H 0.55492 0.86303 0.10677
 H228 H 0.44918 0.81867 0.18198
 H229 H 0.50609 0.66965 0.01109
 H230 H 0.56106 0.62507 0.00395
 H231 H 0.62974 0.69990 0.08963
 H232 H 0.57248 0.74178 0.09644
 C233 C 0.37953 0.65404 0.05942
 C234 C 0.48820 0.81689 -0.07012
 C235 C 0.60154 0.66026 0.04371
 C236 C 0.50370 0.84543 0.15008
 C237 C 1.05585 0.45929 0.19673
 H238 H 1.03218 0.43604 0.19805
 C239 C 1.08761 0.45794 0.16616
 H240 H 1.08812 0.43341 0.14413
 C241 C 1.08282 0.52004 0.22293
 H242 H 1.08032 0.54470 0.24441
 C243 C 1.11523 0.51992 0.19271
 H244 H 1.13685 0.54482 0.19209
 N245 N 1.05406 0.48987 0.22456
 C246 C 0.97413 0.43875 0.32889
 H247 H 0.95040 0.45920 0.32977
 C248 C 0.97230 0.40667 0.35771
 H249 H 0.94724 0.40360 0.38096
 C250 C 1.03685 0.42045 0.29947
 H251 H 1.06257 0.42644 0.27759
 C252 C 1.03629 0.38811 0.32771
 H253 H 1.06185 0.36982 0.32709
 Zn254 Zn 1.00753 0.48952 0.26230
 N255 N 1.00579 0.44475 0.30008
 C256 C 0.93270 0.45906 0.22805
 N257 N 0.96290 0.48785 0.22603
 C258 C 0.96308 0.51785 0.19679
 C259 C 0.93167 0.52048 0.16880
 C260 C 0.90068 0.46035 0.20025
 C261 C 1.03732 0.54506 0.32308
 C262 C 1.03708 0.57895 0.34850
 C263 C 0.97339 0.59332 0.31960
 C264 C 0.97489 0.55930 0.29477
 N265 N 1.00684 0.53620 0.29631
 H266 H 0.93320 0.43524 0.25130
 H267 H 0.98742 0.54043 0.19597
 H268 H 0.93223 0.54604 0.14786
 H269 H 0.87645 0.43768 0.20301
 H270 H 1.06183 0.52563 0.32484
 H271 H 1.06139 0.58437 0.37000
 H272 H 0.94737 0.61089 0.31812
 H273 H 0.95003 0.55117 0.27480
 C274 C 1.00323 0.37996 0.35683
 C275 C 1.11815 0.48840 0.16365
 C276 C 1.00505 0.60423 0.34646
 C277 C 0.89997 0.49111 0.16955
 C278 C -0.04644 0.48016 0.82454
 H279 H -0.02290 0.45951 0.82465
 C280 C -0.07584 0.47914 0.85796
 H281 H -0.07494 0.45653 0.88248
 C282 C -0.07569 0.53387 0.79120
 H283 H -0.07520 0.55557 0.76549
 C284 C -0.10574 0.53384 0.82392
 H285 H -0.12857 0.55519 0.82251
 N286 N -0.04661 0.50746 0.79228
 C287 C 0.02373 0.46449 0.68274
 H288 H 0.04369 0.49032 0.67616
 C289 C 0.02545 0.43178 0.65598
 H290 H 0.04673 0.43293 0.62863
 C291 C -0.02910 0.43252 0.72553
 H292 H -0.05092 0.43323 0.75217
 C293 C -0.02806 0.39889 0.69985
 H294 H -0.04969 0.37463 0.70729
 Zn295 Zn -0.00245 0.51004 0.75176
 N296 N -0.00283 0.46412 0.71715
 C297 C 0.07233 0.48615 0.78020
 N298 N 0.04467 0.51389 0.78420
 C299 C 0.04789 0.54247 0.81449
 C300 C 0.07982 0.54385 0.84246
 C301 C 0.10467 0.48643 0.80740
 C302 C -0.03442 0.55280 0.68547
 C303 C -0.03762 0.58376 0.65619
 C304 C 0.02024 0.61745 0.68657
 C305 C 0.02254 0.58558 0.71512
 N306 N -0.00492 0.55434 0.71444
 H307 H 0.06878 0.46303 0.75676
 H308 H 0.02487 0.56356 0.81777
 H309 H 0.08046 0.56624 0.86687
 H310 H 0.12583 0.46348 0.80428
 H311 H -0.05535 0.52723 0.68495
 H312 H -0.06106 0.58154 0.63303
 H313 H 0.04308 0.64126 0.68755
 H314 H 0.04652 0.58574 0.73752
 C315 C 0.00027 0.39769 0.66499
 C316 C -0.10543 0.50713 0.85885
 C317 C -0.01065 0.61723 0.65687
 C318 C 0.10892 0.51543 0.83929
 C319 C 0.08414 0.18416 0.52024
 C320 C 0.12721 0.20252 0.51253
 C321 C 0.15629 0.17570 0.51406
 C322 C 0.13969 0.13277 0.52303
 C323 C 0.11438 0.13578 0.56540
 C324 C 0.08544 0.16222 0.56379
 C325 C 0.08040 0.15131 0.48651
 C326 C 0.10901 0.12464 0.48821
 H327 H 0.13423 0.23385 0.50723
 H328 H 0.18812 0.18444 0.51044
 H329 H 0.12045 0.12110 0.59539
 H330 H 0.06658 0.16865 0.59190
 H331 H 0.05727 0.14948 0.46284
 H332 H 0.11007 0.10005 0.46615
 C333 C 0.68817 0.57807 0.03564
 C334 C 0.70619 0.61921 0.04708
 C335 C 0.67839 0.64742 0.04960
 C336 C 0.63499 0.63170 0.04048
 C337 C 0.63948 0.61290 -0.00421
 C338 C 0.66674 0.58489 -0.00660
 C339 C 0.65404 0.56945 0.07001
 C340 C 0.62636 0.59710 0.07218
 H341 H 0.73801 0.62580 0.05153
 H342 H 0.68704 0.67812 0.05554
 H343 H 0.62412 0.62220 -0.03241
 H344 H 0.67372 0.57001 -0.03656
 H345 H 0.65221 0.54387 0.09139
 H346 H 0.60094 0.59501 0.09529
 C347 C 0.90766 -0.18587 0.48357
 C348 C 0.90341 -0.16029 0.52404
 C349 C 0.87492 -0.13362 0.52205
 C350 C 0.85264 -0.13399 0.47971
 C351 C 0.88579 -0.12933 0.44387
 C352 C 0.91421 -0.15623 0.44574
 C353 C 0.86497 -0.20448 0.47798
 C354 C 0.83603 -0.17740 0.47591
 H355 H 0.92087 -0.16359 0.55250
 H356 H 0.86811 -0.11446 0.54887
 H357 H 0.88623 -0.10724 0.41831
 H358 H 0.93881 -0.15696 0.42176
 H359 H 0.85812 -0.23603 0.47589
 H360 H 0.80471 -0.18660 0.47216
 C361 C 0.31615 0.42006 0.96693
 C362 C 0.34602 0.41301 1.00230
 C363 C 0.37316 0.38600 0.99196
 C364 C 0.36791 0.36716 0.94741
 C365 C 0.32354 0.35131 0.94819
 C366 C 0.29651 0.37894 0.95832
 C367 C 0.34289 0.43003 0.92619
 C368 C 0.36989 0.40284 0.91612
 H369 H 0.34608 0.42837 1.03282
 H370 H 0.39657 0.37894 1.01360
 H371 H 0.31424 0.32096 0.94115
 H372 H 0.26423 0.37217 0.96003
 H373 H 0.34153 0.45708 0.90750
 H374 H 0.39160 0.40814 0.88954
 C375 C 0.93568 0.18979 0.51747
 C376 C 0.92851 0.15116 0.54372
 C377 C 0.89540 0.12897 0.53327
 C378 C 0.87086 0.14725 0.49831
 C379 C 0.86251 0.18878 0.51543
 C380 C 0.89655 0.21110 0.52549
 C381 C 0.93468 0.17760 0.47004
 C382 C 0.90102 0.15584 0.45985
 H383 H 0.94709 0.14262 0.56978
 H384 H 0.88646 0.10135 0.54989
 H385 H 0.83261 0.19971 0.51906
 H386 H 0.89548 0.24072 0.53810
 H387 H 0.95725 0.18795 0.44565
 H388 H 0.89517 0.14954 0.42649
 C389 C 0.30979 0.56014 0.01353
 C390 C 0.32530 0.55262 0.05867
 C391 C 0.34703 0.58370 0.07502
 C392 C 0.35203 0.61987 0.04458
 C393 C 0.36931 0.60430 0.00191
 C394 C 0.34728 0.57370 -0.01443
 C395 C 0.28616 0.59759 0.01854
 C396 C 0.30825 0.62888 0.03500
 H397 H 0.31784 0.52573 0.07722
 H398 H 0.35688 0.58324 0.10787
 H399 H 0.39629 0.61714 -0.01484
 H400 H 0.35535 0.56086 -0.04527
 H401 H 0.25506 0.59964 0.01020
 H402 H 0.29550 0.65704 0.04131
 C403 C 0.05612 -0.18824 0.49524
 C404 C 0.06675 -0.17128 0.44991
 C405 C 0.10133 -0.14804 0.44701
 C406 C 0.12252 -0.14308 0.48995
 C407 C 0.09054 -0.12884 0.52205
 C408 C 0.05638 -0.15237 0.52522
 C409 C 0.09360 -0.20973 0.50731
 C410 C 0.12852 -0.18607 0.50442
 H411 H 0.04959 -0.17882 0.42183
 H412 H 0.11373 -0.13662 0.41622
 H413 H 0.09502 -0.10296 0.54200
 H414 H 0.03206 -0.14663 0.54825
 H415 H 0.09311 -0.24054 0.51693
 H416 H 0.15756 -0.19726 0.51078
 C417 C 0.69437 0.43684 0.99927
 C418 C 0.71626 0.39819 0.99596
 C419 C 0.69350 0.36775 0.97845
 C420 C 0.65098 0.37905 0.96616
 C421 C 0.63256 0.39548 1.00781
 C422 C 0.65513 0.42511 1.02518
 C423 C 0.68172 0.44488 0.95309
 C424 C 0.65943 0.41483 0.93579
 H425 H 0.74678 0.39490 1.00569
 H426 H 0.70539 0.33914 0.97269
 H427 H 0.60453 0.38369 1.02333
 H428 H 0.64635 0.43833 1.05561
 H429 H 0.69060 0.47171 0.93500
 H430 H 0.65001 0.41592 0.90275
 C431 C 0.50342 0.10193 1.15788
 C432 C 0.46453 0.10290 1.13288
 C433 C 0.46614 0.13032 1.10077
 C434 C 0.50653 0.15461 1.09579
 C435 C 0.51266 0.17220 1.14103
 C436 C 0.51103 0.14453 1.17339
 C437 C 0.53701 0.09666 1.12326
 C438 C 0.53860 0.12402 1.09109
 H439 H 0.43768 0.08402 1.14042
 H440 H 0.44056 0.13489 1.08110
 H441 H 0.51738 0.20327 1.14793
 H442 H 0.51452 0.15225 1.20693
 H443 H 0.55825 0.07364 1.12440
 H444 H 0.56127 0.12434 1.06493
 C445 C -0.02404 0.70391 0.56446
 C446 C -0.00748 0.66551 0.54722
 C447 C -0.00258 0.63781 0.57816
 C448 C -0.01464 0.65043 0.62407
 C449 C 0.00997 0.68983 0.63039
 C450 C 0.00511 0.71747 0.59916
 C451 C -0.06323 0.69022 0.58988
 C452 C -0.05816 0.66281 0.62109
 H453 H 0.00041 0.66052 0.51360
 H454 H 0.00933 0.60946 0.57067
 H455 H 0.02801 0.69680 0.65784
 H456 H 0.01961 0.74692 0.59993
 H457 H -0.09286 0.69990 0.58360
 H458 H -0.08316 0.65068 0.64155
 C459 C 0.49312 0.89763 -0.17076
 C460 C 0.52530 0.90473 -0.13710
 C461 C 0.52321 0.87759 -0.10463
 C462 C 0.48943 0.84523 -0.10837
 C463 C 0.45069 0.86739 -0.11251
 C464 C 0.45279 0.89488 -0.14459
 C465 C 0.49852 0.85524 -0.18621
 C466 C 0.49648 0.82776 -0.15366
 H467 H 0.54812 0.92893 -0.13894
 H468 H 0.54421 0.87871 -0.07876
 H469 H 0.42313 0.86082 -0.09327
 H470 H 0.42740 0.91210 -0.15183
 H471 H 0.50226 0.84740 -0.21989
 H472 H 0.49774 0.79652 -0.16010
 C473 C 1.00772 0.28840 0.44538
 C474 C 0.96669 0.30032 0.43954
 C475 C 0.96446 0.33174 0.40871
 C476 C 1.00368 0.34545 0.38914
 C477 C 1.02885 0.35568 0.42524
 C478 C 1.03117 0.32444 0.45598
 C479 C 1.02204 0.27823 0.40186
 C480 C 1.01979 0.30962 0.37093
 H481 H 0.93977 0.28313 0.45100
 H482 H 0.93580 0.33875 0.39612
 H483 H 1.04483 0.38422 0.42870
 H484 H 1.04934 0.32759 0.48417
 H485 H 1.02953 0.24878 0.39224
 H486 H 1.02557 0.30523 0.33669
 C487 C 0.49288 0.95838 0.19474
 C488 C 0.47179 0.94905 0.15534
 C489 C 0.47621 0.90981 0.14100
 C490 C 0.50017 0.88647 0.16887
 C491 C 0.53863 0.90914 0.17230
 C492 C 0.53456 0.94873 0.18599
 C493 C 0.47629 0.92849 0.22610
 C494 C 0.48072 0.88869 0.21195
 H495 H 0.45102 0.96804 0.14048
 H496 H 0.46017 0.89786 0.11380
 H497 H 0.56784 0.89657 0.16959
 H498 H 0.56052 0.96840 0.19232
 H499 H 0.46049 0.93487 0.25626
 H500 H 0.47118 0.86335 0.23214
 C501 C 0.01263 0.30276 0.58327
 C502 C -0.00793 0.33780 0.56373
 C503 C -0.01248 0.36834 0.59130
 C504 C 0.00393 0.36168 0.63620
 C505 C -0.01716 0.32216 0.65222
 C506 C -0.01269 0.29169 0.62446
 C507 C 0.05253 0.32142 0.59936
 C508 C 0.04791 0.35154 0.62727
 H509 H -0.01775 0.33902 0.53091
 H510 H -0.02636 0.39508 0.58189
 H511 H -0.03250 0.31737 0.68341
 H512 H -0.02494 0.26194 0.63186
 H513 H 0.08218 0.31291 0.58880
 H514 H 0.07353 0.36722 0.64118
 C515 C 0.49595 0.04352 0.79421
 C516 C 0.47576 0.05344 0.83784
 C517 C 0.48290 0.09139 0.84976
 C518 C 0.50891 0.11689 0.81690
 C519 C 0.54754 0.09447 0.80940
 C520 C 0.54058 0.05622 0.79807
 C521 C 0.48012 0.07355 0.76250
 C522 C 0.48709 0.11195 0.77427
 H523 H 0.45599 0.03300 0.85704
 H524 H 0.46992 0.10273 0.87948
 H525 H 0.57795 0.10761 0.80927
 H526 H 0.56490 0.03719 0.79035
 H527 H 0.46412 0.06551 0.73383
 H528 H 0.47777 0.13645 0.75513
 C529 C 0.99170 0.70295 0.42240
 C530 C 0.96414 0.66668 0.43557
 C531 C 0.96952 0.63451 0.41076
 C532 C 1.00192 0.64095 0.37433
 C533 C 0.98956 0.67756 0.34938
 C534 C 0.98419 0.70980 0.37441
 C535 C 1.03468 0.68849 0.42203
 C536 C 1.04005 0.65620 0.39711
 H537 H 0.94203 0.66640 0.46228
 H538 H 0.95212 0.60678 0.41651
 H539 H 0.98662 0.67846 0.31469
 H540 H 0.97673 0.73794 0.36095
 H541 H 1.05986 0.70429 0.43651
 H542 H 1.06981 0.64565 0.39113
 C543 C 1.20567 0.47944 0.06574
 C544 C 1.21442 0.51487 0.09508
 C545 C 1.18645 0.51870 0.12782
 C546 C 1.15158 0.48656 0.12856
 C547 C 1.13497 0.48848 0.08313
 C548 C 1.16300 0.48470 0.05059
 C549 C 1.20103 0.44373 0.09698
 C550 C 1.17301 0.44760 0.12964
 H551 H 1.24097 0.53485 0.09106
 H552 H 1.19041 0.54177 0.15133
 H553 H 1.10366 0.49284 0.07706
 H554 H 1.15544 0.48574 0.01697
 H555 H 1.21851 0.41788 0.09491
 H556 H 1.16715 0.42518 0.15462
 C557 C 0.56954 -0.02823 0.70266
 C558 C 0.56060 -0.04758 0.65942
 C559 C 0.58993 -0.04022 0.62823
 C560 C 0.62599 -0.01407 0.64267
 C561 C 0.60762 0.02329 0.66076
 C562 C 0.57815 0.01589 0.69190
 C563 C 0.61086 -0.04236 0.71442
 C564 C 0.64032 -0.03491 0.68319
 H565 H 0.53352 -0.06591 0.65391
 H566 H 0.58779 -0.05220 0.59604
 H567 H 0.61825 0.05315 0.65166
 H568 H 0.56378 0.03953 0.70864
 H569 H 0.61750 -0.05402 0.74580
 H570 H 0.67148 -0.04017 0.68888
 C571 C -0.19389 0.51395 0.95580
 C572 C -0.20847 0.49595 0.91369
 C573 C -0.17899 0.49343 0.88237
 C574 C -0.13710 0.50901 0.89561
 C575 C -0.14294 0.55132 0.91125
 C576 C -0.17248 0.55393 0.94251
 C577 C -0.15927 0.48877 0.96876
 C578 C -0.12968 0.48616 0.93754
 H579 H -0.23946 0.48591 0.90888
 H580 H -0.18490 0.48116 0.85094
 H581 H -0.12402 0.57687 0.90031
 H582 H -0.17810 0.58166 0.95807
 H583 H -0.15627 0.47670 1.00084
 H584 H -0.10213 0.47234 0.94442
 C585 C 0.43254 0.03765 0.29296
 C586 C 0.40104 0.00610 0.27889
 C587 C 0.37048 -0.00216 0.30855
 C588 C 0.37415 0.02191 0.35032
 C589 C 0.41621 0.01408 0.36598
 C590 C 0.44661 0.02255 0.33628
 C591 C 0.40834 0.07354 0.30490
 C592 C 0.37771 0.06518 0.33453
 H593 H 0.40211 -0.00787 0.24757
 H594 H 0.34580 -0.02281 0.30128
 H595 H 0.42166 0.00316 0.39808
 H596 H 0.47788 0.01930 0.34339
 H597 H 0.41512 0.10323 0.29251
 H598 H 0.35815 0.08757 0.34628
 C599 C 0.20186 0.50282 0.92208
 C600 C 0.16783 0.47034 0.92563
 C601 C 0.13730 0.47561 0.89891
 C602 C 0.14299 0.51297 0.87047
 C603 C 0.15012 0.54689 0.90274
 C604 C 0.18088 0.54153 0.92961
 C605 C 0.21492 0.50475 0.87394
 C606 C 0.18435 0.51004 0.84715
 H607 H 0.16766 0.44532 0.94769
 H608 H 0.11105 0.45512 0.89836
 H609 H 0.13498 0.57424 0.90284
 H610 H 0.19084 0.56433 0.95160
 H611 H 0.24589 0.50336 0.86199
 H612 H 0.18939 0.51311 0.81249
 C613 C 0.57136 0.03047 0.27907
 C614 C 0.57539 -0.01301 0.29175
 C615 C 0.60378 -0.01846 0.32119
 C616 C 0.62574 0.02013 0.33565
 C617 C 0.64266 0.03925 0.29290
 C618 C 0.61428 0.04473 0.26342
 C619 C 0.56389 0.05173 0.32171
 C620 C 0.59216 0.04636 0.35115
 H621 H 0.55942 -0.03770 0.27678
 H622 H 0.61180 -0.04777 0.33045
 H623 H 0.67448 0.04537 0.28514
 H624 H 0.62233 0.05545 0.23101
 H625 H 0.53851 0.06979 0.32812
 H626 H 0.59082 0.05973 0.38277
 C627 C 0.80006 0.49857 0.09509
 C628 C 0.81569 0.45683 0.09730
 C629 C 0.84918 0.45443 0.12091
 C630 C 0.86394 0.49382 0.14090
 C631 C 0.86979 0.52225 0.10174
 C632 C 0.83647 0.52491 0.07839
 C633 C 0.79355 0.50995 0.14261
 C634 C 0.82685 0.50769 0.16628
 H635 H 0.80139 0.43115 0.08245
 H636 H 0.86367 0.42692 0.12508
 H637 H 0.89818 0.53675 0.09056
 H638 H 0.83670 0.54269 0.04913
 H639 H 0.76493 0.51795 0.15689
 H640 H 0.82657 0.51429 0.20044
 C641 C 0.42904 -0.04106 0.69941
 C642 C 0.40293 -0.07852 0.68927
 C643 C 0.37264 -0.07197 0.66250
 C644 C 0.37130 -0.02878 0.64730
 C645 C 0.36887 -0.00526 0.68958
 C646 C 0.39910 -0.01167 0.71647
 C647 C 0.44391 -0.02465 0.65495
 C648 C 0.41385 -0.01803 0.62796
 H649 H 0.40828 -0.10795 0.70067
 H650 H 0.35190 -0.09563 0.65236
 H651 H 0.34499 0.01346 0.69926
 H652 H 0.40087 0.00208 0.74784
 H653 H 0.47539 -0.01928 0.64508
 H654 H 0.41983 -0.00657 0.59542
   
