data_POSCAR
  _audit_creation_date              2014-09-24
  _audit_creation_method            'ToBaCCo'
  _symmetry_space_group_name_H-M    'P1'
  _symmetry_Int_Tables_number       1
  _symmetry_cell_setting            triclinic
  loop_
  _symmetry_equiv_pos_as_xyz
 x,y,z
_cell_length_a 61.6614
_cell_length_b 61.8599
_cell_length_c 61.2859
_cell_angle_alpha 89.784400
_cell_angle_beta 89.987600
_cell_angle_gamma 90.143700
loop_
  _atom_site_label
  _atom_site_type_symbol
  _atom_site_fract_x
  _atom_site_fract_y
  _atom_site_fract_z
N1 N 0.27157 0.23481 0.21186
 N2 N 0.26156 0.25172 0.20365
 C3 C 0.27319 0.25950 0.18671
 C4 C 0.29138 0.24673 0.18426
 C5 C 0.28985 0.23123 0.20046
 H6 H 0.26888 0.27345 0.17697
 H7 H 0.30127 0.21838 0.20375
 Cu8 Cu 0.23450 0.26215 0.21606
 Cu9 Cu 0.26040 0.21880 0.23682
 Cu10 Cu 0.21311 0.23772 0.26039
 N11 N 0.20836 0.27288 0.23010
 N12 N 0.20015 0.26334 0.24745
 C13 C 0.18255 0.27434 0.25410
 C14 C 0.17962 0.29169 0.24018
 C15 C 0.19625 0.29030 0.22513
 H16 H 0.17277 0.27022 0.26817
 H17 H 0.19941 0.30138 0.21181
 N18 N 0.22857 0.21200 0.27115
 N19 N 0.24660 0.20477 0.26217
 C20 C 0.25335 0.18722 0.27331
 C21 C 0.23886 0.18327 0.29004
 C22 C 0.22337 0.19924 0.28822
 H23 H 0.26781 0.17805 0.26970
 H24 H 0.20946 0.20144 0.29872
 H25 H 0.22815 0.22664 0.23243
 H26 H 0.24442 0.24482 0.25043
 N27 N 0.72676 -0.23400 0.21168
 N28 N 0.73677 -0.25113 0.20405
 C29 C 0.72550 -0.25897 0.18697
 C30 C 0.70752 -0.24601 0.18379
 C31 C 0.70884 -0.23031 0.19973
 H32 H 0.72989 -0.27312 0.17766
 H33 H 0.69749 -0.21732 0.20255
 Cu34 Cu 0.76328 -0.26183 0.21745
 Cu35 Cu 0.73731 -0.21807 0.23684
 Cu36 Cu 0.78363 -0.23749 0.26208
 N37 N 0.78890 -0.27278 0.23230
 N38 N 0.79674 -0.26325 0.24976
 C39 C 0.81414 -0.27431 0.25693
 C40 C 0.81732 -0.29171 0.24322
 C41 C 0.80105 -0.29026 0.22776
 H42 H 0.82364 -0.27011 0.27113
 H43 H 0.79820 -0.30125 0.21437
 N44 N 0.76809 -0.21161 0.27212
 N45 N 0.75045 -0.20417 0.26250
 C46 C 0.74346 -0.18662 0.27338
 C47 C 0.75737 -0.18291 0.29062
 C48 C 0.77279 -0.19900 0.28935
 H49 H 0.72918 -0.17735 0.26929
 H50 H 0.78625 -0.20143 0.30038
 H51 H 0.76959 -0.22635 0.23357
 H52 H 0.75253 -0.24422 0.25128
 N53 N 0.72683 0.23439 0.78696
 N54 N 0.73675 0.25168 0.79446
 C55 C 0.72543 0.25952 0.81149
 C56 C 0.70755 0.24639 0.81478
 C57 C 0.70894 0.23061 0.79896
 H58 H 0.72973 0.27375 0.82075
 H59 H 0.69765 0.21748 0.79628
 Cu60 Cu 0.76327 0.26232 0.78092
 Cu61 Cu 0.73754 0.21831 0.76193
 Cu62 Cu 0.78476 0.23707 0.73754
 N63 N 0.78976 0.27265 0.76712
 N64 N 0.79808 0.26272 0.75014
 C65 C 0.81595 0.27342 0.74346
 C66 C 0.81892 0.29103 0.75697
 C67 C 0.80206 0.29004 0.77184
 H68 H 0.82585 0.26893 0.72964
 H69 H 0.79886 0.30134 0.78486
 N70 N 0.76888 0.21138 0.72719
 N71 N 0.75089 0.20425 0.73646
 C72 C 0.74373 0.18683 0.72544
 C73 C 0.75788 0.18286 0.70848
 C74 C 0.77363 0.19868 0.71005
 H75 H 0.72917 0.17779 0.72924
 H76 H 0.78737 0.20086 0.69929
 H77 H 0.76981 0.22654 0.76581
 H78 H 0.75342 0.24399 0.74719
 N79 N 0.27223 -0.23446 0.78854
 N80 N 0.26190 -0.25130 0.79661
 C81 C 0.27311 -0.25908 0.81380
 C82 C 0.29136 -0.24638 0.81658
 C83 C 0.29030 -0.23091 0.80031
 H84 H 0.26853 -0.27303 0.82344
 H85 H 0.30195 -0.21818 0.79716
 Cu86 Cu 0.23511 -0.26179 0.78358
 Cu87 Cu 0.26184 -0.21866 0.76316
 Cu88 Cu 0.21507 -0.23768 0.73849
 N89 N 0.20933 -0.27262 0.76889
 N90 N 0.20161 -0.26322 0.75127
 C91 C 0.18415 -0.27429 0.74422
 C92 C 0.18081 -0.29158 0.75819
 C93 C 0.19704 -0.29003 0.77368
 H94 H 0.17475 -0.27023 0.72989
 H95 H 0.19983 -0.30096 0.78720
 N96 N 0.23098 -0.21205 0.72796
 N97 N 0.24884 -0.20482 0.73734
 C98 C 0.25604 -0.18738 0.72623
 C99 C 0.24202 -0.18351 0.70910
 C100 C 0.22633 -0.19940 0.71066
 H101 H 0.27048 -0.17824 0.73015
 H102 H 0.21267 -0.20163 0.69983
 H103 H 0.22940 -0.22643 0.76673
 H104 H 0.24602 -0.24479 0.74932
 N105 N 0.73539 -0.22681 0.79614
 N106 N 0.74509 -0.24390 0.80437
 C107 C 0.73388 -0.25083 0.82195
 C108 C 0.71629 -0.23733 0.82483
 C109 C 0.71774 -0.22226 0.80820
 H110 H 0.73796 -0.26481 0.83175
 H111 H 0.70658 -0.20918 0.80494
 Cu112 Cu 0.77103 -0.25589 0.79100
 Cu113 Cu 0.74586 -0.21224 0.76998
 Cu114 Cu 0.79100 -0.23407 0.74470
 N115 N 0.79601 -0.26820 0.77616
 N116 N 0.80369 -0.25969 0.75804
 C117 C 0.82054 -0.27160 0.75102
 C118 C 0.82353 -0.28852 0.76553
 C119 C 0.80773 -0.28585 0.78131
 H120 H 0.82978 -0.26836 0.73636
 H121 H 0.80484 -0.29618 0.79529
 N122 N 0.77597 -0.20817 0.73367
 N123 N 0.75883 -0.19978 0.74336
 C124 C 0.75216 -0.18242 0.73185
 C125 C 0.76574 -0.17982 0.71411
 C126 C 0.78063 -0.19637 0.71574
 H127 H 0.73833 -0.17251 0.73589
 H128 H 0.79376 -0.19963 0.70454
 H129 H 0.76000 -0.23942 0.75653
 H130 H 0.77798 -0.22133 0.77290
 N131 N 0.26710 0.22633 0.79409
 N132 N 0.25767 0.24377 0.80175
 C133 C 0.26850 0.25049 0.81959
 C134 C 0.28558 0.23651 0.82322
 C135 C 0.28422 0.22136 0.80678
 H136 H 0.26460 0.26470 0.82900
 H137 H 0.29509 0.20795 0.80405
 Cu138 Cu 0.23271 0.25643 0.78711
 Cu139 Cu 0.25701 0.21187 0.76779
 Cu140 Cu 0.21257 0.23424 0.74140
 N141 N 0.20778 0.26882 0.77222
 N142 N 0.20002 0.26011 0.75430
 C143 C 0.18308 0.27193 0.74722
 C144 C 0.18012 0.28893 0.76148
 C145 C 0.19604 0.28649 0.77714
 H146 H 0.17366 0.26849 0.73276
 H147 H 0.19891 0.29694 0.79095
 N148 N 0.22751 0.20808 0.73095
 N149 N 0.24442 0.19956 0.74100
 C150 C 0.25116 0.18214 0.72976
 C151 C 0.23789 0.17963 0.71181
 C152 C 0.22306 0.19627 0.71306
 H153 H 0.26485 0.17213 0.73412
 H154 H 0.21015 0.19962 0.70161
 H155 H 0.24356 0.23896 0.75325
 H156 H 0.22503 0.22170 0.77001
 N157 N 0.26801 -0.22627 0.20582
 N158 N 0.25813 -0.24341 0.19791
 C159 C 0.26880 -0.25011 0.18000
 C160 C 0.28625 -0.23645 0.17656
 C161 C 0.28527 -0.22150 0.19321
 H162 H 0.26449 -0.26407 0.17035
 H163 H 0.29654 -0.20841 0.19618
 Cu164 Cu 0.23279 -0.25559 0.21241
 Cu165 Cu 0.25834 -0.21196 0.23234
 Cu166 Cu 0.21301 -0.23346 0.25820
 N167 N 0.20730 -0.26748 0.22685
 N168 N 0.19964 -0.25872 0.24479
 C169 C 0.18236 -0.27022 0.25169
 C170 C 0.17904 -0.28705 0.23731
 C171 C 0.19512 -0.28485 0.22174
 H172 H 0.17306 -0.26678 0.26623
 H173 H 0.19783 -0.29529 0.20791
 N174 N 0.22884 -0.20796 0.26918
 N175 N 0.24610 -0.19980 0.25935
 C176 C 0.25342 -0.18282 0.27095
 C177 C 0.24015 -0.18021 0.28888
 C178 C 0.22474 -0.19637 0.28728
 H179 H 0.26748 -0.17315 0.26685
 H180 H 0.21166 -0.19950 0.29861
 H181 H 0.24399 -0.23879 0.24656
 H182 H 0.22614 -0.22090 0.22988
 N183 N 0.73336 0.22591 0.20457
 N184 N 0.74265 0.24358 0.19702
 C185 C 0.73192 0.25027 0.17908
 C186 C 0.71503 0.23605 0.17527
 C187 C 0.71642 0.22078 0.19172
 H188 H 0.73577 0.26460 0.16969
 H189 H 0.70561 0.20724 0.19439
 Cu190 Cu 0.76736 0.25643 0.21192
 Cu191 Cu 0.74330 0.21145 0.23104
 Cu192 Cu 0.78749 0.23417 0.25763
 N193 N 0.79226 0.26897 0.22676
 N194 N 0.80005 0.26017 0.24468
 C195 C 0.81696 0.27205 0.25177
 C196 C 0.81989 0.28917 0.23752
 C197 C 0.80398 0.28674 0.22184
 H198 H 0.82631 0.26863 0.26629
 H199 H 0.80113 0.29725 0.20801
 N200 N 0.77255 0.20789 0.26817
 N201 N 0.75574 0.19923 0.25805
 C202 C 0.74907 0.18168 0.26932
 C203 C 0.76231 0.17922 0.28733
 C204 C 0.77700 0.19606 0.28611
 H205 H 0.73551 0.17149 0.26491
 H206 H 0.78987 0.19947 0.29758
 H207 H 0.75642 0.23849 0.24570
 H208 H 0.77514 0.22165 0.22898
 C209 C 0.25339 0.01125 0.49961
 C210 C 0.25465 -0.01061 0.49983
 C211 C 0.25416 -0.02311 0.47934
 C212 C 0.25473 -0.02328 0.52034
 C213 C 0.25240 0.02418 0.51989
 C214 C 0.25255 0.02338 0.47883
 C215 C 0.23443 -0.03156 0.47194
 C216 C 0.23373 -0.04416 0.45312
 C217 C 0.25283 -0.04877 0.44148
 C218 C 0.27259 -0.03999 0.44888
 C219 C 0.27322 -0.02718 0.46765
 C220 C 0.23705 -0.02253 0.53472
 C221 C 0.23681 -0.03539 0.55351
 C222 C 0.25422 -0.04934 0.55819
 C223 C 0.27196 -0.04988 0.54377
 C224 C 0.27215 -0.03704 0.52499
 C225 C 0.26924 0.02359 0.53528
 C226 C 0.26823 0.03645 0.55401
 C227 C 0.25034 0.05008 0.55763
 C228 C 0.23351 0.05047 0.54216
 C229 C 0.23459 0.03773 0.52347
 C230 C 0.27103 0.03428 0.47135
 C231 C 0.27012 0.04679 0.45236
 C232 C 0.25058 0.04879 0.44066
 C233 C 0.23213 0.03753 0.44814
 C234 C 0.23314 0.02491 0.46707
 H235 H 0.21959 -0.02847 0.48084
 H236 H 0.21823 -0.05058 0.44791
 H237 H 0.28759 -0.04319 0.44031
 H238 H 0.28858 -0.02074 0.47327
 H239 H 0.22328 -0.01225 0.53117
 H240 H 0.22284 -0.03464 0.56418
 H241 H 0.28590 -0.03787 0.51402
 H242 H 0.28324 0.01340 0.53265
 H243 H 0.28151 0.03581 0.56554
 H244 H 0.21950 0.06075 0.54436
 H245 H 0.22142 0.03837 0.51180
 H246 H 0.28612 0.03322 0.48035
 H247 H 0.28463 0.05520 0.44709
 H248 H 0.21684 0.03870 0.43956
 H249 H 0.21869 0.01667 0.47281
 H250 H 0.28564 -0.06040 0.54684
 C251 C 0.74581 -0.01195 0.50072
 C252 C 0.74552 0.01003 0.49982
 C253 C 0.74589 0.02350 0.51982
 C254 C 0.74587 0.02197 0.47877
 C255 C 0.74613 -0.02534 0.48068
 C256 C 0.74675 -0.02397 0.52171
 C257 C 0.72977 0.02163 0.53590
 C258 C 0.73035 0.03487 0.55438
 C259 C 0.74699 0.05026 0.55700
 C260 C 0.76301 0.05206 0.54076
 C261 C 0.76241 0.03889 0.52237
 C262 C 0.72944 0.03692 0.47415
 C263 C 0.73022 0.04940 0.45513
 C264 C 0.74758 0.04732 0.44040
 C265 C 0.76393 0.03211 0.44497
 C266 C 0.76313 0.01963 0.46404
 C267 C 0.76313 -0.04000 0.47758
 C268 C 0.76370 -0.05306 0.45910
 C269 C 0.74716 -0.05186 0.44334
 C270 C 0.73004 -0.03719 0.44653
 C271 C 0.72951 -0.02407 0.46509
 C272 C 0.76406 -0.02111 0.53630
 C273 C 0.76543 -0.03373 0.55525
 C274 C 0.74960 -0.04955 0.55985
 C275 C 0.73223 -0.05219 0.54522
 C276 C 0.73090 -0.03961 0.52632
 H277 H 0.71669 0.01007 0.53404
 H278 H 0.71772 0.03310 0.56654
 H279 H 0.77603 0.06375 0.54215
 H280 H 0.77495 0.04063 0.51010
 H281 H 0.71607 0.03904 0.48540
 H282 H 0.71734 0.06091 0.45216
 H283 H 0.77618 0.00847 0.46754
 H284 H 0.77607 -0.04125 0.48947
 H285 H 0.77712 -0.06416 0.45723
 H286 H 0.71699 -0.03593 0.43479
 H287 H 0.71607 -0.01307 0.46739
 H288 H 0.77671 -0.00943 0.53279
 H289 H 0.77907 -0.03131 0.56610
 H290 H 0.71978 -0.06423 0.54816
 H291 H 0.71755 -0.04219 0.51513
 H292 H 0.77757 0.03012 0.43404
 C293 C 0.49900 0.25989 -0.01124
 C294 C 0.50070 0.25979 0.01089
 C295 C 0.48129 0.25976 0.02524
 C296 C 0.52203 0.25872 0.02209
 C297 C 0.51841 0.25993 -0.02559
 C298 C 0.47767 0.25893 -0.02245
 C299 C 0.46559 0.27610 0.02385
 C300 C 0.44756 0.27581 0.03772
 C301 C 0.44501 0.25924 0.05333
 C302 C 0.46091 0.24303 0.05472
 C303 C 0.47886 0.24334 0.04088
 C304 C 0.52753 0.27455 0.03743
 C305 C 0.54685 0.27307 0.04922
 C306 C 0.56100 0.25555 0.04606
 C307 C 0.55554 0.23979 0.03047
 C308 C 0.53620 0.24133 0.01865
 C309 C 0.52074 0.24360 -0.04120
 C310 C 0.53871 0.24332 -0.05502
 C311 C 0.55473 0.25947 -0.05362
 C312 C 0.55228 0.27597 -0.03806
 C313 C 0.53423 0.27623 -0.02421
 C314 C 0.46340 0.24153 -0.01900
 C315 C 0.44409 0.24005 -0.03089
 C316 C 0.43878 0.25587 -0.04655
 C317 C 0.45301 0.27342 -0.04969
 C318 C 0.47230 0.27485 -0.03784
 H319 H 0.46737 0.28912 0.01212
 H320 H 0.43569 0.28861 0.03628
 H321 H 0.45953 0.23003 0.06653
 H322 H 0.49083 0.23062 0.04226
 H323 H 0.51673 0.28802 0.04039
 H324 H 0.55049 0.28550 0.06105
 H325 H 0.53205 0.22873 0.00715
 H326 H 0.50868 0.23091 -0.04258
 H327 H 0.53999 0.23040 -0.06681
 H328 H 0.56425 0.28872 -0.03662
 H329 H 0.53253 0.28918 -0.01250
 H330 H 0.46745 0.22887 -0.00747
 H331 H 0.43355 0.22629 -0.02808
 H332 H 0.44946 0.28591 -0.06158
 H333 H 0.48318 0.28832 -0.04081
 H334 H 0.56602 0.22607 0.02764
 C335 C 0.50114 0.73956 -0.01111
 C336 C 0.49969 0.73963 0.01104
 C337 C 0.51926 0.73978 0.02516
 C338 C 0.47849 0.74067 0.02250
 C339 C 0.48158 0.73954 -0.02523
 C340 C 0.52235 0.74061 -0.02257
 C341 C 0.53504 0.72352 0.02376
 C342 C 0.55323 0.72396 0.03742
 C343 C 0.55586 0.74061 0.05280
 C344 C 0.53990 0.75675 0.05418
 C345 C 0.52180 0.75628 0.04056
 C346 C 0.47326 0.72491 0.03814
 C347 C 0.45405 0.72636 0.05011
 C348 C 0.43975 0.74376 0.04683
 C349 C 0.44497 0.75945 0.03098
 C350 C 0.46421 0.75797 0.01899
 C351 C 0.47907 0.75590 -0.04090
 C352 C 0.46096 0.75622 -0.05451
 C353 C 0.44495 0.74005 -0.05285
 C354 C 0.44756 0.72353 -0.03722
 C355 C 0.46576 0.72324 -0.02357
 C356 C 0.53662 0.75802 -0.01937
 C357 C 0.55588 0.75948 -0.03135
 C358 C 0.56112 0.74364 -0.04691
 C359 C 0.54681 0.72615 -0.04990
 C360 C 0.52759 0.72473 -0.03793
 H361 H 0.53320 0.71044 0.01220
 H362 H 0.56515 0.71122 0.03600
 H363 H 0.54133 0.76979 0.06582
 H364 H 0.50977 0.76895 0.04194
 H365 H 0.48417 0.71154 0.04118
 H366 H 0.45060 0.71399 0.06218
 H367 H 0.46817 0.77053 0.00729
 H368 H 0.49112 0.76859 -0.04248
 H369 H 0.45954 0.76918 -0.06634
 H370 H 0.43561 0.71078 -0.03558
 H371 H 0.46759 0.71027 -0.01180
 H372 H 0.53263 0.77069 -0.00792
 H373 H 0.56646 0.77321 -0.02868
 H374 H 0.55028 0.71368 -0.06174
 H375 H 0.51668 0.71127 -0.04076
 H376 H 0.43438 0.77310 0.02806
 C377 C -0.01183 0.50106 0.25313
 C378 C 0.01021 0.50175 0.25306
 C379 C 0.02357 0.48186 0.25254
 C380 C 0.02229 0.52252 0.25261
 C381 C -0.02499 0.52106 0.25290
 C382 C -0.02414 0.48041 0.25262
 C383 C 0.02193 0.46600 0.26890
 C384 C 0.03500 0.44755 0.26814
 C385 C 0.05001 0.44474 0.25108
 C386 C 0.05161 0.46077 0.23483
 C387 C 0.03858 0.47914 0.23561
 C388 C 0.03704 0.52720 0.26933
 C389 C 0.04956 0.54603 0.26855
 C390 C 0.04774 0.56047 0.25087
 C391 C 0.03276 0.55581 0.23419
 C392 C 0.02019 0.53697 0.23504
 C393 C -0.03899 0.52494 0.23535
 C394 C -0.05187 0.54343 0.23490
 C395 C -0.05120 0.55833 0.25217
 C396 C -0.03716 0.55435 0.26983
 C397 C -0.02413 0.53586 0.27017
 C398 C -0.02164 0.46569 0.23544
 C399 C -0.03442 0.44698 0.23458
 C400 C -0.05006 0.44276 0.25080
 C401 C -0.05235 0.45753 0.26804
 C402 C -0.03960 0.47618 0.26887
 H403 H 0.01067 0.46800 0.28230
 H404 H 0.03344 0.43557 0.28098
 H405 H 0.06298 0.45921 0.22147
 H406 H 0.04010 0.49123 0.22285
 H407 H 0.03895 0.51615 0.28295
 H408 H 0.06091 0.54906 0.28167
 H409 H 0.00914 0.53343 0.22178
 H410 H -0.03987 0.51365 0.22191
 H411 H -0.06250 0.54591 0.22108
 H412 H -0.03628 0.56546 0.28341
 H413 H -0.01355 0.53296 0.28397
 H414 H -0.01012 0.46890 0.22248
 H415 H -0.03226 0.43601 0.22103
 H416 H -0.06422 0.45486 0.28079
 H417 H -0.04189 0.48745 0.28216
 H418 H 0.03096 0.56653 0.22032
 C419 C 0.01103 0.49936 0.74695
 C420 C -0.01102 0.49985 0.74719
 C421 C -0.02417 0.47974 0.74745
 C422 C -0.02334 0.52041 0.74816
 C423 C 0.02427 0.51942 0.74732
 C424 C 0.02326 0.47873 0.74722
 C425 C -0.02289 0.46462 0.73048
 C426 C -0.03582 0.44599 0.73093
 C427 C -0.05031 0.44226 0.74831
 C428 C -0.05145 0.45751 0.76523
 C429 C -0.03858 0.47606 0.76475
 C430 C -0.03898 0.52484 0.73218
 C431 C -0.05169 0.54344 0.73346
 C432 C -0.04916 0.55794 0.75092
 C433 C -0.03336 0.55350 0.76689
 C434 C -0.02063 0.53486 0.76556
 C435 C 0.03949 0.52229 0.76405
 C436 C 0.05246 0.54076 0.76463
 C437 C 0.05062 0.55675 0.74837
 C438 C 0.03539 0.55381 0.73153
 C439 C 0.02235 0.53526 0.73099
 C440 C 0.02114 0.46403 0.76459
 C441 C 0.03386 0.44534 0.76530
 C442 C 0.04907 0.44113 0.74872
 C443 C 0.05093 0.45583 0.73125
 C444 C 0.03822 0.47447 0.73057
 H445 H -0.01205 0.46736 0.71684
 H446 H -0.03461 0.43464 0.71758
 H447 H -0.06237 0.45519 0.77888
 H448 H -0.03978 0.48757 0.77798
 H449 H -0.04143 0.51378 0.71874
 H450 H -0.06369 0.54629 0.72089
 H451 H -0.00894 0.53149 0.77831
 H452 H 0.04125 0.51021 0.77678
 H453 H 0.06402 0.54242 0.77782
 H454 H 0.03361 0.56576 0.71870
 H455 H 0.01090 0.53317 0.71776
 H456 H 0.00997 0.46726 0.77781
 H457 H 0.03205 0.43443 0.77903
 H458 H 0.06241 0.45311 0.71818
 H459 H 0.04014 0.48570 0.71709
 H460 H -0.03103 0.56424 0.78060
 N461 N 0.32433 0.26745 0.13852
 C462 C 0.34126 0.25349 0.13858
 N463 N 0.34175 0.23735 0.15359
 N464 N 0.32581 0.23521 0.16811
 C465 C 0.30884 0.24914 0.16812
 N466 N 0.30837 0.26530 0.15306
 C467 C 0.35856 0.25568 0.12307
 C468 C 0.37344 0.25693 0.11037
 C469 C 0.39155 0.25767 0.09569
 N470 N 0.40723 0.24245 0.09706
 N471 N 0.42415 0.24299 0.08358
 C472 C 0.42606 0.25877 0.06822
 N473 N 0.41026 0.27403 0.06691
 N474 N 0.39330 0.27350 0.08041
 N475 N 0.67618 0.73286 0.13878
 C476 C 0.65941 0.74699 0.13810
 N477 N 0.65880 0.76345 0.15262
 N478 N 0.67446 0.76573 0.16739
 C479 C 0.69129 0.75162 0.16817
 N480 N 0.69186 0.73515 0.15357
 C481 C 0.64233 0.74461 0.12240
 C482 C 0.62758 0.74325 0.10958
 C483 C 0.60952 0.74247 0.09485
 N484 N 0.59406 0.75793 0.09579
 N485 N 0.57710 0.75732 0.08238
 C486 C 0.57494 0.74121 0.06751
 N487 N 0.59054 0.72573 0.06661
 N488 N 0.60754 0.72634 0.08005
 N489 N 0.67491 0.26788 -0.13984
 C490 C 0.65841 0.25338 -0.13885
 N491 N 0.65813 0.23659 -0.15300
 N492 N 0.67385 0.23436 -0.16771
 C493 C 0.69039 0.24884 -0.16879
 N494 N 0.69066 0.26564 -0.15457
 C495 C 0.64125 0.25573 -0.12323
 C496 C 0.62644 0.25707 -0.11047
 C497 C 0.60833 0.25783 -0.09579
 N498 N 0.59276 0.24240 -0.09682
 N499 N 0.57580 0.24297 -0.08340
 C500 C 0.57375 0.25899 -0.06843
 N501 N 0.58945 0.27444 -0.06745
 N502 N 0.60645 0.27388 -0.08090
 N503 N 0.34149 0.76255 -0.15219
 C504 C 0.34073 0.74628 -0.13734
 N505 N 0.32366 0.73241 -0.13753
 N506 N 0.30784 0.73476 -0.15217
 C507 C 0.30859 0.75105 -0.16709
 N508 N 0.32570 0.76490 -0.16681
 C509 C 0.35795 0.74383 -0.12181
 C510 C 0.37284 0.74245 -0.10915
 C511 C 0.39105 0.74168 -0.09461
 N512 N 0.39297 0.72573 -0.07950
 N513 N 0.41006 0.72517 -0.06618
 C514 C 0.42583 0.74054 -0.06751
 N515 N 0.42375 0.75645 -0.08270
 N516 N 0.40670 0.75702 -0.09599
 N517 N 0.13338 0.32396 0.25952
 C518 C 0.13286 0.34019 0.24460
 N519 N 0.14754 0.34035 0.22813
 N520 N 0.16233 0.32477 0.22663
 C521 C 0.16295 0.30853 0.24157
 N522 N 0.14818 0.30837 0.25801
 C523 C 0.11742 0.35738 0.24645
 C524 C 0.10488 0.37224 0.24763
 C525 C 0.09052 0.39041 0.24847
 N526 N 0.09184 0.40606 0.23303
 N527 N 0.07890 0.42322 0.23386
 C528 C 0.06415 0.42541 0.25018
 N529 N 0.06286 0.40963 0.26563
 N530 N 0.07583 0.39243 0.26481
 N531 N 0.14899 0.66077 0.77007
 C532 C 0.13441 0.66101 0.75353
 N533 N 0.13521 0.67723 0.73860
 N534 N 0.15019 0.69272 0.74018
 C535 C 0.16489 0.69249 0.75670
 N536 N 0.16396 0.67624 0.77164
 C537 C 0.11870 0.64399 0.75171
 C538 C 0.10595 0.62923 0.75067
 C539 C 0.09140 0.61112 0.75014
 N540 N 0.07702 0.60864 0.73358
 N541 N 0.06394 0.59145 0.73304
 C542 C 0.06479 0.57614 0.74900
 N543 N 0.07921 0.57881 0.76555
 N544 N 0.09227 0.59596 0.76610
 N545 N -0.13689 0.67747 0.26283
 C546 C -0.13617 0.66122 0.24807
 N547 N -0.15090 0.66079 0.23167
 N548 N -0.16594 0.67613 0.23007
 C549 C -0.16677 0.69243 0.24482
 N550 N -0.15194 0.69283 0.26123
 C551 C -0.12026 0.64444 0.24982
 C552 C -0.10728 0.62993 0.25073
 C553 C -0.09240 0.61217 0.25106
 N554 N -0.08029 0.60783 0.26901
 N555 N -0.06701 0.59085 0.26934
 C556 C -0.06542 0.57760 0.25175
 N557 N -0.07756 0.58213 0.23382
 N558 N -0.09080 0.59909 0.23348
 N559 N -0.13454 0.32149 0.73818
 C560 C -0.13427 0.33810 0.75255
 N561 N -0.14951 0.33884 0.76847
 N562 N -0.16460 0.32347 0.76997
 C563 C -0.16500 0.30683 0.75558
 N564 N -0.14965 0.30609 0.73968
 C565 C -0.11844 0.35504 0.75080
 C566 C -0.10565 0.36977 0.74989
 C567 C -0.09108 0.38787 0.74954
 N568 N -0.09219 0.40292 0.76548
 N569 N -0.07913 0.42008 0.76510
 C570 C -0.06447 0.42286 0.74877
 N571 N -0.06340 0.40768 0.73282
 N572 N -0.07648 0.39048 0.73319
 N573 N 0.22573 0.14931 0.33770
 C574 C 0.24237 0.13503 0.33777
 N575 N 0.25779 0.13648 0.32205
 N576 N 0.25660 0.15177 0.30673
 C577 C 0.23998 0.16614 0.30665
 N578 N 0.22455 0.16461 0.32239
 C579 C 0.24392 0.11900 0.35466
 C580 C 0.24520 0.10585 0.36916
 C581 C 0.24671 0.09060 0.38676
 N582 N 0.26597 0.08703 0.39677
 N583 N 0.26724 0.07353 0.41370
 C584 C 0.24930 0.06310 0.42125
 N585 N 0.23005 0.06667 0.41107
 N586 N 0.22877 0.08019 0.39414
 N587 N 0.73759 0.13661 0.67664
 C588 C 0.75272 0.13515 0.66066
 N589 N 0.76961 0.14923 0.66052
 N590 N 0.77132 0.16433 0.67585
 C591 C 0.75618 0.16589 0.69185
 N592 N 0.73931 0.15173 0.69200
 C593 C 0.75074 0.11930 0.64374
 C594 C 0.74958 0.10642 0.62908
 C595 C 0.74894 0.09166 0.61108
 N596 N 0.76484 0.09224 0.59585
 N597 N 0.76422 0.07899 0.57880
 C598 C 0.74768 0.06465 0.57631
 N599 N 0.73179 0.06408 0.59170
 N600 N 0.73239 0.07737 0.60878
 N601 N 0.23019 -0.14970 0.66105
 C602 C 0.24701 -0.13556 0.66119
 N603 N 0.26216 -0.13706 0.67716
 N604 N 0.26052 -0.15228 0.69253
 C605 C 0.24370 -0.16650 0.69241
 N606 N 0.22856 -0.16492 0.67641
 C607 C 0.24894 -0.11954 0.64432
 C608 C 0.25035 -0.10640 0.62982
 C609 C 0.25179 -0.09118 0.61217
 N610 N 0.23551 -0.07696 0.60845
 N611 N 0.23641 -0.06347 0.59147
 C612 C 0.25359 -0.06374 0.57757
 N613 N 0.26990 -0.07799 0.58147
 N614 N 0.26900 -0.09148 0.59844
 N615 N 0.73760 -0.13660 0.32254
 C616 C 0.75245 -0.13562 0.33882
 N617 N 0.76899 -0.15001 0.33911
 N618 N 0.77062 -0.16497 0.32363
 C619 C 0.75576 -0.16605 0.30733
 N620 N 0.73923 -0.15157 0.30703
 C621 C 0.75055 -0.11996 0.35590
 C622 C 0.74949 -0.10726 0.37072
 C623 C 0.74892 -0.09273 0.38889
 N624 N 0.76480 -0.09350 0.40413
 N625 N 0.76424 -0.08042 0.42131
 C626 C 0.74778 -0.06610 0.42394
 N627 N 0.73190 -0.06537 0.40856
 N628 N 0.73245 -0.07846 0.39134
 N629 N 0.66680 0.77339 -0.14342
 C630 C 0.66705 0.75706 -0.12860
 N631 N 0.68360 0.74267 -0.12895
 N632 N 0.69941 0.74455 -0.14368
 C633 C 0.69917 0.76086 -0.15858
 N634 N 0.68259 0.77527 -0.15815
 C635 C 0.64961 0.75465 -0.11326
 C636 C 0.63464 0.75256 -0.10076
 C637 C 0.61642 0.74994 -0.08640
 N638 N 0.60301 0.73271 -0.08860
 N639 N 0.58562 0.73060 -0.07587
 C640 C 0.58096 0.74566 -0.06047
 N641 N 0.59454 0.76287 -0.05828
 N642 N 0.61195 0.76498 -0.07102
 N643 N 0.31731 0.25604 -0.12987
 C644 C 0.33376 0.24155 -0.12910
 N645 N 0.33423 0.22527 -0.14384
 N646 N 0.31875 0.22353 -0.15890
 C647 C 0.30229 0.23806 -0.15976
 N648 N 0.30183 0.25432 -0.14493
 C649 C 0.35097 0.24395 -0.11352
 C650 C 0.36576 0.24617 -0.10085
 C651 C 0.38379 0.24902 -0.08633
 N652 N 0.38820 0.23413 -0.07067
 N653 N 0.40549 0.23644 -0.05782
 C654 C 0.41899 0.25371 -0.06016
 N655 N 0.41438 0.26862 -0.07583
 N656 N 0.39712 0.26632 -0.08868
 N657 N 0.33511 0.77437 0.14372
 C658 C 0.33455 0.75799 0.12910
 N659 N 0.31795 0.74359 0.12988
 N660 N 0.30242 0.74549 0.14486
 C661 C 0.30299 0.76183 0.15960
 N662 N 0.31959 0.77627 0.15871
 C663 C 0.35180 0.75545 0.11359
 C664 C 0.36662 0.75320 0.10098
 C665 C 0.38468 0.75040 0.08649
 N666 N 0.39786 0.73304 0.08872
 N667 N 0.41515 0.73080 0.07591
 C668 C 0.41995 0.74585 0.06041
 N669 N 0.40659 0.76318 0.05818
 N670 N 0.38928 0.76543 0.07100
 N671 N 0.68279 0.25618 0.12889
 C672 C 0.66671 0.24124 0.12774
 N673 N 0.66670 0.22442 0.14199
 N674 N 0.68225 0.22263 0.15698
 C675 C 0.69833 0.23762 0.15823
 N676 N 0.69835 0.25439 0.14387
 C677 C 0.64937 0.24369 0.11231
 C678 C 0.63445 0.24592 0.09978
 C679 C 0.61629 0.24874 0.08542
 N680 N 0.60320 0.26616 0.08757
 N681 N 0.58583 0.26844 0.07485
 C682 C 0.58088 0.25339 0.05953
 N683 N 0.59415 0.23599 0.05738
 N684 N 0.61153 0.23370 0.07010
 N685 N -0.13251 0.67817 0.74606
 C686 C -0.13192 0.66244 0.76152
 N687 N -0.14612 0.66321 0.77839
 N688 N -0.16049 0.67920 0.77975
 C689 C -0.16118 0.69497 0.76427
 N690 N -0.14688 0.69417 0.74742
 C691 C -0.11683 0.64489 0.75978
 C692 C -0.10441 0.62995 0.75822
 C693 C -0.08995 0.61191 0.75618
 N694 N -0.07465 0.60800 0.77157
 N695 N -0.06157 0.59097 0.76983
 C696 C -0.06331 0.57722 0.75265
 N697 N -0.07867 0.58129 0.73727
 N698 N -0.09174 0.59831 0.73900
 N699 N -0.14873 0.33844 0.22513
 C700 C -0.13422 0.33883 0.24174
 N701 N -0.13473 0.32286 0.25694
 N702 N -0.14930 0.30697 0.25557
 C703 C -0.16386 0.30654 0.23895
 N704 N -0.16330 0.32256 0.22375
 C705 C -0.11883 0.35620 0.24343
 C706 C -0.10616 0.37101 0.24487
 C707 C -0.09141 0.38891 0.24664
 N708 N -0.09310 0.40289 0.26351
 N709 N -0.07981 0.41984 0.26491
 C710 C -0.06436 0.42348 0.24950
 N711 N -0.06270 0.40934 0.23264
 N712 N -0.07599 0.39237 0.23123
 N713 N 0.13470 0.32248 0.74205
 C714 C 0.13379 0.33801 0.75758
 N715 N 0.14807 0.33739 0.77439
 N716 N 0.16279 0.32170 0.77566
 C717 C 0.16375 0.30612 0.76014
 N718 N 0.14942 0.30678 0.74332
 C719 C 0.11826 0.35519 0.75599
 C720 C 0.10548 0.36985 0.75459
 C721 C 0.09063 0.38761 0.75280
 N722 N 0.09256 0.40201 0.73619
 N723 N 0.07920 0.41884 0.73479
 C724 C 0.06341 0.42193 0.74994
 N725 N 0.06151 0.40739 0.76652
 N726 N 0.07487 0.39053 0.76793
 N727 N 0.14675 0.66441 0.22474
 C728 C 0.13228 0.66408 0.24140
 N729 N 0.13308 0.67988 0.25666
 N730 N 0.14792 0.69553 0.25530
 C731 C 0.16246 0.69589 0.23865
 N732 N 0.16158 0.68006 0.22339
 C733 C 0.11667 0.64689 0.24313
 C734 C 0.10384 0.63222 0.24463
 C735 C 0.08897 0.61442 0.24650
 N736 N 0.07459 0.61014 0.23034
 N737 N 0.06130 0.59317 0.23184
 C738 C 0.06191 0.57985 0.24953
 N739 N 0.07630 0.58432 0.26570
 N740 N 0.08958 0.60128 0.26422
 N741 N 0.77708 -0.14863 0.66408
 C742 C 0.76129 -0.13343 0.66457
 N743 N 0.74702 -0.13338 0.68141
 N744 N 0.74850 -0.14809 0.69728
 C745 C 0.76429 -0.16336 0.69682
 N746 N 0.77857 -0.16334 0.67994
 C747 C 0.75935 -0.11798 0.64715
 C748 C 0.75760 -0.10529 0.63227
 C749 C 0.75533 -0.09058 0.61425
 N750 N 0.73797 -0.09209 0.60080
 N751 N 0.73607 -0.07890 0.58368
 C752 C 0.75145 -0.06370 0.57936
 N753 N 0.76880 -0.06221 0.59297
 N754 N 0.77071 -0.07541 0.61010
 N755 N 0.22985 -0.14903 0.33886
 C756 C 0.24622 -0.13436 0.33842
 N757 N 0.26057 -0.13470 0.32167
 N758 N 0.25862 -0.14929 0.30584
 C759 C 0.24225 -0.16402 0.30624
 N760 N 0.22789 -0.16362 0.32304
 C761 C 0.24825 -0.11872 0.35553
 C762 C 0.24956 -0.10577 0.37013
 C763 C 0.25052 -0.09064 0.38781
 N764 N 0.26982 -0.08309 0.39517
 N765 N 0.27059 -0.06956 0.41204
 C766 C 0.25208 -0.06314 0.42217
 N767 N 0.23280 -0.07073 0.41462
 N768 N 0.23202 -0.08422 0.39776
 N769 N 0.74362 0.13219 0.31936
 C770 C 0.75785 0.13212 0.33623
 N771 N 0.77358 0.14745 0.33698
 N772 N 0.77506 0.16240 0.32133
 C773 C 0.76083 0.16253 0.30442
 N774 N 0.74510 0.14714 0.30370
 C775 C 0.75595 0.11639 0.35343
 C776 C 0.75430 0.10349 0.36814
 C777 C 0.75222 0.08858 0.38604
 N778 N 0.76743 0.07316 0.38955
 N779 N 0.76583 0.05986 0.40664
 C780 C 0.74897 0.06149 0.42085
 N781 N 0.73374 0.07692 0.41714
 N782 N 0.73534 0.09022 0.40007
 N783 N 0.22732 0.14856 0.66180
 C784 C 0.24325 0.13351 0.66245
 N785 N 0.25735 0.13349 0.67943
 N786 N 0.25557 0.14811 0.69525
 C787 C 0.23964 0.16323 0.69461
 N788 N 0.22553 0.16317 0.67761
 C789 C 0.24523 0.11802 0.64519
 C790 C 0.24648 0.10535 0.63035
 C791 C 0.24739 0.09074 0.61223
 N792 N 0.26497 0.07804 0.60894
 N793 N 0.26588 0.06496 0.59171
 C794 C 0.24926 0.06416 0.57715
 N795 N 0.23168 0.07690 0.58063
 N796 N 0.23076 0.08994 0.59782
   
