data_POSCAR
  _audit_creation_date              2014-09-24
  _audit_creation_method            'ToBaCCo'
  _symmetry_space_group_name_H-M    'P1'
  _symmetry_Int_Tables_number       1
  _symmetry_cell_setting            triclinic
  loop_
  _symmetry_equiv_pos_as_xyz
 x,y,z
_cell_length_a 42.7340
_cell_length_b 43.3618
_cell_length_c 43.0586
_cell_angle_alpha 89.938600
_cell_angle_beta 89.984500
_cell_angle_gamma 89.970000
loop_
  _atom_site_label
  _atom_site_type_symbol
  _atom_site_fract_x
  _atom_site_fract_y
  _atom_site_fract_z
N1 N 0.35709 0.35800 1.34611
 N2 N 1.14176 0.65106 0.85643
 N3 N 0.63809 -0.14719 0.13903
 N4 N -0.14480 1.14417 -0.34607
 N5 N 0.64304 0.64841 0.63497
 N6 N 0.85040 0.35418 0.15148
 N7 N 0.35041 0.14601 0.84840
 N8 N 0.14712 0.84731 0.36140
 Zn9 Zn 0.03871 0.98373 0.01581
 Zn10 Zn -0.02401 0.97864 -0.01483
 Zn11 Zn -0.01780 1.00679 0.04846
 Zn12 Zn 0.00698 1.04044 -0.00638
 O13 O 0.00087 1.00235 0.01067
 O14 O 0.04102 0.94806 -0.00419
 O15 O -0.05982 0.96669 0.00387
 O16 O 0.00517 0.99170 0.07976
 O17 O -0.00485 0.94364 -0.02751
 O18 O 0.04753 0.97510 0.05554
 O19 O -0.05438 0.98734 0.05049
 O20 O -0.00697 1.07121 0.01760
 O21 O -0.03561 0.99911 -0.04944
 O22 O -0.02617 1.04611 0.05801
 O23 O -0.01315 1.04457 -0.04239
 O24 O 0.04724 1.04867 -0.01475
 O25 O 0.07062 1.00596 0.00103
 C26 C 0.02234 0.93328 -0.02153
 C27 C -0.07002 0.97156 0.03117
 C28 C 0.03192 0.97898 0.08031
 C29 C -0.02081 1.07114 0.04367
 C30 C -0.03001 1.02650 -0.05843
 C31 C 0.07174 1.03248 -0.01135
 Zn32 Zn 0.48334 0.01129 0.45650
 Zn33 Zn 0.47919 -0.01902 0.51921
 Zn34 Zn 0.54113 -0.01176 0.48727
 Zn35 Zn 0.50839 0.04337 0.51197
 O36 O 0.50293 0.00588 0.49379
 O37 O 0.44644 -0.00791 0.45511
 O38 O 0.49948 -0.05371 0.53062
 O39 O 0.54843 -0.02036 0.44729
 O40 O 0.44352 -0.03132 0.50075
 O41 O 0.50541 -0.00346 0.42439
 O42 O 0.54501 -0.04761 0.50699
 O43 O 0.54845 0.05177 0.52025
 O44 O 0.46747 0.00006 0.55467
 O45 O 0.57312 0.01134 0.50085
 O46 O 0.48867 0.04613 0.54819
 O47 O 0.49403 0.07477 0.48900
 O48 O 0.47544 0.05089 0.44766
 C49 C 0.43203 -0.02509 0.47425
 C50 C 0.52686 -0.06323 0.52419
 C51 C 0.53202 -0.01640 0.42305
 C52 C 0.57356 0.03707 0.51489
 C53 C 0.47254 0.02737 0.56415
 C54 C 0.48067 0.07551 0.46269
 Zn55 Zn 1.00976 0.45701 0.48706
 Zn56 Zn 1.04065 0.51266 0.51309
 Zn57 Zn 0.97865 0.51848 0.48049
 Zn58 Zn 0.98325 0.48756 0.54274
 O59 O 1.00303 0.49403 0.50579
 O60 O 1.05022 0.44953 0.47969
 O61 O 1.04309 0.54954 0.49489
 O62 O 0.96823 0.49981 0.44451
 O63 O 1.07334 0.49102 0.49865
 O64 O 0.99098 0.45438 0.45033
 O65 O 0.99788 0.55400 0.47015
 O66 O 0.94594 0.50574 0.54408
 O67 O 1.04790 0.51974 0.55351
 O68 O 0.94214 0.52921 0.49860
 O69 O 1.00425 0.50273 0.57514
 O70 O 0.97646 0.44756 0.55107
 O71 O 0.99539 0.42503 0.50903
 C72 C 1.07477 0.46514 0.48496
 C73 C 1.02451 0.56471 0.47767
 C74 C 0.97445 0.47293 0.43452
 C75 C 0.93090 0.52253 0.52510
 C76 C 1.03085 0.51550 0.57727
 C77 C 0.98203 0.42347 0.53529
 Zn78 Zn 0.48281 0.49278 0.95117
 Zn79 Zn 0.53918 0.51685 0.98329
 Zn80 Zn 0.47649 0.52228 1.01379
 Zn81 Zn 0.50773 0.46041 1.00678
 O82 O 0.50147 0.49812 0.98885
 O83 O 0.50594 0.50673 0.91943
 O84 O 0.54159 0.55268 1.00297
 O85 O 0.44092 0.53414 0.99472
 O86 O 0.54755 0.52528 0.94347
 O87 O 0.44649 0.51273 0.94845
 O88 O 0.49561 0.55742 1.02599
 O89 O 0.48877 0.45753 1.04361
 O90 O 0.57131 0.49472 0.99780
 O91 O 0.46500 0.50263 1.04884
 O92 O 0.54815 0.45214 1.01424
 O93 O 0.49293 0.42906 0.98395
 O94 O 0.47397 0.45334 0.94289
 C95 C 0.53225 0.52027 0.91873
 C96 C 0.52283 0.56767 1.02005
 C97 C 0.43095 0.52910 0.96738
 C98 C 0.47171 0.47592 1.05909
 C99 C 0.57262 0.46825 1.01028
 C100 C 0.47895 0.42864 0.95794
 C101 C 1.27485 0.38987 0.39227
 C102 C 1.27857 0.35849 0.38494
 C103 C 1.30552 0.34814 0.36988
 C104 C 1.32929 0.36892 0.36165
 C105 C 1.32573 0.40026 0.36894
 C106 C 1.29879 0.41066 0.38417
 C107 C 1.24597 0.40074 0.40793
 N108 N 1.24311 0.43041 0.41765
 N109 N 1.21690 0.44013 0.43129
 C110 C 1.19243 0.42061 0.43573
 N111 N 1.19536 0.39094 0.42609
 N112 N 1.22156 0.38121 0.41255
 C113 C 1.16282 0.43156 0.44991
 C114 C 1.13621 0.41251 0.45015
 C115 C 1.10782 0.42324 0.46206
 C116 C 1.10539 0.45320 0.47423
 C117 C 1.13217 0.47201 0.47474
 C118 C 1.16055 0.46134 0.46261
 H119 H 1.26067 0.34182 0.39083
 H120 H 1.30775 0.32389 0.36434
 H121 H 1.34393 0.41659 0.36298
 H122 H 1.29668 0.43498 0.38944
 H123 H 1.13708 0.38944 0.44060
 H124 H 1.08767 0.40812 0.46139
 H125 H 1.13106 0.49522 0.48392
 H126 H 1.18063 0.47657 0.46293
 C127 C 0.22891 0.61775 0.89152
 C128 C 0.20471 0.62620 0.91198
 C129 C 0.17618 0.63718 0.90047
 C130 C 0.17130 0.63996 0.86835
 C131 C 0.19563 0.63208 0.84794
 C132 C 0.22404 0.62097 0.85936
 C133 C 0.25893 0.60526 0.90340
 N134 N 0.28054 0.59370 0.88344
 N135 N 0.30736 0.58206 0.89389
 C136 C 0.31383 0.58151 0.92476
 N137 N 0.29228 0.59318 0.94478
 N138 N 0.26536 0.60477 0.93431
 C139 C 0.34369 0.56818 0.93610
 C140 C 0.35267 0.57079 0.96742
 C141 C 0.38103 0.55820 0.97774
 C142 C 0.40084 0.54255 0.95697
 C143 C 0.39172 0.53987 0.92573
 C144 C 0.36359 0.55258 0.91543
 H145 H 0.20766 0.62402 0.93685
 H146 H 0.15771 0.64322 0.91658
 H147 H 0.19256 0.63456 0.82310
 H148 H 0.24221 0.61494 0.84293
 H149 H 0.33789 0.58271 0.98395
 H150 H 0.38738 0.56063 1.00195
 H151 H 0.40642 0.52803 0.90907
 H152 H 0.35744 0.55002 0.89118
 C153 C -0.27629 0.89002 0.10394
 C154 C -0.28239 0.88942 0.13603
 C155 C -0.31046 0.87752 0.14740
 C156 C -0.33327 0.86600 0.12700
 C157 C -0.32746 0.86693 0.09488
 C158 C -0.29922 0.87873 0.08345
 C159 C -0.24603 0.90214 0.09226
 N160 N -0.23823 0.90032 0.06170
 N161 N -0.21077 0.91095 0.05158
 C162 C -0.18999 0.92387 0.07162
 N163 N -0.19788 0.92570 0.10210
 N164 N -0.22524 0.91505 0.11220
 C165 C -0.15933 0.93581 0.06078
 C166 C -0.13945 0.95111 0.08168
 C167 C -0.11059 0.96253 0.07194
 C168 C -0.10068 0.95891 0.04104
 C169 C -0.12041 0.94349 0.02005
 C170 C -0.14950 0.93210 0.02981
 H171 H -0.26530 0.89783 0.15253
 H172 H -0.31414 0.87682 0.17226
 H173 H -0.34479 0.85841 0.07869
 H174 H -0.29535 0.87898 0.05860
 H175 H -0.14618 0.95444 0.10569
 H176 H -0.09601 0.97425 0.08877
 H177 H -0.11346 0.94036 -0.00393
 H178 H -0.16422 0.92037 0.01312
 C179 C 0.77301 0.10908 0.61074
 C180 C 0.77236 0.11907 0.64180
 C181 C 0.79955 0.12977 0.65616
 C182 C 0.82779 0.13105 0.63966
 C183 C 0.82872 0.12068 0.60883
 C184 C 0.80158 0.10959 0.59452
 C185 C 0.74383 0.09894 0.59529
 N186 N 0.74466 0.08256 0.56842
 N187 N 0.71826 0.07364 0.55460
 C188 C 0.68996 0.08099 0.56695
 N189 N 0.68918 0.09746 0.59375
 N190 N 0.71553 0.10619 0.60764
 C191 C 0.66050 0.07090 0.55200
 C192 C 0.63190 0.08453 0.56044
 C193 C 0.60384 0.07416 0.54759
 C194 C 0.60364 0.04967 0.52625
 C195 C 0.63228 0.03641 0.51730
 C196 C 0.66046 0.04706 0.52990
 H197 H 0.75080 0.11878 0.65500
 H198 H 0.79847 0.13781 0.67993
 H199 H 0.85041 0.12152 0.59586
 H200 H 0.80284 0.10209 0.57057
 H201 H 0.63114 0.10310 0.57721
 H202 H 0.58219 0.08485 0.55503
 H203 H 0.63290 0.01753 0.50087
 H204 H 0.68211 0.03608 0.52293
 C205 C 0.39925 0.27512 0.37939
 C206 C 0.39221 0.29940 0.39990
 C207 C 0.37856 0.32659 0.38892
 C208 C 0.37191 0.33019 0.35722
 C209 C 0.37912 0.30614 0.33664
 C210 C 0.39261 0.27885 0.34760
 C211 C 0.41292 0.24594 0.39117
 N212 N 0.41578 0.22096 0.37237
 N213 N 0.42744 0.19454 0.38315
 C214 C 0.43682 0.19199 0.41319
 N215 N 0.43412 0.21702 0.43194
 N216 N 0.42239 0.24341 0.42118
 C217 C 0.44909 0.16238 0.42543
 C218 C 0.46177 0.16065 0.45551
 C219 C 0.47246 0.13256 0.46741
 C220 C 0.47055 0.10549 0.44958
 C221 C 0.45820 0.10726 0.41938
 C222 C 0.44768 0.13539 0.40741
 H223 H 0.39693 0.29730 0.42451
 H224 H 0.37317 0.34492 0.40512
 H225 H 0.37388 0.30840 0.31214
 H226 H 0.39772 0.26066 0.33116
 H227 H 0.46332 0.18099 0.46999
 H228 H 0.48184 0.13200 0.49076
 H229 H 0.45647 0.08685 0.40501
 H230 H 0.43804 0.13586 0.38416
 C231 C 0.89878 0.22426 0.61517
 C232 C 0.86754 0.21723 0.60816
 C233 C 0.85332 0.19110 0.62081
 C234 C 0.87023 0.17090 0.64019
 C235 C 0.90190 0.17756 0.64631
 C236 C 0.91586 0.20421 0.63435
 C237 C 0.91316 0.25272 0.60292
 N238 N 0.93491 0.26830 0.61971
 N239 N 0.94693 0.29466 0.60914
 C240 C 0.93792 0.30624 0.58121
 N241 N 0.91642 0.29047 0.56430
 N242 N 0.90413 0.26434 0.57503
 C243 C 0.95062 0.33575 0.56966
 C244 C 0.95351 0.34100 0.53761
 C245 C 0.96455 0.36926 0.52653
 C246 C 0.97212 0.39310 0.54727
 C247 C 0.96927 0.38787 0.57935
 C248 C 0.95901 0.35927 0.59046
 H249 H 0.85380 0.23245 0.59358
 H250 H 0.82886 0.18703 0.61576
 H251 H 0.91584 0.16225 0.66056
 H252 H 0.94011 0.20899 0.63982
 H253 H 0.94731 0.32319 0.52110
 H254 H 0.96640 0.37276 0.50169
 H255 H 0.97504 0.40586 0.59580
 H256 H 0.95683 0.35583 0.61528
 C257 C 0.10312 0.73444 -0.10726
 C258 C 0.08360 0.70923 -0.11405
 C259 C 0.09624 0.68175 -0.12563
 C260 C 0.12858 0.67907 -0.13092
 C261 C 0.14804 0.70421 -0.12406
 C262 C 0.13551 0.73151 -0.11230
 C263 C 0.09015 0.76369 -0.09492
 N264 N 0.10965 0.78603 -0.08438
 N265 N 0.09838 0.81239 -0.07327
 C266 C 0.06709 0.81769 -0.07227
 N267 N 0.04747 0.79540 -0.08289
 N268 N 0.05878 0.76891 -0.09395
 C269 C 0.05499 0.84715 -0.05954
 C270 C 0.02330 0.85552 -0.06244
 C271 C 0.01247 0.88361 -0.05035
 C272 C 0.03310 0.90365 -0.03491
 C273 C 0.06470 0.89513 -0.03203
 C274 C 0.07550 0.86736 -0.04424
 H275 H 0.05859 0.71065 -0.11027
 H276 H 0.08084 0.66255 -0.13051
 H277 H 0.17300 0.70282 -0.12818
 H278 H 0.15126 0.75045 -0.10746
 H279 H 0.00691 0.84048 -0.07417
 H280 H -0.01202 0.88952 -0.05290
 H281 H 0.08130 0.91001 -0.02037
 H282 H 0.10002 0.86171 -0.04146
 C283 C 0.60152 0.76812 1.10375
 C284 C 0.63400 0.77318 1.10505
 C285 C 0.64595 0.80091 1.11643
 C286 C 0.62573 0.82438 1.12655
 C287 C 0.59327 0.81940 1.12526
 C288 C 0.58127 0.79156 1.11401
 C289 C 0.58907 0.73851 1.09177
 N290 N 0.55801 0.73185 1.09318
 N291 N 0.54708 0.70514 1.08237
 C292 C 0.56677 0.68401 1.06964
 N293 N 0.59777 0.69073 1.06827
 N294 N 0.60868 0.71735 1.07912
 C295 C 0.55498 0.65431 1.05724
 C296 C 0.57536 0.63462 1.04106
 C297 C 0.56474 0.60667 1.02912
 C298 C 0.53346 0.59749 1.03311
 C299 C 0.51297 0.61702 1.04940
 C300 C 0.52361 0.64524 1.06127
 H301 H 0.65032 0.75560 1.09754
 H302 H 0.67107 0.80387 1.11772
 H303 H 0.57721 0.83715 1.13293
 H304 H 0.55614 0.78847 1.11329
 H305 H 0.59963 0.64080 1.03743
 H306 H 0.58123 0.59220 1.01677
 H307 H 0.48873 0.61060 1.05283
 H308 H 0.50731 0.65986 1.07367
 C309 C 0.39208 0.40091 1.26371
 C310 C 0.41260 0.38696 1.28502
 C311 C 0.40119 0.37360 1.31228
 C312 C 0.36896 0.37350 1.31875
 C313 C 0.34847 0.38790 1.29766
 C314 C 0.35993 0.40162 1.27054
 C315 C 0.40414 0.41364 1.23409
 N316 N 0.38634 0.43270 1.21630
 N317 N 0.39702 0.44335 1.18924
 C318 C 0.42586 0.43518 1.17878
 N319 N 0.44365 0.41621 1.19662
 N320 N 0.43306 0.40573 1.22372
 C321 C 0.43751 0.44604 1.14827
 C322 C 0.46258 0.43079 1.13379
 C323 C 0.47344 0.44045 1.10481
 C324 C 0.45979 0.46588 1.08975
 C325 C 0.43491 0.48139 1.10431
 C326 C 0.42370 0.47141 1.13318
 H327 H 0.43754 0.38626 1.28060
 H328 H 0.41758 0.36306 1.32826
 H329 H 0.32349 0.38795 1.30182
 H330 H 0.34349 0.41205 1.25453
 H331 H 0.47365 0.41109 1.14469
 H332 H 0.49275 0.42809 1.09429
 H333 H 0.42390 0.50103 1.09323
 H334 H 0.40440 0.48368 1.14380
 C335 C 0.60156 -0.10744 0.22182
 C336 C 0.60873 -0.13907 0.22054
 C337 C 0.61973 -0.15229 0.19306
 C338 C 0.62416 -0.13407 0.16649
 C339 C 0.61666 -0.10260 0.16753
 C340 C 0.60519 -0.08942 0.19489
 C341 C 0.59130 -0.09325 0.25136
 N342 N 0.57636 -0.06559 0.25166
 N343 N 0.56753 -0.05276 0.27838
 C344 C 0.57356 -0.06694 0.30589
 N345 N 0.58856 -0.09455 0.30556
 N346 N 0.59717 -0.10747 0.27886
 C347 C 0.56381 -0.05285 0.33566
 C348 C 0.57771 -0.06232 0.36366
 C349 C 0.56796 -0.04980 0.39193
 C350 C 0.54376 -0.02788 0.39287
 C351 C 0.53006 -0.01814 0.36485
 C352 C 0.54017 -0.03032 0.33649
 H353 H 0.60603 -0.15359 0.24084
 H354 H 0.62569 -0.17656 0.19271
 H355 H 0.62006 -0.08826 0.14721
 H356 H 0.59997 -0.06498 0.19518
 H357 H 0.59613 -0.07948 0.36376
 H358 H 0.57890 -0.05785 0.41313
 H359 H 0.51139 -0.00124 0.36485
 H360 H 0.52899 -0.02260 0.31530
 C361 C -0.11461 1.10787 -0.25887
 C362 C -0.11790 1.13988 -0.26318
 C363 C -0.12800 1.15177 -0.29163
 C364 C -0.13467 1.13196 -0.31652
 C365 C -0.13193 1.09998 -0.31215
 C366 C -0.12199 1.08804 -0.28363
 C367 C -0.10313 1.09540 -0.22888
 N368 N -0.10274 1.06454 -0.22329
 N369 N -0.09191 1.05345 -0.19648
 C370 C -0.08091 1.07275 -0.17417
 N371 N -0.08138 1.10358 -0.17977
 N372 N -0.09228 1.11466 -0.20651
 C373 C -0.06824 1.06062 -0.14452
 C374 C -0.05292 1.08049 -0.12374
 C375 C -0.04055 1.06931 -0.09595
 C376 C -0.04332 1.03796 -0.08805
 C377 C -0.05881 1.01803 -0.10868
 C378 C -0.07103 1.02922 -0.13669
 H379 H -0.11271 1.15583 -0.24455
 H380 H -0.13062 1.17646 -0.29428
 H381 H -0.13714 1.08431 -0.33101
 H382 H -0.11976 1.06329 -0.28113
 H383 H -0.05025 1.10477 -0.12900
 H384 H -0.02886 1.08534 -0.08057
 H385 H -0.06131 0.99376 -0.10328
 H386 H -0.08275 1.01329 -0.15215
 C387 C 1.10300 0.60635 0.77687
 C388 C 1.11914 0.58928 0.79945
 C389 C 1.13074 0.60374 0.82603
 C390 C 1.12732 0.63576 0.83016
 C391 C 1.11086 0.65273 0.80755
 C392 C 1.09846 0.63809 0.78140
 C393 C 1.09177 0.59132 0.74826
 N394 N 1.06529 0.60124 0.73397
 N395 N 1.05553 0.58805 0.70779
 C396 C 1.07208 0.56470 0.69467
 N397 N 1.09863 0.55485 0.70888
 N398 N 1.10818 0.56779 0.73528
 C399 C 1.06166 0.55077 0.66520
 C400 C 1.08360 0.54019 0.64336
 C401 C 1.07366 0.52858 0.61471
 C402 C 1.04160 0.52652 0.60785
 C403 C 1.01968 0.53627 0.63010
 C404 C 1.02963 0.54868 0.65833
 H405 H 1.12267 0.56471 0.79659
 H406 H 1.14289 0.58995 0.84318
 H407 H 1.10818 0.67745 0.80970
 H408 H 1.08627 0.65178 0.76418
 H409 H 1.10844 0.54170 0.64809
 H410 H 1.09099 0.52117 0.59793
 H411 H 0.99483 0.53511 0.62528
 H412 H 1.01228 0.55656 0.67486
 C413 C 0.72693 0.60863 0.59863
 C414 C 0.70440 0.62129 0.57850
 C415 C 0.67676 0.63406 0.59033
 C416 C 0.67122 0.63466 0.62251
 C417 C 0.69373 0.62194 0.64255
 C418 C 0.72116 0.60902 0.63078
 C419 C 0.75645 0.59521 0.58656
 N420 N 0.77609 0.57990 0.60595
 N421 N 0.80286 0.56812 0.59556
 C422 C 0.81127 0.57118 0.56531
 N423 N 0.79162 0.58647 0.54580
 N424 N 0.76473 0.59821 0.55621
 C425 C 0.84144 0.55830 0.55425
 C426 C 0.85253 0.56417 0.52404
 C427 C 0.88152 0.55249 0.51433
 C428 C 0.89989 0.53461 0.53460
 C429 C 0.88855 0.52851 0.56462
 C430 C 0.85978 0.54021 0.57431
 H431 H 0.70805 0.62124 0.55362
 H432 H 0.65964 0.64349 0.57440
 H433 H 0.69030 0.62236 0.66745
 H434 H 0.73801 0.59963 0.64701
 H435 H 0.83898 0.57804 0.50800
 H436 H 0.88958 0.55757 0.49104
 H437 H 0.90202 0.51482 0.58088
 H438 H 0.85200 0.53509 0.59769
 C439 C 0.76954 0.39046 1.10566
 C440 C 0.77503 0.39707 1.13709
 C441 C 0.80137 0.38516 1.15217
 C442 C 0.82332 0.36711 1.13590
 C443 C 0.81793 0.36108 1.10420
 C444 C 0.79117 0.37229 1.08938
 C445 C 0.74119 0.40216 1.09004
 N446 N 0.72735 0.38568 1.06701
 N447 N 0.70141 0.39597 1.05330
 C448 C 0.68855 0.42332 1.06182
 N449 N 0.70252 0.43990 1.08468
 N450 N 0.72824 0.42944 1.09865
 C451 C 0.65960 0.43464 1.04700
 C452 C 0.65415 0.46644 1.04412
 C453 C 0.62630 0.47728 1.03110
 C454 C 0.60302 0.45652 1.02147
 C455 C 0.60853 0.42469 1.02416
 C456 C 0.63678 0.41384 1.03642
 H457 H 0.75850 0.41079 1.15023
 H458 H 0.80425 0.38974 1.17669
 H459 H 0.83441 0.34756 1.09083
 H460 H 0.78757 0.36707 1.06505
 H461 H 0.67145 0.48294 1.05195
 H462 H 0.62255 0.50194 1.02947
 H463 H 0.59095 0.40824 1.01688
 H464 H 0.64040 0.38920 1.03851
 C465 C 0.26895 1.11000 -0.10660
 C466 C 0.27456 1.10370 -0.13808
 C467 C 0.30110 1.11550 -0.15288
 C468 C 0.32313 1.13313 -0.13629
 C469 C 0.31763 1.13884 -0.10455
 C470 C 0.29067 1.12775 -0.09000
 C471 C 0.24039 1.09841 -0.09125
 N472 N 0.22661 1.11474 -0.06806
 N473 N 0.20054 1.10452 -0.05454
 C474 C 0.18748 1.07739 -0.06343
 N475 N 0.20139 1.06097 -0.08647
 N476 N 0.22723 1.07137 -0.10024
 C477 C 0.15848 1.06607 -0.04870
 C478 C 0.15290 1.03427 -0.04615
 C479 C 0.12510 1.02344 -0.03302
 C480 C 0.10200 1.04420 -0.02294
 C481 C 0.10760 1.07603 -0.02539
 C482 C 0.13581 1.08687 -0.03777
 H483 H 0.25797 1.09031 -0.15146
 H484 H 0.30407 1.11118 -0.17745
 H485 H 0.33416 1.15204 -0.09095
 H486 H 0.28698 1.13273 -0.06563
 H487 H 0.17009 1.01777 -0.05426
 H488 H 0.12129 0.99878 -0.03158
 H489 H 0.09015 1.09249 -0.01776
 H490 H 0.13953 1.11151 -0.03959
 C491 C 0.22925 -0.11428 0.40264
 C492 C 0.22480 -0.14640 0.40205
 C493 C 0.19781 -0.15903 0.38879
 C494 C 0.17451 -0.13980 0.37628
 C495 C 0.17870 -0.10769 0.37749
 C496 C 0.20580 -0.09508 0.39036
 C497 C 0.25853 -0.10079 0.41502
 N498 N 0.26659 -0.07134 0.40787
 N499 N 0.29332 -0.05933 0.41809
 C500 C 0.31308 -0.07617 0.43606
 N501 N 0.30493 -0.10556 0.44347
 N502 N 0.27824 -0.11766 0.43307
 C503 C 0.34321 -0.06292 0.44653
 C504 C 0.35996 -0.07614 0.47131
 C505 C 0.38862 -0.06361 0.48074
 C506 C 0.40130 -0.03796 0.46522
 C507 C 0.38451 -0.02480 0.44049
 C508 C 0.35571 -0.03698 0.43141
 H509 H 0.24252 -0.16182 0.41113
 H510 H 0.19538 -0.18386 0.38778
 H511 H 0.16100 -0.09235 0.36824
 H512 H 0.20839 -0.07024 0.39063
 H513 H 0.35087 -0.09607 0.48349
 H514 H 0.40108 -0.07428 0.49984
 H515 H 0.39359 -0.00494 0.42816
 H516 H 0.34348 -0.02632 0.41217
 C517 C 0.60705 -0.26602 0.60106
 C518 C 0.63949 -0.27152 0.60176
 C519 C 0.65127 -0.29960 0.61255
 C520 C 0.63091 -0.32296 0.62266
 C521 C 0.59849 -0.31759 0.62179
 C522 C 0.58668 -0.28943 0.61114
 C523 C 0.59469 -0.23596 0.59010
 N524 N 0.56370 -0.22916 0.59219
 N525 N 0.55277 -0.20203 0.58243
 C526 C 0.57237 -0.18059 0.57013
 N527 N 0.60331 -0.18743 0.56805
 N528 N 0.61424 -0.21449 0.57785
 C529 C 0.56043 -0.15044 0.55892
 C530 C 0.58054 -0.13004 0.54328
 C531 C 0.56955 -0.10180 0.53224
 C532 C 0.53818 -0.09308 0.53665
 C533 C 0.51804 -0.11329 0.55254
 C534 C 0.52903 -0.14174 0.56348
 H535 H 0.65589 -0.25397 0.59433
 H536 H 0.67637 -0.30289 0.61350
 H537 H 0.58232 -0.33525 0.62943
 H538 H 0.56158 -0.28603 0.61084
 H539 H 0.60484 -0.13593 0.53931
 H540 H 0.58576 -0.08679 0.52018
 H541 H 0.49374 -0.10725 0.55627
 H542 H 0.51293 -0.15689 0.57550
 C543 C 1.10339 0.76628 0.39769
 C544 C 1.11594 0.78859 0.41781
 C545 C 1.12981 0.81532 0.40597
 C546 C 1.13191 0.82012 0.37375
 C547 C 1.11909 0.79791 0.35367
 C548 C 1.10483 0.77139 0.36550
 C549 C 1.08967 0.73746 0.41018
 N550 N 1.07135 0.71917 0.39213
 N551 N 1.05984 0.69277 0.40313
 C552 C 1.06634 0.68347 0.43256
 N553 N 1.08454 0.70182 0.45062
 N554 N 1.09588 0.72829 0.43970
 C555 C 1.05478 0.65350 0.44445
 C556 C 1.06899 0.63979 0.47044
 C557 C 1.05907 0.61102 0.48112
 C558 C 1.03438 0.59544 0.46637
 C559 C 1.01971 0.60935 0.44073
 C560 C 1.02999 0.63800 0.42970
 H561 H 1.11497 0.78546 0.44274
 H562 H 1.13902 0.83227 0.42199
 H563 H 1.12053 0.80086 0.32874
 H564 H 1.09554 0.75458 0.34937
 H565 H 1.08821 0.65104 0.48225
 H566 H 1.07073 0.60098 0.50104
 H567 H 1.00065 0.59786 0.42888
 H568 H 1.01850 0.64804 0.40969
 C569 C -0.10895 1.26987 0.12078
 C570 C -0.09074 1.29679 0.12292
 C571 C -0.10413 1.32446 0.13296
 C572 C -0.13601 1.32580 0.14051
 C573 C -0.15432 1.29908 0.13820
 C574 C -0.14089 1.27131 0.12859
 C575 C -0.09475 1.24044 0.11055
 N576 N -0.10936 1.21318 0.11611
 N577 N -0.09670 1.18669 0.10679
 C578 C -0.06897 1.18636 0.09136
 N579 N -0.05436 1.21362 0.08578
 N580 N -0.06693 1.24010 0.09528
 C581 C -0.05540 1.15694 0.08027
 C582 C -0.03238 1.15678 0.05695
 C583 C -0.02080 1.12892 0.04534
 C584 C -0.03166 1.10065 0.05714
 C585 C -0.05403 1.10083 0.08106
 C586 C -0.06593 1.12867 0.09235
 H587 H -0.06607 1.29640 0.11722
 H588 H -0.08974 1.34492 0.13479
 H589 H -0.17890 1.29977 0.14424
 H590 H -0.15556 1.25101 0.12709
 H591 H -0.02383 1.17817 0.04713
 H592 H -0.00351 1.12952 0.02696
 H593 H -0.06292 1.07942 0.09057
 H594 H -0.08350 1.12802 0.11047
 C595 C 0.39070 0.22997 0.88046
 C596 C 0.40897 0.20308 0.87814
 C597 C 0.39573 0.17555 0.86754
 C598 C 0.36394 0.17431 0.85964
 C599 C 0.34559 0.20100 0.86210
 C600 C 0.35887 0.22864 0.87225
 C601 C 0.40471 0.25929 0.89125
 N602 N 0.39017 0.28660 0.88568
 N603 N 0.40266 0.31301 0.89539
 C604 C 0.43012 0.31323 0.91126
 N605 N 0.44465 0.28591 0.91691
 N606 N 0.43225 0.25950 0.90700
 C607 C 0.44362 0.34263 0.92248
 C608 C 0.46629 0.34285 0.94613
 C609 C 0.47800 0.37076 0.95753
 C610 C 0.46762 0.39899 0.94518
 C611 C 0.44547 0.39870 0.92106
 C612 C 0.43345 0.37086 0.90999
 H613 H 0.43357 0.20340 0.88413
 H614 H 0.41015 0.15510 0.86563
 H615 H 0.32106 0.20040 0.85581
 H616 H 0.34416 0.24891 0.87386
 H617 H 0.47455 0.32149 0.95627
 H618 H 0.49510 0.37024 0.97607
 H619 H 0.43693 0.42006 0.91112
 H620 H 0.41614 0.37147 0.89164
 C621 C 0.60620 0.60914 0.71794
 C622 C 0.60934 0.59113 0.69097
 C623 C 0.62097 0.60415 0.66358
 C624 C 0.62916 0.63545 0.66256
 C625 C 0.62530 0.65365 0.68918
 C626 C 0.61410 0.64060 0.71668
 C627 C 0.59554 0.59514 0.74746
 N628 N 0.60122 0.60941 0.77494
 N629 N 0.59211 0.59672 0.80161
 C630 C 0.57681 0.56928 0.80193
 N631 N 0.57102 0.55503 0.77444
 N632 N 0.58032 0.56764 0.74775
 C633 C 0.56639 0.55551 0.83165
 C634 C 0.54288 0.53287 0.83222
 C635 C 0.53204 0.52106 0.86048
 C636 C 0.54485 0.53131 0.88871
 C637 C 0.56896 0.55331 0.88806
 C638 C 0.57945 0.56544 0.85986
 H639 H 0.60354 0.56683 0.69124
 H640 H 0.62391 0.58983 0.64321
 H641 H 0.63177 0.67779 0.68882
 H642 H 0.61180 0.65511 0.73699
 H643 H 0.53232 0.52479 0.81086
 H644 H 0.51347 0.50407 0.86025
 H645 H 0.57924 0.56175 0.90941
 H646 H 0.59776 0.58270 0.86019
 C647 C 0.38715 0.10739 0.76476
 C648 C 0.37981 0.08822 0.79012
 C649 C 0.36799 0.10082 0.81768
 C650 C 0.36296 0.13275 0.82026
 C651 C 0.37044 0.15184 0.79499
 C652 C 0.38241 0.13935 0.76763
 C653 C 0.39975 0.09451 0.73540
 N654 N 0.41055 0.11368 0.71289
 N655 N 0.42179 0.10252 0.68638
 C656 C 0.42268 0.07167 0.68109
 N657 N 0.41184 0.05239 0.70357
 N658 N 0.40064 0.06359 0.73020
 C659 C 0.43538 0.05971 0.65137
 C660 C 0.43273 0.02838 0.64324
 C661 C 0.44462 0.01767 0.61486
 C662 C 0.45958 0.03805 0.59422
 C663 C 0.46227 0.06927 0.60252
 C664 C 0.45028 0.07995 0.63062
 H665 H 0.38336 0.06353 0.78876
 H666 H 0.36275 0.08572 0.83704
 H667 H 0.36666 0.17649 0.79635
 H668 H 0.38771 0.15484 0.74860
 H669 H 0.42132 0.01220 0.65869
 H670 H 0.44221 -0.00653 0.60915
 H671 H 0.47359 0.08566 0.58720
 H672 H 0.45286 0.10418 0.63607
 C673 C 0.11325 0.88920 0.27825
 C674 C 0.09263 0.88219 0.30275
 C675 C 0.10370 0.86831 0.32993
 C676 C 0.13558 0.86132 0.33322
 C677 C 0.15621 0.86830 0.30886
 C678 C 0.14518 0.88203 0.28162
 C679 C 0.10157 0.90376 0.24931
 N680 N 0.12074 0.90748 0.22441
 N681 N 0.11022 0.92028 0.19830
 C682 C 0.08010 0.93003 0.19598
 N683 N 0.06095 0.92642 0.22091
 N684 N 0.07146 0.91354 0.24701
 C685 C 0.06823 0.94372 0.16668
 C686 C 0.03795 0.95634 0.16518
 C687 C 0.02641 0.96834 0.13730
 C688 C 0.04479 0.96784 0.11023
 C689 C 0.07522 0.95561 0.11183
 C690 C 0.08683 0.94377 0.13974
 H691 H 0.06791 0.88734 0.30093
 H692 H 0.08749 0.86322 0.34857
 H693 H 0.18087 0.86292 0.31094
 H694 H 0.16172 0.88710 0.26327
 H695 H 0.02303 0.95680 0.18550
 H696 H 0.00286 0.97757 0.13687
 H697 H 0.09001 0.95492 0.09141
 H698 H 0.11026 0.93425 0.14005
 C699 C 0.88783 0.39315 0.23458
 C700 C 0.88040 0.41221 0.20916
 C701 C 0.86824 0.39951 0.18181
 C702 C 0.86293 0.36761 0.17954
 C703 C 0.87035 0.34865 0.20492
 C704 C 0.88270 0.36122 0.23206
 C705 C 0.90103 0.40607 0.26362
 N706 N 0.91283 0.38696 0.28568
 N707 N 0.92460 0.39815 0.31193
 C708 C 0.92502 0.42897 0.31740
 N709 N 0.91319 0.44819 0.29537
 N710 N 0.90148 0.43697 0.26898
 C711 C 0.93808 0.44096 0.34692
 C712 C 0.93414 0.47196 0.35574
 C713 C 0.94596 0.48258 0.38416
 C714 C 0.96214 0.46244 0.40414
 C715 C 0.96633 0.43161 0.39503
 C716 C 0.95441 0.42101 0.36689
 H717 H 0.88426 0.43686 0.21029
 H718 H 0.86306 0.41449 0.16235
 H719 H 0.86634 0.32403 0.20380
 H720 H 0.88801 0.34584 0.25117
 H721 H 0.92163 0.48791 0.34088
 H722 H 0.94240 0.50648 0.39050
 H723 H 0.97864 0.41543 0.40981
 H724 H 0.95804 0.39704 0.36085
   
