data_POSCAR
  _audit_creation_date              2014-09-24
  _audit_creation_method            'ToBaCCo'
  _symmetry_space_group_name_H-M    'P1'
  _symmetry_Int_Tables_number       1
  _symmetry_cell_setting            triclinic
  loop_
  _symmetry_equiv_pos_as_xyz
 x,y,z
_cell_length_a 51.9276
_cell_length_b 51.9359
_cell_length_c 15.7174
_cell_angle_alpha 89.955900
_cell_angle_beta 90.088900
_cell_angle_gamma 120.052400
loop_
  _atom_site_label
  _atom_site_type_symbol
  _atom_site_fract_x
  _atom_site_fract_y
  _atom_site_fract_z
C1 C 0.24442 0.49055 0.53970
 C2 C 0.24622 0.49332 0.45331
 C3 C 0.22370 0.49613 0.40205
 C4 C 0.27001 0.49170 0.40614
 C5 C 0.26876 0.49048 0.58909
 C6 C 0.21832 0.48725 0.58805
 C7 C 0.20848 0.47576 0.33695
 C8 C 0.18498 0.47596 0.29432
 C9 C 0.17581 0.49677 0.31521
 C10 C 0.19281 0.51833 0.37812
 C11 C 0.21633 0.51800 0.42041
 C12 C 0.27067 0.46505 0.40433
 C13 C 0.29361 0.46369 0.36226
 C14 C 0.31641 0.48907 0.32233
 C15 C 0.31558 0.51570 0.32372
 C16 C 0.29231 0.51690 0.36456
 C17 C 0.29764 0.51514 0.58677
 C18 C 0.32096 0.51425 0.62841
 C19 C 0.31585 0.48865 0.67322
 C20 C 0.28665 0.46430 0.67737
 C21 C 0.26330 0.46529 0.63602
 C22 C 0.22262 0.50534 0.65915
 C23 C 0.19822 0.50379 0.70151
 C24 C 0.16922 0.48434 0.67277
 C25 C 0.16482 0.46547 0.60376
 C26 C 0.18915 0.46648 0.56285
 H27 H 0.21381 0.45861 0.32183
 H28 H 0.17301 0.45806 0.24965
 H29 H 0.18894 0.53632 0.39422
 H30 H 0.22849 0.53455 0.46886
 H31 H 0.25351 0.44540 0.43602
 H32 H 0.29393 0.44299 0.36242
 H33 H 0.29201 0.53760 0.36547
 H34 H 0.30214 0.53494 0.55181
 H35 H 0.34301 0.53363 0.62544
 H36 H 0.28197 0.44413 0.71047
 H37 H 0.24112 0.44605 0.63832
 H38 H 0.24488 0.52125 0.68040
 H39 H 0.20198 0.51843 0.75496
 H40 H 0.14255 0.44998 0.58163
 H41 H 0.18521 0.45150 0.51024
 H42 H 0.33287 0.53548 0.29289
 C43 C 0.50691 -0.24721 0.54328
 C44 C 0.50717 -0.24713 0.45683
 C45 C 0.50925 -0.27041 0.40832
 C46 C 0.50689 -0.22295 0.40775
 C47 C 0.50882 -0.22185 0.59143
 C48 C 0.50626 -0.27182 0.59276
 C49 C 0.53538 -0.27206 0.41101
 C50 C 0.53677 -0.29498 0.36876
 C51 C 0.51189 -0.31682 0.32439
 C52 C 0.48585 -0.31494 0.32112
 C53 C 0.48467 -0.29165 0.36198
 C54 C 0.53162 -0.20370 0.35854
 C55 C 0.53251 -0.17940 0.31743
 C56 C 0.50851 -0.17413 0.32404
 C57 C 0.48335 -0.19412 0.37137
 C58 C 0.48258 -0.21828 0.41291
 C59 C 0.48380 -0.22487 0.63419
 C60 C 0.48504 -0.20039 0.67515
 C61 C 0.51154 -0.17277 0.67543
 C62 C 0.53679 -0.17005 0.63435
 C63 C 0.53537 -0.19438 0.59208
 C64 C 0.48301 -0.30110 0.58217
 C65 C 0.48368 -0.32452 0.62377
 C66 C 0.50765 -0.31931 0.67781
 C67 C 0.53033 -0.28942 0.69041
 C68 C 0.52955 -0.26609 0.64852
 H69 H 0.55452 -0.25577 0.44660
 H70 H 0.55701 -0.29612 0.37244
 H71 H 0.46648 -0.33147 0.28685
 H72 H 0.46436 -0.29062 0.35952
 H73 H 0.55062 -0.20694 0.35428
 H74 H 0.55238 -0.16427 0.28256
 H75 H 0.46318 -0.23319 0.44993
 H76 H 0.46316 -0.24598 0.63399
 H77 H 0.46537 -0.20298 0.70682
 H78 H 0.55738 -0.14892 0.63330
 H79 H 0.55484 -0.19179 0.55918
 H80 H 0.46440 -0.30586 0.54102
 H81 H 0.46481 -0.34657 0.61465
 H82 H 0.54977 -0.28375 0.72864
 H83 H 0.54777 -0.24357 0.65724
 H84 H 0.46425 -0.19109 0.37640
 C85 C 1.24582 0.75534 0.54345
 C86 C 1.24577 0.75574 0.45699
 C87 C 1.27027 0.78009 0.40834
 C88 C 1.22047 0.73259 0.40789
 C89 C 1.22163 0.73064 0.59221
 C90 C 1.26943 0.78037 0.59223
 C91 C 1.26476 0.79910 0.35833
 C92 C 1.28805 0.82318 0.31613
 C93 C 1.31766 0.82891 0.32286
 C94 C 1.32258 0.80881 0.37140
 C95 C 1.29919 0.78471 0.41307
 C96 C 1.19271 0.73099 0.40990
 C97 C 1.16840 0.70809 0.36732
 C98 C 1.17146 0.68625 0.32334
 C99 C 1.19938 0.68811 0.32062
 C100 C 1.22383 0.71137 0.36181
 C101 C 1.21559 0.70138 0.58155
 C102 C 1.19143 0.67788 0.62272
 C103 C 1.17258 0.68297 0.67645
 C104 C 1.17971 0.71282 0.68889
 C105 C 1.20389 0.73624 0.64742
 C106 C 1.29357 0.77847 0.62420
 C107 C 1.31715 0.80298 0.66417
 C108 C 1.31664 0.82972 0.67560
 C109 C 1.29153 0.83083 0.64562
 C110 C 1.26845 0.80658 0.60337
 H111 H 1.24249 0.79583 0.35408
 H112 H 1.28271 0.83802 0.28225
 H113 H 1.34432 0.81088 0.37570
 H114 H 1.30367 0.76964 0.44932
 H115 H 1.18986 0.74728 0.44531
 H116 H 1.14702 0.70694 0.37056
 H117 H 1.24516 0.71237 0.35990
 H118 H 1.22955 0.69671 0.54075
 H119 H 1.18831 0.65587 0.61361
 H120 H 1.16584 0.71840 0.72678
 H121 H 1.20810 0.75871 0.65615
 H122 H 1.29446 0.75822 0.61633
 H123 H 1.33527 0.80046 0.68841
 H124 H 1.29027 0.85095 0.65020
 H125 H 1.24998 0.80837 0.57818
 H126 H 1.20221 0.67156 0.28665
 C127 C 0.75327 0.50701 0.54418
 C128 C 0.75316 0.50727 0.45781
 C129 C 0.77758 0.50772 0.40847
 C130 C 0.72972 0.50917 0.40971
 C131 C 0.72878 0.50645 0.59402
 C132 C 0.77857 0.50849 0.59153
 C133 C 0.79869 0.53399 0.36842
 C134 C 0.82298 0.53516 0.32657
 C135 C 0.82645 0.50999 0.32375
 C136 C 0.80472 0.48346 0.36219
 C137 C 0.78048 0.48235 0.40410
 C138 C 0.72848 0.53553 0.41048
 C139 C 0.70541 0.53684 0.36869
 C140 C 0.68303 0.51166 0.32671
 C141 C 0.68447 0.48537 0.32547
 C142 C 0.70789 0.48425 0.36589
 C143 C 0.69959 0.48283 0.58524
 C144 C 0.67617 0.48340 0.62697
 C145 C 0.68127 0.50768 0.67934
 C146 C 0.71107 0.53080 0.69002
 C147 C 0.73442 0.53013 0.64797
 C148 C 0.77804 0.48232 0.61588
 C149 C 0.80280 0.48359 0.65522
 C150 C 0.82847 0.51121 0.67327
 C151 C 0.82829 0.53743 0.65004
 C152 C 0.80379 0.53601 0.60867
 H153 H 0.79676 0.55379 0.37159
 H154 H 0.83948 0.55601 0.29854
 H155 H 0.80647 0.46356 0.35987
 H156 H 0.76413 0.46180 0.43397
 H157 H 0.74521 0.55491 0.44424
 H158 H 0.70461 0.55727 0.37082
 H159 H 0.70859 0.46376 0.36502
 H160 H 0.69492 0.46397 0.54536
 H161 H 0.65421 0.46423 0.61930
 H162 H 0.71663 0.55049 0.72681
 H163 H 0.75680 0.54872 0.65520
 H164 H 0.75859 0.46089 0.60307
 H165 H 0.80121 0.46280 0.67398
 H166 H 0.84762 0.55919 0.65940
 H167 H 0.80466 0.55640 0.58878
 H168 H 0.66752 0.46577 0.29303
 C169 C 0.49287 0.24616 0.54603
 C170 C 0.49002 0.24436 0.45972
 C171 C 0.48959 0.26853 0.41071
 C172 C 0.48684 0.21836 0.41114
 C173 C 0.49555 0.22357 0.59716
 C174 C 0.49143 0.27004 0.59305
 C175 C 0.46353 0.26340 0.36928
 C176 C 0.46248 0.28669 0.32779
 C177 C 0.48759 0.31546 0.32655
 C178 C 0.51394 0.32020 0.36613
 C179 C 0.51492 0.29694 0.40771
 C180 C 0.46611 0.18915 0.43598
 C181 C 0.46522 0.16490 0.39494
 C182 C 0.48418 0.16940 0.32614
 C183 C 0.50359 0.19843 0.29770
 C184 C 0.50502 0.22276 0.34020
 C185 C 0.51776 0.21655 0.57961
 C186 C 0.51809 0.19298 0.62161
 C187 C 0.49621 0.17577 0.68296
 C188 C 0.47491 0.18424 0.70292
 C189 C 0.47470 0.20781 0.66082
 C190 C 0.51752 0.29511 0.62089
 C191 C 0.51623 0.31848 0.66077
 C192 C 0.48863 0.31686 0.67607
 C193 C 0.46246 0.29096 0.64954
 C194 C 0.46394 0.26807 0.60753
 H195 H 0.44379 0.24157 0.37113
 H196 H 0.44177 0.28235 0.29872
 H197 H 0.53383 0.34191 0.36488
 H198 H 0.53535 0.30111 0.43833
 H199 H 0.45105 0.18512 0.48841
 H200 H 0.44977 0.14259 0.41683
 H201 H 0.52090 0.24505 0.31921
 H202 H 0.53452 0.22896 0.53194
 H203 H 0.53599 0.18886 0.60632
 H204 H 0.45696 0.17171 0.74705
 H205 H 0.45725 0.21276 0.67519
 H206 H 0.53892 0.29679 0.61032
 H207 H 0.53693 0.33729 0.68214
 H208 H 0.44076 0.28883 0.65689
 H209 H 0.44362 0.24886 0.58551
 H210 H 0.51829 0.20227 0.24441
 C211 C 0.75558 0.24550 0.54472
 C212 C 0.75594 0.24570 0.45827
 C213 C 0.73155 0.22166 0.40848
 C214 C 0.78129 0.26931 0.41053
 C215 C 0.77931 0.27008 0.59495
 C216 C 0.73196 0.22004 0.59210
 C217 C 0.73699 0.20238 0.35941
 C218 C 0.71358 0.17819 0.31778
 C219 C 0.68433 0.17306 0.32379
 C220 C 0.67923 0.19312 0.37085
 C221 C 0.70262 0.21716 0.41289
 C222 C 0.80923 0.27131 0.41346
 C223 C 0.83357 0.29462 0.37225
 C224 C 0.83038 0.31649 0.32872
 C225 C 0.80230 0.31427 0.32525
 C226 C 0.77783 0.29061 0.36506
 C227 C 0.78493 0.29924 0.58548
 C228 C 0.80877 0.32269 0.62785
 C229 C 0.82774 0.31766 0.68147
 C230 C 0.82091 0.28786 0.69308
 C231 C 0.79702 0.26447 0.65044
 C232 C 0.70978 0.22296 0.63415
 C233 C 0.68631 0.19837 0.67415
 C234 C 0.68514 0.17075 0.67418
 C235 C 0.70783 0.16813 0.63384
 C236 C 0.73097 0.19257 0.59250
 H237 H 0.75921 0.20552 0.35569
 H238 H 0.71827 0.16302 0.28308
 H239 H 0.65712 0.19021 0.37538
 H240 H 0.69814 0.23209 0.44977
 H241 H 0.81218 0.25499 0.44845
 H242 H 0.85506 0.29601 0.37603
 H243 H 0.75637 0.28933 0.36251
 H244 H 0.77092 0.30387 0.54461
 H245 H 0.81159 0.34462 0.61959
 H246 H 0.83483 0.28233 0.73107
 H247 H 0.79301 0.24204 0.65837
 H248 H 0.71029 0.24406 0.63407
 H249 H 0.66911 0.20089 0.70530
 H250 H 0.70724 0.14699 0.63266
 H251 H 0.74798 0.19005 0.56009
 H252 H 0.79935 0.33082 0.29156
 N253 N 0.96854 0.53088 0.09071
 N254 N 0.94557 0.53493 0.10080
 N255 N 1.03151 0.54509 0.14990
 N256 N 1.05428 0.55988 0.20178
 N257 N 1.03112 0.56276 0.09079
 N258 N 1.05347 0.59014 0.10129
 N259 N 0.96888 0.51332 0.15030
 N260 N 0.94621 0.50499 0.20257
 C261 C 0.93184 0.51864 0.17099
 C262 C 1.06774 0.58798 0.17075
 N263 N 1.03235 0.47221 0.09345
 N264 N 1.05591 0.46908 0.10237
 N265 N 0.96935 0.45814 0.15215
 N266 N 0.94674 0.44352 0.20461
 N267 N 0.96978 0.44015 0.09431
 N268 N 0.94767 0.41276 0.10620
 N269 N 1.03208 0.49006 0.15206
 N270 N 1.05543 0.49953 0.20255
 Mn271 Mn 1.00044 0.50165 0.15216
 C272 C 1.07008 0.48619 0.17091
 C273 C 0.93345 0.41521 0.17517
 N274 N 1.03111 0.56207 -0.09268
 N275 N 1.05392 0.58917 -0.10338
 N276 N 0.96838 0.51211 -0.15031
 N277 N 0.94557 0.50356 -0.20248
 N278 N 0.96857 0.53047 -0.09265
 N279 N 0.94609 0.53518 -0.10451
 N280 N 1.03108 0.54400 -0.15115
 N281 N 1.05384 0.55833 -0.20319
 Mn282 Mn 0.99984 0.54688 -0.00098
 C283 C 1.06790 0.58651 -0.17273
 C284 C 0.93191 0.51819 -0.17317
 N285 N 0.96929 0.43947 -0.08897
 N286 N 0.94649 0.41226 -0.09839
 N287 N 1.03152 0.48871 -0.14967
 N288 N 1.05352 0.49597 -0.20383
 N289 N 1.03203 0.47149 -0.08930
 N290 N 1.05457 0.46684 -0.10008
 N291 N 0.96906 0.45710 -0.14848
 N292 N 0.94618 0.44243 -0.19997
 Mn293 Mn 1.00087 0.45551 0.00238
 Mn294 Mn 1.00001 0.50049 -0.15094
 Cl295 Cl 1.00028 0.50113 0.00065
 C296 C 0.93229 0.41446 -0.16809
 C297 C 1.06777 0.48224 -0.17180
 N298 N 0.54252 0.51114 0.14975
 N299 N 0.55697 0.50295 0.20225
 N300 N 0.52944 0.56054 0.09040
 N301 N 0.53434 0.58783 0.10143
 N302 N 0.51127 0.54262 0.14889
 N303 N 0.50307 0.55717 0.20082
 N304 N 0.56053 0.52925 0.09131
 N305 N 0.58778 0.53409 0.10285
 C306 C 0.58521 0.51750 0.17225
 C307 C 0.51769 0.58537 0.17050
 N308 N 0.51142 0.54228 -0.15187
 N309 N 0.50284 0.55655 -0.20371
 N310 N 0.56060 0.52892 -0.09197
 N311 N 0.58765 0.53300 -0.10170
 N312 N 0.54265 0.51100 -0.15089
 N313 N 0.55697 0.50240 -0.20230
 N314 N 0.52930 0.56028 -0.09293
 N315 N 0.53333 0.58729 -0.10303
 Mn316 Mn 0.54529 0.54507 -0.00086
 C317 C 0.51672 0.58464 -0.17257
 C318 C 0.58505 0.51632 -0.17096
 N319 N 0.45585 0.48731 0.14883
 N320 N 0.44152 0.49594 0.20010
 N321 N 0.46907 0.43781 0.09086
 N322 N 0.46448 0.41063 0.10194
 N323 N 0.48690 0.45576 0.14996
 N324 N 0.49488 0.44127 0.20292
 N325 N 0.43785 0.46913 0.09042
 N326 N 0.41071 0.46470 0.10074
 Mn327 Mn 0.49914 0.49921 0.15042
 C328 C 0.41335 0.48160 0.16943
 C329 C 0.48072 0.41312 0.17221
 N330 N 0.48731 0.45564 -0.15066
 N331 N 0.49586 0.44123 -0.20191
 N332 N 0.43794 0.46914 -0.09283
 N333 N 0.41083 0.46481 -0.10361
 N334 N 0.45589 0.48683 -0.15205
 N335 N 0.44146 0.49494 -0.20489
 N336 N 0.46898 0.43767 -0.09253
 N337 N 0.46428 0.41044 -0.10323
 Mn338 Mn 0.49932 0.49894 -0.15240
 Mn339 Mn 0.45313 0.45311 -0.00102
 Cl340 Cl 0.49922 0.49908 -0.00093
 C341 C 0.48125 0.41304 -0.17167
 C342 C 0.41335 0.48102 -0.17391
 N343 N 0.43936 -0.03056 0.09011
 N344 N 0.41211 -0.05317 0.10050
 N345 N 0.48881 0.03178 0.14912
 N346 N 0.49617 0.05389 0.20298
 N347 N 0.47146 0.03213 0.08888
 N348 N 0.46680 0.05467 0.09948
 N349 N 0.45716 -0.03070 0.14932
 N350 N 0.44254 -0.05336 0.20150
 C351 C 0.41444 -0.06719 0.17038
 C352 C 0.48235 0.06805 0.17092
 N353 N 0.56194 0.03114 0.09129
 N354 N 0.58913 0.05386 0.10173
 N355 N 0.51233 -0.03125 0.15085
 N356 N 0.50376 -0.05397 0.20322
 N357 N 0.53010 -0.03159 0.09211
 N358 N 0.53398 -0.05464 0.10265
 N359 N 0.54406 0.03125 0.15011
 N360 N 0.55861 0.05393 0.20232
 Mn361 Mn 0.50060 0.00027 0.15087
 C362 C 0.58671 0.06786 0.17141
 C363 C 0.51745 -0.06837 0.17238
 N364 N 0.47164 0.03182 -0.09388
 N365 N 0.46864 0.05545 -0.10294
 N366 N 0.45730 -0.03146 -0.15103
 N367 N 0.44260 -0.05436 -0.20254
 N368 N 0.43944 -0.03073 -0.09331
 N369 N 0.41201 -0.05288 -0.10457
 N370 N 0.48923 0.03127 -0.15281
 N371 N 0.49862 0.05448 -0.20375
 Mn372 Mn 0.45516 0.00067 -0.00206
 C373 C 0.48552 0.06934 -0.17198
 C374 C 0.41435 -0.06746 -0.17284
 N375 N 0.53041 -0.03190 -0.09103
 N376 N 0.53498 -0.05451 -0.10152
 N377 N 0.54428 0.03067 -0.15128
 N378 N 0.55892 0.05329 -0.20368
 N379 N 0.56212 0.03057 -0.09218
 N380 N 0.58943 0.05294 -0.10319
 N381 N 0.51235 -0.03206 -0.14982
 N382 N 0.50392 -0.05493 -0.20149
 Mn383 Mn 0.54648 -0.00043 0.00012
 Mn384 Mn 0.50077 -0.00042 -0.15231
 Cl385 Cl 0.50075 0.00002 -0.00086
 C386 C 0.51825 -0.06872 -0.17064
 C387 C 0.58708 0.06695 -0.17298
 C388 C 1.13889 0.47972 0.20112
 C389 C 1.15119 0.49551 0.27808
 C390 C 1.13627 0.50921 0.31615
 C391 C 1.11028 0.50644 0.28084
 C392 C 1.09813 0.48999 0.20637
 C393 C 1.11285 0.47697 0.16638
 H394 H 1.14958 0.47017 0.16439
 H395 H 1.14310 0.52069 0.37637
 H396 H 1.09930 0.51670 0.31323
 H397 H 1.10430 0.46466 0.10764
 C398 C 0.49099 0.62869 0.30070
 C399 C 0.51296 0.65816 0.28320
 C400 C 0.53626 0.66357 0.22755
 C401 C 0.53752 0.63987 0.18975
 C402 C 0.51585 0.61038 0.20843
 C403 C 0.49258 0.60498 0.26425
 H404 H 0.47294 0.62405 0.34390
 H405 H 0.55336 0.68614 0.21298
 H406 H 0.55570 0.64461 0.14697
 H407 H 0.47554 0.58243 0.27942
 C408 C 0.37096 -0.13299 0.31607
 C409 C 0.34168 -0.14575 0.28356
 C410 C 0.33715 -0.13208 0.21163
 C411 C 0.36075 -0.10678 0.17457
 C412 C 0.38954 -0.09425 0.20825
 C413 C 0.39442 -0.10766 0.27906
 H414 H 0.37593 -0.14150 0.37277
 H415 H 0.31563 -0.14129 0.18131
 H416 H 0.35641 -0.09704 0.11932
 H417 H 0.41642 -0.09837 0.30672
 C418 C 0.86481 0.52784 0.20744
 C419 C 0.85306 0.51165 0.28306
 C420 C 0.86730 0.49752 0.32066
 C421 C 0.89275 0.49964 0.28382
 C422 C 0.90461 0.51604 0.20877
 C423 C 0.89034 0.53002 0.17070
 H424 H 0.85413 0.53865 0.17632
 H425 H 0.85910 0.48527 0.37958
 H426 H 0.90332 0.48866 0.31466
 H427 H 0.89891 0.54267 0.11254
 C428 C 0.50032 0.36891 0.32394
 C429 C 0.48615 0.34058 0.28595
 C430 C 0.47034 0.33642 0.20966
 C431 C 0.46863 0.36000 0.17253
 C432 C 0.48273 0.38823 0.21081
 C433 C 0.49869 0.39248 0.28666
 H434 H 0.51227 0.37276 0.38339
 H435 H 0.45952 0.31500 0.17819
 H436 H 0.45630 0.35613 0.11377
 H437 H 0.50972 0.41399 0.31771
 C438 C 0.66263 0.13595 0.20415
 C439 C 0.65915 0.14642 0.28340
 C440 C 0.63149 0.13087 0.32481
 C441 C 0.60794 0.10552 0.28798
 C442 C 0.61157 0.09496 0.20932
 C443 C 0.63911 0.11042 0.16765
 H444 H 0.68347 0.14763 0.16994
 H445 H 0.62817 0.13793 0.38660
 H446 H 0.58698 0.09395 0.32171
 H447 H 0.64244 0.10286 0.10662
 C448 C 0.48050 0.13902 -0.20000
 C449 C 0.49496 0.15027 -0.27885
 C450 C 0.50727 0.13462 -0.31972
 C451 C 0.50453 0.10864 -0.28448
 C452 C 0.48938 0.09738 -0.20760
 C453 C 0.47768 0.11296 -0.16531
 H454 H 0.47189 0.15054 -0.16290
 H455 H 0.51777 0.14123 -0.38137
 H456 H 0.51374 0.09699 -0.31861
 H457 H 0.46635 0.10506 -0.10496
 C458 C 0.66160 0.52640 -0.20787
 C459 C 0.65726 0.50911 -0.28175
 C460 C 0.62825 0.49377 -0.31672
 C461 C 0.60492 0.49600 -0.28035
 C462 C 0.60969 0.51355 -0.20792
 C463 C 0.63817 0.52855 -0.17168
 H464 H 0.68281 0.53768 -0.17549
 H465 H 0.62345 0.48105 -0.37482
 H466 H 0.58317 0.48426 -0.30993
 H467 H 0.64238 0.54196 -0.11504
 C468 C 0.86596 0.33764 -0.20477
 C469 C 0.85314 0.34175 -0.27941
 C470 C 0.86691 0.37063 -0.31505
 C471 C 0.89237 0.39408 -0.27845
 C472 C 0.90500 0.38958 -0.20516
 C473 C 0.89148 0.36122 -0.16835
 H474 H 0.85597 0.31652 -0.17200
 H475 H 0.85916 0.37526 -0.37380
 H476 H 0.90243 0.41574 -0.30856
 H477 H 0.90057 0.35721 -0.11109
 C478 C 0.53571 -0.12924 -0.22568
 C479 C 0.51275 -0.14664 -0.28311
 C480 C 0.49132 -0.13856 -0.30222
 C481 C 0.49313 -0.11318 -0.26568
 C482 C 0.51610 -0.09576 -0.20826
 C483 C 0.53720 -0.10417 -0.18790
 H484 H 0.55238 -0.13517 -0.20977
 H485 H 0.47355 -0.15157 -0.34680
 H486 H 0.47652 -0.10722 -0.28218
 H487 H 0.55513 -0.09110 -0.14385
 C488 C 0.36883 0.49975 -0.32705
 C489 C 0.34098 0.48711 -0.28649
 C490 C 0.33730 0.47265 -0.20798
 C491 C 0.36082 0.47069 -0.17132
 C492 C 0.38855 0.48328 -0.21213
 C493 C 0.39237 0.49796 -0.29010
 H494 H 0.37231 0.51059 -0.38824
 H495 H 0.31631 0.46306 -0.17444
 H496 H 0.35731 0.45940 -0.11084
 H497 H 0.41348 0.50778 -0.32314
 C498 C 1.13447 0.66306 -0.20988
 C499 C 1.14706 0.65892 -0.28476
 C500 C 1.13303 0.63005 -0.32066
 C501 C 1.10753 0.60666 -0.28400
 C502 C 1.09515 0.61122 -0.21040
 C503 C 1.10894 0.63958 -0.17346
 H504 H 1.14467 0.68413 -0.17682
 H505 H 1.14065 0.62541 -0.37955
 H506 H 1.09724 0.58501 -0.31421
 H507 H 1.10007 0.64365 -0.11595
 C508 C 0.87296 0.53701 -0.23560
 C509 C 0.85378 0.51263 -0.28748
 C510 C 0.86080 0.48988 -0.29976
 C511 C 0.88628 0.49183 -0.26325
 C512 C 0.90501 0.51610 -0.21167
 C513 C 0.89798 0.53849 -0.19744
 H514 H 0.86822 0.55459 -0.22133
 H515 H 0.84750 0.47110 -0.34087
 H516 H 0.89129 0.47426 -0.27521
 H517 H 0.91203 0.55738 -0.15743
 C518 C 0.51033 0.37037 -0.29433
 C519 C 0.48718 0.34063 -0.28431
 C520 C 0.46234 0.33534 -0.23464
 C521 C 0.46076 0.35881 -0.19663
 C522 C 0.48350 0.38824 -0.20902
 C523 C 0.50827 0.39384 -0.25817
 H524 H 0.52950 0.37590 -0.33364
 H525 H 0.44442 0.31298 -0.22215
 H526 H 0.44149 0.35395 -0.15848
 H527 H 0.52612 0.41643 -0.26861
 C528 C 0.66535 0.12714 -0.22731
 C529 C 0.66003 0.14456 -0.28518
 C530 C 0.63058 0.13651 -0.30524
 C531 C 0.60682 0.11117 -0.26899
 C532 C 0.61213 0.09378 -0.21093
 C533 C 0.64159 0.10212 -0.18983
 H534 H 0.68790 0.13305 -0.21070
 H535 H 0.62600 0.14954 -0.35019
 H536 H 0.58430 0.10527 -0.28606
 H537 H 0.64626 0.08906 -0.14527
 C538 C 1.12441 0.49005 -0.33569
 C539 C 1.14354 0.48420 -0.28684
 C540 C 1.13797 0.47817 -0.19971
 C541 C 1.11318 0.47739 -0.16225
 C542 C 1.09407 0.48337 -0.21103
 C543 C 1.10005 0.49000 -0.29784
 H544 H 1.12850 0.49491 -0.40298
 H545 H 1.15251 0.47359 -0.16114
 H546 H 1.10907 0.47235 -0.09507
 H547 H 1.08559 0.49461 -0.33675
 C548 C 0.49457 0.62791 -0.31977
 C549 C 0.50923 0.65672 -0.28348
 C550 C 0.52599 0.66090 -0.20845
 C551 C 0.52826 0.63751 -0.17233
 C552 C 0.51390 0.60923 -0.20975
 C553 C 0.49690 0.60462 -0.28341
 H554 H 0.48232 0.62327 -0.37878
 H555 H 0.53672 0.68192 -0.17511
 H556 H 0.54122 0.64159 -0.11473
 H557 H 0.48569 0.58302 -0.31394
 C558 C 0.37020 -0.13975 -0.29275
 C559 C 0.34078 -0.14516 -0.28529
 C560 C 0.33622 -0.12453 -0.23870
 C561 C 0.36006 -0.09967 -0.20085
 C562 C 0.38918 -0.09421 -0.21055
 C563 C 0.39408 -0.11437 -0.25696
 H564 H 0.37520 -0.15426 -0.32976
 H565 H 0.31410 -0.12800 -0.22837
 H566 H 0.35574 -0.08445 -0.16488
 H567 H 0.41643 -0.11058 -0.26528
 C568 C 0.52395 -0.13713 0.20436
 C569 C 0.51008 -0.14746 0.28377
 C570 C 0.49828 -0.13169 0.32541
 C571 C 0.50041 -0.10618 0.28875
 C572 C 0.51463 -0.09571 0.21008
 C573 C 0.52631 -0.11145 0.16808
 H574 H 0.53285 -0.14898 0.16991
 H575 H 0.48791 -0.13870 0.38726
 H576 H 0.49129 -0.09441 0.32264
 H577 H 0.53719 -0.10399 0.10700
 C578 C 0.37083 0.50897 0.30046
 C579 C 0.34125 0.48780 0.28078
 C580 C 0.33554 0.46494 0.22297
 C581 C 0.35903 0.46324 0.18555
 C582 C 0.38860 0.48403 0.20658
 C583 C 0.39431 0.50696 0.26420
 H584 H 0.37571 0.52666 0.34535
 H585 H 0.31288 0.44848 0.20660
 H586 H 0.35405 0.44536 0.14128
 H587 H 0.41693 0.52334 0.28118
 C588 C 1.12744 0.66637 0.22615
 C589 C 1.14536 0.66114 0.28236
 C590 C 1.13785 0.63174 0.30075
 C591 C 1.11252 0.60791 0.26461
 C592 C 1.09462 0.61313 0.20824
 C593 C 1.10244 0.64254 0.18865
 H594 H 1.13293 0.68890 0.21095
 H595 H 1.15129 0.62724 0.34443
 H596 H 1.10702 0.58543 0.28047
 H597 H 1.08896 0.64712 0.14543
 C598 C 0.49017 0.12477 0.33460
 C599 C 0.48418 0.14379 0.28572
 C600 C 0.47811 0.13815 0.19861
 C601 C 0.47739 0.11338 0.16120
 C602 C 0.48347 0.09437 0.21002
 C603 C 0.49018 0.10043 0.29680
 H604 H 0.49506 0.12892 0.40188
 H605 H 0.47342 0.15262 0.16003
 H606 H 0.47228 0.10919 0.09404
 H607 H 0.49487 0.08605 0.33573
 C608 C 0.66337 0.53571 0.22858
 C609 C 0.65797 0.51274 0.28565
 C610 C 0.62849 0.49113 0.30455
 C611 C 0.60478 0.49273 0.26795
 C612 C 0.61018 0.51566 0.21066
 C613 C 0.63967 0.53698 0.19072
 H614 H 0.68595 0.55252 0.21289
 H615 H 0.62385 0.47334 0.34887
 H616 H 0.58223 0.47596 0.28412
 H617 H 0.64443 0.55490 0.14679
 C618 C 0.87450 0.33673 0.23234
 C619 C 0.85642 0.34178 0.28816
 C620 C 0.86364 0.37113 0.30613
 C621 C 0.88883 0.39508 0.26979
 C622 C 0.90685 0.39002 0.21365
 C623 C 0.89933 0.36065 0.19470
 H624 H 0.86924 0.31426 0.21739
 H625 H 0.85008 0.37550 0.34948
 H626 H 0.89410 0.41753 0.28518
 H627 H 0.91288 0.35616 0.15168
   
