data_POSCAR
  _audit_creation_date              2014-09-24
  _audit_creation_method            'ToBaCCo'
  _symmetry_space_group_name_H-M    'P1'
  _symmetry_Int_Tables_number       1
  _symmetry_cell_setting            triclinic
  loop_
  _symmetry_equiv_pos_as_xyz
 x,y,z
_cell_length_a 17.5710
_cell_length_b 17.5448
_cell_length_c 25.4354
_cell_angle_alpha 90.004800
_cell_angle_beta 89.537000
_cell_angle_gamma 91.899700
loop_
  _atom_site_label
  _atom_site_type_symbol
  _atom_site_fract_x
  _atom_site_fract_y
  _atom_site_fract_z
C1 C 0.00287 0.50188 0.97323
 C2 C 0.00327 0.50207 1.02681
 C3 C 0.00380 0.57436 1.05727
 C4 C 0.00285 0.43040 1.05787
 C5 C 0.00340 0.43027 0.94210
 C6 C 0.00078 0.57380 0.94274
 C7 C 0.06130 0.63061 1.04987
 C8 C 0.06029 0.69878 1.07824
 C9 C 0.00204 0.71243 1.11555
 C10 C -0.05482 0.65433 1.12305
 C11 C -0.05365 0.58643 1.09445
 C12 C 0.06041 0.41943 1.09472
 C13 C 0.06156 0.35224 1.12406
 C14 C 0.00481 0.29478 1.11735
 C15 C -0.05341 0.30629 1.08083
 C16 C -0.05467 0.37372 1.05160
 C17 C -0.05327 0.41631 0.90443
 C18 C -0.05436 0.34925 0.87490
 C19 C 0.00139 0.29479 0.88235
 C20 C 0.05869 0.30917 0.91969
 C21 C 0.06008 0.37665 0.94899
 C22 C -0.06097 0.62211 0.94743
 C23 C -0.06203 0.68969 0.91840
 C24 C -0.00125 0.71006 0.88435
 C25 C 0.06028 0.66132 0.87965
 C26 C 0.06094 0.59346 0.90829
 H27 H 0.10680 0.62199 1.02174
 H28 H 0.10419 0.74134 1.06899
 H29 H -0.09918 0.65905 1.15242
 H30 H -0.09802 0.54312 1.10126
 H31 H 0.10514 0.46261 1.10023
 H32 H 0.10752 0.34478 1.15150
 H33 H -0.10050 0.38180 1.02415
 H34 H -0.09738 0.45703 0.89840
 H35 H -0.09956 0.33943 0.84677
 H36 H 0.10307 0.26874 0.92563
 H37 H 0.10534 0.38709 0.97699
 H38 H -0.10823 0.60734 0.97349
 H39 H -0.10997 0.72644 0.92288
 H40 H 0.10729 0.67516 0.85316
 H41 H 0.10878 0.55650 0.90402
 H42 H -0.09866 0.26366 1.07549
 C43 C 0.49943 -0.00712 0.47353
 C44 C 0.49814 -0.00748 0.52704
 C45 C 0.42554 -0.00562 0.55703
 C46 C 0.56909 -0.00758 0.55841
 C47 C 0.57193 -0.00505 0.44334
 C48 C 0.42845 -0.00678 0.44233
 C49 C 0.37758 0.05639 0.55261
 C50 C 0.30956 0.05758 0.58140
 C51 C 0.28837 -0.00330 0.61498
 C52 C 0.33667 -0.06519 0.61934
 C53 C 0.40498 -0.06601 0.59091
 C54 C 0.58224 0.04931 0.59633
 C55 C 0.64896 0.05094 0.62580
 C56 C 0.70386 -0.00449 0.61800
 C57 C 0.69019 -0.06207 0.58045
 C58 C 0.62310 -0.06397 0.55122
 C59 C 0.58863 -0.06571 0.40975
 C60 C 0.65688 -0.06489 0.38121
 C61 C 0.70888 -0.00262 0.38506
 C62 C 0.69155 0.05862 0.41824
 C63 C 0.62365 0.05730 0.44731
 C64 C 0.37211 -0.06488 0.44789
 C65 C 0.30506 -0.06280 0.41877
 C66 C 0.29348 -0.00292 0.38322
 C67 C 0.35056 0.05459 0.37735
 C68 C 0.41746 0.05247 0.40647
 H69 H 0.39305 0.10384 0.52701
 H70 H 0.27318 0.10579 0.57716
 H71 H 0.32220 -0.11231 0.64546
 H72 H 0.44167 -0.11403 0.59499
 H73 H 0.54121 0.09322 0.60259
 H74 H 0.65821 0.09633 0.65411
 H75 H 0.61326 -0.10945 0.52307
 H76 H 0.54902 -0.11402 0.40607
 H77 H 0.66850 -0.11230 0.35543
 H78 H 0.73087 0.10713 0.42199
 H79 H 0.61121 0.10489 0.47274
 H80 H 0.38019 -0.11184 0.47468
 H81 H 0.26277 -0.10863 0.42348
 H82 H 0.34303 0.10194 0.35080
 H83 H 0.46030 0.09782 0.40166
 H84 H 0.73089 -0.10627 0.57427
 C85 C 0.15768 0.02356 0.27034
 H86 H 0.15953 0.04168 0.22970
 C87 C 0.22487 0.02250 0.29916
 H88 H 0.27826 0.03852 0.27998
 C89 C 0.08579 -0.01948 0.34437
 H90 H 0.03155 -0.03536 0.36205
 C91 C 0.15166 -0.02138 0.37468
 H92 H 0.14710 -0.03815 0.41558
 N93 N 0.09001 0.00175 0.29295
 C94 C -0.06581 -0.12586 0.19816
 H95 H -0.11833 -0.10615 0.21493
 C96 C -0.06685 -0.19226 0.16784
 H97 H -0.12143 -0.22074 0.16132
 C98 C 0.06655 -0.10773 0.18375
 H99 H 0.11864 -0.07497 0.19024
 C100 C 0.06833 -0.17376 0.15324
 H101 H 0.12321 -0.19060 0.13870
 Zn102 Zn 0.00188 0.00182 0.25026
 N103 N 0.00047 -0.08571 0.20626
 C104 C -0.01179 0.08645 0.15640
 N105 N 0.00583 0.09074 0.20830
 C106 C 0.02454 0.15855 0.23148
 C107 C 0.02499 0.22595 0.20234
 C108 C -0.01222 0.15254 0.12579
 C109 C -0.10798 -0.06279 0.32046
 C110 C -0.17439 -0.06531 0.35106
 C111 C -0.19713 0.06438 0.32519
 C112 C -0.13090 0.06409 0.29454
 N113 N -0.08756 0.00124 0.29287
 H114 H -0.02652 0.03184 0.13887
 H115 H 0.03801 0.16024 0.27290
 H116 H 0.03852 0.27956 0.22176
 H117 H -0.02621 0.14812 0.08449
 H118 H -0.07295 -0.11227 0.31823
 H119 H -0.18993 -0.11672 0.37272
 H120 H -0.23125 0.11466 0.32574
 H121 H -0.11455 0.11414 0.27196
 C122 C 0.00114 -0.21852 0.14505
 C123 C 0.22250 -0.00065 0.35201
 C124 C -0.21973 -0.00104 0.35370
 C125 C 0.00600 0.22355 0.14881
 C126 C -0.01724 0.15748 0.76814
 H127 H -0.02890 0.15854 0.72645
 C128 C -0.01617 0.22513 0.79701
 H129 H -0.02658 0.27833 0.77716
 C130 C 0.01154 0.08669 0.84439
 H131 H 0.02182 0.03256 0.86277
 C132 C 0.01362 0.15310 0.87472
 H133 H 0.02496 0.14936 0.91641
 N134 N -0.00289 0.09017 0.79199
 C135 C 0.10234 -0.06371 0.68123
 H136 H 0.06497 -0.11371 0.68491
 C137 C 0.16860 -0.06657 0.65066
 H138 H 0.18169 -0.11887 0.63039
 C139 C 0.13107 0.06515 0.70358
 H140 H 0.11708 0.11605 0.72489
 C141 C 0.19739 0.06502 0.67305
 H142 H 0.23389 0.11593 0.67130
 Zn143 Zn -0.00380 0.00129 0.74978
 N144 N 0.08481 0.00155 0.70685
 C145 C -0.08851 -0.01408 0.65535
 N146 N -0.09231 0.00056 0.70781
 C147 C -0.15965 0.01517 0.73188
 C148 C -0.22704 0.01398 0.70318
 C149 C -0.15464 -0.01625 0.62519
 C150 C 0.06024 -0.10477 0.81784
 C151 C 0.06264 -0.17081 0.84839
 C152 C -0.06886 -0.19912 0.82659
 C153 C -0.06853 -0.13304 0.79606
 N154 N -0.00475 -0.08712 0.79253
 H155 H -0.03436 -0.02452 0.63680
 H156 H -0.16096 0.02703 0.77361
 H157 H -0.28028 0.02448 0.72322
 H158 H -0.15064 -0.02783 0.58346
 H159 H 0.11038 -0.06766 0.81397
 H160 H 0.11473 -0.18398 0.86842
 H161 H -0.11991 -0.23536 0.82858
 H162 H -0.11923 -0.11895 0.77499
 C163 C 0.21698 -0.00152 0.64629
 C164 C -0.00021 0.22350 0.85099
 C165 C -0.00260 -0.21882 0.85304
 C166 C -0.22510 -0.00233 0.64915
   
