data_POSCAR
  _audit_creation_date              2014-09-24
  _audit_creation_method            'ToBaCCo'
  _symmetry_space_group_name_H-M    'P1'
  _symmetry_Int_Tables_number       1
  _symmetry_cell_setting            triclinic
  loop_
  _symmetry_equiv_pos_as_xyz
 x,y,z
_cell_length_a 33.6703
_cell_length_b 44.7903
_cell_length_c 21.1236
_cell_angle_alpha 89.477700
_cell_angle_beta 89.155800
_cell_angle_gamma 90.265500
loop_
  _atom_site_label
  _atom_site_type_symbol
  _atom_site_fract_x
  _atom_site_fract_y
  _atom_site_fract_z
C1 C 0.18308 0.24667 0.11889
 C2 C 0.19817 0.21891 0.13942
 C3 C 0.22590 0.21935 0.18928
 C4 C 0.23451 0.24585 0.22230
 C5 C 0.21419 0.27206 0.20539
 C6 C 0.18974 0.27304 0.15242
 C7 C 0.26487 0.24658 0.27376
 C8 C 0.28509 0.27334 0.28683
 C9 C 0.31279 0.27498 0.33543
 C10 C 0.32239 0.24904 0.36934
 C11 C 0.30462 0.22127 0.35530
 C12 C 0.27464 0.22082 0.30905
 H13 H 0.16665 0.24826 0.07555
 H14 H 0.24031 0.19913 0.20386
 H15 H 0.21712 0.29191 0.23365
 H16 H 0.27947 0.29329 0.25930
 H17 H 0.34603 0.25054 0.40328
 H18 H 0.25794 0.20051 0.30212
 C19 C 0.81423 0.24491 0.11564
 C20 C 0.80750 0.27210 0.14653
 C21 C 0.78195 0.27236 0.19971
 C22 C 0.76094 0.24657 0.21974
 C23 C 0.76787 0.21973 0.18704
 C24 C 0.79568 0.21845 0.13691
 C25 C 0.73305 0.24785 0.27582
 C26 C 0.72471 0.22230 0.31354
 C27 C 0.69865 0.22346 0.36676
 C28 C 0.68530 0.25197 0.38528
 C29 C 0.69143 0.27739 0.34712
 C30 C 0.71440 0.27488 0.29170
 H31 H 0.83478 0.24409 0.07587
 H32 H 0.77943 0.29268 0.22662
 H33 H 0.75193 0.19955 0.20009
 H34 H 0.73808 0.20156 0.30007
 H35 H 0.67035 0.25493 0.43028
 H36 H 0.71725 0.29406 0.26051
 C37 C 0.68105 0.74997 0.63122
 C38 C 0.69513 0.72215 0.65186
 C39 C 0.72166 0.72135 0.70270
 C40 C 0.73147 0.74749 0.73612
 C41 C 0.71310 0.77448 0.71825
 C42 C 0.68866 0.77614 0.66506
 C43 C 0.76052 0.74682 0.78955
 C44 C 0.78197 0.77276 0.80555
 C45 C 0.80917 0.77310 0.85591
 C46 C 0.81679 0.74567 0.88693
 C47 C 0.79763 0.71918 0.86945
 C48 C 0.76836 0.72023 0.82305
 H49 H 0.66365 0.75121 0.58867
 H50 H 0.73412 0.70021 0.71648
 H51 H 0.71705 0.79426 0.74644
 H52 H 0.77902 0.79236 0.77604
 H53 H 0.83764 0.74438 0.92509
 H54 H 0.75213 0.69997 0.81340
 C55 C 0.31323 0.74701 0.60979
 C56 C 0.30662 0.77367 0.64274
 C57 C 0.28109 0.77310 0.69597
 C58 C 0.26008 0.74701 0.71420
 C59 C 0.26691 0.72074 0.67945
 C60 C 0.29465 0.72026 0.62912
 C61 C 0.23238 0.74736 0.77061
 C62 C 0.22411 0.72120 0.80650
 C63 C 0.19842 0.72155 0.86026
 C64 C 0.18547 0.74978 0.88121
 C65 C 0.19126 0.77577 0.84474
 C66 C 0.21384 0.77413 0.78874
 H67 H 0.33375 0.74681 0.56992
 H68 H 0.27864 0.79298 0.72434
 H69 H 0.25098 0.70038 0.69111
 H70 H 0.23734 0.70067 0.79133
 H71 H 0.17105 0.75208 0.92682
 H72 H 0.21653 0.79379 0.75891
 O73 O 0.96182 -0.02290 -0.07418
 O74 O 1.03714 0.03542 -0.04593
 O75 O 1.03854 -0.02124 -0.07574
 O76 O 0.95976 0.03398 -0.04597
 O77 O 0.96056 0.02266 0.05581
 O78 O 1.03731 -0.03378 0.02558
 O79 O 1.03825 0.02240 0.05505
 O80 O 0.96146 -0.03437 0.02766
 Cu81 Cu 0.99928 0.00768 -0.07057
 Cu82 Cu 0.99922 -0.00670 0.05136
 C83 C 0.94970 -0.03920 -0.02818
 C84 C 1.05071 0.03871 0.00942
 C85 C 1.05041 -0.03762 -0.03043
 C86 C 0.94704 0.03805 0.01018
 O87 O 0.46495 0.48241 0.40658
 O88 O 0.53882 0.53966 0.44667
 O89 O 0.54136 0.48322 0.41410
 O90 O 0.46185 0.53851 0.44001
 O91 O 0.45833 0.52517 0.54069
 O92 O 0.53608 0.46929 0.51436
 O93 O 0.53586 0.52519 0.54682
 O94 O 0.46030 0.46880 0.50709
 Cu95 Cu 0.50220 0.51245 0.41685
 Cu96 Cu 0.49709 0.49598 0.53746
 C97 C 0.45079 0.46528 0.44962
 C98 C 0.54992 0.54224 0.50354
 C99 C 0.55129 0.46611 0.45951
 C100 C 0.44685 0.54153 0.49513
 O101 O -0.03860 0.53317 0.04780
 O102 O 0.03874 0.47678 0.07555
 O103 O 0.03871 0.53409 0.04966
 O104 O -0.03787 0.47583 0.07261
 O105 O -0.03522 0.46619 -0.02968
 O106 O 0.04191 0.52390 -0.05225
 O107 O 0.04044 0.46674 -0.02660
 O108 O -0.03571 0.52377 -0.05446
 Cu109 Cu 0.00001 0.50610 0.07158
 Cu110 Cu 0.00304 0.49446 -0.05116
 C111 C -0.05014 0.53831 -0.00821
 C112 C 0.05172 0.46141 0.02947
 C113 C 0.05333 0.53901 -0.00525
 C114 C -0.04863 0.46041 0.02561
 O115 O 0.46080 1.03630 0.55253
 O116 O 0.53744 0.97984 0.58488
 O117 O 0.53782 1.03704 0.55825
 O118 O 0.46081 0.97883 0.57851
 O119 O 0.46538 0.96885 0.47652
 O120 O 0.54269 1.02657 0.45659
 O121 O 0.54102 0.96956 0.48293
 O122 O 0.46528 1.02638 0.45062
 Cu123 Cu 0.49873 1.00913 0.57870
 Cu124 Cu 0.50391 0.99708 0.45632
 C125 C 0.45034 1.04130 0.49590
 C126 C 0.55139 0.96444 0.53955
 C127 C 0.55329 1.04184 0.50387
 C128 C 0.45098 0.96321 0.53127
 C129 C 1.15077 0.13779 0.06935
 C130 C 1.18725 0.13730 0.10022
 C131 C 1.20397 0.16403 0.12114
 C132 C 1.18423 0.19161 0.11254
 C133 C 1.14803 0.19061 0.07912
 N134 N 1.13273 0.16434 0.05912
 C135 C 1.12985 0.11032 0.05058
 N136 N 1.10617 0.11120 -0.00110
 C137 C 1.08239 0.08794 -0.01709
 C138 C 1.08025 0.06235 0.02157
 C139 C 1.10483 0.06076 0.07458
 C140 C 1.12997 0.08456 0.08889
 H141 H 1.23261 0.16254 0.14315
 H142 H 1.12994 0.21011 0.07190
 H143 H 1.06379 0.09009 -0.05822
 H144 H 1.10399 0.04137 0.10561
 H145 H 1.20279 0.11651 0.10795
 H146 H 1.14764 0.08343 0.13124
 C147 C 0.64576 0.64134 0.57745
 C148 C 0.68472 0.64102 0.59990
 C149 C 0.70168 0.66746 0.62204
 C150 C 0.67953 0.69407 0.62322
 C151 C 0.64061 0.69313 0.59970
 N152 N 0.62516 0.66732 0.57749
 C153 C 0.62564 0.61420 0.55538
 N154 N 0.60150 0.61625 0.50445
 C155 C 0.57877 0.59300 0.48527
 C156 C 0.57818 0.56612 0.51985
 C157 C 0.60305 0.56338 0.57229
 C158 C 0.62729 0.58728 0.58971
 H159 H 0.73201 0.66692 0.63811
 H160 H 0.62169 0.71255 0.60081
 H161 H 0.55978 0.59603 0.44483
 H162 H 0.60331 0.54297 0.60017
 H163 H 0.70191 0.62064 0.59979
 H164 H 0.64557 0.58526 0.63127
 C165 C -0.13509 0.35303 0.08350
 C166 C -0.11552 0.32572 0.07601
 C167 C -0.13391 0.29942 0.09701
 C168 C -0.17219 0.30009 0.12446
 C169 C -0.19076 0.32806 0.13066
 N170 N -0.17186 0.35346 0.11097
 C171 C -0.11568 0.38135 0.06458
 N172 N -0.11823 0.40531 0.10360
 C173 C -0.09852 0.43132 0.09088
 C174 C -0.07478 0.43421 0.03595
 C175 C -0.07320 0.41019 -0.00618
 C176 C -0.09335 0.38368 0.00819
 H177 H -0.11770 0.27872 0.09279
 H178 H -0.22043 0.32981 0.15056
 H179 H -0.10067 0.44942 0.12433
 H180 H -0.05505 0.41144 -0.04889
 H181 H -0.08581 0.32480 0.05579
 H182 H -0.09119 0.36508 -0.02407
 C183 C 0.36442 0.85534 0.58505
 C184 C 0.38390 0.82809 0.57598
 C185 C 0.36540 0.80156 0.59534
 C186 C 0.32710 0.80194 0.62277
 C187 C 0.30868 0.82986 0.63083
 N188 N 0.32767 0.85547 0.61263
 C189 C 0.38386 0.88383 0.56730
 N190 N 0.38127 0.90747 0.60721
 C191 C 0.40098 0.93359 0.59546
 C192 C 0.42479 0.93693 0.54070
 C193 C 0.42640 0.91325 0.49771
 C194 C 0.40622 0.88664 0.51104
 H195 H 0.38152 0.78089 0.58981
 H196 H 0.27903 0.83140 0.65089
 H197 H 0.39880 0.95141 0.62958
 H198 H 0.44456 0.91483 0.45505
 H199 H 0.41360 0.82736 0.55567
 H200 H 0.40839 0.86833 0.47805
 C201 C -0.15319 0.63731 -0.06177
 C202 C -0.16065 0.66063 -0.01906
 C203 C -0.17858 0.68684 -0.04050
 C204 C -0.18908 0.69002 -0.10426
 C205 C -0.18269 0.66574 -0.14464
 N206 N -0.16478 0.64062 -0.12291
 C207 C -0.12981 0.61044 -0.04471
 N208 N -0.11402 0.59384 -0.09249
 C209 C -0.08985 0.57017 -0.08194
 C210 C -0.07961 0.56211 -0.01996
 C211 C -0.09654 0.57821 0.03027
 C212 C -0.12177 0.60222 0.01822
 H213 H -0.18329 0.70490 -0.00756
 H214 H -0.18993 0.66727 -0.19431
 H215 H -0.07779 0.55825 -0.12215
 H216 H -0.08983 0.57256 0.07889
 H217 H -0.15137 0.65951 0.02962
 H218 H -0.13435 0.61409 0.05797
 C219 C 0.35264 1.14200 0.43307
 C220 C 0.35398 1.16848 0.46793
 C221 C 0.33690 1.19440 0.44357
 C222 C 0.31819 1.19440 0.38419
 C223 C 0.31604 1.16681 0.35245
 N224 N 0.33364 1.14205 0.37673
 C225 C 0.37449 1.11484 0.45260
 N226 N 0.38680 1.09552 0.40703
 C227 C 0.40959 1.07132 0.42005
 C228 C 0.42179 1.06552 0.48222
 C229 C 0.40815 1.08446 0.53039
 C230 C 0.38447 1.10905 0.51588
 H231 H 0.33826 1.21429 0.47208
 H232 H 0.30308 1.16507 0.30613
 H233 H 0.41902 1.05716 0.38147
 H234 H 0.41651 1.08070 0.57912
 H235 H 0.36935 1.16969 0.51242
 H236 H 0.37446 1.12332 0.55386
 C237 C 1.13779 -0.14238 -0.09509
 C238 C 1.11840 -0.16957 -0.08275
 C239 C 1.13550 -0.19602 -0.10332
 C240 C 1.17246 -0.19570 -0.13517
 C241 C 1.19070 -0.16782 -0.14721
 N242 N 1.17301 -0.14217 -0.12754
 C243 C 1.11956 -0.11415 -0.07484
 N244 N 1.11781 -0.09068 -0.11610
 C245 C 1.09763 -0.06529 -0.10187
 C246 C 1.07762 -0.06269 -0.04334
 C247 C 1.08083 -0.08610 0.00084
 C248 C 1.10156 -0.11187 -0.01485
 H249 H 1.11943 -0.21669 -0.09485
 H250 H 1.21923 -0.16637 -0.17129
 H251 H 1.09618 -0.04760 -0.13699
 H252 H 1.06588 -0.08508 0.04651
 H253 H 1.08980 -0.17030 -0.05860
 H254 H 1.10285 -0.13012 0.01905
 C255 C 0.63813 0.36032 0.40071
 C256 C 0.61837 0.33339 0.41424
 C257 C 0.63542 0.30657 0.39578
 C258 C 0.67264 0.30628 0.36483
 C259 C 0.69123 0.33391 0.35141
 N260 N 0.67362 0.35991 0.36909
 C261 C 0.62015 0.38889 0.41934
 N262 N 0.61887 0.41198 0.37706
 C263 C 0.59890 0.43765 0.38992
 C264 C 0.57857 0.44090 0.44803
 C265 C 0.58137 0.41788 0.49325
 C266 C 0.60193 0.39187 0.47898
 H267 H 0.61912 0.28608 0.40524
 H268 H 0.71997 0.33488 0.32791
 H269 H 0.59777 0.45499 0.35400
 H270 H 0.56625 0.41938 0.53870
 H271 H 0.58958 0.33312 0.43782
 H272 H 0.60288 0.37396 0.51372
 C273 C 0.86501 -0.14637 -0.08783
 C274 C 0.88211 -0.17378 -0.07208
 C275 C 0.86426 -0.20023 -0.09136
 C276 C 0.82860 -0.19990 -0.12591
 C277 C 0.81282 -0.17146 -0.14093
 N278 N 0.83124 -0.14600 -0.12217
 C279 C 0.88378 -0.11800 -0.06927
 N280 N 0.88512 -0.09465 -0.11099
 C281 C 0.90447 -0.06871 -0.09801
 C282 C 0.92383 -0.06526 -0.04005
 C283 C 0.92125 -0.08863 0.00456
 C284 C 0.90147 -0.11502 -0.00997
 H285 H 0.87985 -0.22063 -0.08075
 H286 H 0.78505 -0.16903 -0.16530
 H287 H 0.90553 -0.05114 -0.13351
 H288 H 0.93580 -0.08697 0.04978
 H289 H 0.90974 -0.17478 -0.04656
 H290 H 0.90034 -0.13303 0.02457
 C291 C 0.36642 0.35931 0.37739
 C292 C 0.36344 0.35021 0.31407
 C293 C 0.34628 0.32265 0.30049
 C294 C 0.33235 0.30389 0.34956
 C295 C 0.33660 0.31345 0.41217
 N296 N 0.35323 0.34050 0.42428
 C297 C 0.38505 0.38811 0.39508
 N298 N 0.39747 0.39163 0.45565
 C299 C 0.41661 0.41666 0.47502
 C300 C 0.42491 0.43999 0.43193
 C301 C 0.41109 0.43737 0.36991
 C302 C 0.39092 0.41168 0.35144
 H303 H 0.34437 0.31582 0.25157
 H304 H 0.32611 0.29968 0.45138
 H305 H 0.42662 0.41777 0.52339
 H306 H 0.41647 0.45497 0.33528
 H307 H 0.37481 0.36369 0.27514
 H308 H 0.38040 0.41053 0.30345
 C309 C 0.15040 0.64149 -0.05975
 C310 C 0.13375 0.66894 -0.04399
 C311 C 0.15007 0.69512 -0.06905
 C312 C 0.18407 0.69470 -0.10945
 C313 C 0.20062 0.66621 -0.12166
 N314 N 0.18320 0.64089 -0.09794
 C315 C 0.13018 0.61342 -0.04089
 N316 N 0.12658 0.59122 -0.08403
 C317 C 0.10378 0.56656 -0.07255
 C318 C 0.08255 0.56344 -0.01508
 C319 C 0.08752 0.58536 0.03120
 C320 C 0.11118 0.61038 0.01841
 H321 H 0.13366 0.71520 -0.05915
 H322 H 0.22724 0.66345 -0.14987
 H323 H 0.10123 0.54992 -0.10913
 H324 H 0.07189 0.58378 0.07629
 H325 H 0.10678 0.67015 -0.01556
 H326 H 0.11381 0.62754 0.05391
 C327 C 0.65044 1.14432 0.45038
 C328 C 0.63333 1.17189 0.46389
 C329 C 0.64978 1.19783 0.43785
 C330 C 0.68430 1.19703 0.39866
 C331 C 0.70141 1.16851 0.38913
 N332 N 0.68388 1.14342 0.41368
 C333 C 0.63009 1.11635 0.46950
 N334 N 0.62784 1.09365 0.42731
 C335 C 0.60509 1.06895 0.43858
 C336 C 0.58251 1.06630 0.49483
 C337 C 0.58607 1.08876 0.54031
 C338 C 0.60970 1.11383 0.52774
 H339 H 0.63308 1.21797 0.44585
 H340 H 0.72855 1.16555 0.36233
 H341 H 0.60365 1.05190 0.40269
 H342 H 0.56933 1.08755 0.58444
 H343 H 0.60591 1.17332 0.49112
 H344 H 0.61123 1.13140 0.56250
 C345 C 0.13606 0.35495 0.09213
 C346 C 0.11603 0.32786 0.08337
 C347 C 0.13316 0.30134 0.10393
 C348 C 0.17072 0.30152 0.13212
 C349 C 0.18968 0.32931 0.14023
 N350 N 0.17196 0.35498 0.12081
 C351 C 0.11799 0.38332 0.07228
 N352 N 0.11780 0.40693 0.11242
 C353 C 0.09844 0.43274 0.09860
 C354 C 0.07791 0.43570 0.04151
 C355 C 0.07938 0.41209 -0.00161
 C356 C 0.09914 0.38582 0.01379
 H357 H 0.11665 0.28076 0.09840
 H358 H 0.21878 0.33067 0.16105
 H359 H 0.09821 0.45055 0.13288
 H360 H 0.06380 0.41338 -0.04604
 H361 H 0.08696 0.32730 0.06210
 H362 H 0.09917 0.36745 -0.01921
 C363 C 0.63588 0.85857 0.60597
 C364 C 0.61547 0.83165 0.59731
 C365 C 0.63229 0.80501 0.61771
 C366 C 0.66996 0.80486 0.64554
 C367 C 0.68923 0.83250 0.65391
 N368 N 0.67181 0.85834 0.63460
 C369 C 0.61818 0.88696 0.58540
 N370 N 0.61654 0.91041 0.62589
 C371 C 0.59700 0.93604 0.61124
 C372 C 0.57774 0.93896 0.55297
 C373 C 0.58076 0.91551 0.50961
 C374 C 0.60068 0.88944 0.52584
 H375 H 0.61543 0.78459 0.61222
 H376 H 0.71835 0.83362 0.67471
 H377 H 0.59559 0.95375 0.64573
 H378 H 0.56621 0.91676 0.46427
 H379 H 0.58640 0.83132 0.57606
 H380 H 0.60180 0.87115 0.49267
 C381 C 0.84362 0.13653 0.06710
 C382 C 0.83543 0.15984 0.02418
 C383 C 0.81782 0.18604 0.04616
 C384 C 0.80834 0.18923 0.11067
 C385 C 0.81531 0.16493 0.15137
 N386 N 0.83291 0.13982 0.12905
 C387 C 0.86689 0.10969 0.04919
 N388 N 0.88230 0.09262 0.09645
 C389 C 0.90653 0.06903 0.08512
 C390 C 0.91731 0.06161 0.02284
 C391 C 0.90076 0.07818 -0.02685
 C392 C 0.87541 0.10206 -0.01401
 H393 H 0.81260 0.20410 0.01295
 H394 H 0.80887 0.16644 0.20158
 H395 H 0.91829 0.05674 0.12496
 H396 H 0.90789 0.07302 -0.07569
 H397 H 0.84387 0.15877 -0.02525
 H398 H 0.86322 0.11429 -0.05343
 C399 C 0.34285 0.63953 0.55354
 C400 C 0.33454 0.66347 0.51223
 C401 C 0.31686 0.68929 0.53605
 C402 C 0.30731 0.69147 0.60075
 C403 C 0.31422 0.66653 0.63969
 N404 N 0.33191 0.64183 0.61563
 C405 C 0.36621 0.61292 0.53415
 N406 N 0.37836 0.59381 0.58042
 C407 C 0.40258 0.57027 0.56869
 C408 C 0.41688 0.56502 0.50710
 C409 C 0.40380 0.58374 0.45810
 C410 C 0.37839 0.60757 0.47123
 H411 H 0.31158 0.70785 0.50411
 H412 H 0.30768 0.66722 0.68996
 H413 H 0.41159 0.55630 0.60795
 H414 H 0.41382 0.58036 0.40975
 H415 H 0.34269 0.66313 0.46264
 H416 H 0.36927 0.62160 0.43232
   
