data_POSCAR
  _audit_creation_date              2014-09-24
  _audit_creation_method            'ToBaCCo'
  _symmetry_space_group_name_H-M    'P1'
  _symmetry_Int_Tables_number       1
  _symmetry_cell_setting            triclinic
  loop_
  _symmetry_equiv_pos_as_xyz
 x,y,z
_cell_length_a 31.1203
_cell_length_b 30.9901
_cell_length_c 37.7783
_cell_angle_alpha 89.998500
_cell_angle_beta 90.002300
_cell_angle_gamma 90.001000
loop_
  _atom_site_label
  _atom_site_type_symbol
  _atom_site_fract_x
  _atom_site_fract_y
  _atom_site_fract_z
Si1 Si 1.24998 0.25001 0.25004
 Si2 Si 0.74998 -0.24998 0.25003
 Si3 Si 0.74997 0.25002 -0.24997
 Si4 Si 1.24998 -0.24999 -0.24997
 Si5 Si 0.25000 0.24999 0.75003
 Si6 Si 0.75000 0.74999 0.75003
 Si7 Si 0.75000 0.24998 0.25003
 Si8 Si 0.24999 0.74999 0.25003
 O9 O 1.08235 0.04919 0.02507
 O10 O 0.91884 -0.05044 0.02469
 O11 O 0.95084 0.08162 0.02431
 O12 O 1.05029 -0.08298 0.02559
 O13 O 0.92694 0.02215 0.04406
 O14 O 1.07410 -0.02333 0.04506
 O15 O 0.97800 -0.07419 0.04474
 O16 O 1.02293 0.07356 0.04416
 C17 C 1.06176 0.06830 0.04858
 C18 C 0.93909 -0.06906 0.04866
 C19 C 0.93186 0.06125 0.04805
 C20 C 1.06929 -0.06245 0.04926
 O21 O 1.08266 -0.05093 -0.02326
 O22 O 0.91901 0.04905 -0.02453
 O23 O 1.05056 0.08123 -0.02413
 O24 O 0.95121 -0.08305 -0.02383
 O25 O 0.92763 -0.02355 -0.04379
 O26 O 1.07482 0.02154 -0.04321
 O27 O 1.02347 -0.07491 -0.04305
 O28 O 0.97839 0.07286 -0.04407
 Co29 Co 1.07094 -0.00087 0.00089
 Co30 Co 0.93067 -0.00071 0.00014
 Co31 Co 1.00068 0.06971 0.00010
 Co32 Co 1.00073 -0.07117 0.00083
 O33 O 1.00077 -0.00075 0.00049
 C34 C 1.06236 -0.06978 -0.04708
 C35 C 0.93946 0.06796 -0.04825
 C36 C 1.06968 0.06057 -0.04761
 C37 C 0.93252 -0.06266 -0.04772
 O38 O 1.08266 0.55093 0.52332
 O39 O 0.91900 0.45095 0.52458
 O40 O 0.95120 0.58306 0.52388
 O41 O 1.05055 0.41878 0.52419
 O42 O 0.92762 0.52355 0.54384
 O43 O 1.07481 0.47847 0.54327
 O44 O 0.97838 0.42714 0.54412
 O45 O 1.02347 0.57492 0.54311
 C46 C 1.06236 0.56978 0.54714
 C47 C 0.93945 0.43205 0.54830
 C48 C 0.93252 0.56266 0.54777
 C49 C 1.06967 0.43944 0.54768
 O50 O 1.08234 0.45081 0.47499
 O51 O 0.91884 0.55044 0.47536
 O52 O 1.05028 0.58299 0.47447
 O53 O 0.95083 0.41839 0.47575
 O54 O 0.92693 0.47785 0.45599
 O55 O 1.07409 0.52333 0.45500
 O56 O 1.02292 0.42645 0.45590
 O57 O 0.97799 0.57419 0.45531
 Co58 Co 1.07093 0.50088 0.49918
 Co59 Co 0.93066 0.50071 0.49991
 Co60 Co 1.00073 0.57117 0.49922
 Co61 Co 1.00067 0.43029 0.49996
 O62 O 1.00076 0.50076 0.49957
 C63 C 1.06175 0.43171 0.45149
 C64 C 0.93908 0.56907 0.45139
 C65 C 1.06928 0.56245 0.45080
 C66 C 0.93186 0.43875 0.45200
 O67 O 0.58097 0.04905 0.52459
 O68 O 0.41731 -0.05093 0.52332
 O69 O 0.44942 0.08122 0.52418
 O70 O 0.54877 -0.08306 0.52389
 O71 O 0.42516 0.02153 0.54327
 O72 O 0.57234 -0.02355 0.54385
 O73 O 0.47650 -0.07492 0.54311
 O74 O 0.52159 0.07286 0.54412
 C75 C 0.56051 0.06795 0.54831
 C76 C 0.43761 -0.06978 0.54715
 C77 C 0.43029 0.06056 0.54767
 C78 C 0.56745 -0.06267 0.54778
 O79 O 0.58113 -0.05045 0.47537
 O80 O 0.41763 0.04918 0.47499
 O81 O 0.54914 0.08161 0.47575
 O82 O 0.44969 -0.08299 0.47447
 O83 O 0.42588 -0.02334 0.45500
 O84 O 0.57304 0.02214 0.45600
 O85 O 0.52198 -0.07419 0.45532
 O86 O 0.47705 0.07355 0.45589
 Co87 Co 0.56931 -0.00072 0.49992
 Co88 Co 0.42904 -0.00088 0.49917
 Co89 Co 0.49930 0.06971 0.49996
 Co90 Co 0.49924 -0.07117 0.49923
 O91 O 0.49921 -0.00076 0.49957
 C92 C 0.56089 -0.06907 0.45141
 C93 C 0.43822 0.06829 0.45148
 C94 C 0.56812 0.06125 0.45200
 C95 C 0.43069 -0.06246 0.45080
 O96 O 0.58114 0.55044 0.02470
 O97 O 0.41763 0.45081 0.02507
 O98 O 0.44969 0.58299 0.02559
 O99 O 0.54914 0.41838 0.02432
 O100 O 0.42588 0.52333 0.04506
 O101 O 0.57304 0.47785 0.04407
 O102 O 0.47705 0.42645 0.04417
 O103 O 0.52198 0.57419 0.04475
 C104 C 0.56089 0.56906 0.04867
 C105 C 0.43822 0.43170 0.04858
 C106 C 0.43069 0.56245 0.04926
 C107 C 0.56812 0.43875 0.04807
 O108 O 0.58097 0.45095 -0.02452
 O109 O 0.41732 0.55093 -0.02326
 O110 O 0.54878 0.58306 -0.02382
 O111 O 0.44942 0.41878 -0.02412
 O112 O 0.42516 0.47847 -0.04321
 O113 O 0.57235 0.52355 -0.04377
 O114 O 0.52159 0.42714 -0.04405
 O115 O 0.47651 0.57492 -0.04305
 Co116 Co 0.56931 0.50071 0.00016
 Co117 Co 0.42904 0.50088 0.00089
 Co118 Co 0.49925 0.57117 0.00084
 Co119 Co 0.49930 0.43029 0.00011
 O120 O 0.49921 0.50075 0.00050
 C121 C 0.56052 0.43205 -0.04824
 C122 C 0.43762 0.56978 -0.04708
 C123 C 0.56746 0.56266 -0.04771
 C124 C 0.43030 0.43944 -0.04761
 C125 C 1.17043 0.17178 0.17531
 C126 C 1.12171 0.17883 0.17804
 C127 C 1.09879 0.15683 0.15314
 C128 C 1.12690 0.13001 0.12801
 C129 C 1.15365 0.10068 0.15225
 C130 C 1.17658 0.12268 0.17715
 C131 C 1.18203 0.18411 0.13716
 C132 C 1.15916 0.16217 0.11232
 C133 C 1.19542 0.19591 0.20148
 C134 C 1.21672 0.21680 0.22179
 C135 C 1.10266 0.10686 0.10077
 C136 C 1.08355 0.08877 0.07738
 H137 H 1.10657 0.19919 0.19782
 H138 H 1.06399 0.15833 0.15156
 H139 H 1.15445 0.06575 0.15008
 H140 H 1.19704 0.10663 0.19635
 H141 H 1.20613 0.20801 0.13025
 H142 H 1.16367 0.16727 0.08412
 C143 C 1.17082 0.67211 0.67474
 C144 C 1.12209 0.67919 0.67721
 C145 C 1.09936 0.65742 0.65205
 C146 C 1.12766 0.63076 0.62694
 C147 C 1.15417 0.60121 0.65118
 C148 C 1.17690 0.62299 0.67635
 C149 C 1.18276 0.68473 0.63672
 C150 C 1.16010 0.66301 0.61162
 C151 C 1.19560 0.69603 0.70120
 C152 C 1.21677 0.71681 0.72169
 C153 C 1.10357 0.60786 0.59944
 C154 C 1.08442 0.58999 0.57595
 H155 H 1.10679 0.69941 0.69701
 H156 H 1.06458 0.65898 0.65028
 H157 H 1.15495 0.56630 0.64883
 H158 H 1.19717 0.60676 0.69558
 H159 H 1.20696 0.70865 0.63008
 H160 H 1.16487 0.66833 0.58348
 C161 C 0.67008 0.17176 0.67495
 C162 C 0.62136 0.17885 0.67773
 C163 C 0.59832 0.15688 0.65286
 C164 C 0.62627 0.12999 0.62765
 C165 C 0.65307 0.10066 0.65186
 C166 C 0.67612 0.12263 0.67674
 C167 C 0.68156 0.18404 0.63675
 C168 C 0.65857 0.16212 0.61193
 C169 C 0.69524 0.19590 0.70119
 C170 C 0.71661 0.21675 0.72159
 C171 C 0.60182 0.10678 0.60040
 C172 C 0.58252 0.08859 0.57707
 H173 H 0.60630 0.19924 0.69753
 H174 H 0.56352 0.15846 0.65136
 H175 H 0.65382 0.06573 0.64971
 H176 H 0.69661 0.10653 0.69589
 H177 H 0.70568 0.20790 0.62979
 H178 H 0.66301 0.16722 0.58373
 C179 C 0.67038 0.67184 0.17530
 C180 C 0.62169 0.67902 0.17805
 C181 C 0.59870 0.65709 0.15315
 C182 C 0.62672 0.63019 0.12802
 C183 C 0.65341 0.60078 0.15225
 C184 C 0.67640 0.62272 0.17715
 C185 C 0.68201 0.68414 0.13715
 C186 C 0.65907 0.66226 0.11231
 C187 C 0.69542 0.69592 0.20148
 C188 C 0.71674 0.71680 0.22179
 C189 C 0.60238 0.60714 0.10078
 C190 C 0.58306 0.58922 0.07743
 H191 H 0.60661 0.69943 0.19783
 H192 H 0.56390 0.65869 0.15159
 H193 H 0.65411 0.56585 0.15008
 H194 H 0.69683 0.60661 0.19634
 H195 H 0.70618 0.70797 0.13024
 H196 H 0.66359 0.66734 0.08412
 C197 C 0.82958 -0.17180 0.17530
 C198 C 0.87828 -0.17897 0.17806
 C199 C 0.90127 -0.15704 0.15317
 C200 C 0.87325 -0.13016 0.12802
 C201 C 0.84655 -0.10075 0.15222
 C202 C 0.82355 -0.12268 0.17713
 C203 C 0.81798 -0.18412 0.13715
 C204 C 0.84092 -0.16225 0.11231
 C205 C 0.80454 -0.19588 0.20148
 C206 C 0.78323 -0.21675 0.22179
 C207 C 0.89760 -0.10713 0.10078
 C208 C 0.91693 -0.08921 0.07742
 H209 H 0.89336 -0.19936 0.19786
 H210 H 0.93607 -0.15863 0.15162
 H211 H 0.84584 -0.06582 0.15004
 H212 H 0.80311 -0.10657 0.19630
 H213 H 0.79382 -0.20796 0.13024
 H214 H 0.83641 -0.16735 0.08412
 C215 C 0.82987 0.32826 0.67495
 C216 C 0.87859 0.32119 0.67775
 C217 C 0.90163 0.34315 0.65288
 C218 C 0.87369 0.37002 0.62765
 C219 C 0.84687 0.39936 0.65185
 C220 C 0.82382 0.37739 0.67672
 C221 C 0.81841 0.31596 0.63675
 C222 C 0.84140 0.33788 0.61193
 C223 C 0.80471 0.30413 0.70119
 C224 C 0.78334 0.28329 0.72159
 C225 C 0.89814 0.39323 0.60040
 C226 C 0.91744 0.41141 0.57707
 H227 H 0.89365 0.30081 0.69756
 H228 H 0.93644 0.34159 0.65139
 H229 H 0.84611 0.43429 0.64967
 H230 H 0.80332 0.39350 0.69586
 H231 H 0.79430 0.29210 0.62979
 H232 H 0.83697 0.33276 0.58373
 C233 C 0.32914 -0.17210 0.67474
 C234 C 0.37787 -0.17916 0.67723
 C235 C 0.40060 -0.15739 0.65207
 C236 C 0.37230 -0.13075 0.62695
 C237 C 0.34578 -0.10120 0.65117
 C238 C 0.32304 -0.12298 0.67634
 C239 C 0.31721 -0.18473 0.63672
 C240 C 0.33988 -0.16302 0.61162
 C241 C 0.30435 -0.19602 0.70120
 C242 C 0.28318 -0.21680 0.72169
 C243 C 0.39639 -0.10786 0.59945
 C244 C 0.41554 -0.08999 0.57596
 H245 H 0.39317 -0.19937 0.69703
 H246 H 0.43538 -0.15894 0.65031
 H247 H 0.34499 -0.06629 0.64881
 H248 H 0.30276 -0.10674 0.69556
 H249 H 0.29302 -0.20867 0.63009
 H250 H 0.33512 -0.16835 0.58348
 C251 C 0.32953 0.32825 0.17531
 C252 C 0.37825 0.32123 0.17807
 C253 C 0.40118 0.34322 0.15317
 C254 C 0.37307 0.37001 0.12802
 C255 C 0.34629 0.39934 0.15223
 C256 C 0.32336 0.37735 0.17713
 C257 C 0.31796 0.31589 0.13716
 C258 C 0.34083 0.33782 0.11232
 C259 C 0.30454 0.30412 0.20149
 C260 C 0.28323 0.28323 0.22180
 C261 C 0.39731 0.39315 0.10077
 C262 C 0.41643 0.41124 0.07739
 H263 H 0.39339 0.30088 0.19786
 H264 H 0.43598 0.34173 0.15161
 H265 H 0.34548 0.43427 0.15005
 H266 H 0.30288 0.39340 0.19631
 H267 H 0.29387 0.29197 0.13025
 H268 H 0.33634 0.33270 0.08413
 C269 C 0.82987 0.17176 -0.17488
 C270 C 0.81842 0.18406 -0.13668
 C271 C 0.84141 0.16214 -0.11187
 C272 C 0.87370 0.13000 -0.12759
 C273 C 0.90164 0.15687 -0.15282
 C274 C 0.87859 0.17884 -0.17769
 C275 C 0.82382 0.12263 -0.17667
 C276 C 0.84688 0.10066 -0.15179
 C277 C 0.80471 0.19590 -0.20113
 C278 C 0.78335 0.21675 -0.22153
 C279 C 0.89815 0.10679 -0.10034
 C280 C 0.91745 0.08860 -0.07702
 H281 H 0.79431 0.20792 -0.12972
 H282 H 0.83698 0.16725 -0.08367
 H283 H 0.93645 0.15844 -0.15133
 H284 H 0.89366 0.19922 -0.19749
 H285 H 0.80332 0.10653 -0.19580
 H286 H 0.84612 0.06574 -0.14962
 C287 C 0.82958 0.67184 0.32476
 C288 C 0.82381 0.62270 0.32274
 C289 C 0.84681 0.60076 0.34765
 C290 C 0.87324 0.63019 0.37204
 C291 C 0.84067 0.66203 0.38775
 C292 C 0.81774 0.68391 0.36291
 C293 C 0.87825 0.67927 0.32218
 C294 C 0.90124 0.65734 0.34707
 C295 C 0.80454 0.69592 0.29858
 C296 C 0.78323 0.71680 0.27827
 C297 C 0.89759 0.60714 0.39928
 C298 C 0.91692 0.58923 0.42263
 H299 H 0.80355 0.60658 0.30345
 H300 H 0.84627 0.56582 0.34971
 H301 H 0.83601 0.66696 0.41595
 H302 H 0.79342 0.70758 0.36983
 H303 H 0.89332 0.69984 0.30250
 H304 H 0.93603 0.65910 0.34874
 C305 C 0.32953 0.17178 0.32476
 C306 C 0.32339 0.12267 0.32291
 C307 C 0.34632 0.10067 0.34781
 C308 C 0.37307 0.13000 0.37205
 C309 C 0.34081 0.16216 0.38775
 C310 C 0.31794 0.18410 0.36291
 C311 C 0.37825 0.17883 0.32202
 C312 C 0.40118 0.15683 0.34692
 C313 C 0.30454 0.19590 0.29858
 C314 C 0.28323 0.21680 0.27827
 C315 C 0.39731 0.10686 0.39929
 C316 C 0.41643 0.08877 0.42267
 H317 H 0.30293 0.10662 0.30371
 H318 H 0.34553 0.06575 0.34998
 H319 H 0.33630 0.16725 0.41594
 H320 H 0.29383 0.20799 0.36982
 H321 H 0.39339 0.19920 0.30225
 H322 H 0.43598 0.15834 0.34850
 C323 C 0.32914 0.67211 -0.17467
 C324 C 0.31723 0.68475 -0.13665
 C325 C 0.33990 0.66304 -0.11155
 C326 C 0.37231 0.63076 -0.12688
 C327 C 0.40060 0.65739 -0.15201
 C328 C 0.37787 0.67916 -0.17717
 C329 C 0.32303 0.62299 -0.17626
 C330 C 0.34577 0.60121 -0.15110
 C331 C 0.30435 0.69603 -0.20113
 C332 C 0.28318 0.71681 -0.22162
 C333 C 0.39640 0.60786 -0.09938
 C334 C 0.41555 0.58999 -0.07589
 H335 H 0.29305 0.70869 -0.13002
 H336 H 0.33515 0.66837 -0.08342
 H337 H 0.43539 0.65893 -0.15025
 H338 H 0.39317 0.69936 -0.19698
 H339 H 0.30274 0.60676 -0.19548
 H340 H 0.34497 0.56630 -0.14873
 C341 C 1.17082 -0.17210 -0.17467
 C342 C 1.18278 -0.18471 -0.13665
 C343 C 1.16011 -0.16299 -0.11155
 C344 C 1.12766 -0.13075 -0.12688
 C345 C 1.09937 -0.15741 -0.15199
 C346 C 1.12210 -0.17918 -0.17714
 C347 C 1.17690 -0.12297 -0.17629
 C348 C 1.15417 -0.10120 -0.15112
 C349 C 1.19561 -0.19602 -0.20113
 C350 C 1.21678 -0.21680 -0.22162
 C351 C 1.10358 -0.10785 -0.09938
 C352 C 1.08443 -0.08998 -0.07589
 H353 H 1.20697 -0.20863 -0.13002
 H354 H 1.16488 -0.16831 -0.08342
 H355 H 1.06458 -0.15898 -0.15021
 H356 H 1.10680 -0.19941 -0.19694
 H357 H 1.19716 -0.10674 -0.19552
 H358 H 1.15494 -0.06629 -0.14878
 C359 C 1.17043 0.32824 0.32476
 C360 C 1.18200 0.31589 0.36291
 C361 C 1.15913 0.33782 0.38775
 C362 C 1.12689 0.37001 0.37205
 C363 C 1.09878 0.34321 0.34691
 C364 C 1.12171 0.32122 0.32201
 C365 C 1.17660 0.37734 0.32293
 C366 C 1.15367 0.39934 0.34784
 C367 C 1.19542 0.30412 0.29859
 C368 C 1.21672 0.28323 0.27828
 C369 C 1.10266 0.39315 0.39930
 C370 C 1.08354 0.41124 0.42268
 H371 H 1.20609 0.29197 0.36982
 H372 H 1.16363 0.33271 0.41594
 H373 H 1.06398 0.34172 0.34847
 H374 H 1.10656 0.30087 0.30222
 H375 H 1.19708 0.39339 0.30375
 H376 H 1.15448 0.43426 0.35001
 C377 C 0.67038 -0.17181 0.32476
 C378 C 0.62164 -0.17839 0.32162
 C379 C 0.59865 -0.15646 0.34652
 C380 C 0.62672 -0.13017 0.37205
 C381 C 0.65399 -0.10081 0.34823
 C382 C 0.67699 -0.12274 0.32332
 C383 C 0.68146 -0.18466 0.36290
 C384 C 0.65853 -0.16279 0.38774
 C385 C 0.69542 -0.19588 0.29858
 C386 C 0.71674 -0.21676 0.27827
 C387 C 0.60237 -0.10713 0.39929
 C388 C 0.58305 -0.08922 0.42265
 H389 H 0.60652 -0.19840 0.30159
 H390 H 0.56381 -0.15767 0.34783
 H391 H 0.65507 -0.06592 0.35066
 H392 H 0.69779 -0.10666 0.30440
 H393 H 0.70528 -0.20885 0.36980
 H394 H 0.66270 -0.16824 0.41592
 C395 C 0.67009 0.32826 -0.17488
 C396 C 0.67607 0.37739 -0.17670
 C397 C 0.65302 0.39936 -0.15183
 C398 C 0.62627 0.37002 -0.12758
 C399 C 0.65862 0.33794 -0.11186
 C400 C 0.68161 0.31602 -0.13668
 C401 C 0.62137 0.32111 -0.17763
 C402 C 0.59833 0.34308 -0.15276
 C403 C 0.69524 0.30413 -0.20112
 C404 C 0.71661 0.28328 -0.22153
 C405 C 0.60183 0.39323 -0.10033
 C406 C 0.58252 0.41141 -0.07700
 H407 H 0.69653 0.39350 -0.19587
 H408 H 0.65373 0.43429 -0.14969
 H409 H 0.66309 0.33286 -0.08366
 H410 H 0.70576 0.29220 -0.12972
 H411 H 0.60631 0.30069 -0.19741
 H412 H 0.56353 0.34147 -0.15124
 C413 C 1.17239 0.16996 -0.17477
 C414 C 1.17938 0.12103 -0.17753
 C415 C 1.15765 0.09799 -0.15252
 C416 C 1.13110 0.12617 -0.12724
 C417 C 1.10174 0.15305 -0.15134
 C418 C 1.12347 0.17610 -0.17636
 C419 C 1.18491 0.18158 -0.13666
 C420 C 1.16324 0.15859 -0.11171
 C421 C 1.19625 0.19512 -0.20112
 C422 C 1.21693 0.21653 -0.22157
 C423 C 1.10817 0.10176 -0.09986
 C424 C 1.09017 0.08251 -0.07644
 H425 H 1.19952 0.10583 -0.19740
 H426 H 1.15918 0.06304 -0.15096
 H427 H 1.06697 0.15385 -0.14902
 H428 H 1.10733 0.19665 -0.19547
 H429 H 1.20875 0.20579 -0.12986
 H430 H 1.16852 0.16311 -0.08354
 C431 C 1.17346 0.67182 0.32382
 C432 C 1.18021 0.62284 0.32120
 C433 C 1.15822 0.59993 0.34616
 C434 C 1.13161 0.62823 0.37133
 C435 C 1.10256 0.65523 0.34703
 C436 C 1.12456 0.67814 0.32206
 C437 C 1.18577 0.68342 0.36199
 C438 C 1.16383 0.66057 0.38690
 C439 C 1.19765 0.69689 0.29744
 C440 C 1.21854 0.71827 0.27700
 C441 C 1.10832 0.60387 0.39870
 C442 C 1.09005 0.58458 0.42205
 H443 H 1.20041 0.60749 0.30143
 H444 H 1.15960 0.56498 0.34776
 H445 H 1.06779 0.65620 0.34921
 H446 H 1.10862 0.69872 0.30287
 H447 H 1.20967 0.70753 0.36887
 H448 H 1.16896 0.66513 0.41508
 C449 C 0.67187 0.17040 0.32523
 C450 C 0.67882 0.12145 0.32276
 C451 C 0.65682 0.09861 0.34774
 C452 C 0.63007 0.12701 0.37272
 C453 C 0.60097 0.15376 0.34830
 C454 C 0.62297 0.17660 0.32331
 C455 C 0.68405 0.18227 0.36337
 C456 C 0.66211 0.15949 0.38830
 C457 C 0.69601 0.19533 0.29890
 C458 C 0.71685 0.21659 0.27845
 C459 C 0.60686 0.10276 0.40005
 C460 C 0.58870 0.08348 0.42337
 H461 H 0.69913 0.10607 0.30309
 H462 H 0.65829 0.06367 0.34947
 H463 H 0.56619 0.15462 0.35040
 H464 H 0.60705 0.19703 0.30400
 H465 H 0.70786 0.20650 0.37021
 H466 H 0.66713 0.16421 0.41647
 C467 C 0.67154 0.67089 -0.17474
 C468 C 0.67810 0.62188 -0.17713
 C469 C 0.65594 0.59929 -0.15211
 C470 C 0.62943 0.62797 -0.12717
 C471 C 0.60052 0.65488 -0.15163
 C472 C 0.62269 0.67747 -0.17667
 C473 C 0.68384 0.68277 -0.13663
 C474 C 0.66173 0.66024 -0.11166
 C475 C 0.69585 0.69556 -0.20111
 C476 C 0.71681 0.71667 -0.22157
 C477 C 0.60608 0.60398 -0.09980
 C478 C 0.58790 0.58484 -0.07642
 H479 H 0.69828 0.60629 -0.19678
 H480 H 0.65713 0.56435 -0.15031
 H481 H 0.56575 0.65603 -0.14952
 H482 H 0.60692 0.69798 -0.19601
 H483 H 0.70784 0.70682 -0.12985
 H484 H 0.66679 0.66500 -0.08349
 C485 C 0.82845 -0.17091 -0.17475
 C486 C 0.87730 -0.17751 -0.17665
 C487 C 0.89947 -0.15492 -0.15162
 C488 C 0.87057 -0.12798 -0.12718
 C489 C 0.83825 -0.16023 -0.11167
 C490 C 0.81614 -0.18277 -0.13664
 C491 C 0.82191 -0.12190 -0.17716
 C492 C 0.84407 -0.09931 -0.15214
 C493 C 0.80414 -0.19559 -0.20112
 C494 C 0.78319 -0.21670 -0.22157
 C495 C 0.89391 -0.10399 -0.09981
 C496 C 0.91208 -0.08484 -0.07643
 H497 H 0.89308 -0.19804 -0.19598
 H498 H 0.93424 -0.15607 -0.14949
 H499 H 0.83317 -0.16497 -0.08350
 H500 H 0.79212 -0.20681 -0.12985
 H501 H 0.80175 -0.10632 -0.19682
 H502 H 0.84289 -0.06436 -0.15036
 C503 C 0.82812 0.32956 0.32523
 C504 C 0.87700 0.32316 0.32346
 C505 C 0.89900 0.34600 0.34844
 C506 C 0.86992 0.37297 0.37271
 C507 C 0.83768 0.34068 0.38829
 C508 C 0.81574 0.31790 0.36337
 C509 C 0.82139 0.37854 0.32261
 C510 C 0.84338 0.40138 0.34758
 C511 C 0.80398 0.30463 0.29890
 C512 C 0.78314 0.28337 0.27845
 C513 C 0.89312 0.39722 0.40004
 C514 C 0.91128 0.41652 0.42336
 H515 H 0.89292 0.30258 0.30425
 H516 H 0.93377 0.34500 0.35065
 H517 H 0.83253 0.33610 0.41647
 H518 H 0.79180 0.29380 0.37021
 H519 H 0.80122 0.39392 0.30284
 H520 H 0.84205 0.43633 0.34922
 C521 C 0.32652 -0.17184 0.32382
 C522 C 0.37544 -0.17797 0.32194
 C523 C 0.39744 -0.15505 0.34691
 C524 C 0.36837 -0.12825 0.37133
 C525 C 0.33633 -0.16076 0.38690
 C526 C 0.31439 -0.18361 0.36199
 C527 C 0.31957 -0.12287 0.32132
 C528 C 0.34156 -0.09996 0.34628
 C529 C 0.30234 -0.19692 0.29744
 C530 C 0.28144 -0.21829 0.27700
 C531 C 0.39166 -0.10388 0.39870
 C532 C 0.40993 -0.08458 0.42205
 H533 H 0.39140 -0.19842 0.30266
 H534 H 0.43222 -0.15589 0.34900
 H535 H 0.33131 -0.16543 0.41509
 H536 H 0.29060 -0.20784 0.36887
 H537 H 0.29925 -0.10755 0.30163
 H538 H 0.34006 -0.06502 0.34796
 C539 C 0.32761 0.33003 -0.17477
 C540 C 0.32052 0.37895 -0.17747
 C541 C 0.34224 0.40200 -0.15246
 C542 C 0.36889 0.37383 -0.12724
 C543 C 0.39827 0.34704 -0.15140
 C544 C 0.37654 0.32399 -0.17642
 C545 C 0.31518 0.31833 -0.13666
 C546 C 0.33684 0.34132 -0.11171
 C547 C 0.30375 0.30487 -0.20112
 C548 C 0.28307 0.28346 -0.22157
 C549 C 0.39182 0.39824 -0.09986
 C550 C 0.40982 0.41750 -0.07644
 H551 H 0.30031 0.39414 -0.19730
 H552 H 0.34065 0.43694 -0.15086
 H553 H 0.43304 0.34631 -0.14912
 H554 H 0.39269 0.30351 -0.19556
 H555 H 0.29140 0.29406 -0.12985
 H556 H 0.33162 0.33674 -0.08354
 C557 C 1.17346 -0.17184 0.17624
 C558 C 1.12455 -0.17810 0.17803
 C559 C 1.10256 -0.15518 0.15306
 C560 C 1.13162 -0.12824 0.12873
 C561 C 1.16377 -0.16063 0.11316
 C562 C 1.18571 -0.18349 0.13807
 C563 C 1.18028 -0.12286 0.17883
 C564 C 1.15829 -0.09995 0.15386
 C565 C 1.19765 -0.19691 0.20262
 C566 C 1.21854 -0.21829 0.22306
 C567 C 1.10833 -0.10388 0.10136
 C568 C 1.09005 -0.08458 0.07801
 H569 H 1.10861 -0.19864 0.19725
 H570 H 1.06778 -0.15611 0.15091
 H571 H 1.16887 -0.16522 0.08497
 H572 H 1.20958 -0.20763 0.13119
 H573 H 1.20052 -0.10752 0.19857
 H574 H 1.15970 -0.06500 0.15224
 C575 C 1.17238 0.33003 0.67483
 C576 C 1.12346 0.32394 0.67644
 C577 C 1.10172 0.34699 0.65143
 C578 C 1.13109 0.37383 0.62730
 C579 C 1.16319 0.34137 0.61177
 C580 C 1.18486 0.31838 0.63672
 C581 C 1.17942 0.37896 0.67756
 C582 C 1.15769 0.40201 0.65255
 C583 C 1.19625 0.30487 0.70118
 C584 C 1.21693 0.28346 0.72163
 C585 C 1.10816 0.39824 0.59992
 C586 C 1.09016 0.41750 0.57650
 H587 H 1.10732 0.30342 0.69557
 H588 H 1.06696 0.34622 0.64912
 H589 H 1.16844 0.33683 0.58360
 H590 H 1.20867 0.29415 0.62991
 H591 H 1.19960 0.39415 0.69741
 H592 H 1.15925 0.43695 0.65098
 C593 C 0.67153 -0.17092 0.67481
 C594 C 0.62268 -0.17746 0.67675
 C595 C 0.60051 -0.15486 0.65172
 C596 C 0.62942 -0.12799 0.62724
 C597 C 0.66168 -0.16029 0.61173
 C598 C 0.68379 -0.18282 0.63670
 C599 C 0.67813 -0.12191 0.67718
 C600 C 0.65597 -0.09932 0.65216
 C601 C 0.69585 -0.19559 0.70117
 C602 C 0.71680 -0.21671 0.72163
 C603 C 0.60607 -0.10399 0.59987
 C604 C 0.58789 -0.08484 0.57649
 H605 H 0.60690 -0.19795 0.69611
 H606 H 0.56573 -0.15598 0.64962
 H607 H 0.66672 -0.16506 0.58356
 H608 H 0.70777 -0.20690 0.62991
 H609 H 0.69834 -0.10633 0.69682
 H610 H 0.65719 -0.06437 0.65035
 C611 C 0.67187 0.32956 0.17483
 C612 C 0.67867 0.37853 0.17740
 C613 C 0.65668 0.40137 0.15243
 C614 C 0.63007 0.37297 0.12735
 C615 C 0.60098 0.34608 0.15167
 C616 C 0.62298 0.32323 0.17666
 C617 C 0.68417 0.31783 0.13669
 C618 C 0.66223 0.34062 0.11177
 C619 C 0.69601 0.30463 0.20116
 C620 C 0.71685 0.28337 0.22161
 C621 C 0.60686 0.39722 0.10002
 C622 C 0.58870 0.41651 0.07670
 H623 H 0.69889 0.39391 0.19714
 H624 H 0.65806 0.43632 0.15076
 H625 H 0.56621 0.34512 0.14951
 H626 H 0.60706 0.30270 0.19590
 H627 H 0.70806 0.29369 0.12985
 H628 H 0.66733 0.33598 0.08359
 C629 C 0.82812 0.17041 0.17482
 C630 C 0.81578 0.18212 0.13669
 C631 C 0.83772 0.15934 0.11177
 C632 C 0.86992 0.12701 0.12734
 C633 C 0.84334 0.09860 0.15243
 C634 C 0.82135 0.12144 0.17741
 C635 C 0.87700 0.17678 0.17663
 C636 C 0.89900 0.15394 0.15164
 C637 C 0.80398 0.19533 0.20116
 C638 C 0.78314 0.21659 0.22161
 C639 C 0.89313 0.10277 0.10001
 C640 C 0.91129 0.08349 0.07669
 H641 H 0.79187 0.20624 0.12985
 H642 H 0.83260 0.16396 0.08359
 H643 H 0.84199 0.06365 0.15078
 H644 H 0.80115 0.10605 0.19716
 H645 H 0.89292 0.19732 0.19586
 H646 H 0.93377 0.15491 0.14947
 C647 C 0.82845 0.67090 0.67480
 C648 C 0.82190 0.62188 0.67721
 C649 C 0.84406 0.59930 0.65219
 C650 C 0.87056 0.62797 0.62724
 C651 C 0.89946 0.65490 0.65168
 C652 C 0.87730 0.67750 0.67671
 C653 C 0.81613 0.68276 0.63669
 C654 C 0.83824 0.66022 0.61172
 C655 C 0.80414 0.69556 0.70117
 C656 C 0.78318 0.71668 0.72163
 C657 C 0.89390 0.60399 0.59986
 C658 C 0.91207 0.58484 0.57648
 H659 H 0.80174 0.60630 0.69687
 H660 H 0.84288 0.56435 0.65040
 H661 H 0.93423 0.65606 0.64955
 H662 H 0.89307 0.69802 0.69604
 H663 H 0.79212 0.70680 0.62991
 H664 H 0.83316 0.66497 0.58356
 C665 C 0.32761 0.16996 0.67483
 C666 C 0.32058 0.12103 0.67757
 C667 C 0.34231 0.09799 0.65256
 C668 C 0.36889 0.12616 0.62729
 C669 C 0.39826 0.15302 0.65142
 C670 C 0.37653 0.17607 0.67643
 C671 C 0.31511 0.18160 0.63671
 C672 C 0.33677 0.15861 0.61176
 C673 C 0.30374 0.19512 0.70118
 C674 C 0.28307 0.21653 0.72163
 C675 C 0.39182 0.10176 0.59991
 C676 C 0.40981 0.08250 0.57650
 H677 H 0.30042 0.10584 0.69743
 H678 H 0.34076 0.06304 0.65099
 H679 H 0.43302 0.15380 0.64910
 H680 H 0.39267 0.19660 0.69555
 H681 H 0.29128 0.20583 0.62991
 H682 H 0.33151 0.16315 0.58360
 C683 C 0.32652 0.67182 0.17624
 C684 C 0.31972 0.62284 0.17883
 C685 C 0.34171 0.59993 0.15387
 C686 C 0.36837 0.62823 0.12873
 C687 C 0.39743 0.65518 0.15306
 C688 C 0.37543 0.67809 0.17803
 C689 C 0.31426 0.68347 0.13807
 C690 C 0.33620 0.66061 0.11316
 C691 C 0.30233 0.69689 0.20262
 C692 C 0.28144 0.71827 0.22306
 C693 C 0.39166 0.60388 0.10136
 C694 C 0.40993 0.58458 0.07801
 H695 H 0.29949 0.60750 0.19857
 H696 H 0.34030 0.56499 0.15224
 H697 H 0.43220 0.65612 0.15091
 H698 H 0.39137 0.69864 0.19725
 H699 H 0.29038 0.70761 0.13119
 H700 H 0.33109 0.66521 0.08498
   
