data_POSCAR
  _audit_creation_date              2014-09-24
  _audit_creation_method            'ToBaCCo'
  _symmetry_space_group_name_H-M    'P1'
  _symmetry_Int_Tables_number       1
  _symmetry_cell_setting            triclinic
  loop_
  _symmetry_equiv_pos_as_xyz
 x,y,z
_cell_length_a 20.7023
_cell_length_b 20.9414
_cell_length_c 44.5412
_cell_angle_alpha 88.242800
_cell_angle_beta 92.137400
_cell_angle_gamma 121.895700
loop_
  _atom_site_label
  _atom_site_type_symbol
  _atom_site_fract_x
  _atom_site_fract_y
  _atom_site_fract_z
C1 C 0.06853 0.11603 0.55211
 H2 H 0.12088 0.11727 0.55666
 C3 C 0.05239 0.16142 0.56842
 H4 H 0.09234 0.19697 0.58576
 C5 C -0.04519 0.07037 0.52284
 H6 H -0.08172 0.03622 0.50449
 C7 C -0.06353 0.11533 0.53864
 H8 H -0.11475 0.11525 0.53268
 N9 N 0.02048 0.07241 0.52965
 C10 C 0.10524 -0.07628 0.51756
 H11 H 0.12908 -0.05895 0.49545
 C12 C 0.10371 -0.13700 0.53223
 H13 H 0.12804 -0.16530 0.52176
 C14 C 0.03889 -0.06484 0.55724
 H15 H 0.01119 -0.03842 0.56638
 C16 C 0.03448 -0.12647 0.57229
 H17 H 0.00510 -0.14579 0.59334
 Zn18 Zn 0.05839 0.02624 0.50631
 N19 N 0.07300 -0.04165 0.53018
 C20 C 0.21864 0.11305 0.49291
 N21 N 0.14952 0.10606 0.48986
 C22 C 0.14098 0.15817 0.47433
 C23 C 0.20237 0.21838 0.45987
 C24 C 0.28192 0.17277 0.47870
 C25 C -0.07355 -0.09844 0.48230
 C26 C -0.11343 -0.15415 0.46071
 C27 C -0.02380 -0.07059 0.42373
 C28 C 0.01473 -0.01689 0.44597
 N29 N -0.00922 -0.03246 0.47480
 H30 H 0.22477 0.07222 0.50601
 H31 H 0.08559 0.15179 0.47265
 H32 H 0.19376 0.25818 0.44708
 H33 H 0.33651 0.17734 0.48059
 H34 H -0.09022 -0.11016 0.50551
 H35 H -0.16139 -0.20852 0.46727
 H36 H -0.00141 -0.05943 0.40129
 H37 H 0.06703 0.03456 0.44049
 C38 C 0.06611 -0.16390 0.55941
 C39 C -0.01375 0.16235 0.56134
 C40 C -0.08667 -0.14080 0.43139
 C41 C 0.27370 0.22549 0.46165
 C42 C 1.11330 0.06566 0.10674
 H43 H 1.07853 0.08238 0.09439
 C44 C 1.16873 0.06070 0.09185
 H45 H 1.17534 0.07220 0.06793
 C46 C 1.14924 0.03290 0.15310
 H47 H 1.14225 0.02377 0.17710
 C48 C 1.20428 0.02596 0.13901
 H49 H 1.23924 0.01047 0.15207
 N50 N 1.10454 0.05155 0.13681
 C51 C 0.92491 0.01749 0.11370
 H52 H 0.93154 -0.03044 0.11485
 C53 C 0.86792 0.01536 0.09529
 H54 H 0.83119 -0.03421 0.08208
 C55 C 0.96304 0.13906 0.13064
 H56 H 0.99850 0.18597 0.14521
 C57 C 0.90695 0.13952 0.11225
 H58 H 0.90002 0.18727 0.11238
 Zn59 Zn 1.03622 0.06621 0.15801
 N60 N 0.97065 0.07833 0.13106
 C61 C 1.14012 0.21993 0.16963
 N62 N 1.09682 0.15077 0.18263
 C63 C 1.10455 0.13935 0.21246
 C64 C 1.15836 0.19855 0.23033
 C65 C 1.19364 0.28111 0.18687
 C66 C 0.96816 -0.08521 0.18034
 C67 C 0.91560 -0.14745 0.19733
 C68 C 0.87133 -0.07161 0.21731
 C69 C 0.92404 -0.01122 0.19982
 N70 N 0.97159 -0.01869 0.18205
 H71 H 1.13492 0.22700 0.14568
 H72 H 1.07177 0.08352 0.22216
 H73 H 1.16532 0.18804 0.25381
 H74 H 1.22900 0.33566 0.17627
 H75 H 1.00483 -0.09063 0.16538
 H76 H 0.91260 -0.20045 0.19576
 H77 H 0.83397 -0.06452 0.23131
 H78 H 0.92700 0.04190 0.20023
 C79 C 0.85795 0.07666 0.09476
 C80 C 1.21486 0.04063 0.10820
 C81 C 0.86670 -0.14082 0.21605
 C82 C 1.20434 0.27017 0.21734
 C83 C -0.01432 0.89930 0.88222
 H84 H -0.06835 0.84672 0.88409
 C85 C 0.04924 0.90910 0.89836
 H86 H 0.04347 0.86415 0.91294
 C87 C 0.05970 1.01955 0.85918
 H88 H 0.06408 1.06106 0.84299
 C89 C 0.12506 1.03133 0.87470
 H90 H 0.17938 1.08250 0.87083
 N91 N -0.00810 0.95396 0.86303
 C92 C -0.24818 0.87066 0.84432
 H93 H -0.24858 0.86905 0.82006
 C94 C -0.31566 0.84641 0.85919
 H95 H -0.36848 0.82528 0.84639
 C96 C -0.17897 0.89970 0.89072
 H97 H -0.12540 0.92152 0.90287
 C98 C -0.24529 0.87594 0.90650
 H99 H -0.24292 0.87818 0.93082
 Zn100 Zn -0.09406 0.92647 0.83777
 N101 N -0.18192 0.89532 0.86020
 C102 C -0.16702 0.77631 0.81490
 N103 N -0.10511 0.84765 0.81434
 C104 C -0.04360 0.86614 0.79777
 C105 C -0.04267 0.81212 0.78067
 C106 C -0.16840 0.72024 0.79806
 C107 C -0.05919 1.07367 0.82382
 C108 C -0.05365 1.13127 0.80523
 C109 C -0.09418 1.04763 0.76301
 C110 C -0.09784 0.99209 0.78226
 N111 N -0.08013 1.00601 0.81204
 H112 H -0.21459 0.76249 0.82875
 H113 H 0.00517 0.92313 0.79810
 H114 H 0.00706 0.82797 0.76777
 H115 H -0.21737 0.66333 0.79872
 H116 H -0.04746 1.08256 0.84771
 H117 H -0.03705 1.18482 0.81487
 H118 H -0.10921 1.03584 0.73942
 H119 H -0.11696 0.93718 0.77350
 C120 C -0.31428 0.84853 0.89056
 C121 C 0.12025 0.97531 0.89417
 C122 C -0.07178 1.11793 0.77443
 C123 C -0.10560 0.73803 0.78087
 C124 C 0.48467 -0.00909 0.00378
 C125 C 0.45486 -0.04379 -0.02302
 C126 C 0.38512 -0.05021 -0.03639
 C127 C 0.48531 -0.08304 -0.03902
 C128 C 0.55361 -0.00294 0.01815
 C129 C 0.44401 0.01691 0.02180
 C130 C 0.31396 -0.09836 -0.02360
 C131 C 0.24901 -0.10186 -0.03583
 C132 C 0.25448 -0.05681 -0.06069
 C133 C 0.32570 -0.00900 -0.07364
 C134 C 0.39047 -0.00630 -0.06168
 C135 C 0.43820 -0.16084 -0.04330
 C136 C 0.46517 -0.20016 -0.05762
 C137 C 0.53917 -0.16255 -0.06833
 C138 C 0.58662 -0.08429 -0.06447
 C139 C 0.55976 -0.04476 -0.04980
 C140 C 0.61399 0.06770 0.02759
 C141 C 0.67752 0.07440 0.04283
 C142 C 0.68144 0.01029 0.04890
 C143 C 0.62140 -0.06013 0.03941
 C144 C 0.55748 -0.06699 0.02447
 C145 C 0.42628 0.06921 0.01024
 C146 C 0.37818 0.08390 0.02584
 C147 C 0.34883 0.04811 0.05346
 C148 C 0.37030 -0.00072 0.06586
 C149 C 0.41742 -0.01618 0.05011
 H150 H 0.30901 -0.13276 -0.00411
 H151 H 0.19436 -0.13936 -0.02583
 H152 H 0.33113 0.02564 -0.09308
 H153 H 0.44506 0.03100 -0.07179
 H154 H 0.38073 -0.19146 -0.03506
 H155 H 0.42818 -0.26034 -0.06044
 H156 H 0.59677 0.01535 -0.04682
 H157 H 0.61158 0.11761 0.02331
 H158 H 0.72313 0.12940 0.05003
 H159 H 0.62346 -0.11003 0.04422
 H160 H 0.51056 -0.12237 0.01836
 H161 H 0.44742 0.09646 -0.01131
 H162 H 0.36247 0.12202 0.01613
 H163 H 0.34854 -0.02899 0.08719
 H164 H 0.43053 -0.05654 0.05945
 H165 H 0.64420 -0.05404 -0.07255
 C166 C -0.03297 0.46983 0.68530
 C167 C -0.02385 0.47352 0.65496
 C168 C -0.01296 0.41843 0.63933
 C169 C -0.01983 0.53562 0.63628
 C170 C -0.03784 0.52830 0.70123
 C171 C -0.03557 0.40928 0.70461
 C172 C 0.04794 0.40935 0.64740
 C173 C 0.05661 0.35610 0.63299
 C174 C 0.00500 0.31148 0.61027
 C175 C -0.05531 0.32129 0.60179
 C176 C -0.06388 0.37480 0.61614
 C177 C 0.04407 0.58088 0.61863
 C178 C 0.05244 0.64399 0.60328
 C179 C -0.00307 0.66281 0.60544
 C180 C -0.06809 0.61622 0.62215
 C181 C -0.07704 0.55249 0.63713
 C182 C -0.10224 0.50755 0.71804
 C183 C -0.10709 0.56171 0.73362
 C184 C -0.04707 0.63735 0.73275
 C185 C 0.01744 0.65790 0.71618
 C186 C 0.02235 0.60378 0.70062
 C187 C -0.08531 0.33282 0.69796
 C188 C -0.08637 0.27722 0.71654
 C189 C -0.03910 0.29735 0.74247
 C190 C 0.00882 0.37328 0.74952
 C191 C 0.01098 0.42884 0.73070
 H192 H 0.08849 0.44332 0.66491
 H193 H 0.10371 0.34951 0.63951
 H194 H -0.09551 0.28789 0.58411
 H195 H -0.11087 0.38148 0.60950
 H196 H 0.08873 0.56878 0.61755
 H197 H 0.10308 0.67904 0.59043
 H198 H -0.12757 0.51750 0.65007
 H199 H -0.14885 0.44941 0.71896
 H200 H -0.15733 0.54447 0.74640
 H201 H 0.06423 0.71596 0.71554
 H202 H 0.07309 0.62054 0.68823
 H203 H -0.12343 0.31619 0.67851
 H204 H -0.12476 0.21868 0.71091
 H205 H 0.04514 0.38941 0.76951
 H206 H 0.04940 0.48734 0.73644
 H207 H -0.11159 0.62976 0.62376
 C208 C 0.56415 0.55107 0.35304
 C209 C 0.54937 0.55314 0.32303
 C210 C 0.60544 0.61651 0.30397
 C211 C 0.47922 0.49237 0.30769
 C212 C 0.50526 0.49680 0.37400
 C213 C 0.64199 0.60184 0.36565
 C214 C 0.62647 0.69049 0.31013
 C215 C 0.68085 0.75041 0.29284
 C216 C 0.71535 0.73746 0.26934
 C217 C 0.69378 0.66334 0.26286
 C218 C 0.63865 0.60317 0.27997
 C219 C 0.44097 0.51073 0.28566
 C220 C 0.37835 0.45418 0.26958
 C221 C 0.35260 0.37822 0.27549
 C222 C 0.38984 0.35971 0.29767
 C223 C 0.45338 0.41616 0.31328
 C224 C 0.52042 0.45192 0.39347
 C225 C 0.46374 0.39779 0.41205
 C226 C 0.39136 0.38851 0.41162
 C227 C 0.37712 0.43499 0.39299
 C228 C 0.43359 0.48890 0.37436
 C229 C 0.70309 0.59903 0.35471
 C230 C 0.77714 0.64945 0.36496
 C231 C 0.79146 0.70319 0.38635
 C232 C 0.73025 0.70502 0.39804
 C233 C 0.65572 0.65415 0.38781
 H234 H 0.60086 0.70168 0.32840
 H235 H 0.69672 0.80724 0.29790
 H236 H 0.71933 0.65200 0.24464
 H237 H 0.62290 0.54637 0.27491
 H238 H 0.46004 0.56896 0.28071
 H239 H 0.35034 0.46977 0.25253
 H240 H 0.48324 0.40024 0.32928
 H241 H 0.57544 0.45733 0.39364
 H242 H 0.47609 0.36260 0.42634
 H243 H 0.32162 0.42850 0.39257
 H244 H 0.42112 0.52381 0.35992
 H245 H 0.69337 0.55834 0.33790
 H246 H 0.82381 0.64726 0.35597
 H247 H 0.74006 0.74590 0.41474
 H248 H 0.60905 0.65675 0.39655
 H249 H 0.37095 0.30136 0.30219
 N250 N -0.02899 0.21310 0.57586
 N251 N 0.01655 0.25822 0.59585
 N252 N 0.81203 0.79508 0.23307
 N253 N 0.77135 0.80052 0.25234
 N254 N 0.18844 -0.01576 -0.09235
 N255 N 0.18670 -0.06269 -0.07303
 N256 N 0.05776 0.76913 0.57280
 N257 N 0.00585 0.72950 0.59152
 N258 N 0.26510 0.33080 0.23410
 N259 N 0.29070 0.31891 0.25868
 N260 N 0.62472 -0.17776 -0.09576
 N261 N 0.56384 -0.20592 -0.08281
 N262 N 0.27157 0.03337 0.09406
 N263 N 0.29459 0.05903 0.06776
 N264 N 0.88868 0.80611 0.41328
 N265 N 0.86886 0.75497 0.39534
 N266 N -0.06998 0.17374 0.75452
 N267 N -0.03941 0.24196 0.76219
 N268 N 0.79662 0.07461 0.07784
 N269 N 0.74429 0.01453 0.06538
 N270 N 0.33710 0.28398 0.44554
 N271 N 0.33046 0.33091 0.42895
 N272 N -0.10579 0.68016 0.76447
 N273 N -0.04929 0.69411 0.74891
   
