data_POSCAR
  _audit_creation_date              2014-09-24
  _audit_creation_method            'ToBaCCo'
  _symmetry_space_group_name_H-M    'P1'
  _symmetry_Int_Tables_number       1
  _symmetry_cell_setting            triclinic
  loop_
  _symmetry_equiv_pos_as_xyz
 x,y,z
_cell_length_a 41.6849
_cell_length_b 41.7755
_cell_length_c 41.6849
_cell_angle_alpha 90.000000
_cell_angle_beta 89.999700
_cell_angle_gamma 90.000000
loop_
  _atom_site_label
  _atom_site_type_symbol
  _atom_site_fract_x
  _atom_site_fract_y
  _atom_site_fract_z
Zn1 Zn 0.77516 0.72437 0.77525
 Zn2 Zn 0.77516 0.77545 0.72478
 Zn3 Zn 0.72470 0.72437 0.72479
 Zn4 Zn 0.72470 0.77546 0.77525
 O5 O 0.74993 0.74991 0.75002
 O6 O 0.81713 0.73079 0.76845
 O7 O 0.76836 0.76904 0.68282
 O8 O 0.73118 0.68250 0.73127
 O9 O 0.81713 0.76904 0.73159
 O10 O 0.76869 0.68250 0.76877
 O11 O 0.73150 0.73078 0.68282
 O12 O 0.68274 0.76904 0.76844
 O13 O 0.76869 0.81733 0.73126
 O14 O 0.68274 0.73079 0.73159
 O15 O 0.73118 0.81733 0.76877
 O16 O 0.73150 0.76904 0.81721
 O17 O 0.76836 0.73079 0.81721
 C18 C 0.83197 0.74991 0.75002
 C19 C 0.74993 0.74991 0.66798
 C20 C 0.74993 0.66765 0.75002
 C21 C 0.66790 0.74991 0.75002
 C22 C 0.74993 0.83218 0.75001
 C23 C 0.74993 0.74991 0.83205
 Zn24 Zn 0.22470 0.72437 0.72479
 Zn25 Zn 0.22470 0.77546 0.77525
 Zn26 Zn 0.27516 0.72438 0.77525
 Zn27 Zn 0.27516 0.77545 0.72478
 O28 O 0.24993 0.74991 0.75002
 O29 O 0.18274 0.73078 0.73159
 O30 O 0.23150 0.76905 0.81721
 O31 O 0.26869 0.68250 0.76878
 O32 O 0.18274 0.76904 0.76844
 O33 O 0.23118 0.68250 0.73127
 O34 O 0.26836 0.73079 0.81721
 O35 O 0.31713 0.76904 0.73159
 O36 O 0.23118 0.81733 0.76876
 O37 O 0.31713 0.73079 0.76845
 O38 O 0.26869 0.81733 0.73125
 O39 O 0.26836 0.76903 0.68282
 O40 O 0.23150 0.73078 0.68283
 C41 C 0.16790 0.74991 0.75002
 C42 C 0.24993 0.74992 0.83205
 C43 C 0.24993 0.66765 0.75003
 C44 C 0.33197 0.74991 0.75002
 C45 C 0.24993 0.83218 0.75001
 C46 C 0.24993 0.74990 0.66798
 Zn47 Zn 0.72470 0.22437 0.77525
 Zn48 Zn 0.77516 0.22437 0.72479
 Zn49 Zn 0.72470 0.27546 0.72479
 Zn50 Zn 0.77516 0.27545 0.77525
 O51 O 0.74993 0.24991 0.75002
 O52 O 0.73118 0.18250 0.76877
 O53 O 0.76836 0.23079 0.68282
 O54 O 0.68274 0.26904 0.73159
 O55 O 0.76869 0.18250 0.73126
 O56 O 0.68274 0.23079 0.76844
 O57 O 0.73150 0.26904 0.68282
 O58 O 0.76869 0.31733 0.76877
 O59 O 0.81713 0.23079 0.73159
 O60 O 0.73118 0.31733 0.73127
 O61 O 0.81713 0.26904 0.76845
 O62 O 0.76836 0.26904 0.81721
 O63 O 0.73150 0.23078 0.81721
 C64 C 0.74993 0.16765 0.75001
 C65 C 0.74993 0.24991 0.66798
 C66 C 0.66790 0.24991 0.75002
 C67 C 0.74993 0.33218 0.75002
 C68 C 0.83196 0.24992 0.75002
 C69 C 0.74993 0.24991 0.83205
 Zn70 Zn 0.27516 0.22438 0.72478
 Zn71 Zn 0.22470 0.22437 0.77524
 Zn72 Zn 0.27516 0.27545 0.77525
 Zn73 Zn 0.22470 0.27546 0.72479
 O74 O 0.24993 0.24991 0.75002
 O75 O 0.26869 0.18250 0.73126
 O76 O 0.23150 0.23078 0.81721
 O77 O 0.31713 0.26904 0.76845
 O78 O 0.23118 0.18250 0.76876
 O79 O 0.31713 0.23079 0.73159
 O80 O 0.26836 0.26903 0.81722
 O81 O 0.23118 0.31733 0.73127
 O82 O 0.18274 0.23078 0.76844
 O83 O 0.26868 0.31733 0.76878
 O84 O 0.18274 0.26904 0.73159
 O85 O 0.23150 0.26905 0.68282
 O86 O 0.26836 0.23079 0.68282
 C87 C 0.24993 0.16765 0.75001
 C88 C 0.24993 0.24990 0.83205
 C89 C 0.33196 0.24992 0.75002
 C90 C 0.24993 0.33218 0.75003
 C91 C 0.16790 0.24992 0.75002
 C92 C 0.24993 0.24992 0.66798
 Zn93 Zn 0.72465 0.72433 0.22478
 Zn94 Zn 0.77511 0.77541 0.22479
 Zn95 Zn 0.72465 0.77541 0.27525
 Zn96 Zn 0.77511 0.72433 0.27525
 O97 O 0.74988 0.74987 0.25002
 O98 O 0.73145 0.73074 0.18282
 O99 O 0.76863 0.81728 0.23127
 O100 O 0.68268 0.76899 0.26845
 O101 O 0.76831 0.76900 0.18282
 O102 O 0.68269 0.73074 0.23159
 O103 O 0.73112 0.81728 0.26877
 O104 O 0.76831 0.73074 0.31721
 O105 O 0.81708 0.76899 0.23159
 O106 O 0.73145 0.76899 0.31721
 O107 O 0.81708 0.73074 0.26844
 O108 O 0.76863 0.68245 0.26877
 O109 O 0.73113 0.68245 0.23126
 C110 C 0.74988 0.74987 0.16798
 C111 C 0.74988 0.83213 0.25002
 C112 C 0.66785 0.74987 0.25002
 C113 C 0.74988 0.74987 0.33205
 C114 C 0.83191 0.74987 0.25002
 C115 C 0.74988 0.66760 0.25001
 Zn116 Zn 0.27511 0.77541 0.22479
 Zn117 Zn 0.22465 0.72433 0.22478
 Zn118 Zn 0.27511 0.72433 0.27525
 Zn119 Zn 0.22465 0.77541 0.27525
 O120 O 0.24988 0.74987 0.25002
 O121 O 0.26831 0.76900 0.18282
 O122 O 0.23113 0.68245 0.23126
 O123 O 0.31707 0.73074 0.26844
 O124 O 0.23145 0.73075 0.18282
 O125 O 0.31708 0.76899 0.23159
 O126 O 0.26863 0.68245 0.26877
 O127 O 0.23145 0.76899 0.31721
 O128 O 0.18269 0.73074 0.23159
 O129 O 0.26831 0.73074 0.31721
 O130 O 0.18268 0.76899 0.26845
 O131 O 0.23112 0.81728 0.26877
 O132 O 0.26863 0.81728 0.23127
 C133 C 0.24988 0.74988 0.16798
 C134 C 0.24988 0.66760 0.25001
 C135 C 0.33191 0.74987 0.25002
 C136 C 0.24988 0.74986 0.33205
 C137 C 0.16785 0.74987 0.25002
 C138 C 0.24988 0.83213 0.25002
 Zn139 Zn 0.72465 0.27541 0.22479
 Zn140 Zn 0.77511 0.22433 0.22479
 Zn141 Zn 0.77511 0.27541 0.27525
 Zn142 Zn 0.72465 0.22433 0.27525
 O143 O 0.74988 0.24987 0.25002
 O144 O 0.73145 0.26899 0.18282
 O145 O 0.81707 0.23074 0.23159
 O146 O 0.76863 0.31728 0.26877
 O147 O 0.76831 0.23074 0.18282
 O148 O 0.73112 0.31728 0.23126
 O149 O 0.81708 0.26899 0.26844
 O150 O 0.73145 0.23074 0.31721
 O151 O 0.76863 0.18245 0.23126
 O152 O 0.76831 0.26900 0.31721
 O153 O 0.73113 0.18245 0.26877
 O154 O 0.68268 0.23074 0.26845
 O155 O 0.68268 0.26899 0.23159
 C156 C 0.74988 0.24987 0.16798
 C157 C 0.83191 0.24987 0.25002
 C158 C 0.74988 0.33213 0.25001
 C159 C 0.74988 0.24987 0.33205
 C160 C 0.74988 0.16760 0.25002
 C161 C 0.66785 0.24987 0.25002
 Zn162 Zn 0.22465 0.27541 0.22479
 Zn163 Zn 0.27511 0.22432 0.22479
 Zn164 Zn 0.27511 0.27541 0.27524
 Zn165 Zn 0.22465 0.22433 0.27525
 O166 O 0.24988 0.24987 0.25002
 O167 O 0.23145 0.26899 0.18282
 O168 O 0.31707 0.23074 0.23159
 O169 O 0.26863 0.31728 0.26876
 O170 O 0.26831 0.23074 0.18282
 O171 O 0.23112 0.31728 0.23126
 O172 O 0.31708 0.26899 0.26844
 O173 O 0.23145 0.23075 0.31722
 O174 O 0.26863 0.18245 0.23127
 O175 O 0.26831 0.26900 0.31721
 O176 O 0.23113 0.18245 0.26878
 O177 O 0.18268 0.23074 0.26845
 O178 O 0.18268 0.26899 0.23159
 C179 C 0.24988 0.24986 0.16798
 C180 C 0.33191 0.24987 0.25002
 C181 C 0.24988 0.33213 0.25001
 C182 C 0.24988 0.24988 0.33205
 C183 C 0.24988 0.16760 0.25002
 C184 C 0.16785 0.24987 0.25002
 C185 C -0.06779 0.74992 0.75002
 N186 N -0.08434 0.77588 0.73954
 N187 N -0.11630 0.77580 0.73933
 C188 C -0.13285 0.74992 0.75002
 N189 N -0.11630 0.72404 0.76070
 N190 N -0.08434 0.72395 0.76049
 C191 C -0.03260 0.74992 0.75002
 N192 N -0.01605 0.72193 0.75013
 N193 N 0.01591 0.72193 0.74991
 C194 C 0.03246 0.74992 0.75002
 N195 N 0.01591 0.77790 0.75012
 N196 N -0.01605 0.77790 0.74990
 C197 C 0.06766 0.74992 0.75002
 N198 N 0.08420 0.77588 0.76049
 N199 N 0.11617 0.77580 0.76069
 C200 C 0.13272 0.74992 0.75002
 N201 N 0.11617 0.72403 0.73935
 N202 N 0.08420 0.72395 0.73955
 C203 C 0.74994 -0.06772 0.75001
 N204 N 0.76977 -0.08425 0.73018
 N205 N 0.76977 -0.11615 0.73018
 C206 C 0.74994 -0.13267 0.75001
 N207 N 0.73011 -0.11615 0.76985
 N208 N 0.73011 -0.08425 0.76985
 C209 C 0.74994 -0.03256 0.75001
 N210 N 0.73011 -0.01603 0.76984
 N211 N 0.73011 0.01586 0.76984
 C212 C 0.74994 0.03239 0.75001
 N213 N 0.76977 0.01586 0.73018
 N214 N 0.76977 -0.01603 0.73018
 C215 C 0.74994 0.06755 0.75001
 N216 N 0.76977 0.08408 0.73018
 N217 N 0.76977 0.11597 0.73018
 C218 C 0.74994 0.13250 0.75001
 N219 N 0.73010 0.11597 0.76984
 N220 N 0.73011 0.08408 0.76984
 C221 C 0.74991 0.74990 -0.06771
 N222 N 0.73944 0.77587 -0.08425
 N223 N 0.73925 0.77579 -0.11622
 C224 C 0.74993 0.74991 -0.13277
 N225 N 0.76060 0.72403 -0.11622
 N226 N 0.76039 0.72394 -0.08426
 C227 C 0.74991 0.74990 -0.03251
 N228 N 0.75001 0.72191 -0.01597
 N229 N 0.74979 0.72190 0.01600
 C230 C 0.74990 0.74989 0.03255
 N231 N 0.75001 0.77788 0.01600
 N232 N 0.74979 0.77788 -0.01596
 C233 C 0.74989 0.74988 0.06774
 N234 N 0.76036 0.77585 0.08429
 N235 N 0.76056 0.77576 0.11626
 C236 C 0.74988 0.74988 0.13280
 N237 N 0.73921 0.72400 0.11625
 N238 N 0.73942 0.72392 0.08429
 C239 C 0.56766 0.74992 0.75002
 N240 N 0.58420 0.77588 0.76049
 N241 N 0.61617 0.77580 0.76069
 C242 C 0.63272 0.74992 0.75002
 N243 N 0.61617 0.72403 0.73934
 N244 N 0.58420 0.72395 0.73955
 C245 C 0.53246 0.74992 0.75002
 N246 N 0.51591 0.72193 0.74991
 N247 N 0.48395 0.72193 0.75013
 C248 C 0.46740 0.74992 0.75002
 N249 N 0.48395 0.77790 0.74990
 N250 N 0.51591 0.77790 0.75012
 C251 C 0.43221 0.74992 0.75002
 N252 N 0.41566 0.77588 0.73954
 N253 N 0.38370 0.77580 0.73933
 C254 C 0.36715 0.74992 0.75002
 N255 N 0.38370 0.72404 0.76070
 N256 N 0.41566 0.72396 0.76050
 C257 C 0.24993 -0.06772 0.75000
 N258 N 0.26976 -0.08425 0.73017
 N259 N 0.26976 -0.11615 0.73017
 C260 C 0.24993 -0.13267 0.75000
 N261 N 0.23010 -0.11614 0.76984
 N262 N 0.23011 -0.08425 0.76983
 C263 C 0.24993 -0.03256 0.75000
 N264 N 0.23011 -0.01603 0.76983
 N265 N 0.23011 0.01586 0.76983
 C266 C 0.24993 0.03239 0.75000
 N267 N 0.26976 0.01586 0.73017
 N268 N 0.26976 -0.01603 0.73017
 C269 C 0.24993 0.06755 0.75000
 N270 N 0.26977 0.08408 0.73017
 N271 N 0.26977 0.11598 0.73017
 C272 C 0.24993 0.13250 0.75000
 N273 N 0.23010 0.11597 0.76983
 N274 N 0.23010 0.08408 0.76983
 C275 C 0.24991 0.74991 -0.06771
 N276 N 0.23944 0.77588 -0.08425
 N277 N 0.23924 0.77580 -0.11622
 C278 C 0.24992 0.74992 -0.13277
 N279 N 0.26060 0.72403 -0.11622
 N280 N 0.26039 0.72395 -0.08426
 C281 C 0.24990 0.74991 -0.03251
 N282 N 0.25001 0.72192 -0.01597
 N283 N 0.24978 0.72191 0.01600
 C284 C 0.24989 0.74990 0.03255
 N285 N 0.25000 0.77789 0.01600
 N286 N 0.24979 0.77789 -0.01596
 C287 C 0.24989 0.74989 0.06774
 N288 N 0.26036 0.77585 0.08429
 N289 N 0.26056 0.77577 0.11626
 C290 C 0.24988 0.74988 0.13280
 N291 N 0.23920 0.72400 0.11625
 N292 N 0.23941 0.72393 0.08428
 C293 C -0.06779 0.24992 0.75002
 N294 N -0.08434 0.27588 0.76049
 N295 N -0.11630 0.27580 0.76070
 C296 C -0.13285 0.24992 0.75002
 N297 N -0.11630 0.22404 0.73933
 N298 N -0.08434 0.22395 0.73954
 C299 C -0.03260 0.24992 0.75002
 N300 N -0.01605 0.22193 0.74990
 N301 N 0.01591 0.22193 0.75012
 C302 C 0.03246 0.24992 0.75002
 N303 N 0.01591 0.27790 0.74991
 N304 N -0.01605 0.27790 0.75013
 C305 C 0.06766 0.24992 0.75002
 N306 N 0.08420 0.27588 0.73955
 N307 N 0.11617 0.27580 0.73934
 C308 C 0.13272 0.24992 0.75002
 N309 N 0.11617 0.22403 0.76069
 N310 N 0.08420 0.22395 0.76048
 C311 C 0.74994 0.56755 0.75002
 N312 N 0.76977 0.58408 0.76985
 N313 N 0.76977 0.61597 0.76985
 C314 C 0.74994 0.63250 0.75002
 N315 N 0.73010 0.61597 0.73019
 N316 N 0.73011 0.58408 0.73019
 C317 C 0.74994 0.53239 0.75002
 N318 N 0.73011 0.51586 0.73019
 N319 N 0.73011 0.48397 0.73019
 C320 C 0.74994 0.46744 0.75002
 N321 N 0.76977 0.48397 0.76985
 N322 N 0.76977 0.51586 0.76985
 C323 C 0.74994 0.43228 0.75002
 N324 N 0.76977 0.41575 0.76985
 N325 N 0.76977 0.38385 0.76985
 C326 C 0.74994 0.36733 0.75002
 N327 N 0.73011 0.38385 0.73019
 N328 N 0.73011 0.41575 0.73019
 C329 C 0.74992 0.24990 -0.06771
 N330 N 0.76040 0.27586 -0.08425
 N331 N 0.76060 0.27578 -0.11622
 C332 C 0.74993 0.24990 -0.13277
 N333 N 0.73925 0.22402 -0.11622
 N334 N 0.73945 0.22393 -0.08426
 C335 C 0.74992 0.24989 -0.03251
 N336 N 0.74980 0.22190 -0.01597
 N337 N 0.75002 0.22190 0.01600
 C338 C 0.74990 0.24988 0.03255
 N339 N 0.74980 0.27787 0.01600
 N340 N 0.75002 0.27788 -0.01596
 C341 C 0.74990 0.24988 0.06774
 N342 N 0.73942 0.27584 0.08429
 N343 N 0.73921 0.27575 0.11625
 C344 C 0.74989 0.24987 0.13280
 N345 N 0.76057 0.22399 0.11625
 N346 N 0.76037 0.22391 0.08429
 C347 C 0.56766 0.24992 0.75002
 N348 N 0.58420 0.27588 0.73955
 N349 N 0.61617 0.27580 0.73934
 C350 C 0.63272 0.24992 0.75002
 N351 N 0.61617 0.22403 0.76069
 N352 N 0.58420 0.22395 0.76049
 C353 C 0.53246 0.24992 0.75002
 N354 N 0.51591 0.22193 0.75012
 N355 N 0.48395 0.22193 0.74990
 C356 C 0.46740 0.24992 0.75002
 N357 N 0.48395 0.27790 0.75013
 N358 N 0.51591 0.27790 0.74991
 C359 C 0.43221 0.24992 0.75002
 N360 N 0.41566 0.27588 0.76050
 N361 N 0.38369 0.27580 0.76070
 C362 C 0.36715 0.24992 0.75002
 N363 N 0.38370 0.22404 0.73933
 N364 N 0.41566 0.22396 0.73954
 C365 C 0.24993 0.56755 0.75003
 N366 N 0.26977 0.58408 0.76986
 N367 N 0.26977 0.61597 0.76986
 C368 C 0.24993 0.63250 0.75003
 N369 N 0.23010 0.61597 0.73020
 N370 N 0.23010 0.58408 0.73020
 C371 C 0.24993 0.53239 0.75004
 N372 N 0.23011 0.51586 0.73021
 N373 N 0.23011 0.48397 0.73021
 C374 C 0.24993 0.46744 0.75004
 N375 N 0.26976 0.48397 0.76986
 N376 N 0.26976 0.51586 0.76986
 C377 C 0.24993 0.43228 0.75003
 N378 N 0.26976 0.41575 0.76986
 N379 N 0.26976 0.38385 0.76986
 C380 C 0.24993 0.36733 0.75003
 N381 N 0.23010 0.38386 0.73020
 N382 N 0.23011 0.41575 0.73020
 C383 C 0.24992 0.24989 -0.06771
 N384 N 0.26039 0.27585 -0.08425
 N385 N 0.26060 0.27578 -0.11621
 C386 C 0.24993 0.24990 -0.13277
 N387 N 0.23925 0.22401 -0.11622
 N388 N 0.23945 0.22393 -0.08426
 C389 C 0.24991 0.24988 -0.03251
 N390 N 0.24980 0.22189 -0.01597
 N391 N 0.25001 0.22189 0.01600
 C392 C 0.24990 0.24987 0.03255
 N393 N 0.24979 0.27786 0.01600
 N394 N 0.25002 0.27787 -0.01596
 C395 C 0.24989 0.24987 0.06774
 N396 N 0.23942 0.27583 0.08429
 N397 N 0.23921 0.27575 0.11625
 C398 C 0.24988 0.24986 0.13280
 N399 N 0.26056 0.22398 0.11625
 N400 N 0.26036 0.22391 0.08429
 C401 C -0.06784 0.74986 0.25002
 N402 N -0.08439 0.77583 0.23955
 N403 N -0.11636 0.77575 0.23934
 C404 C -0.13291 0.74987 0.25002
 N405 N -0.11636 0.72398 0.26069
 N406 N -0.08439 0.72390 0.26049
 C407 C -0.03265 0.74986 0.25002
 N408 N -0.01610 0.72188 0.25013
 N409 N 0.01586 0.72188 0.24991
 C410 C 0.03241 0.74986 0.25002
 N411 N 0.01586 0.77785 0.25013
 N412 N -0.01610 0.77785 0.24991
 C413 C 0.06760 0.74986 0.25002
 N414 N 0.08415 0.77583 0.26049
 N415 N 0.11612 0.77575 0.26069
 C416 C 0.13267 0.74987 0.25002
 N417 N 0.11612 0.72398 0.23934
 N418 N 0.08415 0.72390 0.23955
 C419 C 0.74988 -0.06777 0.25002
 N420 N 0.76971 -0.08430 0.23019
 N421 N 0.76971 -0.11619 0.23019
 C422 C 0.74988 -0.13272 0.25002
 N423 N 0.73005 -0.11619 0.26985
 N424 N 0.73005 -0.08430 0.26985
 C425 C 0.74988 -0.03261 0.25002
 N426 N 0.73005 -0.01608 0.26985
 N427 N 0.73005 0.01581 0.26985
 C428 C 0.74988 0.03234 0.25002
 N429 N 0.76971 0.01581 0.23019
 N430 N 0.76971 -0.01608 0.23019
 C431 C 0.74988 0.06750 0.25002
 N432 N 0.76971 0.08403 0.23019
 N433 N 0.76971 0.11593 0.23019
 C434 C 0.74988 0.13246 0.25002
 N435 N 0.73005 0.11593 0.26985
 N436 N 0.73005 0.08403 0.26985
 C437 C 0.74992 0.74990 0.56774
 N438 N 0.76040 0.77586 0.58428
 N439 N 0.76060 0.77578 0.61625
 C440 C 0.74993 0.74990 0.63280
 N441 N 0.73925 0.72402 0.61626
 N442 N 0.73945 0.72393 0.58429
 C443 C 0.74991 0.74989 0.53255
 N444 N 0.74980 0.72190 0.51600
 N445 N 0.75002 0.72190 0.48404
 C446 C 0.74990 0.74988 0.46749
 N447 N 0.74980 0.77787 0.48403
 N448 N 0.75002 0.77788 0.51600
 C449 C 0.74990 0.74988 0.43229
 N450 N 0.73942 0.77584 0.41574
 N451 N 0.73921 0.77575 0.38378
 C452 C 0.74988 0.74987 0.36723
 N453 N 0.76057 0.72399 0.38378
 N454 N 0.76037 0.72391 0.41575
 C455 C 0.56760 0.74986 0.25002
 N456 N 0.58415 0.77583 0.26049
 N457 N 0.61612 0.77575 0.26070
 C458 C 0.63267 0.74987 0.25002
 N459 N 0.61612 0.72398 0.23934
 N460 N 0.58415 0.72390 0.23954
 C461 C 0.53241 0.74986 0.25002
 N462 N 0.51586 0.72188 0.24990
 N463 N 0.48390 0.72188 0.25012
 C464 C 0.46735 0.74986 0.25002
 N465 N 0.48390 0.77785 0.24991
 N466 N 0.51586 0.77785 0.25013
 C467 C 0.43216 0.74986 0.25002
 N468 N 0.41561 0.77583 0.23955
 N469 N 0.38364 0.77575 0.23934
 C470 C 0.36709 0.74987 0.25002
 N471 N 0.38364 0.72398 0.26069
 N472 N 0.41561 0.72390 0.26049
 C473 C 0.24988 -0.06777 0.25003
 N474 N 0.26971 -0.08430 0.23020
 N475 N 0.26971 -0.11619 0.23020
 C476 C 0.24988 -0.13272 0.25003
 N477 N 0.23005 -0.11619 0.26986
 N478 N 0.23005 -0.08430 0.26986
 C479 C 0.24988 -0.03261 0.25003
 N480 N 0.23005 -0.01608 0.26986
 N481 N 0.23005 0.01581 0.26986
 C482 C 0.24988 0.03234 0.25003
 N483 N 0.26971 0.01581 0.23020
 N484 N 0.26971 -0.01608 0.23020
 C485 C 0.24988 0.06750 0.25003
 N486 N 0.26971 0.08403 0.23020
 N487 N 0.26971 0.11593 0.23020
 C488 C 0.24988 0.13246 0.25003
 N489 N 0.23005 0.11593 0.26986
 N490 N 0.23005 0.08403 0.26986
 C491 C 0.24992 0.74989 0.56774
 N492 N 0.26039 0.77585 0.58428
 N493 N 0.26060 0.77578 0.61625
 C494 C 0.24993 0.74990 0.63280
 N495 N 0.23925 0.72401 0.61626
 N496 N 0.23945 0.72393 0.58429
 C497 C 0.24991 0.74988 0.53255
 N498 N 0.24980 0.72189 0.51600
 N499 N 0.25001 0.72189 0.48404
 C500 C 0.24990 0.74987 0.46749
 N501 N 0.24979 0.77786 0.48403
 N502 N 0.25002 0.77787 0.51600
 C503 C 0.24989 0.74987 0.43229
 N504 N 0.23942 0.77583 0.41574
 N505 N 0.23921 0.77575 0.38378
 C506 C 0.24988 0.74986 0.36723
 N507 N 0.26056 0.72398 0.38378
 N508 N 0.26036 0.72391 0.41575
 C509 C -0.06784 0.24986 0.25002
 N510 N -0.08439 0.27583 0.26049
 N511 N -0.11636 0.27575 0.26069
 C512 C -0.13291 0.24987 0.25002
 N513 N -0.11636 0.22398 0.23934
 N514 N -0.08439 0.22390 0.23955
 C515 C -0.03265 0.24986 0.25002
 N516 N -0.01610 0.22188 0.24991
 N517 N 0.01586 0.22188 0.25013
 C518 C 0.03241 0.24986 0.25002
 N519 N 0.01586 0.27785 0.24991
 N520 N -0.01610 0.27785 0.25013
 C521 C 0.06760 0.24986 0.25002
 N522 N 0.08415 0.27583 0.23955
 N523 N 0.11612 0.27575 0.23934
 C524 C 0.13266 0.24987 0.25002
 N525 N 0.11612 0.22398 0.26069
 N526 N 0.08415 0.22390 0.26049
 C527 C 0.74988 0.56750 0.25001
 N528 N 0.76971 0.58403 0.26984
 N529 N 0.76971 0.61593 0.26985
 C530 C 0.74988 0.63246 0.25001
 N531 N 0.73005 0.61593 0.23018
 N532 N 0.73005 0.58403 0.23018
 C533 C 0.74988 0.53234 0.25001
 N534 N 0.73005 0.51581 0.23018
 N535 N 0.73005 0.48392 0.23018
 C536 C 0.74988 0.46739 0.25001
 N537 N 0.76971 0.48392 0.26984
 N538 N 0.76971 0.51581 0.26984
 C539 C 0.74988 0.43223 0.25001
 N540 N 0.76971 0.41570 0.26984
 N541 N 0.76971 0.38381 0.26984
 C542 C 0.74988 0.36728 0.25001
 N543 N 0.73005 0.38381 0.23018
 N544 N 0.73005 0.41570 0.23018
 C545 C 0.74991 0.24990 0.56774
 N546 N 0.73944 0.27587 0.58429
 N547 N 0.73924 0.27579 0.61625
 C548 C 0.74992 0.24991 0.63280
 N549 N 0.76060 0.22403 0.61625
 N550 N 0.76039 0.22394 0.58429
 C551 C 0.74990 0.24990 0.53255
 N552 N 0.75001 0.22191 0.51600
 N553 N 0.74979 0.22190 0.48404
 C554 C 0.74989 0.24989 0.46749
 N555 N 0.75001 0.27788 0.48403
 N556 N 0.74979 0.27788 0.51600
 C557 C 0.74989 0.24988 0.43229
 N558 N 0.76036 0.27585 0.41574
 N559 N 0.76056 0.27576 0.38378
 C560 C 0.74988 0.24988 0.36723
 N561 N 0.73921 0.22400 0.38378
 N562 N 0.73941 0.22392 0.41575
 C563 C 0.56760 0.24986 0.25002
 N564 N 0.58415 0.27583 0.23954
 N565 N 0.61612 0.27575 0.23934
 C566 C 0.63267 0.24987 0.25002
 N567 N 0.61612 0.22398 0.26070
 N568 N 0.58415 0.22390 0.26049
 C569 C 0.53241 0.24986 0.25002
 N570 N 0.51586 0.22188 0.25013
 N571 N 0.48390 0.22188 0.24991
 C572 C 0.46735 0.24986 0.25002
 N573 N 0.48390 0.27785 0.25013
 N574 N 0.51586 0.27785 0.24991
 C575 C 0.43216 0.24986 0.25002
 N576 N 0.41561 0.27583 0.26049
 N577 N 0.38364 0.27575 0.26069
 C578 C 0.36709 0.24987 0.25002
 N579 N 0.38364 0.22398 0.23934
 N580 N 0.41561 0.22390 0.23955
 C581 C 0.24988 0.56750 0.25000
 N582 N 0.26971 0.58403 0.26984
 N583 N 0.26971 0.61593 0.26984
 C584 C 0.24988 0.63246 0.25001
 N585 N 0.23005 0.61593 0.23017
 N586 N 0.23005 0.58403 0.23017
 C587 C 0.24988 0.53234 0.25000
 N588 N 0.23005 0.51581 0.23017
 N589 N 0.23005 0.48392 0.23017
 C590 C 0.24988 0.46739 0.25000
 N591 N 0.26971 0.48392 0.26983
 N592 N 0.26971 0.51581 0.26983
 C593 C 0.24988 0.43223 0.25000
 N594 N 0.26971 0.41570 0.26983
 N595 N 0.26971 0.38381 0.26984
 C596 C 0.24988 0.36728 0.25001
 N597 N 0.23005 0.38381 0.23018
 N598 N 0.23005 0.41570 0.23018
 C599 C 0.24991 0.24991 0.56774
 N600 N 0.23944 0.27588 0.58429
 N601 N 0.23924 0.27580 0.61625
 C602 C 0.24992 0.24992 0.63280
 N603 N 0.26060 0.22403 0.61625
 N604 N 0.26039 0.22395 0.58429
 C605 C 0.24990 0.24991 0.53255
 N606 N 0.25001 0.22192 0.51600
 N607 N 0.24978 0.22191 0.48404
 C608 C 0.24989 0.24990 0.46749
 N609 N 0.25000 0.27789 0.48403
 N610 N 0.24979 0.27789 0.51600
 C611 C 0.24988 0.24989 0.43229
 N612 N 0.26036 0.27585 0.41574
 N613 N 0.26056 0.27577 0.38378
 C614 C 0.24988 0.24988 0.36723
 N615 N 0.23920 0.22400 0.38379
 N616 N 0.23941 0.22393 0.41575
   
