data_POSCAR
  _audit_creation_date              2014-09-24
  _audit_creation_method            'ToBaCCo'
  _symmetry_space_group_name_H-M    'P1'
  _symmetry_Int_Tables_number       1
  _symmetry_cell_setting            triclinic
  loop_
  _symmetry_equiv_pos_as_xyz
 x,y,z
_cell_length_a 40.9542
_cell_length_b 50.5770
_cell_length_c 41.1118
_cell_angle_alpha 89.978600
_cell_angle_beta 90.052400
_cell_angle_gamma 90.050700
loop_
  _atom_site_label
  _atom_site_type_symbol
  _atom_site_fract_x
  _atom_site_fract_y
  _atom_site_fract_z
Si1 Si 1.24946 0.25068 0.25143
 Si2 Si 0.74945 -0.25018 0.25005
 Si3 Si 0.75002 0.25001 -0.24903
 Si4 Si 1.24976 -0.24917 -0.24945
 Si5 Si 0.24941 0.24990 0.74952
 Si6 Si 0.74962 0.75002 0.75037
 Si7 Si 0.75012 0.25026 0.24901
 Si8 Si 0.25010 0.75007 0.25057
 N9 N 1.05831 0.02809 0.03620
 N10 N 1.07955 0.04724 0.04146
 N11 N 1.03652 -0.02765 0.05900
 N12 N 1.04236 -0.04644 0.08055
 N13 N 1.05918 -0.02743 0.03642
 N14 N 1.08116 -0.04597 0.04208
 N15 N 1.03557 0.02805 0.05870
 N16 N 1.04068 0.04725 0.07987
 C17 C 1.06810 0.05909 0.06863
 C18 C 1.07019 -0.05777 0.06955
 N19 N 0.94365 -0.02895 0.03624
 N20 N 0.92274 -0.04834 0.04161
 N21 N 0.96516 0.02721 0.05864
 N22 N 0.95964 0.04645 0.07961
 N23 N 0.94232 0.02664 0.03620
 N24 N 0.92057 0.04541 0.04135
 N25 N 0.96617 -0.02838 0.05899
 N26 N 0.96116 -0.04731 0.08052
 Mn27 Mn 1.00085 -0.00017 0.05920
 C28 C 0.93412 -0.05966 0.06920
 C29 C 0.93182 0.05767 0.06839
 N30 N 1.05898 -0.02739 -0.03378
 N31 N 1.08039 -0.04642 -0.03884
 N32 N 1.03542 0.02808 -0.05625
 N33 N 1.04047 0.04725 -0.07748
 N34 N 1.05823 0.02812 -0.03378
 N35 N 1.07949 0.04725 -0.03914
 N36 N 1.03629 -0.02759 -0.05637
 N37 N 1.04153 -0.04688 -0.07734
 Mn38 Mn 1.05901 0.00033 0.00125
 C39 C 1.06905 -0.05846 -0.06597
 C40 C 1.06795 0.05909 -0.06634
 N41 N 0.94218 0.02665 -0.03393
 N42 N 0.92017 0.04518 -0.03943
 N43 N 0.96602 -0.02838 -0.05660
 N44 N 0.96080 -0.04714 -0.07831
 N45 N 0.94352 -0.02897 -0.03388
 N46 N 0.92242 -0.04821 -0.03944
 N47 N 0.96502 0.02722 -0.05632
 N48 N 0.95925 0.04621 -0.07760
 Mn49 Mn 0.94256 -0.00119 0.00117
 Mn50 Mn 1.00070 -0.00015 -0.05675
 Cl51 Cl 1.00077 -0.00030 0.00122
 C52 C 0.93129 0.05731 -0.06661
 C53 C 0.93368 -0.05944 -0.06713
 N54 N 1.05732 0.52963 0.53456
 N55 N 1.07844 0.54888 0.53976
 N56 N 1.03635 0.47375 0.55765
 N57 N 1.04204 0.45464 0.57879
 N58 N 1.05898 0.47415 0.53504
 N59 N 1.08079 0.45542 0.54026
 N60 N 1.03471 0.52941 0.55718
 N61 N 1.03979 0.54858 0.57839
 C62 C 1.06704 0.56061 0.56703
 C63 C 1.06976 0.44336 0.56753
 N64 N 0.94339 0.47152 0.53545
 N65 N 0.92245 0.45223 0.54123
 N66 N 0.96437 0.52791 0.55743
 N67 N 0.95859 0.54700 0.57853
 N68 N 0.94144 0.52713 0.53510
 N69 N 0.91933 0.54560 0.54047
 N70 N 0.96599 0.47232 0.55811
 N71 N 0.96097 0.45365 0.58001
 Mn72 Mn 1.00037 0.50087 0.55796
 C73 C 0.93388 0.44118 0.56898
 C74 C 0.93051 0.55792 0.56752
 N75 N 1.05868 0.47387 0.46491
 N76 N 1.08027 0.45494 0.46003
 N77 N 1.03437 0.52886 0.44195
 N78 N 1.03955 0.54750 0.42004
 N79 N 1.05705 0.52947 0.46454
 N80 N 1.07819 0.54862 0.45871
 N81 N 1.03585 0.47324 0.44247
 N82 N 1.04118 0.45377 0.42178
 Mn83 Mn 1.05835 0.50178 0.49976
 C84 C 1.06891 0.44253 0.43315
 C85 C 1.06682 0.55978 0.43099
 N86 N 0.94122 0.52680 0.46493
 N87 N 0.91926 0.54539 0.45964
 N88 N 0.96559 0.47185 0.44256
 N89 N 0.96048 0.45297 0.42099
 N90 N 0.94315 0.47122 0.46535
 N91 N 0.92221 0.45184 0.45996
 N92 N 0.96397 0.52740 0.44243
 N93 N 0.95820 0.54648 0.42130
 Mn94 Mn 0.94194 0.49915 0.50020
 Mn95 Mn 0.99994 0.50035 0.44200
 Cl96 Cl 1.00014 0.50054 0.49999
 C97 C 0.93032 0.55756 0.43247
 C98 C 0.93350 0.44056 0.43232
 N99 N 0.55777 0.02825 0.53436
 N100 N 0.57927 0.04720 0.53978
 N101 N 0.53529 -0.02739 0.55714
 N102 N 0.54071 -0.04637 0.57853
 N103 N 0.55807 -0.02728 0.53468
 N104 N 0.57968 -0.04609 0.54022
 N105 N 0.53500 0.02832 0.55682
 N106 N 0.54030 0.04742 0.57808
 C107 C 0.56791 0.05908 0.56699
 C108 C 0.56839 -0.05792 0.56752
 N109 N 0.44225 -0.02777 0.53423
 N110 N 0.42074 -0.04668 0.53972
 N111 N 0.46463 0.02799 0.55653
 N112 N 0.45902 0.04697 0.57783
 N113 N 0.44193 0.02773 0.53395
 N114 N 0.42015 0.04644 0.53936
 N115 N 0.46493 -0.02768 0.55684
 N116 N 0.45955 -0.04663 0.57828
 Mn117 Mn 0.49996 0.00031 0.55720
 C118 C 0.43201 -0.05836 0.56713
 C119 C 0.43130 0.05837 0.56667
 N120 N 0.55821 -0.02755 0.46463
 N121 N 0.57972 -0.04651 0.45959
 N122 N 0.53525 0.02784 0.44163
 N123 N 0.54057 0.04688 0.42027
 N124 N 0.55791 0.02795 0.46426
 N125 N 0.57933 0.04694 0.45886
 N126 N 0.53554 -0.02783 0.44202
 N127 N 0.54092 -0.04708 0.42103
 Mn128 Mn 0.55832 0.00035 0.49948
 C129 C 0.56848 -0.05859 0.43244
 C130 C 0.56805 0.05866 0.43149
 N131 N 0.44225 0.02753 0.46382
 N132 N 0.42105 0.04671 0.45850
 N133 N 0.46515 -0.02810 0.44155
 N134 N 0.45968 -0.04691 0.41995
 N135 N 0.44244 -0.02819 0.46407
 N136 N 0.42094 -0.04715 0.45847
 N137 N 0.46492 0.02742 0.44126
 N138 N 0.45973 0.04642 0.41988
 Mn139 Mn 0.44185 -0.00018 0.49901
 Mn140 Mn 0.50023 -0.00017 0.44126
 Cl141 Cl 0.50008 0.00007 0.49925
 C142 C 0.43241 0.05835 0.43109
 C143 C 0.43217 -0.05874 0.43097
 N144 N 0.55683 0.52812 0.03528
 N145 N 0.57832 0.54714 0.04026
 N146 N 0.53354 0.47305 0.05857
 N147 N 0.53866 0.45422 0.08024
 N148 N 0.55613 0.47254 0.03594
 N149 N 0.57717 0.45330 0.04148
 N150 N 0.53394 0.52865 0.05762
 N151 N 0.53917 0.54811 0.07837
 C152 C 0.56685 0.55950 0.06709
 C153 C 0.56583 0.44200 0.06910
 N154 N 0.44054 0.47332 0.03545
 N155 N 0.41893 0.45447 0.04093
 N156 N 0.46355 0.52905 0.05739
 N157 N 0.45780 0.54790 0.07886
 N158 N 0.44086 0.52885 0.03479
 N159 N 0.41900 0.54749 0.04035
 N160 N 0.46317 0.47336 0.05811
 N161 N 0.45769 0.45444 0.07955
 Mn162 Mn 0.49855 0.50104 0.05829
 C163 C 0.43010 0.44279 0.06838
 C164 C 0.43006 0.55933 0.06776
 N165 N 0.55664 0.47204 -0.03412
 N166 N 0.57824 0.45318 -0.03940
 N167 N 0.53456 0.52767 -0.05738
 N168 N 0.54001 0.54676 -0.07862
 N169 N 0.55721 0.52757 -0.03475
 N170 N 0.57876 0.54650 -0.04002
 N171 N 0.53406 0.47196 -0.05682
 N172 N 0.53961 0.45294 -0.07811
 Mn173 Mn 0.55704 0.50005 0.00060
 C174 C 0.56714 0.44132 -0.06677
 C175 C 0.56758 0.55837 -0.06734
 N176 N 0.44146 0.52830 -0.03534
 N177 N 0.42048 0.54759 -0.04085
 N178 N 0.46373 0.47247 -0.05722
 N179 N 0.45832 0.45349 -0.07855
 N180 N 0.44096 0.47261 -0.03474
 N181 N 0.41946 0.45361 -0.04013
 N182 N 0.46420 0.52794 -0.05783
 N183 N 0.45925 0.54687 -0.07937
 Mn184 Mn 0.44059 0.50076 0.00002
 Mn185 Mn 0.49914 0.50001 -0.05766
 Cl186 Cl 0.49882 0.50046 0.00032
 C187 C 0.43202 0.55902 -0.06831
 C188 C 0.43077 0.44181 -0.06745
 C189 C 1.18853 0.19592 0.18793
 N190 N 1.17435 0.20983 0.21236
 N191 N 1.19202 0.22625 0.23062
 C192 C 1.22445 0.22926 0.22513
 N193 N 1.23865 0.21539 0.20074
 N194 N 1.22098 0.19906 0.18239
 C195 C 1.16938 0.17710 0.16857
 N196 N 1.18308 0.16451 0.14283
 N197 N 1.16611 0.14673 0.12593
 C198 C 1.13488 0.14079 0.13424
 N199 N 1.12113 0.15345 0.15991
 N200 N 1.13806 0.17133 0.17673
 C201 C 1.11678 0.12034 0.11645
 N202 N 1.08715 0.11193 0.12710
 N203 N 1.07140 0.09258 0.11166
 C204 C 1.08467 0.08105 0.08497
 N205 N 1.11414 0.08960 0.07417
 N206 N 1.12995 0.10886 0.08967
 C207 C 1.18841 0.69648 0.68693
 N208 N 1.17438 0.71033 0.71148
 N209 N 1.19219 0.72661 0.72979
 C210 C 1.22462 0.72953 0.72423
 N211 N 1.23868 0.71571 0.69973
 N212 N 1.22087 0.69952 0.68132
 C213 C 1.16910 0.67784 0.66748
 N214 N 1.18260 0.66539 0.64155
 N215 N 1.16546 0.64777 0.62455
 C216 C 1.13424 0.64188 0.63295
 N217 N 1.12068 0.65441 0.65882
 N218 N 1.13778 0.67212 0.67573
 C219 C 1.11598 0.62160 0.61506
 N220 N 1.08642 0.61313 0.62582
 N221 N 1.07055 0.59388 0.61030
 C222 C 1.08365 0.58252 0.58342
 N223 N 1.11304 0.59113 0.57250
 N224 N 1.12896 0.61029 0.58809
 C225 C 0.68875 0.19571 0.68692
 N226 N 0.67438 0.21036 0.71058
 N227 N 0.69207 0.22675 0.72889
 C228 C 0.72474 0.22901 0.72421
 N229 N 0.73912 0.21437 0.70061
 N230 N 0.72142 0.19809 0.68220
 C231 C 0.66958 0.17685 0.66752
 N232 N 0.68356 0.16377 0.64230
 N233 N 0.66661 0.14596 0.62538
 C234 C 0.63512 0.14047 0.63315
 N235 N 0.62109 0.15362 0.65831
 N236 N 0.63800 0.17153 0.67514
 C237 C 0.61697 0.12003 0.61526
 N238 N 0.58708 0.11193 0.62554
 N239 N 0.57125 0.09267 0.60998
 C240 C 0.58468 0.08092 0.58351
 N241 N 0.61443 0.08915 0.57308
 N242 N 0.63032 0.10832 0.58872
 C243 C 0.68781 0.69639 0.18551
 N244 N 0.67351 0.71111 0.20914
 N245 N 0.69135 0.72722 0.22765
 C246 C 0.72407 0.72909 0.22323
 N247 N 0.73839 0.71439 0.19966
 N248 N 0.72055 0.69838 0.18104
 C249 C 0.66852 0.67779 0.16598
 N250 N 0.68249 0.66454 0.14091
 N251 N 0.66544 0.64682 0.12399
 C252 C 0.63385 0.64161 0.13163
 N253 N 0.61981 0.65496 0.15661
 N254 N 0.63682 0.67278 0.17345
 C255 C 0.61569 0.62112 0.11399
 N256 N 0.58574 0.61322 0.12433
 N257 N 0.56996 0.59375 0.10915
 C258 C 0.58352 0.58159 0.08304
 N259 N 0.61331 0.58963 0.07253
 N260 N 0.62914 0.60901 0.08778
 C261 C 0.81411 -0.19583 0.18992
 N262 N 0.79062 -0.21066 0.17538
 N263 N 0.77203 -0.22694 0.19289
 C264 C 0.77623 -0.22885 0.22552
 N265 N 0.79968 -0.21408 0.24009
 N266 N 0.81838 -0.19789 0.22258
 C267 C 0.83380 -0.17717 0.17088
 N268 N 0.85884 -0.16381 0.18497
 N269 N 0.87597 -0.14614 0.16804
 C270 C 0.86858 -0.14112 0.13645
 N271 N 0.84361 -0.15455 0.12231
 N272 N 0.82658 -0.17231 0.13920
 C273 C 0.88648 -0.12076 0.11831
 N274 N 0.87629 -0.11307 0.08832
 N275 N 0.89172 -0.09378 0.07247
 C276 C 0.91795 -0.08159 0.08599
 N277 N 0.92833 -0.08942 0.11582
 N278 N 0.91282 -0.10863 0.13174
 C279 C 0.81416 0.30503 0.69085
 N280 N 0.79088 0.28998 0.67629
 N281 N 0.77251 0.27349 0.69376
 C282 C 0.77672 0.27155 0.72639
 N283 N 0.79997 0.28653 0.74098
 N284 N 0.81844 0.30292 0.72351
 C285 C 0.83363 0.32391 0.67181
 N286 N 0.85849 0.33752 0.68591
 N287 N 0.87548 0.35527 0.66895
 C288 C 0.86814 0.36018 0.63731
 N289 N 0.84334 0.34652 0.62318
 N290 N 0.82645 0.32867 0.64010
 C291 C 0.88602 0.38053 0.61901
 N292 N 0.87593 0.38795 0.58888
 N293 N 0.89140 0.40709 0.57279
 C294 C 0.91761 0.41943 0.58617
 N295 N 0.92787 0.41189 0.61617
 N296 N 0.91231 0.39282 0.63233
 C297 C 0.31040 -0.19337 0.68836
 N298 N 0.27765 -0.19546 0.68386
 N299 N 0.26000 -0.21195 0.70199
 C300 C 0.27452 -0.22702 0.72511
 N301 N 0.30724 -0.22508 0.72958
 N302 N 0.32489 -0.20847 0.71156
 C303 C 0.32958 -0.17462 0.66896
 N304 N 0.36131 -0.16963 0.67635
 N305 N 0.37834 -0.15195 0.65931
 C306 C 0.36428 -0.13874 0.63419
 N307 N 0.33263 -0.14389 0.62667
 N308 N 0.31557 -0.16146 0.64380
 C309 C 0.38257 -0.11861 0.61605
 N310 N 0.36927 -0.10703 0.58937
 N311 N 0.38529 -0.08809 0.57350
 C312 C 0.41514 -0.07998 0.58383
 N313 N 0.42854 -0.09161 0.61043
 N314 N 0.41256 -0.11064 0.62623
 C315 C 0.30950 0.30687 0.18918
 N316 N 0.32419 0.29178 0.21227
 N317 N 0.30673 0.27504 0.23029
 C318 C 0.27400 0.27295 0.22592
 N319 N 0.25930 0.28801 0.20292
 N320 N 0.27676 0.30463 0.18479
 C321 C 0.32847 0.32580 0.16982
 N322 N 0.31428 0.33902 0.14481
 N323 N 0.33115 0.35675 0.12774
 C324 C 0.36280 0.36200 0.13517
 N325 N 0.37704 0.34873 0.16014
 N326 N 0.36020 0.33090 0.17711
 C327 C 0.38092 0.38229 0.11711
 N328 N 0.41091 0.39028 0.12724
 N329 N 0.42677 0.40941 0.11152
 C330 C 0.41326 0.42112 0.08503
 N331 N 0.38341 0.41299 0.07474
 N332 N 0.36748 0.39396 0.09055
 C333 C 0.80993 0.19347 -0.18686
 N334 N 0.77717 0.19568 -0.18259
 N335 N 0.75978 0.21244 -0.20062
 C336 C 0.77455 0.22768 -0.22340
 N337 N 0.80729 0.22563 -0.22763
 N338 N 0.82468 0.20877 -0.20970
 C339 C 0.82886 0.17436 -0.16763
 N340 N 0.86067 0.16949 -0.17470
 N341 N 0.87750 0.15156 -0.15786
 C342 C 0.86318 0.13793 -0.13323
 N343 N 0.83144 0.14293 -0.12602
 N344 N 0.81457 0.16077 -0.14296
 C345 C 0.88139 0.11759 -0.11525
 N346 N 0.86790 0.10549 -0.08900
 N347 N 0.88400 0.08652 -0.07324
 C348 C 0.91412 0.07888 -0.08323
 N349 N 0.92767 0.09100 -0.10941
 N350 N 0.91163 0.11006 -0.12509
 C351 C 0.80919 0.69353 0.31242
 N352 N 0.77641 0.69565 0.31657
 N353 N 0.75903 0.71229 0.29839
 C354 C 0.77384 0.72747 0.27558
 N355 N 0.80659 0.72550 0.27147
 N356 N 0.82398 0.70876 0.28954
 C357 C 0.82812 0.67459 0.33179
 N358 N 0.85996 0.66980 0.32480
 N359 N 0.87680 0.65196 0.34175
 C360 C 0.86245 0.63837 0.36638
 N361 N 0.83069 0.64331 0.37352
 N362 N 0.81380 0.66105 0.35648
 C363 C 0.88063 0.61807 0.38432
 N364 N 0.86711 0.60593 0.41051
 N365 N 0.88316 0.58688 0.42617
 C366 C 0.91324 0.57922 0.41608
 N367 N 0.92683 0.59141 0.38997
 N368 N 0.91083 0.61054 0.37441
 C369 C 0.31345 0.19571 0.31141
 N370 N 0.29001 0.21054 0.32596
 N371 N 0.27166 0.22703 0.30851
 C372 C 0.27605 0.22917 0.27593
 N373 N 0.29945 0.21441 0.26135
 N374 N 0.31791 0.19802 0.27881
 C375 C 0.33284 0.17680 0.33035
 N376 N 0.35794 0.16354 0.31629
 N377 N 0.37482 0.14565 0.33309
 C378 C 0.36712 0.14027 0.36451
 N379 N 0.34210 0.15360 0.37862
 N380 N 0.32531 0.17159 0.36186
 C381 C 0.38484 0.11972 0.38248
 N382 N 0.37439 0.11165 0.41221
 N383 N 0.38974 0.09223 0.42791
 C384 C 0.41615 0.08030 0.41447
 N385 N 0.42676 0.08851 0.38488
 N386 N 0.41133 0.10783 0.36913
 C387 C 0.31352 0.69589 -0.18921
 N388 N 0.29016 0.71084 -0.17473
 N389 N 0.27184 0.72729 -0.19228
 C390 C 0.27618 0.72926 -0.22488
 N391 N 0.29949 0.71437 -0.23938
 N392 N 0.31792 0.69802 -0.22183
 C393 C 0.33290 0.67706 -0.17014
 N394 N 0.35792 0.66366 -0.18412
 N395 N 0.37480 0.64586 -0.16716
 C396 C 0.36717 0.64073 -0.13566
 N397 N 0.34222 0.65421 -0.12164
 N398 N 0.32544 0.67210 -0.13855
 C399 C 0.38483 0.62027 -0.11750
 N400 N 0.37437 0.61245 -0.08768
 N401 N 0.38963 0.59308 -0.07180
 C402 C 0.41595 0.58096 -0.08514
 N403 N 0.42658 0.58892 -0.11482
 N404 N 0.41124 0.60819 -0.13076
 C405 C 1.18882 -0.19541 -0.18491
 N406 N 1.17434 -0.20998 -0.20862
 N407 N 1.19198 -0.22617 -0.22715
 C408 C 1.22468 -0.22827 -0.22266
 N409 N 1.23917 -0.21372 -0.19902
 N410 N 1.22154 -0.19764 -0.18038
 C411 C 1.16974 -0.17676 -0.16535
 N412 N 1.18384 -0.16369 -0.14016
 N413 N 1.16697 -0.14593 -0.12318
 C414 C 1.13544 -0.14052 -0.13088
 N415 N 1.12128 -0.15368 -0.15599
 N416 N 1.13812 -0.17154 -0.17287
 C417 C 1.11746 -0.12001 -0.11318
 N418 N 1.08764 -0.11190 -0.12360
 N419 N 1.07200 -0.09244 -0.10834
 C420 C 1.08559 -0.08050 -0.08205
 N421 N 1.11526 -0.08875 -0.07145
 N422 N 1.13096 -0.10812 -0.08679
 C423 C 1.18853 0.30450 0.31590
 N424 N 1.17401 0.28977 0.29235
 N425 N 1.19164 0.27353 0.27388
 C426 C 1.22436 0.27152 0.27827
 N427 N 1.23888 0.28620 0.30177
 N428 N 1.22127 0.30234 0.32034
 C429 C 1.16948 0.32328 0.33531
 N430 N 1.18367 0.33664 0.36023
 N431 N 1.16685 0.35455 0.37700
 C432 C 1.13528 0.35985 0.36936
 N433 N 1.12103 0.34640 0.34454
 N434 N 1.13781 0.32839 0.32786
 C435 C 1.11735 0.38054 0.38680
 N436 N 1.08743 0.38844 0.37641
 N437 N 1.07180 0.40805 0.39140
 C438 C 1.08550 0.42036 0.41737
 N439 N 1.11528 0.41233 0.42794
 N440 N 1.13096 0.39281 0.41286
 C441 C 0.68904 -0.19529 0.31364
 N442 N 0.72155 -0.19832 0.31897
 N443 N 0.73908 -0.21468 0.30057
 C444 C 0.72468 -0.22866 0.27635
 N445 N 0.69220 -0.22575 0.27108
 N446 N 0.67467 -0.20932 0.28938
 C447 C 0.67001 -0.17647 0.33302
 N448 N 0.63857 -0.17094 0.32507
 N449 N 0.62169 -0.15307 0.34189
 C450 C 0.63561 -0.14019 0.36734
 N451 N 0.66696 -0.14588 0.37544
 N452 N 0.68388 -0.16367 0.35855
 C453 C 0.61750 -0.11975 0.38505
 N454 N 0.63075 -0.10799 0.41165
 N455 N 0.61486 -0.08874 0.42704
 C456 C 0.58523 -0.08050 0.41630
 N457 N 0.57190 -0.09232 0.38980
 N458 N 0.58773 -0.11164 0.37448
 C459 C 0.68912 0.30527 -0.18609
 N460 N 0.72158 0.30216 -0.18046
 N461 N 0.73922 0.28568 -0.19860
 C462 C 0.72500 0.27161 -0.22286
 N463 N 0.69257 0.27459 -0.22843
 N464 N 0.67494 0.29115 -0.21039
 C465 C 0.66995 0.32421 -0.16691
 N466 N 0.63858 0.32981 -0.17511
 N467 N 0.62157 0.34767 -0.15839
 C468 C 0.63526 0.36050 -0.13277
 N469 N 0.66655 0.35476 -0.12443
 N470 N 0.68360 0.33698 -0.14123
 C471 C 0.61693 0.38083 -0.11495
 N472 N 0.62991 0.39238 -0.08808
 N473 N 0.61380 0.41140 -0.07248
 C474 C 0.58418 0.41964 -0.08325
 N475 N 0.57111 0.40806 -0.11005
 N476 N 0.58717 0.38895 -0.12559
 C477 C 1.18790 0.19575 -0.18662
 N478 N 1.17360 0.21029 -0.21048
 N479 N 1.19135 0.22661 -0.22882
 C480 C 1.22400 0.22887 -0.22397
 N481 N 1.23830 0.21435 -0.20019
 N482 N 1.22056 0.19816 -0.18175
 C483 C 1.16874 0.17701 -0.16713
 N484 N 1.18270 0.16414 -0.14170
 N485 N 1.16581 0.14639 -0.12468
 C486 C 1.13437 0.14076 -0.13254
 N487 N 1.12034 0.15370 -0.15789
 N488 N 1.13719 0.17155 -0.17484
 C489 C 1.11636 0.12032 -0.11459
 N490 N 1.08657 0.11200 -0.12494
 N491 N 1.07092 0.09266 -0.10936
 C492 C 1.08446 0.08104 -0.08281
 N493 N 1.11410 0.08950 -0.07231
 N494 N 1.12980 0.10874 -0.08796
 C495 C 1.18713 0.69609 0.30952
 N496 N 1.21147 0.71013 0.32389
 N497 N 1.22981 0.72671 0.30652
 C498 C 1.22450 0.72988 0.27418
 N499 N 1.20023 0.71581 0.25979
 N500 N 1.18180 0.69930 0.27715
 C501 C 1.16768 0.67706 0.32844
 N502 N 1.14216 0.66410 0.31457
 N503 N 1.12518 0.64627 0.33143
 C504 C 1.13315 0.64064 0.36274
 N505 N 1.15861 0.65365 0.37664
 N506 N 1.17551 0.67156 0.35983
 C507 C 1.11518 0.62026 0.38098
 N508 N 1.12551 0.61247 0.41088
 N509 N 1.10990 0.59339 0.42696
 C510 C 1.08330 0.58145 0.41378
 N511 N 1.07281 0.58934 0.38398
 N512 N 1.08850 0.60836 0.36785
 C513 C 0.68911 0.19506 0.31181
 N514 N 0.67464 0.21034 0.28877
 N515 N 0.69235 0.22689 0.27072
 C516 C 0.72512 0.22862 0.27501
 N517 N 0.73961 0.21337 0.29798
 N518 N 0.72190 0.19695 0.31615
 C519 C 0.66992 0.17619 0.33108
 N520 N 0.68396 0.16284 0.35607
 N521 N 0.66696 0.14507 0.37296
 C522 C 0.63533 0.13989 0.36537
 N523 N 0.62123 0.15330 0.34042
 N524 N 0.63820 0.17118 0.32363
 C525 C 0.61714 0.11952 0.38323
 N526 N 0.58723 0.11147 0.37292
 N527 N 0.57137 0.09223 0.38848
 C528 C 0.58482 0.08046 0.41497
 N529 N 0.61458 0.08865 0.42542
 N530 N 0.63049 0.10778 0.40979
 C531 C 0.68825 0.69565 -0.18592
 N532 N 0.72092 0.69800 -0.18111
 N533 N 0.73864 0.71430 -0.19944
 C534 C 0.72429 0.72899 -0.22303
 N535 N 0.69163 0.72678 -0.22781
 N536 N 0.67390 0.71037 -0.20959
 C537 C 0.66908 0.67675 -0.16666
 N538 N 0.63753 0.67141 -0.17444
 N539 N 0.62064 0.65341 -0.15776
 C540 C 0.63465 0.64020 -0.13261
 N541 N 0.66611 0.64571 -0.12468
 N542 N 0.68303 0.66360 -0.14144
 C543 C 0.61655 0.61964 -0.11495
 N544 N 0.62987 0.60784 -0.08841
 N545 N 0.61402 0.58855 -0.07299
 C546 C 0.58435 0.58027 -0.08365
 N547 N 0.57095 0.59211 -0.11011
 N548 N 0.58675 0.61149 -0.12546
 C549 C 0.81376 -0.19536 -0.18904
 N550 N 0.79032 -0.21034 -0.17464
 N551 N 0.77195 -0.22672 -0.19226
 C552 C 0.77631 -0.22863 -0.22487
 N553 N 0.79971 -0.21371 -0.23929
 N554 N 0.81819 -0.19742 -0.22167
 C555 C 0.83323 -0.17657 -0.16987
 N556 N 0.85827 -0.16310 -0.18381
 N557 N 0.87525 -0.14540 -0.16677
 C558 C 0.86773 -0.14041 -0.13521
 N559 N 0.84276 -0.15394 -0.12123
 N560 N 0.82587 -0.17174 -0.13823
 C561 C 0.88563 -0.12009 -0.11689
 N562 N 0.87544 -0.11251 -0.08689
 N563 N 0.89096 -0.09335 -0.07084
 C564 C 0.91730 -0.08119 -0.08417
 N565 N 0.92765 -0.08890 -0.11404
 N566 N 0.91205 -0.10797 -0.13015
 C567 C 0.81367 0.30481 0.31024
 N568 N 0.79059 0.28941 0.32455
 N569 N 0.77232 0.27306 0.30677
 C570 C 0.77642 0.27165 0.27408
 N571 N 0.79943 0.28700 0.25976
 N572 N 0.81782 0.30323 0.27754
 C573 C 0.83314 0.32349 0.32955
 N574 N 0.85802 0.33713 0.31561
 N575 N 0.87504 0.35475 0.33273
 C576 C 0.86769 0.35949 0.36438
 N577 N 0.84287 0.34579 0.37838
 N578 N 0.82595 0.32806 0.36129
 C579 C 0.88560 0.37976 0.38273
 N580 N 0.87549 0.38728 0.41279
 N581 N 0.89098 0.40647 0.42880
 C582 C 0.91721 0.41873 0.41538
 N583 N 0.92749 0.41106 0.38547
 N584 N 0.91192 0.39197 0.36941
 C585 C 0.31249 -0.19581 0.31001
 N586 N 0.28790 -0.20971 0.32413
 N587 N 0.26978 -0.22638 0.30664
 C588 C 0.27559 -0.22980 0.27443
 N589 N 0.30010 -0.21588 0.26029
 N590 N 0.31832 -0.19928 0.27778
 C591 C 0.33168 -0.17664 0.32900
 N592 N 0.35749 -0.16392 0.31539
 N593 N 0.37426 -0.14594 0.33224
 C594 C 0.36577 -0.13992 0.36329
 N595 N 0.34001 -0.15269 0.37694
 N596 N 0.32332 -0.17075 0.36013
 C597 C 0.38362 -0.11941 0.38145
 N598 N 0.37296 -0.11118 0.41104
 N599 N 0.38857 -0.09200 0.42699
 C600 C 0.41550 -0.08044 0.41398
 N601 N 0.42628 -0.08878 0.38451
 N602 N 0.41061 -0.10788 0.36852
 C603 C 0.31229 0.30499 -0.18926
 N604 N 0.28857 0.29013 -0.17517
 N605 N 0.27061 0.27357 -0.19296
 C606 C 0.27568 0.27137 -0.22544
 N607 N 0.29937 0.28617 -0.23956
 N608 N 0.31745 0.30263 -0.22176
 C609 C 0.33133 0.32398 -0.16997
 N610 N 0.35677 0.33718 -0.18353
 N611 N 0.37341 0.35505 -0.16642
 C612 C 0.36511 0.36049 -0.13517
 N613 N 0.33971 0.34725 -0.12156
 N614 N 0.32317 0.32927 -0.13862
 C615 C 0.38276 0.38094 -0.11686
 N616 N 0.37198 0.38909 -0.08728
 N617 N 0.38742 0.40834 -0.07130
 C618 C 0.41426 0.42003 -0.08430
 N619 N 0.42516 0.41175 -0.11374
 N620 N 0.40966 0.39260 -0.12976
 C621 C 1.19164 -0.19423 0.18973
 N622 N 1.22413 -0.19740 0.18445
 N623 N 1.24146 -0.21430 0.20238
 C624 C 1.22688 -0.22876 0.22608
 N625 N 1.19439 -0.22571 0.23130
 N626 N 1.17708 -0.20873 0.21347
 C627 C 1.17276 -0.17494 0.17064
 N628 N 1.14128 -0.16940 0.17846
 N629 N 1.12448 -0.15136 0.16174
 C630 C 1.13849 -0.13827 0.13649
 N631 N 1.16990 -0.14393 0.12856
 N632 N 1.18674 -0.16188 0.14537
 C633 C 1.12026 -0.11788 0.11853
 N634 N 1.13344 -0.10620 0.09184
 N635 N 1.11729 -0.08727 0.07601
 C636 C 1.08744 -0.07925 0.08637
 N637 N 1.07421 -0.09095 0.11301
 N638 N 1.09030 -0.10996 0.12876
 C639 C 1.18955 0.30547 0.68600
 N640 N 1.17494 0.29119 0.70989
 N641 N 1.19227 0.27450 0.72809
 C642 C 1.22478 0.27156 0.72308
 N643 N 1.23941 0.28578 0.69922
 N644 N 1.22208 0.30239 0.68092
 C645 C 1.17075 0.32463 0.66675
 N646 N 1.18487 0.33769 0.64156
 N647 N 1.16818 0.35573 0.62480
 C648 C 1.13680 0.36147 0.63270
 N649 N 1.12263 0.34835 0.65783
 N650 N 1.13929 0.33022 0.67451
 C651 C 1.11885 0.38211 0.61506
 N652 N 1.08900 0.39016 0.62545
 N653 N 1.07322 0.40953 0.61012
 C654 C 1.08666 0.42149 0.58378
 N655 N 1.11638 0.41334 0.57323
 N656 N 1.13223 0.39404 0.58863
 C657 C 0.68913 -0.19449 0.68731
 N658 N 0.67480 -0.20862 0.71151
 N659 N 0.69232 -0.22525 0.72961
 C660 C 0.72476 -0.22828 0.72420
 N661 N 0.73911 -0.21420 0.70005
 N662 N 0.72159 -0.19765 0.68185
 C663 C 0.67011 -0.17548 0.66806
 N664 N 0.68394 -0.16269 0.64251
 N665 N 0.66705 -0.14484 0.62565
 C666 C 0.63575 -0.13903 0.63380
 N667 N 0.62188 -0.15187 0.65930
 N668 N 0.63873 -0.16982 0.67608
 C669 C 0.61762 -0.11861 0.61593
 N670 N 0.58784 -0.11044 0.62636
 N671 N 0.57195 -0.09125 0.61076
 C672 C 0.58525 -0.07963 0.58411
 N673 N 0.61490 -0.08792 0.57355
 N674 N 0.63083 -0.10703 0.58921
 C675 C 0.68625 0.30540 0.18901
 N676 N 0.70918 0.29015 0.17430
 N677 N 0.72758 0.27363 0.19170
 C678 C 0.72375 0.27192 0.22440
 N679 N 0.70089 0.28713 0.23912
 N680 N 0.68238 0.30353 0.22172
 C681 C 0.66664 0.32425 0.17013
 N682 N 0.64193 0.33779 0.18447
 N683 N 0.62480 0.35556 0.16772
 C684 C 0.63185 0.36055 0.13605
 N685 N 0.65649 0.34695 0.12166
 N686 N 0.67353 0.32908 0.13837
 C687 C 0.61386 0.38097 0.11806
 N688 N 0.62380 0.38866 0.08801
 N689 N 0.60826 0.40794 0.07225
 C690 C 0.58214 0.42013 0.08591
 N691 N 0.57202 0.41231 0.11583
 N692 N 0.58765 0.39311 0.13165
 C693 C 0.81089 0.19516 0.18599
 N694 N 0.82545 0.21049 0.20893
 N695 N 0.80782 0.22706 0.22698
 C696 C 0.77504 0.22878 0.22277
 N697 N 0.76047 0.21351 0.19987
 N698 N 0.77810 0.19706 0.18171
 C699 C 0.83000 0.17615 0.16687
 N700 N 0.81582 0.16247 0.14221
 N701 N 0.83274 0.14453 0.12556
 C702 C 0.86441 0.13950 0.13308
 N703 N 0.87864 0.15324 0.15768
 N704 N 0.86176 0.17129 0.17423
 C705 C 0.88255 0.11892 0.11555
 N706 N 0.91262 0.11124 0.12578
 N707 N 0.92850 0.09186 0.11058
 C708 C 0.91492 0.07957 0.08452
 N709 N 0.88499 0.08738 0.07413
 N710 N 0.86906 0.10666 0.08942
 C711 C 0.80935 0.69378 0.68786
 N712 N 0.82417 0.70901 0.71074
 N713 N 0.80682 0.72577 0.72880
 C714 C 0.77406 0.72777 0.72468
 N715 N 0.75922 0.71259 0.70186
 N716 N 0.77657 0.69594 0.68370
 C717 C 0.82824 0.67479 0.66850
 N718 N 0.81384 0.66119 0.64389
 N719 N 0.83068 0.64343 0.62686
 C720 C 0.86249 0.63852 0.63392
 N721 N 0.87692 0.65217 0.65848
 N722 N 0.86012 0.67003 0.67542
 C723 C 0.88067 0.61823 0.61592
 N724 N 0.91101 0.61084 0.62566
 N725 N 0.92703 0.59177 0.61003
 C726 C 0.91334 0.57951 0.58400
 N727 N 0.88313 0.58702 0.57409
 N728 N 0.86705 0.60600 0.58982
 C729 C 0.30981 0.19379 0.68747
 N730 N 0.27709 0.19604 0.68291
 N731 N 0.25956 0.21264 0.70096
 C732 C 0.27415 0.22768 0.72407
 N733 N 0.30686 0.22559 0.72860
 N734 N 0.32439 0.20888 0.71065
 C735 C 0.32887 0.17488 0.66815
 N736 N 0.36062 0.16989 0.67545
 N737 N 0.37753 0.15211 0.65850
 C738 C 0.36336 0.13878 0.63353
 N739 N 0.33169 0.14392 0.62609
 N740 N 0.31474 0.16159 0.64313
 C741 C 0.38161 0.11857 0.61544
 N742 N 0.36822 0.10677 0.58894
 N743 N 0.38428 0.08784 0.57311
 C744 C 0.41425 0.07996 0.58330
 N745 N 0.42772 0.09180 0.60974
 N746 N 0.41171 0.11082 0.62548
 C747 C 0.30859 0.69486 0.18921
 N748 N 0.27608 0.69803 0.18396
 N749 N 0.25875 0.71476 0.20207
 C750 C 0.27333 0.72905 0.22594
 N751 N 0.30583 0.72599 0.23114
 N752 N 0.32315 0.70918 0.21312
 C753 C 0.32749 0.67575 0.16988
 N754 N 0.35900 0.67022 0.17759
 N755 N 0.37581 0.65237 0.16064
 C756 C 0.36178 0.63945 0.13526
 N757 N 0.33033 0.64510 0.12743
 N758 N 0.31348 0.66287 0.14446
 C759 C 0.38003 0.61922 0.11708
 N760 N 0.36682 0.60766 0.09031
 N761 N 0.38296 0.58883 0.07434
 C762 C 0.41285 0.58080 0.08462
 N763 N 0.42613 0.59238 0.11133
 N764 N 0.41004 0.61129 0.12722
   
