data_POSCAR
  _audit_creation_date              2014-09-24
  _audit_creation_method            'ToBaCCo'
  _symmetry_space_group_name_H-M    'P1'
  _symmetry_Int_Tables_number       1
  _symmetry_cell_setting            triclinic
  loop_
  _symmetry_equiv_pos_as_xyz
 x,y,z
_cell_length_a 46.7710
_cell_length_b 46.8831
_cell_length_c 46.9424
_cell_angle_alpha 89.995000
_cell_angle_beta 90.018400
_cell_angle_gamma 90.019200
loop_
  _atom_site_label
  _atom_site_type_symbol
  _atom_site_fract_x
  _atom_site_fract_y
  _atom_site_fract_z
N1 N 0.29474 0.23745 0.21547
 N2 N 0.28272 0.25990 0.20377
 C3 C 0.29802 0.26770 0.18074
 C4 C 0.32091 0.24913 0.17781
 C5 C 0.31806 0.23021 0.20033
 H6 H 0.29302 0.28571 0.16728
 H7 H 0.33175 0.21232 0.20527
 Cu8 Cu 0.24832 0.27684 0.21984
 Cu9 Cu 0.27928 0.21922 0.24941
 Cu10 Cu 0.21872 0.24958 0.27924
 N11 N 0.21475 0.29405 0.23731
 N12 N 0.20326 0.28325 0.26045
 C13 C 0.18045 0.29905 0.26792
 C14 C 0.17740 0.32107 0.24845
 C15 C 0.19965 0.31716 0.22932
 H16 H 0.16724 0.29490 0.28635
 H17 H 0.20436 0.33003 0.21081
 N18 N 0.23750 0.21547 0.29512
 N19 N 0.26050 0.20387 0.28372
 C20 C 0.26807 0.18092 0.29926
 C21 C 0.24895 0.17788 0.32159
 C22 C 0.22987 0.20023 0.31823
 H23 H 0.28632 0.16755 0.29476
 H24 H 0.21157 0.20491 0.33146
 H25 H 0.23735 0.23180 0.24350
 H26 H 0.26036 0.25559 0.26570
 N27 N 0.70512 -0.23737 0.21506
 N28 N 0.71715 -0.25979 0.20335
 C29 C 0.70188 -0.26756 0.18030
 C30 C 0.67890 -0.24898 0.17726
 C31 C 0.68183 -0.23009 0.19990
 H32 H 0.70719 -0.28548 0.16686
 H33 H 0.66816 -0.21229 0.20515
 Cu34 Cu 0.75158 -0.27673 0.21943
 Cu35 Cu 0.72052 -0.21922 0.24909
 Cu36 Cu 0.78103 -0.24966 0.27898
 N37 N 0.78515 -0.29396 0.23693
 N38 N 0.79655 -0.28326 0.26015
 C39 C 0.81934 -0.29906 0.26767
 C40 C 0.82258 -0.32108 0.24810
 C41 C 0.80030 -0.31701 0.22888
 H42 H 0.83244 -0.29468 0.28610
 H43 H 0.79536 -0.32978 0.21038
 N44 N 0.76222 -0.21559 0.29492
 N45 N 0.73924 -0.20396 0.28349
 C46 C 0.73166 -0.18104 0.29906
 C47 C 0.75075 -0.17806 0.32144
 C48 C 0.76982 -0.20041 0.31807
 H49 H 0.71343 -0.16765 0.29455
 H50 H 0.78811 -0.20512 0.33132
 H51 H 0.76246 -0.23175 0.24325
 H52 H 0.73941 -0.25563 0.26532
 N53 N 0.70484 0.23862 0.78374
 N54 N 0.71608 0.26184 0.79469
 C55 C 0.70076 0.26962 0.81771
 C56 C 0.67865 0.25026 0.82139
 C57 C 0.68199 0.23088 0.79935
 H58 H 0.70524 0.28813 0.83067
 H59 H 0.66896 0.21233 0.79505
 Cu60 Cu 0.74963 0.27968 0.77778
 Cu61 Cu 0.72066 0.22007 0.75016
 Cu62 Cu 0.78115 0.25057 0.72030
 N63 N 0.78403 0.29611 0.76114
 N64 N 0.79624 0.28463 0.73873
 C65 C 0.81948 0.30000 0.73169
 C66 C 0.82217 0.32255 0.75074
 C67 C 0.79912 0.31922 0.76916
 H68 H 0.83327 0.29496 0.71394
 H69 H 0.79363 0.33251 0.78713
 N70 N 0.76273 0.21610 0.70473
 N71 N 0.73976 0.20445 0.71615
 C72 C 0.73239 0.18131 0.70081
 C73 C 0.75161 0.17819 0.67858
 C74 C 0.77054 0.20070 0.68180
 H75 H 0.71416 0.16790 0.70533
 H76 H 0.78883 0.20541 0.66856
 H77 H 0.76217 0.23395 0.75645
 H78 H 0.73911 0.25608 0.73264
 N79 N 0.29555 -0.23863 0.78424
 N80 N 0.28419 -0.26176 0.79527
 C81 C 0.29949 -0.26955 0.81830
 C82 C 0.32173 -0.25031 0.82190
 C83 C 0.31847 -0.23098 0.79979
 H84 H 0.29492 -0.28799 0.83133
 H85 H 0.33159 -0.21252 0.79542
 Cu86 Cu 0.25051 -0.27945 0.77842
 Cu87 Cu 0.27980 -0.22009 0.75060
 Cu88 Cu 0.21909 -0.25033 0.72088
 N89 N 0.21600 -0.29574 0.76186
 N90 N 0.20383 -0.28424 0.73942
 C91 C 0.18051 -0.29952 0.73241
 C92 C 0.17772 -0.32201 0.75151
 C93 C 0.20080 -0.31876 0.76992
 H94 H 0.16675 -0.29445 0.71464
 H95 H 0.20623 -0.33204 0.78792
 N96 N 0.23769 -0.21602 0.70519
 N97 N 0.26074 -0.20446 0.71655
 C98 C 0.26822 -0.18141 0.70113
 C99 C 0.24897 -0.17825 0.67891
 C100 C 0.22992 -0.20064 0.68223
 H101 H 0.28652 -0.16808 0.70559
 H102 H 0.21158 -0.20528 0.66902
 H103 H 0.23823 -0.23371 0.75696
 H104 H 0.26112 -0.25605 0.73321
 N105 N 0.70468 -0.23859 0.78392
 N106 N 0.71599 -0.26176 0.79489
 C107 C 0.70074 -0.26954 0.81795
 C108 C 0.67860 -0.25023 0.82162
 C109 C 0.68184 -0.23088 0.79954
 H110 H 0.70529 -0.28801 0.83094
 H111 H 0.66877 -0.21237 0.79524
 Cu112 Cu 0.74953 -0.27954 0.77801
 Cu113 Cu 0.72039 -0.22005 0.75030
 Cu114 Cu 0.78100 -0.25033 0.72054
 N115 N 0.78402 -0.29577 0.76144
 N116 N 0.79621 -0.28424 0.73904
 C117 C 0.81953 -0.29949 0.73205
 C118 C 0.82229 -0.32200 0.75113
 C119 C 0.79919 -0.31879 0.76950
 H120 H 0.83332 -0.29439 0.71432
 H121 H 0.79373 -0.33209 0.78747
 N122 N 0.76244 -0.21602 0.70490
 N123 N 0.73942 -0.20445 0.71627
 C124 C 0.73196 -0.18139 0.70086
 C125 C 0.75119 -0.17825 0.67864
 C126 C 0.77021 -0.20065 0.68193
 H127 H 0.71369 -0.16804 0.70533
 H128 H 0.78853 -0.20530 0.66872
 H129 H 0.73896 -0.25602 0.73285
 H130 H 0.76192 -0.23378 0.75668
 N131 N 0.29467 0.23757 0.78472
 N132 N 0.28262 0.25998 0.79645
 C133 C 0.29795 0.26781 0.81945
 C134 C 0.32089 0.24932 0.82231
 C135 C 0.31805 0.23040 0.79981
 H136 H 0.29293 0.28581 0.83292
 H137 H 0.33178 0.21255 0.79485
 Cu138 Cu 0.24815 0.27683 0.78049
 Cu139 Cu 0.27919 0.21929 0.75085
 Cu140 Cu 0.21854 0.24953 0.72109
 N141 N 0.21460 0.29399 0.76298
 N142 N 0.20310 0.28318 0.73985
 C143 C 0.18029 0.29897 0.73235
 C144 C 0.17727 0.32100 0.75181
 C145 C 0.19951 0.31711 0.77095
 H146 H 0.16708 0.29482 0.71393
 H147 H 0.20423 0.32999 0.78945
 N148 N 0.23731 0.21544 0.70524
 N149 N 0.26035 0.20389 0.71662
 C150 C 0.26791 0.18093 0.70112
 C151 C 0.24874 0.17784 0.67884
 C152 C 0.22964 0.20016 0.68219
 H153 H 0.28620 0.16759 0.70560
 H154 H 0.21130 0.20479 0.66898
 H155 H 0.26018 0.25566 0.73462
 H156 H 0.23724 0.23179 0.75683
 N157 N 0.29525 -0.23717 0.21557
 N158 N 0.28307 -0.25946 0.20373
 C159 C 0.29836 -0.26728 0.18072
 C160 C 0.32141 -0.24889 0.17795
 C161 C 0.31868 -0.23005 0.20053
 H162 H 0.29324 -0.28519 0.16717
 H163 H 0.33251 -0.21229 0.20559
 Cu164 Cu 0.24850 -0.27622 0.21958
 Cu165 Cu 0.27986 -0.21897 0.24951
 Cu166 Cu 0.21905 -0.24907 0.27908
 N167 N 0.21486 -0.29331 0.23698
 N168 N 0.20342 -0.28255 0.26016
 C169 C 0.18054 -0.29827 0.26759
 C170 C 0.17740 -0.32020 0.24804
 C171 C 0.19965 -0.31633 0.22892
 H172 H 0.16737 -0.29415 0.28605
 H173 H 0.20430 -0.32916 0.21038
 N174 N 0.23800 -0.21515 0.29511
 N175 N 0.26110 -0.20364 0.28382
 C176 C 0.26876 -0.18079 0.29943
 C177 C 0.24958 -0.17772 0.32170
 C178 C 0.23038 -0.19995 0.31823
 H179 H 0.28710 -0.16749 0.29503
 H180 H 0.21200 -0.20455 0.33137
 H181 H 0.26067 -0.25532 0.26555
 H182 H 0.23786 -0.23123 0.24344
 N183 N 0.70526 0.23691 0.21544
 N184 N 0.71730 0.25934 0.20373
 C185 C 0.70204 0.26711 0.18067
 C186 C 0.67916 0.24855 0.17774
 C187 C 0.68196 0.22965 0.20027
 H188 H 0.70705 0.28513 0.16722
 H189 H 0.66824 0.21177 0.20520
 Cu190 Cu 0.75164 0.27635 0.21982
 Cu191 Cu 0.72065 0.21874 0.24941
 Cu192 Cu 0.78106 0.24928 0.27940
 N193 N 0.78505 0.29368 0.23744
 N194 N 0.79648 0.28296 0.26065
 C195 C 0.81921 0.29885 0.26821
 C196 C 0.82225 0.32084 0.24872
 C197 C 0.80011 0.31683 0.22949
 H198 H 0.83235 0.29478 0.28671
 H199 H 0.79544 0.32965 0.21094
 N200 N 0.76233 0.21515 0.29522
 N201 N 0.73939 0.20347 0.28377
 C202 C 0.73184 0.18051 0.29928
 C203 C 0.75092 0.17755 0.32166
 C204 C 0.76995 0.19995 0.31835
 H205 H 0.71363 0.16708 0.29474
 H206 H 0.78822 0.20468 0.33162
 H207 H 0.73945 0.25521 0.26566
 H208 H 0.76258 0.23139 0.24361
 C209 C 0.23806 0.08835 0.51495
 C210 C 0.23812 0.08837 0.48571
 C211 C 0.24443 0.06074 0.47726
 N212 N 0.24843 0.04396 0.50033
 C213 C 0.24433 0.06070 0.52340
 C214 C 0.24819 0.05190 0.44877
 C215 C 0.25252 0.02324 0.44047
 C216 C 0.26130 0.01467 0.41357
 C217 C 0.26139 -0.01466 0.41360
 C218 C 0.25267 -0.02326 0.44052
 N219 N 0.24711 -0.00001 0.45667
 C220 C 0.24848 -0.05193 0.44885
 C221 C 0.24470 -0.06082 0.47733
 C222 C 0.23848 -0.08849 0.48574
 C223 C 0.23838 -0.08852 0.51498
 C224 C 0.24453 -0.06086 0.52347
 N225 N 0.24860 -0.04406 0.50043
 C226 C 0.24809 -0.05200 0.55199
 C227 C 0.25226 -0.02333 0.56031
 C228 C 0.26084 -0.01472 0.58727
 C229 C 0.26082 0.01462 0.58724
 C230 C 0.25222 0.02317 0.56027
 N231 N 0.24684 -0.00009 0.54408
 C232 C 0.24798 0.05182 0.55190
 H233 H 0.23415 0.10666 0.52844
 H234 H 0.23428 0.10670 0.47222
 H235 H 0.23691 -0.00011 0.52433
 H236 H 0.26684 0.02815 0.39568
 H237 H 0.26702 -0.02813 0.39573
 H238 H 0.23473 -0.10682 0.47223
 H239 H 0.23452 -0.10687 0.52844
 H240 H 0.26630 0.02811 0.60515
 H241 H 0.23707 -0.00005 0.47636
 H242 H 0.26634 -0.02817 0.60520
 C243 C 0.76216 0.08819 0.48561
 C244 C 0.76231 0.08822 0.51485
 C245 C 0.75607 0.06058 0.52335
 N246 N 0.75192 0.04380 0.50032
 C247 C 0.75584 0.06054 0.47722
 C248 C 0.75252 0.05175 0.55188
 C249 C 0.74826 0.02309 0.56022
 C250 C 0.73969 0.01451 0.58719
 C251 C 0.73959 -0.01482 0.58717
 C252 C 0.74812 -0.02341 0.56019
 N253 N 0.75356 -0.00017 0.54399
 C254 C 0.75224 -0.05208 0.55182
 C255 C 0.75580 -0.06097 0.52332
 C256 C 0.76195 -0.08865 0.51487
 C257 C 0.76184 -0.08868 0.48563
 C258 C 0.75563 -0.06102 0.47718
 N259 N 0.75174 -0.04422 0.50025
 C260 C 0.75187 -0.05217 0.44869
 C261 C 0.74764 -0.02350 0.44039
 C262 C 0.73887 -0.01489 0.41349
 C263 C 0.73889 0.01444 0.41351
 C264 C 0.74768 0.02300 0.44042
 N265 N 0.75316 -0.00026 0.45657
 C266 C 0.75199 0.05166 0.44875
 H267 H 0.76596 0.10651 0.47209
 H268 H 0.76624 0.10656 0.52831
 H269 H 0.76324 -0.00026 0.47626
 H270 H 0.73427 0.02798 0.60512
 H271 H 0.73409 -0.02829 0.60508
 H272 H 0.76579 -0.10698 0.52836
 H273 H 0.76559 -0.10703 0.47215
 H274 H 0.73330 0.02793 0.39564
 H275 H 0.76346 -0.00020 0.52422
 H276 H 0.73325 -0.02835 0.39560
 C277 C 0.51476 0.23964 0.08821
 C278 C 0.48541 0.23970 0.08823
 C279 C 0.47693 0.24606 0.06064
 N280 N 0.50007 0.25011 0.04390
 C281 C 0.52323 0.24598 0.06061
 C282 C 0.44832 0.24978 0.05181
 C283 C 0.43998 0.25411 0.02319
 C284 C 0.41294 0.26276 0.01462
 C285 C 0.41296 0.26284 -0.01468
 C286 C 0.44001 0.25425 -0.02325
 N287 N 0.45624 0.24877 -0.00003
 C288 C 0.44838 0.25005 -0.05187
 C289 C 0.47698 0.24641 -0.06075
 C290 C 0.48542 0.24021 -0.08839
 C291 C 0.51477 0.24020 -0.08841
 C292 C 0.52328 0.24639 -0.06079
 N293 N 0.50014 0.25039 -0.04402
 C294 C 0.55190 0.24999 -0.05193
 C295 C 0.56025 0.25411 -0.02329
 C296 C 0.58731 0.26266 -0.01467
 C297 C 0.58729 0.26256 0.01463
 C298 C 0.56022 0.25396 0.02315
 N299 N 0.54397 0.24866 -0.00010
 C300 C 0.55184 0.24961 0.05175
 H301 H 0.52830 0.23569 0.10649
 H302 H 0.47189 0.23580 0.10653
 H303 H 0.52415 0.23873 -0.00013
 H304 H 0.39496 0.26820 0.02808
 H305 H 0.39499 0.26836 -0.02813
 H306 H 0.47187 0.23640 -0.10669
 H307 H 0.52829 0.23638 -0.10673
 H308 H 0.60527 0.26797 0.02812
 H309 H 0.47604 0.23881 -0.00006
 H310 H 0.60530 0.26817 -0.02809
 C311 C 0.48598 0.76012 0.08860
 C312 C 0.51533 0.76015 0.08859
 C313 C 0.52380 0.75381 0.06100
 N314 N 0.50064 0.74969 0.04428
 C315 C 0.47749 0.75376 0.06101
 C316 C 0.55240 0.75017 0.05215
 C317 C 0.56072 0.74585 0.02352
 C318 C 0.58775 0.73725 0.01493
 C319 C 0.58769 0.73714 -0.01437
 C320 C 0.56061 0.74568 -0.02292
 N321 N 0.54440 0.75114 0.00031
 C322 C 0.55218 0.74983 -0.05154
 C323 C 0.52357 0.75343 -0.06039
 C324 C 0.51506 0.75961 -0.08802
 C325 C 0.48572 0.75958 -0.08802
 C326 C 0.47726 0.75339 -0.06039
 N327 N 0.50043 0.74942 -0.04364
 C328 C 0.44866 0.74975 -0.05151
 C329 C 0.44035 0.74559 -0.02286
 C330 C 0.41332 0.73700 -0.01422
 C331 C 0.41339 0.73707 0.01508
 C332 C 0.44046 0.74571 0.02358
 N333 N 0.45666 0.75105 0.00032
 C334 C 0.44888 0.75005 0.05218
 H335 H 0.47246 0.76404 0.10689
 H336 H 0.52887 0.76410 0.10688
 H337 H 0.47647 0.76100 0.00027
 H338 H 0.60576 0.73183 0.02838
 H339 H 0.60564 0.73163 -0.02783
 H340 H 0.52858 0.76344 -0.10634
 H341 H 0.47217 0.76339 -0.10633
 H342 H 0.39544 0.73163 0.02858
 H343 H 0.52459 0.76107 0.00029
 H344 H 0.39532 0.73148 -0.02763
 C345 C 0.08822 0.51522 0.23624
 C346 C 0.08826 0.48594 0.23633
 C347 C 0.06055 0.47746 0.24256
 N348 N 0.04371 0.50054 0.24648
 C349 C 0.06048 0.52365 0.24242
 C350 C 0.05171 0.44893 0.24634
 C351 C 0.02298 0.44060 0.25063
 C352 C 0.01439 0.41367 0.25942
 C353 C -0.01501 0.41367 0.25949
 C354 C -0.02363 0.44060 0.25073
 N355 N -0.00034 0.45678 0.24518
 C356 C -0.05238 0.44891 0.24654
 C357 C -0.06131 0.47741 0.24275
 C358 C -0.08906 0.48580 0.23657
 C359 C -0.08911 0.51508 0.23647
 C360 C -0.06138 0.52360 0.24258
 N361 N -0.04452 0.50055 0.24661
 C362 C -0.05252 0.55216 0.24615
 C363 C -0.02378 0.56052 0.25030
 C364 C -0.01516 0.58750 0.25890
 C365 C 0.01424 0.58750 0.25888
 C366 C 0.02283 0.56052 0.25027
 N367 N -0.00048 0.54430 0.24487
 C368 C 0.05156 0.55218 0.24606
 H369 H 0.10657 0.52875 0.23239
 H370 H 0.10665 0.47246 0.23256
 H371 H -0.00048 0.52453 0.23496
 H372 H 0.02790 0.39578 0.26501
 H373 H -0.02850 0.39577 0.26513
 H374 H -0.10743 0.47225 0.23285
 H375 H -0.10751 0.52854 0.23265
 H376 H 0.02775 0.60543 0.26438
 H377 H -0.00038 0.47648 0.23513
 H378 H -0.02866 0.60542 0.26441
 C379 C 0.08839 0.48570 0.76399
 C380 C 0.08845 0.51498 0.76407
 C381 C 0.06074 0.52350 0.75788
 N382 N 0.04388 0.50044 0.75382
 C383 C 0.06064 0.47731 0.75775
 C384 C 0.05192 0.55205 0.75424
 C385 C 0.02319 0.56042 0.75002
 C386 C 0.01462 0.58739 0.74137
 C387 C -0.01478 0.58739 0.74129
 C388 C -0.02342 0.56042 0.74991
 N389 N -0.00013 0.54421 0.75539
 C390 C -0.05217 0.55207 0.75402
 C391 C -0.06111 0.52354 0.75764
 C392 C -0.08887 0.51511 0.76374
 C393 C -0.08893 0.48583 0.76366
 C394 C -0.06121 0.47735 0.75752
 N395 N -0.04433 0.50043 0.75365
 C396 C -0.05237 0.44881 0.75376
 C397 C -0.02363 0.44048 0.74960
 C398 C -0.01503 0.41355 0.74083
 C399 C 0.01437 0.41356 0.74087
 C400 C 0.02298 0.44048 0.74966
 N401 N -0.00032 0.45666 0.75514
 C402 C 0.05171 0.44880 0.75395
 H403 H 0.10674 0.47215 0.76776
 H404 H 0.10686 0.52844 0.76791
 H405 H -0.00031 0.47637 0.76517
 H406 H 0.02814 0.60531 0.73587
 H407 H -0.02826 0.60531 0.73573
 H408 H -0.10723 0.52863 0.76751
 H409 H -0.10734 0.47234 0.76737
 H410 H 0.02787 0.39566 0.73528
 H411 H -0.00018 0.52444 0.76532
 H412 H -0.02853 0.39566 0.73520
 C413 C 0.38614 0.24978 0.11318
 C414 C 0.38943 0.23289 0.13753
 C415 C 0.36825 0.23267 0.15854
 C416 C 0.34344 0.24941 0.15552
 C417 C 0.34039 0.26635 0.13093
 C418 C 0.36159 0.26650 0.10993
 C419 C 0.40793 0.24989 0.09156
 C420 C 0.42625 0.24989 0.07348
 H421 H 0.40839 0.21990 0.14028
 H422 H 0.37154 0.21955 0.17720
 H423 H 0.32156 0.27933 0.12768
 H424 H 0.35881 0.27962 0.09113
 C425 C 0.61466 0.75036 0.11351
 C426 C 0.63643 0.72996 0.11310
 C427 C 0.65763 0.73011 0.13411
 C428 C 0.65748 0.75077 0.15601
 C429 C 0.63529 0.77121 0.15605
 C430 C 0.61413 0.77095 0.13501
 C431 C 0.59284 0.75018 0.09188
 C432 C 0.57451 0.75013 0.07381
 H433 H 0.63703 0.71390 0.09651
 H434 H 0.67403 0.71393 0.13290
 H435 H 0.63398 0.78755 0.17224
 H436 H 0.59733 0.78685 0.13553
 C437 C 0.61392 0.25031 -0.11347
 C438 C 0.61109 0.23260 -0.13729
 C439 C 0.63212 0.23255 -0.15845
 C440 C 0.65632 0.25028 -0.15611
 C441 C 0.65891 0.26803 -0.13204
 C442 C 0.63786 0.26801 -0.11089
 C443 C 0.59222 0.25030 -0.09174
 C444 C 0.57396 0.25021 -0.07362
 H445 H 0.59260 0.21885 -0.13953
 H446 H 0.62919 0.21878 -0.17670
 H447 H 0.67727 0.28179 -0.12932
 H448 H 0.64028 0.28177 -0.09250
 C449 C 0.38655 0.74949 -0.11301
 C450 C 0.36252 0.73192 -0.11036
 C451 C 0.34144 0.73194 -0.13150
 C452 C 0.34409 0.74961 -0.15562
 C453 C 0.36837 0.76722 -0.15802
 C454 C 0.38943 0.76712 -0.13687
 C455 C 0.40827 0.74946 -0.09129
 C456 C 0.42656 0.74954 -0.07318
 H457 H 0.36006 0.71822 -0.09193
 H458 H 0.32302 0.71827 -0.12873
 H459 H 0.37135 0.78092 -0.17631
 H460 H 0.40798 0.78077 -0.13916
 C461 C 0.11310 0.38670 0.24743
 C462 C 0.13722 0.38904 0.22998
 C463 C 0.15814 0.36773 0.23029
 C464 C 0.15523 0.34375 0.24812
 C465 C 0.13087 0.34167 0.26562
 C466 C 0.10998 0.36299 0.26524
 C467 C 0.09156 0.40860 0.24705
 C468 C 0.07347 0.42693 0.24673
 H469 H 0.13989 0.40735 0.21615
 H470 H 0.17663 0.37026 0.21670
 H471 H 0.12771 0.32349 0.27945
 H472 H 0.09134 0.36094 0.27881
 C473 C 0.11361 0.61404 0.75307
 C474 C 0.11294 0.63537 0.73229
 C475 C 0.13404 0.65649 0.73173
 C476 C 0.15633 0.65669 0.75206
 C477 C 0.15662 0.63497 0.77292
 C478 C 0.13547 0.61389 0.77336
 C479 C 0.09190 0.59228 0.75352
 C480 C 0.07374 0.57403 0.75386
 H481 H 0.09607 0.63568 0.71646
 H482 H 0.13263 0.67252 0.71526
 H483 H 0.17310 0.63396 0.78903
 H484 H 0.13619 0.59744 0.78956
 C485 C -0.11398 0.61434 0.24713
 C486 C -0.11391 0.63503 0.26855
 C487 C -0.13482 0.65633 0.26894
 C488 C -0.15630 0.65736 0.24779
 C489 C -0.15603 0.63625 0.22633
 C490 C -0.13508 0.61498 0.22606
 C491 C -0.09240 0.59247 0.24678
 C492 C -0.07430 0.57416 0.24649
 H493 H -0.09764 0.63473 0.28499
 H494 H -0.13387 0.67187 0.28590
 H495 H -0.17188 0.63588 0.20959
 H496 H -0.13533 0.59903 0.20936
 C497 C -0.11397 0.38674 0.75230
 C498 C -0.11322 0.36542 0.73152
 C499 C -0.13425 0.34423 0.73096
 C500 C -0.15653 0.34394 0.75127
 C501 C -0.15692 0.36567 0.77212
 C502 C -0.13584 0.38683 0.77257
 C503 C -0.09231 0.40855 0.75281
 C504 C -0.07417 0.42683 0.75325
 H505 H -0.09635 0.36516 0.71571
 H506 H -0.13278 0.32819 0.71449
 H507 H -0.17339 0.36663 0.78821
 H508 H -0.13662 0.40327 0.78876
 C509 C 0.24871 0.11330 0.38674
 C510 C 0.26589 0.11006 0.36257
 C511 C 0.26601 0.13104 0.34140
 C512 C 0.24888 0.15559 0.34409
 C513 C 0.23168 0.15860 0.36851
 C514 C 0.23163 0.13760 0.38967
 C515 C 0.24858 0.09169 0.40851
 C516 C 0.24843 0.07361 0.42678
 H517 H 0.27916 0.09129 0.36007
 H518 H 0.27935 0.12780 0.32286
 H519 H 0.21840 0.17724 0.37152
 H520 H 0.21828 0.14034 0.40834
 C521 C 0.75213 0.11325 0.61379
 C522 C 0.73493 0.11009 0.63796
 C523 C 0.73474 0.13117 0.65903
 C524 C 0.75182 0.15576 0.65623
 C525 C 0.76906 0.15868 0.63182
 C526 C 0.76918 0.13758 0.61077
 C527 C 0.75225 0.09159 0.59208
 C528 C 0.75236 0.07347 0.57385
 H529 H 0.72168 0.09130 0.64053
 H530 H 0.72138 0.12798 0.67755
 H531 H 0.78230 0.17734 0.62874
 H532 H 0.78253 0.14028 0.59210
 C533 C 0.24858 -0.11346 0.61396
 C534 C 0.23142 -0.13772 0.61103
 C535 C 0.23151 -0.15877 0.63213
 C536 C 0.24883 -0.15587 0.65650
 C537 C 0.26602 -0.13136 0.65920
 C538 C 0.26586 -0.11032 0.63808
 C539 C 0.24845 -0.09181 0.59223
 C540 C 0.24831 -0.07372 0.57397
 H541 H 0.21799 -0.14039 0.59240
 H542 H 0.21818 -0.17738 0.62912
 H543 H 0.27945 -0.12819 0.67769
 H544 H 0.27920 -0.09158 0.64059
 C545 C 0.75109 -0.11355 0.38665
 C546 C 0.76815 -0.13787 0.38956
 C547 C 0.76805 -0.15885 0.36839
 C548 C 0.75083 -0.15581 0.34397
 C549 C 0.73372 -0.13124 0.34130
 C550 C 0.73389 -0.11027 0.36249
 C551 C 0.75129 -0.09195 0.40843
 C552 C 0.75152 -0.07387 0.42670
 H553 H 0.78151 -0.14065 0.40822
 H554 H 0.78131 -0.17751 0.37138
 H555 H 0.72038 -0.12796 0.32277
 H556 H 0.72064 -0.09148 0.36000
 C557 C 0.61406 0.74963 -0.11314
 C558 C 0.63812 0.73212 -0.11049
 C559 C 0.65912 0.73213 -0.13168
 C560 C 0.65634 0.74972 -0.15584
 C561 C 0.63203 0.76727 -0.15824
 C562 C 0.61106 0.76718 -0.13704
 C563 C 0.59243 0.74959 -0.09138
 C564 C 0.57420 0.74964 -0.07324
 H565 H 0.64067 0.71848 -0.09202
 H566 H 0.67758 0.71852 -0.12892
 H567 H 0.62897 0.78090 -0.17657
 H568 H 0.59246 0.78078 -0.13932
 C569 C 0.38619 0.25010 -0.11319
 C570 C 0.36148 0.26653 -0.10975
 C571 C 0.34025 0.26635 -0.13072
 C572 C 0.34345 0.24965 -0.15545
 C573 C 0.36844 0.23322 -0.15867
 C574 C 0.38964 0.23348 -0.13768
 C575 C 0.40799 0.25022 -0.09159
 C576 C 0.42631 0.25021 -0.07353
 H577 H 0.35859 0.27943 -0.09082
 H578 H 0.32128 0.27907 -0.12733
 H579 H 0.37182 0.22032 -0.17746
 H580 H 0.40874 0.22072 -0.14057
 C581 C 0.38674 0.75022 0.11350
 C582 C 0.36200 0.73382 0.11005
 C583 C 0.34076 0.73405 0.13100
 C584 C 0.34398 0.75075 0.15573
 C585 C 0.36900 0.76715 0.15896
 C586 C 0.39021 0.76685 0.13799
 C587 C 0.40854 0.75005 0.09191
 C588 C 0.42684 0.75000 0.07385
 H589 H 0.35908 0.72091 0.09113
 H590 H 0.32177 0.72134 0.12760
 H591 H 0.37241 0.78008 0.17773
 H592 H 0.40933 0.77959 0.14089
 C593 C 0.61399 0.24933 0.11311
 C594 C 0.63871 0.26578 0.10973
 C595 C 0.65990 0.26557 0.13073
 C596 C 0.65666 0.24884 0.15544
 C597 C 0.63168 0.23238 0.15858
 C598 C 0.61051 0.23266 0.13756
 C599 C 0.59221 0.24953 0.09149
 C600 C 0.57390 0.24962 0.07341
 H601 H 0.64163 0.27872 0.09083
 H602 H 0.67888 0.27832 0.12740
 H603 H 0.62826 0.21943 0.17735
 H604 H 0.59140 0.21989 0.14040
 C605 C -0.11369 0.61409 0.75273
 C606 C -0.11294 0.63545 0.73200
 C607 C -0.13403 0.65656 0.73142
 C608 C -0.15635 0.65672 0.75169
 C609 C -0.15671 0.63496 0.77251
 C610 C -0.13558 0.61389 0.77297
 C611 C -0.09203 0.59233 0.75320
 C612 C -0.07391 0.57407 0.75358
 H613 H -0.09604 0.63579 0.71621
 H614 H -0.13256 0.67263 0.71499
 H615 H -0.17322 0.63391 0.78857
 H616 H -0.13635 0.59740 0.78913
 C617 C -0.11364 0.38661 0.24778
 C618 C -0.13781 0.38895 0.23039
 C619 C -0.15868 0.36759 0.23068
 C620 C -0.15566 0.34357 0.24844
 C621 C -0.13125 0.34150 0.26589
 C622 C -0.11040 0.36287 0.26552
 C623 C -0.09214 0.40853 0.24737
 C624 C -0.07410 0.42688 0.24700
 H625 H -0.14055 0.40729 0.21661
 H626 H -0.17722 0.37012 0.21715
 H627 H -0.12801 0.32328 0.27965
 H628 H -0.09172 0.36083 0.27903
 C629 C 0.11302 0.38658 0.75281
 C630 C 0.13724 0.38903 0.77010
 C631 C 0.15815 0.36774 0.76980
 C632 C 0.15512 0.34366 0.75213
 C633 C 0.13065 0.34146 0.73478
 C634 C 0.10976 0.36277 0.73516
 C635 C 0.09149 0.40846 0.75320
 C636 C 0.07343 0.42679 0.75354
 H637 H 0.13999 0.40743 0.78381
 H638 H 0.17674 0.37035 0.78325
 H639 H 0.12740 0.32320 0.72109
 H640 H 0.09103 0.36065 0.72172
 C641 C 0.11294 0.61437 0.24699
 C642 C 0.13713 0.61189 0.22967
 C643 C 0.15810 0.63315 0.22997
 C644 C 0.15516 0.65721 0.24768
 C645 C 0.13072 0.65945 0.26504
 C646 C 0.10977 0.63818 0.26466
 C647 C 0.09138 0.59251 0.24665
 C648 C 0.07330 0.57419 0.24637
 H649 H 0.13982 0.59350 0.21595
 H650 H 0.17667 0.63051 0.21650
 H651 H 0.12754 0.67770 0.27876
 H652 H 0.09108 0.64032 0.27812
 C653 C 0.75164 -0.11350 0.61375
 C654 C 0.73455 -0.11022 0.63797
 C655 C 0.73437 -0.13126 0.65908
 C656 C 0.75135 -0.15589 0.65625
 C657 C 0.76847 -0.15893 0.63178
 C658 C 0.76859 -0.13788 0.61069
 C659 C 0.75181 -0.09187 0.59204
 C660 C 0.75198 -0.07378 0.57379
 H661 H 0.72139 -0.09138 0.64056
 H662 H 0.72111 -0.12801 0.67766
 H663 H 0.78162 -0.17764 0.62868
 H664 H 0.78186 -0.14064 0.59198
 C665 C 0.24929 -0.11327 0.38688
 C666 C 0.26646 -0.10995 0.36271
 C667 C 0.26662 -0.13091 0.34153
 C668 C 0.24954 -0.15550 0.34422
 C669 C 0.23236 -0.15860 0.36866
 C670 C 0.23228 -0.13763 0.38982
 C671 C 0.24908 -0.09168 0.40863
 C672 C 0.24884 -0.07361 0.42688
 H673 H 0.27967 -0.09113 0.36021
 H674 H 0.27992 -0.12761 0.32298
 H675 H 0.21914 -0.17729 0.37166
 H676 H 0.21895 -0.14042 0.40849
 C677 C 0.75127 0.11302 0.38677
 C678 C 0.76815 0.13745 0.38981
 C679 C 0.76806 0.15844 0.36867
 C680 C 0.75101 0.15529 0.34414
 C681 C 0.73407 0.13061 0.34134
 C682 C 0.73423 0.10964 0.36251
 C683 C 0.75145 0.09142 0.40851
 C684 C 0.75167 0.07335 0.42677
 H685 H 0.78137 0.14029 0.40856
 H686 H 0.78117 0.17719 0.37175
 H687 H 0.72087 0.12726 0.32272
 H688 H 0.72112 0.09075 0.35992
 C689 C 0.24844 0.11321 0.61384
 C690 C 0.23146 0.13757 0.61080
 C691 C 0.23152 0.15859 0.63191
 C692 C 0.24865 0.15554 0.65640
 C693 C 0.26567 0.13093 0.65920
 C694 C 0.26553 0.10993 0.63807
 C695 C 0.24832 0.09161 0.59211
 C696 C 0.24818 0.07352 0.57386
 H697 H 0.21819 0.14034 0.59208
 H698 H 0.21834 0.17728 0.62884
 H699 H 0.27893 0.12767 0.67780
 H700 H 0.27872 0.09111 0.64065
   
