data_POSCAR
  _audit_creation_date              2014-09-24
  _audit_creation_method            'ToBaCCo'
  _symmetry_space_group_name_H-M    'P1'
  _symmetry_Int_Tables_number       1
  _symmetry_cell_setting            triclinic
  loop_
  _symmetry_equiv_pos_as_xyz
 x,y,z
_cell_length_a 82.9673
_cell_length_b 82.9963
_cell_length_c 23.2494
_cell_angle_alpha 89.762900
_cell_angle_beta 90.126500
_cell_angle_gamma 120.007800
loop_
  _atom_site_label
  _atom_site_type_symbol
  _atom_site_fract_x
  _atom_site_fract_y
  _atom_site_fract_z
C1 C 0.24850 0.49775 0.52627
 C2 C 0.24957 0.49904 0.46774
 C3 C 0.23568 0.50101 0.43261
 C4 C 0.26452 0.49796 0.43610
 C5 C 0.26365 0.49785 0.56065
 C6 C 0.23227 0.49611 0.55850
 C7 C 0.22634 0.48850 0.38806
 C8 C 0.21238 0.48936 0.35700
 C9 C 0.20721 0.50293 0.36934
 C10 C 0.21748 0.51599 0.41315
 C11 C 0.23147 0.51505 0.44392
 C12 C 0.26655 0.48223 0.44144
 C13 C 0.28099 0.48151 0.41309
 C14 C 0.29369 0.49651 0.37877
 C15 C 0.29133 0.51209 0.37262
 C16 C 0.27680 0.51274 0.40076
 C17 C 0.28195 0.51283 0.55681
 C18 C 0.29631 0.51243 0.58705
 C19 C 0.29262 0.49704 0.62171
 C20 C 0.27420 0.48226 0.62654
 C21 C 0.25982 0.48273 0.59655
 C22 C 0.23514 0.50793 0.60511
 C23 C 0.22002 0.50697 0.63454
 C24 C 0.20166 0.49417 0.61789
 C25 C 0.19885 0.48199 0.57211
 C26 C 0.21398 0.48280 0.54324
 H27 H 0.22938 0.47751 0.37867
 H28 H 0.20499 0.47839 0.32615
 H29 H 0.21545 0.52754 0.42310
 H30 H 0.23898 0.52526 0.47703
 H31 H 0.25697 0.47054 0.46775
 H32 H 0.28214 0.46914 0.41776
 H33 H 0.27538 0.52497 0.39610
 H34 H 0.28512 0.52471 0.52978
 H35 H 0.31038 0.52394 0.58223
 H36 H 0.27093 0.47035 0.65354
 H37 H 0.24576 0.47111 0.60026
 H38 H 0.24913 0.51813 0.61818
 H39 H 0.22273 0.51625 0.67044
 H40 H 0.18494 0.47206 0.55773
 H41 H 0.21142 0.47320 0.50838
 H42 H 0.30096 0.52397 0.34709
 C43 C 0.50184 -0.24903 0.52595
 C44 C 0.50040 -0.24991 0.46753
 C45 C 0.50142 -0.26471 0.43510
 C46 C 0.49817 -0.23600 0.43351
 C47 C 0.50337 -0.23302 0.55901
 C48 C 0.50183 -0.26430 0.55921
 C49 C 0.51742 -0.26636 0.43817
 C50 C 0.51813 -0.28069 0.40926
 C51 C 0.50284 -0.29368 0.37666
 C52 C 0.48698 -0.29171 0.37274
 C53 C 0.48633 -0.27728 0.40147
 C54 C 0.51127 -0.22551 0.39105
 C55 C 0.51014 -0.21138 0.36177
 C56 C 0.49571 -0.20765 0.37377
 C57 C 0.48218 -0.21872 0.41483
 C58 C 0.48341 -0.23276 0.44442
 C59 C 0.49156 -0.23616 0.60597
 C60 C 0.49241 -0.22120 0.63601
 C61 C 0.50510 -0.20276 0.61967
 C62 C 0.51728 -0.19968 0.57354
 C63 C 0.51657 -0.21465 0.54403
 C64 C 0.48608 -0.28210 0.55960
 C65 C 0.48636 -0.29671 0.58873
 C66 C 0.50257 -0.29395 0.61756
 C67 C 0.51826 -0.27581 0.61738
 C68 C 0.51778 -0.26116 0.58910
 H69 H 0.52933 -0.25655 0.46315
 H70 H 0.53071 -0.28154 0.41217
 H71 H 0.47489 -0.30157 0.34856
 H72 H 0.47389 -0.27616 0.39861
 H73 H 0.52276 -0.22782 0.38209
 H74 H 0.52094 -0.20299 0.33106
 H75 H 0.47300 -0.24094 0.47644
 H76 H 0.48144 -0.25021 0.61880
 H77 H 0.48312 -0.22410 0.67211
 H78 H 0.52713 -0.18571 0.55939
 H79 H 0.52617 -0.21188 0.50893
 H80 H 0.47364 -0.28472 0.53655
 H81 H 0.47408 -0.31034 0.58574
 H82 H 0.53083 -0.27262 0.64053
 H83 H 0.53001 -0.24741 0.58953
 H84 H 0.47067 -0.21650 0.42427
 C85 C 1.24792 0.75098 0.53041
 C86 C 1.24842 0.75094 0.47178
 C87 C 1.26310 0.76687 0.43863
 C88 C 1.23414 0.73499 0.43816
 C89 C 1.23191 0.73633 0.56334
 C90 C 1.26336 0.76580 0.56423
 C91 C 1.26673 0.78504 0.44818
 C92 C 1.28090 0.80002 0.41815
 C93 C 1.29173 0.79727 0.37655
 C94 C 1.28742 0.77873 0.36610
 C95 C 1.27333 0.76382 0.39667
 C96 C 1.22321 0.73782 0.39780
 C97 C 1.20888 0.72273 0.36878
 C98 C 1.20538 0.70453 0.37900
 C99 C 1.21685 0.70187 0.41800
 C100 C 1.23108 0.71696 0.44729
 C101 C 1.23494 0.72662 0.60743
 C102 C 1.21996 0.71241 0.63740
 C103 C 1.20137 0.70746 0.62424
 C104 C 1.19862 0.71780 0.58061
 C105 C 1.21366 0.73208 0.55111
 C106 C 1.28149 0.76882 0.55956
 C107 C 1.29612 0.78336 0.58949
 C108 C 1.29303 0.79546 0.62446
 C109 C 1.27456 0.79192 0.62967
 C110 C 1.25993 0.77718 0.60041
 H111 H 1.25872 0.78770 0.47954
 H112 H 1.28367 0.81374 0.42998
 H113 H 1.29441 0.77540 0.33307
 H114 H 1.27049 0.74984 0.38779
 H115 H 1.22539 0.75166 0.39021
 H116 H 1.20020 0.72528 0.33965
 H117 H 1.23960 0.71457 0.47763
 H118 H 1.24897 0.72993 0.61833
 H119 H 1.22325 0.70581 0.67203
 H120 H 1.18488 0.71452 0.56677
 H121 H 1.21100 0.73966 0.51792
 H122 H 1.28434 0.76006 0.53193
 H123 H 1.30997 0.78558 0.58240
 H124 H 1.27112 0.80014 0.65768
 H125 H 1.24595 0.77488 0.60503
 H126 H 1.21480 0.68811 0.42597
 C127 C 0.75044 0.50081 0.53138
 C128 C 0.75048 0.50113 0.47266
 C129 C 0.76508 0.49991 0.43935
 C130 C 0.73608 0.50279 0.43908
 C131 C 0.73460 0.49944 0.56510
 C132 C 0.76637 0.50206 0.56459
 C133 C 0.77629 0.51409 0.40054
 C134 C 0.79082 0.51363 0.37175
 C135 C 0.79425 0.49883 0.38066
 C136 C 0.78253 0.48430 0.41812
 C137 C 0.76808 0.48484 0.44715
 C138 C 0.73167 0.51667 0.45174
 C139 C 0.71757 0.51759 0.42161
 C140 C 0.70788 0.50495 0.37706
 C141 C 0.71287 0.49155 0.36298
 C142 C 0.72680 0.49047 0.39373
 C143 C 0.71635 0.48510 0.55502
 C144 C 0.70145 0.48450 0.58476
 C145 C 0.70437 0.49822 0.62597
 C146 C 0.72297 0.51221 0.63702
 C147 C 0.73781 0.51273 0.60714
 C148 C 0.76330 0.48888 0.60721
 C149 C 0.77822 0.48964 0.63756
 C150 C 0.79679 0.50372 0.62624
 C151 C 0.79956 0.51721 0.58401
 C152 C 0.78458 0.51646 0.55418
 H153 H 0.77415 0.52581 0.39396
 H154 H 0.79969 0.52515 0.34379
 H155 H 0.78452 0.47250 0.42503
 H156 H 0.75934 0.47360 0.47622
 H157 H 0.73898 0.52666 0.48552
 H158 H 0.71403 0.52799 0.43407
 H159 H 0.73015 0.47982 0.38263
 H160 H 0.71364 0.47439 0.52377
 H161 H 0.68774 0.47287 0.57615
 H162 H 0.72628 0.52349 0.66645
 H163 H 0.75182 0.52394 0.61550
 H164 H 0.74929 0.47784 0.61671
 H165 H 0.77489 0.47940 0.67108
 H166 H 0.81330 0.52804 0.57150
 H167 H 0.78725 0.52703 0.52218
 H168 H 0.70605 0.48188 0.32808
 C169 C 0.50135 0.25080 0.52802
 C170 C 0.50099 0.25050 0.46931
 C171 C 0.50210 0.26626 0.43558
 C172 C 0.49931 0.23442 0.43616
 C173 C 0.50276 0.23637 0.56211
 C174 C 0.50000 0.26543 0.56085
 C175 C 0.48787 0.26316 0.39684
 C176 C 0.48821 0.27807 0.36765
 C177 C 0.50293 0.29636 0.37610
 C178 C 0.51750 0.29929 0.41350
 C179 C 0.51709 0.28438 0.44292
 C180 C 0.48541 0.21615 0.44929
 C181 C 0.48442 0.20111 0.41942
 C182 C 0.49701 0.20404 0.37470
 C183 C 0.51045 0.22242 0.36020
 C184 C 0.51160 0.23744 0.39067
 C185 C 0.51707 0.23243 0.55195
 C186 C 0.51765 0.21810 0.58191
 C187 C 0.50396 0.20732 0.62344
 C188 C 0.49002 0.21198 0.63461
 C189 C 0.48950 0.22631 0.60450
 C190 C 0.51317 0.27563 0.60320
 C191 C 0.51229 0.28972 0.63323
 C192 C 0.49810 0.29405 0.62183
 C193 C 0.48463 0.28326 0.57986
 C194 C 0.48550 0.26909 0.55037
 H195 H 0.47621 0.24925 0.39062
 H196 H 0.47665 0.27533 0.33976
 H197 H 0.52924 0.31312 0.42007
 H198 H 0.52837 0.28698 0.47194
 H199 H 0.47544 0.21349 0.48318
 H200 H 0.47399 0.18718 0.43220
 H201 H 0.52226 0.25143 0.37922
 H202 H 0.52776 0.24041 0.52043
 H203 H 0.52924 0.21598 0.57317
 H204 H 0.47875 0.20403 0.66429
 H205 H 0.47831 0.22914 0.61293
 H206 H 0.52429 0.27278 0.61277
 H207 H 0.52253 0.29671 0.66657
 H208 H 0.47372 0.28605 0.56729
 H209 H 0.47494 0.26113 0.51858
 H210 H 0.52009 0.22524 0.32517
 C211 C 0.75154 0.24816 0.53161
 C212 C 0.75142 0.24720 0.47305
 C213 C 0.73663 0.23107 0.44103
 C214 C 0.76629 0.26238 0.43840
 C215 C 0.76757 0.26320 0.56305
 C216 C 0.73598 0.23402 0.56693
 C217 C 0.73179 0.21275 0.45553
 C218 C 0.71733 0.19770 0.42677
 C219 C 0.70770 0.20064 0.38177
 C220 C 0.71312 0.21904 0.36586
 C221 C 0.72740 0.23407 0.39523
 C222 C 0.77789 0.25872 0.40374
 C223 C 0.79275 0.27319 0.37412
 C224 C 0.79603 0.29148 0.37791
 C225 C 0.78398 0.29499 0.41109
 C226 C 0.76926 0.28055 0.44124
 C227 C 0.76487 0.27485 0.60021
 C228 C 0.77998 0.28944 0.62844
 C229 C 0.79830 0.29274 0.62057
 C230 C 0.80066 0.28047 0.58405
 C231 C 0.78552 0.26591 0.55597
 C232 C 0.71765 0.23022 0.55822
 C233 C 0.70296 0.21593 0.58898
 C234 C 0.70638 0.20522 0.62890
 C235 C 0.72481 0.20949 0.63888
 C236 C 0.73949 0.22385 0.60846
 H237 H 0.73906 0.21008 0.48964
 H238 H 0.71349 0.18376 0.44059
 H239 H 0.70635 0.22186 0.33055
 H240 H 0.73109 0.24809 0.38272
 H241 H 0.77573 0.24475 0.40096
 H242 H 0.80173 0.27011 0.34835
 H243 H 0.76033 0.28357 0.46749
 H244 H 0.75107 0.27294 0.60616
 H245 H 0.77714 0.29856 0.65414
 H246 H 0.81407 0.28151 0.57822
 H247 H 0.78779 0.25669 0.52867
 H248 H 0.71472 0.23808 0.52677
 H249 H 0.68888 0.21288 0.58032
 H250 H 0.72784 0.20162 0.66999
 H251 H 0.75355 0.22667 0.61600
 H252 H 0.78628 0.30898 0.41495
 N253 N 0.98009 0.51757 0.06790
 N254 N 0.96569 0.52004 0.07493
 N255 N 1.01931 0.52596 0.10725
 N256 N 1.03364 0.53485 0.14220
 N257 N 1.01934 0.53728 0.06762
 N258 N 1.03375 0.55417 0.07437
 N259 N 0.98019 0.50628 0.10746
 N260 N 0.96592 0.50085 0.14264
 C261 C 0.95699 0.50955 0.12185
 C262 C 1.04252 0.55245 0.12121
 N263 N 1.01952 0.48043 0.06520
 N264 N 1.03420 0.47830 0.07041
 N265 N 0.98034 0.47166 0.10598
 N266 N 0.96619 0.46240 0.14135
 N267 N 0.98028 0.46070 0.06534
 N268 N 0.96601 0.44370 0.07176
 N269 N 1.01948 0.49140 0.10564
 N270 N 1.03410 0.49700 0.13950
 Mn271 Mn 0.99983 0.49882 0.10728
 C272 C 1.04313 0.48867 0.11713
 C273 C 0.95737 0.44496 0.11945
 N274 N 1.01923 0.53780 -0.05612
 N275 N 1.03341 0.55483 -0.06268
 N276 N 0.98006 0.50719 -0.09643
 N277 N 0.96581 0.50218 -0.13148
 N278 N 0.98002 0.51810 -0.05580
 N279 N 0.96569 0.52075 -0.06194
 N280 N 1.01920 0.52684 -0.09672
 N281 N 1.03333 0.53614 -0.13214
 Mn282 Mn 0.99967 0.52789 0.00591
 C283 C 1.04208 0.55360 -0.11035
 C284 C 0.95696 0.51075 -0.10942
 N285 N 0.98024 0.46120 -0.05846
 N286 N 0.96612 0.44420 -0.06601
 N287 N 1.01929 0.49214 -0.09829
 N288 N 1.03331 0.49717 -0.13429
 N289 N 1.01942 0.48093 -0.05852
 N290 N 1.03358 0.47813 -0.06612
 N291 N 0.98014 0.47253 -0.09785
 N292 N 0.96594 0.46355 -0.13323
 Mn293 Mn 0.99986 0.47061 0.00340
 Mn294 Mn 0.99967 0.49968 -0.09805
 Cl295 Cl 0.99976 0.49925 0.00461
 C296 C 0.95732 0.44586 -0.11285
 C297 C 1.04213 0.48834 -0.11360
 N298 N 0.48205 0.46216 0.05969
 N299 N 0.47977 0.44536 0.06704
 N300 N 0.47328 0.49282 0.09809
 N301 N 0.46425 0.49809 0.13286
 N302 N 0.46201 0.48130 0.05902
 N303 N 0.44497 0.47837 0.06630
 N304 N 0.49321 0.47358 0.09915
 N305 N 0.49876 0.46486 0.13456
 C306 C 0.49025 0.44725 0.11404
 C307 C 0.44659 0.48894 0.11259
 N308 N 0.51880 0.53877 0.05592
 N309 N 0.52140 0.55571 0.06220
 N310 N 0.52770 0.50851 0.09732
 N311 N 0.53700 0.50373 0.13297
 N312 N 0.53867 0.51944 0.05649
 N313 N 0.55570 0.52230 0.06302
 N314 N 0.50770 0.52765 0.09618
 N315 N 0.50240 0.53667 0.13080
 Mn316 Mn 0.50047 0.50064 0.09838
 C317 C 0.51107 0.55419 0.10915
 C318 C 0.55447 0.51243 0.11101
 N319 N 0.46164 0.48086 -0.06480
 N320 N 0.44461 0.47805 -0.07103
 N321 N 0.49249 0.47268 -0.10483
 N322 N 0.49767 0.46357 -0.13964
 N323 N 0.48162 0.46164 -0.06403
 N324 N 0.47917 0.44475 -0.06982
 N325 N 0.47260 0.49192 -0.10545
 N326 N 0.46330 0.49688 -0.14053
 Mn327 Mn 0.47163 0.47128 -0.00254
 C328 C 0.44584 0.48810 -0.11856
 C329 C 0.48925 0.44615 -0.11726
 N330 N 0.53826 0.51892 -0.06724
 N331 N 0.55515 0.52137 -0.07341
 N332 N 0.50719 0.52686 -0.10751
 N333 N 0.50199 0.53576 -0.14345
 N334 N 0.51832 0.53821 -0.06782
 N335 N 0.52085 0.55509 -0.07536
 N336 N 0.52701 0.50755 -0.10666
 N337 N 0.53596 0.50199 -0.14078
 Mn338 Mn 0.52871 0.52904 -0.00570
 Mn339 Mn 0.49982 0.49976 -0.10684
 Cl340 Cl 0.50016 0.50018 -0.00418
 C341 C 0.55353 0.51077 -0.11962
 C342 C 0.51061 0.55337 -0.12278
 N343 N 0.46056 -0.01952 0.05804
 N344 N 0.44352 -0.03374 0.06413
 N345 N 0.49142 0.01950 0.09843
 N346 N 0.49643 0.03366 0.13365
 N347 N 0.48058 0.01970 0.05755
 N348 N 0.47803 0.03407 0.06360
 N349 N 0.47147 -0.01960 0.09890
 N350 N 0.46212 -0.03381 0.13407
 C351 C 0.44469 -0.04251 0.11185
 C352 C 0.48798 0.04264 0.11134
 N353 N 0.53713 0.01888 0.06111
 N354 N 0.55420 0.03290 0.06850
 N355 N 0.50591 -0.02008 0.10102
 N356 N 0.50021 -0.03446 0.13606
 N357 N 0.51706 -0.02035 0.06154
 N358 N 0.51918 -0.03498 0.06849
 N359 N 0.52593 0.01901 0.10064
 N360 N 0.53510 0.03306 0.13628
 Mn361 Mn 0.49868 -0.00028 0.10045
 C362 C 0.55274 0.04162 0.11562
 C363 C 0.50862 -0.04363 0.11531
 N364 N 0.48107 0.01966 -0.06613
 N365 N 0.47897 0.03430 -0.07277
 N366 N 0.47231 -0.01962 -0.10524
 N367 N 0.46328 -0.03396 -0.13997
 N368 N 0.46109 -0.01956 -0.06561
 N369 N 0.44417 -0.03393 -0.07202
 N370 N 0.49231 0.01952 -0.10550
 N371 N 0.49812 0.03403 -0.14007
 Mn372 Mn 0.47062 0.00007 -0.00407
 C373 C 0.48964 0.04312 -0.11920
 C374 C 0.44572 -0.04275 -0.11872
 N375 N 0.51762 -0.02031 -0.06219
 N376 N 0.52029 -0.03461 -0.06846
 N377 N 0.52676 0.01902 -0.10336
 N378 N 0.53599 0.03351 -0.13763
 N379 N 0.53765 0.01891 -0.06252
 N380 N 0.55458 0.03338 -0.06774
 N381 N 0.50681 -0.02010 -0.10313
 N382 N 0.50192 -0.03418 -0.13859
 Mn383 Mn 0.52757 -0.00073 -0.00051
 Mn384 Mn 0.49955 -0.00030 -0.10504
 Cl385 Cl 0.49911 -0.00031 -0.00229
 C386 C 0.51042 -0.04313 -0.11636
 C387 C 0.55336 0.04233 -0.11496
 C388 C 1.16142 0.50190 0.28541
 C389 C 1.16827 0.51158 0.33710
 C390 C 1.18360 0.51224 0.36443
 C391 C 1.19273 0.50313 0.34109
 C392 C 1.18585 0.49386 0.28783
 C393 C 1.17051 0.49324 0.26080
 C394 C 1.14455 0.50043 0.25802
 C395 C 1.13086 0.48346 0.23449
 C396 C 1.11470 0.48185 0.21026
 C397 C 1.11184 0.49717 0.20893
 C398 C 1.12562 0.51420 0.23192
 C399 C 1.14178 0.51580 0.25626
 C400 C 1.09440 0.49527 0.18462
 C401 C 1.08548 0.50383 0.21159
 C402 C 1.06885 0.50172 0.18952
 C403 C 1.06078 0.49099 0.14008
 C404 C 1.06972 0.48253 0.11280
 C405 C 1.08636 0.48466 0.13483
 H406 H 1.16133 0.51814 0.35770
 H407 H 1.18723 0.51897 0.40585
 H408 H 1.19256 0.48756 0.26473
 H409 H 1.16586 0.48611 0.22001
 H410 H 1.13245 0.47129 0.23604
 H411 H 1.10423 0.46847 0.19378
 H412 H 1.12397 0.52634 0.23071
 H413 H 1.15219 0.52912 0.27331
 H414 H 1.09116 0.51188 0.25043
 H415 H 1.06226 0.50839 0.21144
 H416 H 1.06387 0.47429 0.07438
 H417 H 1.09303 0.47811 0.11259
 C418 C 0.50428 0.66070 0.29312
 C419 C 0.49575 0.66972 0.26615
 C420 C 0.49534 0.68455 0.29303
 C421 C 0.50338 0.69067 0.34763
 C422 C 0.51188 0.68163 0.37459
 C423 C 0.51239 0.66689 0.34760
 C424 C 0.50469 0.64488 0.26479
 C425 C 0.50250 0.62961 0.29739
 C426 C 0.50320 0.61487 0.27111
 C427 C 0.50596 0.61494 0.21145
 C428 C 0.50800 0.63013 0.17872
 C429 C 0.50741 0.64494 0.20509
 C430 C 0.50689 0.59930 0.18378
 C431 C 0.51955 0.60264 0.13889
 C432 C 0.52076 0.58795 0.11408
 C433 C 0.50944 0.56966 0.13395
 C434 C 0.49666 0.56626 0.17829
 C435 C 0.49534 0.58089 0.20278
 H436 H 0.48918 0.66518 0.22450
 H437 H 0.48886 0.69133 0.27079
 H438 H 0.51798 0.68580 0.41697
 H439 H 0.51929 0.66045 0.36929
 H440 H 0.50011 0.62896 0.34332
 H441 H 0.50182 0.60353 0.29778
 H442 H 0.50993 0.63054 0.13259
 H443 H 0.50936 0.65657 0.17877
 H444 H 0.52882 0.61665 0.12372
 H445 H 0.53075 0.59097 0.07998
 H446 H 0.48763 0.55225 0.19406
 H447 H 0.48519 0.57776 0.23643
 C448 C 0.33646 -0.15654 0.28972
 C449 C 0.32176 -0.15503 0.31360
 C450 C 0.30702 -0.17017 0.34137
 C451 C 0.30649 -0.18742 0.34675
 C452 C 0.32133 -0.18878 0.32201
 C453 C 0.33599 -0.17364 0.29393
 C454 C 0.35235 -0.14025 0.26133
 C455 C 0.37063 -0.13689 0.26807
 C456 C 0.38560 -0.12138 0.24250
 C457 C 0.38272 -0.10873 0.20989
 C458 C 0.36443 -0.11216 0.20282
 C459 C 0.34944 -0.12775 0.22804
 C460 C 0.39873 -0.09190 0.18417
 C461 C 0.39713 -0.08526 0.12988
 C462 C 0.41207 -0.06921 0.10638
 C463 C 0.42895 -0.05954 0.13643
 C464 C 0.43066 -0.06623 0.19030
 C465 C 0.41569 -0.08218 0.21404
 H466 H 0.32171 -0.14202 0.31148
 H467 H 0.29585 -0.16823 0.35688
 H468 H 0.32230 -0.20124 0.32599
 H469 H 0.34701 -0.17536 0.27553
 H470 H 0.37342 -0.14609 0.29397
 H471 H 0.39946 -0.11933 0.24817
 H472 H 0.36170 -0.10261 0.17858
 H473 H 0.33553 -0.13004 0.22126
 H474 H 0.38440 -0.09257 0.10524
 H475 H 0.41042 -0.06443 0.06452
 H476 H 0.44351 -0.05900 0.21449
 H477 H 0.41733 -0.08669 0.25632
 C478 C 0.84162 0.49993 0.30001
 C479 C 0.83098 0.50611 0.27001
 C480 C 0.81548 0.50551 0.29577
 C481 C 0.81030 0.49882 0.35228
 C482 C 0.82085 0.49249 0.38208
 C483 C 0.83627 0.49297 0.35620
 C484 C 0.85840 0.50099 0.27323
 C485 C 0.87437 0.50579 0.30642
 C486 C 0.89016 0.50685 0.28141
 C487 C 0.89044 0.50329 0.22253
 C488 C 0.87455 0.49857 0.18918
 C489 C 0.85868 0.49735 0.21429
 C490 C 0.90730 0.50461 0.19608
 C491 C 0.91400 0.51372 0.14307
 C492 C 0.93016 0.51535 0.11890
 C493 C 0.93984 0.50773 0.14705
 C494 C 0.93302 0.49841 0.19965
 C495 C 0.91696 0.49694 0.22406
 H496 H 0.83481 0.51174 0.22692
 H497 H 0.80753 0.51028 0.27133
 H498 H 0.81742 0.48747 0.42591
 H499 H 0.84397 0.48784 0.38027
 H500 H 0.87479 0.50905 0.35163
 H501 H 0.90232 0.51080 0.30794
 H502 H 0.87432 0.49554 0.14383
 H503 H 0.84654 0.49333 0.18766
 H504 H 0.90691 0.51989 0.12083
 H505 H 0.93509 0.52256 0.07821
 H506 H 0.94017 0.49236 0.22219
 H507 H 0.91199 0.48966 0.26464
 C508 C 0.50135 0.34236 0.29438
 C509 C 0.49531 0.32555 0.26476
 C510 C 0.49607 0.31074 0.29086
 C511 C 0.50280 0.31233 0.34733
 C512 C 0.50899 0.32919 0.37673
 C513 C 0.50834 0.34403 0.35052
 C514 C 0.50008 0.35796 0.26727
 C515 C 0.49511 0.36898 0.30024
 C516 C 0.49384 0.38359 0.27492
 C517 C 0.49735 0.38745 0.21596
 C518 C 0.50225 0.37643 0.18283
 C519 C 0.50367 0.36189 0.20824
 C520 C 0.49582 0.40287 0.18919
 C521 C 0.48668 0.40035 0.13622
 C522 C 0.48485 0.41477 0.11176
 C523 C 0.49228 0.43203 0.13956
 C524 C 0.50162 0.43464 0.19212
 C525 C 0.50330 0.42017 0.21682
 H526 H 0.48966 0.32370 0.22172
 H527 H 0.49140 0.29804 0.26671
 H528 H 0.51403 0.33083 0.42052
 H529 H 0.51336 0.35686 0.37429
 H530 H 0.49187 0.36611 0.34552
 H531 H 0.48976 0.39168 0.30128
 H532 H 0.50526 0.37925 0.13741
 H533 H 0.50783 0.35389 0.18177
 H534 H 0.48065 0.38711 0.11424
 H535 H 0.47762 0.41241 0.07110
 H536 H 0.50753 0.44782 0.21440
 H537 H 0.51060 0.42256 0.25736
 C538 C 0.66160 0.15389 0.29772
 C539 C 0.66141 0.17055 0.30665
 C540 C 0.67632 0.18565 0.33380
 C541 C 0.69194 0.18461 0.35213
 C542 C 0.69223 0.16804 0.34257
 C543 C 0.67722 0.15285 0.31604
 C544 C 0.64552 0.13765 0.26988
 C545 C 0.64834 0.12587 0.23312
 C546 C 0.63323 0.11046 0.20778
 C547 C 0.61491 0.10653 0.21795
 C548 C 0.61211 0.11843 0.25423
 C549 C 0.62720 0.13371 0.28011
 C550 C 0.59881 0.09003 0.19124
 C551 C 0.58194 0.07979 0.22137
 C552 C 0.56689 0.06421 0.19652
 C553 C 0.56846 0.05835 0.14133
 C554 C 0.58524 0.06851 0.11105
 C555 C 0.60020 0.08425 0.13555
 H556 H 0.64976 0.17199 0.29239
 H557 H 0.67545 0.19807 0.34113
 H558 H 0.70412 0.16679 0.35532
 H559 H 0.67778 0.14019 0.31064
 H560 H 0.66224 0.12859 0.22353
 H561 H 0.63594 0.10148 0.18078
 H562 H 0.59824 0.11603 0.26243
 H563 H 0.62445 0.14230 0.30877
 H564 H 0.58043 0.08361 0.26467
 H565 H 0.55413 0.05655 0.22090
 H566 H 0.58675 0.06439 0.06817
 H567 H 0.61281 0.09197 0.11056
 C568 C 0.50253 0.16069 -0.29317
 C569 C 0.49437 0.17011 -0.26735
 C570 C 0.49508 0.18556 -0.29409
 C571 C 0.50395 0.19210 -0.34793
 C572 C 0.51244 0.18268 -0.37291
 C573 C 0.51172 0.16725 -0.34593
 C574 C 0.50108 0.14382 -0.26581
 C575 C 0.51636 0.14090 -0.26524
 C576 C 0.51482 0.12482 -0.24040
 C577 C 0.49794 0.11126 -0.21577
 C578 C 0.48268 0.11424 -0.21621
 C579 C 0.48425 0.13034 -0.24085
 C580 C 0.49614 0.09397 -0.19034
 C581 C 0.48574 0.08630 -0.13981
 C582 C 0.48367 0.06980 -0.11665
 C583 C 0.49199 0.06065 -0.14343
 C584 C 0.50253 0.06837 -0.19354
 C585 C 0.50456 0.08484 -0.21682
 H586 H 0.48756 0.16564 -0.22595
 H587 H 0.48910 0.19259 -0.27103
 H588 H 0.51886 0.18641 -0.41490
 H589 H 0.51788 0.16007 -0.36738
 H590 H 0.52958 0.15116 -0.28347
 H591 H 0.52692 0.12308 -0.23995
 H592 H 0.46939 0.10394 -0.19855
 H593 H 0.47214 0.13206 -0.24148
 H594 H 0.47933 0.09314 -0.11784
 H595 H 0.47558 0.06424 -0.07771
 H596 H 0.50909 0.06159 -0.21509
 H597 H 0.51245 0.09023 -0.25617
 C598 C 0.65911 0.49938 -0.29099
 C599 C 0.67675 0.50769 -0.26526
 C600 C 0.69151 0.50708 -0.29191
 C601 C 0.68915 0.49818 -0.34556
 C602 C 0.67119 0.48958 -0.37050
 C603 C 0.65646 0.49018 -0.34360
 C604 C 0.64362 0.50064 -0.26367
 C605 C 0.62550 0.48522 -0.26291
 C606 C 0.61086 0.48658 -0.23832
 C607 C 0.61402 0.50342 -0.21412
 C608 C 0.63218 0.51880 -0.21460
 C609 C 0.64681 0.51741 -0.23900
 C610 C 0.59840 0.50504 -0.18923
 C611 C 0.60097 0.51544 -0.13897
 C612 C 0.58639 0.51728 -0.11630
 C613 C 0.56891 0.50873 -0.14333
 C614 C 0.56625 0.49821 -0.19321
 C615 C 0.58084 0.49641 -0.21599
 H616 H 0.67910 0.51451 -0.22399
 H617 H 0.70457 0.51317 -0.26890
 H618 H 0.66847 0.48313 -0.41238
 H619 H 0.64307 0.48392 -0.36500
 H620 H 0.62267 0.47204 -0.28088
 H621 H 0.59710 0.47439 -0.23778
 H622 H 0.63503 0.53205 -0.19722
 H623 H 0.66058 0.52961 -0.23975
 H624 H 0.61423 0.52202 -0.11682
 H625 H 0.58879 0.52536 -0.07753
 H626 H 0.55292 0.49148 -0.21497
 H627 H 0.57847 0.48852 -0.25518
 C628 C 0.84482 0.33844 -0.29799
 C629 C 0.84716 0.33064 -0.34847
 C630 C 0.83198 0.31567 -0.37505
 C631 C 0.81382 0.30791 -0.35199
 C632 C 0.81167 0.31587 -0.30097
 C633 C 0.82691 0.33086 -0.27452
 C634 C 0.86102 0.35444 -0.27005
 C635 C 0.86281 0.35540 -0.20984
 C636 C 0.87817 0.37036 -0.18369
 C637 C 0.89209 0.38470 -0.21715
 C638 C 0.89025 0.38376 -0.27734
 C639 C 0.87489 0.36883 -0.30347
 C640 C 0.90858 0.40047 -0.18952
 C641 C 0.91603 0.41867 -0.21113
 C642 C 0.93180 0.43343 -0.18603
 C643 C 0.94045 0.43031 -0.13871
 C644 C 0.93292 0.41219 -0.11661
 C645 C 0.91717 0.39742 -0.14179
 H646 H 0.86082 0.33608 -0.36749
 H647 H 0.83462 0.31082 -0.41506
 H648 H 0.79836 0.31027 -0.27964
 H649 H 0.82462 0.33661 -0.23574
 H650 H 0.85247 0.34445 -0.18290
 H651 H 0.87907 0.37077 -0.13720
 H652 H 0.90082 0.39446 -0.30439
 H653 H 0.87382 0.36862 -0.34991
 H654 H 0.90957 0.42154 -0.24724
 H655 H 0.93723 0.44728 -0.20372
 H656 H 0.93932 0.40939 -0.08017
 H657 H 0.91194 0.38354 -0.12456
 C658 C 0.50595 -0.15616 -0.29517
 C659 C 0.48910 -0.17288 -0.30343
 C660 C 0.48885 -0.18797 -0.33078
 C661 C 0.50545 -0.18681 -0.35007
 C662 C 0.52232 -0.17017 -0.34111
 C663 C 0.52256 -0.15502 -0.31428
 C664 C 0.50617 -0.13991 -0.26738
 C665 C 0.52089 -0.12805 -0.23096
 C666 C 0.52130 -0.11258 -0.20590
 C667 C 0.50690 -0.10864 -0.21612
 C668 C 0.49207 -0.12063 -0.25201
 C669 C 0.49176 -0.13600 -0.27753
 C670 C 0.50747 -0.09201 -0.19001
 C671 C 0.50097 -0.08174 -0.22075
 C672 C 0.50172 -0.06599 -0.19654
 C673 C 0.50919 -0.06003 -0.14137
 C674 C 0.51564 -0.07026 -0.11046
 C675 C 0.51469 -0.08613 -0.13436
 H676 H 0.47607 -0.17438 -0.28855
 H677 H 0.47556 -0.20045 -0.33760
 H678 H 0.53541 -0.16885 -0.35464
 H679 H 0.53577 -0.14230 -0.30937
 H680 H 0.53210 -0.13076 -0.22148
 H681 H 0.53307 -0.10354 -0.17916
 H682 H 0.48060 -0.11821 -0.26022
 H683 H 0.48032 -0.14466 -0.30591
 H684 H 0.49561 -0.08565 -0.26402
 H685 H 0.49673 -0.05831 -0.22140
 H686 H 0.52131 -0.06606 -0.06759
 H687 H 0.51948 -0.09388 -0.10897
 C688 C 0.33780 0.49485 -0.29394
 C689 C 0.33677 0.51126 -0.29315
 C690 C 0.32206 0.51195 -0.32022
 C691 C 0.30800 0.49622 -0.34835
 C692 C 0.30891 0.47978 -0.34872
 C693 C 0.32367 0.47911 -0.32197
 C694 C 0.35366 0.49421 -0.26634
 C695 C 0.35083 0.47814 -0.23704
 C696 C 0.36580 0.47738 -0.21229
 C697 C 0.38396 0.49268 -0.21597
 C698 C 0.38676 0.50882 -0.24475
 C699 C 0.37180 0.50956 -0.26973
 C700 C 0.39993 0.49174 -0.19049
 C701 C 0.41719 0.49985 -0.21897
 C702 C 0.43213 0.49876 -0.19542
 C703 C 0.43011 0.48944 -0.14308
 C704 C 0.41292 0.48138 -0.11442
 C705 C 0.39801 0.48256 -0.13779
 H706 H 0.34724 0.52353 -0.27112
 H707 H 0.32158 0.52474 -0.31867
 H708 H 0.29842 0.46753 -0.37086
 H709 H 0.32420 0.46636 -0.32433
 H710 H 0.33701 0.46616 -0.23298
 H711 H 0.36317 0.46466 -0.19103
 H712 H 0.40052 0.52095 -0.24776
 H713 H 0.37452 0.52207 -0.29252
 H714 H 0.41908 0.50678 -0.26002
 H715 H 0.44522 0.50506 -0.21850
 H716 H 0.41101 0.47422 -0.07378
 H717 H 0.38501 0.47642 -0.11427
 C718 C 1.15514 0.66228 -0.29061
 C719 C 1.17251 0.66328 -0.29228
 C720 C 1.18767 0.67809 -0.31982
 C721 C 1.18602 0.69254 -0.34662
 C722 C 1.16847 0.69145 -0.34398
 C723 C 1.15333 0.67658 -0.31664
 C724 C 1.13890 0.64630 -0.26240
 C725 C 1.12602 0.64900 -0.23080
 C726 C 1.11055 0.63393 -0.20537
 C727 C 1.10763 0.61578 -0.21059
 C728 C 1.12062 0.61311 -0.24169
 C729 C 1.13603 0.62817 -0.26740
 C730 C 1.09099 0.59971 -0.18431
 C731 C 1.08157 0.58254 -0.21307
 C732 C 1.06578 0.56752 -0.18880
 C733 C 1.05898 0.56936 -0.13547
 C734 C 1.06839 0.58644 -0.10650
 C735 C 1.08426 0.60143 -0.13056
 H736 H 1.17445 0.65257 -0.27221
 H737 H 1.20040 0.67755 -0.32172
 H738 H 1.16628 0.70231 -0.36128
 H739 H 1.14010 0.67620 -0.31647
 H740 H 1.12792 0.66280 -0.22544
 H741 H 1.10072 0.63647 -0.18233
 H742 H 1.11894 0.59937 -0.24595
 H743 H 1.14554 0.62555 -0.29198
 H744 H 1.08619 0.58080 -0.25490
 H745 H 1.05876 0.55452 -0.21215
 H746 H 1.06353 0.58821 -0.06508
 H747 H 1.09135 0.61434 -0.10677
 C748 C 0.84299 0.50499 -0.28761
 C749 C 0.84459 0.52119 -0.31215
 C750 C 0.82945 0.52086 -0.33972
 C751 C 0.81211 0.50421 -0.34422
 C752 C 0.81066 0.48800 -0.31886
 C753 C 0.82581 0.48843 -0.29101
 C754 C 0.85926 0.50534 -0.25927
 C755 C 0.86251 0.49035 -0.26544
 C756 C 0.87801 0.49085 -0.23985
 C757 C 0.89073 0.50640 -0.20777
 C758 C 0.88741 0.52133 -0.20131
 C759 C 0.87184 0.52078 -0.22655
 C760 C 0.90752 0.50717 -0.18190
 C761 C 0.91416 0.51545 -0.12787
 C762 C 0.93021 0.51659 -0.10430
 C763 C 0.93988 0.50935 -0.13401
 C764 C 0.93317 0.50086 -0.18758
 C765 C 0.91721 0.49986 -0.21140
 H766 H 0.85766 0.53420 -0.31067
 H767 H 0.83146 0.53397 -0.35576
 H768 H 0.79811 0.47462 -0.32217
 H769 H 0.82403 0.47569 -0.27209
 H770 H 0.85324 0.47834 -0.29089
 H771 H 0.87998 0.47899 -0.24506
 H772 H 0.89702 0.53362 -0.17750
 H773 H 0.86964 0.53245 -0.22023
 H774 H 0.90687 0.52093 -0.10350
 H775 H 0.93500 0.52308 -0.06266
 H776 H 0.94039 0.49521 -0.21150
 H777 H 0.91268 0.49365 -0.25347
 C778 C 0.49638 0.33872 -0.29292
 C779 C 0.48024 0.32402 -0.31716
 C780 C 0.48072 0.30931 -0.34442
 C781 C 0.49747 0.30880 -0.34893
 C782 C 0.51361 0.32365 -0.32389
 C783 C 0.51304 0.33829 -0.29633
 C784 C 0.49587 0.35454 -0.26489
 C785 C 0.51074 0.37285 -0.27141
 C786 C 0.51007 0.38775 -0.24615
 C787 C 0.49445 0.38475 -0.21406
 C788 C 0.47964 0.36643 -0.20722
 C789 C 0.48036 0.35152 -0.23213
 C790 C 0.49348 0.40066 -0.18857
 C791 C 0.48514 0.39892 -0.13455
 C792 C 0.48379 0.41371 -0.11137
 C793 C 0.49088 0.43061 -0.14146
 C794 C 0.49944 0.43249 -0.19499
 C795 C 0.50065 0.41765 -0.21843
 H796 H 0.46716 0.32395 -0.31566
 H797 H 0.46765 0.29813 -0.36021
 H798 H 0.52706 0.32462 -0.32722
 H799 H 0.52573 0.34931 -0.27766
 H800 H 0.52280 0.37572 -0.29690
 H801 H 0.52184 0.40164 -0.25164
 H802 H 0.46730 0.36362 -0.18339
 H803 H 0.46878 0.33759 -0.22553
 H804 H 0.47977 0.38617 -0.10990
 H805 H 0.47726 0.41194 -0.06974
 H806 H 0.50498 0.44535 -0.21919
 H807 H 0.50690 0.41940 -0.26049
 C808 C 0.66080 0.15833 -0.28651
 C809 C 0.66122 0.17546 -0.29039
 C810 C 0.67600 0.19071 -0.31781
 C811 C 0.69075 0.18920 -0.34144
 C812 C 0.69039 0.17214 -0.33738
 C813 C 0.67557 0.15687 -0.31047
 C814 C 0.64496 0.14194 -0.25834
 C815 C 0.64800 0.12941 -0.22564
 C816 C 0.63308 0.11362 -0.20107
 C817 C 0.61474 0.11001 -0.20814
 C818 C 0.61172 0.12272 -0.23993
 C819 C 0.62664 0.13846 -0.26488
 C820 C 0.59882 0.09287 -0.18346
 C821 C 0.58198 0.08311 -0.21393
 C822 C 0.56716 0.06678 -0.19142
 C823 C 0.56892 0.05975 -0.13822
 C824 C 0.58567 0.06949 -0.10751
 C825 C 0.60043 0.08591 -0.12977
 H826 H 0.65022 0.17715 -0.27168
 H827 H 0.67603 0.20376 -0.31990
 H828 H 0.70143 0.17051 -0.35613
 H829 H 0.67552 0.14380 -0.30942
 H830 H 0.66195 0.13181 -0.21896
 H831 H 0.63592 0.10404 -0.17745
 H832 H 0.59781 0.12053 -0.24554
 H833 H 0.62376 0.14770 -0.29025
 H834 H 0.58034 0.08788 -0.25578
 H835 H 0.55441 0.05952 -0.21606
 H836 H 0.58733 0.06446 -0.06612
 H837 H 0.61307 0.09324 -0.10466
 C838 C 1.15468 0.49297 -0.29788
 C839 C 1.17137 0.50987 -0.30613
 C840 C 1.18656 0.51024 -0.33332
 C841 C 1.18554 0.49370 -0.35243
 C842 C 1.16893 0.47678 -0.34362
 C843 C 1.15367 0.47643 -0.31698
 C844 C 1.13838 0.49262 -0.26985
 C845 C 1.12656 0.47781 -0.23345
 C846 C 1.11111 0.47735 -0.20783
 C847 C 1.10718 0.49178 -0.21739
 C848 C 1.11910 0.50667 -0.25337
 C849 C 1.13443 0.50703 -0.27950
 C850 C 1.09065 0.49122 -0.19030
 C851 C 1.08037 0.49791 -0.22003
 C852 C 1.06474 0.49719 -0.19482
 C853 C 1.05891 0.48956 -0.13968
 C854 C 1.06914 0.48292 -0.10979
 C855 C 1.08490 0.48384 -0.13465
 H856 H 1.17278 0.52285 -0.29126
 H857 H 1.19901 0.52356 -0.34008
 H858 H 1.16770 0.46374 -0.35702
 H859 H 1.14098 0.46318 -0.31211
 H860 H 1.12929 0.46660 -0.22434
 H861 H 1.10211 0.46553 -0.18108
 H862 H 1.11668 0.51816 -0.26112
 H863 H 1.14306 0.51853 -0.30787
 H864 H 1.08417 0.50339 -0.26327
 H865 H 1.05704 0.50233 -0.21891
 H866 H 1.06504 0.47712 -0.06695
 H867 H 1.09267 0.47892 -0.10998
 C868 C 0.50424 0.66066 -0.30246
 C869 C 0.48745 0.66078 -0.30634
 C870 C 0.48685 0.67564 -0.33270
 C871 C 0.50316 0.69103 -0.35498
 C872 C 0.52005 0.69085 -0.34977
 C873 C 0.52051 0.67579 -0.32444
 C874 C 0.50477 0.64469 -0.27596
 C875 C 0.51334 0.63613 -0.30479
 C876 C 0.51377 0.62098 -0.28000
 C877 C 0.50594 0.61435 -0.22549
 C878 C 0.49747 0.62299 -0.19647
 C879 C 0.49674 0.63793 -0.22174
 C880 C 0.50677 0.59857 -0.19880
 C881 C 0.51323 0.59989 -0.14219
 C882 C 0.51453 0.58520 -0.11753
 C883 C 0.50908 0.56880 -0.14871
 C884 C 0.50231 0.56736 -0.20498
 C885 C 0.50133 0.58219 -0.23001
 H886 H 0.47471 0.64924 -0.28953
 H887 H 0.47361 0.67522 -0.33349
 H888 H 0.53290 0.70189 -0.36759
 H889 H 0.53364 0.67598 -0.32186
 H890 H 0.51953 0.64105 -0.34680
 H891 H 0.52048 0.61461 -0.30299
 H892 H 0.49126 0.61805 -0.15450
 H893 H 0.49013 0.64438 -0.19864
 H894 H 0.51760 0.61244 -0.11745
 H895 H 0.51974 0.58664 -0.07398
 H896 H 0.49802 0.55486 -0.22991
 H897 H 0.49618 0.58083 -0.27360
 C898 C 0.33824 -0.15803 -0.29290
 C899 C 0.33907 -0.17421 -0.30422
 C900 C 0.32430 -0.18946 -0.33137
 C901 C 0.30800 -0.18917 -0.34732
 C902 C 0.30719 -0.17294 -0.33500
 C903 C 0.32211 -0.15761 -0.30875
 C904 C 0.35416 -0.14157 -0.26533
 C905 C 0.35107 -0.13024 -0.22738
 C906 C 0.36600 -0.11446 -0.20299
 C907 C 0.38446 -0.10971 -0.21518
 C908 C 0.38756 -0.12122 -0.25234
 C909 C 0.37262 -0.13686 -0.27737
 C910 C 0.40036 -0.09270 -0.18989
 C911 C 0.41682 -0.08199 -0.22160
 C912 C 0.43164 -0.06589 -0.19819
 C913 C 0.43023 -0.05997 -0.14296
 C914 C 0.41388 -0.07058 -0.11111
 C915 C 0.39916 -0.08684 -0.13412
 H916 H 0.35107 -0.17524 -0.29132
 H917 H 0.32551 -0.20172 -0.33751
 H918 H 0.29546 -0.17150 -0.34817
 H919 H 0.32112 -0.14523 -0.30220
 H920 H 0.33707 -0.13357 -0.21628
 H921 H 0.36302 -0.10583 -0.17525
 H922 H 0.40155 -0.11820 -0.26206
 H923 H 0.37560 -0.14508 -0.30692
 H924 H 0.41816 -0.08584 -0.26501
 H925 H 0.44408 -0.05790 -0.22375
 H926 H 0.41252 -0.06641 -0.06813
 H927 H 0.38691 -0.09489 -0.10791
 C928 C 0.49616 -0.16052 0.29275
 C929 C 0.49020 -0.16537 0.35000
 C930 C 0.48981 -0.18077 0.37593
 C931 C 0.49521 -0.19184 0.34513
 C932 C 0.50076 -0.18726 0.28745
 C933 C 0.50129 -0.17175 0.26166
 C934 C 0.49745 -0.14358 0.26611
 C935 C 0.49313 -0.14334 0.20766
 C936 C 0.49474 -0.12725 0.18257
 C937 C 0.50052 -0.11113 0.21550
 C938 C 0.50472 -0.11137 0.27391
 C939 C 0.50329 -0.12737 0.29886
 C940 C 0.50228 -0.09404 0.18911
 C941 C 0.49538 -0.08386 0.21772
 C942 C 0.49731 -0.06757 0.19343
 C943 C 0.50635 -0.06102 0.14036
 C944 C 0.51321 -0.07120 0.11159
 C945 C 0.51110 -0.08762 0.13562
 H946 H 0.48585 -0.15722 0.37497
 H947 H 0.48569 -0.18372 0.42062
 H948 H 0.50476 -0.19562 0.26219
 H949 H 0.50614 -0.16835 0.21770
 H950 H 0.48829 -0.15564 0.18139
 H951 H 0.49121 -0.12749 0.13759
 H952 H 0.50947 -0.09904 0.30005
 H953 H 0.50712 -0.12690 0.34362
 H954 H 0.48836 -0.08861 0.25872
 H955 H 0.49184 -0.06002 0.21644
 H956 H 0.52018 -0.06649 0.07051
 H957 H 0.51667 -0.09514 0.11290
 C958 C 0.33958 0.49516 0.29640
 C959 C 0.33020 0.50311 0.26824
 C960 C 0.31528 0.50348 0.29475
 C961 C 0.30943 0.49599 0.35018
 C962 C 0.31884 0.48807 0.37834
 C963 C 0.33367 0.48759 0.35172
 C964 C 0.35547 0.49475 0.26835
 C965 C 0.37096 0.49753 0.30085
 C966 C 0.38577 0.49687 0.27479
 C967 C 0.38555 0.49356 0.21546
 C968 C 0.37014 0.49094 0.18283
 C969 C 0.35526 0.49148 0.20898
 C970 C 0.40126 0.49267 0.18797
 C971 C 0.39795 0.47970 0.14424
 C972 C 0.41269 0.47861 0.11930
 C973 C 0.43104 0.49037 0.13787
 C974 C 0.43442 0.50342 0.18119
 C975 C 0.41970 0.50461 0.20581
 H976 H 0.33452 0.50926 0.22591
 H977 H 0.30822 0.50950 0.27156
 H978 H 0.31488 0.48241 0.42136
 H979 H 0.34039 0.48113 0.37436
 H980 H 0.37172 0.50034 0.34650
 H981 H 0.39729 0.49870 0.30139
 H982 H 0.36961 0.48859 0.13693
 H983 H 0.34347 0.48908 0.18276
 H984 H 0.38391 0.47011 0.13003
 H985 H 0.40970 0.46839 0.08604
 H986 H 0.44845 0.51277 0.19596
 H987 H 0.42280 0.51499 0.23857
 C988 C 1.15822 0.65807 0.29820
 C989 C 1.16337 0.65664 0.35483
 C990 C 1.17874 0.67161 0.38072
 C991 C 1.18947 0.68837 0.35050
 C992 C 1.18453 0.68970 0.29350
 C993 C 1.16907 0.67476 0.26773
 C994 C 1.14141 0.64236 0.27151
 C995 C 1.14116 0.63825 0.21275
 C996 C 1.12524 0.62363 0.18772
 C997 C 1.10928 0.61269 0.22100
 C998 C 1.10952 0.61672 0.27968
 C999 C 1.12535 0.63143 0.30459
 C1000 C 1.09238 0.59716 0.19470
 C1001 C 1.08266 0.57990 0.22300
 C1002 C 1.06655 0.56533 0.19880
 C1003 C 1.05973 0.56779 0.14612
 C1004 C 1.06947 0.58500 0.11765
 C1005 C 1.08570 0.59953 0.14159
 H1006 H 1.15551 0.64391 0.37927
 H1007 H 1.18197 0.67017 0.42491
 H1008 H 1.19263 0.70230 0.26870
 H1009 H 1.16540 0.67643 0.22428
 H1010 H 1.15337 0.64618 0.18620
 H1011 H 1.12549 0.62067 0.14251
 H1012 H 1.09730 0.60868 0.30612
 H1013 H 1.12489 0.63443 0.34963
 H1014 H 1.08763 0.57764 0.26367
 H1015 H 1.05935 0.55218 0.22158
 H1016 H 1.06454 0.58725 0.07688
 H1017 H 1.09285 0.61274 0.11912
 C1018 C 0.49506 0.15708 0.28840
 C1019 C 0.51215 0.17339 0.29832
 C1020 C 0.51277 0.18859 0.32604
 C1021 C 0.49629 0.18799 0.34397
 C1022 C 0.47918 0.17179 0.33320
 C1023 C 0.47858 0.15650 0.30609
 C1024 C 0.49444 0.14064 0.26057
 C1025 C 0.47981 0.12922 0.22320
 C1026 C 0.47899 0.11352 0.19834
 C1027 C 0.49288 0.10894 0.20967
 C1028 C 0.50765 0.12052 0.24638
 C1029 C 0.50836 0.13609 0.27176
 C1030 C 0.49185 0.09204 0.18397
 C1031 C 0.49777 0.08140 0.21536
 C1032 C 0.49669 0.06547 0.19149
 C1033 C 0.48943 0.05966 0.13604
 C1034 C 0.48348 0.07021 0.10454
 C1035 C 0.48479 0.08629 0.12809
 H1036 H 0.52511 0.17447 0.28453
 H1037 H 0.52622 0.20071 0.33425
 H1038 H 0.46619 0.17091 0.34557
 H1039 H 0.46517 0.14411 0.29989
 H1040 H 0.46899 0.13242 0.21287
 H1041 H 0.46728 0.10481 0.17092
 H1042 H 0.51876 0.11762 0.25542
 H1043 H 0.51970 0.14439 0.30090
 H1044 H 0.50295 0.08517 0.25885
 H1045 H 0.50128 0.05752 0.21682
 H1046 H 0.47798 0.06612 0.06145
 H1047 H 0.48043 0.09430 0.10222
 C1048 C 0.66260 0.50658 0.29026
 C1049 C 0.66194 0.48955 0.30049
 C1050 C 0.67662 0.48904 0.32837
 C1051 C 0.69246 0.50556 0.34614
 C1052 C 0.69325 0.52262 0.33505
 C1053 C 0.67847 0.52311 0.30780
 C1054 C 0.64669 0.50708 0.26227
 C1055 C 0.64974 0.52167 0.22471
 C1056 C 0.63477 0.52236 0.19962
 C1057 C 0.61634 0.50836 0.21090
 C1058 C 0.61330 0.49364 0.24783
 C1059 C 0.62826 0.49307 0.27344
 C1060 C 0.60037 0.50923 0.18486
 C1061 C 0.58377 0.50313 0.21599
 C1062 C 0.56881 0.50401 0.19174
 C1063 C 0.57019 0.51125 0.13617
 C1064 C 0.58671 0.51738 0.10495
 C1065 C 0.60161 0.51627 0.12887
 H1066 H 0.65009 0.47656 0.28682
 H1067 H 0.67537 0.47563 0.33683
 H1068 H 0.70533 0.53564 0.34730
 H1069 H 0.67940 0.53647 0.30137
 H1070 H 0.66373 0.53256 0.21438
 H1071 H 0.63767 0.53404 0.17204
 H1072 H 0.59934 0.48246 0.25685
 H1073 H 0.62532 0.48175 0.30273
 H1074 H 0.58241 0.49796 0.25955
 H1075 H 0.55624 0.49928 0.21686
 H1076 H 0.58807 0.52287 0.06177
 H1077 H 0.61401 0.52076 0.10319
 C1078 C 0.84358 0.33695 0.29617
 C1079 C 0.84545 0.32353 0.32784
 C1080 C 0.82994 0.30861 0.35361
 C1081 C 0.81229 0.30695 0.34879
 C1082 C 0.81040 0.32036 0.31709
 C1083 C 0.82589 0.33515 0.29065
 C1084 C 0.86010 0.35290 0.26967
 C1085 C 0.85953 0.35819 0.21256
 C1086 C 0.87521 0.37316 0.18756
 C1087 C 0.89166 0.38328 0.21950
 C1088 C 0.89218 0.37807 0.27674
 C1089 C 0.87659 0.36296 0.30146
 C1090 C 0.90829 0.39919 0.19328
 C1091 C 0.91834 0.41599 0.22342
 C1092 C 0.93418 0.43094 0.19911
 C1093 C 0.94041 0.42928 0.14452
 C1094 C 0.93035 0.41250 0.11429
 C1095 C 0.91436 0.39763 0.13831
 H1096 H 0.85892 0.32453 0.33237
 H1097 H 0.83179 0.29855 0.37825
 H1098 H 0.79692 0.31932 0.31254
 H1099 H 0.82411 0.34539 0.26677
 H1100 H 0.84701 0.35058 0.18706
 H1101 H 0.87444 0.37698 0.14347
 H1102 H 0.90474 0.38556 0.30212
 H1103 H 0.87734 0.35925 0.34571
 H1104 H 0.91384 0.41760 0.26563
 H1105 H 0.94166 0.44373 0.22330
 H1106 H 0.93482 0.41088 0.07204
 H1107 H 0.90693 0.38477 0.11439
   
