data_POSCAR
  _audit_creation_date              2014-09-24
  _audit_creation_method            'ToBaCCo'
  _symmetry_space_group_name_H-M    'P1'
  _symmetry_Int_Tables_number       1
  _symmetry_cell_setting            triclinic
  loop_
  _symmetry_equiv_pos_as_xyz
 x,y,z
_cell_length_a 34.4402
_cell_length_b 34.4760
_cell_length_c 34.5032
_cell_angle_alpha 101.481600
_cell_angle_beta 75.331500
_cell_angle_gamma 69.957400
loop_
  _atom_site_label
  _atom_site_type_symbol
  _atom_site_fract_x
  _atom_site_fract_y
  _atom_site_fract_z
C1 C 0.52982 0.47210 -0.00304
 C2 C 0.49484 0.50566 -0.00373
 C3 C 0.45262 0.50265 -0.00332
 C4 C 0.49725 0.54749 -0.00564
 C5 C 0.57000 0.47740 0.00026
 C6 C 0.53005 0.42850 -0.00504
 C7 C 0.43293 0.51735 -0.03155
 C8 C 0.39304 0.51566 -0.03147
 C9 C 0.37157 0.49832 -0.00349
 C10 C 0.39187 0.48374 0.02501
 C11 C 0.43114 0.48681 0.02565
 C12 C 0.52961 0.54877 -0.03896
 C13 C 0.53033 0.58853 -0.04132
 C14 C 0.49848 0.62773 -0.01057
 C15 C 0.46618 0.62622 0.02274
 C16 C 0.46548 0.58650 0.02506
 C17 C 0.56744 0.50964 0.03413
 C18 C 0.60570 0.51337 0.03745
 C19 C 0.64722 0.48460 0.00722
 C20 C 0.64960 0.45233 -0.02657
 C21 C 0.61137 0.44869 -0.02990
 C22 C 0.54215 0.40887 0.02455
 C23 C 0.54280 0.36795 0.02330
 C24 C 0.53111 0.34593 -0.00745
 C25 C 0.51941 0.36526 -0.03738
 C26 C 0.51951 0.40595 -0.03657
 H27 H 0.44887 0.52970 -0.05430
 H28 H 0.38097 0.52563 -0.05550
 H29 H 0.37647 0.47230 0.04893
 H30 H 0.44463 0.47699 0.04904
 H31 H 0.55385 0.51903 -0.06343
 H32 H 0.55520 0.58869 -0.06769
 H33 H 0.44018 0.58612 0.05090
 H34 H 0.53586 0.53154 0.05821
 H35 H 0.60293 0.53815 0.06412
 H36 H 0.68104 0.43008 -0.05064
 H37 H 0.61399 0.42354 -0.05617
 H38 H 0.55067 0.42549 0.04899
 H39 H 0.55170 0.35378 0.04683
 H40 H 0.51081 0.34859 -0.06170
 H41 H 0.51122 0.41991 -0.06042
 H42 H 0.44159 0.65578 0.04721
 C43 C -0.00052 0.52753 0.52263
 C44 C -0.00453 0.49889 0.49238
 C45 C -0.00809 0.45837 0.49753
 C46 C -0.00482 0.50625 0.45162
 C47 C -0.00072 0.56925 0.51763
 C48 C 0.00356 0.51938 0.56235
 C49 C 0.02074 0.41846 0.46643
 C50 C 0.01587 0.38038 0.46875
 C51 C -0.01822 0.38138 0.50208
 C52 C -0.04666 0.42127 0.53371
 C53 C -0.04173 0.45950 0.53137
 C54 C 0.03406 0.50147 0.42172
 C55 C 0.03522 0.50269 0.38122
 C56 C -0.00268 0.50935 0.37033
 C57 C -0.04203 0.51591 0.40090
 C58 C -0.04294 0.51387 0.44114
 C59 C -0.03988 0.60270 0.52094
 C60 C -0.04086 0.64330 0.51976
 C61 C -0.00250 0.65075 0.51457
 C62 C 0.03697 0.61678 0.51003
 C63 C 0.03772 0.57644 0.51206
 C64 C -0.02555 0.55057 0.60121
 C65 C -0.02108 0.54449 0.63890
 C66 C 0.01296 0.50727 0.63855
 C67 C 0.04197 0.47583 0.59954
 C68 C 0.03738 0.48191 0.56176
 H69 H 0.04695 0.41684 0.44009
 H70 H 0.03882 0.35007 0.44433
 H71 H -0.07349 0.42314 0.55955
 H72 H -0.06483 0.49009 0.55530
 H73 H 0.06385 0.49512 0.42929
 H74 H 0.06586 0.49767 0.35812
 H75 H -0.07307 0.51726 0.46387
 H76 H -0.06986 0.59764 0.52554
 H77 H -0.07160 0.66902 0.52317
 H78 H 0.06682 0.62195 0.50630
 H79 H 0.06812 0.55092 0.50967
 H80 H -0.05191 0.57967 0.60238
 H81 H -0.04447 0.56892 0.66839
 H82 H 0.06883 0.44708 0.59820
 H83 H 0.06067 0.45781 0.53204
 H84 H -0.07150 0.52073 0.39304
 C85 C 0.50366 0.00956 0.48318
 C86 C 0.47441 0.00416 0.51418
 C87 C 0.48167 0.00112 0.55432
 C88 C 0.43357 0.00080 0.50989
 C89 C 0.49927 0.00764 0.44128
 C90 C 0.54284 0.01586 0.48861
 C91 C 0.51998 -0.03082 0.55448
 C92 C 0.52542 -0.03448 0.59259
 C93 C 0.49230 -0.00657 0.63178
 C94 C 0.45401 0.02563 0.63090
 C95 C 0.44881 0.02920 0.59278
 C96 C 0.42241 -0.03211 0.52087
 C97 C 0.38256 -0.03378 0.52048
 C98 C 0.35314 -0.00276 0.50879
 C99 C 0.36450 0.02978 0.49712
 C100 C 0.40409 0.03188 0.49818
 C101 C 0.49497 0.04355 0.42673
 C102 C 0.49406 0.04113 0.38611
 C103 C 0.49850 0.00238 0.35905
 C104 C 0.50257 -0.03353 0.37373
 C105 C 0.50268 -0.03082 0.41468
 C106 C 0.53868 0.04890 0.52263
 C107 C 0.57594 0.05453 0.52684
 C108 C 0.61849 0.02770 0.49661
 C109 C 0.62193 -0.00518 0.46235
 C110 C 0.58473 -0.01087 0.45847
 H111 H 0.54532 -0.05353 0.52502
 H112 H 0.55481 -0.06079 0.59082
 H113 H 0.42829 0.04942 0.65950
 H114 H 0.41906 0.05424 0.59328
 H115 H 0.44443 -0.05631 0.53024
 H116 H 0.37467 -0.05933 0.52937
 H117 H 0.41114 0.05841 0.49089
 H118 H 0.49271 0.07333 0.44678
 H119 H 0.49131 0.06906 0.37531
 H120 H 0.50595 -0.06369 0.35339
 H121 H 0.50658 -0.05901 0.42529
 H122 H 0.50647 0.07071 0.54571
 H123 H 0.57068 0.08130 0.55297
 H124 H 0.65351 -0.02814 0.43908
 H125 H 0.58879 -0.03678 0.43206
 H126 H 0.34204 0.05442 0.48855
 O127 O 0.47570 -0.00125 -0.05280
 O128 O 0.47667 0.00968 0.05510
 O129 O 0.48025 0.05649 0.00434
 O130 O 0.47301 -0.04863 -0.00292
 O131 O 0.54560 -0.08242 -0.02926
 O132 O 0.55288 0.02291 -0.01911
 O133 O 0.54916 -0.02583 0.02979
 O134 O 0.54837 -0.03377 -0.07812
 Cu135 Cu 0.46913 0.00746 0.00353
 Cu136 Cu 0.55631 -0.03308 -0.02670
 C137 C 0.51179 -0.01879 -0.08390
 C138 C 0.51300 -0.00694 0.06086
 C139 C 0.51785 0.05763 -0.00640
 C140 C 0.50807 -0.08354 -0.01725
 O141 O -0.05760 0.52760 1.01706
 O142 O 0.05332 0.52430 1.00238
 O143 O 0.00519 0.52531 0.95491
 O144 O -0.00957 0.52711 1.06477
 O145 O 0.01939 0.45533 1.04388
 O146 O 0.03335 0.45361 0.93402
 O147 O 0.08147 0.45252 0.98215
 O148 O -0.02918 0.45591 0.99659
 Cu149 Cu -0.00504 0.53328 1.01182
 Cu150 Cu 0.02900 0.44713 0.98695
 C151 C -0.06231 0.49223 1.00903
 C152 C 0.08618 0.48783 0.99055
 C153 C 0.02140 0.48926 0.92570
 C154 C 0.00320 0.49148 1.07298
 O155 O 0.00181 -0.04725 0.48113
 O156 O -0.01642 0.06341 0.47695
 O157 O 0.04851 -0.00108 0.47891
 O158 O -0.06291 0.01735 0.47818
 O159 O -0.08984 0.04397 0.54765
 O160 O 0.02263 0.02218 0.54854
 O161 O -0.04128 0.08825 0.54651
 O162 O -0.02661 -0.02151 0.55066
 Cu163 Cu -0.00462 0.00555 0.47184
 Cu164 Cu -0.03636 0.03573 0.55531
 C165 C -0.01034 -0.05306 0.51668
 C166 C -0.03107 0.09460 0.51100
 C167 C 0.05462 0.00780 0.51379
 C168 C -0.09543 0.03350 0.51266
 C169 C -0.23301 0.49361 1.01539
 C170 C -0.23484 0.45262 1.00434
 C171 C -0.27411 0.45008 1.00236
 C172 C -0.31194 0.48783 1.01094
 C173 C -0.31030 0.52845 1.02242
 C174 C -0.27143 0.53141 1.02465
 C175 C -0.18998 0.49473 1.01599
 C176 C -0.18438 0.53369 1.02605
 C177 C -0.14319 0.53284 1.02458
 C178 C -0.10651 0.49321 1.01313
 C179 C -0.11200 0.45431 1.00404
 C180 C -0.15318 0.45476 1.00528
 C181 C -0.19741 0.41434 0.99487
 C182 C -0.15745 0.41538 0.99527
 H183 H -0.19889 0.38298 0.98656
 H184 H -0.12932 0.38479 0.98725
 H185 H -0.27525 0.41855 0.99415
 H186 H -0.33896 0.55806 1.02886
 H187 H -0.13996 0.56338 1.03186
 H188 H -0.08397 0.42344 0.99528
 H189 H -0.27212 0.56353 1.03323
 H190 H -0.21119 0.56514 1.03472
 C191 C 0.25338 0.48896 0.99274
 C192 C 0.26428 0.52160 0.98033
 C193 C 0.30397 0.52409 0.98095
 C194 C 0.33291 0.49574 0.99589
 C195 C 0.32011 0.46480 1.01030
 C196 C 0.28146 0.46120 1.00834
 C197 C 0.21146 0.48649 0.99023
 C198 C 0.20019 0.45218 0.99708
 C199 C 0.16005 0.45214 0.99579
 C200 C 0.12998 0.48646 0.98815
 C201 C 0.14142 0.52007 0.97994
 C202 C 0.18227 0.51979 0.97998
 C203 C 0.23486 0.55253 0.96861
 C204 C 0.19428 0.55225 0.96941
 H205 H 0.24288 0.57798 0.95956
 H206 H 0.17224 0.57747 0.96102
 H207 H 0.31032 0.55044 0.97236
 H208 H 0.34095 0.44112 1.02096
 H209 H 0.15196 0.42572 1.00197
 H210 H 0.11864 0.54623 0.97315
 H211 H 0.27402 0.43659 1.01952
 H212 H 0.22195 0.42505 1.00330
 C213 C -0.00680 -0.22188 0.52009
 C214 C 0.02423 -0.25855 0.48521
 C215 C 0.02591 -0.30016 0.48377
 C216 C -0.00415 -0.30556 0.51587
 C217 C -0.03584 -0.26906 0.54960
 C218 C -0.03709 -0.22776 0.55190
 C219 C -0.00684 -0.17821 0.52099
 C220 C -0.03362 -0.14048 0.55589
 C221 C -0.03359 -0.10028 0.55470
 C222 C -0.00718 -0.09647 0.51864
 C223 C 0.02068 -0.13406 0.48415
 C224 C 0.02156 -0.17488 0.48537
 C225 C 0.05268 -0.25333 0.45165
 C226 C 0.05080 -0.21230 0.45136
 H227 H 0.07622 -0.28131 0.42478
 H228 H 0.07291 -0.20990 0.42426
 H229 H 0.04997 -0.32829 0.45726
 H230 H -0.05935 -0.27263 0.57463
 H231 H -0.05522 -0.07183 0.58183
 H232 H 0.04178 -0.13156 0.45640
 H233 H -0.06231 -0.20090 0.57855
 H234 H -0.05477 -0.14127 0.58444
 C235 C -0.03192 0.26161 0.50302
 C236 C -0.03822 0.29169 0.54108
 C237 C -0.03451 0.33101 0.54082
 C238 C -0.02434 0.34091 0.50299
 C239 C -0.01924 0.31151 0.46555
 C240 C -0.02298 0.27247 0.46546
 C241 C -0.03416 0.21915 0.50430
 C242 C -0.02669 0.18640 0.46794
 C243 C -0.02683 0.14653 0.47043
 C244 C -0.03473 0.13824 0.50919
 C245 C -0.04353 0.17112 0.54581
 C246 C -0.04293 0.21118 0.54360
 C247 C -0.04753 0.28208 0.57905
 C248 C -0.04997 0.24277 0.58030
 H249 H -0.05261 0.30515 0.60825
 H250 H -0.05680 0.23674 0.61043
 H251 H -0.03834 0.35339 0.56992
 H252 H -0.01240 0.31877 0.43607
 H253 H -0.02005 0.12185 0.44168
 H254 H -0.04953 0.16509 0.57598
 H255 H -0.01848 0.25128 0.43560
 H256 H -0.01990 0.19050 0.43712
 C257 C 0.50619 -0.01807 -0.25080
 C258 C 0.46395 -0.00015 -0.25387
 C259 C 0.45969 0.00318 -0.29259
 C260 C 0.49701 -0.01082 -0.32926
 C261 C 0.53897 -0.02911 -0.32582
 C262 C 0.54349 -0.03260 -0.28739
 C263 C 0.50913 -0.02032 -0.20855
 C264 C 0.54954 -0.03721 -0.20186
 C265 C 0.55037 -0.03738 -0.16160
 C266 C 0.51102 -0.02080 -0.12697
 C267 C 0.47066 -0.00470 -0.13348
 C268 C 0.46943 -0.00427 -0.17372
 C269 C 0.42596 0.01450 -0.21826
 C270 C 0.42864 0.01255 -0.17906
 H271 H 0.39355 0.02807 -0.22063
 H272 H 0.39825 0.02469 -0.15243
 H273 H 0.42681 0.01541 -0.29399
 H274 H 0.56890 -0.03920 -0.35231
 H275 H 0.58200 -0.05007 -0.15753
 H276 H 0.43997 0.00811 -0.10704
 H277 H 0.57656 -0.04632 -0.28699
 H278 H 0.58086 -0.05010 -0.22714
 C279 C 0.50835 -0.00542 0.23056
 C280 C 0.47219 0.02848 0.26446
 C281 C 0.46912 0.03084 0.30632
 C282 C 0.50086 -0.00099 0.31503
 C283 C 0.53565 -0.03551 0.28151
 C284 C 0.53955 -0.03770 0.23978
 C285 C 0.51132 -0.00582 0.18635
 C286 C 0.54790 -0.03570 0.15061
 C287 C 0.54873 -0.03524 0.11004
 C288 C 0.51304 -0.00531 0.10399
 C289 C 0.47690 0.02525 0.13938
 C290 C 0.47612 0.02567 0.18037
 C291 C 0.43909 0.05946 0.25641
 C292 C 0.44062 0.05762 0.21528
 H293 H 0.41120 0.08520 0.28234
 H294 H 0.41384 0.08197 0.21075
 H295 H 0.44174 0.05718 0.33223
 H296 H 0.56046 -0.06042 0.28765
 H297 H 0.57708 -0.05905 0.08325
 H298 H 0.44947 0.04899 0.13503
 H299 H 0.56704 -0.06498 0.21530
 H300 H 0.57626 -0.05954 0.15326
 C301 C 0.49799 -0.24829 -0.01684
 C302 C 0.53828 -0.28465 -0.02702
 C303 C 0.53826 -0.32498 -0.02521
 C304 C 0.49854 -0.32987 -0.01334
 C305 C 0.45874 -0.29395 -0.00383
 C306 C 0.45835 -0.25373 -0.00553
 C307 C 0.49938 -0.20553 -0.01811
 C308 C 0.46114 -0.16717 -0.00756
 C309 C 0.46412 -0.12787 -0.00795
 C310 C 0.50524 -0.12571 -0.01904
 C311 C 0.54358 -0.16388 -0.03035
 C312 C 0.54096 -0.20351 -0.02973
 C313 C 0.57833 -0.28052 -0.03862
 C314 C 0.57965 -0.24086 -0.04004
 H315 H 0.60919 -0.30837 -0.04655
 H316 H 0.61148 -0.23934 -0.04899
 H317 H 0.56920 -0.35241 -0.03225
 H318 H 0.42768 -0.29703 0.00465
 H319 H 0.43399 -0.09896 0.00086
 H320 H 0.57558 -0.16266 -0.03888
 H321 H 0.42668 -0.22745 0.00216
 H322 H 0.42856 -0.16659 0.00154
 C323 C 0.53006 0.22152 -0.00655
 C324 C 0.49321 0.25474 -0.00858
 C325 C 0.49419 0.29487 -0.00985
 C326 C 0.53097 0.30297 -0.00797
 C327 C 0.56711 0.27040 -0.00524
 C328 C 0.56686 0.23011 -0.00473
 C329 C 0.52793 0.17891 -0.00588
 C330 C 0.56372 0.14293 -0.00644
 C331 C 0.56022 0.10379 -0.00626
 C332 C 0.52090 0.09959 -0.00505
 C333 C 0.48501 0.13525 -0.00430
 C334 C 0.48843 0.17449 -0.00531
 C335 C 0.45538 0.24800 -0.00862
 C336 C 0.45285 0.20893 -0.00655
 H337 H 0.42707 0.27350 -0.00990
 H338 H 0.42270 0.20546 -0.00637
 H339 H 0.46584 0.32029 -0.01121
 H340 H 0.59582 0.27608 -0.00374
 H341 H 0.58846 0.07668 -0.00706
 H342 H 0.45468 0.13212 -0.00405
 H343 H 0.59557 0.20642 -0.00247
 H344 H 0.59487 0.14406 -0.00759
 C345 C -0.26532 0.04038 0.50819
 C346 C -0.26697 0.02343 0.46811
 C347 C -0.30549 0.02010 0.46454
 C348 C -0.34335 0.03320 0.50044
 C349 C -0.34169 0.05132 0.54013
 C350 C -0.30343 0.05473 0.54396
 C351 C -0.22276 0.04158 0.51062
 C352 C -0.21697 0.05635 0.54902
 C353 C -0.17600 0.05477 0.54959
 C354 C -0.13977 0.03863 0.51194
 C355 C -0.14558 0.02505 0.47350
 C356 C -0.18644 0.02613 0.47257
 C357 C -0.23006 0.00953 0.43163
 C358 C -0.19072 0.01091 0.43381
 H359 H -0.23141 -0.00314 0.40086
 H360 H -0.16297 -0.00075 0.40467
 H361 H -0.30592 0.00830 0.43321
 H362 H -0.36913 0.06106 0.56897
 H363 H -0.17253 0.06553 0.57973
 H364 H -0.11791 0.01250 0.44413
 H365 H -0.30426 0.06812 0.57534
 H366 H -0.24338 0.06856 0.57901
 C367 C 0.22685 -0.00324 0.51395
 C368 C 0.25457 -0.00056 0.47739
 C369 C 0.29557 -0.00016 0.47599
 C370 C 0.31007 -0.00353 0.51015
 C371 C 0.28321 -0.00750 0.54580
 C372 C 0.24208 -0.00720 0.54785
 C373 C 0.18258 -0.00184 0.51478
 C374 C 0.15111 -0.00087 0.55071
 C375 C 0.10985 0.00169 0.55020
 C376 C 0.09908 0.00275 0.51376
 C377 C 0.13035 0.00130 0.47769
 C378 C 0.17150 -0.00024 0.47814
 C379 C 0.24140 0.00138 0.44236
 C380 C 0.20102 0.00099 0.44254
 H381 H 0.26275 0.00305 0.41424
 H382 H 0.19246 0.00242 0.41456
 H383 H 0.31655 0.00218 0.44805
 H384 H 0.29380 -0.01012 0.57255
 H385 H 0.08622 0.00300 0.57852
 H386 H 0.12211 0.00285 0.44954
 H387 H 0.22288 -0.01024 0.57614
 H388 H 0.15734 -0.00125 0.57976
 C389 C 0.00206 0.49780 1.24254
 C390 C -0.02983 0.53538 1.27601
 C391 C -0.03139 0.53902 1.31773
 C392 C -0.00044 0.50641 1.32644
 C393 C 0.03221 0.47010 1.29310
 C394 C 0.03343 0.46565 1.25168
 C395 C 0.00167 0.49441 1.19867
 C396 C 0.02913 0.45667 1.16394
 C397 C 0.02850 0.45552 1.12347
 C398 C 0.00079 0.49199 1.11646
 C399 C -0.02769 0.52931 1.15100
 C400 C -0.02799 0.53048 1.19203
 C401 C -0.05942 0.56932 1.26754
 C402 C -0.05794 0.56729 1.22637
 H403 H -0.08361 0.59827 1.29308
 H404 H -0.08099 0.59476 1.22140
 H405 H -0.05625 0.56749 1.34344
 H406 H 0.05639 0.44459 1.29925
 H407 H 0.05064 0.42626 1.09736
 H408 H -0.04979 0.55740 1.14596
 H409 H 0.05935 0.43702 1.22735
 H410 H 0.05126 0.42767 1.16730
 C411 C 0.02505 0.49262 0.75704
 C412 C 0.01468 0.53357 0.75024
 C413 C 0.01175 0.53775 0.71134
 C414 C 0.01828 0.50183 0.67884
 C415 C 0.02899 0.46117 0.68542
 C416 C 0.03239 0.45652 0.72393
 C417 C 0.02670 0.48993 0.79955
 C418 C 0.03689 0.45082 0.80970
 C419 C 0.03617 0.45048 0.85032
 C420 C 0.02525 0.48903 0.88190
 C421 C 0.01625 0.52789 0.87176
 C422 C 0.01696 0.52861 0.83108
 C423 C 0.00657 0.57034 0.78246
 C424 C 0.00747 0.56796 0.82206
 H425 H -0.00126 0.60166 0.77719
 H426 H 0.00030 0.59751 0.84611
 H427 H 0.00425 0.56920 0.70640
 H428 H 0.03379 0.43299 0.66105
 H429 H 0.04339 0.41999 0.85720
 H430 H 0.00812 0.55787 0.89576
 H431 H 0.04016 0.42457 0.72727
 H432 H 0.04510 0.42025 0.78692
   
