data_POSCAR
  _audit_creation_date              2014-09-24
  _audit_creation_method            'ToBaCCo'
  _symmetry_space_group_name_H-M    'P1'
  _symmetry_Int_Tables_number       1
  _symmetry_cell_setting            triclinic
  loop_
  _symmetry_equiv_pos_as_xyz
 x,y,z
_cell_length_a 23.9383
_cell_length_b 25.5325
_cell_length_c 29.6233
_cell_angle_alpha 90.023300
_cell_angle_beta 90.885600
_cell_angle_gamma 89.513200
loop_
  _atom_site_label
  _atom_site_type_symbol
  _atom_site_fract_x
  _atom_site_fract_y
  _atom_site_fract_z
Si1 Si 1.23827 0.25263 0.24313
 Si2 Si 0.76788 -0.24882 0.25271
 Si3 Si 0.73729 0.26661 -0.25186
 Si4 Si 1.26104 -0.23225 -0.24902
 Si5 Si 0.26475 0.23914 0.75508
 Si6 Si 0.74337 0.73911 0.74930
 Si7 Si 0.75596 0.25438 0.25338
 Si8 Si 0.23473 0.75215 0.24816
 O9 O 1.08844 0.02073 0.04849
 O10 O 0.89385 -0.01339 0.05509
 O11 O 0.95761 0.09582 0.04655
 O12 O 1.02152 -0.08561 0.05109
 O13 O 0.88302 0.07169 0.01661
 O14 O 1.09443 -0.06729 0.01695
 O15 O 0.92596 -0.08890 0.03674
 O16 O 1.05286 0.09597 0.02975
 C17 C 1.08142 0.06804 0.05684
 C18 C 0.90330 -0.05978 0.06526
 C19 C 0.90651 0.09295 0.04896
 C20 C 1.07283 -0.08576 0.05086
 O21 O 1.07880 -0.02878 -0.06533
 O22 O 0.88876 0.02589 -0.06202
 O23 O 1.02533 0.08834 -0.06318
 O24 O 0.94626 -0.08639 -0.05580
 O25 O 0.87417 -0.05829 -0.02474
 O26 O 1.09774 0.05819 -0.03274
 O27 O 1.03986 -0.09872 -0.04164
 O28 O 0.93071 0.09883 -0.04737
 Co29 Co 1.07939 -0.00381 -0.00808
 Co30 Co 0.89543 0.00575 -0.00378
 Co31 Co 0.99124 0.08649 -0.00826
 Co32 Co 0.98375 -0.08176 -0.00262
 O33 O 0.98749 0.00169 -0.00574
 C34 C 1.06607 -0.07522 -0.07171
 C35 C 0.89902 0.07195 -0.07270
 C36 C 1.07560 0.07891 -0.06602
 C37 C 0.89521 -0.08267 -0.05632
 O38 O 1.11132 0.52177 0.56623
 O39 O 0.91662 0.46816 0.55650
 O40 O 0.99563 0.58888 0.56564
 O41 O 1.03030 0.40626 0.56469
 O42 O 0.91609 0.55891 0.54218
 O43 O 1.11257 0.43484 0.55066
 O44 O 0.94097 0.39981 0.52383
 O45 O 1.09158 0.59410 0.53699
 C46 C 1.11161 0.56957 0.56948
 C47 C 0.91762 0.42000 0.55628
 C48 C 0.94460 0.58331 0.57140
 C49 C 1.08001 0.41088 0.57622
 O50 O 1.11119 0.45843 0.45644
 O51 O 0.92623 0.53826 0.44989
 O52 O 1.05162 0.58832 0.45347
 O53 O 0.99239 0.41139 0.44704
 O54 O 0.91399 0.44925 0.46181
 O55 O 1.12573 0.54626 0.47449
 O56 O 1.08019 0.39226 0.48748
 O57 O 0.95825 0.60455 0.48268
 Co58 Co 1.10657 0.49089 0.51133
 Co59 Co 0.92705 0.50300 0.50318
 Co60 Co 1.02368 0.58418 0.50952
 Co61 Co 1.01163 0.41219 0.50594
 O62 O 1.01723 0.49782 0.50748
 C63 C 1.10383 0.41093 0.45482
 C64 C 0.93543 0.58550 0.44881
 C65 C 1.10061 0.57508 0.44623
 C66 C 0.94351 0.42186 0.43571
 O67 O 0.60916 0.04981 0.53299
 O68 O 0.39128 -0.05437 0.51604
 O69 O 0.44025 0.10249 0.52164
 O70 O 0.55912 -0.10587 0.52139
 O71 O 0.40225 0.03047 0.53847
 O72 O 0.58986 -0.03888 0.55379
 O73 O 0.46524 -0.08738 0.54558
 O74 O 0.53348 0.08779 0.55242
 C75 C 0.58311 0.07725 0.56083
 C76 C 0.41474 -0.07757 0.54838
 C77 C 0.40979 0.07676 0.54737
 C78 C 0.58059 -0.08623 0.55556
 O79 O 0.60554 -0.06669 0.46316
 O80 O 0.40316 0.06513 0.45232
 O81 O 0.57584 0.09611 0.46798
 O82 O 0.43293 -0.09649 0.45848
 O83 O 0.41193 -0.02525 0.42679
 O84 O 0.60530 0.02223 0.44450
 O85 O 0.52669 -0.08886 0.43562
 O86 O 0.48331 0.09481 0.43676
 Co87 Co 0.59280 -0.00794 0.49826
 Co88 Co 0.41187 0.00344 0.48365
 Co89 Co 0.50749 0.08583 0.49444
 Co90 Co 0.49668 -0.08514 0.49057
 O91 O 0.50229 -0.00053 0.49174
 C92 C 0.57763 -0.08621 0.43137
 C93 C 0.43345 0.09064 0.42652
 C94 C 0.60230 0.07008 0.43945
 C95 C 0.41470 -0.07358 0.42446
 O96 O 0.58888 0.53090 0.06565
 O97 O 0.39491 0.45775 0.05022
 O98 O 0.45350 0.59751 0.05899
 O99 O 0.54983 0.38293 0.01598
 O100 O 0.38413 0.55141 0.03270
 O101 O 0.57582 0.44418 0.05702
 O102 O 0.47414 0.42156 0.06352
 O103 O 0.55611 0.60490 0.04341
 C104 C 0.58557 0.57873 0.07028
 C105 C 0.42580 0.43034 0.07541
 C106 C 0.40398 0.58278 0.06157
 C107 C 0.57956 0.39710 0.04821
 O108 O 0.59048 0.45160 -0.03602
 O109 O 0.40590 0.52872 -0.05483
 O110 O 0.53627 0.60043 -0.04303
 O111 O 0.44650 0.37005 -0.00750
 O112 O 0.40944 0.43868 -0.03915
 O113 O 0.60467 0.54650 -0.02367
 O114 O 0.50748 0.42588 -0.05504
 O115 O 0.43245 0.60289 -0.02851
 Co116 Co 0.58256 0.49387 0.01469
 Co117 Co 0.40710 0.49515 -0.00149
 Co118 Co 0.49447 0.59220 0.00773
 Co119 Co 0.48942 0.42666 0.00429
 O120 O 0.49606 0.50567 0.00749
 C121 C 0.55775 0.43037 -0.06447
 C122 C 0.40887 0.57679 -0.05893
 C123 C 0.58490 0.58281 -0.04851
 C124 C 0.40616 0.39008 -0.03152
 C125 C 1.17259 0.14022 0.16255
 C126 C 1.12252 0.16279 0.14627
 N127 N 1.10499 0.20940 0.16335
 C128 C 1.13607 0.23508 0.19510
 C129 C 1.18766 0.21389 0.20943
 N130 N 1.20439 0.16665 0.19306
 N131 N 1.18990 0.09336 0.14609
 C132 C 1.15992 0.06834 0.11343
 C133 C 1.11116 0.09194 0.09540
 N134 N 1.09335 0.13860 0.11261
 H135 H 1.12184 0.27268 0.20752
 H136 H 1.17518 0.03132 0.10051
 C137 C 1.19255 0.64874 0.67727
 C138 C 1.15777 0.67579 0.64636
 N139 N 1.15161 0.72844 0.64997
 C140 C 1.17946 0.75552 0.68257
 C141 C 1.21568 0.72897 0.71262
 N142 N 1.22121 0.67596 0.70953
 N143 N 1.19854 0.59598 0.67342
 C144 C 1.17189 0.56917 0.63979
 C145 C 1.13841 0.59646 0.60800
 N146 N 1.13196 0.64921 0.61242
 H147 H 1.17456 0.79766 0.68419
 H148 H 1.17778 0.52719 0.63731
 C149 C 0.67554 0.15297 0.66491
 C150 C 0.62339 0.17296 0.65061
 N151 N 0.60499 0.21928 0.66772
 C152 C 0.63646 0.24666 0.69819
 C153 C 0.68869 0.22679 0.71252
 N154 N 0.70697 0.18033 0.69530
 N155 N 0.69503 0.10772 0.64668
 C156 C 0.66518 0.08182 0.61434
 C157 C 0.61324 0.10196 0.59928
 N158 N 0.59340 0.14707 0.61823
 H159 H 0.62148 0.28419 0.71012
 H160 H 0.68224 0.04622 0.60001
 C161 C 0.68469 0.64753 0.17321
 C162 C 0.64858 0.67890 0.14673
 N163 N 0.64728 0.73152 0.15383
 C164 C 0.68056 0.75395 0.18609
 C165 C 0.71675 0.72237 0.21236
 N166 N 0.71811 0.67001 0.20480
 N167 N 0.68661 0.59514 0.16650
 C168 C 0.65427 0.57241 0.13421
 C169 C 0.61853 0.60349 0.10684
 N170 N 0.61641 0.65630 0.11390
 H171 H 0.67951 0.79600 0.19069
 H172 H 0.65714 0.53041 0.12964
 C173 C 0.83509 -0.13296 0.17912
 C174 C 0.87093 -0.16019 0.15016
 N175 N 0.87973 -0.21235 0.15601
 C176 C 0.85314 -0.23893 0.18897
 C177 C 0.81588 -0.21218 0.21695
 N178 N 0.80796 -0.15966 0.21163
 N179 N 0.82509 -0.08107 0.17223
 C180 C 0.84844 -0.05536 0.13704
 C181 C 0.88257 -0.08314 0.10698
 N182 N 0.89347 -0.13478 0.11482
 H183 H 0.85915 -0.28086 0.19198
 H184 H 0.83895 -0.01427 0.13175
 C185 C 0.83815 0.32225 0.65040
 C186 C 0.82818 0.37663 0.65070
 N187 N 0.79131 0.39706 0.68039
 C188 C 0.76407 0.36568 0.70975
 C189 C 0.77418 0.31132 0.70953
 N190 N 0.81097 0.29094 0.67967
 N191 N 0.87435 0.30152 0.62048
 C192 C 0.90079 0.33252 0.59054
 C193 C 0.89070 0.38697 0.59030
 N194 N 0.85466 0.40785 0.62071
 H195 H 0.73438 0.38315 0.73251
 H196 H 0.92925 0.31462 0.56697
 C197 C 0.31714 -0.13997 0.65181
 C198 C 0.37465 -0.15105 0.65032
 N199 N 0.39797 -0.18456 0.68098
 C200 C 0.36613 -0.20797 0.71269
 C201 C 0.30848 -0.19757 0.71340
 N202 N 0.28552 -0.16362 0.68306
 N203 N 0.29335 -0.10729 0.62094
 C204 C 0.32435 -0.08561 0.58805
 C205 C 0.38171 -0.09747 0.58571
 N206 N 0.40570 -0.12966 0.61724
 H207 H 0.38542 -0.23535 0.73613
 H208 H 0.30410 -0.06012 0.56350
 C209 C 0.35595 0.33431 0.17447
 C210 C 0.32240 0.36418 0.14460
 N211 N 0.26643 0.35792 0.14373
 C212 C 0.24208 0.32319 0.17150
 C213 C 0.27505 0.29336 0.20172
 N214 N 0.33153 0.29962 0.20284
 N215 N 0.41232 0.34018 0.17404
 C216 C 0.43649 0.37372 0.14449
 C217 C 0.40265 0.40285 0.11415
 N218 N 0.34641 0.39745 0.11542
 H219 H 0.19711 0.32021 0.17075
 H220 H 0.48158 0.37626 0.14362
 C221 C 0.80512 0.14820 -0.17612
 C222 C 0.85541 0.16965 -0.15990
 N223 N 0.87196 0.21692 -0.17555
 C224 C 0.83987 0.24433 -0.20580
 C225 C 0.78818 0.22424 -0.22033
 N226 N 0.77222 0.17630 -0.20531
 N227 N 0.78877 0.10075 -0.16075
 C228 C 0.81980 0.07418 -0.12926
 C229 C 0.86885 0.09665 -0.11123
 N230 N 0.88564 0.14386 -0.12744
 H231 H 0.85362 0.28236 -0.21701
 H232 H 0.80507 0.03685 -0.11713
 C233 C 0.87378 0.68339 0.34431
 C234 C 0.84983 0.63431 0.35231
 N235 N 0.80347 0.62005 0.32871
 C236 C 0.77976 0.65262 0.29751
 C237 C 0.80390 0.70157 0.28892
 N238 N 0.85033 0.71582 0.31286
 N239 N 0.91836 0.69886 0.36969
 C240 C 0.93968 0.66767 0.40306
 C241 C 0.91550 0.61864 0.41131
 N242 N 0.87135 0.60297 0.38534
 H243 H 0.74109 0.64101 0.28150
 H244 H 0.97495 0.68110 0.42308
 C245 C 0.35960 0.17945 0.31999
 C246 C 0.32808 0.14414 0.34539
 N247 N 0.27241 0.14021 0.33744
 C248 C 0.24649 0.17043 0.30568
 C249 C 0.27738 0.20655 0.28075
 N250 N 0.33355 0.21027 0.28832
 N251 N 0.41532 0.18349 0.32865
 C252 C 0.44072 0.15438 0.36178
 C253 C 0.40885 0.11993 0.38795
 N254 N 0.35324 0.11559 0.37867
 H255 H 0.20176 0.16715 0.30070
 H256 H 0.48505 0.15888 0.36820
 C257 C 0.32588 0.65281 -0.16791
 C258 C 0.35834 0.68125 -0.13659
 N259 N 0.36198 0.73398 -0.14063
 C260 C 0.33431 0.75968 -0.17439
 C261 C 0.30128 0.73152 -0.20534
 N262 N 0.29780 0.67857 -0.20153
 N263 N 0.32234 0.60004 -0.16370
 C264 C 0.34941 0.57444 -0.12945
 C265 C 0.38122 0.60293 -0.09761
 N266 N 0.38497 0.65579 -0.10220
 H267 H 0.33759 0.80185 -0.17676
 H268 H 0.34549 0.53235 -0.12680
 C269 C 1.14155 -0.16913 -0.17053
 C270 C 1.15952 -0.11746 -0.16339
 N271 N 1.20549 -0.10008 -0.18485
 C272 C 1.23486 -0.13232 -0.21250
 C273 C 1.21788 -0.18441 -0.21837
 N274 N 1.17139 -0.20148 -0.19744
 N275 N 1.09631 -0.18700 -0.14856
 C276 C 1.06904 -0.15607 -0.11870
 C277 C 1.08843 -0.10516 -0.10978
 N278 N 1.13283 -0.08674 -0.13296
 H279 H 1.27216 -0.11791 -0.22828
 H280 H 1.03378 -0.17180 -0.10087
 C281 C 1.15379 0.31218 0.34866
 C282 C 1.16658 0.36584 0.34797
 N283 N 1.19722 0.38521 0.31383
 C284 C 1.21642 0.35325 0.28076
 C285 C 1.20448 0.29937 0.28190
 N286 N 1.17311 0.28026 0.31579
 N287 N 1.12445 0.29237 0.38330
 C288 C 1.10771 0.32367 0.41757
 C289 C 1.12110 0.37729 0.41738
 N290 N 1.14993 0.39727 0.38227
 H291 H 1.24232 0.36987 0.25503
 H292 H 1.08453 0.30661 0.44486
 C293 C 0.65360 -0.16727 0.32429
 C294 C 0.68633 -0.14224 0.35758
 N295 N 0.74277 -0.14704 0.35672
 C296 C 0.76791 -0.17653 0.32457
 C297 C 0.73509 -0.20299 0.29237
 N298 N 0.67865 -0.19740 0.29267
 N299 N 0.59722 -0.16252 0.32509
 C300 C 0.57190 -0.13478 0.35822
 C301 C 0.60437 -0.11144 0.39265
 N302 N 0.66103 -0.11523 0.39113
 H303 H 0.81297 -0.18029 0.32484
 H304 H 0.52682 -0.13194 0.35812
 C305 C 0.62439 0.34304 -0.17229
 C306 C 0.65909 0.37248 -0.14340
 N307 N 0.71525 0.36959 -0.14776
 C308 C 0.73848 0.33836 -0.17954
 C309 C 0.70415 0.30824 -0.20815
 N310 N 0.64764 0.31139 -0.20401
 N311 N 0.56812 0.34600 -0.16755
 C312 C 0.54510 0.37628 -0.13475
 C313 C 0.57997 0.40463 -0.10496
 N314 N 0.63622 0.40216 -0.11042
 H315 H 0.78339 0.33746 -0.18255
 H316 H 0.50018 0.37679 -0.13103
 C317 C 1.18151 0.13347 -0.16809
 C318 C 1.13211 0.16072 -0.15739
 N319 N 1.12214 0.20848 -0.17563
 C320 C 1.15917 0.23049 -0.20393
 C321 C 1.20833 0.20323 -0.21557
 N322 N 1.21865 0.15538 -0.19676
 N323 N 1.19326 0.08733 -0.14716
 C324 C 1.15847 0.06781 -0.11553
 C325 C 1.10953 0.09557 -0.10428
 N326 N 1.09725 0.14116 -0.12600
 H327 H 1.15140 0.27026 -0.21472
 H328 H 1.16945 0.03148 -0.09868
 C329 C 1.18588 0.64429 0.33734
 C330 C 1.14045 0.66959 0.35778
 N331 N 1.12509 0.71832 0.34421
 C332 C 1.15287 0.74306 0.31096
 C333 C 1.19731 0.71753 0.28925
 N334 N 1.21325 0.66865 0.30325
 N335 N 1.20267 0.59647 0.35286
 C336 C 1.17617 0.57299 0.38784
 C337 C 1.13018 0.59810 0.40782
 N338 N 1.11349 0.64581 0.39199
 H339 H 1.14022 0.78246 0.30160
 H340 H 1.19051 0.53503 0.39970
 C341 C 0.69495 0.14276 0.33663
 C342 C 0.64424 0.16480 0.35100
 N343 N 0.62538 0.21005 0.33188
 C344 C 0.65551 0.23485 0.29982
 C345 C 0.70744 0.21417 0.28692
 N346 N 0.72585 0.16836 0.30560
 N347 N 0.71337 0.09704 0.35510
 C348 C 0.68370 0.07255 0.38756
 C349 C 0.63398 0.09545 0.40330
 N350 N 0.61528 0.14111 0.38437
 H351 H 0.64013 0.27152 0.28594
 H352 H 0.69948 0.03615 0.40173
 C353 C 0.68447 0.64472 -0.15254
 C354 C 0.62839 0.66021 -0.14843
 N355 N 0.60649 0.69637 -0.17750
 C356 C 0.63837 0.71829 -0.21006
 C357 C 0.69483 0.70368 -0.21351
 N358 N 0.71640 0.66701 -0.18466
 N359 N 0.70665 0.60897 -0.12336
 C360 C 0.67545 0.58814 -0.08997
 C361 C 0.61943 0.60414 -0.08507
 N362 N 0.59722 0.63977 -0.11479
 H363 H 0.62026 0.74803 -0.23190
 H364 H 0.69446 0.55978 -0.06721
 C365 C 0.79702 -0.16225 -0.15290
 C366 C 0.85416 -0.17369 -0.14760
 N367 N 0.87769 -0.21200 -0.17288
 C368 C 0.84679 -0.23909 -0.20371
 C369 C 0.78985 -0.22679 -0.20992
 N370 N 0.76634 -0.18901 -0.18382
 N371 N 0.77307 -0.12482 -0.12689
 C372 C 0.80379 -0.09829 -0.09560
 C373 C 0.86109 -0.10958 -0.09034
 N374 N 0.88493 -0.14702 -0.11663
 H375 H 0.86675 -0.27021 -0.22204
 H376 H 0.78374 -0.06866 -0.07517
 C377 C 0.87093 0.33436 0.32963
 C378 C 0.83751 0.36385 0.35896
 N379 N 0.78111 0.36073 0.35545
 C380 C 0.75659 0.32905 0.32421
 C381 C 0.78986 0.29879 0.29528
 N382 N 0.84638 0.30254 0.29856
 N383 N 0.92738 0.33697 0.33352
 C384 C 0.95196 0.36698 0.36599
 C385 C 0.91856 0.39551 0.39623
 N386 N 0.86197 0.39353 0.39159
 H387 H 0.71153 0.32764 0.32205
 H388 H 0.99709 0.36745 0.36890
 C389 C 0.34189 -0.17676 0.33039
 C390 C 0.32253 -0.12469 0.33240
 N391 N 0.27679 -0.11053 0.30736
 C392 C 0.24978 -0.14599 0.28056
 C393 C 0.26905 -0.19827 0.27909
 N394 N 0.31433 -0.21213 0.30460
 N395 N 0.38717 -0.19168 0.35509
 C396 C 0.41337 -0.15732 0.38280
 C397 C 0.39299 -0.10563 0.38683
 N398 N 0.34808 -0.09015 0.36103
 H399 H 0.21298 -0.13359 0.26169
 H400 H 0.44864 -0.17099 0.40297
 C401 C 0.31026 0.31708 -0.13184
 C402 C 0.36620 0.30194 -0.12435
 N403 N 0.39110 0.26845 -0.15357
 C404 C 0.36264 0.24965 -0.19012
 C405 C 0.30707 0.26560 -0.19800
 N406 N 0.28202 0.29849 -0.16834
 N407 N 0.28553 0.35126 -0.10323
 C408 C 0.31468 0.37214 -0.06802
 C409 C 0.37102 0.35822 -0.06111
 N410 N 0.39544 0.32305 -0.08930
 H411 H 0.38311 0.22225 -0.21238
 H412 H 0.29463 0.40074 -0.04660
 C413 C 1.17627 -0.15782 0.14934
 C414 C 1.11954 -0.17108 0.14566
 N415 N 1.09903 -0.20904 0.17268
 C416 C 1.13250 -0.23382 0.20363
 C417 C 1.18896 -0.21946 0.20813
 N418 N 1.20946 -0.18224 0.18032
 N419 N 1.19740 -0.12082 0.12184
 C420 C 1.16443 -0.09657 0.09049
 C421 C 1.10760 -0.10966 0.08656
 N422 N 1.08632 -0.14662 0.11444
 H423 H 1.11500 -0.26446 0.22407
 H424 H 1.18253 -0.06743 0.06874
 C425 C 1.15133 0.31650 0.67785
 C426 C 1.18021 0.36007 0.66180
 N427 N 1.23334 0.36892 0.67662
 C428 C 1.25904 0.33561 0.70641
 C429 C 1.23059 0.29114 0.72118
 N430 N 1.17761 0.28267 0.70615
 N431 N 1.09815 0.30760 0.66372
 C432 C 1.07271 0.33977 0.63321
 C433 C 1.10250 0.38179 0.61503
 N434 N 1.15551 0.39129 0.63015
 H435 H 1.30148 0.34308 0.71752
 H436 H 1.03069 0.33101 0.62165
 C437 C 0.64165 -0.19009 0.65604
 C438 C 0.66165 -0.13853 0.65404
 N439 N 0.70400 -0.12396 0.68219
 C440 C 0.72754 -0.15863 0.71188
 C441 C 0.70813 -0.21045 0.71340
 N442 N 0.66551 -0.22483 0.68533
 N443 N 0.60006 -0.20517 0.62750
 C444 C 0.57824 -0.17143 0.59640
 C445 C 0.59923 -0.12021 0.59319
 N446 N 0.64021 -0.10473 0.62259
 H447 H 0.76213 -0.14606 0.73298
 H448 H 0.54558 -0.18492 0.57366
 C449 C 0.66113 0.30061 0.14478
 C450 C 0.66517 0.35531 0.14610
 N451 N 0.69467 0.37872 0.17976
 C452 C 0.72067 0.34988 0.21241
 C453 C 0.71671 0.29507 0.21158
 N454 N 0.68700 0.27160 0.17759
 N455 N 0.63178 0.27761 0.11049
 C456 C 0.60599 0.30705 0.07769
 C457 C 0.60967 0.36191 0.07948
 N458 N 0.63935 0.38436 0.11376
 H459 H 0.74481 0.36987 0.23812
 H460 H 0.58219 0.28797 0.05113
 C461 C 0.80948 0.16054 0.15242
 C462 C 0.86800 0.16330 0.15463
 N463 N 0.89268 0.18957 0.18937
 C464 C 0.86152 0.21424 0.22126
 C465 C 0.80282 0.21317 0.21803
 N466 N 0.77853 0.18559 0.18385
 N467 N 0.78433 0.13487 0.11776
 C468 C 0.81495 0.11225 0.08477
 C469 C 0.87364 0.11583 0.08602
 N470 N 0.89893 0.14102 0.12135
 H471 H 0.88275 0.23518 0.24788
 H472 H 0.79344 0.09231 0.05745
 C473 C 0.86337 0.66673 0.67510
 C474 C 0.83295 0.63403 0.64591
 N475 N 0.77649 0.63154 0.64966
 C476 C 0.74916 0.66062 0.68112
 C477 C 0.77957 0.69386 0.70994
 N478 N 0.83596 0.69611 0.70593
 N479 N 0.91967 0.66971 0.67140
 C480 C 0.94707 0.64188 0.63936
 C481 C 0.91673 0.61000 0.60916
 N482 N 0.86018 0.60666 0.61345
 H483 H 0.70412 0.65857 0.68306
 H484 H 0.99194 0.64558 0.63690
 C485 C 0.32253 0.13851 0.65917
 C486 C 0.36736 0.16618 0.64061
 N487 N 0.38258 0.21258 0.65911
 C488 C 0.35464 0.23286 0.69477
 C489 C 0.30925 0.20575 0.71288
 N490 N 0.29417 0.15904 0.69459
 N491 N 0.30718 0.09220 0.64071
 C492 C 0.33448 0.07220 0.60467
 C493 C 0.37915 0.09986 0.58561
 N494 N 0.39457 0.14642 0.60422
 H495 H 0.36706 0.27045 0.70824
 H496 H 0.32114 0.03503 0.59089
 C497 C 0.29822 0.64961 0.16041
 C498 C 0.35358 0.66626 0.15594
 N499 N 0.37261 0.70623 0.18186
 C500 C 0.33882 0.73082 0.21179
 C501 C 0.28297 0.71477 0.21631
 N502 N 0.26414 0.67433 0.19024
 N503 N 0.27885 0.61050 0.13346
 C504 C 0.31212 0.58768 0.10200
 C505 C 0.36745 0.60488 0.09688
 N506 N 0.38678 0.64368 0.12444
 H507 H 0.35533 0.76395 0.23005
 H508 H 0.29531 0.55681 0.08089
   
