data_POSCAR
  _audit_creation_date              2014-09-24
  _audit_creation_method            'ToBaCCo'
  _symmetry_space_group_name_H-M    'P1'
  _symmetry_Int_Tables_number       1
  _symmetry_cell_setting            triclinic
  loop_
  _symmetry_equiv_pos_as_xyz
 x,y,z
_cell_length_a 15.8965
_cell_length_b 15.5230
_cell_length_c 15.4219
_cell_angle_alpha 89.708300
_cell_angle_beta 89.949800
_cell_angle_gamma 89.409200
loop_
  _atom_site_label
  _atom_site_type_symbol
  _atom_site_fract_x
  _atom_site_fract_y
  _atom_site_fract_z
N1 N 0.13254 1.31316 0.08612
 N2 N 0.09657 1.33550 0.15996
 C3 C 0.04360 1.40222 0.14544
 C4 C 0.04669 1.42259 0.05827
 C5 C 0.10354 1.36520 0.02260
 H6 H 0.00358 1.43137 0.19411
 H7 H 0.12148 1.36098 -0.04494
 Cu8 Cu 0.11456 1.27115 0.26839
 Cu9 Cu 0.21514 1.21811 0.07650
 Cu10 Cu 0.26470 1.11821 0.26307
 N11 N 0.11484 1.17435 0.34949
 N12 N 0.17329 1.11391 0.34676
 C13 C 0.15350 1.05094 0.40319
 C14 C 0.07940 1.07375 0.44445
 C15 C 0.05612 1.15200 0.40812
 H16 H 0.18763 0.99058 0.40965
 H17 H -0.00207 1.18712 0.41891
 N18 N 0.33564 1.10719 0.16118
 N19 N 0.31493 1.14542 0.08787
 C20 C 0.36807 1.11934 0.02527
 C21 C 0.42529 1.06226 0.06131
 C22 C 0.40318 1.05588 0.14770
 H23 H 0.36289 1.13707 -0.04245
 H24 H 0.43048 1.01274 0.19551
 H25 H 0.14563 1.17844 0.18308
 H26 H 0.23002 1.25929 0.20015
 N27 N 0.82768 0.65680 0.12632
 N28 N 0.89460 0.66498 0.17547
 C29 C 0.95561 0.61170 0.14665
 C30 C 0.92485 0.56704 0.07651
 C31 C 0.84351 0.59706 0.06534
 H32 H 1.01888 0.60846 0.17231
 H33 H 0.80106 0.58116 0.01317
 Cu34 Cu 0.89779 0.74856 0.26869
 Cu35 Cu 0.73045 0.73340 0.13829
 Cu36 Cu 0.78373 0.92763 0.23254
 N37 N 0.91013 0.84941 0.34099
 N38 N 0.86592 0.91993 0.32594
 C39 C 0.89163 0.98215 0.37988
 C40 C 0.95464 0.94846 0.43188
 C41 C 0.96509 0.86411 0.40545
 H42 H 0.86803 1.04778 0.37954
 H43 H 1.01178 0.81823 0.42832
 N44 N 0.68388 0.91338 0.15833
 N45 N 0.66184 0.83869 0.12518
 C46 C 0.59467 0.85093 0.07328
 C47 C 0.57382 0.93740 0.07376
 C48 C 0.63107 0.97499 0.12857
 H49 H 0.56734 0.80182 0.03292
 H50 H 0.63664 1.04307 0.14166
 H51 H 0.81896 0.82384 0.15582
 H52 H 0.75311 0.80302 0.25369
 N53 N 0.82009 1.34530 -0.11216
 N54 N 0.87884 1.34555 -0.17214
 C55 C 0.93944 1.40075 -0.14895
 C56 C 0.91681 1.43786 -0.07101
 C57 C 0.84110 1.40072 -0.04921
 H58 H 0.99840 1.40870 -0.18300
 H59 H 0.80692 1.40870 0.01095
 Cu60 Cu 0.87657 1.26507 -0.26807
 Cu61 Cu 0.72601 1.26618 -0.11518
 Cu62 Cu 0.74889 1.09532 -0.25817
 N63 N 0.89685 1.16367 -0.33850
 N64 N 0.84782 1.09622 -0.33255
 C65 C 0.87797 1.03351 -0.38421
 C66 C 0.94940 1.06351 -0.42482
 C67 C 0.96001 1.14616 -0.39409
 H68 H 0.85057 0.97039 -0.39097
 H69 H 1.01107 1.18936 -0.40889
 N70 N 0.66311 1.09846 -0.16595
 N71 N 0.65338 1.16414 -0.11267
 C72 C 0.59459 1.14419 -0.05317
 C73 C 0.56586 1.06251 -0.07017
 C74 C 0.61096 1.03509 -0.14142
 H75 H 0.57795 1.18366 0.00195
 H76 H 0.60919 0.97168 -0.17003
 H77 H 0.80389 1.17287 -0.16628
 H78 H 0.72845 1.22546 -0.24261
 N79 N 0.15470 0.66316 -0.09330
 N80 N 0.10383 0.65915 -0.16028
 C81 C 0.04209 0.60303 -0.14261
 C82 C 0.05530 0.57019 -0.06032
 C83 C 0.12693 0.60989 -0.03069
 H84 H -0.01034 0.58975 -0.18495
 H85 H 0.15570 0.60175 0.03239
 Cu86 Cu 0.11865 0.73382 -0.26039
 Cu87 Cu 0.25261 0.73739 -0.09315
 Cu88 Cu 0.27520 0.87690 -0.26804
 N89 N 0.11407 0.83302 -0.33770
 N90 N 0.17633 0.88794 -0.34165
 C91 C 0.15620 0.95161 -0.39762
 C92 C 0.07696 0.93588 -0.43014
 C93 C 0.05158 0.86063 -0.39010
 H94 H 0.19465 1.00742 -0.41016
 H95 H -0.00888 0.82988 -0.39631
 N96 N 0.35007 0.87735 -0.16630
 N97 N 0.33958 0.82677 -0.09814
 C98 C 0.39176 0.85210 -0.03465
 C99 C 0.43768 0.92101 -0.06467
 C100 C 0.40948 0.93562 -0.14802
 H101 H 0.39253 0.82619 0.03057
 H102 H 0.42579 0.98935 -0.18944
 H103 H 0.19856 0.83126 -0.17155
 H104 H 0.26905 0.75064 -0.22435
 Si105 Si 0.50072 0.99502 0.00094
 Si106 Si -0.01397 0.49843 1.00192
 Si107 Si 1.01563 0.00540 0.50584
   
