data_POSCAR
  _audit_creation_date              2014-09-24
  _audit_creation_method            'ToBaCCo'
  _symmetry_space_group_name_H-M    'P1'
  _symmetry_Int_Tables_number       1
  _symmetry_cell_setting            triclinic
  loop_
  _symmetry_equiv_pos_as_xyz
 x,y,z
_cell_length_a 14.5976
_cell_length_b 14.3284
_cell_length_c 15.6840
_cell_angle_alpha 90.394900
_cell_angle_beta 90.166900
_cell_angle_gamma 89.500500
loop_
  _atom_site_label
  _atom_site_type_symbol
  _atom_site_fract_x
  _atom_site_fract_y
  _atom_site_fract_z
C1 C 0.44397 1.01940 -0.58612
 C2 C 0.54125 1.00232 -0.59525
 C3 C 0.59360 0.98903 -0.51938
 C4 C 0.55437 0.99502 -0.43728
 C5 C 0.45691 1.00030 -0.43033
 C6 C 0.40515 1.01364 -0.50420
 H7 H 0.33133 1.01936 -0.49795
 H8 H 0.66718 0.98174 -0.52317
 C9 C -0.58357 1.45367 0.08660
 C10 C -0.57270 1.55191 0.08638
 C11 C -0.48553 1.58941 0.09443
 C12 C -0.40947 1.53428 0.07291
 C13 C -0.42097 1.43619 0.06830
 C14 C -0.50472 1.39783 0.09024
 H15 H -0.50996 1.32262 0.09163
 H16 H -0.47964 1.66451 0.09878
 C17 C 0.00108 0.45258 0.40725
 C18 C 0.00335 0.55197 0.41361
 C19 C 0.01971 0.59466 0.49239
 C20 C 0.02384 0.54259 0.56734
 C21 C 0.01092 0.44443 0.56266
 C22 C 0.00395 0.40055 0.48290
 H23 H -0.00329 0.32549 0.48084
 H24 H 0.02507 0.66999 0.49555
 O25 O -0.22829 0.97397 -0.13495
 O26 O 0.24272 1.00886 -0.11183
 O27 O -0.00067 1.11873 -0.23628
 O28 O 0.02587 0.85961 -0.22716
 O29 O 0.03826 0.75783 -0.11440
 O30 O -0.02181 1.22875 -0.13050
 O31 O 0.14116 0.99414 -0.22468
 O32 O -0.11660 0.99001 -0.23789
 Zr33 Zr 0.00929 0.99179 -0.16485
 O34 O 0.09561 0.92122 -0.08148
 O35 O -0.08606 1.06727 -0.09580
 C36 C -0.20217 0.98699 -0.21270
 C37 C 0.22378 0.99767 -0.19223
 C38 C -0.01593 1.20390 -0.20931
 C39 C 0.03835 0.77668 -0.19488
 H40 H 0.11768 1.12839 -0.12199
 O41 O 0.08021 1.08516 -0.08796
 H42 H -0.10228 0.85793 -0.12718
 O43 O -0.06885 0.90321 -0.09102
 O44 O 0.23134 1.02359 0.11623
 O45 O -0.24300 0.97998 0.08982
 O46 O 0.09154 1.24722 -0.00747
 O47 O 0.14381 0.77383 0.00103
 O48 O -0.08902 0.74670 -0.00875
 O49 O -0.14361 1.21904 -0.03201
 O50 O -0.01736 1.13849 0.20477
 O51 O -0.01043 0.88096 0.21474
 O52 O -0.02597 1.23926 0.09129
 O53 O 0.00616 0.76723 0.11098
 O54 O 0.21658 1.15046 0.00885
 O55 O -0.24606 1.09808 -0.02914
 O56 O -0.21572 0.84267 -0.00899
 O57 O 0.24684 0.89417 0.00249
 O58 O 0.11374 1.02420 0.21488
 O59 O -0.14359 1.00034 0.20318
 Zr60 Zr 0.16087 1.01380 -0.00130
 Zr61 Zr -0.15936 0.97968 -0.01838
 Zr62 Zr -0.01621 1.15517 -0.01712
 Zr63 Zr 0.01722 0.83963 -0.00493
 Zr64 Zr -0.01019 1.00551 0.14296
 O65 O -0.07821 0.91004 0.06691
 O66 O 0.06867 1.09137 0.06872
 C67 C 0.20027 1.02988 0.19350
 C68 C -0.22601 0.99093 0.17031
 C69 C 0.17668 1.23219 0.00830
 C70 C 0.22541 0.80657 0.00074
 C71 C -0.17557 0.76107 -0.00484
 C72 C -0.22512 1.18560 -0.03451
 C73 C -0.02036 1.22167 0.17169
 C74 C -0.00789 0.79469 0.18876
 H75 H -0.13945 1.11526 0.09153
 O76 O -0.09548 1.07530 0.05992
 H77 H 0.12532 0.89075 0.11525
 O78 O 0.08591 0.92706 0.07593
 N79 N 0.25339 1.11981 0.31448
 N80 N 0.32151 1.12260 0.37008
 C81 C 0.38211 1.05353 0.35075
 C82 C 0.34581 1.00647 0.27984
 N83 N 0.26558 1.05028 0.26003
 H84 H 0.37016 0.94198 0.25120
 N85 N -0.38967 1.00992 0.18954
 N86 N -0.45358 1.01402 0.24916
 C87 C -0.41172 1.00381 0.32512
 C88 C -0.31718 0.99373 0.30862
 N89 N -0.30705 0.99778 0.22318
 H90 H -0.26139 0.98367 0.35318
 N91 N -0.34933 1.05425 -0.23956
 N92 N -0.41689 1.05513 -0.29541
 C93 C -0.38847 1.00744 -0.36478
 C94 C -0.29709 0.97977 -0.34989
 N95 N -0.27667 1.00929 -0.26978
 H96 H -0.25318 0.93720 -0.39010
 N97 N 0.37555 0.93648 -0.22214
 N98 N 0.43888 0.93565 -0.28240
 C99 C 0.40579 0.98565 -0.34838
 C100 C 0.31711 1.01489 -0.32658
 N101 N 0.30173 0.98329 -0.24707
 H102 H 0.26980 1.05702 -0.36346
 N103 N 0.18875 1.39563 0.04417
 N104 N 0.25071 1.45693 0.06864
 C105 C 0.33173 1.41112 0.07126
 C106 C 0.31679 1.31873 0.04816
 N107 N 0.22745 1.31299 0.03070
 H108 H 0.36514 1.26156 0.04145
 N109 N 0.29684 0.67547 -0.06557
 N110 N 0.34062 0.59929 -0.04095
 C111 C 0.36333 0.61304 0.04140
 C112 C 0.33624 0.70150 0.06535
 N113 N 0.29542 0.73837 -0.00343
 H114 H 0.34173 0.73408 0.12764
 N115 N -0.18889 0.59506 0.01005
 N116 N -0.24854 0.53204 0.03432
 C117 C -0.32801 0.57777 0.04887
 C118 C -0.31466 0.67198 0.03273
 N119 N -0.22751 0.67893 0.00790
 H120 H -0.36206 0.73011 0.03833
 N121 N -0.29731 1.31973 -0.09567
 N122 N -0.34093 1.39441 -0.06618
 C123 C -0.36334 1.37544 0.01510
 C124 C -0.33691 1.28554 0.03287
 N125 N -0.29605 1.25293 -0.03779
 H126 H -0.34060 1.24991 0.09346
 N127 N 0.00215 1.38573 0.19195
 N128 N 0.00943 1.44925 0.25261
 C129 C -0.00258 1.40599 0.32767
 C130 C -0.01558 1.31124 0.31030
 N131 N -0.01325 1.30266 0.22484
 H132 H -0.02654 1.25453 0.35417
 N133 N -0.07836 1.35382 -0.24475
 N134 N -0.06954 1.42138 -0.30076
 C135 C -0.01205 1.38932 -0.36124
 C136 C 0.01229 1.29769 -0.34167
 N137 N -0.03047 1.27890 -0.26781
 H138 H 0.05935 1.25171 -0.37517
 N139 N 0.08761 0.61785 -0.22296
 N140 N 0.08328 0.55291 -0.28316
 C141 C 0.04236 0.59248 -0.35116
 C142 C 0.02337 0.68532 -0.33090
 N143 N 0.05249 0.69784 -0.25024
 H144 H -0.01186 0.73706 -0.36914
 N145 N -0.10060 0.66765 0.23711
 N146 N -0.09954 0.60087 0.29484
 C147 C -0.02380 0.61382 0.34274
 C148 C 0.02036 0.69277 0.31423
 N149 N -0.02981 0.72352 0.24800
 H150 H 0.08429 0.72202 0.33654
   
