data_POSCAR
  _audit_creation_date              2014-09-24
  _audit_creation_method            'ToBaCCo'
  _symmetry_space_group_name_H-M    'P1'
  _symmetry_Int_Tables_number       1
  _symmetry_cell_setting            triclinic
  loop_
  _symmetry_equiv_pos_as_xyz
 x,y,z
_cell_length_a 35.0102
_cell_length_b 34.9941
_cell_length_c 35.0043
_cell_angle_alpha 89.947600
_cell_angle_beta 90.043100
_cell_angle_gamma 89.870600
loop_
  _atom_site_label
  _atom_site_type_symbol
  _atom_site_fract_x
  _atom_site_fract_y
  _atom_site_fract_z
N1 N 0.35230 0.35541 1.35321
 N2 N 1.14537 0.64589 0.85409
 N3 N 0.64812 -0.14912 0.14678
 N4 N -0.14546 1.14690 -0.35252
 N5 N 0.64534 0.64788 0.64675
 N6 N 0.85251 0.35260 0.14787
 N7 N 0.35174 0.14706 0.85090
 N8 N 0.14947 0.85216 0.35362
 Zn9 Zn 0.00757 1.04616 -0.02192
 Zn10 Zn -0.03006 0.96962 -0.02925
 Zn11 Zn 0.04684 0.97646 0.00789
 Zn12 Zn -0.02230 1.00680 0.04751
 O13 O 0.00047 0.99972 0.00102
 O14 O -0.01660 1.04975 -0.06675
 O15 O -0.00679 0.92615 -0.04376
 O16 O 0.08591 1.00423 -0.00993
 O17 O -0.04454 0.99325 -0.07253
 O18 O 0.05672 1.05600 -0.03201
 O19 O 0.04993 0.93151 -0.01608
 O20 O 0.00583 0.98904 0.08648
 O21 O -0.07332 0.95535 -0.00565
 O22 O 0.05718 0.96655 0.05704
 O23 O -0.06723 0.98295 0.05102
 O24 O -0.03202 1.05602 0.05771
 O25 O -0.00977 1.08529 0.00619
 C26 C -0.03727 1.02645 -0.08511
 C27 C 0.02636 0.91331 -0.03660
 C28 C 0.08677 1.03661 -0.02614
 C29 C 0.03817 0.97271 0.08722
 C30 C -0.08574 0.96250 0.02762
 C31 C -0.02588 1.08615 0.03859
 Zn32 Zn 0.47889 0.00925 0.45187
 Zn33 Zn 0.47144 -0.02790 0.52873
 Zn34 Zn 0.54819 -0.02113 0.49139
 Zn35 Zn 0.50909 0.04860 0.52115
 O36 O 0.50186 0.00216 0.49833
 O37 O 0.43394 -0.01458 0.44855
 O38 O 0.49477 -0.07131 0.54338
 O39 O 0.55820 -0.03128 0.44225
 O40 O 0.42811 -0.04223 0.50525
 O41 O 0.50680 -0.00865 0.41288
 O42 O 0.55142 -0.06599 0.51562
 O43 O 0.55831 0.05849 0.53097
 O44 O 0.45704 -0.00421 0.57193
 O45 O 0.58738 0.00673 0.50883
 O46 O 0.48511 0.05223 0.56604
 O47 O 0.49158 0.08772 0.49303
 O48 O 0.46915 0.05848 0.44159
 C49 C 0.41554 -0.03506 0.47201
 C50 C 0.52791 -0.08415 0.53626
 C51 C 0.53905 -0.02515 0.41212
 C52 C 0.58834 0.03914 0.52492
 C53 C 0.46440 0.02897 0.58444
 C54 C 0.47533 0.08859 0.46068
 Zn55 Zn 0.95248 0.47774 0.49346
 Zn56 Zn 1.02928 0.47029 0.53077
 Zn57 Zn 1.02174 0.50794 0.45414
 Zn58 Zn 0.99171 0.54707 0.52366
 O59 O 0.99884 0.50072 0.50055
 O60 O 0.94921 0.43275 0.51744
 O61 O 1.07264 0.45596 0.50725
 O62 O 0.99371 0.49056 0.41501
 O63 O 1.00593 0.42690 0.54508
 O64 O 0.94237 0.46798 0.44425
 O65 O 1.06665 0.48387 0.45067
 O66 O 1.00949 0.58623 0.49590
 O67 O 1.04363 0.49359 0.57420
 O68 O 1.03169 0.55714 0.44425
 O69 O 1.01555 0.55019 0.56869
 O70 O 0.94249 0.55730 0.53329
 O71 O 0.91335 0.50578 0.51097
 C72 C 0.97274 0.41431 0.53793
 C73 C 1.08514 0.46326 0.47404
 C74 C 0.96143 0.47426 0.41414
 C75 C 1.02574 0.58717 0.46358
 C76 C 1.03622 0.52670 0.58698
 C77 C 0.91242 0.53818 0.52710
 Zn78 Zn 0.50629 0.45275 1.02257
 Zn79 Zn 0.46941 0.52988 1.02955
 Zn80 Zn 0.54595 0.52169 0.99201
 Zn81 Zn 0.47626 0.49208 0.95301
 O82 O 0.49943 0.49914 0.99933
 O83 O 0.48233 0.44977 1.06754
 O84 O 0.49320 0.57311 1.04368
 O85 O 0.58491 0.49344 1.00962
 O86 O 0.45500 0.50672 1.07305
 O87 O 0.55544 0.44230 1.03243
 O88 O 0.54969 0.56665 1.01580
 O89 O 0.50413 0.50945 0.91377
 O90 O 0.42605 0.54449 1.00614
 O91 O 0.55592 0.53136 0.94277
 O92 O 0.43139 0.51628 0.94970
 O93 O 0.46626 0.44291 0.94310
 O94 O 0.48848 0.41367 0.99476
 C95 C 0.46198 0.47350 1.08582
 C96 C 0.52647 0.58535 1.03632
 C97 C 0.58563 0.46118 1.02609
 C98 C 0.53657 0.52542 0.91276
 C99 C 0.41322 0.53711 0.97307
 C100 C 0.47226 0.41282 0.96239
 C101 C 1.27899 0.42176 0.39504
 C102 C 1.25108 0.39588 0.40720
 C103 C 1.25681 0.35662 0.40209
 C104 C 1.29018 0.34329 0.38467
 C105 C 1.31824 0.36911 0.37209
 C106 C 1.31238 0.40847 0.37761
 C107 C 1.21602 0.40966 0.42371
 C108 C 1.18639 0.42138 0.43679
 C109 C 1.15138 0.43544 0.45106
 C110 C 1.12125 0.44785 0.46221
 H111 H 1.27480 0.45222 0.39876
 H112 H 1.23531 0.33634 0.41120
 H113 H 1.29389 0.31287 0.38041
 H114 H 1.33370 0.42885 0.36836
 C115 C 0.21883 0.57937 0.89559
 C116 C 0.24689 0.60519 0.90754
 C117 C 0.24116 0.64447 0.90251
 C118 C 0.20766 0.65788 0.88531
 C119 C 0.17948 0.63213 0.87290
 C120 C 0.18531 0.59274 0.87839
 C121 C 0.28208 0.59130 0.92374
 C122 C 0.31182 0.57946 0.93653
 C123 C 0.34692 0.56524 0.95050
 C124 C 0.37710 0.55268 0.96142
 H125 H 0.22301 0.54890 0.89927
 H126 H 0.26276 0.66470 0.91147
 H127 H 0.20397 0.68832 0.88106
 H128 H 0.16391 0.57242 0.86925
 C129 C -0.25341 0.89158 0.13536
 C130 C -0.25034 0.89368 0.09555
 C131 C -0.28088 0.88192 0.07258
 C132 C -0.31433 0.86801 0.08938
 C133 C -0.31759 0.86575 0.12936
 C134 C -0.28679 0.87769 0.15218
 C135 C -0.21575 0.90789 0.07854
 C136 C -0.18642 0.91995 0.06520
 C137 C -0.15169 0.93436 0.05075
 C138 C -0.12172 0.94700 0.03952
 H139 H -0.22993 0.90054 0.15341
 H140 H -0.27883 0.88347 0.04174
 H141 H -0.33776 0.85914 0.07128
 H142 H -0.28847 0.87585 0.18301
 C143 C 0.75912 0.14513 0.59839
 C144 C 0.75374 0.10583 0.59341
 C145 C 0.78190 0.08011 0.60564
 C146 C 0.81519 0.09360 0.62304
 C147 C 0.82067 0.13301 0.62847
 C148 C 0.79239 0.15867 0.61579
 C149 C 0.71881 0.09185 0.57688
 C150 C 0.68928 0.08007 0.56371
 C151 C 0.65440 0.06610 0.54917
 C152 C 0.62436 0.05395 0.53758
 H153 H 0.73743 0.16528 0.58920
 H154 H 0.77799 0.04962 0.60199
 H155 H 0.83669 0.07336 0.63239
 H156 H 0.79582 0.18912 0.61998
 C157 C 0.39431 0.28227 0.41974
 C158 C 0.40645 0.25422 0.39393
 C159 C 0.40133 0.25983 0.35466
 C160 C 0.38387 0.29321 0.34125
 C161 C 0.37130 0.32139 0.36699
 C162 C 0.37686 0.31567 0.40636
 C163 C 0.42307 0.21920 0.40780
 C164 C 0.43632 0.18960 0.41952
 C165 C 0.45095 0.15467 0.43348
 C166 C 0.46261 0.12461 0.44569
 H167 H 0.39807 0.27818 0.45020
 H168 H 0.41044 0.23824 0.33445
 H169 H 0.37958 0.29683 0.31083
 H170 H 0.36759 0.33709 0.42667
 C171 C 0.90289 0.24262 0.64565
 C172 C 0.90788 0.24810 0.60636
 C173 C 0.89600 0.21987 0.58068
 C174 C 0.87889 0.18643 0.59420
 C175 C 0.87341 0.18086 0.63359
 C176 C 0.88578 0.20920 0.65921
 C177 C 0.92390 0.28325 0.59230
 C178 C 0.93654 0.31295 0.58033
 C179 C 0.95033 0.34802 0.56600
 C180 C 0.96115 0.37818 0.55341
 H181 H 0.91179 0.26437 0.66577
 H182 H 0.89965 0.22385 0.55020
 H183 H 0.86978 0.16490 0.57398
 H184 H 0.88153 0.20571 0.68965
 C185 C 0.10380 0.71891 -0.07917
 C186 C 0.09158 0.74705 -0.10491
 C187 C 0.09640 0.74150 -0.14420
 C188 C 0.11368 0.70810 -0.15772
 C189 C 0.12639 0.67985 -0.13205
 C190 C 0.12108 0.68549 -0.09265
 C191 C 0.07539 0.78219 -0.09091
 C192 C 0.06263 0.81189 -0.07899
 C193 C 0.04873 0.84697 -0.06470
 C194 C 0.03789 0.87715 -0.05213
 H195 H 0.10030 0.72295 -0.04869
 H196 H 0.08724 0.76318 -0.16436
 H197 H 0.11778 0.70455 -0.18816
 H198 H 0.13045 0.66402 -0.07240
 C199 C 0.57330 0.78066 1.11561
 C200 C 0.59598 0.74985 1.10385
 C201 C 0.63582 0.75255 1.10580
 C202 C 0.65295 0.78580 1.11962
 C203 C 0.63042 0.81684 1.13165
 C204 C 0.59041 0.81398 1.12944
 C205 C 0.57862 0.71532 1.08992
 C206 C 0.56496 0.68602 1.07813
 C207 C 0.55012 0.65131 1.06404
 C208 C 0.53861 0.62135 1.05164
 H209 H 0.54244 0.77890 1.11417
 H210 H 0.65365 0.72885 1.09684
 H211 H 0.68379 0.78717 1.12143
 H212 H 0.57252 0.83760 1.13838
 C213 C 0.35407 0.40422 1.25760
 C214 C 0.39337 0.40909 1.25213
 C215 C 0.41905 0.39705 1.28038
 C216 C 0.40554 0.37986 1.31379
 C217 C 0.36616 0.37446 1.31933
 C218 C 0.34052 0.38703 1.29100
 C219 C 0.40743 0.42510 1.21697
 C220 C 0.41943 0.43769 1.18725
 C221 C 0.43380 0.45139 1.15216
 C222 C 0.44644 0.46209 1.12198
 H223 H 0.33395 0.41325 1.23584
 H224 H 0.44953 0.40059 1.27641
 H225 H 0.42577 0.37059 1.33532
 H226 H 0.31009 0.38286 1.29447
 C227 C 0.61707 -0.07425 0.21714
 C228 C 0.60517 -0.09693 0.24784
 C229 C 0.60697 -0.13680 0.24503
 C230 C 0.62080 -0.15394 0.21176
 C231 C 0.63298 -0.13141 0.18083
 C232 C 0.63090 -0.09138 0.18380
 C233 C 0.59133 -0.07952 0.28241
 C234 C 0.57968 -0.06567 0.31170
 C235 C 0.56587 -0.05041 0.34636
 C236 C 0.55382 -0.03831 0.37624
 H237 H 0.61576 -0.04337 0.21900
 H238 H 0.59791 -0.15462 0.26866
 H239 H 0.62250 -0.18480 0.21029
 H240 H 0.63997 -0.07349 0.16026
 C241 C -0.14416 1.09815 -0.25688
 C242 C -0.10490 1.09313 -0.25112
 C243 C -0.07905 1.10528 -0.27908
 C244 C -0.09237 1.12263 -0.31255
 C245 C -0.13173 1.12807 -0.31841
 C246 C -0.15752 1.11550 -0.29031
 C247 C -0.09109 1.07670 -0.21601
 C248 C -0.07933 1.06369 -0.18634
 C249 C -0.06522 1.04946 -0.15132
 C250 C -0.05275 1.03832 -0.12119
 H251 H -0.16442 1.08905 -0.23534
 H252 H -0.04859 1.10161 -0.27489
 H253 H -0.07202 1.13188 -0.33389
 H254 H -0.18794 1.11971 -0.29403
 C255 C 1.14361 0.59716 0.75852
 C256 C 1.10433 0.59215 0.75306
 C257 C 1.07863 0.60419 0.78123
 C258 C 1.09212 0.62147 0.81460
 C259 C 1.13150 0.62696 0.82015
 C260 C 1.15714 0.61444 0.79187
 C261 C 1.09032 0.57591 0.71799
 C262 C 1.07842 0.56311 0.68833
 C263 C 1.06418 0.54916 0.65329
 C264 C 1.05166 0.53827 0.62313
 H265 H 1.16374 0.58813 0.73682
 H266 H 1.04816 0.60054 0.77726
 H267 H 1.07189 0.63070 0.83609
 H268 H 1.18756 0.61868 0.79535
 C269 C 0.74130 0.64546 0.59888
 C270 C 0.74664 0.60612 0.59395
 C271 C 0.71826 0.58059 0.60576
 C272 C 0.68480 0.59432 0.62273
 C273 C 0.67937 0.63377 0.62812
 C274 C 0.70787 0.65922 0.61585
 C275 C 0.78172 0.59189 0.57787
 C276 C 0.81135 0.57988 0.56506
 C277 C 0.84632 0.56564 0.55089
 C278 C 0.87639 0.55326 0.53956
 H279 H 0.76316 0.66546 0.59001
 H280 H 0.72213 0.55009 0.60214
 H281 H 0.66314 0.57423 0.63177
 H282 H 0.70448 0.68969 0.62003
 C283 C 0.75670 0.35445 1.09951
 C284 C 0.75110 0.39376 1.09455
 C285 C 0.77921 0.41947 1.10662
 C286 C 0.81268 0.40595 1.12381
 C287 C 0.81839 0.36653 1.12918
 C288 C 0.79014 0.34089 1.11671
 C289 C 0.71607 0.40776 1.07812
 C290 C 0.68648 0.41961 1.06500
 C291 C 0.65157 0.43371 1.05045
 C292 C 0.62156 0.44604 1.03883
 H293 H 0.73506 0.33431 1.09045
 H294 H 0.77514 0.44996 1.10298
 H295 H 0.83414 0.42618 1.13300
 H296 H 0.79375 0.31044 1.12086
 C297 C 0.25378 1.10528 -0.13725
 C298 C 0.25097 1.10306 -0.09743
 C299 C 0.28162 1.11485 -0.07461
 C300 C 0.31486 1.12899 -0.09158
 C301 C 0.31782 1.13151 -0.13157
 C302 C 0.28697 1.11942 -0.15424
 C303 C 0.21645 1.08901 -0.08016
 C304 C 0.18720 1.07725 -0.06642
 C305 C 0.15256 1.06336 -0.05126
 C306 C 0.12267 1.05131 -0.03922
 H307 H 0.23020 1.09632 -0.15517
 H308 H 0.27976 1.11322 -0.04376
 H309 H 0.33835 1.13798 -0.07359
 H310 H 0.28842 1.12146 -0.18507
 C311 C 0.22041 -0.11595 0.42756
 C312 C 0.25091 -0.10432 0.40450
 C313 C 0.24783 -0.10675 0.36471
 C314 C 0.21447 -0.12085 0.34800
 C315 C 0.18372 -0.13268 0.37091
 C316 C 0.18699 -0.13007 0.41087
 C317 C 0.28550 -0.08996 0.42141
 C318 C 0.31483 -0.07779 0.43467
 C319 C 0.34957 -0.06329 0.44904
 C320 C 0.37954 -0.05061 0.46021
 H321 H 0.22248 -0.11415 0.45839
 H322 H 0.27128 -0.09790 0.34659
 H323 H 0.21278 -0.12297 0.31719
 H324 H 0.16359 -0.13885 0.42905
 C325 C 0.59714 -0.25613 0.64459
 C326 C 0.59254 -0.25053 0.60525
 C327 C 0.60467 -0.27876 0.57964
 C328 C 0.62163 -0.31231 0.59328
 C329 C 0.62671 -0.31800 0.63272
 C330 C 0.61410 -0.28966 0.65826
 C331 C 0.57660 -0.21531 0.59110
 C332 C 0.56401 -0.18555 0.57905
 C333 C 0.55025 -0.15045 0.56462
 C334 C 0.53946 -0.12027 0.55192
 H335 H 0.58803 -0.23439 0.66466
 H336 H 0.60132 -0.27469 0.54913
 H337 H 0.63093 -0.33384 0.57311
 H338 H 0.61803 -0.29325 0.68874
 C339 C 1.13727 0.75419 0.39565
 C340 C 1.09743 0.75147 0.39753
 C341 C 1.07473 0.78219 0.38548
 C342 C 1.09182 0.81542 0.37139
 C343 C 1.13182 0.81828 0.36919
 C344 C 1.15438 0.78737 0.38157
 C345 C 1.08004 0.71695 0.41147
 C346 C 1.06620 0.68768 0.42315
 C347 C 1.05093 0.65303 0.43694
 C348 C 1.03884 0.62311 0.44893
 H349 H 1.15511 0.73056 0.40483
 H350 H 1.04387 0.78040 0.38683
 H351 H 1.07391 0.83895 0.36217
 H352 H 1.18522 0.78875 0.37978
 C353 C -0.09857 1.25700 0.14561
 C354 C -0.09381 1.25163 0.10627
 C355 C -0.10612 1.27987 0.08069
 C356 C -0.12340 1.31322 0.09436
 C357 C -0.12861 1.31868 0.13380
 C358 C -0.11585 1.29031 0.15931
 C359 C -0.07741 1.21666 0.09211
 C360 C -0.06435 1.18710 0.08016
 C361 C -0.04993 1.15220 0.06598
 C362 C -0.03844 1.12216 0.05364
 H363 H -0.08932 1.23524 0.16565
 H364 H -0.10264 1.27599 0.05019
 H365 H -0.13281 1.33478 0.07422
 H366 H -0.11987 1.29373 0.18978
 C367 C 0.36271 0.24515 0.89282
 C368 C 0.40250 0.24833 0.89487
 C369 C 0.42560 0.21796 0.88277
 C370 C 0.40894 0.18458 0.86855
 C371 C 0.36899 0.18122 0.86628
 C372 C 0.34603 0.21183 0.87861
 C373 C 0.41942 0.28294 0.90915
 C374 C 0.43285 0.31226 0.92114
 C375 C 0.44765 0.34696 0.93529
 C376 C 0.45941 0.37688 0.94754
 H377 H 0.34457 0.26851 0.90202
 H378 H 0.45643 0.22012 0.88426
 H379 H 0.42715 0.16129 0.85937
 H380 H 0.31522 0.21006 0.87677
 C381 C 0.57808 0.60651 0.71929
 C382 C 0.60363 0.59413 0.74752
 C383 C 0.64295 0.59895 0.74226
 C384 C 0.65668 0.61630 0.70904
 C385 C 0.63121 0.62908 0.68066
 C386 C 0.59178 0.62387 0.68603
 C387 C 0.58947 0.57755 0.78237
 C388 C 0.57759 0.56433 0.81185
 C389 C 0.56356 0.54971 0.84670
 C390 C 0.55139 0.53808 0.87672
 H391 H 0.54758 0.60299 0.72310
 H392 H 0.66296 0.58965 0.76401
 H393 H 0.68715 0.62033 0.70570
 H394 H 0.57167 0.63329 0.66446
 C395 C 0.38363 0.07338 0.77964
 C396 C 0.39530 0.09657 0.74922
 C397 C 0.39294 0.13637 0.75248
 C398 C 0.37885 0.15295 0.78592
 C399 C 0.36696 0.12991 0.81659
 C400 C 0.36953 0.08995 0.81315
 C401 C 0.40961 0.07978 0.71454
 C402 C 0.42172 0.06655 0.68515
 C403 C 0.43617 0.05216 0.65038
 C404 C 0.44884 0.04093 0.62041
 H405 H 0.38538 0.04255 0.77744
 H406 H 0.40182 0.15459 0.72908
 H407 H 0.37677 0.18377 0.78775
 H408 H 0.36071 0.07167 0.83649
 C409 C 0.11794 0.92606 0.28227
 C410 C 0.10601 0.90295 0.25190
 C411 C 0.10808 0.86314 0.25523
 C412 C 0.12213 0.84645 0.28869
 C413 C 0.13428 0.86941 0.31930
 C414 C 0.13201 0.90939 0.31579
 C415 C 0.09181 0.91988 0.21719
 C416 C 0.07983 0.93332 0.18780
 C417 C 0.06563 0.94811 0.15306
 C418 C 0.05326 0.95987 0.12312
 H419 H 0.11643 0.95690 0.28000
 H420 H 0.09899 0.84499 0.23188
 H421 H 0.12398 0.81562 0.29058
 H422 H 0.14105 0.92760 0.33908
 C423 C 0.85470 0.40118 0.24349
 C424 C 0.89401 0.40614 0.24881
 C425 C 0.91959 0.39404 0.22055
 C426 C 0.90596 0.37679 0.18723
 C427 C 0.86654 0.37140 0.18180
 C428 C 0.84103 0.38393 0.21019
 C429 C 0.90814 0.42256 0.28374
 C430 C 0.92005 0.43565 0.31327
 C431 C 0.93417 0.45012 0.34813
 C432 C 0.94646 0.46165 0.37815
 H433 H 0.83466 0.41026 0.26525
 H434 H 0.95008 0.39768 0.22440
 H435 H 0.92609 0.36757 0.16565
 H436 H 0.81058 0.37976 0.20681
   
