data_POSCAR
  _audit_creation_date              2014-09-24
  _audit_creation_method            'ToBaCCo'
  _symmetry_space_group_name_H-M    'P1'
  _symmetry_Int_Tables_number       1
  _symmetry_cell_setting            triclinic
  loop_
  _symmetry_equiv_pos_as_xyz
 x,y,z
_cell_length_a 36.4889
_cell_length_b 36.4872
_cell_length_c 23.9902
_cell_angle_alpha 89.990400
_cell_angle_beta 89.955300
_cell_angle_gamma 90.124300
loop_
  _atom_site_label
  _atom_site_type_symbol
  _atom_site_fract_x
  _atom_site_fract_y
  _atom_site_fract_z
O1 O -0.03731 0.28226 0.05359
 O2 O 0.03686 0.28155 -0.05288
 O3 O -0.03642 0.28284 -0.05473
 O4 O 0.03542 0.28207 0.05474
 O5 O 0.03423 0.22152 0.05323
 O6 O -0.03688 0.22228 -0.05352
 O7 O 0.03326 0.22115 -0.05487
 O8 O -0.03624 0.22171 0.05419
 Cu9 Cu -0.00035 0.28843 0.00006
 Cu10 Cu -0.00146 0.21572 -0.00023
 C11 C -0.04928 0.25172 0.07172
 C12 C 0.04781 0.25079 -0.07148
 C13 C -0.04913 0.25240 -0.07193
 C14 C 0.04730 0.25134 0.07180
 O15 O 0.53739 0.77837 0.44504
 O16 O 0.46477 0.77816 0.55360
 O17 O 0.53765 0.77848 0.55324
 O18 O 0.46453 0.77803 0.44556
 O19 O 0.46569 0.71748 0.44585
 O20 O 0.53657 0.71793 0.55334
 O21 O 0.46592 0.71761 0.55362
 O22 O 0.53633 0.71782 0.44531
 Cu23 Cu 0.50110 0.78446 0.49935
 Cu24 Cu 0.50118 0.71176 0.49955
 C25 C 0.54935 0.74781 0.42728
 C26 C 0.45278 0.74755 0.57136
 C27 C 0.54967 0.74796 0.57104
 C28 C 0.45247 0.74738 0.42808
 O29 O 1.03976 0.72350 0.05304
 O30 O 0.96664 0.72127 -0.05491
 O31 O 1.03983 0.72380 -0.05429
 O32 O 0.96658 0.72115 0.05353
 O33 O 0.96568 0.78169 0.05343
 O34 O 1.03619 0.78419 -0.05452
 O35 O 0.96575 0.78181 -0.05437
 O36 O 1.03611 0.78389 0.05377
 Cu37 Cu 1.00328 0.71621 -0.00069
 Cu38 Cu 1.00075 0.78880 -0.00041
 C39 C 1.05071 0.75445 0.07098
 C40 C 0.95364 0.75147 -0.07244
 C41 C 1.05082 0.75483 -0.07194
 C42 C 0.95356 0.75130 0.07126
 O43 O 0.53485 0.21724 0.55462
 O44 O 0.46208 0.21793 0.44658
 O45 O 0.53494 0.21749 0.44639
 O46 O 0.46196 0.21831 0.55452
 O47 O 0.46383 0.27885 0.55427
 O48 O 0.53440 0.27805 0.44645
 O49 O 0.46387 0.27848 0.44659
 O50 O 0.53437 0.27779 0.55446
 Cu51 Cu 0.49842 0.21152 0.50055
 Cu52 Cu 0.49924 0.28425 0.50044
 C53 C 0.54709 0.24772 0.57238
 C54 C 0.45039 0.24861 0.42892
 C55 C 0.54716 0.24799 0.42855
 C56 C 0.45028 0.24904 0.57205
 O57 O 0.72155 -0.03712 0.05186
 O58 O 0.72252 0.03716 -0.05434
 O59 O 0.72179 -0.03610 -0.05634
 O60 O 0.72173 0.03568 0.05336
 O61 O 0.78228 0.03496 0.05259
 O62 O 0.78234 -0.03604 -0.05469
 O63 O 0.78294 0.03431 -0.05558
 O64 O 0.78208 -0.03571 0.05304
 Cu65 Cu 0.71568 -0.00012 -0.00153
 Cu66 Cu 0.78835 -0.00061 -0.00107
 C67 C 0.75200 -0.04905 0.07010
 C68 C 0.75328 0.04854 -0.07251
 C69 C 0.75235 -0.04860 -0.07330
 C70 C 0.75232 0.04783 0.07081
 O71 O 0.21841 0.46409 0.55435
 O72 O 0.21793 0.53675 0.44590
 O73 O 0.21869 0.46383 0.44636
 O74 O 0.21799 0.53704 0.55408
 O75 O 0.27854 0.53633 0.55405
 O76 O 0.27923 0.46548 0.44657
 O77 O 0.27847 0.53608 0.44602
 O78 O 0.27895 0.46571 0.55426
 Cu79 Cu 0.21204 0.50040 0.50017
 Cu80 Cu 0.28475 0.50101 0.50024
 C81 C 0.24906 0.45230 0.57200
 C82 C 0.24845 0.54889 0.42808
 C83 C 0.24938 0.45199 0.42889
 C84 C 0.24850 0.54925 0.57182
 O85 O 0.27961 1.03962 0.05477
 O86 O 0.28326 0.96672 -0.05350
 O87 O 0.28018 1.03988 -0.05253
 O88 O 0.28302 0.96655 0.05499
 O89 O 0.22249 0.96484 0.05421
 O90 O 0.21984 1.03526 -0.05349
 O91 O 0.22273 0.96502 -0.05355
 O92 O 0.21925 1.03502 0.05473
 Cu93 Cu 0.28776 1.00336 0.00096
 Cu94 Cu 0.21516 0.99976 0.00041
 C95 C 0.24841 1.05000 0.07243
 C96 C 0.25324 0.95341 -0.07143
 C97 C 0.24913 1.05036 -0.07051
 C98 C 0.25289 0.95320 0.07242
 O99 O 0.77929 0.53513 0.55388
 O100 O 0.77808 0.46243 0.44569
 O101 O 0.77920 0.53523 0.44565
 O102 O 0.77792 0.46231 0.55369
 O103 O 0.71739 0.46420 0.55357
 O104 O 0.71864 0.53485 0.44579
 O105 O 0.71755 0.46429 0.44586
 O106 O 0.71874 0.53478 0.55385
 Cu107 Cu 0.78484 0.49872 0.49973
 Cu108 Cu 0.71212 0.49967 0.49978
 C109 C 0.74890 0.54742 0.57175
 C110 C 0.74733 0.45079 0.42807
 C111 C 0.74880 0.54753 0.42784
 C112 C 0.74714 0.45065 0.57129
 C113 C 0.22440 0.17921 0.18963
 C114 C 0.18959 0.19231 0.17551
 C115 C 0.17758 0.22738 0.18977
 C116 C 0.20109 0.25071 0.22031
 C117 C 0.23648 0.23805 0.23600
 C118 C 0.24821 0.20217 0.22077
 C119 C 0.28299 0.19026 0.23801
 C120 C 0.30643 0.21332 0.26740
 C121 C 0.29556 0.24879 0.28288
 C122 C 0.26014 0.26134 0.26719
 C123 C 0.19004 0.28601 0.23639
 C124 C 0.21341 0.30897 0.26599
 C125 C 0.24838 0.29717 0.28240
 C126 C 0.27230 0.32035 0.31268
 C127 C 0.30728 0.30770 0.32637
 C128 C 0.31922 0.27243 0.31281
 H129 H 0.29260 0.16287 0.22955
 H130 H 0.33330 0.20290 0.27752
 H131 H 0.16308 0.29635 0.22654
 H132 H 0.20371 0.33624 0.27535
 H133 H 0.17171 0.17527 0.15032
 H134 H 0.32517 0.32527 0.35071
 C135 C 0.72714 0.67779 0.30837
 C136 C 0.69200 0.69011 0.32190
 C137 C 0.67973 0.72523 0.30821
 C138 C 0.70320 0.74900 0.27812
 C139 C 0.73889 0.73685 0.26290
 C140 C 0.75101 0.70120 0.27834
 C141 C 0.78625 0.68982 0.26245
 C142 C 0.80959 0.71309 0.23314
 C143 C 0.79825 0.74829 0.21703
 C144 C 0.76252 0.76040 0.23211
 C145 C 0.69185 0.78418 0.26196
 C146 C 0.71517 0.80743 0.23260
 C147 C 0.75041 0.79606 0.21669
 C148 C 0.77429 0.81951 0.18675
 C149 C 0.80949 0.80724 0.17340
 C150 C 0.82180 0.77214 0.18722
 H151 H 0.79620 0.66269 0.27216
 H152 H 0.83674 0.70311 0.22363
 H153 H 0.66470 0.79416 0.27146
 H154 H 0.70520 0.83456 0.22295
 H155 H 0.67425 0.67241 0.34632
 H156 H 0.82732 0.82501 0.14924
 C157 C 0.82021 0.22714 0.18930
 C158 C 0.80855 0.19172 0.17588
 C159 C 0.77359 0.17872 0.18945
 C160 C 0.74936 0.20174 0.21937
 C161 C 0.76088 0.23770 0.23443
 C162 C 0.79634 0.25053 0.21906
 C163 C 0.80711 0.28603 0.23474
 C164 C 0.78345 0.30890 0.26387
 C165 C 0.74847 0.29682 0.28016
 C166 C 0.73691 0.26088 0.26506
 C167 C 0.71435 0.18968 0.23557
 C168 C 0.69066 0.21259 0.26471
 C169 C 0.70143 0.24809 0.28041
 C170 C 0.67757 0.27156 0.31016
 C171 C 0.68936 0.30693 0.32373
 C172 C 0.72436 0.31982 0.31023
 H173 H 0.83406 0.29657 0.22502
 H174 H 0.79296 0.33631 0.27299
 H175 H 0.70484 0.16229 0.22633
 H176 H 0.66370 0.20207 0.27445
 H177 H 0.82665 0.17435 0.15164
 H178 H 0.67136 0.32437 0.34802
 C179 C 0.32107 0.72575 0.31045
 C180 C 0.30779 0.69093 0.32406
 C181 C 0.27237 0.67941 0.31030
 C182 C 0.24916 0.70344 0.28039
 C183 C 0.26237 0.73868 0.26470
 C184 C 0.29839 0.74995 0.27998
 C185 C 0.31090 0.78472 0.26344
 C186 C 0.28841 0.80844 0.23381
 C187 C 0.25287 0.79794 0.21795
 C188 C 0.23955 0.76271 0.23352
 C189 C 0.21349 0.69309 0.26497
 C190 C 0.19088 0.71688 0.23549
 C191 C 0.20343 0.75153 0.21829
 C192 C 0.18091 0.77578 0.18729
 C193 C 0.19467 0.81045 0.17340
 C194 C 0.22994 0.82192 0.18780
 H195 H 0.33837 0.79398 0.27272
 H196 H 0.29930 0.83519 0.22368
 H197 H 0.20257 0.66639 0.27531
 H198 H 0.16333 0.70768 0.22697
 H199 H 0.32500 0.67281 0.34850
 H200 H 0.17796 0.82876 0.14852
 C201 C 0.81999 0.22816 0.81213
 C202 C 0.80848 0.19286 0.82629
 C203 C 0.77383 0.17917 0.81220
 C204 C 0.74960 0.20183 0.78142
 C205 C 0.76087 0.23794 0.76632
 C206 C 0.79612 0.25116 0.78191
 C207 C 0.80674 0.28667 0.76601
 C208 C 0.78310 0.30925 0.73644
 C209 C 0.74831 0.29686 0.71994
 C210 C 0.73691 0.26088 0.73524
 C211 C 0.71490 0.18941 0.76433
 C212 C 0.69116 0.21215 0.73502
 C213 C 0.70161 0.24782 0.71964
 C214 C 0.67766 0.27115 0.68985
 C215 C 0.68931 0.30654 0.67603
 C216 C 0.72421 0.31963 0.68948
 H217 H 0.83354 0.29746 0.77599
 H218 H 0.79247 0.33670 0.72718
 H219 H 0.70562 0.16187 0.77286
 H220 H 0.66440 0.20134 0.72479
 H221 H 0.82670 0.17606 0.85116
 H222 H 0.67126 0.32383 0.65162
 C223 C 0.32145 0.72616 0.68932
 C224 C 0.30806 0.69143 0.67546
 C225 C 0.27256 0.68002 0.68905
 C226 C 0.24940 0.70409 0.71901
 C227 C 0.26274 0.73923 0.73500
 C228 C 0.29884 0.75037 0.71992
 C229 C 0.31151 0.78501 0.73678
 C230 C 0.28908 0.80874 0.76655
 C231 C 0.25345 0.79839 0.78219
 C232 C 0.23998 0.76327 0.76629
 C233 C 0.21363 0.69390 0.73418
 C234 C 0.19107 0.71771 0.76374
 C235 C 0.20378 0.75222 0.78130
 C236 C 0.18132 0.77646 0.81245
 C237 C 0.19519 0.81104 0.82662
 C238 C 0.23055 0.82240 0.81242
 H239 H 0.33905 0.79416 0.72765
 H240 H 0.30009 0.83539 0.77700
 H241 H 0.20258 0.66730 0.72358
 H242 H 0.16343 0.70865 0.77200
 H243 H 0.32525 0.67330 0.65097
 H244 H 0.17849 0.82933 0.85157
 C245 C 0.22565 0.18055 0.81490
 C246 C 0.19103 0.19359 0.82990
 C247 C 0.17823 0.22825 0.81460
 C248 C 0.20133 0.25148 0.78286
 C249 C 0.23688 0.23902 0.76714
 C250 C 0.24903 0.20339 0.78294
 C251 C 0.28380 0.19157 0.76547
 C252 C 0.30690 0.21450 0.73526
 C253 C 0.29568 0.24974 0.71920
 C254 C 0.26023 0.26217 0.73510
 C255 C 0.18985 0.28639 0.76554
 C256 C 0.21302 0.30930 0.73538
 C257 C 0.24815 0.29775 0.71926
 C258 C 0.27190 0.32092 0.68857
 C259 C 0.30690 0.30837 0.67462
 C260 C 0.31907 0.27325 0.68849
 H261 H 0.29370 0.16437 0.77454
 H262 H 0.33381 0.20419 0.72501
 H263 H 0.16276 0.29654 0.77477
 H264 H 0.20299 0.33632 0.72523
 H265 H 0.17379 0.17653 0.85609
 H266 H 0.32462 0.32591 0.64989
 C267 C 0.72749 0.67799 0.69026
 C268 C 0.69242 0.69037 0.67650
 C269 C 0.68027 0.72562 0.68966
 C270 C 0.70382 0.74947 0.71941
 C271 C 0.73943 0.73725 0.73490
 C272 C 0.75141 0.70146 0.72001
 C273 C 0.78656 0.69001 0.73614
 C274 C 0.80995 0.71332 0.76521
 C275 C 0.79875 0.74866 0.78083
 C276 C 0.76312 0.76086 0.76543
 C277 C 0.69263 0.78482 0.73497
 C278 C 0.71601 0.80813 0.76403
 C279 C 0.75114 0.79666 0.78031
 C280 C 0.77502 0.82013 0.81011
 C281 C 0.81013 0.80778 0.82378
 C282 C 0.82234 0.77255 0.81046
 H283 H 0.79640 0.66277 0.72685
 H284 H 0.83704 0.70326 0.77493
 H285 H 0.66556 0.79489 0.72523
 H286 H 0.70616 0.83538 0.77316
 H287 H 0.67464 0.67260 0.65231
 H288 H 0.82794 0.82558 0.84788
 N289 N 0.21190 0.08670 0.13196
 C290 C 0.24509 0.07928 0.10926
 N291 N 0.27308 0.10328 0.11796
 N292 N 0.26739 0.13435 0.14612
 C293 C 0.23383 0.14211 0.16789
 N294 N 0.20650 0.11724 0.16088
 N295 N 0.77392 0.60427 0.61187
 C296 C 0.74754 0.57794 0.61140
 N297 N 0.71659 0.58330 0.64155
 N298 N 0.71171 0.61412 0.67008
 C299 C 0.73744 0.64104 0.66943
 N300 N 0.76885 0.63538 0.64010
 N301 N 0.72747 0.89345 0.10909
 C302 C 0.75362 0.92002 0.10908
 N303 N 0.78466 0.91458 0.13893
 N304 N 0.78981 0.88355 0.16684
 C305 C 0.76426 0.85647 0.16584
 N306 N 0.73280 0.86214 0.13672
 N307 N 0.28238 0.41583 0.63999
 C308 C 0.25105 0.42140 0.61094
 N309 N 0.22476 0.39497 0.61163
 N310 N 0.23022 0.36366 0.63919
 C311 C 0.26194 0.35786 0.66758
 N312 N 0.28766 0.38479 0.66784
 N313 N 0.89304 0.27532 0.11080
 C314 C 0.92013 0.24984 0.11120
 N315 N 0.91541 0.21892 0.14170
 N316 N 0.88454 0.21318 0.16983
 C317 C 0.85693 0.23801 0.16838
 N318 N 0.86189 0.26940 0.13866
 N319 N 0.41581 0.71423 0.63906
 C320 C 0.42194 0.74571 0.61051
 N321 N 0.39615 0.77249 0.61211
 N322 N 0.36489 0.76739 0.64005
 C323 C 0.35851 0.73554 0.66793
 N324 N 0.38483 0.70930 0.66729
 N325 N 0.08848 0.79013 0.13038
 C326 C 0.08023 0.75716 0.10756
 N327 N 0.10363 0.72872 0.11592
 N328 N 0.13491 0.73373 0.14387
 C329 C 0.14352 0.76708 0.16574
 N330 N 0.11925 0.79488 0.15906
 N331 N 0.58254 0.28011 0.64262
 C332 C 0.57765 0.24933 0.61190
 N333 N 0.60450 0.22359 0.61150
 N334 N 0.63565 0.22916 0.63946
 C335 C 0.64082 0.26042 0.66935
 N336 N 0.61340 0.28547 0.67088
 N337 N 0.78843 0.08646 0.86762
 C338 C 0.75562 0.07812 0.89095
 N339 N 0.72710 0.10152 0.88324
 N340 N 0.73194 0.13294 0.85551
 C341 C 0.76516 0.14165 0.83321
 N342 N 0.79299 0.11734 0.83915
 N343 N 0.22452 0.60639 0.38879
 C344 C 0.25017 0.57945 0.38846
 N345 N 0.28099 0.58425 0.35774
 N346 N 0.28646 0.61509 0.32942
 C347 C 0.26149 0.64259 0.33088
 N348 N 0.23019 0.63752 0.36077
 N349 N 0.27784 0.89572 0.89089
 C350 C 0.25250 0.92291 0.88882
 N351 N 0.22225 0.91812 0.85688
 N352 N 0.21697 0.88706 0.82909
 C353 C 0.24156 0.85931 0.83233
 N354 N 0.27237 0.86437 0.86334
 N355 N 0.77150 0.39379 0.38766
 C356 C 0.74512 0.41999 0.38902
 N357 N 0.71364 0.41433 0.36030
 N358 N 0.70833 0.38342 0.33211
 C359 C 0.73417 0.35671 0.33169
 N360 N 0.76601 0.36261 0.35977
 N361 N 0.10154 0.27633 0.88517
 C362 C 0.07728 0.24832 0.89189
 N363 N 0.08478 0.21558 0.86782
 N364 N 0.11567 0.21054 0.83966
 C365 C 0.14085 0.23779 0.83486
 N366 N 0.13299 0.27100 0.85777
 N367 N 0.60635 0.77230 0.38670
 C368 C 0.57989 0.74605 0.38763
 N369 N 0.58509 0.71491 0.35788
 N370 N 0.61585 0.70975 0.32926
 C371 C 0.64287 0.73538 0.32940
 N372 N 0.63740 0.76695 0.35837
 N373 N 0.89647 0.72626 0.88846
 C374 C 0.92293 0.75253 0.88813
 N375 N 0.91742 0.78334 0.85775
 N376 N 0.88640 0.78820 0.82972
 C377 C 0.85939 0.76259 0.83113
 N378 N 0.86516 0.73130 0.86071
 N379 N 0.41438 0.28186 0.36035
 C380 C 0.41954 0.25069 0.39001
 N381 N 0.39274 0.22478 0.39001
 N382 N 0.36146 0.23048 0.36255
 C383 C 0.35607 0.26205 0.33356
 N384 N 0.38338 0.28736 0.33257
 N385 N 0.72784 0.89424 0.88689
 C386 C 0.75412 0.92066 0.88745
 N387 N 0.78541 0.91511 0.85821
 N388 N 0.79067 0.88409 0.83034
 C389 C 0.76498 0.85713 0.83082
 N390 N 0.73328 0.86293 0.85933
 N391 N 0.28296 0.41524 0.36142
 C392 C 0.25149 0.42096 0.39016
 N393 N 0.22512 0.39462 0.38926
 N394 N 0.23060 0.36328 0.36180
 C395 C 0.26244 0.35734 0.33371
 N396 N 0.28827 0.38417 0.33367
 N397 N 0.21307 0.08743 0.87001
 C398 C 0.24609 0.07990 0.89311
 N399 N 0.27407 0.10407 0.88545
 N400 N 0.26852 0.13542 0.85795
 C401 C 0.23511 0.14329 0.83585
 N402 N 0.20781 0.11826 0.84175
 N403 N 0.71646 0.58321 0.35788
 C404 C 0.74738 0.57802 0.38810
 N405 N 0.77368 0.60444 0.38749
 N406 N 0.76855 0.63546 0.35903
 C407 C 0.73717 0.64094 0.32961
 N408 N 0.71152 0.61394 0.32913
 N409 N 0.10381 0.72924 0.88311
 C410 C 0.08043 0.75768 0.89164
 N411 N 0.08880 0.79075 0.86924
 N412 N 0.11966 0.79560 0.84076
 C413 C 0.14389 0.76778 0.83387
 N414 N 0.13518 0.73434 0.85536
 N415 N 0.60450 0.22390 0.38887
 C416 C 0.57769 0.24969 0.38888
 N417 N 0.58259 0.28058 0.35839
 N418 N 0.61339 0.28600 0.32995
 C419 C 0.64077 0.26089 0.33104
 N420 N 0.63559 0.22952 0.36071
 N421 N 0.89318 0.27626 0.88966
 C422 C 0.92029 0.25081 0.88864
 N423 N 0.91548 0.22003 0.85790
 N424 N 0.88447 0.21439 0.83017
 C425 C 0.85682 0.23915 0.83231
 N426 N 0.86189 0.27042 0.86222
 N427 N 0.41545 0.71397 0.36062
 C428 C 0.42152 0.74545 0.38918
 N429 N 0.39567 0.77217 0.38769
 N430 N 0.36441 0.76702 0.35983
 C431 C 0.35809 0.73518 0.33191
 N432 N 0.38447 0.70900 0.33247
 N433 N 0.27739 0.89551 0.11010
 C434 C 0.25193 0.92260 0.11195
 N435 N 0.22149 0.91765 0.14347
 N436 N 0.21615 0.88653 0.17110
 C437 C 0.24088 0.85889 0.16807
 N438 N 0.27186 0.86410 0.13746
 N439 N 0.77133 0.39369 0.61192
 C440 C 0.74486 0.41978 0.61029
 N441 N 0.71327 0.41401 0.63878
 N442 N 0.70797 0.38311 0.66703
 C443 C 0.73392 0.35652 0.66776
 N444 N 0.76585 0.36251 0.63988
 N445 N 0.72733 0.10437 0.11166
 C446 C 0.75404 0.07850 0.11021
 N447 N 0.78533 0.08439 0.13927
 N448 N 0.79017 0.11525 0.16777
 C449 C 0.76405 0.14169 0.16819
 N450 N 0.73236 0.13552 0.13985
 N451 N 0.22468 0.60699 0.61060
 C452 C 0.25024 0.57996 0.61118
 N453 N 0.28100 0.58475 0.64196
 N454 N 0.28651 0.61563 0.67012
 C455 C 0.26164 0.64321 0.66845
 N456 N 0.23040 0.63817 0.63847
 N457 N 0.89634 0.72594 0.11000
 C458 C 0.92276 0.75225 0.11055
 N459 N 0.91707 0.78305 0.14087
 N460 N 0.88591 0.78788 0.16862
 C461 C 0.85895 0.76223 0.16697
 N462 N 0.86490 0.73094 0.13749
 N463 N 0.41414 0.28265 0.64013
 C464 C 0.41937 0.25129 0.61096
 N465 N 0.39262 0.22533 0.61144
 N466 N 0.36134 0.23114 0.63895
 C467 C 0.35589 0.26289 0.66747
 N468 N 0.38313 0.28827 0.66793
 N469 N 0.08277 0.21803 0.14091
 C470 C 0.07784 0.24923 0.11122
 N471 N 0.10457 0.27520 0.11188
 N472 N 0.13564 0.26951 0.13991
 C473 C 0.14083 0.23789 0.16885
 N474 N 0.11354 0.21255 0.16927
 N475 N 0.60688 0.77247 0.61090
 C476 C 0.58036 0.74627 0.61042
 N477 N 0.58555 0.71526 0.64046
 N478 N 0.61634 0.71016 0.66897
 C479 C 0.64342 0.73574 0.66841
 N480 N 0.63796 0.76718 0.63911
   
