data_POSCAR
  _audit_creation_date              2014-09-24
  _audit_creation_method            'ToBaCCo'
  _symmetry_space_group_name_H-M    'P1'
  _symmetry_Int_Tables_number       1
  _symmetry_cell_setting            triclinic
  loop_
  _symmetry_equiv_pos_as_xyz
 x,y,z
_cell_length_a 28.0221
_cell_length_b 28.4906
_cell_length_c 40.0934
_cell_angle_alpha 88.858300
_cell_angle_beta 92.522400
_cell_angle_gamma 85.478500
loop_
  _atom_site_label
  _atom_site_type_symbol
  _atom_site_fract_x
  _atom_site_fract_y
  _atom_site_fract_z
O1 O -0.03833 0.53881 0.97033
 O2 O -0.03711 0.44776 1.03572
 O3 O -0.03201 0.53892 1.03517
 O4 O -0.03611 0.44727 0.97091
 O5 O 0.04287 0.44157 0.97168
 O6 O 0.04695 0.52961 1.03654
 O7 O 0.04175 0.43878 1.03672
 O8 O 0.04068 0.53346 0.97160
 Cu9 Cu -0.04372 0.49389 1.00296
 Cu10 Cu 0.05091 0.48507 1.00421
 C11 C 0.00051 0.55226 0.95988
 C12 C 0.00204 0.42715 1.04738
 C13 C 0.00858 0.54979 1.04681
 C14 C 0.00309 0.42888 0.96029
 O15 O 0.44548 0.05230 0.52793
 O16 O 0.53491 0.05864 0.46463
 O17 O 0.44295 0.05073 0.46305
 O18 O 0.53894 0.05393 0.52959
 O19 O 0.54883 -0.02360 0.52918
 O20 O 0.45361 -0.02681 0.46429
 O21 O 0.54580 -0.01879 0.46452
 O22 O 0.45607 -0.02528 0.52934
 Cu23 Cu 0.48951 0.06162 0.49633
 Cu24 Cu 0.50202 -0.03133 0.49686
 C25 C 0.43516 0.01277 0.53943
 C26 C 0.55595 0.02139 0.45366
 C27 C 0.43188 0.01100 0.45245
 C28 C 0.56067 0.01530 0.54041
 C29 C -0.07047 0.00505 0.26482
 C30 C -0.02936 0.01252 0.24751
 C31 C -0.02424 0.05662 0.23268
 C32 C -0.06007 0.09365 0.23494
 C33 C -0.10081 0.08597 0.25305
 C34 C -0.10628 0.04176 0.26806
 C35 C 0.00877 -0.02569 0.24531
 C36 C -0.00023 -0.06683 0.22845
 C37 C 0.03619 -0.10318 0.22592
 C38 C 0.08164 -0.09814 0.24120
 C39 C 0.09084 -0.05730 0.25881
 C40 C 0.05412 -0.02099 0.26033
 H41 H -0.07367 -0.02900 0.27670
 H42 H 0.00719 0.06143 0.21859
 H43 H -0.03529 -0.06983 0.21652
 H44 H 0.06007 0.01047 0.27417
 H45 H -0.12842 0.11435 0.25543
 H46 H 0.10977 -0.12620 0.23950
 C47 C 0.00324 -0.05747 0.77345
 C48 C -0.00749 -0.01732 0.75301
 C49 C -0.05099 -0.01156 0.73429
 C50 C -0.08423 -0.04588 0.73585
 C51 C -0.07315 -0.08599 0.75668
 C52 C -0.02945 -0.09218 0.77552
 C53 C 0.02707 0.01867 0.75117
 C54 C 0.06384 0.01405 0.72870
 C55 C 0.09793 0.04745 0.72758
 C56 C 0.09477 0.08576 0.74913
 C57 C 0.05736 0.09120 0.77142
 C58 C 0.02372 0.05717 0.77231
 H59 H 0.03681 -0.06116 0.78811
 H60 H -0.05834 0.01928 0.71807
 H61 H 0.06621 -0.01586 0.71239
 H62 H -0.00468 0.06004 0.78982
 H63 H -0.09855 -0.11261 0.75816
 H64 H 0.12058 0.11203 0.74776
 C65 C 0.05634 -0.40740 0.08854
 C66 C 0.06131 -0.37056 0.11046
 C67 C 0.02226 -0.33844 0.11647
 C68 C -0.02255 -0.34475 0.10046
 C69 C -0.02759 -0.38199 0.07858
 C70 C 0.01204 -0.41322 0.07201
 C71 C 0.03127 -0.29790 0.13797
 C72 C -0.00281 -0.26737 0.14934
 C73 C 0.00852 -0.22603 0.16932
 C74 C -0.02562 -0.20659 0.19076
 C75 C -0.01650 -0.16707 0.20944
 C76 C 0.02690 -0.14592 0.20686
 C77 C 0.06090 -0.16510 0.18519
 C78 C 0.05178 -0.20451 0.16649
 H79 H 0.08758 -0.43097 0.08418
 H80 H 0.09622 -0.36670 0.12235
 H81 H -0.05352 -0.32054 0.10381
 H82 H -0.06211 -0.38545 0.06603
 H83 H 0.06835 -0.29356 0.14505
 H84 H -0.04022 -0.27310 0.14498
 H85 H -0.05936 -0.22219 0.19320
 H86 H -0.04330 -0.15322 0.22608
 H87 H 0.09414 -0.14887 0.18206
 H88 H 0.07823 -0.21712 0.14925
 C89 C 0.04299 0.36707 0.08571
 C90 C 0.04070 0.33045 0.10931
 C91 C -0.00366 0.31718 0.11970
 C92 C -0.04583 0.34127 0.10574
 C93 C -0.04362 0.37785 0.08240
 C94 C 0.00075 0.39120 0.07181
 C95 C -0.00466 0.27650 0.14343
 C96 C -0.04329 0.26741 0.16043
 C97 C -0.04633 0.22397 0.18085
 C98 C -0.09134 0.20640 0.18390
 C99 C -0.09588 0.16452 0.20174
 C100 C -0.05551 0.13958 0.21749
 C101 C -0.01059 0.15813 0.21541
 C102 C -0.00598 0.19981 0.19721
 H103 H 0.07785 0.37612 0.07822
 H104 H 0.07376 0.31221 0.11936
 H105 H -0.08092 0.33143 0.11180
 H106 H -0.07710 0.39508 0.07222
 H107 H 0.02731 0.25254 0.14604
 H108 H -0.07539 0.29108 0.15810
 H109 H -0.12300 0.22450 0.17164
 H110 H -0.13090 0.15106 0.20239
 H111 H 0.02106 0.14048 0.22793
 H112 H 0.02903 0.21320 0.19632
 C113 C 0.39487 -0.02804 0.58537
 C114 C 0.35985 -0.02798 0.60927
 C115 C 0.32668 0.01119 0.61199
 C116 C 0.32990 0.05083 0.59106
 C117 C 0.36528 0.05111 0.56767
 C118 C 0.39801 0.01165 0.56444
 C119 C 0.29001 0.01094 0.63742
 C120 C 0.24576 0.03177 0.63170
 C121 C 0.20888 0.03369 0.65696
 C122 C 0.16058 0.03301 0.64636
 C123 C 0.12461 0.03680 0.66942
 C124 C 0.13626 0.04264 0.70341
 C125 C 0.18453 0.04396 0.71406
 C126 C 0.22064 0.03914 0.69106
 H127 H 0.41985 -0.05878 0.58357
 H128 H 0.35828 -0.05872 0.62540
 H129 H 0.30563 0.08202 0.59315
 H130 H 0.36683 0.08225 0.55194
 H131 H 0.29910 -0.00823 0.66074
 H132 H 0.23537 0.04654 0.60708
 H133 H 0.15070 0.02938 0.62016
 H134 H 0.08756 0.03606 0.66066
 H135 H 0.19423 0.04845 0.74018
 H136 H 0.25754 0.04092 0.69983
 C137 C -0.38593 0.05624 0.58083
 C138 C -0.34706 0.05472 0.60419
 C139 C -0.32099 0.01179 0.61314
 C140 C -0.33420 -0.02952 0.59776
 C141 C -0.37297 -0.02804 0.57469
 C142 C -0.39929 0.01477 0.56586
 C143 C -0.27887 0.01144 0.63704
 C144 C -0.26095 -0.02742 0.65425
 C145 C -0.21611 -0.03037 0.67544
 C146 C -0.19102 -0.07467 0.68071
 C147 C -0.14831 -0.07962 0.70015
 C148 C -0.12993 -0.04039 0.71530
 C149 C -0.15542 0.00399 0.71046
 C150 C -0.19807 0.00901 0.69072
 H151 H -0.40532 0.08981 0.57439
 H152 H -0.33728 0.08716 0.61530
 H153 H -0.31406 -0.06307 0.60259
 H154 H -0.38174 -0.06060 0.56329
 H155 H -0.26183 0.04401 0.63979
 H156 H -0.27853 -0.05970 0.65181
 H157 H -0.20415 -0.10558 0.66925
 H158 H -0.12930 -0.11416 0.70284
 H159 H -0.14275 0.03477 0.72233
 H160 H -0.21709 0.04350 0.68805
 C161 C -0.04647 -0.39379 0.91867
 C162 C -0.05038 -0.35584 0.89601
 C163 C -0.01015 -0.33205 0.88839
 C164 C 0.03483 -0.34831 0.90330
 C165 C 0.03879 -0.38668 0.92600
 C166 C -0.00200 -0.40935 0.93426
 C167 C -0.01792 -0.29033 0.86541
 C168 C 0.01455 -0.25936 0.85948
 C169 C 0.00270 -0.21653 0.83816
 C170 C 0.03871 -0.19776 0.82002
 C171 C 0.02838 -0.15747 0.79965
 C172 C -0.01813 -0.13475 0.79736
 C173 C -0.05385 -0.15293 0.81619
 C174 C -0.04358 -0.19325 0.83641
 H175 H -0.07862 -0.41062 0.92424
 H176 H -0.08541 -0.34444 0.88485
 H177 H 0.06703 -0.33172 0.89782
 H178 H 0.07356 -0.39801 0.93754
 H179 H -0.05323 -0.28430 0.85327
 H180 H 0.05079 -0.26515 0.86991
 H181 H 0.07473 -0.21476 0.82122
 H182 H 0.05664 -0.14452 0.78529
 H183 H -0.08966 -0.13554 0.81573
 H184 H -0.07178 -0.20549 0.85113
 C185 C -0.03951 0.37301 0.92384
 C186 C -0.03845 0.33682 0.90067
 C187 C 0.00514 0.31867 0.88820
 C188 C 0.04752 0.33876 0.89839
 C189 C 0.04648 0.37474 0.92150
 C190 C 0.00309 0.39199 0.93477
 C191 C 0.00514 0.27961 0.86424
 C192 C 0.04341 0.24884 0.86078
 C193 C 0.04530 0.20931 0.83712
 C194 C 0.09024 0.18628 0.83123
 C195 C 0.09426 0.14830 0.80975
 C196 C 0.05328 0.13221 0.79372
 C197 C 0.00824 0.15516 0.79955
 C198 C 0.00419 0.19318 0.82104
 H199 H -0.07354 0.38570 0.93346
 H200 H -0.07169 0.32240 0.89289
 H201 H 0.08157 0.32733 0.88834
 H202 H 0.07989 0.38905 0.92898
 H203 H -0.02780 0.27607 0.84982
 H204 H 0.07560 0.25241 0.87612
 H205 H 0.12250 0.19765 0.84340
 H206 H 0.12939 0.13096 0.80616
 H207 H -0.02398 0.14382 0.78734
 H208 H -0.03129 0.20899 0.82519
 C209 C -0.39866 0.06978 0.41773
 C210 C -0.36284 0.07420 0.39510
 C211 C -0.33617 0.03439 0.38381
 C212 C -0.34695 -0.01047 0.39538
 C213 C -0.38311 -0.01498 0.41802
 C214 C -0.40912 0.02516 0.42981
 C215 C -0.29694 0.04227 0.36103
 C216 C -0.26780 0.00824 0.34825
 C217 C -0.22746 0.01843 0.32715
 C218 C -0.21036 -0.01574 0.30495
 C219 C -0.17152 -0.00796 0.28539
 C220 C -0.14868 0.03413 0.28782
 C221 C -0.16561 0.06826 0.31015
 C222 C -0.20436 0.06046 0.32973
 H223 H -0.41783 0.10169 0.42595
 H224 H -0.35554 0.10919 0.38669
 H225 H -0.32755 -0.04231 0.38757
 H226 H -0.39008 -0.04996 0.42663
 H227 H -0.29204 0.07857 0.35453
 H228 H -0.27358 -0.02837 0.35255
 H229 H -0.22720 -0.04855 0.30266
 H230 H -0.15942 -0.03481 0.26826
 H231 H -0.14801 0.10051 0.31316
 H232 H -0.21505 0.08692 0.34749
 C233 C 0.36974 0.04875 0.41095
 C234 C 0.33258 0.04514 0.38682
 C235 C 0.31818 0.00089 0.37754
 C236 C 0.34157 -0.03976 0.39324
 C237 C 0.37870 -0.03615 0.41714
 C238 C 0.39317 0.00806 0.42638
 C239 C 0.27714 -0.00129 0.35298
 C240 C 0.26731 -0.04046 0.33676
 C241 C 0.22353 -0.04387 0.31516
 C242 C 0.20444 -0.08777 0.31248
 C243 C 0.16191 -0.09233 0.29375
 C244 C 0.13786 -0.05312 0.27677
 C245 C 0.15809 -0.00949 0.27837
 C246 C 0.20043 -0.00485 0.29739
 H247 H 0.37995 0.08335 0.41760
 H248 H 0.31489 0.07706 0.37544
 H249 H 0.33077 -0.07453 0.38802
 H250 H 0.39559 -0.06823 0.42880
 H251 H 0.25358 0.03047 0.34894
 H252 H 0.29051 -0.07241 0.34059
 H253 H 0.22174 -0.11843 0.32578
 H254 H 0.14714 -0.12631 0.29344
 H255 H 0.14115 0.02115 0.26490
 H256 H 0.21506 0.02916 0.29790
   
