data_POSCAR
  _audit_creation_date              2014-09-24
  _audit_creation_method            'ToBaCCo'
  _symmetry_space_group_name_H-M    'P1'
  _symmetry_Int_Tables_number       1
  _symmetry_cell_setting            triclinic
  loop_
  _symmetry_equiv_pos_as_xyz
 x,y,z
_cell_length_a 19.8848
_cell_length_b 20.2964
_cell_length_c 20.2260
_cell_angle_alpha 89.963900
_cell_angle_beta 91.080100
_cell_angle_gamma 90.092600
loop_
  _atom_site_label
  _atom_site_type_symbol
  _atom_site_fract_x
  _atom_site_fract_y
  _atom_site_fract_z
N1 N 0.35718 0.35476 1.34479
 N2 N 1.14357 0.64979 0.86233
 N3 N 0.64631 -0.13526 0.14161
 N4 N -0.14789 1.13245 -0.35224
 N5 N 0.66199 0.66762 0.66037
 N6 N 0.85469 0.34954 0.14955
 N7 N 0.35268 0.16004 0.84271
 N8 N 0.14344 0.83366 0.34875
 Zn9 Zn -0.00964 1.01958 0.09017
 Zn10 Zn 0.09162 0.96883 -0.00053
 Zn11 Zn -0.05401 0.95154 -0.03177
 Zn12 Zn 0.00451 1.08471 -0.03390
 O13 O 0.00866 1.00496 0.00501
 O14 O 0.04146 0.97194 0.14525
 O15 O 0.09005 0.89532 -0.05061
 O16 O -0.12392 0.93797 0.02157
 O17 O 0.12352 0.94152 0.07927
 O18 O -0.09498 0.99962 0.10811
 O19 O -0.01962 0.87412 -0.05516
 O20 O -0.04120 1.08351 -0.11108
 O21 O 0.15183 1.02660 -0.03344
 O22 O -0.08804 0.98453 -0.10737
 O23 O 0.08732 1.11460 -0.05073
 O24 O -0.03581 1.14477 0.01756
 O25 O 0.00168 1.10420 0.11237
 C26 C 0.09677 0.94262 0.13591
 C27 C 0.04080 0.85779 -0.06614
 C28 C -0.13709 0.96333 0.07732
 C29 C -0.07820 1.03889 -0.13672
 C30 C 0.14458 1.08668 -0.05050
 C31 C -0.02428 1.15104 0.07919
 Zn32 Zn 0.46806 -0.08034 0.45843
 Zn33 Zn 0.52983 -0.01086 0.57359
 Zn34 Zn 0.54474 0.03769 0.43566
 Zn35 Zn 0.41041 0.04291 0.49960
 O36 O 0.48836 -0.00146 0.49307
 O37 O 0.52132 -0.14224 0.49316
 O38 O 0.60763 0.03457 0.57899
 O39 O 0.56632 -0.01462 0.36682
 O40 O 0.55525 -0.09548 0.58747
 O41 O 0.47977 -0.08245 0.37131
 O42 O 0.62148 0.06360 0.47448
 O43 O 0.41045 0.11758 0.45203
 O44 O 0.47792 0.01812 0.64070
 O45 O 0.50873 0.11145 0.40203
 O46 O 0.39303 0.06263 0.58338
 O47 O 0.33855 -0.00455 0.47344
 O48 O 0.38248 -0.10448 0.46857
 C49 C 0.55388 -0.14427 0.54778
 C50 C 0.64211 0.06173 0.53418
 C51 C 0.52989 -0.05966 0.34111
 C52 C 0.45375 0.14102 0.41286
 C53 C 0.42203 0.04880 0.63810
 C54 C 0.33198 -0.06635 0.46606
 Zn55 Zn 0.92029 0.44547 0.50403
 Zn56 Zn 1.05777 0.43777 0.56030
 Zn57 Zn 1.03500 0.49288 0.42587
 Zn58 Zn 0.99133 0.56958 0.54577
 O59 O 1.00120 0.48694 0.50901
 O60 O 0.92000 0.36594 0.54225
 O61 O 1.13297 0.41637 0.51953
 O62 O 0.97919 0.46043 0.36281
 O63 O 1.02239 0.36123 0.58615
 O64 O 0.89015 0.43397 0.42123
 O65 O 1.11597 0.45351 0.41772
 O66 O 1.01717 0.63476 0.49013
 O67 O 1.08303 0.47929 0.63387
 O68 O 1.04666 0.57642 0.40251
 O69 O 1.03903 0.57890 0.62228
 O70 O 0.90525 0.58570 0.56935
 O71 O 0.85719 0.49013 0.54438
 C72 C 0.96496 0.33584 0.57565
 C73 C 1.15246 0.42414 0.46076
 C74 C 0.91884 0.44032 0.36616
 C75 C 1.03833 0.63127 0.43120
 C76 C 1.07337 0.53708 0.65534
 C77 C 0.85465 0.54721 0.56929
 Zn78 Zn 0.45836 0.50507 0.92435
 Zn79 Zn 0.58993 0.52940 0.97708
 Zn80 Zn 0.46759 0.56577 1.05303
 Zn81 Zn 0.50307 0.42402 1.03298
 O82 O 0.50566 0.50575 0.99924
 O83 O 0.49145 0.56401 0.86922
 O84 O 0.61093 0.60806 1.01104
 O85 O 0.39082 0.59867 1.01805
 O86 O 0.59853 0.54137 0.88855
 O87 O 0.37336 0.52897 0.93535
 O88 O 0.52215 0.63503 1.07008
 O89 O 0.46033 0.42272 1.11057
 O90 O 0.65206 0.47180 1.00803
 O91 O 0.44276 0.52923 1.12929
 O92 O 0.58649 0.39334 1.04882
 O93 O 0.46342 0.36546 0.97709
 O94 O 0.45880 0.42546 0.88555
 C95 C 0.55259 0.56883 0.85354
 C96 C 0.58005 0.64818 1.04777
 C97 C 0.35405 0.57650 0.97104
 C98 C 0.43884 0.46918 1.14683
 C99 C 0.64451 0.41692 1.03762
 C100 C 0.45303 0.37038 0.91496
 N101 N 1.25686 0.36721 0.48627
 N102 N 1.31245 0.34769 0.45719
 C103 C 1.30718 0.36747 0.39370
 C104 C 1.24674 0.40011 0.38449
 N105 N 1.21686 0.39853 0.44366
 H106 H 1.22615 0.42163 0.33952
 N107 N 0.25828 0.64577 0.99837
 N108 N 0.20143 0.66683 0.97039
 C109 C 0.19777 0.63942 0.90962
 C110 C 0.25386 0.60069 0.90125
 N111 N 0.28996 0.60577 0.95775
 H112 H 0.26846 0.57324 0.85798
 N113 N -0.23348 0.99408 0.14289
 N114 N -0.29232 0.96947 0.16028
 C115 C -0.29689 0.90859 0.13363
 C116 C -0.23876 0.89679 0.09898
 N117 N -0.20103 0.95130 0.10593
 H118 H -0.22359 0.85299 0.07286
 N119 N 0.74567 0.11829 0.50666
 N120 N 0.80275 0.13779 0.53526
 C121 C 0.79910 0.12090 0.59959
 C122 C 0.73792 0.09053 0.60981
 N123 N 0.70627 0.08994 0.55045
 H124 H 0.71826 0.07092 0.65532
 N125 N 0.48580 0.23457 0.34501
 N126 N 0.46171 0.29251 0.32597
 C127 C 0.39953 0.29737 0.35106
 C128 C 0.38611 0.24061 0.38614
 N129 N 0.44127 0.20290 0.38114
 H130 H 0.34145 0.22810 0.41326
 N131 N 0.99462 0.23590 0.63618
 N132 N 0.96599 0.18072 0.65668
 C133 C 0.90125 0.18305 0.63566
 C134 C 0.89092 0.24106 0.60145
 N135 N 0.95045 0.27252 0.60298
 H136 H 0.84477 0.25923 0.57887
 N137 N 0.00551 0.75723 -0.12250
 N138 N 0.03142 0.70092 -0.14312
 C139 C 0.09793 0.70392 -0.12922
 C140 C 0.11227 0.76379 -0.09977
 N141 N 0.05314 0.79538 -0.09636
 H142 H 0.16019 0.78193 -0.08108
 N143 N 0.65233 0.73969 1.01983
 N144 N 0.67000 0.79853 1.04230
 C145 C 0.63816 0.80729 1.09988
 C146 C 0.59949 0.75177 1.11182
 N147 N 0.61023 0.71092 1.06075
 H148 H 0.56809 0.74116 1.15363
 N149 N 0.38199 0.49774 1.24860
 N150 N 0.35839 0.46855 1.30206
 C151 C 0.37072 0.40361 1.29514
 C152 C 0.40243 0.39369 1.23587
 N153 N 0.40877 0.45370 1.20863
 H154 H 0.41944 0.34786 1.21464
 N155 N 0.50175 -0.11855 0.23956
 N156 N 0.53129 -0.13986 0.18545
 C157 C 0.59598 -0.11998 0.18977
 C158 C 0.60519 -0.08533 0.24811
 N159 N 0.54513 -0.08552 0.27740
 H160 H 0.65113 -0.06475 0.26893
 N161 N -0.14597 1.00535 -0.23257
 N162 N -0.16563 1.02876 -0.29098
 C163 C -0.14054 1.09039 -0.29514
 C164 C -0.10493 1.10420 -0.23756
 N165 N -0.10953 1.04982 -0.20000
 H166 H -0.07808 1.14882 -0.22424
 N167 N 1.13177 0.51063 0.75806
 N168 N 1.15066 0.53855 0.81449
 C169 C 1.13094 0.60197 0.81092
 C170 C 1.09889 0.61227 0.75048
 N171 N 1.10093 0.55387 0.71900
 H172 H 1.07708 0.65731 0.73113
 N173 N 0.74886 0.52273 0.62053
 N174 N 0.69689 0.55283 0.64681
 C175 C 0.70962 0.61789 0.64278
 C176 C 0.77082 0.62722 0.61282
 N177 N 0.79359 0.56623 0.60001
 H178 H 0.79536 0.67310 0.60038
 N179 N 0.70521 0.31513 1.05988
 N180 N 0.76204 0.29507 1.08858
 C181 C 0.79621 0.34986 1.10653
 C182 C 0.75855 0.40429 1.08830
 N183 N 0.70240 0.38031 1.05893
 H184 H 0.76883 0.45562 1.09902
 N185 N 0.20383 1.18943 -0.06992
 N186 N 0.25978 1.21100 -0.09716
 C187 C 0.29430 1.15726 -0.11604
 C188 C 0.25775 1.10175 -0.09934
 N189 N 0.20166 1.12423 -0.07073
 H190 H 0.26880 1.05073 -0.11019
 N191 N 0.21010 -0.06744 0.47527
 N192 N 0.15738 -0.09526 0.44539
 C193 C 0.18192 -0.14007 0.40306
 C194 C 0.25109 -0.13850 0.40711
 N195 N 0.26660 -0.09304 0.45316
 H196 H 0.28641 -0.16281 0.37519
 N197 N 0.61283 -0.24415 0.51790
 N198 N 0.64468 -0.29431 0.54620
 C199 C 0.64377 -0.28339 0.61192
 C200 C 0.61032 -0.22491 0.62327
 N201 N 0.59164 -0.20234 0.56320
 H202 H 0.59789 -0.20282 0.67018
 N203 N 1.03835 0.69516 0.33042
 N204 N 1.06565 0.74933 0.30628
 C205 C 1.09813 0.77919 0.35712
 C206 C 1.08974 0.74173 0.41365
 N207 N 1.05186 0.68984 0.39454
 H208 H 1.11310 0.74845 0.46196
 N209 N -0.02597 1.22287 0.17480
 N210 N -0.05765 1.27604 0.19552
 C211 C -0.09632 1.29751 0.14438
 C212 C -0.08718 1.25585 0.09129
 N213 N -0.04294 1.21003 0.11257
 H214 H -0.11277 1.25639 0.04358
 N215 N 0.43993 0.30818 0.81227
 N216 N 0.41501 0.25112 0.79117
 C217 C 0.39398 0.21851 0.84515
 C218 C 0.40658 0.25743 0.90008
 N219 N 0.43523 0.31289 0.87734
 H220 H 0.39281 0.24809 0.95076
 N221 N 0.52398 0.64393 0.76443
 N222 N 0.55176 0.67299 0.71313
 C223 C 0.61671 0.65406 0.71338
 C224 C 0.62804 0.61213 0.76640
 N225 N 0.56866 0.60706 0.79664
 H226 H 0.67378 0.58631 0.78023
 N227 N 0.32347 0.05566 0.70571
 N228 N 0.30281 0.08468 0.76022
 C229 C 0.35676 0.11545 0.78735
 C230 C 0.41172 0.10406 0.74769
 N231 N 0.38848 0.06618 0.69752
 H232 H 0.46196 0.12433 0.75244
 N233 N 0.19433 0.89632 0.19473
 N234 N 0.20899 0.86751 0.25214
 C235 C 0.15061 0.86296 0.28469
 C236 C 0.09990 0.88991 0.24637
 N237 N 0.12930 0.91024 0.19060
 H238 H 0.04711 0.89428 0.25775
 N239 N 0.81567 0.41921 0.30314
 N240 N 0.79637 0.39680 0.24426
 C241 C 0.85286 0.38749 0.20960
 C242 C 0.90752 0.40527 0.24893
 N243 N 0.88203 0.42421 0.30693
 H244 H 0.96045 0.40038 0.23836
   
