data_POSCAR
  _audit_creation_date              2014-09-24
  _audit_creation_method            'ToBaCCo'
  _symmetry_space_group_name_H-M    'P1'
  _symmetry_Int_Tables_number       1
  _symmetry_cell_setting            triclinic
  loop_
  _symmetry_equiv_pos_as_xyz
 x,y,z
_cell_length_a 31.9891
_cell_length_b 32.0486
_cell_length_c 32.0347
_cell_angle_alpha 90.218900
_cell_angle_beta 89.839400
_cell_angle_gamma 89.711600
loop_
  _atom_site_label
  _atom_site_type_symbol
  _atom_site_fract_x
  _atom_site_fract_y
  _atom_site_fract_z
C1 C 0.19843 0.14454 0.20218
 C2 C 0.18040 0.12738 0.23824
 C3 C 0.14459 0.14554 0.25639
 C4 C 0.12649 0.18090 0.23775
 C5 C 0.14416 0.19840 0.20177
 C6 C 0.18029 0.18026 0.18389
 C7 C 0.23471 0.12698 0.18459
 C8 C 0.25331 0.14477 0.14904
 C9 C 0.23487 0.18022 0.13082
 C10 C 0.19857 0.19817 0.14804
 C11 C 0.18063 0.23416 0.13053
 C12 C 0.14485 0.25247 0.14848
 C13 C 0.12663 0.23427 0.18388
 H14 H 0.19453 0.10015 0.25257
 H15 H 0.09897 0.19535 0.25131
 H16 H 0.24851 0.09977 0.19906
 H17 H 0.24916 0.19410 0.10348
 H18 H 0.19472 0.24833 0.10326
 H19 H 0.09911 0.24821 0.19797
 C20 C -0.19710 0.86043 0.19641
 C21 C -0.17903 0.87734 0.23238
 C22 C -0.14414 0.85817 0.25084
 C23 C -0.12662 0.82232 0.23225
 C24 C -0.14436 0.80507 0.19612
 C25 C -0.17988 0.82410 0.17820
 C26 C -0.23294 0.87867 0.17919
 C27 C -0.25223 0.86081 0.14415
 C28 C -0.23469 0.82490 0.12571
 C29 C -0.19871 0.80635 0.14258
 C30 C -0.18196 0.76970 0.12517
 C31 C -0.14684 0.75047 0.14311
 C32 C -0.12797 0.76844 0.17830
 H33 H -0.19291 0.90496 0.24627
 H34 H -0.09973 0.80738 0.24649
 H35 H -0.24612 0.90626 0.19382
 H36 H -0.24962 0.81095 0.09872
 H37 H -0.19675 0.75589 0.09814
 H38 H -0.10100 0.75334 0.19219
 C39 C -0.19896 0.14408 -0.19752
 C40 C -0.18140 0.12613 -0.23367
 C41 C -0.14564 0.14354 -0.25210
 C42 C -0.12702 0.17866 -0.23388
 C43 C -0.14418 0.19697 -0.19798
 C44 C -0.18029 0.17973 -0.17966
 C45 C -0.23536 0.12767 -0.17947
 C46 C -0.25347 0.14661 -0.14402
 C47 C -0.23442 0.18189 -0.12626
 C48 C -0.19812 0.19863 -0.14392
 C49 C -0.17991 0.23466 -0.12705
 C50 C -0.14436 0.25213 -0.14563
 C51 C -0.12637 0.23295 -0.18077
 H52 H -0.19582 0.09908 -0.24793
 H53 H -0.09956 0.19238 -0.24791
 H54 H -0.25006 0.10054 -0.19334
 H55 H -0.24797 0.19691 -0.09907
 H56 H -0.19379 0.24970 -0.09994
 H57 H -0.09896 0.24632 -0.19528
 C58 C 0.19788 0.85552 -0.19840
 C59 C 0.18003 0.87249 -0.23439
 C60 C 0.14497 0.85396 -0.25294
 C61 C 0.12719 0.81842 -0.23444
 C62 C 0.14469 0.80109 -0.19815
 C63 C 0.18031 0.81968 -0.18015
 C64 C 0.23374 0.87336 -0.18105
 C65 C 0.25264 0.85565 -0.14586
 C66 C 0.23489 0.82028 -0.12733
 C67 C 0.19884 0.80208 -0.14431
 C68 C 0.18161 0.76607 -0.12665
 C69 C 0.14629 0.74726 -0.14448
 C70 C 0.12784 0.76501 -0.18004
 H71 H 0.19420 0.89978 -0.24812
 H72 H 0.10017 0.80392 -0.24871
 H73 H 0.24727 0.90059 -0.19555
 H74 H 0.24965 0.80659 -0.10017
 H75 H 0.19611 0.75251 -0.09937
 H76 H 0.10072 0.75030 -0.19386
 C77 C 0.14263 1.20033 0.79984
 C78 C 0.12501 1.18284 0.76377
 C79 C 0.14294 1.14721 0.74495
 C80 C 0.17865 1.12886 0.76292
 C81 C 0.19665 1.14597 0.79903
 C82 C 0.17852 1.18182 0.81754
 C83 C 0.12543 1.23653 0.81807
 C84 C 0.14377 1.25454 0.85365
 C85 C 0.17915 1.23555 0.87135
 C86 C 0.19667 1.19955 0.85347
 C87 C 0.23268 1.18161 0.87060
 C88 C 0.25121 1.14633 0.85216
 C89 C 0.23294 1.12839 0.81655
 H90 H 0.09766 1.19744 0.75030
 H91 H 0.19267 1.10152 0.74843
 H92 H 0.09813 1.25113 0.80426
 H93 H 0.19372 1.24893 0.89870
 H94 H 0.24652 1.19571 0.89797
 H95 H 0.24737 1.10117 0.80227
 C96 C 0.86152 0.80348 0.80430
 C97 C 0.87944 0.82003 0.76806
 C98 C 0.86156 0.85499 0.74860
 C99 C 0.82613 0.87410 0.76641
 C100 C 0.80791 0.85789 0.80272
 C101 C 0.82554 0.82229 0.82170
 C102 C 0.87834 0.76754 0.82253
 C103 C 0.85938 0.74964 0.85774
 C104 C 0.82381 0.76879 0.87538
 C105 C 0.80668 0.80495 0.85750
 C106 C 0.77029 0.82336 0.87397
 C107 C 0.75246 0.85855 0.85490
 C108 C 0.77159 0.87590 0.81957
 H109 H 0.90670 0.80493 0.75469
 H110 H 0.81219 0.90104 0.75136
 H111 H 0.90567 0.75322 0.80848
 H112 H 0.80899 0.75497 0.90247
 H113 H 0.75525 0.80991 0.90111
 H114 H 0.75789 0.90290 0.80461
 C115 C 0.14559 0.79958 1.19590
 C116 C 0.12895 0.81745 1.23247
 C117 C 0.14731 0.85303 1.25025
 C118 C 0.18212 0.87123 1.23094
 C119 C 0.19911 0.85379 1.19448
 C120 C 0.18087 0.81782 1.17687
 C121 C 0.12824 0.76329 1.17855
 C122 C 0.14586 0.74491 1.14258
 C123 C 0.18073 0.76357 1.12364
 C124 C 0.19842 0.79969 1.14063
 C125 C 0.23408 0.81736 1.12248
 C126 C 0.25256 0.85277 1.14029
 C127 C 0.23474 0.87112 1.17595
 H128 H 0.10215 0.80339 1.24758
 H129 H 0.19650 0.89857 1.24450
 H130 H 0.10142 0.74891 1.19334
 H131 H 0.19478 0.74983 1.09605
 H132 H 0.24777 0.80303 1.09498
 H133 H 0.24924 0.89842 1.18969
 C134 C 0.85474 1.19834 1.20161
 C135 C 0.87269 1.18054 1.23723
 C136 C 0.85484 1.14525 1.25594
 C137 C 0.81896 1.12736 1.23811
 C138 C 0.80064 1.14484 1.20233
 C139 C 0.81856 1.18057 1.18405
 C140 C 0.87205 1.23420 1.18381
 C141 C 0.85353 1.25280 1.14883
 C142 C 0.81771 1.23490 1.13114
 C143 C 0.80001 1.19890 1.14856
 C144 C 0.76370 1.18134 1.13161
 C145 C 0.74560 1.14593 1.14974
 C146 C 0.76429 1.12769 1.18496
 H147 H 0.90025 1.19476 1.25049
 H148 H 0.80502 1.10017 1.25248
 H149 H 0.89960 1.24784 1.19769
 H150 H 0.80339 1.24942 1.10417
 H151 H 0.74912 1.19543 1.10455
 H152 H 0.75043 1.10047 1.19919
 N153 N 0.54477 0.92818 1.04377
 N154 N 0.57815 0.90419 1.04766
 N155 N 0.45618 0.95666 1.07223
 N156 N 0.42279 0.95285 1.09620
 N157 N 0.45693 0.92742 1.04341
 N158 N 0.42413 0.90291 1.04694
 N159 N 0.54425 0.95743 1.07258
 N160 N 0.57735 0.95420 1.09686
 C161 C 0.59795 0.92076 1.08097
 C162 C 0.40336 0.91910 1.08005
 N163 N 0.45459 1.07515 1.04284
 N164 N 0.42144 1.09959 1.04699
 N165 N 0.54295 1.04713 1.07232
 N166 N 0.57559 1.05137 1.09703
 N167 N 0.54292 1.07593 1.04327
 N168 N 0.57565 1.10060 1.04746
 N169 N 0.45492 1.04638 1.07192
 N170 N 0.42208 1.05043 1.09664
 Mn171 Mn 0.49957 1.00190 1.07280
 C172 C 0.40163 1.08377 1.08076
 C173 C 0.59553 1.08489 1.08124
 N174 N 0.45753 0.92647 0.95388
 N175 N 0.42458 0.90208 0.95054
 N176 N 0.54533 0.95600 0.92507
 N177 N 0.57878 0.95244 0.90110
 N178 N 0.54551 0.92731 0.95421
 N179 N 0.57909 0.90342 0.95089
 N180 N 0.45723 0.95514 0.92473
 N181 N 0.42403 0.95107 0.90072
 Mn182 Mn 0.50120 0.92683 0.99882
 C183 C 0.40422 0.91774 0.91715
 C184 C 0.59931 0.91943 0.91754
 N185 N 0.54346 1.07494 0.95329
 N186 N 0.57637 1.09933 0.94957
 N187 N 0.45602 1.04482 0.92404
 N188 N 0.42320 1.04807 0.89934
 N189 N 0.45531 1.07410 0.95284
 N190 N 0.42193 1.09807 0.94853
 N191 N 0.54402 1.04568 0.92445
 N192 N 0.57730 1.04939 0.90032
 Mn193 Mn 0.49906 1.07562 0.99803
 Mn194 Mn 0.50065 1.00041 0.92402
 Cl195 Cl 0.50012 1.00124 0.99843
 C196 C 0.59696 1.08306 0.91631
 C197 C 0.40242 1.08149 0.91496
 N198 N 0.04331 0.45504 0.07339
 N199 N 0.04772 0.42213 0.09764
 N200 N 0.07202 0.54312 0.04544
 N201 N 0.09626 0.57608 0.04935
 N202 N 0.04323 0.54296 0.07475
 N203 N 0.04713 0.57579 0.09944
 N204 N 0.07214 0.45517 0.04411
 N205 N 0.09699 0.42233 0.04768
 C206 C 0.08135 0.40219 0.08126
 C207 C 0.08044 0.59593 0.08324
 N208 N 0.04218 0.54470 -0.07310
 N209 N 0.04613 0.57767 -0.09738
 N210 N 0.07139 0.45626 -0.04575
 N211 N 0.09561 0.42308 -0.05027
 N212 N 0.04217 0.45678 -0.07445
 N213 N 0.04569 0.42399 -0.09931
 N214 N 0.07141 0.54428 -0.04440
 N215 N 0.09603 0.57698 -0.04834
 Mn216 Mn 0.07230 0.49970 -0.00015
 C217 C 0.07991 0.59735 -0.08157
 C218 C 0.07925 0.40348 -0.08388
 N219 N -0.04671 0.54343 0.07555
 N220 N -0.05001 0.57672 0.09978
 N221 N -0.07590 0.45589 0.04557
 N222 N -0.10054 0.42319 0.04941
 N223 N -0.04666 0.45545 0.07425
 N224 N -0.05056 0.42241 0.09839
 N225 N -0.07594 0.54369 0.04685
 N226 N -0.09992 0.57707 0.05074
 Mn227 Mn -0.00170 0.49921 0.07504
 C228 C -0.08348 0.59714 0.08397
 C229 C -0.08434 0.40279 0.08254
 N230 N -0.04762 0.45719 -0.07334
 N231 N -0.05118 0.42417 -0.09775
 N232 N -0.07654 0.54482 -0.04276
 N233 N -0.10059 0.57831 -0.04554
 N234 N -0.04765 0.54498 -0.07195
 N235 N -0.05119 0.57854 -0.09538
 N236 N -0.07646 0.45697 -0.04409
 N237 N -0.10044 0.42379 -0.04778
 Mn238 Mn -0.00275 0.50092 -0.07374
 Mn239 Mn -0.07675 0.50033 0.00140
 Cl240 Cl -0.00219 0.50004 0.00065
 C241 C -0.08435 0.40388 -0.08149
 C242 C -0.08440 0.59878 -0.07862
 N243 N 1.04420 0.06964 0.54463
 N244 N 1.04794 0.09451 0.57734
 N245 N 1.07446 0.04082 0.45671
 N246 N 1.09931 0.04496 0.42399
 N247 N 1.04517 0.06969 0.45664
 N248 N 1.04926 0.09424 0.42392
 N249 N 1.07345 0.04073 0.54482
 N250 N 1.09791 0.04517 0.57769
 C251 C 1.08161 0.07890 0.59752
 C252 C 1.08321 0.07850 0.40403
 N253 N 1.04595 -0.07802 0.45593
 N254 N 1.04994 -0.10211 0.42265
 N255 N 1.07376 -0.04919 0.54430
 N256 N 1.09752 -0.05301 0.57770
 N257 N 1.04493 -0.07821 0.54376
 N258 N 1.04827 -0.10258 0.57672
 N259 N 1.07483 -0.04903 0.45626
 N260 N 1.09926 -0.05261 0.42314
 Mn261 Mn 1.07471 -0.00418 0.50054
 C262 C 1.08340 -0.08596 0.40272
 C263 C 1.08129 -0.08652 0.59739
 N264 N 0.95516 0.06952 0.45579
 N265 N 0.95109 0.09419 0.42313
 N266 N 0.92533 0.04046 0.54338
 N267 N 0.90054 0.04412 0.57622
 N268 N 0.95422 0.06941 0.54382
 N269 N 0.94993 0.09357 0.57702
 N270 N 0.92627 0.04057 0.45552
 N271 N 0.90173 0.04473 0.42271
 Mn272 Mn 0.99969 0.07011 0.50022
 C273 C 0.91758 0.07835 0.40297
 C274 C 0.91625 0.07746 0.59670
 N275 N 0.95522 -0.07809 0.54297
 N276 N 0.95202 -0.10167 0.57646
 N277 N 0.92702 -0.04901 0.45515
 N278 N 0.90329 -0.05239 0.42174
 N279 N 0.95619 -0.07798 0.45512
 N280 N 0.95309 -0.10194 0.42167
 N281 N 0.92605 -0.04912 0.54297
 N282 N 0.90217 -0.05221 0.57646
 Mn283 Mn 1.00057 -0.07861 0.49943
 Mn284 Mn 0.92564 -0.00430 0.49925
 Cl285 Cl 1.00019 -0.00420 0.49986
 C286 C 0.91869 -0.08526 0.59677
 C287 C 0.91985 -0.08560 0.40141
 C288 C 1.07451 0.09903 0.32376
 C289 C 1.08941 0.14461 0.31865
 C290 C 1.12783 0.12859 0.29404
 C291 C 1.11303 0.08319 0.29874
 C292 C 1.15330 0.12519 0.33463
 C293 C 1.11478 0.14102 0.35955
 C294 C 1.10000 0.09576 0.36421
 C295 C 1.13829 0.07961 0.33980
 H296 H 1.04194 0.08799 0.31969
 H297 H 1.06840 0.17114 0.31105
 H298 H 1.11230 0.05947 0.27341
 H299 H 1.18587 0.13617 0.33891
 H300 H 1.11545 0.16464 0.38498
 H301 H 1.15822 0.05270 0.34886
 C302 C 0.92037 -0.13870 0.33558
 C303 C 0.87474 -0.15319 0.32888
 C304 C 0.87243 -0.12644 0.28912
 C305 C 0.91787 -0.11217 0.29528
 C306 C 0.85604 -0.08880 0.31458
 C307 C 0.85854 -0.11545 0.35464
 C308 C 0.90382 -0.10118 0.36078
 C309 C 0.90165 -0.07442 0.32117
 H310 H 0.94700 -0.15902 0.34468
 H311 H 0.86344 -0.18575 0.33179
 H312 H 0.94215 -0.11083 0.27050
 H313 H 0.82981 -0.06730 0.30723
 H314 H 0.83435 -0.11675 0.37950
 H315 H 0.91297 -0.04184 0.31850
 C316 C 0.92499 0.09643 0.67731
 C317 C 0.90972 0.14190 0.68354
 C318 C 0.87154 0.12557 0.70790
 C319 C 0.88668 0.08026 0.70206
 C320 C 0.84597 0.12293 0.66735
 C321 C 0.88425 0.13912 0.64269
 C322 C 0.89940 0.09395 0.63690
 C323 C 0.86132 0.07743 0.66101
 H324 H 0.95767 0.08527 0.68099
 H325 H 0.93052 0.16825 0.69178
 H326 H 0.88761 0.05617 0.72685
 H327 H 0.81328 0.13404 0.66356
 H328 H 0.88333 0.16316 0.61786
 H329 H 0.84160 0.05071 0.65131
 C330 C 1.08057 -0.14068 0.66199
 C331 C 1.12611 -0.15598 0.66850
 C332 C 1.12840 -0.13001 0.70896
 C333 C 1.08305 -0.11493 0.70298
 C334 C 1.14501 -0.09213 0.68445
 C335 C 1.14254 -0.11802 0.64371
 C336 C 1.09736 -0.10293 0.63776
 C337 C 1.09949 -0.07696 0.67807
 H338 H 1.05388 -0.16045 0.65233
 H339 H 1.13724 -0.18866 0.66478
 H340 H 1.05864 -0.11369 0.72766
 H341 H 1.17126 -0.07104 0.69227
 H342 H 1.16685 -0.11922 0.61893
 H343 H 1.08834 -0.04427 0.68158
 C344 C 0.32144 1.07459 1.10244
 C345 C 0.31639 1.09030 1.14795
 C346 C 0.29116 1.12807 1.13185
 C347 C 0.29578 1.11247 1.08652
 C348 C 0.33145 1.15385 1.12765
 C349 C 0.35701 1.11597 1.14356
 C350 C 0.36159 1.10041 1.09836
 C351 C 0.33655 1.13805 1.08215
 H352 H 0.31771 1.04181 1.09182
 H353 H 0.30918 1.06982 1.17483
 H354 H 0.27029 1.11102 1.06313
 H355 H 0.33540 1.18661 1.13825
 H356 H 0.38260 1.11738 1.16684
 H357 H 0.34518 1.15753 1.05491
 C358 C 0.35790 0.88519 0.85639
 C359 C 0.33335 0.84752 0.87377
 C360 C 0.29268 0.87323 0.87102
 C361 C 0.31691 0.91080 0.85348
 C362 C 0.29874 0.88933 0.91591
 C363 C 0.33987 0.86380 0.91884
 C364 C 0.36389 0.90126 0.90114
 C365 C 0.32338 0.92703 0.89854
 H366 H 0.38265 0.88357 0.83208
 H367 H 0.33714 0.81463 0.86340
 H368 H 0.30835 0.93092 0.82669
 H369 H 0.27404 0.89095 0.94028
 H370 H 0.34972 0.84464 0.94591
 H371 H 0.31974 0.95995 0.90892
 C372 C 0.66249 0.86666 1.08084
 C373 C 0.70351 0.89205 1.08293
 C374 C 0.70969 0.87755 1.12825
 C375 C 0.66914 0.85197 1.12633
 C376 C 0.68538 0.91590 1.14482
 C377 C 0.67874 0.93050 1.09930
 C378 C 0.63836 0.90487 1.09751
 C379 C 0.64448 0.89040 1.14269
 H380 H 0.65265 0.84659 1.05435
 H381 H 0.72813 0.89269 1.05845
 H382 H 0.66544 0.81949 1.13765
 H383 H 0.69375 0.93707 1.17094
 H384 H 0.68220 0.96295 1.08787
 H385 H 0.61976 0.88981 1.16706
 C386 C 0.64283 1.14448 0.88442
 C387 C 0.68348 1.14793 0.91026
 C388 C 0.70840 1.13066 0.87262
 C389 C 0.66809 1.12742 0.84668
 C390 C 0.70280 1.08570 0.88835
 C391 C 0.67745 1.10277 0.92610
 C392 C 0.63729 1.09965 0.90012
 C393 C 0.66202 1.08229 0.86261
 H394 H 0.61774 1.16847 0.88288
 H395 H 0.69120 1.17477 0.93075
 H396 H 0.66445 1.13775 0.81385
 H397 H 0.72778 1.06159 0.88995
 H398 H 0.68084 1.09241 0.95895
 H399 H 0.65281 1.05511 0.84318
 C400 C 0.11402 0.35756 0.14321
 C401 C 0.08888 0.31665 0.14698
 C402 C 0.12712 0.29212 0.13045
 C403 C 0.15237 0.33273 0.12682
 C404 C 0.11163 0.29693 0.08525
 C405 C 0.07325 0.32184 0.10163
 C406 C 0.09853 0.36232 0.09815
 C407 C 0.13667 0.33801 0.08144
 H408 H 0.11495 0.38290 0.16691
 H409 H 0.06845 0.30875 0.17382
 H410 H 0.18510 0.33695 0.13740
 H411 H 0.11069 0.27163 0.06151
 H412 H 0.04053 0.31774 0.09101
 H413 H 0.15617 0.34716 0.05430
 C414 C -0.11577 0.35746 -0.14283
 C415 C -0.08961 0.31684 -0.14605
 C416 C -0.12709 0.29223 -0.12874
 C417 C -0.15335 0.33251 -0.12570
 C418 C -0.11142 0.29838 -0.08378
 C419 C -0.07380 0.32342 -0.10089
 C420 C -0.10015 0.36353 -0.09798
 C421 C -0.13752 0.33910 -0.08056
 H422 H -0.11748 0.38222 -0.16691
 H423 H -0.06926 0.30839 -0.17291
 H424 H -0.18625 0.33591 -0.13612
 H425 H -0.10970 0.27367 -0.05964
 H426 H -0.04088 0.32018 -0.09047
 H427 H -0.15706 0.34866 -0.05344
 C428 C 0.10029 0.67783 -0.07276
 C429 C 0.14566 0.68325 -0.08873
 C430 C 0.12881 0.70755 -0.12664
 C431 C 0.08364 0.70253 -0.11080
 C432 C 0.12540 0.66682 -0.15204
 C433 C 0.14207 0.64219 -0.11402
 C434 C 0.09701 0.63725 -0.09821
 C435 C 0.08005 0.66137 -0.13602
 H436 H 0.08971 0.68198 -0.03997
 H437 H 0.17256 0.69148 -0.06858
 H438 H 0.05968 0.72768 -0.10953
 H439 H 0.13592 0.66255 -0.18483
 H440 H 0.16597 0.61698 -0.11528
 H441 H 0.05287 0.65205 -0.15534
 C442 C -0.14455 0.64457 0.11541
 C443 C -0.12743 0.67002 0.15273
 C444 C -0.13015 0.70989 0.12619
 C445 C -0.14742 0.68478 0.08898
 C446 C -0.08506 0.70314 0.11057
 C447 C -0.08218 0.66281 0.13694
 C448 C -0.09957 0.63789 0.09984
 C449 C -0.10216 0.67760 0.07323
 H450 H -0.16883 0.62002 0.11735
 H451 H -0.13807 0.66722 0.18561
 H452 H -0.17418 0.69312 0.06864
 H453 H -0.06073 0.72763 0.10862
 H454 H -0.05517 0.65338 0.15651
 H455 H -0.09153 0.68025 0.04032
 C456 C 1.07265 0.10053 0.67785
 C457 C 1.11102 0.08473 0.70279
 C458 C 1.12610 0.13008 0.70733
 C459 C 1.08783 0.14608 0.68281
 C460 C 1.15163 0.12611 0.66666
 C461 C 1.13635 0.08058 0.66166
 C462 C 1.09821 0.09667 0.63731
 C463 C 1.11326 0.14191 0.64181
 H464 H 1.04001 0.08974 0.68208
 H465 H 1.11009 0.06126 0.72817
 H466 H 1.06701 0.17284 0.69047
 H467 H 1.18428 0.13684 0.66222
 H468 H 1.15616 0.05345 0.65264
 H469 H 1.11413 0.16526 0.61632
 C470 C 0.86604 -0.08311 0.66247
 C471 C 0.85089 -0.12824 0.67015
 C472 C 0.87761 -0.12995 0.71001
 C473 C 0.89257 -0.08498 0.70282
 C474 C 0.91511 -0.14747 0.68504
 C475 C 0.88848 -0.14557 0.64484
 C476 C 0.90339 -0.10073 0.63770
 C477 C 0.93017 -0.10231 0.67738
 H478 H 0.84603 -0.05648 0.65276
 H479 H 0.81811 -0.13912 0.66744
 H480 H 0.89424 -0.06017 0.72703
 H481 H 0.93614 -0.17378 0.69328
 H482 H 0.88685 -0.17027 0.62052
 H483 H 0.96298 -0.09142 0.67982
 C484 C 1.14496 -0.11768 0.35584
 C485 C 1.12795 -0.15543 0.33095
 C486 C 1.13049 -0.12959 0.29062
 C487 C 1.14767 -0.09194 0.31517
 C488 C 1.08538 -0.11389 0.29708
 C489 C 1.08266 -0.13956 0.33785
 C490 C 1.09996 -0.10202 0.36220
 C491 C 1.10237 -0.07611 0.32204
 H492 H 1.16929 -0.11915 0.38043
 H493 H 1.13866 -0.18824 0.33431
 H494 H 1.17433 -0.07165 0.30664
 H495 H 1.06098 -0.11241 0.27255
 H496 H 1.05574 -0.15901 0.34756
 H497 H 1.09165 -0.04328 0.31883
 C498 C 0.92587 0.09898 0.32257
 C499 C 0.88746 0.08295 0.29795
 C500 C 0.87195 0.12825 0.29339
 C501 C 0.91027 0.14448 0.31759
 C502 C 0.84674 0.12480 0.33424
 C503 C 0.86246 0.07931 0.33928
 C504 C 0.90064 0.09566 0.36327
 C505 C 0.88515 0.14083 0.35875
 H506 H 0.95859 0.08810 0.31817
 H507 H 0.88838 0.05920 0.27264
 H508 H 0.93091 0.17108 0.30986
 H509 H 0.81402 0.13561 0.33885
 H510 H 0.84297 0.05231 0.34857
 H511 H 0.88428 0.16447 0.38416
 C512 C 0.07866 0.33925 -0.13882
 C513 C 0.12402 0.33306 -0.15482
 C514 C 0.12724 0.29248 -0.12943
 C515 C 0.08205 0.29816 -0.11365
 C516 C 0.14416 0.31680 -0.09144
 C517 C 0.14076 0.35768 -0.11673
 C518 C 0.09573 0.36332 -0.10096
 C519 C 0.09880 0.32289 -0.07556
 H520 H 0.05153 0.34888 -0.15811
 H521 H 0.13459 0.33703 -0.18760
 H522 H 0.05798 0.27336 -0.11241
 H523 H 0.17089 0.30884 -0.07092
 H524 H 0.16472 0.38258 -0.11793
 H525 H 0.08820 0.31914 -0.04276
 C526 C -0.13926 0.33905 0.08285
 C527 C -0.11402 0.29778 0.08572
 C528 C -0.12905 0.29249 0.13107
 C529 C -0.15449 0.33330 0.12839
 C530 C -0.09074 0.31655 0.14735
 C531 C -0.07558 0.32223 0.10183
 C532 C -0.10106 0.36288 0.09930
 C533 C -0.11608 0.35767 0.14452
 H534 H -0.15905 0.34869 0.05613
 H535 H -0.11324 0.27277 0.06165
 H536 H -0.18713 0.33756 0.13952
 H537 H -0.07000 0.30818 0.17375
 H538 H -0.04294 0.31809 0.09066
 H539 H -0.11685 0.38272 0.16854
 C540 C -0.07319 0.67899 -0.09658
 C541 C -0.08781 0.68563 -0.14207
 C542 C -0.12535 0.71130 -0.12559
 C543 C -0.11082 0.70508 -0.08026
 C544 C -0.15228 0.67169 -0.12319
 C545 C -0.11466 0.64574 -0.13951
 C546 C -0.10012 0.63953 -0.09435
 C547 C -0.13753 0.66492 -0.07768
 H548 H -0.04048 0.68152 -0.08539
 H549 H -0.06633 0.69278 -0.16829
 H550 H -0.10925 0.72984 -0.05599
 H551 H -0.18497 0.66893 -0.13437
 H552 H -0.11620 0.62090 -0.16369
 H553 H -0.15777 0.65594 -0.05102
 C554 C 0.09923 0.67631 0.07391
 C555 C 0.08349 0.70136 0.11241
 C556 C 0.12910 0.70692 0.12652
 C557 C 0.14500 0.68228 0.08812
 C558 C 0.12686 0.66653 0.15229
 C559 C 0.08107 0.66046 0.13795
 C560 C 0.09712 0.63606 0.09967
 C561 C 0.14258 0.64157 0.11379
 H562 H 0.08757 0.67991 0.04151
 H563 H 0.05927 0.72628 0.11184
 H564 H 0.17105 0.69000 0.06661
 H565 H 0.13844 0.66273 0.18470
 H566 H 0.05459 0.65107 0.15826
 H567 H 0.16670 0.61656 0.11430
 C568 C 0.35646 1.14249 0.88216
 C569 C 0.33205 1.12544 0.84412
 C570 C 0.29123 1.12868 0.86953
 C571 C 0.31536 1.14587 0.90747
 C572 C 0.29703 1.08372 0.88532
 C573 C 0.33834 1.08030 0.86012
 C574 C 0.36220 1.09769 0.89795
 C575 C 0.32153 1.10076 0.92338
 H576 H 0.38130 1.16652 0.88094
 H577 H 0.33609 1.13577 0.81133
 H578 H 0.30699 1.17270 0.92786
 H579 H 0.27224 1.05965 0.88655
 H580 H 0.34819 1.05313 0.84081
 H581 H 0.31761 1.09042 0.95620
 C582 C 0.32320 0.89873 1.06968
 C583 C 0.31759 0.85344 1.08528
 C584 C 0.29236 0.87023 1.12284
 C585 C 0.29752 0.91533 1.10739
 C586 C 0.33250 0.87380 1.14897
 C587 C 0.35807 0.85719 1.11130
 C588 C 0.36317 0.90217 1.09591
 C589 C 0.33811 0.91908 1.13336
 H590 H 0.31987 0.90923 1.03686
 H591 H 0.30980 0.82652 1.06491
 H592 H 0.27220 0.93908 1.10583
 H593 H 0.33600 0.86330 1.18176
 H594 H 0.38344 0.83349 1.11285
 H595 H 0.34694 0.94625 1.15297
 C596 C 0.66003 1.13926 1.08261
 C597 C 0.66521 1.15454 1.12823
 C598 C 0.70576 1.12870 1.13175
 C599 C 0.70102 1.11361 1.08631
 C600 C 0.68097 1.09082 1.14768
 C601 C 0.64008 1.11654 1.14400
 C602 C 0.63541 1.10147 1.09867
 C603 C 0.67584 1.07559 1.10207
 H604 H 0.65109 1.15905 1.05568
 H605 H 0.66109 1.18719 1.13924
 H606 H 0.72646 1.11241 1.06269
 H607 H 0.68889 1.07028 1.17433
 H608 H 0.61459 1.11771 1.16757
 H609 H 0.67985 1.04296 1.09100
 C610 C 0.64666 0.88740 0.85671
 C611 C 0.68719 0.91338 0.85376
 C612 C 0.71200 0.87608 0.87141
 C613 C 0.67182 0.85001 0.87420
 C614 C 0.70535 0.89221 0.91627
 C615 C 0.68010 0.92964 0.89880
 C616 C 0.64008 0.90348 0.90145
 C617 C 0.66472 0.86630 0.91922
 H618 H 0.62208 0.88550 0.83240
 H619 H 0.69571 0.93340 0.82691
 H620 H 0.66873 0.81707 0.86388
 H621 H 0.72987 0.89412 0.94064
 H622 H 0.68302 0.96261 0.90912
 H623 H 0.65509 0.84709 0.94632
   
