data_POSCAR
  _audit_creation_date              2014-09-24
  _audit_creation_method            'ToBaCCo'
  _symmetry_space_group_name_H-M    'P1'
  _symmetry_Int_Tables_number       1
  _symmetry_cell_setting            triclinic
  loop_
  _symmetry_equiv_pos_as_xyz
 x,y,z
_cell_length_a 45.5720
_cell_length_b 44.2403
_cell_length_c 42.6653
_cell_angle_alpha 89.516500
_cell_angle_beta 89.932500
_cell_angle_gamma 89.975300
loop_
  _atom_site_label
  _atom_site_type_symbol
  _atom_site_fract_x
  _atom_site_fract_y
  _atom_site_fract_z
C1 C 0.15672 0.14725 0.18306
 N2 N 0.18273 0.13721 0.17121
 C3 C 0.19539 0.15155 0.14607
 N4 N 0.18177 0.17619 0.13323
 C5 C 0.15587 0.18623 0.14486
 N6 N 0.14377 0.17159 0.16952
 C7 C -0.14913 0.85350 0.17155
 N8 N -0.13821 0.82949 0.15582
 C9 C -0.15195 0.81832 0.13027
 N10 N -0.17721 0.83154 0.12024
 C11 C -0.18859 0.85584 0.13548
 N12 N -0.17439 0.86655 0.16120
 C13 C -0.14964 0.13995 -0.17863
 N14 N -0.13578 0.16497 -0.16793
 C15 C -0.14657 0.18080 -0.14341
 N16 N -0.17176 0.17135 -0.12934
 C17 C -0.18611 0.14632 -0.13955
 N18 N -0.17486 0.13082 -0.16430
 C19 C 0.14104 0.86722 -0.16186
 N20 N 0.12857 0.84242 -0.14845
 C21 C 0.14028 0.82954 -0.12235
 N22 N 0.16496 0.84162 -0.10978
 C23 C 0.17793 0.86637 -0.12287
 N24 N 0.16577 0.87898 -0.14901
 C25 C 0.14671 1.14524 0.81915
 N26 N 0.13688 1.17130 0.83224
 C27 C 0.15122 1.18407 0.85679
 N28 N 0.17579 1.17037 0.86815
 C29 C 0.18591 1.14431 0.85541
 N30 N 0.17125 1.13201 0.83098
 C31 C 0.85385 0.86599 0.83748
 N32 N 0.86556 0.84022 0.85001
 C33 C 0.85397 0.82757 0.87649
 N34 N 0.83028 0.84071 0.89009
 C35 C 0.81827 0.86625 0.87789
 N36 N 0.83020 0.87869 0.85168
 C37 C 0.14431 0.86181 1.16515
 N38 N 0.16750 0.87627 1.15186
 C39 C 0.18119 0.86516 1.12625
 N40 N 0.17136 0.83901 1.11358
 C41 C 0.14801 0.82405 1.12623
 N42 N 0.13469 0.83558 1.15219
 C43 C 0.84333 1.14859 1.18495
 N44 N 0.81958 1.13642 1.17039
 C45 C 0.80839 1.14907 1.14395
 N46 N 0.82117 1.17427 1.13201
 C47 C 0.84482 1.18711 1.14596
 N48 N 0.85583 1.17412 1.17259
 N49 N 0.53178 1.05597 0.96669
 N50 N 0.55720 1.07052 0.96638
 N51 N 0.46805 1.04011 0.94465
 N52 N 0.44316 1.04428 0.92943
 N53 N 0.46965 1.05825 0.96879
 N54 N 0.44587 1.07521 0.97057
 N55 N 0.52966 1.03845 0.94211
 N56 N 0.55330 1.04072 0.92450
 C57 C 0.57025 1.06089 0.93963
 C58 C 0.42965 1.06642 0.94571
 N59 N 0.46648 0.95191 0.95427
 N60 N 0.44138 0.93719 0.95239
 N61 N 0.52813 0.97426 0.93340
 N62 N 0.55299 0.97573 0.91749
 N63 N 0.52829 0.95072 0.95235
 N64 N 0.55313 0.93569 0.94978
 N65 N 0.46618 0.97575 0.93572
 N66 N 0.44091 0.97773 0.92073
 Mn67 Mn 0.49792 1.00719 0.93858
 C68 C 0.42574 0.95335 0.93116
 C69 C 0.56821 0.95130 0.92771
 N70 N 0.47088 1.04898 1.03554
 N71 N 0.44731 1.06576 1.04020
 N72 N 0.53227 1.02333 1.05273
 N73 N 0.55646 1.02212 1.06970
 N74 N 0.53284 1.04685 1.03375
 N75 N 0.55742 1.06219 1.03729
 N76 N 0.47047 1.02513 1.05407
 N77 N 0.44675 1.02515 1.07185
 Mn78 Mn 0.50138 1.05297 1.00126
 C79 C 0.43256 1.05075 1.06312
 C80 C 0.57187 1.04662 1.05995
 N81 N 0.52991 0.94146 1.01912
 N82 N 0.55387 0.92474 1.01782
 N83 N 0.46836 0.96069 1.04482
 N84 N 0.44355 0.95785 1.06073
 N85 N 0.46841 0.94247 1.02069
 N86 N 0.44401 0.92661 1.01976
 N87 N 0.53057 0.95915 1.04367
 N88 N 0.55514 0.95505 1.05952
 Mn89 Mn 0.49833 0.94630 0.98652
 Mn90 Mn 0.50035 0.99200 1.04928
 Cl91 Cl 0.49950 0.99966 0.99394
 C92 C 0.56935 0.93331 1.04329
 C93 C 0.42877 0.93617 1.04492
 N94 N -0.04713 0.46821 0.03568
 N95 N -0.06319 0.44365 0.03978
 N96 N -0.02595 0.53198 0.05515
 N97 N -0.02629 0.55706 0.07174
 N98 N -0.04787 0.53188 0.03521
 N99 N -0.06372 0.55664 0.03783
 N100 N -0.02482 0.46813 0.05512
 N101 N -0.02521 0.44366 0.07305
 C102 C -0.04938 0.42863 0.06332
 C103 C -0.05018 0.57208 0.06086
 N104 N 0.05482 0.53461 0.02516
 N105 N 0.06973 0.56029 0.02577
 N106 N 0.03831 0.46935 0.04863
 N107 N 0.04310 0.44464 0.06552
 N108 N 0.05700 0.47101 0.02525
 N109 N 0.07498 0.44774 0.02561
 N110 N 0.03667 0.53304 0.04905
 N111 N 0.03870 0.55743 0.06638
 Mn112 Mn 0.00609 0.50049 0.05242
 C113 C 0.05950 0.57420 0.05186
 C114 C 0.06625 0.43153 0.05088
 N115 N -0.05338 0.53237 -0.03209
 N116 N -0.06848 0.55795 -0.03243
 N117 N -0.03435 0.46772 -0.05453
 N118 N -0.03771 0.44246 -0.07053
 N119 N -0.05304 0.46861 -0.03113
 N120 N -0.06954 0.44423 -0.03057
 N121 N -0.03539 0.53146 -0.05613
 N122 N -0.03789 0.55612 -0.07341
 Mn123 Mn -0.05073 0.50036 0.00195
 C124 C -0.05872 0.57239 -0.05863
 C125 C -0.05998 0.42815 -0.05532
 N126 N 0.05101 0.47017 -0.04152
 N127 N 0.06733 0.44564 -0.04450
 N128 N 0.02725 0.53318 -0.06213
 N129 N 0.02613 0.55872 -0.07843
 N130 N 0.04917 0.53387 -0.04219
 N131 N 0.06348 0.55964 -0.04448
 N132 N 0.02871 0.46935 -0.06096
 N133 N 0.02935 0.44445 -0.07771
 Mn134 Mn 0.05337 0.50252 -0.00840
 Mn135 Mn -0.00347 0.50031 -0.05887
 Cl136 Cl 0.00132 0.50091 -0.00321
 C137 C 0.05366 0.42993 -0.06740
 C138 C 0.04911 0.57485 -0.06735
 N139 N 0.95485 0.02352 0.53523
 N140 N 0.93941 0.02735 0.56107
 N141 N 0.97633 0.04283 0.46855
 N142 N 0.97555 0.06103 0.44391
 N143 N 0.95327 0.02502 0.46908
 N144 N 0.93628 0.03060 0.44462
 N145 N 0.97754 0.04177 0.53460
 N146 N 0.97813 0.05850 0.56008
 C147 C 0.95409 0.04937 0.57630
 C148 C 0.95038 0.05326 0.42920
 N149 N 1.05673 0.01047 0.46712
 N150 N 1.07424 0.01109 0.44253
 N151 N 1.03987 0.03307 0.53313
 N152 N 1.04375 0.04900 0.55875
 N153 N 1.05726 0.00939 0.53307
 N154 N 1.07352 0.00873 0.55871
 N155 N 1.03912 0.03395 0.46703
 N156 N 1.04421 0.05120 0.44218
 Mn157 Mn 1.00827 0.03831 0.50073
 C158 C 1.06630 0.03664 0.42720
 C159 C 1.06493 0.03374 0.57443
 N160 N 0.94480 -0.03931 0.46870
 N161 N 0.92777 -0.03790 0.44379
 N162 N 0.96380 -0.06488 0.53304
 N163 N 0.96156 -0.08166 0.55857
 N164 N 0.94666 -0.04108 0.53486
 N165 N 0.93243 -0.04110 0.56193
 N166 N 0.96252 -0.06266 0.46711
 N167 N 0.95800 -0.07771 0.44094
 Mn168 Mn 0.94948 -0.00793 0.50205
 C169 C 0.93605 -0.06209 0.42677
 C170 C 0.94181 -0.06681 0.57632
 N171 N 1.04890 -0.05507 0.53191
 N172 N 1.06380 -0.05775 0.55821
 N173 N 1.02518 -0.07151 0.46574
 N174 N 1.02422 -0.08710 0.43950
 N175 N 1.04811 -0.05356 0.46592
 N176 N 1.06322 -0.05635 0.43972
 N177 N 1.02621 -0.07334 0.53199
 N178 N 1.02517 -0.08891 0.55858
 Mn179 Mn 1.05310 -0.02229 0.49955
 Mn180 Mn 0.99437 -0.06851 0.49937
 Cl181 Cl 1.00128 -0.01508 0.50041
 C182 C 1.04900 -0.07914 0.57453
 C183 C 1.04825 -0.07756 0.42358
 C184 C 1.10361 0.13508 0.24791
 C185 C 1.11691 0.11204 0.26594
 C186 C 1.14297 0.09874 0.25413
 C187 C 1.15612 0.10987 0.22637
 C188 C 1.14338 0.13406 0.20968
 C189 C 1.11660 0.14585 0.22061
 C190 C 1.15582 0.07459 0.27025
 C191 C 1.14341 0.06334 0.29780
 C192 C 1.11796 0.07646 0.31094
 C193 C 1.10503 0.10179 0.29515
 C194 C 1.08115 0.11668 0.30951
 C195 C 1.06968 0.10674 0.33782
 C196 C 1.08125 0.08147 0.35296
 C197 C 1.10531 0.06564 0.33968
 C198 C 1.11550 0.03955 0.35576
 C199 C 1.10277 0.03027 0.38403
 C200 C 1.07955 0.04657 0.39726
 C201 C 1.06882 0.07205 0.38150
 H202 H 1.08289 0.14519 0.25394
 H203 H 1.17644 0.09992 0.21812
 H204 H 1.10534 0.16390 0.20823
 H205 H 1.17568 0.06417 0.26142
 H206 H 1.15486 0.04479 0.30878
 H207 H 1.07122 0.13681 0.29995
 H208 H 1.05147 0.11905 0.34798
 H209 H 1.13295 0.02556 0.34695
 H210 H 1.11119 0.01016 0.39556
 H211 H 1.05060 0.08455 0.39139
 C212 C 0.90354 -0.14285 0.23797
 C213 C 0.89129 -0.12009 0.25704
 C214 C 0.86600 -0.10485 0.24570
 C215 C 0.85310 -0.11303 0.21706
 C216 C 0.86484 -0.13658 0.19905
 C217 C 0.89054 -0.15089 0.20971
 C218 C 0.85335 -0.08181 0.26320
 C219 C 0.86484 -0.07378 0.29206
 C220 C 0.88953 -0.08874 0.30487
 C221 C 0.90305 -0.11222 0.28701
 C222 C 0.92753 -0.12743 0.29997
 C223 C 0.93824 -0.12036 0.32941
 C224 C 0.92521 -0.09778 0.34719
 C225 C 0.90091 -0.08131 0.33513
 C226 C 0.88899 -0.05819 0.35407
 C227 C 0.90044 -0.05219 0.38367
 C228 C 0.92404 -0.06895 0.39554
 C229 C 0.93642 -0.09164 0.37711
 H230 H 0.92308 -0.15518 0.24414
 H231 H 0.83347 -0.10134 0.20924
 H232 H 0.90070 -0.16885 0.19643
 H233 H 0.83412 -0.06993 0.25460
 H234 H 0.85344 -0.05591 0.30394
 H235 H 0.93889 -0.14536 0.28815
 H236 H 0.95692 -0.13287 0.33842
 H237 H 0.87088 -0.04417 0.34684
 H238 H 0.89066 -0.03429 0.39735
 H239 H 0.95496 -0.10448 0.38599
 C240 C 0.85702 0.08563 0.75527
 C241 C 0.88257 0.09605 0.73958
 C242 C 0.89778 0.12070 0.75295
 C243 C 0.88737 0.13455 0.78025
 C244 C 0.86148 0.12462 0.79505
 C245 C 0.84675 0.09967 0.78241
 C246 C 0.92318 0.13187 0.73883
 C247 C 0.93358 0.11974 0.71112
 C248 C 0.91891 0.09574 0.69619
 C249 C 0.89327 0.08330 0.71094
 C250 C 0.87900 0.05884 0.69633
 C251 C 0.88874 0.04755 0.66790
 C252 C 0.91306 0.06003 0.65278
 C253 C 0.92880 0.08404 0.66679
 C254 C 0.95355 0.09557 0.65043
 C255 C 0.96173 0.08415 0.62131
 C256 C 0.94567 0.06093 0.60742
 C257 C 0.92155 0.04873 0.62347
 H258 H 0.84413 0.06691 0.74707
 H259 H 0.89944 0.15356 0.78961
 H260 H 0.82685 0.09108 0.79317
 H261 H 0.93504 0.15055 0.74915
 H262 H 0.95320 0.13001 0.70190
 H263 H 0.85996 0.04791 0.70614
 H264 H 0.87683 0.02898 0.65744
 H265 H 0.96702 0.11358 0.65921
 H266 H 0.98066 0.09376 0.60951
 H267 H 0.90916 0.03047 0.61303
 C268 C 1.13342 -0.08596 0.76383
 C269 C 1.10991 -0.10036 0.74817
 C270 C 1.09564 -0.12453 0.76400
 C271 C 1.10516 -0.13415 0.79373
 C272 C 1.12923 -0.12042 0.80830
 C273 C 1.14287 -0.09592 0.79326
 C274 C 1.07233 -0.13954 0.74986
 C275 C 1.06334 -0.13187 0.71978
 C276 C 1.07738 -0.10869 0.70246
 C277 C 1.10060 -0.09218 0.71718
 C278 C 1.11405 -0.06839 0.70024
 C279 C 1.10606 -0.06168 0.66965
 C280 C 1.08432 -0.07823 0.65463
 C281 C 1.06927 -0.10170 0.67078
 C282 C 1.04704 -0.11737 0.65423
 C283 C 1.04049 -0.11015 0.62304
 C284 C 1.05591 -0.08731 0.60730
 C285 C 1.07765 -0.07135 0.62333
 H286 H 1.14549 -0.06731 0.75386
 H287 H 1.09420 -0.15303 0.80512
 H288 H 1.16139 -0.08468 0.80396
 H289 H 1.06117 -0.15784 0.76201
 H290 H 1.04536 -0.14487 0.71067
 H291 H 1.13111 -0.05445 0.70983
 H292 H 1.11730 -0.04342 0.65748
 H293 H 1.03432 -0.13540 0.66452
 H294 H 1.02337 -0.12259 0.61119
 H295 H 1.08945 -0.05330 0.61145
 C296 C 0.26226 1.14773 1.09584
 C297 C 0.27751 1.12253 1.10837
 C298 C 0.26425 1.10675 1.13376
 C299 C 0.23713 1.11626 1.14613
 C300 C 0.22241 1.14157 1.13362
 C301 C 0.23541 1.15696 1.10821
 C302 C 0.27813 1.08155 1.14681
 C303 C 0.30502 1.07164 1.13546
 C304 C 0.31939 1.08669 1.11047
 C305 C 0.30540 1.11259 1.09669
 C306 C 0.31988 1.12783 1.07187
 C307 C 0.34710 1.11848 1.06108
 C308 C 0.36110 1.09347 1.07431
 C309 C 0.34743 1.07694 1.09896
 C310 C 0.36255 1.05136 1.11102
 C311 C 0.39004 1.04306 1.09938
 C312 C 0.40352 1.05984 1.07542
 C313 C 0.38882 1.08495 1.06289
 H314 H 0.27035 1.16099 1.07641
 H315 H 0.22761 1.10383 1.16565
 H316 H 0.22493 1.17652 1.09764
 H317 H 0.26811 1.06932 1.16618
 H318 H 0.31407 1.05209 1.14712
 H319 H 0.31091 1.14743 1.06025
 H320 H 0.35737 1.13108 1.04211
 H321 H 0.35381 1.03715 1.12938
 H322 H 0.40080 1.02333 1.10927
 H323 H 0.39892 1.09790 1.04408
 C324 C 0.24557 0.87240 0.92560
 C325 C 0.26132 0.89573 0.91013
 C326 C 0.24731 0.91069 0.88471
 C327 C 0.21934 0.90165 0.87462
 C328 C 0.20463 0.87737 0.88917
 C329 C 0.21790 0.86343 0.91524
 C330 C 0.26151 0.93420 0.86894
 C331 C 0.28977 0.94271 0.87705
 C332 C 0.30523 0.92784 0.90136
 C333 C 0.29061 0.90425 0.91850
 C334 C 0.30602 0.88945 0.94291
 C335 C 0.33493 0.89659 0.94967
 C336 C 0.34968 0.91893 0.93273
 C337 C 0.33503 0.93534 0.90870
 C338 C 0.35107 0.95828 0.89281
 C339 C 0.38041 0.96401 0.90009
 C340 C 0.39480 0.94714 0.92330
 C341 C 0.37921 0.92481 0.93970
 H342 H 0.25404 0.86019 0.94554
 H343 H 0.20947 0.91315 0.85470
 H344 H 0.20721 0.84495 0.92755
 H345 H 0.25079 0.94593 0.84969
 H346 H 0.29905 0.96084 0.86331
 H347 H 0.29655 0.87176 0.95712
 H348 H 0.34598 0.88420 0.96823
 H349 H 0.34175 0.97227 0.87461
 H350 H 0.39192 0.98168 0.88736
 H351 H 0.39005 0.91195 0.95809
 C352 C 0.74536 0.90560 1.13316
 C353 C 0.72937 0.89401 1.10749
 C354 C 0.74215 0.86987 1.09059
 C355 C 0.76944 0.85774 1.09955
 C356 C 0.78473 0.86900 1.12557
 C357 C 0.77240 0.89334 1.14192
 C358 C 0.72754 0.85765 1.06498
 C359 C 0.70005 0.86817 1.05614
 C360 C 0.68586 0.89152 1.07269
 C361 C 0.70106 0.90516 1.09834
 C362 C 0.68735 0.92933 1.11410
 C363 C 0.65950 0.93925 1.10588
 C364 C 0.64400 0.92554 1.08174
 C365 C 0.65692 0.90161 1.06458
 C366 C 0.64003 0.88856 1.04032
 C367 C 0.61176 0.89888 1.03355
 C368 C 0.59919 0.92234 1.05077
 C369 C 0.61550 0.93564 1.07478
 H370 H 0.73753 0.92390 1.14738
 H371 H 0.77848 0.83909 1.08630
 H372 H 0.78342 0.90293 1.16201
 H373 H 0.73735 0.83944 1.05172
 H374 H 0.69051 0.85738 1.03607
 H375 H 0.69753 0.94122 1.13310
 H376 H 0.64986 0.95778 1.11882
 H377 H 0.64779 0.87013 1.02623
 H378 H 0.59962 0.88827 1.01481
 H379 H 0.60601 0.95400 1.08810
 C380 C 0.74814 1.14518 0.91282
 C381 C 0.73194 1.12038 0.90122
 C382 C 0.74435 1.10396 0.87606
 C383 C 0.77166 1.11216 0.86328
 C384 C 0.78724 1.13721 0.87455
 C385 C 0.77516 1.15338 0.89970
 C386 C 0.72934 1.07953 0.86339
 C387 C 0.70168 1.07162 0.87420
 C388 C 0.68780 1.08781 0.89845
 C389 C 0.70366 1.11174 0.91314
 C390 C 0.69070 1.12612 0.93919
 C391 C 0.66282 1.11824 0.94979
 C392 C 0.64641 1.09619 0.93457
 C393 C 0.65861 1.08075 0.90857
 C394 C 0.64073 1.05935 0.89323
 C395 C 0.61229 1.05342 0.90346
 C396 C 0.60046 1.06835 0.92938
 C397 C 0.61771 1.08965 0.94501
 H398 H 0.74031 1.15922 0.93156
 H399 H 0.78041 1.09916 0.84396
 H400 H 0.78638 1.17283 0.90923
 H401 H 0.73893 1.06657 0.84450
 H402 H 0.69189 1.05232 0.86314
 H403 H 0.70171 1.14348 0.95224
 H404 H 0.65382 1.12993 0.96985
 H405 H 0.64768 1.04720 0.87276
 H406 H 0.59947 1.03691 0.89083
 H407 H 0.60872 1.10139 0.96506
 C408 C 0.10030 0.24887 0.13501
 C409 C 0.11452 0.26923 0.11431
 C410 C 0.14187 0.26025 0.10143
 C411 C 0.15506 0.23282 0.11063
 C412 C 0.14128 0.21375 0.13249
 C413 C 0.11352 0.22181 0.14393
 C414 C 0.15614 0.27890 0.07982
 C415 C 0.14399 0.30637 0.07069
 C416 C 0.11718 0.31671 0.08341
 C417 C 0.10254 0.29811 0.10611
 C418 C 0.07687 0.30934 0.12054
 C419 C 0.06559 0.33753 0.11282
 C420 C 0.07908 0.35557 0.09016
 C421 C 0.10483 0.34533 0.07475
 C422 C 0.11700 0.36417 0.05113
 C423 C 0.10445 0.39206 0.04380
 C424 C 0.07945 0.40224 0.05963
 C425 C 0.06682 0.38388 0.08277
 H426 H 0.07887 0.25299 0.14472
 H427 H 0.17636 0.22668 0.10128
 H428 H 0.10191 0.20729 0.16031
 H429 H 0.17705 0.27222 0.06988
 H430 H 0.15671 0.31938 0.05415
 H431 H 0.06523 0.29722 0.13864
 H432 H 0.04596 0.34525 0.12473
 H433 H 0.13589 0.35794 0.03745
 H434 H 0.11441 0.40570 0.02545
 H435 H 0.04718 0.39143 0.09477
 C436 C -0.09384 0.24697 -0.14154
 C437 C -0.10521 0.26495 -0.11705
 C438 C -0.12982 0.25359 -0.10030
 C439 C -0.14280 0.22598 -0.10850
 C440 C -0.13177 0.20897 -0.13342
 C441 C -0.10694 0.21960 -0.14951
 C442 C -0.14170 0.26998 -0.07564
 C443 C -0.13009 0.29774 -0.06738
 C444 C -0.10603 0.31052 -0.08369
 C445 C -0.09328 0.29380 -0.10887
 C446 C -0.06935 0.30670 -0.12531
 C447 C -0.05851 0.33506 -0.11783
 C448 C -0.07084 0.35176 -0.09362
 C449 C -0.09456 0.33964 -0.07592
 C450 C -0.10592 0.35738 -0.05127
 C451 C -0.09459 0.38589 -0.04499
 C452 C -0.07153 0.39790 -0.06285
 C453 C -0.05958 0.38064 -0.08705
 H454 H -0.07497 0.25338 -0.15525
 H455 H -0.16186 0.21798 -0.09566
 H456 H -0.09768 0.20692 -0.16875
 H457 H -0.16041 0.26135 -0.06265
 H458 H -0.14090 0.30875 -0.04818
 H459 H -0.05855 0.29562 -0.14448
 H460 H -0.04027 0.34409 -0.13131
 H461 H -0.12356 0.35006 -0.03624
 H462 H -0.10406 0.39862 -0.02589
 H463 H -0.04150 0.38965 -0.10077
 C464 C 0.13139 0.75851 -0.07324
 C465 C 0.10877 0.74287 -0.08909
 C466 C 0.09489 0.75790 -0.11453
 C467 C 0.10441 0.78663 -0.12442
 C468 C 0.12797 0.80098 -0.10955
 C469 C 0.14082 0.78691 -0.08345
 C470 C 0.07201 0.74394 -0.13052
 C471 C 0.06306 0.71490 -0.12255
 C472 C 0.07689 0.69837 -0.09826
 C473 C 0.09994 0.71273 -0.08103
 C474 C 0.11400 0.69616 -0.05693
 C475 C 0.10642 0.66649 -0.05031
 C476 C 0.08435 0.65211 -0.06704
 C477 C 0.06889 0.66777 -0.09099
 C478 C 0.04634 0.65185 -0.10678
 C479 C 0.03996 0.62172 -0.09928
 C480 C 0.05580 0.60647 -0.07598
 C481 C 0.07784 0.62191 -0.05988
 H482 H 0.14262 0.74940 -0.05310
 H483 H 0.09396 0.79737 -0.14443
 H484 H 0.15876 0.79759 -0.07112
 H485 H 0.06112 0.75547 -0.14978
 H486 H 0.04547 0.70582 -0.13639
 H487 H 0.13148 0.70520 -0.04292
 H488 H 0.11824 0.65451 -0.03203
 H489 H 0.03315 0.66193 -0.12500
 H490 H 0.02254 0.61033 -0.11178
 H491 H 0.09001 0.61041 -0.04148
 C492 C -0.14692 0.74742 0.08115
 C493 C -0.12043 0.73408 0.09195
 C494 C -0.10365 0.75047 0.11398
 C495 C -0.11352 0.77836 0.12521
 C496 C -0.14039 0.79060 0.11534
 C497 C -0.15666 0.77515 0.09275
 C498 C -0.07732 0.73874 0.12534
 C499 C -0.06761 0.71044 0.11631
 C500 C -0.08395 0.69254 0.09539
 C501 C -0.11037 0.70490 0.08228
 C502 C -0.12602 0.68749 0.06033
 C503 C -0.11681 0.65873 0.05216
 C504 C -0.09173 0.64602 0.06547
 C505 C -0.07484 0.66262 0.08727
 C506 C -0.04984 0.64822 0.10042
 C507 C -0.04207 0.61884 0.09207
 C508 C -0.05880 0.60281 0.07040
 C509 C -0.08358 0.61658 0.05714
 H510 H -0.16105 0.73681 0.06430
 H511 H -0.10045 0.79019 0.14242
 H512 H -0.17743 0.78409 0.08454
 H513 H -0.06421 0.75143 0.14185
 H514 H -0.04706 0.70325 0.12630
 H515 H -0.14569 0.69538 0.04896
 H516 H -0.12977 0.64609 0.03549
 H517 H -0.03589 0.65880 0.11746
 H518 H -0.02278 0.60867 0.10258
 H519 H -0.09668 0.60433 0.04026
 C520 C 1.09496 0.13542 0.75237
 C521 C 1.10612 0.10927 0.73751
 C522 C 1.13038 0.09457 0.75172
 C523 C 1.14318 0.10614 0.77903
 C524 C 1.13252 0.13271 0.79293
 C525 C 1.10794 0.14683 0.77945
 C526 C 1.14217 0.06859 0.73839
 C527 C 1.13102 0.05718 0.71066
 C528 C 1.10748 0.07141 0.69491
 C529 C 1.09446 0.09759 0.70886
 C530 C 1.07053 0.11147 0.69344
 C531 C 1.06031 0.10098 0.66494
 C532 C 1.07334 0.07620 0.65057
 C533 C 1.09680 0.06065 0.66543
 C534 C 1.10878 0.03528 0.64978
 C535 C 1.09833 0.02645 0.62044
 C536 C 1.07570 0.04249 0.60572
 C537 C 1.06308 0.06710 0.62114
 H538 H 1.07647 0.14798 0.74354
 H539 H 1.16196 0.09452 0.78906
 H540 H 1.09878 0.16717 0.78951
 H541 H 1.16056 0.05710 0.74933
 H542 H 1.14169 0.03720 0.70202
 H543 H 1.05921 0.13085 0.70258
 H544 H 1.04211 0.11266 0.65383
 H545 H 1.12637 0.02184 0.65932
 H546 H 1.10820 0.00709 0.60916
 H547 H 1.04523 0.07944 0.61012
 C548 C 0.86119 -0.08337 0.76768
 C549 C 0.88342 -0.09770 0.75004
 C550 C 0.89657 -0.12398 0.76317
 C551 C 0.88749 -0.13535 0.79251
 C552 C 0.86471 -0.12142 0.80927
 C553 C 0.85207 -0.09504 0.79655
 C554 C 0.91840 -0.13918 0.74672
 C555 C 0.92680 -0.12966 0.71697
 C556 C 0.91376 -0.10422 0.70236
 C557 C 0.89249 -0.08731 0.71961
 C558 C 0.88090 -0.06072 0.70578
 C559 C 0.88884 -0.05161 0.67572
 C560 C 0.90840 -0.06864 0.65800
 C561 C 0.92123 -0.09516 0.67103
 C562 C 0.94060 -0.11184 0.65183
 C563 C 0.94689 -0.10251 0.62130
 C564 C 0.93421 -0.07630 0.60862
 C565 C 0.91505 -0.05934 0.62717
 H566 H 0.84980 -0.06347 0.75961
 H567 H 0.89776 -0.15566 0.80179
 H568 H 0.83457 -0.08334 0.80865
 H569 H 0.92885 -0.15904 0.75677
 H570 H 0.94382 -0.14282 0.70611
 H571 H 0.86564 -0.04618 0.71764
 H572 H 0.87921 -0.03114 0.66607
 H573 H 0.95101 -0.13249 0.65938
 H574 H 0.96184 -0.11605 0.60751
 H575 H 0.90522 -0.03895 0.61759
 C576 C 1.13250 -0.08924 0.23441
 C577 C 1.11141 -0.10553 0.25202
 C578 C 1.09953 -0.13202 0.23850
 C579 C 1.10968 -0.14238 0.20928
 C580 C 1.13192 -0.12680 0.19295
 C581 C 1.14255 -0.09975 0.20570
 C582 C 1.07795 -0.14836 0.25446
 C583 C 1.06819 -0.13938 0.28383
 C584 C 1.07998 -0.11373 0.29878
 C585 C 1.10204 -0.09658 0.28263
 C586 C 1.11462 -0.07153 0.29793
 C587 C 1.10627 -0.06359 0.32798
 C588 C 1.08488 -0.07998 0.34402
 C589 C 1.07096 -0.10497 0.32962
 C590 C 1.04871 -0.12010 0.34691
 C591 C 1.04132 -0.11117 0.37728
 C592 C 1.05586 -0.08705 0.39148
 C593 C 1.07746 -0.07144 0.37460
 H594 H 1.14194 -0.06828 0.24207
 H595 H 1.10072 -0.16307 0.19977
 H596 H 1.15917 -0.08650 0.19370
 H597 H 1.06862 -0.16855 0.24424
 H598 H 1.05175 -0.15357 0.29454
 H599 H 1.13160 -0.05776 0.28767
 H600 H 1.11684 -0.04438 0.33885
 H601 H 1.03643 -0.13881 0.33769
 H602 H 1.02422 -0.12333 0.38975
 H603 H 1.08848 -0.05237 0.38522
 C604 C 0.85062 0.09537 0.25269
 C605 C 0.87479 0.10721 0.26934
 C606 C 0.88881 0.13318 0.25661
 C607 C 0.87854 0.14681 0.22870
 C608 C 0.85421 0.13497 0.21268
 C609 C 0.84064 0.10897 0.22511
 C610 C 0.91301 0.14552 0.27181
 C611 C 0.92368 0.13280 0.29943
 C612 C 0.91041 0.10709 0.31329
 C613 C 0.88542 0.09418 0.29808
 C614 C 0.87174 0.06885 0.31225
 C615 C 0.88191 0.05658 0.34024
 C616 C 0.90623 0.06875 0.35529
 C617 C 0.92108 0.09399 0.34200
 C618 C 0.94602 0.10497 0.35813
 C619 C 0.95536 0.09170 0.38624
 C620 C 0.94027 0.06711 0.39938
 C621 C 0.91576 0.05569 0.38369
 H622 H 0.83880 0.07553 0.26016
 H623 H 0.88958 0.16675 0.21962
 H624 H 0.82194 0.09882 0.21360
 H625 H 0.92389 0.16536 0.26225
 H626 H 0.94234 0.14399 0.30951
 H627 H 0.85276 0.05796 0.30253
 H628 H 0.87052 0.03724 0.35022
 H629 H 0.95896 0.12370 0.34971
 H630 H 0.97452 0.10085 0.39777
 H631 H 0.90407 0.03647 0.39352
 C632 C 0.14739 0.25311 -0.09370
 C633 C 0.12268 0.26849 -0.10611
 C634 C 0.10721 0.25434 -0.13078
 C635 C 0.11643 0.22632 -0.14255
 C636 C 0.14134 0.21159 -0.13043
 C637 C 0.15646 0.22532 -0.10565
 C638 C 0.08269 0.26830 -0.14394
 C639 C 0.07331 0.29633 -0.13364
 C640 C 0.08812 0.31176 -0.10951
 C641 C 0.11299 0.29743 -0.09518
 C642 C 0.12740 0.31260 -0.07058
 C643 C 0.11833 0.34094 -0.06070
 C644 C 0.09459 0.35547 -0.07483
 C645 C 0.07898 0.34110 -0.09932
 C646 C 0.05497 0.35692 -0.11272
 C647 C 0.04705 0.38559 -0.10231
 C648 C 0.06267 0.39966 -0.07829
 C649 C 0.08640 0.38442 -0.06456
 H650 H 0.16050 0.26198 -0.07493
 H651 H 0.10419 0.21625 -0.16158
 H652 H 0.17571 0.21478 -0.09544
 H653 H 0.07067 0.25750 -0.16270
 H654 H 0.05423 0.30527 -0.14529
 H655 H 0.14596 0.30322 -0.05832
 H656 H 0.13019 0.35169 -0.04180
 H657 H 0.04179 0.34797 -0.13138
 H658 H 0.02852 0.39680 -0.11323
 H659 H 0.09851 0.39505 -0.04577
 C660 C -0.14457 0.25331 0.09272
 C661 C -0.12149 0.26938 0.10711
 C662 C -0.10893 0.25659 0.13460
 C663 C -0.11966 0.22915 0.14726
 C664 C -0.14316 0.21390 0.13305
 C665 C -0.15511 0.22636 0.10545
 C666 C -0.08590 0.27139 0.14953
 C667 C -0.07522 0.29879 0.13809
 C668 C -0.08725 0.31275 0.11110
 C669 C -0.11073 0.29772 0.09529
 C670 C -0.12292 0.31169 0.06837
 C671 C -0.11300 0.33948 0.05752
 C672 C -0.09043 0.35457 0.07276
 C673 C -0.07688 0.34140 0.09953
 C674 C -0.05361 0.35768 0.11357
 C675 C -0.04471 0.38581 0.10174
 C676 C -0.05867 0.39878 0.07570
 C677 C -0.08141 0.38291 0.06124
 H678 H -0.15526 0.26088 0.07160
 H679 H -0.10988 0.22002 0.16848
 H680 H -0.17302 0.21540 0.09334
 H681 H -0.07609 0.26176 0.17049
 H682 H -0.05757 0.30862 0.15129
 H683 H -0.14052 0.30195 0.05507
 H684 H -0.12326 0.34934 0.03690
 H685 H -0.04173 0.34939 0.13367
 H686 H -0.02687 0.39751 0.11320
 H687 H -0.09214 0.39260 0.04082
 C688 C -0.13711 0.75852 -0.07119
 C689 C -0.11662 0.74069 -0.08780
 C690 C -0.10467 0.75311 -0.11582
 C691 C -0.11350 0.78176 -0.12684
 C692 C -0.13459 0.79858 -0.11061
 C693 C -0.14591 0.78678 -0.08249
 C694 C -0.08430 0.73668 -0.13309
 C695 C -0.07603 0.70779 -0.12379
 C696 C -0.08788 0.69393 -0.09662
 C697 C -0.10803 0.71090 -0.07793
 C698 C -0.11915 0.69737 -0.05022
 C699 C -0.11152 0.66811 -0.04144
 C700 C -0.09257 0.65099 -0.05978
 C701 C -0.08035 0.66362 -0.08758
 C702 C -0.06132 0.64516 -0.10537
 C703 C -0.05481 0.61570 -0.09590
 C704 C -0.06692 0.60339 -0.06846
 C705 C -0.08579 0.62119 -0.05042
 H706 H -0.14724 0.75119 -0.04963
 H707 H -0.10446 0.79058 -0.14859
 H708 H -0.16205 0.79926 -0.06917
 H709 H -0.07483 0.74615 -0.15433
 H710 H -0.06024 0.69690 -0.13868
 H711 H -0.13400 0.70875 -0.03463
 H712 H -0.12082 0.65868 -0.02013
 H713 H -0.05114 0.65256 -0.12686
 H714 H -0.04004 0.60251 -0.11025
 H715 H -0.09511 0.61192 -0.02901
 C716 C 0.14458 0.75620 0.07496
 C717 C 0.12161 0.73909 0.08871
 C718 C 0.10688 0.75181 0.11477
 C719 C 0.11530 0.78004 0.12670
 C720 C 0.13863 0.79641 0.11332
 C721 C 0.15286 0.78417 0.08706
 C722 C 0.08393 0.73621 0.12914
 C723 C 0.07548 0.70791 0.11874
 C724 C 0.08982 0.69378 0.09339
 C725 C 0.11300 0.70979 0.07780
 C726 C 0.12698 0.69582 0.05212
 C727 C 0.11900 0.66711 0.04227
 C728 C 0.09678 0.65103 0.05743
 C729 C 0.08183 0.66408 0.08323
 C730 C 0.05973 0.64660 0.09804
 C731 C 0.05294 0.61765 0.08774
 C732 C 0.06767 0.60491 0.06225
 C733 C 0.08953 0.62179 0.04704
 H734 H 0.15689 0.74860 0.05497
 H735 H 0.10375 0.78897 0.14685
 H736 H 0.17083 0.79603 0.07576
 H737 H 0.07242 0.74590 0.14892
 H738 H 0.05751 0.69772 0.13132
 H739 H 0.14443 0.70639 0.03903
 H740 H 0.13065 0.65725 0.02272
 H741 H 0.04727 0.65438 0.11784
 H742 H 0.03587 0.60520 0.09992
 H743 H 0.10102 0.61215 0.02722
 C744 C 0.25108 1.09149 0.86157
 C745 C 0.26853 1.10510 0.88500
 C746 C 0.25716 1.13120 0.89983
 C747 C 0.22999 1.14346 0.89070
 C748 C 0.21354 1.13025 0.86669
 C749 C 0.22422 1.10393 0.85263
 C750 C 0.27314 1.14528 0.92338
 C751 C 0.30054 1.13453 0.93224
 C752 C 0.31329 1.10913 0.91770
 C753 C 0.29691 1.09401 0.89384
 C754 C 0.30967 1.06865 0.87924
 C755 C 0.33765 1.05882 0.88694
 C756 C 0.35408 1.07360 0.90963
 C757 C 0.34208 1.09863 0.92582
 C758 C 0.35964 1.11221 0.94923
 C759 C 0.38794 1.10171 0.95560
 C760 C 0.39975 1.07749 0.93893
 C761 C 0.38260 1.06341 0.91613
 H762 H 0.25753 1.07138 0.84935
 H763 H 0.22195 1.16371 0.90199
 H764 H 0.21196 1.09296 0.83421
 H765 H 0.26449 1.16512 0.93494
 H766 H 0.31134 1.14706 0.95040
 H767 H 0.29879 1.05593 0.86129
 H768 H 0.34661 1.03945 0.87479
 H769 H 0.35230 1.13094 0.96314
 H770 H 0.40066 1.11273 0.97364
 H771 H 0.39142 1.04430 0.90343
 C772 C 0.24585 0.91853 1.12045
 C773 C 0.26358 0.90493 1.09724
 C774 C 0.25208 0.87932 1.08167
 C775 C 0.22466 0.86725 1.09015
 C776 C 0.20819 0.88005 1.11439
 C777 C 0.21877 0.90622 1.12883
 C778 C 0.26828 0.86533 1.05820
 C779 C 0.29634 0.87516 1.05078
 C780 C 0.30955 0.89942 1.06682
 C781 C 0.29254 0.91527 1.08964
 C782 C 0.30526 0.94052 1.10447
 C783 C 0.33395 0.94928 1.09828
 C784 C 0.35125 0.93322 1.07726
 C785 C 0.33931 0.90818 1.06103
 C786 C 0.35796 0.89254 1.04015
 C787 C 0.38687 0.90166 1.03543
 C788 C 0.39845 0.92638 1.05148
 C789 C 0.38056 0.94208 1.07245
 H790 H 0.25243 0.93827 1.13323
 H791 H 0.21665 0.84718 1.07853
 H792 H 0.20643 0.91694 1.14740
 H793 H 0.25935 0.84615 1.04577
 H794 H 0.30713 0.86302 1.03230
 H795 H 0.29369 0.95410 1.12125
 H796 H 0.34281 0.96867 1.11044
 H797 H 0.35115 0.87296 1.02727
 H798 H 0.40029 0.88913 1.01907
 H799 H 0.38933 0.96142 1.08477
 C800 C 0.74449 1.13947 1.08821
 C801 C 0.72859 1.11516 1.10180
 C802 C 0.74059 1.10113 1.12893
 C803 C 0.76687 1.11173 1.14214
 C804 C 0.78175 1.13648 1.12891
 C805 C 0.77045 1.14987 1.10161
 C806 C 0.72609 1.07689 1.14311
 C807 C 0.69952 1.06655 1.13150
 C808 C 0.68616 1.08017 1.10506
 C809 C 0.70110 1.10469 1.08976
 C810 C 0.68779 1.11829 1.06327
 C811 C 0.66053 1.10903 1.05265
 C812 C 0.64541 1.08572 1.06769
 C813 C 0.65811 1.07048 1.09374
 C814 C 0.64191 1.04642 1.10749
 C815 C 0.61414 1.03862 1.09636
 C816 C 0.60150 1.05445 1.07127
 C817 C 0.61743 1.07774 1.05681
 H818 H 0.73744 1.15128 1.06740
 H819 H 0.77541 1.10097 1.16316
 H820 H 0.78151 1.16885 1.09059
 H821 H 0.73524 1.06595 1.16373
 H822 H 0.68981 1.04797 1.14421
 H823 H 0.69765 1.13658 1.05026
 H824 H 0.65105 1.12048 1.03250
 H825 H 0.64992 1.03314 1.12693
 H826 H 0.60240 1.02023 1.10766
 H827 H 0.60801 1.08981 1.03701
 C828 C 0.74955 0.87367 0.92706
 C829 C 0.73391 0.89687 0.91121
 C830 C 0.74821 0.91182 0.88595
 C831 C 0.77630 0.90280 0.87628
 C832 C 0.79066 0.87854 0.89102
 C833 C 0.77732 0.86466 0.91699
 C834 C 0.73412 0.93512 0.86977
 C835 C 0.70554 0.94320 0.87709
 C836 C 0.68970 0.92807 0.90095
 C837 C 0.70438 0.90507 0.91888
 C838 C 0.68879 0.89049 0.94331
 C839 C 0.65960 0.89708 0.94920
 C840 C 0.64472 0.91856 0.93126
 C841 C 0.65951 0.93478 0.90717
 C842 C 0.64316 0.95664 0.89002
 C843 C 0.61352 0.96174 0.89645
 C844 C 0.59918 0.94528 0.92000
 C845 C 0.61495 0.92380 0.93735
 H846 H 0.74081 0.86140 0.94685
 H847 H 0.78646 0.91402 0.85636
 H848 H 0.78800 0.84612 0.92918
 H849 H 0.74514 0.94692 0.85073
 H850 H 0.69636 0.96124 0.86314
 H851 H 0.69836 0.87345 0.95826
 H852 H 0.64841 0.88488 0.96783
 H853 H 0.65244 0.97014 0.87140
 H854 H 0.60178 0.97864 0.88289
 H855 H 0.60409 0.91120 0.95594
   
