data_POSCAR
  _audit_creation_date              2014-09-24
  _audit_creation_method            'ToBaCCo'
  _symmetry_space_group_name_H-M    'P1'
  _symmetry_Int_Tables_number       1
  _symmetry_cell_setting            triclinic
  loop_
  _symmetry_equiv_pos_as_xyz
 x,y,z
_cell_length_a 15.5441
_cell_length_b 16.0040
_cell_length_c 16.4473
_cell_angle_alpha 89.235100
_cell_angle_beta 89.523800
_cell_angle_gamma 89.376900
loop_
  _atom_site_label
  _atom_site_type_symbol
  _atom_site_fract_x
  _atom_site_fract_y
  _atom_site_fract_z
C1 C 0.45191 1.00995 -0.58249
 C2 C 0.53488 0.97127 -0.58185
 C3 C 0.57749 0.96031 -0.50727
 C4 C 0.54073 0.98599 -0.43381
 C5 C 0.45739 1.02122 -0.43389
 C6 C 0.41491 1.03410 -0.50781
 H7 H 0.34871 1.05646 -0.50616
 H8 H 0.64324 0.93657 -0.50678
 C9 C -0.56148 1.42206 0.04023
 C10 C -0.47517 1.41656 0.06779
 C11 C -0.43335 1.49178 0.08312
 C12 C -0.46357 1.56704 0.04930
 C13 C -0.54428 1.57063 0.01149
 C14 C -0.59332 1.49856 0.01127
 H15 H -0.65913 1.50201 -0.01049
 H16 H -0.36805 1.48935 0.10613
 C17 C -0.02697 0.43323 0.42206
 C18 C -0.02668 0.52188 0.40961
 C19 C -0.03181 0.57395 0.47803
 C20 C -0.02968 0.54274 0.55846
 C21 C -0.03703 0.45519 0.57138
 C22 C -0.03934 0.40333 0.50280
 H23 H -0.04498 0.33653 0.51347
 H24 H -0.02917 0.64114 0.46844
 O25 O -0.22586 0.97829 -0.11556
 O26 O 0.21642 1.01114 -0.11142
 O27 O -0.01472 1.11833 -0.21185
 O28 O 0.00089 0.88809 -0.22560
 O29 O 0.00692 0.78003 -0.13079
 O30 O -0.02766 1.21129 -0.10577
 O31 O 0.11666 1.00590 -0.21449
 O32 O -0.12356 0.99650 -0.21695
 Zr33 Zr -0.00521 0.99812 -0.15313
 O34 O 0.07823 0.92268 -0.08699
 O35 O -0.09038 1.06286 -0.07876
 C36 C -0.20221 0.98695 -0.19079
 C37 C 0.19507 1.01111 -0.18689
 C38 C -0.02267 1.19378 -0.18273
 C39 C 0.00343 0.80893 -0.20502
 H40 H 0.09852 1.11419 -0.10841
 O41 O 0.06377 1.07339 -0.07709
 H42 H -0.11079 0.87635 -0.11983
 O43 O -0.07550 0.91239 -0.08550
 O44 O 0.21402 0.99705 0.10052
 O45 O -0.22600 0.96343 0.10136
 O46 O 0.09111 1.20823 0.00812
 O47 O 0.13069 0.78431 -0.02739
 O48 O -0.10248 0.76476 -0.00913
 O49 O -0.14541 1.18916 0.00435
 O50 O -0.01632 1.08706 0.20769
 O51 O -0.00006 0.85424 0.19409
 O52 O -0.02443 1.19448 0.11310
 O53 O 0.01090 0.76208 0.08704
 O54 O 0.20131 1.11157 0.00832
 O55 O -0.23770 1.07902 -0.00463
 O56 O -0.21390 0.86061 -0.00570
 O57 O 0.22335 0.89491 -0.01768
 O58 O 0.11175 0.98430 0.20214
 O59 O -0.12392 0.96076 0.20268
 Zr60 Zr 0.14134 0.99771 -0.00662
 Zr61 Zr -0.15441 0.97641 -0.00753
 Zr62 Zr -0.02042 1.13386 -0.00003
 Zr63 Zr 0.00735 0.84056 -0.01685
 Zr64 Zr -0.00635 0.97577 0.13757
 O65 O -0.07587 0.90086 0.06187
 O66 O 0.06250 1.06268 0.07102
 C67 C 0.19055 0.99340 0.17598
 C68 C -0.20274 0.95856 0.17678
 C69 C 0.17167 1.18673 0.01389
 C70 C 0.20678 0.81697 -0.02651
 C71 C -0.18297 0.78556 -0.00318
 C72 C -0.22219 1.15709 0.00302
 C73 C -0.02039 1.16618 0.18740
 C74 C 0.00537 0.77913 0.16375
 H75 H -0.12941 1.08091 0.10684
 O76 O -0.08919 1.05078 0.07050
 H77 H 0.11769 0.87577 0.09444
 O78 O 0.07721 0.91104 0.06261
 C79 C 0.35003 1.08536 0.32623
 C80 C 0.39801 1.01238 0.34834
 C81 C 0.38079 0.93734 0.30826
 C82 C 0.31230 0.93201 0.25399
 C83 C 0.26051 1.00188 0.23589
 C84 C 0.28262 1.08035 0.26809
 C85 C 0.37207 1.16458 0.35648
 C86 C 0.32889 1.23663 0.33047
 C87 C 0.26375 1.23163 0.27349
 C88 C 0.24094 1.15461 0.24186
 H89 H 0.42472 1.17187 0.39831
 H90 H 0.34643 1.29679 0.35423
 H91 H 0.22998 1.28774 0.25484
 H92 H 0.18995 1.15371 0.19748
 H93 H 0.41619 0.88066 0.32358
 H94 H 0.29890 0.87246 0.22654
 C95 C -0.36584 0.88354 0.33705
 C96 C -0.41488 0.95826 0.34750
 C97 C -0.39537 1.02821 0.29882
 C98 C -0.32495 1.02697 0.24580
 C99 C -0.27337 0.95536 0.23740
 C100 C -0.29396 0.88246 0.28267
 C101 C -0.38815 0.80928 0.37916
 C102 C -0.33944 0.73654 0.36971
 C103 C -0.26802 0.73626 0.31828
 C104 C -0.24494 0.80841 0.27520
 H105 H -0.44403 0.80685 0.41886
 H106 H -0.35726 0.68005 0.40233
 H107 H -0.23106 0.67948 0.31148
 H108 H -0.18929 0.80572 0.23542
 H109 H -0.42992 1.08674 0.30698
 H110 H -0.30861 1.08365 0.21277
 C111 C -0.37478 0.90567 -0.33273
 C112 C -0.40756 0.98255 -0.36415
 C113 C -0.37318 1.05774 -0.33661
 C114 C -0.30603 1.05785 -0.28113
 C115 C -0.27143 0.98286 -0.25101
 C116 C -0.30703 0.90587 -0.27490
 C117 C -0.40946 0.82855 -0.35639
 C118 C -0.37788 0.75346 -0.32411
 C119 C -0.31167 0.75367 -0.26775
 C120 C -0.27632 0.82889 -0.24316
 H121 H -0.46196 0.82586 -0.39910
 H122 H -0.40519 0.69482 -0.34260
 H123 H -0.28774 0.69516 -0.24298
 H124 H -0.22514 0.82617 -0.19913
 H125 H -0.39359 1.11693 -0.36273
 H126 H -0.27985 1.11703 -0.26249
 C127 C 0.38384 1.09324 -0.31459
 C128 C 0.40293 1.02087 -0.35985
 C129 C 0.36022 0.94640 -0.34145
 C130 C 0.29349 0.94465 -0.28478
 C131 C 0.26764 1.01712 -0.24478
 C132 C 0.31790 1.09025 -0.25390
 C133 C 0.42840 1.16836 -0.32830
 C134 C 0.41368 1.23706 -0.27856
 C135 C 0.35215 1.23305 -0.21662
 C136 C 0.30325 1.16101 -0.20534
 H137 H 0.47482 1.17440 -0.37721
 H138 H 0.44926 1.29405 -0.28882
 H139 H 0.33972 1.28724 -0.17948
 H140 H 0.25240 1.16208 -0.16017
 H141 H 0.37663 0.88983 -0.37383
 H142 H 0.26280 0.88597 -0.27098
 C143 C 0.29848 1.37356 0.08968
 C144 C 0.37776 1.35872 0.04750
 C145 C 0.38686 1.28858 -0.00085
 C146 C 0.31962 1.23362 -0.00795
 C147 C 0.23804 1.25039 0.02637
 C148 C 0.22675 1.32130 0.07640
 C149 C 0.28978 1.44017 0.14510
 C150 C 0.21088 1.45911 0.18097
 C151 C 0.13988 1.41023 0.16578
 C152 C 0.14778 1.34099 0.11567
 H153 H 0.34395 1.47859 0.16070
 H154 H 0.20505 1.51185 0.22081
 H155 H 0.07883 1.42507 0.19440
 H156 H 0.09135 1.30381 0.10998
 H157 H 0.44532 1.27723 -0.03549
 H158 H 0.33158 1.17791 -0.04285
 C159 C 0.36367 0.64504 -0.08724
 C160 C 0.41680 0.64485 -0.01713
 C161 C 0.40996 0.71144 0.03703
 C162 C 0.34344 0.76920 0.02985
 C163 C 0.28188 0.76169 -0.03113
 C164 C 0.29384 0.70244 -0.09309
 C165 C 0.37777 0.58749 -0.15051
 C166 C 0.32172 0.58422 -0.21600
 C167 C 0.25174 0.63892 -0.22037
 C168 C 0.23829 0.69856 -0.16034
 H169 H 0.43193 0.54444 -0.14924
 H170 H 0.33244 0.53891 -0.26341
 H171 H 0.20808 0.63516 -0.27080
 H172 H 0.18475 0.74165 -0.16740
 H173 H 0.44768 0.71277 0.09179
 H174 H 0.33578 0.81595 0.07655
 C175 C -0.34049 0.61300 -0.03752
 C176 C -0.39704 0.62789 0.02902
 C177 C -0.37696 0.68739 0.08669
 C178 C -0.30522 0.73653 0.07572
 C179 C -0.24695 0.72129 0.01202
 C180 C -0.26076 0.65473 -0.04138
 C181 C -0.35956 0.55430 -0.09796
 C182 C -0.29670 0.52909 -0.15363
 C183 C -0.21484 0.56295 -0.15074
 C184 C -0.19752 0.62725 -0.09702
 H185 H -0.42128 0.52399 -0.09985
 H186 H -0.31062 0.48095 -0.19707
 H187 H -0.16474 0.53959 -0.19050
 H188 H -0.13345 0.65232 -0.09738
 H189 H -0.41661 0.69583 0.14045
 H190 H -0.29479 0.78704 0.11743
 C191 C -0.42966 1.26126 0.08397
 C192 C -0.41678 1.34308 0.05342
 C193 C -0.34485 1.35774 0.00312
 C194 C -0.28530 1.29615 -0.01427
 C195 C -0.29699 1.21454 0.01344
 C196 C -0.37455 1.19465 0.05720
 C197 C -0.49617 1.24387 0.13991
 C198 C -0.51932 1.16184 0.15660
 C199 C -0.47337 1.09612 0.12249
 C200 C -0.40015 1.11179 0.07544
 H201 H -0.53302 1.29347 0.16820
 H202 H -0.57430 1.14933 0.19452
 H203 H -0.49290 1.03241 0.13480
 H204 H -0.36708 1.05753 0.05296
 H205 H -0.33191 1.41892 -0.02105
 H206 H -0.22887 1.31307 -0.04976
 C207 C 0.03837 1.29932 0.37325
 C208 C -0.01429 1.37210 0.35989
 C209 C -0.06502 1.37431 0.28978
 C210 C -0.06661 1.30673 0.23656
 C211 C -0.02113 1.23159 0.25248
 C212 C 0.02944 1.22664 0.32425
 C213 C 0.10351 1.29905 0.43260
 C214 C 0.14938 1.22635 0.45182
 C215 C 0.13183 1.15269 0.41235
 C216 C 0.07409 1.15282 0.34815
 H217 H 0.12027 1.35585 0.46310
 H218 H 0.19974 1.22691 0.49652
 H219 H 0.16693 1.09607 0.42832
 H220 H 0.06788 1.09437 0.31785
 H221 H -0.10780 1.42631 0.27762
 H222 H -0.10627 1.31260 0.18288
 C223 C 0.05125 1.36382 -0.33628
 C224 C -0.02569 1.41002 -0.34858
 C225 C -0.09822 1.38803 -0.30168
 C226 C -0.09537 1.32003 -0.24627
 C227 C -0.02253 1.26702 -0.24120
 C228 C 0.05108 1.28850 -0.28851
 C229 C 0.12758 1.38859 -0.37610
 C230 C 0.19900 1.33590 -0.37761
 C231 C 0.19500 1.25784 -0.34015
 C232 C 0.12397 1.23562 -0.29246
 H233 H 0.13108 1.44728 -0.40924
 H234 H 0.25581 1.35360 -0.41195
 H235 H 0.24718 1.21418 -0.34938
 H236 H 0.12562 1.17571 -0.26156
 H237 H -0.15862 1.42104 -0.31086
 H238 H -0.15237 1.30564 -0.21064
 C239 C 0.05898 0.65853 -0.37925
 C240 C -0.01383 0.60510 -0.37612
 C241 C -0.08024 0.62396 -0.32132
 C242 C -0.07402 0.69149 -0.26840
 C243 C -0.00289 0.74472 -0.26998
 C244 C 0.06222 0.73066 -0.32892
 C245 C 0.12867 0.64223 -0.43242
 C246 C 0.19614 0.69837 -0.44074
 C247 C 0.19603 0.77127 -0.39577
 C248 C 0.13041 0.78694 -0.33947
 H249 H 0.13162 0.58592 -0.46766
 H250 H 0.24859 0.68553 -0.48253
 H251 H 0.24753 0.81533 -0.40420
 H252 H 0.13236 0.84389 -0.30531
 H253 H -0.13877 0.58798 -0.32177
 H254 H -0.12679 0.70453 -0.22752
 C255 C 0.07159 0.60815 0.31881
 C256 C -0.00831 0.56715 0.33099
 C257 C -0.07810 0.59242 0.28279
 C258 C -0.07104 0.65869 0.22675
 C259 C 0.00442 0.70564 0.22037
 C260 C 0.07766 0.67853 0.26450
 C261 C 0.14540 0.58157 0.36153
 C262 C 0.22315 0.62340 0.35174
 C263 C 0.22886 0.69235 0.29946
 C264 C 0.15699 0.71985 0.25600
 H265 H 0.14378 0.52705 0.40117
 H266 H 0.27944 0.60183 0.38451
 H267 H 0.28949 0.72433 0.29216
 H268 H 0.16412 0.77326 0.21553
 H269 H -0.14035 0.56413 0.29220
 H270 H -0.12660 0.67607 0.19072
   
