data_POSCAR
  _audit_creation_date              2014-09-24
  _audit_creation_method            'ToBaCCo'
  _symmetry_space_group_name_H-M    'P1'
  _symmetry_Int_Tables_number       1
  _symmetry_cell_setting            triclinic
  loop_
  _symmetry_equiv_pos_as_xyz
 x,y,z
_cell_length_a 58.4024
_cell_length_b 58.3252
_cell_length_c 27.4720
_cell_angle_alpha 89.916700
_cell_angle_beta 90.048800
_cell_angle_gamma 119.796300
loop_
  _atom_site_label
  _atom_site_type_symbol
  _atom_site_fract_x
  _atom_site_fract_y
  _atom_site_fract_z
C1 C 0.49941 0.99941 0.47720
 C2 C 0.49926 0.99946 0.52667
 C3 C 0.48679 0.97460 0.55525
 C4 C 0.51158 1.02436 0.55505
 C5 C 0.51198 1.02427 0.44858
 C6 C 0.48697 0.97450 0.44885
 C7 C 0.46601 0.96948 0.58686
 C8 C 0.45419 0.94644 0.61477
 C9 C 0.46316 0.92798 0.61237
 C10 C 0.48424 0.93343 0.58040
 C11 C 0.49588 0.95647 0.55221
 C12 C 0.50283 1.04275 0.55064
 C13 C 0.51445 1.06589 0.57848
 C14 C 0.53500 1.07099 0.61120
 C15 C 0.54361 1.05243 0.61542
 C16 C 0.53190 1.02930 0.58785
 C17 C 0.53904 1.04246 0.45278
 C18 C 0.55055 1.06553 0.42462
 C19 C 0.53518 1.07074 0.39179
 C20 C 0.50809 1.05238 0.38781
 C21 C 0.49667 1.02933 0.41570
 C22 C 0.50241 0.96936 0.41653
 C23 C 0.49108 0.94633 0.38870
 C24 C 0.46393 0.92806 0.39217
 C25 C 0.44844 0.93333 0.42452
 C26 C 0.45988 0.95637 0.45262
 H27 H 0.45882 0.98334 0.58972
 H28 H 0.43813 0.94339 0.63857
 H29 H 0.49195 0.92002 0.57705
 H30 H 0.51216 0.96031 0.52833
 H31 H 0.48690 1.03906 0.52594
 H32 H 0.50731 1.07973 0.57440
 H33 H 0.53881 1.01526 0.59188
 H34 H 0.55123 1.03868 0.47753
 H35 H 0.57147 1.07921 0.42852
 H36 H 0.49567 1.05565 0.36278
 H37 H 0.47579 1.01543 0.41183
 H38 H 0.52333 0.98321 0.41300
 H39 H 0.50360 0.94301 0.36405
 H40 H 0.42748 0.91972 0.42803
 H41 H 0.44758 0.96022 0.47691
 H42 H 0.55927 1.05562 0.64039
 C43 C -0.00078 0.49992 0.47543
 C44 C -0.00083 0.50005 0.52490
 C45 C 0.02399 0.51259 0.55348
 C46 C -0.02572 0.48760 0.55329
 C47 C -0.02561 0.48750 0.44689
 C48 C 0.02409 0.51222 0.44701
 C49 C 0.02901 0.49724 0.58637
 C50 C 0.05203 0.50863 0.61421
 C51 C 0.07040 0.53575 0.61019
 C52 C 0.06522 0.55117 0.57736
 C53 C 0.04219 0.53968 0.54924
 C54 C -0.04386 0.46049 0.54950
 C55 C -0.06690 0.44906 0.57757
 C56 C -0.07214 0.46458 0.60994
 C57 C -0.05385 0.49174 0.61346
 C58 C -0.03082 0.50307 0.58565
 C59 C -0.04371 0.49661 0.45010
 C60 C -0.06673 0.48499 0.42197
 C61 C -0.07211 0.46397 0.39004
 C62 C -0.05376 0.45496 0.38731
 C63 C -0.03074 0.46674 0.41514
 C64 C 0.02907 0.53259 0.41419
 C65 C 0.05217 0.54428 0.38658
 C66 C 0.07066 0.53560 0.39078
 C67 C 0.06552 0.51501 0.42352
 C68 C 0.04241 0.50341 0.45140
 H69 H 0.01510 0.47633 0.59026
 H70 H 0.05527 0.49617 0.63925
 H71 H 0.07891 0.57212 0.57343
 H72 H 0.03844 0.55191 0.52449
 H73 H -0.04004 0.44817 0.52517
 H74 H -0.08053 0.42808 0.57402
 H75 H -0.01696 0.52400 0.58920
 H76 H -0.03988 0.51288 0.47405
 H77 H -0.08021 0.49260 0.42526
 H78 H -0.05694 0.43892 0.36332
 H79 H -0.01690 0.45953 0.41212
 H80 H 0.01507 0.53955 0.41018
 H81 H 0.05538 0.55998 0.36160
 H82 H 0.07931 0.50782 0.42758
 H83 H 0.03869 0.48744 0.47610
 H84 H -0.05715 0.50427 0.63812
 C85 C 0.49956 0.50007 0.47791
 C86 C 0.49954 0.50010 0.52726
 C87 C 0.48677 0.51227 0.55537
 C88 C 0.51228 0.48795 0.55566
 C89 C 0.51185 0.48739 0.44980
 C90 C 0.48730 0.51273 0.44951
 C91 C 0.49725 0.53971 0.55573
 C92 C 0.48524 0.55095 0.58335
 C93 C 0.46231 0.53487 0.61080
 C94 C 0.45183 0.50726 0.60963
 C95 C 0.46411 0.49616 0.58260
 C96 C 0.53491 0.50408 0.58293
 C97 C 0.54716 0.49301 0.61022
 C98 C 0.53669 0.46540 0.61161
 C99 C 0.51379 0.44930 0.58412
 C100 C 0.50181 0.46051 0.55624
 C101 C 0.49598 0.46540 0.42073
 C102 C 0.50721 0.45326 0.39364
 C103 C 0.53462 0.46317 0.39453
 C104 C 0.55051 0.48536 0.42357
 C105 C 0.53919 0.49732 0.45111
 C106 C 0.45996 0.50279 0.45067
 C107 C 0.44867 0.51472 0.42287
 C108 C 0.46458 0.53689 0.39371
 C109 C 0.49200 0.54680 0.39298
 C110 C 0.50320 0.53469 0.42033
 H111 H 0.51486 0.55239 0.53497
 H112 H 0.49398 0.57224 0.58302
 H113 H 0.43431 0.49409 0.63012
 H114 H 0.45582 0.47492 0.58263
 H115 H 0.54319 0.52533 0.58279
 H116 H 0.56466 0.50620 0.63073
 H117 H 0.48422 0.44781 0.53546
 H118 H 0.47485 0.45756 0.41926
 H119 H 0.49442 0.43632 0.37147
 H120 H 0.57168 0.49347 0.42508
 H121 H 0.55173 0.51445 0.47310
 H122 H 0.44740 0.48568 0.47275
 H123 H 0.42750 0.50661 0.42426
 H124 H 0.50480 0.56372 0.37073
 H125 H 0.52434 0.54253 0.41898
 H126 H 0.50506 0.42801 0.58396
 O127 O 0.37222 0.66063 -0.04254
 O128 O 0.37091 0.70407 -0.05737
 C129 C 0.35856 0.71639 -0.06551
 O130 O 0.33850 0.71260 -0.04115
 O131 O 0.29500 0.66782 -0.05546
 C132 C 0.28284 0.64319 -0.06370
 O133 O 0.28685 0.62685 -0.03966
 O134 O 0.33127 0.62734 -0.05473
 C135 C 0.35565 0.63990 -0.06492
 O136 O 0.37221 0.66812 0.05431
 O137 O 0.37276 0.71267 0.03953
 C138 C 0.35650 0.71663 0.06376
 O139 O 0.33189 0.70451 0.05560
 O140 O 0.28712 0.66104 0.04131
 C141 C 0.28335 0.64090 0.06555
 O142 O 0.29559 0.62849 0.05716
 O143 O 0.33892 0.62716 0.04201
 C144 C 0.35964 0.64369 0.06443
 Cr145 Cr 0.37053 0.68562 -0.00144
 Cr146 Cr 0.31388 0.68574 0.00007
 Cr147 Cr 0.31391 0.62896 0.00112
 O148 O 0.33279 0.66675 -0.00009
 O149 O 0.62688 0.33969 -0.04054
 O150 O 0.62813 0.29626 -0.05560
 C151 C 0.64049 0.28398 -0.06400
 O152 O 0.66060 0.28772 -0.03981
 O153 O 0.70406 0.33251 -0.05416
 C154 C 0.71621 0.35717 -0.06234
 O155 O 0.71227 0.37346 -0.03813
 O156 O 0.66782 0.37300 -0.05286
 C157 C 0.64343 0.36045 -0.06296
 O158 O 0.62705 0.33202 0.05627
 O159 O 0.62647 0.28750 0.04123
 C160 C 0.64276 0.28345 0.06524
 O161 O 0.66737 0.29559 0.05695
 O162 O 0.71212 0.33911 0.04257
 C163 C 0.71593 0.35920 0.06692
 O164 O 0.70366 0.37160 0.05876
 O165 O 0.66032 0.37300 0.04393
 C166 C 0.63963 0.35644 0.06641
 Cr167 Cr 0.62863 0.31462 0.00041
 Cr168 Cr 0.68528 0.31449 0.00140
 Cr169 Cr 0.68527 0.37127 0.00285
 O170 O 0.66637 0.33348 0.00155
 C171 C 0.42997 0.86216 -0.30182
 N172 N 0.42074 0.87937 -0.30120
 N173 N 0.43152 0.90076 -0.32941
 C174 C 0.45199 0.90592 -0.35961
 N175 N 0.46105 0.88843 -0.36031
 N176 N 0.45032 0.86704 -0.33193
 C177 C 0.41843 0.83904 -0.26944
 N178 N 0.42899 0.82295 -0.26607
 N179 N 0.41888 0.80253 -0.23535
 C180 C 0.39780 0.79743 -0.20706
 N181 N 0.38717 0.81343 -0.21071
 N182 N 0.39731 0.83386 -0.24127
 C183 C 0.38709 0.77558 -0.17184
 N184 N 0.36568 0.77047 -0.14462
 N185 N 0.35641 0.75135 -0.11130
 C186 C 0.36822 0.73663 -0.10387
 N187 N 0.38956 0.74162 -0.13127
 N188 N 0.39882 0.76074 -0.16470
 C189 C 0.13792 0.56949 -0.30114
 N190 N 0.12196 0.54290 -0.30315
 N191 N 0.10069 0.53227 -0.33158
 C192 C 0.09451 0.54776 -0.35923
 N193 N 0.11062 0.57440 -0.35741
 N194 N 0.13190 0.58507 -0.32885
 C195 C 0.16085 0.58102 -0.26845
 N196 N 0.17595 0.60761 -0.26322
 N197 N 0.19621 0.61785 -0.23225
 C198 C 0.20211 0.60186 -0.20549
 N199 N 0.18709 0.57531 -0.21098
 N200 N 0.16684 0.56508 -0.24184
 C201 C 0.22380 0.61290 -0.17003
 N202 N 0.22941 0.59661 -0.14366
 N203 N 0.24844 0.60634 -0.11026
 C204 C 0.26258 0.63274 -0.10192
 N205 N 0.25708 0.64908 -0.12846
 N206 N 0.23803 0.63933 -0.16195
 C207 C 0.42777 0.56745 -0.30353
 N208 N 0.41645 0.54087 -0.30830
 N209 N 0.42754 0.53041 -0.33616
 C210 C 0.45034 0.54605 -0.36065
 N211 N 0.46146 0.57271 -0.35612
 N212 N 0.45047 0.58319 -0.32798
 C213 C 0.41607 0.57888 -0.27119
 N214 N 0.42959 0.60491 -0.25941
 N215 N 0.41941 0.61501 -0.22843
 C216 C 0.39526 0.59948 -0.20835
 N217 N 0.38163 0.57351 -0.22048
 N218 N 0.39189 0.56337 -0.25122
 C219 C 0.38454 0.61038 -0.17265
 N220 N 0.35932 0.59578 -0.15649
 N221 N 0.34994 0.60533 -0.12275
 C222 C 0.36549 0.62976 -0.10371
 N223 N 0.39067 0.64437 -0.11999
 N224 N 0.40000 0.63489 -0.15394
 C225 C 0.56913 0.13891 -0.30110
 N226 N 0.57962 0.12276 -0.30302
 N227 N 0.56887 0.10136 -0.33113
 C228 C 0.54722 0.09524 -0.35857
 N229 N 0.53683 0.11155 -0.35685
 N230 N 0.54755 0.13295 -0.32860
 C231 C 0.58063 0.16197 -0.26870
 N232 N 0.56926 0.17725 -0.26347
 N233 N 0.57935 0.19760 -0.23268
 C234 C 0.60120 0.20341 -0.20612
 N235 N 0.61263 0.18823 -0.21162
 N236 N 0.60253 0.16788 -0.24229
 C237 C 0.61190 0.22515 -0.17074
 N238 N 0.63370 0.23060 -0.14443
 N239 N 0.64298 0.24960 -0.11096
 C240 C 0.63079 0.26386 -0.10249
 N241 N 0.60905 0.25853 -0.12899
 N242 N 0.59977 0.23951 -0.16254
 C243 C 0.86050 0.43095 -0.30103
 N244 N 0.86648 0.41534 -0.32859
 N245 N 0.88770 0.42597 -0.35729
 C246 C 0.90378 0.45261 -0.35940
 N247 N 0.89763 0.46813 -0.33190
 N248 N 0.87642 0.45753 -0.30333
 C249 C 0.83765 0.41944 -0.26814
 N250 N 0.83173 0.43538 -0.24150
 N251 N 0.81156 0.42516 -0.21046
 C252 C 0.79657 0.39860 -0.20481
 N253 N 0.80240 0.38261 -0.23160
 N254 N 0.82257 0.39285 -0.26275
 C255 C 0.77498 0.38756 -0.16915
 N256 N 0.76076 0.36112 -0.16103
 N257 N 0.74181 0.35134 -0.12738
 C258 C 0.73639 0.36766 -0.10070
 N259 N 0.75052 0.39407 -0.10907
 N260 N 0.76946 0.40383 -0.14264
 C261 C 0.57118 0.43290 -0.30207
 N262 N 0.54850 0.41714 -0.32655
 N263 N 0.53752 0.42760 -0.35488
 C264 C 0.54864 0.45425 -0.35960
 N265 N 0.57142 0.46991 -0.33508
 N266 N 0.58249 0.45947 -0.30701
 C267 C 0.58288 0.42150 -0.26954
 N268 N 0.60705 0.43702 -0.24956
 N269 N 0.61731 0.42690 -0.21870
 C270 C 0.60369 0.40092 -0.20644
 N271 N 0.57954 0.38538 -0.22653
 N272 N 0.56936 0.39547 -0.25764
 C273 C 0.61443 0.39004 -0.17066
 N274 N 0.59899 0.36551 -0.15189
 N275 N 0.60834 0.35602 -0.11792
 C276 C 0.63354 0.37062 -0.10169
 N277 N 0.64907 0.39506 -0.12079
 N278 N 0.63966 0.40463 -0.15455
 C279 C 0.86136 0.43045 0.30323
 N280 N 0.86637 0.45095 0.33306
 N281 N 0.88771 0.46166 0.36143
 C282 C 0.90498 0.45239 0.36098
 N283 N 0.89977 0.43178 0.33111
 N284 N 0.87842 0.42102 0.30291
 C285 C 0.83830 0.41893 0.27085
 N286 N 0.83303 0.39770 0.24288
 N287 N 0.81265 0.38759 0.21231
 C288 C 0.79678 0.39835 0.20846
 N289 N 0.80196 0.41953 0.23656
 N290 N 0.82234 0.42962 0.26728
 C291 C 0.77498 0.38766 0.17323
 N292 N 0.76024 0.39948 0.16600
 N293 N 0.74116 0.39025 0.13257
 C294 C 0.73612 0.36884 0.10527
 N295 N 0.75074 0.35694 0.11280
 N296 N 0.76982 0.36619 0.14611
 C297 C 0.56897 0.13835 0.30299
 N298 N 0.58450 0.13229 0.33069
 N299 N 0.57382 0.11099 0.35929
 C300 C 0.54721 0.09489 0.36117
 N301 N 0.53177 0.10111 0.33353
 N302 N 0.54241 0.12241 0.30506
 C303 C 0.58052 0.16131 0.27025
 N304 N 0.56462 0.16734 0.24366
 N305 N 0.57487 0.18762 0.21275
 C306 C 0.60139 0.20262 0.20720
 N307 N 0.61733 0.19668 0.23395
 N308 N 0.60708 0.17640 0.26497
 C309 C 0.61243 0.22434 0.17170
 N310 N 0.63884 0.23855 0.16355
 N311 N 0.64860 0.25762 0.13003
 C312 C 0.63230 0.26316 0.10351
 N313 N 0.60594 0.24905 0.11191
 N314 N 0.59619 0.22999 0.14535
 C315 C 0.56793 0.42844 0.30689
 N316 N 0.54162 0.41562 0.31598
 N317 N 0.53112 0.42656 0.34414
 C318 C 0.54650 0.45070 0.36450
 N319 N 0.57288 0.46340 0.35569
 N320 N 0.58338 0.45251 0.32732
 C321 C 0.57930 0.41685 0.27415
 N322 N 0.60481 0.43115 0.25949
 N323 N 0.61481 0.42101 0.22820
 C324 C 0.59971 0.39616 0.21061
 N325 N 0.57426 0.38177 0.22559
 N326 N 0.56423 0.39195 0.25670
 C327 C 0.61046 0.38543 0.17459
 N328 N 0.59617 0.35993 0.15965
 N329 N 0.60560 0.35053 0.12570
 C330 C 0.62960 0.36634 0.10528
 N331 N 0.64390 0.39180 0.12037
 N332 N 0.63453 0.40115 0.15447
 C333 C 0.13848 0.56967 0.30294
 N334 N 0.13250 0.54805 0.33047
 N335 N 0.11112 0.53735 0.35877
 C336 C 0.09488 0.54780 0.36050
 N337 N 0.10103 0.56949 0.33302
 N338 N 0.12240 0.58022 0.30486
 C339 C 0.16151 0.58115 0.27048
 N340 N 0.16745 0.60309 0.24403
 N341 N 0.18777 0.61317 0.21332
 C342 C 0.20289 0.60168 0.20782
 N343 N 0.19705 0.57979 0.23443
 N344 N 0.17673 0.56972 0.26526
 C345 C 0.22460 0.61235 0.17239
 N346 N 0.23891 0.60018 0.16421
 N347 N 0.25790 0.60943 0.13062
 C348 C 0.26326 0.63121 0.10407
 N349 N 0.24906 0.64345 0.11253
 N350 N 0.23008 0.63419 0.14604
 C351 C 0.43029 0.86074 0.30292
 N352 N 0.45684 0.87662 0.30528
 N353 N 0.46745 0.89782 0.33392
 C354 C 0.45196 0.90399 0.36145
 N355 N 0.42535 0.88795 0.35928
 N356 N 0.41471 0.86675 0.33051
 C357 C 0.41877 0.83792 0.26994
 N358 N 0.39222 0.82289 0.26451
 N359 N 0.38198 0.80275 0.23327
 C360 C 0.39793 0.79691 0.20643
 N361 N 0.42445 0.81185 0.21213
 N362 N 0.43468 0.83199 0.24326
 C363 C 0.38689 0.77535 0.17070
 N364 N 0.40313 0.76981 0.14414
 N365 N 0.39337 0.75089 0.11052
 C366 C 0.36700 0.73680 0.10215
 N367 N 0.35071 0.74223 0.12887
 N368 N 0.36049 0.76117 0.16256
 C369 C 0.43135 0.57156 0.30540
 N370 N 0.45765 0.58438 0.31457
 N371 N 0.46813 0.57346 0.34294
 C372 C 0.45273 0.54933 0.36343
 N373 N 0.42636 0.53663 0.35452
 N374 N 0.41588 0.54750 0.32595
 C375 C 0.42000 0.58315 0.27247
 N376 N 0.39450 0.56884 0.25777
 N377 N 0.38451 0.57898 0.22636
 C378 C 0.39962 0.60384 0.20868
 N379 N 0.42506 0.61823 0.22370
 N380 N 0.43508 0.60804 0.25493
 C381 C 0.38888 0.61459 0.17259
 N382 N 0.40316 0.64010 0.15761
 N383 N 0.39372 0.64953 0.12364
 C384 C 0.36971 0.63374 0.10325
 N385 N 0.35542 0.60827 0.11837
 N386 N 0.36480 0.59888 0.15248
   
