data_POSCAR
  _audit_creation_date              2014-09-24
  _audit_creation_method            'ToBaCCo'
  _symmetry_space_group_name_H-M    'P1'
  _symmetry_Int_Tables_number       1
  _symmetry_cell_setting            triclinic
  loop_
  _symmetry_equiv_pos_as_xyz
 x,y,z
_cell_length_a 26.0422
_cell_length_b 26.2929
_cell_length_c 23.2834
_cell_angle_alpha 89.414200
_cell_angle_beta 90.641700
_cell_angle_gamma 90.241200
loop_
  _atom_site_label
  _atom_site_type_symbol
  _atom_site_fract_x
  _atom_site_fract_y
  _atom_site_fract_z
C1 C 0.28392 0.35219 -0.00331
 C2 C 0.29283 0.34814 -0.06263
 C3 C 0.32776 0.31228 -0.08243
 C4 C 0.35849 0.28464 -0.04429
 C5 C 0.34892 0.28665 0.01475
 C6 C 0.31079 0.31955 0.03511
 H7 H 0.30426 0.32191 0.08085
 H8 H 0.33789 0.31288 -0.12757
 C9 C 0.71576 0.65856 0.03730
 C10 C 0.71993 0.65598 -0.02261
 C11 C 0.68545 0.68283 -0.05759
 C12 C 0.64446 0.70889 -0.03444
 C13 C 0.64004 0.71346 0.02541
 C14 C 0.67621 0.68824 0.06166
 H15 H 0.67300 0.69081 0.10784
 H16 H 0.68705 0.67889 -0.10386
 C17 C 0.72848 0.34527 1.00070
 C18 C 0.71956 0.34885 1.06008
 C19 C 0.68865 0.31234 1.08719
 C20 C 0.66261 0.27488 1.05554
 C21 C 0.67087 0.27095 0.99646
 C22 C 0.70508 0.30520 0.96960
 H23 H 0.71063 0.30289 0.92370
 H24 H 0.68009 0.31687 1.13231
 C25 C 0.27429 0.65558 0.95710
 C26 C 0.26441 0.66685 1.01496
 C27 C 0.29159 0.70614 1.04218
 C28 C 0.32866 0.73388 1.01189
 C29 C 0.33933 0.72234 0.95475
 C30 C 0.31260 0.68282 0.92748
 H31 H 0.32061 0.67429 0.88310
 H32 H 0.28183 0.71698 1.08551
 C33 C 0.03857 0.27202 0.33815
 C34 C -0.01517 0.27226 0.33470
 C35 C -0.04063 0.30979 0.30219
 C36 C -0.01319 0.34707 0.27192
 C37 C 0.04100 0.34551 0.27261
 C38 C 0.06687 0.30859 0.30679
 H39 H 0.10842 0.30808 0.30862
 H40 H -0.08218 0.31065 0.30130
 C41 C 0.01776 0.73130 0.67840
 C42 C -0.03517 0.73874 0.67630
 C43 C -0.06850 0.70215 0.69936
 C44 C -0.04909 0.65689 0.72387
 C45 C 0.00453 0.65129 0.73077
 C46 C 0.03724 0.68948 0.70875
 H47 H 0.07848 0.68530 0.71252
 H48 H -0.10960 0.70669 0.69330
 C49 C 1.00053 0.73555 0.33278
 C50 C 1.05352 0.72713 0.34032
 C51 C 1.07685 0.68603 0.31207
 C52 C 1.04730 0.65325 0.27749
 C53 C 0.99479 0.66254 0.26914
 C54 C 0.97203 0.70418 0.29565
 H55 H 0.93107 0.70998 0.29058
 H56 H 1.11684 0.67719 0.32050
 C57 C 0.96046 0.27615 0.65018
 C58 C 1.01294 0.26695 0.65855
 C59 C 1.04265 0.29993 0.69192
 C60 C 1.01916 0.34070 0.72001
 C61 C 0.96552 0.34651 0.71673
 C62 C 0.93665 0.31524 0.67973
 H63 H 0.89564 0.32048 0.67469
 H64 H 1.08350 0.29333 0.69706
 C65 C 0.33830 0.02734 0.28467
 C66 C 0.33910 -0.02429 0.27099
 C67 C 0.31479 -0.05973 0.30661
 C68 C 0.28906 -0.04392 0.35613
 C69 C 0.28339 0.00869 0.36658
 C70 C 0.30912 0.04381 0.33096
 H71 H 0.30660 0.08416 0.33921
 H72 H 0.31934 -0.09998 0.29833
 C73 C 0.67447 0.02009 0.73736
 C74 C 0.67486 -0.03334 0.73779
 C75 C 0.71037 -0.05918 0.70372
 C76 C 0.74418 -0.03202 0.66820
 C77 C 0.74407 0.02091 0.66824
 C78 C 0.70984 0.04694 0.70319
 H79 H 0.70932 0.08811 0.70168
 H80 H 0.70989 -0.10033 0.70255
 C81 C 0.35422 0.99328 0.74138
 C82 C 0.34518 1.04631 0.73851
 C83 C 0.29713 1.06359 0.71740
 C84 C 0.26096 1.02930 0.69455
 C85 C 0.27190 0.97747 0.69323
 C86 C 0.31660 0.95969 0.71967
 H87 H 0.32329 0.91909 0.72077
 H88 H 0.28981 1.10409 0.71394
 C89 C 0.62953 0.97194 0.28817
 C90 C 0.63358 1.02528 0.28889
 C91 C 0.67632 1.04824 0.31518
 C92 C 0.71417 1.01821 0.34117
 C93 C 0.70787 0.96523 0.34537
 C94 C 0.66543 0.94205 0.31881
 H95 H 0.66190 0.90101 0.31940
 H96 H 0.68154 1.08911 0.31262
 O97 O 0.90969 0.83367 0.43508
 O98 O 0.82749 0.90016 0.53939
 O99 O 0.91300 0.86361 0.54564
 O100 O 0.82398 0.89454 0.43122
 O101 O 0.77870 0.82470 0.44689
 O102 O 0.87402 0.78991 0.56098
 O103 O 0.78525 0.82835 0.55613
 O104 O 0.86221 0.76517 0.44923
 Cu105 Cu 0.87406 0.87861 0.48317
 Cu106 Cu 0.82203 0.79416 0.50316
 C107 C 0.89929 0.78725 0.42490
 C108 C 0.79359 0.87466 0.56679
 C109 C 0.90690 0.82381 0.57547
 C110 C 0.78412 0.86792 0.42236
 O111 O 0.13497 0.07168 0.56303
 O112 O 0.10201 0.15983 0.44417
 O113 O 0.16754 0.07715 0.46025
 O114 O 0.06874 0.13323 0.54854
 O115 O 0.12255 0.19259 0.57931
 O116 O 0.22277 0.13641 0.48717
 O117 O 0.15944 0.21495 0.47581
 O118 O 0.19422 0.12584 0.59363
 Cu119 Cu 0.11313 0.10640 0.49714
 Cu120 Cu 0.18040 0.17340 0.53615
 C121 C 0.16880 0.08487 0.59980
 C122 C 0.12377 0.20325 0.44092
 C123 C 0.21238 0.09591 0.45982
 C124 C 0.07925 0.16981 0.58157
 O125 O 0.20561 0.88310 0.47072
 O126 O 0.11604 0.81815 0.57211
 O127 O 0.18858 0.88740 0.58001
 O128 O 0.13019 0.81552 0.46090
 O129 O 0.18727 0.75452 0.47405
 O130 O 0.24354 0.82486 0.59597
 O131 O 0.17256 0.75649 0.58468
 O132 O 0.26104 0.82139 0.48859
 Cu133 Cu 0.15413 0.85705 0.51927
 Cu134 Cu 0.22144 0.78293 0.53689
 C135 C 0.24979 0.86339 0.46475
 C136 C 0.12958 0.77617 0.59545
 C137 C 0.22658 0.86873 0.60751
 C138 C 0.14859 0.77267 0.44736
 O139 O 0.89182 0.17458 0.54700
 O140 O 0.85472 0.08479 0.43772
 O141 O 0.90348 0.17143 0.43848
 O142 O 0.83052 0.09809 0.54604
 O143 O 0.76280 0.14631 0.52812
 O144 O 0.83267 0.21338 0.41555
 O145 O 0.78275 0.12664 0.42021
 O146 O 0.82532 0.22369 0.52632
 Cu147 Cu 0.87667 0.12714 0.49389
 Cu148 Cu 0.79381 0.18181 0.47045
 C149 C 0.86664 0.21497 0.55451
 C150 C 0.81298 0.08976 0.41033
 C151 C 0.88016 0.20564 0.40937
 C152 C 0.78458 0.11128 0.55659
 O153 O 0.54616 0.80187 0.89222
 O154 O 0.46516 0.90106 0.82356
 O155 O 0.44857 0.81442 0.87916
 O156 O 0.56295 0.88171 0.82453
 O157 O 0.56014 0.83192 0.74872
 O158 O 0.44077 0.77213 0.79790
 O159 O 0.46241 0.85561 0.74431
 O160 O 0.53439 0.75410 0.81558
 Cu161 Cu 0.50640 0.85462 0.86256
 Cu162 Cu 0.50002 0.79954 0.76815
 C163 C 0.55066 0.75975 0.86663
 C164 C 0.44995 0.89479 0.77218
 C165 C 0.42595 0.78104 0.84839
 C166 C 0.58074 0.86784 0.77659
 O167 O 0.54095 0.19330 0.12629
 O168 O 0.43474 0.12238 0.19309
 O169 O 0.44077 0.19640 0.11682
 O170 O 0.53313 0.11698 0.19623
 O171 O 0.53374 0.17241 0.26699
 O172 O 0.43794 0.25095 0.18819
 O173 O 0.43375 0.17726 0.26431
 O174 O 0.53855 0.24895 0.19667
 Cu175 Cu 0.48700 0.15208 0.15058
 Cu176 Cu 0.48566 0.21804 0.23608
 C177 C 0.55834 0.23284 0.15089
 C178 C 0.41729 0.13700 0.24093
 C179 C 0.42353 0.23693 0.13849
 C180 C 0.54951 0.13134 0.24495
 O181 O 0.56312 0.10371 0.82439
 O182 O 0.47051 0.18401 0.90109
 O183 O 0.46242 0.11513 0.81707
 O184 O 0.56994 0.17767 0.89970
 O185 O 0.58323 0.23146 0.82758
 O186 O 0.47503 0.17439 0.75099
 O187 O 0.48781 0.24569 0.83924
 O188 O 0.57440 0.16454 0.75945
 Cu189 Cu 0.51507 0.13882 0.86705
 Cu190 Cu 0.52674 0.20947 0.78741
 C191 C 0.58531 0.12099 0.77987
 C192 C 0.46742 0.23024 0.88549
 C193 C 0.45180 0.13480 0.76819
 C194 C 0.59447 0.21522 0.87749
 O195 O 0.54195 0.89957 0.16543
 O196 O 0.44475 0.85545 0.06395
 O197 O 0.45535 0.92356 0.13076
 O198 O 0.54253 0.82235 0.08769
 O199 O 0.51326 0.77065 0.15492
 O200 O 0.42318 0.87368 0.19867
 O201 O 0.41708 0.79876 0.12734
 O202 O 0.51533 0.84408 0.23056
 Cu203 Cu 0.50172 0.87752 0.10458
 Cu204 Cu 0.46458 0.81594 0.18437
 C205 C 0.54388 0.88104 0.21599
 C206 C 0.41194 0.82262 0.07991
 C207 C 0.42348 0.91569 0.17057
 C208 C 0.54361 0.77968 0.11358
 O209 O 0.88163 0.54743 0.80878
 O210 O 0.81651 0.45127 0.90273
 O211 O 0.88603 0.44946 0.82049
 O212 O 0.81635 0.55099 0.89550
 O213 O 0.75516 0.54508 0.82958
 O214 O 0.82086 0.44034 0.75965
 O215 O 0.75555 0.44302 0.83665
 O216 O 0.82150 0.53279 0.74318
 Cu217 Cu 0.85635 0.50068 0.86377
 Cu218 Cu 0.78085 0.49176 0.78766
 C219 C 0.86317 0.55394 0.75833
 C220 C 0.77500 0.43061 0.88479
 C221 C 0.86546 0.42822 0.77703
 C222 C 0.77356 0.56523 0.87454
 O223 O 0.18138 0.45474 0.07469
 O224 O 0.09345 0.52907 0.16567
 O225 O 0.14249 0.55303 0.07508
 O226 O 0.11259 0.43918 0.15763
 O227 O 0.17702 0.45427 0.21786
 O228 O 0.21132 0.56801 0.12836
 O229 O 0.15839 0.54695 0.22425
 O230 O 0.24309 0.46842 0.13840
 Cu231 Cu 0.12846 0.49207 0.10960
 Cu232 Cu 0.20491 0.51252 0.18041
 C233 C 0.22672 0.44652 0.09370
 C234 C 0.11088 0.54827 0.21206
 C235 C 0.18014 0.58110 0.08834
 C236 C 0.13684 0.42906 0.20384
 O237 O 0.81507 0.56117 0.12197
 O238 O 0.89647 0.45759 0.18252
 O239 O 0.81013 0.46275 0.11902
 O240 O 0.89849 0.55751 0.18556
 O241 O 0.84831 0.56079 0.26132
 O242 O 0.75937 0.47202 0.19354
 O243 O 0.84655 0.45729 0.25833
 O244 O 0.76912 0.56452 0.20113
 Cu245 Cu 0.86024 0.50923 0.14473
 Cu246 Cu 0.80318 0.51100 0.23758
 C247 C 0.77830 0.58009 0.15048
 C248 C 0.88482 0.43987 0.23159
 C249 C 0.76761 0.45457 0.14397
 C250 C 0.88747 0.57596 0.23422
 O251 O 0.18273 0.54719 0.87695
 O252 O 0.11214 0.44105 0.81109
 O253 O 0.19824 0.45034 0.87189
 O254 O 0.09861 0.53903 0.81355
 O255 O 0.14421 0.54622 0.73439
 O256 O 0.24325 0.46462 0.79337
 O257 O 0.15986 0.44877 0.73359
 O258 O 0.22595 0.55918 0.79673
 Cu259 Cu 0.14306 0.49309 0.85134
 Cu260 Cu 0.19737 0.50537 0.75624
 C261 C 0.21688 0.57072 0.84841
 C262 C 0.12392 0.42710 0.76097
 C263 C 0.23888 0.44485 0.84269
 C264 C 0.10535 0.55764 0.76349
 N265 N 0.25070 0.39109 0.01809
 N266 N 0.25948 0.41035 0.06717
 N267 N 0.74928 0.62635 0.07063
 N268 N 0.74484 0.61679 0.12397
 N269 N 0.75642 0.38484 0.97124
 N270 N 0.74923 0.39230 0.91767
 N271 N 0.24360 0.61781 0.92864
 N272 N 0.24702 0.60943 0.87511
 N273 N 0.06212 0.23518 0.37608
 N274 N 0.10602 0.24050 0.39986
 N275 N 0.05079 0.76300 0.64406
 N276 N 0.09615 0.74882 0.63285
 N277 N 0.97421 0.76954 0.37030
 N278 N 0.92894 0.75817 0.38609
 N279 N 0.93244 0.24353 0.61243
 N280 N 0.88715 0.25149 0.59344
 N281 N 0.37053 0.06173 0.25328
 N282 N 0.38098 0.10625 0.27075
 N283 N 0.63485 0.04675 0.76674
 N284 N 0.62379 0.09219 0.75221
 N285 N 0.40031 0.97147 0.76534
 N286 N 0.41364 0.92830 0.74626
 N287 N 0.59152 0.94891 0.25203
 N288 N 0.57846 0.90244 0.25693
 N289 N 0.40447 0.27238 0.93875
 N290 N 0.44949 0.26723 0.92458
 N291 N 0.60512 0.71620 0.93129
 N292 N 0.56964 0.71600 0.89604
 N293 N 0.34824 0.77565 0.03279
 N294 N 0.36634 0.81710 0.04637
 N295 N 0.62152 0.24619 0.08069
 N296 N 0.60051 0.26010 0.12697
 N297 N 0.21764 0.04479 0.67163
 N298 N 0.17533 0.05424 0.65012
 N299 N 0.75834 0.03835 0.35541
 N300 N 0.80188 0.05368 0.36680
 N301 N 0.77406 0.94312 0.62586
 N302 N 0.76454 0.89789 0.61053
 N303 N 0.28498 0.92241 0.39760
 N304 N 0.28979 0.88857 0.43418
 N305 N 0.04942 0.37791 0.74932
 N306 N 0.09491 0.38819 0.73351
 N307 N 0.06460 0.60823 0.26436
 N308 N 0.07580 0.56370 0.25486
 N309 N 0.95972 0.38800 0.24305
 N310 N 0.91432 0.39987 0.25801
 N311 N 0.92040 0.61726 0.72383
 N312 N 0.89008 0.58200 0.71538
 N313 N 0.75353 0.61938 0.95221
 N314 N 0.74414 0.60335 0.90176
 N315 N 0.28321 0.38580 0.90206
 N316 N 0.28283 0.41965 0.86531
 N317 N 0.22441 0.64648 0.03997
 N318 N 0.18429 0.62935 0.06005
 N319 N 0.72651 0.39181 0.08713
 N320 N 0.72535 0.43170 0.11434
 N321 N 0.94736 0.77952 0.65076
 N322 N 0.93550 0.82002 0.62769
 N323 N 0.95652 0.23701 0.36949
 N324 N 0.90781 0.23800 0.37135
 N325 N 0.03161 0.22399 0.64047
 N326 N 0.04316 0.18097 0.62508
 N327 N 0.08084 0.75639 0.38258
 N328 N 0.12443 0.74344 0.40311
 N329 N 0.63471 0.93935 0.76638
 N330 N 0.62276 0.89437 0.75156
 N331 N 0.36371 0.96164 0.22515
 N332 N 0.38621 0.95428 0.17981
 N333 N 0.59524 0.05561 0.26050
 N334 N 0.58653 0.10123 0.27525
 N335 N 0.38322 0.07926 0.73846
 N336 N 0.41557 0.11266 0.72894
 N337 N 0.60070 0.74619 0.04704
 N338 N 0.58011 0.74208 0.09629
 N339 N 0.38186 0.25814 0.05269
 N340 N 0.38852 0.26764 0.10571
 N341 N 0.63735 0.23827 0.96371
 N342 N 0.63255 0.24265 0.90949
 N343 N 0.37703 0.75273 0.92568
 N344 N 0.38569 0.75069 0.87218
 N345 N 0.74617 0.93654 0.37603
 N346 N 0.74355 0.88924 0.38805
 N347 N 0.24089 0.94456 0.65810
 N348 N 0.25347 0.89869 0.64880
 N349 N 0.24881 0.02707 0.40935
 N350 N 0.25095 0.07332 0.42533
 N351 N 0.77392 0.04723 0.62627
 N352 N 0.75630 0.08623 0.60046
 N353 N 0.96358 0.62493 0.24111
 N354 N 0.91907 0.61418 0.25967
 N355 N 0.94070 0.38470 0.74995
 N356 N 0.89240 0.39087 0.74572
 N357 N 0.02736 0.60654 0.75605
 N358 N 0.07236 0.59542 0.73972
 N359 N 0.06813 0.38194 0.23813
 N360 N 0.11605 0.39152 0.24204
   
