data_POSCAR
  _audit_creation_date              2014-09-24
  _audit_creation_method            'ToBaCCo'
  _symmetry_space_group_name_H-M    'P1'
  _symmetry_Int_Tables_number       1
  _symmetry_cell_setting            triclinic
  loop_
  _symmetry_equiv_pos_as_xyz
 x,y,z
_cell_length_a 25.4128
_cell_length_b 25.1225
_cell_length_c 24.4189
_cell_angle_alpha 90.085600
_cell_angle_beta 89.669600
_cell_angle_gamma 90.324000
loop_
  _atom_site_label
  _atom_site_type_symbol
  _atom_site_fract_x
  _atom_site_fract_y
  _atom_site_fract_z
Si1 Si 0.24995 0.24901 0.25109
 Si2 Si 0.75052 0.74864 0.25183
 Si3 Si 0.74899 0.24963 0.75156
 Si4 Si 0.24958 0.75020 0.75044
 C5 C 0.06007 0.09082 0.02269
 H6 H 0.04809 0.10324 -0.01772
 C7 C 0.09169 0.12439 0.05429
 H8 H 0.10301 0.16287 0.03802
 C9 C 0.05868 0.02621 0.09318
 H10 H 0.04586 -0.01193 0.10848
 C11 C 0.09072 0.05822 0.12588
 H12 H 0.10271 0.04356 0.16553
 N13 N 0.04393 0.04285 0.04259
 C14 C 0.03127 -0.09601 -0.05389
 H15 H -0.00274 -0.11326 -0.03385
 C16 C 0.06336 -0.12814 -0.08640
 H17 H 0.05430 -0.17018 -0.08956
 C18 C 0.08413 -0.02051 -0.07401
 H19 H 0.09180 0.02159 -0.06907
 C20 C 0.11709 -0.05114 -0.10733
 H21 H 0.14969 -0.03202 -0.12835
 Zn22 Zn -0.00012 -0.00030 -0.00185
 N23 N 0.04251 -0.04338 -0.04765
 C24 C -0.04814 0.03282 -0.10000
 N25 N -0.04213 0.04432 -0.04595
 C26 C -0.06606 0.08714 -0.02271
 C27 C -0.09754 0.12049 -0.05422
 C28 C -0.07972 0.06478 -0.13287
 C29 C -0.02246 -0.08473 0.07135
 C30 C -0.05378 -0.11756 0.10428
 C31 C -0.12955 -0.06603 0.07825
 C32 C -0.09682 -0.03442 0.04545
 N33 N -0.04420 -0.04393 0.04286
 H34 H -0.02885 -0.00150 -0.11755
 H35 H -0.06079 0.09522 0.02045
 H36 H -0.11678 0.15408 -0.03499
 H37 H -0.08414 0.05508 -0.17583
 H38 H 0.01931 -0.09222 0.06802
 H39 H -0.03565 -0.14955 0.12693
 H40 H -0.17137 -0.05804 0.07958
 H41 H -0.11363 -0.00232 0.02212
 C42 C 0.10709 -0.10588 -0.11362
 C43 C 0.10749 0.10824 0.10674
 C44 C -0.10805 -0.10824 0.10816
 C45 C -0.10492 0.10924 -0.10999
 C46 C 0.05466 0.59569 0.53062
 H47 H 0.03634 0.61188 0.49453
 C48 C 0.08777 0.62804 0.56188
 H49 H 0.09322 0.66927 0.55024
 C50 C 0.07008 0.52249 0.58922
 H51 H 0.06367 0.48119 0.59941
 C52 C 0.10373 0.55334 0.62147
 H53 H 0.12298 0.53511 0.65608
 N54 N 0.04597 0.54405 0.54494
 C55 C 0.02023 0.41734 0.42574
 H56 H -0.02223 0.41404 0.42540
 C57 C 0.05061 0.38355 0.39306
 H58 H 0.03149 0.35408 0.36746
 C59 C 0.09710 0.45966 0.45967
 H60 H 0.11508 0.48968 0.48528
 C61 C 0.12893 0.42595 0.42860
 H62 H 0.17132 0.43029 0.43042
 Zn63 Zn 0.00156 0.50088 0.50051
 N64 N 0.04379 0.45496 0.45756
 C65 C -0.04004 0.53790 0.39938
 N66 N -0.03938 0.54554 0.45458
 C67 C -0.06768 0.58531 0.47833
 C68 C -0.09883 0.61865 0.44648
 C69 C -0.07138 0.56973 0.36613
 C70 C -0.02203 0.41526 0.57075
 C71 C -0.05333 0.38212 0.60351
 C72 C -0.12827 0.43672 0.58202
 C73 C -0.09559 0.46871 0.54958
 N74 N -0.04329 0.45805 0.54511
 H75 H -0.01656 0.50702 0.38088
 H76 H -0.06613 0.59099 0.52222
 H77 H -0.12162 0.64968 0.46607
 H78 H -0.07192 0.56283 0.32234
 H79 H 0.01926 0.40645 0.56529
 H80 H -0.03543 0.34876 0.62417
 H81 H -0.16982 0.44575 0.58470
 H82 H -0.11234 0.50184 0.52788
 C83 C 0.10563 0.38769 0.39451
 C84 C 0.11282 0.60699 0.60810
 C85 C -0.10720 0.39285 0.60971
 C86 C -0.10135 0.61054 0.38973
 C87 C 0.55596 0.09234 0.52564
 H88 H 0.54289 0.10557 0.48589
 C89 C 0.58773 0.12556 0.55742
 H90 H 0.59793 0.16470 0.54209
 C91 C 0.55794 0.02534 0.59380
 H92 H 0.54639 -0.01400 0.60740
 C93 C 0.59009 0.05714 0.62679
 H94 H 0.60349 0.04161 0.66557
 N95 N 0.54149 0.04344 0.54438
 C96 C 0.51992 -0.08181 0.42265
 H97 H 0.47750 -0.08483 0.42048
 C98 C 0.55113 -0.11506 0.39034
 H99 H 0.53261 -0.14349 0.36307
 C100 C 0.59573 -0.04191 0.46166
 H101 H 0.61297 -0.01323 0.48939
 C102 C 0.62840 -0.07512 0.43084
 H103 H 0.67071 -0.07159 0.43478
 Zn104 Zn 0.49883 -0.00077 0.50014
 N105 N 0.54251 -0.04565 0.45696
 C106 C 0.45430 0.03441 0.39935
 N107 N 0.45682 0.04309 0.45434
 C108 C 0.43050 0.08432 0.47795
 C109 C 0.39925 0.11778 0.44634
 C110 C 0.42280 0.06632 0.36640
 C111 C 0.46359 -0.09700 0.54818
 C112 C 0.43179 -0.12965 0.58075
 C113 C 0.38344 -0.05199 0.60962
 C114 C 0.41630 -0.02074 0.57651
 N115 N 0.45504 -0.04361 0.54596
 H116 H 0.47667 0.00295 0.38057
 H117 H 0.43451 0.09194 0.52127
 H118 H 0.37827 0.15015 0.46583
 H119 H 0.42094 0.05862 0.32280
 H120 H 0.49536 -0.11454 0.52500
 H121 H 0.43879 -0.17212 0.58105
 H122 H 0.35299 -0.03300 0.63378
 H123 H 0.41078 0.02176 0.57543
 C124 C 0.60604 -0.11193 0.39440
 C125 C 0.60538 0.10810 0.60876
 C126 C 0.39089 -0.10728 0.61185
 C127 C 0.39471 0.10846 0.38995
 C128 C 0.54993 0.59690 0.02959
 H129 H 0.53285 0.61246 -0.00747
 C130 C 0.58198 0.62970 0.06155
 H131 H 0.58836 0.67063 0.04923
 C132 C 0.56272 0.52479 0.09035
 H133 H 0.55574 0.48379 0.10124
 C134 C 0.59499 0.55621 0.12351
 H135 H 0.61269 0.53872 0.15942
 N136 N 0.54072 0.54548 0.04444
 C137 C 0.51837 0.42212 -0.07945
 H138 H 0.47591 0.41983 -0.08175
 C139 C 0.54930 0.38844 -0.11172
 H140 H 0.53051 0.36015 -0.13893
 C141 C 0.59462 0.46136 -0.04064
 H142 H 0.61212 0.48995 -0.01301
 C143 C 0.62697 0.42777 -0.07137
 H144 H 0.66930 0.43096 -0.06743
 Zn145 Zn 0.49797 0.50229 -0.00162
 N146 N 0.54138 0.45802 -0.04524
 C147 C 0.45942 0.54451 -0.10203
 N148 N 0.45667 0.54755 -0.04647
 C149 C 0.42469 0.58341 -0.02129
 C150 C 0.39185 0.61605 -0.05200
 C151 C 0.42764 0.57680 -0.13439
 C152 C 0.47604 0.41591 0.06805
 C153 C 0.44562 0.38245 0.10130
 C154 C 0.36894 0.43349 0.07732
 C155 C 0.40077 0.46583 0.04444
 N156 N 0.45358 0.45746 0.04139
 H157 H 0.48624 0.51709 -0.12149
 H158 H 0.42403 0.58594 0.02295
 H159 H 0.36539 0.64280 -0.03082
 H160 H 0.43077 0.57389 -0.17851
 H161 H 0.51770 0.40857 0.06335
 H162 H 0.46446 0.35033 0.12310
 H163 H 0.32703 0.44090 0.07920
 H164 H 0.38290 0.49743 0.02146
 C165 C 0.60430 0.39095 -0.10760
 C166 C 0.60505 0.60942 0.10922
 C167 C 0.39138 0.39150 0.10675
 C168 C 0.39263 0.61271 -0.10944
 C169 C 0.22894 -0.16438 -0.18136
 C170 C 0.20768 -0.20763 -0.21053
 C171 C 0.15278 -0.21478 -0.21037
 C172 C 0.12035 -0.18144 -0.17951
 C173 C 0.14179 -0.13979 -0.14821
 C174 C 0.19650 -0.13124 -0.15003
 H175 H 0.27069 -0.15570 -0.18294
 H176 H 0.13402 -0.24560 -0.23417
 H177 H 0.07823 -0.18806 -0.18069
 H178 H 0.21444 -0.09936 -0.12668
 C179 C 0.16407 0.31746 0.27145
 C180 C 0.20553 0.28932 0.29535
 C181 C 0.21259 0.29189 0.35220
 C182 C 0.17995 0.32383 0.38444
 C183 C 0.13888 0.35256 0.36051
 C184 C 0.13070 0.34858 0.30385
 H185 H 0.15776 0.31561 0.22766
 H186 H 0.24336 0.26976 0.37200
 H187 H 0.18653 0.32592 0.42818
 H188 H 0.09930 0.37056 0.28458
 C189 C 0.66536 -0.18223 0.27183
 C190 C 0.70618 -0.21099 0.29608
 C191 C 0.71280 -0.20858 0.35300
 C192 C 0.68033 -0.17617 0.38498
 C193 C 0.63990 -0.14678 0.36067
 C194 C 0.63224 -0.15058 0.30390
 H195 H 0.65940 -0.18391 0.22798
 H196 H 0.74302 -0.23128 0.37304
 H197 H 0.68641 -0.17440 0.42881
 H198 H 0.60132 -0.12819 0.28429
 C199 C 0.66352 0.31887 -0.22934
 C200 C 0.70454 0.29062 -0.20478
 C201 C 0.71136 0.29399 -0.14795
 C202 C 0.67875 0.32666 -0.11636
 C203 C 0.63803 0.35548 -0.14095
 C204 C 0.63027 0.35080 -0.19765
 H205 H 0.65748 0.31653 -0.27315
 H206 H 0.74194 0.27192 -0.12773
 H207 H 0.68502 0.32914 -0.07260
 H208 H 0.59924 0.37278 -0.21754
 C209 C -0.16976 0.23051 -0.17205
 C210 C -0.20698 0.20696 -0.20676
 C211 C -0.20942 0.15134 -0.21090
 C212 C -0.17598 0.11965 -0.17974
 C213 C -0.13953 0.14305 -0.14385
 C214 C -0.13666 0.19884 -0.14037
 H215 H -0.16651 0.27343 -0.16924
 H216 H -0.23696 0.13206 -0.23816
 H217 H -0.17917 0.07677 -0.18309
 H218 H -0.10837 0.21792 -0.11365
 C219 C -0.16839 0.73067 0.32856
 C220 C -0.20431 0.70659 0.29275
 C221 C -0.20461 0.65105 0.28709
 C222 C -0.17056 0.61989 0.31810
 C223 C -0.13591 0.64380 0.35549
 C224 C -0.13497 0.69950 0.36035
 H225 H -0.16664 0.77360 0.33240
 H226 H -0.23092 0.63149 0.25874
 H227 H -0.17194 0.57701 0.31362
 H228 H -0.10803 0.71885 0.38834
 C229 C 0.29150 0.15064 0.28805
 C230 C 0.29391 0.20624 0.29247
 C231 C 0.33088 0.22972 0.32752
 C232 C 0.36351 0.19799 0.35959
 C233 C 0.36059 0.14227 0.35585
 C234 C 0.32470 0.11889 0.31938
 H235 H 0.26413 0.13149 0.26051
 H236 H 0.33411 0.27264 0.33050
 H237 H 0.39144 0.21690 0.38684
 H238 H 0.32177 0.07600 0.31582
 C239 C 0.30175 0.65748 -0.22327
 C240 C 0.28890 0.70948 -0.20681
 C241 C 0.31107 0.72962 -0.15842
 C242 C 0.34466 0.69836 -0.12693
 C243 C 0.35697 0.64612 -0.14301
 C244 C 0.33488 0.62604 -0.19152
 H245 H 0.28692 0.64088 -0.26111
 H246 H 0.30341 0.76963 -0.14473
 H247 H 0.36180 0.71561 -0.09046
 H248 H 0.34297 0.58582 -0.20498
 C249 C -0.21315 -0.15207 0.20953
 C250 C -0.20710 -0.20748 0.20890
 C251 C -0.16798 -0.23021 0.17582
 C252 C -0.13566 -0.19800 0.14318
 C253 C -0.14206 -0.14246 0.14305
 C254 C -0.18111 -0.11983 0.17661
 H255 H -0.24247 -0.13346 0.23531
 H256 H -0.16262 -0.27295 0.17506
 H257 H -0.10616 -0.21657 0.11742
 H258 H -0.18636 -0.07710 0.17794
 C259 C -0.16835 0.27057 0.67634
 C260 C -0.20767 0.29330 0.70919
 C261 C -0.21310 0.34876 0.71037
 C262 C -0.18041 0.38104 0.67817
 C263 C -0.14139 0.35844 0.64449
 C264 C -0.13554 0.30280 0.64416
 H265 H -0.16332 0.22779 0.67528
 H266 H -0.24245 0.36743 0.73609
 H267 H -0.18527 0.42379 0.68011
 H268 H -0.10617 0.28412 0.61834
 C269 C 0.34555 -0.21694 0.70801
 C270 C 0.29104 -0.20831 0.71050
 C271 C 0.26955 -0.16581 0.68099
 C272 C 0.30194 -0.13270 0.64931
 C273 C 0.35647 -0.14153 0.64646
 C274 C 0.37787 -0.18391 0.67633
 H275 H 0.36361 -0.24926 0.73014
 H276 H 0.22760 -0.15832 0.68209
 H277 H 0.28420 -0.10076 0.62626
 H278 H 0.41981 -0.19130 0.67556
 C279 C 0.28659 0.34794 0.20862
 C280 C 0.29318 0.29263 0.20884
 C281 C 0.33315 0.26989 0.17687
 C282 C 0.36538 0.30194 0.14395
 C283 C 0.35819 0.35736 0.14264
 C284 C 0.31868 0.38003 0.17564
 H285 H 0.25662 0.36656 0.23360
 H286 H 0.33900 0.22721 0.17688
 H287 H 0.39523 0.28327 0.11872
 H288 H 0.31286 0.42269 0.17626
 C289 C 0.16731 0.17630 0.23087
 C290 C 0.20701 0.20738 0.20678
 C291 C 0.21330 0.20695 0.14975
 C292 C 0.18107 0.17477 0.11727
 C293 C 0.14139 0.14304 0.14120
 C294 C 0.13465 0.14455 0.19844
 H295 H 0.16154 0.17662 0.27486
 H296 H 0.24323 0.23099 0.13002
 H297 H 0.18786 0.17417 0.07348
 H298 H 0.10383 0.12157 0.21822
 C299 C 0.17950 0.66832 0.73194
 C300 C 0.21130 0.70791 0.70790
 C301 C 0.21235 0.71256 0.65061
 C302 C 0.18084 0.67949 0.61822
 C303 C 0.14776 0.64093 0.64236
 C304 C 0.14783 0.63548 0.69962
 H305 H 0.17839 0.66335 0.77601
 H306 H 0.23721 0.74162 0.63040
 H307 H 0.18267 0.68389 0.57415
 H308 H 0.12255 0.60658 0.71967
 C309 C 0.66697 0.17563 0.73237
 C310 C 0.70579 0.20754 0.70777
 C311 C 0.71104 0.20756 0.65064
 C312 C 0.67861 0.17517 0.61855
 C313 C 0.63982 0.14264 0.64298
 C314 C 0.63426 0.14346 0.70034
 H315 H 0.66201 0.17556 0.77645
 H316 H 0.74024 0.23223 0.63054
 H317 H 0.68446 0.17511 0.57461
 H318 H 0.60422 0.11972 0.72048
 C319 C 0.67079 0.67207 0.23296
 C320 C 0.70715 0.70670 0.20820
 C321 C 0.70928 0.71015 0.15096
 C322 C 0.67609 0.67863 0.11884
 C323 C 0.63995 0.64330 0.14342
 C324 C 0.63759 0.64046 0.20091
 H325 H 0.66814 0.66945 0.27717
 H326 H 0.73643 0.73710 0.13082
 H327 H 0.67921 0.68140 0.07469
 H328 H 0.60963 0.61429 0.22110
   
