data_POSCAR
  _audit_creation_date              2014-09-24
  _audit_creation_method            'ToBaCCo'
  _symmetry_space_group_name_H-M    'P1'
  _symmetry_Int_Tables_number       1
  _symmetry_cell_setting            triclinic
  loop_
  _symmetry_equiv_pos_as_xyz
 x,y,z
_cell_length_a 32.7890
_cell_length_b 32.7446
_cell_length_c 16.2318
_cell_angle_alpha 89.863100
_cell_angle_beta 90.068000
_cell_angle_gamma 119.998000
loop_
  _atom_site_label
  _atom_site_type_symbol
  _atom_site_fract_x
  _atom_site_fract_y
  _atom_site_fract_z
C1 C 0.49999 0.99876 0.45807
 C2 C 0.50044 0.99939 0.54158
 C3 C 0.46883 0.95682 0.59011
 C4 C 0.53263 1.04235 0.58870
 C5 C 0.53169 1.04077 0.40884
 C6 C 0.46748 0.95599 0.41156
 C7 C 0.42052 0.94076 0.59490
 C8 C 0.39122 0.90144 0.64305
 C9 C 0.40973 0.87757 0.68858
 C10 C 0.45855 0.89412 0.68293
 C11 C 0.48765 0.93340 0.63448
 C12 C 0.51386 1.06169 0.64349
 C13 C 0.54359 1.10168 0.68952
 C14 C 0.59279 1.12300 0.68190
 C15 C 0.61150 1.10337 0.62722
 C16 C 0.58168 1.06317 0.58151
 C17 C 0.57209 1.04415 0.37297
 C18 C 0.60187 1.08329 0.32505
 C19 C 0.59107 1.11913 0.31047
 C20 C 0.55037 1.11557 0.34625
 C21 C 0.52102 1.07673 0.39562
 C22 C 0.48188 0.92438 0.38570
 C23 C 0.45181 0.88517 0.33809
 C24 C 0.40668 0.87677 0.31682
 C25 C 0.39215 0.90815 0.34410
 C26 C 0.42263 0.94788 0.39009
 H27 H 0.40561 0.95913 0.56233
 H28 H 0.35407 0.89033 0.64533
 H29 H 0.47485 0.87733 0.71604
 H30 H 0.52504 0.94567 0.63169
 H31 H 0.47608 1.04591 0.65023
 H32 H 0.52784 1.11584 0.73064
 H33 H 0.59689 1.04800 0.54129
 H34 H 0.58071 1.01659 0.38259
 H35 H 0.63289 1.08505 0.29802
 H36 H 0.54137 1.14283 0.33651
 H37 H 0.48977 1.07439 0.42282
 H38 H 0.51649 0.93031 0.40176
 H39 H 0.46373 0.86131 0.31848
 H40 H 0.35766 0.90259 0.32814
 H41 H 0.41135 0.97242 0.40879
 H42 H 0.64922 1.11876 0.62049
 C43 C -0.00025 0.50051 0.45897
 C44 C -0.00090 0.50045 0.54248
 C45 C 0.04097 0.51046 0.59172
 C46 C -0.04366 0.49029 0.58887
 C47 C -0.04280 0.48930 0.41041
 C48 C 0.04265 0.51125 0.41179
 C49 C 0.04397 0.47322 0.62812
 C50 C 0.08309 0.48226 0.67562
 C51 C 0.11932 0.52879 0.68925
 C52 C 0.11612 0.56614 0.65298
 C53 C 0.07729 0.55697 0.60401
 C54 C -0.07564 0.44417 0.61405
 C55 C -0.11505 0.43505 0.66097
 C56 C -0.12332 0.47189 0.68220
 C57 C -0.09158 0.51792 0.65559
 C58 C -0.05164 0.52715 0.61029
 C59 C -0.05921 0.52134 0.40546
 C60 C -0.09851 0.51107 0.35723
 C61 C -0.12187 0.46873 0.31206
 C62 C -0.10509 0.43669 0.31763
 C63 C -0.06584 0.44705 0.36612
 C64 C 0.06183 0.54927 0.35648
 C65 C 0.10164 0.55938 0.31006
 C66 C 0.12291 0.53143 0.31783
 C67 C 0.10346 0.49319 0.37308
 C68 C 0.06346 0.48297 0.41918
 H69 H 0.01615 0.43712 0.61915
 H70 H 0.08457 0.45284 0.70305
 H71 H 0.14368 0.60233 0.66198
 H72 H 0.07527 0.58604 0.57634
 H73 H -0.06985 0.41539 0.59791
 H74 H -0.13918 0.39917 0.68006
 H75 H -0.02689 0.56303 0.59195
 H76 H -0.04115 0.55461 0.43791
 H77 H -0.11007 0.53678 0.35452
 H78 H -0.12176 0.40371 0.28434
 H79 H -0.05328 0.42213 0.36899
 H80 H 0.04604 0.57129 0.34955
 H81 H 0.11566 0.58920 0.26847
 H82 H 0.11882 0.47080 0.37996
 H83 H 0.04840 0.45265 0.45980
 H84 H -0.09705 0.54693 0.67153
 C85 C 0.49969 0.50005 0.45919
 C86 C 0.49974 0.49944 0.54274
 C87 C 0.48870 0.53101 0.59092
 C88 C 0.51050 0.46725 0.59041
 C89 C 0.51002 0.46845 0.40994
 C90 C 0.48940 0.53263 0.41264
 C91 C 0.52079 0.57947 0.59524
 C92 C 0.51076 0.60871 0.64330
 C93 C 0.46859 0.58994 0.68889
 C94 C 0.43647 0.54111 0.68388
 C95 C 0.44661 0.51201 0.63562
 C96 C 0.54703 0.48604 0.64840
 C97 C 0.55704 0.45642 0.69558
 C98 C 0.53056 0.40707 0.68589
 C99 C 0.49374 0.38840 0.62769
 C100 C 0.48354 0.41816 0.58112
 C101 C 0.47311 0.42882 0.37188
 C102 C 0.48242 0.39903 0.32419
 C103 C 0.52893 0.40909 0.31189
 C104 C 0.56598 0.44908 0.34966
 C105 C 0.55651 0.47839 0.39895
 C106 C 0.44325 0.51855 0.38815
 C107 C 0.43402 0.54879 0.34090
 C108 C 0.47080 0.59379 0.31875
 C109 C 0.51686 0.60802 0.34469
 C110 C 0.52618 0.57736 0.39025
 H111 H 0.55394 0.59453 0.56247
 H112 H 0.53651 0.64597 0.64555
 H113 H 0.40361 0.52494 0.71751
 H114 H 0.42164 0.47452 0.63326
 H115 H 0.56801 0.52383 0.65698
 H116 H 0.58570 0.47261 0.73924
 H117 H 0.45417 0.40281 0.53865
 H118 H 0.43704 0.42075 0.37976
 H119 H 0.45325 0.36857 0.29555
 H120 H 0.60213 0.45748 0.34161
 H121 H 0.58535 0.50905 0.42780
 H122 H 0.41452 0.48407 0.40503
 H123 H 0.39813 0.53711 0.32231
 H124 H 0.54581 0.64242 0.32803
 H125 H 0.56208 0.58842 0.40805
 H126 H 0.47225 0.35069 0.61874
 O127 O 0.41943 0.69071 -0.06951
 O128 O 0.38376 0.74536 -0.09295
 C129 C 0.34874 0.75031 -0.10974
 O130 O 0.30976 0.72837 -0.07170
 O131 O 0.25581 0.63783 -0.09362
 C132 C 0.25025 0.59729 -0.10737
 O133 O 0.27180 0.58046 -0.06723
 O134 O 0.36231 0.61646 -0.09063
 C135 C 0.40231 0.65161 -0.10737
 O136 O 0.41271 0.69871 0.09469
 O137 O 0.37963 0.75532 0.07137
 C138 C 0.34278 0.74799 0.10973
 O139 O 0.30200 0.71444 0.09248
 O140 O 0.24521 0.62437 0.07090
 C141 C 0.25303 0.59590 0.11206
 O142 O 0.28696 0.58901 0.09668
 O143 O 0.37638 0.62118 0.07349
 C144 C 0.40565 0.65798 0.11208
 Cr145 Cr 0.39632 0.72033 0.00083
 Cr146 Cr 0.28039 0.67587 -0.00049
 Cr147 Cr 0.32473 0.60434 0.00288
 O148 O 0.33387 0.66690 0.00094
 O149 O 0.58881 0.30217 -0.09608
 O150 O 0.62175 0.24521 -0.07234
 C151 C 0.65807 0.25352 -0.11342
 O152 O 0.69867 0.28785 -0.09793
 O153 O 0.75532 0.37732 -0.07284
 C154 C 0.74753 0.40649 -0.11157
 O155 O 0.71363 0.41317 -0.09446
 O156 O 0.62373 0.37937 -0.07077
 C157 C 0.59531 0.34297 -0.11149
 O158 O 0.58092 0.30922 0.06765
 O159 O 0.61778 0.25543 0.09171
 C160 C 0.65276 0.24990 0.10584
 O161 O 0.69117 0.27153 0.06589
 O162 O 0.74541 0.36200 0.09105
 C163 C 0.75031 0.40203 0.10777
 O164 O 0.72849 0.41925 0.06959
 O165 O 0.63819 0.38255 0.09354
 C166 C 0.59776 0.34754 0.10772
 Cr167 Cr 0.60482 0.28017 -0.00216
 Cr168 Cr 0.72049 0.32502 -0.00328
 Cr169 Cr 0.67566 0.39608 -0.00053
 O170 O 0.66704 0.33381 -0.00185
 N171 N 0.31871 0.78921 -0.19888
 N172 N 0.33447 0.82388 -0.25360
 C173 C 0.38118 0.84056 -0.26272
 C174 C 0.39329 0.81423 -0.21158
 N175 N 0.35345 0.78292 -0.17304
 H176 H 0.42757 0.81797 -0.20093
 N177 N 0.20638 0.52438 -0.18452
 N178 N 0.17138 0.50485 -0.23827
 C179 C 0.15950 0.53768 -0.25749
 C180 C 0.18852 0.57815 -0.21364
 N181 N 0.21710 0.56829 -0.16886
 H182 H 0.18747 0.61065 -0.21127
 N183 N 0.47099 0.68192 -0.19674
 N184 N 0.48978 0.66631 -0.25167
 C185 C 0.45983 0.61956 -0.26055
 C186 C 0.42165 0.60717 -0.20911
 N187 N 0.43015 0.64697 -0.17056
 H188 H 0.39131 0.57269 -0.19847
 N189 N 0.68795 0.22535 -0.22425
 N190 N 0.67177 0.19097 -0.27945
 C191 C 0.62463 0.16524 -0.26910
 C192 C 0.61252 0.18505 -0.20542
 N193 N 0.65288 0.22229 -0.17930
 H194 H 0.57800 0.17351 -0.17972
 N195 N 0.78128 0.47146 -0.21037
 N196 N 0.81568 0.49010 -0.26555
 C197 C 0.83571 0.46275 -0.26677
 C198 C 0.81265 0.42688 -0.21024
 N199 N 0.77908 0.43362 -0.17645
 H200 H 0.82021 0.39929 -0.19368
 N201 N 0.53545 0.31303 -0.21943
 N202 N 0.51720 0.32933 -0.27448
 C203 C 0.54008 0.37678 -0.26666
 C204 C 0.57310 0.38889 -0.20448
 N205 N 0.56897 0.34827 -0.17687
 H206 H 0.59755 0.42351 -0.18065
 N207 N 0.78843 0.47067 0.19713
 N208 N 0.82280 0.48960 0.25216
 C209 C 0.83972 0.45976 0.26134
 C210 C 0.81401 0.42148 0.20999
 N211 N 0.78266 0.42984 0.17118
 H212 H 0.81828 0.39121 0.19952
 N213 N 0.68204 0.20641 0.18376
 N214 N 0.66681 0.17151 0.23788
 C215 C 0.62206 0.15930 0.25679
 C216 C 0.61033 0.18803 0.21234
 N217 N 0.64866 0.21675 0.16754
 H218 H 0.57671 0.18672 0.20969
 N219 N 0.52505 0.31816 0.18532
 N220 N 0.50542 0.33337 0.23927
 C221 C 0.53807 0.37806 0.25854
 C222 C 0.57855 0.38980 0.21451
 N223 N 0.56884 0.35151 0.16954
 H224 H 0.61091 0.42344 0.21211
 N225 N 0.22458 0.53780 0.22313
 N226 N 0.19035 0.51982 0.27863
 C227 C 0.16491 0.54157 0.26841
 C228 C 0.18475 0.57351 0.20447
 N229 N 0.22172 0.57002 0.17809
 H230 H 0.17343 0.59674 0.17881
 N231 N 0.31188 0.78176 0.20835
 N232 N 0.32764 0.81599 0.26376
 C233 C 0.37498 0.83600 0.26525
 C234 C 0.38776 0.81307 0.20861
 N235 N 0.34746 0.77961 0.17451
 H236 H 0.42286 0.82060 0.19228
 N237 N 0.47037 0.68890 0.21082
 N238 N 0.48895 0.67305 0.26607
 C239 C 0.46159 0.62564 0.26758
 C240 C 0.42576 0.61291 0.21114
 N241 N 0.43255 0.65330 0.17711
 H242 H 0.39821 0.57777 0.19477
   
