data_POSCAR
  _audit_creation_date              2014-09-24
  _audit_creation_method            'ToBaCCo'
  _symmetry_space_group_name_H-M    'P1'
  _symmetry_Int_Tables_number       1
  _symmetry_cell_setting            triclinic
  loop_
  _symmetry_equiv_pos_as_xyz
 x,y,z
_cell_length_a 25.8913
_cell_length_b 25.8780
_cell_length_c 35.8219
_cell_angle_alpha 89.889800
_cell_angle_beta 90.095500
_cell_angle_gamma 90.169000
loop_
  _atom_site_label
  _atom_site_type_symbol
  _atom_site_fract_x
  _atom_site_fract_y
  _atom_site_fract_z
O1 O 0.04672 0.54901 1.03646
 O2 O 0.04779 0.44942 0.96429
 O3 O 0.03632 0.55221 0.96259
 O4 O 0.03788 0.45026 1.03522
 O5 O -0.04751 0.45253 1.03654
 O6 O -0.04901 0.55238 0.96428
 O7 O -0.03757 0.44959 0.96266
 O8 O -0.03868 0.55128 1.03521
 Cu9 Cu 0.05003 0.50132 0.99881
 Cu10 Cu -0.05105 0.50035 0.99885
 C11 C 0.00437 0.56729 1.04802
 C12 C 0.00561 0.43199 0.95157
 C13 C -0.00691 0.56986 0.95151
 C14 C -0.00509 0.43421 1.04808
 O15 O 0.55077 -0.04461 0.53655
 O16 O 0.45056 -0.04432 0.46412
 O17 O 0.55140 -0.04195 0.46405
 O18 O 0.44990 -0.04208 0.53662
 O19 O 0.45098 0.04338 0.53652
 O20 O 0.55097 0.04350 0.46417
 O21 O 0.45014 0.04114 0.46402
 O22 O 0.55185 0.04084 0.53667
 Cu23 Cu 0.50063 -0.05184 0.50034
 Cu24 Cu 0.50102 0.05081 0.50035
 C25 C 0.56865 -0.00220 0.54865
 C26 C 0.43305 -0.00181 0.45202
 C27 C 0.56845 0.00106 0.45208
 C28 C 0.43315 0.00090 0.54859
 C29 C -0.06617 0.01176 0.26877
 C30 C -0.01984 0.02017 0.24948
 C31 C -0.01199 0.06680 0.23033
 C32 C -0.05050 0.10468 0.23012
 C33 C -0.09659 0.09641 0.24976
 C34 C -0.10429 0.05001 0.26926
 C35 C 0.02045 -0.01975 0.24945
 C36 C 0.01248 -0.06626 0.23028
 C37 C 0.05098 -0.10415 0.23001
 C38 C 0.09720 -0.09601 0.24962
 C39 C 0.10502 -0.04973 0.26914
 C40 C 0.06689 -0.01148 0.26870
 H41 H -0.07207 -0.02412 0.28388
 H42 H 0.02368 0.07317 0.21516
 H43 H -0.02329 -0.07254 0.21514
 H44 H 0.07290 0.02431 0.28383
 H45 H -0.12627 0.12590 0.24988
 H46 H 0.12686 -0.12550 0.24970
 C47 C -0.01323 -0.06644 0.76914
 C48 C -0.02060 -0.02012 0.74956
 C49 C -0.06687 -0.01181 0.73012
 C50 C -0.10542 -0.04988 0.72993
 C51 C -0.09818 -0.09598 0.74986
 C52 C -0.05214 -0.10412 0.76964
 C53 C 0.01999 0.01970 0.74955
 C54 C 0.06629 0.01135 0.73030
 C55 C 0.10484 0.04941 0.73009
 C56 C 0.09758 0.09555 0.74982
 C57 C 0.05150 0.10374 0.76941
 C58 C 0.01259 0.06607 0.76893
 H59 H 0.02237 -0.07270 0.78446
 H60 H -0.07244 0.02387 0.71472
 H61 H 0.07189 -0.02437 0.71506
 H62 H -0.02304 0.07235 0.78411
 H63 H -0.12818 -0.12531 0.74998
 H64 H 0.12758 0.12488 0.74994
 C65 C 0.01590 -0.31254 0.12207
 C66 C 0.00848 -0.26035 0.10240
 C67 C 0.01542 -0.21892 0.12524
 C68 C 0.02911 -0.23363 0.16557
 C69 C 0.07698 -0.26813 0.16238
 C70 C 0.07004 -0.30960 0.13952
 C71 C -0.02147 -0.31155 0.15529
 C72 C -0.01452 -0.27001 0.17820
 C73 C 0.00921 -0.35675 0.09693
 C74 C 0.00572 -0.39206 0.07516
 C75 C 0.03687 -0.18853 0.18971
 C76 C 0.04341 -0.15054 0.20858
 H77 H -0.00145 -0.25629 0.07308
 H78 H 0.01144 -0.17938 0.11547
 H79 H 0.11312 -0.26072 0.17685
 H80 H 0.10026 -0.33771 0.13443
 H81 H -0.05074 -0.34084 0.16039
 H82 H -0.03784 -0.26371 0.20292
 C83 C -0.01615 0.31369 0.12218
 C84 C -0.06767 0.31412 0.14336
 C85 C -0.07445 0.27252 0.16622
 C86 C -0.02906 0.23454 0.16569
 C87 C 0.01866 0.26726 0.17548
 C88 C 0.02546 0.30893 0.15257
 C89 C -0.01538 0.26173 0.10162
 C90 C -0.02216 0.22017 0.12446
 C91 C -0.00962 0.35803 0.09703
 C92 C -0.00627 0.39345 0.07525
 C93 C -0.03666 0.18930 0.18983
 C94 C -0.04308 0.15121 0.20870
 H95 H -0.09627 0.34451 0.14069
 H96 H -0.10885 0.26727 0.18313
 H97 H 0.04476 0.25851 0.19837
 H98 H 0.05736 0.33587 0.15583
 H99 H -0.00990 0.25789 0.07171
 H100 H -0.02250 0.18077 0.11411
 C101 C 0.31259 0.01269 0.62217
 C102 C 0.31116 0.06637 0.64033
 C103 C 0.26979 0.07361 0.66315
 C104 C 0.23387 0.02648 0.66560
 C105 C 0.26882 -0.01841 0.67775
 C106 C 0.31027 -0.02567 0.65488
 C107 C 0.26036 0.00712 0.60224
 C108 C 0.21902 0.01436 0.62505
 C109 C 0.35676 0.00573 0.59709
 C110 C 0.39218 0.00216 0.57545
 C111 C 0.18890 0.03458 0.68973
 C112 C 0.15105 0.04145 0.70862
 H113 H 0.34018 0.09607 0.63572
 H114 H 0.26336 0.10948 0.67809
 H115 H 0.26167 -0.04233 0.70213
 H116 H 0.33863 -0.05579 0.65966
 H117 H 0.25620 -0.00182 0.57279
 H118 H 0.17946 0.01162 0.61513
 C119 C -0.31300 -0.01371 0.62114
 C120 C -0.32231 0.00475 0.66128
 C121 C -0.28090 -0.00237 0.68432
 C122 C -0.23434 -0.02724 0.66491
 C123 C -0.22285 0.00788 0.63132
 C124 C -0.26418 0.01498 0.60832
 C125 C -0.29658 -0.07043 0.62501
 C126 C -0.25527 -0.07753 0.64799
 C127 C -0.35713 -0.00689 0.59588
 C128 C -0.39252 -0.00346 0.57411
 C129 C -0.18940 -0.03521 0.68922
 C130 C -0.15159 -0.04199 0.70827
 H131 H -0.35819 0.02189 0.67075
 H132 H -0.28129 0.00866 0.71354
 H133 H -0.18552 0.02569 0.62610
 H134 H -0.26227 0.03888 0.58341
 H135 H -0.31579 -0.10228 0.61094
 H136 H -0.23911 -0.11543 0.65361
 C137 C -0.01849 -0.31145 0.87921
 C138 C 0.02159 -0.30830 0.84775
 C139 C 0.01481 -0.26695 0.82458
 C140 C -0.03139 -0.23291 0.83519
 C141 C -0.02187 -0.21789 0.87606
 C142 C -0.01510 -0.25914 0.89918
 C143 C -0.07110 -0.31107 0.85935
 C144 C -0.07788 -0.26979 0.83621
 C145 C -0.01193 -0.35555 0.90455
 C146 C -0.00847 -0.39104 0.92626
 C147 C -0.03891 -0.18805 0.81071
 C148 C -0.04513 -0.15028 0.79150
 H149 H 0.05251 -0.33604 0.84399
 H150 H 0.03992 -0.25928 0.80095
 H151 H -0.02051 -0.17829 0.88598
 H152 H -0.00793 -0.25486 0.92889
 H153 H -0.10043 -0.34070 0.86308
 H154 H -0.11298 -0.26404 0.82014
 C155 C 0.01743 0.31116 0.87817
 C156 C 0.00990 0.25883 0.89766
 C157 C 0.01678 0.21756 0.87469
 C158 C 0.03053 0.23260 0.83444
 C159 C 0.07847 0.26727 0.83789
 C160 C 0.07158 0.30856 0.86086
 C161 C -0.01991 0.31023 0.84483
 C162 C -0.01302 0.26887 0.82182
 C163 C 0.01074 0.35526 0.90335
 C164 C 0.00717 0.39075 0.92493
 C165 C 0.03816 0.18773 0.81014
 C166 C 0.04445 0.14994 0.79107
 H167 H -0.00006 0.25454 0.92694
 H168 H 0.01273 0.17795 0.88431
 H169 H 0.11460 0.26009 0.82349
 H170 H 0.10185 0.33675 0.86614
 H171 H -0.04913 0.33942 0.83976
 H172 H -0.03633 0.26264 0.79701
 C173 C -0.31140 0.01306 0.37808
 C174 C -0.25907 0.00963 0.39809
 C175 C -0.21789 0.01692 0.37508
 C176 C -0.23297 0.02696 0.33427
 C177 C -0.26977 0.07328 0.33557
 C178 C -0.31099 0.06598 0.35860
 C179 C -0.30838 -0.02658 0.34633
 C180 C -0.26708 -0.01926 0.32326
 C181 C -0.35540 0.00603 0.40335
 C182 C -0.39070 0.00240 0.42511
 C183 C -0.18816 0.03513 0.30993
 C184 C -0.15042 0.04203 0.29088
 H185 H -0.25474 0.00203 0.42775
 H186 H -0.17828 0.01559 0.38505
 H187 H -0.26403 0.10866 0.31976
 H188 H -0.34056 0.09513 0.36249
 H189 H -0.33616 -0.05758 0.34231
 H190 H -0.25949 -0.04401 0.29947
 C191 C 0.31264 -0.01342 0.37795
 C192 C 0.32728 -0.01735 0.33653
 C193 C 0.28590 -0.02454 0.31346
 C194 C 0.23403 -0.02709 0.33412
 C195 C 0.23152 0.02315 0.35680
 C196 C 0.27285 0.03033 0.37985
 C197 C 0.28189 -0.06292 0.38626
 C198 C 0.24063 -0.07010 0.36324
 C199 C 0.35673 -0.00651 0.40325
 C200 C 0.39211 -0.00300 0.42503
 C201 C 0.18911 -0.03511 0.30978
 C202 C 0.15127 -0.04190 0.29074
 H203 H 0.36661 -0.01465 0.32624
 H204 H 0.28978 -0.02802 0.28340
 H205 H 0.20008 0.05070 0.35486
 H206 H 0.27683 0.06402 0.39765
 H207 H 0.29171 -0.09004 0.40830
 H208 H 0.21514 -0.10333 0.36557
   
