data_POSCAR
  _audit_creation_date              2014-09-24
  _audit_creation_method            'ToBaCCo'
  _symmetry_space_group_name_H-M    'P1'
  _symmetry_Int_Tables_number       1
  _symmetry_cell_setting            triclinic
  loop_
  _symmetry_equiv_pos_as_xyz
 x,y,z
_cell_length_a 44.6433
_cell_length_b 44.8497
_cell_length_c 44.9128
_cell_angle_alpha 90.213300
_cell_angle_beta 90.026500
_cell_angle_gamma 90.109600
loop_
  _atom_site_label
  _atom_site_type_symbol
  _atom_site_fract_x
  _atom_site_fract_y
  _atom_site_fract_z
N1 N 0.30065 0.23767 0.21792
 N2 N 0.28921 0.26196 0.20618
 C3 C 0.30517 0.26940 0.18190
 C4 C 0.32771 0.24880 0.17846
 C5 C 0.32431 0.22885 0.20149
 H6 H 0.30051 0.28807 0.16746
 H7 H 0.33771 0.20925 0.20571
 Cu8 Cu 0.25399 0.28108 0.22286
 Cu9 Cu 0.28355 0.21923 0.25316
 Cu10 Cu 0.21980 0.25167 0.28294
 N11 N 0.21754 0.29821 0.23908
 N12 N 0.20426 0.28666 0.26253
 C13 C 0.17911 0.30215 0.26831
 C14 C 0.17668 0.32445 0.24742
 C15 C 0.20126 0.32143 0.22916
 H16 H 0.16344 0.29723 0.28600
 H17 H 0.20652 0.33474 0.20982
 N18 N 0.23902 0.21614 0.30029
 N19 N 0.26325 0.20375 0.28881
 C20 C 0.27031 0.17939 0.30479
 C21 C 0.24961 0.17648 0.32730
 C22 C 0.23001 0.19993 0.32389
 H23 H 0.28865 0.16440 0.30001
 H24 H 0.21027 0.20433 0.33713
 H25 H 0.23994 0.23385 0.24577
 H26 H 0.26382 0.25736 0.27071
 N27 N 0.69984 -0.24217 0.21642
 N28 N 0.71219 -0.26545 0.20344
 C29 C 0.69577 -0.27328 0.17953
 C30 C 0.67200 -0.25392 0.17760
 C31 C 0.67511 -0.23430 0.20111
 H32 H 0.70105 -0.29117 0.16420
 H33 H 0.66095 -0.21545 0.20632
 Cu34 Cu 0.74932 -0.28225 0.21811
 Cu35 Cu 0.71736 -0.22356 0.25163
 Cu36 Cu 0.78363 -0.25397 0.27853
 N37 N 0.78644 -0.29905 0.23279
 N38 N 0.79987 -0.28798 0.25649
 C39 C 0.82543 -0.30320 0.26130
 C40 C 0.82782 -0.32478 0.23944
 C41 C 0.80291 -0.32163 0.22171
 H42 H 0.84123 -0.29863 0.27901
 H43 H 0.79752 -0.33451 0.20200
 N44 N 0.76348 -0.21948 0.29744
 N45 N 0.73837 -0.20794 0.28700
 C46 C 0.73066 -0.18434 0.30394
 C47 C 0.75180 -0.18099 0.32599
 C48 C 0.77238 -0.20343 0.32135
 H49 H 0.71140 -0.17025 0.30027
 H50 H 0.79254 -0.20736 0.33409
 H51 H 0.76147 -0.23534 0.24300
 H52 H 0.73946 -0.26103 0.26715
 N53 N 0.70104 0.23906 0.78205
 N54 N 0.71315 0.26255 0.79492
 C55 C 0.69693 0.26992 0.81908
 C56 C 0.67352 0.25007 0.82129
 C57 C 0.67666 0.23065 0.79762
 H58 H 0.70197 0.28799 0.83429
 H59 H 0.66263 0.21164 0.79243
 Cu60 Cu 0.74939 0.28067 0.77946
 Cu61 Cu 0.71842 0.22093 0.74656
 Cu62 Cu 0.78318 0.25339 0.71834
 N63 N 0.78546 0.29887 0.76369
 N64 N 0.79867 0.28818 0.73974
 C65 C 0.82357 0.30429 0.73425
 C66 C 0.82577 0.32608 0.75590
 C67 C 0.80145 0.32211 0.77427
 H68 H 0.83917 0.30006 0.71630
 H69 H 0.79622 0.33477 0.79414
 N70 N 0.76386 0.21807 0.70006
 N71 N 0.73922 0.20584 0.71090
 C72 C 0.73193 0.18190 0.69422
 C73 C 0.75285 0.17903 0.67192
 C74 C 0.77287 0.20211 0.67615
 H75 H 0.71311 0.16724 0.69823
 H76 H 0.79272 0.20659 0.66311
 H77 H 0.76229 0.23413 0.75437
 H78 H 0.73909 0.25912 0.73062
 N79 N 0.30089 -0.23834 0.78286
 N80 N 0.28865 -0.26197 0.79521
 C81 C 0.30411 -0.26894 0.81999
 C82 C 0.32713 -0.24867 0.82305
 C83 C 0.32453 -0.22949 0.79931
 H84 H 0.29867 -0.28689 0.83507
 H85 H 0.33828 -0.21015 0.79479
 Cu86 Cu 0.25305 -0.28044 0.77828
 Cu87 Cu 0.28447 -0.22006 0.74718
 Cu88 Cu 0.22119 -0.25298 0.71636
 N89 N 0.21777 -0.29901 0.76084
 N90 N 0.20542 -0.28818 0.73656
 C91 C 0.18083 -0.30431 0.72986
 C92 C 0.17784 -0.32630 0.75103
 C93 C 0.20146 -0.32242 0.77042
 H94 H 0.16583 -0.29990 0.71147
 H95 H 0.20594 -0.33519 0.79031
 N96 N 0.24061 -0.21726 0.69931
 N97 N 0.26470 -0.20478 0.71112
 C98 C 0.27190 -0.18032 0.69531
 C99 C 0.25146 -0.17742 0.67255
 C100 C 0.23187 -0.20101 0.67565
 H101 H 0.29010 -0.16521 0.70041
 H102 H 0.21228 -0.20546 0.66217
 H103 H 0.24048 -0.23375 0.75358
 H104 H 0.26476 -0.25830 0.73021
 N105 N 0.70243 -0.23628 0.78295
 N106 N 0.71358 -0.26036 0.79532
 C107 C 0.69769 -0.26677 0.82000
 C108 C 0.67557 -0.24558 0.82306
 C109 C 0.67909 -0.22652 0.79932
 H110 H 0.70221 -0.28499 0.83504
 H111 H 0.66616 -0.20672 0.79474
 Cu112 Cu 0.74869 -0.28011 0.77876
 Cu113 Cu 0.72004 -0.21836 0.74753
 Cu114 Cu 0.78272 -0.25296 0.71792
 N115 N 0.78381 -0.29952 0.76183
 N116 N 0.79685 -0.28862 0.73797
 C117 C 0.82097 -0.30525 0.73123
 C118 C 0.82303 -0.32769 0.75189
 C119 C 0.79929 -0.32360 0.77115
 H120 H 0.83627 -0.30095 0.71308
 H121 H 0.79411 -0.33670 0.79065
 N122 N 0.76512 -0.21675 0.70069
 N123 N 0.74109 -0.20368 0.71186
 C124 C 0.73511 -0.17908 0.69584
 C125 C 0.75632 -0.17674 0.67373
 C126 C 0.77506 -0.20078 0.67731
 H127 H 0.71713 -0.16357 0.70030
 H128 H 0.79478 -0.20582 0.66428
 H129 H 0.73832 -0.25728 0.73060
 H130 H 0.76289 -0.23363 0.75469
 N131 N 0.30013 0.23416 0.78182
 N132 N 0.28971 0.25824 0.79507
 C133 C 0.30632 0.26391 0.81950
 C134 C 0.32810 0.24227 0.82152
 C135 C 0.32364 0.22368 0.79740
 H136 H 0.30240 0.28184 0.83515
 H137 H 0.33596 0.20359 0.79212
 Cu138 Cu 0.25423 0.27847 0.78014
 Cu139 Cu 0.28126 0.21725 0.74635
 Cu140 Cu 0.21828 0.25362 0.71947
 N141 N 0.21872 0.29871 0.76520
 N142 N 0.20494 0.28873 0.74122
 C143 C 0.18053 0.30544 0.73609
 C144 C 0.17897 0.32698 0.75791
 C145 C 0.20339 0.32222 0.77615
 H146 H 0.16453 0.30164 0.71837
 H147 H 0.20904 0.33443 0.79619
 N148 N 0.23504 0.21774 0.70054
 N149 N 0.25892 0.20377 0.71080
 C150 C 0.26359 0.17912 0.69420
 C151 C 0.24167 0.17778 0.67263
 C152 C 0.22392 0.20240 0.67717
 H153 H 0.28099 0.16284 0.69805
 H154 H 0.20385 0.20807 0.66497
 H155 H 0.26296 0.25650 0.73130
 H156 H 0.23862 0.23264 0.75520
 N157 N 0.29931 -0.23166 0.21715
 N158 N 0.28882 -0.25537 0.20325
 C159 C 0.30502 -0.25999 0.17835
 C160 C 0.32665 -0.23805 0.17676
 C161 C 0.32250 -0.22041 0.20160
 H162 H 0.30106 -0.27753 0.16223
 H163 H 0.33493 -0.20053 0.20751
 Cu164 Cu 0.25415 -0.27701 0.21848
 Cu165 Cu 0.28103 -0.21608 0.25338
 Cu166 Cu 0.22016 -0.25483 0.28155
 N167 N 0.22029 -0.29898 0.23496
 N168 N 0.20743 -0.29016 0.25983
 C169 C 0.18396 -0.30800 0.26575
 C170 C 0.18207 -0.32907 0.24351
 C171 C 0.20528 -0.32284 0.22419
 H172 H 0.16866 -0.30515 0.28420
 H173 H 0.21015 -0.33416 0.20345
 N174 N 0.23627 -0.21857 0.30040
 N175 N 0.25950 -0.20379 0.28970
 C176 C 0.26383 -0.17908 0.30631
 C177 C 0.24236 -0.17850 0.32831
 C178 C 0.22522 -0.20367 0.32405
 H179 H 0.28057 -0.16216 0.30210
 H180 H 0.20553 -0.20998 0.33657
 H181 H 0.26419 -0.25654 0.26782
 H182 H 0.23836 -0.23255 0.24568
 N183 N 0.70254 0.23451 0.21726
 N184 N 0.71438 0.25813 0.20453
 C185 C 0.69866 0.26452 0.17975
 C186 C 0.67595 0.24379 0.17698
 C187 C 0.67897 0.22502 0.20101
 H188 H 0.70362 0.28250 0.16453
 H189 H 0.66550 0.20559 0.20591
 Cu190 Cu 0.74988 0.27769 0.22084
 Cu191 Cu 0.71954 0.21687 0.25298
 Cu192 Cu 0.78126 0.25191 0.28397
 N193 N 0.78374 0.29787 0.23965
 N194 N 0.79571 0.28760 0.26434
 C195 C 0.81900 0.30496 0.27221
 C196 C 0.82164 0.32729 0.25149
 C197 C 0.79911 0.32229 0.23101
 H198 H 0.83340 0.30124 0.29121
 H199 H 0.79466 0.33510 0.21114
 N200 N 0.76353 0.21555 0.30076
 N201 N 0.73986 0.20226 0.28902
 C202 C 0.73389 0.17737 0.30462
 C203 C 0.75473 0.17510 0.32710
 C204 C 0.77324 0.19947 0.32414
 H205 H 0.71628 0.16155 0.29954
 H206 H 0.79276 0.20460 0.33750
 H207 H 0.73762 0.25635 0.26915
 H208 H 0.76290 0.23178 0.24675
 C209 C 0.23162 -0.00162 0.42073
 C210 C 0.23576 0.02554 0.43563
 C211 C 0.23723 0.02580 0.46687
 C212 C 0.23232 -0.00049 0.48353
 C213 C 0.22702 -0.02730 0.46776
 C214 C 0.22762 -0.02819 0.43653
 C215 C 0.23238 0.00003 0.51705
 C216 C 0.23767 -0.02619 0.53368
 C217 C 0.23622 -0.02599 0.56493
 C218 C 0.23173 0.00109 0.57985
 C219 C 0.22748 0.02761 0.56407
 C220 C 0.22685 0.02675 0.53285
 H221 H 0.23236 -0.00211 0.39663
 H222 H 0.24192 0.04675 0.47786
 H223 H 0.22194 -0.04771 0.47941
 H224 H 0.24263 -0.04705 0.52267
 H225 H 0.23243 0.00158 0.60396
 H226 H 0.22159 0.04712 0.52123
 C227 C 0.76013 0.00139 0.57925
 C228 C 0.75750 0.02777 0.56302
 C229 C 0.75780 0.02650 0.53180
 C230 C 0.76221 -0.00080 0.51640
 C231 C 0.76591 -0.02691 0.53367
 C232 C 0.76366 -0.02608 0.56486
 C233 C 0.76184 -0.00213 0.48275
 C234 C 0.75713 -0.02941 0.46737
 C235 C 0.75609 -0.03056 0.43614
 C236 C 0.75835 -0.00409 0.41995
 C237 C 0.76229 0.02332 0.43436
 C238 C 0.76519 0.02403 0.46549
 H239 H 0.75977 0.00225 0.60337
 H240 H 0.75365 0.04702 0.52005
 H241 H 0.76990 -0.04826 0.52329
 H242 H 0.75336 -0.04999 0.47917
 H243 H 0.75752 -0.00485 0.39584
 H244 H 0.76947 0.04536 0.47583
 C245 C 0.42072 0.23922 0.00098
 C246 C 0.43663 0.24229 0.02765
 C247 C 0.46805 0.24195 0.02706
 C248 C 0.48394 0.23707 0.00024
 C249 C 0.46704 0.23293 -0.02620
 C250 C 0.43566 0.23526 -0.02611
 C251 C 0.51776 0.23764 -0.00032
 C252 C 0.53343 0.24275 -0.02720
 C253 C 0.56481 0.24393 -0.02793
 C254 C 0.58090 0.24162 -0.00134
 C255 C 0.56619 0.23749 0.02583
 C256 C 0.53486 0.23428 0.02608
 H257 H 0.39645 0.23959 0.00128
 H258 H 0.47965 0.24644 0.04769
 H259 H 0.47785 0.22855 -0.04724
 H260 H 0.52170 0.24673 -0.04781
 H261 H 0.60516 0.24262 -0.00178
 H262 H 0.52421 0.22981 0.04716
 C263 C 0.58068 0.75503 0.00131
 C264 C 0.56456 0.75328 0.02795
 C265 C 0.53329 0.75615 0.02726
 C266 C 0.51794 0.76272 0.00054
 C267 C 0.53504 0.76534 -0.02587
 C268 C 0.56613 0.76043 -0.02574
 C269 C 0.48435 0.76617 0.00032
 C270 C 0.46760 0.76232 -0.02615
 C271 C 0.43633 0.76559 -0.02627
 C272 C 0.42131 0.77084 0.00058
 C273 C 0.43709 0.77396 0.02734
 C274 C 0.46852 0.77276 0.02684
 H275 H 0.60484 0.75284 0.00164
 H276 H 0.52126 0.75260 0.04778
 H277 H 0.52452 0.77075 -0.04681
 H278 H 0.47848 0.75682 -0.04691
 H279 H 0.39705 0.77141 0.00066
 H280 H 0.48029 0.77716 0.04740
 C281 C -0.00114 0.42100 0.24442
 C282 C 0.02628 0.43508 0.23904
 C283 C 0.02684 0.46590 0.23358
 C284 C 0.00047 0.48332 0.23567
 C285 C -0.02672 0.46837 0.24215
 C286 C -0.02777 0.43730 0.24560
 C287 C 0.00128 0.51676 0.23185
 C288 C -0.02523 0.53308 0.22625
 C289 C -0.02501 0.56435 0.22479
 C290 C 0.00234 0.57953 0.22661
 C291 C 0.02917 0.56404 0.23083
 C292 C 0.02842 0.53295 0.23437
 H293 H -0.00176 0.39700 0.24702
 H294 H 0.04815 0.47588 0.22818
 H295 H -0.04736 0.48047 0.24521
 H296 H -0.04640 0.52193 0.22282
 H297 H 0.00272 0.60368 0.22588
 H298 H 0.04929 0.52185 0.23909
 C299 C 0.00022 0.58014 0.75743
 C300 C 0.02750 0.56534 0.76111
 C301 C 0.02752 0.53437 0.76572
 C302 C 0.00062 0.51750 0.76467
 C303 C -0.02644 0.53329 0.75993
 C304 C -0.02683 0.56443 0.75716
 C305 C 0.00073 0.48385 0.76786
 C306 C -0.02624 0.46770 0.77212
 C307 C -0.02656 0.43644 0.77329
 C308 C 0.00054 0.42091 0.77232
 C309 C 0.02776 0.43606 0.76933
 C310 C 0.02767 0.46723 0.76623
 H311 H 0.00004 0.60421 0.75539
 H312 H 0.04888 0.52398 0.76960
 H313 H -0.04760 0.52192 0.75765
 H314 H -0.04744 0.47882 0.77479
 H315 H 0.00040 0.39676 0.77279
 H316 H 0.04896 0.47794 0.76264
 C317 C 0.38526 0.24773 0.10815
 C318 C 0.41108 0.23010 0.10718
 C319 C 0.42848 0.22911 0.08129
 C320 C 0.34902 0.24774 0.15460
 C321 C 0.39462 0.26399 0.05765
 C322 C 0.37733 0.26497 0.08350
 C323 C 0.36608 0.24749 0.13383
 C324 C 0.42009 0.24564 0.05608
 H325 H 0.41739 0.21664 0.12615
 H326 H 0.44786 0.21463 0.08060
 H327 H 0.38788 0.27728 0.03872
 H328 H 0.35744 0.27877 0.08407
 C329 C 0.61506 0.74681 0.10897
 C330 C 0.59004 0.76549 0.10762
 C331 C 0.57290 0.76676 0.08159
 C332 C 0.65152 0.74692 0.15528
 C333 C 0.60534 0.73005 0.05853
 C334 C 0.62241 0.72881 0.08455
 C335 C 0.63430 0.74706 0.13464
 C336 C 0.58070 0.74945 0.05657
 H337 H 0.58423 0.77958 0.12639
 H338 H 0.55425 0.78213 0.08062
 H339 H 0.61167 0.71617 0.03979
 H340 H 0.64173 0.71425 0.08540
 C341 C 0.61556 0.24931 -0.10876
 C342 C 0.59040 0.23070 -0.10731
 C343 C 0.57317 0.22974 -0.08133
 C344 C 0.65190 0.24905 -0.15513
 C345 C 0.60588 0.26651 -0.05850
 C346 C 0.62299 0.26749 -0.08447
 C347 C 0.63475 0.24893 -0.13445
 C348 C 0.58108 0.24724 -0.05648
 H349 H 0.58453 0.21648 -0.12597
 H350 H 0.55434 0.21452 -0.08024
 H351 H 0.61225 0.28051 -0.03983
 H352 H 0.64239 0.28202 -0.08540
 C353 C 0.38354 0.75858 -0.10589
 C354 C 0.40610 0.73766 -0.10035
 C355 C 0.42379 0.74011 -0.07470
 C356 C 0.34773 0.75358 -0.15251
 C357 C 0.39638 0.78447 -0.06024
 C358 C 0.37885 0.78206 -0.08587
 C359 C 0.36443 0.75567 -0.13153
 C360 C 0.41889 0.76343 -0.05428
 H361 H 0.40972 0.71925 -0.11561
 H362 H 0.44072 0.72340 -0.07043
 H363 H 0.39231 0.80278 -0.04498
 H364 H 0.36142 0.79834 -0.08990
 C365 C 0.10586 0.38142 0.24169
 C366 C 0.10218 0.40231 0.21885
 C367 C 0.07650 0.42025 0.21804
 C368 C 0.15250 0.34531 0.24444
 C369 C 0.05842 0.39644 0.26297
 C370 C 0.08400 0.37869 0.26378
 C371 C 0.13162 0.36220 0.24263
 C372 C 0.05424 0.41726 0.24000
 H373 H 0.11894 0.40452 0.20155
 H374 H 0.07372 0.43592 0.19997
 H375 H 0.04184 0.39394 0.28039
 H376 H 0.08664 0.36266 0.28157
 C377 C 0.10805 0.61780 0.75653
 C378 C 0.08522 0.62163 0.73560
 C379 C 0.05939 0.60415 0.73691
 C380 C 0.15484 0.65393 0.75357
 C381 C 0.07920 0.57834 0.77994
 C382 C 0.10514 0.59597 0.77862
 C383 C 0.13392 0.63699 0.75537
 C384 C 0.05588 0.58257 0.75929
 H385 H 0.08726 0.63836 0.71838
 H386 H 0.04205 0.60754 0.72039
 H387 H 0.07704 0.56199 0.79748
 H388 H 0.12268 0.59284 0.79498
 C389 C -0.10438 0.61817 0.22727
 C390 C -0.08084 0.62576 0.20815
 C391 C -0.05553 0.60755 0.20624
 C392 C -0.14935 0.65565 0.23527
 C393 C -0.07777 0.57342 0.24168
 C394 C -0.10306 0.59168 0.24356
 C395 C -0.12903 0.63839 0.23144
 C396 C -0.05343 0.58150 0.22350
 H397 H -0.08171 0.64613 0.19528
 H398 H -0.03731 0.61415 0.19177
 H399 H -0.07671 0.55370 0.25548
 H400 H -0.12118 0.58558 0.25840
 C401 C -0.10640 0.38331 0.76829
 C402 C -0.08396 0.37611 0.78879
 C403 C -0.05852 0.39414 0.79143
 C404 C -0.15152 0.34592 0.75990
 C405 C -0.07846 0.42736 0.75389
 C406 C -0.10387 0.40925 0.75123
 C407 C -0.13119 0.36324 0.76375
 C408 C -0.05522 0.41962 0.77355
 H409 H -0.08577 0.35617 0.80222
 H410 H -0.04113 0.38785 0.80699
 H411 H -0.07638 0.44667 0.73962
 H412 H -0.12112 0.41502 0.73529
 C413 C 0.24249 0.10545 0.38341
 C414 C 0.22062 0.08403 0.37692
 C415 C 0.21834 0.05831 0.39415
 C416 C 0.24733 0.15220 0.34798
 C417 C 0.25963 0.07537 0.42490
 C418 C 0.26193 0.10116 0.40752
 C419 C 0.24531 0.13123 0.36459
 C420 C 0.23796 0.05353 0.41818
 H421 H 0.20544 0.08711 0.35836
 H422 H 0.20114 0.04210 0.38873
 H423 H 0.27519 0.07218 0.44311
 H424 H 0.27904 0.11755 0.41266
 C425 C 0.75358 0.10896 0.61375
 C426 C 0.77226 0.10712 0.58876
 C427 C 0.77267 0.08109 0.57141
 C428 C 0.75411 0.15540 0.65025
 C429 C 0.73528 0.05901 0.60370
 C430 C 0.73480 0.08501 0.62087
 C431 C 0.75425 0.13471 0.63301
 C432 C 0.75459 0.05657 0.57909
 H433 H 0.78695 0.12548 0.58308
 H434 H 0.78792 0.07967 0.55271
 H435 H 0.72089 0.04058 0.60991
 H436 H 0.72019 0.08622 0.64010
 C437 C 0.24401 -0.10588 0.61706
 C438 C 0.26339 -0.10120 0.59298
 C439 C 0.26075 -0.07542 0.57563
 C440 C 0.24916 -0.15291 0.65212
 C441 C 0.21927 -0.05909 0.60639
 C442 C 0.22188 -0.08481 0.62359
 C443 C 0.24704 -0.13178 0.63571
 C444 C 0.23881 -0.05396 0.58236
 H445 H 0.28069 -0.11730 0.58780
 H446 H 0.27624 -0.07197 0.55742
 H447 H 0.20185 -0.04319 0.61181
 H448 H 0.20673 -0.08817 0.64212
 C449 C 0.75200 -0.11139 0.38479
 C450 C 0.77074 -0.10967 0.40977
 C451 C 0.77115 -0.08381 0.42736
 C452 C 0.75278 -0.15746 0.34782
 C453 C 0.73357 -0.06167 0.39540
 C454 C 0.73311 -0.08751 0.37797
 C455 C 0.75277 -0.13692 0.36523
 C456 C 0.75300 -0.05932 0.41996
 H457 H 0.78550 -0.12800 0.41523
 H458 H 0.78648 -0.08247 0.44601
 H459 H 0.71909 -0.04329 0.38940
 H460 H 0.71845 -0.08861 0.35876
 C461 C 0.61898 0.75904 -0.10573
 C462 C 0.59778 0.78167 -0.10144
 C463 C 0.58013 0.78208 -0.07561
 C464 C 0.65473 0.75707 -0.15267
 C465 C 0.60482 0.73718 -0.05855
 C466 C 0.62227 0.73675 -0.08430
 C467 C 0.63796 0.75853 -0.13166
 C468 C 0.58372 0.75995 -0.05378
 H469 H 0.59513 0.79911 -0.11784
 H470 H 0.56422 0.79999 -0.07238
 H471 H 0.60778 0.71962 -0.04232
 H472 H 0.63852 0.71911 -0.08740
 C473 C 0.38376 0.23598 -0.10681
 C474 C 0.40650 0.21475 -0.10325
 C475 C 0.42374 0.21448 -0.07712
 C476 C 0.34890 0.23860 -0.15435
 C477 C 0.39544 0.25657 -0.05826
 C478 C 0.37839 0.25685 -0.08427
 C479 C 0.36540 0.23665 -0.13317
 C480 C 0.41819 0.23530 -0.05427
 H481 H 0.41077 0.19839 -0.12052
 H482 H 0.44098 0.19774 -0.07454
 H483 H 0.39096 0.27319 -0.04129
 H484 H 0.36091 0.27340 -0.08678
 C485 C 0.38466 0.77410 0.10754
 C486 C 0.41191 0.75875 0.10651
 C487 C 0.42971 0.75987 0.08091
 C488 C 0.34764 0.76668 0.15295
 C489 C 0.39363 0.79275 0.05772
 C490 C 0.37584 0.79155 0.08331
 C491 C 0.36480 0.77036 0.13254
 C492 C 0.42043 0.77633 0.05594
 H493 H 0.41895 0.74516 0.12512
 H494 H 0.45001 0.74672 0.08017
 H495 H 0.38607 0.80597 0.03906
 H496 H 0.35483 0.80359 0.08387
 C497 C 0.61922 0.23911 0.10582
 C498 C 0.59669 0.21752 0.10241
 C499 C 0.57901 0.21702 0.07658
 C500 C 0.65503 0.24121 0.15275
 C501 C 0.60633 0.25973 0.05776
 C502 C 0.62383 0.26023 0.08348
 C503 C 0.63821 0.23971 0.13177
 C504 C 0.58388 0.23800 0.05387
 H505 H 0.59300 0.20097 0.11953
 H506 H 0.56203 0.19993 0.07407
 H507 H 0.61031 0.27644 0.04086
 H508 H 0.64113 0.27706 0.08586
 C509 C -0.10787 0.61574 0.75382
 C510 C -0.08430 0.62206 0.73429
 C511 C -0.05831 0.60480 0.73469
 C512 C -0.15453 0.65194 0.75367
 C513 C -0.07966 0.57416 0.77368
 C514 C -0.10566 0.59155 0.77329
 C515 C -0.13374 0.63485 0.75421
 C516 C -0.05552 0.58092 0.75471
 H517 H -0.08582 0.64068 0.71907
 H518 H -0.04024 0.61030 0.71957
 H519 H -0.07799 0.55608 0.78952
 H520 H -0.12374 0.58650 0.78854
 C521 C -0.10908 0.38653 0.25126
 C522 C -0.10747 0.41112 0.23223
 C523 C -0.08145 0.42854 0.23134
 C524 C -0.15508 0.34938 0.25057
 C525 C -0.05903 0.39734 0.26923
 C526 C -0.08501 0.37999 0.27008
 C527 C -0.13460 0.36692 0.25061
 C528 C -0.05671 0.42141 0.24938
 H529 H -0.12596 0.41633 0.21752
 H530 H -0.08018 0.44678 0.21566
 H531 H -0.04050 0.39155 0.28366
 H532 H -0.08604 0.36103 0.28492
 C533 C 0.10853 0.38407 0.76691
 C534 C 0.10468 0.40766 0.74693
 C535 C 0.07870 0.42504 0.74799
 C536 C 0.15506 0.34800 0.76192
 C537 C 0.06051 0.39546 0.78929
 C538 C 0.08647 0.37816 0.78820
 C539 C 0.13421 0.36485 0.76451
 C540 C 0.05618 0.41890 0.76900
 H541 H 0.12150 0.41224 0.73017
 H542 H 0.07584 0.44269 0.73186
 H543 H 0.04369 0.39043 0.80592
 H544 H 0.08912 0.35989 0.80370
 C545 C 0.11109 0.61431 0.23463
 C546 C 0.09004 0.61990 0.21228
 C547 C 0.06362 0.60324 0.21088
 C548 C 0.15819 0.64977 0.23969
 C549 C 0.07934 0.57493 0.25401
 C550 C 0.10576 0.59173 0.25543
 C551 C 0.13717 0.63305 0.23718
 C552 C 0.05788 0.58073 0.23185
 H553 H 0.09383 0.63745 0.19619
 H554 H 0.04759 0.60800 0.19343
 H555 H 0.07530 0.55802 0.27068
 H556 H 0.12176 0.58747 0.27305
 C557 C 0.76205 -0.10578 0.61766
 C558 C 0.78304 -0.10303 0.59462
 C559 C 0.78364 -0.07720 0.57713
 C560 C 0.75941 -0.15270 0.65294
 C561 C 0.74225 -0.05708 0.60574
 C562 C 0.74167 -0.08279 0.62307
 C563 C 0.76122 -0.13177 0.63630
 C564 C 0.76333 -0.05388 0.58270
 H565 H 0.79898 -0.12070 0.59032
 H566 H 0.80025 -0.07523 0.55968
 H567 H 0.72602 -0.03973 0.61026
 H568 H 0.72531 -0.08471 0.64078
 C569 C 0.22835 -0.10912 0.38540
 C570 C 0.24299 -0.10788 0.41293
 C571 C 0.24159 -0.08198 0.43028
 C572 C 0.23694 -0.15477 0.34910
 C573 C 0.20984 -0.05895 0.39311
 C574 C 0.21130 -0.08484 0.37580
 C575 C 0.23267 -0.13430 0.36599
 C576 C 0.22560 -0.05696 0.42019
 H577 H 0.25630 -0.12654 0.42050
 H578 H 0.25416 -0.08106 0.45089
 H579 H 0.19697 -0.04022 0.38498
 H580 H 0.19984 -0.08560 0.35454
 C581 C 0.76061 0.10341 0.38216
 C582 C 0.74006 0.08050 0.37672
 C583 C 0.74065 0.05465 0.39383
 C584 C 0.75787 0.15077 0.34751
 C585 C 0.78244 0.07446 0.42222
 C586 C 0.78181 0.10043 0.40497
 C587 C 0.75972 0.12961 0.36384
 C588 C 0.76193 0.05121 0.41666
 H589 H 0.72353 0.08262 0.35917
 H590 H 0.72425 0.03738 0.38934
 H591 H 0.79920 0.07233 0.43951
 H592 H 0.79789 0.11804 0.40931
 C593 C 0.22802 0.10838 0.61539
 C594 C 0.21086 0.08405 0.62481
 C595 C 0.20943 0.05820 0.60741
 C596 C 0.23650 0.15395 0.65187
 C597 C 0.24137 0.08143 0.57048
 C598 C 0.24274 0.10728 0.58792
 C599 C 0.23231 0.13349 0.63492
 C600 C 0.22532 0.05634 0.58042
 H601 H 0.19930 0.08472 0.64601
 H602 H 0.19650 0.03941 0.61539
 H603 H 0.25403 0.08059 0.54994
 H604 H 0.25610 0.12600 0.58045
   
