data_POSCAR
  _audit_creation_date              2014-09-24
  _audit_creation_method            'ToBaCCo'
  _symmetry_space_group_name_H-M    'P1'
  _symmetry_Int_Tables_number       1
  _symmetry_cell_setting            triclinic
  loop_
  _symmetry_equiv_pos_as_xyz
 x,y,z
_cell_length_a 46.3093
_cell_length_b 46.3553
_cell_length_c 46.2197
_cell_angle_alpha 90.000000
_cell_angle_beta 90.000000
_cell_angle_gamma 89.907500
loop_
  _atom_site_label
  _atom_site_type_symbol
  _atom_site_fract_x
  _atom_site_fract_y
  _atom_site_fract_z
C1 C 0.15490 0.17512 0.19772
 C2 C 0.15491 0.19650 0.17626
 C3 C 0.17610 0.19649 0.15509
 C4 C 0.19754 0.17509 0.15512
 C5 C 0.19754 0.15395 0.17633
 C6 C 0.17609 0.15396 0.19776
 C7 C 0.13727 0.17010 0.22118
 N8 N 0.14736 0.14649 0.23521
 C9 C 0.17102 0.13639 0.22125
 C10 C 0.22102 0.13636 0.17130
 N11 N 0.23501 0.14644 0.14764
 C12 C 0.22101 0.17005 0.13751
 C13 C 0.17104 0.21992 0.13746
 N14 N 0.14739 0.23391 0.14752
 C15 C 0.13730 0.21993 0.17117
 H16 H 0.11867 0.18274 0.22767
 H17 H 0.18366 0.11783 0.22781
 H18 H 0.22755 0.11780 0.18396
 H19 H 0.22753 0.18268 0.11891
 H20 H 0.18368 0.22644 0.11888
 H21 H 0.11871 0.22647 0.18379
 C22 C -0.15492 0.82491 0.19772
 C23 C -0.15492 0.80352 0.17626
 C24 C -0.17611 0.80353 0.15509
 C25 C -0.19755 0.82493 0.15512
 C26 C -0.19755 0.84608 0.17633
 C27 C -0.17611 0.84607 0.19776
 C28 C -0.13728 0.82993 0.22118
 N29 N -0.14737 0.85353 0.23521
 C30 C -0.17103 0.86364 0.22125
 C31 C -0.22103 0.86367 0.17130
 N32 N -0.23503 0.85358 0.14764
 C33 C -0.22102 0.82998 0.13751
 C34 C -0.17106 0.78011 0.13746
 N35 N -0.14741 0.76612 0.14752
 C36 C -0.13732 0.78009 0.17117
 H37 H -0.11869 0.81729 0.22767
 H38 H -0.18368 0.88220 0.22781
 H39 H -0.22757 0.88222 0.18396
 H40 H -0.22754 0.81735 0.11891
 H41 H -0.18369 0.77358 0.11888
 H42 H -0.11872 0.77355 0.18379
 C43 C -0.15578 0.17564 -0.19759
 C44 C -0.15583 0.19709 -0.17620
 C45 C -0.17701 0.19716 -0.15502
 C46 C -0.19841 0.17578 -0.15499
 C47 C -0.19836 0.15457 -0.17614
 C48 C -0.17692 0.15451 -0.19757
 C49 C -0.13812 0.17053 -0.22103
 N50 N -0.14815 0.14690 -0.23500
 C51 C -0.17180 0.13686 -0.22101
 C52 C -0.22178 0.13700 -0.17105
 N53 N -0.23579 0.14714 -0.14741
 C54 C -0.22186 0.17078 -0.13736
 C55 C -0.17197 0.22062 -0.13745
 N56 N -0.14835 0.23455 -0.14755
 C57 C -0.13825 0.22049 -0.17117
 H58 H -0.11955 0.18314 -0.22755
 H59 H -0.18439 0.11829 -0.22751
 H60 H -0.22825 0.11841 -0.18366
 H61 H -0.22840 0.18344 -0.11878
 H62 H -0.18460 0.22721 -0.11886
 H63 H -0.11966 0.22696 -0.18380
 C64 C 0.15576 0.82438 -0.19759
 C65 C 0.15581 0.80294 -0.17620
 C66 C 0.17700 0.80287 -0.15502
 C67 C 0.19839 0.82425 -0.15499
 C68 C 0.19834 0.84545 -0.17614
 C69 C 0.17690 0.84552 -0.19757
 C70 C 0.13811 0.82949 -0.22103
 N71 N 0.14814 0.85313 -0.23500
 C72 C 0.17178 0.86317 -0.22101
 C73 C 0.22176 0.86302 -0.17105
 N74 N 0.23578 0.85288 -0.14741
 C75 C 0.22184 0.82925 -0.13736
 C76 C 0.17196 0.77940 -0.13745
 N77 N 0.14833 0.76548 -0.14755
 C78 C 0.13824 0.77953 -0.17117
 H79 H 0.11953 0.81689 -0.22755
 H80 H 0.18438 0.88174 -0.22751
 H81 H 0.22823 0.88162 -0.18366
 H82 H 0.22839 0.81659 -0.11878
 H83 H 0.18459 0.77282 -0.11886
 H84 H 0.11965 0.77307 -0.18380
 C85 C 0.17374 1.15389 0.80376
 C86 C 0.19516 1.15391 0.82519
 C87 C 0.19520 1.17511 0.84633
 C88 C 0.17380 1.19654 0.84629
 C89 C 0.15261 1.19652 0.82510
 C90 C 0.15258 1.17507 0.80371
 C91 C 0.16875 1.13630 0.78028
 N92 N 0.14516 1.14642 0.76622
 C93 C 0.13503 1.17005 0.78018
 C94 C 0.13509 1.22005 0.83005
 N95 N 0.14525 1.23409 0.85364
 C96 C 0.16884 1.22007 0.86380
 C97 C 0.21871 1.17012 0.86388
 N98 N 0.23272 1.14650 0.85380
 C99 C 0.21866 1.13636 0.83022
 H100 H 0.18143 1.11775 0.77376
 H101 H 0.11651 1.18273 0.77358
 H102 H 0.11655 1.22661 0.81734
 H103 H 0.18154 1.22665 0.88234
 H104 H 0.22533 1.18280 0.88240
 H105 H 0.22521 1.11781 0.81757
 C106 C 0.82624 0.84614 0.80376
 C107 C 0.80482 0.84612 0.82519
 C108 C 0.80479 0.82492 0.84633
 C109 C 0.82619 0.80349 0.84629
 C110 C 0.84737 0.80350 0.82510
 C111 C 0.84740 0.82495 0.80371
 C112 C 0.83124 0.86372 0.78028
 N113 N 0.85483 0.85361 0.76622
 C114 C 0.86495 0.82997 0.78018
 C115 C 0.86490 0.77997 0.83005
 N116 N 0.85474 0.76593 0.85364
 C117 C 0.83114 0.77995 0.86380
 C118 C 0.78127 0.82991 0.86388
 N119 N 0.76727 0.85353 0.85380
 C120 C 0.78133 0.86366 0.83022
 H121 H 0.81856 0.88227 0.77376
 H122 H 0.88348 0.81729 0.77358
 H123 H 0.88344 0.77341 0.81734
 H124 H 0.81844 0.77338 0.88234
 H125 H 0.77466 0.81722 0.88240
 H126 H 0.77477 0.88222 0.81757
 C127 C 0.17395 0.84687 1.19634
 C128 C 0.19536 0.84686 1.17489
 C129 C 0.19540 0.82571 1.15370
 C130 C 0.17404 0.80432 1.15371
 C131 C 0.15287 0.80431 1.17491
 C132 C 0.15282 0.82571 1.19635
 C133 C 0.16895 0.86439 1.21988
 N134 N 0.14539 0.85427 1.23393
 C135 C 0.13529 0.83069 1.21991
 C136 C 0.13541 0.78081 1.16992
 N137 N 0.14558 0.76679 1.14630
 C138 C 0.16912 0.78083 1.13617
 C139 C 0.21891 0.83068 1.13616
 N140 N 0.23289 0.85423 1.14629
 C141 C 0.21884 0.86435 1.16990
 H142 H 0.18161 0.88290 1.22644
 H143 H 0.11680 0.81802 1.22651
 H144 H 0.11690 0.77422 1.18260
 H145 H 0.18181 0.77425 1.11762
 H146 H 0.22552 0.81801 1.11762
 H147 H 0.22539 0.88286 1.18258
 C148 C 0.82604 1.15316 1.19634
 C149 C 0.80463 1.15317 1.17489
 C150 C 0.80459 1.17431 1.15370
 C151 C 0.82595 1.19571 1.15371
 C152 C 0.84711 1.19571 1.17491
 C153 C 0.84716 1.17431 1.19635
 C154 C 0.83103 1.13564 1.21988
 N155 N 0.85459 1.14575 1.23393
 C156 C 0.86469 1.16933 1.21991
 C157 C 0.86457 1.21922 1.16992
 N158 N 0.85441 1.23323 1.14630
 C159 C 0.83087 1.21920 1.13617
 C160 C 0.78108 1.16935 1.13616
 N161 N 0.76709 1.14579 1.14629
 C162 C 0.78115 1.13567 1.16990
 H163 H 0.81837 1.11713 1.22644
 H164 H 0.88319 1.18201 1.22651
 H165 H 0.88308 1.22581 1.18260
 H166 H 0.81818 1.22577 1.11762
 H167 H 0.77446 1.18202 1.11762
 H168 H 0.77459 1.11717 1.18258
 N169 N 0.53030 1.05110 0.96895
 N170 N 0.55271 1.06838 0.96584
 N171 N 0.46953 1.03105 0.94887
 N172 N 0.44698 1.03406 0.93166
 N173 N 0.46950 1.05107 0.96896
 N174 N 0.44694 1.06824 0.96596
 N175 N 0.53034 1.03108 0.94887
 N176 N 0.55278 1.03419 0.93155
 C177 C 0.56652 1.05762 0.94235
 C178 C 0.43312 1.05742 0.94253
 N179 N 0.46969 0.94892 0.96895
 N180 N 0.44727 0.93165 0.96584
 N181 N 0.53046 0.96898 0.94887
 N182 N 0.55300 0.96596 0.93166
 N183 N 0.53049 0.94896 0.96896
 N184 N 0.55305 0.93179 0.96596
 N185 N 0.46965 0.96895 0.94887
 N186 N 0.44720 0.96583 0.93155
 Mn187 Mn 0.49999 1.00001 0.94850
 C188 C 0.43346 0.94241 0.94235
 C189 C 0.56686 0.94260 0.94253
 N190 N 0.46947 1.05107 1.03124
 N191 N 0.44696 1.06830 1.03435
 N192 N 0.53032 1.03107 1.05130
 N193 N 0.55287 1.03405 1.06850
 N194 N 0.53028 1.05109 1.03122
 N195 N 0.55280 1.06824 1.03421
 N196 N 0.46952 1.03104 1.05131
 N197 N 0.44706 1.03410 1.06862
 Mn198 Mn 0.49989 1.05145 1.00009
 C199 C 0.43320 1.05750 1.05783
 C200 C 0.56666 1.05741 1.05763
 N201 N 0.53051 0.94896 1.03124
 N202 N 0.55302 0.93172 1.03435
 N203 N 0.46966 0.96896 1.05130
 N204 N 0.44711 0.96597 1.06850
 N205 N 0.46970 0.94893 1.03122
 N206 N 0.44718 0.93178 1.03421
 N207 N 0.53046 0.96898 1.05131
 N208 N 0.55292 0.96592 1.06862
 Mn209 Mn 0.50010 0.94857 1.00009
 Mn210 Mn 0.49999 1.00001 1.05168
 Cl211 Cl 0.49999 1.00001 1.00009
 C212 C 0.56678 0.94252 1.05783
 C213 C 0.43332 0.94262 1.05763
 N214 N 0.03102 0.46954 0.05085
 N215 N 0.03408 0.44708 0.06815
 N216 N 0.05116 0.53022 0.03077
 N217 N 0.06834 0.55271 0.03377
 N218 N 0.03110 0.53027 0.05084
 N219 N 0.03410 0.55279 0.06804
 N220 N 0.05106 0.46947 0.03076
 N221 N 0.06830 0.44698 0.03386
 C222 C 0.05749 0.43323 0.05734
 C223 C 0.05749 0.56656 0.05720
 N224 N 0.03113 0.53029 -0.05160
 N225 N 0.03427 0.55275 -0.06888
 N226 N 0.05106 0.46947 -0.03151
 N227 N 0.06821 0.44691 -0.03454
 N228 N 0.03102 0.46954 -0.05159
 N229 N 0.03399 0.44703 -0.06882
 N230 N 0.05117 0.53021 -0.03151
 N231 N 0.06848 0.55259 -0.03458
 Mn232 Mn 0.05148 0.49984 -0.00037
 C233 C 0.05773 0.56643 -0.05804
 C234 C 0.05736 0.43313 -0.05797
 N235 N -0.03104 0.53049 0.05085
 N236 N -0.03409 0.55294 0.06815
 N237 N -0.05117 0.46980 0.03077
 N238 N -0.06836 0.44731 0.03377
 N239 N -0.03112 0.46975 0.05084
 N240 N -0.03412 0.44724 0.06804
 N241 N -0.05108 0.53055 0.03076
 N242 N -0.06831 0.55305 0.03386
 Mn243 Mn -0.00001 0.50001 0.05121
 C244 C -0.05750 0.56679 0.05734
 C245 C -0.05751 0.43347 0.05719
 N246 N -0.03115 0.46973 -0.05160
 N247 N -0.03429 0.44728 -0.06888
 N248 N -0.05107 0.53055 -0.03151
 N249 N -0.06823 0.55312 -0.03454
 N250 N -0.03103 0.53048 -0.05159
 N251 N -0.03401 0.55300 -0.06882
 N252 N -0.05119 0.46981 -0.03151
 N253 N -0.06849 0.44743 -0.03458
 Mn254 Mn -0.00001 0.50001 -0.05197
 Mn255 Mn -0.05150 0.50018 -0.00037
 Cl256 Cl -0.00001 0.50001 -0.00038
 C257 C -0.05774 0.43359 -0.05804
 C258 C -0.05737 0.56689 -0.05797
 N259 N 0.94880 0.03102 0.53073
 N260 N 0.93149 0.03411 0.55321
 N261 N 0.96881 0.05106 0.46982
 N262 N 0.96579 0.06823 0.44725
 N263 N 0.94881 0.03103 0.46981
 N264 N 0.93163 0.03403 0.44722
 N265 N 0.96879 0.05107 0.53074
 N266 N 0.96562 0.06833 0.55324
 C267 C 0.94220 0.05754 0.56703
 C268 C 0.94244 0.05740 0.43337
 N269 N 1.05105 0.03108 0.46982
 N270 N 1.06833 0.03417 0.44733
 N271 N 1.03094 0.05110 0.53072
 N272 N 1.03391 0.06830 0.55327
 N273 N 1.05104 0.03109 0.53074
 N274 N 1.06822 0.03415 0.55331
 N275 N 1.03097 0.05110 0.46980
 N276 N 1.03405 0.06835 0.44729
 Mn277 Mn 0.99988 0.05145 0.50027
 C278 C 1.05751 0.05757 0.43349
 C279 C 1.05732 0.05752 0.56714
 N280 N 0.94893 -0.03106 0.46982
 N281 N 0.93165 -0.03414 0.44733
 N282 N 0.96904 -0.05108 0.53072
 N283 N 0.96607 -0.06828 0.55327
 N284 N 0.94895 -0.03107 0.53074
 N285 N 0.93177 -0.03412 0.55331
 N286 N 0.96902 -0.05108 0.46980
 N287 N 0.96594 -0.06832 0.44729
 Mn288 Mn 0.94850 -0.00002 0.50028
 C289 C 0.94247 -0.05754 0.43349
 C290 C 0.94266 -0.05749 0.56714
 N291 N 1.05118 -0.03100 0.53073
 N292 N 1.06849 -0.03409 0.55321
 N293 N 1.03117 -0.05103 0.46982
 N294 N 1.03419 -0.06820 0.44725
 N295 N 1.05118 -0.03101 0.46981
 N296 N 1.06835 -0.03401 0.44722
 N297 N 1.03119 -0.05104 0.53074
 N298 N 1.03436 -0.06831 0.55324
 Mn299 Mn 1.05148 0.00004 0.50028
 Mn300 Mn 1.00011 -0.05143 0.50027
 Cl301 Cl 0.99999 0.00001 0.50027
 C302 C 1.05779 -0.05751 0.56703
 C303 C 1.05755 -0.05738 0.43337
 C304 C 1.06807 0.10491 0.36756
 C305 C 1.09230 0.09209 0.35477
 C306 C 1.10508 0.06793 0.36768
 C307 C 1.09373 0.05665 0.39332
 C308 C 1.13616 0.13539 0.25915
 C309 C 1.05669 0.09366 0.39321
 C310 C 1.10416 0.10383 0.32850
 C311 C 1.11419 0.11371 0.30657
 C312 C 1.12601 0.12536 0.28096
 C313 C 1.06947 0.06946 0.40637
 H314 H 1.05800 0.12362 0.35775
 H315 H 1.12383 0.05783 0.35795
 H316 H 1.10397 0.03794 0.40294
 H317 H 1.03794 0.10392 0.40274
 C318 C 0.93192 -0.10489 0.36756
 C319 C 0.90768 -0.09207 0.35477
 C320 C 0.89491 -0.06790 0.36768
 C321 C 0.90625 -0.05662 0.39332
 C322 C 0.86382 -0.13536 0.25915
 C323 C 0.94329 -0.09364 0.39321
 C324 C 0.89582 -0.10381 0.32850
 C325 C 0.88580 -0.11369 0.30657
 C326 C 0.87398 -0.12533 0.28096
 C327 C 0.93052 -0.06943 0.40637
 H328 H 0.94198 -0.12359 0.35775
 H329 H 0.87616 -0.05780 0.35795
 H330 H 0.89602 -0.03791 0.40294
 H331 H 0.96205 -0.10389 0.40274
 C332 C 0.93137 0.10498 0.63286
 C333 C 0.90718 0.09217 0.64565
 C334 C 0.89452 0.06796 0.63277
 C335 C 0.90594 0.05665 0.60716
 C336 C 0.86308 0.13571 0.74110
 C337 C 0.94283 0.09370 0.60725
 C338 C 0.89524 0.10395 0.67188
 C339 C 0.88515 0.11389 0.69377
 C340 C 0.87327 0.12560 0.71933
 C341 C 0.93017 0.06945 0.59412
 H342 H 0.94135 0.12372 0.64265
 H343 H 0.87580 0.05787 0.64249
 H344 H 0.89580 0.03791 0.59757
 H345 H 0.96155 0.10395 0.59772
 C346 C 1.10546 -0.06794 0.63277
 C347 C 1.09280 -0.09214 0.64565
 C348 C 1.06861 -0.10496 0.63286
 C349 C 1.05716 -0.09367 0.60725
 C350 C 1.13690 -0.13568 0.74110
 C351 C 1.09404 -0.05662 0.60716
 C352 C 1.10475 -0.10393 0.67188
 C353 C 1.11483 -0.11386 0.69377
 C354 C 1.12671 -0.12558 0.71933
 C355 C 1.06982 -0.06943 0.59412
 H356 H 1.12419 -0.05784 0.64249
 H357 H 1.05863 -0.12369 0.64265
 H358 H 1.03843 -0.10393 0.59772
 H359 H 1.10419 -0.03788 0.59757
 C360 C 0.36745 1.06782 1.10543
 C361 C 0.35453 1.09199 1.09267
 C362 C 0.36730 1.10482 1.06843
 C363 C 0.39294 1.09358 1.05704
 C364 C 0.25895 1.13531 1.13647
 C365 C 0.39308 1.05655 1.09408
 C366 C 0.32827 1.10372 1.10454
 C367 C 0.30635 1.11360 1.11455
 C368 C 0.28075 1.12526 1.12635
 C369 C 0.40610 1.06937 1.06980
 H370 H 0.35774 1.05771 1.12419
 H371 H 0.35748 1.12353 1.05837
 H372 H 0.40245 1.10385 1.03828
 H373 H 0.40270 1.03784 1.10430
 C374 C 0.36777 0.93184 0.89474
 C375 C 0.35499 0.90765 0.90755
 C376 C 0.36784 0.89490 0.93181
 C377 C 0.39341 0.90623 0.94319
 C378 C 0.25966 0.86402 0.86379
 C379 C 0.39333 0.94320 0.90608
 C380 C 0.32881 0.89582 0.89570
 C381 C 0.30694 0.88585 0.88571
 C382 C 0.28141 0.87411 0.87393
 C383 C 0.40643 0.93045 0.93038
 H384 H 0.35800 0.94188 0.87596
 H385 H 0.35813 0.87618 0.94190
 H386 H 0.40298 0.89602 0.96196
 H387 H 0.40285 0.96192 0.89583
 C388 C 0.63268 0.89521 1.06843
 C389 C 0.64546 0.90804 1.09267
 C390 C 0.63254 0.93221 1.10543
 C391 C 0.60691 0.94348 1.09408
 C392 C 0.74104 0.86471 1.13647
 C393 C 0.60705 0.90644 1.05704
 C394 C 0.67171 0.89631 1.10454
 C395 C 0.69364 0.88642 1.11455
 C396 C 0.71923 0.87476 1.12635
 C397 C 0.59388 0.93065 1.06980
 H398 H 0.64250 0.87650 1.05837
 H399 H 0.64225 0.94232 1.12419
 H400 H 0.59729 0.96219 1.10430
 H401 H 0.59753 0.89618 1.03828
 C402 C 0.63214 1.10512 0.93181
 C403 C 0.64499 1.09238 0.90755
 C404 C 0.63222 1.06819 0.89474
 C405 C 0.60665 1.05683 0.90608
 C406 C 0.74033 1.13601 0.86379
 C407 C 0.60658 1.09380 0.94319
 C408 C 0.67118 1.10421 0.89570
 C409 C 0.69304 1.11417 0.88571
 C410 C 0.71858 1.12592 0.87393
 C411 C 0.59356 1.06957 0.93038
 H412 H 0.64185 1.12384 0.94190
 H413 H 0.64198 1.05814 0.87596
 H414 H 0.59714 1.03811 0.89583
 H415 H 0.59701 1.10400 0.96196
 C416 C 0.10486 0.36740 0.06782
 C417 C 0.09206 0.35461 0.09206
 C418 C 0.06787 0.36750 0.10487
 C419 C 0.05657 0.39311 0.09356
 C420 C 0.13560 0.25916 0.13571
 C421 C 0.09360 0.39302 0.05647
 C422 C 0.10384 0.32839 0.10388
 C423 C 0.11378 0.30649 0.11385
 C424 C 0.12551 0.28093 0.12560
 C425 C 0.06938 0.40615 0.06928
 H426 H 0.12358 0.35761 0.05772
 H427 H 0.05778 0.35777 0.12363
 H428 H 0.03785 0.40271 0.10381
 H429 H 0.10385 0.40254 0.03771
 C430 C -0.06845 0.36783 -0.10544
 C431 C -0.09265 0.35513 -0.09255
 C432 C -0.10536 0.36806 -0.06831
 C433 C -0.09398 0.39362 -0.05704
 C434 C -0.13654 0.25978 -0.13580
 C435 C -0.05703 0.39340 -0.09420
 C436 C -0.10454 0.32894 -0.10427
 C437 C -0.11457 0.30707 -0.11413
 C438 C -0.12640 0.28153 -0.12577
 C439 C -0.06974 0.40656 -0.06993
 H440 H -0.05843 0.35800 -0.12420
 H441 H -0.12408 0.35841 -0.05815
 H442 H -0.10416 0.40325 -0.03828
 H443 H -0.03830 0.40285 -0.10452
 C444 C 0.10534 0.63197 -0.06831
 C445 C 0.09263 0.64490 -0.09255
 C446 C 0.06843 0.63220 -0.10544
 C447 C 0.05702 0.60663 -0.09420
 C448 C 0.13652 0.74024 -0.13580
 C449 C 0.09397 0.60641 -0.05704
 C450 C 0.10452 0.67109 -0.10427
 C451 C 0.11456 0.69296 -0.11413
 C452 C 0.12638 0.71850 -0.12577
 C453 C 0.06973 0.59346 -0.06993
 H454 H 0.12407 0.64162 -0.05815
 H455 H 0.05841 0.64203 -0.12420
 H456 H 0.03829 0.59717 -0.10452
 H457 H 0.10415 0.59678 -0.03828
 C458 C -0.10488 0.63262 0.06782
 C459 C -0.09207 0.64541 0.09206
 C460 C -0.06789 0.63253 0.10487
 C461 C -0.05659 0.60691 0.09356
 C462 C -0.13562 0.74087 0.13571
 C463 C -0.09361 0.60701 0.05647
 C464 C -0.10385 0.67164 0.10388
 C465 C -0.11380 0.69354 0.11385
 C466 C -0.12553 0.71910 0.12560
 C467 C -0.06939 0.59388 0.06928
 H468 H -0.12360 0.64242 0.05772
 H469 H -0.05780 0.64225 0.12363
 H470 H -0.03787 0.59732 0.10381
 H471 H -0.10386 0.59748 0.03771
 C472 C 1.10436 0.06786 0.63333
 C473 C 1.09139 0.09196 0.64618
 C474 C 1.06723 0.10473 0.63321
 C475 C 1.05611 0.09351 0.60745
 C476 C 1.13414 0.13534 0.74219
 C477 C 1.09327 0.05660 0.60756
 C478 C 1.10296 0.10369 0.67256
 C479 C 1.11271 0.11360 0.69459
 C480 C 1.12421 0.12529 0.72030
 C481 C 1.06907 0.06937 0.59436
 H482 H 1.12306 0.05780 0.64319
 H483 H 1.05702 0.12339 0.64298
 H484 H 1.03740 0.10373 0.59779
 H485 H 1.10363 0.03794 0.59799
 C486 C 0.89563 -0.06783 0.63333
 C487 C 0.90860 -0.09193 0.64618
 C488 C 0.93275 -0.10471 0.63321
 C489 C 0.94388 -0.09348 0.60745
 C490 C 0.86584 -0.13531 0.74219
 C491 C 0.90672 -0.05657 0.60756
 C492 C 0.89703 -0.10366 0.67256
 C493 C 0.88728 -0.11358 0.69459
 C494 C 0.87577 -0.12527 0.72030
 C495 C 0.93092 -0.06934 0.59436
 H496 H 0.87693 -0.05777 0.64319
 H497 H 0.94296 -0.12336 0.64299
 H498 H 0.96258 -0.10370 0.59779
 H499 H 0.89636 -0.03791 0.59799
 C500 C 1.06757 -0.10445 0.36719
 C501 C 1.09164 -0.09161 0.35421
 C502 C 1.10452 -0.06752 0.36710
 C503 C 1.09343 -0.05633 0.39291
 C504 C 1.13439 -0.13471 0.25801
 C505 C 1.05644 -0.09329 0.39300
 C506 C 1.10322 -0.10326 0.32778
 C507 C 1.11297 -0.11311 0.30571
 C508 C 1.12447 -0.12472 0.27995
 C509 C 1.06931 -0.06916 0.40612
 H510 H 1.05743 -0.12309 0.35740
 H511 H 1.12316 -0.05742 0.35722
 H512 H 1.10372 -0.03768 0.40250
 H513 H 1.03779 -0.10356 0.40266
 C514 C 0.93242 0.10447 0.36719
 C515 C 0.90834 0.09163 0.35421
 C516 C 0.89546 0.06755 0.36710
 C517 C 0.90656 0.05636 0.39291
 C518 C 0.86559 0.13473 0.25801
 C519 C 0.94355 0.09332 0.39300
 C520 C 0.89677 0.10329 0.32778
 C521 C 0.88702 0.11313 0.30571
 C522 C 0.87552 0.12475 0.27995
 C523 C 0.93068 0.06919 0.40612
 H524 H 0.94256 0.12312 0.35740
 H525 H 0.87682 0.05744 0.35722
 H526 H 0.89627 0.03770 0.40250
 H527 H 0.96219 0.10358 0.40266
 C528 C 0.10433 0.36698 -0.06813
 C529 C 0.09143 0.35415 -0.09230
 C530 C 0.06733 0.36712 -0.10518
 C531 C 0.05621 0.39287 -0.09401
 C532 C 0.13424 0.25813 -0.13535
 C533 C 0.09323 0.39273 -0.05692
 C534 C 0.10300 0.32777 -0.10396
 C535 C 0.11277 0.30574 -0.11380
 C536 C 0.12430 0.28003 -0.12539
 C537 C 0.06910 0.40594 -0.06980
 H538 H 0.12298 0.35711 -0.05798
 H539 H 0.05718 0.35737 -0.12389
 H540 H 0.03755 0.40254 -0.10431
 H541 H 0.10354 0.40228 -0.03820
 C542 C -0.10446 0.36745 0.06733
 C543 C -0.09151 0.35455 0.09146
 C544 C -0.06741 0.36744 0.10433
 C545 C -0.05631 0.39317 0.09317
 C546 C -0.13403 0.25860 0.13462
 C547 C -0.09339 0.39318 0.05614
 C548 C -0.10304 0.32819 0.10312
 C549 C -0.11274 0.30618 0.11298
 C550 C -0.12417 0.28048 0.12462
 C551 C -0.06924 0.40631 0.06899
 H552 H -0.12312 0.35764 0.05720
 H553 H -0.05721 0.35764 0.12301
 H554 H -0.03764 0.40277 0.10346
 H555 H -0.10373 0.40279 0.03745
 C556 C -0.10434 0.63304 -0.06813
 C557 C -0.09144 0.64588 -0.09230
 C558 C -0.06735 0.63290 -0.10518
 C559 C -0.05622 0.60715 -0.09401
 C560 C -0.13426 0.74190 -0.13535
 C561 C -0.09325 0.60730 -0.05692
 C562 C -0.10302 0.67225 -0.10396
 C563 C -0.11279 0.69428 -0.11380
 C564 C -0.12432 0.72000 -0.12539
 C565 C -0.06911 0.59408 -0.06980
 H566 H -0.12299 0.64291 -0.05798
 H567 H -0.05719 0.64266 -0.12389
 H568 H -0.03756 0.59749 -0.10431
 H569 H -0.10356 0.59774 -0.03820
 C570 C 0.06739 0.63258 0.10433
 C571 C 0.09149 0.64547 0.09146
 C572 C 0.10444 0.63258 0.06733
 C573 C 0.09338 0.60685 0.05614
 C574 C 0.13402 0.74142 0.13462
 C575 C 0.05629 0.60685 0.09317
 C576 C 0.10302 0.67183 0.10312
 C577 C 0.11272 0.69385 0.11298
 C578 C 0.12416 0.71954 0.12462
 C579 C 0.06923 0.59372 0.06899
 H580 H 0.05720 0.64239 0.12301
 H581 H 0.12310 0.64239 0.05720
 H582 H 0.10372 0.59724 0.03745
 H583 H 0.03762 0.59726 0.10346
 C584 C 0.36701 1.10451 0.93252
 C585 C 0.35411 1.09169 0.90835
 C586 C 0.36701 1.06760 0.89541
 C587 C 0.39277 1.05640 0.90654
 C588 C 0.25810 1.13483 0.86546
 C589 C 0.39277 1.09335 0.94368
 C590 C 0.32773 1.10335 0.89674
 C591 C 0.30570 1.11320 0.88696
 C592 C 0.27999 1.12483 0.87541
 C593 C 0.40592 1.06922 0.93075
 H594 H 0.35719 1.12315 0.94270
 H595 H 0.35720 1.05751 0.87670
 H596 H 0.40239 1.03776 0.89620
 H597 H 0.40238 1.10360 0.96239
 C598 C 0.36718 0.93266 1.10467
 C599 C 0.35430 0.90859 1.09175
 C600 C 0.36725 0.89569 1.06763
 C601 C 0.39301 0.90677 1.05648
 C602 C 0.25828 0.86584 1.13465
 C603 C 0.39294 0.94377 1.09356
 C604 C 0.32792 0.89702 1.10335
 C605 C 0.30588 0.88726 1.11314
 C606 C 0.28017 0.87575 1.12470
 C607 C 0.40612 0.93089 1.06939
 H608 H 0.35732 0.94281 1.12335
 H609 H 0.35746 0.87706 1.05746
 H610 H 0.40266 0.89647 1.03779
 H611 H 0.40252 0.96242 1.10389
 C612 C 0.63274 1.10433 1.06763
 C613 C 0.64568 1.09144 1.09175
 C614 C 0.63281 1.06737 1.10467
 C615 C 0.60705 1.05625 1.09356
 C616 C 0.74171 1.13419 1.13465
 C617 C 0.60697 1.09325 1.05648
 C618 C 0.67207 1.10300 1.10335
 C619 C 0.69410 1.11276 1.11314
 C620 C 0.71982 1.12427 1.12470
 C621 C 0.59386 1.06914 1.06939
 H622 H 0.64253 1.12297 1.05746
 H623 H 0.64266 1.05722 1.12335
 H624 H 0.59746 1.03761 1.10389
 H625 H 0.59733 1.10356 1.03779
 C626 C 0.63297 0.89552 0.93252
 C627 C 0.64588 0.90834 0.90835
 C628 C 0.63297 0.93242 0.89541
 C629 C 0.60721 0.94362 0.90654
 C630 C 0.74189 0.86520 0.86546
 C631 C 0.60722 0.90668 0.94368
 C632 C 0.67226 0.89668 0.89674
 C633 C 0.69429 0.88682 0.88696
 C634 C 0.72000 0.87520 0.87541
 C635 C 0.59407 0.93081 0.93075
 H636 H 0.64279 0.87688 0.94270
 H637 H 0.64279 0.94252 0.87670
 H638 H 0.59759 0.96227 0.89620
 H639 H 0.59761 0.89643 0.96239
   
