data_POSCAR
  _audit_creation_date              2014-09-24
  _audit_creation_method            'ToBaCCo'
  _symmetry_space_group_name_H-M    'P1'
  _symmetry_Int_Tables_number       1
  _symmetry_cell_setting            triclinic
  loop_
  _symmetry_equiv_pos_as_xyz
 x,y,z
_cell_length_a 21.0187
_cell_length_b 20.9207
_cell_length_c 20.9649
_cell_angle_alpha 90.077900
_cell_angle_beta 90.015400
_cell_angle_gamma 89.971600
loop_
  _atom_site_label
  _atom_site_type_symbol
  _atom_site_fract_x
  _atom_site_fract_y
  _atom_site_fract_z
C1 C 0.53056 1.00084 -0.50000
 C2 C 0.46581 1.00052 -0.50056
 C3 C 0.42839 0.99651 -0.56073
 C4 C 0.42696 1.00153 -0.44112
 C5 C 0.56831 0.99810 -0.44000
 C6 C 0.56920 1.00174 -0.55943
 C7 C 0.43210 1.04334 -0.60837
 C8 C 0.38937 1.04270 -0.65984
 C9 C 0.34025 0.99630 -0.66379
 C10 C 0.34046 0.94717 -0.61738
 C11 C 0.38352 0.94757 -0.56693
 C12 C 0.37764 1.04653 -0.43578
 C13 C 0.33348 1.04262 -0.38628
 C14 C 0.33781 0.99378 -0.34068
 C15 C 0.38894 0.95048 -0.34404
 C16 C 0.43275 0.95381 -0.39434
 C17 C 0.61537 0.95079 -0.43418
 C18 C 0.65794 0.95164 -0.38327
 C19 C 0.65422 0.99961 -0.33668
 C20 C 0.60551 1.04556 -0.34071
 C21 C 0.56318 1.04524 -0.39245
 C22 C 0.56430 0.95309 -0.60545
 C23 C 0.60854 0.94931 -0.65527
 C24 C 0.65920 0.99304 -0.65871
 C25 C 0.66263 1.04284 -0.61400
 C26 C 0.61793 1.04728 -0.56509
 H27 H 0.46617 1.08194 -0.60429
 H28 H 0.39225 1.08176 -0.69343
 H29 H 0.30814 0.90709 -0.61958
 H30 H 0.38077 0.91008 -0.53142
 H31 H 0.37205 1.08354 -0.47144
 H32 H 0.29512 1.07715 -0.38434
 H33 H 0.46938 0.91761 -0.39821
 H34 H 0.62021 0.91398 -0.47025
 H35 H 0.69424 0.91501 -0.38057
 H36 H 0.60192 1.08314 -0.30533
 H37 H 0.52804 1.08287 -0.39654
 H38 H 0.52817 0.91648 -0.60122
 H39 H 0.60517 0.91034 -0.68915
 H40 H 0.70073 1.07760 -0.61615
 H41 H 0.62281 1.08497 -0.52993
 H42 H 0.39311 0.91217 -0.30960
 C43 C -0.49946 1.53124 -0.00080
 C44 C -0.50081 1.46636 -0.00187
 C45 C -0.56112 1.42992 -0.00519
 C46 C -0.44268 1.42627 0.00233
 C47 C -0.43926 1.56851 -0.00126
 C48 C -0.55851 1.57023 0.00304
 C49 C -0.60508 1.43082 0.04520
 C50 C -0.65596 1.38765 0.04570
 C51 C -0.66285 1.34275 -0.00378
 C52 C -0.62037 1.34417 -0.05539
 C53 C -0.56993 1.38724 -0.05598
 C54 C -0.44022 1.37864 0.04933
 C55 C -0.39015 1.33522 0.05099
 C56 C -0.34091 1.33878 0.00606
 C57 C -0.34213 1.38749 -0.04012
 C58 C -0.39315 1.43059 -0.04245
 C59 C -0.43315 1.61884 -0.04510
 C60 C -0.38292 1.66198 -0.04033
 C61 C -0.33721 1.65501 0.00777
 C62 C -0.34114 1.60293 0.04977
 C63 C -0.39245 1.56044 0.04596
 C64 C -0.60697 1.56558 -0.04257
 C65 C -0.65861 1.60785 -0.04112
 C66 C -0.66235 1.65737 0.00505
 C67 C -0.61325 1.66036 0.05099
 C68 C -0.56285 1.61725 0.05029
 H69 H -0.59825 1.46270 0.08536
 H70 H -0.68774 1.38708 0.08630
 H71 H -0.62522 1.31077 -0.09460
 H72 H -0.53624 1.38578 -0.09506
 H73 H -0.47794 1.37434 0.08427
 H74 H -0.38998 1.29857 0.08745
 H75 H -0.39479 1.46611 -0.07992
 H76 H -0.46890 1.62620 -0.08160
 H77 H -0.38042 1.70167 -0.07337
 H78 H -0.30639 1.59718 0.08749
 H79 H -0.39700 1.52311 0.08137
 H80 H -0.60372 1.53088 -0.08079
 H81 H -0.69260 1.60368 -0.07950
 H82 H -0.61254 1.69548 0.08838
 H83 H -0.52591 1.62173 0.08609
 H84 H -0.30483 1.39080 -0.07557
 C85 C -0.00560 0.52941 0.50255
 C86 C -0.00515 0.46466 0.50238
 C87 C 0.00117 0.42698 0.44281
 C88 C -0.01036 0.42674 0.56180
 C89 C -0.00814 0.56704 0.56212
 C90 C -0.00129 0.56713 0.44329
 C91 C -0.04830 0.42440 0.39814
 C92 C -0.04563 0.38143 0.34707
 C93 C 0.00562 0.33806 0.34080
 C94 C 0.05626 0.34303 0.38485
 C95 C 0.05387 0.38680 0.43510
 C96 C -0.06236 0.38579 0.56984
 C97 C -0.06354 0.34186 0.61989
 C98 C -0.01247 0.33774 0.66352
 C99 C 0.03812 0.38169 0.65683
 C100 C 0.03975 0.42453 0.60578
 C101 C 0.04806 0.58176 0.59449
 C102 C 0.04747 0.62373 0.64622
 C103 C -0.00935 0.65444 0.66593
 C104 C -0.06564 0.63930 0.63198
 C105 C -0.06500 0.59585 0.58124
 C106 C 0.05698 0.59429 0.42543
 C107 C 0.05966 0.63787 0.37505
 C108 C 0.00420 0.65416 0.34147
 C109 C -0.05379 0.62559 0.35831
 C110 C -0.05668 0.58319 0.40963
 H111 H -0.09061 0.45312 0.40455
 H112 H -0.08626 0.37929 0.31544
 H113 H 0.09828 0.31346 0.38095
 H114 H 0.09256 0.38811 0.46924
 H115 H -0.10139 0.38659 0.53607
 H116 H -0.10499 0.31157 0.62410
 H117 H 0.08180 0.45339 0.59885
 H118 H 0.09307 0.56265 0.57809
 H119 H 0.09316 0.63511 0.66682
 H120 H -0.11081 0.66045 0.64372
 H121 H -0.10867 0.58615 0.55554
 H122 H 0.09990 0.58332 0.45184
 H123 H 0.10479 0.65960 0.36284
 H124 H -0.09728 0.63848 0.33377
 H125 H -0.10239 0.56458 0.42444
 H126 H 0.07909 0.38004 0.68805
 O127 O -0.16640 1.00070 -0.08079
 O128 O 0.16133 0.99331 -0.08745
 O129 O -0.00687 1.08414 -0.16177
 O130 O -0.00441 0.91159 -0.16262
 O131 O 0.00046 0.83337 -0.08511
 O132 O -0.00219 1.16236 -0.08420
 O133 O 0.08222 0.99434 -0.16371
 O134 O -0.09054 1.00055 -0.16018
 Zr135 Zr -0.00311 0.99778 -0.11033
 O136 O 0.05592 0.93993 -0.05730
 O137 O -0.05944 1.05596 -0.05482
 C138 C -0.14902 1.00189 -0.14013
 C139 C 0.14147 0.99169 -0.14608
 C140 C -0.00567 1.14324 -0.14304
 C141 C -0.00166 0.85261 -0.14385
 H142 H 0.08278 1.08229 -0.08471
 O143 O 0.05590 1.05534 -0.05693
 H144 H -0.08737 0.91275 -0.08132
 O145 O -0.05935 0.93992 -0.05482
 O146 O 0.16508 1.00173 0.08522
 O147 O -0.16262 0.99361 0.09066
 O148 O 0.08572 1.16199 0.00438
 O149 O 0.08553 0.83315 -0.00386
 O150 O -0.08608 0.83317 0.00609
 O151 O -0.08576 1.16243 0.00084
 O152 O 0.00512 1.08380 0.16564
 O153 O 0.00252 0.91100 0.16550
 O154 O 0.00110 1.16221 0.08840
 O155 O -0.00045 0.83303 0.08758
 O156 O 0.16308 1.08392 0.00017
 O157 O -0.16362 1.08490 0.00411
 O158 O -0.16371 0.91110 0.00746
 O159 O 0.16293 0.91136 -0.00221
 O160 O 0.08837 0.99925 0.16385
 O161 O -0.08375 0.99379 0.16707
 Zr162 Zr 0.11135 0.99771 -0.00022
 Zr163 Zr -0.11237 0.99782 0.00388
 Zr164 Zr -0.00029 1.11012 0.00202
 Zr165 Zr -0.00038 0.88519 0.00135
 Zr166 Zr 0.00159 0.99741 0.11373
 O167 O -0.05696 0.93962 0.06035
 O168 O 0.05833 1.05563 0.05879
 C169 C 0.14691 1.00166 0.14444
 C170 C -0.14293 0.99147 0.14924
 C171 C 0.14446 1.14297 0.00311
 C172 C 0.14422 0.85230 -0.00450
 C173 C -0.14485 0.85197 0.00902
 C174 C -0.14459 1.14400 0.00232
 C175 C 0.00389 1.14298 0.14717
 C176 C 0.00117 0.85193 0.14657
 H177 H -0.08375 1.08208 0.08861
 O178 O -0.05686 1.05529 0.06059
 H179 H 0.08611 0.91270 0.08459
 O180 O 0.05815 0.93982 0.05804
 C181 C 0.29806 1.03910 0.23658
 C182 C 0.29286 1.00039 0.29150
 C183 C 0.23326 0.96904 0.29966
 C184 C 0.18580 0.97114 0.25255
 C185 C 0.19593 1.00337 0.19473
 C186 C 0.25134 1.03987 0.18943
 C187 C 0.29837 1.04474 0.13662
 C188 C 0.34982 1.04326 0.18760
 H189 H 0.22135 0.94362 0.34283
 H190 H 0.14193 0.94523 0.26060
 H191 H 0.29520 1.09137 0.11145
 H192 H 0.29869 1.00203 0.10511
 H193 H 0.37676 1.08886 0.19071
 H194 H 0.37973 0.99942 0.18589
 C195 C -0.30295 0.97082 0.22994
 C196 C -0.28946 0.98467 0.29376
 C197 C -0.22488 0.99056 0.31133
 C198 C -0.17661 0.99033 0.26474
 C199 C -0.19198 0.98509 0.19942
 C200 C -0.25552 0.97168 0.18389
 C201 C -0.29841 1.00194 0.13581
 C202 C -0.35040 1.00064 0.18619
 H203 H -0.21190 0.99787 0.36079
 H204 H -0.12786 0.99769 0.27974
 H205 H -0.30816 0.96976 0.09473
 H206 H -0.28310 1.05114 0.12296
 H207 H -0.38991 0.96739 0.17432
 H208 H -0.36549 1.04903 0.20221
 C209 C -0.23267 0.99603 -0.29906
 C210 C -0.29728 1.00246 -0.28567
 C211 C -0.31323 1.01059 -0.22052
 C212 C -0.26525 1.01056 -0.17259
 C213 C -0.19993 1.00367 -0.18871
 C214 C -0.18677 0.99740 -0.25347
 C215 C -0.13405 0.98966 -0.30032
 C216 C -0.18608 0.98815 -0.35204
 H217 H -0.36256 1.01553 -0.20648
 H218 H -0.27948 1.01560 -0.12323
 H219 H -0.10847 0.94354 -0.29473
 H220 H -0.10316 1.03265 -0.30281
 H221 H -0.19034 0.94100 -0.37614
 H222 H -0.18514 1.03029 -0.38426
 C223 C 0.30072 0.97059 -0.22894
 C224 C 0.28686 0.98580 -0.29240
 C225 C 0.22211 0.99276 -0.30901
 C226 C 0.17434 0.99233 -0.26187
 C227 C 0.19022 0.98568 -0.19678
 C228 C 0.25377 0.97113 -0.18232
 C229 C 0.29767 0.99921 -0.13380
 C230 C 0.34908 0.99847 -0.18487
 H231 H 0.20855 1.00090 -0.35817
 H232 H 0.12553 1.00054 -0.27624
 H233 H 0.30732 0.96559 -0.09393
 H234 H 0.28341 1.04824 -0.11908
 H235 H 0.38823 0.96431 -0.17445
 H236 H 0.36468 1.04703 -0.19965
 C237 C 0.22692 1.30208 0.02019
 C238 C 0.28912 1.29138 -0.00001
 C239 C 0.30420 1.22754 -0.01712
 C240 C 0.25758 1.17870 -0.01501
 C241 C 0.19427 1.19236 0.00366
 C242 C 0.18197 1.25537 0.02132
 C243 C 0.13083 1.29944 0.04325
 C244 C 0.18154 1.35258 0.04124
 H245 H 0.35199 1.21514 -0.03192
 H246 H 0.27106 1.13072 -0.02894
 H247 H 0.11448 1.28781 0.09229
 H248 H 0.09254 1.30544 0.00722
 H249 H 0.19350 1.37212 0.08907
 H250 H 0.17282 1.38878 0.00348
 C251 C 0.29780 0.76637 0.02927
 C252 C 0.28907 0.70494 0.00243
 C253 C 0.23179 0.69576 -0.03261
 C254 C 0.18500 0.74383 -0.03628
 C255 C 0.19429 0.80330 -0.00656
 C256 C 0.25243 0.81431 0.02331
 C257 C 0.26409 0.84058 0.08817
 C258 C 0.31265 0.78781 0.09613
 H259 H 0.22026 0.65033 -0.05419
 H260 H 0.14079 0.73371 -0.06078
 H261 H 0.22226 0.83577 0.12031
 H262 H 0.28563 0.88899 0.08648
 H263 H 0.29851 0.75206 0.13272
 H264 H 0.36195 0.80651 0.10086
 C265 C -0.22370 0.68947 0.01865
 C266 C -0.28837 0.70471 0.01667
 C267 C -0.30571 0.76959 0.02190
 C268 C -0.25904 0.81776 0.02175
 C269 C -0.19407 0.80199 0.01535
 C270 C -0.17769 0.73703 0.01728
 C271 C -0.13578 0.69902 -0.02604
 C272 C -0.18604 0.64685 -0.02420
 H273 H -0.35544 0.78313 0.02335
 H274 H -0.27420 0.86720 0.02349
 H275 H -0.09049 0.68483 -0.00271
 H276 H -0.13033 0.72129 -0.07385
 H277 H -0.16980 0.60288 0.00066
 H278 H -0.20962 0.63867 -0.07100
 C279 C -0.30375 1.22626 0.01936
 C280 C -0.28955 1.29054 0.00760
 C281 C -0.22510 1.30743 0.00039
 C282 C -0.17751 1.25998 -0.00049
 C283 C -0.19355 1.19457 0.00499
 C284 C -0.25710 1.17945 0.01762
 C285 C -0.30013 1.13305 -0.01515
 C286 C -0.35139 1.18418 -0.01263
 H287 H -0.21164 1.35700 -0.00571
 H288 H -0.12858 1.27450 -0.00754
 H289 H -0.31109 1.09085 0.01499
 H290 H -0.28422 1.12171 -0.06446
 H291 H -0.39150 1.17174 0.01958
 H292 H -0.36563 1.20212 -0.06047
 C293 C -0.03543 1.29275 0.24015
 C294 C 0.00406 1.28878 0.29422
 C295 C 0.03831 1.23073 0.30195
 C296 C 0.03726 1.18285 0.25472
 C297 C 0.00335 1.19189 0.19761
 C298 C -0.03528 1.24604 0.19310
 C299 C -0.04294 1.29343 0.14066
 C300 C -0.04257 1.34493 0.19190
 H301 H 0.06547 1.22106 0.34465
 H302 H 0.06495 1.13977 0.26194
 H303 H -0.08966 1.28861 0.11627
 H304 H -0.00107 1.29553 0.10843
 H305 H -0.08892 1.37016 0.19616
 H306 H -0.00017 1.37663 0.18968
 C307 C 0.02950 1.29398 -0.23575
 C308 C -0.00973 1.28870 -0.28990
 C309 C -0.04250 1.22987 -0.29766
 C310 C -0.04014 1.18217 -0.25046
 C311 C -0.00642 1.19216 -0.19336
 C312 C 0.03050 1.24743 -0.18862
 C313 C 0.03567 1.29527 -0.13617
 C314 C 0.03433 1.34652 -0.18748
 H315 H -0.06944 1.21949 -0.34036
 H316 H -0.06675 1.13844 -0.25769
 H317 H 0.08216 1.29210 -0.11111
 H318 H -0.00688 1.29601 -0.10466
 H319 H 0.07991 1.37316 -0.19123
 H320 H -0.00906 1.37692 -0.18587
 C321 C -0.05501 0.75082 -0.28211
 C322 C -0.00829 0.70224 -0.28546
 C323 C 0.04334 0.70770 -0.24187
 C324 C 0.04614 0.75721 -0.19660
 C325 C -0.00188 0.80351 -0.19358
 C326 C -0.05091 0.80080 -0.23822
 C327 C -0.12057 0.80177 -0.22574
 C328 C -0.12571 0.74679 -0.27243
 H329 H 0.08050 0.67214 -0.23943
 H330 H 0.08524 0.75851 -0.16298
 H331 H -0.14353 0.84630 -0.24306
 H332 H -0.13275 0.78831 -0.17592
 H333 H -0.15271 0.75985 -0.31613
 H334 H -0.14063 0.70128 -0.24949
 C335 C -0.02075 0.69520 0.23195
 C336 C 0.00598 0.70408 0.29200
 C337 C 0.03302 0.76496 0.30387
 C338 C 0.03117 0.81370 0.25681
 C339 C 0.00340 0.80232 0.19622
 C340 C -0.02109 0.74132 0.18639
 C341 C -0.05580 0.70075 0.13960
 C342 C -0.05514 0.64829 0.19113
 H343 H 0.05424 0.77535 0.34980
 H344 H 0.05171 0.85986 0.26782
 H345 H -0.02622 0.68913 0.09722
 H346 H -0.10414 0.71957 0.12932
 H347 H -0.02503 0.60644 0.17857
 H348 H -0.10319 0.63673 0.20997
   
