data_POSCAR
  _audit_creation_date              2014-09-24
  _audit_creation_method            'ToBaCCo'
  _symmetry_space_group_name_H-M    'P1'
  _symmetry_Int_Tables_number       1
  _symmetry_cell_setting            triclinic
  loop_
  _symmetry_equiv_pos_as_xyz
 x,y,z
_cell_length_a 35.1059
_cell_length_b 37.7151
_cell_length_c 30.3932
_cell_angle_alpha 83.523700
_cell_angle_beta 95.544000
_cell_angle_gamma 76.834800
loop_
  _atom_site_label
  _atom_site_type_symbol
  _atom_site_fract_x
  _atom_site_fract_y
  _atom_site_fract_z
C1 C 0.61124 0.66247 0.67808
 C2 C 0.64227 0.65475 0.65207
 C3 C 0.66008 0.61863 0.64845
 C4 C 0.64757 0.58975 0.67130
 C5 C 0.61803 0.59738 0.69824
 C6 C 0.59942 0.63393 0.70117
 C7 C 0.58545 0.69468 0.68361
 N8 N 0.55808 0.68627 0.70906
 C9 C 0.56679 0.64918 0.72037
 C10 C 0.61196 0.56433 0.71635
 N11 N 0.63659 0.53677 0.70039
 C12 C 0.65833 0.55213 0.67254
 C13 C 0.68865 0.61935 0.62066
 N14 N 0.68892 0.65495 0.60772
 C15 C 0.66047 0.67682 0.62651
 H16 H 0.58531 0.72198 0.66805
 H17 H 0.54931 0.63403 0.73879
 H18 H 0.59035 0.56079 0.73852
 H19 H 0.68075 0.53719 0.65492
 H20 H 0.70831 0.59565 0.61127
 H21 H 0.65358 0.70656 0.62208
 C22 C 0.93590 0.34024 0.15974
 C23 C 0.89700 0.34016 0.14442
 C24 C 0.86655 0.36960 0.14846
 C25 C 0.87450 0.39901 0.16897
 C26 C 0.91292 0.39927 0.18405
 C27 C 0.94406 0.36980 0.17871
 C28 C 0.97103 0.31517 0.16003
 N29 N 1.00071 0.32893 0.17781
 C30 C 0.98447 0.36239 0.18942
 C31 C 0.91112 0.42970 0.20580
 N32 N 0.87258 0.44734 0.20471
 C33 C 0.85013 0.42898 0.18171
 C34 C 0.83215 0.36246 0.13014
 N35 N 0.84114 0.32932 0.11532
 C36 C 0.88067 0.31529 0.12415
 H37 H 0.97458 0.28923 0.14700
 H38 H 1.00063 0.37997 0.20484
 H39 H 0.93580 0.43699 0.22363
 H40 H 0.81823 0.43575 0.17651
 H41 H 0.80277 0.38008 0.12765
 H42 H 0.89646 0.28937 0.11547
 C43 C 0.37774 0.18157 -0.17848
 C44 C 0.34143 0.17235 -0.17633
 C45 C 0.32735 0.15393 -0.20864
 C46 C 0.34947 0.14425 -0.24334
 C47 C 0.38543 0.15315 -0.24544
 C48 C 0.39954 0.17237 -0.21297
 C49 C 0.40050 0.19550 -0.14883
 N50 N 0.43533 0.19544 -0.16461
 C51 C 0.43512 0.18146 -0.20385
 C52 C 0.40291 0.13538 -0.27826
 N53 N 0.37852 0.11577 -0.29584
 C54 C 0.34553 0.12160 -0.27496
 C55 C 0.29423 0.14448 -0.19528
 N56 N 0.28787 0.15666 -0.15561
 C57 C 0.31657 0.17386 -0.14383
 H58 H 0.39278 0.20395 -0.11731
 H59 H 0.45982 0.17637 -0.22296
 H60 H 0.43226 0.13508 -0.28651
 H61 H 0.32151 0.10829 -0.27988
 H62 H 0.27734 0.12822 -0.21220
 H63 H 0.32040 0.18492 -0.11280
 C64 C 0.05491 0.84976 0.36975
 C65 C 0.07447 0.86794 0.39907
 C66 C 0.09130 0.89565 0.38242
 C67 C 0.08860 0.90569 0.33608
 C68 C 0.07009 0.88714 0.30733
 C69 C 0.05334 0.85895 0.32422
 C70 C 0.03770 0.82050 0.37639
 N71 N 0.02631 0.81146 0.33590
 C72 C 0.03593 0.83486 0.30385
 C73 C 0.07390 0.90078 0.26458
 N74 N 0.09387 0.92762 0.26638
 C75 C 0.10309 0.93072 0.31012
 C76 C 0.11242 0.90500 0.41809
 N77 N 0.10922 0.88333 0.45578
 C78 C 0.08561 0.86096 0.44442
 H79 H 0.03512 0.80607 0.40841
 H80 H 0.03088 0.83452 0.26824
 H81 H 0.06262 0.89173 0.23452
 H82 H 0.11966 0.94932 0.32236
 H83 H 0.13108 0.92421 0.41613
 H84 H 0.07912 0.83934 0.46683
 N85 N 0.16265 0.19795 0.13945
 N86 N 0.14626 0.17930 0.16819
 C87 C 0.12217 0.20284 0.18925
 C88 C 0.12405 0.23810 0.17358
 C89 C 0.15018 0.23412 0.14217
 H90 H 0.10268 0.19504 0.21202
 H91 H 0.15624 0.25595 0.11969
 Cu92 Cu 0.15356 0.12644 0.17177
 Cu93 Cu 0.19127 0.17381 0.09434
 Cu94 Cu 0.15619 0.09791 0.07213
 N95 N 0.14798 0.07753 0.16397
 N96 N 0.14806 0.06680 0.12431
 C97 C 0.13964 0.03366 0.12662
 C98 C 0.13437 0.02295 0.17019
 C99 C 0.13999 0.05140 0.19313
 H100 H 0.13669 0.01893 0.09843
 H101 H 0.13661 0.05373 0.22776
 N102 N 0.18198 0.12481 0.02931
 N103 N 0.19762 0.15222 0.03861
 C104 C 0.21541 0.16276 0.00373
 C105 C 0.21030 0.14101 -0.02907
 C106 C 0.18905 0.11735 -0.01176
 H107 H 0.23038 0.18488 0.00213
 H108 H 0.18031 0.09559 -0.02741
 H109 H 0.14600 0.14947 0.09233
 H110 H 0.19475 0.11689 0.11174
 N111 N 0.38461 0.83007 0.66193
 N112 N 0.41242 0.84770 0.65598
 C113 C 0.44774 0.82506 0.67227
 C114 C 0.44144 0.79182 0.69021
 C115 C 0.40111 0.79597 0.68325
 H116 H 0.47581 0.83211 0.67065
 H117 H 0.38532 0.77497 0.69070
 Cu118 Cu 0.40013 0.89843 0.62619
 Cu119 Cu 0.33089 0.85162 0.63402
 Cu120 Cu 0.30024 0.94258 0.60985
 N121 N 0.38027 0.95257 0.61720
 N122 N 0.34242 0.96920 0.61337
 C123 C 0.33880 1.00503 0.61696
 C124 C 0.37611 1.01127 0.62312
 C125 C 0.40169 0.97756 0.62271
 H126 H 0.31121 1.02462 0.61793
 H127 H 0.43344 0.97097 0.63050
 N128 N 0.26591 0.91026 0.59490
 N129 N 0.27709 0.87453 0.60760
 C130 C 0.24764 0.85906 0.59482
 C131 C 0.21658 0.88646 0.57246
 C132 C 0.22907 0.91868 0.57291
 H133 H 0.24931 0.82987 0.59930
 H134 H 0.21275 0.94606 0.55825
 H135 H 0.34398 0.90543 0.59092
 H136 H 0.34792 0.90721 0.65227
 N137 N 0.91888 0.68498 0.39224
 N138 N 0.93249 0.66299 0.36370
 C139 C 0.95728 0.67766 0.34049
 C140 C 0.95985 0.71019 0.35593
 C141 C 0.93533 0.71398 0.38891
 H142 H 0.97167 0.66596 0.31374
 H143 H 0.92838 0.73706 0.40732
 Cu144 Cu 0.91519 0.61829 0.35759
 Cu145 Cu 0.87769 0.67636 0.42789
 Cu146 Cu 0.84392 0.59827 0.41400
 N147 N 0.88609 0.58324 0.33931
 N148 N 0.85694 0.57685 0.36054
 C149 C 0.84054 0.55296 0.34051
 C150 C 0.86072 0.54369 0.30505
 C151 C 0.88963 0.56321 0.30524
 H152 H 0.81610 0.54274 0.35136
 H153 H 0.91100 0.56340 0.28191
 N154 N 0.82451 0.63182 0.45623
 N155 N 0.83632 0.66218 0.46076
 C156 C 0.81556 0.68022 0.48999
 C157 C 0.78975 0.66003 0.50453
 C158 C 0.79628 0.62953 0.48260
 H159 H 0.81879 0.70614 0.49984
 H160 H 0.78078 0.60780 0.48471
 H161 H 0.89176 0.62060 0.43123
 H162 H 0.85394 0.64630 0.38430
 N163 N 0.60511 0.26300 -0.10098
 N164 N 0.59426 0.27669 -0.14328
 C165 C 0.56379 0.26345 -0.15898
 C166 C 0.55485 0.24090 -0.12426
 C167 C 0.58169 0.24120 -0.08807
 H168 H 0.54776 0.27154 -0.19217
 H169 H 0.58320 0.22770 -0.05439
 Cu170 Cu 0.61747 0.31459 -0.17170
 Cu171 Cu 0.64669 0.27691 -0.06526
 Cu172 Cu 0.65022 0.36410 -0.09274
 N173 N 0.62541 0.36433 -0.18698
 N174 N 0.63376 0.38443 -0.15618
 C175 C 0.63571 0.41750 -0.17630
 C176 C 0.62913 0.41787 -0.22187
 C177 C 0.62286 0.38372 -0.22764
 H178 H 0.64440 0.43863 -0.15924
 H179 H 0.61731 0.37362 -0.25897
 N180 N 0.68364 0.33298 -0.04120
 N181 N 0.68382 0.29804 -0.03198
 C182 C 0.71209 0.28220 0.00216
 C183 C 0.73026 0.30884 0.01532
 C184 C 0.71130 0.34083 -0.01261
 H185 H 0.71916 0.25344 0.01599
 H186 H 0.71839 0.36734 -0.01361
 H187 H 0.61075 0.33359 -0.11305
 H188 H 0.66310 0.31873 -0.12352
 N189 N 0.10468 0.30353 0.18732
 N190 N 0.06936 0.32894 0.18982
 C191 C 0.03983 0.31212 0.18187
 C192 C 0.05527 0.27607 0.17548
 C193 C 0.09565 0.27186 0.17920
 H194 H 0.03942 0.25552 0.16818
 H195 H 0.13274 0.30866 0.19112
 H196 H 0.06701 0.35633 0.19442
 N197 N 0.46325 0.72909 0.73337
 N198 N 0.49450 0.70109 0.73886
 C199 C 0.52274 0.71137 0.71703
 C200 C 0.50912 0.74770 0.69731
 C201 C 0.47108 0.75770 0.70820
 H202 H 0.52333 0.76353 0.67512
 H203 H 0.43661 0.72808 0.74546
 H204 H 0.49548 0.67515 0.75570
 N205 N 0.98773 0.74132 0.29481
 N206 N 1.00536 0.77083 0.28885
 C207 C 1.00934 0.78321 0.32858
 C208 C 0.99405 0.76267 0.36021
 C209 C 0.98069 0.73699 0.33761
 H210 H 0.99221 0.76616 0.39486
 H211 H 0.98024 0.72648 0.26968
 H212 H 1.01443 0.78023 0.25893
 N213 N 0.50692 0.21344 -0.08569
 N214 N 0.47480 0.20207 -0.09638
 C215 C 0.46804 0.20513 -0.14114
 C216 C 0.49678 0.21922 -0.16009
 C217 C 0.52083 0.22428 -0.12349
 H218 H 0.49932 0.22557 -0.19514
 H219 H 0.51848 0.21442 -0.05300
 H220 H 0.45811 0.19230 -0.07331
 N221 N 0.10829 -0.03211 0.16071
 N222 N 0.09621 -0.05865 0.18794
 C223 C 0.10286 -0.05225 0.23044
 C224 C 0.11900 -0.02187 0.23142
 C225 C 0.12160 -0.01000 0.18711
 H226 H 0.12680 -0.00933 0.26020
 H227 H 0.10585 -0.02960 0.12593
 H228 H 0.08435 -0.07934 0.17632
 N229 N 0.65317 0.44027 -0.29162
 N230 N 0.65701 0.47402 -0.31235
 C231 C 0.63883 0.50019 -0.28946
 C232 C 0.62371 0.48412 -0.25386
 C233 C 0.63364 0.44673 -0.25621
 H234 H 0.60909 0.49750 -0.22827
 H235 H 0.66586 0.41467 -0.30054
 H236 H 0.67116 0.47752 -0.34061
 N237 N 0.42238 1.05126 0.63729
 N238 N 0.42283 1.08120 0.66032
 C239 C 0.38728 1.09117 0.67477
 C240 C 0.36332 1.06897 0.66028
 C241 C 0.38650 1.04415 0.63764
 H242 H 0.33402 1.06867 0.66823
 H243 H 0.44665 1.03601 0.62475
 H244 H 0.44765 1.09138 0.66749
 N245 N 0.81731 0.51007 0.26666
 N246 N 0.82024 0.48503 0.23934
 C247 C 0.85746 0.47685 0.22910
 C248 C 0.87920 0.49786 0.25040
 C249 C 0.85246 0.51846 0.27401
 H250 H 0.91023 0.49701 0.25057
 H251 H 0.79176 0.52070 0.28054
 H252 H 0.79742 0.47293 0.22956
 N253 N 0.21305 0.12386 -0.10562
 N254 N 0.23332 0.12829 -0.13938
 C255 C 0.25846 0.14903 -0.12862
 C256 C 0.25386 0.15854 -0.08631
 C257 C 0.22484 0.14177 -0.07289
 H258 H 0.27028 0.17396 -0.06726
 H259 H 0.19191 0.10837 -0.10500
 H260 H 0.23034 0.11649 -0.16858
 N261 N 0.74981 0.70223 0.54990
 N262 N 0.72251 0.70101 0.57676
 C263 C 0.71564 0.66715 0.58002
 C264 C 0.73928 0.64591 0.55415
 C265 C 0.76048 0.66926 0.53556
 H266 H 0.74096 0.61758 0.54960
 H267 H 0.76070 0.72533 0.54154
 H268 H 0.70947 0.72284 0.59286
 N269 N 0.78930 0.27077 0.06550
 N270 N 0.81915 0.27627 0.09161
 C271 C 0.81371 0.31268 0.09238
 C272 C 0.77929 0.33132 0.06559
 C273 C 0.76481 0.30363 0.04892
 H274 H 0.76740 0.36073 0.05795
 H275 H 0.78653 0.24500 0.05821
 H276 H 0.84279 0.25547 0.10813
 N277 N 0.16374 0.85301 0.56284
 N278 N 0.13476 0.85245 0.53203
 C279 C 0.13212 0.87997 0.49861
 C280 C 0.16022 0.89939 0.50901
 C281 C 0.17982 0.88106 0.54990
 H282 H 0.16784 0.92132 0.48822
 H283 H 0.17328 0.83357 0.59138
 H284 H 0.11878 0.83225 0.53316
   
