data_POSCAR
  _audit_creation_date              2014-09-24
  _audit_creation_method            'ToBaCCo'
  _symmetry_space_group_name_H-M    'P1'
  _symmetry_Int_Tables_number       1
  _symmetry_cell_setting            triclinic
  loop_
  _symmetry_equiv_pos_as_xyz
 x,y,z
_cell_length_a 37.6547
_cell_length_b 38.8942
_cell_length_c 39.3138
_cell_angle_alpha 88.981300
_cell_angle_beta 90.178200
_cell_angle_gamma 86.778600
loop_
  _atom_site_label
  _atom_site_type_symbol
  _atom_site_fract_x
  _atom_site_fract_y
  _atom_site_fract_z
N1 N 0.28170 0.22402 0.18842
 N2 N 0.26303 0.25279 0.18104
 C3 C 0.27507 0.26635 0.15182
 C4 C 0.30316 0.24529 0.14057
 C5 C 0.30672 0.21861 0.16438
 H6 H 0.26394 0.28957 0.13940
 H7 H 0.32503 0.19621 0.16348
 Cu8 Cu 0.22443 0.26946 0.20992
 Cu9 Cu 0.26970 0.19427 0.22682
 Cu10 Cu 0.19313 0.21860 0.27138
 N11 N 0.17900 0.28045 0.23123
 N12 N 0.16677 0.26050 0.25533
 C13 C 0.13476 0.27374 0.26532
 C14 C 0.12659 0.30352 0.24652
 C15 C 0.15527 0.30702 0.22504
 H16 H 0.11846 0.26249 0.28470
 H17 H 0.15858 0.32707 0.20610
 N18 N 0.22364 0.17717 0.28347
 N19 N 0.25265 0.16784 0.26637
 C20 C 0.26675 0.13799 0.27976
 C21 C 0.24581 0.12814 0.30660
 C22 C 0.21870 0.15359 0.30832
 H23 H 0.29027 0.12402 0.27044
 H24 H 0.19656 0.15443 0.32577
 H25 H 0.21627 0.20948 0.22453
 H26 H 0.24367 0.23072 0.25682
 N27 N 0.71179 -0.19227 0.19095
 N28 N 0.72127 -0.22489 0.18627
 C29 C 0.70035 -0.23734 0.16201
 C30 C 0.67696 -0.21075 0.15059
 C31 C 0.68500 -0.18264 0.16953
 H32 H 0.70341 -0.26309 0.15211
 H33 H 0.67260 -0.15691 0.16743
 Cu34 Cu 0.76336 -0.24681 0.20848
 Cu35 Cu 0.73548 -0.16462 0.22379
 Cu36 Cu 0.79923 -0.20211 0.27437
 N37 N 0.80625 -0.26398 0.23393
 N38 N 0.81997 -0.24668 0.25891
 C39 C 0.85052 -0.26319 0.26936
 C40 C 0.85653 -0.29213 0.24996
 C41 C 0.82781 -0.29203 0.22778
 H42 H 0.86791 -0.25420 0.28885
 H43 H 0.82357 -0.31013 0.20782
 N44 N 0.77487 -0.15835 0.28560
 N45 N 0.75023 -0.14357 0.26563
 C46 C 0.73874 -0.11335 0.27898
 C47 C 0.75714 -0.10893 0.30888
 C48 C 0.77993 -0.13801 0.31238
 H49 H 0.71857 -0.09575 0.26773
 H50 H 0.79902 -0.14381 0.33256
 H51 H 0.78847 -0.20324 0.22234
 H52 H 0.75343 -0.21878 0.25183
 N53 N 0.71524 0.24410 0.81251
 N54 N 0.73336 0.27094 0.81987
 C55 C 0.71991 0.28550 0.84822
 C56 C 0.69159 0.26706 0.85894
 C57 C 0.68935 0.24091 0.83570
 H58 H 0.73038 0.30742 0.86058
 H59 H 0.67137 0.22020 0.83646
 Cu60 Cu 0.77348 0.28369 0.79241
 Cu61 Cu 0.72869 0.21342 0.77545
 Cu62 Cu 0.80688 0.22952 0.73339
 N63 N 0.81977 0.28953 0.77221
 N64 N 0.83273 0.26822 0.74920
 C65 C 0.86494 0.27798 0.73950
 C66 C 0.87256 0.30698 0.75731
 C67 C 0.84326 0.31367 0.77795
 H68 H 0.88162 0.26502 0.72078
 H69 H 0.83922 0.33432 0.79583
 N70 N 0.77686 0.19168 0.72119
 N71 N 0.74712 0.18546 0.73730
 C72 C 0.73338 0.15743 0.72393
 C73 C 0.75537 0.14560 0.69813
 C74 C 0.78270 0.16792 0.69702
 H75 H 0.70931 0.14612 0.73248
 H76 H 0.80548 0.16658 0.68035
 H77 H 0.78194 0.22288 0.77970
 H78 H 0.75591 0.24748 0.74580
 N79 N 0.29026 -0.24959 0.81007
 N80 N 0.27224 -0.27680 0.81709
 C81 C 0.28435 -0.29146 0.84647
 C82 C 0.31176 -0.27276 0.85830
 C83 C 0.31487 -0.24630 0.83458
 H84 H 0.27369 -0.31379 0.85865
 H85 H 0.33264 -0.22545 0.83576
 Cu86 Cu 0.23413 -0.29013 0.78770
 Cu87 Cu 0.27824 -0.21899 0.77123
 Cu88 Cu 0.20220 -0.23617 0.72595
 N89 N 0.18877 -0.29658 0.76600
 N90 N 0.17620 -0.27530 0.74196
 C91 C 0.14430 -0.28533 0.73173
 C92 C 0.13653 -0.31446 0.75030
 C93 C 0.16540 -0.32093 0.77191
 H94 H 0.12789 -0.27239 0.71224
 H95 H 0.16916 -0.34143 0.79071
 N96 N 0.23229 -0.19790 0.71385
 N97 N 0.26117 -0.19127 0.73116
 C98 C 0.27517 -0.16311 0.71742
 C99 C 0.25427 -0.15158 0.69015
 C100 C 0.22731 -0.17425 0.68855
 H101 H 0.29864 -0.15146 0.72673
 H102 H 0.20532 -0.17321 0.67077
 H103 H 0.22509 -0.22933 0.77310
 H104 H 0.25297 -0.25317 0.74106
 N105 N 0.70577 -0.23294 0.80553
 N106 N 0.72204 -0.26357 0.80927
 C107 C 0.71214 -0.27779 0.83898
 C108 C 0.68820 -0.25493 0.85449
 C109 C 0.68471 -0.22670 0.83257
 H110 H 0.72188 -0.30273 0.84877
 H111 H 0.66884 -0.20305 0.83633
 Cu112 Cu 0.75536 -0.28165 0.77560
 Cu113 Cu 0.71454 -0.20268 0.76691
 Cu114 Cu 0.78300 -0.22920 0.71334
 N115 N 0.79791 -0.29320 0.74949
 N116 N 0.80901 -0.27230 0.72565
 C117 C 0.84046 -0.28499 0.71377
 C118 C 0.84953 -0.31551 0.73100
 C119 C 0.82174 -0.32011 0.75344
 H120 H 0.85615 -0.27245 0.69470
 H121 H 0.81969 -0.34039 0.77237
 N122 N 0.75337 -0.18644 0.70555
 N123 N 0.72769 -0.17596 0.72635
 C124 C 0.71440 -0.14469 0.71581
 C125 C 0.73236 -0.13523 0.68691
 C126 C 0.75688 -0.16229 0.68105
 H127 H 0.69387 -0.12939 0.72868
 H128 H 0.77691 -0.16358 0.66142
 H129 H 0.73352 -0.23931 0.73296
 H130 H 0.76657 -0.22200 0.76298
 N131 N 0.29889 0.21755 0.80345
 N132 N 0.28273 0.24805 0.80739
 C133 C 0.29206 0.26052 0.83765
 C134 C 0.31554 0.23668 0.85334
 C135 C 0.31933 0.20967 0.83094
 H136 H 0.28235 0.28502 0.84762
 H137 H 0.33508 0.18578 0.83461
 Cu138 Cu 0.25056 0.26833 0.77303
 Cu139 Cu 0.29083 0.18969 0.76377
 Cu140 Cu 0.22399 0.22011 0.70856
 N141 N 0.20884 0.28197 0.74595
 N142 N 0.19813 0.26279 0.72114
 C143 C 0.16696 0.27649 0.70885
 C144 C 0.15780 0.30588 0.72678
 C145 C 0.18501 0.30864 0.75017
 H146 H 0.15136 0.26522 0.68923
 H147 H 0.18642 0.32738 0.77004
 N148 N 0.25341 0.17747 0.70073
 N149 N 0.27846 0.16555 0.72211
 C150 C 0.29184 0.13486 0.71120
 C151 C 0.27461 0.12728 0.68148
 C152 C 0.25041 0.15484 0.67551
 H153 H 0.31198 0.11868 0.72432
 H154 H 0.23097 0.15750 0.65522
 H155 H 0.27305 0.22840 0.73002
 H156 H 0.23905 0.20966 0.75844
 N157 N 0.29207 -0.24895 0.19232
 N158 N 0.27508 -0.27696 0.18687
 C159 C 0.28656 -0.29092 0.15748
 C160 C 0.31228 -0.27068 0.14402
 C161 C 0.31508 -0.24424 0.16680
 H162 H 0.27682 -0.31394 0.14656
 H163 H 0.33196 -0.22273 0.16468
 Cu164 Cu 0.23936 -0.29221 0.21852
 Cu165 Cu 0.28224 -0.21984 0.23123
 Cu166 Cu 0.21147 -0.24038 0.28207
 N167 N 0.19597 -0.29991 0.24354
 N168 N 0.18503 -0.27941 0.26807
 C169 C 0.15337 -0.28913 0.27942
 C170 C 0.14407 -0.31731 0.26122
 C171 C 0.17173 -0.32353 0.23859
 H172 H 0.13771 -0.27609 0.29882
 H173 H 0.17340 -0.34273 0.21902
 N174 N 0.24165 -0.20187 0.29168
 N175 N 0.26817 -0.19362 0.27182
 C176 C 0.28186 -0.16477 0.28339
 C177 C 0.26330 -0.15456 0.31199
 C178 C 0.23798 -0.17865 0.31662
 H179 H 0.30321 -0.15157 0.27149
 H180 H 0.21743 -0.17840 0.33577
 H181 H 0.26092 -0.25600 0.26337
 H182 H 0.22946 -0.23206 0.23321
 N183 N 0.70094 0.25150 0.19674
 N184 N 0.71636 0.28025 0.18977
 C185 C 0.70632 0.29154 0.15838
 C186 C 0.68334 0.26860 0.14518
 C187 C 0.68056 0.24351 0.17025
 H188 H 0.71525 0.31452 0.14595
 H189 H 0.66540 0.22077 0.16924
 Cu190 Cu 0.74857 0.29959 0.22216
 Cu191 Cu 0.70929 0.22551 0.23883
 Cu192 Cu 0.77488 0.25276 0.29184
 N193 N 0.78949 0.31101 0.24916
 N194 N 0.79984 0.29242 0.27602
 C195 C 0.83028 0.30412 0.28810
 C196 C 0.83939 0.33161 0.26791
 C197 C 0.81291 0.33537 0.24338
 H198 H 0.84544 0.29272 0.30925
 H199 H 0.81174 0.35317 0.22191
 N200 N 0.74640 0.21318 0.30301
 N201 N 0.72157 0.20263 0.28252
 C202 C 0.70924 0.17332 0.29534
 C203 C 0.72705 0.16505 0.32529
 C204 C 0.75040 0.19090 0.32954
 H205 H 0.68989 0.15811 0.28307
 H206 H 0.77022 0.19231 0.34933
 H207 H 0.72629 0.26477 0.26884
 H208 H 0.76091 0.24094 0.24282
 C209 C 0.23419 -0.01384 0.40665
 C210 C 0.22885 0.01772 0.42315
 C211 C 0.22823 0.01807 0.45884
 C212 C 0.23549 -0.01235 0.47842
 C213 C 0.24155 -0.04356 0.46109
 C214 C 0.24020 -0.04463 0.42550
 C215 C 0.23727 -0.01153 0.51660
 C216 C 0.23094 -0.04100 0.53675
 C217 C 0.23450 -0.04076 0.57230
 C218 C 0.24193 -0.00994 0.58823
 C219 C 0.24731 0.01999 0.56888
 C220 C 0.24575 0.01874 0.53331
 H221 H 0.23200 -0.01454 0.37923
 H222 H 0.22211 0.04237 0.47104
 H223 H 0.24778 -0.06739 0.47499
 H224 H 0.22318 -0.06442 0.52510
 H225 H 0.24180 -0.00894 0.61570
 H226 H 0.25150 0.04169 0.51891
 C227 C 0.76855 0.00641 0.59733
 C228 C 0.77628 0.03797 0.58200
 C229 C 0.77907 0.04031 0.54649
 C230 C 0.77166 0.01228 0.52581
 C231 C 0.76325 -0.01889 0.54183
 C232 C 0.76232 -0.02222 0.57735
 C233 C 0.77178 0.01576 0.48779
 C234 C 0.77862 -0.01315 0.46706
 C235 C 0.77632 -0.01023 0.43148
 C236 C 0.76961 0.02244 0.41631
 C237 C 0.76347 0.05165 0.43635
 C238 C 0.76408 0.04805 0.47182
 H239 H 0.76899 0.00383 0.62477
 H240 H 0.78682 0.06432 0.53521
 H241 H 0.75687 -0.04082 0.52690
 H242 H 0.78557 -0.03821 0.47834
 H243 H 0.77051 0.02534 0.38892
 H244 H 0.75781 0.07068 0.48673
 C245 C 0.40662 0.21932 0.00255
 C246 C 0.42467 0.22647 0.03267
 C247 C 0.46141 0.23069 0.03162
 C248 C 0.48091 0.22616 0.00121
 C249 C 0.46229 0.21726 -0.02825
 C250 C 0.42528 0.21521 -0.02806
 C251 C 0.52025 0.23095 0.00015
 C252 C 0.53738 0.23910 -0.03063
 C253 C 0.57418 0.24308 -0.03185
 C254 C 0.59399 0.24092 -0.00149
 C255 C 0.57744 0.23374 0.02953
 C256 C 0.54116 0.22749 0.02994
 H257 H 0.37838 0.21545 0.00307
 H258 H 0.47433 0.23796 0.05478
 H259 H 0.47620 0.21210 -0.05178
 H260 H 0.52243 0.24253 -0.05407
 H261 H 0.62251 0.24298 -0.00203
 H262 H 0.52958 0.21989 0.05385
 C263 C 0.59871 0.75536 0.00337
 C264 C 0.58140 0.74532 0.03310
 C265 C 0.54473 0.74065 0.03226
 C266 C 0.52448 0.74897 0.00258
 C267 C 0.54245 0.76043 -0.02660
 C268 C 0.57950 0.76200 -0.02681
 C269 C 0.48487 0.74632 0.00201
 C270 C 0.46664 0.74126 -0.02875
 C271 C 0.42943 0.74100 -0.02995
 C272 C 0.41008 0.74383 0.00047
 C273 C 0.42767 0.74781 0.03159
 C274 C 0.46472 0.75004 0.03199
 H275 H 0.62718 0.75816 0.00387
 H276 H 0.53222 0.73127 0.05507
 H277 H 0.52797 0.76793 -0.04959
 H278 H 0.48114 0.73769 -0.05225
 H279 H 0.38132 0.74492 -0.00019
 H280 H 0.47755 0.75518 0.05588
 C281 C -0.01562 0.41610 0.22971
 C282 C 0.01749 0.42987 0.22379
 C283 C 0.01955 0.46573 0.22115
 C284 C -0.01050 0.48823 0.22698
 C285 C -0.04323 0.47357 0.23392
 C286 C -0.04612 0.43781 0.23465
 C287 C -0.00766 0.52665 0.22649
 C288 C -0.03783 0.54912 0.22022
 C289 C -0.03594 0.58491 0.22234
 C290 C -0.00287 0.59879 0.22795
 C291 C 0.02786 0.57715 0.23302
 C292 C 0.02510 0.54134 0.23297
 H293 H -0.01790 0.38852 0.22908
 H294 H 0.04491 0.47574 0.21465
 H295 H -0.06680 0.48965 0.23935
 H296 H -0.06321 0.53915 0.21395
 H297 H -0.00096 0.62644 0.22701
 H298 H 0.04879 0.52522 0.23856
 C299 C -0.00342 0.58785 0.76504
 C300 C 0.03003 0.57093 0.77079
 C301 C 0.03280 0.53485 0.77286
 C302 C 0.00307 0.51523 0.76698
 C303 C -0.03008 0.53289 0.76050
 C304 C -0.03363 0.56895 0.76012
 C305 C 0.00662 0.47662 0.76723
 C306 C -0.02263 0.45688 0.77524
 C307 C -0.02007 0.42085 0.77357
 C308 C 0.01289 0.40405 0.76616
 C309 C 0.04267 0.42302 0.75894
 C310 C 0.03919 0.45908 0.75898
 H311 H -0.00618 0.61565 0.76595
 H312 H 0.05843 0.52229 0.77906
 H313 H -0.05343 0.51887 0.75529
 H314 H -0.04775 0.46930 0.78274
 H315 H 0.01569 0.37623 0.76742
 H316 H 0.06209 0.47323 0.75207
 C317 C 0.32246 0.24948 0.10837
 C318 C 0.35448 0.23408 0.10295
 C319 C 0.37210 0.23716 0.06971
 C320 C 0.40640 0.22714 0.06600
 H321 H 0.36778 0.21886 0.12309
 H322 H 0.35673 0.24750 0.04815
 H323 H 0.31009 0.26608 0.08875
 H324 H 0.42189 0.21904 0.08833
 C325 C 0.65258 0.78990 0.12371
 C326 C 0.64341 0.76187 0.10727
 C327 C 0.62106 0.76580 0.07651
 C328 C 0.60170 0.74057 0.06517
 H329 H 0.65267 0.73630 0.11586
 H330 H 0.62040 0.79021 0.06266
 H331 H 0.64067 0.81482 0.11576
 H332 H 0.59972 0.71701 0.08000
 C333 C 0.67116 0.27240 -0.10949
 C334 C 0.64073 0.25726 -0.10364
 C335 C 0.62285 0.25986 -0.07044
 C336 C 0.59143 0.24614 -0.06555
 H337 H 0.62939 0.24180 -0.12313
 H338 H 0.63608 0.27212 -0.04978
 H339 H 0.68178 0.28882 -0.09040
 H340 H 0.57797 0.23575 -0.08719
 C341 C 0.33091 0.72124 -0.10919
 C342 C 0.36161 0.73539 -0.10246
 C343 C 0.37893 0.73067 -0.06888
 C344 C 0.41165 0.74130 -0.06370
 H345 H 0.37395 0.75099 -0.12171
 H346 H 0.36456 0.71885 -0.04836
 H347 H 0.31944 0.70449 -0.09037
 H348 H 0.42615 0.75118 -0.08523
 C349 C 0.09375 0.32577 0.24920
 C350 C 0.08835 0.35531 0.23152
 C351 C 0.05505 0.37661 0.23528
 C352 C 0.05022 0.40736 0.21958
 H353 H 0.10855 0.36406 0.21438
 H354 H 0.03469 0.36729 0.25193
 H355 H 0.07346 0.31759 0.26659
 H356 H 0.07174 0.41719 0.20467
 C357 C 0.10568 0.66745 0.74716
 C358 C 0.09992 0.63874 0.76514
 C359 C 0.06688 0.62079 0.76052
 C360 C 0.06236 0.59031 0.77575
 H361 H 0.11958 0.62803 0.78312
 H362 H 0.04654 0.63226 0.74364
 H363 H 0.08572 0.67724 0.72897
 H364 H 0.08391 0.57823 0.79085
 C365 C -0.11322 0.68541 0.25205
 C366 C -0.10759 0.65801 0.23224
 C367 C -0.07422 0.63650 0.23547
 C368 C -0.06889 0.60731 0.21826
 H369 H -0.12722 0.65138 0.21363
 H370 H -0.05402 0.64434 0.25296
 H371 H -0.09314 0.69099 0.27070
 H372 H -0.09011 0.59848 0.20251
 C373 C -0.09648 0.32489 0.75400
 C374 C -0.09050 0.35347 0.77111
 C375 C -0.05746 0.37129 0.76562
 C376 C -0.05217 0.40143 0.78018
 H377 H -0.10998 0.36416 0.78878
 H378 H -0.03784 0.36010 0.74835
 H379 H -0.07654 0.31505 0.73626
 H380 H -0.07304 0.41329 0.79572
 C381 C 0.25114 0.09605 0.32702
 C382 C 0.23220 0.08931 0.35485
 C383 C 0.23826 0.05631 0.37362
 C384 C 0.22275 0.05054 0.40365
 H385 H 0.21228 0.10809 0.36395
 H386 H 0.25634 0.03673 0.36295
 H387 H 0.27162 0.07736 0.31879
 H388 H 0.20657 0.07113 0.41512
 C389 C 0.75054 0.11475 0.67773
 C390 C 0.77092 0.10647 0.65097
 C391 C 0.76516 0.07514 0.63166
 C392 C 0.78239 0.06867 0.60254
 H393 H 0.79173 0.12292 0.64298
 H394 H 0.74581 0.05768 0.64097
 H395 H 0.72924 0.09849 0.68490
 H396 H 0.79994 0.08748 0.59240
 C397 C 0.25958 -0.12055 0.66903
 C398 C 0.24012 -0.11211 0.64127
 C399 C 0.24600 -0.08018 0.62180
 C400 C 0.22902 -0.07269 0.59237
 H401 H 0.21976 -0.12864 0.63282
 H402 H 0.26501 -0.06286 0.63154
 H403 H 0.28036 -0.10409 0.67673
 H404 H 0.21177 -0.09127 0.58187
 C405 C 0.75304 -0.07870 0.33089
 C406 C 0.77075 -0.07596 0.36017
 C407 C 0.76563 -0.04459 0.38046
 C408 C 0.78162 -0.04154 0.41066
 H409 H 0.78903 -0.09666 0.36918
 H410 H 0.74780 -0.02390 0.37065
 H411 H 0.73463 -0.05781 0.32247
 H412 H 0.79766 -0.06323 0.42115
 C413 C 0.67152 0.74009 -0.11212
 C414 C 0.64472 0.76084 -0.10095
 C415 C 0.62850 0.75444 -0.06764
 C416 C 0.59758 0.77041 -0.05894
 H417 H 0.63400 0.78209 -0.11673
 H418 H 0.64120 0.73516 -0.05066
 H419 H 0.68111 0.71816 -0.09660
 H420 H 0.58374 0.78773 -0.07708
 C421 C 0.33184 0.23991 -0.11287
 C422 C 0.35893 0.21895 -0.10183
 C423 C 0.37525 0.22386 -0.06835
 C424 C 0.40678 0.20835 -0.06022
 H425 H 0.37002 0.19880 -0.11796
 H426 H 0.36220 0.24170 -0.05089
 H427 H 0.32192 0.26087 -0.09707
 H428 H 0.42080 0.19256 -0.07888
 C429 C 0.33135 0.72399 0.11167
 C430 C 0.35921 0.74206 0.10299
 C431 C 0.37756 0.73684 0.07032
 C432 C 0.40787 0.75206 0.06384
 H433 H 0.36895 0.76083 0.12022
 H434 H 0.36654 0.72002 0.05184
 H435 H 0.32242 0.70448 0.09478
 H436 H 0.41952 0.76708 0.08355
 C437 C 0.66622 0.27058 0.11136
 C438 C 0.64217 0.24845 0.10218
 C439 C 0.62469 0.25085 0.06866
 C440 C 0.59757 0.23122 0.06189
 H441 H 0.63454 0.22850 0.11980
 H442 H 0.63315 0.26952 0.05003
 H443 H 0.67319 0.29096 0.09388
 H444 H 0.58817 0.21426 0.08171
 C445 C -0.11848 0.66486 0.72767
 C446 C -0.11133 0.63513 0.74461
 C447 C -0.07576 0.61749 0.74315
 C448 C -0.06961 0.58614 0.75715
 H449 H -0.13130 0.62401 0.76052
 H450 H -0.05431 0.63066 0.73122
 H451 H -0.09845 0.67470 0.71091
 H452 H -0.09179 0.57250 0.76708
 C453 C -0.12718 0.34934 0.27013
 C454 C -0.12179 0.37843 0.25286
 C455 C -0.08664 0.39317 0.25308
 C456 C -0.08168 0.42380 0.23842
 H457 H -0.14301 0.39095 0.23770
 H458 H -0.06445 0.37840 0.26481
 H459 H -0.10615 0.33767 0.28614
 H460 H -0.10450 0.43922 0.22869
 C461 C 0.12383 0.32647 0.72425
 C462 C 0.11856 0.35674 0.73952
 C463 C 0.08306 0.37458 0.74013
 C464 C 0.07825 0.40579 0.75366
 H465 H 0.14026 0.36793 0.75277
 H466 H 0.06059 0.36158 0.73028
 H467 H 0.10232 0.31597 0.71009
 H468 H 0.10128 0.41924 0.76153
 C469 C 0.10998 0.66597 0.26362
 C470 C 0.10426 0.63628 0.24850
 C471 C 0.06878 0.62211 0.24910
 C472 C 0.06351 0.59115 0.23629
 H473 H 0.12556 0.62269 0.23490
 H474 H 0.04676 0.63748 0.25969
 H475 H 0.08880 0.67881 0.27806
 H476 H 0.08626 0.57534 0.22769
 C477 C 0.72873 -0.10159 0.66915
 C478 C 0.74381 -0.09610 0.63900
 C479 C 0.74364 -0.06138 0.62360
 C480 C 0.75747 -0.05661 0.59273
 H481 H 0.75757 -0.11721 0.62596
 H482 H 0.73308 -0.03966 0.63802
 H483 H 0.71400 -0.08066 0.68159
 H484 H 0.76603 -0.07892 0.57807
 C485 C 0.26765 -0.12257 0.33066
 C486 C 0.25266 -0.11679 0.36091
 C487 C 0.25471 -0.08326 0.37735
 C488 C 0.24250 -0.07856 0.40892
 H489 H 0.23802 -0.13661 0.37336
 H490 H 0.26571 -0.06220 0.36324
 H491 H 0.28334 -0.10310 0.31893
 H492 H 0.23359 -0.10051 0.42329
 C493 C 0.72485 0.13264 0.34480
 C494 C 0.74171 0.12671 0.37441
 C495 C 0.74265 0.09235 0.39065
 C496 C 0.75834 0.08649 0.42087
 H497 H 0.75610 0.14679 0.38609
 H498 H 0.73120 0.07148 0.37728
 H499 H 0.70985 0.11259 0.33377
 H500 H 0.76782 0.10798 0.43485
 C501 C 0.27871 0.09471 0.66297
 C502 C 0.26419 0.09083 0.63235
 C503 C 0.26508 0.05695 0.61621
 C504 C 0.25163 0.05364 0.58500
 H505 H 0.25037 0.11254 0.61947
 H506 H 0.27588 0.03460 0.63039
 H507 H 0.29342 0.07316 0.67528
 H508 H 0.24280 0.07665 0.57067
   
