data_POSCAR
  _audit_creation_date              2014-09-24
  _audit_creation_method            'ToBaCCo'
  _symmetry_space_group_name_H-M    'P1'
  _symmetry_Int_Tables_number       1
  _symmetry_cell_setting            triclinic
  loop_
  _symmetry_equiv_pos_as_xyz
 x,y,z
_cell_length_a 29.0477
_cell_length_b 29.0724
_cell_length_c 31.1947
_cell_angle_alpha 89.952100
_cell_angle_beta 90.102300
_cell_angle_gamma 120.142200
loop_
  _atom_site_label
  _atom_site_type_symbol
  _atom_site_fract_x
  _atom_site_fract_y
  _atom_site_fract_z
C1 C 0.04855 0.51893 1.34190
 C2 C -0.00045 0.49197 1.36321
 C3 C -0.04952 0.46988 1.34191
 C4 C -0.04971 0.47243 1.29640
 C5 C -0.00069 0.49834 1.27364
 C6 C 0.04849 0.52142 1.29638
 C7 C 0.09609 0.54625 1.27280
 C8 C 0.09592 0.54956 1.22846
 C9 C 0.04815 0.52713 1.20518
 C10 C -0.00083 0.50124 1.22790
 C11 C -0.09743 0.44984 1.27286
 C12 C -0.09753 0.45320 1.22853
 C13 C -0.04992 0.47816 1.20505
 C14 C -0.04983 0.48070 1.15950
 C15 C -0.00076 0.50764 1.13832
 C16 C 0.04799 0.52975 1.15985
 H17 H 0.13450 0.56343 1.28801
 H18 H 0.13415 0.57026 1.21293
 H19 H -0.13578 0.42888 1.28809
 H20 H -0.13590 0.43587 1.21322
 H21 H -0.00039 0.48782 1.39736
 H22 H -0.00026 0.51176 1.10414
 C23 C 0.51875 0.46930 1.15990
 C24 C 0.49217 0.49141 1.13838
 C25 C 0.46973 0.51769 1.15976
 C26 C 0.47236 0.52055 1.20511
 C27 C 0.49852 0.49786 1.22795
 C28 C 0.52160 0.47204 1.20527
 C29 C 0.54706 0.44994 1.22866
 C30 C 0.55061 0.45353 1.27301
 C31 C 0.52788 0.47841 1.29648
 C32 C 0.50172 0.50113 1.27360
 C33 C 0.44977 0.54563 1.22832
 C34 C 0.45332 0.54927 1.27267
 C35 C 0.47866 0.52706 1.29615
 C36 C 0.48149 0.52995 1.34148
 C37 C 0.50797 0.50784 1.36316
 C38 C 0.53038 0.48119 1.34202
 H39 H 0.56464 0.42934 1.21320
 H40 H 0.57180 0.43646 1.28830
 H41 H 0.42881 0.56281 1.21275
 H42 H 0.43584 0.57003 1.28801
 H43 H 0.48887 0.48809 1.10412
 H44 H 0.51119 0.51166 1.39739
 C45 C 0.46912 0.95157 1.34175
 C46 C 0.49108 1.00059 1.36304
 C47 C 0.51828 1.04961 1.34175
 C48 C 0.52133 1.04970 1.29625
 C49 C 0.49836 1.00067 1.27351
 C50 C 0.47205 0.95157 1.29624
 C51 C 0.44944 0.90396 1.27266
 C52 C 0.45329 0.90406 1.22835
 C53 C 0.47885 0.95174 1.20507
 C54 C 0.50179 1.00073 1.22778
 C55 C 0.54665 1.09733 1.27271
 C56 C 0.55046 1.09735 1.22840
 C57 C 0.52800 1.04974 1.20493
 C58 C 0.53083 1.04957 1.15938
 C59 C 0.50878 1.00047 1.13823
 C60 C 0.48199 0.95178 1.15975
 H61 H 0.42808 0.86561 1.28785
 H62 H 0.43585 0.86583 1.21285
 H63 H 0.56392 1.13566 1.28793
 H64 H 0.57161 1.13566 1.21310
 H65 H 0.48668 1.00058 1.39715
 H66 H 0.51256 0.99990 1.10408
 C67 C 1.05031 0.51888 0.84106
 C68 C 1.00116 0.49159 0.86215
 C69 C 0.95242 0.46972 0.84059
 C70 C 0.95243 0.47288 0.79528
 C71 C 1.00154 0.49921 0.77266
 C72 C 1.05057 0.52208 0.79553
 C73 C 1.09826 0.54747 0.77210
 C74 C 1.09828 0.55139 0.72775
 C75 C 1.05060 0.52900 0.70420
 C76 C 1.00156 0.50275 0.72698
 C77 C 0.90471 0.45051 0.77189
 C78 C 0.90473 0.45442 0.72756
 C79 C 0.95246 0.47988 0.70427
 C80 C 0.95249 0.48306 0.65897
 C81 C 1.00120 0.50997 0.63749
 C82 C 1.05038 0.53194 0.65866
 H83 H 1.13660 0.56468 0.78745
 H84 H 1.13662 0.57258 0.71248
 H85 H 0.86643 0.42940 0.78733
 H86 H 0.86645 0.43716 0.71205
 H87 H 1.00058 0.48699 0.89628
 H88 H 1.00058 0.51391 0.60335
 C89 C 0.51830 0.46988 0.65883
 C90 C 0.49205 0.49246 0.63744
 C91 C 0.46980 0.51885 0.65897
 C92 C 0.47240 0.52139 0.70435
 C93 C 0.49828 0.49825 0.72701
 C94 C 0.52111 0.47228 0.70421
 C95 C 0.54622 0.44965 0.72749
 C96 C 0.54973 0.45295 0.77189
 C97 C 0.52738 0.47810 0.79531
 C98 C 0.50146 0.50120 0.77264
 C99 C 0.45004 0.54654 0.72777
 C100 C 0.45352 0.54980 0.77216
 C101 C 0.47861 0.52715 0.79544
 C102 C 0.48137 0.52953 0.84081
 C103 C 0.50769 0.50705 0.86221
 C104 C 0.53001 0.48070 0.84070
 H105 H 0.56353 0.42887 0.71192
 H106 H 0.57047 0.43545 0.78736
 H107 H 0.42933 0.56407 0.71232
 H108 H 0.43622 0.57060 0.78772
 H109 H 0.48882 0.48939 0.60317
 H110 H 0.51095 0.51019 0.89647
 C111 C 0.53064 0.04826 0.65829
 C112 C 0.50853 -0.00041 0.63674
 C113 C 0.48149 -0.04952 0.65790
 C114 C 0.47877 -0.04974 0.70343
 C115 C 0.50178 -0.00071 0.72623
 C116 C 0.52786 0.04833 0.70360
 C117 C 0.55037 0.09603 0.72697
 C118 C 0.54683 0.09603 0.77133
 C119 C 0.52159 0.04832 0.79461
 C120 C 0.49862 -0.00068 0.77186
 C121 C 0.45375 -0.09740 0.72697
 C122 C 0.45025 -0.09733 0.77133
 C123 C 0.47262 -0.04963 0.79460
 C124 C 0.46994 -0.04941 0.83995
 C125 C 0.49217 -0.00064 0.86137
 C126 C 0.51878 0.04815 0.83997
 H127 H 0.57131 0.13429 0.71151
 H128 H 0.56419 0.13425 0.78687
 H129 H 0.43656 -0.13572 0.71170
 H130 H 0.42950 -0.13555 0.78688
 H131 H 0.51270 0.00018 0.60257
 H132 H 0.48861 -0.00066 0.89558
 O133 O 0.41043 0.66912 0.95036
 O134 O 0.41290 0.75915 0.96572
 C135 C 0.38008 0.76700 0.94456
 O136 O 0.33016 0.74017 0.95005
 O137 O 0.23991 0.65253 0.96557
 C138 C 0.23187 0.61180 0.94446
 O139 O 0.25867 0.58881 0.95002
 O140 O 0.34633 0.58642 0.96573
 C141 C 0.38732 0.61924 0.94485
 O142 O 0.41269 0.65273 1.03480
 O143 O 0.41053 0.74047 1.05023
 C144 C 0.38761 0.76736 1.05562
 O145 O 0.34678 0.75926 1.03449
 O146 O 0.25895 0.66911 1.05003
 C147 C 0.23198 0.61923 1.05556
 O148 O 0.23983 0.58641 1.03450
 O149 O 0.32988 0.58874 1.05011
 C150 C 0.37980 0.61178 1.05568
 Cr151 Cr 0.40882 0.70397 1.00028
 Cr152 Cr 0.29535 0.70386 1.00005
 Cr153 Cr 0.29508 0.59041 1.00009
 O154 O 0.33310 0.66607 1.00015
 O155 O 0.58736 0.34588 0.96604
 O156 O 0.58962 0.25820 0.95067
 C157 C 0.61275 0.23156 0.94506
 O158 O 0.65356 0.23957 0.96618
 O159 O 0.74156 0.32968 0.95090
 C160 C 0.76835 0.37955 0.94519
 O161 O 0.76030 0.41233 0.96609
 O162 O 0.67010 0.40981 0.95054
 C163 C 0.62016 0.38673 0.94500
 O164 O 0.58978 0.32957 1.05053
 O165 O 0.58716 0.23938 1.03519
 C166 C 0.61988 0.23128 1.05626
 O167 O 0.66982 0.25814 1.05076
 O168 O 0.76014 0.34603 1.03547
 C169 C 0.76835 0.38698 1.05634
 O170 O 0.74166 0.41008 1.05058
 O171 O 0.65382 0.41225 1.03502
 C172 C 0.61290 0.37947 1.05600
 Cr173 Cr 0.59132 0.29467 1.00061
 Cr174 Cr 0.70485 0.29477 1.00083
 Cr175 Cr 0.70505 0.40828 1.00057
 O176 O 0.66709 0.33258 1.00068
 O177 O 0.65311 0.41312 0.53365
 O178 O 0.74102 0.41114 0.54913
 C179 C 0.76800 0.38832 0.55461
 O180 O 0.76002 0.34760 0.53352
 O181 O 0.66996 0.25966 0.54897
 C182 C 0.62005 0.23260 0.55447
 O183 O 0.58711 0.24046 0.53349
 O184 O 0.58926 0.33032 0.54904
 C185 C 0.61223 0.38020 0.55458
 O186 O 0.66938 0.41100 0.44923
 O187 O 0.75976 0.41374 0.46468
 C188 C 0.76797 0.38111 0.44372
 O189 O 0.74105 0.33119 0.44907
 O190 O 0.65331 0.24075 0.46454
 C191 C 0.61222 0.23232 0.44364
 O192 O 0.58920 0.25912 0.44905
 O193 O 0.58671 0.34676 0.46464
 C194 C 0.61942 0.38788 0.44384
 Cr195 Cr 0.70441 0.40942 0.49916
 Cr196 Cr 0.70466 0.29620 0.49901
 Cr197 Cr 0.59090 0.29559 0.49904
 O198 O 0.66665 0.33374 0.49904
 O199 O 0.32992 0.59038 0.54965
 O200 O 0.23972 0.58794 0.53434
 C201 C 0.23175 0.62075 0.55528
 O202 O 0.25856 0.67061 0.54954
 O203 O 0.34655 0.76072 0.53407
 C204 C 0.38754 0.76887 0.55499
 O205 O 0.41056 0.74211 0.54939
 O206 O 0.41264 0.65430 0.53408
 C207 C 0.37987 0.61340 0.55509
 O208 O 0.34590 0.58779 0.46519
 O209 O 0.25799 0.59005 0.44981
 C210 C 0.23124 0.61312 0.44420
 O211 O 0.23967 0.65419 0.46500
 O212 O 0.33006 0.74214 0.44956
 C213 C 0.38000 0.76902 0.44402
 O214 O 0.41274 0.76072 0.46488
 O215 O 0.41006 0.67040 0.44960
 C216 C 0.38695 0.62048 0.44428
 Cr217 Cr 0.29481 0.59189 0.49972
 Cr218 Cr 0.29512 0.70549 0.49953
 Cr219 Cr 0.40864 0.70547 0.49948
 O220 O 0.33285 0.66762 0.49955
 C221 C 0.47028 0.61394 0.41741
 C222 C 0.45372 0.55451 0.41773
 C223 C 0.45598 0.55511 0.36816
 C224 C 0.47270 0.61453 0.36777
 C225 C 0.39676 0.53923 0.36591
 C226 C 0.39458 0.53883 0.41540
 C227 C 0.41132 0.59810 0.41492
 C228 C 0.41319 0.59900 0.36574
 H229 H 0.50043 0.64494 0.43884
 H230 H 0.46897 0.53685 0.44137
 H231 H 0.50515 0.64568 0.34803
 H232 H 0.36631 0.50809 0.34475
 H233 H 0.36222 0.50749 0.43512
 H234 H 0.39623 0.61752 0.34461
 C235 C 0.40078 0.81663 0.36522
 C236 C 0.38580 0.86093 0.36742
 C237 C 0.44541 0.90350 0.36733
 C238 C 0.46078 0.85988 0.36489
 C239 C 0.44673 0.90189 0.41697
 C240 C 0.38710 0.85916 0.41707
 C241 C 0.40236 0.81575 0.41439
 C242 C 0.46182 0.85814 0.41438
 H243 H 0.38167 0.78104 0.34419
 H244 H 0.35442 0.86223 0.34800
 H245 H 0.49149 0.86023 0.34353
 H246 H 0.46497 0.93445 0.44091
 H247 H 0.35656 0.85855 0.43879
 H248 H 0.49330 0.85701 0.43381
 C249 C 0.14081 0.52996 0.41762
 C250 C 0.09833 0.54700 0.41709
 C251 C 0.09667 0.54358 0.36748
 C252 C 0.13898 0.52639 0.36799
 C253 C 0.14058 0.60261 0.36466
 C254 C 0.14238 0.60589 0.41413
 C255 C 0.18450 0.58867 0.41457
 C256 C 0.18358 0.58572 0.36542
 H257 H 0.14123 0.50017 0.43966
 H258 H 0.06581 0.53298 0.44100
 H259 H 0.13741 0.49342 0.34891
 H260 H 0.14041 0.63282 0.34297
 H261 H 0.14379 0.63879 0.43322
 H262 H 0.21919 0.60196 0.34445
 C263 C 0.59823 0.41455 0.36537
 C264 C 0.53831 0.39789 0.36524
 C265 C 0.55403 0.45701 0.36766
 C266 C 0.61357 0.47398 0.36756
 C267 C 0.55310 0.45435 0.41728
 C268 C 0.53765 0.39533 0.41473
 C269 C 0.59702 0.41230 0.41452
 C270 C 0.61265 0.47112 0.41720
 H271 H 0.61702 0.39787 0.34433
 H272 H 0.50733 0.36748 0.34394
 H273 H 0.64487 0.50661 0.34805
 H274 H 0.53527 0.46902 0.44119
 H275 H 0.50625 0.36277 0.43426
 H276 H 0.64348 0.50111 0.43884
 C277 C 0.60445 0.14305 0.41451
 C278 C 0.54533 0.09938 0.41695
 C279 C 0.54271 0.09766 0.36731
 C280 C 0.60196 0.14119 0.36502
 C281 C 0.52597 0.14028 0.36707
 C282 C 0.52876 0.14219 0.41673
 C283 C 0.58769 0.18550 0.41418
 C284 C 0.58551 0.18450 0.36501
 H285 H 0.63693 0.14420 0.43415
 H286 H 0.53062 0.06688 0.44095
 H287 H 0.63239 0.14070 0.34385
 H288 H 0.49341 0.13896 0.34745
 H289 H 0.49874 0.14294 0.43825
 H290 H 0.60235 0.22004 0.34393
 C291 C 0.81559 0.40198 0.36514
 C292 C 0.85897 0.46189 0.36486
 C293 C 0.90248 0.44637 0.36745
 C294 C 0.85980 0.38685 0.36750
 C295 C 0.90088 0.44762 0.41707
 C296 C 0.85720 0.46287 0.41434
 C297 C 0.81471 0.40351 0.41429
 C298 C 0.85801 0.38809 0.41713
 H299 H 0.77996 0.38298 0.34409
 H300 H 0.85946 0.49266 0.34344
 H301 H 0.86106 0.35549 0.34812
 H302 H 0.93344 0.46571 0.44107
 H303 H 0.85610 0.49430 0.43373
 H304 H 0.85726 0.35748 0.43890
 C305 C 0.52976 0.38586 1.08344
 C306 C 0.52749 0.38491 1.13309
 C307 C 0.54425 0.44433 1.13304
 C308 C 0.54635 0.44529 1.08346
 C309 C 0.60346 0.46018 1.13508
 C310 C 0.58700 0.40040 1.13489
 C311 C 0.58871 0.40166 1.08570
 C312 C 0.60550 0.46094 1.08558
 H313 H 0.49954 0.35502 1.06195
 H314 H 0.49510 0.35364 1.15280
 H315 H 0.53107 0.46311 1.06002
 H316 H 0.63396 0.49115 1.15631
 H317 H 0.60402 0.38171 1.15578
 H318 H 0.63779 0.49241 1.06591
 C319 C 0.85691 0.39408 1.08686
 C320 C 0.90093 0.45299 1.08416
 C321 C 0.90220 0.45613 1.13378
 C322 C 0.85832 0.39708 1.13634
 C323 C 0.85987 0.47328 1.13313
 C324 C 0.85843 0.46999 1.08349
 C325 C 0.81477 0.41126 1.08626
 C326 C 0.81529 0.41393 1.13542
 H327 H 0.85568 0.36130 1.06771
 H328 H 0.93361 0.46717 1.06039
 H329 H 0.85837 0.36677 1.15800
 H330 H 0.86128 0.50612 1.15228
 H331 H 0.85815 0.49989 1.06150
 H332 H 0.77952 0.39753 1.15621
 C333 C 0.59914 0.18436 1.13534
 C334 C 0.53914 0.14111 1.13577
 C335 C 0.55451 0.09749 1.13366
 C336 C 0.61412 0.14004 1.13347
 C337 C 0.55318 0.09870 1.08400
 C338 C 0.53807 0.14246 1.08626
 C339 C 0.59753 0.18484 1.08615
 C340 C 0.61280 0.14142 1.08381
 H341 H 0.61827 0.22012 1.15618
 H342 H 0.50844 0.14091 1.15706
 H343 H 0.64550 0.13888 1.15301
 H344 H 0.53497 0.06599 1.06020
 H345 H 0.50659 0.14344 1.06673
 H346 H 0.64334 0.14186 1.06219
 C347 C 0.46130 0.60437 1.08538
 C348 C 0.46041 0.60214 1.13487
 C349 C 0.44466 0.54302 1.13277
 C350 C 0.44574 0.54532 1.08321
 C351 C 0.38516 0.52615 1.13267
 C352 C 0.40056 0.58558 1.13453
 C353 C 0.40194 0.58749 1.08536
 C354 C 0.38622 0.52863 1.08303
 H355 H 0.49280 0.63676 1.06580
 H356 H 0.49133 0.63255 1.15619
 H357 H 0.46369 0.53017 1.05983
 H358 H 0.35386 0.49367 1.15229
 H359 H 0.38175 0.60244 1.15536
 H360 H 0.35543 0.49851 1.06144
 C361 C 0.14314 0.53777 1.08570
 C362 C 0.14205 0.53910 1.13518
 C363 C 0.09853 0.55462 1.13292
 C364 C 0.09952 0.55309 1.08335
 C365 C 0.14126 0.61411 1.13256
 C366 C 0.18543 0.59895 1.13457
 C367 C 0.18568 0.59711 1.08540
 C368 C 0.14240 0.61259 1.08292
 H369 H 0.14395 0.50618 1.06629
 H370 H 0.14168 0.50846 1.15667
 H371 H 0.06632 0.53481 1.05992
 H372 H 0.14017 0.64551 1.15200
 H373 H 0.22132 0.61805 1.15535
 H374 H 0.14291 0.64308 1.06116
 C375 C 0.39521 0.85633 1.08521
 C376 C 0.39723 0.85763 1.13471
 C377 C 0.45647 0.90115 1.13284
 C378 C 0.45437 0.89995 1.08325
 C379 C 0.47314 0.85848 1.13296
 C380 C 0.41360 0.81431 1.13460
 C381 C 0.41191 0.81383 1.08540
 C382 C 0.47088 0.85711 1.08330
 H383 H 0.36295 0.85544 1.06545
 H384 H 0.36672 0.85804 1.15584
 H385 H 0.46962 0.93304 1.05977
 H386 H 0.50549 0.85965 1.15277
 H387 H 0.39653 0.77856 1.15546
 H388 H 0.50109 0.85655 1.06191
 C389 C 0.52907 0.38662 0.58202
 C390 C 0.52666 0.38539 0.63166
 C391 C 0.54361 0.44486 0.63183
 C392 C 0.54585 0.44610 0.58227
 C393 C 0.60276 0.46051 0.63393
 C394 C 0.58612 0.40069 0.63352
 C395 C 0.58797 0.40224 0.58434
 C396 C 0.60493 0.46156 0.58444
 H397 H 0.49887 0.35596 0.56040
 H398 H 0.49416 0.35407 0.65125
 H399 H 0.53070 0.46415 0.55891
 H400 H 0.63326 0.49131 0.65529
 H401 H 0.60298 0.38178 0.65433
 H402 H 0.63734 0.49309 0.56490
 C403 C 0.59971 0.18564 0.63333
 C404 C 0.53985 0.14217 0.63371
 C405 C 0.55556 0.09883 0.63145
 C406 C 0.61506 0.14165 0.63130
 C407 C 0.55418 0.10008 0.58188
 C408 C 0.53867 0.14353 0.58423
 C409 C 0.59802 0.18617 0.58416
 C410 C 0.61370 0.14307 0.58167
 H411 H 0.61866 0.22138 0.65420
 H412 H 0.50906 0.14157 0.65511
 H413 H 0.64647 0.14054 0.65083
 H414 H 0.53604 0.06701 0.55839
 H415 H 0.50706 0.14434 0.56474
 H416 H 0.64434 0.14382 0.55999
 C417 C 0.85779 0.47157 0.58216
 C418 C 0.85913 0.47407 0.63180
 C419 C 0.90183 0.45742 0.63201
 C420 C 0.90065 0.45506 0.58243
 C421 C 0.85828 0.39823 0.63409
 C422 C 0.81492 0.41459 0.63364
 C423 C 0.81447 0.41265 0.58445
 C424 C 0.85699 0.39596 0.58459
 H425 H 0.85723 0.50164 0.56054
 H426 H 0.86030 0.50650 0.65139
 H427 H 0.93379 0.47015 0.55902
 H428 H 0.85868 0.36787 0.65543
 H429 H 0.77912 0.39764 0.65443
 H430 H 0.85610 0.36362 0.56505
 C431 C 0.46149 0.60602 0.58485
 C432 C 0.46053 0.60358 0.63435
 C433 C 0.44483 0.54446 0.63210
 C434 C 0.44598 0.54698 0.58253
 C435 C 0.38532 0.52759 0.63195
 C436 C 0.40067 0.58699 0.63397
 C437 C 0.40212 0.58912 0.58478
 C438 C 0.38646 0.53027 0.58232
 H439 H 0.49302 0.63850 0.56536
 H440 H 0.49140 0.63392 0.65574
 H441 H 0.46399 0.53197 0.55910
 H442 H 0.35398 0.49502 0.65149
 H443 H 0.38181 0.60375 0.65487
 H444 H 0.35572 0.50020 0.56066
 C445 C 0.41454 0.81580 0.63396
 C446 C 0.47398 0.86025 0.63173
 C447 C 0.45693 0.90262 0.63221
 C448 C 0.39779 0.85888 0.63469
 C449 C 0.45386 0.90138 0.58258
 C450 C 0.47076 0.85882 0.58209
 C451 C 0.41194 0.81528 0.58480
 C452 C 0.39486 0.85748 0.58520
 H453 H 0.39804 0.78004 0.65478
 H454 H 0.50680 0.86158 0.65100
 H455 H 0.36748 0.85900 0.65624
 H456 H 0.46818 0.93407 0.55879
 H457 H 0.50066 0.85846 0.56020
 H458 H 0.36211 0.85633 0.56594
 C459 C 0.14312 0.53913 0.58560
 C460 C 0.14198 0.54032 0.63511
 C461 C 0.09827 0.55561 0.63294
 C462 C 0.09928 0.55416 0.58329
 C463 C 0.14080 0.61518 0.63259
 C464 C 0.18521 0.60029 0.63450
 C465 C 0.18548 0.59855 0.58531
 C466 C 0.14198 0.61374 0.58293
 H467 H 0.14405 0.50763 0.56616
 H468 H 0.14190 0.50972 0.65648
 H469 H 0.06649 0.53586 0.55951
 H470 H 0.13968 0.64656 0.65205
 H471 H 0.22109 0.61949 0.65528
 H472 H 0.14229 0.64417 0.56122
 C473 C 0.47043 0.61266 0.91762
 C474 C 0.45361 0.55317 0.91735
 C475 C 0.45598 0.55448 0.86778
 C476 C 0.47297 0.61395 0.86799
 C477 C 0.39684 0.53887 0.86558
 C478 C 0.39454 0.53776 0.91507
 C479 C 0.41155 0.59709 0.91519
 C480 C 0.41353 0.59870 0.86602
 H481 H 0.50059 0.64329 0.93929
 H482 H 0.46868 0.53506 0.94071
 H483 H 0.50554 0.64529 0.84845
 H484 H 0.36639 0.50811 0.84418
 H485 H 0.36206 0.50623 0.93457
 H486 H 0.39675 0.61765 0.84518
 C487 C 0.14319 0.60463 0.91427
 C488 C 0.14190 0.60232 0.86476
 C489 C 0.09819 0.54318 0.86685
 C490 C 0.09934 0.54561 0.91650
 C491 C 0.14069 0.52625 0.86714
 C492 C 0.18510 0.58569 0.86532
 C493 C 0.18550 0.58767 0.91450
 C494 C 0.14201 0.52884 0.91680
 H495 H 0.14422 0.63706 0.93378
 H496 H 0.14176 0.63285 0.84345
 H497 H 0.06660 0.53099 0.94025
 H498 H 0.13946 0.49374 0.84762
 H499 H 0.22093 0.60250 0.84457
 H500 H 0.14239 0.49871 0.93847
 C501 C 0.38674 0.85642 0.91677
 C502 C 0.44628 0.89927 0.91651
 C503 C 0.44495 0.90017 0.86693
 C504 C 0.38542 0.85748 0.86713
 C505 C 0.46052 0.85672 0.86500
 C506 C 0.46165 0.85570 0.91450
 C507 C 0.40226 0.81319 0.91463
 C508 C 0.40061 0.81336 0.86545
 H509 H 0.35612 0.85592 0.93833
 H510 H 0.46446 0.93249 0.93986
 H511 H 0.35409 0.85855 0.84746
 H512 H 0.49128 0.85708 0.84371
 H513 H 0.49319 0.85493 0.93411
 H514 H 0.38159 0.77747 0.84474
 C515 C 0.61343 0.46968 0.91748
 C516 C 0.61463 0.47226 0.86784
 C517 C 0.55509 0.45522 0.86761
 C518 C 0.55388 0.45281 0.91718
 C519 C 0.53954 0.39615 0.86547
 C520 C 0.59944 0.41289 0.86595
 C521 C 0.59792 0.41087 0.91514
 C522 C 0.53852 0.39382 0.91497
 H523 H 0.64409 0.49985 0.93913
 H524 H 0.64594 0.50482 0.84829
 H525 H 0.53576 0.46776 0.94058
 H526 H 0.50875 0.36571 0.84408
 H527 H 0.61841 0.39618 0.84513
 H528 H 0.50700 0.36134 0.93447
 C529 C 0.85704 0.46116 0.91485
 C530 C 0.90084 0.44608 0.91710
 C531 C 0.90178 0.44458 0.86751
 C532 C 0.85807 0.45986 0.86536
 C533 C 0.85920 0.38503 0.86791
 C534 C 0.85812 0.38652 0.91756
 C535 C 0.81464 0.40175 0.91520
 C536 C 0.81483 0.39994 0.86600
 H537 H 0.85616 0.49269 0.93428
 H538 H 0.93407 0.46450 0.94049
 H539 H 0.85822 0.49042 0.84392
 H540 H 0.86036 0.35370 0.84843
 H541 H 0.85783 0.35610 0.93928
 H542 H 0.77894 0.38074 0.84524
 C543 C 0.52987 0.14185 0.91719
 C544 C 0.52723 0.14093 0.86754
 C545 C 0.54433 0.09859 0.86701
 C546 C 0.54684 0.09936 0.91659
 C547 C 0.60344 0.14243 0.86498
 C548 C 0.58663 0.18542 0.86577
 C549 C 0.58870 0.18545 0.91496
 C550 C 0.60585 0.14330 0.91447
 H551 H 0.49970 0.14195 0.93892
 H552 H 0.49459 0.13964 0.84806
 H553 H 0.53201 0.06608 0.93986
 H554 H 0.63389 0.14246 0.84351
 H555 H 0.60330 0.22136 0.84514
 H556 H 0.63840 0.14429 0.93390
   
