data_POSCAR
  _audit_creation_date              2014-09-24
  _audit_creation_method            'ToBaCCo'
  _symmetry_space_group_name_H-M    'P1'
  _symmetry_Int_Tables_number       1
  _symmetry_cell_setting            triclinic
  loop_
  _symmetry_equiv_pos_as_xyz
 x,y,z
_cell_length_a 52.4628
_cell_length_b 52.4685
_cell_length_c 30.2341
_cell_angle_alpha 90.096300
_cell_angle_beta 90.029700
_cell_angle_gamma 91.504600
loop_
  _atom_site_label
  _atom_site_type_symbol
  _atom_site_fract_x
  _atom_site_fract_y
  _atom_site_fract_z
O1 O -0.02344 0.28221 -0.00417
 O2 O 0.02422 0.27458 -0.09305
 O3 O -0.02620 0.27596 -0.08921
 O4 O 0.02678 0.27983 -0.00801
 O5 O 0.02395 0.23802 -0.00032
 O6 O -0.02843 0.23424 -0.08014
 O7 O 0.02071 0.23286 -0.08567
 O8 O -0.02517 0.24044 0.00464
 Cu9 Cu 0.00058 0.28238 -0.04954
 Cu10 Cu -0.00245 0.23227 -0.03957
 C11 C -0.03251 0.26251 0.01522
 C12 C 0.03083 0.25233 -0.10428
 C13 C -0.03659 0.25434 -0.09789
 C14 C 0.03450 0.25935 0.00932
 O15 O 0.52775 0.78115 0.46931
 O16 O 0.47823 0.78194 0.55643
 O17 O 0.52826 0.78036 0.55518
 O18 O 0.47742 0.78356 0.47077
 O19 O 0.47530 0.74149 0.46851
 O20 O 0.52477 0.73833 0.55367
 O21 O 0.47575 0.73989 0.55400
 O22 O 0.52462 0.73913 0.46786
 Cu23 Cu 0.50322 0.78603 0.51297
 Cu24 Cu 0.49987 0.73554 0.51068
 C25 C 0.53486 0.75984 0.45426
 C26 C 0.46843 0.76090 0.56978
 C27 C 0.53508 0.75868 0.56885
 C28 C 0.46748 0.76296 0.45575
 O29 O 1.02430 0.72092 0.05589
 O30 O 0.97456 0.71891 -0.03127
 O31 O 1.02517 0.71906 -0.02934
 O32 O 0.97405 0.71947 0.05481
 O33 O 0.97526 0.76156 0.05349
 O34 O 1.02451 0.76101 -0.03216
 O35 O 0.97532 0.76098 -0.03224
 O36 O 1.02424 0.76291 0.05374
 Cu37 Cu 0.99940 0.71530 0.01255
 Cu38 Cu 0.99987 0.76576 0.01043
 C39 C 1.03294 0.74245 0.06943
 C40 C 0.96629 0.73981 -0.04617
 C41 C 1.03381 0.74009 -0.04478
 C42 C 0.96612 0.74072 0.06865
 O43 O 0.52105 0.21628 0.49667
 O44 O 0.47431 0.22439 0.40654
 O45 O 0.52444 0.22261 0.41181
 O46 O 0.47085 0.21901 0.49164
 O47 O 0.47424 0.26073 0.50061
 O48 O 0.52649 0.26439 0.42054
 O49 O 0.47721 0.26612 0.41553
 O50 O 0.52333 0.25807 0.50542
 Cu51 Cu 0.49739 0.21634 0.45075
 Cu52 Cu 0.50058 0.26645 0.46136
 C53 C 0.53032 0.23592 0.51612
 C54 C 0.46757 0.24668 0.39607
 C55 C 0.53475 0.24423 0.40300
 C56 C 0.46337 0.23947 0.50951
 O57 O 0.71610 0.02112 0.00751
 O58 O 0.72451 -0.02642 0.09633
 O59 O 0.72294 0.02391 0.09243
 O60 O 0.71806 -0.02913 0.01168
 O61 O 0.75981 -0.02676 0.00285
 O62 O 0.76455 0.02620 0.08181
 O63 O 0.76616 -0.02286 0.08783
 O64 O 0.75776 0.02250 -0.00285
 Cu65 Cu 0.71618 -0.00283 0.05301
 Cu66 Cu 0.76618 -0.00002 0.04140
 C67 C 0.73565 0.02999 -0.01265
 C68 C 0.74687 -0.03295 0.10702
 C69 C 0.74463 0.03433 0.10031
 C70 C 0.73831 -0.03723 -0.00595
 O71 O 0.21498 0.47478 0.53271
 O72 O 0.21466 0.52441 0.44575
 O73 O 0.21457 0.47425 0.44697
 O74 O 0.21377 0.52517 0.53145
 O75 O 0.25586 0.52625 0.53210
 O76 O 0.25666 0.47635 0.44712
 O77 O 0.25674 0.52556 0.44654
 O78 O 0.25706 0.47690 0.53287
 Cu79 Cu 0.21021 0.49948 0.48928
 Cu80 Cu 0.26075 0.50140 0.48979
 C81 C 0.23626 0.46716 0.54710
 C82 C 0.23582 0.53358 0.43165
 C83 C 0.23584 0.46660 0.43278
 C84 C 0.23477 0.53461 0.54571
 O85 O 0.28123 0.97777 -0.05842
 O86 O 0.28332 1.02768 0.02886
 O87 O 0.28442 0.97735 0.02702
 O88 O 0.28210 1.02840 -0.05685
 O89 O 0.24010 1.02639 -0.05433
 O90 O 0.24236 0.97641 0.02983
 O91 O 0.24128 1.02577 0.03160
 O92 O 0.23925 0.97777 -0.05570
 Cu93 Cu 0.28705 1.00295 -0.01516
 Cu94 Cu 0.23661 1.00149 -0.01163
 C95 C 0.25963 0.96919 -0.07185
 C96 C 0.26240 1.03533 0.04473
 C97 C 0.26367 0.96800 0.04230
 C98 C 0.26060 1.03615 -0.06994
 O99 O 0.78225 0.47557 0.50276
 O100 O 0.77658 0.52187 0.59447
 O101 O 0.77651 0.47175 0.58776
 O102 O 0.78183 0.52582 0.50947
 O103 O 0.73998 0.52452 0.50167
 O104 O 0.73471 0.47115 0.57936
 O105 O 0.73473 0.52039 0.58660
 O106 O 0.74043 0.47541 0.49444
 Cu107 Cu 0.78353 0.49883 0.54944
 Cu108 Cu 0.73332 0.49777 0.53975
 C109 C 0.76216 0.46753 0.48315
 C110 C 0.75461 0.52920 0.60581
 C111 C 0.75461 0.46207 0.59647
 C112 C 0.76163 0.53452 0.49258
 C113 C 0.20865 0.21224 0.16206
 C114 C 0.23261 0.20485 0.17687
 C115 C 0.24942 0.22322 0.19503
 C116 C 0.24312 0.24924 0.19657
 C117 C 0.21906 0.25626 0.17995
 C118 C 0.20151 0.23774 0.16405
 C119 C 0.26132 0.26866 0.21646
 C120 C 0.25244 0.29153 0.23499
 C121 C 0.26936 0.30930 0.25492
 C122 C 0.29520 0.30353 0.25835
 C123 C 0.30455 0.28090 0.24085
 C124 C 0.28772 0.26402 0.21874
 H125 H 0.19567 0.19811 0.14765
 H126 H 0.26717 0.21676 0.20863
 H127 H 0.21362 0.27598 0.17962
 H128 H 0.23238 0.29563 0.23462
 H129 H 0.30796 0.31624 0.27664
 H130 H 0.29552 0.24726 0.20363
 C131 C 0.80262 0.79586 0.24261
 C132 C 0.77958 0.80476 0.25921
 C133 C 0.76257 0.78742 0.27981
 C134 C 0.76770 0.76108 0.28165
 C135 C 0.79092 0.75271 0.26374
 C136 C 0.80871 0.77012 0.24553
 C137 C 0.74875 0.74247 0.30150
 C138 C 0.75654 0.71898 0.31927
 C139 C 0.73863 0.70124 0.33645
 C140 C 0.71290 0.70769 0.33817
 C141 C 0.70473 0.73101 0.32175
 C142 C 0.72255 0.74799 0.30258
 H143 H 0.81566 0.80890 0.22572
 H144 H 0.74548 0.79474 0.29454
 H145 H 0.79541 0.73273 0.26367
 H146 H 0.77645 0.71423 0.31981
 H147 H 0.69922 0.69477 0.35381
 H148 H 0.71562 0.76532 0.28812
 C149 C 0.80406 0.21763 0.20211
 C150 C 0.81121 0.24357 0.20340
 C151 C 0.79439 0.26106 0.22204
 C152 C 0.77116 0.25256 0.24140
 C153 C 0.76530 0.22613 0.24170
 C154 C 0.78114 0.20870 0.22086
 C155 C 0.75263 0.27092 0.26031
 C156 C 0.72629 0.26456 0.26081
 C157 C 0.70865 0.28060 0.28066
 C158 C 0.71726 0.30414 0.29755
 C159 C 0.74309 0.31158 0.29572
 C160 C 0.76083 0.29465 0.27824
 H161 H 0.81606 0.20442 0.18476
 H162 H 0.79944 0.28116 0.22102
 H163 H 0.74830 0.21884 0.25807
 H164 H 0.71918 0.24710 0.24561
 H165 H 0.70393 0.31650 0.31378
 H166 H 0.78085 0.30010 0.27880
 C167 C 0.20856 0.79650 0.20032
 C168 C 0.19899 0.77339 0.21735
 C169 C 0.21565 0.75726 0.23941
 C170 C 0.24209 0.76312 0.24203
 C171 C 0.25115 0.78654 0.22409
 C172 C 0.23433 0.80364 0.20469
 C173 C 0.25996 0.74474 0.26301
 C174 C 0.28386 0.75303 0.28020
 C175 C 0.30063 0.73567 0.29910
 C176 C 0.29275 0.71009 0.30350
 C177 C 0.26905 0.70137 0.28751
 C178 C 0.25319 0.71855 0.26611
 H179 H 0.19603 0.80881 0.18216
 H180 H 0.20765 0.74024 0.25459
 H181 H 0.27119 0.79176 0.22494
 H182 H 0.28972 0.77290 0.27907
 H183 H 0.30486 0.69702 0.32090
 H184 H 0.23568 0.71108 0.25173
 C185 C 0.69378 0.27960 0.70225
 C186 C 0.68640 0.25376 0.70469
 C187 C 0.70310 0.23640 0.72397
 C188 C 0.72644 0.24500 0.74286
 C189 C 0.73256 0.27137 0.74196
 C190 C 0.71683 0.28861 0.72047
 C191 C 0.74480 0.22681 0.76272
 C192 C 0.77118 0.23296 0.76294
 C193 C 0.78864 0.21731 0.78404
 C194 C 0.77984 0.19432 0.80268
 C195 C 0.75396 0.18694 0.80104
 C196 C 0.73640 0.20356 0.78206
 H197 H 0.68183 0.29265 0.68447
 H198 H 0.69784 0.21633 0.72386
 H199 H 0.74965 0.27879 0.75795
 H200 H 0.77844 0.24998 0.74662
 H201 H 0.79310 0.18243 0.82008
 H202 H 0.71634 0.19830 0.78265
 C203 C 0.29197 0.70745 0.70130
 C204 C 0.30114 0.73094 0.71751
 C205 C 0.28425 0.74714 0.73887
 C206 C 0.25792 0.74096 0.74164
 C207 C 0.24918 0.71722 0.72437
 C208 C 0.26622 0.70009 0.70549
 C209 C 0.23983 0.75938 0.76198
 C210 C 0.21597 0.75101 0.77929
 C211 C 0.19902 0.76836 0.79785
 C212 C 0.20678 0.79402 0.80165
 C213 C 0.23011 0.80293 0.78460
 C214 C 0.24626 0.78572 0.76404
 H215 H 0.30480 0.69513 0.68377
 H216 H 0.29202 0.76451 0.75334
 H217 H 0.22920 0.71181 0.72526
 H218 H 0.21032 0.73109 0.77846
 H219 H 0.19473 0.80722 0.81891
 H220 H 0.26358 0.79328 0.74919
 C221 C 0.28962 0.28897 0.66099
 C222 C 0.26591 0.29679 0.67626
 C223 C 0.24889 0.27870 0.69461
 C224 C 0.25475 0.25256 0.69587
 C225 C 0.27854 0.24511 0.67874
 C226 C 0.29632 0.26333 0.66273
 C227 C 0.23640 0.23351 0.71629
 C228 C 0.24509 0.21048 0.73452
 C229 C 0.22814 0.19315 0.75535
 C230 C 0.20255 0.19964 0.76000
 C231 C 0.19323 0.22204 0.74180
 C232 C 0.21008 0.23859 0.71915
 H233 H 0.30279 0.30285 0.64648
 H234 H 0.23136 0.28545 0.70862
 H235 H 0.28366 0.22530 0.67816
 H236 H 0.26502 0.20594 0.73313
 H237 H 0.18982 0.18748 0.77928
 H238 H 0.20239 0.25532 0.70383
 C239 C 0.69835 0.70071 0.74417
 C240 C 0.72161 0.69221 0.76038
 C241 C 0.73850 0.70974 0.78079
 C242 C 0.73311 0.73599 0.78276
 C243 C 0.70970 0.74406 0.76514
 C244 C 0.69201 0.72642 0.74697
 C245 C 0.75206 0.75480 0.80222
 C246 C 0.74426 0.77835 0.81985
 C247 C 0.76217 0.79620 0.83687
 C248 C 0.78792 0.78982 0.83851
 C249 C 0.79610 0.76645 0.82221
 C250 C 0.77829 0.74937 0.80319
 H251 H 0.68546 0.68740 0.72745
 H252 H 0.75577 0.70257 0.79511
 H253 H 0.70504 0.76399 0.76512
 H254 H 0.72434 0.78305 0.82045
 H255 H 0.80164 0.80281 0.85401
 H256 H 0.78527 0.73204 0.78878
 C257 C 0.25522 0.10180 0.12579
 C258 C 0.27757 0.09856 0.10031
 C259 C 0.28102 0.07575 0.07678
 C260 C 0.26200 0.05645 0.07703
 C261 C 0.24063 0.05915 0.10428
 C262 C 0.23735 0.08136 0.12869
 C263 C 0.25058 0.12749 0.14558
 C264 C 0.22814 0.13305 0.16892
 C265 C 0.22300 0.15803 0.18116
 C266 C 0.24021 0.17804 0.17110
 C267 C 0.26355 0.17247 0.15107
 C268 C 0.26871 0.14745 0.13776
 C269 C 0.29555 0.11864 0.09634
 C270 C 0.29120 0.14257 0.11461
 H271 H 0.31281 0.11612 0.07732
 H272 H 0.30525 0.15775 0.10913
 H273 H 0.29756 0.07383 0.05565
 H274 H 0.22585 0.04434 0.10545
 H275 H 0.20509 0.16186 0.19739
 H276 H 0.27693 0.18789 0.14312
 H277 H 0.22018 0.08246 0.14806
 H278 H 0.21385 0.11863 0.17671
 C279 C 0.74339 0.59176 0.69491
 C280 C 0.76732 0.58872 0.67414
 C281 C 0.77159 0.56715 0.64776
 C282 C 0.75191 0.54905 0.64009
 C283 C 0.72853 0.55169 0.66180
 C284 C 0.72435 0.57259 0.68918
 C285 C 0.73868 0.61621 0.71897
 C286 C 0.71539 0.62124 0.74005
 C287 C 0.71053 0.64556 0.75620
 C288 C 0.72879 0.66542 0.75217
 C289 C 0.75292 0.65999 0.73499
 C290 C 0.75793 0.63563 0.71818
 C291 C 0.78627 0.60794 0.67757
 C292 C 0.78159 0.63099 0.69873
 H293 H 0.80466 0.60557 0.66197
 H294 H 0.79650 0.64569 0.69876
 H295 H 0.78964 0.56538 0.63073
 H296 H 0.71310 0.53788 0.65658
 H297 H 0.69202 0.64910 0.77046
 H298 H 0.76722 0.67518 0.73183
 H299 H 0.70573 0.57384 0.70396
 H300 H 0.70036 0.60696 0.74319
 C301 C 0.75954 0.90534 0.19378
 C302 C 0.73463 0.91013 0.17847
 C303 C 0.73011 0.93187 0.15269
 C304 C 0.75050 0.94790 0.13874
 C305 C 0.77516 0.94300 0.15429
 C306 C 0.77958 0.92230 0.18181
 C307 C 0.76399 0.88111 0.21841
 C308 C 0.78772 0.87536 0.23711
 C309 C 0.79210 0.85105 0.25352
 C310 C 0.77298 0.83184 0.25171
 C311 C 0.74843 0.83826 0.23761
 C312 C 0.74379 0.86279 0.22124
 C313 C 0.71480 0.89227 0.18627
 C314 C 0.71941 0.86883 0.20621
 H315 H 0.69569 0.89585 0.17460
 H316 H 0.70374 0.85508 0.20925
 H317 H 0.71098 0.93507 0.14063
 H318 H 0.79134 0.95496 0.14457
 H319 H 0.81089 0.84697 0.26610
 H320 H 0.73333 0.82376 0.23666
 H321 H 0.79904 0.91925 0.19153
 H322 H 0.80332 0.88914 0.23840
 C323 C 0.24446 0.40029 0.62660
 C324 C 0.22153 0.40403 0.60298
 C325 C 0.21792 0.42695 0.57999
 C326 C 0.23733 0.44585 0.57883
 C327 C 0.25942 0.44261 0.60406
 C328 C 0.26289 0.42029 0.62798
 C329 C 0.24896 0.37452 0.64606
 C330 C 0.27172 0.36854 0.66810
 C331 C 0.27656 0.34347 0.68005
 C332 C 0.25877 0.32377 0.67090
 C333 C 0.23518 0.32981 0.65227
 C334 C 0.23026 0.35494 0.63939
 C335 C 0.20304 0.38433 0.60022
 C336 C 0.20735 0.36028 0.61790
 H337 H 0.18537 0.38724 0.58257
 H338 H 0.19287 0.34540 0.61335
 H339 H 0.20083 0.42925 0.56037
 H340 H 0.27455 0.45707 0.60406
 H341 H 0.29466 0.33932 0.69534
 H342 H 0.22131 0.31467 0.64510
 H343 H 0.28060 0.41874 0.64573
 H344 H 0.28641 0.38270 0.67516
 C345 C 0.90500 0.26458 0.10703
 C346 C 0.92382 0.24583 0.11084
 C347 C 0.94471 0.24599 0.08193
 C348 C 0.94753 0.26480 0.04934
 C349 C 0.92989 0.28439 0.04744
 C350 C 0.90879 0.28428 0.07581
 C351 C 0.88148 0.26188 0.13520
 C352 C 0.86033 0.27782 0.13099
 C353 C 0.83783 0.27272 0.15473
 C354 C 0.83599 0.25179 0.18345
 C355 C 0.85750 0.23689 0.18992
 C356 C 0.87985 0.24137 0.16552
 C357 C 0.92136 0.22656 0.14261
 C358 C 0.89999 0.22456 0.16971
 H359 H 0.93598 0.21247 0.14599
 H360 H 0.89876 0.20896 0.19315
 H361 H 0.95854 0.23102 0.08407
 H362 H 0.93177 0.29918 0.02262
 H363 H 0.82148 0.28445 0.14899
 H364 H 0.85640 0.22092 0.21263
 H365 H 0.89544 0.29942 0.07215
 H366 H 0.86042 0.29366 0.10831
 C367 C 0.40249 0.75620 0.65364
 C368 C 0.41940 0.73566 0.65109
 C369 C 0.44169 0.73797 0.62576
 C370 C 0.44753 0.76047 0.60248
 C371 C 0.43178 0.78144 0.60750
 C372 C 0.40950 0.77938 0.63278
 C373 C 0.37726 0.75171 0.67607
 C374 C 0.35803 0.76999 0.67681
 C375 C 0.33369 0.76367 0.69276
 C376 C 0.32798 0.73909 0.70877
 C377 C 0.34754 0.72144 0.71137
 C378 C 0.37187 0.72736 0.69450
 C379 C 0.41347 0.71253 0.67218
 C380 C 0.39026 0.70852 0.69368
 H381 H 0.42664 0.69697 0.67084
 H382 H 0.38622 0.68999 0.70824
 H383 H 0.45403 0.72179 0.62268
 H384 H 0.43601 0.79908 0.59010
 H385 H 0.31892 0.77763 0.69025
 H386 H 0.34342 0.70255 0.72446
 H387 H 0.39769 0.79587 0.63440
 H388 H 0.36102 0.78887 0.66347
 C389 C 0.09736 0.74904 0.15332
 C390 C 0.08195 0.77029 0.14555
 C391 C 0.06012 0.76770 0.11909
 C392 C 0.05281 0.74399 0.10059
 C393 C 0.06678 0.72245 0.11192
 C394 C 0.08889 0.72494 0.13765
 C395 C 0.12251 0.75352 0.17609
 C396 C 0.14101 0.73461 0.17967
 C397 C 0.16545 0.74070 0.19560
 C398 C 0.17192 0.76567 0.20902
 C399 C 0.15297 0.78406 0.20893
 C400 C 0.12875 0.77844 0.19137
 C401 C 0.08877 0.79422 0.16308
 C402 C 0.11148 0.79810 0.18621
 H403 H 0.07663 0.81036 0.15800
 H404 H 0.11619 0.81713 0.19818
 H405 H 0.04912 0.78445 0.11213
 H406 H 0.06142 0.70377 0.09908
 H407 H 0.17970 0.72615 0.19502
 H408 H 0.15758 0.80329 0.22005
 H409 H 0.09935 0.70791 0.14412
 H410 H 0.13743 0.71538 0.16816
 C411 C 0.59242 0.23318 0.60870
 C412 C 0.57384 0.25219 0.61229
 C413 C 0.55306 0.25225 0.58312
 C414 C 0.55012 0.23342 0.55048
 C415 C 0.56749 0.21358 0.54881
 C416 C 0.58848 0.21346 0.57744
 C417 C 0.61591 0.23566 0.63705
 C418 C 0.63687 0.21946 0.63305
 C419 C 0.65942 0.22443 0.65676
 C420 C 0.66149 0.24550 0.68525
 C421 C 0.64014 0.26063 0.69165
 C422 C 0.61774 0.25627 0.66727
 C423 C 0.57646 0.27151 0.64404
 C424 C 0.59780 0.27333 0.67129
 H425 H 0.56201 0.28579 0.64727
 H426 H 0.59918 0.28899 0.69467
 H427 H 0.53943 0.26741 0.58509
 H428 H 0.56550 0.19876 0.52397
 H429 H 0.67566 0.21253 0.65113
 H430 H 0.64144 0.27672 0.71417
 H431 H 0.60164 0.19813 0.57395
 H432 H 0.63661 0.20351 0.61048
 C433 C 0.73322 0.09271 0.89616
 C434 C 0.75201 0.07395 0.89201
 C435 C 0.75190 0.05293 0.92061
 C436 C 0.73315 0.04997 0.95332
 C437 C 0.71353 0.06757 0.95557
 C438 C 0.71356 0.08876 0.92745
 C439 C 0.73587 0.11636 0.86833
 C440 C 0.71982 0.13741 0.87275
 C441 C 0.72486 0.16002 0.84931
 C442 C 0.74585 0.16207 0.82072
 C443 C 0.76088 0.14067 0.81407
 C444 C 0.75643 0.11819 0.83810
 C445 C 0.77130 0.07660 0.86028
 C446 C 0.77330 0.09813 0.83358
 H447 H 0.78542 0.06203 0.85664
 H448 H 0.78893 0.09951 0.81019
 H449 H 0.76691 0.03916 0.91821
 H450 H 0.69878 0.06559 0.98048
 H451 H 0.71302 0.17628 0.85516
 H452 H 0.77691 0.14195 0.79145
 H453 H 0.69841 0.10208 0.93138
 H454 H 0.70392 0.13716 0.89535
 C455 C 0.24172 0.60006 0.34941
 C456 C 0.26182 0.58261 0.35108
 C457 C 0.25904 0.56011 0.37572
 C458 C 0.23654 0.55464 0.39926
 C459 C 0.21597 0.57097 0.39509
 C460 C 0.21847 0.59344 0.37045
 C461 C 0.24676 0.62541 0.32773
 C462 C 0.22894 0.64507 0.32770
 C463 C 0.23576 0.66939 0.31226
 C464 C 0.26040 0.67467 0.29612
 C465 C 0.27762 0.65475 0.29297
 C466 C 0.27118 0.63040 0.30921
 C467 C 0.28502 0.58819 0.32992
 C468 C 0.28955 0.61154 0.30921
 H469 H 0.30024 0.57462 0.33060
 H470 H 0.30813 0.61528 0.29457
 H471 H 0.27491 0.54734 0.37815
 H472 H 0.19834 0.56705 0.41273
 H473 H 0.22213 0.68445 0.31517
 H474 H 0.29656 0.65854 0.27979
 H475 H 0.20230 0.60569 0.36952
 H476 H 0.21002 0.64240 0.34111
 C477 C 0.25067 0.90572 0.84270
 C478 C 0.27476 0.91149 0.86188
 C479 C 0.27844 0.93393 0.88707
 C480 C 0.25773 0.94955 0.89661
 C481 C 0.23400 0.94374 0.87687
 C482 C 0.23059 0.92245 0.84989
 C483 C 0.24671 0.88071 0.81951
 C484 C 0.22371 0.87383 0.79806
 C485 C 0.21917 0.84888 0.78385
 C486 C 0.23747 0.83024 0.79024
 C487 C 0.26158 0.83760 0.80686
 C488 C 0.26632 0.86276 0.82150
 C489 C 0.29435 0.89390 0.85866
 C490 C 0.29003 0.86981 0.83981
 H491 H 0.31284 0.89822 0.87321
 H492 H 0.30532 0.85632 0.84044
 H493 H 0.29682 0.93790 0.90238
 H494 H 0.21766 0.95548 0.88288
 H495 H 0.20079 0.84384 0.76947
 H496 H 0.27602 0.82340 0.81120
 H497 H 0.21169 0.91880 0.83697
 H498 H 0.20870 0.88717 0.79309
 C499 C 0.76096 0.40726 0.38677
 C500 C 0.78000 0.40814 0.42000
 C501 C 0.78156 0.42890 0.44955
 C502 C 0.76355 0.44819 0.44778
 C503 C 0.74501 0.44745 0.41444
 C504 C 0.74385 0.42746 0.38404
 C505 C 0.75858 0.38394 0.35817
 C506 C 0.74037 0.38142 0.32412
 C507 C 0.73654 0.35824 0.30234
 C508 C 0.75087 0.33699 0.31346
 C509 C 0.77059 0.33984 0.34461
 C510 C 0.77448 0.36316 0.36714
 C511 C 0.79637 0.38765 0.42510
 C512 C 0.79346 0.36552 0.39964
 H513 H 0.81101 0.38830 0.45041
 H514 H 0.80593 0.34981 0.40613
 H515 H 0.79570 0.42918 0.47573
 H516 H 0.73096 0.46218 0.41246
 H517 H 0.72165 0.35662 0.27756
 H518 H 0.78188 0.32355 0.35316
 H519 H 0.72876 0.42776 0.35986
 H520 H 0.72843 0.39687 0.31449
 C521 C 0.09265 0.24066 0.80853
 C522 C 0.08760 0.26545 0.82417
 C523 C 0.06588 0.26962 0.85025
 C524 C 0.05006 0.24901 0.86399
 C525 C 0.05521 0.22448 0.84807
 C526 C 0.07593 0.22040 0.82038
 C527 C 0.11686 0.23659 0.78354
 C528 C 0.12292 0.21294 0.76481
 C529 C 0.14723 0.20892 0.74811
 C530 C 0.16613 0.22834 0.74952
 C531 C 0.15942 0.25281 0.76362
 C532 C 0.13488 0.25706 0.78047
 C533 C 0.10517 0.28554 0.81627
 C534 C 0.12856 0.28131 0.79580
 H535 H 0.10138 0.30456 0.82818
 H536 H 0.14207 0.29718 0.79262
 H537 H 0.06248 0.28866 0.86256
 H538 H 0.04342 0.20814 0.85760
 H539 H 0.15162 0.19016 0.73573
 H540 H 0.17372 0.26810 0.76424
 H541 H 0.07915 0.20101 0.81036
 H542 H 0.10940 0.19710 0.76380
 C543 C 0.60142 0.75164 0.37361
 C544 C 0.59763 0.77467 0.39697
 C545 C 0.57486 0.77818 0.42049
 C546 C 0.55613 0.75863 0.42238
 C547 C 0.55940 0.73641 0.39743
 C548 C 0.58159 0.73301 0.37304
 C549 C 0.62706 0.74731 0.35348
 C550 C 0.63313 0.72446 0.33175
 C551 C 0.65815 0.71983 0.31919
 C552 C 0.67771 0.73793 0.32738
 C553 C 0.67155 0.76159 0.34566
 C554 C 0.64648 0.76629 0.35920
 C555 C 0.61713 0.79340 0.39882
 C556 C 0.64106 0.78926 0.38045
 H557 H 0.61418 0.81114 0.41625
 H558 H 0.65581 0.80395 0.38429
 H559 H 0.57253 0.79539 0.43982
 H560 H 0.54507 0.72117 0.39793
 H561 H 0.66241 0.70165 0.30428
 H562 H 0.68659 0.77567 0.35215
 H563 H 0.58317 0.71522 0.35550
 H564 H 0.61908 0.70954 0.32545
 C565 C 0.89969 0.74620 0.87298
 C566 C 0.90351 0.72363 0.89753
 C567 C 0.92638 0.72053 0.92104
 C568 C 0.94514 0.74007 0.92164
 C569 C 0.94190 0.76169 0.89528
 C570 C 0.91963 0.76466 0.87092
 C571 C 0.87392 0.75035 0.85321
 C572 C 0.86775 0.77294 0.83087
 C573 C 0.84265 0.77750 0.81867
 C574 C 0.82312 0.75956 0.82777
 C575 C 0.82933 0.73614 0.84678
 C576 C 0.85447 0.73155 0.86007
 C577 C 0.88394 0.70504 0.90060
 C578 C 0.85994 0.70892 0.88230
 H579 H 0.88691 0.68762 0.91891
 H580 H 0.84515 0.69437 0.88706
 H581 H 0.92874 0.70378 0.94146
 H582 H 0.95630 0.77687 0.89475
 H583 H 0.83832 0.79551 0.80328
 H584 H 0.81428 0.72220 0.85402
 H585 H 0.91809 0.78203 0.85225
 H586 H 0.88177 0.78776 0.82387
 C587 C 0.40479 0.25960 0.30812
 C588 C 0.40813 0.23519 0.32686
 C589 C 0.42965 0.23054 0.35307
 C590 C 0.44748 0.25022 0.36248
 C591 C 0.44450 0.27415 0.34287
 C592 C 0.42361 0.27877 0.31575
 C593 C 0.38044 0.26450 0.28391
 C594 C 0.37511 0.28824 0.26471
 C595 C 0.35089 0.29298 0.24805
 C596 C 0.33141 0.27418 0.24972
 C597 C 0.33717 0.24977 0.26518
 C598 C 0.36143 0.24486 0.28244
 C599 C 0.38930 0.21600 0.32142
 C600 C 0.36636 0.22080 0.30005
 H601 H 0.39190 0.19726 0.33548
 H602 H 0.35197 0.20562 0.29833
 H603 H 0.43166 0.21204 0.36842
 H604 H 0.45808 0.28961 0.34941
 H605 H 0.34710 0.31176 0.23520
 H606 H 0.32229 0.23506 0.26659
 H607 H 0.42212 0.29774 0.30255
 H608 H 0.38908 0.30365 0.26339
 C609 C 0.73977 0.89409 0.91631
 C610 C 0.75850 0.91370 0.91024
 C611 C 0.75721 0.93649 0.93435
 C612 C 0.73734 0.94035 0.96438
 C613 C 0.71789 0.92165 0.96836
 C614 C 0.71907 0.89874 0.94474
 C615 C 0.74341 0.86903 0.89331
 C616 C 0.72730 0.84741 0.90011
 C617 C 0.73284 0.82394 0.88070
 C618 C 0.75443 0.82149 0.85381
 C619 C 0.76982 0.84320 0.84522
 C620 C 0.76480 0.86665 0.86524
 C621 C 0.77881 0.91028 0.88103
 C622 C 0.78174 0.88735 0.85865
 H623 H 0.79293 0.92544 0.87592
 H624 H 0.79804 0.88553 0.83696
 H625 H 0.77212 0.95104 0.93053
 H626 H 0.70228 0.92427 0.99123
 H627 H 0.72073 0.80748 0.88812
 H628 H 0.78630 0.84165 0.82384
 H629 H 0.70392 0.88477 0.94986
 H630 H 0.71083 0.84802 0.92137
 C631 C 0.24191 0.40225 0.34568
 C632 C 0.26051 0.42231 0.34491
 C633 C 0.25789 0.44363 0.37237
 C634 C 0.23673 0.44564 0.40028
 C635 C 0.21747 0.42662 0.39898
 C636 C 0.22003 0.40510 0.37214
 C637 C 0.24688 0.37861 0.31936
 C638 C 0.23110 0.35645 0.32140
 C639 C 0.23786 0.33418 0.29927
 C640 C 0.26033 0.33354 0.27421
 C641 C 0.27542 0.35590 0.27023
 C642 C 0.26924 0.37809 0.29322
 C643 C 0.28189 0.42079 0.31749
 C644 C 0.28599 0.39929 0.29173
 H645 H 0.29590 0.43634 0.31638
 H646 H 0.30305 0.39888 0.27157
 H647 H 0.27262 0.45853 0.37261
 H648 H 0.20088 0.42789 0.42011
 H649 H 0.22598 0.31715 0.30329
 H650 H 0.29262 0.35575 0.25036
 H651 H 0.20491 0.39079 0.37313
 H652 H 0.21399 0.35562 0.34114
 C653 C 0.25396 0.09896 0.84354
 C654 C 0.23337 0.08136 0.84942
 C655 C 0.23585 0.06056 0.87784
 C656 C 0.25913 0.05592 0.89902
 C657 C 0.28031 0.07199 0.88961
 C658 C 0.27768 0.09350 0.86278
 C659 C 0.24931 0.12271 0.81752
 C660 C 0.26673 0.14364 0.81621
 C661 C 0.26034 0.16630 0.79494
 C662 C 0.23668 0.16842 0.77365
 C663 C 0.21997 0.14707 0.77273
 C664 C 0.22556 0.12486 0.79590
 C665 C 0.21033 0.08461 0.82702
 C666 C 0.20679 0.10554 0.79976
 H667 H 0.19478 0.07076 0.83066
 H668 H 0.18857 0.10725 0.78326
 H669 H 0.21952 0.04782 0.88320
 H670 H 0.29866 0.06872 0.90471
 H671 H 0.27355 0.18247 0.79678
 H672 H 0.20187 0.14813 0.75558
 H673 H 0.29430 0.10568 0.85760
 H674 H 0.28481 0.14327 0.83320
 C675 C 0.76066 0.60331 0.41548
 C676 C 0.74192 0.58373 0.40901
 C677 C 0.74307 0.56094 0.43296
 C678 C 0.76282 0.55701 0.46322
 C679 C 0.78228 0.57566 0.46767
 C680 C 0.78123 0.59861 0.44420
 C681 C 0.75715 0.62839 0.39259
 C682 C 0.77330 0.64996 0.39964
 C683 C 0.76786 0.67345 0.38031
 C684 C 0.74632 0.67595 0.35330
 C685 C 0.73091 0.65428 0.34443
 C686 C 0.73584 0.63082 0.36431
 C687 C 0.72172 0.58720 0.37958
 C688 C 0.71889 0.61015 0.35737
 H689 H 0.70759 0.57206 0.37418
 H690 H 0.70266 0.61202 0.33551
 H691 H 0.72817 0.54641 0.42881
 H692 H 0.79777 0.57298 0.49076
 H693 H 0.78000 0.68989 0.38789
 H694 H 0.71448 0.65588 0.32293
 H695 H 0.79637 0.61256 0.44967
 H696 H 0.78973 0.64931 0.42103
 C697 C 0.09977 0.74444 0.87488
 C698 C 0.08295 0.76504 0.87684
 C699 C 0.06086 0.76321 0.90271
 C700 C 0.05435 0.74062 0.92542
 C701 C 0.06971 0.71929 0.91962
 C702 C 0.09234 0.72126 0.89519
 C703 C 0.12489 0.74855 0.85190
 C704 C 0.14491 0.73117 0.85446
 C705 C 0.16880 0.73712 0.83593
 C706 C 0.17315 0.76031 0.81369
 C707 C 0.15280 0.77698 0.80898
 C708 C 0.12927 0.77181 0.82923
 C709 C 0.08838 0.78751 0.85340
 C710 C 0.11075 0.79053 0.82908
 H711 H 0.07519 0.80306 0.85404
 H712 H 0.11415 0.80836 0.81173
 H713 H 0.04877 0.77961 0.90529
 H714 H 0.06503 0.70140 0.93594
 H715 H 0.18413 0.72396 0.84056
 H716 H 0.15561 0.79469 0.79101
 H717 H 0.10390 0.70458 0.89292
 H718 H 0.14281 0.71345 0.87233
 C719 C 0.60492 0.25287 0.33074
 C720 C 0.58772 0.27317 0.33314
 C721 C 0.56420 0.26971 0.35461
 C722 C 0.55733 0.24622 0.37388
 C723 C 0.57353 0.22560 0.36876
 C724 C 0.59706 0.22883 0.34747
 C725 C 0.63113 0.25834 0.31258
 C726 C 0.65057 0.24029 0.31283
 C727 C 0.67545 0.24723 0.30035
 C728 C 0.68156 0.27223 0.28684
 C729 C 0.66197 0.28984 0.28372
 C730 C 0.63707 0.28329 0.29724
 C731 C 0.59444 0.29710 0.31561
 C732 C 0.61851 0.30198 0.29766
 H733 H 0.58110 0.31251 0.31680
 H734 H 0.62299 0.32101 0.28558
 H735 H 0.55159 0.28566 0.35775
 H736 H 0.56856 0.20723 0.38310
 H737 H 0.69018 0.23326 0.30342
 H738 H 0.66634 0.30909 0.27255
 H739 H 0.60906 0.21249 0.34556
 H740 H 0.64724 0.22104 0.32425
 C741 C 0.89289 0.24523 0.83094
 C742 C 0.91001 0.22489 0.83369
 C743 C 0.93371 0.22854 0.85451
 C744 C 0.94079 0.25223 0.87301
 C745 C 0.92465 0.27286 0.86754
 C746 C 0.90096 0.26945 0.84675
 C747 C 0.86650 0.23960 0.81358
 C748 C 0.84719 0.25779 0.81329
 C749 C 0.82218 0.25079 0.80164
 C750 C 0.81580 0.22558 0.78956
 C751 C 0.83523 0.20776 0.78702
 C752 C 0.86029 0.21442 0.79958
 C753 C 0.90303 0.20072 0.81733
 C754 C 0.87876 0.19565 0.80033
 H755 H 0.91632 0.18527 0.81880
 H756 H 0.87406 0.17644 0.78922
 H757 H 0.94627 0.21257 0.85796
 H758 H 0.92977 0.29136 0.88131
 H759 H 0.80756 0.26491 0.80416
 H760 H 0.83062 0.18833 0.77697
 H761 H 0.88900 0.28581 0.84461
 H762 H 0.85074 0.27724 0.82360
 C763 C 0.39983 0.76015 0.37579
 C764 C 0.41819 0.74095 0.37207
 C765 C 0.44084 0.74272 0.39660
 C766 C 0.44580 0.76353 0.42468
 C767 C 0.42853 0.78346 0.42599
 C768 C 0.40575 0.78181 0.40193
 C769 C 0.37459 0.75594 0.35311
 C770 C 0.35395 0.77241 0.35831
 C771 C 0.33013 0.76634 0.33966
 C772 C 0.32636 0.74385 0.31512
 C773 C 0.34714 0.72805 0.30798
 C774 C 0.37090 0.73359 0.32736
 C775 C 0.41356 0.71968 0.34497
 C776 C 0.39053 0.71624 0.32266
 H777 H 0.42780 0.70521 0.34159
 H778 H 0.38770 0.69921 0.30272
 H779 H 0.45435 0.72744 0.39487
 H780 H 0.43205 0.79978 0.44732
 H781 H 0.31439 0.77880 0.34591
 H782 H 0.34456 0.71084 0.28839
 H783 H 0.39282 0.79735 0.40505
 H784 H 0.35556 0.78959 0.37787
 C785 C 0.26021 0.90123 0.12421
 C786 C 0.24144 0.92004 0.12784
 C787 C 0.24335 0.94231 0.10240
 C788 C 0.26392 0.94645 0.07356
 C789 C 0.28344 0.92873 0.07219
 C790 C 0.28162 0.90631 0.09709
 C791 C 0.25583 0.87643 0.14808
 C792 C 0.27180 0.85537 0.14315
 C793 C 0.26543 0.83191 0.16282
 C794 C 0.24316 0.82900 0.18812
 C795 C 0.22798 0.85024 0.19516
 C796 C 0.23378 0.87360 0.17475
 C797 C 0.22048 0.91627 0.15587
 C798 C 0.21690 0.89366 0.17926
 H799 H 0.20635 0.93086 0.15918
 H800 H 0.20009 0.89148 0.19990
 H801 H 0.22842 0.95619 0.10418
 H802 H 0.29958 0.93165 0.05028
 H803 H 0.27741 0.81578 0.15672
 H804 H 0.21095 0.84829 0.21534
 H805 H 0.29685 0.89301 0.09395
 H806 H 0.28875 0.85633 0.12299
 C807 C 0.74474 0.39194 0.66858
 C808 C 0.72441 0.40902 0.66476
 C809 C 0.72818 0.43245 0.64316
 C810 C 0.75201 0.43933 0.62511
 C811 C 0.77256 0.42318 0.63142
 C812 C 0.76903 0.39976 0.65287
 C813 C 0.73910 0.36588 0.68719
 C814 C 0.75730 0.34661 0.68865
 C815 C 0.75032 0.32184 0.70158
 C816 C 0.72511 0.31567 0.71384
 C817 C 0.70727 0.33514 0.71524
 C818 C 0.71391 0.35993 0.70130
 C819 C 0.70020 0.40229 0.68110
 C820 C 0.69511 0.37834 0.69931
 H821 H 0.68475 0.41554 0.67878
 H822 H 0.67588 0.37384 0.71046
 H823 H 0.71226 0.44501 0.63910
 H824 H 0.79119 0.42815 0.61806
 H825 H 0.76446 0.30719 0.69986
 H826 H 0.68784 0.33072 0.72542
 H827 H 0.78538 0.38784 0.65578
 H828 H 0.77676 0.34997 0.67829
 C829 C 0.75385 0.10457 0.17249
 C830 C 0.77436 0.08770 0.16865
 C831 C 0.77077 0.06414 0.14726
 C832 C 0.74696 0.05693 0.12945
 C833 C 0.72621 0.07280 0.13601
 C834 C 0.72956 0.09636 0.15726
 C835 C 0.75934 0.13085 0.19044
 C836 C 0.74097 0.14998 0.19154
 C837 C 0.74781 0.17496 0.20358
 C838 C 0.77304 0.18149 0.21533
 C839 C 0.79103 0.16219 0.21719
 C840 C 0.78455 0.13719 0.20408
 C841 C 0.79858 0.09479 0.18460
 C842 C 0.80351 0.11894 0.20231
 H843 H 0.81417 0.08170 0.18231
 H844 H 0.82275 0.12373 0.21312
 H845 H 0.78684 0.05178 0.14300
 H846 H 0.70760 0.06757 0.12281
 H847 H 0.73354 0.18946 0.20151
 H848 H 0.81048 0.16690 0.22700
 H849 H 0.71308 0.10809 0.16029
 H850 H 0.72149 0.14633 0.18148
 C851 C 0.23965 0.60190 0.62661
 C852 C 0.25855 0.58318 0.62940
 C853 C 0.25619 0.56072 0.60440
 C854 C 0.23503 0.55627 0.57691
 C855 C 0.21541 0.57391 0.57653
 C856 C 0.21768 0.59652 0.60097
 C857 C 0.24443 0.62690 0.64982
 C858 C 0.22834 0.64788 0.64536
 C859 C 0.23491 0.67145 0.66454
 C860 C 0.25753 0.67461 0.68894
 C861 C 0.27296 0.65347 0.69531
 C862 C 0.26694 0.62998 0.67531
 C863 C 0.28005 0.58724 0.65615
 C864 C 0.28398 0.61001 0.67910
 H865 H 0.29430 0.57272 0.65884
 H866 H 0.30115 0.61238 0.69880
 H867 H 0.27122 0.54692 0.60544
 H868 H 0.19882 0.57077 0.55569
 H869 H 0.22275 0.68747 0.65879
 H870 H 0.29027 0.65556 0.71477
 H871 H 0.20232 0.60972 0.59863
 H872 H 0.21110 0.64675 0.62595
 C873 C 0.90405 0.74798 0.15972
 C874 C 0.90428 0.72718 0.12982
 C875 C 0.92545 0.72380 0.10204
 C876 C 0.94580 0.74168 0.10213
 C877 C 0.94559 0.76210 0.13197
 C878 C 0.92517 0.76512 0.16071
 C879 C 0.88055 0.75198 0.18667
 C880 C 0.87879 0.77178 0.21791
 C881 C 0.85567 0.77670 0.23831
 C882 C 0.83371 0.76197 0.22851
 C883 C 0.83566 0.74089 0.20016
 C884 C 0.85894 0.73581 0.17917
 C885 C 0.88286 0.71077 0.12617
 C886 C 0.86055 0.71521 0.14983
 H887 H 0.88299 0.69482 0.10335
 H888 H 0.84417 0.70255 0.14454
 H889 H 0.92537 0.70821 0.07843
 H890 H 0.96116 0.77608 0.13253
 H891 H 0.85477 0.79259 0.26117
 H892 H 0.81883 0.72924 0.19272
 H893 H 0.92596 0.78155 0.18216
 H894 H 0.89487 0.78401 0.22651
 C895 C 0.39631 0.24411 0.59034
 C896 C 0.39820 0.22435 0.55862
 C897 C 0.42088 0.22169 0.53428
 C898 C 0.44135 0.23916 0.53993
 C899 C 0.43961 0.25828 0.57209
 C900 C 0.41756 0.26063 0.59725
 C901 C 0.37127 0.24760 0.61316
 C902 C 0.36754 0.26685 0.64485
 C903 C 0.34335 0.27110 0.66183
 C904 C 0.32220 0.25622 0.64813
 C905 C 0.32591 0.23589 0.61878
 C906 C 0.35026 0.23156 0.60105
 C907 C 0.37706 0.20822 0.54989
 C908 C 0.35357 0.21187 0.57038
 H909 H 0.37847 0.19302 0.52576
 H910 H 0.33762 0.19936 0.56143
 H911 H 0.42200 0.20704 0.50907
 H912 H 0.45523 0.27190 0.57714
 H913 H 0.34106 0.28649 0.68532
 H914 H 0.30967 0.22421 0.60818
 H915 H 0.41733 0.27607 0.62077
 H916 H 0.38288 0.27919 0.65644
 C917 C 0.10137 0.25537 0.09090
 C918 C 0.09917 0.27535 0.05979
 C919 C 0.07654 0.27773 0.03523
 C920 C 0.05643 0.25976 0.03997
 C921 C 0.05848 0.24037 0.07145
 C922 C 0.08048 0.23829 0.09687
 C923 C 0.12639 0.25227 0.11403
 C924 C 0.13038 0.23293 0.14532
 C925 C 0.15459 0.22907 0.16255
 C926 C 0.17551 0.24444 0.14945
 C927 C 0.17149 0.26488 0.12057
 C928 C 0.14711 0.26883 0.10266
 C929 C 0.11999 0.29201 0.05187
 C930 C 0.14349 0.28869 0.07254
 H931 H 0.11835 0.30738 0.02821
 H932 H 0.15922 0.30160 0.06419
 H933 H 0.07520 0.29259 0.01052
 H934 H 0.04315 0.22636 0.07578
 H935 H 0.15710 0.21361 0.18573
 H936 H 0.18752 0.27695 0.11044
 H937 H 0.08098 0.22262 0.11983
 H938 H 0.11524 0.22023 0.15642
 C939 C 0.59716 0.74914 0.65946
 C940 C 0.59700 0.77055 0.63101
 C941 C 0.57592 0.77452 0.60332
 C942 C 0.55551 0.75671 0.60205
 C943 C 0.55568 0.73563 0.63037
 C944 C 0.57605 0.73196 0.65901
 C945 C 0.62052 0.74471 0.68660
 C946 C 0.62217 0.72437 0.71668
 C947 C 0.64515 0.71932 0.73757
 C948 C 0.66707 0.73443 0.72932
 C949 C 0.66519 0.75590 0.70197
 C950 C 0.64207 0.76115 0.68063
 C951 C 0.61838 0.78709 0.62877
 C952 C 0.64056 0.78228 0.65255
 H953 H 0.61830 0.80349 0.60704
 H954 H 0.65690 0.79512 0.64842
 H955 H 0.57606 0.79064 0.58091
 H956 H 0.54009 0.72166 0.62991
 H957 H 0.64593 0.70313 0.75966
 H958 H 0.68197 0.76782 0.69561
 H959 H 0.57523 0.71509 0.67930
 H960 H 0.60612 0.71186 0.72409
   
