data_POSCAR
  _audit_creation_date              2014-09-24
  _audit_creation_method            'ToBaCCo'
  _symmetry_space_group_name_H-M    'P1'
  _symmetry_Int_Tables_number       1
  _symmetry_cell_setting            triclinic
  loop_
  _symmetry_equiv_pos_as_xyz
 x,y,z
_cell_length_a 28.7144
_cell_length_b 27.6077
_cell_length_c 27.7239
_cell_angle_alpha 89.428500
_cell_angle_beta 90.105600
_cell_angle_gamma 89.597400
loop_
  _atom_site_label
  _atom_site_type_symbol
  _atom_site_fract_x
  _atom_site_fract_y
  _atom_site_fract_z
C1 C 0.18352 1.23741 0.18353
 N2 N 0.22363 1.21822 0.16575
 C3 C 0.24330 1.17829 0.18651
 N4 N 0.22216 1.15704 0.22493
 C5 C 0.18191 1.17551 0.24302
 N6 N 0.16257 1.21549 0.22183
 C7 C 0.81733 0.75630 0.17973
 N8 N 0.83768 0.77418 0.22005
 C9 C 0.81897 0.81293 0.24308
 N10 N 0.77996 0.83445 0.22478
 C11 C 0.75931 0.81709 0.18443
 N12 N 0.77848 0.77842 0.16178
 C13 C 0.81283 1.24652 -0.18660
 N14 N 0.77327 1.22861 -0.16671
 C15 C 0.75231 1.18917 -0.18562
 N16 N 0.77148 1.16730 -0.22456
 C17 C 0.81101 1.18488 -0.24501
 N18 N 0.83181 1.22420 -0.22541
 C19 C 0.18841 0.76025 -0.17865
 N20 N 0.22818 0.78003 -0.16119
 C21 C 0.24756 0.81910 -0.18328
 N22 N 0.22651 0.83883 -0.22280
 C23 C 0.18662 0.81968 -0.24060
 N24 N 0.16751 0.78071 -0.21798
 C25 C 0.57135 1.06964 -0.01414
 H26 H 0.57254 1.06851 0.02487
 C27 C 0.60360 1.09724 -0.03973
 H28 H 0.62976 1.11694 -0.01993
 C29 C 0.53801 1.04193 -0.08690
 H30 H 0.51348 1.01891 -0.10513
 C31 C 0.56960 1.06918 -0.11401
 H32 H 0.56883 1.06594 -0.15279
 N33 N 0.53939 1.04275 -0.03790
 C34 C 0.42959 1.01364 0.06603
 H35 H 0.42951 0.97449 0.06467
 C36 C 0.39629 1.03794 0.09334
 H37 H 0.37039 1.01700 0.11256
 C38 C 0.46148 1.08809 0.03941
 H39 H 0.48599 1.10746 0.01702
 C40 C 0.42880 1.11395 0.06645
 H41 H 0.42869 1.15299 0.06367
 Zn42 Zn 0.50131 1.00203 0.00016
 N43 N 0.46135 1.03884 0.03985
 C44 C 0.54191 0.96654 0.08712
 N45 N 0.54182 0.96315 0.03823
 C46 C 0.57353 0.93513 0.01500
 C47 C 0.60762 0.90978 0.04102
 C48 C 0.57567 0.94209 0.11456
 C49 C 0.42971 0.98804 -0.06537
 C50 C 0.39702 0.96272 -0.09224
 C51 C 0.43238 0.88774 -0.06483
 C52 C 0.46440 0.91461 -0.03827
 N53 N 0.46258 0.96383 -0.03918
 H54 H 0.51659 0.98925 0.10493
 H55 H 0.57290 0.93334 -0.02396
 H56 H 0.63258 0.88774 0.02171
 H57 H 0.57422 0.94534 0.15328
 H58 H 0.42823 1.02718 -0.06434
 H59 H 0.37026 0.98286 -0.11154
 H60 H 0.43366 0.84875 -0.06164
 H61 H 0.48969 0.89600 -0.01577
 C62 C 0.39574 1.08888 0.09447
 C63 C 0.60288 1.09786 -0.09049
 C64 C 0.39815 0.91178 -0.09280
 C65 C 0.61034 0.91446 0.09146
 C66 C -0.01432 0.57158 1.06552
 H67 H 0.02319 0.57073 1.06923
 C68 C -0.04047 0.60600 1.09036
 H69 H -0.02274 0.63089 1.11397
 C70 C -0.08262 0.54021 1.02992
 H71 H -0.09889 0.51490 1.00580
 C72 C -0.11011 0.57429 1.05382
 H73 H -0.14734 0.57295 1.04875
 N74 N -0.03560 0.53983 1.03570
 C75 C 0.06573 0.42402 1.01381
 H76 H 0.06596 0.42377 0.97478
 C77 C 0.09169 0.38970 1.03966
 H78 H 0.11160 0.36290 1.02007
 C79 C 0.03693 0.45752 1.08624
 H80 H 0.01432 0.48304 1.10418
 C81 C 0.06258 0.42388 1.11363
 H82 H 0.05856 0.42415 1.15233
 Zn83 Zn 0.00270 0.49909 0.99809
 N84 N 0.03928 0.45721 1.03727
 C85 C 0.08816 0.53976 0.96685
 N86 N 0.04115 0.54031 0.96096
 C87 C 0.01997 0.57345 0.93160
 C88 C 0.04618 0.60840 0.90742
 C89 C 0.11572 0.57432 0.94362
 C90 C -0.06039 0.42570 0.98207
 C91 C -0.08709 0.39293 0.95624
 C92 C -0.05928 0.42922 0.88221
 C93 C -0.03281 0.46127 0.90960
 N94 N -0.03420 0.45919 0.95860
 H95 H 0.10436 0.51335 0.99062
 H96 H -0.01754 0.57333 0.92783
 H97 H 0.02852 0.63444 0.88423
 H98 H 0.15293 0.57226 0.94878
 H99 H -0.05996 0.42410 1.02108
 H100 H -0.10692 0.36595 0.97580
 H101 H -0.05622 0.43101 0.84345
 H102 H -0.01050 0.48707 0.89162
 C103 C 0.09108 0.38956 1.09040
 C104 C -0.08896 0.60911 1.08332
 C105 C -0.08750 0.39465 0.90552
 C106 C 0.09465 0.61056 0.91468
 C107 C 1.05721 -0.01497 0.57752
 H108 H 1.05495 0.02415 0.57843
 C109 C 1.08464 -0.03984 0.61123
 H110 H 1.10318 -0.01945 0.63825
 C111 C 1.03351 -0.08880 0.54273
 H112 H 1.01246 -0.10777 0.51680
 C113 C 1.06067 -0.11522 0.57576
 H114 H 1.05928 -0.15423 0.57462
 N115 N 1.03263 -0.03959 0.54394
 C116 C 1.00877 0.06317 0.42616
 H117 H 0.97110 0.06440 0.42543
 C118 C 1.03418 0.08790 0.39093
 H119 H 1.01557 0.10915 0.36405
 C120 C 1.07830 0.03409 0.46258
 H121 H 1.09542 0.01256 0.49019
 C122 C 1.10506 0.05819 0.42801
 H123 H 1.14256 0.05612 0.43098
 Zn124 Zn 0.99425 -0.00238 0.50207
 N125 N 1.03103 0.03637 0.46062
 C126 C 0.95567 0.08529 0.53868
 N127 N 0.95541 0.03610 0.54139
 C128 C 0.93009 0.01246 0.57547
 C129 C 0.90339 0.03837 0.60844
 C130 C 0.92928 0.11272 0.57093
 C131 C 0.98211 -0.06934 0.42898
 C132 C 0.95811 -0.09689 0.39531
 C133 C 0.88569 -0.06952 0.43016
 C134 C 0.91115 -0.04232 0.46315
 N135 N 0.95848 -0.04287 0.46206
 H136 H 0.97738 0.10344 0.51245
 H137 H 0.93158 -0.02667 0.57767
 H138 H 0.88464 0.01871 0.63616
 H139 H 0.93186 0.15167 0.56893
 H140 H 1.01974 -0.06794 0.42798
 H141 H 0.97776 -0.11621 0.36824
 H142 H 0.84817 -0.06652 0.43066
 H143 H 0.89298 -0.01960 0.48855
 C144 C 1.08307 0.08380 0.39005
 C145 C 1.08738 -0.09073 0.61040
 C146 C 0.90913 -0.09793 0.39582
 C147 C 0.90208 0.08930 0.60627
 C148 C 0.16120 0.27768 1.16009
 C149 C 0.11563 0.26327 1.13521
 C150 C 0.09292 0.30076 1.11323
 C151 C 0.11743 0.34981 1.11775
 C152 C 0.12469 0.35642 1.17254
 C153 C 0.14743 0.31868 1.19451
 C154 C 0.18983 0.30316 1.12037
 C155 C 0.16707 0.34087 1.09860
 H156 H 0.10228 0.22656 1.13485
 H157 H 0.06015 0.29598 1.09432
 H158 H 0.11602 0.38892 1.19226
 H159 H 0.15671 0.31911 1.23249
 H160 H 0.22547 0.29378 1.11111
 H161 H 0.18356 0.36330 1.07126
 C162 C -0.16043 0.71788 1.15417
 C163 C -0.18936 0.69498 1.11354
 C164 C -0.16648 0.65935 1.08936
 C165 C -0.11662 0.64909 1.10814
 C166 C -0.09291 0.69894 1.10503
 C167 C -0.11552 0.73457 1.12928
 C168 C -0.14558 0.67483 1.18641
 C169 C -0.12263 0.63914 1.16242
 H170 H -0.22421 0.70665 1.10331
 H171 H -0.18208 0.64270 1.05809
 H172 H -0.06161 0.70604 1.08430
 H173 H -0.10320 0.77168 1.12947
 H174 H -0.15280 0.67237 1.22479
 H175 H -0.11031 0.60635 1.18038
 C176 C -0.16175 0.28752 0.83701
 C177 C -0.18916 0.31395 0.87663
 C178 C -0.16499 0.35018 0.89791
 C179 C -0.11520 0.35673 0.87834
 C180 C -0.09240 0.30637 0.88308
 C181 C -0.11660 0.27039 0.86159
 C182 C -0.14677 0.32800 0.80206
 C183 C -0.12253 0.36430 0.82350
 H184 H -0.22499 0.30614 0.88617
 H185 H -0.18046 0.37307 0.92526
 H186 H -0.05963 0.29964 0.90166
 H187 H -0.10458 0.23301 0.86196
 H188 H -0.15612 0.32908 0.76411
 H189 H -0.11257 0.39634 0.80330
 C190 C 0.16617 0.72117 0.84618
 C191 C 0.19507 0.69619 0.88634
 C192 C 0.17219 0.65989 0.90974
 C193 C 0.12234 0.65114 0.89073
 C194 C 0.09862 0.70119 0.89489
 C195 C 0.12125 0.73749 0.87141
 C196 C 0.15132 0.67969 0.81305
 C197 C 0.12836 0.64336 0.83627
 H198 H 0.22989 0.70695 0.89689
 H199 H 0.18776 0.64176 0.94066
 H200 H 0.06730 0.70788 0.91574
 H201 H 0.10893 0.77477 0.87200
 H202 H 0.15855 0.67873 0.77464
 H203 H 0.11606 0.61150 0.81761
 C204 C 1.15781 0.15116 0.28117
 C205 C 1.14554 0.18394 0.32385
 C206 C 1.12108 0.16124 0.35943
 C207 C 1.11103 0.10762 0.34966
 C208 C 1.08686 0.10737 0.29991
 C209 C 1.11109 0.13033 0.26443
 C210 C 1.18368 0.10753 0.30417
 C211 C 1.15918 0.08467 0.33953
 H212 H 1.15541 0.22175 0.32607
 H213 H 1.11010 0.17974 0.39190
 H214 H 1.05450 0.08880 0.29244
 H215 H 1.09887 0.13180 0.22733
 H216 H 1.21748 0.09422 0.29261
 H217 H 1.17214 0.05157 0.35629
 C218 C 1.16258 -0.15769 0.71992
 C219 C 1.15007 -0.19271 0.67920
 C220 C 1.12569 -0.17167 0.64222
 C221 C 1.11563 -0.11711 0.64926
 C222 C 1.09160 -0.11413 0.69863
 C223 C 1.11598 -0.13517 0.73536
 C224 C 1.18869 -0.11621 0.69420
 C225 C 1.16427 -0.09534 0.65726
 H226 H 1.16133 -0.23033 0.67837
 H227 H 1.11765 -0.19179 0.60996
 H228 H 1.05795 -0.09691 0.70419
 H229 H 1.10315 -0.13569 0.77220
 H230 H 1.22385 -0.10502 0.70293
 H231 H 1.17888 -0.06682 0.63484
 C232 C 0.84202 -0.16604 0.28344
 C233 C 0.81005 -0.15771 0.32706
 C234 C 0.83151 -0.13598 0.36497
 C235 C 0.88327 -0.12409 0.35587
 C236 C 0.90483 -0.17338 0.34223
 C237 C 0.88358 -0.19516 0.30432
 C238 C 0.86194 -0.11597 0.27120
 C239 C 0.88335 -0.09421 0.30884
 H240 H 0.77425 -0.16999 0.32895
 H241 H 0.81376 -0.13118 0.39907
 H242 H 0.93325 -0.19068 0.36187
 H243 H 0.89443 -0.23065 0.29190
 H244 H 0.85954 -0.09899 0.23576
 H245 H 0.89903 -0.05866 0.30548
 C246 C 0.83282 0.16052 0.71568
 C247 C 0.80507 0.11851 0.69359
 C248 C 0.82741 0.09611 0.65664
 C249 C 0.87580 0.11699 0.64506
 C250 C 0.86586 0.17134 0.63553
 C251 C 0.84358 0.19394 0.67249
 C252 C 0.87992 0.13797 0.73001
 C253 C 0.90223 0.11539 0.69330
 H254 H 0.77026 0.10812 0.70464
 H255 H 0.81135 0.06714 0.63646
 H256 H 0.87238 0.19010 0.60174
 H257 H 0.83257 0.23161 0.67012
 H258 H 0.89456 0.13954 0.76611
 H259 H 0.93593 0.09790 0.69813
 C260 C 0.28528 1.15506 0.16363
 C261 C 0.32561 1.19006 0.15388
 C262 C 0.36293 1.16913 0.13169
 C263 C 0.35646 1.11478 0.12086
 C264 C 0.34492 1.09239 0.17055
 C265 C 0.30764 1.11314 0.19272
 C266 C 0.27374 1.13337 0.11437
 C267 C 0.31073 1.11242 0.09215
 H268 H 0.32570 1.22751 0.16545
 H269 H 0.39482 1.18906 0.12577
 H270 H 0.36531 1.06376 0.18768
 H271 H 0.29641 1.10179 0.22841
 H272 H 0.23924 1.13440 0.09827
 H273 H 0.30777 1.09570 0.05700
 C274 C 0.71112 1.16651 -0.16081
 C275 C 0.68990 1.19617 -0.11943
 C276 C 0.65333 1.17418 -0.09726
 C277 C 0.64130 1.12411 -0.11783
 C278 C 0.63320 1.13451 -0.17211
 C279 C 0.66981 1.15649 -0.19444
 C280 C 0.72347 1.11724 -0.13802
 C281 C 0.68719 1.09521 -0.11568
 H282 H 0.70135 1.23208 -0.10941
 H283 H 0.63374 1.19168 -0.06880
 H284 H 0.60072 1.12850 -0.19102
 H285 H 0.66857 1.16777 -0.23205
 H286 H 0.75799 1.10100 -0.13933
 H287 H 0.69077 1.06008 -0.09805
 C288 C 0.28907 0.84315 -0.16080
 C289 C 0.31076 0.88440 -0.19082
 C290 C 0.34762 0.90590 -0.16898
 C291 C 0.35945 0.88486 -0.11867
 C292 C 0.31360 0.88776 -0.09032
 C293 C 0.27703 0.86608 -0.11221
 C294 C 0.32999 0.80858 -0.14989
 C295 C 0.36689 0.83025 -0.12804
 H296 H 0.29937 0.89484 -0.22682
 H297 H 0.36747 0.93428 -0.18664
 H298 H 0.31026 0.90535 -0.05563
 H299 H 0.24252 0.86531 -0.09629
 H300 H 0.33075 0.77083 -0.16046
 H301 H 0.39908 0.81058 -0.12141
 C302 C 0.71878 0.84357 0.16157
 C303 C 0.67950 0.81035 0.14451
 C304 C 0.64378 0.83429 0.12213
 C305 C 0.65005 0.88950 0.11886
 C306 C 0.65875 0.90529 0.17146
 C307 C 0.69444 0.88112 0.19369
 C308 C 0.73339 0.87225 0.11649
 C309 C 0.69777 0.89648 0.09444
 H310 H 0.67961 0.77134 0.14985
 H311 H 0.61341 0.81565 0.10842
 H312 H 0.64085 0.93465 0.18941
 H313 H 0.70517 0.88931 0.23026
 H314 H 0.76904 0.87442 0.10372
 H315 H 0.70336 0.91960 0.06311
   
