data_POSCAR
  _audit_creation_date              2014-09-24
  _audit_creation_method            'ToBaCCo'
  _symmetry_space_group_name_H-M    'P1'
  _symmetry_Int_Tables_number       1
  _symmetry_cell_setting            triclinic
  loop_
  _symmetry_equiv_pos_as_xyz
 x,y,z
_cell_length_a 38.7454
_cell_length_b 38.0964
_cell_length_c 38.9374
_cell_angle_alpha 90.076100
_cell_angle_beta 89.978300
_cell_angle_gamma 90.075500
loop_
  _atom_site_label
  _atom_site_type_symbol
  _atom_site_fract_x
  _atom_site_fract_y
  _atom_site_fract_z
N1 N 0.58440 0.67939 0.60946
 N2 N 0.57224 0.66650 0.63835
 C3 C 0.54465 0.68552 0.64821
 C4 C 0.53897 0.71115 0.62383
 C5 C 0.56449 0.70648 0.59951
 H6 H 0.52947 0.68087 0.67107
 H7 H 0.56870 0.72214 0.57674
 Cu8 Cu 0.59300 0.62542 0.65954
 Cu9 Cu 0.62619 0.66138 0.58797
 Cu10 Cu 0.66413 0.58860 0.62572
 N11 N 0.61355 0.58358 0.67946
 N12 N 0.64248 0.57053 0.66726
 C13 C 0.65227 0.54320 0.68685
 C14 C 0.62772 0.53843 0.71220
 C15 C 0.60340 0.56435 0.70667
 H16 H 0.67508 0.52746 0.68250
 H17 H 0.58045 0.56919 0.72177
 N18 N 0.68209 0.61068 0.58360
 N19 N 0.66855 0.63932 0.57012
 C20 C 0.68756 0.64903 0.54275
 C21 C 0.71374 0.62493 0.53845
 C22 C 0.70950 0.60088 0.56457
 H23 H 0.68243 0.67153 0.52665
 H24 H 0.72561 0.57831 0.56960
 H25 H 0.61997 0.61035 0.60493
 H26 H 0.64761 0.63981 0.63169
 N27 N 0.91625 0.31916 0.10923
 N28 N 0.92733 0.33110 0.13896
 C29 C 0.95444 0.31166 0.14923
 C30 C 0.96105 0.28674 0.12422
 C31 C 0.93646 0.29235 0.09911
 H32 H 0.96879 0.31573 0.17272
 H33 H 0.93304 0.27751 0.07565
 Cu34 Cu 0.90647 0.37204 0.16046
 Cu35 Cu 0.87524 0.33785 0.08700
 Cu36 Cu 0.83733 0.41082 0.12441
 N37 N 0.88619 0.41442 0.17972
 N38 N 0.85817 0.42841 0.16652
 C39 C 0.84870 0.45622 0.18570
 C40 C 0.87248 0.46021 0.21180
 C41 C 0.89603 0.43345 0.20722
 H42 H 0.82667 0.47282 0.18060
 H43 H 0.91831 0.42805 0.22306
 N44 N 0.82004 0.38917 0.08178
 N45 N 0.83357 0.36044 0.06839
 C46 C 0.81487 0.35088 0.04074
 C47 C 0.78890 0.37517 0.03620
 C48 C 0.79296 0.39917 0.06245
 H49 H 0.81996 0.32825 0.02474
 H50 H 0.77684 0.42175 0.06744
 H51 H 0.88195 0.38848 0.10514
 H52 H 0.85267 0.35922 0.13036
 N53 N 0.41528 0.18095 -0.10939
 N54 N 0.42726 0.16821 -0.13844
 C55 C 0.45469 0.18744 -0.14842
 C56 C 0.46046 0.21306 -0.12397
 C57 C 0.43514 0.20816 -0.09947
 H58 H 0.46975 0.18289 -0.17137
 H59 H 0.43109 0.22371 -0.07657
 Cu60 Cu 0.40672 0.12688 -0.15959
 Cu61 Cu 0.37384 0.16248 -0.08760
 Cu62 Cu 0.33653 0.08891 -0.12480
 N63 N 0.38650 0.08457 -0.17913
 N64 N 0.35806 0.07090 -0.16642
 C65 C 0.34856 0.04320 -0.18575
 C66 C 0.37273 0.03895 -0.21146
 C67 C 0.39656 0.06544 -0.20648
 H68 H 0.32616 0.02691 -0.18109
 H69 H 0.41912 0.07066 -0.22203
 N70 N 0.31857 0.11100 -0.08266
 N71 N 0.33184 0.13996 -0.06940
 C72 C 0.31278 0.14968 -0.04206
 C73 C 0.28685 0.12527 -0.03755
 C74 C 0.29130 0.10102 -0.06352
 H75 H 0.31766 0.17244 -0.02616
 H76 H 0.27537 0.07824 -0.06842
 H77 H 0.38066 0.11151 -0.10464
 H78 H 0.35224 0.14037 -0.13109
 N79 N 0.08343 0.81961 0.39081
 N80 N 0.07120 0.83265 0.36203
 C81 C 0.04395 0.81325 0.35183
 C82 C 0.03845 0.78723 0.37596
 C83 C 0.06385 0.79212 0.40044
 H84 H 0.02878 0.81807 0.32900
 H85 H 0.06820 0.77638 0.42313
 Cu86 Cu 0.09106 0.87476 0.34182
 Cu87 Cu 0.12496 0.83798 0.41256
 Cu88 Cu 0.16261 0.91125 0.37523
 N89 N 0.11215 0.91614 0.32140
 N90 N 0.14107 0.92924 0.33365
 C91 C 0.15096 0.95652 0.31400
 C92 C 0.12658 0.96110 0.28856
 C93 C 0.10222 0.93521 0.29403
 H94 H 0.17372 0.97238 0.31833
 H95 H 0.07932 0.93044 0.27885
 N96 N 0.18051 0.88919 0.41736
 N97 N 0.16707 0.86038 0.43068
 C98 C 0.18610 0.85064 0.45800
 C99 C 0.21218 0.87490 0.46243
 C100 C 0.20786 0.89907 0.43644
 H101 H 0.18109 0.82797 0.47393
 H102 H 0.22392 0.92174 0.43150
 H103 H 0.11872 0.88921 0.39630
 H104 H 0.14591 0.86010 0.36879
 C105 C 0.10939 0.15441 0.11028
 C106 C 0.13910 0.13965 0.09565
 C107 C 0.15396 0.11022 0.11029
 C108 C 0.13972 0.09561 0.14015
 C109 C 0.11041 0.11022 0.15462
 C110 C 0.09537 0.14004 0.13981
 C111 C 0.08903 0.18249 0.10115
 N112 N 0.06357 0.18577 0.12484
 C113 C 0.06723 0.16014 0.14868
 C114 C 0.10186 0.09019 0.18278
 N115 N 0.12563 0.06430 0.18600
 C116 C 0.14899 0.06743 0.16022
 C117 C 0.18195 0.10122 0.09035
 N118 N 0.18470 0.12489 0.06449
 C119 C 0.15876 0.14858 0.06753
 H120 H 0.09262 0.19953 0.07921
 H121 H 0.05037 0.15621 0.17052
 H122 H 0.08019 0.09430 0.19988
 H123 H 0.17078 0.05015 0.15614
 H124 H 0.19933 0.07942 0.09456
 H125 H 0.15439 0.17043 0.05032
 C126 C 0.38967 0.84537 0.60998
 C127 C 0.35993 0.86014 0.59546
 C128 C 0.34524 0.88973 0.61006
 C129 C 0.35968 0.90449 0.63979
 C130 C 0.38904 0.88991 0.65412
 C131 C 0.40393 0.85996 0.63932
 C132 C 0.40984 0.81711 0.60092
 N133 N 0.43548 0.81393 0.62441
 C134 C 0.43206 0.83985 0.64809
 C135 C 0.39771 0.91002 0.68223
 N136 N 0.37394 0.93591 0.68557
 C137 C 0.35049 0.93272 0.65989
 C138 C 0.31724 0.89874 0.59021
 N139 N 0.31431 0.87494 0.56443
 C140 C 0.34013 0.85114 0.56744
 H141 H 0.40596 0.79987 0.57912
 H142 H 0.44906 0.84397 0.66979
 H143 H 0.41940 0.90590 0.69928
 H144 H 0.32864 0.94994 0.65595
 H145 H 0.29999 0.92067 0.59440
 H146 H 0.34439 0.82920 0.55025
 C147 C 0.89052 0.65421 0.38984
 C148 C 0.86085 0.63942 0.40456
 C149 C 0.84591 0.60993 0.38996
 C150 C 0.86003 0.59529 0.36004
 C151 C 0.88931 0.60991 0.34548
 C152 C 0.90444 0.63979 0.36025
 C153 C 0.91092 0.68234 0.39891
 N154 N 0.93630 0.68561 0.37516
 C155 C 0.93257 0.65993 0.35132
 C156 C 0.89776 0.58982 0.31729
 N157 N 0.87393 0.56390 0.31414
 C158 C 0.85066 0.56705 0.33999
 C159 C 0.81802 0.60089 0.41003
 N160 N 0.81540 0.62460 0.43592
 C161 C 0.84132 0.64835 0.43278
 H162 H 0.90741 0.69942 0.42088
 H163 H 0.94937 0.65598 0.32943
 H164 H 0.91938 0.59391 0.30013
 H165 H 0.82886 0.54975 0.34413
 H166 H 0.80061 0.57904 0.40589
 H167 H 0.84579 0.67023 0.45000
 C168 C 0.61069 0.34669 -0.11073
 C169 C 0.64084 0.36108 -0.09657
 C170 C 0.65577 0.39048 -0.11130
 C171 C 0.64116 0.40542 -0.14079
 C172 C 0.61135 0.39125 -0.15473
 C173 C 0.59623 0.36148 -0.13982
 C174 C 0.59029 0.31861 -0.10153
 N175 N 0.56431 0.31573 -0.12472
 C176 C 0.56775 0.34167 -0.14831
 C177 C 0.60255 0.41150 -0.18264
 N178 N 0.62669 0.43701 -0.18623
 C179 C 0.65050 0.43353 -0.16097
 C180 C 0.68409 0.39922 -0.09172
 N181 N 0.68697 0.37544 -0.06598
 C182 C 0.66081 0.35191 -0.06877
 H183 H 0.59427 0.30125 -0.07991
 H184 H 0.55057 0.34596 -0.16983
 H185 H 0.58053 0.40775 -0.19937
 H186 H 0.67268 0.45046 -0.15738
 H187 H 0.70153 0.42101 -0.09601
 H188 H 0.65640 0.33010 -0.05150
 N189 N -0.00656 0.24192 0.09582
 C190 C -0.01310 0.26137 0.12436
 N191 N 0.00601 0.25559 0.15304
 N192 N 0.03048 0.23104 0.15329
 C193 C 0.03716 0.21189 0.12466
 N194 N 0.01835 0.21784 0.09587
 N195 N 0.49965 0.75126 0.59401
 C196 C 0.51183 0.73794 0.62396
 N197 N 0.49857 0.74987 0.65405
 N198 N 0.47419 0.77450 0.65421
 C199 C 0.46181 0.78763 0.62425
 N200 N 0.47486 0.77546 0.59414
 N201 N 1.00744 0.74095 0.40364
 C202 C 1.01277 0.76160 0.37571
 N203 N 0.99257 0.75682 0.34758
 N204 N 0.96819 0.73212 0.34726
 C205 C 0.96271 0.71178 0.37532
 N206 N 0.98263 0.71670 0.40357
 N207 N 0.50067 0.25195 -0.15425
 C208 C 0.48761 0.23991 -0.12413
 N209 N 0.50007 0.25310 -0.09420
 N210 N 0.52495 0.27728 -0.09437
 C211 C 0.53781 0.28954 -0.12450
 N212 N 0.52514 0.27656 -0.15444
 N213 N 0.09607 -0.00012 0.24862
 C214 C 0.12636 -0.01197 0.26169
 N215 N 0.15641 0.00155 0.24958
 N216 N 0.15619 0.02587 0.22501
 C217 C 0.12589 0.03794 0.21214
 N218 N 0.09583 0.02463 0.22447
 N219 N 0.59917 0.50821 -0.24212
 C220 C 0.62748 0.51292 -0.26220
 N221 N 0.65554 0.49229 -0.25686
 N222 N 0.65542 0.46811 -0.23217
 C223 C 0.62699 0.46324 -0.21239
 N224 N 0.59881 0.48357 -0.21787
 N225 N 0.34305 0.99812 0.74976
 C226 C 0.37305 1.01199 0.76163
 N227 N 0.40334 1.00054 0.74819
 N228 N 0.40365 0.97585 0.72393
 C229 C 0.37363 0.96219 0.71184
 N230 N 0.34331 0.97386 0.72507
 N231 N 0.84289 0.50149 0.25015
 C232 C 0.87285 0.48734 0.23855
 N233 N 0.90315 0.49867 0.25209
 N234 N 0.90352 0.52354 0.27618
 C235 C 0.87355 0.53748 0.28801
 N236 N 0.84321 0.52591 0.27468
 N237 N 0.24676 0.09444 0.00074
 C238 C 0.26014 0.12516 -0.01087
 N239 N 0.24841 0.15578 0.00259
 N240 N 0.22391 0.15571 0.02662
 C241 C 0.21074 0.12498 0.03845
 N242 N 0.22270 0.09433 0.02520
 N243 N 0.75188 0.65544 0.49802
 C244 C 0.74037 0.62483 0.51168
 N245 N 0.75384 0.59413 0.50014
 N246 N 0.77777 0.59403 0.47556
 C247 C 0.78950 0.62467 0.46211
 N248 N 0.77625 0.65539 0.47387
 N249 N 0.74894 0.40594 -0.00215
 C250 C 0.76236 0.37525 0.00937
 N251 N 0.75073 0.34462 -0.00423
 N252 N 0.72629 0.34466 -0.02829
 C253 C 0.71308 0.37537 -0.04002
 N254 N 0.72494 0.40603 -0.02665
 N255 N 0.25043 0.84426 0.50257
 C256 C 0.23891 0.87492 0.48908
 N257 N 0.25248 0.90559 0.50066
 N258 N 0.27653 0.90562 0.52511
 C259 C 0.28828 0.87494 0.53839
 N260 N 0.27491 0.84425 0.52658
   
