data_POSCAR
  _audit_creation_date              2014-09-24
  _audit_creation_method            'ToBaCCo'
  _symmetry_space_group_name_H-M    'P1'
  _symmetry_Int_Tables_number       1
  _symmetry_cell_setting            triclinic
  loop_
  _symmetry_equiv_pos_as_xyz
 x,y,z
_cell_length_a 35.2821
_cell_length_b 35.2999
_cell_length_c 35.2181
_cell_angle_alpha 89.997900
_cell_angle_beta 89.978600
_cell_angle_gamma 89.930100
loop_
  _atom_site_label
  _atom_site_type_symbol
  _atom_site_fract_x
  _atom_site_fract_y
  _atom_site_fract_z
C1 C 0.17191 0.17049 0.21937
 N2 N 0.20346 0.15503 0.20341
 C3 C 0.21948 0.17049 0.17187
 N4 N 0.20343 0.20191 0.15630
 C5 C 0.17192 0.21777 0.17179
 N6 N 0.15640 0.20189 0.20327
 C7 C -0.17160 0.82939 0.21934
 N8 N -0.20309 0.84488 0.20332
 C9 C -0.21911 0.82940 0.17182
 N10 N -0.20313 0.79791 0.15634
 C11 C -0.17169 0.78199 0.17188
 N12 N -0.15614 0.79790 0.20333
 C13 C -0.17256 0.17113 -0.21960
 N14 N -0.15713 0.20258 -0.20358
 C15 C -0.17268 0.21851 -0.17211
 N16 N -0.20413 0.20265 -0.15656
 C17 C -0.22009 0.17119 -0.17205
 N18 N -0.20405 0.15569 -0.20358
 C19 C 0.17268 0.82869 -0.21816
 N20 N 0.20415 0.84414 -0.20225
 C21 C 0.22021 0.82857 -0.17079
 N22 N 0.20425 0.79706 -0.15533
 C23 C 0.17278 0.78124 -0.17088
 N24 N 0.15721 0.79724 -0.20228
 C25 C 0.17055 1.17167 0.78063
 N26 N 0.20202 1.15617 0.79665
 C27 C 0.21793 1.17169 0.82813
 N28 N 0.20203 1.20314 0.84366
 C29 C 0.17056 1.21916 0.82816
 N30 N 0.15508 1.20316 0.79665
 C31 C 0.82951 0.82795 0.78041
 N32 N 0.79806 0.84343 0.79650
 C33 C 0.78217 0.82790 0.82797
 N34 N 0.79806 0.79643 0.84345
 C35 C 0.82952 0.78041 0.82790
 N36 N 0.84500 0.79643 0.79636
 C37 C 0.17122 0.82851 1.21963
 N38 N 0.20271 0.84391 1.20362
 C39 C 0.21871 0.82833 1.17219
 N40 N 0.20287 0.79688 1.15667
 C41 C 0.17139 0.78105 1.17219
 N42 N 0.15578 0.79702 1.20364
 C43 C 0.82901 1.17243 1.21941
 N44 N 0.79758 1.15696 1.20338
 C45 C 0.78165 1.17247 1.17190
 N46 N 0.79749 1.20391 1.15637
 C47 C 0.82893 1.21992 1.17186
 N48 N 0.84444 1.20392 1.20340
 N49 N 0.46062 0.95928 1.06754
 N50 N 0.43181 0.95454 1.09099
 N51 N 0.54045 0.93312 1.04108
 N52 N 0.56932 0.90978 1.04586
 N53 N 0.54039 0.95948 1.06740
 N54 N 0.56921 0.95483 1.09085
 N55 N 0.46068 0.93293 1.04120
 N56 N 0.43193 0.90951 1.04599
 C57 C 0.41435 0.92341 1.07713
 C58 C 0.58685 0.92375 1.07698
 N59 N 0.54019 0.95924 0.93287
 N60 N 0.56898 0.95449 0.90937
 N61 N 0.46054 0.93279 0.95943
 N62 N 0.43180 0.90932 0.95477
 N63 N 0.46041 0.95906 0.93301
 N64 N 0.43157 0.95421 0.90963
 N65 N 0.54031 0.93298 0.95930
 N66 N 0.56917 0.90962 0.95454
 Mn67 Mn 0.50050 0.93250 1.00025
 C68 C 0.58663 0.92346 0.92333
 C69 C 0.41415 0.92311 0.92363
 N70 N 0.54007 1.04108 1.06726
 N71 N 0.56889 1.04592 1.09065
 N72 N 0.46015 1.06715 1.04100
 N73 N 0.43124 1.09046 1.04579
 N74 N 0.46030 1.04087 1.06741
 N75 N 0.43151 1.04555 1.09091
 N76 N 0.53994 1.06734 1.04085
 N77 N 0.56867 1.09081 1.04551
 Mn78 Mn 0.50034 1.00018 1.06786
 C79 C 0.58631 1.07702 1.07666
 C80 C 0.41380 1.07656 1.07700
 N81 N 0.46012 1.04067 0.93286
 N82 N 0.43128 1.04533 0.90945
 N83 N 0.53985 1.06721 0.95904
 N84 N 0.56858 1.09065 0.95420
 N85 N 0.53990 1.04085 0.93272
 N86 N 0.56867 1.04560 0.90922
 N87 N 0.46007 1.06702 0.95920
 N88 N 0.43119 1.09036 0.95445
 Mn89 Mn 0.50015 0.99995 0.93241
 Mn90 Mn 0.50000 1.06764 1.00002
 Cl91 Cl 0.50025 1.00007 1.00013
 C92 C 0.41365 1.07641 0.92334
 C93 C 0.58614 1.07675 0.92303
 N94 N -0.06753 0.46006 0.04070
 N95 N -0.09099 0.43133 0.04545
 N96 N -0.04099 0.53968 0.06711
 N97 N -0.04566 0.56848 0.09057
 N98 N -0.06728 0.53981 0.04072
 N99 N -0.09060 0.56871 0.04546
 N100 N -0.04121 0.45996 0.06707
 N101 N -0.04600 0.43117 0.09050
 C102 C -0.07713 0.41373 0.07661
 C103 C -0.07669 0.58617 0.07664
 N104 N 0.06701 0.53923 0.04081
 N105 N 0.09045 0.56796 0.04557
 N106 N 0.04042 0.45959 0.06710
 N107 N 0.04512 0.43078 0.09055
 N108 N 0.06676 0.45951 0.04072
 N109 N 0.09012 0.43066 0.04547
 N110 N 0.04065 0.53932 0.06715
 N111 N 0.04540 0.56811 0.09059
 Mn112 Mn -0.00028 0.49964 0.06756
 C113 C 0.07655 0.58555 0.07672
 C114 C 0.07619 0.41316 0.07662
 N115 N -0.06720 0.53990 -0.04110
 N116 N -0.09051 0.56879 -0.04591
 N117 N -0.04111 0.46005 -0.06749
 N118 N -0.04592 0.43126 -0.09093
 N119 N -0.06746 0.46015 -0.04112
 N120 N -0.09094 0.43145 -0.04587
 N121 N -0.04083 0.53979 -0.06744
 N122 N -0.04545 0.56859 -0.09091
 Mn123 Mn -0.06782 0.49998 -0.00020
 C124 C -0.07652 0.58627 -0.07706
 C125 C -0.07708 0.41385 -0.07702
 N126 N 0.06684 0.45954 -0.04105
 N127 N 0.09017 0.43065 -0.04583
 N128 N 0.04083 0.53943 -0.06736
 N129 N 0.04570 0.56828 -0.09072
 N130 N 0.06711 0.53926 -0.04096
 N131 N 0.09060 0.56796 -0.04558
 N132 N 0.04054 0.45968 -0.06744
 N133 N 0.04522 0.43090 -0.09092
 Mn134 Mn 0.06738 0.49938 -0.00012
 Mn135 Mn -0.00014 0.49974 -0.06789
 Cl136 Cl -0.00022 0.49968 -0.00017
 C137 C 0.07626 0.41321 -0.07702
 C138 C 0.07683 0.58564 -0.07670
 N139 N 1.04046 0.06742 0.53998
 N140 N 1.04515 0.09082 0.56884
 N141 N 1.06693 0.04114 0.46008
 N142 N 1.09038 0.04583 0.43125
 N143 N 1.04059 0.06747 0.46004
 N144 N 1.04538 0.09085 0.43117
 N145 N 1.06683 0.04112 0.53998
 N146 N 1.09021 0.04587 0.56885
 C147 C 1.07626 0.07695 0.58643
 C148 C 1.07653 0.07692 0.41364
 N149 N 1.04071 -0.06674 0.45996
 N150 N 1.04551 -0.09015 0.43112
 N151 N 1.06694 -0.04046 0.53989
 N152 N 1.09037 -0.04520 0.56872
 N153 N 1.04068 -0.06680 0.53987
 N154 N 1.04548 -0.09022 0.56871
 N155 N 1.06702 -0.04044 0.45999
 N156 N 1.09047 -0.04521 0.43115
 Mn157 Mn 1.06738 0.00034 0.49998
 C158 C 1.07662 -0.07629 0.41357
 C159 C 1.07656 -0.07630 0.58628
 N160 N 0.95893 0.06748 0.46001
 N161 N 0.95421 0.09094 0.43120
 N162 N 0.93253 0.04107 0.53988
 N163 N 0.90905 0.04578 0.56870
 N164 N 0.95881 0.06740 0.53993
 N165 N 0.95394 0.09078 0.56880
 N166 N 0.93262 0.04118 0.45995
 N167 N 0.90924 0.04600 0.43108
 Mn168 Mn 0.99970 0.06790 0.49999
 C169 C 0.92314 0.07712 0.41356
 C170 C 0.92283 0.07686 0.58632
 N171 N 0.95905 -0.06684 0.53980
 N172 N 0.95436 -0.09030 0.56861
 N173 N 0.93272 -0.04045 0.45991
 N174 N 0.90932 -0.04518 0.43106
 N175 N 0.95908 -0.06676 0.45989
 N176 N 0.95435 -0.09015 0.43102
 N177 N 0.93266 -0.04056 0.53984
 N178 N 0.90926 -0.04540 0.56871
 Mn179 Mn 0.99988 -0.06724 0.49988
 Mn180 Mn 0.93218 0.00031 0.49990
 Cl181 Cl 0.99978 0.00033 0.49994
 C182 C 0.92323 -0.07651 0.58623
 C183 C 0.92323 -0.07625 0.41346
 C184 C 1.12312 0.12255 0.31803
 C185 C 1.15541 0.10617 0.30183
 C186 C 1.17157 0.12189 0.26918
 C187 C 1.15562 0.15440 0.25214
 C188 C 1.12295 0.17051 0.26880
 C189 C 1.10692 0.15468 0.30143
 C190 C 1.10663 0.10646 0.35174
 C191 C 1.09284 0.09302 0.38000
 H192 H 1.16817 0.08125 0.31448
 H193 H 1.19660 0.10849 0.25746
 H194 H 1.10963 0.19544 0.25679
 H195 H 1.08189 0.16757 0.31375
 C196 C 0.87697 -0.12228 0.31790
 C197 C 0.89319 -0.15451 0.30148
 C198 C 0.87725 -0.17048 0.26888
 C199 C 0.84465 -0.15442 0.25207
 C200 C 0.82868 -0.12182 0.26894
 C201 C 0.84474 -0.10596 0.30155
 C202 C 0.89333 -0.10603 0.35159
 C203 C 0.90700 -0.09245 0.37983
 H204 H 0.91817 -0.16736 0.31393
 H205 H 0.89057 -0.19548 0.25700
 H206 H 0.80370 -0.10843 0.25711
 H207 H 0.83196 -0.08097 0.31405
 C208 C 0.87621 0.12282 0.68184
 C209 C 0.89236 0.15502 0.69829
 C210 C 0.87634 0.17098 0.73089
 C211 C 0.84374 0.15494 0.74766
 C212 C 0.82783 0.12237 0.73075
 C213 C 0.84397 0.10652 0.69814
 C214 C 0.89268 0.10658 0.64816
 C215 C 0.90646 0.09303 0.61993
 H216 H 0.91735 0.16785 0.68588
 H217 H 0.88961 0.19595 0.74279
 H218 H 0.80284 0.10901 0.74256
 H219 H 0.83125 0.08155 0.68561
 C220 C 1.12309 -0.12222 0.68177
 C221 C 1.10692 -0.15443 0.69826
 C222 C 1.12297 -0.17035 0.73084
 C223 C 1.15551 -0.15424 0.74741
 C224 C 1.17149 -0.12177 0.73063
 C225 C 1.15536 -0.10591 0.69803
 C226 C 1.10663 -0.10602 0.64811
 C227 C 1.09287 -0.09249 0.61988
 H228 H 1.08193 -0.16728 0.68590
 H229 H 1.10990 -0.19532 0.74297
 H230 H 1.19649 -0.10862 0.74259
 H231 H 1.16809 -0.08095 0.68547
 C232 C 0.31817 1.12234 1.12338
 C233 C 0.30186 1.10603 1.15566
 C234 C 0.26921 1.12183 1.17171
 C235 C 0.25226 1.15435 1.15566
 C236 C 0.26904 1.17040 1.12301
 C237 C 0.30168 1.15449 1.10709
 C238 C 0.35189 1.10616 1.10701
 C239 C 0.38016 1.09265 1.09330
 H240 H 0.31441 1.08110 1.16850
 H241 H 0.25740 1.10847 1.19673
 H242 H 0.25711 1.19533 1.10963
 H243 H 0.31410 1.16733 1.08206
 C244 C 0.31872 0.87686 0.87761
 C245 C 0.30243 0.84461 0.89387
 C246 C 0.26985 0.82864 0.87799
 C247 C 0.25294 0.84472 0.84542
 C248 C 0.26969 0.87733 0.82941
 C249 C 0.30228 0.89318 0.84541
 C250 C 0.35238 0.89315 0.89390
 C251 C 0.38058 0.90681 0.90748
 H252 H 0.31496 0.83176 0.91884
 H253 H 0.25806 0.80364 0.89133
 H254 H 0.25779 0.89072 0.80444
 H255 H 0.31467 0.91818 0.83260
 C256 C 0.68237 0.87778 1.12330
 C257 C 0.69873 0.89409 1.15554
 C258 C 0.73133 0.87821 1.17159
 C259 C 0.74817 0.84561 1.15559
 C260 C 0.73134 0.82956 1.12298
 C261 C 0.69875 0.84555 1.10705
 C262 C 0.64869 0.89404 1.10695
 C263 C 0.62046 0.90760 1.09326
 H264 H 0.68625 0.91908 1.16834
 H265 H 0.74317 0.89158 1.19658
 H266 H 0.74320 0.80456 1.10964
 H267 H 0.68630 0.83270 1.08206
 C268 C 0.68147 1.12286 0.87657
 C269 C 0.69784 1.10657 0.84429
 C270 C 0.73040 1.12243 0.82821
 C271 C 0.74721 1.15501 0.84420
 C272 C 0.73037 1.17106 0.87684
 C273 C 0.69781 1.15508 0.89281
 C274 C 0.64785 1.10658 0.89297
 C275 C 0.61968 1.09297 0.90670
 H276 H 0.68541 1.08160 0.83150
 H277 H 0.74225 1.10907 0.80319
 H278 H 0.74219 1.19603 0.89018
 H279 H 0.68536 1.16792 0.91783
 C280 C 0.12246 0.31773 0.12264
 C281 C 0.10620 0.30128 0.15489
 C282 C 0.12221 0.26872 0.17084
 C283 C 0.15478 0.25215 0.15471
 C284 C 0.17085 0.26891 0.12220
 C285 C 0.15477 0.30147 0.10631
 C286 C 0.10608 0.35137 0.10641
 C287 C 0.09240 0.37958 0.09284
 H288 H 0.08118 0.31364 0.16775
 H289 H 0.10906 0.25662 0.19583
 H290 H 0.19588 0.25695 0.10902
 H291 H 0.16758 0.31400 0.08133
 C292 C -0.12343 0.31853 -0.12304
 C293 C -0.15569 0.30227 -0.10669
 C294 C -0.17171 0.26970 -0.12256
 C295 C -0.15562 0.25293 -0.15508
 C296 C -0.12311 0.26951 -0.17124
 C297 C -0.10717 0.30207 -0.15531
 C298 C -0.10707 0.35215 -0.10679
 C299 C -0.09338 0.38032 -0.09322
 H300 H -0.16850 0.31479 -0.08169
 H301 H -0.19670 0.25775 -0.10935
 H302 H -0.10996 0.25740 -0.19624
 H303 H -0.08218 0.31443 -0.16819
 C304 C 0.12339 0.68110 -0.12222
 C305 C 0.10714 0.69775 -0.15437
 C306 C 0.12313 0.73035 -0.17015
 C307 C 0.15569 0.74678 -0.15395
 C308 C 0.17176 0.72983 -0.12153
 C309 C 0.15568 0.69721 -0.10581
 C310 C 0.10695 0.64743 -0.10615
 C311 C 0.09318 0.61922 -0.09274
 H312 H 0.08212 0.68551 -0.16729
 H313 H 0.10999 0.74260 -0.19508
 H314 H 0.19678 0.74168 -0.10831
 H315 H 0.16848 0.68453 -0.08089
 C316 C -0.12262 0.68177 0.12275
 C317 C -0.15485 0.69817 0.10644
 C318 C -0.17079 0.73081 0.12233
 C319 C -0.15466 0.74751 0.15483
 C320 C -0.12216 0.73081 0.17095
 C321 C -0.10629 0.69817 0.15499
 C322 C -0.10638 0.64806 0.10649
 C323 C -0.09281 0.61981 0.09287
 H324 H -0.16771 0.68570 0.08146
 H325 H -0.19577 0.74286 0.10915
 H326 H -0.10898 0.74286 0.19593
 H327 H -0.08132 0.68570 0.16784
 C328 C 1.12223 0.12319 0.68202
 C329 C 1.15444 0.10693 0.69846
 C330 C 1.17041 0.12284 0.73108
 C331 C 1.15436 0.15545 0.74788
 C332 C 1.12179 0.17146 0.73099
 C333 C 1.10593 0.15543 0.69836
 C334 C 1.10599 0.10686 0.64832
 C335 C 1.09242 0.09320 0.62006
 H336 H 1.16727 0.08194 0.68602
 H337 H 1.19538 0.10950 0.74297
 H338 H 1.10842 0.19646 0.74282
 H339 H 1.08096 0.16824 0.68585
 C340 C 0.87754 -0.12320 0.68179
 C341 C 0.89393 -0.15547 0.69798
 C342 C 0.87818 -0.17165 0.73061
 C343 C 0.84562 -0.15574 0.74765
 C344 C 0.82949 -0.12310 0.73099
 C345 C 0.84535 -0.10705 0.69838
 C346 C 0.89365 -0.10669 0.64809
 C347 C 0.90711 -0.09287 0.61985
 H348 H 0.91889 -0.16819 0.68534
 H349 H 0.89160 -0.19666 0.74233
 H350 H 0.80453 -0.10982 0.74300
 H351 H 0.83244 -0.08204 0.68607
 C352 C 1.12276 -0.12272 0.31809
 C353 C 1.15499 -0.10657 0.30165
 C354 C 1.17100 -0.12259 0.26908
 C355 C 1.15497 -0.15518 0.25232
 C356 C 1.12237 -0.17108 0.26921
 C357 C 1.10647 -0.15494 0.30180
 C358 C 1.10648 -0.10629 0.35175
 C359 C 1.09287 -0.09256 0.37997
 H360 H 1.16781 -0.08159 0.31406
 H361 H 1.19599 -0.10932 0.25719
 H362 H 1.10902 -0.19605 0.25742
 H363 H 1.08148 -0.16766 0.31432
 C364 C 0.87726 0.12370 0.31801
 C365 C 0.84508 0.10754 0.30151
 C366 C 0.82914 0.12355 0.26890
 C367 C 0.84519 0.15615 0.25216
 C368 C 0.87774 0.17207 0.26912
 C369 C 0.89356 0.15594 0.30174
 C370 C 0.89346 0.10724 0.35170
 C371 C 0.90698 0.09346 0.37994
 H372 H 0.83223 0.08255 0.31389
 H373 H 0.80419 0.11026 0.25697
 H374 H 0.89109 0.19706 0.25733
 H375 H 0.91851 0.16867 0.31430
 C376 C 0.12222 0.31769 -0.12333
 C377 C 0.15443 0.30128 -0.10706
 C378 C 0.17041 0.26869 -0.12298
 C379 C 0.15437 0.25189 -0.15561
 C380 C 0.12179 0.26876 -0.17163
 C381 C 0.10593 0.30136 -0.15559
 C382 C 0.10596 0.35137 -0.10699
 C383 C 0.09239 0.37960 -0.09331
 H384 H 0.16727 0.31371 -0.08205
 H385 H 0.19539 0.25681 -0.10962
 H386 H 0.10843 0.25693 -0.19664
 H387 H 0.08095 0.31385 -0.16841
 C388 C -0.12303 0.31837 0.12311
 C389 C -0.10666 0.30211 0.15539
 C390 C -0.12242 0.26954 0.17153
 C391 C -0.15497 0.25262 0.15558
 C392 C -0.17109 0.26936 0.12293
 C393 C -0.15522 0.30192 0.10691
 C394 C -0.10688 0.35200 0.10664
 C395 C -0.09335 0.38019 0.09289
 H396 H -0.08171 0.31464 0.16815
 H397 H -0.10901 0.25776 0.19655
 H398 H -0.19604 0.25745 0.10961
 H399 H -0.16811 0.31429 0.08189
 C400 C -0.12228 0.68182 -0.12353
 C401 C -0.10595 0.69811 -0.15581
 C402 C -0.12176 0.73073 -0.17189
 C403 C -0.15432 0.74766 -0.15587
 C404 C -0.17040 0.73090 -0.12323
 C405 C -0.15448 0.69830 -0.10728
 C406 C -0.10610 0.64813 -0.10713
 C407 C -0.09261 0.61989 -0.09339
 H408 H -0.08099 0.68557 -0.16862
 H409 H -0.10837 0.74253 -0.19691
 H410 H -0.19537 0.74281 -0.10986
 H411 H -0.16735 0.68590 -0.08226
 C412 C 0.12250 0.68095 0.12295
 C413 C 0.10609 0.69735 0.15518
 C414 C 0.12190 0.72995 0.17119
 C415 C 0.15442 0.74660 0.15513
 C416 C 0.17064 0.72988 0.12265
 C417 C 0.15476 0.69729 0.10671
 C418 C 0.10630 0.64730 0.10661
 C419 C 0.09274 0.61910 0.09295
 H420 H 0.08109 0.68492 0.16797
 H421 H 0.10866 0.74202 0.19615
 H422 H 0.19564 0.74189 0.10952
 H423 H 0.16768 0.68481 0.08175
 C424 C 0.31808 1.12246 0.87726
 C425 C 0.30167 1.10618 0.84500
 C426 C 0.26905 1.12211 0.82905
 C427 C 0.25238 1.15461 0.84518
 C428 C 0.26909 1.17069 0.87770
 C429 C 0.30171 1.15469 0.89359
 C430 C 0.35177 1.10617 0.89351
 C431 C 0.38002 1.09256 0.90712
 H432 H 0.31411 1.08121 0.83214
 H433 H 0.25699 1.10896 0.80405
 H434 H 0.25706 1.19567 0.89089
 H435 H 0.31419 1.16752 0.91858
 C436 C 0.31888 0.87736 1.12317
 C437 C 0.30238 0.89369 1.15537
 C438 C 0.26976 0.87783 1.17130
 C439 C 0.25318 0.84532 1.15518
 C440 C 0.26999 0.82917 1.12271
 C441 C 0.30261 0.84511 1.10686
 C442 C 0.35255 0.89362 1.10693
 C443 C 0.38077 0.90723 1.09334
 H444 H 0.31475 0.91868 1.16822
 H445 H 0.25762 0.89102 1.19625
 H446 H 0.25802 0.80419 1.10954
 H447 H 0.31517 0.83225 1.08190
 C448 C 0.68166 1.12329 1.12270
 C449 C 0.69796 1.15553 1.10638
 C450 C 0.73052 1.17151 1.12230
 C451 C 0.74725 1.15542 1.15483
 C452 C 0.73064 1.12292 1.17095
 C453 C 0.69808 1.10700 1.15496
 C454 C 0.64804 1.10698 1.10641
 C455 C 0.61985 1.09332 1.09282
 H456 H 0.68546 1.16835 1.08139
 H457 H 0.74250 1.19649 1.10913
 H458 H 0.74272 1.10976 1.19595
 H459 H 0.68569 1.08203 1.16781
 C460 C 0.68210 0.87723 0.87719
 C461 C 0.69854 0.89350 0.84494
 C462 C 0.73113 0.87754 0.82896
 C463 C 0.74774 0.84500 0.84506
 C464 C 0.73100 0.82891 0.87758
 C465 C 0.69840 0.84495 0.89349
 C466 C 0.64844 0.89358 0.89347
 C467 C 0.62022 0.90724 0.90708
 H468 H 0.68615 0.91851 0.83210
 H469 H 0.74322 0.89069 0.80397
 H470 H 0.74298 0.80390 0.89073
 H471 H 0.68589 0.83213 0.91848
   
