data_POSCAR
  _audit_creation_date              2014-09-24
  _audit_creation_method            'ToBaCCo'
  _symmetry_space_group_name_H-M    'P1'
  _symmetry_Int_Tables_number       1
  _symmetry_cell_setting            triclinic
  loop_
  _symmetry_equiv_pos_as_xyz
 x,y,z
_cell_length_a 34.9122
_cell_length_b 34.9201
_cell_length_c 35.0042
_cell_angle_alpha 89.818000
_cell_angle_beta 89.846800
_cell_angle_gamma 90.024900
loop_
  _atom_site_label
  _atom_site_type_symbol
  _atom_site_fract_x
  _atom_site_fract_y
  _atom_site_fract_z
C1 C 0.17526 0.23031 0.21908
 C2 C 0.19646 0.24090 0.18664
 C3 C 0.22804 0.21968 0.17589
 C4 C 0.23898 0.18760 0.19746
 C5 C 0.21812 0.17719 0.22941
 C6 C 0.18603 0.19872 0.24031
 C7 C 0.14321 0.24550 0.23616
 N8 N 0.13423 0.22403 0.26747
 C9 C 0.16050 0.19535 0.27011
 C10 C 0.23516 0.14512 0.24463
 N11 N 0.26611 0.13577 0.22283
 C12 C 0.26855 0.16182 0.19389
 C13 C 0.24292 0.23645 0.14350
 N14 N 0.22131 0.26759 0.13431
 C15 C 0.19280 0.27039 0.16077
 H16 H 0.12739 0.27011 0.22598
 H17 H 0.16151 0.17377 0.29232
 H18 H 0.22522 0.12956 0.26952
 H19 H 0.29049 0.16255 0.17203
 H20 H 0.26748 0.22618 0.12769
 H21 H 0.17118 0.29253 0.16175
 C22 C 0.67532 0.72976 0.71918
 C23 C 0.69664 0.74050 0.68683
 C24 C 0.72825 0.71929 0.67609
 C25 C 0.73907 0.68709 0.69753
 C26 C 0.71808 0.67655 0.72936
 C27 C 0.68600 0.69806 0.74027
 C28 C 0.64324 0.74489 0.73632
 N29 N 0.63420 0.72327 0.76752
 C30 C 0.66045 0.69456 0.77003
 C31 C 0.73501 0.64439 0.74448
 N32 N 0.76604 0.63510 0.72276
 C33 C 0.76862 0.66129 0.69396
 C34 C 0.74328 0.73616 0.64384
 N35 N 0.72176 0.76737 0.63468
 C36 C 0.69314 0.77011 0.66105
 H37 H 0.62748 0.76957 0.72624
 H38 H 0.66147 0.67287 0.79212
 H39 H 0.72493 0.62875 0.76926
 H40 H 0.79064 0.66210 0.67219
 H41 H 0.76788 0.72591 0.62806
 H42 H 0.67154 0.79227 0.66199
 C43 C 0.32402 0.77322 0.71741
 C44 C 0.30352 0.76276 0.68468
 C45 C 0.27200 0.78383 0.67355
 C46 C 0.26039 0.81561 0.69510
 C47 C 0.28030 0.82564 0.72753
 C48 C 0.31247 0.80437 0.73873
 C49 C 0.35600 0.75824 0.73471
 N50 N 0.36424 0.77943 0.76622
 C51 C 0.33750 0.80769 0.76882
 C52 C 0.26236 0.85708 0.74290
 N53 N 0.23183 0.86679 0.72060
 C54 C 0.23072 0.84116 0.69119
 C55 C 0.25751 0.76688 0.64126
 N56 N 0.27928 0.73572 0.63256
 C57 C 0.30757 0.73319 0.65914
 H58 H 0.37231 0.73402 0.72446
 H59 H 0.33588 0.82900 0.79111
 H60 H 0.27182 0.87187 0.76825
 H61 H 0.20960 0.84012 0.66870
 H62 H 0.23290 0.77681 0.62537
 H63 H 0.32908 0.71097 0.66063
 C64 C 0.82406 0.27032 0.21946
 C65 C 0.80272 0.25878 0.18756
 C66 C 0.77136 0.27996 0.17609
 C67 C 0.76073 0.31287 0.19638
 C68 C 0.78185 0.32426 0.22763
 C69 C 0.81383 0.30291 0.23913
 C70 C 0.85581 0.25534 0.23724
 N71 N 0.86547 0.27810 0.26741
 C72 C 0.83952 0.30733 0.26844
 C73 C 0.76488 0.35671 0.24196
 N74 N 0.73368 0.36530 0.22034
 C75 C 0.73109 0.33850 0.19230
 C76 C 0.75645 0.26241 0.14433
 N77 N 0.77786 0.23089 0.13612
 C78 C 0.80622 0.22854 0.16268
 H79 H 0.87088 0.23002 0.22789
 H80 H 0.83834 0.33004 0.28931
 H81 H 0.77486 0.37288 0.26629
 H82 H 0.70882 0.33705 0.17092
 H83 H 0.73215 0.27255 0.12810
 H84 H 0.82777 0.20635 0.16422
 C85 C 0.82525 0.72731 0.28001
 C86 C 0.80401 0.73831 0.31226
 C87 C 0.77249 0.71712 0.32347
 C88 C 0.76161 0.68472 0.30255
 C89 C 0.78261 0.67385 0.27092
 C90 C 0.81474 0.69526 0.25966
 C91 C 0.85708 0.74251 0.26237
 N92 N 0.86653 0.72049 0.23157
 C93 C 0.84034 0.69143 0.23003
 C94 C 0.76536 0.64180 0.25605
 N95 N 0.73412 0.63296 0.27772
 C96 C 0.73178 0.65922 0.30630
 C97 C 0.75761 0.73420 0.35557
 N98 N 0.77919 0.76547 0.36423
 C99 C 0.80762 0.76810 0.33763
 H100 H 0.87219 0.76761 0.27216
 H101 H 0.83900 0.66914 0.20874
 H102 H 0.77520 0.62607 0.23134
 H103 H 0.70957 0.66041 0.32788
 H104 H 0.73313 0.72399 0.37164
 H105 H 0.82924 0.79026 0.33630
 C106 C 0.32434 0.22820 -0.22050
 C107 C 0.30336 0.23894 -0.18800
 C108 C 0.27206 0.21752 -0.17661
 C109 C 0.26108 0.18525 -0.19767
 C110 C 0.28154 0.17486 -0.22973
 C111 C 0.31365 0.19632 -0.24103
 C112 C 0.35630 0.24330 -0.23799
 N113 N 0.36577 0.22124 -0.26873
 C114 C 0.33936 0.19241 -0.27056
 C115 C 0.26403 0.14303 -0.24476
 N116 N 0.23317 0.13349 -0.22261
 C117 C 0.23156 0.15949 -0.19358
 C118 C 0.25734 0.23439 -0.14433
 N119 N 0.27879 0.26577 -0.13575
 C120 C 0.30704 0.26863 -0.16252
 H121 H 0.37180 0.26807 -0.22792
 H122 H 0.33804 0.17021 -0.29196
 H123 H 0.27391 0.12793 -0.26981
 H124 H 0.21001 0.16081 -0.17140
 H125 H 0.23299 0.22405 -0.12816
 H126 H 0.32848 0.29096 -0.16396
 C127 C 0.67704 0.26916 -0.21925
 C128 C 0.69774 0.25870 -0.18652
 C129 C 0.72849 0.28065 -0.17492
 C130 C 0.73914 0.31321 -0.19595
 C131 C 0.71895 0.32334 -0.22822
 C132 C 0.68744 0.30131 -0.23978
 C133 C 0.64559 0.25357 -0.23698
 N134 N 0.63615 0.27557 -0.26790
 C135 C 0.66207 0.30486 -0.26956
 C136 C 0.73605 0.35559 -0.24314
 N137 N 0.76638 0.36564 -0.22071
 C138 C 0.76808 0.33954 -0.19162
 C139 C 0.74307 0.26395 -0.14245
 N140 N 0.72206 0.23218 -0.13396
 C141 C 0.69423 0.22888 -0.16095
 H142 H 0.63039 0.22851 -0.22692
 H143 H 0.66329 0.32717 -0.29098
 H144 H 0.72624 0.37061 -0.26831
 H145 H 0.78932 0.33855 -0.16924
 H146 H 0.76699 0.27466 -0.12608
 H147 H 0.67322 0.20616 -0.16244
 C148 C 0.17695 0.77046 0.28105
 C149 C 0.19755 0.75993 0.31376
 C150 C 0.22874 0.78138 0.32507
 C151 C 0.23987 0.81364 0.30376
 C152 C 0.21988 0.82372 0.27135
 C153 C 0.18808 0.80203 0.25994
 C154 C 0.14512 0.75529 0.26370
 N155 N 0.13653 0.77676 0.23232
 C156 C 0.16297 0.80538 0.22989
 C157 C 0.23721 0.85577 0.25631
 N158 N 0.26749 0.86581 0.27882
 C159 C 0.26900 0.83979 0.30801
 C160 C 0.24331 0.76439 0.35741
 N161 N 0.22192 0.73287 0.36597
 C162 C 0.19378 0.73011 0.33927
 H163 H 0.12914 0.73077 0.27392
 H164 H 0.16432 0.82708 0.20783
 H165 H 0.22747 0.87075 0.23110
 H166 H 0.29005 0.83890 0.33056
 H167 H 0.26763 0.77460 0.37351
 H168 H 0.17251 0.70764 0.33777
 C169 C 0.47926 0.42474 0.46871
 C170 C 0.48981 0.44584 0.43616
 C171 C 0.46874 0.47756 0.42548
 C172 C 0.43681 0.48868 0.44717
 C173 C 0.42643 0.46792 0.47921
 C174 C 0.44786 0.43572 0.49010
 C175 C 0.49441 0.39267 0.48584
 N176 N 0.47316 0.38388 0.51737
 C177 C 0.44461 0.41032 0.52004
 C178 C 0.39447 0.48516 0.49448
 N179 N 0.38517 0.51610 0.47261
 C180 C 0.41115 0.51835 0.44361
 C181 C 0.48551 0.49241 0.39307
 N182 N 0.51649 0.47063 0.38378
 C183 C 0.51920 0.44205 0.41019
 H184 H 0.51890 0.37679 0.47552
 H185 H 0.42318 0.41160 0.54237
 H186 H 0.37894 0.47535 0.51943
 H187 H 0.41190 0.54021 0.42167
 H188 H 0.47541 0.51709 0.37730
 H189 H 0.54128 0.42034 0.41105
 C190 C -0.01940 -0.07319 0.97130
 C191 C -0.00901 -0.05229 0.93857
 C192 C -0.03090 -0.02145 0.92709
 C193 C -0.06332 -0.01083 0.94827
 C194 C -0.07337 -0.03119 0.98059
 C195 C -0.05138 -0.06285 0.99203
 C196 C -0.00387 -0.10486 0.98876
 N197 N -0.02569 -0.11453 1.01979
 C198 C -0.05484 -0.08850 1.02174
 C199 C -0.10553 -0.01410 0.99560
 N200 N -0.11558 0.01638 0.97319
 C201 C -0.08956 0.01818 0.94403
 C202 C -0.01430 -0.00675 0.89454
 N203 N 0.01739 -0.02777 0.88590
 C204 C 0.02070 -0.05574 0.91290
 H205 H 0.02106 -0.11998 0.97844
 H206 H -0.07710 -0.08748 1.04322
 H207 H -0.12049 -0.02400 1.02082
 H208 H -0.08859 0.03952 0.92162
 H209 H -0.02507 0.01727 0.87823
 H210 H 0.04331 -0.07684 0.91437
 C211 C 1.02151 0.57377 0.96910
 C212 C 1.01043 0.55294 0.93675
 C213 C 1.03181 0.52181 0.92512
 C214 C 1.06439 0.51086 0.94574
 C215 C 1.07511 0.53112 0.97771
 C216 C 1.05366 0.56306 0.98930
 C217 C 1.00648 0.60552 0.98679
 N218 N 1.02877 0.61484 1.01737
 C219 C 1.05773 0.58854 1.01887
 C220 C 1.10715 0.51355 0.99237
 N221 N 1.11647 0.48292 0.97004
 C222 C 1.09012 0.48145 0.94130
 C223 C 1.01453 0.50710 0.89313
 N224 N 0.98292 0.52838 0.88498
 C225 C 0.98033 0.55654 0.91169
 H226 H 0.98148 0.62086 0.97701
 H227 H 1.08018 0.58715 1.04001
 H228 H 1.12253 0.52319 1.01729
 H229 H 1.08855 0.46004 0.91912
 H230 H 1.02473 0.48285 0.87687
 H231 H 0.95789 0.57783 0.91339
 C232 C 0.52291 0.07380 0.46818
 C233 C 0.51226 0.05341 0.43542
 C234 C 0.53335 0.02200 0.42406
 C235 C 0.56531 0.01040 0.44533
 C236 C 0.57551 0.03014 0.47780
 C237 C 0.55422 0.06221 0.48928
 C238 C 0.50802 0.10570 0.48568
 N239 N 0.52939 0.11388 0.51713
 C240 C 0.55769 0.08712 0.51944
 C241 C 0.60714 0.01219 0.49284
 N242 N 0.61679 -0.01814 0.47027
 C243 C 0.59094 -0.01914 0.44104
 C244 C 0.51625 0.00757 0.39182
 N245 N 0.48497 0.02924 0.38336
 C246 C 0.48250 0.05745 0.41003
 H247 H 0.48373 0.12198 0.47556
 H248 H 0.57920 0.08541 0.54155
 H249 H 0.62213 0.02152 0.51812
 H250 H 0.58978 -0.04014 0.41846
 H251 H 0.52617 -0.01694 0.37579
 H252 H 0.46021 0.07889 0.41166
 C253 C -0.02228 0.07588 0.53141
 C254 C -0.01144 0.05468 0.56373
 C255 C -0.03220 0.02272 0.57440
 C256 C -0.06405 0.01136 0.55286
 C257 C -0.07468 0.03221 0.52103
 C258 C -0.05364 0.06471 0.51022
 C259 C -0.00748 0.10820 0.51435
 N260 N -0.02894 0.11694 0.48308
 C261 C -0.05725 0.09025 0.48046
 C262 C -0.10637 0.01465 0.50574
 N263 N -0.11525 -0.01661 0.52736
 C264 C -0.08930 -0.01872 0.55627
 C265 C -0.01521 0.00785 0.60657
 N266 N 0.01570 0.02980 0.61574
 C267 C 0.01805 0.05854 0.58942
 H268 H 0.01690 0.12430 0.52450
 H269 H -0.07870 0.08891 0.45828
 H270 H -0.12196 0.02444 0.48090
 H271 H -0.08828 -0.04079 0.57799
 H272 H -0.02516 -0.01702 0.62216
 H273 H 0.03990 0.08047 0.58835
 C274 C 0.47845 0.57434 0.02961
 C275 C 0.48984 0.55274 0.06151
 C276 C 0.46877 0.52108 0.07261
 C277 C 0.43611 0.51045 0.05195
 C278 C 0.42485 0.53186 0.02073
 C279 C 0.44608 0.56409 0.00962
 C280 C 0.49341 0.60634 0.01206
 N281 N 0.47084 0.61612 -0.01824
 C282 C 0.44173 0.59002 -0.01962
 C283 C 0.39259 0.51490 0.00603
 N284 N 0.38398 0.48340 0.02738
 C285 C 0.41058 0.48062 0.05563
 C286 C 0.48612 0.50595 0.10446
 N287 N 0.51738 0.52755 0.11310
 C288 C 0.51980 0.55621 0.08673
 H289 H 0.51860 0.62149 0.02161
 H290 H 0.41922 0.58886 -0.04071
 H291 H 0.37655 0.52512 -0.01834
 H292 H 0.41197 0.45814 0.07691
 H293 H 0.47605 0.48139 0.12050
 H294 H 0.54187 0.57794 0.08557
 C295 C 0.51952 -0.07408 0.03183
 C296 C 0.50857 -0.05284 0.06399
 C297 C 0.52985 -0.02138 0.07491
 C298 C 0.56235 -0.01064 0.05381
 C299 C 0.57310 -0.03157 0.02215
 C300 C 0.55152 -0.06349 0.01107
 C301 C 0.50435 -0.10598 0.01458
 N302 N 0.52626 -0.11499 -0.01636
 C303 C 0.55517 -0.08891 -0.01860
 C304 C 0.60551 -0.01476 0.00732
 N305 N 0.61475 0.01614 0.02904
 C306 C 0.58829 0.01876 0.05757
 C307 C 0.51269 -0.00641 0.10695
 N308 N 0.48128 -0.02784 0.11577
 C309 C 0.47866 -0.05632 0.08942
 H310 H 0.47944 -0.12164 0.02436
 H311 H 0.57708 -0.08791 -0.04048
 H312 H 0.62133 -0.02483 -0.01728
 H313 H 0.58739 0.04073 0.07926
 H314 H 0.52290 0.01805 0.12282
 H315 H 0.45639 -0.07782 0.08827
 C316 C 1.01993 0.42741 0.53199
 C317 C 1.00950 0.44776 0.56488
 C318 C 1.03094 0.47891 0.57630
 C319 C 1.06306 0.49028 0.55491
 C320 C 1.07306 0.47053 0.52233
 C321 C 1.05142 0.43874 0.51083
 C322 C 1.00477 0.39566 0.51450
 N323 N 1.02619 0.38734 0.48304
 C324 C 1.05475 0.41382 0.48066
 C325 C 1.10495 0.48810 0.50722
 N326 N 1.11498 0.51826 0.52983
 C327 C 1.08911 0.51949 0.55918
 C328 C 1.01404 0.49323 0.60878
 N329 N 0.98259 0.47173 0.61734
 C330 C 0.97979 0.44376 0.59047
 H331 H 0.98033 0.37948 0.52462
 H332 H 1.07636 0.41526 0.45850
 H333 H 1.11983 0.47864 0.48186
 H334 H 1.08825 0.54040 0.58185
 H335 H 1.02426 0.51748 0.62497
 H336 H 0.95734 0.42247 0.58891
 C337 C 0.42914 0.01961 0.19670
 H338 H 0.42837 0.04691 0.21120
 C339 C 0.45397 0.01422 0.16589
 H340 H 0.47160 0.03796 0.15664
 C341 C 0.40639 -0.04404 0.19140
 H342 H 0.38831 -0.06689 0.20193
 C343 C 0.43113 -0.05086 0.16074
 H344 H 0.43163 -0.07909 0.14819
 N345 N 0.40565 -0.00914 0.20848
 C346 C 0.31886 0.05528 0.27076
 H347 H 0.32031 0.04128 0.29834
 C348 C 0.29400 0.08609 0.26527
 H349 H 0.27701 0.09588 0.28918
 C350 C 0.33987 0.05928 0.20650
 H351 H 0.35714 0.04819 0.18341
 C352 C 0.31510 0.08989 0.19961
 H353 H 0.31386 0.10188 0.17114
 Zn354 Zn 0.37400 0.00050 0.25126
 N355 N 0.34164 0.04294 0.24176
 C356 C 0.40856 0.04534 0.30967
 N357 N 0.40709 0.01030 0.29289
 C358 C 0.43100 -0.01835 0.30392
 C359 C 0.45669 -0.01284 0.33388
 C360 C 0.43414 0.05226 0.33948
 C361 C 0.31643 -0.05164 0.23361
 C362 C 0.29127 -0.08230 0.23882
 C363 C 0.31840 -0.09249 0.30141
 C364 C 0.34286 -0.06145 0.29497
 N365 N 0.34182 -0.04207 0.26129
 H366 H 0.39042 0.06825 0.29955
 H367 H 0.42988 -0.04569 0.28950
 H368 H 0.47454 -0.03656 0.34263
 H369 H 0.43507 0.08056 0.35187
 H370 H 0.31589 -0.03543 0.20722
 H371 H 0.27226 -0.08916 0.21557
 H372 H 0.32003 -0.10664 0.32881
 H373 H 0.36234 -0.05267 0.31719
 C374 C 0.29181 0.10396 0.22927
 C375 C 0.45537 -0.02147 0.14741
 C376 C 0.29188 -0.10371 0.27313
 C377 C 0.45858 0.02288 0.35223
 C378 C 0.06696 -0.01721 0.69767
 H379 H 0.06691 -0.04412 0.71308
 C380 C 0.04187 -0.01171 0.66719
 H381 H 0.02326 -0.03506 0.65922
 C382 C 0.09208 0.04529 0.68973
 H383 H 0.11129 0.06765 0.69902
 C384 C 0.06706 0.05225 0.65939
 H385 H 0.06757 0.08014 0.64594
 N386 N 0.09185 0.01084 0.70790
 C387 C 0.18361 -0.05214 0.76888
 H388 H 0.18428 -0.03624 0.79536
 C389 C 0.20792 -0.08118 0.76332
 H390 H 0.22744 -0.08833 0.78611
 C391 C 0.15506 -0.06004 0.70766
 H392 H 0.13538 -0.05115 0.68564
 C393 C 0.18098 -0.09255 0.70035
 H394 H 0.17880 -0.10628 0.67287
 Zn395 Zn 0.12445 0.00087 0.74990
 N396 N 0.15637 -0.04181 0.73998
 C397 C 0.09275 -0.04336 0.81065
 N398 N 0.09250 -0.00884 0.79260
 C399 C 0.06799 0.01935 0.80343
 C400 C 0.04327 0.01387 0.83435
 C401 C 0.06814 -0.05027 0.84146
 C402 C 0.18283 0.05253 0.73159
 C403 C 0.20861 0.08259 0.73701
 C404 C 0.18125 0.09265 0.79960
 C405 C 0.15623 0.06219 0.79299
 N406 N 0.15711 0.04314 0.75923
 H407 H 0.11162 -0.06582 0.80089
 H408 H 0.06792 0.04632 0.78813
 H409 H 0.02489 0.03725 0.84284
 H410 H 0.06854 -0.07820 0.85483
 H411 H 0.18326 0.03654 0.70516
 H412 H 0.22796 0.08936 0.71386
 H413 H 0.17977 0.10647 0.82710
 H414 H 0.13651 0.05354 0.81520
 C415 C 0.20700 -0.10329 0.72687
 C416 C 0.04156 0.02345 0.64742
 C417 C 0.20822 0.10359 0.77145
 C418 C 0.04299 -0.02138 0.85394
 C419 C 0.56975 0.48018 0.19394
 H420 H 0.57108 0.45266 0.20816
 C421 C 0.54512 0.48544 0.16305
 H422 H 0.52815 0.46143 0.15347
 C423 C 0.59094 0.54446 0.18936
 H424 H 0.60823 0.56763 0.20023
 C425 C 0.56638 0.55112 0.15860
 H426 H 0.56527 0.57952 0.14628
 N427 N 0.59248 0.50929 0.20606
 C428 C 0.67973 0.44504 0.26779
 H429 H 0.67802 0.45901 0.29529
 C430 C 0.70501 0.41459 0.26245
 H431 H 0.72203 0.40500 0.28638
 C432 C 0.65901 0.44082 0.20358
 H433 H 0.64172 0.45173 0.18044
 C434 C 0.68418 0.41048 0.19685
 H435 H 0.68570 0.39843 0.16847
 Zn436 Zn 0.62451 0.49939 0.24851
 N437 N 0.65694 0.45712 0.23875
 C438 C 0.59020 0.45409 0.30721
 N439 N 0.59198 0.48938 0.29078
 C440 C 0.56917 0.51841 0.30302
 C441 C 0.54427 0.51296 0.33383
 C442 C 0.56541 0.44723 0.33787
 C443 C 0.68000 0.55383 0.22956
 C444 C 0.70541 0.58414 0.23516
 C445 C 0.68409 0.58789 0.30073
 C446 C 0.65878 0.55773 0.29373
 N447 N 0.65692 0.54165 0.25846
 H448 H 0.60754 0.43098 0.29623
 H449 H 0.57067 0.54603 0.28900
 H450 H 0.52729 0.53691 0.34355
 H451 H 0.56418 0.41876 0.35002
 H452 H 0.67848 0.54001 0.20198
 H453 H 0.72269 0.59378 0.21134
 H454 H 0.68544 0.59970 0.32921
 H455 H 0.64125 0.54674 0.31675
 C456 C 0.70757 0.39678 0.22655
 C457 C 0.54309 0.52133 0.14483
 C458 C 0.70781 0.60169 0.27119
 C459 C 0.54210 0.47695 0.35184
 C460 C 0.92961 0.51882 0.69795
 H461 H 0.92871 0.54604 0.71259
 C462 C 0.95492 0.51349 0.66752
 H463 H 0.97277 0.53722 0.65867
 C464 C 0.90669 0.45529 0.69195
 H465 H 0.88833 0.43248 0.70206
 C466 C 0.93189 0.44855 0.66164
 H467 H 0.93245 0.42041 0.64889
 N468 N 0.90581 0.49010 0.70921
 C469 C 0.81818 0.55418 0.77061
 H470 H 0.81925 0.53993 0.79807
 C471 C 0.79339 0.58503 0.76508
 H472 H 0.77609 0.59455 0.78886
 C473 C 0.84012 0.55883 0.70669
 H474 H 0.85778 0.54801 0.68377
 C475 C 0.81541 0.58949 0.69975
 H476 H 0.81458 0.60176 0.67138
 Zn477 Zn 0.87359 0.49972 0.75159
 N478 N 0.84138 0.54216 0.74182
 C479 C 0.90720 0.54448 0.81061
 N480 N 0.90611 0.50952 0.79365
 C481 C 0.92994 0.48089 0.80487
 C482 C 0.95519 0.48634 0.83520
 C483 C 0.93234 0.55135 0.84081
 C484 C 0.81599 0.44754 0.73363
 C485 C 0.79058 0.41710 0.73899
 C486 C 0.81725 0.40735 0.80184
 C487 C 0.84192 0.43818 0.79529
 N488 N 0.84124 0.45723 0.76140
 H489 H 0.88914 0.56738 0.80036
 H490 H 0.92910 0.45362 0.79032
 H491 H 0.97301 0.46265 0.84409
 H492 H 0.93303 0.57959 0.85335
 H493 H 0.81571 0.46352 0.70710
 H494 H 0.77166 0.41009 0.71570
 H495 H 0.81855 0.39349 0.82941
 H496 H 0.86122 0.44710 0.81760
 C497 C 0.79169 0.60324 0.72922
 C498 C 0.95644 0.47792 0.64884
 C499 C 0.79086 0.39602 0.77350
 C500 C 0.95672 0.52200 0.85372
 C501 C 0.19742 0.43380 0.01763
 H502 H 0.21331 0.43403 0.04413
 C503 C 0.16862 0.45847 0.01230
 H504 H 0.16161 0.47783 0.03527
 C505 C 0.18932 0.40603 -0.04391
 H506 H 0.19808 0.38657 -0.06616
 C507 C 0.15697 0.43228 -0.05092
 H508 H 0.14318 0.43055 -0.07842
 N509 N 0.20751 0.40679 -0.01155
 C510 C 0.26868 0.31897 0.05251
 H511 H 0.29595 0.31958 0.03775
 C512 C 0.26325 0.29428 0.08345
 H513 H 0.28694 0.27656 0.09251
 C514 C 0.20522 0.34218 0.05839
 H515 H 0.18251 0.36047 0.04809
 C516 C 0.19836 0.31755 0.08918
 H517 H 0.17018 0.31732 0.10204
 Zn518 Zn 0.24992 0.37449 -0.00166
 N519 N 0.24006 0.34265 0.04097
 C520 C 0.30858 0.40831 0.04323
 N521 N 0.29222 0.40685 0.00805
 C522 C 0.30425 0.43015 -0.02073
 C523 C 0.33472 0.45536 -0.01510
 C524 C 0.33890 0.43339 0.05025
 C525 C 0.23143 0.31777 -0.05465
 C526 C 0.23689 0.29273 -0.08517
 C527 C 0.30175 0.31602 -0.09129
 C528 C 0.29486 0.34096 -0.06091
 N529 N 0.25995 0.34178 -0.04362
 H530 H 0.29772 0.39059 0.06617
 H531 H 0.29022 0.42893 -0.04822
 H532 H 0.34427 0.47281 -0.03884
 H533 H 0.35095 0.43442 0.07864
 H534 H 0.20417 0.31841 -0.03987
 H535 H 0.21324 0.27484 -0.09390
 H536 H 0.32995 0.31563 -0.10410
 H537 H 0.31768 0.35919 -0.05084
 C538 C 0.22765 0.29319 0.10234
 C539 C 0.14643 0.45804 -0.02410
 C540 C 0.27246 0.29156 -0.10410
 C541 C 0.35256 0.45731 0.02083
 C542 C 0.69616 0.06826 -0.01833
 H543 H 0.71055 0.06946 -0.04572
 C544 C 0.66520 0.04352 -0.01297
 H545 H 0.65573 0.02638 -0.03680
 C546 C 0.69125 0.08983 0.04556
 H547 H 0.70201 0.10731 0.06855
 C548 C 0.66047 0.06516 0.05233
 H549 H 0.64804 0.06419 0.08063
 N550 N 0.70808 0.09129 0.01051
 C551 C 0.76935 0.18032 -0.05264
 H552 H 0.79660 0.17966 -0.03801
 C553 C 0.76392 0.20532 -0.08335
 H554 H 0.78757 0.22318 -0.09240
 C555 C 0.70586 0.15726 -0.05838
 H556 H 0.68298 0.13915 -0.04803
 C557 C 0.69903 0.18210 -0.08897
 H558 H 0.67085 0.18254 -0.10167
 Zn559 Zn 0.75055 0.12362 0.00090
 N560 N 0.74078 0.15639 -0.04126
 C561 C 0.81214 0.09224 -0.04268
 N562 N 0.79305 0.09132 -0.00883
 C563 C 0.80264 0.06582 0.01889
 C564 C 0.83301 0.04039 0.01351
 C565 C 0.84290 0.06755 -0.04926
 C566 C 0.73124 0.17896 0.05481
 C567 C 0.73632 0.20369 0.08561
 C568 C 0.80121 0.18057 0.09178
 C569 C 0.79469 0.15591 0.06110
 N570 N 0.76003 0.15538 0.04350
 H571 H 0.80330 0.11174 -0.06496
 H572 H 0.78661 0.06533 0.04538
 H573 H 0.83994 0.02124 0.03675
 H574 H 0.85677 0.06907 -0.07682
 H575 H 0.70411 0.17830 0.03995
 H576 H 0.71253 0.22138 0.09444
 H577 H 0.82927 0.18090 0.10475
 H578 H 0.81756 0.13769 0.05101
 C579 C 0.72836 0.20646 -0.10212
 C580 C 0.64677 0.04168 0.02278
 C581 C 0.77176 0.20492 0.10460
 C582 C 0.85413 0.04089 -0.02097
 C583 C 0.19688 0.56600 0.48188
 H584 H 0.21278 0.56549 0.45530
 C585 C 0.16753 0.54195 0.48728
 H586 H 0.16017 0.52280 0.46429
 C587 C 0.18927 0.59387 0.54347
 H588 H 0.19835 0.61322 0.56564
 C589 C 0.15641 0.56821 0.55062
 H590 H 0.14263 0.57020 0.57818
 N591 N 0.20748 0.59278 0.51102
 C592 C 0.26947 0.67985 0.44630
 H593 H 0.29679 0.67893 0.46080
 C594 C 0.26403 0.70504 0.41578
 H595 H 0.28776 0.72276 0.40668
 C596 C 0.20577 0.65722 0.44088
 H597 H 0.18292 0.63907 0.45128
 C598 C 0.19892 0.68230 0.41048
 H599 H 0.17067 0.68297 0.39794
 Zn600 Zn 0.25025 0.62463 0.50072
 N601 N 0.24070 0.65629 0.45792
 C602 C 0.30894 0.59018 0.45610
 N603 N 0.29256 0.59201 0.49133
 C604 C 0.30477 0.56920 0.52036
 C605 C 0.33549 0.54419 0.51495
 C606 C 0.33947 0.56527 0.44929
 C607 C 0.23173 0.68204 0.55292
 C608 C 0.23727 0.70777 0.58281
 C609 C 0.30222 0.68479 0.58878
 C610 C 0.29524 0.65915 0.55905
 N611 N 0.26024 0.65786 0.54216
 H612 H 0.29799 0.60753 0.43299
 H613 H 0.29076 0.57071 0.54792
 H614 H 0.34518 0.52716 0.53888
 H615 H 0.35149 0.56399 0.42083
 H616 H 0.20444 0.68106 0.53838
 H617 H 0.21363 0.72579 0.59137
 H618 H 0.33048 0.68554 0.60128
 H619 H 0.31805 0.64080 0.54913
 C620 C 0.22830 0.70668 0.39739
 C621 C 0.14534 0.54270 0.52382
 C622 C 0.27293 0.70944 0.60135
 C623 C 0.35342 0.54192 0.47898
 C624 C 0.69789 0.93302 0.51789
 H625 H 0.71371 0.93324 0.54444
 C626 C 0.66886 0.95742 0.51264
 H627 H 0.66163 0.97657 0.53572
 C628 C 0.69017 0.90550 0.45620
 H629 H 0.69913 0.88620 0.43389
 C630 C 0.65764 0.93152 0.44922
 H631 H 0.64396 0.92981 0.42167
 N632 N 0.70828 0.90625 0.48861
 C633 C 0.76953 0.81883 0.55313
 H634 H 0.79689 0.81950 0.53855
 C635 C 0.76399 0.79420 0.58412
 H636 H 0.78767 0.77659 0.59339
 C637 C 0.70594 0.84178 0.55853
 H638 H 0.68320 0.85991 0.54801
 C639 C 0.69897 0.81723 0.58937
 H640 H 0.67071 0.81690 0.60204
 Zn641 Zn 0.75078 0.87408 0.49855
 N642 N 0.74089 0.84234 0.54132
 C643 C 0.80932 0.90827 0.54332
 N644 N 0.79309 0.90657 0.50810
 C645 C 0.80526 0.92968 0.47921
 C646 C 0.83573 0.95493 0.48479
 C647 C 0.83960 0.93342 0.55030
 C648 C 0.73214 0.81735 0.44561
 C649 C 0.73746 0.79239 0.41499
 C650 C 0.80236 0.81556 0.40879
 C651 C 0.79560 0.84042 0.43926
 N652 N 0.76073 0.84127 0.45663
 H653 H 0.79836 0.89072 0.56633
 H654 H 0.79134 0.92829 0.45167
 H655 H 0.84536 0.97223 0.46098
 H656 H 0.85146 0.93463 0.57876
 H657 H 0.70491 0.81801 0.46044
 H658 H 0.71375 0.77459 0.40627
 H659 H 0.83053 0.81515 0.39592
 H660 H 0.81847 0.85859 0.44931
 C661 C 0.72826 0.79301 0.60277
 C662 C 0.64680 0.95705 0.47615
 C663 C 0.77298 0.79122 0.39595
 C664 C 0.85342 0.95715 0.52078
 C665 C 0.01804 0.19856 0.43091
 H666 H 0.04524 0.21340 0.43008
 C667 C 0.01278 0.16775 0.45586
 H668 H 0.03651 0.15886 0.47355
 C669 C -0.04544 0.19234 0.40809
 H670 H -0.06826 0.20248 0.38990
 C671 C -0.05213 0.16168 0.43295
 H672 H -0.08026 0.14876 0.43343
 N673 N -0.01067 0.20985 0.40730
 C674 C 0.05342 0.27180 0.31979
 H675 H 0.03911 0.29925 0.32082
 C676 C 0.08424 0.26635 0.29493
 H677 H 0.09373 0.29017 0.27753
 C678 C 0.05816 0.20779 0.34180
 H679 H 0.04734 0.18477 0.35945
 C680 C 0.08879 0.20093 0.31704
 H681 H 0.10106 0.17253 0.31620
 Zn682 Zn -0.00117 0.25239 0.37512
 N683 N 0.04145 0.24292 0.34304
 C684 C 0.04301 0.31212 0.40838
 N685 N 0.00812 0.29484 0.40734
 C686 C -0.02072 0.30616 0.43087
 C687 C -0.01557 0.33691 0.45571
 C688 C 0.04959 0.34271 0.43312
 C689 C -0.05288 0.23339 0.31774
 C690 C -0.08319 0.23826 0.29225
 C691 C -0.09346 0.30140 0.31827
 C692 C -0.06277 0.29531 0.34304
 N693 N -0.04352 0.26153 0.34271
 H694 H 0.06608 0.30181 0.39057
 H695 H -0.04795 0.29138 0.43009
 H696 H -0.03941 0.34584 0.47331
 H697 H 0.07781 0.35542 0.43376
 H698 H -0.03673 0.20695 0.31773
 H699 H -0.08994 0.21471 0.27354
 H700 H -0.10744 0.32893 0.31929
 H701 H -0.05410 0.31792 0.36212
 C702 C 0.10247 0.23048 0.29323
 C703 C -0.02274 0.14876 0.45724
 C704 C -0.10444 0.27267 0.29213
 C705 C 0.02002 0.35575 0.45716
 C706 C -0.01783 0.69789 0.06401
 H707 H -0.04381 0.71474 0.06269
 C708 C -0.01272 0.66861 0.03997
 H709 H -0.03533 0.66235 0.01997
 C710 C 0.04262 0.68783 0.09376
 H711 H 0.06449 0.69579 0.11395
 C712 C 0.04946 0.65510 0.06811
 H713 H 0.07648 0.64041 0.07096
 N714 N 0.01079 0.70710 0.09189
 C715 C -0.05042 0.76775 0.18503
 H716 H -0.03336 0.79357 0.18679
 C717 C -0.07963 0.76225 0.20924
 H718 H -0.08560 0.78440 0.22983
 C719 C -0.06108 0.70817 0.15386
 H720 H -0.05336 0.68684 0.13296
 C721 C -0.09375 0.70090 0.17971
 H722 H -0.10870 0.67410 0.17628
 Zn723 Zn 0.00131 0.74939 0.12451
 N724 N -0.04146 0.73971 0.15648
 C725 C -0.04085 0.81296 0.09576
 N726 N -0.00783 0.79259 0.09303
 C727 C 0.01930 0.80174 0.06671
 C728 C 0.01406 0.83277 0.04203
 C729 C -0.04730 0.84435 0.07180
 C730 C 0.05400 0.73030 0.18164
 C731 C 0.08480 0.73551 0.20643
 C732 C 0.09283 0.79941 0.18108
 C733 C 0.06220 0.79274 0.15640
 N734 N 0.04374 0.75846 0.15684
 H735 H -0.06251 0.80473 0.11628
 H736 H 0.04521 0.78483 0.06496
 H737 H 0.03683 0.83915 0.02210
 H738 H -0.07422 0.85923 0.07479
 H739 H 0.03836 0.70354 0.18190
 H740 H 0.09279 0.71213 0.22503
 H741 H 0.10644 0.82720 0.18045
 H742 H 0.05290 0.81521 0.13730
 C743 C -0.10331 0.72668 0.20689
 C744 C 0.02302 0.64515 0.04177
 C745 C 0.10481 0.77052 0.20651
 C746 C -0.01972 0.85497 0.04408
 C747 C 0.48326 0.19630 0.56835
 H748 H 0.45658 0.21206 0.56823
 C749 C 0.48839 0.16565 0.54340
 H750 H 0.46502 0.15788 0.52481
 C751 C 0.54556 0.18767 0.59347
 H752 H 0.56800 0.19676 0.61260
 C753 C 0.55215 0.15713 0.56860
 H754 H 0.57984 0.14334 0.56910
 N755 N 0.51138 0.20630 0.59317
 C756 C 0.44890 0.26822 0.68465
 H757 H 0.46532 0.29449 0.68559
 C758 C 0.41927 0.26312 0.70845
 H759 H 0.41220 0.28604 0.72786
 C760 C 0.44020 0.20707 0.65595
 H761 H 0.44886 0.18493 0.63633
 C762 C 0.40704 0.20029 0.68128
 H763 H 0.39276 0.17300 0.67885
 Zn764 Zn 0.50195 0.24864 0.62552
 N765 N 0.45906 0.23915 0.65753
 C766 C 0.45798 0.30928 0.59362
 N767 N 0.49251 0.29131 0.59338
 C768 C 0.52063 0.30205 0.56866
 C769 C 0.51505 0.33276 0.54367
 C770 C 0.45095 0.33983 0.56875
 C771 C 0.55394 0.23015 0.68338
 C772 C 0.58450 0.23538 0.70850
 C773 C 0.59508 0.29783 0.68063
 C774 C 0.56414 0.29141 0.65627
 N775 N 0.54457 0.25782 0.65771
 H776 H 0.43555 0.29957 0.61263
 H777 H 0.54759 0.28678 0.56855
 H778 H 0.53837 0.34113 0.52509
 H779 H 0.42298 0.35304 0.56917
 H780 H 0.53759 0.20383 0.68424
 H781 H 0.59120 0.21221 0.72783
 H782 H 0.60929 0.32522 0.67868
 H783 H 0.55558 0.31363 0.63657
 C784 C 0.39634 0.22703 0.70705
 C785 C 0.52328 0.14547 0.54314
 C786 C 0.60600 0.26967 0.70755
 C787 C 0.47975 0.35221 0.54333
 C788 C 0.51826 0.69793 0.93347
 H789 H 0.54483 0.71391 0.93373
 C790 C 0.51311 0.66870 0.95772
 H791 H 0.53627 0.66144 0.97680
 C792 C 0.45637 0.69009 0.90606
 H793 H 0.43393 0.69908 0.88690
 C794 C 0.44951 0.65734 0.93188
 H795 H 0.42191 0.64355 0.93015
 N796 N 0.48883 0.70834 0.90683
 C797 C 0.55305 0.77064 0.81972
 H798 H 0.53849 0.79797 0.82059
 C799 C 0.58390 0.76531 0.79486
 H800 H 0.59312 0.78911 0.77730
 C801 C 0.55845 0.70686 0.84225
 H802 H 0.54794 0.68395 0.86025
 C803 C 0.58912 0.70011 0.81748
 H804 H 0.60168 0.67183 0.81690
 Zn805 Zn 0.49851 0.75107 0.87488
 N806 N 0.54131 0.74179 0.84311
 C807 C 0.54299 0.80968 0.90915
 N808 N 0.50778 0.79317 0.90738
 C809 C 0.47871 0.80495 0.93039
 C810 C 0.48403 0.83542 0.95552
 C811 C 0.54974 0.83995 0.93420
 C812 C 0.44554 0.73238 0.81829
 C813 C 0.41492 0.73771 0.79330
 C814 C 0.40857 0.80246 0.81649
 C815 C 0.43904 0.79569 0.84139
 N816 N 0.45647 0.76090 0.84223
 H817 H 0.56616 0.79899 0.89169
 H818 H 0.45120 0.79076 0.92895
 H819 H 0.46006 0.84480 0.97270
 H820 H 0.57819 0.85206 0.93544
 H821 H 0.46045 0.70523 0.81894
 H822 H 0.40625 0.71408 0.77544
 H823 H 0.39566 0.83058 0.81605
 H824 H 0.44906 0.81852 0.85954
 C825 C 0.60245 0.72959 0.79336
 C826 C 0.47659 0.64644 0.95724
 C827 C 0.39584 0.77316 0.79211
 C828 C 0.51997 0.85348 0.95773
   
