data_POSCAR
  _audit_creation_date              2014-09-24
  _audit_creation_method            'ToBaCCo'
  _symmetry_space_group_name_H-M    'P1'
  _symmetry_Int_Tables_number       1
  _symmetry_cell_setting            triclinic
  loop_
  _symmetry_equiv_pos_as_xyz
 x,y,z
_cell_length_a 13.7331
_cell_length_b 12.9463
_cell_length_c 23.0904
_cell_angle_alpha 86.900500
_cell_angle_beta 95.018400
_cell_angle_gamma 75.152900
loop_
  _atom_site_label
  _atom_site_type_symbol
  _atom_site_fract_x
  _atom_site_fract_y
  _atom_site_fract_z
O1 O -0.02707 0.62180 0.93578
 O2 O -0.10874 0.45206 1.04499
 O3 O -0.04591 0.61662 1.05212
 O4 O -0.09693 0.44289 0.93830
 O5 O 0.06470 0.35346 0.94920
 O6 O 0.11176 0.51630 1.06851
 O7 O 0.04754 0.34715 1.05860
 O8 O 0.13100 0.52491 0.95535
 Cu9 Cu -0.08368 0.54691 0.98898
 Cu10 Cu 0.10521 0.42675 1.00921
 C11 C 0.06566 0.60255 0.92700
 C12 C -0.04440 0.36912 1.06947
 C13 C 0.04018 0.59173 1.08197
 C14 C -0.02522 0.36625 0.92595
 O15 O 0.60679 -0.09295 0.56029
 O16 O 0.40294 -0.04486 0.44164
 O17 O 0.60225 -0.05896 0.44126
 O18 O 0.41401 -0.04337 0.55097
 O19 O 0.40127 0.13051 0.54980
 O20 O 0.56938 0.11734 0.43764
 O21 O 0.38347 0.13003 0.44156
 O22 O 0.60375 0.07837 0.55381
 Cu23 Cu 0.51235 -0.07753 0.49729
 Cu24 Cu 0.49196 0.12946 0.49723
 C25 C 0.64004 -0.01629 0.57778
 C26 C 0.35506 0.05019 0.42329
 C27 C 0.61370 0.02930 0.41925
 C28 C 0.37393 0.04917 0.56743
 C29 C 0.01375 -0.12917 0.22780
 C30 C -0.07831 -0.11892 0.26285
 C31 C -0.10897 -0.02177 0.28500
 C32 C -0.04475 0.05566 0.27069
 C33 C -0.01677 -0.03295 0.18185
 C34 C -0.04831 0.06286 0.20444
 C35 C 0.09535 -0.10264 0.27008
 C36 C 0.06505 -0.00520 0.29192
 H37 H -0.11889 -0.18011 0.26650
 H38 H -0.06954 0.13474 0.28873
 H39 H -0.01218 -0.03991 0.13555
 H40 H 0.17257 -0.15119 0.27822
 C41 C 0.10739 0.02380 0.70345
 C42 C 0.14669 -0.08546 0.73856
 C43 C 0.08057 -0.10775 0.77544
 C44 C -0.01946 -0.01871 0.77268
 C45 C 0.00524 0.02164 0.67202
 C46 C -0.06049 -0.00177 0.70799
 C47 C 0.08148 0.10363 0.74973
 C48 C 0.01393 0.08316 0.78518
 H49 H 0.22079 -0.13814 0.73551
 H50 H -0.07464 -0.03514 0.80186
 H51 H -0.00990 0.02799 0.62493
 H52 H 0.11132 0.17318 0.75264
 N53 N 0.13520 -0.30730 0.21054
 N54 N 0.14245 -0.37789 0.17082
 C55 C 0.05735 -0.35085 0.13352
 C56 C -0.00784 -0.26022 0.15079
 C57 C 0.04500 -0.23355 0.19934
 H58 H -0.08071 -0.21579 0.12897
 H59 H 0.19272 -0.30959 0.24358
 H60 H 0.20566 -0.44231 0.16887
 N61 N -0.17007 0.23379 0.16419
 N62 N -0.16884 0.31991 0.12556
 C63 C -0.07508 0.30109 0.10827
 C64 C -0.01545 0.20384 0.13436
 C65 C -0.07760 0.16471 0.16867
 H66 H 0.06290 0.16604 0.12902
 H67 H -0.23328 0.22417 0.18361
 H68 H -0.23039 0.38606 0.11302
 N69 N 0.15586 0.15908 0.63907
 N70 N 0.22582 0.16579 0.60471
 C71 C 0.29001 0.06807 0.60404
 C72 C 0.25994 -0.00487 0.64013
 C73 C 0.17463 0.05729 0.66215
 H74 H 0.29450 -0.08997 0.64860
 H75 H 0.09580 0.22360 0.64625
 H76 H 0.22792 0.23625 0.58114
 N77 N -0.17313 -0.12249 0.69757
 N78 N -0.25388 -0.12924 0.65826
 C79 C -0.28317 -0.03699 0.62374
 C80 C -0.22237 0.02965 0.63957
 C81 C -0.15382 -0.02744 0.68520
 H82 H -0.22302 0.10626 0.61806
 H83 H -0.12981 -0.18504 0.72687
 H84 H -0.28376 -0.19562 0.65612
 N85 N 0.19767 -0.27402 0.82812
 N86 N 0.19367 -0.34899 0.86834
 C87 C 0.09845 -0.32993 0.88327
 C88 C 0.03897 -0.23858 0.85106
 C89 C 0.10492 -0.20516 0.81652
 H90 H -0.04074 -0.20198 0.85297
 H91 H 0.26370 -0.27007 0.80995
 H92 H 0.25555 -0.41190 0.88527
 N93 N -0.12353 0.18579 0.84013
 N94 N -0.13532 0.26512 0.87492
 C95 C -0.04557 0.28829 0.88594
 C96 C 0.02610 0.22133 0.85714
 C97 C -0.02630 0.15795 0.82833
 H98 H 0.10516 0.21998 0.85659
 H99 H -0.18179 0.15394 0.82345
 H100 H -0.20336 0.30175 0.89110
 N101 N -0.25783 0.11769 0.30687
 N102 N -0.33027 0.13020 0.34153
 C103 C -0.32346 0.03591 0.37136
 C104 C -0.24310 -0.04173 0.35391
 C105 C -0.20282 0.01489 0.31320
 H106 H -0.21363 -0.12424 0.37137
 H107 H -0.24535 0.18009 0.28057
 H108 H -0.38157 0.20372 0.34592
 N109 N 0.12184 0.14880 0.33121
 N110 N 0.19951 0.16365 0.36465
 C111 C 0.26361 0.06740 0.38212
 C112 C 0.22541 -0.01219 0.35873
 C113 C 0.13513 0.04270 0.32680
 H114 H 0.25787 -0.09799 0.36511
 H115 H 0.06181 0.21088 0.31140
 H116 H 0.20746 0.23844 0.37575
   
