data_POSCAR
  _audit_creation_date              2014-09-24
  _audit_creation_method            'ToBaCCo'
  _symmetry_space_group_name_H-M    'P1'
  _symmetry_Int_Tables_number       1
  _symmetry_cell_setting            triclinic
  loop_
  _symmetry_equiv_pos_as_xyz
 x,y,z
_cell_length_a 24.7029
_cell_length_b 24.7029
_cell_length_c 43.8202
_cell_angle_alpha 89.901800
_cell_angle_beta 89.901700
_cell_angle_gamma 89.853300
loop_
  _atom_site_label
  _atom_site_type_symbol
  _atom_site_fract_x
  _atom_site_fract_y
  _atom_site_fract_z
O1 O -0.04554 0.44694 1.02650
 O2 O -0.04536 0.55420 0.96808
 O3 O -0.04559 0.44863 0.96714
 O4 O -0.04551 0.55243 1.02743
 O5 O 0.04390 0.55378 1.02635
 O6 O 0.04381 0.44662 0.96808
 O7 O 0.04400 0.55213 0.96698
 O8 O 0.04386 0.44827 1.02743
 Cu9 Cu -0.05449 0.50058 0.99729
 Cu10 Cu 0.05288 0.50017 0.99720
 C11 C -0.00088 0.42954 1.03702
 C12 C -0.00067 0.57133 0.95746
 C13 C -0.00088 0.42955 0.95760
 C14 C -0.00077 0.57115 1.03691
 O15 O 0.55186 0.04427 0.46698
 O16 O 0.44801 0.04413 0.52743
 O17 O 0.55352 0.04416 0.52635
 O18 O 0.44636 0.04407 0.46808
 O19 O 0.44837 -0.04533 0.46714
 O20 O 0.55216 -0.04525 0.52743
 O21 O 0.44667 -0.04528 0.52650
 O22 O 0.55393 -0.04509 0.46808
 Cu23 Cu 0.49991 0.05314 0.49720
 Cu24 Cu 0.50032 -0.05422 0.49729
 C25 C 0.57106 -0.00040 0.45746
 C26 C 0.42927 -0.00062 0.53702
 C27 C 0.57089 -0.00051 0.53691
 C28 C 0.42929 -0.00062 0.45760
 C29 C -0.00107 -0.00035 0.24786
 C30 C -0.00062 -0.00081 0.74786
 C31 C -0.00043 -0.30606 0.10244
 N32 N -0.04732 -0.33093 0.09458
 N33 N -0.04744 -0.37021 0.07378
 C34 C -0.00063 -0.38621 0.06019
 N35 N 0.04628 -0.36152 0.06816
 N36 N 0.04636 -0.32208 0.08886
 C37 C -0.00035 -0.26198 0.12489
 N38 N 0.04537 -0.23307 0.13007
 N39 N 0.04532 -0.19244 0.15002
 C40 C -0.00038 -0.17939 0.16563
 N41 N -0.04606 -0.20845 0.16056
 N42 N -0.04608 -0.24894 0.14050
 C43 C -0.00049 -0.13409 0.18729
 N44 N -0.04450 -0.12384 0.20496
 N45 N -0.04466 -0.08237 0.22436
 C46 C -0.00076 -0.04955 0.22693
 N47 N 0.04296 -0.05963 0.20890
 N48 N 0.04321 -0.10122 0.18960
 C49 C -0.00135 0.30649 0.10263
 N50 N 0.04556 0.33138 0.09468
 N51 N 0.04572 0.37076 0.07386
 C52 C -0.00107 0.38684 0.06034
 N53 N -0.04800 0.36213 0.06840
 N54 N -0.04812 0.32260 0.08911
 C55 C -0.00148 0.26228 0.12508
 N56 N -0.04722 0.23335 0.13032
 N57 N -0.04722 0.19259 0.15025
 C58 C -0.00154 0.17940 0.16579
 N59 N 0.04416 0.20849 0.16067
 N60 N 0.04422 0.24912 0.14062
 C61 C -0.00149 0.13393 0.18742
 N62 N 0.04247 0.12352 0.20503
 N63 N 0.04258 0.08188 0.22440
 C64 C -0.00132 0.04902 0.22697
 N65 N -0.04500 0.05927 0.20900
 N66 N -0.04520 0.10104 0.18976
 C67 C 0.30623 -0.00109 0.60263
 N68 N 0.32234 -0.04785 0.58911
 N69 N 0.36187 -0.04773 0.56840
 C70 C 0.38657 -0.00080 0.56034
 N71 N 0.37049 0.04599 0.57386
 N72 N 0.33111 0.04583 0.59468
 C73 C 0.26202 -0.00122 0.62508
 N74 N 0.24885 0.04448 0.64062
 N75 N 0.20823 0.04442 0.66067
 C76 C 0.17914 -0.00128 0.66579
 N77 N 0.19232 -0.04695 0.65025
 N78 N 0.23309 -0.04695 0.63032
 C79 C 0.13366 -0.00122 0.68742
 N80 N 0.10077 -0.04494 0.68976
 N81 N 0.05901 -0.04473 0.70900
 C82 C 0.04876 -0.00105 0.72697
 N83 N 0.08161 0.04285 0.72440
 N84 N 0.12326 0.04274 0.70503
 C85 C -0.30632 -0.00017 0.60244
 N86 N -0.32235 0.04662 0.58886
 N87 N -0.36179 0.04654 0.56816
 C88 C -0.38648 -0.00037 0.56019
 N89 N -0.37048 -0.04718 0.57378
 N90 N -0.33119 -0.04706 0.59458
 C91 C -0.26224 -0.00009 0.62489
 N92 N -0.24920 -0.04581 0.64050
 N93 N -0.20872 -0.04580 0.66056
 C94 C -0.17965 -0.00012 0.66563
 N95 N -0.19271 0.04559 0.65002
 N96 N -0.23333 0.04564 0.63007
 C97 C -0.13435 -0.00023 0.68729
 N98 N -0.10149 0.04348 0.68960
 N99 N -0.05989 0.04323 0.70890
 C100 C -0.04982 -0.00050 0.72693
 N101 N -0.08264 -0.04439 0.72436
 N102 N -0.12411 -0.04423 0.70496
 C103 C -0.00080 -0.30774 0.89304
 N104 N -0.04795 -0.32567 0.90533
 N105 N -0.04792 -0.36523 0.92603
 C106 C -0.00070 -0.38814 0.93535
 N107 N 0.04647 -0.37020 0.92301
 N108 N 0.04640 -0.33083 0.90219
 C109 C -0.00089 -0.26348 0.87062
 N110 N 0.04530 -0.24926 0.85583
 N111 N 0.04525 -0.20860 0.83580
 C112 C -0.00091 -0.18050 0.82998
 N113 N -0.04707 -0.19472 0.84478
 N114 N -0.04708 -0.23555 0.86467
 C115 C -0.00087 -0.13499 0.80837
 N116 N -0.04491 -0.10240 0.80579
 N117 N -0.04475 -0.06063 0.78653
 C118 C -0.00080 -0.05015 0.76877
 N119 N 0.04343 -0.08269 0.77161
 N120 N 0.04337 -0.12430 0.79100
 C121 C -0.00061 0.30625 0.89238
 N122 N 0.04617 0.32210 0.90585
 N123 N 0.04611 0.36172 0.92643
 C124 C -0.00078 0.38679 0.93439
 N125 N -0.04759 0.37098 0.92091
 N126 N -0.04748 0.33150 0.90022
 C127 C -0.00053 0.26191 0.87009
 N128 N -0.04621 0.24898 0.85456
 N129 N -0.04616 0.20825 0.83465
 C130 C -0.00050 0.17884 0.82966
 N131 N 0.04516 0.19179 0.84519
 N132 N 0.04518 0.23264 0.86499
 C133 C -0.00053 0.13331 0.80816
 N134 N 0.04317 0.10016 0.80596
 N135 N 0.04304 0.05842 0.78677
 C136 C -0.00054 0.04845 0.76874
 N137 N -0.04444 0.08154 0.77119
 N138 N -0.04441 0.12317 0.79049
 C139 C -0.30800 -0.00054 0.39304
 N140 N -0.33109 0.04667 0.40219
 N141 N -0.37046 0.04673 0.42301
 C142 C -0.38841 -0.00043 0.43535
 N143 N -0.36550 -0.04765 0.42603
 N144 N -0.32594 -0.04768 0.40533
 C145 C -0.26374 -0.00062 0.37062
 N146 N -0.23582 -0.04682 0.36467
 N147 N -0.19498 -0.04680 0.34478
 C148 C -0.18076 -0.00065 0.32998
 N149 N -0.20886 0.04552 0.33580
 N150 N -0.24952 0.04556 0.35583
 C151 C -0.13526 -0.00061 0.30837
 N152 N -0.12456 0.04364 0.29100
 N153 N -0.08295 0.04369 0.27161
 C154 C -0.05041 -0.00054 0.26877
 N155 N -0.06090 -0.04449 0.28653
 N156 N -0.10266 -0.04465 0.30579
 C157 C 0.30598 -0.00035 0.39238
 N158 N 0.33124 -0.04722 0.40022
 N159 N 0.37072 -0.04732 0.42091
 C160 C 0.38653 -0.00051 0.43439
 N161 N 0.36146 0.04637 0.42643
 N162 N 0.32183 0.04644 0.40585
 C163 C 0.26165 -0.00026 0.37009
 N164 N 0.23238 0.04544 0.36499
 N165 N 0.19152 0.04542 0.34519
 C166 C 0.17857 -0.00023 0.32966
 N167 N 0.20799 -0.04590 0.33465
 N168 N 0.24871 -0.04595 0.35456
 C169 C 0.13304 -0.00027 0.30816
 N170 N 0.12290 -0.04414 0.29049
 N171 N 0.08128 -0.04417 0.27119
 C172 C 0.04818 -0.00028 0.26874
 N173 N 0.05815 0.04331 0.28677
 N174 N 0.09990 0.04343 0.30596
   
