data_POSCAR
  _audit_creation_date              2014-09-24
  _audit_creation_method            'ToBaCCo'
  _symmetry_space_group_name_H-M    'P1'
  _symmetry_Int_Tables_number       1
  _symmetry_cell_setting            triclinic
  loop_
  _symmetry_equiv_pos_as_xyz
 x,y,z
_cell_length_a 54.1378
_cell_length_b 54.8334
_cell_length_c 23.2951
_cell_angle_alpha 89.889800
_cell_angle_beta 90.131300
_cell_angle_gamma 118.673200
loop_
  _atom_site_label
  _atom_site_type_symbol
  _atom_site_fract_x
  _atom_site_fract_y
  _atom_site_fract_z
C1 C 0.49316 0.97503 0.53138
 C2 C 0.49142 0.97515 0.47101
 C3 C 0.50343 1.00048 0.44133
 C4 C 0.51711 1.02576 0.47103
 C5 C 0.51879 1.02567 0.53154
 C6 C 0.50682 1.00029 0.56118
 H7 H 0.50810 1.00020 0.60772
 H8 H 0.50204 1.00046 0.39482
 C9 C 0.02520 0.51895 0.52800
 C10 C 0.02476 0.51885 0.46758
 C11 C -0.00095 0.50463 0.43842
 C12 C -0.02626 0.49043 0.46890
 C13 C -0.02579 0.49048 0.52942
 C14 C -0.00006 0.50477 0.55850
 H15 H 0.00030 0.50482 0.60507
 H16 H -0.00120 0.50460 0.39182
 C17 C 0.48443 0.51015 0.53328
 C18 C 0.48396 0.51017 0.47277
 C19 C 0.49654 0.49703 0.44229
 C20 C 0.50953 0.48381 0.47133
 C21 C 0.51005 0.48381 0.53184
 C22 C 0.49752 0.49701 0.56238
 H23 H 0.49782 0.49694 0.60900
 H24 H 0.49610 0.49696 0.39572
 O25 O 0.37546 0.66232 -0.04683
 O26 O 0.37610 0.70958 -0.06581
 C27 C 0.36365 0.72351 -0.07723
 O28 O 0.34191 0.72062 -0.05083
 O29 O 0.29485 0.67501 -0.06966
 C30 C 0.28127 0.64918 -0.07956
 O31 O 0.28445 0.63115 -0.05096
 O32 O 0.33145 0.62955 -0.06604
 C33 C 0.35770 0.64139 -0.07504
 O34 O 0.37347 0.67025 0.06700
 O35 O 0.37639 0.71853 0.04808
 C36 C 0.35896 0.72375 0.07449
 O37 O 0.33293 0.71215 0.06305
 O38 O 0.28479 0.66778 0.04418
 C39 C 0.27988 0.64610 0.07249
 O40 O 0.29226 0.63191 0.06351
 O41 O 0.33797 0.62791 0.04843
 C42 C 0.35955 0.64445 0.07700
 Cr43 Cr 0.37377 0.68946 0.00054
 Cr44 Cr 0.31437 0.69304 -0.00325
 Cr45 Cr 0.31237 0.63169 -0.00127
 O46 O 0.33351 0.67140 -0.00133
 O47 O 0.62382 0.33476 -0.05016
 O48 O 0.62678 0.28911 -0.06648
 C49 C 0.64073 0.27644 -0.07534
 O50 O 0.66228 0.28057 -0.04632
 O51 O 0.70803 0.32771 -0.06293
 C52 C 0.72032 0.35352 -0.07339
 O53 O 0.71535 0.37082 -0.04644
 O54 O 0.66720 0.36944 -0.06629
 C55 C 0.64115 0.35623 -0.07746
 O56 O 0.62422 0.32717 0.06413
 O57 O 0.62482 0.28035 0.04778
 C58 C 0.64251 0.27649 0.07685
 O59 O 0.66877 0.28940 0.06790
 O60 O 0.71578 0.33539 0.05132
 C61 C 0.71905 0.35678 0.07852
 O62 O 0.70555 0.36970 0.06731
 O63 O 0.65842 0.37045 0.04746
 C64 C 0.63674 0.35298 0.07446
 Cr65 Cr 0.62650 0.30864 -0.00112
 Cr66 Cr 0.68788 0.30904 0.00242
 Cr67 Cr 0.68588 0.36853 0.00051
 O68 O 0.66676 0.32875 0.00061
 C69 C 0.48171 0.95075 -0.43819
 C70 C 0.47168 0.92951 -0.41071
 C71 C 0.45988 0.90450 -0.37682
 C72 C 0.46978 0.90515 -0.32103
 C73 C 0.45798 0.88116 -0.28722
 C74 C 0.43604 0.85615 -0.30874
 C75 C 0.42632 0.85564 -0.36506
 C76 C 0.43822 0.87969 -0.39890
 C77 C 0.42303 0.83095 -0.27191
 C78 C 0.39363 0.81380 -0.27114
 C79 C 0.38132 0.79099 -0.23395
 C80 C 0.39822 0.78498 -0.19730
 C81 C 0.42750 0.80158 -0.19862
 C82 C 0.43984 0.82439 -0.23566
 C83 C 0.38557 0.76262 -0.15645
 C84 C 0.37535 0.74444 -0.12095
 H85 H 0.48645 0.92428 -0.30345
 H86 H 0.46563 0.88233 -0.24377
 H87 H 0.40966 0.83663 -0.38300
 H88 H 0.43045 0.87897 -0.44212
 H89 H 0.38012 0.81850 -0.29803
 H90 H 0.35862 0.77837 -0.23306
 H91 H 0.44078 0.79711 -0.17043
 H92 H 0.46254 0.83697 -0.23584
 C93 C 0.05126 0.53336 -0.44044
 C94 C 0.07285 0.54531 -0.41350
 C95 C 0.09831 0.55938 -0.38034
 C96 C 0.12334 0.56068 -0.39996
 C97 C 0.14781 0.57361 -0.36659
 C98 C 0.14752 0.58544 -0.31320
 C99 C 0.12231 0.58427 -0.29423
 C100 C 0.09790 0.57131 -0.32757
 C101 C 0.17311 0.59830 -0.27652
 C102 C 0.18002 0.62277 -0.24560
 C103 C 0.20311 0.63392 -0.20836
 C104 C 0.21965 0.62082 -0.20156
 C105 C 0.21331 0.59680 -0.23300
 C106 C 0.19023 0.58562 -0.27034
 C107 C 0.24213 0.63123 -0.16009
 C108 C 0.26036 0.63961 -0.12402
 H109 H 0.12389 0.55155 -0.44083
 H110 H 0.16696 0.57444 -0.38260
 H111 H 0.12130 0.59280 -0.25297
 H112 H 0.07861 0.57031 -0.31188
 H113 H 0.16747 0.63321 -0.25001
 H114 H 0.20781 0.65252 -0.18420
 H115 H 0.22587 0.58639 -0.22779
 H116 H 0.18527 0.56658 -0.29300
 C117 C 0.47207 0.52243 -0.43551
 C118 C 0.46113 0.53306 -0.40743
 C119 C 0.44806 0.54542 -0.37296
 C120 C 0.44499 0.56773 -0.39413
 C121 C 0.43259 0.57986 -0.36001
 C122 C 0.42304 0.56974 -0.30434
 C123 C 0.42615 0.54724 -0.28366
 C124 C 0.43858 0.53519 -0.31775
 C125 C 0.41027 0.58276 -0.26746
 C126 C 0.38684 0.56619 -0.23284
 C127 C 0.37562 0.57845 -0.19604
 C128 C 0.38760 0.60741 -0.19335
 C129 C 0.41061 0.62408 -0.22830
 C130 C 0.42186 0.61185 -0.26523
 C131 C 0.37692 0.61989 -0.15300
 C132 C 0.36808 0.62994 -0.11802
 H133 H 0.45219 0.57575 -0.43691
 H134 H 0.43022 0.59697 -0.37731
 H135 H 0.41942 0.53925 -0.24071
 H136 H 0.44095 0.51800 -0.30089
 H137 H 0.37722 0.54374 -0.23419
 H138 H 0.35780 0.56535 -0.16920
 H139 H 0.42013 0.64653 -0.22633
 H140 H 0.44008 0.62516 -0.29086
 C141 C 0.53168 0.04981 -0.43764
 C142 C 0.54289 0.07094 -0.40993
 C143 C 0.55602 0.09583 -0.37585
 C144 C 0.56500 0.09471 -0.32004
 C145 C 0.57705 0.11860 -0.28602
 C146 C 0.58027 0.14398 -0.30737
 C147 C 0.57134 0.14495 -0.36372
 C148 C 0.55932 0.12101 -0.39777
 C149 C 0.59234 0.16909 -0.27036
 C150 C 0.58041 0.18693 -0.26951
 C151 C 0.59084 0.20970 -0.23223
 C152 C 0.61338 0.21498 -0.19556
 C153 C 0.62573 0.19768 -0.19693
 C154 C 0.61532 0.17490 -0.23407
 C155 C 0.62312 0.23736 -0.15470
 C156 C 0.63119 0.25553 -0.11915
 H157 H 0.56242 0.07530 -0.30258
 H158 H 0.58332 0.11707 -0.24256
 H159 H 0.57380 0.16425 -0.38153
 H160 H 0.55248 0.12209 -0.44100
 H161 H 0.56250 0.18282 -0.29645
 H162 H 0.58103 0.22289 -0.23131
 H163 H 0.64319 0.20158 -0.16874
 H164 H 0.62519 0.16178 -0.23430
 C165 C 0.94871 0.47596 -0.43734
 C166 C 0.92762 0.46387 -0.40908
 C167 C 0.90275 0.44954 -0.37444
 C168 C 0.90491 0.44105 -0.31886
 C169 C 0.88096 0.42755 -0.28450
 C170 C 0.85446 0.42238 -0.30528
 C171 C 0.85246 0.43087 -0.36137
 C172 C 0.87647 0.44435 -0.39574
 C173 C 0.82921 0.40866 -0.26800
 C174 C 0.80934 0.41828 -0.26659
 C175 C 0.78635 0.40626 -0.22923
 C176 C 0.78288 0.38446 -0.19299
 C177 C 0.80223 0.37441 -0.19485
 C178 C 0.82523 0.38640 -0.23210
 C179 C 0.76020 0.37316 -0.15212
 C180 C 0.74171 0.36401 -0.11675
 H181 H 0.92517 0.44506 -0.30188
 H182 H 0.88328 0.42166 -0.24124
 H183 H 0.83231 0.42692 -0.37876
 H184 H 0.87456 0.45078 -0.43880
 H185 H 0.81199 0.43558 -0.29319
 H186 H 0.77157 0.41430 -0.22790
 H187 H 0.79975 0.35754 -0.16699
 H188 H 0.83995 0.37829 -0.23277
 C189 C 0.52232 0.47096 -0.43833
 C190 C 0.53298 0.45962 -0.41143
 C191 C 0.54541 0.44613 -0.37829
 C192 C 0.57079 0.44749 -0.39560
 C193 C 0.58316 0.43500 -0.36222
 C194 C 0.57022 0.42092 -0.31119
 C195 C 0.54458 0.41948 -0.29453
 C196 C 0.53230 0.43202 -0.32785
 C197 C 0.58361 0.40834 -0.27454
 C198 C 0.56713 0.38248 -0.24779
 C199 C 0.57948 0.37141 -0.21055
 C200 C 0.60843 0.38597 -0.19958
 C201 C 0.62511 0.41144 -0.22687
 C202 C 0.61281 0.42255 -0.26423
 C203 C 0.62064 0.37539 -0.15808
 C204 C 0.63032 0.36660 -0.12197
 H205 H 0.58107 0.45832 -0.43468
 H206 H 0.60274 0.43621 -0.37644
 H207 H 0.53432 0.40918 -0.25506
 H208 H 0.51272 0.43094 -0.31395
 H209 H 0.54467 0.37088 -0.25548
 H210 H 0.56636 0.35168 -0.18964
 H211 H 0.64753 0.42296 -0.21841
 H212 H 0.62600 0.44264 -0.28365
 C213 C 0.94909 0.47673 0.43902
 C214 C 0.92749 0.46470 0.41212
 C215 C 0.90203 0.45048 0.37898
 C216 C 0.87722 0.45003 0.39737
 C217 C 0.85276 0.43690 0.36400
 C218 C 0.85285 0.42401 0.31187
 C219 C 0.87785 0.42437 0.29414
 C220 C 0.90225 0.43753 0.32746
 C221 C 0.82727 0.41082 0.27523
 C222 C 0.81997 0.38567 0.24666
 C223 C 0.79687 0.37410 0.20947
 C224 C 0.78073 0.38745 0.20036
 C225 C 0.78745 0.41218 0.22945
 C226 C 0.81054 0.42378 0.26676
 C227 C 0.75821 0.37647 0.15896
 C228 C 0.73997 0.36740 0.12294
 H229 H 0.87681 0.45995 0.43728
 H230 H 0.83376 0.43672 0.37905
 H231 H 0.87873 0.41501 0.25384
 H232 H 0.92138 0.43787 0.31272
 H233 H 0.83221 0.37501 0.25289
 H234 H 0.79186 0.35496 0.18715
 H235 H 0.77519 0.42278 0.22244
 H236 H 0.81582 0.44332 0.28759
 C237 C 0.52849 0.04999 0.44029
 C238 C 0.53844 0.07116 0.41258
 C239 C 0.55011 0.09608 0.37844
 C240 C 0.57269 0.12064 0.39912
 C241 C 0.58440 0.14460 0.36500
 C242 C 0.57357 0.14426 0.30984
 C243 C 0.55074 0.11950 0.28972
 C244 C 0.53913 0.09560 0.32380
 C245 C 0.58627 0.16938 0.27276
 C246 C 0.56906 0.17644 0.23898
 C247 C 0.58100 0.19918 0.20171
 C248 C 0.61028 0.21521 0.19769
 C249 C 0.62761 0.20869 0.23186
 C250 C 0.61570 0.18595 0.26928
 C251 C 0.62238 0.23752 0.15661
 C252 C 0.63192 0.25564 0.12087
 H253 H 0.58130 0.12124 0.44145
 H254 H 0.60177 0.16342 0.38186
 H255 H 0.54222 0.11845 0.24715
 H256 H 0.52174 0.07666 0.30730
 H257 H 0.54635 0.16432 0.24128
 H258 H 0.56739 0.20405 0.17546
 H259 H 0.65031 0.22088 0.22887
 H260 H 0.62950 0.18085 0.29425
 C261 C 0.52184 0.47018 0.43805
 C262 C 0.53191 0.45878 0.40974
 C263 C 0.54364 0.44521 0.37502
 C264 C 0.53309 0.43620 0.31975
 C265 C 0.54459 0.42335 0.28537
 C266 C 0.56686 0.41934 0.30583
 C267 C 0.57728 0.42839 0.36158
 C268 C 0.56569 0.44121 0.39598
 C269 C 0.57940 0.40622 0.26859
 C270 C 0.60877 0.41685 0.26644
 C271 C 0.62059 0.40533 0.22915
 C272 C 0.60324 0.38300 0.19373
 C273 C 0.57399 0.37196 0.19633
 C274 C 0.56213 0.38346 0.23350
 C275 C 0.61538 0.37212 0.15298
 C276 C 0.62528 0.36324 0.11772
 H277 H 0.51609 0.43928 0.30305
 H278 H 0.53640 0.41701 0.24237
 H279 H 0.59420 0.42534 0.37872
 H280 H 0.57395 0.44806 0.43880
 H281 H 0.62263 0.43456 0.29241
 H282 H 0.64327 0.41412 0.22725
 H283 H 0.56036 0.35467 0.16912
 H284 H 0.53945 0.37457 0.23476
 C285 C 0.05037 0.53300 0.43466
 C286 C 0.07161 0.54466 0.40667
 C287 C 0.09668 0.55831 0.37237
 C288 C 0.12259 0.56266 0.39421
 C289 C 0.14675 0.57523 0.36003
 C290 C 0.14527 0.58365 0.30358
 C291 C 0.11915 0.57939 0.28230
 C292 C 0.09505 0.56680 0.31647
 C293 C 0.17063 0.59623 0.26641
 C294 C 0.17561 0.61851 0.22963
 C295 C 0.19868 0.62940 0.19248
 C296 C 0.21711 0.61823 0.19159
 C297 C 0.21264 0.59639 0.22870
 C298 C 0.18958 0.58547 0.26597
 C299 C 0.23985 0.62841 0.15087
 C300 C 0.25840 0.63665 0.11566
 H301 H 0.12408 0.55621 0.43750
 H302 H 0.16660 0.57850 0.37781
 H303 H 0.11723 0.58525 0.23877
 H304 H 0.07507 0.56342 0.29907
 H305 H 0.16162 0.62747 0.22953
 H306 H 0.20194 0.64631 0.16393
 H307 H 0.22669 0.58749 0.22814
 H308 H 0.18613 0.56812 0.29324
 C309 C 0.47737 0.94966 0.43847
 C310 C 0.46569 0.92864 0.41060
 C311 C 0.45185 0.90392 0.37616
 C312 C 0.44791 0.87838 0.39731
 C313 C 0.43497 0.85456 0.36300
 C314 C 0.42576 0.85602 0.30718
 C315 C 0.42969 0.88178 0.28657
 C316 C 0.44265 0.90553 0.32083
 C317 C 0.41258 0.83100 0.26996
 C318 C 0.38948 0.82606 0.23479
 C319 C 0.37799 0.80334 0.19748
 C320 C 0.38937 0.78523 0.19481
 C321 C 0.41203 0.78966 0.23036
 C322 C 0.42354 0.81237 0.26781
 C323 C 0.37851 0.76288 0.15381
 C324 C 0.36952 0.74470 0.11823
 H325 H 0.45490 0.87690 0.44017
 H326 H 0.43199 0.83498 0.38025
 H327 H 0.42322 0.88367 0.24350
 H328 H 0.44570 0.92522 0.30397
 H329 H 0.38033 0.83980 0.23605
 H330 H 0.36044 0.80010 0.17017
 H331 H 0.42110 0.77585 0.22842
 H332 H 0.44151 0.81580 0.29387
 C333 C 0.47055 0.52325 0.44093
 C334 C 0.45938 0.53398 0.41372
 C335 C 0.44612 0.54653 0.38015
 C336 C 0.44718 0.57137 0.39802
 C337 C 0.43495 0.58388 0.36426
 C338 C 0.42145 0.57161 0.31226
 C339 C 0.42029 0.54650 0.29505
 C340 C 0.43256 0.53408 0.32876
 C341 C 0.40921 0.58519 0.27521
 C342 C 0.38345 0.56918 0.24669
 C343 C 0.37276 0.58174 0.20912
 C344 C 0.38762 0.61045 0.19961
 C345 C 0.41298 0.62664 0.22864
 C346 C 0.42370 0.61412 0.26631
 C347 C 0.37751 0.62296 0.15787
 C348 C 0.36921 0.63301 0.12162
 H349 H 0.45758 0.58115 0.43783
 H350 H 0.43592 0.60305 0.37892
 H351 H 0.41043 0.53676 0.25486
 H352 H 0.43172 0.51491 0.31443
 H353 H 0.37163 0.54693 0.25324
 H354 H 0.35312 0.56901 0.18685
 H355 H 0.42473 0.64886 0.22132
 H356 H 0.44373 0.62695 0.28710
   
