data_POSCAR
  _audit_creation_date              2014-09-24
  _audit_creation_method            'ToBaCCo'
  _symmetry_space_group_name_H-M    'P1'
  _symmetry_Int_Tables_number       1
  _symmetry_cell_setting            triclinic
  loop_
  _symmetry_equiv_pos_as_xyz
 x,y,z
_cell_length_a 28.7966
_cell_length_b 28.9524
_cell_length_c 15.5309
_cell_angle_alpha 89.729600
_cell_angle_beta 89.917700
_cell_angle_gamma 119.359500
loop_
  _atom_site_label
  _atom_site_type_symbol
  _atom_site_fract_x
  _atom_site_fract_y
  _atom_site_fract_z
C1 C 0.43591 0.88837 0.58181
 C2 C 0.41622 0.86339 0.50248
 C3 C 0.43717 0.88816 0.42311
 C4 C 0.47052 0.94423 0.42245
 C5 C 0.48495 0.97274 0.50127
 C6 C 0.46768 0.94482 0.58097
 C7 C 0.48141 0.97438 0.65731
 C8 C 0.51331 1.02894 0.65660
 C9 C 0.53126 1.05794 0.57921
 C10 C 0.51689 1.02937 0.50036
 C11 C 0.48854 0.97290 0.34505
 C12 C 0.52040 1.02745 0.34421
 C13 C 0.53418 1.05713 0.42053
 C14 C 0.56609 1.11352 0.41938
 C15 C 0.58579 1.13867 0.49860
 C16 C 0.56451 1.11431 0.57845
 H17 H 0.46742 0.95612 0.71960
 H18 H 0.52389 1.04745 0.71885
 H19 H 0.47801 0.95410 0.28301
 H20 H 0.53431 1.04557 0.28183
 H21 H 0.38264 0.82409 0.50268
 H22 H 0.61980 1.17775 0.49774
 C23 C -0.11327 0.44158 0.42064
 C24 C -0.14069 0.43115 0.49965
 C25 C -0.11446 0.44620 0.57967
 C26 C -0.05815 0.48027 0.57785
 C27 C -0.02942 0.48545 0.50079
 C28 C -0.05713 0.46285 0.42334
 C29 C -0.02776 0.46170 0.35182
 C30 C 0.02763 0.48915 0.35208
 C31 C 0.05599 0.51857 0.42411
 C32 C 0.02730 0.51335 0.50116
 C33 C -0.02958 0.51013 0.64962
 C34 C 0.02582 0.53745 0.64990
 C35 C 0.05510 0.53610 0.57849
 C36 C 0.11131 0.55769 0.58088
 C37 C 0.13856 0.56822 0.50173
 C38 C 0.11211 0.55238 0.42232
 H39 H -0.04712 0.43910 0.29502
 H40 H 0.04784 0.48641 0.29530
 H41 H -0.04964 0.51321 0.70633
 H42 H 0.04527 0.56022 0.70652
 H43 H -0.18357 0.41062 0.49864
 H44 H 0.18145 0.58932 0.50202
 C45 C 0.45182 0.56604 0.58053
 C46 C 0.44672 0.58579 0.50040
 C47 C 0.45089 0.56454 0.42180
 C48 C 0.47406 0.53097 0.42253
 C49 C 0.48743 0.51593 0.50213
 C50 C 0.47609 0.53320 0.58115
 C51 C 0.49078 0.51828 0.65830
 C52 C 0.51353 0.48578 0.65884
 C53 C 0.52574 0.46834 0.58210
 C54 C 0.51212 0.48335 0.50261
 C55 C 0.48588 0.51336 0.34576
 C56 C 0.50862 0.48089 0.34631
 C57 C 0.52321 0.46605 0.42347
 C58 C 0.54710 0.43316 0.42370
 C59 C 0.55309 0.41369 0.50317
 C60 C 0.54955 0.43503 0.58243
 H61 H 0.48556 0.53177 0.72028
 H62 H 0.52060 0.47430 0.72144
 H63 H 0.47853 0.52470 0.28326
 H64 H 0.51389 0.46734 0.28443
 H65 H 0.44094 0.61968 0.49902
 H66 H 0.55903 0.37990 0.50298
 O67 O 0.41655 0.65925 -0.07213
 O68 O 0.40949 0.74440 -0.10016
 C69 C 0.38256 0.76736 -0.11587
 O70 O 0.34381 0.76171 -0.06871
 O71 O 0.25775 0.67201 -0.09647
 C72 C 0.23569 0.62342 -0.11607
 O73 O 0.24315 0.58973 -0.07410
 O74 O 0.33451 0.59564 -0.10344
 C75 C 0.38395 0.62140 -0.11921
 O76 O 0.41200 0.67397 0.09891
 O77 O 0.41236 0.76286 0.07065
 C78 C 0.37808 0.76603 0.11824
 O79 O 0.32866 0.74072 0.10299
 O80 O 0.24070 0.65390 0.07493
 C81 C 0.23618 0.61405 0.11704
 O82 O 0.26105 0.58968 0.09710
 O83 O 0.35065 0.59080 0.06787
 C84 C 0.38805 0.62464 0.11479
 Cr85 Cr 0.40995 0.70873 -0.00067
 Cr86 Cr 0.29416 0.70585 0.00302
 Cr87 Cr 0.29860 0.59410 -0.00301
 O88 O 0.33407 0.66948 -0.00031
 O89 O 0.58812 0.32585 -0.09999
 O90 O 0.58800 0.23700 -0.07210
 C91 C 0.62236 0.23407 -0.11983
 O92 O 0.67176 0.25935 -0.10433
 O93 O 0.75958 0.34622 -0.07592
 C94 C 0.76389 0.38594 -0.11821
 O95 O 0.73901 0.41030 -0.09811
 O96 O 0.64934 0.40902 -0.06862
 C97 C 0.61192 0.37522 -0.11558
 O98 O 0.58350 0.34033 0.07111
 O99 O 0.59083 0.25535 0.09900
 C100 C 0.61796 0.23263 0.11493
 O101 O 0.65654 0.23814 0.06745
 O102 O 0.74237 0.32790 0.09553
 C103 C 0.76422 0.37644 0.11542
 O104 O 0.75693 0.41016 0.07320
 O105 O 0.66548 0.40399 0.10265
 C106 C 0.61604 0.37807 0.11842
 Cr107 Cr 0.59025 0.29100 -0.00051
 Cr108 Cr 0.70614 0.29413 -0.00416
 Cr109 Cr 0.70144 0.40573 0.00213
 O110 O 0.66611 0.33037 -0.00082
 C111 C 0.42206 0.85615 -0.33952
 C112 C 0.38015 0.86097 -0.28432
 C113 C 0.36710 0.83259 -0.20950
 C114 C 0.39667 0.80112 -0.19588
 C115 C 0.38498 0.76726 -0.27676
 C116 C 0.39881 0.79547 -0.35137
 C117 C 0.46957 0.87006 -0.27878
 C118 C 0.45609 0.84224 -0.20331
 H119 H 0.36215 0.88485 -0.30281
 H120 H 0.33821 0.83256 -0.16451
 H121 H 0.37084 0.72497 -0.27522
 H122 H 0.39875 0.77607 -0.41092
 H123 H 0.51065 0.89833 -0.29479
 H124 H 0.48545 0.84748 -0.15498
 C125 C 0.14396 0.57332 -0.33541
 C126 C 0.11774 0.53724 -0.25600
 C127 C 0.14706 0.55448 -0.18237
 C128 C 0.20100 0.60504 -0.19494
 C129 C 0.22782 0.59142 -0.26818
 C130 C 0.19821 0.57449 -0.34099
 C131 C 0.15768 0.62922 -0.30668
 C132 C 0.18726 0.64581 -0.23383
 H133 H 0.08073 0.49986 -0.25825
 H134 H 0.13436 0.53250 -0.12216
 H135 H 0.26452 0.59005 -0.26060
 H136 H 0.21008 0.55774 -0.39327
 H137 H 0.14474 0.65370 -0.34085
 H138 H 0.19920 0.68437 -0.20614
 C139 C 0.43345 0.58063 -0.34150
 C140 C 0.39750 0.60631 -0.35442
 C141 C 0.38312 0.62056 -0.28028
 C142 C 0.40370 0.60686 -0.19877
 C143 C 0.38436 0.54727 -0.20622
 C144 C 0.39879 0.53342 -0.28119
 C145 C 0.47979 0.62063 -0.28547
 C146 C 0.46439 0.63408 -0.21109
 H147 H 0.37902 0.60787 -0.41428
 H148 H 0.35624 0.63672 -0.27967
 H149 H 0.35961 0.51814 -0.15819
 H150 H 0.38549 0.49234 -0.29709
 H151 H 0.52146 0.63710 -0.30311
 H152 H 0.49296 0.66174 -0.16562
 C153 C 0.57880 0.14668 -0.34352
 C154 C 0.53080 0.13709 -0.28632
 C155 C 0.54436 0.16450 -0.21083
 C156 C 0.60474 0.20078 -0.19991
 C157 C 0.62897 0.16429 -0.20982
 C158 C 0.61598 0.13666 -0.28462
 C159 C 0.60784 0.20789 -0.35570
 C160 C 0.62173 0.23551 -0.28100
 H161 H 0.48953 0.11192 -0.30473
 H162 H 0.51466 0.16199 -0.16511
 H163 H 0.65457 0.16073 -0.16211
 H164 H 0.63082 0.10974 -0.30057
 H165 H 0.61052 0.22865 -0.41534
 H166 H 0.63776 0.27808 -0.27986
 C167 C 0.85424 0.42926 -0.34079
 C168 C 0.88053 0.41665 -0.26394
 C169 C 0.85174 0.40417 -0.18930
 C170 C 0.79802 0.40291 -0.19824
 C171 C 0.81197 0.45792 -0.23363
 C172 C 0.84105 0.47146 -0.30761
 C173 C 0.79958 0.37777 -0.34655
 C174 C 0.77040 0.36473 -0.27272
 H175 H 0.91729 0.41499 -0.26863
 H176 H 0.86470 0.39328 -0.13078
 H177 H 0.80042 0.48437 -0.20289
 H178 H 0.85388 0.50924 -0.33969
 H179 H 0.78700 0.35017 -0.39981
 H180 H 0.73322 0.32786 -0.26572
 C181 C 0.56776 0.42052 -0.33917
 C182 C 0.52093 0.38253 -0.28127
 C183 C 0.53562 0.36894 -0.20642
 C184 C 0.59604 0.39353 -0.19545
 C185 C 0.61542 0.37802 -0.27634
 C186 C 0.60161 0.39248 -0.35108
 C187 C 0.60430 0.46777 -0.28108
 C188 C 0.61822 0.45363 -0.20550
 H189 H 0.47939 0.36768 -0.29782
 H190 H 0.50668 0.34279 -0.15925
 H191 H 0.64335 0.36303 -0.27486
 H192 H 0.62070 0.39114 -0.41048
 H193 H 0.61921 0.50897 -0.29899
 H194 H 0.64421 0.48274 -0.15914
 C195 C 0.85440 0.42611 0.33652
 C196 C 0.84129 0.37045 0.30727
 C197 C 0.81225 0.35404 0.23386
 C198 C 0.79838 0.39470 0.19494
 C199 C 0.77085 0.40771 0.26785
 C200 C 0.79991 0.42445 0.34126
 C201 C 0.88093 0.46264 0.25767
 C202 C 0.85217 0.44557 0.18348
 H203 H 0.85421 0.34599 0.34157
 H204 H 0.80077 0.31567 0.20582
 H205 H 0.73418 0.40905 0.25955
 H206 H 0.78755 0.44096 0.39324
 H207 H 0.91776 0.50016 0.26068
 H208 H 0.86517 0.46784 0.12356
 C209 C 0.57982 0.14543 0.34032
 C210 C 0.62100 0.13977 0.28438
 C211 C 0.63356 0.16757 0.20897
 C212 C 0.60436 0.19942 0.19559
 C213 C 0.54490 0.15880 0.20460
 C214 C 0.53188 0.13157 0.28058
 C215 C 0.60380 0.20626 0.35115
 C216 C 0.61716 0.23391 0.27594
 H217 H 0.63890 0.11580 0.30287
 H218 H 0.66191 0.16700 0.16347
 H219 H 0.51519 0.15345 0.15685
 H220 H 0.49087 0.10366 0.29758
 H221 H 0.60503 0.22628 0.41058
 H222 H 0.63212 0.27630 0.27370
 C223 C 0.56627 0.41791 0.34116
 C224 C 0.60175 0.39188 0.35395
 C225 C 0.61641 0.37807 0.27962
 C226 C 0.59618 0.39230 0.19818
 C227 C 0.53544 0.36521 0.21011
 C228 C 0.51997 0.37840 0.28470
 C229 C 0.60098 0.46535 0.28150
 C230 C 0.61564 0.45187 0.20641
 H231 H 0.61930 0.38929 0.41415
 H232 H 0.64297 0.36158 0.27889
 H233 H 0.50693 0.33789 0.16423
 H234 H 0.47832 0.36212 0.30226
 H235 H 0.61397 0.50630 0.29788
 H236 H 0.64039 0.48120 0.15863
 C237 C 0.14513 0.57022 0.33856
 C238 C 0.15850 0.52814 0.30570
 C239 C 0.18786 0.54184 0.23200
 C240 C 0.20177 0.59687 0.19670
 C241 C 0.14793 0.59535 0.18724
 C242 C 0.11884 0.58252 0.26160
 C243 C 0.19961 0.62163 0.34502
 C244 C 0.22903 0.63495 0.27145
 H245 H 0.14553 0.49034 0.33778
 H246 H 0.19958 0.51547 0.20139
 H247 H 0.13497 0.60599 0.12847
 H248 H 0.08173 0.58351 0.26599
 H249 H 0.21201 0.64881 0.39880
 H250 H 0.26630 0.67178 0.26495
 C251 C 0.42198 0.85404 0.34088
 C252 C 0.38529 0.86448 0.28163
 C253 C 0.37210 0.83657 0.20706
 C254 C 0.39583 0.79960 0.19789
 C255 C 0.45628 0.83554 0.20889
 C256 C 0.46990 0.86327 0.28405
 C257 C 0.39237 0.79300 0.35371
 C258 C 0.37844 0.76514 0.27928
 H259 H 0.37100 0.89187 0.29721
 H260 H 0.34679 0.84034 0.15901
 H261 H 0.48592 0.83784 0.16325
 H262 H 0.51114 0.88858 0.30243
 H263 H 0.38888 0.77241 0.41382
 H264 H 0.36166 0.72248 0.27859
 C265 C 0.43198 0.57985 0.33885
 C266 C 0.47885 0.61691 0.28035
 C267 C 0.46424 0.63039 0.20530
 C268 C 0.40384 0.60650 0.19490
 C269 C 0.38096 0.54636 0.20595
 C270 C 0.39496 0.53245 0.28164
 C271 C 0.39917 0.60882 0.35059
 C272 C 0.38524 0.62300 0.27566
 H273 H 0.52030 0.63119 0.29674
 H274 H 0.49319 0.65594 0.15762
 H275 H 0.35469 0.51712 0.15999
 H276 H 0.37998 0.49134 0.30016
 H277 H 0.38123 0.61151 0.41036
 H278 H 0.35804 0.63885 0.27408
   
