data_POSCAR
  _audit_creation_date              2014-09-24
  _audit_creation_method            'ToBaCCo'
  _symmetry_space_group_name_H-M    'P1'
  _symmetry_Int_Tables_number       1
  _symmetry_cell_setting            triclinic
  loop_
  _symmetry_equiv_pos_as_xyz
 x,y,z
_cell_length_a 26.3241
_cell_length_b 26.3636
_cell_length_c 26.4039
_cell_angle_alpha 89.872000
_cell_angle_beta 89.947400
_cell_angle_gamma 90.072600
loop_
  _atom_site_label
  _atom_site_type_symbol
  _atom_site_fract_x
  _atom_site_fract_y
  _atom_site_fract_z
C1 C 0.25017 0.28854 0.21147
 C2 C 0.28801 0.28830 0.17401
 C3 C 0.32548 0.25060 0.17403
 C4 C 0.32542 0.21286 0.21147
 C5 C 0.28787 0.21253 0.24921
 C6 C 0.25003 0.25051 0.24928
 C7 C 0.21246 0.32610 0.21182
 C8 C 0.17485 0.32597 0.24941
 C9 C 0.17464 0.28831 0.28693
 C10 C 0.21206 0.25046 0.28716
 C11 C 0.21222 0.21256 0.32455
 C12 C 0.24978 0.17495 0.32440
 C13 C 0.28746 0.17492 0.28689
 H14 H 0.28839 0.31735 0.14486
 H15 H 0.35460 0.18385 0.21115
 H16 H 0.21228 0.35542 0.18294
 H17 H 0.14536 0.28854 0.31586
 H18 H 0.18322 0.21225 0.35376
 H19 H 0.31637 0.14564 0.28711
 C20 C 0.74952 -0.28835 0.21193
 C21 C 0.71153 -0.28817 0.17468
 C22 C 0.67381 -0.25066 0.17485
 C23 C 0.67384 -0.21305 0.21232
 C24 C 0.71156 -0.21267 0.24984
 C25 C 0.74960 -0.25046 0.24971
 C26 C 0.78743 -0.32573 0.21208
 C27 C 0.82522 -0.32557 0.24947
 C28 C 0.82535 -0.28800 0.28698
 C29 C 0.78772 -0.25035 0.28736
 C30 C 0.78752 -0.21260 0.32473
 C31 C 0.74978 -0.17518 0.32479
 C32 C 0.71194 -0.17520 0.28750
 H33 H 0.71131 -0.31719 0.14558
 H34 H 0.64456 -0.18410 0.21226
 H35 H 0.78753 -0.35491 0.18315
 H36 H 0.85470 -0.28807 0.31582
 H37 H 0.81664 -0.21225 0.35376
 H38 H 0.68289 -0.14607 0.28788
 C39 C 0.75027 0.28878 0.78769
 C40 C 0.71248 0.28833 0.82519
 C41 C 0.67503 0.25047 0.82534
 C42 C 0.67512 0.21278 0.78795
 C43 C 0.71265 0.21269 0.75018
 C44 C 0.75043 0.25083 0.74998
 C45 C 0.78791 0.32651 0.78723
 C46 C 0.82553 0.32664 0.74959
 C47 C 0.82574 0.28902 0.71214
 C48 C 0.78836 0.25102 0.71206
 C49 C 0.78822 0.21319 0.67476
 C50 C 0.75073 0.17542 0.67503
 C51 C 0.71309 0.17516 0.71259
 H52 H 0.71220 0.31740 0.85423
 H53 H 0.64603 0.18357 0.78826
 H54 H 0.78796 0.35572 0.81612
 H55 H 0.85496 0.28931 0.68311
 H56 H 0.81718 0.21306 0.64551
 H57 H 0.68423 0.14576 0.71246
 C58 C 0.24883 -0.28909 0.78918
 C59 C 0.28654 -0.28882 0.82671
 C60 C 0.32428 -0.25130 0.82659
 C61 C 0.32464 -0.21375 0.78896
 C62 C 0.28723 -0.21343 0.75114
 C63 C 0.24912 -0.25124 0.75119
 C64 C 0.21085 -0.32649 0.78894
 C65 C 0.17336 -0.32639 0.75125
 C66 C 0.17360 -0.28886 0.71354
 C67 C 0.21129 -0.25120 0.71323
 C68 C 0.21187 -0.21349 0.67566
 C69 C 0.24967 -0.17605 0.67569
 C70 C 0.28722 -0.17600 0.71327
 H71 H 0.28660 -0.31773 0.85601
 H72 H 0.35402 -0.18487 0.78919
 H73 H 0.21047 -0.35564 0.81803
 H74 H 0.14448 -0.28898 0.68446
 H75 H 0.18297 -0.21319 0.64641
 H76 H 0.31632 -0.14684 0.71296
 C77 C 0.75040 -0.28860 0.78887
 C78 C 0.71272 -0.28829 0.82646
 C79 C 0.67517 -0.25070 0.82642
 C80 C 0.67495 -0.21312 0.78883
 C81 C 0.71235 -0.21285 0.75094
 C82 C 0.75028 -0.25074 0.75089
 C83 C 0.78818 -0.32607 0.78855
 C84 C 0.82566 -0.32602 0.75079
 C85 C 0.82561 -0.28850 0.71308
 C86 C 0.78810 -0.25076 0.71287
 C87 C 0.78769 -0.21304 0.67533
 C88 C 0.75005 -0.17553 0.67547
 C89 C 0.71252 -0.17541 0.71311
 H90 H 0.71253 -0.31721 0.85574
 H91 H 0.64569 -0.18419 0.78914
 H92 H 0.78843 -0.35523 0.81763
 H93 H 0.85473 -0.28868 0.68396
 H94 H 0.81658 -0.21277 0.64601
 H95 H 0.68355 -0.14619 0.71288
 C96 C 0.24994 0.28794 0.78704
 C97 C 0.28790 0.28773 0.82428
 C98 C 0.32549 0.25018 0.82409
 C99 C 0.32547 0.21255 0.78673
 C100 C 0.28780 0.21219 0.74921
 C101 C 0.24982 0.25003 0.74929
 C102 C 0.21211 0.32535 0.78684
 C103 C 0.17439 0.32518 0.74946
 C104 C 0.17416 0.28765 0.71199
 C105 C 0.21171 0.24995 0.71162
 C106 C 0.21188 0.21217 0.67429
 C107 C 0.24958 0.17472 0.67432
 C108 C 0.28739 0.17471 0.71161
 H109 H 0.28827 0.31669 0.85339
 H110 H 0.35476 0.18365 0.78695
 H111 H 0.21194 0.35459 0.81567
 H112 H 0.14477 0.28787 0.68322
 H113 H 0.18278 0.21183 0.64524
 H114 H 0.31641 0.14553 0.71127
 C115 C 0.24958 -0.28873 0.21161
 C116 C 0.28764 -0.28861 0.17437
 C117 C 0.32560 -0.25127 0.17470
 C118 C 0.32578 -0.21378 0.21227
 C119 C 0.28800 -0.21336 0.24977
 C120 C 0.24969 -0.25096 0.24950
 C121 C 0.21142 -0.32592 0.21164
 C122 C 0.17357 -0.32568 0.24903
 C123 C 0.17362 -0.28824 0.28664
 C124 C 0.21150 -0.25079 0.28715
 C125 C 0.21190 -0.21317 0.32462
 C126 C 0.24991 -0.17595 0.32478
 C127 C 0.28782 -0.17602 0.28752
 H128 H 0.28771 -0.31752 0.14518
 H129 H 0.35527 -0.18497 0.21231
 H130 H 0.21118 -0.35502 0.18263
 H131 H 0.14422 -0.28828 0.31550
 H132 H 0.18271 -0.21276 0.35365
 H133 H 0.31707 -0.14701 0.28800
 C134 C 0.75138 0.28928 0.21194
 C135 C 0.71379 0.28878 0.17432
 C136 C 0.67646 0.25089 0.17425
 C137 C 0.67636 0.21320 0.21172
 C138 C 0.71366 0.21313 0.24962
 C139 C 0.75138 0.25132 0.24981
 C140 C 0.78895 0.32705 0.21237
 C141 C 0.82634 0.32720 0.25013
 C142 C 0.82642 0.28958 0.28775
 C143 C 0.78911 0.25154 0.28785
 C144 C 0.78881 0.21370 0.32529
 C145 C 0.75136 0.17590 0.32501
 C146 C 0.71393 0.17560 0.28734
 H147 H 0.71351 0.31778 0.14512
 H148 H 0.64726 0.18404 0.21132
 H149 H 0.78910 0.35627 0.18335
 H150 H 0.85549 0.28991 0.31687
 H151 H 0.81761 0.21358 0.35464
 H152 H 0.68511 0.14616 0.28747
 O153 O 0.20773 0.04847 0.45035
 O154 O 0.20788 -0.05030 0.54927
 O155 O 0.20763 0.04847 0.54894
 O156 O 0.20786 -0.05031 0.45060
 O157 O 0.29187 -0.05007 0.45056
 O158 O 0.29165 0.04871 0.54890
 O159 O 0.29189 -0.05006 0.54923
 O160 O 0.29174 0.04871 0.45031
 Cu161 Cu 0.19929 -0.00096 0.49979
 Cu162 Cu 0.30027 -0.00067 0.49974
 C163 C 0.24971 0.06528 0.43366
 C164 C 0.24990 -0.06683 0.56597
 C165 C 0.24960 0.06527 0.56550
 C166 C 0.24990 -0.06684 0.43396
 O167 O 0.79266 0.04920 0.54936
 O168 O 0.79227 -0.04944 0.45069
 O169 O 0.79286 0.04936 0.45075
 O170 O 0.79231 -0.04960 0.54936
 O171 O 0.70829 -0.04934 0.54939
 O172 O 0.70884 0.04964 0.45075
 O173 O 0.70826 -0.04916 0.45072
 O174 O 0.70865 0.04945 0.54936
 Cu175 Cu 0.80100 -0.00016 0.50004
 Cu176 Cu 0.70003 0.00017 0.50006
 C177 C 0.75071 0.06599 0.56600
 C178 C 0.75019 -0.06594 0.43404
 C179 C 0.75094 0.06622 0.43413
 C180 C 0.75022 -0.06615 0.56604
 O181 O 0.45181 0.20858 0.04826
 O182 O 0.55082 0.20842 -0.05045
 O183 O 0.55073 0.20857 0.04821
 O184 O 0.45189 0.20842 -0.05034
 O185 O 0.45199 0.29231 -0.05065
 O186 O 0.55082 0.29246 0.04790
 O187 O 0.55091 0.29231 -0.05076
 O188 O 0.45191 0.29247 0.04794
 Cu189 Cu 0.50131 0.20003 -0.00105
 Cu190 Cu 0.50143 0.30086 -0.00143
 C191 C 0.43514 0.25055 0.06475
 C192 C 0.56756 0.25034 -0.06728
 C193 C 0.56742 0.25054 0.06471
 C194 C 0.43524 0.25034 -0.06710
 O195 O 0.54922 0.79099 0.05124
 O196 O 0.45028 0.79076 -0.04739
 O197 O 0.45024 0.79073 0.05123
 O198 O 0.54920 0.79102 -0.04742
 O199 O 0.54930 0.70713 -0.04725
 O200 O 0.45033 0.70684 0.05141
 O201 O 0.45038 0.70687 -0.04722
 O202 O 0.54932 0.70711 0.05142
 Cu203 Cu 0.49973 0.79934 0.00192
 Cu204 Cu 0.49985 0.69852 0.00212
 C205 C 0.56599 0.74909 0.06796
 C206 C 0.43364 0.74878 -0.06397
 C207 C 0.43355 0.74875 0.06794
 C208 C 0.56592 0.74912 -0.06400
 O209 O 0.04869 0.45209 0.20758
 O210 O -0.05034 0.55073 0.20753
 O211 O 0.04866 0.55085 0.20733
 O212 O -0.05020 0.45191 0.20792
 O213 O -0.05006 0.45197 0.29168
 O214 O 0.04879 0.55090 0.29109
 O215 O -0.05021 0.55079 0.29128
 O216 O 0.04882 0.45214 0.29134
 Cu217 Cu -0.00083 0.50141 0.19914
 Cu218 Cu -0.00066 0.50149 0.29980
 C219 C 0.06545 0.43546 0.24946
 C220 C -0.06701 0.56739 0.24940
 C221 C 0.06546 0.56752 0.24912
 C222 C -0.06676 0.43520 0.24990
 O223 O 0.04850 0.54958 0.79253
 O224 O -0.05063 0.45083 0.79179
 O225 O 0.04826 0.45083 0.79184
 O226 O -0.05047 0.54964 0.79229
 O227 O -0.05028 0.55030 0.70853
 O228 O 0.04844 0.45150 0.70808
 O229 O -0.05046 0.45148 0.70804
 O230 O 0.04869 0.55026 0.70877
 Cu231 Cu -0.00112 0.50017 0.80057
 Cu232 Cu -0.00090 0.50097 0.69990
 C233 C 0.06536 0.56655 0.75077
 C234 C -0.06724 0.43445 0.74981
 C235 C 0.06500 0.43449 0.74988
 C236 C -0.06703 0.56664 0.75048
 C237 C 0.36416 0.25062 0.13546
 C238 C 0.39657 0.25060 0.10316
 C239 C 0.63707 0.74926 0.13850
 C240 C 0.60459 0.74918 0.10631
 C241 C 0.63844 0.25034 -0.13811
 C242 C 0.60607 0.25030 -0.10576
 C243 C 0.36284 0.74868 -0.13476
 C244 C 0.39516 0.74870 -0.10242
 C245 C 0.13627 0.36463 0.24945
 C246 C 0.10395 0.39699 0.24947
 C247 C 0.13661 0.63715 0.75120
 C248 C 0.10407 0.60491 0.75104
 C249 C -0.13809 0.63799 0.24940
 C250 C -0.10563 0.60575 0.24938
 C251 C -0.13799 0.36336 0.74952
 C252 C -0.10569 0.39585 0.74958
 C253 C 0.24970 0.13624 0.36294
 C254 C 0.24968 0.10382 0.39522
 C255 C 0.75082 0.13679 0.63657
 C256 C 0.75082 0.10445 0.60435
 C257 C 0.24988 -0.13749 0.63699
 C258 C 0.24993 -0.10522 0.60456
 C259 C 0.74989 -0.13660 0.36332
 C260 C 0.75002 -0.10432 0.39560
 C261 C 0.63664 0.74928 -0.13490
 C262 C 0.60436 0.74922 -0.10250
 C263 C 0.36425 0.25024 -0.13754
 C264 C 0.39669 0.25028 -0.10539
 C265 C 0.36237 0.74866 0.13838
 C266 C 0.39490 0.74866 0.10622
 C267 C 0.63802 0.25072 0.13556
 C268 C 0.60580 0.25062 0.10318
 C269 C -0.13780 0.63745 0.75072
 C270 C -0.10548 0.60511 0.75063
 C271 C -0.13727 0.36397 0.25018
 C272 C -0.10508 0.39652 0.25010
 C273 C 0.13576 0.36372 0.74956
 C274 C 0.10343 0.39603 0.74970
 C275 C 0.13673 0.63800 0.24892
 C276 C 0.10414 0.60584 0.24895
 C277 C 0.75001 -0.13694 0.63685
 C278 C 0.75005 -0.10462 0.60450
 C279 C 0.24996 -0.13747 0.36333
 C280 C 0.24996 -0.10523 0.39560
 C281 C 0.75129 0.13723 0.36354
 C282 C 0.75116 0.10480 0.39578
 C283 C 0.24951 0.13612 0.63590
 C284 C 0.24953 0.10377 0.60374
   
