data_POSCAR
  _audit_creation_date              2014-09-24
  _audit_creation_method            'ToBaCCo'
  _symmetry_space_group_name_H-M    'P1'
  _symmetry_Int_Tables_number       1
  _symmetry_cell_setting            triclinic
  loop_
  _symmetry_equiv_pos_as_xyz
 x,y,z
_cell_length_a 55.4979
_cell_length_b 53.8440
_cell_length_c 56.1069
_cell_angle_alpha 91.463300
_cell_angle_beta 90.868400
_cell_angle_gamma 91.393700
loop_
  _atom_site_label
  _atom_site_type_symbol
  _atom_site_fract_x
  _atom_site_fract_y
  _atom_site_fract_z
N1 N 0.22593 0.22926 0.22471
 N2 N 0.69365 0.69319 0.68066
 N3 N 0.28807 0.79596 0.70758
 N4 N 0.79612 0.28809 0.22266
 N5 N 0.77637 0.73082 0.26866
 N6 N 0.30071 0.19968 -0.19177
 N7 N 0.68800 0.29551 -0.19454
 N8 N 0.21525 0.78649 0.28991
 N9 N 0.47647 0.46315 0.47102
 N10 N -0.05474 -0.05011 0.95869
 N11 N 1.03187 0.52811 0.96352
 N12 N 0.54978 0.05074 0.44242
 N13 N -0.04647 0.05987 0.55629
 N14 N 0.47651 0.53583 0.03326
 N15 N 0.54225 -0.05457 0.03646
 N16 N 1.04745 0.46740 0.55774
 C17 C 0.41337 0.00758 0.20375
 H18 H 0.41823 0.02427 0.21404
 C19 C 0.42661 0.00099 0.18367
 H20 H 0.44136 0.01307 0.17848
 C21 C 0.38778 -0.02800 0.19797
 H22 H 0.37289 -0.03950 0.20373
 C23 C 0.40043 -0.03519 0.17772
 H24 H 0.39496 -0.05207 0.16797
 N25 N 0.39425 -0.00679 0.21039
 C26 C 0.34668 0.04155 0.25062
 H27 H 0.34510 0.03139 0.26693
 C28 C 0.33341 0.06298 0.24748
 H29 H 0.32161 0.06884 0.26156
 C30 C 0.36322 0.04501 0.21214
 H31 H 0.37446 0.03770 0.19821
 C32 C 0.35031 0.06651 0.20826
 H33 H 0.35198 0.07568 0.19138
 Zn34 Zn 0.37742 0.00300 0.23809
 N35 N 0.36132 0.03310 0.23313
 C36 C 0.40314 0.02863 0.27588
 N37 N 0.40032 0.00677 0.26337
 C38 C 0.41444 -0.01284 0.26801
 C39 C 0.43181 -0.01116 0.28626
 C40 C 0.42036 0.03120 0.29427
 C41 C 0.33483 -0.02459 0.22950
 C42 C 0.31710 -0.04287 0.23305
 C43 C 0.33787 -0.05380 0.26931
 C44 C 0.35518 -0.03522 0.26505
 N45 N 0.35366 -0.02145 0.24513
 H46 H 0.39210 0.04420 0.27159
 H47 H 0.41211 -0.02989 0.25750
 H48 H 0.44268 -0.02717 0.28969
 H49 H 0.42173 0.04886 0.30378
 H50 H 0.33384 -0.01309 0.21400
 H51 H 0.30253 -0.04525 0.22006
 H52 H 0.34001 -0.06439 0.28524
 H53 H 0.36990 -0.03201 0.27763
 C54 C 0.33520 0.07583 0.22602
 C55 C 0.42020 -0.02076 0.17044
 C56 C 0.31857 -0.05814 0.25295
 C57 C 0.43504 0.01103 0.29981
 C58 C 0.07890 -0.00380 0.72611
 H59 H 0.07607 -0.02237 0.73262
 C60 C 0.06486 0.00439 0.70711
 H61 H 0.05151 -0.00823 0.69896
 C62 C 0.10049 0.03470 0.72844
 H63 H 0.11417 0.04663 0.73690
 C64 C 0.08701 0.04357 0.70940
 H65 H 0.09066 0.06217 0.70324
 N66 N 0.09662 0.01117 0.73606
 C67 C 0.14974 -0.03919 0.76431
 H68 H 0.15119 -0.03224 0.78256
 C69 C 0.16439 -0.05841 0.75656
 H70 H 0.17719 -0.06580 0.76906
 C71 C 0.13219 -0.03656 0.72574
 H72 H 0.12004 -0.02765 0.71363
 C73 C 0.14653 -0.05572 0.71722
 H74 H 0.14504 -0.06158 0.69863
 Zn75 Zn 0.11600 -0.00176 0.76077
 N76 N 0.13390 -0.02883 0.74899
 C77 C 0.09438 -0.03607 0.79218
 N78 N 0.09538 -0.01199 0.78550
 C79 C 0.08125 0.00532 0.79592
 C80 C 0.06592 -0.00111 0.81443
 C81 C 0.07923 -0.04338 0.81050
 C82 C 0.15525 0.03102 0.75659
 C83 C 0.17242 0.04924 0.76352
 C84 C 0.15623 0.04899 0.80324
 C85 C 0.13920 0.03092 0.79542
 N86 N 0.13873 0.02268 0.77231
 H87 H 0.10526 -0.04972 0.78329
 H88 H 0.08206 0.02426 0.78992
 H89 H 0.05513 0.01334 0.82214
 H90 H 0.07890 -0.06267 0.81557
 H91 H 0.15492 0.02358 0.73848
 H92 H 0.18517 0.05512 0.75035
 H93 H 0.15610 0.05543 0.82169
 H94 H 0.12645 0.02349 0.80789
 C95 C 0.16277 -0.06702 0.73270
 C96 C 0.06901 0.02837 0.69843
 C97 C 0.17293 0.05884 0.78717
 C98 C 0.06485 -0.02584 0.82218
 C99 C 0.57890 0.49937 0.23110
 H100 H 0.57202 0.49772 0.24890
 C101 C 0.56273 0.50056 0.21190
 H102 H 0.54354 0.50009 0.21518
 C103 C 0.61203 0.50115 0.20502
 H104 H 0.63129 0.50073 0.20245
 C105 C 0.59648 0.50248 0.18530
 H106 H 0.60410 0.50297 0.16769
 N107 N 0.60309 0.49994 0.22743
 C108 C 0.66341 0.46539 0.26357
 H109 H 0.66810 0.47869 0.27769
 C110 C 0.67825 0.44516 0.25938
 H111 H 0.69436 0.44355 0.27024
 C112 C 0.63721 0.45201 0.23185
 H113 H 0.62111 0.45455 0.22124
 C114 C 0.65152 0.43161 0.22702
 H115 H 0.64639 0.41880 0.21252
 Zn116 Zn 0.62473 0.49751 0.25387
 N117 N 0.64354 0.46870 0.24959
 C118 C 0.60547 0.47439 0.29471
 N119 N 0.60684 0.49559 0.28214
 C120 C 0.59526 0.51634 0.28931
 C121 C 0.58119 0.51620 0.30967
 C122 C 0.59159 0.47338 0.31528
 C123 C 0.65704 0.53011 0.27814
 C124 C 0.67168 0.55126 0.28216
 C125 C 0.66152 0.56453 0.24256
 C126 C 0.64689 0.54318 0.23941
 N127 N 0.64515 0.52629 0.25696
 H128 H 0.61490 0.45813 0.28862
 H129 H 0.59678 0.53299 0.27898
 H130 H 0.57195 0.53295 0.31484
 H131 H 0.59080 0.45606 0.32453
 H132 H 0.65473 0.51693 0.29219
 H133 H 0.68085 0.55384 0.29928
 H134 H 0.66210 0.57748 0.22820
 H135 H 0.63675 0.54040 0.22298
 C136 C 0.67244 0.42805 0.24069
 C137 C 0.57144 0.50242 0.18869
 C138 C 0.67429 0.56885 0.26425
 C139 C 0.57900 0.49453 0.32300
 C140 C 0.90324 0.50827 0.71922
 H141 H 0.90400 0.52606 0.72865
 C142 C 0.91896 0.50365 0.70048
 H143 H 0.93140 0.51832 0.69560
 C144 C 0.88568 0.46789 0.71442
 H145 H 0.87301 0.45381 0.72013
 C146 C 0.90105 0.46246 0.69565
 H147 H 0.89981 0.44428 0.68692
 N148 N 0.88683 0.49059 0.72561
 C149 C 0.83063 0.53129 0.76195
 H150 H 0.82994 0.52089 0.77818
 C151 C 0.81484 0.55065 0.75851
 H152 H 0.80204 0.55515 0.77226
 C153 C 0.84795 0.53768 0.72418
 H154 H 0.86068 0.53234 0.71073
 C155 C 0.83236 0.55717 0.71994
 H156 H 0.83385 0.56695 0.70342
 Zn157 Zn 0.86634 0.49783 0.75142
 N158 N 0.84689 0.52530 0.74499
 C159 C 0.90091 0.48673 0.78643
 N160 N 0.88604 0.50466 0.77878
 C161 C 0.88591 0.52742 0.78981
 C162 C 0.90072 0.53265 0.80970
 C163 C 0.91602 0.49111 0.80635
 C164 C 0.82912 0.46481 0.73810
 C165 C 0.81194 0.44575 0.74039
 C166 C 0.82679 0.43962 0.78047
 C167 C 0.84384 0.45876 0.77730
 N168 N 0.84478 0.47077 0.75631
 H169 H 0.90100 0.46894 0.77703
 H170 H 0.87451 0.54171 0.78310
 H171 H 0.90019 0.55095 0.81817
 H172 H 0.92745 0.47627 0.81176
 H173 H 0.83000 0.47499 0.72175
 H174 H 0.79974 0.44137 0.72552
 H175 H 0.82679 0.43054 0.79739
 H176 H 0.85607 0.46418 0.79177
 C177 C 0.81539 0.56373 0.73724
 C178 C 0.91801 0.48038 0.68843
 C179 C 0.81039 0.43287 0.76180
 C180 C 0.91603 0.51443 0.81842
 C181 C 0.21882 0.41818 0.00818
 H182 H 0.22892 0.42317 0.02431
 C183 C 0.19921 0.43229 0.00129
 H184 H 0.19462 0.44829 0.01218
 C185 C 0.21343 0.39180 -0.02603
 H186 H 0.21923 0.37633 -0.03691
 C187 C 0.19384 0.40546 -0.03364
 H188 H 0.18455 0.40010 -0.05017
 N189 N 0.22517 0.39801 -0.00518
 C190 C 0.26173 0.34888 0.04372
 H191 H 0.27789 0.34522 0.03380
 C192 C 0.25748 0.33660 0.06495
 H193 H 0.27055 0.32349 0.07094
 C194 C 0.22452 0.36925 0.04668
 H195 H 0.21138 0.38144 0.03925
 C196 C 0.21954 0.35740 0.06796
 H197 H 0.20271 0.36090 0.07683
 Zn198 Zn 0.25165 0.37918 0.00515
 N199 N 0.24544 0.36499 0.03511
 C200 C 0.29414 0.40201 0.02616
 N201 N 0.27926 0.40066 0.00668
 C202 C 0.28326 0.41521 -0.01237
 C203 C 0.30297 0.43183 -0.01240
 C204 C 0.31437 0.41803 0.02672
 C205 C 0.23848 0.33498 -0.01917
 C206 C 0.24054 0.31516 -0.03544
 C207 C 0.28008 0.33108 -0.04552
 C208 C 0.27710 0.35079 -0.02922
 N209 N 0.25642 0.35253 -0.01670
 H210 H 0.29037 0.39076 0.04138
 H211 H 0.27099 0.41397 -0.02754
 H212 H 0.30570 0.44326 -0.02780
 H213 H 0.32549 0.41872 0.04270
 H214 H 0.22234 0.33668 -0.00874
 H215 H 0.22577 0.30168 -0.03739
 H216 H 0.29657 0.33082 -0.05546
 H217 H 0.29126 0.36478 -0.02673
 C218 C 0.23611 0.34088 0.07742
 C219 C 0.18621 0.42568 -0.01973
 C220 C 0.26150 0.31291 -0.04901
 C221 C 0.31914 0.43324 0.00715
 C222 C 0.71146 0.09092 -0.00519
 H223 H 0.72053 0.08988 -0.02210
 C224 C 0.69115 0.07577 -0.00136
 H225 H 0.68452 0.06346 -0.01565
 C226 C 0.70900 0.10871 0.03373
 H227 H 0.71617 0.12123 0.04754
 C228 C 0.68854 0.09410 0.03823
 H229 H 0.68000 0.09574 0.05542
 N230 N 0.71982 0.10715 0.01217
 C231 C 0.75884 0.16653 -0.02326
 H232 H 0.77562 0.16646 -0.01319
 C233 C 0.75581 0.18341 -0.04142
 H234 H 0.77040 0.19637 -0.04525
 C235 C 0.71958 0.14948 -0.03054
 H236 H 0.70551 0.13622 -0.02622
 C237 C 0.71577 0.16608 -0.04891
 H238 H 0.69883 0.16491 -0.05864
 Zn239 Zn 0.74759 0.12691 0.00575
 N240 N 0.74101 0.14974 -0.01843
 C241 C 0.78229 0.10782 -0.02602
 N242 N 0.77208 0.10530 -0.00432
 C243 C 0.77870 0.08693 0.01041
 C244 C 0.79685 0.07068 0.00387
 C245 C 0.80047 0.09202 -0.03330
 C246 C 0.74277 0.16304 0.04209
 C247 C 0.74930 0.17743 0.06233
 C248 C 0.78734 0.15660 0.06350
 C249 C 0.77996 0.14249 0.04335
 N250 N 0.75784 0.14565 0.03330
 H251 H 0.77637 0.12207 -0.03781
 H252 H 0.76997 0.08507 0.02740
 H253 H 0.80161 0.05659 0.01631
 H254 H 0.80845 0.09461 -0.05061
 H255 H 0.72553 0.16563 0.03336
 H256 H 0.73670 0.19100 0.06855
 H257 H 0.80502 0.15361 0.07123
 H258 H 0.79204 0.12914 0.03572
 C259 C 0.73415 0.18329 -0.05463
 C260 C 0.67945 0.07729 0.02065
 C261 C 0.77190 0.17420 0.07355
 C262 C 0.80824 0.07321 -0.01830
 C263 C 0.23141 0.58450 0.48348
 H264 H 0.24309 0.58331 0.46826
 C265 C 0.21186 0.56784 0.48530
 H266 H 0.20849 0.55386 0.47134
 C267 C 0.22169 0.60405 0.52028
 H268 H 0.22573 0.61793 0.53408
 C269 C 0.20206 0.58772 0.52287
 H270 H 0.19086 0.58996 0.53834
 N271 N 0.23572 0.60241 0.50066
 C272 C 0.27856 0.65837 0.46421
 H273 H 0.29369 0.66021 0.47658
 C274 C 0.27780 0.67303 0.44409
 H275 H 0.29250 0.68609 0.44098
 C276 C 0.24080 0.63944 0.45361
 H277 H 0.22622 0.62662 0.45759
 C278 C 0.23924 0.65383 0.43327
 H279 H 0.22370 0.65125 0.42156
 Zn280 Zn 0.26259 0.62436 0.49725
 N281 N 0.26030 0.64189 0.46853
 C282 C 0.30438 0.60264 0.47791
 N283 N 0.29059 0.60489 0.49762
 C284 C 0.29566 0.59219 0.51763
 C285 C 0.31559 0.57687 0.51851
 C286 C 0.32435 0.58732 0.47789
 C287 C 0.24400 0.66333 0.52429
 C288 C 0.24322 0.68169 0.54223
 C289 C 0.28334 0.67077 0.55479
 C290 C 0.28315 0.65231 0.53681
 N291 N 0.26354 0.64874 0.52220
 H292 H 0.29975 0.61243 0.46198
 H293 H 0.28415 0.59396 0.53293
 H294 H 0.31927 0.56702 0.53473
 H295 H 0.33484 0.58639 0.46187
 H296 H 0.22883 0.66043 0.51211
 H297 H 0.22724 0.69277 0.54372
 H298 H 0.29910 0.67256 0.56628
 H299 H 0.29876 0.64094 0.53449
 C300 C 0.25785 0.67111 0.42847
 C301 C 0.19699 0.56923 0.50525
 C302 C 0.26305 0.68579 0.55781
 C303 C 0.33022 0.57397 0.49843
 C304 C 0.71852 0.91403 0.51088
 H305 H 0.72854 0.91266 0.52747
 C306 C 0.69918 0.93007 0.50943
 H307 H 0.69433 0.94097 0.52506
 C308 C 0.71296 0.90178 0.47029
 H309 H 0.71853 0.89098 0.45496
 C310 C 0.69350 0.91757 0.46805
 H311 H 0.68411 0.91797 0.45107
 N312 N 0.72491 0.90014 0.49152
 C313 C 0.76313 0.83664 0.51875
 H314 H 0.77921 0.83778 0.50813
 C315 C 0.76036 0.81766 0.53503
 H316 H 0.77445 0.80424 0.53689
 C317 C 0.72535 0.85289 0.52925
 H318 H 0.71171 0.86663 0.52691
 C319 C 0.72181 0.83418 0.54576
 H320 H 0.70561 0.83426 0.55619
 Zn321 Zn 0.75193 0.87954 0.49452
 N322 N 0.74595 0.85402 0.51645
 C323 C 0.79105 0.89456 0.52531
 N324 N 0.77840 0.89996 0.50525
 C325 C 0.78391 0.92050 0.49265
 C326 C 0.80309 0.93639 0.49985
 C327 C 0.81047 0.90978 0.53306
 C328 C 0.74212 0.84751 0.45541
 C329 C 0.74614 0.83520 0.43368
 C330 C 0.78491 0.85643 0.43208
 C331 C 0.78004 0.86842 0.45378
 N332 N 0.75880 0.86399 0.46483
 H333 H 0.78613 0.87849 0.53544
 H334 H 0.77338 0.92449 0.47687
 H335 H 0.80697 0.95225 0.48904
 H336 H 0.82035 0.90493 0.54902
 H337 H 0.72558 0.84396 0.46484
 H338 H 0.73234 0.82224 0.42706
 H339 H 0.80197 0.86032 0.42361
 H340 H 0.79335 0.88112 0.46182
 C341 C 0.73956 0.81627 0.54886
 C342 C 0.68649 0.93216 0.48779
 C343 C 0.76784 0.83966 0.42152
 C344 C 0.81681 0.93110 0.52040
 C345 C 0.01703 0.22268 0.41707
 H346 H 0.03442 0.23203 0.41932
 C347 C 0.01078 0.20297 0.43167
 H348 H 0.02373 0.19704 0.44482
 C349 C -0.02067 0.21894 0.39674
 H350 H -0.03309 0.22541 0.38343
 C351 C -0.02755 0.19903 0.41079
 H352 H -0.04514 0.19019 0.40793
 N353 N 0.00145 0.23011 0.39986
 C354 C 0.04620 0.26571 0.34658
 H355 H 0.03765 0.28351 0.34563
 C356 C 0.06577 0.26051 0.33206
 H357 H 0.07176 0.27444 0.31980
 C358 C 0.04772 0.22576 0.36319
 H359 H 0.04044 0.21214 0.37510
 C360 C 0.06731 0.21977 0.34899
 H361 H 0.07508 0.20158 0.35028
 Zn362 Zn 0.01124 0.25722 0.38103
 N363 N 0.03781 0.24856 0.36198
 C364 C 0.04277 0.29375 0.40296
 N365 N 0.01996 0.28395 0.40228
 C366 C 0.00298 0.29225 0.41754
 C367 C 0.00836 0.31178 0.43376
 C368 C 0.04904 0.31314 0.41904
 C369 C -0.02220 0.24927 0.34344
 C370 C -0.04146 0.25454 0.32821
 C371 C -0.04292 0.29541 0.34679
 C372 C -0.02375 0.28926 0.36174
 N373 N -0.01417 0.26629 0.36020
 H374 H 0.05624 0.28644 0.39119
 H375 H -0.01487 0.28367 0.41704
 H376 H -0.00572 0.31760 0.44557
 H377 H 0.06733 0.32066 0.41917
 H378 H -0.01384 0.23135 0.34218
 H379 H -0.04730 0.24029 0.31538
 H380 H -0.05044 0.31374 0.34864
 H381 H -0.01664 0.30290 0.37459
 C382 C 0.07679 0.23732 0.33338
 C383 C -0.01183 0.19090 0.42858
 C384 C -0.05244 0.27786 0.32998
 C385 C 0.03173 0.32272 0.43460
 C386 C -0.00494 0.70079 0.10606
 H387 H -0.02023 0.69921 0.11758
 C388 C 0.00045 0.68073 0.09095
 H389 H -0.01038 0.66380 0.09177
 C390 C 0.02740 0.72465 0.09073
 H391 H 0.03722 0.74214 0.08991
 C392 C 0.03353 0.70501 0.07548
 H393 H 0.04853 0.70734 0.06353
 N394 N 0.00878 0.72210 0.10605
 C395 C -0.04662 0.75930 0.13988
 H396 H -0.04527 0.77498 0.12830
 C397 C -0.06789 0.75499 0.15233
 H398 H -0.08286 0.76716 0.14969
 C399 C -0.02884 0.72436 0.15721
 H400 H -0.01338 0.71269 0.15928
 C401 C -0.04979 0.71923 0.16977
 H402 H -0.05044 0.70344 0.18134
 Zn403 Zn 0.00161 0.74999 0.12607
 N404 N -0.02766 0.74397 0.14242
 C405 C -0.01711 0.77444 0.08714
 N406 N -0.00160 0.77736 0.10601
 C407 C 0.01183 0.79860 0.10955
 C408 C 0.00993 0.81802 0.09363
 C409 C -0.01973 0.79339 0.07087
 C410 C 0.05019 0.75846 0.14203
 C411 C 0.06885 0.76227 0.15882
 C412 C 0.03923 0.76256 0.18986
 C413 C 0.02120 0.75878 0.17246
 N414 N 0.02689 0.75637 0.14903
 H415 H -0.02732 0.75717 0.08463
 H416 H 0.02415 0.80046 0.12463
 H417 H 0.02088 0.83476 0.09676
 H418 H -0.03203 0.78994 0.05602
 H419 H 0.05448 0.75722 0.12338
 H420 H 0.08700 0.76356 0.15227
 H421 H 0.03412 0.76415 0.20839
 H422 H 0.00261 0.75787 0.17782
 C423 C -0.06957 0.73472 0.16756
 C424 C 0.01995 0.68275 0.07540
 C425 C 0.06354 0.76412 0.18329
 C426 C -0.00606 0.81572 0.07394
 C427 C 0.47748 0.21769 0.58529
 H428 H 0.46134 0.22853 0.58613
 C429 C 0.48008 0.20001 0.56696
 H430 H 0.46580 0.19730 0.55370
 C431 C 0.51568 0.20818 0.60160
 H432 H 0.52959 0.21154 0.61503
 C433 C 0.51905 0.19029 0.58354
 H434 H 0.53539 0.17980 0.58386
 N435 N 0.49499 0.22120 0.60232
 C436 C 0.45760 0.25096 0.66385
 H437 H 0.46836 0.26772 0.66733
 C438 C 0.43888 0.24470 0.67906
 H439 H 0.43578 0.25687 0.69423
 C440 C 0.45000 0.21438 0.64031
 H441 H 0.45474 0.20233 0.62553
 C442 C 0.43105 0.20743 0.65502
 H443 H 0.42116 0.19016 0.65120
 Zn444 Zn 0.48953 0.24538 0.62657
 N445 N 0.46271 0.23593 0.64487
 C446 C 0.46213 0.28684 0.61314
 N447 N 0.48380 0.27576 0.61147
 C448 C 0.50158 0.28533 0.59781
 C449 C 0.49820 0.30729 0.58562
 C450 C 0.45782 0.30868 0.60102
 C451 C 0.52183 0.22836 0.66076
 C452 C 0.54032 0.22983 0.67791
 C453 C 0.54661 0.27311 0.66891
 C454 C 0.52804 0.27074 0.65185
 N455 N 0.51617 0.24859 0.64802
 H456 H 0.44797 0.27858 0.62355
 H457 H 0.51843 0.27576 0.59631
 H458 H 0.51277 0.31390 0.57476
 H459 H 0.44035 0.31709 0.60254
 H460 H 0.51175 0.21109 0.65773
 H461 H 0.54442 0.21340 0.68783
 H462 H 0.55545 0.29109 0.67124
 H463 H 0.52285 0.28680 0.64203
 C464 C 0.42521 0.22265 0.67466
 C465 C 0.50105 0.18604 0.56587
 C466 C 0.55298 0.25244 0.68242
 C467 C 0.47599 0.31941 0.58712
 C468 C 0.51192 0.70222 0.89032
 H469 H 0.52829 0.71351 0.89193
 C470 C 0.50911 0.68106 0.90405
 H471 H 0.52364 0.67600 0.91590
 C472 C 0.47324 0.69510 0.87264
 H473 H 0.45908 0.70078 0.86074
 C474 C 0.46981 0.67369 0.88579
 H475 H 0.45309 0.66300 0.88370
 N476 N 0.49413 0.70879 0.87494
 C477 C 0.52549 0.75312 0.81879
 H478 H 0.51383 0.76891 0.81989
 C479 C 0.54302 0.75201 0.80129
 H480 H 0.54481 0.76709 0.78897
 C481 C 0.53714 0.71428 0.83352
 H482 H 0.53470 0.69960 0.84609
 C483 C 0.55493 0.71237 0.81622
 H484 H 0.56626 0.69633 0.81614
 Zn485 Zn 0.49840 0.73816 0.85735
 N486 N 0.52303 0.73457 0.83462
 C487 C 0.52681 0.77881 0.87572
 N488 N 0.50641 0.76489 0.87893
 C489 C 0.49173 0.76959 0.89760
 C490 C 0.49702 0.78935 0.91366
 C491 C 0.53269 0.79883 0.89114
 C492 C 0.46390 0.72844 0.82178
 C493 C 0.44349 0.73199 0.80762
 C494 C 0.43592 0.76934 0.83082
 C495 C 0.45651 0.76498 0.84458
 N496 N 0.46987 0.74464 0.83998
 H497 H 0.53861 0.77453 0.86116
 H498 H 0.47574 0.75805 0.89990
 H499 H 0.48461 0.79265 0.92796
 H500 H 0.54892 0.80976 0.88797
 H501 H 0.47514 0.71266 0.81826
 H502 H 0.43970 0.71855 0.79341
 H503 H 0.42553 0.78567 0.83483
 H504 H 0.46185 0.77796 0.85880
 C505 C 0.55798 0.73145 0.79975
 C506 C 0.48771 0.66659 0.90191
 C507 C 0.42900 0.75274 0.81203
 C508 C 0.51777 0.80449 0.91045
 C509 C 0.20616 0.23679 0.23938
 C510 C 0.19210 0.21967 0.25168
 C511 C 0.17143 0.22713 0.26612
 N512 N 0.15777 0.20958 0.27690
 N513 N 0.13895 0.21601 0.28996
 C514 C 0.13310 0.24026 0.29276
 N515 N 0.14679 0.25780 0.28200
 N516 N 0.16559 0.25137 0.26892
 C517 C 0.11237 0.24775 0.30711
 C518 C 0.09766 0.23050 0.31858
 H519 H 0.19594 0.20007 0.25023
 H520 H 0.10913 0.26741 0.30892
 H521 H 0.20142 0.25619 0.24002
 H522 H 0.10213 0.21103 0.31735
 C523 C 0.67377 0.69186 0.69684
 C524 C 0.66089 0.71276 0.70358
 C525 C 0.64188 0.71176 0.72157
 N526 N 0.63062 0.73284 0.72828
 N527 N 0.61368 0.73233 0.74484
 C528 C 0.60735 0.71071 0.75533
 N529 N 0.61857 0.68962 0.74858
 N530 N 0.63552 0.69013 0.73201
 C531 C 0.58883 0.70989 0.77384
 C532 C 0.57671 0.73111 0.78119
 H533 H 0.66548 0.73061 0.69620
 H534 H 0.58458 0.69209 0.78140
 H535 H 0.66973 0.67436 0.70521
 H536 H 0.58064 0.74839 0.77239
 C537 C 0.30667 0.78942 0.72428
 C538 C 0.32015 0.76807 0.72096
 C539 C 0.34012 0.76160 0.73692
 N540 N 0.34749 0.77679 0.75546
 N541 N 0.36615 0.77083 0.76924
 C542 C 0.37808 0.74947 0.76497
 N543 N 0.37062 0.73430 0.74650
 N544 N 0.35201 0.74026 0.73273
 C545 C 0.39908 0.74269 0.77948
 C546 C 0.40826 0.75779 0.79834
 H547 H 0.31602 0.75553 0.70599
 H548 H 0.40729 0.72538 0.77459
 H549 H 0.30979 0.80099 0.74017
 H550 H 0.39875 0.77464 0.80264
 C551 C -0.18277 0.28062 0.23567
 C552 C -0.16851 0.29741 0.24942
 C553 C -0.14674 0.28978 0.26236
 N554 N -0.13400 0.30660 0.27622
 N555 N -0.11432 0.29995 0.28812
 C556 C -0.10661 0.27621 0.28656
 N557 N -0.11931 0.25942 0.27263
 N558 N -0.13900 0.26606 0.26077
 C559 C -0.08507 0.26840 0.29980
 C560 C -0.07248 0.28439 0.31593
 H561 H -0.17319 0.31679 0.25054
 H562 H -0.07991 0.24936 0.29705
 H563 H -0.17736 0.26145 0.23413
 H564 H -0.07912 0.30306 0.31829
 C565 C -0.20363 0.73838 0.25423
 C566 C -0.18988 0.72096 0.24207
 C567 C -0.16887 0.72790 0.22782
 N568 N -0.15480 0.70987 0.21869
 N569 N -0.13558 0.71570 0.20586
 C570 C -0.12975 0.73981 0.20160
 N571 N -0.14393 0.75786 0.21060
 N572 N -0.16312 0.75203 0.22352
 C573 C -0.10844 0.74646 0.18760
 C574 C -0.09165 0.72879 0.18093
 H575 H -0.19416 0.70135 0.24369
 H576 H -0.10549 0.76579 0.18340
 H577 H -0.19844 0.75789 0.25378
 H578 H -0.09406 0.70993 0.18692
 C579 C 0.31871 0.20809 0.79190
 C580 C 0.32537 0.19407 0.77190
 C581 C 0.34361 0.20328 0.75532
 N582 N 0.35116 0.18837 0.73721
 N583 N 0.36773 0.19653 0.72213
 C584 C 0.37726 0.21996 0.72459
 N585 N 0.36962 0.23489 0.74263
 N586 N 0.35311 0.22671 0.75772
 C587 C 0.39579 0.22929 0.70841
 C588 C 0.40553 0.21437 0.69044
 H589 H 0.31746 0.17573 0.76851
 H590 H 0.40179 0.24839 0.71110
 H591 H 0.32806 0.22568 0.79579
 H592 H 0.39837 0.19559 0.68775
 C593 C 0.66839 0.29587 0.78835
 C594 C 0.65562 0.27434 0.78091
 C595 C 0.63687 0.27457 0.76208
 N596 N 0.62512 0.25314 0.75514
 N597 N 0.60836 0.25304 0.73787
 C598 C 0.60277 0.27438 0.72686
 N599 N 0.61451 0.29580 0.73381
 N600 N 0.63124 0.29590 0.75109
 C601 C 0.58438 0.27471 0.70767
 C602 C 0.57109 0.25336 0.70032
 H603 H 0.66001 0.25668 0.78846
 H604 H 0.58138 0.29244 0.69974
 H605 H 0.66434 0.31324 0.78001
 H606 H 0.57480 0.23630 0.70939
 C607 C 0.19837 0.78289 0.27036
 C608 C 0.17384 0.77872 0.27406
 C609 C 0.15633 0.77614 0.25415
 N610 N 0.13245 0.77365 0.25865
 N611 N 0.11638 0.77145 0.24079
 C612 C 0.12359 0.77164 0.21776
 N613 N 0.14747 0.77407 0.21328
 N614 N 0.16354 0.77630 0.23113
 C615 C 0.10613 0.76910 0.19778
 C616 C 0.08126 0.76730 0.20143
 H617 H 0.16716 0.77820 0.29207
 H618 H 0.11349 0.76864 0.18009
 H619 H 0.20478 0.78479 0.25235
 H620 H 0.07518 0.76826 0.21970
 C621 C 0.24003 0.20828 0.23126
 C622 C 0.25324 0.19488 0.21455
 C623 C 0.26760 0.17334 0.22091
 N624 N 0.27959 0.16077 0.20371
 N625 N 0.29268 0.14122 0.20909
 C626 C 0.29430 0.13350 0.23191
 N627 N 0.28233 0.14609 0.24912
 N628 N 0.26922 0.16565 0.24374
 C629 C 0.30855 0.11179 0.23812
 C630 C 0.32114 0.09825 0.22099
 H631 H 0.25275 0.20003 0.19603
 H632 H 0.30909 0.10674 0.25662
 H633 H 0.23966 0.20220 0.24951
 H634 H 0.32094 0.10457 0.20281
 C635 C 0.71218 0.67495 0.68195
 C636 C 0.71955 0.66535 0.70366
 C637 C 0.73856 0.64694 0.70557
 N638 N 0.74507 0.63872 0.72732
 N639 N 0.76209 0.62188 0.72947
 C640 C 0.77326 0.61260 0.70992
 N641 N 0.76679 0.62086 0.68813
 N642 N 0.74975 0.63772 0.68599
 C643 C 0.79177 0.59362 0.71205
 C644 C 0.79813 0.58397 0.73407
 H645 H 0.71133 0.67183 0.71998
 H646 H 0.79971 0.58659 0.69582
 H647 H 0.72126 0.66934 0.66580
 H648 H 0.78899 0.59068 0.74982
 C649 C 0.70620 0.31509 0.80570
 C650 C 0.71337 0.32666 0.78491
 C651 C 0.73262 0.34591 0.78488
 N652 N 0.73825 0.35713 0.76426
 N653 N 0.75571 0.37452 0.76386
 C654 C 0.76824 0.38131 0.78407
 N655 N 0.76265 0.37003 0.80469
 N656 N 0.74515 0.35266 0.80510
 C657 C 0.78757 0.40053 0.78391
 C658 C 0.79250 0.41403 0.76348
 H659 H 0.70498 0.32113 0.76799
 H660 H 0.79740 0.40413 0.80043
 H661 H 0.71530 0.32023 0.82238
 H662 H 0.78133 0.40993 0.74778
 C663 C 0.23255 -0.19298 0.29022
 C664 C 0.23222 -0.17433 0.27333
 C665 C 0.24983 -0.15345 0.27378
 N666 N 0.24874 -0.13611 0.25671
 N667 N 0.26473 -0.11726 0.25659
 C668 C 0.28242 -0.11504 0.27356
 N669 N 0.28346 -0.13235 0.29069
 N670 N 0.26747 -0.15121 0.29080
 C671 C 0.30059 -0.09466 0.27335
 C672 C 0.30094 -0.07715 0.25532
 H673 H 0.21867 -0.17477 0.25925
 H674 H 0.31411 -0.09431 0.28740
 H675 H 0.24562 -0.19111 0.30469
 H676 H 0.28684 -0.07876 0.24174
 C677 C 0.26939 -0.18814 0.71607
 C678 C 0.25642 -0.17284 0.70109
 C679 C 0.23872 -0.15528 0.71047
 N680 N 0.22747 -0.13968 0.69555
 N681 N 0.21186 -0.12331 0.70395
 C682 C 0.20692 -0.12196 0.72759
 N683 N 0.21808 -0.13764 0.74247
 N684 N 0.23368 -0.15399 0.73408
 C685 C 0.19030 -0.10356 0.73739
 C686 C 0.17841 -0.08673 0.72310
 H687 H 0.25993 -0.17298 0.68217
 H688 H 0.18750 -0.10346 0.75641
 H689 H 0.26650 -0.18677 0.73511
 H690 H 0.18032 -0.08826 0.70393
 C691 C 0.78210 0.30850 0.23146
 C692 C 0.76659 0.32128 0.21656
 C693 C 0.75118 0.34132 0.22522
 N694 N 0.73529 0.35154 0.20995
 N695 N 0.72094 0.36952 0.21737
 C696 C 0.72194 0.37801 0.24037
 N697 N 0.73792 0.36788 0.25565
 N698 N 0.75225 0.34981 0.24823
 C699 C 0.70626 0.39805 0.24867
 C700 C 0.68809 0.40716 0.23403
 H701 H 0.76547 0.31633 0.19775
 H702 H 0.70895 0.40531 0.26669
 H703 H 0.78382 0.31423 0.25007
 H704 H 0.68490 0.39830 0.21668
 C705 C 0.76189 0.70929 0.26151
 C706 C 0.75075 0.69431 0.27823
 C707 C 0.73635 0.67192 0.27135
 N708 N 0.72844 0.65642 0.28839
 N709 N 0.71532 0.63609 0.28250
 C710 C 0.70954 0.63054 0.25933
 N711 N 0.71734 0.64612 0.24229
 N712 N 0.73055 0.66641 0.24817
 C713 C 0.69479 0.60830 0.25257
 C714 C 0.68902 0.59011 0.26907
 H715 H 0.75326 0.69871 0.29706
 H716 H 0.68908 0.60638 0.23412
 H717 H 0.76084 0.70381 0.24280
 H718 H 0.69675 0.59243 0.28687
 C719 C 0.28198 0.18225 0.80027
 C720 C 0.27106 0.16545 0.81552
 C721 C 0.25351 0.14635 0.80656
 N722 N 0.24165 0.13158 0.82199
 N723 N 0.22599 0.11403 0.81395
 C724 C 0.22172 0.11055 0.79016
 N725 N 0.23366 0.12526 0.77477
 N726 N 0.24921 0.14285 0.78280
 C727 C 0.20481 0.09111 0.78074
 C728 C 0.18941 0.07758 0.79539
 H729 H 0.27586 0.16593 0.83430
 H730 H 0.20414 0.08848 0.76161
 H731 H 0.27734 0.18114 0.78145
 H732 H 0.18965 0.08247 0.81427
 C733 C 0.23378 0.24480 0.20562
 C734 C 0.21776 0.25907 0.19271
 C735 C 0.22541 0.27389 0.17235
 N736 N 0.20886 0.28659 0.15982
 N737 N 0.21540 0.29974 0.14108
 C738 C 0.23876 0.30069 0.13417
 N739 N 0.25532 0.28805 0.14675
 N740 N 0.24878 0.27490 0.16549
 C741 C 0.24621 0.31466 0.11318
 C742 C 0.22981 0.32773 0.09948
 H743 H 0.19882 0.25875 0.19709
 H744 H 0.26506 0.31447 0.10862
 H745 H 0.25248 0.24446 0.20039
 H746 H 0.21132 0.32857 0.10530
 C747 C 0.69341 0.71056 0.66152
 C748 C 0.71450 0.71828 0.65034
 C749 C 0.71467 0.73662 0.63134
 N750 N 0.73583 0.74329 0.62122
 N751 N 0.73643 0.76006 0.60419
 C752 C 0.71589 0.77081 0.59661
 N753 N 0.69472 0.76412 0.60672
 N754 N 0.69410 0.74732 0.62376
 C755 C 0.71638 0.78970 0.57809
 C756 C 0.73769 0.79659 0.56679
 H757 H 0.73166 0.71112 0.65602
 H758 H 0.69952 0.79805 0.57330
 H759 H 0.67648 0.71859 0.65630
 H760 H 0.75397 0.78682 0.57110
 C761 C 0.76893 0.74612 0.28853
 C762 C 0.78499 0.76177 0.30153
 C763 C 0.77765 0.77536 0.32323
 N764 N 0.79392 0.79003 0.33565
 N765 N 0.78765 0.80189 0.35567
 C766 C 0.76489 0.79949 0.36403
 N767 N 0.74863 0.78487 0.35157
 N768 N 0.75488 0.77304 0.33156
 C769 C 0.75769 0.81191 0.38639
 C770 C 0.77336 0.82792 0.39961
 H771 H 0.80365 0.76333 0.29633
 H772 H 0.73950 0.80817 0.39206
 H773 H 0.75052 0.74418 0.29451
 H774 H 0.79100 0.83170 0.39229
 C775 C 0.30117 0.21151 -0.16849
 C776 C 0.28022 0.21816 -0.15672
 C777 C 0.28109 0.23496 -0.13559
 N778 N 0.26042 0.24123 -0.12457
 N779 N 0.26091 0.25753 -0.10628
 C780 C 0.28209 0.26822 -0.09839
 N781 N 0.30274 0.26186 -0.10934
 N782 N 0.30226 0.24552 -0.12756
 C783 C 0.28291 0.28734 -0.07916
 C784 C 0.26261 0.29314 -0.06584
 H785 H 0.26276 0.21242 -0.16408
 H786 H 0.30005 0.29678 -0.07576
 H787 H 0.31839 0.21837 -0.16135
 H788 H 0.24656 0.28150 -0.06873
 C789 C 0.68764 0.27785 -0.17566
 C790 C 0.70874 0.27108 -0.16392
 C791 C 0.70889 0.25385 -0.14403
 N792 N 0.73011 0.24864 -0.13318
 N793 N 0.73071 0.23331 -0.11495
 C794 C 0.71010 0.22260 -0.10685
 N795 N 0.68886 0.22776 -0.11774
 N796 N 0.68825 0.24313 -0.13598
 C797 C 0.71060 0.20557 -0.08673
 C798 C 0.73204 0.20073 -0.07453
 H799 H 0.72593 0.27868 -0.16949
 H800 H 0.69371 0.19713 -0.08147
 H801 H 0.67062 0.26924 -0.17081
 H802 H 0.74837 0.21049 -0.07970
 C803 C 0.21503 0.76883 0.30881
 C804 C 0.23600 0.76229 0.32095
 C805 C 0.23586 0.74402 0.34001
 N806 N 0.25690 0.73802 0.35078
 N807 N 0.25712 0.72173 0.36825
 C808 C 0.23630 0.71081 0.37560
 N809 N 0.21526 0.71676 0.36479
 N810 N 0.21503 0.73307 0.34731
 C811 C 0.23621 0.69313 0.39520
 C812 C 0.25728 0.68737 0.40757
 H813 H 0.25325 0.77025 0.31605
 H814 H 0.21898 0.68544 0.40046
 H815 H 0.19838 0.75892 0.31261
 H816 H 0.27407 0.69637 0.40262
 C817 C 0.28940 0.78734 0.68315
 C818 C 0.26950 0.77666 0.67100
 C819 C 0.27234 0.76138 0.64911
 N820 N 0.25268 0.75154 0.63731
 N821 N 0.25518 0.73634 0.61842
 C822 C 0.27746 0.73031 0.61074
 N823 N 0.29709 0.74020 0.62250
 N824 N 0.29458 0.75546 0.64129
 C825 C 0.28068 0.71246 0.59080
 C826 C 0.26151 0.70426 0.57592
 H827 H 0.25180 0.77773 0.67876
 H828 H 0.29877 0.70623 0.58788
 H829 H 0.30708 0.78557 0.67544
 H830 H 0.24432 0.71308 0.57831
 C831 C 0.78683 0.27271 0.20302
 C832 C 0.80177 0.25890 0.18822
 C833 C 0.79227 0.24448 0.16735
 N834 N 0.80728 0.23046 0.15405
 N835 N 0.79896 0.21757 0.13493
 C836 C 0.77533 0.21830 0.12836
 N837 N 0.76034 0.23236 0.14164
 N838 N 0.76864 0.24518 0.16078
 C839 C 0.76580 0.20444 0.10715
 C840 C 0.77982 0.18784 0.09408
 H841 H 0.82103 0.25913 0.19159
 H842 H 0.74715 0.20726 0.10247
 H843 H 0.76768 0.27270 0.19899
 H844 H 0.79801 0.18491 0.10056
 C845 C 0.48170 0.44772 0.49090
 C846 C 0.46388 0.43396 0.50235
 C847 C 0.47011 0.41441 0.51911
 N848 N 0.45247 0.40071 0.52945
 N849 N 0.45799 0.38210 0.54361
 C850 C 0.48138 0.37646 0.54789
 N851 N 0.49898 0.39024 0.53765
 N852 N 0.49346 0.40886 0.52357
 C853 C 0.48797 0.35517 0.56235
 C854 C 0.47096 0.34123 0.57482
 H855 H 0.44509 0.43631 0.49769
 H856 H 0.50686 0.35084 0.56301
 H857 H 0.50044 0.44417 0.49495
 H858 H 0.45266 0.34785 0.57518
 C859 C -0.05164 0.92629 -0.03046
 C860 C -0.02981 0.92009 -0.01985
 C861 C -0.02781 0.89793 -0.00520
 N862 N -0.00856 0.89554 0.00970
 N863 N -0.00715 0.87607 0.02382
 C864 C -0.02491 0.85822 0.02345
 N865 N -0.04396 0.86046 0.00831
 N866 N -0.04544 0.87998 -0.00568
 C867 C -0.02400 0.83676 0.03912
 C868 C -0.00751 0.83562 0.05817
 H869 H -0.01446 0.93281 -0.02075
 H870 H -0.03760 0.82236 0.03588
 H871 H -0.06752 0.91473 -0.02755
 H872 H 0.00463 0.85148 0.06132
 C873 C 0.02366 0.54834 -0.02168
 C874 C 0.03988 0.56428 -0.00928
 C875 C 0.03206 0.58493 0.00615
 N876 N 0.04872 0.60111 0.01597
 N877 N 0.04203 0.61981 0.03018
 C878 C 0.01841 0.62297 0.03516
 N879 N 0.00174 0.60672 0.02540
 N880 N 0.00843 0.58806 0.01112
 C881 C 0.01080 0.64338 0.05102
 C882 C 0.02692 0.66204 0.05933
 H883 H 0.05906 0.56181 -0.01127
 H884 H -0.00804 0.64399 0.05563
 H885 H 0.00454 0.55181 -0.02093
 H886 H 0.04526 0.66215 0.05296
 C887 C 0.54927 0.06987 0.46085
 C888 C 0.52799 0.08143 0.46722
 C889 C 0.52727 0.10075 0.48619
 N890 N 0.50598 0.11103 0.49190
 N891 N 0.50498 0.12853 0.50905
 C892 C 0.52525 0.13641 0.52114
 N893 N 0.54656 0.12613 0.51542
 N894 N 0.54756 0.10863 0.49827
 C895 C 0.52443 0.15561 0.54024
 C896 C 0.50299 0.16694 0.54653
 H897 H 0.51119 0.07586 0.45835
 H898 H 0.54124 0.16098 0.54914
 H899 H 0.56576 0.07473 0.47065
 H900 H 0.48672 0.16194 0.53641
 C901 C -0.03764 0.08090 0.54326
 C902 C -0.04168 0.08280 0.51875
 C903 C -0.03326 0.10429 0.50520
 N904 N -0.03981 0.10599 0.48193
 N905 N -0.03255 0.12534 0.46933
 C906 C -0.01838 0.14371 0.47953
 N907 N -0.01169 0.14196 0.50279
 N908 N -0.01904 0.12263 0.51542
 C909 C -0.01024 0.16520 0.46578
 C910 C -0.01934 0.16947 0.44296
 H911 H -0.05142 0.06804 0.50900
 H912 H 0.00251 0.17829 0.47423
 H913 H -0.02724 0.09545 0.55267
 H914 H -0.03350 0.15717 0.43565
 C915 C 0.47883 0.55755 1.01896
 C916 C 0.47304 0.55745 0.99467
 C917 C 0.47823 0.57926 0.98007
 N918 N 0.47073 0.57949 0.95694
 N919 N 0.47558 0.59908 0.94359
 C920 C 0.48822 0.61910 0.95285
 N921 N 0.49581 0.61880 0.97593
 N922 N 0.49088 0.59928 0.98928
 C923 C 0.49376 0.64095 0.93848
 C924 C 0.48352 0.64403 0.91594
 H925 H 0.46519 0.54090 0.98602
 H926 H 0.50525 0.65550 0.94648
 H927 H 0.48763 0.57398 1.02697
 H928 H 0.47053 0.63021 0.90901
 C929 C 0.53483 0.92318 1.02315
 C930 C 0.54110 0.91901 0.99940
 C931 C 0.53352 0.89636 0.98579
 N932 N 0.54248 0.89202 0.96376
 N933 N 0.53587 0.87163 0.95115
 C934 C 0.51995 0.85483 0.96004
 N935 N 0.51085 0.85925 0.98202
 N936 N 0.51755 0.87960 0.99470
 C937 C 0.51237 0.83231 0.94616
 C938 C 0.52418 0.82515 0.92531
 H939 H 0.55188 0.93274 0.99032
 H940 H 0.49772 0.82121 0.95307
 H941 H 0.52360 0.90943 1.03172
 H942 H 0.53975 0.83631 0.92034
 C943 C 0.03926 0.44893 0.54018
 C944 C 0.05501 0.43238 0.52947
 C945 C 0.04657 0.41260 0.51256
 N946 N 0.06277 0.39836 0.50102
 N947 N 0.05537 0.38022 0.48583
 C948 C 0.03148 0.37560 0.48168
 N949 N 0.01529 0.38978 0.49329
 N950 N 0.02268 0.40798 0.50841
 C951 C 0.02293 0.35544 0.46521
 C952 C 0.03863 0.34245 0.45042
 H953 H 0.07408 0.43375 0.53383
 H954 H 0.00374 0.35165 0.46452
 H955 H 0.02014 0.44699 0.53621
 H956 H 0.05744 0.34841 0.45082
 C957 C 0.45485 0.47736 0.46922
 C958 C 0.44379 0.48781 0.48914
 C959 C 0.42288 0.50398 0.48688
 N960 N 0.41149 0.51232 0.50666
 N961 N 0.39277 0.52726 0.50480
 C962 C 0.38483 0.53449 0.48308
 N963 N 0.39628 0.52621 0.46334
 N964 N 0.41491 0.51121 0.46519
 C965 C 0.36441 0.55126 0.48055
 C966 C 0.34991 0.55797 0.49977
 H967 H 0.45094 0.48453 0.50681
 H968 H 0.36062 0.55753 0.46280
 H969 H 0.44779 0.48131 0.45165
 H970 H 0.35377 0.54971 0.51679
 C971 C 0.92499 -0.03602 -0.03355
 C972 C 0.91553 -0.01664 -0.04653
 C973 C 0.89491 -0.00245 -0.03793
 N974 N 0.88592 0.01599 -0.05122
 N975 N 0.86740 0.02910 -0.04350
 C976 C 0.85718 0.02426 -0.02220
 N977 N 0.86617 0.00582 -0.00894
 N978 N 0.88467 -0.00729 -0.01665
 C979 C 0.83691 0.03873 -0.01319
 C980 C 0.82703 0.05802 -0.02610
 H981 H 0.92310 -0.01188 -0.06352
 H982 H 0.83017 0.03387 0.00406
 H983 H 0.91620 -0.04130 -0.01725
 H984 H 0.83462 0.06170 -0.04339
 C985 C 0.56384 -0.04093 0.03019
 C986 C 0.56748 -0.01587 0.03660
 C987 C 0.58943 -0.00168 0.03059
 N988 N 0.59278 0.02190 0.03932
 N989 N 0.61257 0.03506 0.03421
 C990 C 0.62975 0.02517 0.02010
 N991 N 0.62634 0.00163 0.01125
 N992 N 0.60657 -0.01158 0.01644
 C993 C 0.65170 0.03955 0.01434
 C994 C 0.65748 0.06235 0.02568
 H995 H 0.55376 -0.00619 0.04640
 H996 H 0.66388 0.03152 0.00157
 H997 H 0.57745 -0.05022 0.01988
 H998 H 0.64597 0.06905 0.03976
 C999 C 0.07030 0.48043 0.55607
 C1000 C 0.08064 0.48594 0.53424
 C1001 C 0.10304 0.50099 0.53276
 N1002 N 0.11221 0.50642 0.51116
 N1003 N 0.13220 0.52048 0.50960
 C1004 C 0.14374 0.52961 0.52960
 N1005 N 0.13461 0.52411 0.55117
 N1006 N 0.11465 0.51005 0.55273
 C1007 C 0.16539 0.54579 0.52834
 C1008 C 0.17607 0.55177 0.50679
 H1009 H 0.07170 0.47980 0.51777
 H1010 H 0.17309 0.55303 0.54501
 H1011 H 0.07871 0.48801 0.57232
 H1012 H 0.16923 0.54287 0.49044
 C1013 C 0.05230 0.51438 -0.02851
 C1014 C 0.06680 0.50118 -0.04421
 C1015 C 0.08857 0.48868 -0.03592
 N1016 N 0.10245 0.47634 -0.05176
 N1017 N 0.12231 0.46514 -0.04449
 C1018 C 0.12903 0.46590 -0.02108
 N1019 N 0.11516 0.47825 -0.00525
 N1020 N 0.09531 0.48943 -0.01253
 C1021 C 0.15080 0.45354 -0.01266
 C1022 C 0.16502 0.43948 -0.02793
 H1023 H 0.06260 0.50062 -0.06312
 H1024 H 0.15506 0.45487 0.00622
 H1025 H 0.05739 0.51560 -0.00979
 H1026 H 0.15955 0.43721 -0.04649
 C1027 C 0.56896 1.03317 0.44240
 C1028 C 0.57942 1.02513 0.46354
 C1029 C 0.59919 1.00743 0.46385
 N1030 N 0.60822 0.99985 0.48499
 N1031 N 0.62626 0.98398 0.48563
 C1032 C 0.63597 0.97513 0.46512
 N1033 N 0.62693 0.98271 0.44397
 N1034 N 0.60888 0.99856 0.44334
 C1035 C 0.65599 0.95771 0.46545
 C1036 C 0.66609 0.94941 0.48669
 H1037 H 0.57273 1.03180 0.48051
 H1038 H 0.66312 0.95190 0.44844
 H1039 H 0.57492 1.02545 0.42554
 H1040 H 0.65925 0.95655 0.50343
 C1041 C 0.93178 1.04678 0.54826
 C1042 C 0.92677 1.02215 0.55404
 C1043 C 0.90506 1.00848 0.54510
 N1044 N 0.90015 0.98523 0.55274
 N1045 N 0.88069 0.97250 0.54467
 C1046 C 0.86546 0.98252 0.52857
 N1047 N 0.87042 1.00574 0.52086
 N1048 N 0.88983 1.01851 0.52901
 C1049 C 0.84405 0.96856 0.51923
 C1050 C 0.83661 0.94589 0.52873
 H1051 H 0.93930 1.01233 0.56512
 H1052 H 0.83400 0.97690 0.50502
 H1053 H 0.91931 1.05609 0.53666
 H1054 H 0.84674 0.93939 0.54393
 C1055 C 0.45796 0.51685 0.02939
 C1056 C 0.43483 0.52203 0.02112
 C1057 C 0.41523 0.50305 0.02083
 N1058 N 0.39422 0.50701 0.00899
 N1059 N 0.37617 0.49022 0.00923
 C1060 C 0.37840 0.46894 0.02151
 N1061 N 0.39934 0.46508 0.03347
 N1062 N 0.41744 0.48176 0.03307
 C1063 C 0.35845 0.45050 0.02267
 C1064 C 0.33900 0.45001 0.00649
 H1065 H 0.43071 0.54055 0.01550
 H1066 H 0.36009 0.43641 0.03592
 H1067 H 0.46155 0.49819 0.03504
 H1068 H 0.33977 0.46287 -0.00807
 C1069 C 0.49309 0.46214 0.45160
 C1070 C 0.49527 0.48094 0.43504
 C1071 C 0.51235 0.47944 0.41526
 N1072 N 0.51488 0.49872 0.40034
 N1073 N 0.53014 0.49753 0.38227
 C1074 C 0.54344 0.47699 0.37843
 N1075 N 0.54087 0.45769 0.39333
 N1076 N 0.52563 0.45889 0.41142
 C1077 C 0.56016 0.47520 0.35835
 C1078 C 0.56410 0.49501 0.34310
 H1079 H 0.48457 0.49740 0.43677
 H1080 H 0.56925 0.45785 0.35593
 H1081 H 0.50508 0.44658 0.45038
 H1082 H 0.55482 0.51209 0.34704
 C1083 C -0.03766 -0.04024 0.94205
 C1084 C -0.02407 -0.05565 0.92739
 C1085 C -0.00814 -0.04580 0.90893
 N1086 N 0.00460 -0.06164 0.89510
 N1087 N 0.01869 -0.05306 0.87798
 C1088 C 0.02055 -0.02831 0.87402
 N1089 N 0.00782 -0.01247 0.88787
 N1090 N -0.00625 -0.02104 0.90500
 C1091 C 0.03578 -0.01848 0.85496
 C1092 C 0.05006 -0.03388 0.84083
 H1093 H -0.02576 -0.07562 0.92889
 H1094 H 0.03562 0.00134 0.85258
 H1095 H -0.03622 -0.02032 0.94000
 H1096 H 0.04995 -0.05349 0.84477
 C1097 C -0.03568 0.05402 0.57896
 C1098 C -0.01156 0.05965 0.58466
 C1099 C -0.00024 0.05200 0.60712
 N1100 N 0.02278 0.05938 0.61258
 N1101 N 0.03345 0.05215 0.63259
 C1102 C 0.02153 0.03719 0.64785
 N1103 N -0.00147 0.02978 0.64237
 N1104 N -0.01218 0.03708 0.62241
 C1105 C 0.03332 0.02847 0.66968
 C1106 C 0.05592 0.03764 0.67738
 H1107 H -0.00036 0.06933 0.57209
 H1108 H 0.02373 0.01480 0.67997
 H1109 H -0.04641 0.04396 0.59167
 H1110 H 0.06429 0.05275 0.66786
 C1111 C 0.49446 0.53322 0.05175
 C1112 C 0.49015 0.51963 0.07217
 C1113 C 0.50836 0.51783 0.09134
 N1114 N 0.50266 0.50618 0.11173
 N1115 N 0.51889 0.50460 0.12933
 C1116 C 0.54144 0.51458 0.12717
 N1117 N 0.54718 0.52611 0.10673
 N1118 N 0.53094 0.52773 0.08915
 C1119 C 0.55953 0.51318 0.14650
 C1120 C 0.55391 0.50348 0.16862
 H1121 H 0.47271 0.51071 0.07464
 H1122 H 0.57737 0.52084 0.14337
 H1123 H 0.51147 0.54338 0.05036
 H1124 H 0.53549 0.49747 0.17182
 C1125 C 0.53019 -0.04802 0.05823
 C1126 C 0.50567 -0.05298 0.06141
 C1127 C 0.49319 -0.04500 0.08316
 N1128 N 0.46946 -0.05077 0.08572
 N1129 N 0.45787 -0.04345 0.10521
 C1130 C 0.46960 -0.03002 0.12284
 N1131 N 0.49332 -0.02422 0.12026
 N1132 N 0.50491 -0.03158 0.10080
 C1133 C 0.45707 -0.02162 0.14441
 C1134 C 0.43323 -0.02868 0.14882
 H1135 H 0.49512 -0.06238 0.04736
 H1136 H 0.46723 -0.01021 0.15735
 H1137 H 0.54028 -0.03788 0.07217
 H1138 H 0.42398 -0.04154 0.13641
 C1139 C 1.03233 0.47451 0.57728
 C1140 C 1.01281 0.45986 0.58458
 C1141 C 0.99759 0.46739 0.60463
 N1142 N 0.97864 0.45266 0.61081
 N1143 N 0.96465 0.45923 0.62888
 C1144 C 0.96910 0.48078 0.64147
 N1145 N 0.98806 0.49551 0.63529
 N1146 N 1.00204 0.48896 0.61720
 C1147 C 0.95386 0.48831 0.66152
 C1148 C 0.93394 0.47395 0.66831
 H1149 H 1.00862 0.44220 0.57566
 H1150 H 0.95886 0.50536 0.67110
 H1151 H 1.03677 0.49159 0.58720
 H1152 H 0.93000 0.45664 0.65859
 C1153 C 1.01777 0.51953 0.94301
 C1154 C 1.00279 0.53533 0.93058
 C1155 C 0.98829 0.52702 0.90958
 N1156 N 0.97386 0.54334 0.89860
 N1157 N 0.96053 0.53623 0.87959
 C1158 C 0.96112 0.51252 0.87081
 N1159 N 0.97558 0.49619 0.88177
 N1160 N 0.98892 0.50329 0.90082
 C1161 C 0.94645 0.50442 0.84978
 C1162 C 0.93065 0.52050 0.83857
 H1163 H 1.00179 0.55465 0.93623
 H1164 H 0.94828 0.48545 0.84353
 H1165 H 1.01936 0.50048 0.93666
 H1166 H 0.92947 0.53915 0.84615
 C1167 C 0.53345 0.05169 0.42225
 C1168 C 0.52726 0.03069 0.40816
 C1169 C 0.50961 0.03145 0.38836
 N1170 N 0.50418 0.01052 0.37519
 N1171 N 0.48800 0.01084 0.35742
 C1172 C 0.47662 0.03212 0.35216
 N1173 N 0.48207 0.05306 0.36531
 N1174 N 0.49827 0.05274 0.38307
 C1175 C 0.45842 0.03280 0.33281
 C1176 C 0.45264 0.01195 0.31822
 H1177 H 0.53501 0.01298 0.41213
 H1178 H 0.44974 0.05029 0.33037
 H1179 H 0.52490 0.06907 0.41852
 H1180 H 0.46253 -0.00481 0.32134
   
