data_POSCAR
  _audit_creation_date              2014-09-24
  _audit_creation_method            'ToBaCCo'
  _symmetry_space_group_name_H-M    'P1'
  _symmetry_Int_Tables_number       1
  _symmetry_cell_setting            triclinic
  loop_
  _symmetry_equiv_pos_as_xyz
 x,y,z
_cell_length_a 47.6025
_cell_length_b 47.6945
_cell_length_c 41.5742
_cell_angle_alpha 89.974200
_cell_angle_beta 89.965000
_cell_angle_gamma 89.960900
loop_
  _atom_site_label
  _atom_site_type_symbol
  _atom_site_fract_x
  _atom_site_fract_y
  _atom_site_fract_z
O1 O 0.02844 0.30350 -0.03083
 O2 O -0.02660 0.30390 0.03161
 O3 O 0.02829 0.30342 0.03174
 O4 O -0.02645 0.30406 -0.03089
 O5 O -0.02678 0.25769 -0.03091
 O6 O 0.02783 0.25705 0.03158
 O7 O -0.02692 0.25754 0.03144
 O8 O 0.02796 0.25713 -0.03084
 Cu9 Cu 0.00098 0.30842 0.00042
 Cu10 Cu 0.00049 0.25268 0.00031
 C11 C 0.03758 0.28020 -0.04123
 C12 C -0.03619 0.28075 0.04188
 C13 C 0.03740 0.28010 0.04208
 C14 C -0.03598 0.28095 -0.04129
 O15 O 0.52876 0.80298 0.46875
 O16 O 0.47395 0.80343 0.53139
 O17 O 0.52884 0.80279 0.53132
 O18 O 0.47387 0.80353 0.46888
 O19 O 0.47349 0.75716 0.46884
 O20 O 0.52831 0.75642 0.53112
 O21 O 0.47356 0.75706 0.53120
 O22 O 0.52824 0.75661 0.46870
 Cu23 Cu 0.50142 0.80788 0.50010
 Cu24 Cu 0.50086 0.75214 0.49995
 C25 C 0.53784 0.77969 0.45829
 C26 C 0.46437 0.78029 0.54168
 C27 C 0.53795 0.77945 0.54162
 C28 C 0.46427 0.78044 0.45850
 O29 O 1.02998 0.69773 0.03139
 O30 O 0.97502 0.69735 -0.03106
 O31 O 1.02990 0.69778 -0.03119
 O32 O 0.97510 0.69720 0.03145
 O33 O 0.97474 0.74358 0.03146
 O34 O 1.02942 0.74415 -0.03104
 O35 O 0.97467 0.74372 -0.03090
 O36 O 1.02948 0.74409 0.03140
 Cu37 Cu 1.00256 0.69282 0.00014
 Cu38 Cu 1.00205 0.74856 0.00023
 C39 C 1.03910 0.72101 0.04181
 C40 C 0.96543 0.72051 -0.04133
 C41 C 1.03901 0.72109 -0.04156
 C42 C 0.96554 0.72032 0.04184
 O43 O 0.47414 0.19529 0.46846
 O44 O 0.52892 0.19581 0.53105
 O45 O 0.47404 0.19513 0.53098
 O46 O 0.52903 0.19608 0.46849
 O47 O 0.52831 0.24245 0.46876
 O48 O 0.47348 0.24150 0.53109
 O49 O 0.52821 0.24218 0.53117
 O50 O 0.47356 0.24166 0.46873
 Cu51 Cu 0.50161 0.19088 0.49972
 Cu52 Cu 0.50084 0.24662 0.49996
 C53 C 0.46448 0.21843 0.45822
 C54 C 0.53790 0.21911 0.54154
 C55 C 0.46436 0.21819 0.54141
 C56 C 0.53804 0.21946 0.45822
 O57 O 0.69782 -0.02683 0.03066
 O58 O 0.69785 0.02814 -0.03173
 O59 O 0.69778 -0.02665 -0.03187
 O60 O 0.69778 0.02796 0.03080
 O61 O 0.74424 0.02785 0.03071
 O62 O 0.74424 -0.02663 -0.03182
 O63 O 0.74431 0.02802 -0.03167
 O64 O 0.74429 -0.02679 0.03056
 Cu65 Cu 0.69310 0.00066 -0.00053
 Cu66 Cu 0.74895 0.00061 -0.00056
 C67 C 0.72109 -0.03620 0.04098
 C68 C 0.72113 0.03748 -0.04206
 C69 C 0.72104 -0.03597 -0.04226
 C70 C 0.72104 0.03723 0.04116
 O71 O 0.19833 0.52707 0.46893
 O72 O 0.19845 0.47227 0.53147
 O73 O 0.19836 0.52706 0.53147
 O74 O 0.19844 0.47228 0.46894
 O75 O 0.24490 0.47239 0.46896
 O76 O 0.24482 0.52704 0.53135
 O77 O 0.24491 0.47239 0.53134
 O78 O 0.24479 0.52705 0.46895
 Cu79 Cu 0.19369 0.49966 0.50021
 Cu80 Cu 0.24954 0.49973 0.50015
 C81 C 0.22157 0.53642 0.45855
 C82 C 0.22173 0.46296 0.54179
 C83 C 0.22161 0.53641 0.54181
 C84 C 0.22172 0.46297 0.45856
 O85 O 0.29910 1.02808 0.03139
 O86 O 0.29915 0.97324 -0.03112
 O87 O 0.29913 1.02801 -0.03120
 O88 O 0.29917 0.97330 0.03147
 O89 O 0.25271 0.97337 0.03141
 O90 O 0.25268 1.02794 -0.03110
 O91 O 0.25269 0.97331 -0.03102
 O92 O 0.25264 1.02800 0.03133
 Cu93 Cu 0.30384 1.00066 0.00013
 Cu94 Cu 0.24800 1.00066 0.00016
 C95 C 0.27582 1.03739 0.04178
 C96 C 0.27589 0.96393 -0.04148
 C97 C 0.27586 1.03730 -0.04160
 C98 C 0.27591 0.96401 0.04187
 O99 O 0.80102 0.52735 0.53151
 O100 O 0.80102 0.47279 0.46874
 O101 O 0.80104 0.52756 0.46892
 O102 O 0.80089 0.47257 0.53133
 O103 O 0.75443 0.47276 0.53120
 O104 O 0.75457 0.52757 0.46898
 O105 O 0.75455 0.47295 0.46879
 O106 O 0.75456 0.52737 0.53139
 Cu107 Cu 0.80570 0.50006 0.50013
 Cu108 Cu 0.74985 0.50017 0.50009
 C109 C 0.77776 0.53666 0.54190
 C110 C 0.77775 0.46357 0.45831
 C111 C 0.77779 0.53693 0.45855
 C112 C 0.77759 0.46330 0.54165
 O113 O 0.24428 0.20507 0.24002
 O114 O 0.22860 0.26553 0.29208
 O115 O 0.20639 0.24406 0.24015
 O116 O 0.26659 0.22653 0.29195
 O117 O 0.29408 0.25323 0.26192
 O118 O 0.23389 0.27077 0.21013
 O119 O 0.25609 0.29225 0.26207
 O120 O 0.27177 0.23178 0.20999
 Cu121 Cu 0.23371 0.23260 0.26910
 Cu122 Cu 0.26675 0.26471 0.23302
 C123 C 0.26036 0.20832 0.21597
 C124 C 0.23991 0.28903 0.28604
 C125 C 0.21007 0.26009 0.21617
 C126 C 0.29042 0.23717 0.28587
 O127 O 0.70693 0.74479 0.25973
 O128 O 0.76727 0.72779 0.20781
 O129 O 0.74515 0.70612 0.25975
 O130 O 0.72894 0.76647 0.20773
 O131 O 0.75622 0.79340 0.23768
 O132 O 0.77242 0.73303 0.28974
 O133 O 0.79454 0.75469 0.23779
 O134 O 0.73422 0.77170 0.28968
 Cu135 Cu 0.73433 0.73358 0.23071
 Cu136 Cu 0.76712 0.76594 0.26673
 C137 C 0.71049 0.76083 0.28371
 C138 C 0.79102 0.73860 0.21386
 C139 C 0.76122 0.70948 0.28377
 C140 C 0.74007 0.79005 0.21373
 O141 O 0.79450 0.24620 0.23725
 O142 O 0.73446 0.22922 0.28959
 O143 O 0.75624 0.20751 0.23752
 O144 O 0.77259 0.26792 0.28929
 O145 O 0.74512 0.29479 0.25941
 O146 O 0.72876 0.23439 0.20768
 O147 O 0.70698 0.25610 0.25975
 O148 O 0.76704 0.27306 0.20737
 Cu149 Cu 0.76724 0.23500 0.26641
 Cu150 Cu 0.73421 0.26730 0.23052
 C151 C 0.79083 0.26226 0.21328
 C152 C 0.71067 0.24006 0.28373
 C153 C 0.73995 0.21082 0.21368
 C154 C 0.76131 0.29146 0.28333
 O155 O 0.27159 0.76786 0.21039
 O156 O 0.25564 0.70716 0.26199
 O157 O 0.23366 0.72898 0.21004
 O158 O 0.29370 0.74607 0.26226
 O159 O 0.26614 0.77267 0.29233
 O160 O 0.20608 0.75560 0.24008
 O161 O 0.22807 0.73379 0.29203
 O162 O 0.24403 0.79447 0.24046
 Cu163 Cu 0.26644 0.73482 0.23316
 Cu164 Cu 0.23330 0.76681 0.26928
 C165 C 0.26020 0.79132 0.21648
 C166 C 0.23939 0.71031 0.28591
 C167 C 0.20983 0.73971 0.21599
 C168 C 0.28999 0.76202 0.28630
 O169 O 0.75587 0.20678 0.76250
 O170 O 0.77183 0.26715 0.71037
 O171 O 0.79388 0.24572 0.76246
 O172 O 0.73391 0.22824 0.71037
 O173 O 0.70630 0.25504 0.74016
 O174 O 0.76628 0.27251 0.79227
 O175 O 0.74423 0.29394 0.74018
 O176 O 0.72826 0.23358 0.79229
 Cu177 Cu 0.76667 0.23426 0.73344
 Cu178 Cu 0.73349 0.26647 0.76925
 C179 C 0.73960 0.21006 0.78638
 C180 C 0.76044 0.29065 0.71626
 C181 C 0.79014 0.26184 0.78633
 C182 C 0.71007 0.23897 0.71624
 O183 O 0.29376 0.74601 0.73814
 O184 O 0.23361 0.72889 0.79021
 O185 O 0.25568 0.70713 0.73828
 O186 O 0.27155 0.76775 0.79001
 O187 O 0.24408 0.79443 0.75992
 O188 O 0.22820 0.73382 0.70823
 O189 O 0.20612 0.75558 0.76016
 O190 O 0.26629 0.77269 0.70805
 Cu191 Cu 0.26644 0.73474 0.76717
 Cu192 Cu 0.23341 0.76682 0.73103
 C193 C 0.29011 0.76200 0.71411
 C194 C 0.20981 0.73964 0.78422
 C195 C 0.23949 0.71032 0.71433
 C196 C 0.26019 0.79123 0.78394
 O197 O 0.25618 0.29215 0.73818
 O198 O 0.27193 0.23160 0.79010
 O199 O 0.29412 0.25308 0.73807
 O200 O 0.23410 0.27064 0.79022
 O201 O 0.20647 0.24401 0.76034
 O202 O 0.26649 0.22646 0.70816
 O203 O 0.24431 0.20498 0.76019
 O204 O 0.22855 0.26552 0.70830
 Cu205 Cu 0.26689 0.26456 0.76714
 Cu206 Cu 0.23368 0.23256 0.73121
 C207 C 0.23992 0.28898 0.71429
 C208 C 0.26047 0.20817 0.78415
 C209 C 0.29037 0.23704 0.71412
 C210 C 0.21024 0.26001 0.78432
 O211 O 0.72890 0.76641 0.79200
 O212 O 0.74539 0.70580 0.74061
 O213 O 0.76732 0.72782 0.79242
 O214 O 0.70710 0.74438 0.74015
 O215 O 0.73443 0.77116 0.71003
 O216 O 0.79463 0.75460 0.76227
 O217 O 0.77271 0.73257 0.71045
 O218 O 0.75622 0.79321 0.76188
 Cu219 Cu 0.73443 0.73340 0.76936
 Cu220 Cu 0.76727 0.76560 0.73314
 C221 C 0.73999 0.78997 0.78580
 C222 C 0.76152 0.70904 0.71661
 C223 C 0.79107 0.73865 0.78635
 C224 C 0.71069 0.76028 0.71604
 C225 C 0.26969 0.14381 0.15211
 C226 C 0.29003 0.12242 0.15613
 C227 C 0.29184 0.10022 0.13339
 C228 C 0.27332 0.09958 0.10676
 C229 C 0.25310 0.12107 0.10263
 C230 C 0.25125 0.14323 0.12539
 C231 C 0.23076 0.16441 0.12081
 C232 C 0.21263 0.16372 0.09452
 C233 C 0.21449 0.14210 0.07223
 C234 C 0.23444 0.12097 0.07611
 C235 C 0.31229 0.07905 0.13795
 C236 C 0.33045 0.07978 0.16422
 C237 C 0.32868 0.10148 0.18644
 C238 C 0.30874 0.12261 0.18257
 C239 C 0.27486 0.07678 0.08366
 C240 C 0.27559 0.05809 0.06415
 C241 C 0.26745 0.16633 0.17547
 C242 C 0.26476 0.18533 0.19435
 H243 H 0.22850 0.18170 0.13745
 H244 H 0.19704 0.18003 0.09146
 H245 H 0.20038 0.14167 0.05183
 H246 H 0.23504 0.10460 0.05812
 H247 H 0.31448 0.06175 0.12129
 H248 H 0.34598 0.06341 0.16734
 H249 H 0.34284 0.10195 0.20680
 H250 H 0.30816 0.13907 0.20047
 C251 C 0.77132 0.64433 0.65322
 C252 C 0.79202 0.62328 0.65706
 C253 C 0.79391 0.60103 0.63442
 C254 C 0.77510 0.59999 0.60808
 C255 C 0.75449 0.62114 0.60415
 C256 C 0.75257 0.64336 0.62680
 C257 C 0.73170 0.66421 0.62242
 C258 C 0.71327 0.66312 0.59643
 C259 C 0.71520 0.64143 0.57423
 C260 C 0.73552 0.62063 0.57792
 C261 C 0.81474 0.58019 0.63878
 C262 C 0.83319 0.58131 0.66476
 C263 C 0.83135 0.60308 0.68689
 C264 C 0.81103 0.62389 0.68320
 C265 C 0.77674 0.57716 0.58507
 C266 C 0.77753 0.55847 0.56559
 C267 C 0.76900 0.66692 0.67646
 C268 C 0.76617 0.68598 0.69520
 H269 H 0.72936 0.68154 0.63900
 H270 H 0.69740 0.67917 0.59352
 H271 H 0.70085 0.64069 0.55406
 H272 H 0.73615 0.60419 0.56001
 H273 H 0.81700 0.56285 0.62218
 H274 H 0.84901 0.56520 0.66773
 H275 H 0.84573 0.60385 0.70703
 H276 H 0.81041 0.64041 0.70102
 C277 C 0.72840 0.85485 0.15071
 C278 C 0.71499 0.88011 0.15995
 C279 C 0.71264 0.90257 0.13760
 C280 C 0.72368 0.89961 0.10616
 C281 C 0.73676 0.87421 0.09678
 C282 C 0.73915 0.85178 0.11913
 C283 C 0.75247 0.82665 0.10924
 C284 C 0.76309 0.82377 0.07818
 C285 C 0.76071 0.84569 0.05631
 C286 C 0.74772 0.87066 0.06536
 C287 C 0.69927 0.92766 0.14743
 C288 C 0.68850 0.93047 0.17844
 C289 C 0.69079 0.90851 0.20028
 C290 C 0.70387 0.88357 0.19127
 C291 C 0.72209 0.92278 0.08356
 C292 C 0.72132 0.94173 0.06438
 C293 C 0.73169 0.83219 0.17374
 C294 C 0.73509 0.81311 0.19237
 H295 H 0.75482 0.80898 0.12535
 H296 H 0.77321 0.80442 0.07104
 H297 H 0.76900 0.84334 0.03221
 H298 H 0.74637 0.88708 0.04747
 H299 H 0.69697 0.94531 0.13128
 H300 H 0.67833 0.94981 0.18556
 H301 H 0.68238 0.91081 0.22433
 H302 H 0.70513 0.86706 0.20908
 C303 C 0.22871 0.35396 0.65144
 C304 C 0.21548 0.37929 0.66074
 C305 C 0.21326 0.40179 0.63844
 C306 C 0.22425 0.39880 0.60698
 C307 C 0.23716 0.37333 0.59754
 C308 C 0.23942 0.35086 0.61984
 C309 C 0.25258 0.32566 0.60990
 C310 C 0.26315 0.32275 0.57882
 C311 C 0.26090 0.34471 0.55700
 C312 C 0.24807 0.36975 0.56610
 C313 C 0.20007 0.42696 0.64832
 C314 C 0.18935 0.42981 0.67935
 C315 C 0.19151 0.40780 0.70115
 C316 C 0.20441 0.38278 0.69208
 C317 C 0.22274 0.42198 0.58440
 C318 C 0.22199 0.44092 0.56522
 C319 C 0.23184 0.33124 0.67441
 C320 C 0.23511 0.31211 0.69299
 H321 H 0.25482 0.30795 0.62598
 H322 H 0.27314 0.30334 0.57164
 H323 H 0.26915 0.34234 0.53288
 H324 H 0.24682 0.38621 0.54824
 H325 H 0.19787 0.44465 0.63220
 H326 H 0.17931 0.44920 0.68651
 H327 H 0.18314 0.41012 0.72522
 H328 H 0.20558 0.36625 0.70987
 C329 C 0.85554 0.27424 0.15004
 C330 C 0.88067 0.28798 0.15912
 C331 C 0.90323 0.29021 0.13683
 C332 C 0.90050 0.27870 0.10560
 C333 C 0.87520 0.26533 0.09636
 C334 C 0.85267 0.26307 0.11865
 C335 C 0.82766 0.24944 0.10892
 C336 C 0.82498 0.23839 0.07805
 C337 C 0.84699 0.24064 0.05624
 C338 C 0.87185 0.25393 0.06514
 C339 C 0.92820 0.30391 0.14649
 C340 C 0.93080 0.31513 0.17729
 C341 C 0.90874 0.31297 0.19907
 C342 C 0.88391 0.29957 0.19023
 C343 C 0.92380 0.28010 0.08309
 C344 C 0.94283 0.28069 0.06396
 C345 C 0.83285 0.27094 0.17310
 C346 C 0.81380 0.26745 0.19179
 H347 H 0.80991 0.24718 0.12499
 H348 H 0.80571 0.22804 0.07102
 H349 H 0.84480 0.23202 0.03229
 H350 H 0.88836 0.25517 0.04729
 H351 H 0.94592 0.30613 0.13037
 H352 H 0.95004 0.32556 0.18428
 H353 H 0.91086 0.32173 0.22296
 H354 H 0.86732 0.29842 0.20799
 C355 C 0.35492 0.77399 0.65106
 C356 C 0.38018 0.78741 0.66028
 C357 C 0.40276 0.78958 0.63803
 C358 C 0.39993 0.77833 0.60669
 C359 C 0.37450 0.76529 0.59730
 C360 C 0.35194 0.76308 0.61956
 C361 C 0.32679 0.74978 0.60968
 C362 C 0.32401 0.73900 0.57870
 C363 C 0.34605 0.74119 0.55692
 C364 C 0.37105 0.75416 0.56597
 C365 C 0.42786 0.80296 0.64783
 C366 C 0.43057 0.81392 0.67874
 C367 C 0.40848 0.81181 0.70050
 C368 C 0.38352 0.79872 0.69151
 C369 C 0.42323 0.77968 0.58420
 C370 C 0.44226 0.78026 0.56508
 C371 C 0.33221 0.77071 0.67407
 C372 C 0.31312 0.76722 0.69270
 H373 H 0.30902 0.74758 0.62572
 H374 H 0.30464 0.72890 0.57156
 H375 H 0.34379 0.73278 0.53289
 H376 H 0.38757 0.75536 0.54814
 H377 H 0.44561 0.80512 0.63174
 H378 H 0.44991 0.82410 0.68585
 H379 H 0.41068 0.82037 0.72448
 H380 H 0.36692 0.79761 0.70925
 C381 C 0.14569 0.72807 0.15200
 C382 C 0.14970 0.73765 0.12006
 C383 C 0.12754 0.73537 0.09732
 C384 C 0.10148 0.72358 0.10665
 C385 C 0.09758 0.71371 0.13846
 C386 C 0.11976 0.71595 0.16121
 C387 C 0.11535 0.70601 0.19289
 C388 C 0.08974 0.69420 0.20186
 C389 C 0.06805 0.69203 0.17963
 C390 C 0.07180 0.70164 0.14826
 C391 C 0.13204 0.74515 0.06556
 C392 C 0.15769 0.75682 0.05653
 C393 C 0.17935 0.75904 0.07877
 C394 C 0.17552 0.74965 0.11020
 C395 C 0.07861 0.72209 0.08361
 C396 C 0.05986 0.72133 0.06414
 C397 C 0.16809 0.73129 0.17542
 C398 C 0.18697 0.73467 0.19434
 H399 H 0.13161 0.70723 0.21101
 H400 H 0.08672 0.68670 0.22619
 H401 H 0.04820 0.68284 0.18672
 H402 H 0.05432 0.69948 0.13182
 H403 H 0.11584 0.74385 0.04737
 H404 H 0.16077 0.76417 0.03214
 H405 H 0.19925 0.76810 0.07162
 H406 H 0.19302 0.75185 0.12661
 C407 C 0.64589 0.22674 0.65254
 C408 C 0.64977 0.23623 0.62055
 C409 C 0.62754 0.23381 0.59792
 C410 C 0.60155 0.22197 0.60743
 C411 C 0.59779 0.21217 0.63929
 C412 C 0.62004 0.21455 0.66192
 C413 C 0.61578 0.20469 0.69366
 C414 C 0.59025 0.19281 0.70279
 C415 C 0.56848 0.19050 0.68067
 C416 C 0.57209 0.20004 0.64925
 C417 C 0.63190 0.24349 0.56609
 C418 C 0.65748 0.25521 0.55689
 C419 C 0.67922 0.25757 0.57902
 C420 C 0.67552 0.24827 0.61052
 C421 C 0.57861 0.22036 0.58451
 C422 C 0.55982 0.21951 0.56513
 C423 C 0.66832 0.23016 0.67584
 C424 C 0.68721 0.23372 0.69468
 H425 H 0.63210 0.20602 0.71170
 H426 H 0.58734 0.18536 0.72717
 H427 H 0.54869 0.18126 0.68789
 H428 H 0.55456 0.19776 0.63290
 H429 H 0.61564 0.24208 0.54798
 H430 H 0.66045 0.26247 0.53246
 H431 H 0.69907 0.26665 0.57175
 H432 H 0.69307 0.25057 0.62683
 C433 C 0.72819 0.14526 0.84946
 C434 C 0.73914 0.14826 0.88094
 C435 C 0.73682 0.12583 0.90329
 C436 C 0.72362 0.10049 0.89402
 C437 C 0.71238 0.09760 0.86267
 C438 C 0.71465 0.12006 0.84032
 C439 C 0.70333 0.11667 0.80910
 C440 C 0.69013 0.09178 0.80020
 C441 C 0.68792 0.06981 0.82204
 C442 C 0.69888 0.07257 0.85295
 C443 C 0.74799 0.12932 0.93460
 C444 C 0.76111 0.15423 0.94355
 C445 C 0.76342 0.17614 0.92168
 C446 C 0.75260 0.17332 0.89071
 C447 C 0.72208 0.07732 0.91662
 C448 C 0.72135 0.05838 0.93581
 C449 C 0.73138 0.16792 0.82641
 C450 C 0.73471 0.18701 0.80777
 H451 H 0.70453 0.13318 0.79129
 H452 H 0.68157 0.08953 0.77622
 H453 H 0.67765 0.05053 0.81501
 H454 H 0.69663 0.05492 0.86911
 H455 H 0.74670 0.11289 0.95250
 H456 H 0.76956 0.15652 0.96757
 H457 H 0.77365 0.19544 0.92873
 H458 H 0.75490 0.19100 0.87460
 C459 C 0.22821 0.64531 0.34874
 C460 C 0.23881 0.64850 0.38036
 C461 C 0.23660 0.62605 0.40270
 C462 C 0.22387 0.60051 0.39327
 C463 C 0.21300 0.59743 0.36178
 C464 C 0.21516 0.61991 0.33945
 C465 C 0.20422 0.61633 0.30808
 C466 C 0.19148 0.59124 0.29902
 C467 C 0.18938 0.56926 0.32085
 C468 C 0.19998 0.57220 0.35191
 C469 C 0.24739 0.62972 0.43416
 C470 C 0.26005 0.65483 0.44325
 C471 C 0.26225 0.67677 0.42140
 C472 C 0.25179 0.67377 0.39029
 C473 C 0.22242 0.57736 0.41589
 C474 C 0.22174 0.55843 0.43509
 C475 C 0.23130 0.66801 0.32574
 C476 C 0.23456 0.68715 0.30717
 H477 H 0.20535 0.63285 0.29027
 H478 H 0.18321 0.58886 0.27493
 H479 H 0.17947 0.54982 0.31370
 H480 H 0.19783 0.55452 0.36805
 H481 H 0.24617 0.61329 0.45205
 H482 H 0.26821 0.65726 0.46739
 H483 H 0.27210 0.69623 0.42857
 H484 H 0.25398 0.69147 0.37419
 C485 C 0.26964 0.85598 0.84741
 C486 C 0.25107 0.85683 0.87403
 C487 C 0.25294 0.87908 0.89665
 C488 C 0.27333 0.90040 0.89250
 C489 C 0.29197 0.89948 0.86597
 C490 C 0.29013 0.87719 0.84336
 C491 C 0.30897 0.87673 0.81702
 C492 C 0.32907 0.89769 0.81312
 C493 C 0.33086 0.91949 0.83521
 C494 C 0.31258 0.92048 0.86138
 C495 C 0.23414 0.87946 0.92306
 C496 C 0.21404 0.85850 0.92697
 C497 C 0.21216 0.83679 0.90481
 C498 C 0.23042 0.83583 0.87863
 C499 C 0.27491 0.92328 0.91548
 C500 C 0.27568 0.94202 0.93491
 C501 C 0.26738 0.83336 0.82418
 C502 C 0.26465 0.81429 0.80542
 H503 H 0.30838 0.86019 0.79922
 H504 H 0.34333 0.89702 0.79284
 H505 H 0.34651 0.93572 0.83207
 H506 H 0.31479 0.93784 0.87794
 H507 H 0.23475 0.89591 0.94096
 H508 H 0.19982 0.85914 0.94729
 H509 H 0.19645 0.82062 0.90789
 H510 H 0.22813 0.81847 0.86209
 C511 C 0.77121 0.35597 0.34693
 C512 C 0.75284 0.35666 0.37373
 C513 C 0.75479 0.37885 0.39641
 C514 C 0.77507 0.40026 0.39212
 C515 C 0.79353 0.39948 0.36542
 C516 C 0.79160 0.37726 0.34275
 C517 C 0.81025 0.37693 0.31623
 C518 C 0.83025 0.39797 0.31222
 C519 C 0.83213 0.41971 0.33437
 C520 C 0.81403 0.42056 0.36072
 C521 C 0.73620 0.37909 0.42301
 C522 C 0.71620 0.35805 0.42705
 C523 C 0.71424 0.33639 0.40482
 C524 C 0.73230 0.33557 0.37846
 C525 C 0.77671 0.42308 0.41514
 C526 C 0.77751 0.44176 0.43463
 C527 C 0.76882 0.33344 0.32363
 C528 C 0.76596 0.31444 0.30483
 H529 H 0.80958 0.36044 0.29838
 H530 H 0.84436 0.39739 0.29180
 H531 H 0.84770 0.43600 0.33114
 H532 H 0.81630 0.43788 0.37732
 H533 H 0.73688 0.39550 0.44096
 H534 H 0.70215 0.35858 0.44751
 H535 H 0.69862 0.32015 0.40800
 H536 H 0.72995 0.31825 0.36188
 C537 C 0.14592 0.27240 0.84798
 C538 C 0.12008 0.28458 0.83853
 C539 C 0.09777 0.28703 0.86112
 C540 C 0.10146 0.27730 0.89303
 C541 C 0.12745 0.26548 0.90261
 C542 C 0.14973 0.26300 0.88002
 C543 C 0.17547 0.25098 0.89013
 C544 C 0.17911 0.24176 0.92166
 C545 C 0.15732 0.24418 0.94374
 C546 C 0.13175 0.25588 0.93447
 C547 C 0.07208 0.29915 0.85108
 C548 C 0.06854 0.30861 0.81963
 C549 C 0.09035 0.30623 0.79755
 C550 C 0.11587 0.29437 0.80676
 C551 C 0.07845 0.27895 0.91590
 C552 C 0.05959 0.27982 0.93524
 C553 C 0.16841 0.26891 0.82471
 C554 C 0.18734 0.26531 0.80589
 H555 H 0.19306 0.24863 0.87385
 H556 H 0.19895 0.23269 0.92899
 H557 H 0.16025 0.23697 0.96820
 H558 H 0.11545 0.25733 0.95255
 H559 H 0.05452 0.30147 0.86740
 H560 H 0.04875 0.31784 0.81235
 H561 H 0.08749 0.31362 0.77315
 H562 H 0.13223 0.29298 0.78874
 C563 C 0.64602 0.77249 0.34729
 C564 C 0.62013 0.78461 0.33792
 C565 C 0.59782 0.78685 0.36053
 C566 C 0.60156 0.77699 0.39237
 C567 C 0.62759 0.76521 0.40187
 C568 C 0.64988 0.76293 0.37925
 C569 C 0.67566 0.75095 0.38927
 C570 C 0.67935 0.74157 0.42074
 C571 C 0.65756 0.74381 0.44285
 C572 C 0.63194 0.75546 0.43366
 C573 C 0.57208 0.79892 0.35058
 C574 C 0.56849 0.80853 0.31919
 C575 C 0.59031 0.80635 0.29709
 C576 C 0.61588 0.79454 0.30621
 C577 C 0.57859 0.77852 0.41529
 C578 C 0.55978 0.77932 0.43469
 C579 C 0.66853 0.76927 0.32402
 C580 C 0.68751 0.76588 0.30522
 H581 H 0.69325 0.74874 0.37297
 H582 H 0.69923 0.73254 0.42800
 H583 H 0.66052 0.73648 0.46726
 H584 H 0.61564 0.75676 0.45176
 H585 H 0.55451 0.80108 0.36692
 H586 H 0.54866 0.81771 0.31198
 H587 H 0.58741 0.81385 0.27274
 H588 H 0.63224 0.79331 0.28819
 C589 C 0.85594 0.72699 0.84940
 C590 C 0.85297 0.73795 0.88088
 C591 C 0.87553 0.73573 0.90313
 C592 C 0.90095 0.72261 0.89375
 C593 C 0.90379 0.71133 0.86241
 C594 C 0.88120 0.71351 0.84017
 C595 C 0.88456 0.70216 0.80896
 C596 C 0.90951 0.68902 0.79997
 C597 C 0.93159 0.68690 0.82170
 C598 C 0.92888 0.69789 0.85260
 C599 C 0.87207 0.74690 0.93444
 C600 C 0.84708 0.75993 0.94349
 C601 C 0.82505 0.76215 0.92173
 C602 C 0.82783 0.75132 0.89076
 C603 C 0.92425 0.72121 0.91623
 C604 C 0.94329 0.72059 0.93532
 C605 C 0.83320 0.73020 0.82641
 C606 C 0.81410 0.73360 0.80779
 H607 H 0.86796 0.70328 0.79124
 H608 H 0.91172 0.68043 0.77600
 H609 H 0.95093 0.67667 0.81459
 H610 H 0.94662 0.69572 0.86868
 H611 H 0.88859 0.74569 0.95226
 H612 H 0.84482 0.76838 0.96751
 H613 H 0.80569 0.77230 0.92887
 H614 H 0.81007 0.75353 0.87473
 C615 C 0.35517 0.22484 0.34884
 C616 C 0.35209 0.23557 0.38041
 C617 C 0.37461 0.23331 0.40267
 C618 C 0.40011 0.22038 0.39322
 C619 C 0.40304 0.20929 0.36181
 C620 C 0.38049 0.21152 0.33955
 C621 C 0.38393 0.20038 0.30825
 C622 C 0.40895 0.18739 0.29920
 C623 C 0.43101 0.18522 0.32096
 C624 C 0.42821 0.19602 0.35194
 C625 C 0.37106 0.24426 0.43408
 C626 C 0.34600 0.25712 0.44319
 C627 C 0.32399 0.25937 0.42140
 C628 C 0.32687 0.24876 0.39035
 C629 C 0.42339 0.21901 0.41570
 C630 C 0.44240 0.21843 0.43482
 C631 C 0.33250 0.22822 0.32582
 C632 C 0.31343 0.23181 0.30721
 H633 H 0.36735 0.20154 0.29050
 H634 H 0.41123 0.17896 0.27516
 H635 H 0.45040 0.17512 0.31380
 H636 H 0.44593 0.19381 0.36803
 H637 H 0.38756 0.24300 0.45191
 H638 H 0.34367 0.26540 0.46728
 H639 H 0.30457 0.26938 0.42860
 H640 H 0.30912 0.25100 0.37431
 C641 C 0.72788 0.85507 0.84821
 C642 C 0.71809 0.88156 0.83768
 C643 C 0.71580 0.90409 0.85991
 C644 C 0.72328 0.89996 0.89253
 C645 C 0.73264 0.87333 0.90317
 C646 C 0.73497 0.85082 0.88094
 C647 C 0.74453 0.82443 0.89211
 C648 C 0.75152 0.82039 0.92432
 C649 C 0.74922 0.84239 0.94607
 C650 C 0.73991 0.86860 0.93575
 C651 C 0.70610 0.93042 0.84882
 C652 C 0.69884 0.93439 0.81666
 C653 C 0.70108 0.91236 0.79492
 C654 C 0.71059 0.88620 0.80518
 C655 C 0.72189 0.92313 0.91509
 C656 C 0.72123 0.94205 0.93428
 C657 C 0.73134 0.83231 0.82537
 C658 C 0.73488 0.81315 0.80693
 H659 H 0.74665 0.80665 0.87614
 H660 H 0.75871 0.80006 0.93246
 H661 H 0.75465 0.83913 0.97107
 H662 H 0.73846 0.88504 0.95360
 H663 H 0.70398 0.94818 0.86484
 H664 H 0.69145 0.95467 0.80858
 H665 H 0.69542 0.91555 0.76998
 H666 H 0.71196 0.86970 0.78739
 C667 C 0.22840 0.35404 0.34881
 C668 C 0.21880 0.38062 0.33834
 C669 C 0.21660 0.40312 0.36063
 C670 C 0.22398 0.39889 0.39326
 C671 C 0.23319 0.37219 0.40384
 C672 C 0.23542 0.34970 0.38155
 C673 C 0.24482 0.32324 0.39267
 C674 C 0.25174 0.31910 0.42489
 C675 C 0.24953 0.34107 0.44669
 C676 C 0.24039 0.36735 0.43642
 C677 C 0.20707 0.42953 0.34957
 C678 C 0.19991 0.43361 0.31741
 C679 C 0.20206 0.41161 0.29562
 C680 C 0.21140 0.38537 0.30583
 C681 C 0.22262 0.42203 0.41590
 C682 C 0.22195 0.44095 0.43511
 C683 C 0.23170 0.33128 0.32591
 C684 C 0.23506 0.31214 0.30736
 H685 H 0.24687 0.30548 0.37666
 H686 H 0.25881 0.29871 0.43299
 H687 H 0.25491 0.33774 0.47169
 H688 H 0.23900 0.38377 0.45431
 H689 H 0.20503 0.44727 0.36563
 H690 H 0.19265 0.45395 0.30936
 H691 H 0.19647 0.41488 0.27067
 H692 H 0.21270 0.36890 0.28800
 C693 C 0.26983 0.14363 0.84795
 C694 C 0.28998 0.12210 0.84377
 C695 C 0.29178 0.09991 0.86652
 C696 C 0.27342 0.09941 0.89333
 C697 C 0.25337 0.12105 0.89761
 C698 C 0.25154 0.14320 0.87484
 C699 C 0.23123 0.16453 0.87957
 C700 C 0.21326 0.16398 0.90603
 C701 C 0.21509 0.14235 0.92834
 C702 C 0.23487 0.12109 0.92431
 C703 C 0.31205 0.07858 0.86181
 C704 C 0.33005 0.07917 0.83537
 C705 C 0.32830 0.10087 0.81312
 C706 C 0.30853 0.12215 0.81715
 C707 C 0.27493 0.07663 0.91644
 C708 C 0.27565 0.05796 0.93598
 C709 C 0.26760 0.16615 0.82458
 C710 C 0.26490 0.18516 0.80572
 H711 H 0.22898 0.18183 0.86293
 H712 H 0.19780 0.18040 0.90921
 H713 H 0.20110 0.14203 0.94888
 H714 H 0.23546 0.10472 0.94232
 H715 H 0.31421 0.06128 0.87847
 H716 H 0.34544 0.06269 0.83212
 H717 H 0.34233 0.10123 0.79263
 H718 H 0.30796 0.13860 0.79923
 C719 C 0.77117 0.64492 0.34745
 C720 C 0.79173 0.62376 0.34338
 C721 C 0.79370 0.60149 0.36602
 C722 C 0.77512 0.60054 0.39261
 C723 C 0.75468 0.62183 0.39680
 C724 C 0.75268 0.64406 0.37414
 C725 C 0.73197 0.66503 0.37878
 C726 C 0.71379 0.66405 0.40504
 C727 C 0.71580 0.64235 0.42723
 C728 C 0.73595 0.62143 0.42328
 C729 C 0.81438 0.58053 0.36141
 C730 C 0.83260 0.58156 0.33518
 C731 C 0.83067 0.60333 0.31306
 C732 C 0.81051 0.62425 0.31698
 C733 C 0.77678 0.57764 0.41557
 C734 C 0.77759 0.55887 0.43498
 C735 C 0.76873 0.66749 0.32416
 C736 C 0.76585 0.68650 0.30534
 H737 H 0.72959 0.68237 0.36222
 H738 H 0.69804 0.68020 0.40815
 H739 H 0.70164 0.64170 0.44760
 H740 H 0.73666 0.60499 0.44120
 H741 H 0.81669 0.56319 0.37799
 H742 H 0.84830 0.56536 0.33202
 H743 H 0.84488 0.60403 0.29273
 H744 H 0.80981 0.64078 0.29916
 C745 C 0.14560 0.72808 0.84817
 C746 C 0.14957 0.73778 0.88005
 C747 C 0.12738 0.73556 0.90280
 C748 C 0.10135 0.72370 0.89353
 C749 C 0.09750 0.71370 0.86178
 C750 C 0.11970 0.71589 0.83903
 C751 C 0.11534 0.70583 0.80740
 C752 C 0.08976 0.69394 0.79850
 C753 C 0.06805 0.69182 0.82074
 C754 C 0.07175 0.70156 0.85205
 C755 C 0.13183 0.74545 0.93450
 C756 C 0.15746 0.75719 0.94347
 C757 C 0.17914 0.75936 0.92123
 C758 C 0.17536 0.74984 0.88984
 C759 C 0.07848 0.72223 0.91658
 C760 C 0.05974 0.72147 0.93607
 C761 C 0.16800 0.73125 0.82475
 C762 C 0.18691 0.73460 0.80584
 H763 H 0.13162 0.70701 0.78928
 H764 H 0.08678 0.68634 0.77421
 H765 H 0.04822 0.68258 0.81370
 H766 H 0.05425 0.69943 0.86850
 H767 H 0.11562 0.74420 0.95270
 H768 H 0.16050 0.76463 0.96781
 H769 H 0.19903 0.76846 0.92832
 H770 H 0.19287 0.75201 0.87343
 C771 C 0.64631 0.22792 0.34739
 C772 C 0.65005 0.23740 0.37939
 C773 C 0.62777 0.23484 0.40198
 C774 C 0.60187 0.22286 0.39244
 C775 C 0.59825 0.21308 0.36056
 C776 C 0.62054 0.21560 0.33797
 C777 C 0.61641 0.20575 0.30622
 C778 C 0.59097 0.19374 0.29704
 C779 C 0.56917 0.19128 0.31911
 C780 C 0.57264 0.20081 0.35054
 C781 C 0.63200 0.24452 0.43382
 C782 C 0.65750 0.25636 0.44306
 C783 C 0.67927 0.25887 0.42098
 C784 C 0.67570 0.24958 0.38947
 C785 C 0.57888 0.22107 0.41532
 C786 C 0.56004 0.22005 0.43468
 C787 C 0.66882 0.23138 0.32414
 C788 C 0.68776 0.23492 0.30532
 H789 H 0.63277 0.20719 0.28820
 H790 H 0.58816 0.18630 0.27265
 H791 H 0.54944 0.18194 0.31186
 H792 H 0.55509 0.19843 0.36686
 H793 H 0.61571 0.24300 0.45189
 H794 H 0.66037 0.26362 0.46751
 H795 H 0.69905 0.26805 0.42829
 H796 H 0.69328 0.25200 0.37319
 C797 C 0.85483 0.27468 0.84920
 C798 C 0.88132 0.28466 0.83876
 C799 C 0.90386 0.28694 0.86102
 C800 C 0.89975 0.27926 0.89358
 C801 C 0.87310 0.26978 0.90416
 C802 C 0.85059 0.26746 0.88190
 C803 C 0.82419 0.25776 0.89299
 C804 C 0.82014 0.25062 0.92517
 C805 C 0.84216 0.25292 0.94695
 C806 C 0.86838 0.26235 0.93670
 C807 C 0.93019 0.29681 0.85000
 C808 C 0.93414 0.30425 0.81789
 C809 C 0.91210 0.30202 0.79613
 C810 C 0.88595 0.29234 0.80630
 C811 C 0.92298 0.28050 0.91613
 C812 C 0.94196 0.28099 0.93529
 C813 C 0.83214 0.27104 0.82627
 C814 C 0.81309 0.26729 0.80770
 H815 H 0.80639 0.25564 0.87700
 H816 H 0.79981 0.24332 0.93325
 H817 H 0.83890 0.24737 0.97192
 H818 H 0.88482 0.26380 0.95458
 H819 H 0.94795 0.29893 0.86605
 H820 H 0.95442 0.31177 0.80987
 H821 H 0.91528 0.30783 0.77122
 H822 H 0.86943 0.29100 0.78850
 C823 C 0.35483 0.77445 0.34917
 C824 C 0.38134 0.78437 0.33870
 C825 C 0.40392 0.78657 0.36093
 C826 C 0.39984 0.77886 0.39350
 C827 C 0.37319 0.76941 0.40409
 C828 C 0.35063 0.76718 0.38186
 C829 C 0.32423 0.75751 0.39299
 C830 C 0.32022 0.75033 0.42516
 C831 C 0.34227 0.75254 0.44690
 C832 C 0.36849 0.76194 0.43663
 C833 C 0.43026 0.79639 0.34988
 C834 C 0.43418 0.80386 0.31778
 C835 C 0.41210 0.80172 0.29605
 C836 C 0.38594 0.79209 0.30625
 C837 C 0.42312 0.78005 0.41602
 C838 C 0.44214 0.78051 0.43514
 C839 C 0.33208 0.77094 0.32627
 C840 C 0.31298 0.76732 0.30769
 H841 H 0.30641 0.75546 0.37702
 H842 H 0.29988 0.74305 0.43327
 H843 H 0.33904 0.74696 0.47186
 H844 H 0.38497 0.76332 0.45447
 H845 H 0.44805 0.79844 0.36590
 H846 H 0.45446 0.81135 0.30973
 H847 H 0.41526 0.80755 0.27114
 H848 H 0.36939 0.79081 0.28848
 C849 C 0.26970 0.85611 0.15307
 C850 C 0.25128 0.85683 0.12633
 C851 C 0.25314 0.87909 0.10370
 C852 C 0.27336 0.90054 0.10797
 C853 C 0.29184 0.89976 0.13462
 C854 C 0.29002 0.87746 0.15724
 C855 C 0.30869 0.87712 0.18370
 C856 C 0.32863 0.89822 0.18772
 C857 C 0.33041 0.92002 0.16562
 C858 C 0.31228 0.92090 0.13932
 C859 C 0.23450 0.87935 0.07716
 C860 C 0.21456 0.85826 0.07314
 C861 C 0.21270 0.83653 0.09531
 C862 C 0.23080 0.83569 0.12161
 C863 C 0.27493 0.92342 0.08498
 C864 C 0.27569 0.94215 0.06553
 C865 C 0.26744 0.83349 0.17629
 C866 C 0.26470 0.81441 0.19504
 H867 H 0.30810 0.86058 0.20152
 H868 H 0.34276 0.89764 0.20810
 H869 H 0.34593 0.93636 0.16885
 H870 H 0.31447 0.93827 0.12277
 H871 H 0.23511 0.89581 0.05925
 H872 H 0.20047 0.85880 0.05272
 H873 H 0.19712 0.82025 0.09214
 H874 H 0.22853 0.81832 0.13815
 C875 C 0.77050 0.35525 0.65264
 C876 C 0.75243 0.35590 0.62559
 C877 C 0.75452 0.37815 0.60296
 C878 C 0.77464 0.39965 0.60754
 C879 C 0.79280 0.39891 0.63448
 C880 C 0.79074 0.37663 0.65710
 C881 C 0.80909 0.37634 0.68386
 C882 C 0.82894 0.39748 0.68816
 C883 C 0.83096 0.41927 0.66606
 C884 C 0.81315 0.42008 0.63948
 C885 C 0.73623 0.37834 0.57612
 C886 C 0.71639 0.35720 0.57179
 C887 C 0.71429 0.33549 0.59396
 C888 C 0.73206 0.33471 0.62056
 C889 C 0.77639 0.42256 0.58460
 C890 C 0.77728 0.44134 0.56521
 C891 C 0.76797 0.33266 0.67589
 C892 C 0.76506 0.31364 0.69470
 H893 H 0.80831 0.35982 0.70168
 H894 H 0.84283 0.39694 0.70877
 H895 H 0.84641 0.43563 0.66952
 H896 H 0.81552 0.43745 0.62294
 H897 H 0.73703 0.39478 0.55820
 H898 H 0.70256 0.35769 0.55114
 H899 H 0.69879 0.31917 0.59054
 H900 H 0.72961 0.31735 0.63709
 C901 C 0.72788 0.14595 0.15100
 C902 C 0.73485 0.15031 0.11825
 C903 C 0.73252 0.12787 0.09594
 C904 C 0.72327 0.10119 0.10652
 C905 C 0.71590 0.09695 0.13916
 C906 C 0.71820 0.11941 0.16147
 C907 C 0.71082 0.11466 0.19400
 C908 C 0.70141 0.08845 0.20420
 C909 C 0.69917 0.06649 0.18238
 C910 C 0.70631 0.07056 0.15020
 C911 C 0.73969 0.13271 0.06334
 C912 C 0.74888 0.15897 0.05308
 C913 C 0.75118 0.18091 0.07490
 C914 C 0.74430 0.17675 0.10713
 C915 C 0.72189 0.07808 0.08389
 C916 C 0.72124 0.05920 0.06466
 C917 C 0.73134 0.16864 0.17392
 C918 C 0.73487 0.18774 0.19244
 H919 H 0.71219 0.13111 0.21184
 H920 H 0.69583 0.08518 0.22916
 H921 H 0.69186 0.04617 0.19043
 H922 H 0.70420 0.05286 0.13413
 H923 H 0.73823 0.11632 0.04543
 H924 H 0.75423 0.16231 0.02806
 H925 H 0.75829 0.20127 0.06680
 H926 H 0.74642 0.19449 0.12316
 C927 C 0.22801 0.64527 0.65164
 C928 C 0.23500 0.64964 0.61889
 C929 C 0.23280 0.62717 0.59659
 C930 C 0.22368 0.60045 0.60716
 C931 C 0.21634 0.59618 0.63981
 C932 C 0.21850 0.61867 0.66212
 C933 C 0.21113 0.61388 0.69464
 C934 C 0.20187 0.58762 0.70484
 C935 C 0.19977 0.56564 0.68304
 C936 C 0.20689 0.56975 0.65086
 C937 C 0.23996 0.63204 0.56399
 C938 C 0.24901 0.65835 0.55373
 C939 C 0.25118 0.68031 0.57554
 C940 C 0.24430 0.67613 0.60777
 C941 C 0.22238 0.57732 0.58451
 C942 C 0.22177 0.55841 0.56528
 C943 C 0.23128 0.66802 0.67456
 C944 C 0.23462 0.68717 0.69308
 H945 H 0.21240 0.63035 0.71248
 H946 H 0.19631 0.58433 0.72981
 H947 H 0.19257 0.54529 0.69109
 H948 H 0.20489 0.55202 0.63479
 H949 H 0.23860 0.61564 0.54609
 H950 H 0.25436 0.66170 0.52872
 H951 H 0.25818 0.70071 0.56744
 H952 H 0.24631 0.69388 0.62379
 C953 C 0.85606 0.72627 0.15118
 C954 C 0.85187 0.73351 0.11849
 C955 C 0.87447 0.73132 0.09628
 C956 C 0.90113 0.72194 0.10690
 C957 C 0.90519 0.71427 0.13947
 C958 C 0.88258 0.71643 0.16168
 C959 C 0.88716 0.70874 0.19414
 C960 C 0.91334 0.69919 0.20437
 C961 C 0.93546 0.69708 0.18266
 C962 C 0.93156 0.70452 0.15055
 C963 C 0.86979 0.73876 0.06373
 C964 C 0.84355 0.74809 0.05343
 C965 C 0.82146 0.75026 0.07516
 C966 C 0.82545 0.74311 0.10734
 C967 C 0.92442 0.72076 0.08439
 C968 C 0.94344 0.72029 0.06525
 C969 C 0.83326 0.72973 0.17405
 C970 C 0.81410 0.73333 0.19257
 H971 H 0.87058 0.70999 0.21191
 H972 H 0.91648 0.69338 0.22929
 H973 H 0.95576 0.68965 0.19073
 H974 H 0.94938 0.70250 0.13454
 H975 H 0.88630 0.73740 0.04590
 H976 H 0.84034 0.75365 0.02846
 H977 H 0.80110 0.75749 0.06703
 H978 H 0.80759 0.74513 0.12329
 C979 C 0.35509 0.22423 0.65109
 C980 C 0.35084 0.23153 0.61842
 C981 C 0.37335 0.22923 0.59610
 C982 C 0.40000 0.21968 0.60659
 C983 C 0.40411 0.21192 0.63912
 C984 C 0.38158 0.21419 0.66144
 C985 C 0.38622 0.20643 0.69387
 C986 C 0.41238 0.19669 0.70396
 C987 C 0.43441 0.19448 0.68215
 C988 C 0.43045 0.20199 0.65007
 C989 C 0.36861 0.23674 0.56359
 C990 C 0.34239 0.24625 0.55343
 C991 C 0.32039 0.24852 0.57525
 C992 C 0.32444 0.24130 0.60740
 C993 C 0.42325 0.21849 0.58399
 C994 C 0.44225 0.21805 0.56482
 C995 C 0.33240 0.22785 0.67408
 C996 C 0.31334 0.23159 0.69270
 H997 H 0.36971 0.20776 0.71171
 H998 H 0.41557 0.19082 0.72885
 H999 H 0.45469 0.18690 0.69011
 H1000 H 0.44821 0.19988 0.63398
 H1001 H 0.38505 0.23531 0.54568
 H1002 H 0.33913 0.25186 0.52848
 H1003 H 0.30005 0.25588 0.56723
 H1004 H 0.30665 0.24341 0.62343
 C1005 C 0.14565 0.27235 0.15275
 C1006 C 0.11983 0.28457 0.16222
 C1007 C 0.09751 0.28696 0.13967
 C1008 C 0.10117 0.27713 0.10781
 C1009 C 0.12714 0.26526 0.09822
 C1010 C 0.14944 0.26284 0.12077
 C1011 C 0.17516 0.25078 0.11065
 C1012 C 0.17877 0.24145 0.07916
 C1013 C 0.15696 0.24382 0.05712
 C1014 C 0.13140 0.25556 0.06640
 C1015 C 0.07184 0.29914 0.14971
 C1016 C 0.06833 0.30870 0.18113
 C1017 C 0.09016 0.30638 0.20316
 C1018 C 0.11566 0.29446 0.19395
 C1019 C 0.07817 0.27877 0.08498
 C1020 C 0.05934 0.27965 0.06564
 C1021 C 0.16816 0.26893 0.17597
 C1022 C 0.18712 0.26536 0.19472
 H1023 H 0.19276 0.24846 0.12690
 H1024 H 0.19860 0.23236 0.07182
 H1025 H 0.15986 0.23653 0.03268
 H1026 H 0.11509 0.25697 0.04835
 H1027 H 0.05426 0.30141 0.13343
 H1028 H 0.04856 0.31797 0.18841
 H1029 H 0.08733 0.31385 0.22754
 H1030 H 0.13204 0.29313 0.21193
 C1031 C 0.64623 0.77178 0.65240
 C1032 C 0.62043 0.78414 0.66174
 C1033 C 0.59812 0.78645 0.63917
 C1034 C 0.60176 0.77641 0.60739
 C1035 C 0.62769 0.76437 0.59793
 C1036 C 0.64998 0.76202 0.62051
 C1037 C 0.67565 0.74978 0.61052
 C1038 C 0.67923 0.74023 0.57911
 C1039 C 0.65745 0.74253 0.55703
 C1040 C 0.63193 0.75443 0.56620
 C1041 C 0.57249 0.79877 0.64909
 C1042 C 0.56900 0.80855 0.68042
 C1043 C 0.59082 0.80631 0.70249
 C1044 C 0.61629 0.79425 0.69339
 C1045 C 0.57878 0.77805 0.58450
 C1046 C 0.55994 0.77895 0.56515
 C1047 C 0.66877 0.76855 0.67565
 C1048 C 0.68774 0.76522 0.69446
 H1049 H 0.69324 0.74750 0.62680
 H1050 H 0.69903 0.73100 0.57187
 H1051 H 0.66033 0.73507 0.53267
 H1052 H 0.61563 0.75578 0.54813
 H1053 H 0.55492 0.80100 0.63278
 H1054 H 0.54926 0.81793 0.68761
 H1055 H 0.58800 0.81395 0.72679
 H1056 H 0.63265 0.79298 0.71139
   
