data_POSCAR
  _audit_creation_date              2014-09-24
  _audit_creation_method            'ToBaCCo'
  _symmetry_space_group_name_H-M    'P1'
  _symmetry_Int_Tables_number       1
  _symmetry_cell_setting            triclinic
  loop_
  _symmetry_equiv_pos_as_xyz
 x,y,z
_cell_length_a 47.1077
_cell_length_b 47.1065
_cell_length_c 45.1431
_cell_angle_alpha 90.065200
_cell_angle_beta 89.882100
_cell_angle_gamma 89.975300
loop_
  _atom_site_label
  _atom_site_type_symbol
  _atom_site_fract_x
  _atom_site_fract_y
  _atom_site_fract_z
C1 C 0.29345 0.28859 0.23843
 H2 H 0.29476 0.28904 0.26235
 C3 C 0.31167 0.30545 0.22150
 H4 H 0.32701 0.31904 0.23237
 C5 C 0.27202 0.27020 0.19494
 H6 H 0.25683 0.25618 0.18465
 C7 C 0.28985 0.28672 0.17719
 H8 H 0.28812 0.28558 0.15329
 N9 N 0.27385 0.27172 0.22500
 C10 C 0.20681 0.26052 0.29083
 H11 H 0.20554 0.23760 0.29153
 C12 C 0.18861 0.27690 0.30836
 H13 H 0.17331 0.26661 0.32271
 C14 C 0.22808 0.30204 0.27105
 H15 H 0.24316 0.31179 0.25618
 C16 C 0.21027 0.31919 0.28819
 H17 H 0.21192 0.34208 0.28670
 Zn18 Zn 0.25003 0.24957 0.24967
 N19 N 0.22631 0.27325 0.27295
 C20 C 0.27223 0.22897 0.30421
 N21 N 0.27389 0.22734 0.27414
 C22 C 0.29337 0.21036 0.26057
 C23 C 0.31165 0.19351 0.27737
 C24 C 0.29014 0.21248 0.32184
 C25 C 0.20657 0.23885 0.20895
 C26 C 0.18818 0.22258 0.19163
 C27 C 0.20978 0.18016 0.21154
 C28 C 0.22777 0.19721 0.22848
 N29 N 0.22611 0.22601 0.22662
 H30 H 0.25715 0.24309 0.31462
 H31 H 0.29453 0.20983 0.23664
 H32 H 0.32692 0.17986 0.26640
 H33 H 0.28858 0.21373 0.34575
 H34 H 0.20539 0.26178 0.20828
 H35 H 0.17284 0.23295 0.17745
 H36 H 0.21132 0.15726 0.21302
 H37 H 0.24290 0.18738 0.24318
 C38 C 0.19046 0.30649 0.30709
 C39 C 0.30973 0.30459 0.19061
 C40 C 0.18990 0.19297 0.19288
 C41 C 0.30992 0.19451 0.30828
 C42 C 0.79407 0.78950 0.23799
 H43 H 0.79541 0.78999 0.26191
 C44 C 0.81219 0.80641 0.22101
 H45 H 0.82748 0.82006 0.23191
 C46 C 0.77265 0.77096 0.19457
 H47 H 0.75751 0.75685 0.18433
 C48 C 0.79037 0.78751 0.17675
 H49 H 0.78856 0.78628 0.15285
 N50 N 0.77452 0.77254 0.22462
 C51 C 0.70754 0.76121 0.29050
 H52 H 0.70632 0.73829 0.29120
 C53 C 0.68931 0.77754 0.30803
 H54 H 0.67404 0.76721 0.32239
 C55 C 0.72871 0.80278 0.27072
 H56 H 0.74376 0.81257 0.25585
 C57 C 0.71086 0.81989 0.28786
 H58 H 0.71245 0.84278 0.28637
 Zn59 Zn 0.75079 0.75035 0.24935
 N60 N 0.72701 0.77398 0.27261
 C61 C 0.77300 0.72981 0.30391
 N62 N 0.77470 0.72819 0.27384
 C63 C 0.79420 0.71122 0.26029
 C64 C 0.81244 0.69434 0.27711
 C65 C 0.79086 0.71328 0.32156
 C66 C 0.70732 0.73944 0.20868
 C67 C 0.68896 0.72308 0.19140
 C68 C 0.71069 0.68077 0.21138
 C69 C 0.72865 0.69790 0.22828
 N70 N 0.72691 0.72669 0.22636
 H71 H 0.75790 0.74391 0.31430
 H72 H 0.79540 0.71070 0.23636
 H73 H 0.82770 0.68067 0.26615
 H74 H 0.78924 0.71450 0.34547
 H75 H 0.70607 0.76236 0.20796
 H76 H 0.67358 0.73339 0.17721
 H77 H 0.71230 0.65787 0.21290
 H78 H 0.74381 0.68813 0.24299
 C79 C 0.69108 0.80714 0.30676
 C80 C 0.81022 0.80551 0.19010
 C81 C 0.69076 0.69348 0.19270
 C82 C 0.81064 0.69530 0.30802
 C83 C 0.79444 0.28796 0.73951
 H84 H 0.79578 0.28844 0.76343
 C85 C 0.81257 0.30486 0.72252
 H86 H 0.82789 0.31850 0.73334
 C87 C 0.77296 0.26949 0.69609
 H88 H 0.75779 0.25542 0.68584
 C89 C 0.79071 0.28603 0.67828
 H90 H 0.78893 0.28487 0.65439
 N91 N 0.77485 0.27104 0.72614
 C92 C 0.70782 0.25992 0.79200
 H93 H 0.70655 0.23700 0.79275
 C94 C 0.68958 0.27632 0.80946
 H95 H 0.67427 0.26606 0.82382
 C96 C 0.72908 0.30140 0.77215
 H97 H 0.74416 0.31114 0.75727
 C98 C 0.71124 0.31858 0.78922
 H99 H 0.71287 0.34147 0.78767
 Zn100 Zn 0.75105 0.24891 0.75086
 N101 N 0.72732 0.27262 0.77411
 C102 C 0.77322 0.22829 0.80540
 N103 N 0.77490 0.22667 0.77534
 C104 C 0.79435 0.20968 0.76177
 C105 C 0.81260 0.19277 0.77855
 C106 C 0.79106 0.21175 0.82305
 C107 C 0.70755 0.23819 0.71018
 C108 C 0.68918 0.22193 0.69284
 C109 C 0.71079 0.17950 0.71271
 C110 C 0.72877 0.19655 0.72967
 N111 N 0.72711 0.22535 0.72783
 H112 H 0.75815 0.24242 0.81580
 H113 H 0.79553 0.20917 0.73784
 H114 H 0.82780 0.17912 0.76743
 H115 H 0.78937 0.21307 0.84697
 H116 H 0.70636 0.26112 0.70953
 H117 H 0.67383 0.23231 0.67867
 H118 H 0.71235 0.15660 0.71415
 H119 H 0.74391 0.18670 0.74436
 C120 C 0.69141 0.30592 0.80812
 C121 C 0.81057 0.30397 0.69164
 C122 C 0.69091 0.19232 0.69405
 C123 C 0.81085 0.19371 0.80950
 C124 C 0.29331 0.78906 0.73884
 H125 H 0.29462 0.78954 0.76276
 C126 C 0.31149 0.80592 0.72188
 H127 H 0.32682 0.81953 0.73271
 C128 C 0.27188 0.77058 0.69539
 H129 H 0.25672 0.75651 0.68513
 C130 C 0.28968 0.78708 0.67761
 H131 H 0.28796 0.78590 0.65371
 N132 N 0.27373 0.77215 0.72545
 C133 C 0.20675 0.76086 0.79134
 H134 H 0.20552 0.73793 0.79207
 C135 C 0.18849 0.77721 0.80883
 H136 H 0.17321 0.76690 0.82319
 C137 C 0.22791 0.80240 0.77151
 H138 H 0.24297 0.81217 0.75663
 C139 C 0.21005 0.81953 0.78861
 H140 H 0.21163 0.84243 0.78708
 Zn141 Zn 0.24996 0.74997 0.75016
 N142 N 0.22621 0.77361 0.77344
 C143 C 0.27223 0.72931 0.80466
 N144 N 0.27388 0.72776 0.77459
 C145 C 0.29338 0.71085 0.76097
 C146 C 0.31169 0.69398 0.77771
 C147 C 0.29015 0.71279 0.82224
 C148 C 0.20650 0.73914 0.70946
 C149 C 0.18816 0.72282 0.69212
 C150 C 0.20985 0.68046 0.71205
 C151 C 0.22779 0.69756 0.72900
 N152 N 0.22607 0.72636 0.72713
 H153 H 0.25712 0.74337 0.81511
 H154 H 0.29454 0.71038 0.73703
 H155 H 0.32696 0.68037 0.76669
 H156 H 0.28859 0.71397 0.84616
 H157 H 0.20526 0.76207 0.70877
 H158 H 0.17280 0.73316 0.67793
 H159 H 0.21145 0.65757 0.71353
 H160 H 0.24294 0.68776 0.74370
 C161 C 0.19026 0.80681 0.80751
 C162 C 0.30956 0.80500 0.69099
 C163 C 0.18995 0.69322 0.69337
 C164 C 0.30995 0.69488 0.80862
 C165 C 0.03785 0.04396 0.01105
 H166 H 0.03832 0.04530 -0.01287
 C167 C 0.05474 0.06211 0.02799
 H168 H 0.06837 0.07743 0.01713
 C169 C 0.01940 0.02249 0.05453
 H170 H 0.00535 0.00731 0.06482
 C171 C 0.03595 0.04025 0.07229
 H172 H 0.03480 0.03848 0.09618
 N173 N 0.02094 0.02437 0.02447
 C174 C 0.00976 -0.04263 -0.04134
 H175 H -0.01316 -0.04389 -0.04206
 C176 C 0.02615 -0.06086 -0.05883
 H177 H 0.01588 -0.07616 -0.07317
 C178 C 0.05127 -0.02140 -0.02155
 H179 H 0.06101 -0.00634 -0.00669
 C180 C 0.06843 -0.03924 -0.03864
 H181 H 0.09132 -0.03762 -0.03712
 Zn182 Zn -0.00121 0.00058 -0.00020
 N183 N 0.02248 -0.02315 -0.02347
 C184 C -0.02181 0.02280 -0.05474
 N185 N -0.02343 0.02446 -0.02467
 C186 C -0.04040 0.04394 -0.01110
 C187 C -0.05727 0.06221 -0.02789
 C188 C -0.03833 0.04070 -0.07236
 C189 C -0.01197 -0.04291 0.04052
 C190 C -0.02826 -0.06129 0.05787
 C191 C -0.07065 -0.03965 0.03800
 C192 C -0.05359 -0.02166 0.02103
 N193 N -0.02479 -0.02335 0.02286
 H194 H -0.00770 0.00772 -0.06515
 H195 H -0.04092 0.04510 0.01283
 H196 H -0.07093 0.07746 -0.01691
 H197 H -0.03710 0.03912 -0.09628
 H198 H 0.01096 -0.04411 0.04118
 H199 H -0.01789 -0.07666 0.07205
 H200 H -0.09355 -0.03808 0.03655
 H201 H -0.06341 -0.00652 0.00634
 C202 C 0.05575 -0.05905 -0.05752
 C203 C 0.05387 0.06012 0.05888
 C204 C -0.05786 -0.05955 0.05666
 C205 C -0.05630 0.06047 -0.05880
 C206 C 0.03869 0.54358 0.51138
 H207 H 0.03918 0.54490 0.48746
 C208 C 0.05554 0.56177 0.52832
 H209 H 0.06915 0.57711 0.51747
 C210 C 0.02023 0.52212 0.55486
 H211 H 0.00618 0.50694 0.56515
 C212 C 0.03673 0.53992 0.57262
 H213 H 0.03555 0.53818 0.59652
 N214 N 0.02180 0.52398 0.52480
 C215 C 0.01057 0.45699 0.45899
 H216 H -0.01235 0.45573 0.45832
 C217 C 0.02693 0.43878 0.44146
 H218 H 0.01662 0.42349 0.42713
 C219 C 0.05210 0.47822 0.47871
 H220 H 0.06187 0.49329 0.49355
 C221 C 0.06924 0.46041 0.46156
 H222 H 0.09213 0.46203 0.46302
 Zn223 Zn -0.00035 0.50019 0.50014
 N224 N 0.02331 0.47647 0.47685
 C225 C -0.02094 0.52244 0.44561
 N226 N -0.02258 0.52407 0.47568
 C227 C -0.03957 0.54354 0.48926
 C228 C -0.05640 0.56184 0.47246
 C229 C -0.03742 0.54036 0.42799
 C230 C -0.01106 0.45669 0.54085
 C231 C -0.02732 0.43830 0.55822
 C232 C -0.06975 0.45993 0.53841
 C233 C -0.05271 0.47793 0.52142
 N234 N -0.02391 0.47625 0.52322
 H235 H -0.00681 0.50736 0.43520
 H236 H -0.04011 0.54469 0.51319
 H237 H -0.07006 0.57709 0.48344
 H238 H -0.03615 0.53881 0.40408
 H239 H 0.01186 0.45550 0.54148
 H240 H -0.01693 0.42294 0.57238
 H241 H -0.09265 0.46149 0.53699
 H242 H -0.06256 0.49307 0.50674
 C243 C 0.05653 0.44061 0.44269
 C244 C 0.05463 0.55981 0.55921
 C245 C -0.05693 0.44003 0.55705
 C246 C -0.05539 0.56013 0.44155
 C247 C 0.53923 0.04366 0.51157
 H248 H 0.53975 0.04505 0.48766
 C249 C 0.55612 0.06176 0.52859
 H250 H 0.56979 0.07708 0.51779
 C251 C 0.52067 0.02214 0.55497
 H252 H 0.50657 0.00697 0.56520
 C253 C 0.53720 0.03985 0.57280
 H254 H 0.53600 0.03804 0.59669
 N255 N 0.52227 0.02407 0.52492
 C256 C 0.51104 -0.04278 0.45895
 H257 H 0.48811 -0.04401 0.45824
 C258 C 0.52740 -0.06096 0.44139
 H259 H 0.51709 -0.07621 0.42700
 C260 C 0.55257 -0.02163 0.47877
 H261 H 0.56234 -0.00661 0.49366
 C262 C 0.56971 -0.03943 0.46159
 H263 H 0.59260 -0.03782 0.46309
 Zn264 Zn 0.50012 0.00037 0.50016
 N265 N 0.52378 -0.02335 0.47686
 C266 C 0.47958 0.02269 0.44564
 N267 N 0.47796 0.02433 0.47571
 C268 C 0.46099 0.04380 0.48930
 C269 C 0.44411 0.06207 0.47252
 C270 C 0.46305 0.04058 0.42803
 C271 C 0.48920 -0.04317 0.54080
 C272 C 0.47284 -0.06153 0.55810
 C273 C 0.43053 -0.03977 0.53817
 C274 C 0.44767 -0.02181 0.52125
 N275 N 0.47646 -0.02356 0.52314
 H276 H 0.49369 0.00761 0.43522
 H277 H 0.46046 0.04495 0.51323
 H278 H 0.43043 0.07730 0.48351
 H279 H 0.46427 0.03901 0.40412
 H280 H 0.51212 -0.04442 0.54150
 H281 H 0.48314 -0.07693 0.57229
 H282 H 0.40763 -0.03815 0.53668
 H283 H 0.43790 -0.00663 0.50655
 C284 C 0.55700 -0.05917 0.44266
 C285 C 0.55518 0.05971 0.55947
 C286 C 0.44324 -0.05971 0.55684
 C287 C 0.44506 0.06033 0.44162
 C288 C 0.53922 0.54364 0.01121
 H289 H 0.53970 0.54495 -0.01271
 C290 C 0.55609 0.56183 0.02813
 H291 H 0.56971 0.57715 0.01725
 C292 C 0.52076 0.52223 0.05470
 H293 H 0.50670 0.50706 0.06501
 C294 C 0.53727 0.54003 0.07245
 H295 H 0.53610 0.53830 0.09635
 N296 N 0.52232 0.52407 0.02464
 C297 C 0.51110 0.45704 -0.04113
 H298 H 0.48818 0.45581 -0.04186
 C299 C 0.52747 0.43877 -0.05858
 H300 H 0.51719 0.42347 -0.07292
 C301 C 0.55261 0.47823 -0.02133
 H302 H 0.56237 0.49330 -0.00647
 C303 C 0.56977 0.46036 -0.03840
 H304 H 0.59266 0.46195 -0.03686
 Zn305 Zn 0.50016 0.50028 -0.00002
 N306 N 0.52382 0.47652 -0.02326
 C307 C 0.47952 0.52249 -0.05456
 N308 N 0.47796 0.52417 -0.02449
 C309 C 0.46102 0.54367 -0.01090
 C310 C 0.44414 0.56194 -0.02767
 C311 C 0.46299 0.54038 -0.07217
 C312 C 0.48930 0.45683 0.04075
 C313 C 0.47296 0.43847 0.05807
 C314 C 0.43063 0.46012 0.03807
 C315 C 0.44774 0.47809 0.02113
 N316 N 0.47653 0.47639 0.02304
 H317 H 0.49360 0.50738 -0.06499
 H318 H 0.46054 0.54485 0.01303
 H319 H 0.43050 0.57721 -0.01668
 H320 H 0.46417 0.53878 -0.09608
 H321 H 0.51223 0.45561 0.04146
 H322 H 0.48328 0.42310 0.07228
 H323 H 0.40773 0.46170 0.03656
 H324 H 0.43796 0.49322 0.00640
 C325 C 0.55707 0.44055 -0.05726
 C326 C 0.55519 0.55990 0.05902
 C327 C 0.44336 0.44022 0.05678
 C328 C 0.44505 0.56017 -0.05858
 C329 C 0.13826 -0.14306 -0.14118
 C330 C 0.12616 -0.15811 -0.11378
 C331 C 0.10920 -0.14120 -0.09677
 C332 C 0.10601 -0.11091 -0.10883
 C333 C 0.09529 -0.11464 -0.14069
 C334 C 0.11225 -0.13154 -0.15770
 C335 C 0.15343 -0.11668 -0.12905
 C336 C 0.13648 -0.09978 -0.11205
 C337 C 0.15660 -0.16117 -0.15949
 C338 C 0.17185 -0.17587 -0.17453
 C339 C 0.08785 -0.09263 -0.09053
 C340 C 0.07311 -0.07742 -0.07548
 H341 H 0.13052 -0.18010 -0.10823
 H342 H 0.09903 -0.14871 -0.07665
 H343 H 0.07606 -0.10487 -0.14914
 H344 H 0.10755 -0.13626 -0.18072
 H345 H 0.17554 -0.11170 -0.13344
 H346 H 0.14407 -0.08033 -0.10187
 C347 C 0.13872 0.35665 0.35864
 C348 C 0.15409 0.36955 0.38540
 C349 C 0.13722 0.38645 0.40249
 C350 C 0.10661 0.38880 0.39115
 C351 C 0.09605 0.35805 0.38883
 C352 C 0.11293 0.34114 0.37173
 C353 C 0.12628 0.38212 0.34190
 C354 C 0.10940 0.39902 0.35900
 C355 C 0.15697 0.33854 0.34024
 C356 C 0.17214 0.32384 0.32512
 C357 C 0.08853 0.40707 0.40955
 C358 C 0.07385 0.42227 0.42466
 H359 H 0.17629 0.36574 0.39049
 H360 H 0.14496 0.39712 0.42221
 H361 H 0.07699 0.35025 0.39966
 H362 H 0.10834 0.31885 0.36791
 H363 H 0.13035 0.38648 0.31867
 H364 H 0.09902 0.41786 0.35041
 C365 C 0.63926 -0.14287 0.35839
 C366 C 0.62726 -0.15801 0.38579
 C367 C 0.61036 -0.14116 0.40293
 C368 C 0.60712 -0.11083 0.39099
 C369 C 0.59628 -0.11445 0.35916
 C370 C 0.61318 -0.13129 0.34202
 C371 C 0.65446 -0.11652 0.37056
 C372 C 0.63757 -0.09968 0.38770
 C373 C 0.65753 -0.16091 0.33995
 C374 C 0.67273 -0.17556 0.32481
 C375 C 0.58902 -0.09262 0.40944
 C376 C 0.57432 -0.07747 0.42459
 H377 H 0.63164 -0.18002 0.39123
 H378 H 0.60026 -0.14875 0.42306
 H379 H 0.57702 -0.10465 0.35083
 H380 H 0.60840 -0.13592 0.31900
 H381 H 0.67656 -0.11152 0.36612
 H382 H 0.64520 -0.08027 0.39793
 C383 C 0.63949 0.35623 -0.14069
 C384 C 0.63638 0.38650 -0.15280
 C385 C 0.61945 0.40347 -0.13585
 C386 C 0.60728 0.38851 -0.10844
 C387 C 0.63324 0.37695 -0.09187
 C388 C 0.65017 0.35998 -0.10883
 C389 C 0.60898 0.34516 -0.13750
 C390 C 0.59204 0.36214 -0.12053
 C391 C 0.65780 0.33805 -0.15894
 C392 C 0.67303 0.32330 -0.17396
 C393 C 0.58914 0.40687 -0.09019
 C394 C 0.57442 0.42213 -0.07518
 H395 H 0.64657 0.39395 -0.17293
 H396 H 0.61514 0.42546 -0.14146
 H397 H 0.63792 0.38167 -0.06885
 H398 H 0.66935 0.35015 -0.10032
 H399 H 0.60136 0.32571 -0.14765
 H400 H 0.56991 0.35724 -0.11616
 C401 C -0.13904 0.14470 -0.14143
 C402 C -0.12245 0.12260 -0.15952
 C403 C -0.10550 0.10560 -0.14272
 C404 C -0.10679 0.11238 -0.10947
 C405 C -0.13838 0.11049 -0.10129
 C406 C -0.15533 0.12748 -0.11809
 C407 C -0.11639 0.16105 -0.12394
 C408 C -0.09943 0.14405 -0.10714
 C409 C -0.15735 0.16292 -0.15951
 C410 C -0.17255 0.17776 -0.17438
 C411 C -0.08861 0.09402 -0.09139
 C412 C -0.07380 0.07880 -0.07653
 H413 H -0.12388 0.12048 -0.18342
 H414 H -0.09241 0.08893 -0.15222
 H415 H -0.14670 0.09700 -0.08383
 H416 H -0.17817 0.12854 -0.11502
 H417 H -0.11389 0.18394 -0.12469
 H418 H -0.08241 0.15239 -0.09349
 C419 C -0.13776 0.64460 0.35879
 C420 C -0.11773 0.62570 0.34053
 C421 C -0.10085 0.60866 0.35737
 C422 C -0.10566 0.61218 0.39082
 C423 C -0.13753 0.60698 0.39546
 C424 C -0.15439 0.62401 0.37863
 C425 C -0.11831 0.66103 0.37999
 C426 C -0.10144 0.64398 0.39684
 C427 C -0.15599 0.66287 0.34067
 C428 C -0.17112 0.67773 0.32578
 C429 C -0.08757 0.59378 0.40893
 C430 C -0.07283 0.57851 0.42381
 H431 H -0.11686 0.62571 0.31650
 H432 H -0.08554 0.59407 0.34776
 H433 H -0.14609 0.59129 0.41064
 H434 H -0.17741 0.62292 0.37939
 H435 H -0.11784 0.68402 0.38164
 H436 H -0.08651 0.65237 0.41291
 C437 C 0.36195 0.14418 0.35898
 C438 C 0.38203 0.12537 0.34069
 C439 C 0.39907 0.10847 0.35750
 C440 C 0.39436 0.11203 0.39095
 C441 C 0.36254 0.10663 0.39573
 C442 C 0.34551 0.12353 0.37893
 C443 C 0.38136 0.16077 0.38007
 C444 C 0.39841 0.14387 0.39689
 C445 C 0.34354 0.16230 0.34089
 C446 C 0.32828 0.17706 0.32602
 C447 C 0.41263 0.09377 0.40904
 C448 C 0.42750 0.07861 0.42390
 H449 H 0.38281 0.12533 0.31665
 H450 H 0.41444 0.09395 0.34786
 H451 H 0.35413 0.09093 0.41098
 H452 H 0.32251 0.12229 0.37979
 H453 H 0.38170 0.18377 0.38166
 H454 H 0.41334 0.15238 0.41288
 C455 C 0.36198 0.64433 -0.14091
 C456 C 0.35726 0.64774 -0.10743
 C457 C 0.37430 0.63076 -0.09071
 C458 C 0.39438 0.61203 -0.10910
 C459 C 0.41083 0.63277 -0.12894
 C460 C 0.39379 0.64976 -0.14566
 C461 C 0.35793 0.61253 -0.14700
 C462 C 0.37496 0.59555 -0.13028
 C463 C 0.34357 0.66254 -0.15890
 C464 C 0.32832 0.67737 -0.17370
 C465 C 0.41264 0.59369 -0.09110
 C466 C 0.42750 0.57848 -0.07628
 H467 H 0.34191 0.66223 -0.09772
 H468 H 0.37354 0.63070 -0.06667
 H469 H 0.43383 0.63400 -0.12977
 H470 H 0.40220 0.66554 -0.16083
 H471 H 0.34300 0.60408 -0.16304
 H472 H 0.37462 0.57256 -0.13200
 C473 C -0.13951 -0.14454 0.13989
 C474 C -0.12084 -0.16082 0.11773
 C475 C -0.10408 -0.14369 0.10079
 C476 C -0.10765 -0.11197 0.10768
 C477 C -0.10201 -0.10926 0.14105
 C478 C -0.11876 -0.12638 0.15798
 C479 C -0.15627 -0.12325 0.12105
 C480 C -0.13952 -0.10613 0.10412
 C481 C -0.15761 -0.16289 0.15813
 C482 C -0.17264 -0.17781 0.17314
 C483 C -0.08970 -0.09346 0.08946
 C484 C -0.07510 -0.07808 0.07450
 H485 H -0.12078 -0.18378 0.11555
 H486 H -0.08967 -0.15197 0.08409
 H487 H -0.08624 -0.09514 0.15053
 H488 H -0.11733 -0.12693 0.18197
 H489 H -0.17927 -0.12176 0.12101
 H490 H -0.14818 -0.08998 0.08957
 C491 C -0.13831 0.35493 0.64044
 C492 C -0.10673 0.34689 0.64112
 C493 C -0.09004 0.36405 0.62414
 C494 C -0.10658 0.38756 0.60815
 C495 C -0.12260 0.40342 0.63276
 C496 C -0.13928 0.38627 0.64973
 C497 C -0.14634 0.35483 0.60750
 C498 C -0.12966 0.37199 0.59053
 C499 C -0.15635 0.33654 0.65870
 C500 C -0.17134 0.32160 0.67372
 C501 C -0.08869 0.40610 0.58990
 C502 C -0.07414 0.42149 0.57491
 H503 H -0.09823 0.32928 0.65381
 H504 H -0.06725 0.36114 0.62229
 H505 H -0.12098 0.42613 0.63654
 H506 H -0.15195 0.39429 0.66804
 H507 H -0.16360 0.34238 0.59831
 H508 H -0.13263 0.37423 0.56680
 C509 C 0.36110 -0.14436 0.63991
 C510 C 0.37977 -0.16074 0.61782
 C511 C 0.39663 -0.14369 0.60091
 C512 C 0.39317 -0.11194 0.60776
 C513 C 0.39874 -0.10922 0.64114
 C514 C 0.38188 -0.12627 0.65804
 C515 C 0.34448 -0.12302 0.62100
 C516 C 0.36133 -0.10599 0.60411
 C517 C 0.34288 -0.16263 0.65811
 C518 C 0.32776 -0.17747 0.67309
 C519 C 0.41124 -0.09352 0.58958
 C520 C 0.42592 -0.07820 0.57464
 H521 H 0.37975 -0.18369 0.61565
 H522 H 0.41106 -0.15204 0.58426
 H523 H 0.41454 -0.09516 0.65066
 H524 H 0.38324 -0.12681 0.68204
 H525 H 0.32148 -0.12144 0.62089
 H526 H 0.35278 -0.08981 0.58952
 C527 C 0.36128 0.35535 0.13967
 C528 C 0.34728 0.36499 0.11070
 C529 C 0.36413 0.38209 0.09385
 C530 C 0.39333 0.38787 0.10761
 C531 C 0.40612 0.35840 0.11329
 C532 C 0.38927 0.34129 0.13015
 C533 C 0.37011 0.38289 0.15535
 C534 C 0.38695 0.39998 0.13850
 C535 C 0.34307 0.33703 0.15782
 C536 C 0.32795 0.32215 0.17276
 C537 C 0.41139 0.40635 0.08947
 C538 C 0.42606 0.42171 0.07456
 H539 H 0.32601 0.35891 0.10401
 H540 H 0.35728 0.39066 0.07272
 H541 H 0.42661 0.35157 0.10482
 H542 H 0.39531 0.31981 0.13613
 H543 H 0.36370 0.38847 0.17773
 H544 H 0.39497 0.42021 0.14644
 C545 C 0.13742 0.14321 0.14199
 C546 C 0.14795 0.13948 0.11002
 C547 C 0.13080 0.12274 0.09314
 C548 C 0.10480 0.11137 0.10988
 C549 C 0.08985 0.13784 0.12222
 C550 C 0.10700 0.15458 0.13911
 C551 C 0.13409 0.11292 0.15400
 C552 C 0.11694 0.09618 0.13712
 C553 C 0.15596 0.16115 0.16016
 C554 C 0.17135 0.17574 0.17508
 C555 C 0.08642 0.09327 0.09170
 C556 C 0.07149 0.07824 0.07674
 H557 H 0.16717 0.14915 0.10139
 H558 H 0.13533 0.11808 0.07005
 H559 H 0.06774 0.14297 0.11806
 H560 H 0.09960 0.17407 0.14941
 H561 H 0.14430 0.10529 0.17401
 H562 H 0.11246 0.07421 0.14267
 C563 C 0.13773 0.64327 0.64241
 C564 C 0.14630 0.64243 0.60960
 C565 C 0.12925 0.62561 0.59269
 C566 C 0.10529 0.61128 0.61025
 C567 C 0.08942 0.63571 0.62558
 C568 C 0.10648 0.65253 0.64249
 C569 C 0.13732 0.61210 0.65227
 C570 C 0.12028 0.59528 0.63537
 C571 C 0.15616 0.66129 0.66060
 C572 C 0.17148 0.67594 0.67555
 C573 C 0.08702 0.59310 0.59205
 C574 C 0.07217 0.57800 0.57709
 H575 H 0.16418 0.65403 0.60044
 H576 H 0.13253 0.62281 0.56905
 H577 H 0.06678 0.63946 0.62334
 H578 H 0.09846 0.67070 0.65473
 H579 H 0.14936 0.60395 0.67090
 H580 H 0.11771 0.57273 0.63952
 C581 C 0.63855 0.14262 0.64297
 C582 C 0.64712 0.14185 0.61015
 C583 C 0.63001 0.12515 0.59319
 C584 C 0.60600 0.11084 0.61070
 C585 C 0.59021 0.13528 0.62611
 C586 C 0.60733 0.15199 0.64307
 C587 C 0.63804 0.11142 0.65273
 C588 C 0.62093 0.09472 0.63577
 C589 C 0.65704 0.16053 0.66122
 C590 C 0.67240 0.17510 0.67620
 C591 C 0.58767 0.09279 0.59244
 C592 C 0.57277 0.07779 0.57741
 H593 H 0.66504 0.15342 0.60104
 H594 H 0.63328 0.12241 0.56954
 H595 H 0.56759 0.13912 0.62388
 H596 H 0.59937 0.17015 0.65538
 H597 H 0.65005 0.10317 0.67133
 H598 H 0.61829 0.07216 0.63984
 C599 C 0.63844 0.64344 0.14195
 C600 C 0.64899 0.63966 0.10999
 C601 C 0.63190 0.62282 0.09316
 C602 C 0.60593 0.61140 0.10992
 C603 C 0.59089 0.63785 0.12218
 C604 C 0.60799 0.65470 0.13903
 C605 C 0.63521 0.61317 0.15405
 C606 C 0.61813 0.59633 0.13721
 C607 C 0.65691 0.66149 0.16007
 C608 C 0.67226 0.67616 0.17495
 C609 C 0.58762 0.59320 0.09179
 C610 C 0.57274 0.57809 0.07686
 H611 H 0.66819 0.64937 0.10134
 H612 H 0.63646 0.61811 0.07008
 H613 H 0.56877 0.64291 0.11801
 H614 H 0.60052 0.67419 0.14928
 H615 H 0.64544 0.60563 0.17408
 H616 H 0.61372 0.57436 0.14283
   
