data_POSCAR
  _audit_creation_date              2014-09-24
  _audit_creation_method            'ToBaCCo'
  _symmetry_space_group_name_H-M    'P1'
  _symmetry_Int_Tables_number       1
  _symmetry_cell_setting            triclinic
  loop_
  _symmetry_equiv_pos_as_xyz
 x,y,z
_cell_length_a 27.0901
_cell_length_b 27.2508
_cell_length_c 27.0943
_cell_angle_alpha 92.079000
_cell_angle_beta 88.665500
_cell_angle_gamma 86.490600
loop_
  _atom_site_label
  _atom_site_type_symbol
  _atom_site_fract_x
  _atom_site_fract_y
  _atom_site_fract_z
C1 C 0.26972 0.51570 0.99684
 C2 C 0.74413 0.47365 -0.00591
 C3 C 0.00188 0.26278 0.48683
 C4 C 0.97834 0.74166 0.51404
 C5 C 0.51451 -0.01948 0.25923
 C6 C 0.46862 0.00267 0.74212
 C7 C 0.30325 0.00946 0.41422
 H8 H 0.29549 0.04426 0.43408
 C9 C 0.34114 0.00497 0.37823
 H10 H 0.36287 0.03625 0.37206
 C11 C 0.28351 -0.07283 0.39811
 H12 H 0.26085 -0.10304 0.40550
 C13 C 0.32077 -0.07887 0.36153
 H14 H 0.32572 -0.11388 0.34144
 N15 N 0.27673 -0.02976 0.42502
 C16 C 0.18233 0.06909 0.51065
 H17 H 0.19939 0.06348 0.54586
 C18 C 0.14991 0.11026 0.50456
 H19 H 0.14291 0.13653 0.53520
 C20 C 0.17056 0.04134 0.42809
 H21 H 0.17837 0.01378 0.39874
 C22 C 0.13807 0.08182 0.42039
 H23 H 0.12099 0.08473 0.38486
 Zn24 Zn 0.23156 -0.02263 0.48000
 N25 N 0.19156 0.03555 0.47271
 C26 C 0.30427 0.01383 0.54337
 N27 N 0.26850 -0.01895 0.53911
 C28 C 0.26064 -0.05108 0.57534
 C29 C 0.29066 -0.05260 0.61651
 C30 C 0.33525 0.01351 0.58392
 C31 C 0.13992 -0.06784 0.48080
 C32 C 0.10838 -0.10627 0.48469
 C33 C 0.17988 -0.16255 0.49190
 C34 C 0.21006 -0.12305 0.48766
 N35 N 0.18985 -0.07668 0.48229
 H36 H 0.30936 0.04004 0.51515
 H37 H 0.23143 -0.07612 0.57228
 H38 H 0.28429 -0.07954 0.64393
 H39 H 0.36360 0.03974 0.58623
 H40 H 0.12418 -0.03081 0.47733
 H41 H 0.06894 -0.09781 0.48338
 H42 H 0.19737 -0.19864 0.49692
 H43 H 0.24978 -0.12923 0.48972
 C44 C 0.12708 0.11685 0.45898
 C45 C 0.35145 -0.04021 0.35235
 C46 C 0.12811 -0.15454 0.49064
 C47 C 0.32905 -0.02047 0.62092
 C48 C 0.67429 0.07971 0.57940
 H49 H 0.68165 0.10858 0.55436
 C50 C 0.63209 0.08433 0.60993
 H51 H 0.60876 0.11786 0.60901
 C52 C 0.69502 0.00006 0.60770
 H53 H 0.71822 -0.03367 0.60470
 C54 C 0.65259 0.00290 0.63853
 H55 H 0.64466 -0.02864 0.65976
 N56 N 0.70430 0.03784 0.57809
 C57 C 0.81895 0.08976 0.47985
 H58 H 0.81644 0.06513 0.44791
 C59 C 0.85543 0.12394 0.48108
 H60 H 0.88049 0.12561 0.44959
 C61 C 0.79152 0.11485 0.56105
 H62 H 0.76798 0.10992 0.59297
 C63 C 0.82722 0.14947 0.56380
 H64 H 0.82905 0.17197 0.59733
 Zn65 Zn 0.74784 0.03166 0.52218
 N66 N 0.78827 0.08555 0.51971
 C67 C 0.69885 0.05431 0.42895
 N68 N 0.70427 0.02608 0.46917
 C69 C 0.67677 -0.01328 0.47567
 C70 C 0.64334 -0.02689 0.44066
 C71 C 0.66534 0.04171 0.39235
 C72 C 0.81581 -0.04488 0.55759
 C73 C 0.84808 -0.08706 0.55053
 C74 C 0.82950 -0.08829 0.46380
 C75 C 0.79798 -0.04660 0.47241
 N76 N 0.79061 -0.02634 0.51879
 H77 H 0.72094 0.08571 0.42479
 H78 H 0.68169 -0.03492 0.50804
 H79 H 0.62209 -0.05849 0.44720
 H80 H 0.66197 0.06332 0.35971
 H81 H 0.81078 -0.02714 0.59387
 H82 H 0.86696 -0.10230 0.58181
 H83 H 0.83452 -0.10329 0.42637
 H84 H 0.77975 -0.03003 0.44155
 C85 C 0.86059 0.15358 0.52399
 C86 C 0.61947 0.04489 0.63863
 C87 C 0.85446 -0.10964 0.50310
 C88 C 0.63797 -0.00013 0.39782
 C89 C 0.49379 0.14617 1.07000
 H90 H 0.49330 0.13032 1.03298
 C91 C 0.49296 0.11502 1.10951
 H92 H 0.49052 0.07608 1.10165
 C93 C 0.49837 0.21553 1.12443
 H94 H 0.50168 0.25467 1.12999
 C95 C 0.49796 0.18541 1.16534
 H96 H 0.50073 0.20197 1.20197
 N97 N 0.49680 0.19549 1.07771
 C98 C 0.45040 0.30563 0.97218
 H99 H 0.46994 0.28758 0.94072
 C100 C 0.42298 0.34962 0.96603
 H101 H 0.42186 0.36515 0.92981
 C102 C 0.42794 0.30704 1.05728
 H103 H 0.43069 0.29079 1.09292
 C104 C 0.39904 0.35107 1.05251
 H105 H 0.37975 0.36854 1.08457
 Zn106 Zn 0.50274 0.23309 1.01978
 N107 N 0.45410 0.28616 1.01752
 C108 C 0.44541 0.17883 0.95924
 N109 N 0.49289 0.19127 0.96399
 C110 C 0.52921 0.17365 0.93133
 C111 C 0.51795 0.14187 0.89183
 C112 C 0.43260 0.14758 0.92055
 C113 C 0.59365 0.26294 1.05726
 C114 C 0.63109 0.29583 1.06103
 C115 C 0.61259 0.32248 0.97921
 C116 C 0.57548 0.28912 0.97703
 N117 N 0.56502 0.26195 1.01670
 H118 H 0.41744 0.19301 0.98608
 H119 H 0.56679 0.18390 0.93609
 H120 H 0.54703 0.12827 0.86589
 H121 H 0.39460 0.13778 0.91837
 H122 H 0.58578 0.24043 1.08807
 H123 H 0.65199 0.29730 1.09454
 H124 H 0.61802 0.34578 0.94830
 H125 H 0.55325 0.28712 0.94459
 C126 C 0.39802 0.37352 1.00669
 C127 C 0.49591 0.13423 1.15803
 C128 C 0.63936 0.32783 1.02260
 C129 C 0.46893 0.12877 0.88603
 C130 C 0.47855 0.83409 -0.07074
 H131 H 0.45454 0.84130 -0.03849
 C132 C 0.47840 0.86760 -0.10836
 H133 H 0.45346 0.90017 -0.10501
 C134 C 0.53989 0.78231 -0.11381
 H135 H 0.56442 0.74947 -0.11525
 C136 C 0.54069 0.81476 -0.15258
 H137 H 0.56585 0.80632 -0.18376
 N138 N 0.50864 0.79228 -0.07423
 C139 C 0.43641 0.69544 0.02435
 H140 H 0.46445 0.69055 0.05184
 C141 C 0.39413 0.66882 0.02654
 H142 H 0.38982 0.64426 0.05658
 C143 C 0.40976 0.73218 -0.04913
 H144 H 0.41683 0.75563 -0.07948
 C145 C 0.36710 0.70594 -0.04863
 H146 H 0.34200 0.71018 -0.07879
 Zn147 Zn 0.50635 0.75180 -0.01938
 N148 N 0.44375 0.72577 -0.01347
 C149 C 0.48372 0.80305 0.07184
 N150 N 0.51901 0.79237 0.03595
 C151 C 0.56251 0.81471 0.03582
 C152 C 0.57205 0.84931 0.07304
 C153 C 0.49167 0.83746 0.10971
 C154 C 0.54669 0.66448 -0.06431
 C155 C 0.57685 0.62114 -0.06949
 C156 C 0.61796 0.64475 0.00509
 C157 C 0.58717 0.68788 0.00868
 N158 N 0.55262 0.69702 -0.02600
 H159 H 0.44883 0.78594 0.07049
 H160 H 0.58935 0.80635 0.00604
 H161 H 0.60657 0.86723 0.07169
 H162 H 0.46312 0.84520 0.13798
 H163 H 0.51793 0.67201 -0.09053
 H164 H 0.57119 0.59570 -0.10014
 H165 H 0.64558 0.63840 0.03275
 H166 H 0.59034 0.71354 0.03962
 C167 C 0.35950 0.67255 -0.01120
 C168 C 0.50957 0.85801 -0.15012
 C169 C 0.61305 0.61078 -0.03450
 C170 C 0.53618 0.86134 0.11044
 C171 C 1.10327 0.50522 0.22077
 H172 H 1.10532 0.50405 0.26037
 C173 C 1.14705 0.50569 0.19246
 H174 H 1.18194 0.50361 0.21107
 C175 C 1.05576 0.51065 0.14884
 H176 H 1.02030 0.51362 0.13159
 C177 C 1.09852 0.51122 0.11919
 H178 H 1.09486 0.51463 0.07977
 N179 N 1.05858 0.50715 0.19874
 C180 C 0.95475 0.42071 0.27227
 H181 H 0.92650 0.42798 0.24565
 C182 C 0.94717 0.38587 0.30781
 H183 H 0.91417 0.36546 0.30652
 C184 C 1.02957 0.44098 0.30913
 H185 H 1.05987 0.46462 0.31183
 C186 C 1.02370 0.40623 0.34503
 H187 H 1.05060 0.40278 0.37382
 Zn188 Zn 0.99785 0.50550 0.23624
 N189 N 0.99525 0.44791 0.27375
 C190 C 0.93889 0.47052 0.15974
 N191 N 0.94441 0.50921 0.19190
 C192 C 0.91413 0.55084 0.19091
 C193 C 0.87643 0.55460 0.15668
 C194 C 0.90145 0.47256 0.12521
 C195 C 1.02461 0.58893 0.29696
 C196 C 1.01878 0.61848 0.34047
 C197 C 0.94038 0.58349 0.35613
 C198 C 0.94767 0.55483 0.31278
 N199 N 0.98964 0.55709 0.28479
 H200 H 0.96408 0.43820 0.16060
 H201 H 0.91966 0.58155 0.21613
 H202 H 0.85261 0.58795 0.15675
 H203 H 0.89813 0.44151 0.09971
 H204 H 1.05798 0.58975 0.27443
 H205 H 1.04774 0.64217 0.35092
 H206 H 0.90683 0.58025 0.37787
 H207 H 0.92070 0.52890 0.30243
 C208 C 0.98140 0.37910 0.34540
 C209 C 1.14506 0.50869 0.14086
 C210 C 0.97687 0.61465 0.37141
 C211 C 0.86980 0.51514 0.12320
 C212 C -0.06535 0.44275 0.79098
 H213 H -0.04871 0.41558 0.76459
 C214 C -0.10319 0.42991 0.82304
 H215 H -0.11605 0.39313 0.82014
 C216 C -0.06778 0.52315 0.82769
 H217 H -0.05265 0.55896 0.83031
 C218 C -0.10572 0.51198 0.86023
 H219 H -0.11965 0.53976 0.88742
 N220 N -0.04799 0.48852 0.79433
 C221 C -0.01268 0.45502 0.66782
 H222 H -0.04321 0.48259 0.66916
 C223 C -0.00674 0.42155 0.62754
 H224 H -0.03287 0.42367 0.59795
 C225 C 0.05848 0.41909 0.70486
 H226 H 0.08318 0.41744 0.73554
 C227 C 0.06615 0.38528 0.66498
 H228 H 0.09685 0.35799 0.66558
 Zn229 Zn 0.00907 0.50236 0.75677
 N230 N 0.01991 0.45352 0.70527
 C231 C 0.11076 0.50107 0.78088
 N232 N 0.06381 0.50242 0.80009
 C233 C 0.05541 0.50127 0.84986
 C234 C 0.09480 0.49818 0.88215
 C235 C 0.15121 0.49646 0.81177
 C236 C -0.04708 0.58588 0.72453
 C237 C -0.05601 0.62784 0.69725
 C238 C 0.03055 0.62404 0.67337
 C239 C 0.03789 0.58225 0.70134
 N240 N -0.00072 0.56381 0.72606
 H241 H 0.11698 0.50139 0.74137
 H242 H 0.01826 0.50177 0.86494
 H243 H 0.08745 0.49657 0.92151
 H244 H 0.18832 0.49412 0.79577
 H245 H -0.07783 0.56971 0.74241
 H246 H -0.09359 0.64333 0.69523
 H247 H 0.06166 0.63753 0.65331
 H248 H 0.07418 0.56367 0.70191
 C249 C 0.03338 0.38638 0.62557
 C250 C -0.12331 0.46454 0.85876
 C251 C -0.01707 0.64701 0.67050
 C252 C 0.14327 0.49465 0.86299
 N253 N 0.07811 0.17587 0.40731
 N254 N 0.04576 0.21389 0.41410
 C255 C 0.03835 0.22339 0.46310
 C256 C 0.06660 0.18864 0.48829
 C257 C 0.09174 0.15956 0.45167
 H258 H 0.06786 0.18497 0.52787
 H259 H 0.09039 0.16177 0.37254
 H260 H 0.02856 0.23180 0.38514
 N261 N 0.65859 0.54221 -0.08387
 N262 N 0.69306 0.50696 -0.07676
 C263 C 0.70424 0.50733 -0.02842
 C264 C 0.67367 0.54337 -0.00357
 C265 C 0.64642 0.56567 -0.04024
 H266 H 0.67305 0.55324 0.03550
 H267 H 0.64522 0.55087 -0.11852
 H268 H 0.70883 0.48359 -0.10501
 N269 N 0.87644 -0.18892 0.45700
 N270 N 0.90823 -0.22727 0.45932
 C271 C 0.93838 -0.22031 0.49771
 C272 C 0.92457 -0.17463 0.52059
 C273 C 0.88498 -0.15618 0.49374
 H274 H 0.94037 -0.15796 0.55296
 H275 H 0.84831 -0.18641 0.43135
 H276 H 0.90791 -0.25787 0.43508
 N277 N 0.39131 0.45600 0.97054
 N278 N 0.35844 0.49353 0.96849
 C279 C 0.31895 0.48541 0.99777
 C280 C 0.32741 0.44002 1.01918
 C281 C 0.37360 0.42270 1.00073
 H282 H 0.30190 0.42065 1.04153
 H283 H 0.42460 0.45271 0.95010
 H284 H 0.36206 0.52272 0.94500
 N285 N 0.91798 0.20523 0.57142
 N286 N 0.95459 0.23367 0.56225
 C287 C 0.96198 0.23521 0.51287
 C288 C 0.92939 0.20469 0.48997
 C289 C 0.90141 0.18724 0.52829
 H290 H 0.92632 0.19709 0.45073
 H291 H 0.90587 0.19749 0.60699
 H292 H 0.97468 0.25028 0.58994
 N293 N 0.28376 0.63909 -0.04853
 N294 N 0.26065 0.59782 -0.04743
 C295 C 0.28017 0.56941 -0.01198
 C296 C 0.31698 0.59482 0.01062
 C297 C 0.31902 0.63822 -0.01423
 H298 H 0.34261 0.58070 0.03738
 H299 H 0.27643 0.66607 -0.07417
 H300 H 0.23372 0.58926 -0.07259
 N301 N 0.11062 -0.24363 0.49887
 N302 N 0.07189 -0.27010 0.50511
 C303 C 0.03021 -0.24022 0.50675
 C304 C 0.04364 -0.19223 0.50118
 C305 C 0.09501 -0.19583 0.49645
 H306 H 0.01951 -0.15924 0.50107
 H307 H 0.14690 -0.25883 0.49606
 H308 H 0.07426 -0.30832 0.50741
 N309 N 0.68581 0.38729 1.07351
 N310 N 0.71234 0.42566 1.06664
 C311 C 0.71769 0.43217 1.01767
 C312 C 0.69197 0.39681 0.99260
 C313 C 0.67284 0.36859 1.02926
 H314 H 0.68770 0.39280 0.95309
 H315 H 0.67521 0.37576 1.10830
 H316 H 0.72469 0.44773 1.09551
 N317 N 0.49051 0.11330 1.24801
 N318 N 0.49556 0.07339 1.27436
 C319 C 0.50728 0.03393 1.24379
 C320 C 0.50950 0.05007 1.19582
 C321 C 0.49855 0.10036 1.19984
 H322 H 0.51801 0.02798 1.16243
 H323 H 0.48097 0.14848 1.26309
 H324 H 0.49092 0.07349 1.31273
 N325 N -0.06825 0.71789 0.63771
 N326 N -0.06978 0.74288 0.59683
 C327 C -0.02906 0.72977 0.56841
 C328 C -0.00053 0.69480 0.59316
 C329 C -0.02693 0.68769 0.63645
 H330 H 0.03177 0.67316 0.57895
 H331 H -0.09653 0.72009 0.66468
 H332 H -0.10031 0.76562 0.58773
 N333 N 0.51977 0.87879 -0.23878
 N334 N 0.50922 0.91660 -0.26662
 C335 C 0.49188 0.95549 -0.23764
 C336 C 0.49074 0.94114 -0.18899
 C337 C 0.50854 0.89224 -0.19132
 H338 H 0.47615 0.96238 -0.15684
 H339 H 0.53174 0.84375 -0.25273
 H340 H 0.51171 0.91502 -0.30519
 N341 N 0.92656 0.33384 0.40123
 N342 N 0.93127 0.30422 0.43860
 C343 C 0.97984 0.29609 0.44781
 C344 C 1.00681 0.32343 0.41571
 C345 C 0.97181 0.34596 0.38615
 H346 H 1.04659 0.32519 0.41346
 H347 H 0.89260 0.34622 0.38728
 H348 H 0.90122 0.29090 0.45753
 N349 N 0.58992 0.91147 0.16404
 N350 N 0.58424 0.94226 0.20284
 C351 C 0.53560 0.94908 0.21490
 C352 C 0.50926 0.92272 0.18080
 C353 C 0.54500 0.89837 0.15004
 H354 H 0.46955 0.92084 0.17935
 H355 H 0.62426 0.89876 0.14874
 H356 H 0.61347 0.95752 0.22119
 N357 N 0.08378 0.32663 0.56932
 N358 N 0.07611 0.29445 0.53306
 C359 C 0.02728 0.29616 0.52361
 C360 C 0.00345 0.33272 0.55419
 C361 C 0.04031 0.35026 0.58340
 H362 H -0.03582 0.34280 0.55665
 H363 H 0.11844 0.33209 0.58391
 H364 H 0.10431 0.27201 0.51552
 N365 N 0.40857 0.09603 0.82690
 N366 N 0.40790 0.06305 0.79014
 C367 C 0.45365 0.04087 0.78322
 C368 C 0.48497 0.06179 0.81698
 C369 C 0.45475 0.09629 0.84431
 H370 H 0.52412 0.05288 0.82091
 H371 H 0.37781 0.11878 0.83864
 H372 H 0.37648 0.05726 0.76967
 N373 N 0.94288 0.62632 0.45787
 N374 N 0.94397 0.65858 0.49524
 C375 C 0.97411 0.69415 0.48314
 C376 C 0.99259 0.68391 0.43516
 C377 C 0.97161 0.64070 0.42043
 H378 H 1.01551 0.70640 0.41322
 H379 H 0.92218 0.59526 0.45837
 H380 H 0.92284 0.65680 0.52778
 N381 N 1.23473 0.52361 0.12757
 N382 N 1.26658 0.52541 0.09017
 C383 C 1.24417 0.51422 0.04757
 C384 C 1.19560 0.50409 0.05905
 C385 C 1.19091 0.51107 0.11009
 H386 H 1.16729 0.49351 0.03414
 H387 H 1.24307 0.53227 0.16415
 H388 H 1.30319 0.53441 0.09412
 N389 N 0.53303 0.08038 0.65899
 N390 N 0.49389 0.06864 0.68493
 C391 C 0.50478 0.02636 0.70774
 C392 C 0.55390 0.01130 0.69645
 C393 C 0.57047 0.04620 0.66499
 H394 H 0.57479 -0.02050 0.70945
 H395 H 0.53304 0.11103 0.63703
 H396 H 0.46012 0.08937 0.68683
 N397 N -0.16838 0.40493 0.90905
 N398 N -0.20275 0.40678 0.94465
 C399 C -0.21866 0.45420 0.95402
 C400 C -0.19243 0.48356 0.92348
 C401 C -0.16116 0.45109 0.89534
 H402 H -0.19573 0.52329 0.92263
 H403 H -0.14910 0.37254 0.89595
 H404 H -0.21349 0.37597 0.96296
 N405 N 0.41496 -0.09258 0.30254
 N406 N 0.45700 -0.08716 0.27844
 C407 C 0.46553 -0.03883 0.27730
 C408 C 0.42660 -0.01261 0.30280
 C409 C 0.39534 -0.04800 0.31832
 H410 H 0.42256 0.02646 0.31103
 H411 H 0.40185 -0.12683 0.30995
 H412 H 0.48017 -0.11678 0.26471
 N413 N 0.22609 0.45796 0.88356
 N414 N 0.25848 0.46217 0.91880
 C415 C 0.23955 0.49446 0.95461
 C416 C 0.19195 0.51029 0.94126
 C417 C 0.18546 0.48693 0.89577
 H418 H 0.16735 0.53830 0.95970
 H419 H 0.23237 0.43620 0.85123
 H420 H 0.29369 0.44433 0.91661
 N421 N 0.59616 -0.06625 0.35306
 N422 N 0.56377 -0.07092 0.31805
 C423 C 0.55092 -0.02623 0.30080
 C424 C 0.57772 0.00862 0.32588
 C425 C 0.60528 -0.01845 0.35924
 H426 H 0.57724 0.04786 0.32120
 H427 H 0.61215 -0.09587 0.37167
 H428 H 0.55158 -0.10468 0.30571
 N429 N 0.81044 0.56091 0.06916
 N430 N 0.77738 0.55060 0.03584
 C431 C 0.77444 0.50128 0.03171
 C432 C 0.80910 0.47958 0.06247
 C433 C 0.83042 0.51854 0.08625
 H434 H 0.81754 0.44064 0.06658
 H435 H 0.82026 0.59649 0.07835
 H436 H 0.75923 0.57725 0.01498
 N437 N 0.35019 -0.04205 0.70731
 N438 N 0.38654 -0.03618 0.73812
 C439 C 0.42252 -0.01239 0.71558
 C440 C 0.40819 -0.00316 0.66764
 C441 C 0.36186 -0.02223 0.66404
 H442 H 0.42825 0.01512 0.63946
 H443 H 0.31750 -0.05819 0.71678
 H444 H 0.38610 -0.04734 0.77460
   
