data_POSCAR
  _audit_creation_date              2014-09-24
  _audit_creation_method            'ToBaCCo'
  _symmetry_space_group_name_H-M    'P1'
  _symmetry_Int_Tables_number       1
  _symmetry_cell_setting            triclinic
  loop_
  _symmetry_equiv_pos_as_xyz
 x,y,z
_cell_length_a 19.6189
_cell_length_b 19.6375
_cell_length_c 32.2602
_cell_angle_alpha 89.990700
_cell_angle_beta 93.734400
_cell_angle_gamma 89.047300
loop_
  _atom_site_label
  _atom_site_type_symbol
  _atom_site_fract_x
  _atom_site_fract_y
  _atom_site_fract_z
O1 O -0.06277 0.43693 1.03367
 O2 O -0.05029 0.56970 0.95397
 O3 O -0.05303 0.43718 0.95378
 O4 O -0.06251 0.57030 1.03347
 O5 O 0.05003 0.56708 1.04373
 O6 O 0.05946 0.43332 0.96429
 O7 O 0.06222 0.56657 0.96429
 O8 O 0.04974 0.43464 1.04414
 Cu9 Cu -0.06852 0.50379 0.99274
 Cu10 Cu 0.06672 0.50003 1.00507
 C11 C -0.00850 0.41305 1.05221
 C12 C 0.00813 0.59111 0.94595
 C13 C 0.00471 0.41229 0.94579
 C14 C -0.00782 0.59178 1.05174
 O15 O 0.42835 -0.05587 0.46208
 O16 O 0.57493 -0.05730 0.53918
 O17 O 0.44213 -0.05766 0.54231
 O18 O 0.56107 -0.05680 0.45892
 O19 O 0.55987 0.05581 0.45941
 O20 O 0.44033 0.05495 0.54288
 O21 O 0.57310 0.05527 0.54000
 O22 O 0.42709 0.05673 0.46229
 Cu23 Cu 0.50179 -0.06825 0.50058
 Cu24 Cu 0.49995 0.06707 0.50120
 C25 C 0.40243 0.00066 0.44947
 C26 C 0.59938 -0.00127 0.55232
 C27 C 0.42038 -0.00160 0.55634
 C28 C 0.58125 -0.00045 0.44538
 C29 C 0.11101 0.02461 0.27279
 H30 H 0.11406 0.03942 0.24067
 C31 C 0.16956 0.02497 0.29990
 H32 H 0.21784 0.04028 0.28868
 C33 C 0.04459 -0.01373 0.32673
 H34 H -0.00414 -0.02881 0.33712
 C35 C 0.10186 -0.01458 0.35472
 H36 H 0.09631 -0.03006 0.38647
 N37 N 0.05021 0.00496 0.28651
 C38 C -0.08100 -0.09711 0.19320
 H39 H -0.12815 -0.06820 0.19492
 C40 C -0.07878 -0.15418 0.16744
 H41 H -0.12434 -0.16926 0.14921
 C42 C 0.03614 -0.11267 0.21455
 H43 H 0.08087 -0.09645 0.23295
 C44 C 0.04069 -0.16969 0.18901
 H45 H 0.08903 -0.19672 0.18808
 Zn46 Zn -0.02786 0.00243 0.24883
 N47 N -0.02378 -0.07705 0.21571
 C48 C -0.04335 0.07486 0.17284
 N49 N -0.02931 0.08088 0.21453
 C50 C -0.01342 0.14211 0.23206
 C51 C -0.01085 0.20036 0.20735
 C52 C -0.04195 0.13183 0.14711
 C53 C -0.12641 -0.06080 0.29418
 C54 C -0.18137 -0.06427 0.31945
 C55 C -0.19661 0.05766 0.31285
 C56 C -0.14156 0.05883 0.28752
 N57 N -0.10719 0.00020 0.27915
 H58 H -0.05522 0.02585 0.15935
 H59 H -0.00179 0.14543 0.26524
 H60 H 0.00247 0.24851 0.22171
 H61 H -0.05294 0.12637 0.11395
 H62 H -0.09786 -0.10658 0.28736
 H63 H -0.19491 -0.11303 0.33184
 H64 H -0.22264 0.10478 0.32016
 H65 H -0.12538 0.10678 0.27541
 C66 C -0.01712 -0.19045 0.16480
 C67 C 0.16528 0.00447 0.34124
 C68 C -0.21645 -0.00433 0.32941
 C69 C -0.02496 0.19523 0.16432
 C70 C 0.00875 0.13867 0.76726
 H71 H -0.00229 0.14192 0.73401
 C72 C 0.00519 0.19725 0.79169
 H73 H -0.00834 0.24559 0.77706
 C74 C 0.03868 0.07134 0.82689
 H75 H 0.05106 0.02222 0.84064
 C76 C 0.03623 0.12860 0.85236
 H77 H 0.04697 0.12325 0.88557
 N78 N 0.02536 0.07731 0.78512
 C79 C 0.12596 -0.06368 0.70434
 H80 H 0.09745 -0.10910 0.70991
 C81 C 0.18139 -0.06700 0.67936
 H82 H 0.19524 -0.11524 0.66581
 C83 C 0.14089 0.05490 0.71425
 H84 H 0.12462 0.10238 0.72761
 C85 C 0.19636 0.05390 0.68922
 H86 H 0.22251 0.10073 0.68333
 Zn87 Zn 0.02688 -0.00130 0.75111
 N88 N 0.10631 -0.00322 0.72077
 C89 C -0.04529 -0.01635 0.67311
 N90 N -0.05154 0.00056 0.71359
 C91 C -0.11319 0.01861 0.72767
 C92 C -0.17190 0.01903 0.70068
 C93 C -0.10267 -0.01713 0.64523
 C94 C 0.08524 -0.09980 0.80666
 C95 C 0.08638 -0.15681 0.83262
 C96 C -0.03276 -0.17386 0.81219
 C97 C -0.03156 -0.11689 0.78641
 N98 N 0.02663 -0.08059 0.78456
 H99 H 0.00409 -0.02990 0.66236
 H100 H -0.11671 0.03227 0.75995
 H101 H -0.22081 0.03314 0.71217
 H102 H -0.09654 -0.03110 0.61325
 H103 H 0.13090 -0.07022 0.80446
 H104 H 0.13310 -0.17074 0.85049
 H105 H -0.07970 -0.20164 0.81406
 H106 H -0.07746 -0.10122 0.76842
 C107 C 0.21657 -0.00744 0.67119
 C108 C 0.01897 0.19225 0.83477
 C109 C 0.02659 -0.19402 0.83576
 C110 C -0.16690 0.00025 0.65907
 C111 C -0.03622 -0.24439 0.08900
 C112 C 0.02844 -0.28532 0.07851
 C113 C -0.01109 -0.35167 0.08239
 C114 C -0.07584 -0.31144 0.09249
 C115 C 0.01180 -0.35714 0.12873
 C116 C 0.05142 -0.29005 0.12524
 C117 C -0.01335 -0.24962 0.13547
 C118 C -0.05300 -0.31605 0.13929
 H119 H -0.05589 -0.19747 0.07281
 H120 H 0.06186 -0.27318 0.05312
 H121 H -0.12822 -0.32070 0.07876
 H122 H 0.03144 -0.40421 0.14476
 H123 H 0.10441 -0.28202 0.13826
 H124 H -0.08649 -0.32819 0.16463
 C125 C -0.08146 0.28537 0.10923
 C126 C -0.05751 0.35823 0.12067
 C127 C -0.01300 0.35722 0.08320
 C128 C -0.03688 0.28524 0.07139
 C129 C 0.04800 0.32773 0.11014
 C130 C 0.00344 0.32793 0.14806
 C131 C -0.02049 0.25576 0.13623
 C132 C 0.02405 0.25512 0.09866
 H133 H -0.13482 0.26743 0.10914
 H134 H -0.09105 0.40128 0.12936
 H135 H -0.05333 0.26825 0.03952
 H136 H 0.10142 0.34556 0.11029
 H137 H 0.02030 0.34620 0.17956
 H138 H 0.05769 0.21225 0.08980
 C139 C 0.26557 0.03057 0.59995
 C140 C 0.33765 0.05999 0.60903
 C141 C 0.36843 -0.00261 0.58803
 C142 C 0.29697 -0.03195 0.57859
 C143 C 0.37590 -0.04090 0.62966
 C144 C 0.34430 0.02166 0.65114
 C145 C 0.27271 -0.00775 0.64166
 C146 C 0.30370 -0.07035 0.62055
 H147 H 0.21961 0.05986 0.58787
 H148 H 0.35207 0.11366 0.60406
 H149 H 0.27794 -0.05380 0.54835
 H150 H 0.42198 -0.07013 0.64158
 H151 H 0.36333 0.04361 0.68133
 H152 H 0.29056 -0.12449 0.62495
 C153 C -0.27131 0.06299 0.61581
 C154 C -0.27603 0.03515 0.57079
 C155 C -0.34182 -0.00169 0.58008
 C156 C -0.33809 0.02616 0.62465
 C157 C -0.30060 -0.06580 0.59414
 C158 C -0.23402 -0.02892 0.58518
 C159 C -0.22983 -0.00105 0.62992
 C160 C -0.29584 -0.03795 0.63914
 H161 H -0.25858 0.11602 0.62491
 H162 H -0.26844 0.06527 0.54237
 H163 H -0.38156 0.04869 0.64060
 H164 H -0.31305 -0.11895 0.58514
 H165 H -0.19203 -0.05203 0.56821
 H166 H -0.30342 -0.06815 0.66751
 C167 C -0.00273 -0.32401 0.85262
 C168 C 0.05727 -0.35739 0.87942
 C169 C 0.01314 -0.35544 0.91703
 C170 C -0.04698 -0.32299 0.89069
 C171 C 0.04017 -0.28489 0.92954
 C172 C 0.08440 -0.28591 0.89151
 C173 C 0.02429 -0.25324 0.86506
 C174 C -0.01983 -0.25170 0.90280
 H175 H -0.02022 -0.33962 0.82067
 H176 H 0.08879 -0.40156 0.87005
 H177 H -0.10113 -0.33859 0.89049
 H178 H 0.05757 -0.26929 0.96153
 H179 H 0.13884 -0.27128 0.89211
 H180 H -0.05141 -0.20764 0.91225
 C181 C -0.02979 0.25514 0.90014
 C182 C 0.03147 0.28310 0.92717
 C183 C 0.00815 0.35590 0.91502
 C184 C -0.05319 0.32860 0.88831
 C185 C 0.05251 0.35448 0.87748
 C186 C 0.07589 0.28083 0.88928
 C187 C 0.01460 0.25337 0.86252
 C188 C -0.00878 0.32635 0.85032
 H189 H -0.06373 0.21380 0.90926
 H190 H 0.04790 0.26588 0.95911
 H191 H -0.10643 0.34869 0.88815
 H192 H 0.08636 0.39600 0.86851
 H193 H 0.12909 0.26066 0.88941
 H194 H -0.02559 0.34482 0.81873
 C195 C -0.26493 0.03117 0.40159
 C196 C -0.33754 0.06219 0.39334
 C197 C -0.36708 -0.00085 0.41348
 C198 C -0.29510 -0.03180 0.42210
 C199 C -0.37455 -0.03709 0.37127
 C200 C -0.34419 0.02592 0.35065
 C201 C -0.27207 -0.00510 0.35927
 C202 C -0.30182 -0.06814 0.37953
 H203 H -0.21927 0.05915 0.41391
 H204 H -0.35268 0.11585 0.39926
 H205 H -0.27535 -0.05534 0.45188
 H206 H -0.42033 -0.06502 0.35910
 H207 H -0.36395 0.04957 0.32090
 H208 H -0.28794 -0.12229 0.37421
 C209 C 0.23351 -0.02601 0.41497
 C210 C 0.30129 -0.06257 0.40570
 C211 C 0.34046 0.00122 0.42015
 C212 C 0.27341 0.03778 0.42969
 C213 C 0.33553 0.02999 0.37574
 C214 C 0.29545 -0.03383 0.36090
 C215 C 0.22823 0.00278 0.37041
 C216 C 0.26758 0.06656 0.38487
 H217 H 0.19238 -0.04950 0.43186
 H218 H 0.31567 -0.11584 0.41441
 H219 H 0.26499 0.06728 0.45832
 H220 H 0.37820 0.05291 0.35991
 H221 H 0.30397 -0.06343 0.33233
 H222 H 0.25304 0.11977 0.37612
   
