data_POSCAR
  _audit_creation_date              2014-09-24
  _audit_creation_method            'ToBaCCo'
  _symmetry_space_group_name_H-M    'P1'
  _symmetry_Int_Tables_number       1
  _symmetry_cell_setting            triclinic
  loop_
  _symmetry_equiv_pos_as_xyz
 x,y,z
_cell_length_a 39.4556
_cell_length_b 39.4727
_cell_length_c 39.4531
_cell_angle_alpha 89.959000
_cell_angle_beta 89.945000
_cell_angle_gamma 89.998100
loop_
  _atom_site_label
  _atom_site_type_symbol
  _atom_site_fract_x
  _atom_site_fract_y
  _atom_site_fract_z
C1 C 0.16654 0.16289 0.21003
 C2 C 0.19535 0.14850 0.19428
 C3 C 0.20908 0.16167 0.16399
 C4 C 0.19289 0.18985 0.14923
 C5 C 0.16380 0.20429 0.16367
 C6 C 0.15078 0.19070 0.19392
 H7 H 0.20559 0.12519 0.20426
 H8 H 0.20386 0.20211 0.12730
 H9 H 0.12895 0.20277 0.20521
 C10 C -0.16769 0.83042 0.21182
 C11 C -0.19624 0.84415 0.19510
 C12 C -0.20958 0.82924 0.16567
 C13 C -0.19377 0.80037 0.15225
 C14 C -0.16517 0.78624 0.16794
 C15 C -0.15248 0.80127 0.19764
 H16 H -0.20743 0.86758 0.20379
 H17 H -0.20381 0.78881 0.12951
 H18 H -0.13178 0.78879 0.21052
 C19 C -0.16692 0.16552 -0.21196
 C20 C -0.19597 0.15216 -0.19567
 C21 C -0.20948 0.16682 -0.16589
 C22 C -0.19269 0.19523 -0.15222
 C23 C -0.16400 0.20919 -0.16786
 C24 C -0.15138 0.19426 -0.19753
 H25 H -0.20823 0.13026 -0.20635
 H26 H -0.20079 0.20589 -0.12831
 H27 H -0.13047 0.20657 -0.21028
 C28 C 0.16097 0.83943 -0.20315
 C29 C 0.19036 0.85404 -0.18949
 C30 C 0.20599 0.84082 -0.16011
 C31 C 0.19128 0.81188 -0.14490
 C32 C 0.16190 0.79686 -0.15833
 C33 C 0.14699 0.81083 -0.18745
 H34 H 0.20194 0.87473 -0.20323
 H35 H 0.20138 0.80178 -0.12152
 H36 H 0.12442 0.79935 -0.19799
 C37 C 0.16988 1.16349 0.78988
 C38 C 0.19777 1.14949 0.80705
 C39 C 0.21100 1.16496 0.83625
 C40 C 0.19541 1.19444 0.84873
 C41 C 0.16728 1.20871 0.83219
 C42 C 0.15489 1.19316 0.80265
 H43 H 0.20887 1.12610 0.79798
 H44 H 0.20532 1.20642 0.87131
 H45 H 0.13411 1.20476 0.78901
 C46 C 0.83689 0.83571 0.79237
 C47 C 0.80815 0.85046 0.80770
 C48 C 0.79297 0.83618 0.83643
 C49 C 0.80650 0.80641 0.85015
 C50 C 0.83481 0.79023 0.83545
 C51 C 0.84982 0.80544 0.80660
 H52 H 0.79603 0.87222 0.79628
 H53 H 0.79562 0.79694 0.87348
 H54 H 0.87158 0.79361 0.79510
 C55 C 0.16128 0.83491 1.20533
 C56 C 0.19053 0.84943 1.19061
 C57 C 0.20492 0.83614 1.16079
 C58 C 0.18999 0.80772 1.14551
 C59 C 0.16123 0.79244 1.15975
 C60 C 0.14725 0.80607 1.18950
 H61 H 0.20193 0.87172 1.20162
 H62 H 0.20036 0.79790 1.12207
 H63 H 0.12639 0.79270 1.20122
 C64 C 0.83679 1.16672 1.21231
 C65 C 0.80805 1.15088 1.19820
 C66 C 0.79302 1.16297 1.16838
 C67 C 0.80684 1.19146 1.15227
 C68 C 0.83527 1.20849 1.16560
 C69 C 0.85005 1.19550 1.19553
 H70 H 0.79580 1.13015 1.21131
 H71 H 0.79607 1.19921 1.12829
 H72 H 0.87194 1.20799 1.20598
 N73 N 0.53627 0.96440 0.94064
 N74 N 0.56311 0.96170 0.92090
 N75 N 0.46430 0.94151 0.96313
 N76 N 0.43742 0.92209 0.95885
 N77 N 0.46494 0.96586 0.94045
 N78 N 0.43847 0.96366 0.92013
 N79 N 0.53567 0.93987 0.96313
 N80 N 0.56212 0.91972 0.95916
 C81 C 0.57892 0.93363 0.93260
 C82 C 0.42158 0.93614 0.93184
 N83 N 0.46449 0.96170 1.06034
 N84 N 0.43773 0.95861 1.08013
 N85 N 0.53539 0.93725 1.03608
 N86 N 0.56158 0.91663 1.03858
 N87 N 0.53582 0.95978 1.06055
 N88 N 0.56228 0.95496 1.08045
 N89 N 0.46395 0.93886 1.03617
 N90 N 0.43677 0.91949 1.03900
 Mn91 Mn 0.49981 0.93891 0.99961
 C92 C 0.42071 0.93210 1.06666
 C93 C 0.57807 0.92786 1.06648
 N94 N 0.46666 1.03876 0.94296
 N95 N 0.44009 1.04331 0.92316
 N96 N 0.53837 1.05973 0.96758
 N97 N 0.56472 1.08004 0.96454
 N98 N 0.53806 1.03720 0.94314
 N99 N 0.56431 1.04158 0.92278
 N100 N 0.46703 1.06130 0.96739
 N101 N 0.44064 1.08171 0.96497
 Mn102 Mn 0.50148 1.00155 0.94136
 C103 C 0.42414 1.07029 0.93713
 C104 C 0.58070 1.06847 0.93647
 N105 N 0.53753 1.03267 1.06306
 N106 N 0.56388 1.03492 1.08351
 N107 N 0.46695 1.05873 1.04008
 N108 N 0.44066 1.07905 1.04338
 N109 N 0.46606 1.03454 1.06290
 N110 N 0.43900 1.03783 1.08243
 N111 N 0.53814 1.05706 1.04044
 N112 N 0.56484 1.07667 1.04497
 Mn113 Mn 0.50097 0.99715 1.06216
 Mn114 Mn 0.50265 1.05960 1.00389
 Cl115 Cl 0.50123 0.99928 1.00176
 C116 C 0.58064 1.06257 1.07199
 C117 C 0.42350 1.06587 1.06997
 N118 N -0.03510 0.46518 -0.06259
 N119 N -0.03808 0.43913 -0.08328
 N120 N -0.05853 0.53552 -0.03632
 N121 N -0.07936 0.56147 -0.03930
 N122 N -0.03514 0.53647 -0.05996
 N123 N -0.03943 0.56315 -0.07972
 N124 N -0.05865 0.46426 -0.03907
 N125 N -0.07839 0.43757 -0.04325
 C126 C -0.06530 0.42220 -0.07105
 C127 C -0.06716 0.57851 -0.06650
 N128 N -0.03439 0.53189 0.05983
 N129 N -0.03746 0.55767 0.08087
 N130 N -0.05829 0.46164 0.03383
 N131 N -0.07910 0.43567 0.03687
 N132 N -0.03468 0.46055 0.05723
 N133 N -0.03882 0.43373 0.07686
 N134 N -0.05816 0.53286 0.03659
 N135 N -0.07814 0.55929 0.04131
 Mn136 Mn -0.05883 0.49857 -0.00124
 C137 C -0.06495 0.57449 0.06912
 C138 C -0.06669 0.41847 0.06383
 N139 N 0.03774 0.53627 -0.06034
 N140 N 0.04049 0.56376 -0.07912
 N141 N 0.06144 0.46402 -0.03987
 N142 N 0.08135 0.43753 -0.04454
 N143 N 0.03765 0.46501 -0.06308
 N144 N 0.04064 0.43918 -0.08408
 N145 N 0.06164 0.53537 -0.03723
 N146 N 0.08141 0.56228 -0.03979
 Mn147 Mn 0.00130 0.50076 -0.06190
 C148 C 0.06793 0.57969 -0.06617
 C149 C 0.06810 0.42233 -0.07231
 N150 N 0.03835 0.46051 0.05687
 N151 N 0.04208 0.43367 0.07646
 N152 N 0.06203 0.53249 0.03579
 N153 N 0.08151 0.55944 0.03951
 N154 N 0.03847 0.53174 0.05931
 N155 N 0.04121 0.55819 0.07954
 N156 N 0.06171 0.46111 0.03314
 N157 N 0.08185 0.43452 0.03585
 Mn158 Mn 0.00195 0.49614 0.05873
 Mn159 Mn 0.06218 0.49823 -0.00203
 Cl160 Cl 0.00166 0.49842 -0.00160
 C161 C 0.06936 0.41770 0.06310
 C162 C 0.06831 0.57514 0.06704
 N163 N 0.94215 0.03423 0.53598
 N164 N 0.92105 0.03813 0.56158
 N165 N 0.96653 0.05859 0.46562
 N166 N 0.96330 0.07990 0.44008
 N167 N 0.94265 0.03546 0.46471
 N168 N 0.92246 0.04046 0.43849
 N169 N 0.96624 0.05714 0.53696
 N170 N 0.96209 0.07735 0.56336
 C171 C 0.93371 0.06510 0.57847
 C172 C 0.93568 0.06835 0.42338
 N173 N 1.06201 0.03250 0.46461
 N174 N 1.08243 0.03612 0.43839
 N175 N 1.03942 0.05538 0.53677
 N176 N 1.04413 0.07532 0.56322
 N177 N 1.06257 0.03151 0.53583
 N178 N 1.08368 0.03459 0.56156
 N179 N 1.03932 0.05681 0.46528
 N180 N 1.04363 0.07758 0.43934
 Mn181 Mn 1.00290 0.05743 0.50124
 C182 C 1.07072 0.06436 0.42284
 C183 C 1.07190 0.06203 0.57844
 N184 N 0.94083 -0.03757 0.46390
 N185 N 0.92002 -0.04073 0.43795
 N186 N 0.96347 -0.06244 0.53533
 N187 N 0.95944 -0.08240 0.56192
 N188 N 0.94048 -0.03840 0.53517
 N189 N 0.92028 -0.04128 0.56166
 N190 N 0.96348 -0.06192 0.46385
 N191 N 0.95874 -0.08228 0.43770
 Mn192 Mn 0.94114 -0.00157 0.49986
 C193 C 0.93146 -0.06873 0.42180
 C194 C 0.93227 -0.06892 0.57806
 N195 N 1.06071 -0.04113 0.53489
 N196 N 1.08037 -0.04421 0.56168
 N197 N 1.03632 -0.06365 0.46386
 N198 N 1.03914 -0.08383 0.43739
 N199 N 1.06025 -0.04054 0.46355
 N200 N 1.08008 -0.04448 0.43683
 N201 N 1.03667 -0.06414 0.53527
 N202 N 1.03952 -0.08364 0.56239
 Mn203 Mn 1.06178 -0.00444 0.49964
 Mn204 Mn 0.99999 -0.06351 0.49964
 Cl205 Cl 1.00145 -0.00302 0.50009
 C206 C 1.06707 -0.07093 0.57852
 C207 C 1.06662 -0.07169 0.42080
 C208 C 1.12870 0.12099 0.30154
 C209 C 1.16315 0.11789 0.29357
 C210 C 1.17557 0.13190 0.26365
 C211 C 1.15397 0.14939 0.24110
 C212 C 1.11965 0.15281 0.25090
 N213 N 1.10818 0.13865 0.28022
 C214 C 1.11426 0.10578 0.33269
 N215 N 1.08602 0.11972 0.34688
 C216 C 1.07161 0.10703 0.37557
 C217 C 1.08565 0.07853 0.39155
 C218 C 1.11434 0.06342 0.37703
 C219 C 1.12864 0.07686 0.34767
 H220 H 1.20254 0.12997 0.25915
 H221 H 1.10134 0.16522 0.23480
 H222 H 1.04927 0.11921 0.38582
 H223 H 1.12572 0.04114 0.38832
 H224 H 1.18069 0.10540 0.31053
 H225 H 1.15036 0.06428 0.33663
 C226 C 0.87124 -0.12453 0.30131
 C227 C 0.83703 -0.12015 0.29283
 C228 C 0.82423 -0.13494 0.26343
 C229 C 0.84518 -0.15454 0.24202
 C230 C 0.87933 -0.15865 0.25208
 N231 N 0.89115 -0.14380 0.28083
 C232 C 0.88615 -0.10934 0.33224
 N233 N 0.91429 -0.12375 0.34614
 C234 C 0.92926 -0.11128 0.37458
 C235 C 0.91594 -0.08253 0.39067
 C236 C 0.88735 -0.06693 0.37648
 C237 C 0.87246 -0.08014 0.34731
 H238 H 0.79741 -0.13203 0.25863
 H239 H 0.89728 -0.17241 0.23665
 H240 H 0.95148 -0.12388 0.38457
 H241 H 0.87651 -0.04444 0.38786
 H242 H 0.81989 -0.10623 0.30907
 H243 H 0.85087 -0.06716 0.33654
 C244 C 0.87266 0.12120 0.69845
 C245 C 0.83808 0.11793 0.70594
 C246 C 0.82501 0.13248 0.73536
 C247 C 0.84608 0.15075 0.75774
 C248 C 0.88062 0.15385 0.74863
 N249 N 0.89269 0.13924 0.71985
 C250 C 0.88786 0.10604 0.66764
 N251 N 0.91675 0.11973 0.65453
 C252 C 0.93199 0.10716 0.62624
 C253 C 0.91811 0.07906 0.60951
 C254 C 0.88875 0.06419 0.62293
 C255 C 0.87363 0.07747 0.65194
 H256 H 0.79798 0.13052 0.73935
 H257 H 0.89861 0.16657 0.76486
 H258 H 0.95480 0.11917 0.61684
 H259 H 0.87745 0.04219 0.61106
 H260 H 0.82090 0.10505 0.68893
 H261 H 0.85141 0.06503 0.66210
 C262 C 1.11823 -0.11900 0.70613
 C263 C 1.13029 -0.09721 0.73152
 C264 C 1.14376 -0.11078 0.76121
 C265 C 1.14527 -0.14600 0.76585
 C266 C 1.13203 -0.16690 0.74024
 N267 N 1.11907 -0.15307 0.71144
 C268 C 1.10504 -0.10580 0.67364
 N269 N 1.08102 -0.12372 0.65650
 C270 C 1.06828 -0.11311 0.62624
 C271 C 1.08020 -0.08310 0.61136
 C272 C 1.10520 -0.06451 0.62839
 C273 C 1.11764 -0.07571 0.65945
 H274 H 1.15281 -0.09368 0.78066
 H275 H 1.13277 -0.19419 0.74266
 H276 H 1.04911 -0.12823 0.61378
 H277 H 1.11519 -0.04126 0.61773
 H278 H 1.12907 -0.06997 0.72872
 H279 H 1.13743 -0.06127 0.67175
 C280 C 0.29776 1.12004 1.11990
 C281 C 0.27416 1.13685 1.09937
 C282 C 0.24488 1.15035 1.11380
 C283 C 0.23847 1.14715 1.14887
 C284 C 0.26262 1.12910 1.16823
 N285 N 0.29108 1.11642 1.15350
 C286 C 0.32978 1.10623 1.10605
 N287 N 0.34524 1.07995 1.12228
 C288 C 0.37502 1.06646 1.11126
 C289 C 0.39114 1.07982 1.08251
 C290 C 0.37583 1.10706 1.06561
 C291 C 0.34528 1.12034 1.07727
 H292 H 0.22682 1.16212 1.09689
 H293 H 0.26007 1.12630 1.19535
 H294 H 0.38610 1.04550 1.12505
 H295 H 0.38751 1.11822 1.04340
 H296 H 0.27779 1.13911 1.07229
 H297 H 0.33447 1.14189 1.06422
 C298 C 0.29578 0.88562 0.87821
 C299 C 0.27266 0.90540 0.85992
 C300 C 0.24302 0.89073 0.84757
 C301 C 0.23572 0.85618 0.85338
 C302 C 0.25934 0.83766 0.87290
 N303 N 0.28820 0.85258 0.88439
 C304 C 0.32802 0.89967 0.89139
 N305 N 0.34353 0.88380 0.91782
 C306 C 0.37329 0.89495 0.93112
 C307 C 0.38935 0.92363 0.91755
 C308 C 0.37408 0.94021 0.89012
 C309 C 0.34354 0.92830 0.87690
 H310 H 0.22535 0.90719 0.83462
 H311 H 0.25603 0.81095 0.87785
 H312 H 0.38432 0.88136 0.95224
 H313 H 0.38579 0.96230 0.87877
 H314 H 0.27683 0.93214 0.85566
 H315 H 0.33278 0.94111 0.85520
 C316 C 0.70158 0.87080 1.11877
 C317 C 0.72785 0.85809 1.09838
 C318 C 0.75687 0.84471 1.11357
 C319 C 0.75987 0.84388 1.14904
 C320 C 0.73312 0.85720 1.16845
 N321 N 0.70518 0.87019 1.15307
 C322 C 0.67023 0.88527 1.10413
 N323 N 0.65282 0.90908 1.12207
 C324 C 0.62357 0.92316 1.11051
 C325 C 0.60993 0.91299 1.07932
 C326 C 0.62722 0.88826 1.06054
 C327 C 0.65735 0.87439 1.07279
 H328 H 0.77715 0.83552 1.09753
 H329 H 0.73411 0.85682 1.19585
 H330 H 0.61092 0.94208 1.12582
 H331 H 0.61746 0.87963 1.03639
 H332 H 0.72643 0.85903 1.07101
 H333 H 0.66990 0.85489 1.05817
 C334 C 0.70184 1.12750 0.88062
 C335 C 0.71027 1.16173 0.88478
 C336 C 0.73948 1.17457 0.86961
 C337 C 0.76077 1.15364 0.84985
 C338 C 0.75086 1.11941 0.84613
 N339 N 0.72226 1.10756 0.86132
 C340 C 0.67092 1.11268 0.89597
 N341 N 0.65665 1.08481 0.88145
 C342 C 0.62804 1.07013 0.89393
 C343 C 0.61212 1.08353 0.92277
 C344 C 0.62674 1.11179 0.93852
 C345 C 0.65610 1.12637 0.92531
 H346 H 0.74418 1.20142 0.87227
 H347 H 0.76627 1.10143 0.83242
 H348 H 0.61772 1.04812 0.88124
 H349 H 0.61551 1.12267 0.96108
 H350 H 0.69407 1.17887 0.89874
 H351 H 0.66717 1.14776 0.93835
 C352 C 0.12176 0.29283 0.11684
 C353 C 0.13299 0.26588 0.09656
 C354 C 0.14593 0.23678 0.11187
 C355 C 0.14789 0.23436 0.14735
 C356 C 0.13553 0.26156 0.16670
 N357 N 0.12296 0.28966 0.15119
 C358 C 0.10854 0.32456 0.10188
 N359 N 0.08514 0.34285 0.11944
 C360 C 0.07220 0.37244 0.10746
 C361 C 0.08321 0.38554 0.07626
 C362 C 0.10761 0.36738 0.05791
 C363 C 0.12027 0.33686 0.07056
 H364 H 0.15436 0.21611 0.09592
 H365 H 0.13671 0.26098 0.19409
 H366 H 0.05353 0.38581 0.12247
 H367 H 0.11685 0.37671 0.03378
 H368 H 0.13147 0.26699 0.06920
 H369 H 0.13952 0.32353 0.05627
 C370 C -0.11734 0.29826 -0.12689
 C371 C -0.09693 0.27247 -0.14049
 C372 C -0.11206 0.24338 -0.15367
 C373 C -0.14748 0.23982 -0.15340
 C374 C -0.16690 0.26607 -0.13919
 N375 N -0.15157 0.29411 -0.12642
 C376 C -0.10276 0.32971 -0.11271
 N377 N -0.12023 0.34665 -0.08821
 C378 C -0.10871 0.37601 -0.07438
 C379 C -0.07811 0.39024 -0.08556
 C380 C -0.05984 0.37342 -0.11099
 C381 C -0.07201 0.34318 -0.12458
 H382 H -0.09603 0.22347 -0.16365
 H383 H -0.19428 0.26462 -0.13871
 H384 H -0.12361 0.38830 -0.05489
 H385 H -0.03614 0.38363 -0.12039
 H386 H -0.06957 0.27433 -0.14041
 H387 H -0.05783 0.33101 -0.14465
 C388 C 0.11820 0.70735 -0.11517
 C389 C 0.09700 0.73363 -0.12638
 C390 C 0.11125 0.76303 -0.13979
 C391 C 0.14658 0.76651 -0.14207
 C392 C 0.16691 0.74013 -0.12946
 N393 N 0.15242 0.71161 -0.11659
 C394 C 0.10427 0.67499 -0.10237
 N395 N 0.12233 0.65663 -0.07936
 C396 C 0.11120 0.62633 -0.06718
 C397 C 0.08046 0.61266 -0.07864
 C398 C 0.06166 0.63097 -0.10257
 C399 C 0.07340 0.66207 -0.11445
 H400 H 0.09459 0.78311 -0.14830
 H401 H 0.19426 0.74171 -0.13073
 H402 H 0.12651 0.61287 -0.04883
 H403 H 0.03786 0.62125 -0.11218
 H404 H 0.06970 0.73169 -0.12464
 H405 H 0.05879 0.67535 -0.13347
 C406 C -0.11826 0.69721 0.12686
 C407 C -0.09798 0.72301 0.14057
 C408 C -0.11324 0.75200 0.15386
 C409 C -0.14867 0.75549 0.15360
 C410 C -0.16798 0.72921 0.13932
 N411 N -0.15252 0.70125 0.12643
 C412 C -0.10347 0.66594 0.11235
 N413 N -0.12080 0.64911 0.08773
 C414 C -0.10897 0.62007 0.07344
 C415 C -0.07813 0.60608 0.08423
 C416 C -0.06001 0.62276 0.10981
 C417 C -0.07253 0.65267 0.12390
 H418 H -0.09727 0.77194 0.16386
 H419 H -0.19536 0.73058 0.13883
 H420 H -0.12379 0.60787 0.05387
 H421 H -0.03615 0.61272 0.11893
 H422 H -0.07062 0.72127 0.14047
 H423 H -0.05841 0.66473 0.14405
 C424 C 1.13139 0.11734 0.69936
 C425 C 1.16646 0.11771 0.70535
 C426 C 1.17898 0.13273 0.73479
 C427 C 1.15674 0.14737 0.75843
 C428 C 1.12184 0.14664 0.75133
 N429 N 1.11027 0.13200 0.72237
 C430 C 1.11681 0.10229 0.66829
 N431 N 1.08693 0.11458 0.65616
 C432 C 1.07213 0.10218 0.62763
 C433 C 1.08744 0.07562 0.60963
 C434 C 1.11789 0.06212 0.62200
 C435 C 1.13266 0.07536 0.65124
 H436 H 1.20612 0.13344 0.73870
 H437 H 1.10370 0.15731 0.76891
 H438 H 1.04845 0.11307 0.61909
 H439 H 1.13033 0.04137 0.60905
 H440 H 1.18419 0.10732 0.68720
 H441 H 1.15590 0.06421 0.66058
 C442 C 0.87842 -0.11999 0.70366
 C443 C 0.86194 -0.09956 0.72756
 C444 C 0.84867 -0.11410 0.75688
 C445 C 0.85173 -0.14921 0.76309
 C446 C 0.86973 -0.16845 0.73880
 N447 N 0.88215 -0.15361 0.71024
 C448 C 0.89189 -0.10597 0.67152
 N449 N 0.91771 -0.12235 0.65546
 C450 C 0.93105 -0.11107 0.62570
 C451 C 0.91810 -0.08179 0.61024
 C452 C 0.89126 -0.06475 0.62609
 C453 C 0.87805 -0.07674 0.65659
 H454 H 0.83711 -0.09725 0.77514
 H455 H 0.87256 -0.19555 0.74124
 H456 H 0.95168 -0.12501 0.61418
 H457 H 0.88039 -0.04218 0.61489
 H458 H 0.85972 -0.07247 0.72413
 H459 H 0.85682 -0.06354 0.66783
 C460 C 1.11746 -0.12583 0.29528
 C461 C 1.09723 -0.14346 0.27206
 C462 C 1.11162 -0.15619 0.24244
 C463 C 1.14636 -0.15143 0.23524
 C464 C 1.16540 -0.13259 0.25901
 N465 N 1.15072 -0.12069 0.28785
 C466 C 1.10357 -0.11242 0.32750
 N467 N 1.11943 -0.08591 0.34289
 C468 C 1.10820 -0.07245 0.37260
 C469 C 1.07947 -0.08595 0.38868
 C470 C 1.06300 -0.11350 0.37352
 C471 C 1.07496 -0.12685 0.34309
 H472 H 1.09482 -0.16856 0.22469
 H473 H 1.19228 -0.12851 0.25584
 H474 H 1.12171 -0.05128 0.38357
 H475 H 1.04090 -0.12484 0.38522
 H476 H 1.07033 -0.14686 0.27615
 H477 H 1.06221 -0.14861 0.33242
 C478 C 0.88105 0.12874 0.30255
 C479 C 0.88443 0.16315 0.29446
 C480 C 0.86993 0.17571 0.26480
 C481 C 0.85164 0.15427 0.24276
 C482 C 0.84859 0.11990 0.25241
 N483 N 0.86310 0.10835 0.28142
 C484 C 0.89581 0.11403 0.33374
 N485 N 0.88192 0.08528 0.34689
 C486 C 0.89411 0.07026 0.37541
 C487 C 0.92207 0.08415 0.39234
 C488 C 0.93713 0.11344 0.37899
 C489 C 0.92417 0.12841 0.34973
 H490 H 0.87190 0.20266 0.26035
 H491 H 0.83594 0.10162 0.23644
 H492 H 0.88196 0.04750 0.38475
 H493 H 0.95900 0.12475 0.39109
 H494 H 0.89730 0.18059 0.31121
 H495 H 0.93671 0.15057 0.33958
 C496 C 0.12084 0.29892 -0.12897
 C497 C 0.10047 0.27324 -0.14276
 C498 C 0.11559 0.24388 -0.15540
 C499 C 0.15095 0.23993 -0.15441
 C500 C 0.17035 0.26616 -0.14018
 N501 N 0.15503 0.29446 -0.12791
 C502 C 0.10623 0.33044 -0.11489
 N503 N 0.12346 0.34722 -0.09016
 C504 C 0.11177 0.37643 -0.07613
 C505 C 0.08116 0.39064 -0.08727
 C506 C 0.06314 0.37403 -0.11298
 C507 C 0.07553 0.34396 -0.12683
 H508 H 0.09953 0.22402 -0.16539
 H509 H 0.19770 0.26445 -0.13918
 H510 H 0.12649 0.38856 -0.05644
 H511 H 0.03947 0.38425 -0.12238
 H512 H 0.07314 0.27531 -0.14314
 H513 H 0.06151 0.33192 -0.14706
 C514 C -0.12576 0.29687 0.11840
 C515 C -0.15999 0.28832 0.11435
 C516 C -0.17270 0.25912 0.12962
 C517 C -0.15165 0.23802 0.14943
 C518 C -0.11740 0.24793 0.15289
 N519 N -0.10568 0.27651 0.13760
 C520 C -0.11103 0.32792 0.10328
 N521 N -0.08273 0.34164 0.11751
 C522 C -0.06800 0.37033 0.10532
 C523 C -0.08184 0.38695 0.07712
 C524 C -0.11058 0.37296 0.06166
 C525 C -0.12517 0.34347 0.07453
 H526 H -0.19956 0.25433 0.12709
 H527 H -0.09931 0.23259 0.16654
 H528 H -0.04565 0.38016 0.11779
 H529 H -0.12179 0.38477 0.03956
 H530 H -0.17725 0.30444 0.10045
 H531 H -0.14693 0.33289 0.06170
 C532 C -0.12650 0.69978 -0.12137
 C533 C -0.16090 0.70778 -0.11772
 C534 C -0.17358 0.73743 -0.13204
 C535 C -0.15233 0.75960 -0.15045
 C536 C -0.11803 0.74989 -0.15416
 N537 N -0.10630 0.72088 -0.13970
 C538 C -0.11172 0.66873 -0.10636
 N539 N -0.08318 0.65523 -0.12036
 C540 C -0.06840 0.62663 -0.10805
 C541 C -0.08240 0.60991 -0.07993
 C542 C -0.11138 0.62370 -0.06471
 C543 C -0.12604 0.65307 -0.07772
 H544 H -0.20052 0.74194 -0.12970
 H545 H -0.09991 0.76584 -0.16708
 H546 H -0.04584 0.61695 -0.12031
 H547 H -0.12273 0.61182 -0.04270
 H548 H -0.17824 0.69102 -0.10467
 H549 H -0.14798 0.66352 -0.06505
 C550 C 0.11765 0.70216 0.11825
 C551 C 0.09638 0.72781 0.13071
 C552 C 0.11056 0.75747 0.14357
 C553 C 0.14589 0.76179 0.14413
 C554 C 0.16621 0.73594 0.13046
 N555 N 0.15179 0.70721 0.11809
 C556 C 0.10395 0.66977 0.10534
 N557 N 0.12174 0.65236 0.08142
 C558 C 0.11086 0.62222 0.06878
 C559 C 0.08063 0.60771 0.08061
 C560 C 0.06211 0.62496 0.10555
 C561 C 0.07363 0.65596 0.11794
 H562 H 0.09386 0.77710 0.15299
 H563 H 0.19354 0.73811 0.13046
 H564 H 0.12593 0.60960 0.04964
 H565 H 0.03870 0.61456 0.11543
 H566 H 0.06909 0.72526 0.13025
 H567 H 0.05925 0.66850 0.13764
 C568 C 0.29988 1.12504 0.88435
 C569 C 0.27352 1.13814 0.90438
 C570 C 0.24442 1.15088 0.88881
 C571 C 0.24142 1.15066 0.85333
 C572 C 0.26822 1.13692 0.83431
 N573 N 0.29624 1.12459 0.85005
 C574 C 0.33137 1.11121 0.89928
 N575 N 0.34912 1.08750 0.88158
 C576 C 0.37858 1.07400 0.89324
 C577 C 0.39209 1.08469 0.92431
 C578 C 0.37445 1.10930 0.94289
 C579 C 0.34408 1.12259 0.93053
 H580 H 0.22410 1.16047 0.90456
 H581 H 0.26725 1.13651 0.80690
 H582 H 0.39148 1.05513 0.87809
 H583 H 0.38410 1.11828 0.96696
 H584 H 0.27495 1.13802 0.93176
 H585 H 0.33125 1.14204 0.94497
 C586 C 0.29453 0.88117 1.11892
 C587 C 0.26876 0.90203 1.13187
 C588 C 0.23942 0.88742 1.14513
 C589 C 0.23556 0.85206 1.14561
 C590 C 0.26161 0.83216 1.13167
 N591 N 0.28999 0.84699 1.11887
 C592 C 0.32653 0.89535 1.10545
 N593 N 0.34379 0.87801 1.08108
 C594 C 0.37368 0.88931 1.06806
 C595 C 0.38811 0.91949 1.08003
 C596 C 0.37093 0.93758 1.10534
 C597 C 0.34019 0.92567 1.11806
 H598 H 0.21962 0.90383 1.15469
 H599 H 0.25982 0.80480 1.13160
 H600 H 0.38625 0.87456 1.04865
 H601 H 0.38126 0.96093 1.11536
 H602 H 0.27093 0.92935 1.13138
 H603 H 0.32778 0.93971 1.13808
 C604 C 0.70412 1.11527 1.12826
 C605 C 0.73006 1.09519 1.14205
 C606 C 0.75910 1.11067 1.15499
 C607 C 0.76244 1.14609 1.15427
 C608 C 0.73602 1.16517 1.13994
 N609 N 0.70805 1.14951 1.12741
 C610 C 0.67281 1.10040 1.11406
 N611 N 0.65569 1.11787 1.08973
 C612 C 0.62645 1.10620 1.07580
 C613 C 0.61253 1.07536 1.08668
 C614 C 0.62953 1.05703 1.11193
 C615 C 0.65966 1.06941 1.12566
 H616 H 0.77914 1.09490 1.16510
 H617 H 0.73730 1.19254 1.13913
 H618 H 0.61403 1.12117 1.05647
 H619 H 0.61951 1.03317 1.12111
 H620 H 0.72839 1.06784 1.14228
 H621 H 0.67197 1.05518 1.14560
 C622 C 0.70408 0.88184 0.87901
 C623 C 0.73059 0.90251 0.86732
 C624 C 0.75969 0.88766 0.85380
 C625 C 0.76255 0.85226 0.85187
 C626 C 0.73573 0.83251 0.86452
 N627 N 0.70763 0.84757 0.87759
 C628 C 0.67236 0.89625 0.89281
 N629 N 0.65432 0.87814 0.91605
 C630 C 0.62462 0.88960 0.92931
 C631 C 0.61123 0.92079 0.91880
 C632 C 0.62921 0.93971 0.89466
 C633 C 0.65974 0.92759 0.88165
 H634 H 0.78007 0.90388 0.84515
 H635 H 0.73672 0.80514 0.86337
 H636 H 0.61141 0.87421 0.94780
 H637 H 0.61968 0.96386 0.88578
 H638 H 0.72920 0.92983 0.86897
 H639 H 0.67280 0.94230 0.86252
   
