data_POSCAR
  _audit_creation_date              2014-09-24
  _audit_creation_method            'ToBaCCo'
  _symmetry_space_group_name_H-M    'P1'
  _symmetry_Int_Tables_number       1
  _symmetry_cell_setting            triclinic
  loop_
  _symmetry_equiv_pos_as_xyz
 x,y,z
_cell_length_a 34.3981
_cell_length_b 34.0044
_cell_length_c 59.4978
_cell_angle_alpha 91.364400
_cell_angle_beta 92.571300
_cell_angle_gamma 90.657600
loop_
  _atom_site_label
  _atom_site_type_symbol
  _atom_site_fract_x
  _atom_site_fract_y
  _atom_site_fract_z
C1 C -0.01598 0.41686 1.01857
 C2 C -0.02113 0.39773 0.99744
 C3 C -0.01964 0.41804 0.97737
 C4 C -0.01479 0.45936 0.97807
 C5 C -0.01040 0.47979 0.99911
 C6 C -0.01112 0.45861 1.01944
 C7 C -0.00936 0.48011 1.03996
 C8 C -0.00480 0.52073 1.04064
 C9 C -0.00454 0.54244 1.02082
 C10 C -0.00612 0.52162 0.99979
 C11 C -0.01592 0.48089 0.95824
 C12 C -0.01095 0.52148 0.95890
 C13 C -0.00408 0.54244 0.97941
 C14 C 0.00191 0.58396 0.98016
 C15 C 0.00294 0.60377 1.00116
 C16 C -0.00123 0.58421 1.02144
 H17 H -0.01224 0.46608 1.05589
 H18 H -0.00123 0.53474 1.05710
 H19 H -0.02144 0.46663 0.94194
 H20 H -0.01381 0.53623 0.94304
 H21 H -0.02373 0.36590 0.99643
 H22 H 0.00663 0.63549 1.00172
 C23 C 0.42165 0.00433 0.52091
 C24 C 0.40090 0.01093 0.50063
 C25 C 0.41951 0.01282 0.48027
 C26 C 0.46043 0.00905 0.48012
 C27 C 0.48201 0.00243 0.50056
 C28 C 0.46247 -0.00056 0.52096
 C29 C 0.48400 -0.00996 0.54066
 C30 C 0.52410 -0.01471 0.54058
 C31 C 0.54471 -0.00918 0.52093
 C32 C 0.52311 -0.00198 0.50052
 C33 C 0.48031 0.01178 0.46009
 C34 C 0.52035 0.00682 0.45997
 C35 C 0.54230 -0.00008 0.47995
 C36 C 0.58283 -0.00615 0.47981
 C37 C 0.60371 -0.01335 0.49993
 C38 C 0.58587 -0.01362 0.52073
 H39 H 0.46995 -0.01463 0.55630
 H40 H 0.53851 -0.02391 0.55605
 H41 H 0.46509 0.01761 0.44424
 H42 H 0.53385 0.00814 0.44392
 H43 H 0.36954 0.01404 0.50064
 H44 H 0.63504 -0.01617 0.49937
 C45 C 0.06558 0.01574 0.26060
 H46 H 0.06683 0.01402 0.24247
 C47 C 0.09996 0.01925 0.27399
 H48 H 0.12764 0.02031 0.26604
 C49 C 0.02787 0.01753 0.29296
 H50 H -0.00021 0.01738 0.30034
 C51 C 0.06141 0.02121 0.30694
 H52 H 0.05866 0.02292 0.32499
 N53 N 0.03049 0.01435 0.27025
 C54 C -0.04993 -0.04656 0.22203
 H55 H -0.07402 -0.02639 0.22232
 C56 C -0.05262 -0.08038 0.20829
 H57 H -0.07911 -0.08624 0.19818
 C58 C 0.01368 -0.06334 0.23509
 H59 H 0.03941 -0.05668 0.24560
 C60 C 0.01225 -0.09753 0.22156
 H61 H 0.03735 -0.11644 0.22151
 Zn62 Zn -0.01539 0.00988 0.25144
 N63 N -0.01683 -0.03821 0.23467
 C64 C -0.01701 0.04579 0.20899
 N65 N -0.01578 0.05270 0.23162
 C66 C -0.01314 0.08999 0.24042
 C67 C -0.01266 0.12219 0.22625
 C68 C -0.01670 0.07703 0.19425
 C69 C -0.06448 -0.02096 0.28266
 C70 C -0.09557 -0.02242 0.29687
 C71 C -0.11735 0.03985 0.28254
 C72 C -0.08574 0.04012 0.26857
 N73 N -0.05969 0.01032 0.26921
 H74 H -0.01783 0.01603 0.20226
 H75 H -0.01149 0.09467 0.25849
 H76 H -0.01118 0.15168 0.23353
 H77 H -0.01736 0.07082 0.17630
 H78 H -0.04367 -0.04458 0.28254
 H79 H -0.09872 -0.04753 0.30752
 H80 H -0.13719 0.06435 0.28228
 H81 H -0.08188 0.06435 0.25744
 C82 C -0.02100 -0.10608 0.20764
 C83 C 0.09809 0.02195 0.29751
 C84 C -0.12226 0.00851 0.29716
 C85 C -0.01471 0.11587 0.20280
 C86 C 0.01182 0.06917 0.75897
 H87 H 0.01102 0.07122 0.74084
 C88 C 0.00707 0.10293 0.77239
 H89 H 0.00256 0.13093 0.76445
 C90 C 0.01707 0.02983 0.79128
 H91 H 0.02029 0.00127 0.79862
 C92 C 0.01234 0.06273 0.80529
 H93 H 0.01291 0.05911 0.82334
 N94 N 0.01700 0.03358 0.76857
 C95 C 0.07379 -0.04133 0.71963
 H96 H 0.05502 -0.06703 0.72000
 C97 C 0.10537 -0.04125 0.70573
 H98 H 0.11095 -0.06726 0.69558
 C99 C 0.08936 0.02355 0.73273
 H100 H 0.08309 0.04869 0.74332
 C101 C 0.12132 0.02490 0.71904
 H102 H 0.13895 0.05147 0.71898
 Zn103 Zn 0.02097 -0.01162 0.74959
 N104 N 0.06590 -0.00896 0.73241
 C105 C -0.02129 -0.01466 0.70751
 N106 N -0.02433 -0.01409 0.73023
 C107 C -0.05969 -0.01372 0.73959
 C108 C -0.09385 -0.01496 0.72594
 C109 C -0.05463 -0.01600 0.69326
 C110 C 0.05763 -0.06106 0.78057
 C111 C 0.06182 -0.09320 0.79460
 C112 C -0.00060 -0.11803 0.77998
 C113 C -0.00359 -0.08539 0.76622
 N114 N 0.02496 -0.05731 0.76711
 H115 H 0.00695 -0.01373 0.70033
 H116 H -0.06130 -0.01260 0.75771
 H117 H -0.12172 -0.01531 0.73369
 H118 H -0.05155 -0.01610 0.67523
 H119 H 0.08019 -0.03862 0.78065
 H120 H 0.08793 -0.09546 0.80533
 H121 H -0.02424 -0.13937 0.77957
 H122 H -0.02897 -0.08235 0.75508
 C123 C 0.12932 -0.00761 0.70505
 C124 C 0.00714 0.09989 0.79590
 C125 C 0.03220 -0.12198 0.79465
 C126 C -0.09154 -0.01635 0.70243
 C127 C 0.02057 -0.33616 0.06460
 C128 C -0.00913 -0.34211 0.07948
 C129 C -0.03582 -0.37311 0.07546
 C130 C -0.03290 -0.39800 0.05655
 C131 C -0.00293 -0.39247 0.04144
 C132 C 0.02353 -0.36087 0.04570
 C133 C -0.01290 -0.31518 0.09826
 C134 C -0.01554 -0.29151 0.11350
 C135 C -0.01810 -0.26255 0.13073
 C136 C -0.01993 -0.23681 0.14491
 C137 C -0.02175 -0.20489 0.16114
 C138 C -0.03850 -0.16936 0.15472
 C139 C -0.03872 -0.13748 0.16995
 C140 C -0.02214 -0.14067 0.19188
 C141 C -0.00575 -0.17669 0.19828
 C142 C -0.00555 -0.20859 0.18298
 H143 H 0.04127 -0.31211 0.06748
 H144 H -0.05933 -0.37757 0.08668
 H145 H -0.05496 -0.42065 0.05331
 H146 H 0.04701 -0.35560 0.03456
 H147 H -0.05086 -0.16608 0.13780
 H148 H -0.05098 -0.11001 0.16436
 H149 H 0.00687 -0.18020 0.21510
 H150 H 0.00754 -0.23597 0.18812
 C151 C -0.04074 0.33789 0.05821
 C152 C -0.01124 0.34296 0.07499
 C153 C 0.01682 0.37269 0.07319
 C154 C 0.01523 0.39743 0.05471
 C155 C -0.01483 0.39314 0.03785
 C156 C -0.04238 0.36247 0.03974
 C157 C -0.00955 0.31683 0.09368
 C158 C -0.00901 0.29402 0.10888
 C159 C -0.00932 0.26624 0.12613
 C160 C -0.01029 0.24159 0.14033
 C161 C -0.01221 0.21103 0.15658
 C162 C 0.01161 0.21265 0.17630
 C163 C 0.01043 0.18201 0.19158
 C164 C -0.01450 0.14934 0.18723
 C165 C -0.03869 0.14835 0.16751
 C166 C -0.03751 0.17896 0.15232
 H167 H -0.06248 0.31480 0.05936
 H168 H 0.04021 0.37643 0.08590
 H169 H 0.03822 0.41914 0.05326
 H170 H -0.06584 0.35801 0.02714
 H171 H 0.03138 0.23730 0.17973
 H172 H 0.02967 0.18342 0.20649
 H173 H -0.05861 0.12390 0.16386
 H174 H -0.05615 0.17746 0.13715
 C175 C 0.34721 -0.02765 0.56182
 C176 C 0.35268 0.00081 0.57910
 C177 C 0.38174 0.02975 0.57773
 C178 C 0.40492 0.03048 0.55900
 C179 C 0.39925 0.00217 0.54154
 C180 C 0.37029 -0.02693 0.54312
 C181 C 0.32718 0.00109 0.59764
 C182 C 0.30470 0.00090 0.61261
 C183 C 0.27714 0.00016 0.62947
 C184 C 0.25261 -0.00094 0.64329
 C185 C 0.22215 -0.00284 0.65907
 C186 C 0.22764 0.01348 0.68082
 C187 C 0.19756 0.01187 0.69588
 C188 C 0.16164 -0.00616 0.68934
 C189 C 0.15653 -0.02249 0.66743
 C190 C 0.18657 -0.02083 0.65245
 H191 H 0.32467 -0.05003 0.56265
 H192 H 0.38605 0.05207 0.59093
 H193 H 0.42679 0.05344 0.55789
 H194 H 0.36535 -0.04880 0.52972
 H195 H 0.25510 0.02746 0.68613
 H196 H 0.20251 0.02437 0.71269
 H197 H 0.12905 -0.03598 0.66174
 H198 H 0.18193 -0.03339 0.63562
 C199 C -0.33235 -0.04364 0.55980
 C200 C -0.33690 -0.01799 0.57817
 C201 C -0.36787 0.00833 0.57789
 C202 C -0.39401 0.00923 0.55920
 C203 C -0.38976 -0.01646 0.54049
 C204 C -0.35830 -0.04277 0.54111
 C205 C -0.30852 -0.01760 0.59671
 C206 C -0.28368 -0.01752 0.61165
 C207 C -0.25342 -0.01771 0.62848
 C208 C -0.22666 -0.01808 0.64226
 C209 C -0.19366 -0.01877 0.65799
 C210 C -0.19261 0.00487 0.67760
 C211 C -0.15965 0.00529 0.69228
 C212 C -0.12726 -0.01785 0.68744
 C213 C -0.12888 -0.04191 0.66784
 C214 C -0.16183 -0.04232 0.65324
 H215 H -0.30837 -0.06403 0.55980
 H216 H -0.37129 0.02879 0.59188
 H217 H -0.41649 0.03127 0.55899
 H218 H -0.35401 -0.06315 0.52719
 H219 H -0.21703 0.02336 0.68139
 H220 H -0.15911 0.02441 0.70710
 H221 H -0.10466 -0.06048 0.66382
 H222 H -0.16234 -0.06077 0.63812
 C223 C 0.03855 -0.38134 0.92556
 C224 C 0.01877 -0.34582 0.92336
 C225 C -0.00663 -0.33384 0.93980
 C226 C -0.01235 -0.35716 0.95837
 C227 C 0.00691 -0.39335 0.96077
 C228 C 0.03284 -0.40487 0.94416
 C229 C 0.02468 -0.32092 0.90455
 C230 C 0.02863 -0.29873 0.88930
 C231 C 0.03219 -0.27136 0.87203
 C232 C 0.03441 -0.24688 0.85780
 C233 C 0.03613 -0.21645 0.84145
 C234 C 0.02211 -0.22353 0.81926
 C235 C 0.02147 -0.19305 0.80386
 C236 C 0.03480 -0.15505 0.81051
 C237 C 0.04942 -0.14846 0.83277
 C238 C 0.05004 -0.17895 0.84811
 H239 H 0.05871 -0.39064 0.91307
 H240 H -0.02205 -0.30635 0.93828
 H241 H -0.03272 -0.34726 0.97060
 H242 H 0.04958 -0.43150 0.94589
 H243 H 0.01119 -0.25244 0.81394
 H244 H 0.01047 -0.19916 0.78679
 H245 H 0.05933 -0.11946 0.83854
 H246 H 0.06066 -0.17306 0.86529
 C247 C -0.05221 0.34410 0.93158
 C248 C -0.01966 0.34339 0.91826
 C249 C 0.01203 0.36863 0.92362
 C250 C 0.01150 0.39393 0.94247
 C251 C -0.02083 0.39434 0.95609
 C252 C -0.05277 0.36939 0.95044
 C253 C -0.01772 0.31493 0.90005
 C254 C -0.01572 0.29014 0.88534
 C255 C -0.01305 0.26005 0.86875
 C256 C -0.01056 0.23348 0.85513
 C257 C -0.00744 0.20072 0.83957
 C258 C 0.01527 0.20381 0.82073
 C259 C 0.01962 0.17120 0.80629
 C260 C 0.00143 0.13505 0.81062
 C261 C -0.02178 0.13248 0.82942
 C262 C -0.02614 0.16507 0.84378
 H263 H -0.07675 0.32446 0.92770
 H264 H 0.03751 0.36806 0.91356
 H265 H 0.03669 0.41245 0.94681
 H266 H -0.07775 0.36900 0.96089
 H267 H 0.03002 0.23122 0.81737
 H268 H 0.03795 0.17399 0.79207
 H269 H -0.03666 0.10526 0.83300
 H270 H -0.04381 0.16235 0.85830
 C271 C -0.35260 -0.03552 0.43263
 C272 C -0.34764 0.00037 0.42199
 C273 C -0.36671 0.03390 0.42975
 C274 C -0.39022 0.03164 0.44827
 C275 C -0.39497 -0.00424 0.45910
 C276 C -0.37606 -0.03780 0.45113
 C277 C -0.32134 0.00307 0.40393
 C278 C -0.29836 0.00489 0.38928
 C279 C -0.27038 0.00650 0.37268
 C280 C -0.24559 0.00740 0.35901
 C281 C -0.21494 0.00789 0.34332
 C282 C -0.22195 0.02082 0.32136
 C283 C -0.19186 0.02111 0.30628
 C284 C -0.15442 0.00835 0.31300
 C285 C -0.14774 -0.00448 0.33514
 C286 C -0.17779 -0.00470 0.35015
 H287 H -0.33775 -0.06157 0.42687
 H288 H -0.36281 0.06189 0.42177
 H289 H -0.40413 0.05794 0.45445
 H290 H -0.37909 -0.06558 0.45946
 H291 H -0.25064 0.03058 0.31589
 H292 H -0.19800 0.03079 0.28929
 H293 H -0.11912 -0.01385 0.34095
 H294 H -0.17199 -0.01462 0.36714
 C295 C 0.34600 0.05371 0.43804
 C296 C 0.34284 0.02298 0.42194
 C297 C 0.36596 -0.01040 0.42447
 C298 C 0.39173 -0.01330 0.44320
 C299 C 0.39474 0.01729 0.45950
 C300 C 0.37176 0.05084 0.45677
 C301 C 0.31429 0.02475 0.40357
 C302 C 0.28950 0.02592 0.38863
 C303 C 0.25948 0.02695 0.37170
 C304 C 0.23299 0.02755 0.35775
 C305 C 0.20034 0.02796 0.34177
 C306 C 0.19960 0.00352 0.32248
 C307 C 0.16668 0.00218 0.30776
 C308 C 0.13403 0.02515 0.31226
 C309 C 0.13543 0.05021 0.33145
 C310 C 0.16835 0.05155 0.34609
 H311 H 0.32803 0.07952 0.43635
 H312 H 0.36349 -0.03449 0.41223
 H313 H 0.40876 -0.03967 0.44525
 H314 H 0.37341 0.07449 0.46931
 H315 H 0.22414 -0.01503 0.31903
 H316 H 0.16631 -0.01769 0.29326
 H317 H 0.11099 0.06868 0.33518
 H318 H 0.16861 0.07059 0.36096
   
