data_POSCAR
  _audit_creation_date              2014-09-24
  _audit_creation_method            'ToBaCCo'
  _symmetry_space_group_name_H-M    'P1'
  _symmetry_Int_Tables_number       1
  _symmetry_cell_setting            triclinic
  loop_
  _symmetry_equiv_pos_as_xyz
 x,y,z
_cell_length_a 29.1261
_cell_length_b 30.3123
_cell_length_c 29.2918
_cell_angle_alpha 89.091700
_cell_angle_beta 90.008200
_cell_angle_gamma 89.185900
loop_
  _atom_site_label
  _atom_site_type_symbol
  _atom_site_fract_x
  _atom_site_fract_y
  _atom_site_fract_z
N1 N 0.62348 0.63362 0.64773
 N2 N 0.87210 0.36504 0.15175
 N3 N 0.37956 0.12748 -0.14331
 N4 N 0.12072 0.86678 0.35837
 N5 N 0.06759 0.19069 0.09748
 N6 N 0.04685 0.16672 0.12884
 C7 C 0.01189 0.19031 0.14660
 C8 C 0.01037 0.23121 0.12497
 C9 C 0.04614 0.23024 0.09384
 H10 H -0.01057 0.17860 0.17342
 H11 H 0.05657 0.25681 0.07125
 Cu12 Cu 0.06756 0.10729 0.14459
 Cu13 Cu 0.12223 0.16954 0.06566
 Cu14 Cu 0.16959 0.07105 0.10581
 N15 N 0.09873 0.05652 0.17215
 N16 N 0.13930 0.04331 0.15786
 C17 C 0.15333 0.00833 0.18332
 C18 C 0.11960 -0.00111 0.21522
 C19 C 0.08528 0.03013 0.20688
 H20 H 0.18522 -0.00958 0.17818
 H21 H 0.05301 0.03370 0.22468
 N22 N 0.19489 0.10408 0.05341
 N23 N 0.17741 0.14204 0.03848
 C24 C 0.20259 0.15650 0.00280
 C25 C 0.23719 0.12587 -0.00535
 C26 C 0.23117 0.09309 0.02732
 H27 H 0.19576 0.18662 -0.01643
 H28 H 0.25195 0.06359 0.03203
 H29 H 0.11341 0.10252 0.07520
 H30 H 0.14291 0.13268 0.12193
 N31 N 0.43925 0.81891 0.58705
 N32 N 0.45926 0.84042 0.61997
 C33 C 0.49282 0.81488 0.63841
 C34 C 0.49443 0.77540 0.61525
 C35 C 0.45994 0.77922 0.58283
 H36 H 0.51400 0.82439 0.66676
 H37 H 0.44936 0.75420 0.55928
 Cu38 Cu 0.43897 0.89933 0.63611
 Cu39 Cu 0.38507 0.84220 0.55541
 Cu40 Cu 0.33876 0.94016 0.59564
 N41 N 0.40902 0.94988 0.66350
 N42 N 0.36947 0.96538 0.64823
 C43 C 0.35499 0.99813 0.67549
 C44 C 0.38743 1.00366 0.70953
 C45 C 0.42124 0.97234 0.70069
 H46 H 0.32270 1.01571 0.67141
 H47 H 0.45150 0.96494 0.72093
 N48 N 0.31321 0.90902 0.54285
 N49 N 0.33039 0.87124 0.52831
 C50 C 0.30350 0.85623 0.49477
 C51 C 0.26787 0.88614 0.48735
 C52 C 0.27525 0.91931 0.51839
 H53 H 0.30898 0.82526 0.47781
 H54 H 0.25327 0.94769 0.52425
 H55 H 0.39445 0.90894 0.56602
 H56 H 0.36316 0.87755 0.61148
 N57 N 0.91890 0.69832 0.39182
 N58 N 0.93464 0.67904 0.35503
 C59 C 0.97124 0.70134 0.33941
 C60 C 0.97909 0.73631 0.36815
 C61 C 0.94520 0.73318 0.40115
 H62 H 0.99187 0.69174 0.31046
 H63 H 0.94038 0.75409 0.43030
 Cu64 Cu 0.90837 0.62468 0.33300
 Cu65 Cu 0.86669 0.67591 0.42589
 Cu66 Cu 0.82038 0.57791 0.38979
 N67 N 0.88325 0.56840 0.31505
 N68 N 0.84803 0.55104 0.33641
 C69 C 0.83747 0.51269 0.31675
 C70 C 0.86800 0.50524 0.28140
 C71 C 0.89679 0.54122 0.28153
 H72 H 0.81047 0.49109 0.32828
 H73 H 0.92547 0.54724 0.25907
 N74 N 0.79705 0.61006 0.44306
 N75 N 0.81382 0.64808 0.45598
 C76 C 0.79071 0.66178 0.49307
 C77 C 0.75813 0.63069 0.50441
 C78 C 0.76334 0.59823 0.47204
 H79 H 0.79811 0.69145 0.51152
 H80 H 0.74425 0.56809 0.46979
 H81 H 0.87891 0.61052 0.40967
 H82 H 0.83702 0.64215 0.37300
 N83 N 0.57477 0.30067 -0.10087
 N84 N 0.55855 0.32033 -0.13790
 C85 C 0.52381 0.29642 -0.15446
 C86 C 0.51751 0.26016 -0.12587
 C87 C 0.55055 0.26402 -0.09224
 H88 H 0.50459 0.30486 -0.18495
 H89 H 0.55734 0.24119 -0.06425
 Cu90 Cu 0.58427 0.37542 -0.16056
 Cu91 Cu 0.62732 0.32279 -0.06763
 Cu92 Cu 0.67350 0.42104 -0.10673
 N93 N 0.60938 0.43164 -0.18074
 N94 N 0.64519 0.44845 -0.16044
 C95 C 0.65613 0.48661 -0.18150
 C96 C 0.62530 0.49452 -0.21674
 C97 C 0.59588 0.45900 -0.21504
 H98 H 0.68374 0.50770 -0.17110
 H99 H 0.56691 0.45334 -0.23706
 N100 N 0.69738 0.38839 -0.05292
 N101 N 0.68053 0.35044 -0.03864
 C102 C 0.70410 0.33648 -0.00145
 C103 C 0.73708 0.36733 0.00849
 C104 C 0.73160 0.39989 -0.02479
 H105 H 0.69680 0.30679 0.01797
 H106 H 0.75080 0.42995 -0.02818
 H107 H 0.61545 0.38838 -0.08478
 H108 H 0.65626 0.35694 -0.12168
 C109 C -0.06218 0.33463 0.10843
 C110 C -0.09043 0.33415 0.14703
 C111 C -0.07944 0.30394 0.18247
 C112 C -0.04544 0.27110 0.17611
 C113 C -0.02118 0.26854 0.13447
 C114 C -0.02811 0.30283 0.10251
 C115 C -0.03604 0.30157 0.05220
 C116 C -0.07337 0.33654 0.05873
 H117 H -0.09899 0.30419 0.21390
 H118 H -0.03951 0.24687 0.20306
 H119 H -0.04947 0.26933 0.04098
 H120 H -0.00610 0.31390 0.03251
 H121 H -0.10827 0.32448 0.05083
 H122 H -0.06476 0.36893 0.04288
 C123 C 0.57158 0.69173 0.67639
 C124 C 0.58632 0.66472 0.64095
 C125 C 0.56503 0.67029 0.59806
 C126 C 0.53363 0.70537 0.59015
 C127 C 0.52396 0.73620 0.62463
 C128 C 0.54176 0.72710 0.66831
 C129 C 0.56713 0.75554 0.70074
 C130 C 0.59931 0.71649 0.70986
 H131 H 0.57432 0.64881 0.57026
 H132 H 0.51936 0.70989 0.55625
 H133 H 0.54595 0.76444 0.73088
 H134 H 0.58445 0.78363 0.68338
 H135 H 0.59623 0.70252 0.74502
 H136 H 0.63505 0.72210 0.69800
 C137 C 1.06676 0.82091 0.40256
 C138 C 1.08860 0.83115 0.36136
 C139 C 1.07836 0.80529 0.32324
 C140 C 1.04358 0.77349 0.32570
 C141 C 1.01781 0.76742 0.36613
 C142 C 1.03188 0.79028 0.40482
 C143 C 1.00516 0.81765 0.43783
 C144 C 1.04374 0.85083 0.43554
 H145 H 1.09610 0.81077 0.29122
 H146 H 1.03542 0.75547 0.29523
 H147 H 1.00217 0.80117 0.47185
 H148 H 0.97235 0.83069 0.42319
 H149 H 1.06328 0.85304 0.46800
 H150 H 1.03324 0.88303 0.41981
 C151 C 0.43334 0.18057 -0.17761
 C152 C 0.41714 0.15745 -0.13943
 C153 C 0.43898 0.16414 -0.09729
 C154 C 0.47272 0.19665 -0.09315
 C155 C 0.48462 0.22375 -0.13089
 C156 C 0.46576 0.21340 -0.17340
 C157 C 0.44207 0.24194 -0.20850
 C158 C 0.40698 0.20567 -0.21325
 H159 H 0.42876 0.14534 -0.06733
 H160 H 0.48748 0.20207 -0.05984
 H161 H 0.46335 0.24671 -0.23964
 H162 H 0.42727 0.27270 -0.19399
 H163 H 0.40839 0.18921 -0.24687
 H164 H 0.37199 0.21544 -0.20163
 C165 C 0.07927 -0.08618 0.30220
 C166 C 0.12042 -0.10405 0.31916
 C167 C 0.16140 -0.09229 0.29688
 C168 C 0.16100 -0.05986 0.26189
 C169 C 0.11972 -0.03793 0.24908
 C170 C 0.07888 -0.05352 0.26845
 C171 C 0.03998 -0.02947 0.29084
 C172 C 0.04037 -0.06555 0.32744
 H173 H 0.19380 -0.10689 0.30779
 H174 H 0.19339 -0.05032 0.24690
 H175 H 0.00832 -0.02919 0.26963
 H176 H 0.05009 0.00320 0.30402
 H177 H 0.00923 -0.08632 0.32705
 H178 H 0.05064 -0.05373 0.36166
 C179 C 0.58243 0.58177 -0.30144
 C180 C 0.62268 0.60349 -0.31380
 C181 C 0.66265 0.59370 -0.28831
 C182 C 0.66302 0.55935 -0.25535
 C183 C 0.62368 0.53348 -0.24787
 C184 C 0.58302 0.54716 -0.26985
 C185 C 0.54870 0.52202 -0.29662
 C186 C 0.54777 0.56029 -0.33078
 H187 H 0.69408 0.61117 -0.29543
 H188 H 0.69495 0.55139 -0.23801
 H189 H 0.51576 0.51812 -0.27795
 H190 H 0.56336 0.49120 -0.31113
 H191 H 0.51454 0.57878 -0.33133
 H192 H 0.56152 0.55148 -0.36488
 C193 C 0.34165 1.08322 0.79798
 C194 C 0.38096 1.09379 0.82261
 C195 C 0.42165 1.06989 0.81350
 C196 C 0.42353 1.03977 0.77744
 C197 C 0.38487 1.03323 0.74930
 C198 C 0.34357 1.05402 0.76196
 C199 C 0.31026 1.08145 0.73448
 C200 C 0.30806 1.11307 0.77420
 H201 H 0.45234 1.07561 0.83327
 H202 H 0.45592 1.02337 0.77046
 H203 H 0.27740 1.06414 0.72883
 H204 H 0.32603 1.09611 0.70328
 H205 H 0.27417 1.11360 0.79164
 H206 H 0.32243 1.14605 0.76604
 C207 C 0.91228 0.41776 0.20059
 C208 C 0.87232 0.39560 0.18885
 C209 C 0.83204 0.40533 0.21355
 C210 C 0.83110 0.43994 0.24508
 C211 C 0.87016 0.46616 0.25179
 C212 C 0.91111 0.45265 0.23069
 C213 C 0.94538 0.47785 0.20310
 C214 C 0.94696 0.43927 0.17061
 H215 H 0.80082 0.38756 0.20690
 H216 H 0.79899 0.44781 0.26186
 H217 H 0.97813 0.48225 0.22186
 H218 H 0.93053 0.50838 0.18715
 H219 H 0.98037 0.42108 0.17112
 H220 H 0.93341 0.44761 0.13603
 C221 C 0.32717 0.08960 -0.08979
 C222 C 0.34301 0.12815 -0.11028
 C223 C 0.32195 0.16796 -0.09588
 C224 C 0.28676 0.16754 -0.06219
 C225 C 0.27261 0.12738 -0.04137
 C226 C 0.29450 0.08925 -0.05674
 C227 C 0.29758 0.04039 -0.05036
 C228 C 0.33483 0.04101 -0.08765
 H229 H 0.33258 0.19915 -0.11064
 H230 H 0.27151 0.19859 -0.05190
 H231 H 0.26555 0.02382 -0.06085
 H232 H 0.31115 0.03049 -0.01618
 H233 H 0.32434 0.02468 -0.11964
 H234 H 0.36966 0.03195 -0.07479
 C235 C 0.67771 0.59299 0.59869
 C236 C 0.66137 0.63279 0.61626
 C237 C 0.68227 0.67199 0.60115
 C238 C 0.71509 0.67116 0.56584
 C239 C 0.72685 0.63122 0.54424
 C240 C 0.70919 0.59219 0.56313
 C241 C 0.68560 0.55445 0.54125
 C242 C 0.65151 0.55530 0.58049
 H243 H 0.67174 0.70334 0.61526
 H244 H 0.72898 0.70212 0.55374
 H245 H 0.70742 0.52407 0.54115
 H246 H 0.66970 0.56368 0.50786
 H247 H 0.65395 0.52567 0.60326
 H248 H 0.61612 0.56495 0.56968
 C249 C 0.81885 0.40524 0.10019
 C250 C 0.83463 0.36558 0.11981
 C251 C 0.81296 0.32645 0.10697
 C252 C 0.78001 0.32711 0.07170
 C253 C 0.76879 0.36681 0.04803
 C254 C 0.78725 0.40585 0.06475
 C255 C 0.81136 0.44282 0.04084
 C256 C 0.84554 0.44224 0.08001
 H257 H 0.82298 0.29527 0.12282
 H258 H 0.76547 0.29618 0.06134
 H259 H 0.79001 0.47349 0.03918
 H260 H 0.82700 0.43273 0.00791
 H261 H 0.84354 0.47227 0.10125
 H262 H 0.88077 0.43200 0.06965
 C263 C 0.17755 0.83518 0.41233
 C264 C 0.15402 0.87186 0.39416
 C265 C 0.16426 0.91357 0.41176
 C266 C 0.20050 0.91822 0.44322
 C267 C 0.22779 0.88139 0.45681
 C268 C 0.21390 0.83979 0.44234
 C269 C 0.24033 0.80304 0.42057
 C270 C 0.20011 0.79789 0.38816
 H271 H 0.14539 0.94258 0.39994
 H272 H 0.20860 0.95092 0.45483
 H273 H 0.24524 0.77424 0.44412
 H274 H 0.27197 0.81452 0.40306
 H275 H 0.18150 0.76646 0.39344
 H276 H 0.20846 0.80624 0.35202
   
