data_POSCAR
  _audit_creation_date              2014-09-24
  _audit_creation_method            'ToBaCCo'
  _symmetry_space_group_name_H-M    'P1'
  _symmetry_Int_Tables_number       1
  _symmetry_cell_setting            triclinic
  loop_
  _symmetry_equiv_pos_as_xyz
 x,y,z
_cell_length_a 33.2521
_cell_length_b 33.4552
_cell_length_c 14.5320
_cell_angle_alpha 89.913200
_cell_angle_beta 90.038800
_cell_angle_gamma 119.905600
loop_
  _atom_site_label
  _atom_site_type_symbol
  _atom_site_fract_x
  _atom_site_fract_y
  _atom_site_fract_z
C1 C 0.46102 0.87732 0.49706
 C2 C 0.47651 0.90148 0.58081
 C3 C 0.49568 0.94968 0.57993
 C4 C 0.49587 0.97358 0.49949
 C5 C 0.47689 0.94758 0.41859
 C6 C 0.46135 0.90026 0.41607
 C7 C 0.51454 1.02495 0.50017
 C8 C 0.52822 1.05076 0.41767
 C9 C 0.54300 1.09815 0.41620
 C10 C 0.54823 1.12103 0.50045
 C11 C 0.53794 1.09684 0.58399
 C12 C 0.51955 1.04897 0.58303
 H13 H 0.44525 0.84027 0.49456
 H14 H 0.51022 0.96810 0.64330
 H15 H 0.47346 0.96351 0.35661
 H16 H 0.52753 1.03426 0.35334
 H17 H 0.56401 1.15812 0.50228
 H18 H 0.50969 1.03117 0.64828
 C19 C 0.12209 0.58274 0.49456
 C20 C 0.09935 0.56440 0.57896
 C21 C 0.05158 0.53203 0.57786
 C22 C 0.02545 0.52047 0.49575
 C23 C 0.04925 0.54034 0.41297
 C24 C 0.09738 0.56974 0.41141
 C25 C -0.02598 0.48699 0.49636
 C26 C -0.04935 0.46279 0.41605
 C27 C -0.09760 0.43257 0.41494
 C28 C -0.12229 0.42354 0.49829
 C29 C -0.09984 0.44665 0.57927
 C30 C -0.05246 0.47935 0.57700
 H31 H 0.15940 0.60391 0.49197
 H32 H 0.03502 0.51572 0.64200
 H33 H 0.03099 0.53291 0.34817
 H34 H -0.03037 0.46709 0.35305
 H35 H -0.15949 0.40144 0.50029
 H36 H -0.03678 0.49887 0.63888
 C37 C 0.41834 0.54293 0.50522
 C38 C 0.42723 0.52697 0.58830
 C39 C 0.45623 0.50758 0.58629
 C40 C 0.47960 0.50733 0.50535
 C41 C 0.47204 0.52622 0.42471
 C42 C 0.44039 0.54234 0.42342
 C43 C 0.51207 0.48811 0.50558
 C44 C 0.52313 0.47319 0.42339
 C45 C 0.55373 0.45570 0.42324
 C46 C 0.57124 0.45001 0.50712
 C47 C 0.55929 0.46273 0.59011
 C48 C 0.53135 0.48311 0.58848
 H49 H 0.39725 0.55915 0.50402
 H50 H 0.46017 0.49265 0.64921
 H51 H 0.49084 0.52901 0.36215
 H52 H 0.50761 0.47425 0.35873
 H53 H 0.59145 0.43277 0.50837
 H54 H 0.52474 0.49450 0.65330
 O55 O 0.37333 0.62009 -0.07980
 O56 O 0.40901 0.70742 -0.11500
 C57 C 0.40498 0.74197 -0.13546
 O58 O 0.38010 0.75383 -0.08951
 O59 O 0.29135 0.70074 -0.11604
 C60 C 0.25657 0.66142 -0.13145
 O61 O 0.24547 0.62665 -0.08003
 O62 O 0.29760 0.59038 -0.10569
 C63 C 0.33655 0.59457 -0.12522
 O64 O 0.38047 0.63919 0.10154
 O65 O 0.41966 0.72723 0.06824
 C66 C 0.40377 0.74950 0.11152
 O67 O 0.36505 0.74636 0.09308
 O68 O 0.27588 0.69721 0.06850
 C69 C 0.25461 0.66077 0.11688
 O70 O 0.25765 0.62499 0.10284
 O71 O 0.30676 0.58461 0.07915
 C72 C 0.34512 0.60106 0.12217
 Cr73 Cr 0.39340 0.67340 -0.00615
 Cr74 Cr 0.32818 0.72243 -0.01078
 Cr75 Cr 0.27899 0.60884 -0.00093
 O76 O 0.33354 0.66822 -0.00503
 O77 O 0.61869 0.36212 -0.09790
 O78 O 0.58212 0.27338 -0.07703
 C79 C 0.59947 0.25322 -0.12248
 O80 O 0.63865 0.25736 -0.10435
 O81 O 0.72742 0.30938 -0.07568
 C82 C 0.74885 0.34813 -0.11655
 O83 O 0.74451 0.38244 -0.09490
 O84 O 0.69139 0.41766 -0.06842
 C85 C 0.65390 0.40117 -0.11432
 O86 O 0.62119 0.37386 0.08520
 O87 O 0.58912 0.28611 0.10832
 C88 C 0.59625 0.25309 0.12590
 O89 O 0.62283 0.24429 0.07787
 O90 O 0.71048 0.29876 0.10841
 C91 C 0.74341 0.33807 0.13068
 O92 O 0.75280 0.37483 0.08763
 O93 O 0.69670 0.40680 0.11604
 C94 C 0.65650 0.40005 0.13339
 Cr95 Cr 0.60511 0.32407 0.00459
 Cr96 Cr 0.67463 0.27958 0.00157
 Cr97 Cr 0.71922 0.39307 0.00992
 O98 O 0.66636 0.33227 0.00458
 C99 C 0.46964 0.87909 -0.33341
 C100 C 0.45515 0.83411 -0.32220
 C101 C 0.43830 0.81166 -0.23216
 C102 C 0.42943 0.76856 -0.21786
 H103 H 0.45345 0.81265 -0.37927
 H104 H 0.43055 0.82954 -0.17901
 H105 H 0.47457 0.89933 -0.27178
 H106 H 0.43909 0.75158 -0.26964
 C107 C 0.12301 0.57500 -0.33608
 C108 C 0.16578 0.61079 -0.32204
 C109 C 0.18925 0.61711 -0.23284
 C110 C 0.22862 0.65609 -0.21398
 H111 H 0.18398 0.63607 -0.37534
 H112 H 0.17505 0.58896 -0.18364
 H113 H 0.10498 0.55348 -0.27721
 H114 H 0.24193 0.68443 -0.26270
 C115 C 0.41189 0.53343 -0.32539
 C116 C 0.38052 0.54695 -0.31310
 C117 C 0.37475 0.56313 -0.22256
 C118 C 0.33900 0.56979 -0.20658
 H119 H 0.36003 0.54817 -0.36967
 H120 H 0.40147 0.57242 -0.17080
 H121 H 0.42781 0.52863 -0.26425
 H122 H 0.31150 0.55867 -0.25717
 C123 C 0.55197 0.12135 -0.32674
 C124 C 0.55436 0.16185 -0.31098
 C125 C 0.57721 0.18824 -0.22734
 C126 C 0.57276 0.22400 -0.20049
 H127 H 0.54124 0.17650 -0.36114
 H128 H 0.59911 0.17889 -0.18821
 H129 H 0.56258 0.10610 -0.27282
 H130 H 0.54884 0.23184 -0.23604
 C131 C 0.87373 0.43994 -0.33476
 C132 C 0.83852 0.39887 -0.30934
 C133 C 0.81076 0.39440 -0.22715
 C134 C 0.77979 0.35305 -0.19356
 H135 H 0.82969 0.36844 -0.35000
 H136 H 0.81513 0.42551 -0.19479
 H137 H 0.88414 0.46953 -0.29034
 H138 H 0.77673 0.32206 -0.22383
 C139 C 0.56980 0.44910 -0.32019
 C140 C 0.60788 0.44631 -0.30407
 C141 C 0.61134 0.42382 -0.21977
 C142 C 0.65169 0.42858 -0.19137
 H143 H 0.63550 0.45865 -0.35456
 H144 H 0.57985 0.40168 -0.18173
 H145 H 0.54406 0.43930 -0.26614
 H146 H 0.68364 0.45268 -0.22584
 C147 C 0.88036 0.41611 0.32918
 C148 C 0.83570 0.38388 0.31793
 C149 C 0.81304 0.37718 0.22773
 C150 C 0.77089 0.34112 0.21245
 H151 H 0.81460 0.36352 0.37507
 H152 H 0.82977 0.40355 0.17534
 H153 H 0.90056 0.43195 0.26755
 H154 H 0.75517 0.31382 0.26328
 C155 C 0.55458 0.12138 0.33088
 C156 C 0.55961 0.16327 0.31677
 C157 C 0.57577 0.18667 0.22739
 C158 C 0.57356 0.22458 0.20758
 H159 H 0.55177 0.18080 0.37028
 H160 H 0.59145 0.17381 0.17902
 H161 H 0.55834 0.10367 0.27184
 H162 H 0.55671 0.23648 0.25524
 C163 C 0.56353 0.43974 0.33550
 C164 C 0.60338 0.44023 0.31908
 C165 C 0.61001 0.42079 0.23342
 C166 C 0.65058 0.42338 0.21391
 H167 H 0.63109 0.45446 0.36944
 H168 H 0.58079 0.40287 0.18712
 H169 H 0.53727 0.42782 0.28210
 H170 H 0.67988 0.44195 0.25973
 C171 C 0.12158 0.58046 0.32157
 C172 C 0.16257 0.61811 0.30521
 C173 C 0.18869 0.62078 0.22146
 C174 C 0.22529 0.66018 0.19334
 H175 H 0.17797 0.64570 0.35526
 H176 H 0.17863 0.58924 0.18362
 H177 H 0.10576 0.55481 0.26768
 H178 H 0.23405 0.69234 0.22727
 C179 C 0.44136 0.87446 0.32989
 C180 C 0.44649 0.83891 0.30391
 C181 C 0.42234 0.81172 0.22199
 C182 C 0.43150 0.78007 0.18730
 H183 H 0.46781 0.82927 0.34412
 H184 H 0.39566 0.81697 0.19092
 H185 H 0.42240 0.88555 0.28587
 H186 H 0.45936 0.77603 0.21601
 C187 C 0.43398 0.56242 0.33764
 C188 C 0.39337 0.55885 0.31414
 C189 C 0.38971 0.58278 0.23225
 C190 C 0.34857 0.57454 0.19984
 H191 H 0.36281 0.53872 0.35607
 H192 H 0.42141 0.60817 0.19876
 H193 H 0.46347 0.58013 0.29184
 H194 H 0.31683 0.54778 0.23077
   
