data_POSCAR
  _audit_creation_date              2014-09-24
  _audit_creation_method            'ToBaCCo'
  _symmetry_space_group_name_H-M    'P1'
  _symmetry_Int_Tables_number       1
  _symmetry_cell_setting            triclinic
  loop_
  _symmetry_equiv_pos_as_xyz
 x,y,z
_cell_length_a 21.7325
_cell_length_b 22.2060
_cell_length_c 35.8633
_cell_angle_alpha 84.357500
_cell_angle_beta 102.441800
_cell_angle_gamma 85.841200
loop_
  _atom_site_label
  _atom_site_type_symbol
  _atom_site_fract_x
  _atom_site_fract_y
  _atom_site_fract_z
O1 O -0.05427 0.45840 1.02889
 O2 O -0.01744 0.57312 0.95689
 O3 O -0.04007 0.45834 0.95852
 O4 O -0.03701 0.57306 1.02576
 O5 O 0.06566 0.54910 1.04818
 O6 O 0.06173 0.43107 0.98215
 O7 O 0.08449 0.54520 0.97939
 O8 O 0.04817 0.43472 1.05254
 Cu9 Cu -0.04746 0.51817 0.99002
 Cu10 Cu 0.07525 0.48728 1.01773
 C11 C -0.00890 0.42773 1.05335
 C12 C 0.04017 0.57901 0.95627
 C13 C 0.00989 0.42469 0.95910
 C14 C 0.01469 0.58086 1.04831
 O15 O 0.45663 0.01480 0.53797
 O16 O 0.54345 0.00094 0.46098
 O17 O 0.42508 -0.00018 0.46525
 O18 O 0.57485 0.01661 0.53337
 O19 O 0.59066 -0.08322 0.54740
 O20 O 0.43938 -0.09954 0.48170
 O21 O 0.55609 -0.09879 0.47562
 O22 O 0.47341 -0.08456 0.55409
 Cu23 Cu 0.49840 0.01811 0.49789
 Cu24 Cu 0.51626 -0.10146 0.51637
 C25 C 0.45039 -0.03264 0.55918
 C26 C 0.56452 -0.05145 0.45517
 C27 C 0.40680 -0.05287 0.46197
 C28 C 0.60871 -0.03072 0.55144
 C29 C -0.09420 -0.07354 0.21247
 C30 C -0.14351 -0.07015 0.23648
 C31 C -0.14284 -0.01633 0.25976
 C32 C -0.08620 0.02411 0.25097
 C33 C -0.10672 -0.01500 0.18543
 C34 C -0.10243 0.04258 0.20381
 C35 C -0.03097 -0.07068 0.24012
 C36 C -0.02607 -0.01927 0.26056
 H37 H -0.17694 -0.10382 0.23700
 H38 H -0.08250 0.06466 0.26693
 H39 H -0.11693 -0.01433 0.15446
 H40 H 0.00640 -0.10706 0.24393
 C41 C 0.14520 0.02022 0.74189
 C42 C 0.13612 -0.03560 0.76776
 C43 C 0.08239 -0.02929 0.78414
 C44 C 0.04525 0.03333 0.77297
 C45 C 0.08235 0.03566 0.71282
 C46 C 0.02862 0.04176 0.72909
 C47 C 0.15129 0.07131 0.76714
 C48 C 0.09699 0.08287 0.78613
 H49 H 0.16863 -0.07622 0.77271
 H50 H 0.00324 0.03860 0.78583
 H51 H 0.08015 0.04100 0.68227
 H52 H 0.19180 0.09756 0.77161
 C53 C 0.01602 -0.37242 0.07474
 C54 C -0.03949 -0.33988 0.07826
 C55 C -0.04073 -0.29023 0.10282
 C56 C -0.09720 -0.27350 0.11381
 C57 C -0.10115 -0.22531 0.13576
 C58 C -0.04853 -0.19260 0.14697
 C59 C 0.00769 -0.20889 0.13561
 C60 C 0.01174 -0.25725 0.11384
 C61 C -0.05105 -0.13973 0.16885
 C62 C -0.09507 -0.12895 0.19123
 H63 H -0.08456 -0.35215 0.06282
 H64 H -0.13858 -0.29761 0.10517
 H65 H -0.14589 -0.21304 0.14293
 H66 H 0.04860 -0.18383 0.14343
 H67 H 0.05544 -0.26740 0.10493
 H68 H -0.01517 -0.10838 0.16833
 H69 H 0.06141 -0.36441 0.09193
 H70 H -0.12960 -0.16080 0.19408
 C71 C -0.02127 0.38351 0.08341
 C72 C -0.08051 0.36276 0.08238
 C73 C -0.08951 0.31420 0.11137
 C74 C -0.12883 0.26897 0.09984
 C75 C -0.13318 0.21941 0.12607
 C76 C -0.09923 0.21507 0.16453
 C77 C -0.06297 0.26223 0.17654
 C78 C -0.05771 0.31120 0.15015
 C79 C -0.09844 0.16072 0.19195
 C80 C -0.11009 0.10499 0.17885
 H81 H -0.11903 0.37760 0.05774
 H82 H -0.15425 0.27079 0.07018
 H83 H -0.16232 0.18412 0.11611
 H84 H -0.03691 0.26014 0.20609
 H85 H -0.02834 0.34638 0.16001
 H86 H -0.08180 0.16322 0.22251
 H87 H 0.01874 0.36401 0.10602
 H88 H -0.10488 0.07574 0.19761
 C89 C 0.41530 -0.02847 0.58974
 C90 C 0.38558 0.02643 0.59580
 C91 C 0.34467 0.03155 0.62376
 C92 C 0.32859 0.08925 0.63373
 C93 C 0.28761 0.09650 0.65848
 C94 C 0.26196 0.04619 0.67394
 C95 C 0.27779 -0.01164 0.66388
 C96 C 0.31860 -0.01889 0.63907
 C97 C 0.21565 0.05620 0.69808
 C98 C 0.20000 0.01026 0.72289
 H99 H 0.39238 0.06785 0.57913
 H100 H 0.34735 0.12899 0.62204
 H101 H 0.27553 0.14166 0.66536
 H102 H 0.25710 -0.05124 0.67388
 H103 H 0.32760 -0.06383 0.63112
 H104 H 0.19184 0.10146 0.69579
 H105 H 0.41246 -0.07016 0.60730
 H106 H 0.22555 -0.03445 0.72740
 C107 C -0.32918 -0.02586 0.57638
 C108 C -0.30937 0.02915 0.58775
 C109 C -0.24372 0.03355 0.60861
 C110 C -0.23147 0.07231 0.63743
 C111 C -0.16929 0.07616 0.65756
 C112 C -0.11848 0.04230 0.64840
 C113 C -0.13076 0.00529 0.61867
 C114 C -0.19275 0.00047 0.59919
 C115 C -0.05215 0.04487 0.66869
 C116 C -0.03445 0.04909 0.70816
 H117 H -0.34290 0.06931 0.58209
 H118 H -0.27008 0.09888 0.64470
 H119 H -0.16098 0.10620 0.67977
 H120 H -0.09226 -0.02066 0.61084
 H121 H -0.20070 -0.02844 0.57633
 H122 H -0.01655 0.03532 0.65265
 H123 H -0.29752 -0.06713 0.58570
 H124 H -0.07125 0.05323 0.72411
 C125 C 0.05641 -0.37676 0.93074
 C126 C 0.01225 -0.33365 0.90607
 C127 C 0.03146 -0.28371 0.88175
 C128 C -0.00798 -0.22910 0.87094
 C129 C 0.01008 -0.18022 0.84931
 C130 C 0.06818 -0.18519 0.83789
 C131 C 0.10650 -0.24061 0.84773
 C132 C 0.08842 -0.28933 0.86924
 C133 C 0.09062 -0.13513 0.81518
 C134 C 0.06169 -0.07539 0.80683
 H135 H -0.03734 -0.33344 0.90686
 H136 H -0.05254 -0.22392 0.87975
 H137 H -0.02197 -0.13924 0.84169
 H138 H 0.15092 -0.24631 0.83879
 H139 H 0.11901 -0.33139 0.87560
 H140 H 0.13249 -0.14691 0.80481
 H141 H 0.10635 -0.37428 0.93200
 H142 H 0.02031 -0.06336 0.81760
 C143 C 0.00628 0.37751 0.93287
 C144 C 0.05917 0.34013 0.93013
 C145 C 0.05529 0.29127 0.90464
 C146 C 0.10883 0.27261 0.89121
 C147 C 0.10680 0.22658 0.86714
 C148 C 0.05120 0.19763 0.85643
 C149 C -0.00194 0.21550 0.87045
 C150 C -0.00005 0.26182 0.89429
 C151 C 0.04749 0.14860 0.83112
 C152 C 0.09600 0.13344 0.81307
 H153 H 0.10548 0.34848 0.94608
 H154 H 0.15220 0.29413 0.89909
 H155 H 0.14887 0.21358 0.85712
 H156 H -0.04510 0.19352 0.86296
 H157 H -0.04161 0.27356 0.90508
 H158 H 0.00522 0.12463 0.82619
 H159 H -0.03959 0.37283 0.91491
 H160 H 0.08836 0.10373 0.79917
 C161 C -0.40230 -0.05814 0.42641
 C162 C -0.38709 -0.00883 0.40389
 C163 C -0.34926 -0.01670 0.37466
 C164 C -0.31132 0.02890 0.36606
 C165 C -0.27333 0.02175 0.33958
 C166 C -0.27331 -0.03098 0.32080
 C167 C -0.31280 -0.07563 0.32851
 C168 C -0.35044 -0.06865 0.35512
 C169 C -0.23242 -0.04118 0.29351
 C170 C -0.18724 -0.00227 0.28750
 H171 H -0.39927 0.03701 0.40967
 H172 H -0.31014 0.06962 0.38044
 H173 H -0.24383 0.05733 0.33403
 H174 H -0.31419 -0.11634 0.31411
 H175 H -0.38074 -0.10378 0.36002
 H176 H -0.23689 -0.08160 0.27896
 H177 H -0.38583 -0.10387 0.42265
 H178 H -0.16146 -0.00716 0.27284
 C179 C 0.34769 -0.06126 0.43491
 C180 C 0.30910 -0.01304 0.41138
 C181 C 0.25141 -0.02185 0.38249
 C182 C 0.20436 0.02688 0.36926
 C183 C 0.14955 0.02011 0.34179
 C184 C 0.14091 -0.03580 0.32687
 C185 C 0.18870 -0.08397 0.33956
 C186 C 0.24330 -0.07720 0.36692
 C187 C 0.08434 -0.04605 0.29750
 C188 C 0.02762 -0.00789 0.28771
 H189 H 0.32077 0.03302 0.41482
 H190 H 0.20997 0.07032 0.38030
 H191 H 0.11501 0.05906 0.33211
 H192 H 0.18390 -0.12724 0.32818
 H193 H 0.27937 -0.11518 0.37510
 H194 H 0.08802 -0.08712 0.28403
 H195 H 0.33454 -0.10721 0.43382
 H196 H 0.02379 0.03244 0.30193
   
