data_POSCAR
  _audit_creation_date              2014-09-24
  _audit_creation_method            'ToBaCCo'
  _symmetry_space_group_name_H-M    'P1'
  _symmetry_Int_Tables_number       1
  _symmetry_cell_setting            triclinic
  loop_
  _symmetry_equiv_pos_as_xyz
 x,y,z
_cell_length_a 56.0906
_cell_length_b 56.4390
_cell_length_c 20.1142
_cell_angle_alpha 89.624100
_cell_angle_beta 90.363400
_cell_angle_gamma 120.434000
loop_
  _atom_site_label
  _atom_site_type_symbol
  _atom_site_fract_x
  _atom_site_fract_y
  _atom_site_fract_z
C1 C 0.21285 0.51730 0.44761
 C2 C 0.20299 0.52152 0.50770
 C3 C 0.21634 0.52426 0.56885
 C4 C 0.24185 0.52458 0.56943
 C5 C 0.25271 0.52101 0.50903
 C6 C 0.23809 0.51713 0.44815
 C7 C 0.24976 0.51433 0.38908
 C8 C 0.27435 0.51404 0.38977
 C9 C 0.28869 0.51690 0.44937
 C10 C 0.27793 0.52050 0.50971
 C11 C 0.25587 0.52641 0.62915
 C12 C 0.28005 0.52539 0.62990
 C13 C 0.29187 0.52282 0.57088
 C14 C 0.31615 0.52072 0.57154
 C15 C 0.32633 0.51741 0.51074
 C16 C 0.31318 0.51559 0.45017
 H17 H 0.24036 0.51267 0.34103
 H18 H 0.28175 0.51115 0.34273
 H19 H 0.24813 0.52781 0.67701
 H20 H 0.28865 0.52592 0.67832
 H21 H 0.18387 0.52184 0.50733
 H22 H 0.34583 0.51780 0.50952
 C23 C 0.47262 -0.31085 0.56975
 C24 C 0.46847 -0.32637 0.51264
 C25 C 0.46580 -0.31734 0.44898
 C26 C 0.46513 -0.29237 0.44418
 C27 C 0.46853 -0.27673 0.50268
 C28 C 0.47261 -0.28594 0.56519
 C29 C 0.47645 -0.27010 0.62199
 C30 C 0.47656 -0.24550 0.61801
 C31 C 0.47248 -0.23563 0.55697
 C32 C 0.46890 -0.25127 0.49849
 C33 C 0.46269 -0.28165 0.38265
 C34 C 0.46337 -0.25670 0.37856
 C35 C 0.46650 -0.24117 0.43562
 C36 C 0.46840 -0.21527 0.43097
 C37 C 0.47189 -0.20013 0.48876
 C38 C 0.47345 -0.20992 0.55225
 H39 H 0.47953 -0.27652 0.67054
 H40 H 0.48081 -0.23413 0.66371
 H41 H 0.46082 -0.29185 0.33615
 H42 H 0.46191 -0.24949 0.32959
 H43 H 0.46752 -0.34588 0.51886
 H44 H 0.47170 -0.18113 0.48357
 C45 C 1.19588 0.70010 0.55460
 C46 C 1.18132 0.69300 0.49402
 C47 C 1.19439 0.70297 0.43321
 C48 C 1.22327 0.72115 0.43129
 C49 C 1.23867 0.72944 0.49156
 C50 C 1.22498 0.71873 0.55336
 C51 C 1.24046 0.72857 0.61227
 C52 C 1.26829 0.74863 0.61114
 C53 C 1.28238 0.75983 0.55095
 C54 C 1.26752 0.74953 0.49016
 C55 C 1.23684 0.73224 0.37102
 C56 C 1.26496 0.75121 0.36931
 C57 C 1.28089 0.76039 0.42805
 C58 C 1.30919 0.78150 0.42679
 C59 C 1.32313 0.79144 0.48754
 C60 C 1.31022 0.78214 0.54957
 H61 H 1.23114 0.72197 0.66070
 H62 H 1.27807 0.75538 0.65901
 H63 H 1.22572 0.72693 0.32429
 H64 H 1.27347 0.75929 0.32093
 H65 H 1.15937 0.67813 0.49286
 H66 H 1.34515 0.80589 0.48661
 C67 C 0.80777 0.51231 0.42954
 C68 C 0.81628 0.50523 0.48812
 C69 C 0.80503 0.50531 0.55031
 C70 C 0.78273 0.51056 0.55251
 C71 C 0.77329 0.51696 0.49302
 C72 C 0.78632 0.51845 0.43164
 C73 C 0.77737 0.52576 0.37371
 C74 C 0.75619 0.53172 0.37587
 C75 C 0.74256 0.52988 0.43567
 C76 C 0.75101 0.52229 0.49494
 C77 C 0.76900 0.50875 0.61225
 C78 C 0.74724 0.51384 0.61418
 C79 C 0.73758 0.52045 0.55620
 C80 C 0.71580 0.52650 0.55807
 C81 C 0.70851 0.53465 0.49872
 C82 C 0.72117 0.53610 0.43822
 H83 H 0.78666 0.52697 0.32590
 H84 H 0.75067 0.53787 0.32997
 H85 H 0.77447 0.50291 0.65860
 H86 H 0.73867 0.51295 0.66260
 H87 H 0.83394 0.50236 0.48531
 H88 H 0.69135 0.53834 0.49769
 C89 C 0.48810 0.19696 0.56499
 C90 C 0.49198 0.18554 0.50752
 C91 C 0.49660 0.19863 0.44567
 C92 C 0.49754 0.22411 0.44114
 C93 C 0.49430 0.23634 0.49938
 C94 C 0.48952 0.22266 0.56147
 C95 C 0.48716 0.23542 0.61865
 C96 C 0.48967 0.26125 0.61526
 C97 C 0.49384 0.27519 0.55406
 C98 C 0.49597 0.26233 0.49546
 C99 C 0.50113 0.23745 0.37971
 C100 C 0.50222 0.26254 0.37561
 C101 C 0.49990 0.27541 0.43279
 C102 C 0.50190 0.30127 0.42863
 C103 C 0.50146 0.31450 0.48665
 C104 C 0.49727 0.30202 0.54975
 H105 H 0.48402 0.22579 0.66705
 H106 H 0.48874 0.27007 0.66187
 H107 H 0.50300 0.22862 0.33389
 H108 H 0.50548 0.27201 0.32702
 H109 H 0.49130 0.16603 0.51111
 H110 H 0.50204 0.33390 0.48129
 C111 C 0.70522 0.18615 0.57195
 C112 C 0.69427 0.17258 0.51204
 C113 C 0.70589 0.18486 0.45109
 C114 C 0.72985 0.21122 0.44966
 C115 C 0.74076 0.22569 0.51011
 C116 C 0.72819 0.21318 0.57149
 C117 C 0.73946 0.22762 0.63070
 C118 C 0.76230 0.25407 0.62989
 C119 C 0.77514 0.26722 0.56970
 C120 C 0.76455 0.25246 0.50924
 C121 C 0.74300 0.22355 0.38953
 C122 C 0.76685 0.24935 0.38879
 C123 C 0.77806 0.26405 0.44801
 C124 C 0.80216 0.29023 0.44737
 C125 C 0.81191 0.30482 0.50669
 C126 C 0.79919 0.29388 0.56831
 H127 H 0.73079 0.21854 0.67850
 H128 H 0.77000 0.26350 0.67770
 H129 H 0.73512 0.21324 0.34247
 H130 H 0.77623 0.25785 0.34111
 H131 H 0.67651 0.15188 0.51287
 H132 H 0.82980 0.32531 0.50398
 O133 O 0.96041 0.50872 -0.13576
 O134 O 0.93168 0.47336 -0.06606
 C135 C 0.93612 0.48937 -0.11670
 O136 O 1.04284 0.46945 -0.10518
 O137 O 1.07261 0.51088 -0.05665
 C138 C 1.06737 0.48990 -0.09318
 O139 O 0.96628 0.42941 -0.10913
 O140 O 0.93445 0.43604 -0.05406
 C141 C 0.94118 0.42261 -0.09461
 O142 O 1.03760 0.55371 -0.13282
 O143 O 1.06997 0.55058 -0.06905
 C144 C 1.06295 0.56192 -0.11555
 Zr145 Zr 1.00013 0.52080 -0.09613
 O146 O 1.00208 0.51932 -0.20095
 O147 O 0.99649 0.55627 -0.09982
 Zr148 Zr 1.00390 0.46309 -0.07734
 O149 O 1.00648 0.46101 -0.18194
 O150 O 1.00305 0.42534 -0.06625
 O151 O 0.97746 0.47798 -0.09923
 O152 O 1.02586 0.50450 -0.10029
 O153 O 1.03979 0.56255 0.09772
 O154 O 1.07074 0.55451 0.04281
 C155 C 1.06481 0.56891 0.08175
 O156 O 0.96616 0.43942 0.13158
 O157 O 0.93455 0.44148 0.06216
 C158 C 0.94096 0.43183 0.11334
 O159 O 1.04458 0.47959 0.12377
 O160 O 1.07310 0.51552 0.05515
 C161 C 1.06885 0.49881 0.10398
 O162 O 0.96233 0.51860 0.10723
 O163 O 0.93292 0.47895 0.05117
 C164 C 0.93785 0.49815 0.09333
 Zr165 Zr 1.00137 0.52761 0.06991
 O166 O 1.00471 0.53450 0.17370
 O167 O 0.99663 0.56213 0.05402
 Zr168 Zr 1.00461 0.46951 0.08890
 O169 O 1.00819 0.47460 0.19335
 O170 O 1.00348 0.43155 0.09820
 Zr171 Zr 0.96134 0.47276 -0.00252
 Zr172 Zr 1.04375 0.51764 -0.00572
 O173 O 1.02691 0.51201 0.09049
 O174 O 0.97859 0.48579 0.09319
 O175 O 1.02532 0.54205 -0.01560
 O176 O 0.98036 0.44899 0.00793
 O177 O 0.97619 0.51505 -0.01345
 O178 O 1.02932 0.47534 0.00630
 H179 H 1.03805 0.50975 -0.13969
 H180 H 0.96856 0.42880 0.01298
 H181 H 1.03932 0.52023 0.12935
 H182 H 0.96262 0.52133 -0.01710
 H183 H 1.01805 0.42844 -0.03506
 H184 H 1.02053 0.43382 0.07785
 H185 H 0.99285 0.47710 0.20833
 H186 H 0.99222 0.51668 0.19541
 H187 H 1.01174 0.57495 0.02424
 H188 H 0.99565 0.56018 -0.14760
 H189 H 0.98906 0.50016 -0.21439
 H190 H 0.98993 0.46035 -0.20152
 O191 O 0.44916 0.47033 0.13703
 O192 O 0.44659 0.50509 0.08402
 C193 C 0.43859 0.48595 0.12879
 O194 O 0.57275 0.53480 0.10891
 O195 O 0.56987 0.50199 0.03730
 C196 C 0.58212 0.51992 0.08392
 O197 O 0.52200 0.55781 0.14031
 O198 O 0.48196 0.54802 0.08560
 C199 C 0.50055 0.56045 0.13162
 O200 O 0.49532 0.44175 0.10379
 O201 O 0.53343 0.45789 0.03645
 C202 C 0.51640 0.44091 0.08035
 Zr203 Zr 0.48191 0.47010 0.08556
 O204 O 0.48611 0.46524 0.18867
 O205 O 0.44709 0.43011 0.07789
 Zr206 Zr 0.53607 0.53555 0.08593
 O207 O 0.54456 0.53703 0.18876
 O208 O 0.56736 0.57743 0.07786
 O209 O 0.49404 0.51074 0.10695
 O210 O 0.52441 0.49446 0.09056
 O211 O 0.48714 0.44650 -0.12321
 O212 O 0.52948 0.46057 -0.07523
 C213 C 0.50948 0.44522 -0.11553
 O214 O 0.51352 0.56458 -0.10605
 O215 O 0.47735 0.55022 -0.03337
 C216 C 0.49250 0.56540 -0.08210
 O217 O 0.56505 0.54166 -0.12282
 O218 O 0.56642 0.50540 -0.07434
 C219 C 0.57583 0.52623 -0.11478
 O220 O 0.44014 0.47483 -0.10467
 O221 O 0.44252 0.50793 -0.03444
 C222 C 0.43100 0.49017 -0.08205
 Zr223 Zr 0.47604 0.47367 -0.07945
 O224 O 0.47408 0.47478 -0.18453
 O225 O 0.44083 0.43367 -0.07719
 Zr226 Zr 0.52977 0.53918 -0.07902
 O227 O 0.52875 0.54118 -0.18404
 O228 O 0.56129 0.58105 -0.07500
 Zr229 Zr 0.47969 0.51858 0.01686
 Zr230 Zr 0.53210 0.49083 -0.01004
 O231 O 0.51764 0.49872 -0.09942
 O232 O 0.48686 0.51486 -0.08438
 O233 O 0.49066 0.45863 -0.00489
 O234 O 0.52130 0.55024 0.01165
 O235 O 0.45972 0.47548 0.01094
 O236 O 0.55286 0.53408 -0.00458
 H237 H 0.53326 0.48923 0.12594
 H238 H 0.52538 0.56942 0.01603
 H239 H 0.52406 0.49544 -0.14230
 H240 H 0.43931 0.46465 0.01499
 H241 H 0.58415 0.57815 0.06027
 H242 H 0.57777 0.58188 -0.05445
 H243 H 0.50930 0.53409 -0.19737
 H244 H 0.47219 0.49074 -0.19694
 H245 H 0.44560 0.42207 -0.04957
 H246 H 0.44336 0.42235 0.12350
 H247 H 0.48767 0.48149 0.21127
 H248 H 0.53005 0.51944 0.20779
 O249 O 0.46286 0.02455 0.12933
 O250 O 0.50033 0.05968 0.07625
 C251 C 0.48066 0.05032 0.12008
 O252 O 0.51799 -0.04337 0.10756
 O253 O 0.48155 -0.07337 0.04175
 C254 C 0.50059 -0.06782 0.08622
 O255 O 0.54932 0.03240 0.13281
 O256 O 0.54132 0.06336 0.07696
 C257 C 0.55381 0.05707 0.12194
 O258 O 0.42656 -0.05056 0.10166
 O259 O 0.43833 -0.07686 0.03865
 C260 C 0.42268 -0.07396 0.08129
 Zr261 Zr 0.45856 -0.01035 0.08082
 O262 O 0.45268 -0.01806 0.18423
 O263 O 0.42052 -0.01142 0.06998
 Zr264 Zr 0.52129 -0.00530 0.08538
 O265 O 0.51815 -0.01265 0.18921
 O266 O 0.56114 -0.00055 0.08172
 O267 O 0.50034 0.01572 0.10271
 O268 O 0.47900 -0.03207 0.08957
 O269 O 0.43323 -0.03999 -0.12773
 O270 O 0.44144 -0.07150 -0.07521
 C271 C 0.42844 -0.06479 -0.11818
 O272 O 0.55560 0.04261 -0.10741
 O273 O 0.54490 0.06834 -0.03934
 C274 C 0.55963 0.06591 -0.08527
 O275 O 0.52326 -0.03334 -0.12202
 O276 O 0.48446 -0.06828 -0.07229
 C277 C 0.50505 -0.05911 -0.11349
 O278 O 0.47043 0.03704 -0.11410
 O279 O 0.50453 0.06566 -0.04124
 C280 C 0.48792 0.06125 -0.09068
 Zr281 Zr 0.46315 -0.00242 -0.08468
 O282 O 0.46382 -0.00054 -0.18983
 O283 O 0.42524 -0.00274 -0.08359
 Zr284 Zr 0.52555 0.00202 -0.08044
 O285 O 0.52745 0.00412 -0.18557
 O286 O 0.56563 0.00721 -0.07517
 Zr287 Zr 0.51034 0.03669 0.01092
 Zr288 Zr 0.47371 -0.04510 -0.00996
 O289 O 0.48403 -0.02332 -0.10079
 O290 O 0.50565 0.02463 -0.08954
 O291 O 0.44507 -0.03136 -0.00857
 O292 O 0.53861 0.02263 0.00882
 O293 O 0.46708 0.01729 0.00416
 O294 O 0.51712 -0.02589 -0.00340
 H295 H 0.47254 -0.04590 0.12582
 H296 H 0.55865 0.03610 0.01287
 H297 H 0.47974 -0.03350 -0.14326
 H298 H 0.45839 0.02879 0.00640
 H299 H 0.56626 -0.00181 0.12831
 H300 H 0.56449 -0.00758 -0.04620
 H301 H 0.52439 0.01920 -0.19968
 H302 H 0.48201 0.01507 -0.20306
 H303 H 0.41185 -0.01920 -0.05821
 H304 H 0.41274 -0.01395 0.11530
 H305 H 0.47071 -0.00605 0.20594
 H306 H 0.51419 0.00083 0.20992
 C307 C 1.19629 0.51146 0.38984
 C308 C 1.17888 0.52212 0.37923
 C309 C 1.15831 0.51270 0.32563
 N310 N 1.15104 0.53032 0.29938
 N311 N 1.13092 0.52173 0.25431
 C312 C 1.11696 0.49507 0.23466
 N313 N 1.12402 0.47731 0.26137
 N314 N 1.14449 0.48602 0.30584
 C315 C 1.09372 0.48559 0.18778
 C316 C 1.09348 0.50383 0.14136
 H317 H 1.18120 0.53902 0.40929
 H318 H 1.07649 0.46472 0.19123
 H319 H 1.19702 0.49858 0.35131
 H320 H 1.11206 0.52364 0.13449
 C321 C 0.46442 0.66693 0.39252
 C322 C 0.47605 0.65002 0.39245
 C323 C 0.47566 0.63351 0.33571
 N324 N 0.49156 0.62180 0.33928
 N325 N 0.49190 0.60655 0.28970
 C326 C 0.47626 0.60220 0.23438
 N327 N 0.46004 0.61370 0.23081
 N328 N 0.45978 0.62916 0.28061
 C329 C 0.47720 0.58531 0.17966
 C330 C 0.49789 0.57849 0.17958
 H331 H 0.48839 0.65032 0.43434
 H332 H 0.46200 0.57843 0.14006
 H333 H 0.45574 0.66877 0.34613
 H334 H 0.51349 0.58674 0.21837
 C335 C 0.32366 -0.20668 0.36673
 C336 C 0.34481 -0.17917 0.36257
 C337 C 0.35799 -0.16544 0.29984
 N338 N 0.36736 -0.13823 0.29352
 N339 N 0.37990 -0.12484 0.23817
 C340 C 0.38388 -0.13802 0.18703
 N341 N 0.37486 -0.16527 0.19354
 N342 N 0.36190 -0.17883 0.24885
 C343 C 0.39909 -0.12222 0.12766
 C344 C 0.39932 -0.09799 0.11256
 H345 H 0.34937 -0.16583 0.40502
 H346 H 0.41247 -0.12768 0.10169
 H347 H 0.31710 -0.21799 0.32069
 H348 H 0.38463 -0.09412 0.13791
 C349 C 0.82382 0.51585 0.36839
 C350 C 0.83017 0.49608 0.34887
 C351 C 0.85100 0.50152 0.29799
 N352 N 0.85260 0.48032 0.27171
 N353 N 0.87258 0.48500 0.22902
 C354 C 0.89190 0.51107 0.21160
 N355 N 0.89037 0.53231 0.23804
 N356 N 0.87020 0.52762 0.28028
 C357 C 0.91502 0.51631 0.16797
 C358 C 0.91385 0.49551 0.12881
 H359 H 0.82029 0.47627 0.37367
 H360 H 0.93338 0.53655 0.16784
 H361 H 0.83182 0.53482 0.34043
 H362 H 0.89467 0.47599 0.12562
 C363 C 0.50143 0.31357 0.36385
 C364 C 0.51997 0.34095 0.34847
 C365 C 0.51602 0.35419 0.28968
 N366 N 0.53676 0.37897 0.26850
 N367 N 0.53258 0.39214 0.21864
 C368 C 0.50745 0.38106 0.18853
 N369 N 0.48678 0.35625 0.20957
 N370 N 0.49102 0.34297 0.25893
 C371 C 0.50142 0.39693 0.14026
 C372 C 0.52213 0.42023 0.10850
 H373 H 0.53720 0.35315 0.38153
 H374 H 0.48002 0.39142 0.13383
 H375 H 0.48566 0.30075 0.32808
 H376 H 0.54326 0.42450 0.10914
 C377 C 0.69226 0.16921 0.39038
 C378 C 0.66481 0.16129 0.37782
 C379 C 0.64801 0.14108 0.32703
 N380 N 0.62352 0.13843 0.30839
 N381 N 0.60696 0.11889 0.26600
 C382 C 0.61412 0.10103 0.24135
 N383 N 0.63860 0.10359 0.26016
 N384 N 0.65531 0.12334 0.30213
 C385 C 0.59527 0.07865 0.19701
 C386 C 0.57404 0.07967 0.16345
 H387 H 0.65490 0.16954 0.40843
 H388 H 0.59835 0.06137 0.18997
 H389 H 0.70342 0.16315 0.35743
 H390 H 0.57261 0.09808 0.16606
 C391 C 0.48191 0.18088 -0.37276
 C392 C 0.50019 0.17307 -0.34837
 C393 C 0.49237 0.15159 -0.29761
 N394 N 0.51237 0.14968 -0.26406
 N395 N 0.50582 0.12890 -0.22227
 C396 C 0.47902 0.10900 -0.21313
 N397 N 0.45897 0.11085 -0.24681
 N398 N 0.46552 0.13185 -0.28808
 C399 C 0.47204 0.08486 -0.17127
 C400 C 0.49057 0.08578 -0.12355
 H401 H 0.52070 0.18220 -0.36967
 H402 H 0.45265 0.06598 -0.17971
 H403 H 0.46229 0.17399 -0.34842
 H404 H 0.50878 0.10535 -0.11198
 C405 C 0.70056 0.52343 -0.38337
 C406 C 0.68660 0.53772 -0.37249
 C407 C 0.66830 0.53249 -0.31557
 N408 N 0.65802 0.54933 -0.30568
 N409 N 0.64028 0.54443 -0.25672
 C410 C 0.63201 0.52244 -0.21574
 N411 N 0.64239 0.50559 -0.22534
 N412 N 0.66026 0.51054 -0.27439
 C413 C 0.61106 0.51624 -0.16420
 C414 C 0.59987 0.53316 -0.15640
 H415 H 0.68972 0.55425 -0.40555
 H416 H 0.60328 0.49754 -0.13520
 H417 H 0.69955 0.50978 -0.34421
 H418 H 0.60780 0.55170 -0.18612
 C419 C 0.81083 0.30962 -0.37348
 C420 C 0.83914 0.32825 -0.36748
 C421 C 0.85211 0.34413 -0.30728
 N422 N 0.87943 0.35404 -0.29774
 N423 N 0.89224 0.36919 -0.24482
 C424 C 0.87834 0.37524 -0.19943
 N425 N 0.85094 0.36556 -0.20915
 N426 N 0.83797 0.35008 -0.26208
 C427 C 0.89353 0.39339 -0.14333
 C428 C 0.91981 0.39808 -0.12827
 H429 H 0.85318 0.32929 -0.40560
 H430 H 0.88551 0.40500 -0.11920
 H431 H 0.79831 0.30626 -0.32999
 H432 H 0.92678 0.38545 -0.15192
 C433 C 0.47478 -0.19469 -0.39055
 C434 C 0.48566 -0.16623 -0.39047
 C435 C 0.48640 -0.15108 -0.33035
 N436 N 0.50368 -0.12349 -0.32801
 N437 N 0.50433 -0.10923 -0.27487
 C438 C 0.48759 -0.12196 -0.22206
 N439 N 0.47013 -0.14957 -0.22449
 N440 N 0.46965 -0.16390 -0.27752
 C441 C 0.48720 -0.10586 -0.16496
 C442 C 0.50774 -0.07841 -0.15722
 H443 H 0.49605 -0.15408 -0.43402
 H444 H 0.46979 -0.11516 -0.13126
 H445 H 0.46788 -0.20501 -0.34320
 H446 H 0.52540 -0.06975 -0.19023
 C447 C 0.33049 0.52213 -0.36904
 C448 C 0.34532 0.50851 -0.36119
 C449 C 0.35902 0.50860 -0.29872
 N450 N 0.36509 0.48854 -0.28784
 N451 N 0.37816 0.48837 -0.23267
 C452 C 0.38583 0.50832 -0.18622
 N453 N 0.37986 0.52854 -0.19713
 N454 N 0.36650 0.52858 -0.25227
 C455 C 0.40246 0.50914 -0.12830
 C456 C 0.40634 0.48704 -0.11552
 H457 H 0.34469 0.49487 -0.39966
 H458 H 0.41436 0.52824 -0.10141
 H459 H 0.32885 0.53242 -0.32581
 H460 H 0.39411 0.46815 -0.14297
 C461 C 1.18115 0.68774 -0.38611
 C462 C 1.15303 0.67890 -0.37936
 C463 C 1.13534 0.66059 -0.32626
 N464 N 1.14400 0.64761 -0.28386
 N465 N 1.12644 0.62905 -0.24047
 C466 C 1.09966 0.62285 -0.23821
 N467 N 1.09123 0.63609 -0.28005
 N468 N 1.10870 0.65455 -0.32331
 C469 C 1.07917 0.60117 -0.19477
 C470 C 1.08519 0.58542 -0.15178
 H471 H 1.14301 0.68533 -0.41546
 H472 H 1.05804 0.59678 -0.19897
 H473 H 1.19153 0.68489 -0.34403
 H474 H 1.10634 0.59013 -0.14525
 C475 C 0.81796 0.50303 -0.39131
 C476 C 0.83299 0.48944 -0.38878
 C477 C 0.85148 0.49283 -0.33297
 N478 N 0.85742 0.47284 -0.31885
 N479 N 0.87588 0.47659 -0.27193
 C480 C 0.88941 0.50068 -0.23820
 N481 N 0.88359 0.52074 -0.25258
 N482 N 0.86482 0.51682 -0.29881
 C483 C 0.91157 0.50590 -0.19075
 C484 C 0.91200 0.48469 -0.15614
 H485 H 0.83099 0.47559 -0.42827
 H486 H 0.92798 0.52693 -0.18300
 H487 H 0.81683 0.51256 -0.34589
 H488 H 0.89417 0.46411 -0.15788
 C489 C 0.49513 0.31593 -0.39423
 C490 C 0.50854 0.34461 -0.39032
 C491 C 0.50440 0.35903 -0.33501
 N492 N 0.52438 0.38510 -0.32030
 N493 N 0.52052 0.39909 -0.27271
 C494 C 0.49635 0.38767 -0.23863
 N495 N 0.47624 0.36165 -0.25367
 N496 N 0.48025 0.34750 -0.30075
 C497 C 0.49142 0.40372 -0.18896
 C498 C 0.51330 0.42611 -0.15718
 H499 H 0.52398 0.35719 -0.42686
 H500 H 0.47031 0.39799 -0.17760
 H501 H 0.48353 0.30451 -0.35112
 H502 H 0.53416 0.43008 -0.16388
 C503 C 0.69327 0.17006 -0.36684
 C504 C 0.67660 0.17486 -0.32459
 C505 C 0.65888 0.15411 -0.27506
 N506 N 0.63996 0.15713 -0.24009
 N507 N 0.62239 0.13727 -0.19927
 C508 C 0.62316 0.11370 -0.19209
 N509 N 0.64229 0.11089 -0.22634
 N510 N 0.65982 0.13070 -0.26695
 C511 C 0.60261 0.09041 -0.15249
 C512 C 0.58230 0.09121 -0.11469
 H513 H 0.67477 0.19291 -0.33195
 H514 H 0.60283 0.07136 -0.15571
 H515 H 0.69364 0.15112 -0.36205
 H516 H 0.58271 0.11043 -0.10772
 C517 C 1.20350 0.52585 -0.37231
 C518 C 1.17475 0.51171 -0.36549
 C519 C 1.16063 0.51173 -0.30449
 N520 N 1.13441 0.49101 -0.29430
 N521 N 1.12048 0.49083 -0.24098
 C522 C 1.13211 0.51146 -0.19584
 N523 N 1.15840 0.53235 -0.20603
 N524 N 1.17252 0.53240 -0.25930
 C525 C 1.11546 0.51203 -0.14023
 C526 C 1.08990 0.48887 -0.12673
 H527 H 1.16181 0.49759 -0.40387
 H528 H 1.12180 0.53127 -0.11520
 H529 H 1.21559 0.53619 -0.32878
 H530 H 1.08445 0.46970 -0.15112
 C531 C 0.47954 0.67991 -0.36771
 C532 C 0.46339 0.65314 -0.34400
 C533 C 0.47314 0.64193 -0.29119
 N534 N 0.45501 0.61820 -0.25992
 N535 N 0.46389 0.60670 -0.21568
 C536 C 0.49128 0.61836 -0.20163
 N537 N 0.50941 0.64208 -0.23294
 N538 N 0.50050 0.65374 -0.27664
 C539 C 0.50156 0.60445 -0.15802
 C540 C 0.48430 0.58372 -0.11400
 H541 H 0.44346 0.63968 -0.36674
 H542 H 0.52298 0.60989 -0.16271
 H543 H 0.49837 0.69415 -0.34172
 H544 H 0.46358 0.57983 -0.10530
 C545 C 0.32517 -0.20408 -0.39210
 C546 C 0.34575 -0.17622 -0.39252
 C547 C 0.35976 -0.16054 -0.33237
 N548 N 0.37178 -0.13282 -0.33409
 N549 N 0.38488 -0.11781 -0.28106
 C550 C 0.38671 -0.12987 -0.22417
 N551 N 0.37496 -0.15766 -0.22248
 N552 N 0.36154 -0.17278 -0.27557
 C553 C 0.40215 -0.11276 -0.16660
 C554 C 0.40778 -0.08574 -0.16275
 H555 H 0.34972 -0.16419 -0.43754
 H556 H 0.41010 -0.12091 -0.12930
 H557 H 0.31947 -0.21384 -0.34400
 H558 H 0.39829 -0.07868 -0.19883
 C559 C 0.46651 -0.20336 0.36652
 C560 C 0.48677 -0.17684 0.34846
 C561 C 0.48519 -0.16265 0.28844
 N562 N 0.50751 -0.13831 0.27095
 N563 N 0.50624 -0.12399 0.21966
 C564 C 0.48257 -0.13333 0.18380
 N565 N 0.46021 -0.15784 0.20096
 N566 N 0.46152 -0.17229 0.25225
 C567 C 0.48051 -0.11596 0.13139
 C568 C 0.50309 -0.09005 0.11738
 H569 H 0.50469 -0.16575 0.38043
 H570 H 0.46051 -0.12211 0.10964
 H571 H 0.44943 -0.21558 0.33314
 H572 H 0.52279 -0.08407 0.14077
 C573 C 0.32629 0.51342 0.38837
 C574 C 0.33705 0.49596 0.38458
 C575 C 0.35342 0.49591 0.32782
 N576 N 0.36299 0.47814 0.32751
 N577 N 0.37906 0.47867 0.27840
 C578 C 0.38622 0.49704 0.22773
 N579 N 0.37651 0.51473 0.22780
 N580 N 0.36039 0.51417 0.27693
 C581 C 0.40523 0.49885 0.17519
 C582 C 0.41646 0.48173 0.17470
 H583 H 0.33402 0.48227 0.42583
 H584 H 0.41158 0.51492 0.13809
 H585 H 0.32798 0.52610 0.34601
 H586 H 0.41004 0.46567 0.21184
 C587 C 1.17612 0.69414 0.37407
 C588 C 1.17798 0.67813 0.32432
 C589 C 1.15473 0.66184 0.27861
 N590 N 1.15739 0.64687 0.22984
 N591 N 1.13587 0.63047 0.19145
 C592 C 1.11083 0.62829 0.20054
 N593 N 1.10822 0.64339 0.24905
 N594 N 1.12977 0.65988 0.28726
 C595 C 1.08639 0.60851 0.16205
 C596 C 1.08863 0.59320 0.11113
 H597 H 1.19588 0.67563 0.32247
 H598 H 1.06620 0.60466 0.17694
 H599 H 1.15752 0.69542 0.37721
 H600 H 1.10899 0.59757 0.09607
 C601 C 0.50062 0.18526 0.38701
 C602 C 0.48317 0.15732 0.37544
 C603 C 0.48682 0.14256 0.32022
 N604 N 0.46783 0.11570 0.31114
 N605 N 0.47089 0.10146 0.26294
 C606 C 0.49309 0.11347 0.22185
 N607 N 0.51214 0.14045 0.23072
 N608 N 0.50905 0.15477 0.27905
 C609 C 0.49682 0.09715 0.17029
 C610 C 0.47745 0.06929 0.16348
 H611 H 0.46583 0.14560 0.40845
 H612 H 0.51527 0.10666 0.13991
 H613 H 0.51708 0.19751 0.35232
 H614 H 0.45929 0.06017 0.19489
 C615 C 0.71110 0.54470 0.37992
 C616 C 0.69765 0.52714 0.32668
 C617 C 0.67983 0.53183 0.28069
 N618 N 0.66632 0.51394 0.23045
 N619 N 0.64846 0.51679 0.19201
 C620 C 0.64336 0.53759 0.20253
 N621 N 0.65705 0.55559 0.25235
 N622 N 0.67495 0.55280 0.29059
 C623 C 0.62194 0.53969 0.16458
 C624 C 0.60742 0.52205 0.11228
 H625 H 0.69818 0.50829 0.32223
 H626 H 0.61633 0.55446 0.18104
 H627 H 0.70922 0.56275 0.38584
 H628 H 0.61358 0.50785 0.09463
 C629 C 0.81897 0.30245 0.38670
 C630 C 0.82846 0.32972 0.36933
 C631 C 0.85087 0.34498 0.32143
 N632 N 0.85443 0.36865 0.29465
 N633 N 0.87579 0.38392 0.25501
 C634 C 0.89470 0.37636 0.24144
 N635 N 0.89130 0.35276 0.26865
 N636 N 0.86970 0.33729 0.30779
 C637 C 0.91875 0.39384 0.19914
 C638 C 0.91754 0.41187 0.15365
 H639 H 0.81990 0.34073 0.39413
 H640 H 0.93715 0.39223 0.20294
 H641 H 0.82530 0.29038 0.35813
 H642 H 0.89805 0.41124 0.14642
   
