data_POSCAR
  _audit_creation_date              2014-09-24
  _audit_creation_method            'ToBaCCo'
  _symmetry_space_group_name_H-M    'P1'
  _symmetry_Int_Tables_number       1
  _symmetry_cell_setting            triclinic
  loop_
  _symmetry_equiv_pos_as_xyz
 x,y,z
_cell_length_a 62.6755
_cell_length_b 62.4981
_cell_length_c 21.3712
_cell_angle_alpha 89.945200
_cell_angle_beta 89.982700
_cell_angle_gamma 119.958300
loop_
  _atom_site_label
  _atom_site_type_symbol
  _atom_site_fract_x
  _atom_site_fract_y
  _atom_site_fract_z
O1 O 0.21622 0.47389 0.44586
 O2 O 0.25884 0.47487 0.56423
 O3 O 0.21900 0.47811 0.56687
 O4 O 0.25762 0.47336 0.44329
 O5 O 0.27874 0.51399 0.43650
 O6 O 0.24086 0.51873 0.56103
 O7 O 0.28089 0.51542 0.55743
 O8 O 0.23719 0.51455 0.44002
 Cu9 Cu 0.23573 0.47102 0.50563
 Cu10 Cu 0.26154 0.51975 0.49808
 C11 C 0.21907 0.49392 0.42327
 C12 C 0.27746 0.49513 0.58041
 C13 C 0.22329 0.49929 0.58488
 C14 C 0.27508 0.49297 0.41943
 O15 O 0.51788 -0.25978 0.44619
 O16 O 0.51216 -0.22054 0.56421
 O17 O 0.51381 -0.26132 0.56686
 O18 O 0.51367 -0.22028 0.44245
 O19 O 0.47324 -0.24302 0.43645
 O20 O 0.47333 -0.28332 0.56168
 O21 O 0.47166 -0.24243 0.55821
 O22 O 0.47748 -0.28270 0.44108
 Cu23 Cu 0.51840 -0.23819 0.50541
 Cu24 Cu 0.46988 -0.26506 0.49861
 C25 C 0.49879 -0.27832 0.42430
 C26 C 0.49109 -0.22458 0.58138
 C27 C 0.49352 -0.27955 0.58527
 C28 C 0.49333 -0.22460 0.41840
 O29 O 1.22442 0.73722 0.54995
 O30 O 1.26924 0.77614 0.43147
 O31 O 1.22719 0.73542 0.42930
 O32 O 1.26804 0.77679 0.55332
 O33 O 1.28580 0.75406 0.56051
 O34 O 1.24596 0.71358 0.43525
 O35 O 1.28821 0.75458 0.43873
 O36 O 1.24202 0.71429 0.55584
 Cu37 Cu 1.24547 0.75867 0.49054
 Cu38 Cu 1.26736 0.73195 0.49850
 C39 C 1.22507 0.71874 0.57214
 C40 C 1.28643 0.77226 0.41460
 C41 C 1.22959 0.71734 0.41121
 C42 C 1.28405 0.77253 0.57789
 O43 O 0.78342 0.51962 0.44145
 O44 O 0.74462 0.52490 0.56246
 O45 O 0.78299 0.51929 0.56374
 O46 O 0.74483 0.52505 0.44171
 O47 O 0.72076 0.48457 0.44119
 O48 O 0.75909 0.47878 0.56324
 O49 O 0.72049 0.48446 0.56228
 O50 O 0.75956 0.47912 0.44118
 Cu51 Cu 0.76648 0.52624 0.50233
 Cu52 Cu 0.73762 0.47765 0.50189
 C53 C 0.77820 0.49854 0.42054
 C54 C 0.72565 0.50565 0.58254
 C55 C 0.77758 0.49812 0.58454
 C56 C 0.72599 0.50582 0.42133
 O57 O 0.47256 0.21521 0.56355
 O58 O 0.47021 0.25524 0.44114
 O59 O 0.47423 0.21572 0.44080
 O60 O 0.46987 0.25524 0.56186
 O61 O 0.51042 0.27741 0.56490
 O62 O 0.51473 0.23870 0.44178
 O63 O 0.51069 0.27834 0.44378
 O64 O 0.51310 0.23693 0.56344
 Cu65 Cu 0.46767 0.23294 0.50154
 Cu66 Cu 0.51630 0.26005 0.50367
 C67 C 0.49314 0.21909 0.58462
 C68 C 0.48994 0.27397 0.42248
 C69 C 0.49521 0.22054 0.42027
 C70 C 0.48946 0.27327 0.58368
 O71 O 0.78369 0.26490 0.56082
 O72 O 0.74288 0.22006 0.44314
 O73 O 0.78210 0.26364 0.43859
 O74 O 0.74416 0.22141 0.56422
 O75 O 0.72135 0.23918 0.56547
 O76 O 0.75872 0.28080 0.43799
 O77 O 0.71951 0.23721 0.44419
 O78 O 0.76126 0.28303 0.55889
 Cu79 Cu 0.76558 0.24083 0.50174
 Cu80 Cu 0.73790 0.26180 0.50194
 C81 C 0.77978 0.28198 0.57926
 C82 C 0.72402 0.22074 0.42411
 C83 C 0.77692 0.27942 0.41669
 C84 C 0.72601 0.22282 0.58573
 O85 O 1.03571 0.55490 0.11199
 O86 O 1.06245 0.54872 0.05194
 C87 C 1.05777 0.56030 0.09545
 O88 O 0.96597 0.44455 0.11010
 O89 O 0.93854 0.45151 0.05512
 C90 C 0.94371 0.43916 0.09535
 O91 O 1.03540 0.48113 0.11473
 O92 O 1.06227 0.51322 0.05231
 C93 C 1.05753 0.49764 0.09748
 O94 O 0.96697 0.52291 0.10851
 O95 O 0.93912 0.48872 0.05393
 C96 C 0.94459 0.50631 0.09399
 Zr97 Zr 1.00115 0.52775 0.07727
 O98 O 0.99897 0.52765 0.17612
 O99 O 1.00434 0.56311 0.07390
 Zr100 Zr 1.00058 0.47334 0.07916
 O101 O 0.99822 0.47171 0.17801
 O102 O 1.00314 0.44082 0.07835
 O103 O 1.02280 0.51139 0.08991
 O104 O 0.97959 0.49013 0.09079
 O105 O 0.96613 0.52206 -0.10907
 O106 O 0.93881 0.48821 -0.05215
 C107 C 0.94391 0.50556 -0.09289
 O108 O 1.03340 0.47901 -0.11614
 O109 O 1.06132 0.51172 -0.05742
 C110 C 1.05578 0.49531 -0.10101
 O111 O 0.96481 0.44379 -0.10934
 O112 O 0.93834 0.45069 -0.05005
 C113 C 0.94288 0.43846 -0.09178
 O114 O 1.03537 0.55355 -0.11771
 O115 O 1.06217 0.54755 -0.05736
 C116 C 1.05748 0.55865 -0.10186
 Zr117 Zr 1.00054 0.52697 -0.08024
 O118 O 0.99716 0.52530 -0.17893
 O119 O 1.00402 0.56246 -0.08034
 Zr120 Zr 0.99951 0.47233 -0.07829
 O121 O 0.99651 0.46938 -0.17690
 O122 O 1.00164 0.43960 -0.07302
 Zr123 Zr 1.03713 0.51807 -0.00178
 Zr124 Zr 0.96363 0.48206 0.00108
 O125 O 0.97860 0.48917 -0.08988
 O126 O 1.02185 0.51025 -0.09246
 O127 O 0.97879 0.52074 -0.00083
 O128 O 1.02154 0.47946 -0.00030
 O129 O 1.02241 0.54183 -0.00230
 O130 O 0.97787 0.45779 0.00145
 H131 H 0.96876 0.48493 0.12812
 H132 H 1.03271 0.47251 -0.00018
 H133 H 0.96745 0.48365 -0.12656
 H134 H 1.03384 0.55991 -0.00320
 H135 H 0.98874 0.42808 0.05513
 H136 H 0.98632 0.42672 -0.05306
 H137 H 1.00830 0.48576 -0.19434
 H138 H 1.01063 0.52310 -0.19591
 H139 H 0.99017 0.56138 -0.05560
 H140 H 0.98971 0.56141 0.05180
 H141 H 1.01186 0.52446 0.19264
 H142 H 1.01116 0.48785 0.19412
 O143 O 0.44760 0.48326 0.11159
 O144 O 0.45419 0.51634 0.05135
 C145 C 0.44247 0.50016 0.09484
 O146 O 0.55780 0.52305 0.11133
 O147 O 0.55069 0.48903 0.05428
 C148 C 0.56293 0.50601 0.09548
 O149 O 0.52131 0.55640 0.11585
 O150 O 0.48958 0.55154 0.05281
 C151 C 0.50493 0.56218 0.09833
 O152 O 0.47923 0.44590 0.10832
 O153 O 0.51356 0.45274 0.05394
 C154 C 0.49605 0.44039 0.09375
 Zr155 Zr 0.47468 0.47556 0.07668
 O156 O 0.47345 0.47257 0.17542
 O157 O 0.44036 0.44279 0.06702
 Zr158 Zr 0.52919 0.52930 0.07995
 O159 O 0.53098 0.52902 0.17882
 O160 O 0.56245 0.56342 0.07482
 O161 O 0.49118 0.51361 0.08995
 O162 O 0.51219 0.49142 0.09067
 O163 O 0.48102 0.44652 -0.10936
 O164 O 0.51436 0.45277 -0.05094
 C165 C 0.49737 0.44067 -0.09221
 O166 O 0.52456 0.55774 -0.11439
 O167 O 0.49155 0.55256 -0.05647
 C168 C 0.50815 0.56372 -0.09941
 O169 O 0.55974 0.52407 -0.10636
 O170 O 0.55140 0.48943 -0.05059
 C171 C 0.56439 0.50673 -0.09051
 O172 O 0.44974 0.48480 -0.11816
 O173 O 0.45568 0.51766 -0.05784
 C174 C 0.44466 0.50187 -0.10237
 Zr175 Zr 0.47609 0.47630 -0.08090
 O176 O 0.47812 0.47501 -0.17959
 O177 O 0.44088 0.44415 -0.08191
 Zr178 Zr 0.53065 0.52985 -0.07756
 O179 O 0.53329 0.52932 -0.17623
 O180 O 0.56352 0.56447 -0.07346
 Zr181 Zr 0.48485 0.52168 -0.00169
 Zr182 Zr 0.52042 0.48383 0.00082
 O183 O 0.51380 0.49208 -0.09012
 O184 O 0.49290 0.51447 -0.09239
 O185 O 0.48194 0.46046 -0.00153
 O186 O 0.52334 0.54456 0.00073
 O187 O 0.46101 0.48323 -0.00295
 O188 O 0.54476 0.52224 0.00222
 H189 H 0.51723 0.48567 0.12809
 H190 H 0.53038 0.56271 0.00123
 H191 H 0.51946 0.48645 -0.12658
 H192 H 0.44299 0.47670 -0.00409
 H193 H 0.56744 0.56864 0.11867
 H194 H 0.57456 0.56288 -0.04303
 H195 H 0.51753 0.52664 -0.19368
 H196 H 0.48064 0.49089 -0.19614
 H197 H 0.44126 0.43246 -0.05129
 H198 H 0.43435 0.43709 0.11011
 H199 H 0.47816 0.48906 0.19236
 H200 H 0.51454 0.52484 0.19483
 O201 O 0.51971 -0.03179 0.11566
 O202 O 0.48798 -0.05969 0.05430
 C203 C 0.50389 -0.05422 0.09908
 O204 O 0.47489 0.03432 0.10594
 O205 O 0.50898 0.06261 0.05183
 C206 C 0.49112 0.05683 0.09119
 O207 O 0.44493 -0.03431 0.11177
 O208 O 0.45177 -0.06086 0.05257
 C209 C 0.44017 -0.05633 0.09621
 O210 O 0.55424 0.03740 0.11155
 O211 O 0.54671 0.06403 0.05462
 C212 C 0.55908 0.05949 0.09595
 Zr213 Zr 0.52612 0.00245 0.07969
 O214 O 0.52684 0.00485 0.17856
 O215 O 0.55909 0.00087 0.08014
 Zr216 Zr 0.47126 0.00051 0.07582
 O217 O 0.47089 0.00297 0.17454
 O218 O 0.43563 -0.00363 0.07100
 O219 O 0.48821 -0.02057 0.08975
 O220 O 0.50865 0.02284 0.08986
 O221 O 0.55640 0.03839 -0.10618
 O222 O 0.54790 0.06458 -0.05029
 C223 C 0.56098 0.06037 -0.09010
 O224 O 0.44771 -0.03328 -0.12076
 O225 O 0.45261 -0.06051 -0.05885
 C226 C 0.44202 -0.05552 -0.10437
 O227 O 0.47892 0.03559 -0.11588
 O228 O 0.51068 0.06326 -0.05402
 C229 C 0.49478 0.05792 -0.09860
 O230 O 0.52169 -0.03099 -0.11437
 O231 O 0.48886 -0.05915 -0.05625
 C232 C 0.50534 -0.05349 -0.09949
 Zr233 Zr 0.52770 0.00303 -0.07757
 O234 O 0.53060 0.00595 -0.17627
 O235 O 0.56058 0.00134 -0.07293
 Zr236 Zr 0.47275 0.00117 -0.08102
 O237 O 0.47036 0.00208 -0.17952
 O238 O 0.43749 -0.00216 -0.07429
 Zr239 Zr 0.48198 -0.03527 -0.00159
 Zr240 Zr 0.51685 0.03864 -0.00012
 O241 O 0.51047 0.02344 -0.09067
 O242 O 0.49001 -0.01975 -0.09228
 O243 O 0.54161 0.02504 0.00178
 O244 O 0.45779 -0.02108 -0.00335
 O245 O 0.52060 -0.01880 0.00085
 O246 O 0.47826 0.02296 -0.00256
 H247 H 0.51344 0.03374 0.12700
 H248 H 0.43985 -0.03293 -0.00437
 H249 H 0.51632 0.03449 -0.12763
 H250 H 0.52797 -0.02961 0.00132
 H251 H 0.43696 0.01047 0.04674
 H252 H 0.43983 0.01428 -0.06356
 H253 H 0.48641 0.00538 -0.19628
 H254 H 0.51481 -0.00712 -0.19373
 H255 H 0.57295 0.01618 -0.05026
 H256 H 0.57173 0.01554 0.05738
 H257 H 0.51124 -0.00908 0.19441
 H258 H 0.47514 -0.00911 0.19178
 C259 C 1.18179 0.47015 0.35653
 C260 C 1.16308 0.46887 0.31861
 C261 C 1.16270 0.49036 0.30168
 C262 C 1.18175 0.51335 0.32301
 C263 C 1.20057 0.51464 0.36086
 C264 C 1.20059 0.49301 0.37868
 C265 C 1.14141 0.48766 0.26505
 C266 C 1.14121 0.50615 0.23374
 C267 C 1.11943 0.50305 0.19879
 C268 C 1.12300 0.51938 0.14963
 C269 C 1.10295 0.51740 0.11627
 C270 C 1.07877 0.49913 0.13177
 C271 C 1.07515 0.48291 0.18142
 C272 C 1.09524 0.48489 0.21475
 H273 H 1.18125 0.45312 0.36937
 H274 H 1.14863 0.45093 0.30311
 H275 H 1.18188 0.53034 0.31255
 H276 H 1.21468 0.53250 0.37771
 H277 H 1.12546 0.46932 0.26257
 H278 H 1.15779 0.52401 0.23105
 H279 H 1.14140 0.53369 0.13685
 H280 H 1.10644 0.53036 0.07863
 H281 H 1.05678 0.46885 0.19510
 H282 H 1.09163 0.47252 0.25380
 C283 C 0.52501 0.71033 0.36516
 C284 C 0.52781 0.69358 0.32787
 C285 C 0.50722 0.67182 0.30695
 C286 C 0.48356 0.66723 0.32378
 C287 C 0.48071 0.68403 0.36097
 C288 C 0.50141 0.70567 0.38295
 C289 C 0.51135 0.65398 0.27071
 C290 C 0.49414 0.63619 0.23471
 C291 C 0.49819 0.61808 0.19960
 C292 C 0.48286 0.60596 0.14853
 C293 C 0.48536 0.58816 0.11522
 C294 C 0.50319 0.58186 0.13251
 C295 C 0.51857 0.59394 0.18376
 C296 C 0.51606 0.61181 0.21715
 H297 H 0.54147 0.72674 0.38089
 H298 H 0.54623 0.69754 0.31585
 H299 H 0.46718 0.65038 0.31022
 H300 H 0.46224 0.67966 0.37386
 H301 H 0.52963 0.65628 0.27246
 H302 H 0.47658 0.63526 0.22826
 H303 H 0.46882 0.61026 0.13435
 H304 H 0.47307 0.57916 0.07621
 H305 H 0.53230 0.58934 0.19872
 H306 H 0.52772 0.62011 0.25748
 C307 C 0.32414 -0.21434 0.35322
 C308 C 0.34181 -0.19761 0.31128
 C309 C 0.33930 -0.17840 0.28499
 C310 C 0.31808 -0.17703 0.29884
 C311 C 0.30063 -0.19346 0.34105
 C312 C 0.30357 -0.21212 0.36977
 C313 C 0.35906 -0.15993 0.24402
 C314 C 0.36333 -0.13671 0.23880
 C315 C 0.38324 -0.11693 0.20091
 C316 C 0.38869 -0.09258 0.21150
 C317 C 0.40701 -0.07307 0.17728
 C318 C 0.42038 -0.07739 0.13112
 C319 C 0.41484 -0.10181 0.11983
 C320 C 0.39640 -0.12143 0.15426
 H321 H 0.32696 -0.22859 0.37370
 H322 H 0.35779 -0.19931 0.30059
 H323 H 0.31478 -0.16329 0.27720
 H324 H 0.28481 -0.19140 0.35118
 H325 H 0.37115 -0.16524 0.22141
 H326 H 0.35236 -0.13125 0.26640
 H327 H 0.37878 -0.08854 0.24678
 H328 H 0.41069 -0.05455 0.18728
 H329 H 0.42476 -0.10577 0.08446
 H330 H 0.39244 -0.13996 0.14353
 C331 C 0.79191 0.47379 0.35693
 C332 C 0.80803 0.47242 0.31391
 C333 C 0.82681 0.49388 0.28556
 C334 C 0.82838 0.51669 0.29907
 C335 C 0.81242 0.51807 0.34236
 C336 C 0.79422 0.49671 0.37241
 C337 C 0.84445 0.49182 0.24294
 C338 C 0.86725 0.51070 0.23203
 C339 C 0.88620 0.50896 0.19416
 C340 C 0.91082 0.52760 0.20141
 C341 C 0.92960 0.52683 0.16833
 C342 C 0.92427 0.50742 0.12663
 C343 C 0.89955 0.48899 0.11801
 C344 C 0.88067 0.48975 0.15132
 H345 H 0.77797 0.45697 0.37900
 H346 H 0.80618 0.45459 0.30383
 H347 H 0.84182 0.53355 0.27633
 H348 H 0.81438 0.53595 0.35237
 H349 H 0.83899 0.47375 0.22415
 H350 H 0.87319 0.52811 0.25546
 H351 H 0.91564 0.54273 0.23359
 H352 H 0.94838 0.54145 0.17598
 H353 H 0.89478 0.47386 0.08591
 H354 H 0.86190 0.47538 0.14292
 C355 C 0.46568 0.28623 0.35297
 C356 C 0.46401 0.30326 0.31391
 C357 C 0.48512 0.32551 0.29760
 C358 C 0.50811 0.33033 0.32105
 C359 C 0.50979 0.31327 0.36013
 C360 C 0.48856 0.29115 0.37707
 C361 C 0.48213 0.34371 0.25949
 C362 C 0.50047 0.36195 0.22680
 C363 C 0.49775 0.38083 0.19114
 C364 C 0.51474 0.39384 0.14347
 C365 C 0.51380 0.41273 0.11094
 C366 C 0.49589 0.41924 0.12570
 C367 C 0.47870 0.40608 0.17306
 C368 C 0.47965 0.38714 0.20563
 H369 H 0.44895 0.26940 0.36520
 H370 H 0.44607 0.29913 0.29688
 H371 H 0.52476 0.34755 0.31126
 H372 H 0.52765 0.31772 0.37841
 H373 H 0.46385 0.34142 0.25727
 H374 H 0.51815 0.36287 0.22422
 H375 H 0.52897 0.38950 0.13164
 H376 H 0.52739 0.42247 0.07481
 H377 H 0.46482 0.41075 0.18601
 H378 H 0.46666 0.37811 0.24330
 C379 C 0.71176 0.18367 0.35629
 C380 C 0.69493 0.16501 0.31694
 C381 C 0.67293 0.16414 0.29939
 C382 C 0.66815 0.18249 0.32204
 C383 C 0.68501 0.20118 0.36133
 C384 C 0.70691 0.20186 0.37936
 C385 C 0.65491 0.14302 0.26094
 C386 C 0.63665 0.14308 0.22826
 C387 C 0.61779 0.12137 0.19304
 C388 C 0.60452 0.12513 0.14561
 C389 C 0.58575 0.10512 0.11339
 C390 C 0.57966 0.08079 0.12827
 C391 C 0.59301 0.07701 0.17562
 C392 C 0.61177 0.09702 0.20783
 H393 H 0.72843 0.18361 0.36935
 H394 H 0.69902 0.15104 0.30062
 H395 H 0.65113 0.18216 0.31138
 H396 H 0.68061 0.21479 0.37872
 H397 H 0.65728 0.12704 0.25875
 H398 H 0.63561 0.15982 0.22559
 H399 H 0.60861 0.14364 0.13361
 H400 H 0.57584 0.10875 0.07728
 H401 H 0.58870 0.05853 0.18867
 H402 H 0.62094 0.09319 0.24537
 C403 C 0.47181 0.18591 -0.33893
 C404 C 0.47222 0.17012 -0.29326
 C405 C 0.49430 0.17087 -0.27805
 C406 C 0.51624 0.18838 -0.30712
 C407 C 0.51602 0.20480 -0.35135
 C408 C 0.49370 0.20347 -0.36881
 C409 C 0.49392 0.15275 -0.23317
 C410 C 0.50417 0.13907 -0.24739
 C411 C 0.50098 0.11838 -0.20765
 C412 C 0.49492 0.09585 -0.23599
 C413 C 0.49198 0.07594 -0.19988
 C414 C 0.49587 0.07848 -0.13497
 C415 C 0.50225 0.10116 -0.10650
 C416 C 0.50443 0.12089 -0.14251
 H417 H 0.45428 0.18441 -0.35045
 H418 H 0.45513 0.15675 -0.27115
 H419 H 0.53353 0.18938 -0.29547
 H420 H 0.53327 0.21805 -0.37301
 H421 H 0.48267 0.14858 -0.19147
 H422 H 0.51293 0.14140 -0.29262
 H423 H 0.49230 0.09362 -0.28617
 H424 H 0.48741 0.05876 -0.22300
 H425 H 0.50551 0.10356 -0.05655
 H426 H 0.50941 0.13826 -0.11986
 C427 C 0.71538 0.53135 -0.35214
 C428 C 0.69909 0.53383 -0.31226
 C429 C 0.67716 0.51306 -0.29266
 C430 C 0.67195 0.48956 -0.31346
 C431 C 0.68826 0.48704 -0.35328
 C432 C 0.71006 0.50793 -0.37394
 C433 C 0.65964 0.51692 -0.25419
 C434 C 0.64147 0.49913 -0.22003
 C435 C 0.62302 0.50269 -0.18503
 C436 C 0.60978 0.48615 -0.13663
 C437 C 0.59118 0.48784 -0.10492
 C438 C 0.58526 0.50607 -0.12124
 C439 C 0.59869 0.52282 -0.16926
 C440 C 0.61728 0.52110 -0.20102
 H441 H 0.73194 0.54794 -0.36671
 H442 H 0.70351 0.55215 -0.29728
 H443 H 0.65496 0.47310 -0.30103
 H444 H 0.68339 0.46869 -0.36911
 H445 H 0.66230 0.53540 -0.25341
 H446 H 0.64017 0.48126 -0.21604
 H447 H 0.61367 0.47168 -0.12367
 H448 H 0.58120 0.47457 -0.06826
 H449 H 0.59445 0.53692 -0.18344
 H450 H 0.62644 0.53374 -0.23931
 C451 C 0.79479 0.32144 -0.36663
 C452 C 0.81256 0.34047 -0.32974
 C453 C 0.83162 0.33819 -0.30227
 C454 C 0.83273 0.31657 -0.31228
 C455 C 0.81546 0.29785 -0.35084
 C456 C 0.79631 0.30008 -0.37901
 C457 C 0.85131 0.35931 -0.26791
 C458 C 0.86079 0.35660 -0.21437
 C459 C 0.88159 0.37784 -0.18316
 C460 C 0.88091 0.38121 -0.11844
 C461 C 0.90070 0.40123 -0.08859
 C462 C 0.92180 0.41754 -0.12276
 C463 C 0.92265 0.41381 -0.18725
 C464 C 0.90259 0.39433 -0.21737
 H465 H 0.78044 0.32397 -0.38741
 H466 H 0.81152 0.35709 -0.32290
 H467 H 0.84753 0.31459 -0.29233
 H468 H 0.81728 0.28173 -0.35891
 H469 H 0.85781 0.37768 -0.28660
 H470 H 0.85274 0.33865 -0.19207
 H471 H 0.86494 0.36857 -0.09125
 H472 H 0.89974 0.40372 -0.03871
 H473 H 0.93872 0.42622 -0.21450
 H474 H 0.90364 0.39183 -0.26720
 C475 C 0.46698 -0.20891 -0.35962
 C476 C 0.46607 -0.19193 -0.31863
 C477 C 0.48759 -0.17361 -0.28970
 C478 C 0.50986 -0.17340 -0.30008
 C479 C 0.51079 -0.19025 -0.34113
 C480 C 0.48946 -0.20793 -0.37214
 C481 C 0.48631 -0.15501 -0.24935
 C482 C 0.50563 -0.13223 -0.24112
 C483 C 0.50488 -0.11268 -0.20366
 C484 C 0.52305 -0.08805 -0.21450
 C485 C 0.52329 -0.06889 -0.18052
 C486 C 0.50540 -0.07392 -0.13439
 C487 C 0.48738 -0.09863 -0.12274
 C488 C 0.48714 -0.11784 -0.15686
 H489 H 0.45020 -0.22243 -0.38253
 H490 H 0.44863 -0.19270 -0.31072
 H491 H 0.52665 -0.16031 -0.27658
 H492 H 0.52833 -0.18929 -0.34887
 H493 H 0.46856 -0.15975 -0.22979
 H494 H 0.52261 -0.12697 -0.26593
 H495 H 0.53705 -0.08358 -0.24988
 H496 H 0.53748 -0.05010 -0.19065
 H497 H 0.47340 -0.10319 -0.08729
 H498 H 0.47326 -0.13660 -0.14571
 C499 C 0.29082 0.47235 -0.35281
 C500 C 0.30867 0.47164 -0.31535
 C501 C 0.33071 0.49331 -0.30143
 C502 C 0.33438 0.51596 -0.32503
 C503 C 0.31644 0.51672 -0.36238
 C504 C 0.29459 0.49486 -0.37772
 C505 C 0.34974 0.49108 -0.26545
 C506 C 0.36906 0.51005 -0.23753
 C507 C 0.38809 0.50727 -0.20332
 C508 C 0.40160 0.52433 -0.15630
 C509 C 0.41984 0.52247 -0.12333
 C510 C 0.42515 0.50360 -0.13713
 C511 C 0.41187 0.48674 -0.18493
 C512 C 0.39360 0.48858 -0.21784
 H513 H 0.27426 0.45507 -0.36315
 H514 H 0.30537 0.45395 -0.29794
 H515 H 0.35131 0.53306 -0.31678
 H516 H 0.32011 0.53440 -0.38076
 H517 H 0.34719 0.47271 -0.26061
 H518 H 0.37064 0.52809 -0.23699
 H519 H 0.39792 0.53905 -0.14472
 H520 H 0.42983 0.53593 -0.08715
 H521 H 0.41568 0.47217 -0.19725
 H522 H 0.38423 0.47563 -0.25536
 C523 C 1.18731 0.70745 -0.36455
 C524 C 1.16751 0.69073 -0.32788
 C525 C 1.16532 0.66813 -0.30995
 C526 C 1.18355 0.66263 -0.32936
 C527 C 1.20342 0.67942 -0.36597
 C528 C 1.20537 0.70189 -0.38450
 C529 C 1.14322 0.65044 -0.27395
 C530 C 1.14219 0.63202 -0.23948
 C531 C 1.12005 0.61409 -0.20410
 C532 C 1.12314 0.60122 -0.15447
 C533 C 1.10286 0.58355 -0.12096
 C534 C 1.07886 0.57812 -0.13658
 C535 C 1.07568 0.59095 -0.18640
 C536 C 1.09605 0.60871 -0.22000
 H537 H 1.18821 0.72458 -0.37817
 H538 H 1.15370 0.69538 -0.31395
 H539 H 1.18222 0.64513 -0.31830
 H540 H 1.21686 0.67447 -0.38123
 H541 H 1.12763 0.65341 -0.27432
 H542 H 1.15852 0.63043 -0.23440
 H543 H 1.14136 0.60484 -0.14155
 H544 H 1.10608 0.57398 -0.08307
 H545 H 1.05744 0.58704 -0.20003
 H546 H 1.09278 0.61766 -0.25917
 C547 C 0.79113 0.47316 -0.35226
 C548 C 0.80701 0.47164 -0.30876
 C549 C 0.82526 0.49295 -0.27886
 C550 C 0.82649 0.51569 -0.29106
 C551 C 0.81080 0.51724 -0.33488
 C552 C 0.79321 0.49608 -0.36666
 C553 C 0.84292 0.49088 -0.23648
 C554 C 0.86562 0.50987 -0.22563
 C555 C 0.88481 0.50815 -0.18901
 C556 C 0.90936 0.52675 -0.19756
 C557 C 0.92837 0.52597 -0.16584
 C558 C 0.92334 0.50658 -0.12421
 C559 C 0.89869 0.48819 -0.11423
 C560 C 0.87957 0.48897 -0.14624
 H561 H 0.77764 0.45649 -0.37569
 H562 H 0.80544 0.45386 -0.29968
 H563 H 0.83950 0.53238 -0.26702
 H564 H 0.81251 0.53508 -0.34399
 H565 H 0.83770 0.47275 -0.21835
 H566 H 0.87135 0.52735 -0.24861
 H567 H 0.91394 0.54186 -0.22973
 H568 H 0.94709 0.54056 -0.17445
 H569 H 0.89417 0.47311 -0.08207
 H570 H 0.86085 0.47464 -0.13691
 C571 C 0.46484 0.28552 -0.34810
 C572 C 0.46321 0.30235 -0.30821
 C573 C 0.48449 0.32393 -0.28917
 C574 C 0.50757 0.32826 -0.31052
 C575 C 0.50920 0.31140 -0.35028
 C576 C 0.48784 0.29001 -0.37012
 C577 C 0.48170 0.34219 -0.25104
 C578 C 0.49999 0.35997 -0.21730
 C579 C 0.49778 0.37948 -0.18358
 C580 C 0.51445 0.39230 -0.13523
 C581 C 0.51402 0.41184 -0.10477
 C582 C 0.49698 0.41915 -0.12238
 C583 C 0.48014 0.40620 -0.17047
 C584 C 0.48058 0.38666 -0.20096
 H585 H 0.44802 0.26923 -0.36262
 H586 H 0.44520 0.29865 -0.29287
 H587 H 0.52440 0.34499 -0.29873
 H588 H 0.52718 0.31551 -0.36688
 H589 H 0.46368 0.34057 -0.25043
 H590 H 0.51730 0.36020 -0.21296
 H591 H 0.52801 0.38730 -0.12129
 H592 H 0.52729 0.42141 -0.06795
 H593 H 0.46690 0.41146 -0.18554
 H594 H 0.46794 0.37784 -0.23931
 C595 C 0.71488 0.18675 -0.34351
 C596 C 0.69834 0.16819 -0.30341
 C597 C 0.67627 0.16711 -0.28558
 C598 C 0.67125 0.18533 -0.30816
 C599 C 0.68784 0.20394 -0.34817
 C600 C 0.70967 0.20466 -0.36702
 C601 C 0.65834 0.14578 -0.24748
 C602 C 0.63972 0.14537 -0.21547
 C603 C 0.62074 0.12329 -0.18157
 C604 C 0.60696 0.12650 -0.13456
 C605 C 0.58792 0.10613 -0.10398
 C606 C 0.58206 0.08198 -0.12015
 C607 C 0.59596 0.07875 -0.16691
 C608 C 0.61501 0.09913 -0.19750
 H609 H 0.73151 0.18673 -0.35719
 H610 H 0.70262 0.15434 -0.28709
 H611 H 0.65418 0.18485 -0.29723
 H612 H 0.68317 0.21732 -0.36592
 H613 H 0.66094 0.12993 -0.24539
 H614 H 0.63837 0.16194 -0.21259
 H615 H 0.61082 0.14486 -0.12174
 H616 H 0.57759 0.10935 -0.06824
 H617 H 0.59182 0.06042 -0.18092
 H618 H 0.62459 0.09574 -0.23483
 C619 C 1.21061 0.52462 -0.35063
 C620 C 1.19439 0.52648 -0.30904
 C621 C 1.17439 0.50521 -0.28363
 C622 C 1.17168 0.48200 -0.29818
 C623 C 1.18787 0.48013 -0.33983
 C624 C 1.20727 0.50138 -0.36736
 C625 C 1.15662 0.50789 -0.24307
 C626 C 1.13292 0.49018 -0.23815
 C627 C 1.11398 0.49263 -0.20217
 C628 C 1.08917 0.47593 -0.21520
 C629 C 1.07044 0.47698 -0.18265
 C630 C 1.07600 0.49474 -0.13569
 C631 C 1.10087 0.51152 -0.12228
 C632 C 1.11970 0.51045 -0.15504
 H633 H 1.22547 0.54138 -0.37067
 H634 H 1.19709 0.54459 -0.29804
 H635 H 1.15710 0.46522 -0.27760
 H636 H 1.18500 0.46198 -0.35102
 H637 H 1.16290 0.52562 -0.22106
 H638 H 1.12646 0.47340 -0.26503
 H639 H 1.08419 0.46196 -0.25100
 H640 H 1.05154 0.46373 -0.19436
 H641 H 1.10579 0.52536 -0.08619
 H642 H 1.13856 0.52332 -0.14243
 C643 C 0.47105 0.68345 -0.34995
 C644 C 0.47095 0.66627 -0.30790
 C645 C 0.49307 0.66907 -0.28430
 C646 C 0.51536 0.69017 -0.30136
 C647 C 0.51551 0.70740 -0.34346
 C648 C 0.49337 0.70407 -0.36927
 C649 C 0.49206 0.64955 -0.24264
 C650 C 0.51082 0.64511 -0.23660
 C651 C 0.50951 0.62431 -0.19980
 C652 C 0.52678 0.61686 -0.21269
 C653 C 0.52631 0.59727 -0.18013
 C654 C 0.50860 0.58465 -0.13337
 C655 C 0.49146 0.59228 -0.11969
 C656 C 0.49194 0.61196 -0.15235
 H657 H 0.45355 0.68025 -0.36810
 H658 H 0.45350 0.65037 -0.29495
 H659 H 0.53275 0.69354 -0.28231
 H660 H 0.53307 0.72317 -0.35628
 H661 H 0.47458 0.63731 -0.22058
 H662 H 0.52749 0.65610 -0.26328
 H663 H 0.54060 0.62611 -0.24864
 H664 H 0.53986 0.59199 -0.19187
 H665 H 0.47768 0.58311 -0.08361
 H666 H 0.47873 0.61752 -0.13956
 C667 C 0.32010 -0.21412 -0.35003
 C668 C 0.33734 -0.19727 -0.30782
 C669 C 0.33629 -0.17633 -0.28889
 C670 C 0.31681 -0.17322 -0.31094
 C671 C 0.29958 -0.19005 -0.35328
 C672 C 0.30124 -0.21049 -0.37406
 C673 C 0.35589 -0.15815 -0.24691
 C674 C 0.36228 -0.13421 -0.24520
 C675 C 0.38301 -0.11494 -0.20792
 C676 C 0.39105 -0.09016 -0.22231
 C677 C 0.41026 -0.07109 -0.18908
 C678 C 0.42199 -0.07620 -0.14001
 C679 C 0.41399 -0.10101 -0.12518
 C680 C 0.39465 -0.12022 -0.15864
 H681 H 0.32184 -0.22975 -0.36472
 H682 H 0.35193 -0.20031 -0.29109
 H683 H 0.31470 -0.15789 -0.29563
 H684 H 0.28510 -0.18689 -0.37020
 H685 H 0.36643 -0.16448 -0.22064
 H686 H 0.35282 -0.12783 -0.27566
 H687 H 0.38245 -0.08546 -0.25972
 H688 H 0.41579 -0.05225 -0.20191
 H689 H 0.42251 -0.10561 -0.08740
 H690 H 0.38875 -0.13901 -0.14492
 C691 C 0.47037 -0.21131 0.34684
 C692 C 0.46982 -0.19458 0.30430
 C693 C 0.49171 -0.17383 0.28427
 C694 C 0.51433 -0.17080 0.30560
 C695 C 0.51488 -0.18751 0.34830
 C696 C 0.49289 -0.20776 0.37011
 C697 C 0.49011 -0.15579 0.24191
 C698 C 0.50778 -0.13196 0.23841
 C699 C 0.50596 -0.11286 0.20098
 C700 C 0.52249 -0.08799 0.21460
 C701 C 0.52172 -0.06913 0.18160
 C702 C 0.50442 -0.07458 0.13359
 C703 C 0.48795 -0.09949 0.11925
 C704 C 0.48873 -0.11846 0.15243
 H705 H 0.45308 -0.22679 0.36236
 H706 H 0.45216 -0.19755 0.28814
 H707 H 0.53168 -0.15563 0.28949
 H708 H 0.53255 -0.18442 0.36464
 H709 H 0.47300 -0.16207 0.21693
 H710 H 0.52393 -0.12549 0.26763
 H711 H 0.53604 -0.08307 0.25139
 H712 H 0.53478 -0.05020 0.19395
 H713 H 0.47449 -0.10435 0.08228
 H714 H 0.47603 -0.13733 0.13919
 C715 C 0.28829 0.46846 0.35322
 C716 C 0.30541 0.46713 0.31383
 C717 C 0.32650 0.48868 0.29333
 C718 C 0.32990 0.51173 0.31257
 C719 C 0.31273 0.51306 0.35172
 C720 C 0.29190 0.49145 0.37320
 C721 C 0.34514 0.48620 0.25585
 C722 C 0.36332 0.50474 0.22326
 C723 C 0.38290 0.50253 0.18976
 C724 C 0.39625 0.51961 0.14236
 C725 C 0.41546 0.51879 0.11125
 C726 C 0.42190 0.50091 0.12718
 C727 C 0.40866 0.48390 0.17494
 C728 C 0.38947 0.48474 0.20606
 H729 H 0.27248 0.45146 0.36906
 H730 H 0.30236 0.44913 0.30016
 H731 H 0.34614 0.52882 0.29961
 H732 H 0.31621 0.53107 0.36669
 H733 H 0.34346 0.46811 0.25484
 H734 H 0.36382 0.52223 0.21936
 H735 H 0.39180 0.53369 0.12935
 H736 H 0.42533 0.53227 0.07493
 H737 H 0.41326 0.47003 0.18890
 H738 H 0.38032 0.47179 0.24377
 C739 C 1.21450 0.67934 0.34527
 C740 C 1.19776 0.66222 0.30272
 C741 C 1.17890 0.66538 0.27713
 C742 C 1.17789 0.68676 0.29271
 C743 C 1.19462 0.70387 0.33537
 C744 C 1.21288 0.70015 0.36289
 C745 C 1.16053 0.64586 0.23545
 C746 C 1.13751 0.64178 0.22857
 C747 C 1.11787 0.62088 0.19271
 C748 C 1.09336 0.61425 0.20507
 C749 C 1.07402 0.59464 0.17358
 C750 C 1.07864 0.58114 0.12832
 C751 C 1.10321 0.58791 0.11509
 C752 C 1.12266 0.60762 0.14683
 H753 H 1.22845 0.67599 0.36524
 H754 H 1.19915 0.64610 0.29102
 H755 H 1.16426 0.69041 0.27218
 H756 H 1.19308 0.71988 0.34729
 H757 H 1.16561 0.63329 0.21447
 H758 H 1.13202 0.65317 0.25420
 H759 H 1.08910 0.62418 0.23981
 H760 H 1.05538 0.59010 0.18491
 H761 H 1.10743 0.57802 0.08016
 H762 H 1.14129 0.61250 0.13461
 C763 C 0.51987 0.20720 0.35561
 C764 C 0.52139 0.19154 0.31141
 C765 C 0.50010 0.17306 0.28210
 C766 C 0.47729 0.17128 0.29604
 C767 C 0.47575 0.18681 0.34058
 C768 C 0.49697 0.20473 0.37141
 C769 C 0.50242 0.15588 0.23839
 C770 C 0.48369 0.13318 0.22583
 C771 C 0.48604 0.11451 0.18827
 C772 C 0.46786 0.08967 0.19556
 C773 C 0.46942 0.07112 0.16340
 C774 C 0.48918 0.07692 0.12260
 C775 C 0.50709 0.10186 0.11371
 C776 C 0.50554 0.12051 0.14612
 H777 H 0.53660 0.22094 0.37826
 H778 H 0.53921 0.19352 0.30112
 H779 H 0.46055 0.15803 0.27271
 H780 H 0.45790 0.18475 0.35091
 H781 H 0.52062 0.16144 0.22061
 H782 H 0.46607 0.12699 0.24816
 H783 H 0.45254 0.08451 0.22723
 H784 H 0.45516 0.05215 0.17115
 H785 H 0.52244 0.10697 0.08220
 H786 H 0.51955 0.13948 0.13765
 C787 C 0.71510 0.53167 0.35350
 C788 C 0.69862 0.53422 0.31449
 C789 C 0.67636 0.51350 0.29648
 C790 C 0.67098 0.49002 0.31804
 C791 C 0.68748 0.48747 0.35696
 C792 C 0.70958 0.50828 0.37573
 C793 C 0.65864 0.51731 0.25885
 C794 C 0.64055 0.49944 0.22487
 C795 C 0.62184 0.50269 0.19037
 C796 C 0.60881 0.48618 0.14190
 C797 C 0.59005 0.48758 0.11040
 C798 C 0.58370 0.50547 0.12702
 C799 C 0.59685 0.52216 0.17527
 C800 C 0.61565 0.52075 0.20683
 H801 H 0.73194 0.54810 0.36722
 H802 H 0.70314 0.55252 0.29895
 H803 H 0.65373 0.47364 0.30701
 H804 H 0.68258 0.46922 0.37377
 H805 H 0.66108 0.53571 0.25842
 H806 H 0.63955 0.48172 0.22050
 H807 H 0.61306 0.47199 0.12861
 H808 H 0.58032 0.47439 0.07349
 H809 H 0.59231 0.53603 0.18958
 H810 H 0.62469 0.53334 0.24519
 C811 C 0.78973 0.31682 0.34949
 C812 C 0.80565 0.33407 0.30573
 C813 C 0.82473 0.33163 0.27870
 C814 C 0.82674 0.31076 0.29392
 C815 C 0.81094 0.29362 0.33794
 C816 C 0.79254 0.29667 0.36700
 C817 C 0.84242 0.35138 0.23625
 C818 C 0.86558 0.35604 0.22804
 C819 C 0.88473 0.37717 0.19173
 C820 C 0.90939 0.38395 0.20222
 C821 C 0.92836 0.40392 0.17072
 C822 C 0.92320 0.41767 0.12739
 C823 C 0.89847 0.41066 0.11573
 C824 C 0.87938 0.39057 0.14746
 H825 H 0.77562 0.31961 0.37071
 H826 H 0.80348 0.34977 0.29429
 H827 H 0.84046 0.30755 0.27217
 H828 H 0.81328 0.27804 0.34957
 H829 H 0.83673 0.36359 0.21593
 H830 H 0.87163 0.34496 0.25303
 H831 H 0.91408 0.37391 0.23564
 H832 H 0.94714 0.40862 0.18074
 H833 H 0.89385 0.42072 0.08221
 H834 H 0.86062 0.38557 0.13664
   
