data_POSCAR
  _audit_creation_date              2014-09-24
  _audit_creation_method            'ToBaCCo'
  _symmetry_space_group_name_H-M    'P1'
  _symmetry_Int_Tables_number       1
  _symmetry_cell_setting            triclinic
  loop_
  _symmetry_equiv_pos_as_xyz
 x,y,z
_cell_length_a 57.0899
_cell_length_b 56.9958
_cell_length_c 39.8152
_cell_angle_alpha 89.996100
_cell_angle_beta 90.047300
_cell_angle_gamma 93.118900
loop_
  _atom_site_label
  _atom_site_type_symbol
  _atom_site_fract_x
  _atom_site_fract_y
  _atom_site_fract_z
O1 O -0.02098 0.28402 0.04332
 O2 O 0.02283 0.28694 -0.02539
 O3 O -0.02308 0.29007 -0.02149
 O4 O 0.02467 0.28201 0.03913
 O5 O 0.02037 0.24359 0.03206
 O6 O -0.02764 0.25157 -0.02731
 O7 O 0.01708 0.24872 -0.03258
 O8 O -0.02442 0.24547 0.03728
 Cu9 Cu 0.00125 0.28969 0.00946
 Cu10 Cu -0.00414 0.24353 0.00167
 C11 C -0.02987 0.26405 0.05223
 C12 C 0.02749 0.26814 -0.04070
 C13 C -0.03357 0.27210 -0.03461
 C14 C 0.03074 0.26140 0.04576
 O15 O 0.52895 0.79701 0.45895
 O16 O 0.48477 0.79280 0.52703
 O17 O 0.53092 0.79705 0.52389
 O18 O 0.48273 0.79415 0.46192
 O19 O 0.48363 0.75549 0.46090
 O20 O 0.53160 0.75836 0.52303
 O21 O 0.48629 0.75417 0.52619
 O22 O 0.52907 0.75829 0.45785
 Cu23 Cu 0.50672 0.79916 0.49303
 Cu24 Cu 0.50770 0.75274 0.49186
 C25 C 0.53664 0.77821 0.44704
 C26 C 0.47805 0.77262 0.53814
 C27 C 0.53961 0.77820 0.53381
 C28 C 0.47485 0.77432 0.45099
 O29 O 0.98132 0.72612 -0.04054
 O30 O 1.02478 0.71682 0.02671
 O31 O 0.97867 0.71732 0.02295
 O32 O 1.02737 0.72397 -0.03828
 O33 O 1.03282 0.76100 -0.02293
 O34 O 0.98066 0.75573 0.03061
 O35 O 1.02495 0.75459 0.03915
 O36 O 0.98724 0.76432 -0.03367
 Cu37 Cu 1.00280 0.71720 -0.00839
 Cu38 Cu 1.00648 0.76281 0.00369
 C39 C 0.97685 0.74700 -0.04861
 C40 C 1.03202 0.73423 0.04470
 C41 C 0.97108 0.73554 0.03669
 C42 C 1.03934 0.74343 -0.03944
 O43 O 0.47377 0.22140 0.47629
 O44 O 0.51733 0.21680 0.54411
 O45 O 0.47129 0.21879 0.54142
 O46 O 0.51944 0.21966 0.47913
 O47 O 0.52239 0.25839 0.48241
 O48 O 0.47527 0.25744 0.54489
 O49 O 0.52049 0.25551 0.54745
 O50 O 0.47756 0.26009 0.47981
 Cu51 Cu 0.49507 0.21522 0.51003
 Cu52 Cu 0.49926 0.26171 0.51413
 C53 C 0.46837 0.24161 0.46638
 C54 C 0.52654 0.23549 0.55704
 C55 C 0.46500 0.23809 0.55359
 C56 C 0.52899 0.23932 0.47004
 O57 O 0.70513 -0.02043 0.03141
 O58 O 0.71025 0.02739 -0.03167
 O59 O 0.70743 -0.01906 -0.03348
 O60 O 0.70669 0.02583 0.03317
 O61 O 0.74533 0.02643 0.03587
 O62 O 0.74599 -0.01923 -0.02927
 O63 O 0.74873 0.02603 -0.02957
 O64 O 0.74373 -0.01917 0.03567
 Cu65 Cu 0.70348 0.00345 -0.00051
 Cu66 Cu 0.74978 0.00362 0.00359
 C67 C 0.72373 -0.02799 0.04412
 C68 C 0.73053 0.03478 -0.04158
 C69 C 0.72683 -0.02708 -0.04233
 C70 C 0.72593 0.03398 0.04563
 O71 O 0.20839 0.51585 0.47178
 O72 O 0.21090 0.47060 0.53807
 O73 O 0.20958 0.51673 0.53708
 O74 O 0.20877 0.46981 0.47316
 O75 O 0.24746 0.47264 0.47140
 O76 O 0.24826 0.51940 0.53506
 O77 O 0.24958 0.47401 0.53643
 O78 O 0.24709 0.51797 0.46969
 Cu79 Cu 0.20549 0.49302 0.50528
 Cu80 Cu 0.25195 0.49633 0.50299
 C81 C 0.22746 0.52453 0.45937
 C82 C 0.23077 0.46445 0.54826
 C83 C 0.22908 0.52618 0.54683
 C84 C 0.22803 0.46308 0.46159
 O85 O 0.27035 0.97332 -0.03174
 O86 O 0.27108 1.01773 0.03629
 O87 O 0.27083 0.97152 0.03359
 O88 O 0.27208 1.01949 -0.02870
 O89 O 0.23343 1.01755 -0.02969
 O90 O 0.23214 0.97044 0.03335
 O91 O 0.23237 1.01597 0.03569
 O92 O 0.23172 0.97257 -0.03196
 Cu93 Cu 0.27499 0.99560 0.00246
 Cu94 Cu 0.22858 0.99400 0.00197
 C95 C 0.25075 0.96545 -0.04365
 C96 C 0.25168 1.02454 0.04732
 C97 C 0.25124 0.96273 0.04400
 C98 C 0.25292 1.02669 -0.04002
 O99 O 0.78457 0.48259 0.46864
 O100 O 0.79039 0.53096 0.53032
 O101 O 0.78510 0.48493 0.53389
 O102 O 0.78971 0.52881 0.46540
 O103 O 0.75116 0.53047 0.46549
 O104 O 0.74668 0.48764 0.53429
 O105 O 0.75186 0.53284 0.53065
 O106 O 0.74612 0.48504 0.46910
 Cu107 Cu 0.79134 0.50654 0.49946
 Cu108 Cu 0.74513 0.50920 0.49985
 C109 C 0.76428 0.47546 0.45855
 C110 C 0.77201 0.54020 0.54085
 C111 C 0.76502 0.47888 0.54581
 C112 C 0.77114 0.53727 0.45403
 C113 C 0.24257 0.20899 0.19728
 C114 C 0.22169 0.21764 0.18537
 C115 C 0.21399 0.23933 0.19585
 C116 C 0.22747 0.25291 0.21939
 C117 C 0.24861 0.24428 0.23202
 C118 C 0.25621 0.22226 0.22092
 C119 C 0.27701 0.21394 0.23415
 C120 C 0.29031 0.22708 0.25741
 C121 C 0.28305 0.24882 0.26899
 C122 C 0.26209 0.25762 0.25603
 C123 C 0.22021 0.27465 0.23107
 C124 C 0.23375 0.28801 0.25387
 C125 C 0.25464 0.27976 0.26690
 C126 C 0.26852 0.29315 0.29020
 C127 C 0.28908 0.28416 0.30268
 C128 C 0.29638 0.26220 0.29282
 H129 H 0.28323 0.19712 0.22675
 H130 H 0.30643 0.22000 0.26608
 H131 H 0.20396 0.28162 0.22275
 H132 H 0.22758 0.30486 0.26123
 H133 H 0.21141 0.20743 0.16703
 H134 H 0.29939 0.29429 0.32107
 C135 C 0.76528 0.79538 0.19912
 C136 C 0.78735 0.78811 0.18989
 C137 C 0.79494 0.76606 0.19890
 C138 C 0.78006 0.75061 0.21813
 C139 C 0.75767 0.75780 0.22813
 C140 C 0.75020 0.78021 0.21849
 C141 C 0.72808 0.78700 0.22897
 C142 C 0.71336 0.77200 0.24796
 C143 C 0.72049 0.74993 0.25834
 C144 C 0.74282 0.74266 0.24818
 C145 C 0.78707 0.72840 0.22812
 C146 C 0.77235 0.71339 0.24720
 C147 C 0.75030 0.72027 0.25794
 C148 C 0.73531 0.70527 0.27776
 C149 C 0.71336 0.71275 0.28737
 C150 C 0.70579 0.73478 0.27826
 H151 H 0.72186 0.80404 0.22271
 H152 H 0.69628 0.77799 0.25437
 H153 H 0.80407 0.72237 0.22134
 H154 H 0.77849 0.69631 0.25343
 H155 H 0.79879 0.79978 0.17491
 H156 H 0.70212 0.70137 0.30304
 C157 C 0.79609 0.23640 0.22380
 C158 C 0.78814 0.21381 0.21400
 C159 C 0.76701 0.20337 0.22583
 C160 C 0.75318 0.21587 0.24844
 C161 C 0.76122 0.23867 0.25922
 C162 C 0.78275 0.24897 0.24689
 C163 C 0.79053 0.27137 0.25832
 C164 C 0.77727 0.28368 0.28089
 C165 C 0.75596 0.27387 0.29356
 C166 C 0.74774 0.25120 0.28248
 C167 C 0.73177 0.20613 0.26089
 C168 C 0.71824 0.21868 0.28296
 C169 C 0.72598 0.24113 0.29435
 C170 C 0.71242 0.25404 0.31682
 C171 C 0.72088 0.27629 0.32753
 C172 C 0.74242 0.28628 0.31659
 H173 H 0.80703 0.27963 0.25006
 H174 H 0.78392 0.30108 0.28811
 H175 H 0.72519 0.18871 0.25364
 H176 H 0.70165 0.21052 0.29104
 H177 H 0.79840 0.20432 0.19611
 H178 H 0.71058 0.28593 0.34521
 C179 C 0.30379 0.72337 0.27706
 C180 C 0.29556 0.70091 0.28711
 C181 C 0.27364 0.69124 0.27711
 C182 C 0.25942 0.70422 0.25566
 C183 C 0.26739 0.72712 0.24522
 C184 C 0.28958 0.73683 0.25612
 C185 C 0.29704 0.75950 0.24538
 C186 C 0.28287 0.77259 0.22490
 C187 C 0.26100 0.76325 0.21342
 C188 C 0.25317 0.74027 0.22368
 C189 C 0.23767 0.69477 0.24394
 C190 C 0.22368 0.70771 0.22307
 C191 C 0.23109 0.73044 0.21259
 C192 C 0.21686 0.74377 0.19166
 C193 C 0.22471 0.76643 0.18211
 C194 C 0.24652 0.77634 0.19238
 H195 H 0.31392 0.76740 0.25275
 H196 H 0.28928 0.79018 0.21824
 H197 H 0.23125 0.67719 0.25063
 H198 H 0.20694 0.69969 0.21527
 H199 H 0.30630 0.69088 0.30374
 H200 H 0.21376 0.77641 0.16573
 C201 C 0.78783 0.24528 0.80246
 C202 C 0.77721 0.22411 0.81385
 C203 C 0.75421 0.21691 0.80508
 C204 C 0.74120 0.23155 0.78416
 C205 C 0.75173 0.25322 0.77243
 C206 C 0.77512 0.26013 0.78166
 C207 C 0.78528 0.28145 0.76940
 C208 C 0.77269 0.29589 0.74871
 C209 C 0.74964 0.28931 0.73879
 C210 C 0.73898 0.26785 0.75097
 C211 C 0.71819 0.22496 0.77409
 C212 C 0.70547 0.23961 0.75395
 C213 C 0.71560 0.26096 0.74173
 C214 C 0.70292 0.27576 0.72073
 C215 C 0.71363 0.29684 0.70910
 C216 C 0.73679 0.30374 0.71738
 H217 H 0.80312 0.28721 0.77562
 H218 H 0.78125 0.31233 0.74067
 H219 H 0.70969 0.20838 0.78157
 H220 H 0.68758 0.23389 0.74800
 H221 H 0.78711 0.21303 0.83017
 H222 H 0.70391 0.30779 0.69238
 C223 C 0.29947 0.73776 0.70029
 C224 C 0.29280 0.71417 0.69447
 C225 C 0.27296 0.70328 0.70965
 C226 C 0.25941 0.71630 0.73202
 C227 C 0.26571 0.74041 0.73783
 C228 C 0.28584 0.75117 0.72197
 C229 C 0.29208 0.77488 0.72873
 C230 C 0.27862 0.78796 0.75002
 C231 C 0.25875 0.77770 0.76618
 C232 C 0.25205 0.75372 0.75991
 C233 C 0.24028 0.70572 0.74958
 C234 C 0.22699 0.71871 0.77142
 C235 C 0.23205 0.74291 0.77617
 C236 C 0.21822 0.75657 0.79747
 C237 C 0.22497 0.78033 0.80249
 C238 C 0.24527 0.79085 0.78829
 H239 H 0.30750 0.78364 0.71774
 H240 H 0.28394 0.80630 0.75356
 H241 H 0.23562 0.68715 0.74702
 H242 H 0.21291 0.70942 0.78485
 H243 H 0.30306 0.70418 0.67720
 H244 H 0.21451 0.79083 0.81881
 C245 C 0.21809 0.19280 0.78096
 C246 C 0.19697 0.20165 0.79162
 C247 C 0.18965 0.22336 0.78074
 C248 C 0.20397 0.23700 0.75837
 C249 C 0.22559 0.22843 0.74735
 C250 C 0.23272 0.20626 0.75867
 C251 C 0.25398 0.19804 0.74690
 C252 C 0.26836 0.21157 0.72533
 C253 C 0.26164 0.23349 0.71365
 C254 C 0.23998 0.24195 0.72459
 C255 C 0.19708 0.25872 0.74629
 C256 C 0.21132 0.27208 0.72445
 C257 C 0.23270 0.26396 0.71297
 C258 C 0.24718 0.27741 0.69054
 C259 C 0.26870 0.26909 0.68065
 C260 C 0.27611 0.24739 0.69167
 H261 H 0.25978 0.18103 0.75421
 H262 H 0.28480 0.20459 0.71785
 H263 H 0.18057 0.26565 0.75352
 H264 H 0.20534 0.28895 0.71679
 H265 H 0.18599 0.19142 0.80911
 H266 H 0.27971 0.27950 0.66342
 C267 C 0.74096 0.71571 0.70412
 C268 C 0.71935 0.72383 0.69425
 C269 C 0.71210 0.74583 0.70401
 C270 C 0.72700 0.76042 0.72456
 C271 C 0.74894 0.75234 0.73526
 C272 C 0.75605 0.73000 0.72470
 C273 C 0.77783 0.72243 0.73543
 C274 C 0.79240 0.73642 0.75615
 C275 C 0.78539 0.75815 0.76815
 C276 C 0.76362 0.76642 0.75706
 C277 C 0.72044 0.78261 0.73520
 C278 C 0.73507 0.79665 0.75582
 C279 C 0.75648 0.78872 0.76767
 C280 C 0.77113 0.80256 0.78951
 C281 C 0.79228 0.79396 0.80058
 C282 C 0.79967 0.77202 0.79056
 H283 H 0.78388 0.70555 0.72802
 H284 H 0.80926 0.72992 0.76256
 H285 H 0.70387 0.78936 0.72774
 H286 H 0.72931 0.81380 0.76245
 H287 H 0.70793 0.71275 0.67837
 H288 H 0.80298 0.80441 0.81816
 C289 C 0.22928 0.06381 0.11501
 C290 C 0.24727 0.08183 0.11740
 C291 C 0.26763 0.07967 0.09745
 C292 C 0.26967 0.06019 0.07616
 C293 C 0.25122 0.04309 0.07318
 C294 C 0.23121 0.04495 0.09308
 C295 C 0.28548 0.09738 0.09792
 C296 C 0.28305 0.11785 0.11626
 C297 C 0.26275 0.12125 0.13551
 C298 C 0.24523 0.10237 0.13763
 C299 C 0.22610 0.10477 0.15959
 C300 C 0.22320 0.12550 0.17695
 C301 C 0.23904 0.14475 0.17292
 C302 C 0.25919 0.14295 0.15243
 C303 C 0.27436 0.16333 0.14866
 C304 C 0.26933 0.18452 0.16403
 C305 C 0.24934 0.18602 0.18399
 C306 C 0.23443 0.16602 0.18866
 H307 H 0.21300 0.06419 0.12857
 H308 H 0.28511 0.05901 0.06051
 H309 H 0.21671 0.03194 0.09122
 H310 H 0.30124 0.09571 0.08314
 H311 H 0.29756 0.13072 0.11496
 H312 H 0.21301 0.09081 0.16416
 H313 H 0.20802 0.12665 0.19310
 H314 H 0.28975 0.16376 0.13299
 H315 H 0.28080 0.20000 0.15965
 H316 H 0.21878 0.16730 0.20385
 C317 C 0.79347 0.59659 0.58346
 C318 C 0.77433 0.60132 0.60464
 C319 C 0.75569 0.58391 0.60696
 C320 C 0.75542 0.56377 0.58673
 C321 C 0.77383 0.56009 0.56454
 C322 C 0.79317 0.57623 0.56384
 C323 C 0.73709 0.58688 0.62886
 C324 C 0.73615 0.60707 0.64809
 C325 C 0.75357 0.62554 0.64549
 C326 C 0.77281 0.62279 0.62302
 C327 C 0.78918 0.64200 0.61841
 C328 C 0.78651 0.66338 0.63434
 C329 C 0.76789 0.66630 0.65630
 C330 C 0.75171 0.64715 0.66330
 C331 C 0.73396 0.65067 0.68733
 C332 C 0.73135 0.67270 0.70157
 C333 C 0.74642 0.69186 0.69278
 C334 C 0.76496 0.68850 0.67063
 H335 H 0.80890 0.60825 0.58142
 H336 H 0.74062 0.55102 0.58792
 H337 H 0.80776 0.57353 0.54714
 H338 H 0.72290 0.57352 0.63090
 H339 H 0.72085 0.60805 0.66371
 H340 H 0.80378 0.64145 0.60138
 H341 H 0.79905 0.67788 0.62911
 H342 H 0.72171 0.63684 0.69562
 H343 H 0.71708 0.67498 0.71899
 H344 H 0.77663 0.70338 0.66377
 C345 C 0.70526 0.91399 0.08471
 C346 C 0.72464 0.91005 0.10592
 C347 C 0.74199 0.92864 0.10958
 C348 C 0.74094 0.94922 0.09048
 C349 C 0.72253 0.95209 0.06788
 C350 C 0.70429 0.93472 0.06605
 C351 C 0.76076 0.92637 0.13148
 C352 C 0.76326 0.90572 0.14919
 C353 C 0.74730 0.88611 0.14505
 C354 C 0.72773 0.88825 0.12290
 C355 C 0.71260 0.86820 0.11720
 C356 C 0.71678 0.84666 0.13173
 C357 C 0.73580 0.84428 0.15320
 C358 C 0.75088 0.86412 0.16113
 C359 C 0.76928 0.86091 0.18432
 C360 C 0.77326 0.83876 0.19731
 C361 C 0.75902 0.81911 0.18803
 C362 C 0.74014 0.82200 0.16622
 H363 H 0.69070 0.90134 0.08167
 H364 H 0.75488 0.96286 0.09254
 H365 H 0.68973 0.93668 0.04900
 H366 H 0.77392 0.94064 0.13461
 H367 H 0.77856 0.90544 0.16496
 H368 H 0.69777 0.86832 0.10048
 H369 H 0.70507 0.83161 0.12580
 H370 H 0.78100 0.87508 0.19296
 H371 H 0.78784 0.83685 0.21436
 H372 H 0.72914 0.80674 0.15886
 C373 C 0.25561 0.42445 0.61312
 C374 C 0.23843 0.40560 0.61458
 C375 C 0.21778 0.40744 0.59509
 C376 C 0.21466 0.42741 0.57520
 C377 C 0.23233 0.44537 0.57308
 C378 C 0.25263 0.44383 0.59249
 C379 C 0.20073 0.38898 0.59457
 C380 C 0.20422 0.36814 0.61147
 C381 C 0.22483 0.36511 0.63025
 C382 C 0.24153 0.38463 0.63345
 C383 C 0.26085 0.38247 0.65518
 C384 C 0.26458 0.36153 0.67158
 C385 C 0.24949 0.34180 0.66661
 C386 C 0.22937 0.34320 0.64590
 C387 C 0.21516 0.32233 0.64074
 C388 C 0.22079 0.30116 0.65558
 C389 C 0.24045 0.30014 0.67638
 C390 C 0.25471 0.32050 0.68184
 H391 H 0.27205 0.42436 0.62639
 H392 H 0.19903 0.42835 0.55986
 H393 H 0.26655 0.45749 0.59119
 H394 H 0.18476 0.39040 0.58013
 H395 H 0.19024 0.35474 0.60960
 H396 H 0.27336 0.39682 0.66045
 H397 H 0.27977 0.36065 0.68780
 H398 H 0.20005 0.32156 0.62449
 H399 H 0.20991 0.28539 0.65046
 H400 H 0.27016 0.31959 0.69756
 C401 C 0.93497 0.23828 0.12456
 C402 C 0.91761 0.25475 0.12938
 C403 C 0.91862 0.27517 0.10891
 C404 C 0.93665 0.27893 0.08511
 C405 C 0.95312 0.26196 0.08002
 C406 C 0.95221 0.24178 0.10007
 C407 C 0.90116 0.29127 0.11146
 C408 C 0.88192 0.28689 0.13238
 C409 C 0.87975 0.26643 0.15239
 C410 C 0.89866 0.25098 0.15254
 C411 C 0.89791 0.23214 0.17560
 C412 C 0.87847 0.22730 0.19578
 C413 C 0.85890 0.24078 0.19346
 C414 C 0.85922 0.26068 0.17201
 C415 C 0.83851 0.27324 0.16989
 C416 C 0.81831 0.26586 0.18763
 C417 C 0.81823 0.24612 0.20851
 C418 C 0.83870 0.23392 0.21175
 H419 H 0.93511 0.22193 0.13812
 H420 H 0.93709 0.29441 0.06924
 H421 H 0.96476 0.22842 0.09645
 H422 H 0.90196 0.30708 0.09626
 H423 H 0.86907 0.30004 0.13257
 H424 H 0.91227 0.22084 0.17891
 H425 H 0.87850 0.21239 0.21268
 H426 H 0.83697 0.28815 0.15357
 H427 H 0.80243 0.27518 0.18426
 H428 H 0.83853 0.21843 0.22762
 C429 C 0.44223 0.74708 0.61004
 C430 C 0.42274 0.76141 0.61083
 C431 C 0.42258 0.78052 0.58797
 C432 C 0.44143 0.78510 0.56576
 C433 C 0.46008 0.77015 0.56465
 C434 C 0.46038 0.75130 0.58709
 C435 C 0.40323 0.79441 0.58655
 C436 C 0.38344 0.78902 0.60598
 C437 C 0.38248 0.76979 0.62839
 C438 C 0.40300 0.75672 0.63236
 C439 C 0.40307 0.73932 0.65757
 C440 C 0.38327 0.73370 0.67669
 C441 C 0.36250 0.74485 0.67111
 C442 C 0.36170 0.76309 0.64695
 C443 C 0.33985 0.77316 0.64149
 C444 C 0.31980 0.76526 0.65918
 C445 C 0.32095 0.74747 0.68322
 C446 C 0.34236 0.73745 0.68919
 H447 H 0.44350 0.73179 0.62569
 H448 H 0.44094 0.79948 0.54798
 H449 H 0.47460 0.73946 0.58651
 H450 H 0.40308 0.80921 0.56946
 H451 H 0.36919 0.80051 0.60317
 H452 H 0.41836 0.72986 0.66355
 H453 H 0.38407 0.72004 0.69555
 H454 H 0.33744 0.78652 0.62286
 H455 H 0.30320 0.77279 0.65369
 H456 H 0.34315 0.72340 0.70748
 C457 C 0.06971 0.74779 0.12066
 C458 C 0.08823 0.73248 0.11674
 C459 C 0.08640 0.71585 0.09019
 C460 C 0.06701 0.71515 0.06823
 C461 C 0.04968 0.73150 0.07138
 C462 C 0.05098 0.74740 0.09816
 C463 C 0.10442 0.70073 0.08475
 C464 C 0.12493 0.70267 0.10364
 C465 C 0.12815 0.71974 0.12919
 C466 C 0.10899 0.73399 0.13703
 C467 C 0.11147 0.74974 0.16435
 C468 C 0.13250 0.75297 0.18159
 C469 C 0.15194 0.74069 0.17243
 C470 C 0.15003 0.72349 0.14665
 C471 C 0.17050 0.71164 0.13846
 C472 C 0.19195 0.71745 0.15421
 C473 C 0.19365 0.73495 0.17880
 C474 C 0.17351 0.74616 0.18828
 H475 H 0.06960 0.76109 0.13985
 H476 H 0.06623 0.70294 0.04732
 H477 H 0.03773 0.76015 0.10118
 H478 H 0.10300 0.68772 0.06488
 H479 H 0.13808 0.69055 0.09738
 H480 H 0.09744 0.76005 0.17306
 H481 H 0.13374 0.76573 0.20179
 H482 H 0.17079 0.69844 0.11913
 H483 H 0.20748 0.70883 0.14634
 H484 H 0.17492 0.75986 0.20721
 C485 C 0.57968 0.21597 0.60362
 C486 C 0.58562 0.23576 0.62412
 C487 C 0.56960 0.25389 0.62528
 C488 C 0.54979 0.25312 0.60444
 C489 C 0.54520 0.23426 0.58249
 C490 C 0.55976 0.21532 0.58316
 C491 C 0.57377 0.27314 0.64639
 C492 C 0.59403 0.27541 0.66554
 C493 C 0.61137 0.25870 0.66368
 C494 C 0.60711 0.23852 0.64263
 C495 C 0.62495 0.22246 0.63940
 C496 C 0.64653 0.22636 0.65508
 C497 C 0.65106 0.24607 0.67522
 C498 C 0.63331 0.26210 0.68087
 C499 C 0.63860 0.28127 0.70277
 C500 C 0.66093 0.28505 0.71654
 C501 C 0.67861 0.26981 0.70939
 C502 C 0.67354 0.25018 0.68906
 H503 H 0.59015 0.20084 0.60247
 H504 H 0.53822 0.26760 0.60461
 H505 H 0.55633 0.20038 0.56672
 H506 H 0.56138 0.28687 0.64769
 H507 H 0.59596 0.29109 0.68054
 H508 H 0.62319 0.20707 0.62374
 H509 H 0.65997 0.21393 0.65097
 H510 H 0.62600 0.29379 0.70966
 H511 H 0.66460 0.30025 0.73242
 H512 H 0.68733 0.23845 0.68334
 C513 C 0.75832 0.07605 0.89623
 C514 C 0.74026 0.09135 0.88942
 C515 C 0.71854 0.08727 0.90623
 C516 C 0.71479 0.06760 0.92737
 C517 C 0.73318 0.05293 0.93461
 C518 C 0.75494 0.05754 0.91883
 C519 C 0.70106 0.10333 0.90280
 C520 C 0.70522 0.12404 0.88466
 C521 C 0.72665 0.12882 0.86769
 C522 C 0.74357 0.11127 0.86790
 C523 C 0.76321 0.11413 0.84654
 C524 C 0.76719 0.13437 0.82760
 C525 C 0.75227 0.15285 0.83021
 C526 C 0.73185 0.15051 0.85046
 C527 C 0.71826 0.17043 0.85405
 C528 C 0.72508 0.19181 0.83868
 C529 C 0.74503 0.19375 0.81821
 C530 C 0.75823 0.17401 0.81360
 H531 H 0.77571 0.07871 0.88587
 H532 H 0.69801 0.06468 0.93986
 H533 H 0.76958 0.04672 0.92382
 H534 H 0.68432 0.10032 0.91534
 H535 H 0.69107 0.13581 0.88361
 H536 H 0.77558 0.10066 0.84335
 H537 H 0.78260 0.13591 0.81169
 H538 H 0.70308 0.17038 0.87015
 H539 H 0.71509 0.20707 0.84356
 H540 H 0.77393 0.17553 0.79824
 C541 C 0.21048 0.57741 0.40935
 C542 C 0.23007 0.58134 0.38777
 C543 C 0.24736 0.56441 0.38795
 C544 C 0.24595 0.54560 0.41067
 C545 C 0.22719 0.54282 0.43317
 C546 C 0.20912 0.55839 0.43161
 C547 C 0.26636 0.56656 0.36606
 C548 C 0.26914 0.58562 0.34455
 C549 C 0.25322 0.60374 0.34463
 C550 C 0.23340 0.60163 0.36669
 C551 C 0.21822 0.62037 0.36811
 C552 C 0.22268 0.64081 0.34965
 C553 C 0.24206 0.64323 0.32842
 C554 C 0.25713 0.62443 0.32458
 C555 C 0.27592 0.62747 0.30147
 C556 C 0.28047 0.64882 0.28502
 C557 C 0.26635 0.66771 0.29056
 C558 C 0.24688 0.66469 0.31176
 H559 H 0.19599 0.58874 0.40985
 H560 H 0.25974 0.53325 0.41124
 H561 H 0.19428 0.55637 0.44850
 H562 H 0.27947 0.55349 0.36586
 H563 H 0.28459 0.58601 0.32906
 H564 H 0.20316 0.62023 0.38436
 H565 H 0.21098 0.65504 0.35244
 H566 H 0.28762 0.61385 0.29571
 H567 H 0.29549 0.65082 0.26845
 H568 H 0.23597 0.67938 0.31617
 C569 C 0.22666 0.92536 0.88979
 C570 C 0.24642 0.91306 0.88023
 C571 C 0.26803 0.91888 0.89657
 C572 C 0.26977 0.93705 0.92056
 C573 C 0.24979 0.94867 0.93044
 C574 C 0.22831 0.94255 0.91462
 C575 C 0.28758 0.90600 0.88968
 C576 C 0.28574 0.88649 0.86864
 C577 C 0.26438 0.87968 0.85258
 C578 C 0.24503 0.89432 0.85640
 C579 C 0.22484 0.88962 0.83650
 C580 C 0.22268 0.86992 0.81607
 C581 C 0.24024 0.85388 0.81531
 C582 C 0.26148 0.85855 0.83324
 C583 C 0.27825 0.84113 0.83280
 C584 C 0.27350 0.81963 0.81662
 C585 C 0.25231 0.81509 0.79949
 C586 C 0.23612 0.83263 0.79803
 H587 H 0.20938 0.92132 0.87973
 H588 H 0.28648 0.94127 0.93272
 H589 H 0.21247 0.95104 0.92146
 H590 H 0.30428 0.91050 0.90168
 H591 H 0.30149 0.87721 0.86502
 H592 H 0.21044 0.90108 0.83594
 H593 H 0.20665 0.86673 0.80178
 H594 H 0.29453 0.84297 0.84651
 H595 H 0.28599 0.80606 0.81880
 H596 H 0.21956 0.82904 0.78512
 C597 C 0.73696 0.43203 0.39638
 C598 C 0.75391 0.41487 0.39410
 C599 C 0.77496 0.41869 0.41276
 C600 C 0.77877 0.43904 0.43241
 C601 C 0.76148 0.45546 0.43501
 C602 C 0.74069 0.45183 0.41666
 C603 C 0.79183 0.40190 0.41248
 C604 C 0.78786 0.38081 0.39538
 C605 C 0.76693 0.37586 0.37718
 C606 C 0.75029 0.39370 0.37503
 C607 C 0.73053 0.38974 0.35401
 C608 C 0.72638 0.36858 0.33729
 C609 C 0.74147 0.35038 0.34117
 C610 C 0.76201 0.35366 0.36109
 C611 C 0.77627 0.33423 0.36502
 C612 C 0.77018 0.31260 0.35000
 C613 C 0.75000 0.30971 0.33019
 C614 C 0.73580 0.32869 0.32571
 H615 H 0.72023 0.43032 0.38387
 H616 H 0.79481 0.44156 0.44689
 H617 H 0.72702 0.46424 0.41830
 H618 H 0.80808 0.40483 0.42634
 H619 H 0.80175 0.36878 0.39661
 H620 H 0.71798 0.40283 0.34956
 H621 H 0.71085 0.36628 0.32168
 H622 H 0.79177 0.33488 0.38050
 H623 H 0.78103 0.29789 0.35437
 H624 H 0.71996 0.32633 0.31074
 C625 C 0.07915 0.28670 0.90666
 C626 C 0.08267 0.26598 0.88805
 C627 C 0.06544 0.24726 0.89085
 C628 C 0.04705 0.24836 0.91395
 C629 C 0.04462 0.26837 0.93396
 C630 C 0.06029 0.28790 0.92895
 C631 C 0.06687 0.22717 0.87121
 C632 C 0.08544 0.22488 0.84930
 C633 C 0.10390 0.24231 0.84708
 C634 C 0.10277 0.26299 0.86729
 C635 C 0.12234 0.27926 0.86760
 C636 C 0.14263 0.27507 0.84975
 C637 C 0.14390 0.25505 0.82983
 C638 C 0.12414 0.23900 0.82686
 C639 C 0.12571 0.21991 0.80440
 C640 C 0.14669 0.21577 0.78818
 C641 C 0.16669 0.23057 0.79342
 C642 C 0.16509 0.25053 0.81365
 H643 H 0.09062 0.30227 0.90444
 H644 H 0.03465 0.23335 0.91645
 H645 H 0.05865 0.30387 0.94334
 H646 H 0.05358 0.21290 0.87303
 H647 H 0.08540 0.20852 0.83576
 H648 H 0.12300 0.29486 0.88293
 H649 H 0.15758 0.28754 0.85186
 H650 H 0.11109 0.20777 0.79887
 H651 H 0.14753 0.20047 0.77216
 H652 H 0.18058 0.26206 0.81771
 C653 C 0.59215 0.79647 0.40020
 C654 C 0.59530 0.77665 0.37947
 C655 C 0.57681 0.75903 0.37823
 C656 C 0.55723 0.76026 0.39925
 C657 C 0.55527 0.77914 0.42135
 C658 C 0.57240 0.79763 0.42076
 C659 C 0.57822 0.73984 0.35683
 C660 C 0.59798 0.73719 0.33729
 C661 C 0.61755 0.75339 0.33907
 C662 C 0.61628 0.77337 0.36069
 C663 C 0.63641 0.78871 0.36418
 C664 C 0.65727 0.78434 0.34802
 C665 C 0.65881 0.76493 0.32700
 C666 C 0.63877 0.74964 0.32119
 C667 C 0.64105 0.73088 0.29827
 C668 C 0.66260 0.72674 0.28359
 C669 C 0.68253 0.74118 0.29087
 C670 C 0.68049 0.76041 0.31234
 H671 H 0.60471 0.81126 0.40138
 H672 H 0.54371 0.74612 0.39908
 H673 H 0.57106 0.81255 0.43737
 H674 H 0.56398 0.72647 0.35553
 H675 H 0.59769 0.72157 0.32207
 H676 H 0.63695 0.80382 0.38045
 H677 H 0.67248 0.79620 0.35232
 H678 H 0.62659 0.71901 0.29113
 H679 H 0.66385 0.71189 0.26682
 H680 H 0.69597 0.77154 0.31820
 C681 C 0.93889 0.77833 0.89216
 C682 C 0.92241 0.76030 0.88196
 C683 C 0.92497 0.73742 0.89493
 C684 C 0.94398 0.73278 0.91600
 C685 C 0.95974 0.75105 0.92688
 C686 C 0.95692 0.77382 0.91458
 C687 C 0.90809 0.71946 0.88777
 C688 C 0.88803 0.72401 0.86957
 C689 C 0.88459 0.74658 0.85647
 C690 C 0.90289 0.76448 0.86065
 C691 C 0.90113 0.78588 0.84323
 C692 C 0.88151 0.79017 0.82397
 C693 C 0.86251 0.77375 0.82241
 C694 C 0.86357 0.75185 0.83906
 C695 C 0.84313 0.73661 0.83892
 C696 C 0.82262 0.74298 0.82287
 C697 C 0.82202 0.76423 0.80528
 C698 C 0.84217 0.77944 0.80502
 H699 H 0.93760 0.79638 0.88463
 H700 H 0.94553 0.71512 0.92561
 H701 H 0.96862 0.78840 0.92244
 H702 H 0.91001 0.70185 0.89731
 H703 H 0.87569 0.70930 0.86536
 H704 H 0.91502 0.79947 0.84330
 H705 H 0.88093 0.80685 0.81099
 H706 H 0.84208 0.72022 0.85249
 H707 H 0.80697 0.73142 0.82477
 H708 H 0.84170 0.79618 0.79215
 C709 C 0.43421 0.26764 0.39582
 C710 C 0.41602 0.25023 0.39004
 C711 C 0.41588 0.22942 0.40961
 C712 C 0.43362 0.22617 0.43337
 C713 C 0.45109 0.24389 0.43924
 C714 C 0.45127 0.26452 0.42019
 C715 C 0.39768 0.21227 0.40608
 C716 C 0.37883 0.21588 0.38498
 C717 C 0.37779 0.23664 0.36581
 C718 C 0.39743 0.25331 0.36670
 C719 C 0.39776 0.27258 0.34440
 C720 C 0.37875 0.27652 0.32388
 C721 C 0.35855 0.26171 0.32518
 C722 C 0.35771 0.24146 0.34597
 C723 C 0.33639 0.22755 0.34724
 C724 C 0.31674 0.23389 0.32917
 C725 C 0.31784 0.25390 0.30880
 C726 C 0.33887 0.26753 0.30652
 H727 H 0.43523 0.28430 0.38299
 H728 H 0.43321 0.21028 0.44839
 H729 H 0.46461 0.27848 0.42435
 H730 H 0.39763 0.19617 0.42058
 H731 H 0.36539 0.20188 0.38390
 H732 H 0.41266 0.28488 0.34191
 H733 H 0.37964 0.29175 0.30751
 H734 H 0.33395 0.21232 0.36313
 H735 H 0.30038 0.22348 0.33180
 H736 H 0.33958 0.28323 0.29106
 C737 C 0.70963 0.91762 0.90921
 C738 C 0.73041 0.91354 0.89117
 C739 C 0.74898 0.93108 0.89270
 C740 C 0.74742 0.95069 0.91373
 C741 C 0.72725 0.95371 0.93285
 C742 C 0.70813 0.93744 0.92961
 C743 C 0.76926 0.92876 0.87385
 C744 C 0.77185 0.90915 0.85386
 C745 C 0.75445 0.89058 0.85271
 C746 C 0.73357 0.89260 0.87217
 C747 C 0.71711 0.87320 0.87331
 C748 C 0.72110 0.85236 0.85670
 C749 C 0.74123 0.85020 0.83741
 C750 C 0.75776 0.86956 0.83404
 C751 C 0.77720 0.86684 0.81257
 C752 C 0.78079 0.84537 0.79713
 C753 C 0.76514 0.82598 0.80223
 C754 C 0.74521 0.82856 0.82208
 H755 H 0.69422 0.90587 0.90812
 H756 H 0.76210 0.96353 0.91556
 H757 H 0.69223 0.93959 0.94385
 H758 H 0.78343 0.94221 0.87475
 H759 H 0.78828 0.90865 0.84071
 H760 H 0.70133 0.87316 0.88812
 H761 H 0.70831 0.83769 0.85919
 H762 H 0.78998 0.88091 0.80712
 H763 H 0.79620 0.84373 0.78161
 H764 H 0.73312 0.81350 0.82627
 C765 C 0.20997 0.40729 0.41455
 C766 C 0.23007 0.40353 0.39477
 C767 C 0.24856 0.42118 0.39532
 C768 C 0.24754 0.44073 0.41661
 C769 C 0.22802 0.44354 0.43717
 C770 C 0.20903 0.42700 0.43530
 C771 C 0.26823 0.41909 0.37512
 C772 C 0.27034 0.39960 0.35474
 C773 C 0.25298 0.38096 0.35432
 C774 C 0.23262 0.38283 0.37495
 C775 C 0.21602 0.36353 0.37619
 C776 C 0.21945 0.34291 0.35871
 C777 C 0.23920 0.34081 0.33860
 C778 C 0.25584 0.36007 0.33512
 C779 C 0.27499 0.35733 0.31311
 C780 C 0.27828 0.33591 0.29740
 C781 C 0.26254 0.31661 0.30259
 C782 C 0.24276 0.31925 0.32270
 H783 H 0.19468 0.39536 0.41462
 H784 H 0.26214 0.45372 0.41739
 H785 H 0.19361 0.42893 0.45068
 H786 H 0.28234 0.43263 0.37527
 H787 H 0.28634 0.39933 0.34051
 H788 H 0.20052 0.36343 0.39157
 H789 H 0.20658 0.32832 0.36128
 H790 H 0.28789 0.37129 0.30764
 H791 H 0.29359 0.33417 0.28171
 H792 H 0.23060 0.30425 0.32687
 C793 C 0.27335 0.07787 0.90745
 C794 C 0.25241 0.08368 0.89112
 C795 C 0.23217 0.06858 0.89614
 C796 C 0.23245 0.04997 0.91914
 C797 C 0.25310 0.04494 0.93624
 C798 C 0.27371 0.05864 0.92925
 C799 C 0.21162 0.07220 0.87843
 C800 C 0.21059 0.09062 0.85584
 C801 C 0.22986 0.10688 0.85119
 C802 C 0.25080 0.10389 0.87010
 C803 C 0.26885 0.12183 0.86881
 C804 C 0.26628 0.14225 0.85032
 C805 C 0.24619 0.14508 0.83109
 C806 C 0.22830 0.12685 0.82981
 C807 C 0.20929 0.12959 0.80762
 C808 C 0.20704 0.15051 0.79015
 C809 C 0.22359 0.16933 0.79405
 C810 C 0.24347 0.16634 0.81393
 H811 H 0.28983 0.08761 0.90340
 H812 H 0.21649 0.03915 0.92328
 H813 H 0.29010 0.05501 0.94143
 H814 H 0.19612 0.06062 0.88203
 H815 H 0.19390 0.09242 0.84372
 H816 H 0.28470 0.12118 0.88344
 H817 H 0.28014 0.15601 0.85122
 H818 H 0.19587 0.11588 0.80324
 H819 H 0.19176 0.15235 0.77438
 H820 H 0.25636 0.18087 0.81703
 C821 C 0.79164 0.59149 0.40534
 C822 C 0.77216 0.59514 0.38423
 C823 C 0.75365 0.57750 0.38385
 C824 C 0.75381 0.55832 0.40595
 C825 C 0.77256 0.55580 0.42809
 C826 C 0.79179 0.57207 0.42681
 C827 C 0.73474 0.57934 0.36207
 C828 C 0.73335 0.59864 0.34110
 C829 C 0.75058 0.61739 0.34181
 C830 C 0.77014 0.61578 0.36409
 C831 C 0.78632 0.63534 0.36679
 C832 C 0.78313 0.65602 0.34929
 C833 C 0.76416 0.65786 0.32755
 C834 C 0.74818 0.63825 0.32235
 C835 C 0.73006 0.64062 0.29847
 C836 C 0.72685 0.66208 0.28277
 C837 C 0.74165 0.68180 0.28990
 C838 C 0.76062 0.67947 0.31177
 H839 H 0.80700 0.60333 0.40595
 H840 H 0.73908 0.54547 0.40632
 H841 H 0.80662 0.57029 0.44343
 H842 H 0.72066 0.56579 0.36147
 H843 H 0.71786 0.59880 0.32568
 H844 H 0.80115 0.63564 0.38355
 H845 H 0.79553 0.67087 0.35314
 H846 H 0.71793 0.62632 0.29149
 H847 H 0.71224 0.66351 0.26563
 H848 H 0.77209 0.69475 0.31746
 C849 C 0.09951 0.76431 0.93627
 C850 C 0.10542 0.74773 0.91184
 C851 C 0.08773 0.73112 0.90082
 C852 C 0.06589 0.72924 0.91737
 C853 C 0.06050 0.74544 0.94254
 C854 C 0.07726 0.76352 0.95064
 C855 C 0.09200 0.71678 0.87322
 C856 C 0.11319 0.71928 0.85574
 C857 C 0.13157 0.73490 0.86703
 C858 C 0.12814 0.74778 0.89718
 C859 C 0.14765 0.75970 0.91241
 C860 C 0.16960 0.76020 0.89747
 C861 C 0.17252 0.75022 0.86587
 C862 C 0.15344 0.73792 0.84970
 C863 C 0.15670 0.73043 0.81619
 C864 C 0.17787 0.73577 0.79929
 C865 C 0.19688 0.74732 0.81592
 C866 C 0.19419 0.75355 0.84971
 H867 H 0.11156 0.77859 0.94386
 H868 H 0.05287 0.71569 0.90987
 H869 H 0.07368 0.77657 0.96947
 H870 H 0.07859 0.70406 0.86441
 H871 H 0.11524 0.70797 0.83431
 H872 H 0.14653 0.76802 0.93667
 H873 H 0.18419 0.76943 0.91010
 H874 H 0.14260 0.72201 0.80178
 H875 H 0.17908 0.73161 0.77284
 H876 H 0.20868 0.76265 0.86280
 C877 C 0.57000 0.26229 0.40202
 C878 C 0.58648 0.24468 0.39973
 C879 C 0.58322 0.22472 0.42086
 C880 C 0.56379 0.22242 0.44261
 C881 C 0.54804 0.24035 0.44497
 C882 C 0.55130 0.26018 0.42447
 C883 C 0.59973 0.20755 0.42091
 C884 C 0.62009 0.21032 0.40181
 C885 C 0.62440 0.23016 0.38101
 C886 C 0.60659 0.24678 0.37835
 C887 C 0.60952 0.26505 0.35454
 C888 C 0.62997 0.26819 0.33597
 C889 C 0.64844 0.25354 0.34069
 C890 C 0.64596 0.23414 0.36299
 C891 C 0.66565 0.22031 0.36749
 C892 C 0.68696 0.22610 0.35137
 C893 C 0.68916 0.24545 0.32978
 C894 C 0.66969 0.25876 0.32402
 H895 H 0.57159 0.27842 0.38790
 H896 H 0.56155 0.20718 0.45884
 H897 H 0.53938 0.27430 0.42598
 H898 H 0.59725 0.19212 0.43669
 H899 H 0.63207 0.19641 0.40357
 H900 H 0.59613 0.27716 0.34936
 H901 H 0.63161 0.28273 0.31841
 H902 H 0.66552 0.20562 0.38453
 H903 H 0.70202 0.21594 0.35668
 H904 H 0.67152 0.27395 0.30762
 C905 C 0.91265 0.29510 0.92404
 C906 C 0.90609 0.27682 0.90118
 C907 C 0.92149 0.25827 0.89764
 C908 C 0.94141 0.25727 0.91805
 C909 C 0.94683 0.27478 0.94184
 C910 C 0.93274 0.29404 0.94396
 C911 C 0.91670 0.24044 0.87436
 C912 C 0.89647 0.24002 0.85511
 C913 C 0.87980 0.25723 0.85894
 C914 C 0.88465 0.27595 0.88238
 C915 C 0.86743 0.29248 0.88742
 C916 C 0.84585 0.29029 0.87129
 C917 C 0.84071 0.27193 0.84891
 C918 C 0.85791 0.25566 0.84136
 C919 C 0.85211 0.23800 0.81726
 C920 C 0.82966 0.23552 0.80356
 C921 C 0.81241 0.25071 0.81284
 C922 C 0.81813 0.26925 0.83487
 H923 H 0.90260 0.31039 0.92734
 H924 H 0.95260 0.24257 0.91575
 H925 H 0.93682 0.30796 0.96191
 H926 H 0.92859 0.22639 0.87132
 H927 H 0.89405 0.22529 0.83832
 H928 H 0.86969 0.30689 0.90481
 H929 H 0.83287 0.30293 0.87686
 H930 H 0.86433 0.22557 0.80872
 H931 H 0.82549 0.22121 0.78626
 H932 H 0.80469 0.28101 0.84207
 C933 C 0.41880 0.78835 0.40614
 C934 C 0.41462 0.76854 0.38501
 C935 C 0.43197 0.75165 0.38416
 C936 C 0.45162 0.75377 0.40544
 C937 C 0.45494 0.77298 0.42715
 C938 C 0.43868 0.79050 0.42669
 C939 C 0.42951 0.73253 0.36241
 C940 C 0.41003 0.72949 0.34169
 C941 C 0.39172 0.74518 0.34255
 C942 C 0.39382 0.76478 0.36506
 C943 C 0.37466 0.77934 0.36794
 C944 C 0.35397 0.77462 0.35016
 C945 C 0.35171 0.75569 0.32800
 C946 C 0.37087 0.74125 0.32284
 C947 C 0.36810 0.72311 0.29862
 C948 C 0.34667 0.71838 0.28249
 C949 C 0.32736 0.73164 0.28950
 C950 C 0.33011 0.75064 0.31173
 H951 H 0.40714 0.80257 0.40726
 H952 H 0.46440 0.74036 0.40512
 H953 H 0.44100 0.80568 0.44298
 H954 H 0.44278 0.71964 0.36150
 H955 H 0.40943 0.71398 0.32620
 H956 H 0.37470 0.79404 0.38492
 H957 H 0.33947 0.78582 0.35407
 H958 H 0.38207 0.71212 0.29168
 H959 H 0.34491 0.70374 0.26514
 H960 H 0.31515 0.76089 0.31734
 C961 C 0.22902 0.91888 0.10935
 C962 C 0.24760 0.90348 0.11183
 C963 C 0.26777 0.90842 0.09174
 C964 C 0.26930 0.92831 0.07080
 C965 C 0.25052 0.94306 0.06825
 C966 C 0.23046 0.93817 0.08774
 C967 C 0.28607 0.89316 0.09197
 C968 C 0.28434 0.87243 0.11039
 C969 C 0.26437 0.86641 0.13013
 C970 C 0.24640 0.88289 0.13245
 C971 C 0.22780 0.87821 0.15523
 C972 C 0.22586 0.85740 0.17332
 C973 C 0.24207 0.84024 0.16901
 C974 C 0.26165 0.84442 0.14750
 C975 C 0.27703 0.82595 0.14312
 C976 C 0.27267 0.80418 0.15875
 C977 C 0.25325 0.80028 0.17980
 C978 C 0.23828 0.81854 0.18529
 H979 H 0.21273 0.91603 0.12276
 H980 H 0.28477 0.93177 0.05541
 H981 H 0.21567 0.94924 0.08611
 H982 H 0.30167 0.89698 0.07701
 H983 H 0.29916 0.86156 0.10900
 H984 H 0.21450 0.89049 0.16000
 H985 H 0.21109 0.85444 0.19019
 H986 H 0.29193 0.82733 0.12651
 H987 H 0.28407 0.79005 0.15349
 H988 H 0.22301 0.81542 0.20121
 C989 C 0.73959 0.44337 0.61844
 C990 C 0.75544 0.42526 0.62195
 C991 C 0.77516 0.42569 0.60024
 C992 C 0.77889 0.44386 0.57658
 C993 C 0.76262 0.46123 0.57296
 C994 C 0.74309 0.46085 0.59419
 C995 C 0.79066 0.40762 0.60155
 C996 C 0.78639 0.38842 0.62266
 C997 C 0.76665 0.38685 0.64406
 C998 C 0.75179 0.40625 0.64517
 C999 C 0.73368 0.40595 0.66931
 C1000 C 0.72904 0.38662 0.68988
 C1001 C 0.74196 0.36668 0.68690
 C1002 C 0.76108 0.36646 0.66418
 C1003 C 0.77305 0.34538 0.66145
 C1004 C 0.76579 0.32535 0.67977
 C1005 C 0.74680 0.32578 0.70189
 C1006 C 0.73527 0.34665 0.70579
 H1007 H 0.72378 0.44403 0.63306
 H1008 H 0.79389 0.44385 0.55989
 H1009 H 0.73024 0.47406 0.59181
 H1010 H 0.80593 0.40796 0.58536
 H1011 H 0.79910 0.37514 0.62190
 H1012 H 0.72283 0.42059 0.67321
 H1013 H 0.71470 0.38704 0.70767
 H1014 H 0.78735 0.34342 0.64422
 H1015 H 0.77455 0.30919 0.67578
 H1016 H 0.72033 0.34690 0.72259
 C1017 C 0.70798 0.08681 0.09497
 C1018 C 0.72777 0.09185 0.11578
 C1019 C 0.74600 0.07591 0.11504
 C1020 C 0.74510 0.05690 0.09258
 C1021 C 0.72590 0.05288 0.07105
 C1022 C 0.70712 0.06761 0.07308
 C1023 C 0.76530 0.07922 0.13627
 C1024 C 0.76729 0.09832 0.15785
 C1025 C 0.75024 0.11537 0.15849
 C1026 C 0.73028 0.11224 0.13680
 C1027 C 0.71409 0.13011 0.13574
 C1028 C 0.71759 0.15063 0.15431
 C1029 C 0.73698 0.15398 0.17540
 C1030 C 0.75310 0.13603 0.17885
 C1031 C 0.77181 0.13988 0.20193
 C1032 C 0.77537 0.16132 0.21852
 C1033 C 0.76031 0.17948 0.21316
 C1034 C 0.74080 0.17555 0.19221
 H1035 H 0.69285 0.09730 0.09496
 H1036 H 0.75950 0.04526 0.09167
 H1037 H 0.69194 0.06469 0.05698
 H1038 H 0.77919 0.06698 0.13599
 H1039 H 0.78302 0.09967 0.17282
 H1040 H 0.69891 0.12925 0.11963
 H1041 H 0.70511 0.16420 0.15178
 H1042 H 0.78420 0.12683 0.20752
 H1043 H 0.79045 0.16404 0.23489
 H1044 H 0.72916 0.18967 0.18794
 C1045 C 0.21138 0.57904 0.59640
 C1046 C 0.23228 0.58582 0.61398
 C1047 C 0.25137 0.57102 0.61122
 C1048 C 0.25000 0.55137 0.58988
 C1049 C 0.22961 0.54565 0.57142
 C1050 C 0.21014 0.55926 0.57557
 C1051 C 0.27195 0.57610 0.62920
 C1052 C 0.27441 0.59595 0.64930
 C1053 C 0.25646 0.61198 0.65164
 C1054 C 0.23507 0.60690 0.63356
 C1055 C 0.21765 0.62357 0.63444
 C1056 C 0.22127 0.64482 0.65124
 C1057 C 0.24212 0.65016 0.66853
 C1058 C 0.25966 0.63348 0.67013
 C1059 C 0.28001 0.63942 0.68937
 C1060 C 0.28356 0.66163 0.70380
 C1061 C 0.26688 0.67852 0.70009
 C1062 C 0.24589 0.67248 0.68322
 H1063 H 0.19568 0.58862 0.59808
 H1064 H 0.26501 0.54063 0.58737
 H1065 H 0.19406 0.55503 0.56188
 H1066 H 0.28650 0.56470 0.62743
 H1067 H 0.29109 0.59865 0.66170
 H1068 H 0.20124 0.62117 0.62121
 H1069 H 0.20771 0.65739 0.65021
 H1070 H 0.29374 0.62751 0.69339
 H1071 H 0.29981 0.66595 0.71705
 H1072 H 0.23298 0.68559 0.68019
 C1073 C 0.91301 0.71478 0.07520
 C1074 C 0.90887 0.73299 0.09840
 C1075 C 0.92698 0.75073 0.10300
 C1076 C 0.94738 0.75106 0.08337
 C1077 C 0.95060 0.73361 0.05935
 C1078 C 0.93358 0.71513 0.05611
 C1079 C 0.92452 0.76840 0.12668
 C1080 C 0.90418 0.76932 0.14551
 C1081 C 0.88509 0.75283 0.14083
 C1082 C 0.88737 0.73447 0.11667
 C1083 C 0.86775 0.71887 0.11053
 C1084 C 0.84645 0.72150 0.12657
 C1085 C 0.84392 0.73937 0.14998
 C1086 C 0.86340 0.75477 0.15839
 C1087 C 0.86013 0.77191 0.18349
 C1088 C 0.83810 0.77466 0.19759
 C1089 C 0.81871 0.76032 0.18765
 C1090 C 0.82177 0.74237 0.16433
 H1091 H 0.90071 0.70006 0.07111
 H1092 H 0.96074 0.76516 0.08653
 H1093 H 0.93583 0.70128 0.03796
 H1094 H 0.93841 0.78187 0.13048
 H1095 H 0.90371 0.78386 0.16270
 H1096 H 0.86798 0.70489 0.09236
 H1097 H 0.83168 0.70956 0.12023
 H1098 H 0.87410 0.78363 0.19267
 H1099 H 0.83604 0.78851 0.21582
 H1100 H 0.80670 0.73128 0.15653
 C1101 C 0.42358 0.25950 0.61929
 C1102 C 0.40503 0.24197 0.61899
 C1103 C 0.40728 0.22234 0.59754
 C1104 C 0.42744 0.22046 0.57760
 C1105 C 0.44521 0.23842 0.57750
 C1106 C 0.44315 0.25776 0.59873
 C1107 C 0.38909 0.20505 0.59531
 C1108 C 0.36816 0.20736 0.61251
 C1109 C 0.36475 0.22694 0.63334
 C1110 C 0.38398 0.24381 0.63808
 C1111 C 0.38145 0.26208 0.66153
 C1112 C 0.36037 0.26484 0.67796
 C1113 C 0.34090 0.24973 0.67151
 C1114 C 0.34273 0.23040 0.64938
 C1115 C 0.32213 0.21598 0.64322
 C1116 C 0.30070 0.22101 0.65783
 C1117 C 0.29918 0.24022 0.67940
 C1118 C 0.31938 0.25430 0.68647
 H1119 H 0.42316 0.27529 0.63407
 H1120 H 0.42876 0.20556 0.56091
 H1121 H 0.45664 0.27189 0.59909
 H1122 H 0.39079 0.18984 0.57932
 H1123 H 0.35496 0.19333 0.60913
 H1124 H 0.39556 0.27455 0.66804
 H1125 H 0.35917 0.27936 0.69536
 H1126 H 0.32174 0.20127 0.62622
 H1127 H 0.28509 0.21023 0.65155
 H1128 H 0.31811 0.26938 0.70288
 C1129 C 0.07081 0.23264 0.10687
 C1130 C 0.08909 0.25014 0.11153
 C1131 C 0.08749 0.27171 0.09415
 C1132 C 0.06795 0.27566 0.07387
 C1133 C 0.05025 0.25798 0.06921
 C1134 C 0.05186 0.23651 0.08586
 C1135 C 0.10564 0.28903 0.09643
 C1136 C 0.12593 0.28502 0.11431
 C1137 C 0.12858 0.26366 0.13148
 C1138 C 0.10927 0.24657 0.13177
 C1139 C 0.11075 0.22654 0.15236
 C1140 C 0.13094 0.22256 0.17038
 C1141 C 0.15061 0.23803 0.16804
 C1142 C 0.14985 0.25878 0.14848
 C1143 C 0.17075 0.27325 0.14568
 C1144 C 0.19139 0.26721 0.16159
 C1145 C 0.19174 0.24693 0.18131
 C1146 C 0.17127 0.23251 0.18460
 H1147 H 0.07102 0.21544 0.11804
 H1148 H 0.06699 0.29220 0.06059
 H1149 H 0.03843 0.22254 0.08248
 H1150 H 0.10440 0.30567 0.08354
 H1151 H 0.13914 0.29926 0.11473
 H1152 H 0.09634 0.21374 0.15559
 H1153 H 0.13133 0.20686 0.18571
 H1154 H 0.17201 0.28881 0.13028
 H1155 H 0.20729 0.27817 0.15798
 H1156 H 0.17168 0.21655 0.19939
 C1157 C 0.59599 0.79866 0.57748
 C1158 C 0.60032 0.77945 0.59879
 C1159 C 0.58290 0.76075 0.60034
 C1160 C 0.56308 0.76058 0.57939
 C1161 C 0.55962 0.77926 0.55745
 C1162 C 0.57590 0.79854 0.55733
 C1163 C 0.58548 0.74211 0.62242
 C1164 C 0.60514 0.74132 0.64282
 C1165 C 0.62353 0.75889 0.64120
 C1166 C 0.62134 0.77800 0.61826
 C1167 C 0.64065 0.79436 0.61439
 C1168 C 0.66158 0.79182 0.63159
 C1169 C 0.66390 0.77342 0.65422
 C1170 C 0.64457 0.75729 0.66047
 C1171 C 0.64735 0.73987 0.68528
 C1172 C 0.66897 0.73731 0.70077
 C1173 C 0.68847 0.75209 0.69250
 C1174 C 0.68571 0.77054 0.66984
 H1175 H 0.60768 0.81410 0.57594
 H1176 H 0.55027 0.74581 0.58012
 H1177 H 0.57344 0.81333 0.54084
 H1178 H 0.57216 0.72784 0.62386
 H1179 H 0.60584 0.72603 0.65858
 H1180 H 0.64055 0.80880 0.59695
 H1181 H 0.67620 0.80432 0.62686
 H1182 H 0.63324 0.72780 0.69314
 H1183 H 0.67073 0.72311 0.71855
 H1184 H 0.70080 0.78202 0.66335
   
