data_POSCAR
  _audit_creation_date              2014-09-24
  _audit_creation_method            'ToBaCCo'
  _symmetry_space_group_name_H-M    'P1'
  _symmetry_Int_Tables_number       1
  _symmetry_cell_setting            triclinic
  loop_
  _symmetry_equiv_pos_as_xyz
 x,y,z
_cell_length_a 44.8346
_cell_length_b 49.7881
_cell_length_c 42.8079
_cell_angle_alpha 86.323700
_cell_angle_beta 89.880400
_cell_angle_gamma 90.966700
loop_
  _atom_site_label
  _atom_site_type_symbol
  _atom_site_fract_x
  _atom_site_fract_y
  _atom_site_fract_z
N1 N 0.56954 0.67932 0.60519
 N2 N 0.55710 0.66842 0.63091
 C3 C 0.53307 0.68287 0.63792
 C4 C 0.53037 0.70368 0.61512
 C5 C 0.55370 0.70073 0.59471
 H6 H 0.51838 0.67836 0.65769
 H7 H 0.55894 0.71348 0.57394
 Cu8 Cu 0.57298 0.63583 0.65187
 Cu9 Cu 0.60589 0.66580 0.58772
 Cu10 Cu 0.63461 0.60764 0.62353
 N11 N 0.58841 0.60209 0.67031
 N12 N 0.61288 0.59163 0.65968
 C13 C 0.61885 0.56880 0.67689
 C14 C 0.59670 0.56456 0.69938
 C15 C 0.57771 0.58599 0.69443
 H16 H 0.63755 0.55606 0.67281
 H17 H 0.55769 0.58958 0.70756
 N18 N 0.65334 0.62684 0.58664
 N19 N 0.64253 0.64926 0.57337
 C20 C 0.66053 0.65810 0.54955
 C21 C 0.68352 0.64028 0.54749
 C22 C 0.67836 0.62064 0.57131
 H23 H 0.65728 0.67620 0.53470
 H24 H 0.69210 0.60346 0.57738
 H25 H 0.59790 0.62601 0.60333
 H26 H 0.62183 0.64670 0.62863
 N27 N 0.91176 0.32510 0.13023
 N28 N 0.92571 0.33596 0.15343
 C29 C 0.94967 0.32115 0.16148
 C30 C 0.95060 0.29973 0.14259
 C31 C 0.92607 0.30270 0.12309
 H32 H 0.96568 0.32583 0.17929
 H33 H 0.92001 0.29047 0.10404
 Cu34 Cu 0.91187 0.36902 0.16986
 Cu35 Cu 0.87872 0.34287 0.10811
 Cu36 Cu 0.85735 0.40438 0.13437
 N37 N 0.89791 0.40205 0.18632
 N38 N 0.87755 0.41649 0.17132
 C39 C 0.87225 0.43853 0.18697
 C40 C 0.89006 0.43766 0.21333
 C41 C 0.90594 0.41422 0.21232
 H42 H 0.85584 0.45349 0.18032
 H43 H 0.92205 0.40666 0.22933
 N44 N 0.83932 0.38846 0.09777
 N45 N 0.84631 0.36448 0.08868
 C46 C 0.82937 0.35903 0.06379
 C47 C 0.81106 0.38069 0.05694
 C48 C 0.81802 0.39894 0.07878
 H49 H 0.83079 0.34101 0.05109
 H50 H 0.80809 0.41841 0.08067
 H51 H 0.89153 0.38126 0.11829
 H52 H 0.86346 0.36375 0.14501
 N53 N 0.41662 0.16964 -0.12633
 N54 N 0.43270 0.15574 -0.14509
 C55 C 0.45802 0.16954 -0.15263
 C56 C 0.45760 0.19353 -0.13817
 C57 C 0.43093 0.19307 -0.12174
 H58 H 0.47566 0.16247 -0.16713
 H59 H 0.42318 0.20795 -0.10641
 Cu60 Cu 0.41922 0.12077 -0.15765
 Cu61 Cu 0.37977 0.15472 -0.10723
 Cu62 Cu 0.37981 0.08483 -0.10300
 N63 N 0.40858 0.08337 -0.16276
 N64 N 0.39388 0.06904 -0.14072
 C65 C 0.39036 0.04367 -0.14937
 C66 C 0.40300 0.04221 -0.17865
 C67 C 0.41448 0.06776 -0.18648
 H68 H 0.37879 0.02767 -0.13571
 H69 H 0.42635 0.07446 -0.20764
 N70 N 0.35554 0.10597 -0.07535
 N71 N 0.35415 0.13249 -0.07808
 C72 C 0.33402 0.14063 -0.05741
 C73 C 0.32229 0.11802 -0.04094
 C74 C 0.33647 0.09651 -0.05283
 H75 H 0.32866 0.16141 -0.05443
 H76 H 0.33260 0.07543 -0.04607
 H77 H 0.40381 0.12105 -0.10296
 H78 H 0.37143 0.11890 -0.13002
 N79 N 0.09338 0.81634 0.37314
 N80 N 0.07259 0.83226 0.36131
 C81 C 0.04858 0.81729 0.35406
 C82 C 0.05489 0.79049 0.36161
 C83 C 0.08351 0.79066 0.37348
 H84 H 0.02839 0.82536 0.34371
 H85 H 0.09591 0.77338 0.38243
 Cu86 Cu 0.07904 0.87094 0.35532
 Cu87 Cu 0.13053 0.83026 0.38973
 Cu88 Cu 0.14673 0.89731 0.37117
 N89 N 0.09183 0.90631 0.33795
 N90 N 0.11844 0.91625 0.34376
 C91 C 0.12215 0.94005 0.32741
 C92 C 0.09645 0.94530 0.31040
 C93 C 0.07759 0.92357 0.31779
 H94 H 0.14222 0.95237 0.32763
 H95 H 0.05559 0.92014 0.30835
 N96 N 0.17238 0.87428 0.39830
 N97 N 0.16664 0.84843 0.40470
 C98 C 0.18769 0.83831 0.42429
 C99 C 0.20743 0.85880 0.43068
 C100 C 0.19714 0.88135 0.41375
 H101 H 0.18807 0.81778 0.43420
 H102 H 0.20659 0.90149 0.41314
 H103 H 0.11804 0.86958 0.39480
 H104 H 0.13173 0.86116 0.35513
 C105 C 0.09396 0.14427 0.12565
 N106 N 0.11760 0.15083 0.10650
 C107 C 0.14164 0.13462 0.10644
 N108 N 0.14214 0.11209 0.12604
 C109 C 0.11875 0.10544 0.14527
 N110 N 0.09450 0.12146 0.14485
 C111 C 0.39437 0.86511 0.63583
 N112 N 0.37657 0.86764 0.61020
 C113 C 0.36211 0.89095 0.60299
 N114 N 0.36577 0.91192 0.62141
 C115 C 0.38325 0.90953 0.64726
 N116 N 0.39748 0.88604 0.65448
 C117 C 0.89079 0.64658 0.36342
 N118 N 0.86946 0.64243 0.38581
 C119 C 0.85398 0.61870 0.38883
 N120 N 0.85978 0.59915 0.36906
 C121 C 0.88076 0.60336 0.34620
 N122 N 0.89619 0.62708 0.34348
 C123 C 0.59893 0.35886 -0.13032
 N124 N 0.59961 0.38241 -0.14820
 C125 C 0.62353 0.39946 -0.14707
 N126 N 0.64650 0.39305 -0.12757
 C127 C 0.64580 0.36976 -0.10922
 N128 N 0.62211 0.35259 -0.11091
 C129 C -0.02683 0.28081 0.14243
 C130 C -0.02796 0.25839 0.12452
 C131 C -0.00248 0.24032 0.12321
 N132 N -0.00684 0.21409 0.11728
 N133 N 0.01623 0.19765 0.11597
 C134 C 0.04451 0.20698 0.12008
 N135 N 0.04889 0.23328 0.12555
 N136 N 0.02581 0.24962 0.12729
 C137 C 0.07022 0.18923 0.11838
 C138 C 0.06781 0.16166 0.12587
 H139 H -0.04813 0.25335 0.11215
 H140 H 0.09195 0.19835 0.11332
 H141 H -0.00762 0.28369 0.15726
 H142 H 0.04675 0.15297 0.13429
 C143 C 0.50770 0.72462 0.61192
 C144 C 0.49107 0.73257 0.63714
 C145 C 0.47013 0.75498 0.63322
 N146 N 0.46158 0.76840 0.65828
 N147 N 0.44355 0.78939 0.65461
 C148 C 0.43322 0.79752 0.62577
 N149 N 0.44139 0.78382 0.60085
 N150 N 0.45960 0.76302 0.60447
 C151 C 0.41398 0.82101 0.62087
 C152 C 0.41102 0.84023 0.64293
 H153 H 0.49497 0.72353 0.66042
 H154 H 0.40354 0.82423 0.59817
 H155 H 0.50557 0.73539 0.58925
 H156 H 0.42276 0.83787 0.66499
 C157 C 1.03688 0.76768 0.35868
 C158 C 1.00685 0.76891 0.35032
 C159 C 0.98839 0.74437 0.34868
 N160 N 0.95832 0.74552 0.35183
 N161 N 0.94144 0.72328 0.35122
 C162 C 0.95401 0.69912 0.34707
 N163 N 0.98401 0.69805 0.34339
 N164 N 1.00092 0.72024 0.34435
 C165 C 0.93581 0.67432 0.34693
 C166 C 0.90783 0.67211 0.36116
 H167 H 0.99601 0.78813 0.34699
 H168 H 0.94560 0.65679 0.33751
 H169 H 1.04655 0.74819 0.36446
 H170 H 0.89918 0.68893 0.37300
 C171 C 0.48207 0.21356 -0.13823
 C172 C 0.47804 0.23970 -0.12943
 C173 C 0.50326 0.25886 -0.12804
 N174 N 0.49833 0.28571 -0.12849
 N175 N 0.52109 0.30316 -0.12702
 C176 C 0.54957 0.29435 -0.12470
 N177 N 0.55444 0.26751 -0.12390
 N178 N 0.53173 0.25009 -0.12570
 C179 C 0.57494 0.31321 -0.12249
 C180 C 0.57312 0.34039 -0.13214
 H181 H 0.45586 0.24650 -0.12425
 H182 H 0.59606 0.30515 -0.11439
 H183 H 0.50383 0.20760 -0.14606
 H184 H 0.55277 0.34804 -0.14270
 C185 C 0.09059 -0.03175 0.28794
 C186 C 0.11358 -0.01482 0.27615
 C187 C 0.10879 0.00753 0.25271
 N188 N 0.13268 0.01989 0.23823
 N189 N 0.12903 0.04021 0.21691
 C190 C 0.10132 0.04906 0.20936
 N191 N 0.07737 0.03684 0.22402
 N192 N 0.08102 0.01636 0.24525
 C193 C 0.09730 0.07181 0.18613
 C194 C 0.12084 0.08154 0.16708
 H195 H 0.13633 -0.01869 0.28329
 H196 H 0.07559 0.08096 0.18399
 H197 H 0.06805 -0.02897 0.27943
 H198 H 0.14204 0.07140 0.16836
 C199 C 0.59334 0.54331 -0.27788
 C200 C 0.61498 0.52375 -0.27247
 C201 C 0.61115 0.50112 -0.24895
 N202 N 0.63525 0.48686 -0.23910
 N203 N 0.63224 0.46600 -0.21820
 C204 C 0.60495 0.45845 -0.20656
 N205 N 0.58077 0.47257 -0.21660
 N206 N 0.58382 0.49361 -0.23732
 C207 C 0.60141 0.43494 -0.18414
 C208 C 0.62569 0.42418 -0.16770
 H209 H 0.63601 0.52539 -0.28495
 H210 H 0.57935 0.42613 -0.18032
 H211 H 0.57340 0.54247 -0.26349
 H212 H 0.64726 0.43428 -0.16994
 C213 C 0.40317 1.01836 0.80276
 C214 C 0.40801 1.02036 0.77054
 C215 C 0.40607 0.99681 0.75156
 N216 N 0.40290 1.00039 0.72008
 N217 N 0.40050 0.97928 0.70258
 C218 C 0.40143 0.95381 0.71590
 N219 N 0.40500 0.95022 0.74735
 N220 N 0.40715 0.97134 0.76490
 C221 C 0.39852 0.93037 0.69682
 C222 C 0.38690 0.93269 0.66662
 H223 H 0.41147 1.03996 0.75849
 H224 H 0.40438 0.91077 0.70723
 H225 H 0.39747 0.99901 0.81445
 H226 H 0.37911 0.95202 0.65717
 C227 C 0.89085 0.45658 0.23832
 C228 C 0.88204 0.48315 0.23300
 C229 C 0.88158 0.50202 0.25799
 N230 N 0.88191 0.52891 0.25054
 N231 N 0.88078 0.54629 0.27288
 C232 C 0.87892 0.53741 0.30350
 N233 N 0.87829 0.51050 0.31096
 N234 N 0.87977 0.49311 0.28862
 C235 C 0.87647 0.55648 0.32817
 C236 C 0.88577 0.58324 0.32318
 H237 H 0.87619 0.49066 0.20954
 H238 H 0.86741 0.54930 0.35071
 H239 H 0.89948 0.44972 0.26101
 H240 H 0.89716 0.58975 0.30159
 C241 C 0.29952 0.11610 -0.01610
 C242 C 0.28204 0.13769 -0.00862
 C243 C 0.25855 0.13442 0.01550
 N244 N 0.23867 0.15428 0.01909
 N245 N 0.21692 0.15111 0.04038
 C246 C 0.21439 0.12799 0.05893
 N247 N 0.23441 0.10829 0.05551
 N248 N 0.25604 0.11141 0.03419
 C249 C 0.19028 0.12355 0.08211
 C250 C 0.16666 0.14115 0.08473
 H251 H 0.28478 0.15703 -0.02144
 H252 H 0.19062 0.10501 0.09679
 H253 H 0.29568 0.09652 -0.00411
 H254 H 0.16585 0.15949 0.06973
 C255 C 0.70835 0.64301 0.52497
 C256 C 0.72716 0.62189 0.51921
 C257 C 0.75152 0.62529 0.49613
 N258 N 0.76516 0.60344 0.48566
 N259 N 0.78699 0.60638 0.46445
 C260 C 0.79608 0.63131 0.45313
 N261 N 0.78264 0.65313 0.46385
 N262 N 0.76071 0.65018 0.48487
 C263 C 0.82004 0.63513 0.42970
 C264 C 0.83077 0.61414 0.41304
 H265 H 0.72328 0.60220 0.53090
 H266 H 0.82863 0.65540 0.42455
 H267 H 0.71111 0.66213 0.51163
 H268 H 0.82115 0.59409 0.41695
 C269 C 0.78931 0.38476 0.03150
 C270 C 0.77840 0.36383 0.01442
 C271 C 0.75612 0.36859 -0.01045
 N272 N 0.74066 0.34761 -0.02166
 N273 N 0.72004 0.35184 -0.04376
 C274 C 0.71434 0.37721 -0.05560
 N275 N 0.73006 0.39811 -0.04466
 N276 N 0.75050 0.39390 -0.02243
 C277 C 0.69140 0.38250 -0.07960
 C278 C 0.67013 0.36323 -0.08713
 H279 H 0.78531 0.34339 0.02026
 H280 H 0.69025 0.40274 -0.09039
 H281 H 0.78077 0.40485 0.02695
 H282 H 0.67028 0.34336 -0.07525
 C283 C 0.23261 0.85668 0.45266
 C284 C 0.24774 0.87925 0.46267
 C285 C 0.27097 0.87718 0.48687
 N286 N 0.28166 0.89978 0.49935
 N287 N 0.30199 0.89821 0.52201
 C288 C 0.31248 0.87396 0.53294
 N289 N 0.30202 0.85139 0.52023
 N290 N 0.28159 0.85295 0.49766
 C291 C 0.33426 0.87177 0.55858
 C292 C 0.34224 0.89366 0.57571
 H293 H 0.24139 0.89918 0.45381
 H294 H 0.34314 0.85209 0.56503
 H295 H 0.23827 0.83683 0.46246
 H296 H 0.33263 0.91315 0.56988
   
