data_POSCAR
  _audit_creation_date              2014-09-24
  _audit_creation_method            'ToBaCCo'
  _symmetry_space_group_name_H-M    'P1'
  _symmetry_Int_Tables_number       1
  _symmetry_cell_setting            triclinic
  loop_
  _symmetry_equiv_pos_as_xyz
 x,y,z
_cell_length_a 27.4403
_cell_length_b 27.4961
_cell_length_c 27.4259
_cell_angle_alpha 89.992200
_cell_angle_beta 89.987400
_cell_angle_gamma 90.117600
loop_
  _atom_site_label
  _atom_site_type_symbol
  _atom_site_fract_x
  _atom_site_fract_y
  _atom_site_fract_z
C1 C 0.53660 0.97863 -0.38923
 C2 C 0.49100 0.97167 -0.36672
 C3 C 0.44755 0.97410 -0.39282
 C4 C 0.44886 0.98028 -0.44373
 C5 C 0.49391 0.98825 -0.46772
 C6 C 0.53810 0.98748 -0.44062
 C7 C 0.58221 0.99273 -0.46634
 C8 C 0.58283 1.00164 -0.51634
 C9 C 0.53957 1.00240 -0.54394
 C10 C 0.49452 0.99638 -0.51908
 C11 C 0.40605 0.97684 -0.47134
 C12 C 0.40666 0.98472 -0.52110
 C13 C 0.44988 0.99784 -0.54539
 C14 C 0.45001 1.00874 -0.59594
 C15 C 0.49483 1.01462 -0.61969
 C16 C 0.53969 1.01084 -0.59525
 H17 H 0.61709 0.98947 -0.44846
 H18 H 0.61795 1.00827 -0.53286
 H19 H 0.37156 0.96705 -0.45484
 H20 H 0.37269 0.97929 -0.54024
 H21 H 0.48884 0.96758 -0.32742
 H22 H 0.49472 1.02169 -0.65861
 C23 C -0.54988 1.40108 -0.01783
 C24 C -0.50548 1.37625 -0.01471
 C25 C -0.46084 1.40085 -0.01802
 C26 C -0.46036 1.45188 -0.02507
 C27 C -0.50496 1.47777 -0.02690
 C28 C -0.54988 1.45231 -0.02327
 C29 C -0.59363 1.47875 -0.02500
 C30 C -0.59343 1.52887 -0.03165
 C31 C -0.54944 1.55480 -0.03562
 C32 C -0.50468 1.52919 -0.03301
 C33 C -0.41653 1.47744 -0.03205
 C34 C -0.41626 1.52760 -0.03856
 C35 C -0.45971 1.55471 -0.03719
 C36 C -0.45978 1.60616 -0.04340
 C37 C -0.50473 1.63007 -0.04793
 C38 C -0.54906 1.60559 -0.04320
 H39 H -0.62865 1.46100 -0.02138
 H40 H -0.62829 1.54699 -0.03408
 H41 H -0.38188 1.45881 -0.03357
 H42 H -0.38150 1.54464 -0.04593
 H43 H -0.50566 1.33707 -0.01003
 H44 H -0.50563 1.66937 -0.05143
 C45 C 0.01021 0.40221 0.46036
 C46 C 0.00366 0.37785 0.50500
 C47 C 0.01186 0.40072 0.55017
 C48 C 0.02260 0.45149 0.55082
 C49 C 0.02603 0.47766 0.50625
 C50 C 0.01986 0.45309 0.46104
 C51 C 0.01992 0.48081 0.41782
 C52 C 0.02981 0.53028 0.41834
 C53 C 0.03710 0.55512 0.46236
 C54 C 0.03439 0.52896 0.50687
 C55 C 0.02680 0.47759 0.59483
 C56 C 0.03709 0.52704 0.59532
 C57 C 0.03943 0.55408 0.55193
 C58 C 0.04862 0.60516 0.55213
 C59 C 0.05417 0.62922 0.50732
 C60 C 0.04688 0.60557 0.46295
 H61 H 0.01131 0.46495 0.38283
 H62 H 0.03123 0.54891 0.38363
 H63 H 0.02143 0.46054 0.62987
 H64 H 0.04318 0.54366 0.63049
 H65 H -0.00284 0.33892 0.50452
 H66 H 0.05973 0.66831 0.50670
 O67 O -0.13062 0.99995 -0.05881
 O68 O 0.11918 0.99694 -0.06020
 O69 O -0.00828 1.06336 -0.12024
 O70 O -0.00374 0.93213 -0.11817
 O71 O -0.00291 0.87379 -0.05781
 O72 O -0.00815 1.12461 -0.06268
 O73 O 0.06027 0.99509 -0.11988
 O74 O -0.07173 0.99992 -0.11873
 Zr75 Zr -0.00562 0.99863 -0.07963
 O76 O 0.03871 0.95544 -0.03785
 O77 O -0.04960 1.04293 -0.03808
 C78 C -0.11669 1.00097 -0.10410
 C79 C 0.10524 0.99333 -0.10512
 C80 C -0.00969 1.10874 -0.10743
 C81 C -0.00215 0.88734 -0.10314
 H82 H 0.05898 1.06432 -0.06065
 O83 O 0.03812 1.04414 -0.03922
 H84 H -0.06996 0.93373 -0.05754
 O85 O -0.04911 0.95483 -0.03707
 O86 O 0.12045 1.00444 0.06936
 O87 O -0.12924 0.99754 0.07362
 O88 O 0.06066 1.12630 0.00583
 O89 O 0.06128 0.87538 0.00554
 O90 O -0.06999 0.87408 0.00996
 O91 O -0.07309 1.12469 0.00205
 O92 O -0.00381 1.06669 0.13041
 O93 O -0.00354 0.93578 0.13243
 O94 O -0.00513 1.12657 0.07147
 O95 O -0.00524 0.87573 0.07381
 O96 O 0.11928 1.06629 0.00585
 O97 O -0.13077 1.06356 0.00386
 O98 O -0.12974 0.93276 0.00926
 O99 O 0.12013 0.93524 0.00358
 O100 O 0.06303 1.00539 0.13051
 O101 O -0.06906 0.99845 0.13221
 Zr102 Zr 0.07978 1.00072 0.00504
 Zr103 Zr -0.09042 0.99886 0.00695
 Zr104 Zr -0.00581 1.08653 0.00483
 Zr105 Zr -0.00463 0.91435 0.00741
 Zr106 Zr -0.00386 1.00100 0.09169
 O107 O -0.04847 0.95584 0.05161
 O108 O 0.03895 1.04542 0.04903
 C109 C 0.10770 1.00702 0.11469
 C110 C -0.11433 0.99697 0.11861
 C111 C 0.10566 1.11141 0.00699
 C112 C 0.10618 0.89005 0.00352
 C113 C -0.11517 0.88786 0.01039
 C114 C -0.11786 1.10886 0.00108
 C115 C -0.00469 1.11176 0.11665
 C116 C -0.00458 0.89056 0.11872
 H117 H -0.07002 1.06463 0.07025
 O118 O -0.04877 1.04409 0.04972
 H119 H 0.06129 0.93686 0.07117
 O120 O 0.03978 0.95683 0.05033
 C121 C 0.36728 1.04160 0.39250
 C122 C 0.32414 1.04403 0.36549
 C123 C 0.31993 1.01923 0.32106
 C124 C 0.35965 0.99162 0.30424
 C125 C 0.40271 0.98928 0.33106
 C126 C 0.40682 1.01321 0.37620
 C127 C 0.27367 1.02176 0.29336
 C128 C 0.27293 1.01814 0.24470
 C129 C 0.22848 1.01835 0.21417
 C130 C 0.23482 1.02473 0.16397
 C131 C 0.19543 1.02168 0.13237
 C132 C 0.14823 1.01208 0.14998
 C133 C 0.14133 1.00665 0.20048
 C134 C 0.18122 1.00953 0.23242
 H135 H 0.36984 1.06213 0.42611
 H136 H 0.29415 1.06572 0.37909
 H137 H 0.35727 0.97062 0.27097
 H138 H 0.43202 0.96665 0.31750
 H139 H 0.24038 1.02854 0.31336
 H140 H 0.30729 1.01599 0.22540
 H141 H 0.27071 1.03147 0.14886
 H142 H 0.20237 1.02634 0.09380
 H143 H 0.10546 0.99909 0.21514
 H144 H 0.17495 1.00349 0.27086
 C145 C -0.41371 1.05110 0.34021
 C146 C -0.37504 1.05168 0.30727
 C147 C -0.33897 1.01574 0.30883
 C148 C -0.34193 0.97944 0.34497
 C149 C -0.38075 0.97889 0.37818
 C150 C -0.41748 1.01459 0.37609
 C151 C -0.30133 1.01588 0.26998
 C152 C -0.25887 0.99201 0.27261
 C153 C -0.22265 0.99298 0.23248
 C154 C -0.17307 0.98794 0.24365
 C155 C -0.13795 0.98929 0.20675
 C156 C -0.15173 0.99504 0.15764
 C157 C -0.20154 0.99888 0.14637
 C158 C -0.23662 0.99780 0.18333
 H159 H -0.44102 1.07939 0.33748
 H160 H -0.37380 1.08000 0.27982
 H161 H -0.31576 0.95014 0.34648
 H162 H -0.38353 0.94881 0.40354
 H163 H -0.30863 1.03815 0.23824
 H164 H -0.24887 0.97334 0.30585
 H165 H -0.16142 0.98361 0.28114
 H166 H -0.09996 0.98576 0.21681
 H167 H -0.21354 1.00287 0.10897
 H168 H -0.27464 1.00006 0.17315
 C169 C -0.41733 0.94214 -0.32233
 C170 C -0.37942 0.94359 -0.28855
 C171 C -0.34489 0.98116 -0.28962
 C172 C -0.34905 1.01750 -0.32556
 C173 C -0.38717 1.01609 -0.35951
 C174 C -0.42182 0.97819 -0.35859
 C175 C -0.30722 0.98226 -0.25089
 C176 C -0.26492 1.00649 -0.25439
 C177 C -0.22779 1.00573 -0.21512
 C178 C -0.17851 1.01121 -0.22748
 C179 C -0.14247 1.00961 -0.19151
 C180 C -0.15502 1.00311 -0.14217
 C181 C -0.20454 0.99897 -0.12967
 C182 C -0.24054 1.00033 -0.16569
 H183 H -0.44325 0.91242 -0.32021
 H184 H -0.37733 0.91531 -0.26111
 H185 H -0.32426 1.04811 -0.32645
 H186 H -0.39094 1.04612 -0.38479
 H187 H -0.31397 0.96011 -0.21893
 H188 H -0.25560 1.02495 -0.28798
 H189 H -0.16779 1.01601 -0.26520
 H190 H -0.10474 1.01350 -0.20247
 H191 H -0.21561 0.99451 -0.09202
 H192 H -0.27829 0.99773 -0.15457
 C193 C 0.37053 1.01522 -0.36788
 C194 C 0.32660 1.01606 -0.34230
 C195 C 0.31284 0.97655 -0.31303
 C196 C 0.34330 0.93537 -0.31097
 C197 C 0.38727 0.93453 -0.33672
 C198 C 0.40108 0.97443 -0.36536
 C199 C 0.26730 0.98021 -0.28435
 C200 C 0.26172 0.95785 -0.24137
 C201 C 0.22022 0.96707 -0.20833
 C202 C 0.22811 0.96189 -0.15822
 C203 C 0.19088 0.97122 -0.12515
 C204 C 0.14435 0.98528 -0.14137
 C205 C 0.13591 0.98951 -0.19173
 C206 C 0.17365 0.98067 -0.22503
 H207 H 0.38084 1.04646 -0.38966
 H208 H 0.30380 1.04811 -0.34453
 H209 H 0.33319 0.90366 -0.28989
 H210 H 0.41032 0.90266 -0.33469
 H211 H 0.24011 1.00601 -0.29646
 H212 H 0.29116 0.93587 -0.22714
 H213 H 0.26352 0.95116 -0.14447
 H214 H 0.19865 0.96686 -0.08670
 H215 H 0.10032 0.99969 -0.20535
 H216 H 0.16608 0.98381 -0.26362
 C217 C 0.37372 1.36940 -0.05668
 C218 C 0.33058 1.34227 -0.05471
 C219 C 0.31770 1.31681 -0.01221
 C220 C 0.34846 1.32010 0.02885
 C221 C 0.39156 1.34728 0.02684
 C222 C 0.40442 1.37222 -0.01585
 C223 C 0.27225 1.28729 -0.01208
 C224 C 0.26635 1.24813 0.01649
 C225 C 0.22368 1.21502 0.01392
 C226 C 0.23021 1.16660 0.02831
 C227 C 0.19182 1.13347 0.02598
 C228 C 0.14539 1.14798 0.00996
 C229 C 0.13822 1.19686 -0.00327
 C230 C 0.17711 1.23012 -0.00155
 H231 H 0.38322 1.38831 -0.09002
 H232 H 0.30755 1.34056 -0.08674
 H233 H 0.33917 1.30232 0.06279
 H234 H 0.41470 1.34932 0.05877
 H235 H 0.24478 1.29583 -0.03907
 H236 H 0.29592 1.23703 0.04008
 H237 H 0.26550 1.15408 0.04077
 H238 H 0.19864 1.09629 0.03695
 H239 H 0.10283 1.20921 -0.01553
 H240 H 0.17046 1.26753 -0.01175
 C241 C 0.39516 0.66458 -0.08398
 C242 C 0.35678 0.69779 -0.08204
 C243 C 0.32866 0.70258 -0.03957
 C244 C 0.33949 0.67308 0.00100
 C245 C 0.37802 0.63999 -0.00094
 C246 C 0.40620 0.63563 -0.04337
 C247 C 0.29088 0.74091 -0.03779
 C248 C 0.25268 0.73960 -0.00738
 C249 C 0.21594 0.77883 -0.00516
 C250 C 0.16821 0.76720 0.00885
 C251 C 0.13261 0.80329 0.01162
 C252 C 0.14425 0.85206 0.00124
 C253 C 0.19237 0.86389 -0.01177
 C254 C 0.22787 0.82766 -0.01502
 H255 H 0.41711 0.66228 -0.11673
 H256 H 0.34951 0.72040 -0.11356
 H257 H 0.31977 0.67681 0.03493
 H258 H 0.38696 0.61894 0.03121
 H259 H 0.29405 0.77052 -0.06366
 H260 H 0.24653 0.70781 0.01510
 H261 H 0.15831 0.72995 0.01718
 H262 H 0.09599 0.79295 0.02217
 H263 H 0.20260 0.90110 -0.01972
 H264 H 0.26473 0.83813 -0.02443
 C265 C -0.41202 0.67495 -0.07433
 C266 C -0.37339 0.70761 -0.06956
 C267 C -0.33894 0.70211 -0.03227
 C268 C -0.34346 0.66241 -0.00015
 C269 C -0.38209 0.62946 -0.00505
 C270 C -0.41720 0.63538 -0.04207
 C271 C -0.30121 0.74039 -0.02664
 C272 C -0.26061 0.73561 0.00011
 C273 C -0.22429 0.77527 0.00471
 C274 C -0.17517 0.76344 0.01207
 C275 C -0.13978 0.79997 0.01470
 C276 C -0.15293 0.84926 0.01061
 C277 C -0.20243 0.86112 0.00515
 C278 C -0.23774 0.82458 0.00236
 H279 H -0.43800 0.68071 -0.10349
 H280 H -0.37092 0.73787 -0.09476
 H281 H -0.31870 0.65762 0.03010
 H282 H -0.38604 0.60107 0.02205
 H283 H -0.30679 0.77375 -0.04685
 H284 H -0.25198 0.70110 0.01691
 H285 H -0.16401 0.72576 0.01470
 H286 H -0.10206 0.78948 0.01940
 H287 H -0.21397 0.89866 0.00240
 H288 H -0.27551 0.83514 -0.00140
 C289 C -0.38314 1.37859 0.02458
 C290 C -0.34034 1.35116 0.02766
 C291 C -0.32933 1.31615 -0.00795
 C292 C -0.36155 1.31012 -0.04755
 C293 C -0.40433 1.33749 -0.05052
 C294 C -0.41540 1.37192 -0.01456
 C295 C -0.28420 1.28676 -0.00276
 C296 C -0.27984 1.24205 -0.02180
 C297 C -0.23702 1.20990 -0.01479
 C298 C -0.24382 1.15985 -0.02153
 C299 C -0.20518 1.12757 -0.01604
 C300 C -0.15822 1.14441 -0.00408
 C301 C -0.15095 1.19470 0.00203
 C302 C -0.19003 1.22722 -0.00317
 H303 H -0.39120 1.40502 0.05272
 H304 H -0.31611 1.35679 0.05833
 H305 H -0.35369 1.28483 -0.07669
 H306 H -0.42862 1.33221 -0.08121
 H307 H -0.25549 1.30107 0.02023
 H308 H -0.31059 1.22636 -0.04090
 H309 H -0.27941 1.14548 -0.03090
 H310 H -0.21225 1.08921 -0.02171
 H311 H -0.11519 1.20887 0.01089
 H312 H -0.18308 1.26571 0.00111
 C313 C 0.04572 1.37959 0.38097
 C314 C 0.04454 1.35214 0.33806
 C315 C 0.00740 1.31799 0.32993
 C316 C -0.02901 1.31227 0.36576
 C317 C -0.02765 1.33948 0.40884
 C318 C 0.00909 1.37443 0.41670
 C319 C 0.00805 1.28912 0.28398
 C320 C -0.01403 1.24577 0.27975
 C321 C -0.01102 1.21376 0.23623
 C322 C -0.02182 1.16442 0.24282
 C323 C -0.01967 1.13203 0.20394
 C324 C -0.00701 1.14797 0.15682
 C325 C 0.00294 1.19765 0.14961
 C326 C 0.00109 1.23034 0.18903
 H327 H 0.07598 1.40432 0.38661
 H328 H 0.07329 1.35707 0.31142
 H329 H -0.05922 1.28752 0.36056
 H330 H -0.05662 1.33448 0.43524
 H331 H 0.03019 1.30259 0.25423
 H332 H -0.03262 1.23073 0.31111
 H333 H -0.03166 1.15060 0.27850
 H334 H -0.02832 1.09424 0.21104
 H335 H 0.01246 1.21112 0.11374
 H336 H 0.00851 1.26838 0.18222
 C337 C 0.04858 1.37330 -0.37251
 C338 C 0.04697 1.34454 -0.33045
 C339 C 0.00809 1.31235 -0.32220
 C340 C -0.02940 1.30968 -0.35721
 C341 C -0.02766 1.33824 -0.39941
 C342 C 0.01067 1.37151 -0.40714
 C343 C 0.00793 1.28273 -0.27671
 C344 C -0.01776 1.24143 -0.27167
 C345 C -0.01593 1.20951 -0.22797
 C346 C -0.02969 1.16073 -0.23361
 C347 C -0.02802 1.12861 -0.19434
 C348 C -0.01300 1.14443 -0.14793
 C349 C -0.00053 1.19367 -0.14163
 C350 C -0.00187 1.22596 -0.18131
 H351 H 0.08002 1.39648 -0.37831
 H352 H 0.07662 1.34707 -0.30449
 H353 H -0.06078 1.28644 -0.35198
 H354 H -0.05749 1.33568 -0.42516
 H355 H 0.03218 1.29401 -0.24771
 H356 H -0.03871 1.22801 -0.30224
 H357 H -0.04120 1.14712 -0.26886
 H358 H -0.03859 1.09113 -0.20051
 H359 H 0.01090 1.20704 -0.10629
 H360 H 0.00767 1.26363 -0.17512
 C361 C 0.08374 0.67137 -0.39943
 C362 C 0.08080 0.70409 -0.36069
 C363 C 0.04273 0.70102 -0.32676
 C364 C 0.00773 0.66390 -0.33207
 C365 C 0.01071 0.63099 -0.37085
 C366 C 0.04878 0.63419 -0.40520
 C367 C 0.03909 0.73929 -0.28888
 C368 C 0.01280 0.73491 -0.24790
 C369 C 0.00887 0.77459 -0.21159
 C370 C 0.00027 0.76277 -0.16261
 C371 C -0.00344 0.79931 -0.12739
 C372 C 0.00071 0.84860 -0.14059
 C373 C 0.00823 0.86044 -0.18989
 C374 C 0.01216 0.82389 -0.22502
 H375 H 0.11354 0.67518 -0.42508
 H376 H 0.10807 0.73250 -0.35770
 H377 H -0.02327 0.66134 -0.30787
 H378 H -0.01851 0.60484 -0.37549
 H379 H 0.06022 0.77209 -0.29471
 H380 H -0.00468 0.70068 -0.23925
 H381 H -0.00299 0.72511 -0.15145
 H382 H -0.00958 0.78884 -0.08981
 H383 H 0.01132 0.89799 -0.20143
 H384 H 0.01706 0.83448 -0.26270
 C385 C 0.08635 0.66417 0.40540
 C386 C 0.08338 0.69749 0.36706
 C387 C 0.03968 0.70345 0.34114
 C388 C -0.00113 0.67522 0.35428
 C389 C 0.00183 0.64208 0.39277
 C390 C 0.04557 0.63629 0.41857
 C391 C 0.03708 0.74161 0.30313
 C392 C 0.00492 0.74083 0.26637
 C393 C 0.00221 0.77990 0.22938
 C394 C -0.01330 0.76837 0.18207
 C395 C -0.01580 0.80433 0.14617
 C396 C -0.00365 0.85283 0.15717
 C397 C 0.01048 0.86462 0.20499
 C398 C 0.01346 0.82854 0.24073
 H399 H 0.12014 0.66082 0.42553
 H400 H 0.11513 0.71918 0.35803
 H401 H -0.03590 0.67993 0.33635
 H402 H -0.03042 0.62193 0.40344
 H403 H 0.06383 0.77059 0.30481
 H404 H -0.01862 0.70957 0.26150
 H405 H -0.02277 0.73127 0.17267
 H406 H -0.02730 0.79412 0.10981
 H407 H 0.01988 0.90165 0.21470
 H408 H 0.02402 0.83895 0.27729
   
