data_POSCAR
  _audit_creation_date              2014-09-24
  _audit_creation_method            'ToBaCCo'
  _symmetry_space_group_name_H-M    'P1'
  _symmetry_Int_Tables_number       1
  _symmetry_cell_setting            triclinic
  loop_
  _symmetry_equiv_pos_as_xyz
 x,y,z
_cell_length_a 58.1680
_cell_length_b 56.7172
_cell_length_c 56.1346
_cell_angle_alpha 89.546800
_cell_angle_beta 90.287100
_cell_angle_gamma 89.374400
loop_
  _atom_site_label
  _atom_site_type_symbol
  _atom_site_fract_x
  _atom_site_fract_y
  _atom_site_fract_z
C1 C 0.61015 0.64475 0.60715
 C2 C 0.63077 0.63600 0.59766
 C3 C 0.64290 0.61838 0.60960
 C4 C 0.63436 0.60901 0.63095
 C5 C 0.61394 0.61742 0.64012
 C6 C 0.60185 0.63561 0.62830
 C7 C 0.59513 0.66230 0.59984
 N8 N 0.57801 0.66417 0.61614
 C9 C 0.58197 0.64782 0.63356
 C10 C 0.60957 0.60467 0.66050
 N11 N 0.62687 0.58854 0.66411
 C12 C 0.64217 0.59139 0.64597
 C13 C 0.66230 0.61355 0.59652
 N14 N 0.66211 0.62766 0.57685
 C15 C 0.64287 0.64143 0.57738
 H16 H 0.59693 0.67338 0.58418
 H17 H 0.57123 0.64506 0.64901
 H18 H 0.59484 0.60741 0.67185
 H19 H 0.65752 0.58091 0.64305
 H20 H 0.67544 0.60050 0.60079
 H21 H 0.63816 0.65458 0.56409
 C22 C 0.88617 0.35325 0.11394
 C23 C 0.86590 0.36290 0.10413
 C24 C 0.85660 0.38341 0.11338
 C25 C 0.86759 0.39469 0.13234
 C26 C 0.88761 0.38518 0.14198
 C27 C 0.89705 0.36441 0.13255
 C28 C 0.89883 0.33332 0.10886
 N29 N 0.91745 0.33213 0.12373
 C30 C 0.91637 0.35131 0.13823
 C31 C 0.89416 0.39948 0.16044
 N32 N 0.87873 0.41754 0.16204
 C33 C 0.86246 0.41481 0.14488
 C34 C 0.83679 0.38844 0.10076
 N35 N 0.83400 0.37163 0.08393
 C36 C 0.85174 0.35595 0.08582
 H37 H 0.89491 0.32107 0.09479
 H38 H 0.92823 0.35526 0.15251
 H39 H 0.90911 0.39704 0.17180
 H40 H 0.84776 0.42638 0.14203
 H41 H 0.82537 0.40338 0.10342
 H42 H 0.85401 0.34048 0.07486
 C43 C 0.38858 0.14807 -0.11031
 C44 C 0.36729 0.13978 -0.10238
 C45 C 0.35808 0.11970 -0.11223
 C46 C 0.36993 0.10771 -0.13024
 C47 C 0.39100 0.11568 -0.13783
 C48 C 0.40043 0.13600 -0.12779
 C49 C 0.40157 0.16723 -0.10414
 N50 N 0.42107 0.16700 -0.11736
 C51 C 0.42055 0.14792 -0.13183
 C52 C 0.39844 0.10066 -0.15538
 N53 N 0.38228 0.08374 -0.15895
 C54 C 0.36481 0.08810 -0.14339
 C55 C 0.33766 0.11545 -0.10080
 N56 N 0.33426 0.13244 -0.08419
 C57 C 0.35229 0.14747 -0.08515
 H58 H 0.39725 0.18028 -0.09088
 H59 H 0.43366 0.14328 -0.14464
 H60 H 0.41419 0.10273 -0.16528
 H61 H 0.34948 0.07772 -0.14122
 H62 H 0.32617 0.10098 -0.10429
 H63 H 0.35470 0.16249 -0.07367
 C64 C 0.11937 0.84542 0.37906
 C65 C 0.13838 0.85585 0.39005
 C66 C 0.14565 0.87783 0.38261
 C67 C 0.13417 0.88955 0.36385
 C68 C 0.11563 0.87914 0.35287
 C69 C 0.10792 0.85710 0.36081
 C70 C 0.10812 0.82457 0.38304
 N71 N 0.08972 0.82337 0.36795
 C72 C 0.08967 0.84334 0.35423
 C73 C 0.10840 0.89404 0.33484
 N74 N 0.12201 0.91348 0.33455
 C75 C 0.13770 0.91080 0.35256
 C76 C 0.16418 0.88370 0.39660
 N77 N 0.16836 0.86580 0.41234
 C78 C 0.15263 0.84869 0.40842
 H79 H 0.11255 0.81188 0.39684
 H80 H 0.07753 0.84766 0.34017
 H81 H 0.09396 0.89088 0.32313
 H82 H 0.15150 0.92277 0.35664
 H83 H 0.17402 0.89973 0.39525
 H84 H 0.15138 0.83237 0.41844
 N85 N 0.10331 0.16736 0.11938
 N86 N 0.09221 0.15632 0.13641
 C87 C 0.07415 0.16969 0.14317
 C88 C 0.07411 0.19031 0.12985
 C89 C 0.09292 0.18830 0.11501
 H90 H 0.06178 0.16477 0.15658
 H91 H 0.09798 0.20064 0.10127
 Cu92 Cu 0.10212 0.12532 0.14764
 Cu93 Cu 0.12868 0.15265 0.10227
 Cu94 Cu 0.14457 0.09597 0.11993
 N95 N 0.11237 0.09430 0.15853
 N96 N 0.12821 0.08246 0.14688
 C97 C 0.13178 0.06148 0.15771
 C98 C 0.11765 0.06024 0.17739
 C99 C 0.10559 0.08139 0.17742
 H100 H 0.14436 0.04844 0.15224
 H101 H 0.09284 0.08688 0.19025
 N102 N 0.15923 0.11279 0.09329
 N103 N 0.15371 0.13462 0.08704
 C104 C 0.16722 0.14134 0.06884
 C105 C 0.18195 0.12285 0.06332
 C106 C 0.17636 0.10506 0.07922
 H107 H 0.16620 0.15832 0.06002
 H108 H 0.18444 0.08787 0.08070
 H109 H 0.11842 0.11842 0.10835
 H110 H 0.13980 0.13072 0.12970
 N111 N 0.39946 0.83842 0.61875
 N112 N 0.40839 0.84775 0.63800
 C113 C 0.42682 0.83477 0.64488
 C114 C 0.42968 0.81640 0.62902
 C115 C 0.41198 0.81933 0.61264
 H116 H 0.43749 0.83852 0.66017
 H117 H 0.40824 0.80819 0.59760
 Cu118 Cu 0.39516 0.87593 0.65228
 Cu119 Cu 0.37202 0.85138 0.60334
 Cu120 Cu 0.34669 0.90021 0.62946
 N121 N 0.38033 0.90309 0.66691
 N122 N 0.36113 0.91213 0.65821
 C123 C 0.35435 0.93027 0.67189
 C124 C 0.37022 0.93288 0.69010
 C125 C 0.38650 0.91533 0.68635
 H126 H 0.33920 0.94104 0.66858
 H127 H 0.40154 0.91158 0.69718
 N128 N 0.33462 0.88569 0.60028
 N129 N 0.34418 0.86700 0.59039
 C130 C 0.33197 0.86128 0.57086
 C131 C 0.31391 0.87721 0.56824
 C132 C 0.31618 0.89243 0.58723
 H133 H 0.33609 0.84678 0.55920
 H134 H 0.30506 0.90721 0.59137
 H135 H 0.37602 0.88568 0.61463
 H136 H 0.35850 0.86589 0.63396
 N137 N 0.90322 0.66407 0.38193
 N138 N 0.91310 0.65273 0.36433
 C139 C 0.93177 0.66472 0.35727
 C140 C 0.93345 0.68478 0.37099
 C141 C 0.91502 0.68384 0.38641
 H142 H 0.94312 0.65951 0.34302
 H143 H 0.91081 0.69637 0.40018
 Cu144 Cu 0.90014 0.62379 0.35197
 Cu145 Cu 0.87643 0.65188 0.39843
 Cu146 Cu 0.85362 0.59975 0.37733
 N147 N 0.88686 0.59486 0.33994
 N148 N 0.86907 0.58520 0.35039
 C149 C 0.86368 0.56520 0.33900
 C150 C 0.87871 0.56232 0.32021
 C151 C 0.89316 0.58150 0.32130
 H152 H 0.84954 0.55387 0.34367
 H153 H 0.90732 0.58525 0.30951
 N154 N 0.84045 0.61713 0.40438
 N155 N 0.84943 0.63669 0.41274
 C156 C 0.83708 0.64385 0.43165
 C157 C 0.81933 0.62821 0.43516
 C158 C 0.82195 0.61154 0.41753
 H159 H 0.84052 0.65945 0.44195
 H160 H 0.81136 0.59624 0.41479
 H161 H 0.88218 0.61679 0.39050
 H162 H 0.86316 0.63395 0.36964
 N163 N 0.59405 0.34266 -0.10982
 N164 N 0.58305 0.35443 -0.12671
 C165 C 0.56280 0.34393 -0.13100
 C166 C 0.56113 0.32443 -0.11615
 C167 C 0.58129 0.32417 -0.10296
 H168 H 0.55054 0.34950 -0.14449
 H169 H 0.58636 0.31142 -0.08946
 Cu170 Cu 0.59710 0.38118 -0.14267
 Cu171 Cu 0.62427 0.35187 -0.09833
 Cu172 Cu 0.65017 0.39870 -0.12743
 N173 N 0.61152 0.40788 -0.15835
 N174 N 0.63257 0.41412 -0.15283
 C175 C 0.63864 0.43249 -0.16666
 C176 C 0.62038 0.43818 -0.18163
 C177 C 0.60345 0.42217 -0.17583
 H178 H 0.65498 0.44133 -0.16559
 H179 H 0.58665 0.42083 -0.18399
 N180 N 0.66503 0.38100 -0.10109
 N181 N 0.65480 0.36380 -0.08941
 C182 C 0.66849 0.35660 -0.07127
 C183 C 0.68836 0.36974 -0.07172
 C184 C 0.68563 0.38496 -0.09090
 H185 H 0.66433 0.34286 -0.05860
 H186 H 0.69742 0.39854 -0.09639
 H187 H 0.62214 0.38705 -0.10834
 H188 H 0.63481 0.36616 -0.13035
 C189 C -0.06977 0.29267 0.11352
 C190 C -0.05290 0.27494 0.11423
 C191 C -0.03155 0.27901 0.12481
 C192 C -0.02730 0.30095 0.13520
 C193 C -0.04433 0.31853 0.13512
 C194 C -0.06588 0.31481 0.12410
 N195 N -0.01462 0.26050 0.12508
 N196 N 0.00664 0.26452 0.12831
 C197 C 0.02334 0.24580 0.12915
 C198 C 0.04645 0.25087 0.12481
 C199 C 0.06301 0.23280 0.12490
 C200 C 0.05674 0.20948 0.13005
 C201 C 0.03363 0.20451 0.13499
 C202 C 0.01701 0.22248 0.13428
 H203 H -0.08608 0.28854 0.10536
 H204 H -0.05642 0.25800 0.10632
 H205 H -0.01090 0.30441 0.14360
 H206 H -0.04016 0.33525 0.14307
 H207 H 0.05154 0.26880 0.12094
 H208 H 0.08074 0.23709 0.12120
 H209 H 0.02833 0.18665 0.13886
 H210 H -0.00074 0.21820 0.13788
 C211 C 0.55031 0.68929 0.59372
 C212 C 0.53273 0.70629 0.59319
 C213 C 0.52420 0.71572 0.61438
 C214 C 0.53324 0.70767 0.63628
 C215 C 0.55068 0.69052 0.63685
 C216 C 0.55951 0.68126 0.61557
 N217 N 0.50656 0.73352 0.61319
 N218 N 0.49962 0.74436 0.63162
 C219 C 0.48199 0.76217 0.63053
 C220 C 0.47673 0.77478 0.65114
 C221 C 0.45980 0.79246 0.65067
 C222 C 0.44765 0.79768 0.62953
 C223 C 0.45286 0.78484 0.60887
 C224 C 0.46994 0.76730 0.60933
 H225 H 0.55661 0.68229 0.57708
 H226 H 0.52585 0.71230 0.57621
 H227 H 0.52692 0.71467 0.65292
 H228 H 0.55761 0.68487 0.65391
 H229 H 0.48586 0.77095 0.66761
 H230 H 0.45608 0.80181 0.66695
 H231 H 0.44398 0.78853 0.59225
 H232 H 0.47369 0.75777 0.59315
 C233 C 1.07856 0.78333 0.37747
 C234 C 1.06208 0.76558 0.37729
 C235 C 1.04024 0.76989 0.36766
 C236 C 1.03522 0.79198 0.35737
 C237 C 1.05184 0.80958 0.35691
 C238 C 1.07375 0.80574 0.36733
 N239 N 1.02342 0.75168 0.36864
 N240 N 1.00200 0.75629 0.36711
 C241 C 0.98510 0.73815 0.36774
 C242 C 0.96243 0.74409 0.37361
 C243 C 0.94565 0.72669 0.37490
 C244 C 0.95120 0.70314 0.36965
 C245 C 0.97385 0.69727 0.36324
 C246 C 0.99076 0.71460 0.36256
 H247 H 1.09522 0.77913 0.38509
 H248 H 1.06621 0.74852 0.38507
 H249 H 1.01844 0.79562 0.34967
 H250 H 1.04699 0.82645 0.34924
 H251 H 0.95786 0.76220 0.37754
 H252 H 0.92826 0.73169 0.37968
 H253 H 0.97857 0.67922 0.35922
 H254 H 1.00816 0.70966 0.35780
 C255 C 0.46215 0.17727 -0.11902
 C256 C 0.47961 0.19400 -0.11815
 C257 C 0.47424 0.21790 -0.11515
 C258 C 0.45114 0.22492 -0.11261
 C259 C 0.43371 0.20815 -0.11308
 C260 C 0.43904 0.18419 -0.11644
 N261 N 0.49250 0.23463 -0.11474
 N262 N 0.48874 0.25674 -0.11629
 C263 C 0.50700 0.27346 -0.11567
 C264 C 0.50241 0.29684 -0.12243
 C265 C 0.52000 0.31345 -0.12260
 C266 C 0.54242 0.30698 -0.11554
 C267 C 0.54689 0.28360 -0.10827
 C268 C 0.52938 0.26691 -0.10851
 H269 H 0.46670 0.15888 -0.12140
 H270 H 0.49735 0.18837 -0.12004
 H271 H 0.44659 0.24329 -0.11018
 H272 H 0.41601 0.21393 -0.11124
 H273 H 0.48522 0.30211 -0.12789
 H274 H 0.51600 0.33138 -0.12808
 H275 H 0.56403 0.27806 -0.10289
 H276 H 0.53331 0.24896 -0.10308
 C277 C 0.13126 -0.04630 0.32354
 C278 C 0.13026 -0.02769 0.30708
 C279 C 0.11933 -0.03049 0.28509
 C280 C 0.10865 -0.05192 0.27996
 C281 C 0.10905 -0.07036 0.29662
 C282 C 0.12069 -0.06806 0.31862
 N283 N 0.11943 -0.01144 0.26820
 N284 N 0.11611 -0.01481 0.24607
 C285 C 0.11593 0.00419 0.22914
 C286 C 0.11969 -0.00077 0.20509
 C287 C 0.12035 0.01748 0.18823
 C288 C 0.11658 0.04094 0.19514
 C289 C 0.11220 0.04585 0.21920
 C290 C 0.11214 0.02764 0.23614
 H291 H 0.13986 -0.04325 0.34033
 H292 H 0.13839 -0.01114 0.31131
 H293 H 0.09997 -0.05440 0.26307
 H294 H 0.10099 -0.08668 0.29163
 H295 H 0.12254 -0.01879 0.19948
 H296 H 0.12359 0.01324 0.16977
 H297 H 0.10935 0.06381 0.22498
 H298 H 0.10902 0.03184 0.25463
 C299 C 0.64894 0.55936 -0.31328
 C300 C 0.65019 0.54222 -0.29528
 C301 C 0.63094 0.53706 -0.28151
 C302 C 0.61038 0.54962 -0.28559
 C303 C 0.60910 0.56698 -0.30337
 C304 C 0.62830 0.57206 -0.31782
 N305 N 0.63269 0.51891 -0.26368
 N306 N 0.61520 0.51139 -0.25254
 C307 C 0.61694 0.49325 -0.23470
 C308 C 0.59678 0.48390 -0.22520
 C309 C 0.59785 0.46594 -0.20802
 C310 C 0.61921 0.45721 -0.19984
 C311 C 0.63945 0.46680 -0.20926
 C312 C 0.63834 0.48460 -0.22662
 H313 H 0.66443 0.56277 -0.32318
 H314 H 0.66621 0.53277 -0.29216
 H315 H 0.59524 0.54597 -0.27511
 H316 H 0.59270 0.57572 -0.30608
 H317 H 0.58018 0.49047 -0.23125
 H318 H 0.58195 0.45912 -0.20097
 H319 H 0.65617 0.46036 -0.20349
 H320 H 0.65418 0.49158 -0.23368
 C321 C 0.40392 1.06020 0.81275
 C322 C 0.40468 1.04237 0.79571
 C323 C 0.38485 1.03007 0.78968
 C324 C 0.36417 1.03546 0.80127
 C325 C 0.36336 1.05304 0.81855
 C326 C 0.38319 1.06598 0.82453
 N327 N 0.38609 1.01234 0.77167
 N328 N 0.36811 1.00300 0.76303
 C329 C 0.36911 0.98522 0.74509
 C330 C 0.34871 0.97847 0.73389
 C331 C 0.34906 0.96149 0.71599
 C332 C 0.36987 0.95071 0.70922
 C333 C 0.39031 0.95726 0.72075
 C334 C 0.38997 0.97449 0.73844
 H335 H 0.41982 1.06897 0.81688
 H336 H 0.42079 1.03825 0.78700
 H337 H 0.34857 1.02614 0.79693
 H338 H 0.34688 1.05679 0.82651
 H339 H 0.33252 0.98655 0.73892
 H340 H 0.33299 0.95666 0.70764
 H341 H 0.40663 0.94938 0.71583
 H342 H 0.40597 0.97937 0.74692
 C343 C 0.87378 0.45944 0.17235
 C344 C 0.87425 0.47757 0.18906
 C345 C 0.87962 0.47264 0.21293
 C346 C 0.88507 0.44937 0.21987
 C347 C 0.88511 0.43132 0.20305
 C348 C 0.87928 0.43618 0.17920
 N349 N 0.87952 0.49152 0.22971
 N350 N 0.87865 0.48776 0.25207
 C351 C 0.87897 0.50662 0.26886
 C352 C 0.87175 0.50231 0.29221
 C353 C 0.87148 0.52048 0.30890
 C354 C 0.87900 0.54312 0.30258
 C355 C 0.88666 0.54731 0.27925
 C356 C 0.88643 0.52927 0.26243
 H357 H 0.86942 0.46357 0.15400
 H358 H 0.87012 0.49544 0.18349
 H359 H 0.88943 0.44520 0.23821
 H360 H 0.88927 0.41348 0.20872
 H361 H 0.86605 0.48491 0.29739
 H362 H 0.86568 0.51673 0.32682
 H363 H 0.89242 0.56464 0.27388
 H364 H 0.89224 0.53295 0.24450
 C365 C 0.30762 0.15553 -0.05901
 C366 C 0.28968 0.15663 -0.04254
 C367 C 0.27932 0.13597 -0.03434
 C368 C 0.28692 0.11408 -0.04305
 C369 C 0.30476 0.11297 -0.05959
 C370 C 0.31540 0.13367 -0.06767
 N371 N 0.26138 0.13763 -0.01701
 N372 N 0.25223 0.11939 -0.00793
 C373 C 0.23443 0.12078 0.00954
 C374 C 0.22620 0.09989 0.01958
 C375 C 0.20913 0.10054 0.03699
 C376 C 0.19987 0.12220 0.04462
 C377 C 0.20803 0.14317 0.03431
 C378 C 0.22520 0.14249 0.01697
 H379 H 0.31529 0.17178 -0.06509
 H380 H 0.28393 0.17360 -0.03602
 H381 H 0.27921 0.09784 -0.03697
 H382 H 0.31056 0.09586 -0.06567
 H383 H 0.23314 0.08305 0.01396
 H384 H 0.20312 0.08402 0.04430
 H385 H 0.20143 0.16016 0.03986
 H386 H 0.23129 0.15890 0.00945
 C387 C 0.67289 0.63029 0.53449
 C388 C 0.68959 0.63010 0.51667
 C389 C 0.71292 0.62807 0.52263
 C390 C 0.71942 0.62586 0.54670
 C391 C 0.70270 0.62555 0.56450
 C392 C 0.67930 0.62788 0.55855
 N393 N 0.72962 0.62795 0.50398
 N394 N 0.75088 0.63123 0.50807
 C395 C 0.76766 0.63047 0.48952
 C396 C 0.78948 0.63972 0.49379
 C397 C 0.80623 0.63927 0.47601
 C398 C 0.80153 0.62902 0.45384
 C399 C 0.77970 0.61946 0.44968
 C400 C 0.76281 0.62036 0.46730
 H401 H 0.65493 0.63188 0.52950
 H402 H 0.68437 0.63171 0.49818
 H403 H 0.73736 0.62411 0.55172
 H404 H 0.70801 0.62380 0.58294
 H405 H 0.79345 0.64745 0.51088
 H406 H 0.82297 0.64657 0.47977
 H407 H 0.77558 0.61157 0.43271
 H408 H 0.74610 0.61296 0.46366
 C409 C 0.79290 0.37643 0.07391
 C410 C 0.77483 0.37552 0.05744
 C411 C 0.77905 0.36938 0.03376
 C412 C 0.80158 0.36361 0.02676
 C413 C 0.81959 0.36403 0.04335
 C414 C 0.81542 0.37064 0.06701
 N415 N 0.76024 0.36913 0.01723
 N416 N 0.76331 0.36896 -0.00520
 C417 C 0.74444 0.36848 -0.02166
 C418 C 0.74820 0.37461 -0.04550
 C419 C 0.72997 0.37505 -0.06182
 C420 C 0.70774 0.36879 -0.05461
 C421 C 0.70411 0.36207 -0.03079
 C422 C 0.72226 0.36213 -0.01437
 H423 H 0.78928 0.38135 0.09211
 H424 H 0.75753 0.37991 0.06306
 H425 H 0.80522 0.35868 0.00857
 H426 H 0.83685 0.35963 0.03764
 H427 H 0.76524 0.37944 -0.05134
 H428 H 0.73328 0.38010 -0.08012
 H429 H 0.68713 0.35731 -0.02471
 H430 H 0.71898 0.35718 0.00395
 C431 C 0.19636 0.84360 0.43732
 C432 C 0.21357 0.84297 0.45479
 C433 C 0.22079 0.86376 0.46562
 C434 C 0.21071 0.88538 0.45861
 C435 C 0.19362 0.88605 0.44102
 C436 C 0.18619 0.86515 0.43024
 N437 N 0.23828 0.86245 0.48365
 N438 N 0.24441 0.88044 0.49541
 C439 C 0.26193 0.87920 0.51340
 C440 C 0.26644 0.89926 0.52690
 C441 C 0.28328 0.89863 0.54475
 C442 C 0.29608 0.87788 0.54928
 C443 C 0.29163 0.85779 0.53554
 C444 C 0.27465 0.85840 0.51782
 H445 H 0.19120 0.82726 0.42914
 H446 H 0.22127 0.82622 0.45998
 H447 H 0.21600 0.90171 0.46672
 H448 H 0.18592 0.90287 0.43612
 H449 H 0.25680 0.91541 0.52362
 H450 H 0.28641 0.91450 0.55478
 H451 H 0.30102 0.84147 0.53867
 H452 H 0.27150 0.84265 0.50759
   
