data_POSCAR
  _audit_creation_date              2014-09-24
  _audit_creation_method            'ToBaCCo'
  _symmetry_space_group_name_H-M    'P1'
  _symmetry_Int_Tables_number       1
  _symmetry_cell_setting            triclinic
  loop_
  _symmetry_equiv_pos_as_xyz
 x,y,z
_cell_length_a 36.0779
_cell_length_b 31.1490
_cell_length_c 27.5007
_cell_angle_alpha 90.142800
_cell_angle_beta 89.851700
_cell_angle_gamma 90.018900
loop_
  _atom_site_label
  _atom_site_type_symbol
  _atom_site_fract_x
  _atom_site_fract_y
  _atom_site_fract_z
Si1 Si 1.24603 0.24912 0.25098
 Si2 Si 0.75288 -0.25215 0.25292
 Si3 Si 0.75380 0.25071 -0.24924
 Si4 Si 1.24816 -0.25029 -0.25446
 Si5 Si 0.24550 0.24989 0.74925
 Si6 Si 0.75183 0.74874 0.74628
 Si7 Si 0.75348 0.25203 0.24930
 Si8 Si 0.24761 0.75135 0.25389
 O9 O 1.05185 0.07064 0.09058
 O10 O 1.09314 0.03249 0.04354
 C11 C 1.08515 0.06009 0.07724
 O12 O 0.94770 -0.08195 0.08330
 O13 O 0.90692 -0.04037 0.04003
 C14 C 0.91459 -0.07081 0.07032
 O15 O 1.05123 -0.07857 0.08847
 O16 O 1.09287 -0.03983 0.04288
 C17 C 1.08464 -0.06804 0.07573
 O18 O 0.94845 0.07590 0.08533
 O19 O 0.90734 0.03564 0.04065
 C20 C 0.91525 0.06552 0.07180
 Zr21 Zr 1.00007 0.05138 0.06191
 O22 O 0.99897 0.05713 0.13856
 O23 O 1.00152 0.11885 0.05406
 Zr24 Zr 0.99956 -0.05680 0.06178
 O25 O 0.99537 -0.05503 0.13857
 O26 O 1.00327 -0.12459 0.06362
 O27 O 1.03284 -0.00298 0.07190
 O28 O 0.96726 -0.00260 0.07056
 O29 O 0.94955 0.07630 -0.08409
 O30 O 0.90786 0.03584 -0.04052
 C31 C 0.91617 0.06583 -0.07125
 O32 O 1.05207 -0.07794 -0.08786
 O33 O 1.09297 -0.03970 -0.04080
 C34 C 1.08522 -0.06748 -0.07431
 O35 O 0.94880 -0.08163 -0.08389
 O36 O 0.90746 -0.04031 -0.04075
 C37 C 0.91551 -0.07063 -0.07127
 O38 O 1.05278 0.07142 -0.08781
 O39 O 1.09341 0.03289 -0.04078
 C40 C 1.08588 0.06072 -0.07427
 Zr41 Zr 1.00089 0.05171 -0.06005
 O42 O 1.00152 0.05744 -0.13672
 O43 O 1.00204 0.11914 -0.05133
 Zr44 Zr 1.00033 -0.05643 -0.06124
 O45 O 0.99720 -0.05389 -0.13805
 O46 O 1.00413 -0.12420 -0.06390
 Zr47 Zr 1.05562 -0.00316 0.00117
 Zr48 Zr 0.94458 -0.00254 0.00015
 O49 O 0.96814 -0.00222 -0.06988
 O50 O 1.03381 -0.00258 -0.06992
 O51 O 0.96724 0.05988 0.00071
 O52 O 1.03194 -0.06491 0.00048
 O53 O 1.03316 0.05909 0.00126
 O54 O 0.96700 -0.06507 -0.00005
 H55 H 0.95007 -0.00272 0.09871
 H56 H 1.04815 -0.09058 0.00040
 H57 H 0.95120 -0.00231 -0.09816
 H58 H 1.05009 0.08415 0.00155
 H59 H 0.98468 -0.13603 0.04063
 H60 H 0.98540 -0.13578 -0.04114
 H61 H 1.01839 -0.03647 -0.14964
 H62 H 0.98968 0.03146 -0.15029
 H63 H 1.00347 0.13126 -0.08455
 H64 H 1.00266 0.13078 0.08745
 H65 H 0.99113 0.02907 0.15165
 H66 H 1.01723 -0.03925 0.15099
 O67 O 1.06459 0.44073 0.58883
 O68 O 1.03179 0.39202 0.54296
 C69 C 1.05600 0.40198 0.57611
 O70 O 0.93191 0.56026 0.58162
 O71 O 0.96714 0.60834 0.53823
 C72 C 0.94071 0.59878 0.56855
 O73 O 0.93462 0.44186 0.58757
 O74 O 0.96730 0.39258 0.54223
 C75 C 0.94278 0.40297 0.57490
 O76 O 1.06854 0.55923 0.58343
 O77 O 1.03460 0.60778 0.53904
 C78 C 1.06026 0.59787 0.57014
 Zr79 Zr 1.04716 0.49983 0.56002
 O80 O 1.05113 0.49962 0.63683
 O81 O 1.10545 0.49856 0.55199
 Zr82 Zr 0.95436 0.50076 0.56049
 O83 O 0.95737 0.50558 0.63722
 O84 O 0.89587 0.49678 0.56431
 O85 O 1.00040 0.46165 0.57018
 O86 O 1.00089 0.53841 0.56898
 O87 O 1.06952 0.55763 0.41422
 O88 O 1.03564 0.60692 0.45813
 C89 C 1.06153 0.59651 0.42720
 O90 O 0.93530 0.44045 0.41128
 O91 O 0.96754 0.39189 0.45767
 C92 C 0.94330 0.40178 0.42465
 O93 O 0.93276 0.55891 0.41501
 O94 O 0.96867 0.60756 0.45658
 C95 C 0.94207 0.59762 0.42686
 O96 O 1.06485 0.43912 0.41059
 O97 O 1.03193 0.39122 0.45735
 C98 C 1.05617 0.40062 0.42399
 Zr99 Zr 1.04751 0.49882 0.43837
 O100 O 1.05184 0.49734 0.36156
 O101 O 1.10576 0.49743 0.44654
 Zr102 Zr 0.95478 0.49976 0.43759
 O103 O 0.95809 0.50325 0.36080
 O104 O 0.89628 0.49573 0.43405
 Zr105 Zr 1.00014 0.43482 0.49966
 Zr106 Zr 1.00103 0.56474 0.49869
 O107 O 1.00140 0.53725 0.42878
 O108 O 1.00083 0.46047 0.42871
 O109 O 1.05468 0.53786 0.49894
 O110 O 0.94717 0.46319 0.49931
 O111 O 1.05376 0.46131 0.49951
 O112 O 0.94717 0.53841 0.49871
 H113 H 1.00058 0.55865 0.59680
 H114 H 0.92468 0.44495 0.49940
 H115 H 1.00152 0.55694 0.40057
 H116 H 1.07557 0.44198 0.49969
 H117 H 0.88581 0.51591 0.53895
 H118 H 0.88610 0.51646 0.45785
 H119 H 0.97289 0.47840 0.34944
 H120 H 1.03169 0.51516 0.34814
 H121 H 1.11622 0.49551 0.41325
 H122 H 1.11574 0.49754 0.58534
 H123 H 1.03064 0.51726 0.64992
 H124 H 0.97175 0.48066 0.64904
 O125 O 0.55194 0.07631 0.58859
 O126 O 0.59363 0.03818 0.54212
 C127 C 0.58536 0.06602 0.57564
 O128 O 0.44913 -0.07752 0.58230
 O129 O 0.40775 -0.03683 0.53886
 C130 C 0.41587 -0.06700 0.56944
 O131 O 0.55215 -0.07330 0.58727
 O132 O 0.59370 -0.03440 0.54168
 C133 C 0.58550 -0.06269 0.57456
 O134 O 0.44886 0.08020 0.58382
 O135 O 0.40768 0.03981 0.53932
 C136 C 0.41563 0.06969 0.57061
 Zr137 Zr 0.50050 0.05610 0.56001
 O138 O 0.50026 0.06168 0.63673
 O139 O 0.50126 0.12355 0.55178
 Zr140 Zr 0.50064 -0.05192 0.56030
 O141 O 0.49672 -0.04952 0.63710
 O142 O 0.50477 -0.11968 0.56246
 O143 O 0.53370 0.00214 0.56990
 O144 O 0.46795 0.00192 0.56898
 O145 O 0.44959 0.08006 0.41404
 O146 O 0.40805 0.03965 0.45798
 C147 C 0.41627 0.06951 0.42696
 O148 O 0.55286 -0.07366 0.41096
 O149 O 0.59397 -0.03511 0.45750
 C150 C 0.58607 -0.06329 0.42431
 O151 O 0.44979 -0.07779 0.41472
 O152 O 0.40806 -0.03706 0.45802
 C153 C 0.41638 -0.06731 0.42732
 O154 O 0.55264 0.07610 0.40988
 O155 O 0.59394 0.03803 0.45648
 C156 C 0.58593 0.06582 0.42303
 Zr157 Zr 0.50102 0.05603 0.43813
 O158 O 0.50115 0.06172 0.36147
 O159 O 0.50177 0.12348 0.44675
 Zr160 Zr 0.50113 -0.05208 0.43740
 O161 O 0.49792 -0.04985 0.36057
 O162 O 0.50524 -0.11985 0.43520
 Zr163 Zr 0.55645 0.00193 0.49916
 Zr164 Zr 0.44510 0.00152 0.49870
 O165 O 0.46857 0.00180 0.42863
 O166 O 0.53430 0.00199 0.42823
 O167 O 0.46742 0.06411 0.49895
 O168 O 0.53299 -0.05997 0.49899
 O169 O 0.53348 0.06391 0.49920
 O170 O 0.46796 -0.06078 0.49871
 H171 H 0.45072 0.00165 0.59708
 H172 H 0.54926 -0.08558 0.49913
 H173 H 0.45161 0.00149 0.40037
 H174 H 0.55028 0.08908 0.49930
 H175 H 0.48625 -0.13137 0.53954
 H176 H 0.48643 -0.13146 0.45783
 H177 H 0.51943 -0.03307 0.34878
 H178 H 0.49113 0.03468 0.34805
 H179 H 0.50306 0.13558 0.41350
 H180 H 0.50231 0.13565 0.58510
 H181 H 0.48865 0.03546 0.64994
 H182 H 0.51783 -0.03219 0.64908
 O183 O 0.55027 0.57486 0.09078
 O184 O 0.59160 0.53674 0.04379
 C185 C 0.58361 0.56411 0.07793
 O186 O 0.44654 0.42303 0.08592
 O187 O 0.40526 0.46357 0.04209
 C188 C 0.41322 0.43392 0.07346
 O189 O 0.54994 0.42622 0.08968
 O190 O 0.59142 0.46454 0.04338
 C191 C 0.58333 0.43682 0.07695
 O192 O 0.44713 0.57977 0.08654
 O193 O 0.40555 0.53972 0.04229
 C194 C 0.41369 0.56924 0.07404
 Zr195 Zr 0.49866 0.55573 0.06163
 O196 O 0.49811 0.56234 0.13820
 O197 O 0.49996 0.62307 0.05254
 Zr198 Zr 0.49830 0.44734 0.06233
 O199 O 0.49483 0.44856 0.13920
 O200 O 0.50207 0.37951 0.06262
 O201 O 0.53153 0.50139 0.07148
 O202 O 0.46610 0.50165 0.07114
 O203 O 0.44706 0.57879 -0.08465
 O204 O 0.40552 0.53906 -0.03987
 C205 C 0.41368 0.56818 -0.07187
 O206 O 0.54988 0.42546 -0.08796
 O207 O 0.59141 0.46419 -0.04224
 C208 C 0.58328 0.43616 -0.07558
 O209 O 0.44647 0.42245 -0.08355
 O210 O 0.40520 0.46321 -0.03944
 C211 C 0.41313 0.43341 -0.07090
 O212 O 0.55023 0.57441 -0.08959
 O213 O 0.59162 0.53651 -0.04296
 C214 C 0.58360 0.56380 -0.07701
 Zr215 Zr 0.49866 0.55525 -0.06006
 O216 O 0.49811 0.56128 -0.13664
 O217 O 0.49983 0.62266 -0.05128
 Zr218 Zr 0.49826 0.44685 -0.06031
 O219 O 0.49477 0.44738 -0.13716
 O220 O 0.50199 0.37901 -0.06016
 Zr221 Zr 0.55420 0.50084 0.00064
 Zr222 Zr 0.44277 0.50125 0.00113
 O223 O 0.46609 0.50109 -0.06907
 O224 O 0.53150 0.50084 -0.07001
 O225 O 0.46522 0.56380 0.00089
 O226 O 0.53057 0.43905 0.00090
 O227 O 0.53159 0.56305 0.00065
 O228 O 0.46510 0.43868 0.00116
 H229 H 0.44926 0.50166 0.09965
 H230 H 0.54707 0.41362 0.00089
 H231 H 0.44930 0.50083 -0.09750
 H232 H 0.54874 0.58792 0.00054
 H233 H 0.48158 0.36825 0.04245
 H234 H 0.48130 0.36793 -0.04014
 H235 H 0.51548 0.46521 -0.14945
 H236 H 0.49031 0.53328 -0.15004
 H237 H 0.50083 0.63477 -0.08454
 H238 H 0.50115 0.63544 0.08573
 H239 H 0.49024 0.53446 0.15177
 H240 H 0.51557 0.46645 0.15125
 C241 C 1.22365 0.21158 0.21056
 C242 C 1.20675 0.18590 0.18669
 C243 C 1.18498 0.15599 0.16124
 C244 C 1.16459 0.13126 0.14105
 C245 C 1.13870 0.10396 0.11866
 C246 C 1.11497 0.08259 0.09987
 C247 C 1.21227 0.72541 0.70865
 C248 C 1.18729 0.71068 0.68494
 C249 C 1.15765 0.69326 0.65803
 C250 C 1.13266 0.67675 0.63587
 C251 C 1.10459 0.65414 0.61110
 C252 C 1.08261 0.63090 0.59132
 C253 C 0.72456 0.21634 0.71375
 C254 C 0.70539 0.19208 0.69065
 C255 C 0.68267 0.16309 0.66475
 C256 C 0.66255 0.13859 0.64344
 C257 C 0.63764 0.11093 0.61922
 C258 C 0.61478 0.08903 0.59905
 C259 C 0.72530 0.70756 0.22143
 C260 C 0.70632 0.68211 0.19962
 C261 C 0.68318 0.65359 0.17351
 C262 C 0.66245 0.63051 0.15106
 C263 C 0.63676 0.60516 0.12488
 C264 C 0.61339 0.58527 0.10299
 C265 C 0.77595 -0.21813 0.20933
 C266 C 0.79303 -0.19451 0.18306
 C267 C 0.81482 -0.16656 0.15493
 C268 C 0.83514 -0.14293 0.13297
 C269 C 0.86091 -0.11618 0.10951
 C270 C 0.88461 -0.09455 0.09097
 C271 C 0.78989 0.27506 0.71369
 C272 C 0.81508 0.29007 0.69034
 C273 C 0.84503 0.30791 0.66400
 C274 C 0.87025 0.32464 0.64224
 C275 C 0.89855 0.34727 0.61757
 C276 C 0.92060 0.37029 0.59738
 C277 C 0.27784 -0.21763 0.70758
 C278 C 0.29693 -0.19421 0.68346
 C279 C 0.31931 -0.16589 0.65643
 C280 C 0.33912 -0.14162 0.63447
 C281 C 0.36371 -0.11381 0.61020
 C282 C 0.38644 -0.09133 0.59079
 C283 C 0.27259 0.28848 0.21661
 C284 C 0.29114 0.31346 0.19351
 C285 C 0.31394 0.34167 0.16646
 C286 C 0.33450 0.36475 0.14371
 C287 C 0.36009 0.39051 0.11782
 C288 C 0.38342 0.41119 0.09676
 C289 C 0.77738 0.21582 -0.20696
 C290 C 0.79483 0.19168 -0.18179
 C291 C 0.81698 0.16316 -0.15488
 C292 C 0.83742 0.13912 -0.13376
 C293 C 0.86313 0.11190 -0.11085
 C294 C 0.88659 0.08993 -0.09238
 C295 C 0.78906 0.72456 0.29015
 C296 C 0.81427 0.71019 0.31369
 C297 C 0.84421 0.69297 0.34018
 C298 C 0.86942 0.67652 0.36191
 C299 C 0.89772 0.65393 0.38621
 C300 C 0.91979 0.63068 0.40572
 C301 C 0.27600 0.21753 0.28957
 C302 C 0.29551 0.19466 0.31366
 C303 C 0.31850 0.16688 0.34040
 C304 C 0.33881 0.14300 0.36203
 C305 C 0.36386 0.11562 0.38597
 C306 C 0.38681 0.09348 0.40531
 C307 C 0.27478 0.71061 -0.22014
 C308 C 0.29313 0.68595 -0.19653
 C309 C 0.31556 0.65825 -0.16853
 C310 C 0.33577 0.63567 -0.14484
 C311 C 0.36097 0.61054 -0.11780
 C312 C 0.38406 0.59038 -0.09589
 C313 C 1.22488 -0.21407 -0.21332
 C314 C 1.20761 -0.18945 -0.18841
 C315 C 1.18556 -0.16082 -0.16144
 C316 C 1.16501 -0.13708 -0.13996
 C317 C 1.13899 -0.11072 -0.11632
 C318 C 1.11517 -0.08986 -0.09692
 C319 C 1.20918 0.27309 0.28683
 C320 C 1.18352 0.28761 0.30963
 C321 C 1.15313 0.30483 0.33551
 C322 C 1.12767 0.32124 0.35702
 C323 C 1.09933 0.34385 0.38151
 C324 C 1.07756 0.36724 0.40162
 C325 C 0.72391 -0.21718 0.28945
 C326 C 0.70509 -0.19237 0.31231
 C327 C 0.68288 -0.16267 0.33786
 C328 C 0.66311 -0.13754 0.35879
 C329 C 0.63847 -0.10919 0.38241
 C330 C 0.61565 -0.08678 0.40191
 C331 C 0.72598 0.29044 -0.21668
 C332 C 0.70673 0.31570 -0.19476
 C333 C 0.68325 0.34426 -0.16889
 C334 C 0.66229 0.36758 -0.14688
 C335 C 0.63642 0.39347 -0.12135
 C336 C 0.61302 0.41402 -0.10005
 C337 C 1.22309 0.21237 -0.21019
 C338 C 1.20641 0.18674 -0.18592
 C339 C 1.18505 0.15684 -0.15972
 C340 C 1.16505 0.13207 -0.13884
 C341 C 1.13954 0.10465 -0.11574
 C342 C 1.11594 0.08320 -0.09665
 C343 C 1.21435 0.72675 0.28927
 C344 C 1.18974 0.71078 0.31300
 C345 C 1.16028 0.69212 0.33975
 C346 C 1.13531 0.67497 0.36168
 C347 C 1.10697 0.65215 0.38625
 C348 C 1.08457 0.62915 0.40594
 C349 C 0.72432 0.21762 0.28624
 C350 C 0.70535 0.19314 0.30926
 C351 C 0.68293 0.16380 0.33500
 C352 C 0.66304 0.13897 0.35613
 C353 C 0.63831 0.11097 0.38008
 C354 C 0.61548 0.08887 0.39998
 C355 C 0.72435 0.70852 -0.22163
 C356 C 0.70549 0.68306 -0.19955
 C357 C 0.68254 0.65438 -0.17318
 C358 C 0.66201 0.63108 -0.15057
 C359 C 0.63654 0.60537 -0.12422
 C360 C 0.61334 0.58519 -0.10221
 C361 C 0.77582 -0.21732 -0.21068
 C362 C 0.79345 -0.19384 -0.18480
 C363 C 0.81574 -0.16607 -0.15698
 C364 C 0.83631 -0.14261 -0.13510
 C365 C 0.86216 -0.11598 -0.11146
 C366 C 0.88576 -0.09440 -0.09257
 C367 C 0.78981 0.27572 0.28628
 C368 C 0.81517 0.29016 0.30965
 C369 C 0.84531 0.30730 0.33606
 C370 C 0.87068 0.32356 0.35785
 C371 C 0.89911 0.34584 0.38250
 C372 C 0.92121 0.36884 0.40256
 C373 C 0.27598 -0.21730 0.28953
 C374 C 0.29559 -0.19395 0.31331
 C375 C 0.31873 -0.16584 0.33997
 C376 C 0.33908 -0.14180 0.36170
 C377 C 0.36413 -0.11418 0.38596
 C378 C 0.38698 -0.09177 0.40554
 C379 C 0.27244 0.28892 -0.21606
 C380 C 0.29113 0.31361 -0.19264
 C381 C 0.31401 0.34153 -0.16512
 C382 C 0.33455 0.36440 -0.14198
 C383 C 0.36007 0.39002 -0.11563
 C384 C 0.38333 0.41065 -0.09431
 C385 C 1.22442 -0.21478 0.21545
 C386 C 1.20662 -0.19053 0.19073
 C387 C 1.18417 -0.16219 0.16384
 C388 C 1.16358 -0.13854 0.14228
 C389 C 1.13778 -0.11202 0.11834
 C390 C 1.11429 -0.09086 0.09864
 C391 C 1.20865 0.27441 0.71391
 C392 C 1.18309 0.28930 0.69135
 C393 C 1.15284 0.30687 0.66560
 C394 C 1.12750 0.32340 0.64407
 C395 C 1.09924 0.34589 0.61940
 C396 C 1.07746 0.36899 0.59899
 C397 C 0.72260 -0.21607 0.71053
 C398 C 0.70375 -0.19124 0.68794
 C399 C 0.68158 -0.16159 0.66242
 C400 C 0.66194 -0.13654 0.64132
 C401 C 0.63751 -0.10830 0.61734
 C402 C 0.61490 -0.08600 0.59744
 C403 C 0.72582 0.29197 0.21737
 C404 C 0.70665 0.31727 0.19568
 C405 C 0.68325 0.34577 0.16998
 C406 C 0.66233 0.36896 0.14805
 C407 C 0.63648 0.39464 0.12258
 C408 C 0.61307 0.41496 0.10133
 C409 C 0.77665 0.21704 0.20650
 C410 C 0.79385 0.19265 0.18113
 C411 C 0.81577 0.16376 0.15419
 C412 C 0.83613 0.13939 0.13320
 C413 C 0.86186 0.11184 0.11061
 C414 C 0.88544 0.08968 0.09249
 C415 C 0.78748 0.72521 0.70776
 C416 C 0.81240 0.71085 0.68337
 C417 C 0.84212 0.69374 0.65592
 C418 C 0.86726 0.67747 0.63352
 C419 C 0.89566 0.65511 0.60869
 C420 C 0.91799 0.63198 0.58911
 C421 C 0.27531 0.21806 0.71005
 C422 C 0.29475 0.19510 0.68558
 C423 C 0.31769 0.16724 0.65838
 C424 C 0.33796 0.14332 0.63636
 C425 C 0.36301 0.11588 0.61197
 C426 C 0.38599 0.09369 0.59237
 C427 C 0.27348 0.71473 0.22078
 C428 C 0.29227 0.69005 0.19723
 C429 C 0.31517 0.66202 0.16955
 C430 C 0.33562 0.63898 0.14624
 C431 C 0.36096 0.61307 0.11960
 C432 C 0.38404 0.59220 0.09795
   
