data_POSCAR
  _audit_creation_date              2014-09-24
  _audit_creation_method            'ToBaCCo'
  _symmetry_space_group_name_H-M    'P1'
  _symmetry_Int_Tables_number       1
  _symmetry_cell_setting            triclinic
  loop_
  _symmetry_equiv_pos_as_xyz
 x,y,z
_cell_length_a 30.6418
_cell_length_b 30.3588
_cell_length_c 30.4026
_cell_angle_alpha 103.576800
_cell_angle_beta 83.527500
_cell_angle_gamma 91.871900
loop_
  _atom_site_label
  _atom_site_type_symbol
  _atom_site_fract_x
  _atom_site_fract_y
  _atom_site_fract_z
O1 O 0.55170 0.52197 0.04670
 O2 O 0.43333 0.50948 0.03334
 O3 O 0.49373 0.45645 0.04681
 O4 O 0.49028 0.57354 0.03240
 O5 O 0.50674 0.54854 -0.04172
 O6 O 0.51157 0.43184 -0.02716
 O7 O 0.44922 0.48265 -0.04043
 O8 O 0.56774 0.49685 -0.02740
 Cu9 Cu 0.49083 0.51775 0.04725
 Cu10 Cu 0.51024 0.48759 -0.04160
 C11 C 0.57999 0.51130 0.01205
 C12 C 0.42084 0.49420 -0.00590
 C13 C 0.50377 0.42425 0.01230
 C14 C 0.49743 0.58092 -0.00722
 O15 O -0.04757 0.55948 0.51520
 O16 O -0.02930 0.43883 0.50700
 O17 O -0.03596 0.50945 0.57347
 O18 O -0.04117 0.48743 0.45023
 O19 O 0.02921 0.50504 0.44066
 O20 O 0.03610 0.51739 0.56293
 O21 O 0.04195 0.44945 0.49186
 O22 O 0.02380 0.57241 0.51242
 Cu23 Cu -0.04579 0.49799 0.51284
 Cu24 Cu 0.04003 0.51217 0.50083
 C25 C -0.01517 0.58676 0.51549
 C26 C 0.00945 0.42338 0.49711
 C27 C 0.00107 0.51563 0.58908
 C28 C -0.00705 0.49351 0.42449
 O29 O 0.49001 0.02468 0.57160
 O30 O 0.50043 0.04337 0.45509
 O31 O 0.43614 0.03164 0.51433
 O32 O 0.55624 0.03626 0.51246
 O33 O 0.55915 -0.03731 0.48208
 O34 O 0.43925 -0.04231 0.48604
 O35 O 0.50412 -0.03057 0.42681
 O36 O 0.49678 -0.04884 0.54306
 Cu37 Cu 0.49556 0.04144 0.51629
 Cu38 Cu 0.49977 -0.04730 0.48196
 C39 C 0.49214 -0.01533 0.57732
 C40 C 0.50395 0.00954 0.42112
 C41 C 0.41728 -0.00604 0.50019
 C42 C 0.57822 0.00022 0.49623
 C43 C 0.49270 -0.04782 -0.10081
 C44 C 0.48796 -0.09132 -0.09241
 C45 C 0.48907 -0.09895 -0.04894
 C46 C 0.49429 -0.06169 -0.01179
 C47 C 0.49884 -0.01722 -0.01917
 C48 C 0.49871 -0.01025 -0.06384
 C49 C 0.50559 0.03395 -0.07021
 C50 C 0.50879 0.07075 -0.03355
 C51 C 0.50883 0.06484 0.01094
 C52 C 0.50448 0.02030 0.01814
 C53 C 0.49589 -0.06777 0.03244
 C54 C 0.49995 -0.03111 0.06894
 C55 C 0.50517 0.01322 0.06264
 C56 C 0.51038 0.05071 0.09971
 C57 C 0.51339 0.09445 0.09202
 C58 C 0.51269 0.10218 0.04849
 H59 H 0.50881 0.04101 -0.10359
 H60 H 0.51151 0.10388 -0.04092
 H61 H 0.49395 -0.10097 0.03971
 H62 H 0.49871 -0.03824 0.10223
 H63 H 0.48313 -0.12006 -0.12035
 H64 H 0.51709 0.12309 0.12041
 C65 C 0.04489 0.51125 0.91156
 C66 C 0.08785 0.50365 0.91942
 C67 C 0.09739 0.49524 0.96075
 C68 C 0.06216 0.49272 0.99479
 C69 C 0.01871 0.50288 0.98821
 C70 C 0.01034 0.51346 0.94704
 C71 C -0.03229 0.52649 0.94255
 C72 C -0.06678 0.52567 0.97624
 C73 C -0.06006 0.51199 1.01596
 C74 C -0.01662 0.50197 1.02267
 C75 C 0.06879 0.47891 1.03450
 C76 C 0.03428 0.47811 1.06825
 C77 C -0.00839 0.49100 1.06372
 C78 C -0.04327 0.49224 1.09876
 C79 C -0.08614 0.50029 1.09085
 C80 C -0.09536 0.50924 1.04972
 H81 H -0.03940 0.53796 0.91303
 H82 H -0.09869 0.53646 0.97097
 H83 H 0.10058 0.46775 1.03963
 H84 H 0.04137 0.46654 1.09772
 H85 H 0.11431 0.50369 0.89256
 H86 H -0.11285 0.49977 1.11736
 C87 C -0.04438 -0.09194 0.49282
 C88 C -0.08720 -0.07628 0.49498
 C89 C -0.09574 -0.03340 0.48879
 C90 C -0.06058 -0.00368 0.48219
 C91 C -0.01690 -0.01777 0.48202
 C92 C -0.00854 -0.06245 0.48599
 C93 C 0.03534 -0.07638 0.48185
 C94 C 0.06989 -0.04601 0.47898
 C95 C 0.06226 -0.00122 0.47681
 C96 C 0.01853 0.01270 0.47706
 C97 C -0.06786 0.03917 0.47436
 C98 C -0.03319 0.06894 0.46964
 C99 C 0.01009 0.05721 0.47292
 C100 C 0.04531 0.08842 0.47131
 C101 C 0.08810 0.07431 0.47212
 C102 C 0.09706 0.03021 0.47472
 H103 H 0.04383 -0.11087 0.48069
 H104 H 0.10269 -0.05836 0.47826
 H105 H -0.10046 0.05019 0.47168
 H106 H -0.04079 0.10122 0.46316
 H107 H -0.11480 -0.09816 0.50111
 H108 H 0.11498 0.09844 0.47180
 C109 C -0.28170 0.51870 1.02990
 C110 C -0.29679 0.49118 0.99005
 C111 C -0.34167 0.49003 0.98394
 C112 C -0.37243 0.51479 1.01771
 C113 C -0.35752 0.54150 1.05748
 C114 C -0.31281 0.54374 1.06344
 C115 C -0.23344 0.51877 1.03508
 C116 C -0.21463 0.54654 1.07228
 C117 C -0.16976 0.54421 1.07619
 C118 C -0.14237 0.51425 1.04323
 C119 C -0.16068 0.48684 1.00581
 C120 C -0.20561 0.48942 1.00112
 C121 C -0.26720 0.46405 0.95703
 C122 C -0.22277 0.46272 0.96273
 H123 H -0.27874 0.44281 0.92661
 H124 H -0.20145 0.44053 0.93653
 H125 H -0.35284 0.46869 0.95336
 H126 H -0.38054 0.56082 1.08414
 H127 H -0.15636 0.56571 1.10536
 H128 H -0.13988 0.46310 0.98051
 H129 H -0.30342 0.56467 1.09484
 H130 H -0.23395 0.57022 1.09872
 C131 C 0.28443 0.48652 0.97781
 C132 C 0.29929 0.50993 1.01944
 C133 C 0.34425 0.51071 1.02515
 C134 C 0.37559 0.49084 0.98892
 C135 C 0.36068 0.46904 0.94709
 C136 C 0.31583 0.46642 0.94174
 C137 C 0.23602 0.48595 0.97344
 C138 C 0.21725 0.45982 0.93543
 C139 C 0.17219 0.46171 0.93234
 C140 C 0.14459 0.48999 0.96675
 C141 C 0.16295 0.51557 1.00511
 C142 C 0.20797 0.51270 1.00929
 C143 C 0.26942 0.53385 1.05458
 C144 C 0.22499 0.53615 1.04917
 H145 H 0.28078 0.55220 1.08634
 H146 H 0.20349 0.55615 1.07693
 H147 H 0.35489 0.52859 1.05747
 H148 H 0.38369 0.45359 0.91828
 H149 H 0.15885 0.44130 0.90257
 H150 H 0.14214 0.53798 1.03167
 H151 H 0.30648 0.44944 0.90879
 H152 H 0.23677 0.43753 0.90789
 C153 C -0.03356 -0.27711 0.51180
 C154 C 0.00308 -0.28882 0.53084
 C155 C 0.00967 -0.33427 0.53133
 C156 C -0.02237 -0.36744 0.51751
 C157 C -0.06140 -0.35412 0.50414
 C158 C -0.06648 -0.30978 0.50021
 C159 C -0.03645 -0.22990 0.50610
 C160 C -0.06427 -0.21821 0.47702
 C161 C -0.06512 -0.17391 0.47176
 C162 C -0.03968 -0.13964 0.49674
 C163 C -0.01212 -0.15115 0.52629
 C164 C -0.00818 -0.19653 0.52860
 C165 C 0.03195 -0.25482 0.55026
 C166 C 0.02506 -0.20926 0.55120
 H167 H 0.05944 -0.26338 0.56613
 H168 H 0.04744 -0.18398 0.56776
 H169 H 0.03902 -0.34348 0.54387
 H170 H -0.08713 -0.37855 0.49413
 H171 H -0.08617 -0.16626 0.44822
 H172 H 0.00710 -0.12509 0.54653
 H173 H -0.09647 -0.30139 0.48850
 H174 H -0.08444 -0.24325 0.45699
 C175 C 0.02790 0.28062 0.48161
 C176 C -0.00488 0.30429 0.51438
 C177 C -0.01101 0.35072 0.51863
 C178 C 0.01643 0.37463 0.49216
 C179 C 0.05027 0.35176 0.46127
 C180 C 0.05578 0.30518 0.45568
 C181 C 0.03214 0.23065 0.47694
 C182 C 0.06039 0.20307 0.44232
 C183 C 0.06360 0.15678 0.43990
 C184 C 0.03896 0.13689 0.47196
 C185 C 0.01064 0.16401 0.50644
 C186 C 0.00612 0.21026 0.50835
 C187 C -0.03071 0.28176 0.54337
 C188 C -0.02463 0.23597 0.54111
 H189 H -0.05547 0.30002 0.56880
 H190 H -0.04487 0.22026 0.56485
 H191 H -0.03657 0.36857 0.54338
 H192 H 0.07201 0.36980 0.44080
 H193 H 0.08568 0.13638 0.41305
 H194 H -0.00796 0.14896 0.53177
 H195 H 0.08229 0.28921 0.43136
 H196 H 0.07995 0.21649 0.41662
 C197 C 0.48983 -0.03523 -0.28891
 C198 C 0.47115 0.00408 -0.29615
 C199 C 0.47316 0.01118 -0.34041
 C200 C 0.48991 -0.02244 -0.37839
 C201 C 0.50450 -0.06334 -0.37107
 C202 C 0.50536 -0.06930 -0.32696
 C203 C 0.49092 -0.03944 -0.24093
 C204 C 0.51676 -0.07176 -0.22959
 C205 C 0.51775 -0.07349 -0.18421
 C206 C 0.49206 -0.04401 -0.14895
 C207 C 0.46530 -0.01244 -0.16025
 C208 C 0.46667 -0.00820 -0.20548
 C209 C 0.44946 0.03524 -0.25931
 C210 C 0.44567 0.02819 -0.21523
 H211 H 0.43415 0.06489 -0.26482
 H212 H 0.42766 0.05267 -0.18808
 H213 H 0.46004 0.04222 -0.34534
 H214 H 0.51697 -0.09029 -0.39944
 H215 H 0.53887 -0.09801 -0.17657
 H216 H 0.44450 0.00987 -0.13361
 H217 H 0.51760 -0.10103 -0.32322
 H218 H 0.53747 -0.09495 -0.25524
 C219 C 0.51402 0.02781 0.28405
 C220 C 0.48609 0.05587 0.31903
 C221 C 0.48421 0.05094 0.36408
 C222 C 0.50791 0.01661 0.37441
 C223 C 0.53428 -0.01221 0.33946
 C224 C 0.53774 -0.00647 0.29493
 C225 C 0.51554 0.03453 0.23655
 C226 C 0.54571 0.01204 0.20042
 C227 C 0.54463 0.01815 0.15641
 C228 C 0.51275 0.04577 0.14703
 C229 C 0.48409 0.07015 0.18320
 C230 C 0.48574 0.06531 0.22785
 C231 C 0.45907 0.08749 0.30854
 C232 C 0.45814 0.09133 0.26379
 H233 H 0.43736 0.10871 0.33516
 H234 H 0.43577 0.11542 0.25730
 H235 H 0.46293 0.07261 0.39083
 H236 H 0.55257 -0.03915 0.34671
 H237 H 0.56835 0.00064 0.12933
 H238 H 0.46032 0.09276 0.17644
 H239 H 0.55829 -0.02985 0.26938
 H240 H 0.57061 -0.01001 0.20555
 C241 C 0.48710 -0.28328 -0.02479
 C242 C 0.51795 -0.31378 -0.05355
 C243 C 0.52048 -0.35838 -0.04833
 C244 C 0.49428 -0.37247 -0.01321
 C245 C 0.46504 -0.34168 0.01641
 C246 C 0.46114 -0.29776 0.01054
 C247 C 0.48479 -0.23627 -0.03208
 C248 C 0.45216 -0.20498 -0.00885
 C249 C 0.45270 -0.16090 -0.01538
 C250 C 0.48636 -0.14667 -0.04424
 C251 C 0.51746 -0.17828 -0.06949
 C252 C 0.51653 -0.22301 -0.06414
 C253 C 0.54693 -0.29919 -0.08637
 C254 C 0.54692 -0.25449 -0.09081
 H255 H 0.57081 -0.32237 -0.10814
 H256 H 0.57082 -0.24455 -0.11585
 H257 H 0.54381 -0.38179 -0.07075
 H258 H 0.44465 -0.35182 0.04389
 H259 H 0.42738 -0.13742 0.00297
 H260 H 0.54271 -0.16778 -0.09298
 H261 H 0.43825 -0.27545 0.03444
 H262 H 0.42588 -0.21398 0.01424
 C263 C 0.51414 0.28770 0.02773
 C264 C 0.48250 0.31752 0.05614
 C265 C 0.48003 0.36247 0.05185
 C266 C 0.50712 0.37752 0.01791
 C267 C 0.53725 0.34745 -0.01131
 C268 C 0.54107 0.30323 -0.00630
 C269 C 0.51629 0.24028 0.03391
 C270 C 0.54953 0.20956 0.01100
 C271 C 0.54899 0.16515 0.01659
 C272 C 0.51477 0.14999 0.04413
 C273 C 0.48290 0.18095 0.06897
 C274 C 0.48379 0.22601 0.06461
 C275 C 0.45269 0.30190 0.08760
 C276 C 0.45266 0.25685 0.09099
 H277 H 0.42820 0.32454 0.10910
 H278 H 0.42816 0.24613 0.11500
 H279 H 0.45603 0.38533 0.07391
 H280 H 0.55833 0.35835 -0.03789
 H281 H 0.57494 0.14222 -0.00131
 H282 H 0.45721 0.16973 0.09154
 H283 H 0.56464 0.28153 -0.02992
 H284 H 0.57634 0.21929 -0.01103
 C285 C -0.28127 -0.00176 0.49097
 C286 C -0.30371 -0.03404 0.45968
 C287 C -0.34943 -0.03250 0.46141
 C288 C -0.37352 0.00125 0.49341
 C289 C -0.35131 0.03467 0.52289
 C290 C -0.30566 0.03317 0.52188
 C291 C -0.23270 -0.00682 0.49009
 C292 C -0.20771 0.02077 0.52234
 C293 C -0.16293 0.01288 0.52143
 C294 C -0.14211 -0.02208 0.48799
 C295 C -0.16636 -0.04920 0.45542
 C296 C -0.21139 -0.04229 0.45651
 C297 C -0.28058 -0.06801 0.42708
 C298 C -0.23529 -0.07172 0.42520
 H299 H -0.29782 -0.09233 0.40281
 H300 H -0.21887 -0.09882 0.39955
 H301 H -0.36639 -0.05787 0.43780
 H302 H -0.36937 0.06128 0.54759
 H303 H -0.14458 0.03356 0.54731
 H304 H -0.15017 -0.07664 0.42993
 H305 H -0.29022 0.05937 0.54569
 H306 H -0.22226 0.04775 0.54915
 C307 C 0.27903 -0.00225 0.49108
 C308 C 0.29831 0.02822 0.52650
 C309 C 0.34333 0.02602 0.52985
 C310 C 0.36942 -0.00703 0.49919
 C311 C 0.34987 -0.03917 0.46607
 C312 C 0.30517 -0.03678 0.46185
 C313 C 0.23172 0.00394 0.48618
 C314 C 0.21086 -0.02055 0.44877
 C315 C 0.16705 -0.01225 0.44502
 C316 C 0.14296 0.01981 0.47891
 C317 C 0.16335 0.04452 0.51602
 C318 C 0.20759 0.03746 0.51951
 C319 C 0.27269 0.06088 0.55815
 C320 C 0.22805 0.06481 0.55524
 H321 H 0.28737 0.08375 0.58565
 H322 H 0.20955 0.09058 0.58060
 H323 H 0.35822 0.05033 0.55619
 H324 H 0.36951 -0.06521 0.44231
 H325 H 0.15189 -0.03070 0.41555
 H326 H 0.14482 0.07004 0.54171
 H327 H 0.29184 -0.06197 0.43540
 H328 H 0.22805 -0.04534 0.42158
 C329 C -0.02053 0.48309 1.28329
 C330 C 0.01215 0.51155 1.30493
 C331 C 0.01773 0.51312 1.35044
 C332 C -0.01013 0.48823 1.37554
 C333 C -0.04277 0.46046 1.35431
 C334 C -0.04774 0.45754 1.30867
 C335 C -0.02590 0.48295 1.23490
 C336 C -0.05572 0.45407 1.20948
 C337 C -0.06063 0.45651 1.16503
 C338 C -0.03601 0.48768 1.14490
 C339 C -0.00598 0.51627 1.16971
 C340 C -0.00009 0.51348 1.21401
 C341 C 0.03793 0.53952 1.28162
 C342 C 0.03144 0.54102 1.23738
 H343 H 0.06279 0.56146 1.29824
 H344 H 0.05155 0.56400 1.22115
 H345 H 0.04250 0.53532 1.36697
 H346 H -0.06472 0.44107 1.37317
 H347 H -0.08390 0.43410 1.14630
 H348 H 0.01273 0.54084 1.15439
 H349 H -0.07374 0.43600 1.29435
 H350 H -0.07545 0.42935 1.22315
 C351 C 0.01283 0.51711 0.72860
 C352 C 0.04261 0.54249 0.70511
 C353 C 0.03838 0.54242 0.65960
 C354 C 0.00367 0.51892 0.63778
 C355 C -0.02754 0.49651 0.66216
 C356 C -0.02300 0.49539 0.70698
 C357 C 0.02053 0.51483 0.77567
 C358 C -0.00298 0.48502 0.79893
 C359 C 0.00548 0.48382 0.84266
 C360 C 0.03665 0.51309 0.86484
 C361 C 0.06136 0.54184 0.84145
 C362 C 0.05413 0.54222 0.79673
 C363 C 0.07611 0.56789 0.72728
 C364 C 0.08104 0.56867 0.77254
 H365 H 0.09854 0.58790 0.70956
 H366 H 0.10708 0.58931 0.78842
 H367 H 0.06202 0.56071 0.64115
 H368 H -0.05481 0.47851 0.64605
 H369 H -0.01254 0.45994 0.85942
 H370 H 0.08646 0.56353 0.85795
 H371 H -0.04784 0.47742 0.72406
 H372 H -0.02727 0.46165 0.78359
   
