data_POSCAR
  _audit_creation_date              2014-09-24
  _audit_creation_method            'ToBaCCo'
  _symmetry_space_group_name_H-M    'P1'
  _symmetry_Int_Tables_number       1
  _symmetry_cell_setting            triclinic
  loop_
  _symmetry_equiv_pos_as_xyz
 x,y,z
_cell_length_a 10.4143
_cell_length_b 10.4143
_cell_length_c 18.0099
_cell_angle_alpha 89.751700
_cell_angle_beta 90.248300
_cell_angle_gamma 90.002300
loop_
  _atom_site_label
  _atom_site_type_symbol
  _atom_site_fract_x
  _atom_site_fract_y
  _atom_site_fract_z
O1 O -0.10742 0.62388 0.92805
 O2 O -0.10709 0.37244 1.07249
 O3 O -0.10711 0.62361 1.07215
 O4 O -0.10742 0.37334 0.92829
 O5 O 0.10496 0.37336 0.92868
 O6 O 0.10526 0.62361 1.07253
 O7 O 0.10525 0.37246 1.07287
 O8 O 0.10496 0.62387 0.92844
 Cu9 Cu -0.12870 0.49827 1.00029
 Cu10 Cu 0.12655 0.49828 1.00075
 C11 C -0.00127 0.66698 0.90429
 C12 C -0.00087 0.32908 1.09653
 C13 C -0.00087 0.66686 1.09601
 C14 C -0.00127 0.33053 0.90456
 O15 O 0.62754 -0.10525 0.57287
 O16 O 0.37612 -0.10497 0.42844
 O17 O 0.62664 -0.10496 0.42868
 O18 O 0.37639 -0.10526 0.57253
 O19 O 0.37639 0.10711 0.57215
 O20 O 0.62666 0.10741 0.42829
 O21 O 0.37612 0.10742 0.42805
 O22 O 0.62756 0.10709 0.57249
 Cu23 Cu 0.50172 -0.12655 0.50075
 Cu24 Cu 0.50172 0.12870 0.50029
 C25 C 0.67092 0.00086 0.59653
 C26 C 0.33301 0.00127 0.40429
 C27 C 0.66947 0.00127 0.40456
 C28 C 0.33314 0.00087 0.59601
 Si29 Si -0.00009 0.00115 0.24899
 Si30 Si -0.00115 0.00008 0.74899
 C31 C -0.00073 -0.22998 0.14850
 C32 C -0.00053 -0.13997 0.19031
 C33 C -0.00073 0.23142 0.14666
 C34 C -0.00053 0.14174 0.18917
 C35 C 0.22998 0.00073 0.64850
 C36 C 0.13997 0.00053 0.69031
 C37 C -0.23143 0.00073 0.64666
 C38 C -0.14174 0.00053 0.68917
 C39 C -0.00136 -0.23037 0.85100
 C40 C -0.00134 -0.14080 0.80847
 C41 C -0.00135 0.22869 0.85126
 C42 C -0.00133 0.13987 0.80865
 C43 C -0.22869 0.00135 0.35126
 C44 C -0.13987 0.00133 0.30865
 C45 C 0.23037 0.00135 0.35100
 C46 C 0.14080 0.00133 0.30847
   
