data_POSCAR
  _audit_creation_date              2014-09-24
  _audit_creation_method            'ToBaCCo'
  _symmetry_space_group_name_H-M    'P1'
  _symmetry_Int_Tables_number       1
  _symmetry_cell_setting            triclinic
  loop_
  _symmetry_equiv_pos_as_xyz
 x,y,z
_cell_length_a 57.1539
_cell_length_b 55.8552
_cell_length_c 54.5629
_cell_angle_alpha 90.045800
_cell_angle_beta 89.947900
_cell_angle_gamma 90.087400
loop_
  _atom_site_label
  _atom_site_type_symbol
  _atom_site_fract_x
  _atom_site_fract_y
  _atom_site_fract_z
C1 C 0.30128 0.37454 0.02811
 C2 C 0.29356 0.38437 0.00606
 C3 C 0.30168 0.37622 -0.01678
 C4 C 0.31924 0.35810 -0.01721
 C5 C 0.32706 0.34772 0.00515
 C6 C 0.31794 0.35593 0.02786
 C7 C 0.32642 0.34607 0.04978
 C8 C 0.34373 0.32864 0.04955
 C9 C 0.35327 0.32037 0.02738
 C10 C 0.34484 0.32985 0.00491
 C11 C 0.33088 0.35176 -0.03899
 C12 C 0.34824 0.33437 -0.03922
 C13 C 0.35489 0.32232 -0.01769
 C14 C 0.37293 0.30470 -0.01775
 C15 C 0.38125 0.29621 0.00486
 C16 C 0.37172 0.30361 0.02715
 H17 H 0.32010 0.35210 0.06743
 H18 H 0.34993 0.32208 0.06703
 H19 H 0.32747 0.36092 -0.05605
 H20 H 0.35708 0.33129 -0.05644
 H21 H 0.28006 0.39799 0.00689
 H22 H 0.39481 0.28263 0.00527
 C23 C 0.70125 0.63267 0.01889
 C24 C 0.70767 0.62301 -0.00374
 C25 C 0.69805 0.63139 -0.02565
 C26 C 0.68104 0.64976 -0.02498
 C27 C 0.67449 0.65997 -0.00216
 C28 C 0.68471 0.65144 0.01987
 C29 C 0.67770 0.66144 0.04233
 C30 C 0.66085 0.67933 0.04321
 C31 C 0.65010 0.68769 0.02170
 C32 C 0.65722 0.67827 -0.00130
 C33 C 0.66968 0.65741 -0.04636
 C34 C 0.65264 0.67514 -0.04551
 C35 C 0.64667 0.68657 -0.02333
 C36 C 0.62917 0.70471 -0.02220
 C37 C 0.62221 0.71329 0.00090
 C38 C 0.63234 0.70518 0.02261
 H39 H 0.68502 0.65537 0.05951
 H40 H 0.65621 0.68644 0.06101
 H41 H 0.67342 0.64929 -0.06394
 H42 H 0.64373 0.67916 -0.06246
 H43 H 0.72056 0.60877 -0.00432
 H44 H 0.60902 0.72719 0.00215
 C45 C 0.63152 0.29654 0.97729
 C46 C 0.62244 0.28924 0.99988
 C47 C 0.63336 0.29533 1.02193
 C48 C 0.65382 0.30960 1.02159
 C49 C 0.66286 0.31784 0.99888
 C50 C 0.65177 0.31111 0.97662
 C51 C 0.66104 0.31938 0.95432
 C52 C 0.68095 0.33370 0.95382
 C53 C 0.69207 0.34081 0.97561
 C54 C 0.68298 0.33286 0.99841
 C55 C 0.66544 0.31590 1.04332
 C56 C 0.68536 0.33023 1.04283
 C57 C 0.69396 0.33982 1.02070
 C58 C 0.71402 0.35501 1.02006
 C59 C 0.72320 0.36165 0.99714
 C60 C 0.71229 0.35536 0.97516
 H61 H 0.65297 0.31491 0.93698
 H62 H 0.68760 0.33904 0.93607
 H63 H 0.65932 0.30970 1.06098
 H64 H 0.69413 0.33335 1.06008
 H65 H 0.60690 0.27805 1.00027
 H66 H 0.73805 0.37375 0.99624
 C67 C 0.30080 0.62820 1.02348
 C68 C 0.29204 0.62023 1.00084
 C69 C 0.29956 0.62989 0.97862
 C70 C 0.31665 0.64814 0.97849
 C71 C 0.32642 0.65613 1.00098
 C72 C 0.31880 0.64591 1.02351
 C73 C 0.33101 0.65197 1.04502
 C74 C 0.34881 0.66896 1.04485
 C75 C 0.35534 0.68083 1.02316
 C76 C 0.34464 0.67357 1.00081
 C77 C 0.32491 0.65785 0.95637
 C78 C 0.34263 0.67489 0.95621
 C79 C 0.35282 0.68289 0.97816
 C80 C 0.37168 0.69921 0.97796
 C81 C 0.38189 0.70633 1.00000
 C82 C 0.37383 0.69800 1.02280
 H83 H 0.32772 0.64288 1.06216
 H84 H 0.35804 0.67186 1.06187
 H85 H 0.31807 0.65200 0.93887
 H86 H 0.34862 0.68135 0.93859
 H87 H 0.27824 0.60687 1.00033
 H88 H 0.39576 0.71959 0.99926
 C89 C 0.01944 0.28287 0.35091
 C90 C -0.00209 0.27341 0.35820
 C91 C -0.02338 0.28444 0.35212
 C92 C -0.02294 0.30503 0.33668
 C93 C -0.00115 0.31428 0.32832
 C94 C 0.02007 0.30318 0.33554
 C95 C 0.04141 0.31235 0.32682
 C96 C 0.04204 0.33251 0.31197
 C97 C 0.02134 0.34418 0.30502
 C98 C -0.00053 0.33468 0.31268
 C99 C -0.04362 0.31594 0.32835
 C100 C -0.04300 0.33622 0.31362
 C101 C -0.02172 0.34560 0.30485
 C102 C -0.02087 0.36626 0.28952
 C103 C 0.00108 0.37574 0.28312
 C104 C 0.02196 0.36491 0.29028
 H105 H 0.05789 0.30388 0.33124
 H106 H 0.05899 0.33876 0.30584
 H107 H -0.06068 0.30888 0.33288
 H108 H -0.05958 0.34452 0.30951
 H109 H -0.00204 0.25830 0.37068
 H110 H 0.00209 0.39130 0.27126
 C111 C 0.02103 0.63372 0.70786
 C112 C -0.00013 0.62284 0.71422
 C113 C -0.02162 0.63022 0.70424
 C114 C -0.02150 0.64871 0.68624
 C115 C -0.00015 0.66035 0.68005
 C116 C 0.02113 0.65293 0.69106
 C117 C 0.04197 0.66494 0.68505
 C118 C 0.04217 0.68312 0.66769
 C119 C 0.02154 0.69004 0.65566
 C120 C 0.00005 0.67903 0.66228
 C121 C -0.04164 0.65447 0.67266
 C122 C -0.04145 0.67272 0.65535
 C123 C -0.02110 0.68616 0.65067
 C124 C -0.02080 0.70507 0.63312
 C125 C 0.00090 0.71503 0.62645
 C126 C 0.02186 0.70774 0.63721
 H127 H 0.05838 0.66039 0.69372
 H128 H 0.05874 0.69172 0.66379
 H129 H -0.05768 0.64435 0.67458
 H130 H -0.05735 0.67551 0.64504
 H131 H 0.00024 0.60876 0.72790
 H132 H 0.00161 0.72934 0.61304
 C133 C 1.01783 0.63496 0.29666
 C134 C 0.99686 0.62636 0.28685
 C135 C 0.97529 0.63611 0.29356
 C136 C 0.97447 0.65526 0.31052
 C137 C 0.99558 0.66401 0.32094
 C138 C 1.01729 0.65363 0.31420
 C139 C 1.03775 0.66138 0.32600
 C140 C 1.03707 0.67949 0.34348
 C141 C 1.01601 0.69122 0.34944
 C142 C 0.99490 0.68271 0.33866
 C143 C 0.95310 0.66541 0.31782
 C144 C 0.95240 0.68369 0.33512
 C145 C 0.97302 0.69230 0.34607
 C146 C 0.97231 0.71020 0.36432
 C147 C 0.99314 0.71861 0.37455
 C148 C 1.01512 0.70987 0.36729
 H149 H 1.05447 0.65305 0.32234
 H150 H 1.05328 0.68356 0.35276
 H151 H 0.93664 0.65918 0.31038
 H152 H 0.93546 0.69090 0.33995
 H153 H 0.99733 0.61184 0.27363
 H154 H 0.99208 0.73284 0.38807
 C155 C 1.02061 0.28331 0.64579
 C156 C 0.99918 0.27572 0.63617
 C157 C 0.97806 0.28602 0.64358
 C158 C 0.97819 0.30456 0.66127
 C159 C 0.99977 0.31222 0.67156
 C160 C 1.02100 0.30134 0.66403
 C161 C 1.04193 0.30813 0.67555
 C162 C 1.04221 0.32596 0.69336
 C163 C 1.02167 0.33834 0.69993
 C164 C 1.00007 0.33064 0.68958
 C165 C 0.95733 0.31529 0.66926
 C166 C 0.95760 0.33335 0.68681
 C167 C 0.97872 0.34112 0.69736
 C168 C 0.97903 0.35916 0.71546
 C169 C 1.00029 0.36660 0.72548
 C170 C 1.02181 0.35700 0.71779
 H171 H 1.05829 0.29931 0.67130
 H172 H 1.05872 0.32948 0.70230
 H173 H 0.94051 0.30973 0.66214
 H174 H 0.94100 0.34108 0.69210
 H175 H 0.99896 0.26196 0.62213
 H176 H 0.99999 0.38112 0.73870
 C177 C 0.28414 -0.02258 0.35472
 C178 C 0.27344 -0.00059 0.36021
 C179 C 0.28366 0.02128 0.35388
 C180 C 0.30458 0.02156 0.34008
 C181 C 0.31525 -0.00037 0.33317
 C182 C 0.30512 -0.02249 0.34055
 C183 C 0.31571 -0.04384 0.33258
 C184 C 0.33647 -0.04361 0.31932
 C185 C 0.34682 -0.02200 0.31164
 C186 C 0.33618 -0.00011 0.31895
 C187 C 0.31494 0.04324 0.33280
 C188 C 0.33569 0.04350 0.31955
 C189 C 0.34658 0.02208 0.31238
 C190 C 0.36787 0.02230 0.29924
 C191 C 0.37854 0.00070 0.29292
 C192 C 0.36815 -0.02155 0.29806
 H193 H 0.30804 -0.06115 0.33633
 H194 H 0.34440 -0.06075 0.31555
 H195 H 0.30709 0.06031 0.33729
 H196 H 0.34317 0.06076 0.31508
 H197 H 0.25790 -0.00025 0.37165
 H198 H 0.39452 0.00142 0.28217
 C199 C 0.62782 -0.01521 0.70280
 C200 C 0.61805 0.00721 0.70841
 C201 C 0.62880 0.02866 0.70158
 C202 C 0.64969 0.02812 0.68778
 C203 C 0.65945 0.00577 0.68083
 C204 C 0.64856 -0.01598 0.68828
 C205 C 0.65783 -0.03773 0.67953
 C206 C 0.67807 -0.03828 0.66538
 C207 C 0.68933 -0.01706 0.65826
 C208 C 0.67989 0.00521 0.66592
 C209 C 0.66074 0.04938 0.68023
 C210 C 0.68095 0.04878 0.66604
 C211 C 0.69061 0.02693 0.65832
 C212 C 0.71077 0.02620 0.64325
 C213 C 0.72026 0.00408 0.63657
 C214 C 0.70972 -0.01747 0.64351
 H215 H 0.64931 -0.05467 0.68299
 H216 H 0.68463 -0.05563 0.65986
 H217 H 0.65376 0.06675 0.68504
 H218 H 0.68888 0.06571 0.66112
 H219 H 0.60248 0.00821 0.71977
 H220 H 0.73550 0.00363 0.62470
 C221 C 0.29189 0.97677 0.63520
 C222 C 0.28350 0.99781 0.62465
 C223 C 0.29195 1.02050 0.63145
 C224 C 0.31019 1.02190 0.64922
 C225 C 0.31878 1.00053 0.66020
 C226 C 0.30954 0.97794 0.65321
 C227 C 0.31824 0.95708 0.66430
 C228 C 0.33625 0.95821 0.68136
 C229 C 0.34602 0.98029 0.68828
 C230 C 0.33718 1.00166 0.67771
 C231 C 0.32138 1.04369 0.65492
 C232 C 0.33920 1.04481 0.67222
 C233 C 0.34715 1.02409 0.68409
 C234 C 0.36559 1.02504 0.70136
 C235 C 0.37429 1.00379 0.71131
 C236 C 0.36487 0.98154 0.70499
 H237 H 0.31132 0.93959 0.65975
 H238 H 0.34257 0.94153 0.68889
 H239 H 0.31708 1.06014 0.64557
 H240 H 0.34714 1.06208 0.67570
 H241 H 0.26952 0.99637 0.61129
 H242 H 0.38861 1.00458 0.72433
 C243 C 0.63854 0.97826 0.29125
 C244 C 0.63098 0.99983 0.28111
 C245 C 0.64105 1.02194 0.28753
 C246 C 0.66023 1.02205 0.30424
 C247 C 0.66783 1.00023 0.31504
 C248 C 0.65693 0.97829 0.30848
 C249 C 0.66471 0.95692 0.31929
 C250 C 0.68327 0.95691 0.33571
 C251 C 0.69452 0.97833 0.34236
 C252 C 0.68672 1.00024 0.33205
 C253 C 0.67332 1.04292 0.30887
 C254 C 0.69177 1.04293 0.32547
 C255 C 0.69811 1.02207 0.33827
 C256 C 0.71682 1.02202 0.35552
 C257 C 0.72472 0.99990 0.36457
 C258 C 0.71378 0.97833 0.35854
 H259 H 0.65663 0.93989 0.31499
 H260 H 0.68887 0.93983 0.34294
 H261 H 0.66998 1.05939 0.29911
 H262 H 0.70153 1.05941 0.32751
 H263 H 0.61619 0.99929 0.26866
 H264 H 0.73868 0.99940 0.37802
 O265 O 0.81753 0.85272 0.52931
 O266 O 0.84840 0.81946 0.48100
 O267 O 0.81654 0.85268 0.48182
 O268 O 0.84956 0.81938 0.52839
 O269 O 0.82207 0.79149 0.52914
 O270 O 0.78884 0.82499 0.48235
 O271 O 0.82087 0.79159 0.48154
 O272 O 0.78985 0.82503 0.53007
 Cu273 Cu 0.83576 0.83886 0.50512
 Cu274 Cu 0.80259 0.80548 0.50591
 C275 C 0.79835 0.84469 0.53764
 C276 C 0.84000 0.79985 0.47323
 C277 C 0.79710 0.84457 0.47428
 C278 C 0.84163 0.79964 0.53635
 O279 O 0.17590 0.14493 0.52195
 O280 O 0.14177 0.17644 0.47499
 O281 O 0.17473 0.14445 0.47451
 O282 O 0.14275 0.17687 0.52260
 O283 O 0.16926 0.20574 0.52180
 O284 O 0.20141 0.17315 0.47348
 O285 O 0.16829 0.20530 0.47398
 O286 O 0.20258 0.17364 0.52112
 Cu287 Cu 0.15609 0.15781 0.49864
 Cu288 Cu 0.18805 0.19241 0.49753
 C289 C 0.19510 0.15378 0.52928
 C290 C 0.14923 0.19617 0.46654
 C291 C 0.19352 0.15320 0.46597
 C292 C 0.15050 0.19679 0.53027
 O293 O 0.18000 0.85175 0.47580
 O294 O 0.14823 0.81876 0.52362
 O295 O 0.18165 0.85048 0.52322
 O296 O 0.14665 0.81989 0.47624
 O297 O 0.17287 0.79088 0.47435
 O298 O 0.20809 0.82165 0.52155
 O299 O 0.17446 0.78973 0.52196
 O300 O 0.20643 0.82293 0.47388
 Cu301 Cu 0.16151 0.83814 0.49989
 Cu302 Cu 0.19315 0.80337 0.49774
 C303 C 0.19865 0.84307 0.46689
 C304 C 0.15580 0.79860 0.53073
 C305 C 0.20083 0.84139 0.53020
 C306 C 0.15367 0.80011 0.46755
 O307 O 0.85235 0.18249 0.52224
 O308 O 0.81982 0.14939 0.47505
 O309 O 0.85226 0.18215 0.47480
 O310 O 0.81990 0.14971 0.52259
 O311 O 0.79266 0.17778 0.52257
 O312 O 0.82520 0.21042 0.47454
 O313 O 0.79257 0.17745 0.47478
 O314 O 0.82530 0.21077 0.52223
 Cu315 Cu 0.83879 0.16310 0.49868
 Cu316 Cu 0.80616 0.19695 0.49853
 C317 C 0.84448 0.20229 0.53006
 C318 C 0.80068 0.15770 0.46701
 C319 C 0.84435 0.20182 0.46673
 C320 C 0.80077 0.15814 0.53056
 O321 O 0.47560 0.85258 0.81787
 O322 O 0.52184 0.81924 0.84963
 O323 O 0.52088 0.85364 0.81739
 O324 O 0.47654 0.81809 0.85000
 O325 O 0.47682 0.79130 0.82014
 O326 O 0.52134 0.82698 0.78740
 O327 O 0.52230 0.79240 0.81981
 O328 O 0.47587 0.82595 0.78785
 Cu329 Cu 0.49869 0.83857 0.83673
 Cu330 Cu 0.49913 0.80645 0.80076
 C331 C 0.46808 0.84507 0.79740
 C332 C 0.52972 0.80009 0.84027
 C333 C 0.52843 0.84648 0.79679
 C334 C 0.46934 0.79861 0.84073
 O335 O 0.52309 0.18554 0.15385
 O336 O 0.47840 0.15226 0.18834
 O337 O 0.47783 0.18607 0.15529
 O338 O 0.52373 0.15191 0.18684
 O339 O 0.52500 0.17917 0.21623
 O340 O 0.47888 0.21352 0.18449
 O341 O 0.47946 0.17952 0.21773
 O342 O 0.52436 0.21299 0.18306
 Cu343 Cu 0.50061 0.16619 0.16816
 Cu344 Cu 0.50200 0.19906 0.20336
 C345 C 0.53114 0.20496 0.16248
 C346 C 0.47157 0.16007 0.20895
 C347 C 0.47083 0.20571 0.16433
 C348 C 0.53204 0.15965 0.20689
 O349 O 0.51720 0.15740 0.81172
 O350 O 0.47208 0.19027 0.84593
 O351 O 0.47192 0.15748 0.81178
 O352 O 0.51733 0.19011 0.84579
 O353 O 0.51752 0.21843 0.81747
 O354 O 0.47188 0.18560 0.78327
 O355 O 0.47206 0.21858 0.81762
 O356 O 0.51738 0.18553 0.78322
 Cu357 Cu 0.49459 0.17098 0.83165
 Cu358 Cu 0.49468 0.20489 0.79751
 C359 C 0.52477 0.16575 0.79162
 C360 C 0.46470 0.21012 0.83780
 C361 C 0.46445 0.16581 0.79165
 C362 C 0.52494 0.20987 0.83755
 O363 O 0.47736 0.81393 0.15366
 O364 O 0.52253 0.84823 0.18637
 O365 O 0.52265 0.81424 0.15368
 O366 O 0.47721 0.84813 0.18626
 O367 O 0.47713 0.82119 0.21593
 O368 O 0.52279 0.78707 0.18314
 O369 O 0.52267 0.82125 0.21601
 O370 O 0.47729 0.78678 0.18314
 Cu371 Cu 0.49991 0.83385 0.16703
 Cu372 Cu 0.49994 0.80134 0.20257
 C373 C 0.46991 0.79444 0.16267
 C374 C 0.53012 0.84067 0.20677
 C375 C 0.53027 0.79487 0.16274
 C376 C 0.46967 0.84058 0.20670
 O377 O 0.84669 0.52435 0.81526
 O378 O 0.81447 0.47754 0.84842
 O379 O 0.84839 0.47808 0.81673
 O380 O 0.81238 0.52386 0.84698
 O381 O 0.78666 0.52191 0.81680
 O382 O 0.82283 0.47591 0.78640
 O383 O 0.78873 0.47536 0.81826
 O384 O 0.82118 0.52240 0.78487
 Cu385 Cu 0.83304 0.50125 0.83490
 Cu386 Cu 0.80223 0.49877 0.79852
 C387 C 0.83966 0.53101 0.79432
 C388 C 0.79617 0.46856 0.83903
 C389 C 0.84178 0.46933 0.79642
 C390 C 0.79331 0.53039 0.83722
 O391 O 0.18644 0.48149 0.15693
 O392 O 0.15199 0.52745 0.18883
 O393 O 0.18592 0.52777 0.15670
 O394 O 0.15268 0.48114 0.18900
 O395 O 0.17852 0.48155 0.21915
 O396 O 0.21200 0.52841 0.18661
 O397 O 0.17784 0.52809 0.21895
 O398 O 0.21248 0.48190 0.18688
 Cu399 Cu 0.16665 0.50445 0.16986
 Cu400 Cu 0.19783 0.50509 0.20595
 C401 C 0.20537 0.47409 0.16634
 C402 C 0.15887 0.53529 0.20941
 C403 C 0.20475 0.53569 0.16594
 C404 C 0.15982 0.47359 0.20958
 O405 O 0.85158 0.47763 0.17748
 O406 O 0.81714 0.52324 0.14521
 O407 O 0.85040 0.52396 0.17785
 O408 O 0.81835 0.47683 0.14491
 O409 O 0.79181 0.47576 0.17441
 O410 O 0.82402 0.52311 0.20751
 O411 O 0.79059 0.52237 0.17470
 O412 O 0.82519 0.47658 0.20715
 Cu413 Cu 0.83701 0.50053 0.15837
 Cu414 Cu 0.80520 0.49938 0.19393
 C415 C 0.84435 0.46955 0.19784
 C416 C 0.79798 0.53037 0.15436
 C417 C 0.84280 0.53132 0.19835
 C418 C 0.79964 0.46840 0.15398
 O419 O 0.15025 0.47515 0.81961
 O420 O 0.18348 0.52255 0.85085
 O421 O 0.14965 0.52158 0.81883
 O422 O 0.18401 0.47630 0.85178
 O423 O 0.21011 0.47599 0.82184
 O424 O 0.17555 0.52148 0.78870
 O425 O 0.20957 0.52245 0.82089
 O426 O 0.17616 0.47483 0.78949
 Cu427 Cu 0.16421 0.49890 0.83824
 Cu428 Cu 0.19545 0.49865 0.80216
 C429 C 0.15743 0.46711 0.79921
 C430 C 0.20229 0.53028 0.84137
 C431 C 0.15666 0.52907 0.79816
 C432 C 0.20302 0.46876 0.84262
 C433 C 0.28548 0.41928 0.07723
 C434 C 0.26906 0.40642 0.09100
 C435 C 0.26427 0.38247 0.08513
 C436 C 0.27547 0.37164 0.06517
 C437 C 0.29152 0.38472 0.05098
 C438 C 0.29662 0.40852 0.05729
 C439 C 0.25584 0.41859 0.10968
 C440 C 0.24452 0.42985 0.12434
 C441 C 0.23104 0.44419 0.14029
 C442 C 0.21937 0.45736 0.15282
 H443 H 0.28916 0.43787 0.08145
 H444 H 0.25142 0.37243 0.09551
 H445 H 0.27113 0.35337 0.06030
 H446 H 0.30877 0.41890 0.04635
 C447 C 0.71754 0.58704 0.06680
 C448 C 0.73477 0.59931 0.08003
 C449 C 0.74018 0.62309 0.07409
 C450 C 0.72870 0.63438 0.05462
 C451 C 0.71176 0.62191 0.04103
 C452 C 0.70612 0.59826 0.04736
 C453 C 0.74800 0.58670 0.09833
 C454 C 0.75925 0.57513 0.11272
 C455 C 0.77259 0.56049 0.12843
 C456 C 0.78412 0.54715 0.14085
 H457 H 0.71337 0.56859 0.07110
 H458 H 0.75364 0.63267 0.08407
 H459 H 0.73342 0.65255 0.04973
 H460 H 0.69324 0.58837 0.03688
 C461 C 0.75461 0.37457 0.92558
 C462 C 0.74132 0.39169 0.91307
 C463 C 0.71800 0.39566 0.91980
 C464 C 0.70820 0.38304 0.93941
 C465 C 0.72161 0.36623 0.95237
 C466 C 0.74482 0.36193 0.94518
 C467 C 0.75224 0.40670 0.89493
 C468 C 0.76174 0.41999 0.88064
 C469 C 0.77329 0.43629 0.86500
 C470 C 0.78353 0.45076 0.85259
 H471 H 0.77274 0.37154 0.92070
 H472 H 0.70765 0.40907 0.91045
 H473 H 0.69042 0.38694 0.94502
 H474 H 0.75550 0.34928 0.95521
 C475 C 0.26157 0.62229 0.92229
 C476 C 0.26607 0.59833 0.91628
 C477 C 0.28256 0.58533 0.92975
 C478 C 0.29406 0.59597 0.94953
 C479 C 0.28928 0.61979 0.95596
 C480 C 0.27315 0.63300 0.94209
 C481 C 0.25259 0.58629 0.89770
 C482 C 0.24115 0.57506 0.88311
 C483 C 0.22763 0.56066 0.86723
 C484 C 0.21605 0.54733 0.85477
 H485 H 0.24869 0.63245 0.91214
 H486 H 0.28603 0.56674 0.92541
 H487 H 0.30628 0.58549 0.96022
 H488 H 0.26906 0.65130 0.94706
 C489 C 0.06402 0.23726 0.37189
 C490 C 0.07755 0.25100 0.38804
 C491 C 0.07307 0.27550 0.39069
 C492 C 0.05472 0.28609 0.37776
 C493 C 0.04076 0.27231 0.36193
 C494 C 0.04566 0.24785 0.35893
 C495 C 0.09466 0.23963 0.40343
 C496 C 0.10826 0.22998 0.41707
 C497 C 0.12335 0.21850 0.43376
 C498 C 0.13554 0.20845 0.44851
 H499 H 0.06720 0.21824 0.36990
 H500 H 0.08325 0.28623 0.40334
 H501 H 0.05088 0.30486 0.38071
 H502 H 0.03488 0.23689 0.34706
 C503 C 0.06623 0.75450 0.61826
 C504 C 0.08225 0.74064 0.60499
 C505 C 0.07937 0.71576 0.60374
 C506 C 0.06018 0.70486 0.61514
 C507 C 0.04375 0.71877 0.62794
 C508 C 0.04705 0.74363 0.62964
 C509 C 0.10028 0.75223 0.59087
 C510 C 0.11450 0.76232 0.57822
 C511 C 0.13008 0.77457 0.56251
 C512 C 0.14241 0.78536 0.54838
 H513 H 0.06816 0.77378 0.61915
 H514 H 0.09150 0.70490 0.59330
 H515 H 0.05769 0.68572 0.61331
 H516 H 0.03442 0.75465 0.63922
 C517 C 0.92654 0.75552 0.38269
 C518 C 0.91177 0.74162 0.39743
 C519 C 0.91581 0.71700 0.39980
 C520 C 0.93498 0.70646 0.38805
 C521 C 0.95022 0.72048 0.37382
 C522 C 0.94570 0.74502 0.37098
 C523 C 0.89399 0.75311 0.41196
 C524 C 0.88006 0.76323 0.42491
 C525 C 0.86489 0.77559 0.44094
 C526 C 0.85295 0.78651 0.45532
 H527 H 0.92372 0.77462 0.38094
 H528 H 0.90465 0.70613 0.41138
 H529 H 0.93845 0.68759 0.39075
 H530 H 0.95745 0.75613 0.36030
 C531 C 0.92467 0.28196 0.60274
 C532 C 0.91824 0.25795 0.60597
 C533 C 0.93059 0.24362 0.62254
 C534 C 0.94960 0.25306 0.63542
 C535 C 0.95638 0.27698 0.63194
 C536 C 0.94370 0.29144 0.61565
 C537 C 0.90030 0.24739 0.59092
 C538 C 0.88609 0.23789 0.57779
 C539 C 0.87046 0.22609 0.56180
 C540 C 0.85805 0.21548 0.54761
 H541 H 0.91541 0.29314 0.58977
 H542 H 0.92592 0.22496 0.62501
 H543 H 0.95937 0.24160 0.64771
 H544 H 0.94895 0.30982 0.61248
 C545 C 0.38022 0.07835 0.26245
 C546 C 0.40298 0.08387 0.27012
 C547 C 0.41365 0.07009 0.28838
 C548 C 0.40185 0.05053 0.29853
 C549 C 0.37920 0.04464 0.29059
 C550 C 0.36839 0.05879 0.27260
 C551 C 0.41615 0.10236 0.25793
 C552 C 0.42782 0.11702 0.24726
 C553 C 0.44226 0.13318 0.23429
 C554 C 0.45526 0.14602 0.22287
 H555 H 0.37190 0.08873 0.24814
 H556 H 0.43134 0.07405 0.29428
 H557 H 0.41054 0.03962 0.31216
 H558 H 0.35109 0.05423 0.26596
 C559 C 0.58346 0.07669 0.71233
 C560 C 0.59423 0.09050 0.73056
 C561 C 0.61700 0.08499 0.73814
 C562 C 0.62873 0.06537 0.72797
 C563 C 0.61776 0.05116 0.71008
 C564 C 0.59514 0.05709 0.70218
 C565 C 0.58107 0.10891 0.74285
 C566 C 0.56929 0.12343 0.75355
 C567 C 0.55462 0.13936 0.76649
 C568 C 0.54138 0.15198 0.77783
 H569 H 0.56577 0.08065 0.70649
 H570 H 0.62540 0.09538 0.75242
 H571 H 0.64602 0.06078 0.73457
 H572 H 0.58634 0.04613 0.68863
 C573 C 0.37590 0.92711 0.74467
 C574 C 0.39890 0.92142 0.73796
 C575 C 0.41030 0.93483 0.71985
 C576 C 0.39893 0.95408 0.70877
 C577 C 0.37600 0.96004 0.71560
 C578 C 0.36447 0.94639 0.73353
 C579 C 0.41155 0.90292 0.75057
 C580 C 0.42313 0.88821 0.76119
 C581 C 0.43777 0.87202 0.77370
 C582 C 0.45116 0.85914 0.78447
 H583 H 0.36700 0.91698 0.75882
 H584 H 0.42815 0.93071 0.71466
 H585 H 0.40809 0.96458 0.69510
 H586 H 0.34686 0.95097 0.73917
 C587 C 0.59007 0.93361 0.27986
 C588 C 0.60117 0.91712 0.26442
 C589 C 0.62498 0.91986 0.25892
 C590 C 0.63749 0.93934 0.26840
 C591 C 0.62625 0.95618 0.28346
 C592 C 0.60252 0.95307 0.28929
 C593 C 0.58757 0.89858 0.25285
 C594 C 0.57543 0.88391 0.24278
 C595 C 0.56040 0.86775 0.23058
 C596 C 0.54692 0.85487 0.21986
 H597 H 0.57162 0.93178 0.28407
 H598 H 0.63369 0.90733 0.24681
 H599 H 0.65571 0.94169 0.26347
 H600 H 0.59356 0.96604 0.30069
 C601 C 0.37847 0.27566 0.92056
 C602 C 0.40266 0.27194 0.91941
 C603 C 0.41691 0.27975 0.93861
 C604 C 0.40712 0.29095 0.95903
 C605 C 0.38278 0.29487 0.96060
 C606 C 0.36857 0.28698 0.94101
 C607 C 0.41313 0.25917 0.89928
 C608 C 0.42316 0.24818 0.88342
 C609 C 0.43631 0.23507 0.86611
 C610 C 0.44867 0.22372 0.85249
 H611 H 0.36722 0.26935 0.90594
 H612 H 0.43566 0.27691 0.93795
 H613 H 0.41873 0.29689 0.97350
 H614 H 0.34971 0.28863 0.94194
 C615 C 0.62063 0.73457 0.91701
 C616 C 0.59639 0.73806 0.91721
 C617 C 0.58311 0.72994 0.93704
 C618 C 0.59393 0.71859 0.95673
 C619 C 0.61833 0.71481 0.95689
 C620 C 0.63156 0.72309 0.93673
 C621 C 0.58485 0.75092 0.89786
 C622 C 0.57390 0.76195 0.88277
 C623 C 0.55971 0.77508 0.86649
 C624 C 0.54654 0.78645 0.85382
 H625 H 0.63112 0.74114 0.90189
 H626 H 0.56434 0.73264 0.93743
 H627 H 0.58308 0.71242 0.97176
 H628 H 0.65045 0.72157 0.93666
 C629 C 0.41930 0.72225 0.06513
 C630 C 0.40562 0.73066 0.08453
 C631 C 0.38134 0.72738 0.08406
 C632 C 0.37077 0.71597 0.06404
 C633 C 0.38437 0.70760 0.04419
 C634 C 0.40883 0.71098 0.04513
 C635 C 0.41676 0.74378 0.10403
 C636 C 0.42730 0.75510 0.11927
 C637 C 0.44095 0.76864 0.13579
 C638 C 0.45364 0.78037 0.14873
 H639 H 0.43810 0.72476 0.06526
 H640 H 0.37054 0.73415 0.09884
 H641 H 0.35186 0.71472 0.06358
 H642 H 0.41999 0.70465 0.03043
 C643 C 0.62230 0.25759 0.07836
 C644 C 0.59977 0.26512 0.08491
 C645 C 0.58893 0.28352 0.07173
 C646 C 0.60030 0.29396 0.05174
 C647 C 0.62268 0.28617 0.04480
 C648 C 0.63372 0.26806 0.05835
 C649 C 0.58690 0.25278 0.10376
 C650 C 0.57528 0.24216 0.11867
 C651 C 0.56077 0.22945 0.13508
 C652 C 0.54763 0.21837 0.14815
 H653 H 0.63074 0.24320 0.08827
 H654 H 0.57142 0.28933 0.07649
 H655 H 0.59145 0.30771 0.04128
 H656 H 0.65083 0.26161 0.05297
 C657 C 0.26571 0.05963 0.58355
 C658 C 0.25802 0.07908 0.59749
 C659 C 0.26214 0.07956 0.62276
 C660 C 0.27381 0.06050 0.63407
 C661 C 0.28165 0.04074 0.62018
 C662 C 0.27725 0.04061 0.59474
 C663 C 0.24499 0.09776 0.58559
 C664 C 0.23382 0.11234 0.57434
 C665 C 0.22049 0.12811 0.55981
 C666 C 0.20896 0.14046 0.54637
 H667 H 0.26252 0.05903 0.56398
 H668 H 0.25591 0.09438 0.63379
 H669 H 0.27584 0.06079 0.65381
 H670 H 0.28306 0.02586 0.58337
 C671 C 0.72294 0.08186 0.38581
 C672 C 0.74702 0.08244 0.39036
 C673 C 0.76120 0.06379 0.38197
 C674 C 0.75135 0.04431 0.36969
 C675 C 0.72703 0.04315 0.36532
 C676 C 0.71300 0.06239 0.37341
 C677 C 0.75714 0.10103 0.40530
 C678 C 0.76625 0.11560 0.41854
 C679 C 0.77762 0.13149 0.43479
 C680 C 0.78787 0.14404 0.44922
 H681 H 0.71174 0.09603 0.39258
 H682 H 0.77986 0.06401 0.38547
 H683 H 0.76284 0.03010 0.36358
 H684 H 0.69415 0.06179 0.37148
 C685 C 0.71813 0.92696 0.60482
 C686 C 0.74126 0.92088 0.61049
 C687 C 0.75356 0.93414 0.62808
 C688 C 0.74295 0.95373 0.63954
 C689 C 0.71991 0.96015 0.63359
 C690 C 0.70751 0.94655 0.61626
 C691 C 0.75300 0.90243 0.59678
 C692 C 0.76310 0.88777 0.58448
 C693 C 0.77519 0.87161 0.56913
 C694 C 0.78570 0.85875 0.55521
 H695 H 0.70855 0.91702 0.59103
 H696 H 0.77154 0.92976 0.63241
 H697 H 0.75287 0.96423 0.65261
 H698 H 0.68989 0.95155 0.61110
 C699 C 0.27806 0.92093 0.39098
 C700 C 0.25376 0.91791 0.39089
 C701 C 0.23971 0.93389 0.37783
 C702 C 0.24981 0.95308 0.36528
 C703 C 0.27428 0.95651 0.36526
 C704 C 0.28826 0.94010 0.37837
 C705 C 0.24298 0.89967 0.40574
 C706 C 0.23345 0.88524 0.41881
 C707 C 0.22177 0.86939 0.43482
 C708 C 0.21140 0.85681 0.44912
 H709 H 0.28907 0.90894 0.40145
 H710 H 0.22085 0.93185 0.37782
 H711 H 0.23844 0.96526 0.35549
 H712 H 0.30696 0.94277 0.37998
 C713 C 0.06316 0.38513 0.76222
 C714 C 0.08139 0.39227 0.74677
 C715 C 0.08047 0.38671 0.72178
 C716 C 0.06118 0.37437 0.71220
 C717 C 0.04251 0.36729 0.72755
 C718 C 0.04387 0.37292 0.75273
 C719 C 0.10003 0.40676 0.75653
 C720 C 0.11472 0.41960 0.76544
 C721 C 0.13080 0.43540 0.77663
 C722 C 0.14353 0.44953 0.78670
 H723 H 0.06361 0.38946 0.78158
 H724 H 0.09430 0.39253 0.70957
 H725 H 0.06035 0.37149 0.69259
 H726 H 0.03001 0.36773 0.76521
 C727 C 0.06329 0.58812 0.28153
 C728 C 0.07951 0.60149 0.26799
 C729 C 0.07612 0.62612 0.26479
 C730 C 0.05635 0.63725 0.27475
 C731 C 0.03985 0.62380 0.28802
 C732 C 0.04353 0.59920 0.29145
 C733 C 0.09867 0.58944 0.25612
 C734 C 0.11393 0.57847 0.24581
 C735 C 0.13079 0.56455 0.23338
 C736 C 0.14421 0.55172 0.22253
 H737 H 0.06564 0.56902 0.28396
 H738 H 0.08845 0.63659 0.25417
 H739 H 0.05359 0.65619 0.27165
 H740 H 0.03089 0.58853 0.30146
 C741 C 0.92253 0.37613 0.25659
 C742 C 0.92111 0.40113 0.25721
 C743 C 0.93852 0.41439 0.26902
 C744 C 0.95738 0.40281 0.28003
 C745 C 0.95905 0.37762 0.27977
 C746 C 0.94140 0.36444 0.26768
 C747 C 0.90257 0.41355 0.24477
 C748 C 0.88785 0.42500 0.23421
 C749 C 0.87162 0.43951 0.22169
 C750 C 0.85865 0.45279 0.21087
 H751 H 0.90935 0.36571 0.24709
 H752 H 0.93768 0.43377 0.26947
 H753 H 0.97056 0.41360 0.28908
 H754 H 0.94267 0.34516 0.26594
 C755 C 0.93751 0.58327 0.72757
 C756 C 0.91811 0.59697 0.73432
 C757 C 0.91828 0.62172 0.73039
 C758 C 0.93792 0.63275 0.71993
 C759 C 0.95769 0.61913 0.71311
 C760 C 0.95713 0.59419 0.71723
 C761 C 0.89871 0.58542 0.74635
 C762 C 0.88343 0.57460 0.75684
 C763 C 0.86677 0.56065 0.76955
 C764 C 0.85369 0.54767 0.78072
 H765 H 0.93760 0.56409 0.73059
 H766 H 0.90348 0.63256 0.73590
 H767 H 0.93800 0.65206 0.71816
 H768 H 0.97179 0.58298 0.71208
 C769 C 0.73026 0.62245 0.91441
 C770 C 0.72781 0.59769 0.91114
 C771 C 0.71411 0.58441 0.92752
 C772 C 0.70354 0.59564 0.94753
 C773 C 0.70647 0.62032 0.95131
 C774 C 0.71962 0.63374 0.93443
 C775 C 0.74098 0.58537 0.89251
 C776 C 0.75251 0.57412 0.87803
 C777 C 0.76645 0.55991 0.86240
 C778 C 0.77862 0.54690 0.85023
 H779 H 0.74102 0.63286 0.90199
 H780 H 0.71225 0.56522 0.92529
 H781 H 0.69364 0.58500 0.96050
 H782 H 0.72234 0.65273 0.93730
 C783 C 0.27200 0.38180 0.92224
 C784 C 0.26767 0.40645 0.92152
 C785 C 0.27540 0.42104 0.94069
 C786 C 0.28707 0.41111 0.96067
 C787 C 0.29154 0.38629 0.96185
 C788 C 0.28381 0.37177 0.94224
 C789 C 0.25431 0.41702 0.90195
 C790 C 0.24281 0.42712 0.88659
 C791 C 0.22908 0.44032 0.86988
 C792 C 0.21721 0.45271 0.85676
 H793 H 0.26579 0.37028 0.90764
 H794 H 0.27211 0.44014 0.94037
 H795 H 0.29288 0.42300 0.97515
 H796 H 0.28591 0.35251 0.94288
 C797 C 0.27470 0.58383 0.06672
 C798 C 0.26775 0.59854 0.08612
 C799 C 0.27247 0.62312 0.08526
 C800 C 0.28392 0.63297 0.06489
 C801 C 0.29090 0.61831 0.04509
 C802 C 0.28601 0.59358 0.04639
 C803 C 0.25481 0.58815 0.10611
 C804 C 0.24362 0.57808 0.12177
 C805 C 0.23023 0.56477 0.13872
 C806 C 0.21863 0.55215 0.15191
 H807 H 0.27109 0.56479 0.06716
 H808 H 0.26686 0.63474 0.10003
 H809 H 0.28637 0.65219 0.06418
 H810 H 0.29124 0.58160 0.03175
 C811 C 0.72061 0.38920 0.07862
 C812 C 0.74497 0.39128 0.08004
 C813 C 0.75902 0.38012 0.06246
 C814 C 0.74881 0.36742 0.04318
 C815 C 0.72426 0.36540 0.04122
 C816 C 0.71032 0.37643 0.05937
 C817 C 0.75563 0.40647 0.09821
 C818 C 0.76507 0.41983 0.11248
 C819 C 0.77666 0.43615 0.12807
 C820 C 0.78696 0.45061 0.14043
 H821 H 0.70956 0.39816 0.09190
 H822 H 0.77789 0.38174 0.06329
 H823 H 0.76018 0.35917 0.02972
 H824 H 0.69142 0.37640 0.05794
 C825 C 0.91951 0.73188 0.62584
 C826 C 0.91968 0.73758 0.60087
 C827 C 0.93917 0.73181 0.58657
 C828 C 0.95852 0.72068 0.59712
 C829 C 0.95874 0.71478 0.62227
 C830 C 0.93889 0.72062 0.63649
 C831 C 0.90050 0.75024 0.58974
 C832 C 0.88538 0.76122 0.57924
 C833 C 0.86883 0.77440 0.56560
 C834 C 0.85577 0.78586 0.55285
 H835 H 0.90463 0.73657 0.63717
 H836 H 0.93953 0.73617 0.56722
 H837 H 0.97324 0.71632 0.58542
 H838 H 0.93871 0.71744 0.65607
 C839 C 0.92132 0.28078 0.38868
 C840 C 0.91796 0.25598 0.38962
 C841 C 0.93334 0.24080 0.37718
 C842 C 0.95226 0.25028 0.36421
 C843 C 0.95603 0.27523 0.36314
 C844 C 0.94024 0.29035 0.37563
 C845 C 0.89996 0.24582 0.40487
 C846 C 0.88574 0.23661 0.41821
 C847 C 0.87017 0.22510 0.43447
 C848 C 0.85782 0.21473 0.44890
 H849 H 0.90978 0.29267 0.39867
 H850 H 0.93103 0.22156 0.37796
 H851 H 0.96399 0.23804 0.35492
 H852 H 0.94317 0.30950 0.37641
 C853 C 0.07669 0.27681 0.60950
 C854 C 0.07949 0.25191 0.60940
 C855 C 0.06401 0.23747 0.62275
 C856 C 0.04539 0.24781 0.63554
 C857 C 0.04213 0.27272 0.63519
 C858 C 0.05808 0.28718 0.62232
 C859 C 0.09683 0.24096 0.59389
 C860 C 0.11048 0.23143 0.58017
 C861 C 0.12546 0.21982 0.56337
 C862 C 0.13738 0.20952 0.54851
 H863 H 0.08841 0.28813 0.59902
 H864 H 0.06588 0.21817 0.62261
 H865 H 0.03313 0.23637 0.64515
 H866 H 0.05559 0.30639 0.62147
 C867 C 0.05490 0.73579 0.41456
 C868 C 0.07401 0.74291 0.40032
 C869 C 0.07382 0.73890 0.37501
 C870 C 0.05455 0.72774 0.36399
 C871 C 0.03524 0.72022 0.37821
 C872 C 0.03566 0.72473 0.40365
 C873 C 0.09331 0.75490 0.41200
 C874 C 0.10865 0.76508 0.42302
 C875 C 0.12553 0.77714 0.43729
 C876 C 0.13897 0.78757 0.45056
 H877 H 0.05482 0.73890 0.43417
 H878 H 0.08839 0.74469 0.36375
 H879 H 0.05443 0.72571 0.34424
 H880 H 0.02128 0.71918 0.41529
 C881 C 0.61854 0.92715 0.73648
 C882 C 0.59412 0.92539 0.73590
 C883 C 0.58104 0.94284 0.72376
 C884 C 0.59221 0.96212 0.71245
 C885 C 0.61682 0.96420 0.71275
 C886 C 0.62982 0.94644 0.72509
 C887 C 0.58215 0.90646 0.74870
 C888 C 0.57118 0.89139 0.75957
 C889 C 0.55729 0.87469 0.77245
 C890 C 0.54456 0.86130 0.78353
 H891 H 0.62882 0.91394 0.74620
 H892 H 0.56211 0.94172 0.72331
 H893 H 0.58155 0.97531 0.70314
 H894 H 0.64863 0.94797 0.72686
 C895 C 0.37804 0.92098 0.26426
 C896 C 0.40232 0.91866 0.26642
 C897 C 0.41507 0.93571 0.27961
 C898 C 0.40369 0.95512 0.29043
 C899 C 0.37921 0.95771 0.28858
 C900 C 0.36656 0.94040 0.27515
 C901 C 0.41460 0.89969 0.25403
 C902 C 0.42584 0.88464 0.24347
 C903 C 0.44009 0.86807 0.23089
 C904 C 0.45313 0.85491 0.21995
 H905 H 0.36806 0.90812 0.25368
 H906 H 0.43390 0.93420 0.28124
 H907 H 0.41408 0.96803 0.30053
 H908 H 0.34793 0.94239 0.27217
 C909 C 0.61310 0.08240 0.28323
 C910 C 0.60602 0.08251 0.25868
 C911 C 0.61162 0.06318 0.24352
 C912 C 0.62378 0.04358 0.25289
 C913 C 0.63085 0.04297 0.27766
 C914 C 0.62539 0.06280 0.29268
 C915 C 0.59162 0.10148 0.24916
 C916 C 0.57886 0.11638 0.24042
 C917 C 0.56321 0.13265 0.22938
 C918 C 0.54927 0.14554 0.21938
 H919 H 0.60852 0.09713 0.29524
 H920 H 0.60616 0.06302 0.22450
 H921 H 0.62777 0.02888 0.24062
 H922 H 0.62951 0.06264 0.31205
 C923 C 0.37437 0.08458 0.73333
 C924 C 0.39840 0.08818 0.72983
 C925 C 0.41129 0.07189 0.71577
 C926 C 0.40038 0.05175 0.70576
 C927 C 0.37641 0.04776 0.70962
 C928 C 0.36340 0.06443 0.72327
 C929 C 0.41039 0.10735 0.74222
 C930 C 0.42137 0.12244 0.75307
 C931 C 0.43529 0.13891 0.76620
 C932 C 0.44810 0.15186 0.77771
 H933 H 0.36428 0.09694 0.74439
 H934 H 0.42993 0.07439 0.71312
 H935 H 0.41070 0.03897 0.69546
 H936 H 0.34496 0.06142 0.72671
 C937 C 0.61510 0.75037 0.07085
 C938 C 0.60133 0.73636 0.08652
 C939 C 0.59912 0.71173 0.08224
 C940 C 0.61010 0.70128 0.06196
 C941 C 0.62339 0.71541 0.04584
 C942 C 0.62604 0.73996 0.05058
 C943 C 0.58774 0.74775 0.10543
 C944 C 0.57561 0.75785 0.12025
 C945 C 0.56059 0.77026 0.13638
 C946 C 0.54710 0.78130 0.14906
 H947 H 0.61674 0.76948 0.07383
 H948 H 0.58829 0.70077 0.09408
 H949 H 0.60758 0.68238 0.05833
 H950 H 0.63602 0.75114 0.03816
 C951 C 0.38034 0.26525 0.08367
 C952 C 0.40380 0.27017 0.08924
 C953 C 0.41615 0.28711 0.07541
 C954 C 0.40535 0.29862 0.05574
 C955 C 0.38202 0.29342 0.04975
 C956 C 0.36948 0.27683 0.06397
 C957 C 0.41593 0.25667 0.10776
 C958 C 0.42709 0.24516 0.12233
 C959 C 0.44127 0.23152 0.13825
 C960 C 0.45428 0.21977 0.15078
 H961 H 0.37068 0.25201 0.09409
 H962 H 0.43435 0.29092 0.07941
 H963 H 0.41533 0.31118 0.04479
 H964 H 0.35157 0.27237 0.05935
 C965 C 0.61826 0.26192 0.91926
 C966 C 0.59486 0.26821 0.91524
 C967 C 0.58391 0.28471 0.93079
 C968 C 0.59612 0.29452 0.95057
 C969 C 0.61946 0.28801 0.95492
 C970 C 0.63051 0.27174 0.93905
 C971 C 0.58148 0.25649 0.89638
 C972 C 0.56960 0.24627 0.88141
 C973 C 0.55487 0.23392 0.86494
 C974 C 0.54160 0.22307 0.85185
 H975 H 0.62683 0.24898 0.90749
 H976 H 0.56575 0.28954 0.92798
 H977 H 0.58727 0.30684 0.96279
 H978 H 0.64839 0.26624 0.94240
 C979 C 0.41534 0.71537 0.92874
 C980 C 0.40307 0.73277 0.91554
 C981 C 0.37984 0.73804 0.92174
 C982 C 0.36915 0.72636 0.94151
 C983 C 0.38164 0.70935 0.95515
 C984 C 0.40471 0.70375 0.94848
 C985 C 0.41514 0.74651 0.89713
 C986 C 0.42624 0.75824 0.88267
 C987 C 0.44029 0.77219 0.86688
 C988 C 0.45312 0.78422 0.85438
 H989 H 0.43338 0.71130 0.92425
 H990 H 0.37027 0.75165 0.91181
 H991 H 0.35145 0.73111 0.94667
 H992 H 0.41465 0.69086 0.95901
 C993 C 0.71861 0.92536 0.40147
 C994 C 0.74176 0.91819 0.39733
 C995 C 0.75519 0.92976 0.37941
 C996 C 0.74572 0.94879 0.36610
 C997 C 0.72269 0.95635 0.37051
 C998 C 0.70912 0.94440 0.38815
 C999 C 0.75241 0.90036 0.41275
 C1000 C 0.76190 0.88624 0.42615
 C1001 C 0.77362 0.87068 0.44239
 C1002 C 0.78410 0.85826 0.45671
 H1003 H 0.70815 0.91670 0.41548
 H1004 H 0.77318 0.92453 0.37622
 H1005 H 0.75652 0.95802 0.35279
 H1006 H 0.69146 0.95029 0.39207
 C1007 C 0.24747 0.92928 0.61899
 C1008 C 0.26070 0.91416 0.60394
 C1009 C 0.28466 0.91850 0.60070
 C1010 C 0.29517 0.93834 0.61186
 C1011 C 0.28177 0.95394 0.62635
 C1012 C 0.25793 0.94911 0.63011
 C1013 C 0.24913 0.89587 0.58987
 C1014 C 0.23881 0.88162 0.57727
 C1015 C 0.22609 0.86624 0.56166
 C1016 C 0.21477 0.85425 0.54764
 H1017 H 0.22888 0.92625 0.62140
 H1018 H 0.29500 0.90708 0.58885
 H1019 H 0.31349 0.94205 0.60848
 H1020 H 0.24732 0.96114 0.64101
 C1021 C 0.27450 0.07575 0.39392
 C1022 C 0.25102 0.08110 0.38915
 C1023 C 0.23869 0.06790 0.37153
 C1024 C 0.24963 0.04902 0.35920
 C1025 C 0.27303 0.04324 0.36432
 C1026 C 0.28543 0.05687 0.38163
 C1027 C 0.23905 0.09861 0.40390
 C1028 C 0.22889 0.11245 0.41708
 C1029 C 0.21679 0.12768 0.43337
 C1030 C 0.20628 0.13983 0.44794
 H1031 H 0.28411 0.08565 0.40773
 H1032 H 0.22044 0.07171 0.36789
 H1033 H 0.23970 0.03847 0.34617
 H1034 H 0.30333 0.05235 0.38620
 C1035 C 0.75607 0.07198 0.62405
 C1036 C 0.74337 0.08566 0.60719
 C1037 C 0.71961 0.08083 0.60334
 C1038 C 0.70873 0.06201 0.61584
 C1039 C 0.72150 0.04793 0.63242
 C1040 C 0.74521 0.05316 0.63658
 C1041 C 0.75515 0.10324 0.59234
 C1042 C 0.76523 0.11716 0.57916
 C1043 C 0.77731 0.13250 0.56294
 C1044 C 0.78788 0.14471 0.54847
 H1045 H 0.77452 0.07541 0.62698
 H1046 H 0.70968 0.09111 0.59013
 H1047 H 0.69056 0.05793 0.61203
 H1048 H 0.75540 0.04229 0.64905
 C1049 C 0.92196 0.62547 0.25382
 C1050 C 0.91636 0.60181 0.26009
 C1051 C 0.92935 0.58995 0.27811
 C1052 C 0.94813 0.60147 0.28947
 C1053 C 0.95405 0.62501 0.28301
 C1054 C 0.94077 0.63705 0.26524
 C1055 C 0.89847 0.58893 0.24702
 C1056 C 0.88430 0.57712 0.23598
 C1057 C 0.86872 0.56218 0.22296
 C1058 C 0.85634 0.54854 0.21177
 H1059 H 0.91215 0.63473 0.23975
 H1060 H 0.92530 0.57160 0.28296
 H1061 H 0.95835 0.59189 0.30299
 H1062 H 0.94533 0.65513 0.25987
 C1063 C 0.92219 0.37277 0.74835
 C1064 C 0.91928 0.39704 0.74260
 C1065 C 0.93534 0.40847 0.72713
 C1066 C 0.95446 0.39587 0.71780
 C1067 C 0.95765 0.37167 0.72377
 C1068 C 0.94134 0.36012 0.73897
 C1069 C 0.90077 0.41076 0.75364
 C1070 C 0.88603 0.42309 0.76311
 C1071 C 0.86967 0.43842 0.77445
 C1072 C 0.85648 0.45219 0.78436
 H1073 H 0.90997 0.36381 0.76045
 H1074 H 0.93335 0.42727 0.72271
 H1075 H 0.96701 0.40506 0.70626
 H1076 H 0.94375 0.34151 0.74394
 C1077 C 0.06453 0.61280 0.75543
 C1078 C 0.08091 0.60076 0.74086
 C1079 C 0.07844 0.60076 0.71531
 C1080 C 0.05938 0.61229 0.70444
 C1081 C 0.04265 0.62397 0.71903
 C1082 C 0.04547 0.62431 0.74459
 C1083 C 0.09910 0.58688 0.75229
 C1084 C 0.11357 0.57459 0.76226
 C1085 C 0.12960 0.55945 0.77436
 C1086 C 0.14245 0.54591 0.78504
 H1087 H 0.06614 0.61274 0.77522
 H1088 H 0.09088 0.59130 0.70387
 H1089 H 0.05726 0.61153 0.68473
 H1090 H 0.03261 0.63301 0.75613
 C1091 C 0.07886 0.39969 0.28822
 C1092 C 0.08339 0.39991 0.26298
 C1093 C 0.06850 0.38760 0.24695
 C1094 C 0.04889 0.37557 0.25601
 C1095 C 0.04401 0.37566 0.28122
 C1096 C 0.05922 0.38761 0.29733
 C1097 C 0.10209 0.41426 0.25313
 C1098 C 0.11686 0.42691 0.24411
 C1099 C 0.13307 0.44244 0.23276
 C1100 C 0.14589 0.45632 0.22246
 H1101 H 0.09013 0.40936 0.30075
 H1102 H 0.07171 0.38782 0.22738
 H1103 H 0.03721 0.36660 0.24335
 H1104 H 0.05552 0.38807 0.31680
   
