data_POSCAR
  _audit_creation_date              2014-09-24
  _audit_creation_method            'ToBaCCo'
  _symmetry_space_group_name_H-M    'P1'
  _symmetry_Int_Tables_number       1
  _symmetry_cell_setting            triclinic
  loop_
  _symmetry_equiv_pos_as_xyz
 x,y,z
_cell_length_a 33.6399
_cell_length_b 33.8305
_cell_length_c 33.2147
_cell_angle_alpha 90.563000
_cell_angle_beta 89.776500
_cell_angle_gamma 120.204000
loop_
  _atom_site_label
  _atom_site_type_symbol
  _atom_site_fract_x
  _atom_site_fract_y
  _atom_site_fract_z
C1 C 0.52461 0.06810 0.05611
 H2 H 0.55742 0.06945 0.05539
 C3 C 0.51915 0.09940 0.07971
 H4 H 0.54779 0.12487 0.09737
 C5 C 0.44754 0.03414 0.03305
 H6 H 0.42005 0.00928 0.01420
 C7 C 0.44063 0.06489 0.05624
 H8 H 0.40770 0.06337 0.05548
 N9 N 0.48901 0.03619 0.03356
 C10 C 0.52262 -0.07114 0.01263
 H11 H 0.52224 -0.07237 -0.01993
 C12 C 0.52973 -0.10217 0.03440
 H13 H 0.53503 -0.12731 0.01861
 C14 C 0.51431 -0.03811 0.07312
 H15 H 0.50716 -0.01391 0.08811
 C16 C 0.52126 -0.06853 0.09603
 H17 H 0.51986 -0.06736 0.12859
 Zn18 Zn 0.50126 -0.00227 0.00046
 N19 N 0.51516 -0.03991 0.03218
 C20 C 0.59159 0.03566 -0.03266
 N21 N 0.55154 0.03650 -0.03272
 C22 C 0.54670 0.06727 -0.05513
 C23 C 0.58282 0.09852 -0.07913
 C24 C 0.62866 0.06642 -0.05628
 C25 C 0.41082 -0.07313 -0.01174
 C26 C 0.37234 -0.10508 -0.03352
 C27 C 0.41386 -0.07180 -0.09517
 C28 C 0.45154 -0.04049 -0.07220
 N29 N 0.44932 -0.04163 -0.03126
 H30 H 0.59511 0.01167 -0.01394
 H31 H 0.51475 0.06765 -0.05407
 H32 H 0.57868 0.12299 -0.09675
 H33 H 0.66055 0.06581 -0.05597
 H34 H 0.41034 -0.07378 0.02082
 H35 H 0.34207 -0.13028 -0.01757
 H36 H 0.41627 -0.07086 -0.12775
 H37 H 0.48278 -0.01601 -0.08715
 C38 C 0.52878 -0.10099 0.07648
 C39 C 0.47684 0.09786 0.07968
 C40 C 0.37394 -0.10455 -0.07566
 C41 C 0.62418 0.09815 -0.07966
 C42 C -0.07078 0.48014 0.61084
 H43 H -0.07261 0.44728 0.61048
 C44 C -0.10143 0.48675 0.58770
 H45 H -0.12689 0.45896 0.56929
 C46 C -0.03619 0.55616 0.63617
 H47 H -0.01132 0.58278 0.65570
 C48 C -0.06630 0.56420 0.61346
 H49 H -0.06430 0.59715 0.61529
 N50 N -0.03886 0.51466 0.63430
 C51 C 0.06758 0.47899 0.65256
 H52 H 0.06826 0.47820 0.68510
 C53 C 0.09878 0.47211 0.63003
 H54 H 0.12349 0.46582 0.64520
 C55 C 0.03576 0.48990 0.59297
 H56 H 0.01196 0.49793 0.57865
 C57 C 0.06635 0.48322 0.56932
 H58 H 0.06569 0.48571 0.53686
 Zn59 Zn -0.00135 0.50072 0.66650
 N60 N 0.03684 0.48758 0.63382
 C61 C -0.04097 0.40969 0.69644
 N62 N -0.04155 0.44961 0.69789
 C63 C -0.07309 0.45378 0.72040
 C64 C -0.10555 0.41706 0.74295
 C65 C -0.07286 0.37202 0.71863
 C66 C 0.07037 0.58973 0.68198
 C67 C 0.10220 0.62685 0.70515
 C68 C 0.06649 0.58336 0.76512
 C69 C 0.03535 0.54708 0.74081
 N70 N 0.03777 0.55090 0.70003
 H71 H -0.01634 0.40671 0.67762
 H72 H -0.07309 0.48576 0.72060
 H73 H -0.13006 0.42130 0.76098
 H74 H -0.07241 0.34029 0.71666
 H75 H 0.07208 0.59150 0.64947
 H76 H 0.12850 0.65706 0.69016
 H77 H 0.06391 0.57971 0.79753
 H78 H 0.00985 0.51565 0.75462
 C79 C 0.09827 0.47447 0.58804
 C80 C -0.09926 0.52910 0.58910
 C81 C 0.10072 0.62382 0.74733
 C82 C -0.10589 0.37538 0.74211
 C83 C 0.54742 0.47968 0.38908
 H84 H 0.51577 0.44703 0.38848
 C85 C 0.58377 0.48591 0.41354
 H86 H 0.57989 0.45767 0.43154
 C87 C 0.59132 0.55540 0.36482
 H88 H 0.59433 0.58213 0.34532
 C89 C 0.62867 0.56308 0.38878
 H90 H 0.65992 0.59609 0.38800
 N91 N 0.55163 0.51426 0.36559
 C92 C 0.41012 0.47997 0.34347
 H93 H 0.40950 0.47902 0.31090
 C94 C 0.37145 0.47334 0.36486
 H95 H 0.34085 0.46657 0.34849
 C96 C 0.45116 0.49060 0.40422
 H97 H 0.48266 0.49853 0.41944
 C98 C 0.41329 0.48416 0.42679
 H99 H 0.41616 0.48721 0.45927
 Zn100 Zn 0.50107 0.50102 0.33202
 N101 N 0.44889 0.48829 0.36331
 C102 C 0.44858 0.41014 0.30045
 N103 N 0.48972 0.44988 0.29991
 C104 C 0.52554 0.45386 0.27767
 C105 C 0.52056 0.41728 0.25412
 C106 C 0.44213 0.37257 0.27738
 C107 C 0.52084 0.59045 0.31780
 C108 C 0.52730 0.62779 0.29513
 C109 C 0.51965 0.58439 0.23455
 C110 C 0.51333 0.54789 0.25837
 N111 N 0.51407 0.55155 0.29921
 H112 H 0.42084 0.40731 0.31900
 H113 H 0.55815 0.48557 0.27845
 H114 H 0.54972 0.42104 0.23702
 H115 H 0.40905 0.34134 0.27785
 H116 H 0.52035 0.59210 0.35033
 H117 H 0.53156 0.65804 0.31052
 H118 H 0.51902 0.58083 0.20210
 H119 H 0.50691 0.51640 0.24410
 C120 C 0.37282 0.47571 0.40712
 C121 C 0.62513 0.52803 0.41356
 C122 C 0.52637 0.62490 0.25290
 C123 C 0.47842 0.37592 0.25375
 C124 C 0.27191 0.48909 0.43961
 C125 C 0.26001 0.46603 0.47634
 C126 C 0.28416 0.44506 0.49001
 C127 C 0.32043 0.44758 0.46726
 C128 C 0.13176 0.47012 0.56429
 C129 C 0.30812 0.49164 0.41682
 C130 C 0.22405 0.46532 0.50051
 C131 C 0.19444 0.46579 0.52071
 C132 C 0.16036 0.46756 0.54427
 C133 C 0.33303 0.47117 0.43051
 H134 H 0.25361 0.50567 0.42885
 H135 H 0.27523 0.42711 0.51841
 H136 H 0.33858 0.43103 0.47838
 H137 H 0.31738 0.51063 0.38899
 C138 C 0.50529 0.69007 0.17140
 C139 C 0.53585 0.73545 0.18265
 C140 C 0.56408 0.74482 0.21643
 C141 C 0.56146 0.70893 0.23907
 C142 C 0.53308 0.86550 0.09945
 C143 C 0.50262 0.65417 0.19395
 C144 C 0.53711 0.77216 0.16008
 C145 C 0.53699 0.80226 0.14105
 C146 C 0.53550 0.83673 0.11865
 C147 C 0.53053 0.66317 0.22818
 H148 H 0.48309 0.68242 0.14544
 H149 H 0.58787 0.77984 0.22541
 H150 H 0.58374 0.71696 0.26500
 H151 H 0.47794 0.61939 0.18513
 C152 C 0.18875 0.68855 0.82931
 C153 C 0.20408 0.73399 0.81899
 C154 C 0.18504 0.74353 0.78568
 C155 C 0.15105 0.70776 0.76257
 C156 C 0.33916 0.86446 0.90339
 C157 C 0.15479 0.65277 0.80629
 C158 C 0.24020 0.77061 0.84204
 C159 C 0.27094 0.80075 0.86138
 C160 C 0.30748 0.83540 0.88404
 C161 C 0.13568 0.66194 0.77253
 H162 H 0.20343 0.68077 0.85490
 H163 H 0.19666 0.77859 0.77743
 H164 H 0.13666 0.71593 0.73704
 H165 H 0.14426 0.61793 0.81439
 C166 C 0.69393 0.52039 0.50028
 C167 C 0.73842 0.54224 0.48426
 C168 C 0.74625 0.56111 0.44572
 C169 C 0.70959 0.55744 0.42301
 C170 C 0.86811 0.53563 0.56649
 C171 C 0.65726 0.51663 0.47763
 C172 C 0.77539 0.54312 0.50667
 C173 C 0.80553 0.54229 0.52549
 C174 C 0.83978 0.53953 0.54759
 C175 C 0.66457 0.53464 0.43854
 H176 H 0.68747 0.50565 0.53007
 H177 H 0.78052 0.57786 0.43294
 H178 H 0.71623 0.57119 0.39285
 H179 H 0.62311 0.49944 0.49062
 C180 C 0.44627 0.25504 0.22283
 C181 C 0.46640 0.26229 0.18465
 C182 C 0.48912 0.30634 0.16856
 C183 C 0.49235 0.34315 0.19074
 C184 C 0.47143 0.13115 0.10264
 C185 C 0.44940 0.29184 0.24508
 C186 C 0.46547 0.22504 0.16251
 C187 C 0.46603 0.19462 0.14380
 C188 C 0.46823 0.15993 0.12169
 C189 C 0.47291 0.33640 0.22943
 H190 H 0.42879 0.22110 0.23565
 H191 H 0.50481 0.31234 0.13903
 H192 H 0.51010 0.37693 0.17765
 H193 H 0.43454 0.28563 0.27494
 C194 C -0.21988 0.28944 0.78875
 C195 C -0.20782 0.26139 0.80979
 C196 C -0.16253 0.27004 0.80824
 C197 C -0.12934 0.30687 0.78594
 C198 C -0.33794 0.13121 0.89663
 C199 C -0.18682 0.32623 0.76652
 C200 C -0.24198 0.22444 0.83353
 C201 C -0.27145 0.19424 0.85343
 C202 C -0.30691 0.15980 0.87673
 C203 C -0.14109 0.33557 0.76505
 H204 H -0.25485 0.28299 0.78966
 H205 H -0.15279 0.24862 0.82453
 H206 H -0.09434 0.31345 0.78567
 H207 H -0.19712 0.34721 0.75025
   
