data_POSCAR
  _audit_creation_date              2014-09-24
  _audit_creation_method            'ToBaCCo'
  _symmetry_space_group_name_H-M    'P1'
  _symmetry_Int_Tables_number       1
  _symmetry_cell_setting            triclinic
  loop_
  _symmetry_equiv_pos_as_xyz
 x,y,z
_cell_length_a 36.0911
_cell_length_b 37.1427
_cell_length_c 34.5901
_cell_angle_alpha 91.462300
_cell_angle_beta 89.914400
_cell_angle_gamma 92.390400
loop_
  _atom_site_label
  _atom_site_type_symbol
  _atom_site_fract_x
  _atom_site_fract_y
  _atom_site_fract_z
C1 C 0.27647 0.45184 0.99340
 C2 C 0.25077 0.45050 1.02875
 C3 C 0.22945 0.47991 1.03262
 C4 C 0.23568 0.50792 1.00094
 C5 C 0.25084 0.45679 0.95884
 C6 C 0.22948 0.48612 0.96284
 C7 C 0.29889 0.48750 0.99798
 C8 C 0.27768 0.51676 1.00197
 H9 H 0.24917 0.42820 1.04848
 H10 H 0.21838 0.53189 1.00411
 H11 H 0.24887 0.43818 0.93410
 H12 H 0.32903 0.48943 0.99852
 C13 C 0.72519 0.54881 0.00752
 C14 C 0.75020 0.54407 0.04265
 C15 C 0.77149 0.51460 0.03933
 C16 C 0.76587 0.49254 0.00133
 C17 C 0.75148 0.54978 -0.02734
 C18 C 0.77277 0.52030 -0.03049
 C19 C 0.70274 0.51318 0.00289
 C20 C 0.72388 0.48384 -0.00036
 H21 H 0.75191 0.56292 0.06719
 H22 H 0.78310 0.46849 -0.00130
 H23 H 0.75352 0.57193 -0.04727
 H24 H 0.67260 0.51130 0.00229
 C25 C 0.04545 0.21967 0.50210
 C26 C 0.04303 0.24139 0.46788
 C27 C 0.01068 0.26249 0.46737
 C28 C -0.01334 0.25793 0.50100
 C29 C 0.04324 0.24637 0.53662
 C30 C 0.01236 0.26651 0.53595
 C31 C 0.00907 0.19705 0.50333
 C32 C -0.02171 0.21695 0.50276
 H33 H 0.06507 0.24396 0.44655
 H34 H -0.03863 0.27403 0.50063
 H35 H 0.06500 0.25049 0.55814
 H36 H 0.00775 0.16778 0.50412
 C37 C 0.95282 0.78086 0.49665
 C38 C 0.95539 0.75399 0.46240
 C39 C 0.98641 0.73413 0.46326
 C40 C 1.01206 0.74304 0.49804
 C41 C 0.95551 0.75796 0.53276
 C42 C 0.98651 0.73807 0.53336
 C43 C 0.98902 0.80362 0.49576
 C44 C 1.01993 0.78401 0.49646
 H45 H 0.93368 0.74953 0.44086
 H46 H 1.03744 0.72711 0.49863
 H47 H 0.93370 0.75566 0.55434
 H48 H 0.99014 0.83288 0.49463
 C49 C 0.50122 0.04983 0.21188
 C50 C 0.46724 0.04885 0.23868
 C51 C 0.46606 0.01999 0.26241
 C52 C 0.49875 -0.00505 0.25721
 C53 C 0.53470 0.04913 0.23912
 C54 C 0.53330 0.02029 0.26287
 C55 C 0.50002 0.01529 0.19126
 C56 C 0.49864 -0.01474 0.21620
 H57 H 0.44645 0.06919 0.23921
 H58 H 0.49771 -0.02850 0.27662
 H59 H 0.55702 0.06969 0.23999
 H60 H 0.50003 0.01235 0.15989
 C61 C 0.49765 -0.05170 0.78609
 C62 C 0.46365 -0.05086 0.75970
 C63 C 0.46457 -0.02212 0.73592
 C64 C 0.49922 0.00311 0.74050
 C65 C 0.53113 -0.05058 0.75876
 C66 C 0.53185 -0.02183 0.73498
 C67 C 0.49930 -0.01515 0.80766
 C68 C 0.50013 0.01345 0.78375
 H69 H 0.44124 -0.07133 0.75942
 H70 H 0.49987 0.02651 0.72107
 H71 H 0.55220 -0.07064 0.75818
 H72 H 0.50001 -0.01213 0.83899
 C73 C 0.30864 0.02541 0.45648
 H74 H 0.30945 0.04507 0.48012
 C75 C 0.33479 0.02789 0.42690
 H76 H 0.35575 0.04965 0.42755
 C77 C 0.28090 -0.02757 0.42728
 H78 H 0.26033 -0.04951 0.42800
 C79 C 0.30664 -0.02609 0.39704
 H80 H 0.30561 -0.04668 0.37428
 N81 N 0.28227 -0.00186 0.45607
 C82 C 0.19619 0.04090 0.53072
 H83 H 0.19412 0.02052 0.55251
 C84 C 0.17317 0.07024 0.53264
 H85 H 0.15325 0.07248 0.55595
 C86 C 0.22382 0.06243 0.47303
 H87 H 0.24301 0.05896 0.44938
 C88 C 0.20132 0.09214 0.47386
 H89 H 0.20345 0.11153 0.45100
 Zn90 Zn 0.25043 -0.00355 0.49938
 N91 N 0.22105 0.03764 0.50135
 C92 C 0.28201 0.02121 0.57157
 N93 N 0.28175 -0.00466 0.54296
 C94 C 0.30625 -0.03151 0.54280
 C95 C 0.33219 -0.03333 0.57242
 C96 C 0.30760 0.02039 0.60183
 C97 C 0.19346 -0.04862 0.46748
 C98 C 0.16813 -0.07809 0.46534
 C99 C 0.19407 -0.10002 0.52420
 C100 C 0.21895 -0.07015 0.52524
 N101 N 0.21828 -0.04524 0.49705
 H102 H 0.26295 0.04283 0.57064
 H103 H 0.30584 -0.05130 0.51928
 H104 H 0.35171 -0.05472 0.57192
 H105 H 0.30793 0.04116 0.62441
 H106 H 0.19311 -0.02814 0.44582
 H107 H 0.14810 -0.08029 0.44201
 H108 H 0.19437 -0.11937 0.54709
 H109 H 0.23820 -0.06659 0.54903
 C110 C 0.17575 0.09607 0.50391
 C111 C 0.33384 0.00188 0.39699
 C112 C 0.16838 -0.10396 0.49403
 C113 C 0.33296 -0.00709 0.60210
 C114 C 0.69208 0.02946 0.54702
 H115 H 0.69191 0.05080 0.52632
 C116 C 0.66592 0.02833 0.57679
 H117 H 0.64565 0.04898 0.57925
 C118 C 0.71753 -0.02456 0.56810
 H119 H 0.73694 -0.04566 0.56399
 C120 C 0.69185 -0.02669 0.59827
 H121 H 0.69187 -0.04921 0.61757
 N122 N 0.71716 0.00323 0.54321
 C123 C 0.80536 0.04933 0.47101
 H124 H 0.80591 0.02879 0.44830
 C125 C 0.83052 0.07889 0.47041
 H126 H 0.85065 0.08107 0.44723
 C127 C 0.77925 0.07103 0.52966
 H128 H 0.75967 0.06754 0.55304
 C129 C 0.80402 0.10103 0.53019
 H130 H 0.80341 0.12057 0.55394
 Zn131 Zn 0.74822 0.00425 0.49919
 N132 N 0.78027 0.04601 0.50023
 C133 C 0.71800 0.03162 0.43051
 N134 N 0.71638 0.00418 0.45588
 C135 C 0.68980 -0.02283 0.45287
 C136 C 0.66350 -0.02302 0.42332
 C137 C 0.69222 0.03245 0.40052
 C138 C 0.80338 -0.03950 0.52603
 C139 C 0.82629 -0.06887 0.52636
 C140 C 0.79708 -0.09161 0.46732
 C141 C 0.77465 -0.06180 0.46809
 N142 N 0.77794 -0.03666 0.49738
 H143 H 0.73865 0.05334 0.43397
 H144 H 0.68872 -0.04390 0.47392
 H145 H 0.64216 -0.04438 0.42139
 H146 H 0.69334 0.05462 0.38073
 H147 H 0.80575 -0.01889 0.54866
 H148 H 0.84649 -0.07087 0.54926
 H149 H 0.79442 -0.11143 0.44385
 H150 H 0.75488 -0.05870 0.44514
 C151 C 0.82990 0.10495 0.50028
 C152 C 0.66566 -0.00016 0.60244
 C153 C 0.82306 -0.09520 0.49678
 C154 C 0.66463 0.00499 0.39706
 C155 C 0.48149 0.20145 1.02193
 H156 H 0.46110 0.19928 0.99901
 C157 C 0.47973 0.17728 1.05210
 H158 H 0.45789 0.15637 1.05254
 C159 C 0.53554 0.23074 1.04886
 H160 H 0.55766 0.25112 1.04706
 C161 C 0.53481 0.20704 1.07959
 H162 H 0.55619 0.20938 1.10156
 N163 N 0.50891 0.22767 1.02099
 C164 C 0.46186 0.30823 0.94837
 H165 H 0.48234 0.31019 0.92557
 C166 C 0.43114 0.32993 0.94810
 H167 H 0.42792 0.34875 0.92505
 C168 C 0.44155 0.28227 1.00709
 H169 H 0.44607 0.26434 1.03053
 C170 C 0.41050 0.30344 1.00790
 H171 H 0.39115 0.30154 1.03181
 Zn172 Zn 0.50949 0.25753 0.97765
 N173 N 0.46638 0.28487 0.97751
 C174 C 0.48288 0.22375 0.90758
 N175 N 0.51096 0.22630 0.93388
 C176 C 0.53930 0.20329 0.93248
 C177 C 0.53984 0.17591 0.90420
 C178 C 0.48231 0.19660 0.87881
 C179 C 0.55308 0.31443 1.00914
 C180 C 0.58303 0.33927 1.01236
 C181 C 0.60868 0.31359 0.95376
 C182 C 0.57821 0.28911 0.95166
 N183 N 0.55135 0.28981 0.97934
 H184 H 0.46010 0.24164 0.90987
 H185 H 0.56075 0.20542 0.95433
 H186 H 0.56186 0.15695 0.90413
 H187 H 0.45921 0.19381 0.85885
 H188 H 0.53107 0.31468 1.03041
 H189 H 0.58406 0.35891 1.03608
 H190 H 0.62981 0.31315 0.93150
 H191 H 0.57592 0.26988 0.92775
 C192 C 0.40530 0.32752 0.97820
 C193 C 0.50664 0.18010 1.08113
 C194 C 0.61109 0.33881 0.98446
 C195 C 0.51080 0.17219 0.87753
 C196 C 0.46473 0.79568 -0.02443
 H197 H 0.44366 0.79686 -0.00221
 C198 C 0.46445 0.81942 -0.05500
 H199 H 0.44305 0.83895 -0.05647
 C200 C 0.51924 0.76971 -0.04895
 H201 H 0.54105 0.75095 -0.04598
 C202 C 0.52001 0.79303 -0.08002
 H203 H 0.54220 0.79193 -0.10108
 N204 N 0.49176 0.77138 -0.02203
 C205 C 0.44311 0.68933 0.05273
 H206 H 0.46334 0.68966 0.07580
 C207 C 0.41282 0.66466 0.05300
 H208 H 0.40972 0.64580 0.07627
 C209 C 0.42335 0.71217 -0.00690
 H210 H 0.42804 0.72999 -0.03075
 C211 C 0.39271 0.68795 -0.00775
 H212 H 0.37389 0.68732 -0.03216
 Zn213 Zn 0.49126 0.74274 0.02232
 N214 N 0.44784 0.71239 0.02302
 C215 C 0.46550 0.77625 0.09209
 N216 N 0.49296 0.77525 0.06509
 C217 C 0.52167 0.80015 0.06545
 C218 C 0.52349 0.82766 0.09359
 C219 C 0.46620 0.80351 0.12078
 C220 C 0.53537 0.68825 -0.00678
 C221 C 0.56586 0.66638 -0.00902
 C222 C 0.59022 0.69589 0.04921
 C223 C 0.55926 0.71725 0.05035
 N224 N 0.53289 0.71343 0.02225
 H225 H 0.44245 0.75675 0.09067
 H226 H 0.54265 0.79912 0.04313
 H227 H 0.54600 0.84788 0.09304
 H228 H 0.44377 0.80488 0.14154
 H229 H 0.51375 0.68546 -0.02842
 H230 H 0.56774 0.64653 -0.03237
 H231 H 0.61116 0.69912 0.07158
 H232 H 0.55638 0.73677 0.07371
 C233 C 0.38755 0.66382 0.02231
 C234 C 0.49242 0.81816 -0.08292
 C235 C 0.59363 0.67041 0.01910
 C236 C 0.49532 0.82960 0.12121
 C237 C 1.04482 0.46288 0.19932
 H238 H 1.02292 0.44208 0.19892
 C239 C 1.07335 0.46169 0.17212
 H240 H 1.07359 0.43977 0.15086
 C241 C 1.07057 0.51753 0.22670
 H242 H 1.06890 0.53963 0.24745
 C243 C 1.09967 0.51737 0.19990
 H244 H 1.12058 0.53916 0.20036
 N245 N 1.04394 0.49044 0.22596
 C246 C 0.97194 0.44643 0.31673
 H247 H 0.95039 0.46583 0.31761
 C248 C 0.97091 0.41794 0.34247
 H249 H 0.94842 0.41528 0.36312
 C250 C 1.02823 0.42673 0.28966
 H251 H 1.05097 0.43062 0.26967
 C252 C 1.02824 0.39791 0.31484
 H253 H 1.05080 0.37955 0.31384
 Zn254 Zn 1.00169 0.49085 0.25855
 N255 N 1.00024 0.45022 0.29089
 C256 C 0.93234 0.46439 0.22562
 N257 N 0.96022 0.49024 0.22498
 C258 C 0.96076 0.51663 0.19840
 C259 C 0.93223 0.51819 0.17145
 C260 C 0.90313 0.46497 0.19904
 C261 C 1.03001 0.53844 0.31728
 C262 C 1.03045 0.56851 0.34253
 C263 C 0.97353 0.58655 0.31346
 C264 C 0.97413 0.55622 0.28880
 N265 N 1.00223 0.53300 0.29090
 H266 H 0.93281 0.44322 0.24643
 H267 H 0.98354 0.53650 0.19820
 H268 H 0.93292 0.53942 0.15052
 H269 H 0.88096 0.44442 0.19968
 H270 H 1.05167 0.51926 0.31882
 H271 H 1.05257 0.57259 0.36351
 H272 H 0.95094 0.60475 0.31167
 H273 H 0.95177 0.55105 0.26845
 C274 C 0.99940 0.39350 0.34157
 C275 C 1.10093 0.48925 0.17226
 C276 C 1.00190 0.59277 0.34058
 C277 C 0.90314 0.49217 0.17174
 C278 C -0.04439 0.48143 0.80277
 H279 H -0.02398 0.46091 0.80290
 C280 C -0.07277 0.48112 0.83029
 H281 H -0.07440 0.46018 0.85154
 C282 C -0.06642 0.53463 0.77592
 H283 H -0.06334 0.55593 0.75533
 C284 C -0.09523 0.53531 0.80294
 H285 H -0.11447 0.55693 0.80280
 N286 N -0.04174 0.50789 0.77628
 C287 C 0.02622 0.46455 0.68286
 H288 H 0.04752 0.48585 0.68147
 C289 C 0.02704 0.43494 0.65722
 H290 H 0.04913 0.43333 0.63608
 C291 C -0.02881 0.44075 0.71189
 H292 H -0.05077 0.44333 0.73288
 C293 C -0.02901 0.41064 0.68674
 H294 H -0.05096 0.38995 0.68869
 Zn295 Zn -0.00006 0.50833 0.74287
 N296 N -0.00118 0.46676 0.70979
 C297 C 0.06650 0.48209 0.77338
 N298 N 0.04242 0.50935 0.77514
 C299 C 0.04611 0.53631 0.80244
 C300 C 0.07484 0.53647 0.82952
 C301 C 0.09561 0.48125 0.79987
 C302 C -0.02778 0.55042 0.68474
 C303 C -0.02890 0.57895 0.65930
 C304 C 0.02802 0.60400 0.68752
 C305 C 0.02808 0.57496 0.71250
 N306 N 0.00025 0.54905 0.71085
 H307 H 0.06260 0.46040 0.75222
 H308 H 0.02614 0.55724 0.80371
 H309 H 0.07720 0.55769 0.85156
 H310 H 0.11424 0.45912 0.79869
 H311 H -0.04924 0.52919 0.68366
 H312 H -0.05137 0.57980 0.63865
 H313 H 0.05024 0.62451 0.68895
 H314 H 0.05052 0.57300 0.73287
 C315 C -0.00075 0.40768 0.65924
 C316 C -0.09830 0.50843 0.83050
 C317 C -0.00076 0.60600 0.66068
 C318 C 0.09963 0.50850 0.82839
 C319 C 0.07761 0.19671 0.50274
 C320 C 0.10218 0.17569 0.50332
 C321 C 0.12912 0.14919 0.50389
 C322 C 0.15089 0.12543 0.50412
 C323 C 0.70086 0.57937 0.01087
 C324 C 0.67849 0.60250 0.01331
 C325 C 0.65025 0.62757 0.01576
 C326 C 0.62490 0.64764 0.01749
 C327 C 0.92052 -0.19641 0.49600
 C328 C 0.89589 -0.17544 0.49573
 C329 C 0.86903 -0.14887 0.49574
 C330 C 0.84747 -0.12491 0.49604
 C331 C 0.30066 0.42124 0.98912
 C332 C 0.32260 0.39779 0.98580
 C333 C 0.35014 0.37206 0.98235
 C334 C 0.37483 0.35126 0.98002
 C335 C 0.94190 0.19942 0.50265
 C336 C 0.91339 0.18130 0.50244
 C337 C 0.88231 0.15690 0.50199
 C338 C 0.85756 0.13405 0.50137
 C339 C 0.29473 0.55223 0.00760
 C340 C 0.31237 0.58027 0.01200
 C341 C 0.33624 0.61113 0.01654
 C342 C 0.35875 0.63591 0.01967
 C343 C 0.05618 -0.19821 0.49572
 C344 C 0.08458 -0.17996 0.49508
 C345 C 0.11561 -0.15554 0.49442
 C346 C 0.14043 -0.13279 0.49407
 C347 C 0.70666 0.44833 0.99529
 C348 C 0.68862 0.42042 0.99199
 C349 C 0.66405 0.39000 0.98866
 C350 C 0.64083 0.36579 0.98640
 C351 C 0.50267 0.08035 1.18586
 C352 C 0.50387 0.10457 1.16339
 C353 C 0.50514 0.13189 1.13589
 C354 C 0.50600 0.15435 1.11141
 C355 C -0.00856 0.71072 0.56158
 C356 C -0.00543 0.68737 0.58484
 C357 C -0.00283 0.65953 0.61171
 C358 C -0.00146 0.63536 0.63426
 C359 C 0.49673 0.91789 -0.18777
 C360 C 0.49588 0.89371 -0.16522
 C361 C 0.49478 0.86640 -0.13769
 C362 C 0.49375 0.84392 -0.11321
 C363 C 1.00656 0.28903 0.44123
 C364 C 1.00365 0.31270 0.41828
 C365 C 1.00117 0.34066 0.39150
 C366 C 0.99989 0.36467 0.36871
 C367 C 0.49719 0.95074 0.20186
 C368 C 0.49609 0.92106 0.18700
 C369 C 0.49519 0.88762 0.16681
 C370 C 0.49491 0.86034 0.14724
 C371 C 0.00728 0.29624 0.56282
 C372 C 0.00407 0.32141 0.58515
 C373 C 0.00140 0.35118 0.61114
 C374 C -0.00002 0.37681 0.63317
 C375 C 0.50224 0.04997 0.79866
 C376 C 0.50410 0.07974 0.81330
 C377 C 0.50636 0.11341 0.83303
 C378 C 0.50836 0.14098 0.85212
 C379 C 0.99187 0.70426 0.43664
 C380 C 0.99561 0.67896 0.41460
 C381 C 0.99896 0.64907 0.38888
 C382 C 1.00087 0.62344 0.36692
 C383 C 1.20257 0.48354 0.06322
 C384 C 1.17993 0.48592 0.08874
 C385 C 1.15306 0.48792 0.11839
 C386 C 1.12964 0.48893 0.14328
 C387 C 0.56077 -0.01577 0.70691
 C388 C 0.58503 -0.01123 0.68339
 C389 C 0.61339 -0.00660 0.65566
 C390 C 0.63741 -0.00329 0.63164
 C391 C -0.19987 0.51637 0.93944
 C392 C -0.17694 0.51371 0.91425
 C393 C -0.14991 0.51128 0.88482
 C394 C -0.12658 0.50972 0.85989
 C395 C 0.43715 0.01433 0.29055
 C396 C 0.41299 0.01024 0.31425
 C397 C 0.38492 0.00632 0.34238
 C398 C 0.36132 0.00381 0.36692
 C399 C 0.20177 0.49397 0.93462
 C400 C 0.17859 0.49918 0.91054
 C401 C 0.15137 0.50381 0.88198
 C402 C 0.12794 0.50657 0.85751
 C403 C 0.56135 0.01510 0.29148
 C404 C 0.58504 0.01160 0.31541
 C405 C 0.61288 0.00845 0.34351
 C406 C 0.63660 0.00650 0.36774
 C407 C 0.79889 0.50684 0.06792
 C408 C 0.82205 0.50150 0.09197
 C409 C 0.84960 0.49666 0.12012
 C410 C 0.87365 0.49384 0.14391
 C411 C 0.43592 -0.01690 0.70798
 C412 C 0.41191 -0.01331 0.68443
 C413 C 0.38394 -0.01010 0.65648
 C414 C 0.36040 -0.00823 0.63207
   
