data_POSCAR
  _audit_creation_date              2014-09-24
  _audit_creation_method            'ToBaCCo'
  _symmetry_space_group_name_H-M    'P1'
  _symmetry_Int_Tables_number       1
  _symmetry_cell_setting            triclinic
  loop_
  _symmetry_equiv_pos_as_xyz
 x,y,z
_cell_length_a 46.0901
_cell_length_b 43.8318
_cell_length_c 8.9639
_cell_angle_alpha 89.608200
_cell_angle_beta 90.000000
_cell_angle_gamma 89.931000
loop_
  _atom_site_label
  _atom_site_type_symbol
  _atom_site_fract_x
  _atom_site_fract_y
  _atom_site_fract_z
O1 O 0.21817 0.21815 0.34477
 O2 O 0.27327 0.27746 0.40216
 O3 O 0.21790 0.27743 0.33958
 O4 O 0.27390 0.21817 0.39590
 O5 O 0.28288 0.21873 0.15359
 O6 O 0.22729 0.27788 0.09765
 O7 O 0.28265 0.27798 0.16024
 O8 O 0.22715 0.21857 0.10243
 Cu9 Cu 0.24486 0.24777 0.39482
 Cu10 Cu 0.25594 0.24836 0.10426
 C11 C 0.21319 0.20846 0.21442
 C12 C 0.28744 0.28758 0.29127
 C13 C 0.21303 0.28748 0.20877
 C14 C 0.28794 0.20857 0.28370
 O15 O 0.71821 0.28178 0.15375
 O16 O 0.77348 0.22251 0.09631
 O17 O 0.71811 0.22251 0.15894
 O18 O 0.77393 0.28180 0.10262
 O19 O 0.78292 0.28125 0.34493
 O20 O 0.72750 0.22206 0.40086
 O21 O 0.78286 0.22199 0.33823
 O22 O 0.72719 0.28136 0.39609
 Cu23 Cu 0.74499 0.25218 0.10368
 Cu24 Cu 0.75607 0.25160 0.39424
 C25 C 0.71320 0.29146 0.28412
 C26 C 0.78768 0.21239 0.20720
 C27 C 0.71327 0.21245 0.28975
 C28 C 0.78795 0.29142 0.21482
 O29 O 0.71794 0.71831 0.84630
 O30 O 0.77328 0.77737 0.90353
 O31 O 0.71791 0.77758 0.84090
 O32 O 0.77367 0.71808 0.89741
 O33 O 0.78265 0.71857 0.65510
 O34 O 0.72730 0.77796 0.59898
 O35 O 0.78266 0.77783 0.66160
 O36 O 0.72692 0.71866 0.60396
 Cu37 Cu 0.74475 0.74781 0.89626
 Cu38 Cu 0.75584 0.74831 0.60569
 C39 C 0.71292 0.70862 0.71597
 C40 C 0.78749 0.78742 0.79260
 C41 C 0.71308 0.78763 0.71006
 C42 C 0.78767 0.70840 0.78524
 O43 O 0.28182 0.78132 0.84614
 O44 O 0.22649 0.72206 0.90240
 O45 O 0.28185 0.72206 0.83979
 O46 O 0.22609 0.78136 0.89727
 O47 O 0.21711 0.78170 0.65496
 O48 O 0.27247 0.72252 0.59787
 O49 O 0.21710 0.72243 0.66048
 O50 O 0.27283 0.78181 0.60380
 Cu51 Cu 0.25501 0.75164 0.89562
 Cu52 Cu 0.24393 0.75214 0.60506
 C53 C 0.28683 0.79146 0.71596
 C54 C 0.21227 0.71240 0.79134
 C55 C 0.28669 0.71245 0.70881
 C56 C 0.21208 0.79142 0.78526
 C57 C 0.99950 0.07947 0.08132
 C58 C 1.02546 0.06308 0.08242
 C59 C 1.02533 0.03167 0.05511
 C60 C 0.99935 0.01634 0.01721
 C61 C 0.97342 0.03371 0.01292
 C62 C 0.97346 0.06476 0.04882
 C63 C 0.99934 -0.01728 -0.01748
 C64 C 0.97340 -0.03457 -0.01315
 C65 C 0.97343 -0.06563 -0.04906
 C66 C 0.99947 -0.08041 -0.08159
 C67 C 1.02543 -0.06410 -0.08272
 C68 C 1.02531 -0.03269 -0.05541
 H69 H 0.99957 0.10368 0.10571
 H70 H 1.04572 0.01966 0.06469
 H71 H 0.95298 0.02363 -0.01877
 H72 H 0.95297 -0.02443 0.01856
 H73 H 0.99953 -0.10462 -0.10602
 H74 H 1.04570 -0.02074 -0.06501
 C75 C 0.49886 0.58006 0.58280
 C76 C 0.52484 0.56371 0.58368
 C77 C 0.52475 0.53232 0.55597
 C78 C 0.49879 0.51697 0.51786
 C79 C 0.47284 0.53429 0.51380
 C80 C 0.47284 0.56533 0.55012
 C81 C 0.49884 0.48336 0.48272
 C82 C 0.47293 0.46603 0.48679
 C83 C 0.47302 0.43499 0.45047
 C84 C 0.49908 0.42028 0.41778
 C85 C 0.52501 0.43664 0.41688
 C86 C 0.52484 0.46803 0.44460
 H87 H 0.49890 0.60426 0.60750
 H88 H 0.54516 0.52033 0.56539
 H89 H 0.45241 0.52420 0.48201
 H90 H 0.45248 0.47611 0.51859
 H91 H 0.49919 0.39608 0.39309
 H92 H 0.54521 0.48002 0.43515
 C93 C 0.00045 0.41968 0.08317
 C94 C -0.02553 0.43601 0.08392
 C95 C -0.02546 0.46747 0.05606
 C96 C 0.00049 0.48293 0.01795
 C97 C 0.02645 0.46563 0.01396
 C98 C 0.02647 0.43450 0.05045
 C99 C 0.00045 0.51663 -0.01731
 C100 C 0.02636 0.53395 -0.01330
 C101 C 0.02629 0.56508 -0.04979
 C102 C 0.00024 0.57989 -0.08255
 C103 C -0.02570 0.56355 -0.08335
 C104 C -0.02555 0.53208 -0.05547
 H105 H 0.00043 0.39542 0.10801
 H106 H -0.04587 0.47942 0.06532
 H107 H 0.04687 0.47581 -0.01790
 H108 H 0.04681 0.52378 0.01861
 H109 H 0.00015 0.60415 -0.10739
 H110 H -0.04592 0.52012 -0.06480
 C111 C 0.50084 0.92036 0.58378
 C112 C 0.47489 0.93674 0.58431
 C113 C 0.47501 0.96819 0.55602
 C114 C 0.50099 0.98358 0.51770
 C115 C 0.52692 0.96623 0.51397
 C116 C 0.52688 0.93512 0.55087
 C117 C 0.50100 1.01726 0.48199
 C118 C 0.52694 1.03454 0.48576
 C119 C 0.52691 1.06565 0.44884
 C120 C 0.50088 1.08049 0.41590
 C121 C 0.47492 1.06418 0.41534
 C122 C 0.47503 1.03273 0.44364
 H123 H 0.50077 0.89611 0.60889
 H124 H 0.45462 0.98018 0.56516
 H125 H 0.54736 0.97636 0.48199
 H126 H 0.54737 1.02435 0.51776
 H127 H 0.50082 1.10473 0.39076
 H128 H 0.45463 1.02080 0.43448
 C129 C 1.14750 0.14728 0.16572
 N130 N 1.13236 0.13835 0.28818
 N131 N 1.10920 0.12039 0.27475
 C132 C 1.10051 0.11081 0.13838
 N133 N 1.11569 0.11968 0.01596
 N134 N 1.13885 0.13764 0.02939
 C135 C 1.17136 0.16806 0.17982
 C136 C 1.19081 0.18617 0.19384
 C137 C 1.07457 0.09305 0.12263
 C138 C 1.05237 0.07894 0.10648
 C139 C 0.64699 0.64773 0.66739
 N140 N 0.63170 0.63901 0.78973
 N141 N 0.60850 0.62113 0.77626
 C142 C 0.59990 0.61140 0.63998
 N143 N 0.61524 0.62005 0.51767
 N144 N 0.63843 0.63794 0.53114
 C145 C 0.67093 0.66841 0.68147
 C146 C 0.69045 0.68644 0.69545
 C147 C 0.57394 0.59369 0.62414
 C148 C 0.55174 0.57959 0.60789
 C149 C -0.14747 0.35144 0.16762
 N150 N -0.13226 0.35994 0.29001
 N151 N -0.10912 0.37795 0.27655
 C152 C -0.10051 0.38802 0.14022
 N153 N -0.11576 0.37958 0.01787
 N154 N -0.13890 0.36156 0.03133
 C155 C -0.17133 0.33062 0.18172
 C156 C -0.19079 0.31248 0.19572
 C157 C -0.07459 0.40585 0.12439
 C158 C -0.05242 0.42004 0.10813
 C159 C 0.35271 0.85256 0.66812
 N160 N 0.36817 0.86067 0.79035
 N161 N 0.39136 0.87861 0.77696
 C162 C 0.39979 0.88898 0.64087
 N163 N 0.38429 0.88094 0.51868
 N164 N 0.36110 0.86299 0.53208
 C165 C 0.32879 0.83182 0.68201
 C166 C 0.30928 0.81373 0.69577
 C167 C 0.42576 0.90673 0.62499
 C168 C 0.44797 0.92085 0.60865
 C169 C -0.14777 0.64820 -0.16735
 N170 N -0.13916 0.63812 -0.03101
 N171 N -0.11601 0.62006 -0.01748
 C172 C -0.10077 0.61155 -0.13982
 N173 N -0.10942 0.62157 -0.27620
 N174 N -0.13258 0.63962 -0.28973
 C175 C -0.17163 0.66907 -0.18152
 C176 C -0.19109 0.68727 -0.19558
 C177 C -0.07483 0.59370 -0.12392
 C178 C -0.05263 0.57950 -0.10761
 C179 C 0.35273 1.14865 0.33094
 N180 N 0.36120 1.13835 0.46715
 N181 N 0.38440 1.12037 0.48071
 C182 C 0.39983 1.11213 0.35853
 N183 N 0.39133 1.12238 0.22229
 N184 N 0.36812 1.14036 0.20872
 C185 C 0.32880 1.16942 0.31682
 C186 C 0.30927 1.18754 0.30281
 C187 C 0.42579 1.09433 0.37453
 C188 C 0.44800 1.08015 0.39094
 C189 C 1.14748 -0.14858 -0.16663
 N190 N 1.13873 -0.13911 -0.03013
 N191 N 1.11557 -0.12110 -0.01652
 C192 C 1.10047 -0.11202 -0.13893
 N193 N 1.10926 -0.12143 -0.27546
 N194 N 1.13242 -0.13943 -0.28907
 C195 C 1.17135 -0.16939 -0.18098
 C196 C 1.19082 -0.18753 -0.19526
 C197 C 1.07453 -0.09421 -0.12307
 C198 C 1.05234 -0.08004 -0.10684
 C199 C 0.64730 0.35254 0.33293
 N200 N 0.63202 0.36133 0.21059
 N201 N 0.60880 0.37925 0.22412
 C202 C 0.60017 0.38894 0.36046
 N203 N 0.61549 0.38022 0.48276
 N204 N 0.63871 0.36229 0.46923
 C205 C 0.67123 0.33180 0.31877
 C206 C 0.69075 0.31372 0.30471
 C207 C 0.57418 0.40667 0.37635
 C208 C 0.55195 0.42077 0.39265
 C209 C 0.85284 -0.15198 -0.13477
 N210 N 0.86800 -0.15359 -0.00522
 N211 N 0.89078 -0.13547 0.01705
 C212 C 0.89906 -0.11517 -0.08950
 N213 N 0.88386 -0.11352 -0.21890
 N214 N 0.86109 -0.13163 -0.24119
 C215 C 0.82927 -0.17259 -0.16150
 C216 C 0.80993 -0.19051 -0.18335
 C217 C 0.92466 -0.09704 -0.06982
 C218 C 0.94665 -0.08240 -0.05750
 C219 C 0.35262 0.34838 0.36418
 N220 N 0.36081 0.36877 0.25788
 N221 N 0.38354 0.38694 0.28027
 C222 C 0.39875 0.38530 0.40967
 N223 N 0.39051 0.36495 0.51612
 N224 N 0.36778 0.34678 0.49373
 C225 C 0.32910 0.32771 0.33732
 C226 C 0.30982 0.30972 0.31539
 C227 C 0.42430 0.40348 0.42946
 C228 C 0.44626 0.41817 0.44188
 C229 C 0.14687 0.65166 -0.13632
 N230 N 0.13861 0.63159 -0.24264
 N231 N 0.11582 0.61344 -0.22026
 C232 C 0.10063 0.61477 -0.09085
 N233 N 0.10892 0.63478 0.01561
 N234 N 0.13171 0.65294 -0.00677
 C235 C 0.17046 0.67231 -0.16312
 C236 C 0.18981 0.69027 -0.18489
 C237 C 0.07503 0.59659 -0.07101
 C238 C 0.05306 0.58190 -0.05851
 C239 C 0.64770 1.15190 0.36195
 N240 N 0.63259 1.15318 0.49163
 N241 N 0.60974 1.13511 0.51402
 C242 C 0.60135 1.11516 0.40744
 N243 N 0.61650 1.11383 0.27790
 N244 N 0.63934 1.13191 0.25550
 C245 C 0.67135 1.17248 0.33517
 C246 C 0.69075 1.19038 0.31344
 C247 C 0.57571 1.09705 0.42735
 C248 C 0.55371 1.08242 0.43995
 C249 C 0.14735 0.34808 0.13676
 N250 N 0.13903 0.36812 0.24313
 N251 N 0.11617 0.38624 0.22083
 C252 C 0.10097 0.38489 0.09146
 N253 N 0.10933 0.36489 -0.01505
 N254 N 0.13219 0.34678 0.00725
 C255 C 0.17104 0.32748 0.16345
 C256 C 0.19047 0.30956 0.18511
 C257 C 0.07531 0.40304 0.07167
 C258 C 0.05328 0.41770 0.05919
 C259 C 0.64759 0.84844 0.63774
 N260 N 0.63245 0.84719 0.50814
 N261 N 0.60963 0.86535 0.48574
 C262 C 0.60128 0.88536 0.59223
 N263 N 0.61646 0.88667 0.72169
 N264 N 0.63928 0.86850 0.74410
 C265 C 0.67121 0.82778 0.66456
 C266 C 0.69059 0.80979 0.68631
 C267 C 0.57566 0.90356 0.57234
 C268 C 0.55367 0.91827 0.55976
 C269 C 0.85295 0.15154 0.13448
 N270 N 0.86810 0.15307 0.00488
 N271 N 0.89086 0.13487 -0.01739
 C272 C 0.89913 0.11456 0.08922
 N273 N 0.88394 0.11298 0.21867
 N274 N 0.86119 0.13118 0.24095
 C275 C 0.82940 0.17224 0.16122
 C276 C 0.81009 0.19024 0.18309
 C277 C 0.92471 0.09633 0.06955
 C278 C 0.94668 0.08162 0.05724
 C279 C 0.35213 0.65179 0.63620
 N280 N 0.36727 0.65338 0.50663
 N281 N 0.39008 0.63525 0.48432
 C282 C 0.39840 0.61495 0.59087
 N283 N 0.38321 0.61331 0.72030
 N284 N 0.36041 0.63144 0.74262
 C285 C 0.32852 0.67241 0.66296
 C286 C 0.30916 0.69035 0.68480
 C287 C 0.42403 0.59680 0.57113
 C288 C 0.44603 0.58214 0.55873
   
