data_POSCAR
  _audit_creation_date              2014-09-24
  _audit_creation_method            'ToBaCCo'
  _symmetry_space_group_name_H-M    'P1'
  _symmetry_Int_Tables_number       1
  _symmetry_cell_setting            triclinic
  loop_
  _symmetry_equiv_pos_as_xyz
 x,y,z
_cell_length_a 12.5232
_cell_length_b 12.7675
_cell_length_c 21.0590
_cell_angle_alpha 88.801400
_cell_angle_beta 81.014600
_cell_angle_gamma 84.304300
loop_
  _atom_site_label
  _atom_site_type_symbol
  _atom_site_fract_x
  _atom_site_fract_y
  _atom_site_fract_z
O1 O -0.09751 0.63177 0.97419
 O2 O -0.05447 0.41018 1.08343
 O3 O -0.01583 0.60703 1.07930
 O4 O -0.10948 0.42968 0.96817
 O5 O 0.05766 0.40637 0.91466
 O6 O 0.15301 0.56405 1.03412
 O7 O 0.10495 0.36341 1.02552
 O8 O 0.07068 0.60152 0.92500
 Cu9 Cu -0.08569 0.52283 1.03156
 Cu10 Cu 0.11460 0.48224 0.97143
 C11 C -0.02205 0.65463 0.93037
 C12 C 0.02932 0.34535 1.07115
 C13 C 0.08512 0.61650 1.07527
 C14 C -0.04147 0.38966 0.92149
 O15 O 0.43586 -0.06576 0.43343
 O16 O 0.60074 -0.07791 0.56282
 O17 O 0.39500 -0.05722 0.55789
 O18 O 0.64494 -0.07434 0.43969
 O19 O 0.64294 0.09894 0.44059
 O20 O 0.38744 0.11663 0.55461
 O21 O 0.58866 0.09427 0.56616
 O22 O 0.43526 0.10613 0.42956
 Cu23 Cu 0.51937 -0.08607 0.49805
 Cu24 Cu 0.51359 0.12153 0.49688
 C25 C 0.40603 0.02211 0.40925
 C26 C 0.62122 0.00514 0.58832
 C27 C 0.34974 0.03252 0.57685
 C28 C 0.68802 0.00936 0.42154
 C29 C 0.09254 -0.02114 0.23356
 C30 C -0.05948 0.03115 0.76036
 C31 C 0.19596 -0.23421 0.09996
 C32 C 0.11982 -0.30880 0.11937
 C33 C 0.06037 -0.30216 0.18114
 C34 C 0.06067 -0.21567 0.21955
 C35 C 0.11928 -0.12939 0.19758
 C36 C 0.19827 -0.14538 0.14030
 C37 C 0.26502 -0.24143 0.03995
 C38 C 0.33667 -0.16603 0.02072
 C39 C 0.34044 -0.08114 0.06006
 C40 C 0.27194 -0.07022 0.11878
 H41 H 0.26577 -0.30462 0.00684
 H42 H 0.38920 -0.17320 -0.02527
 H43 H 0.39565 -0.02228 0.04450
 H44 H 0.27629 -0.00061 0.14573
 H45 H 0.00616 -0.36131 0.19831
 H46 H 0.00742 -0.21543 0.26504
 C47 C 0.05442 0.15089 0.07920
 C48 C 0.03591 0.25243 0.10762
 C49 C 0.00481 0.25896 0.17450
 C50 C 0.01644 0.16998 0.21334
 C51 C 0.05660 0.07027 0.18665
 C52 C 0.04704 0.06047 0.12010
 C53 C 0.06223 0.13687 0.01206
 C54 C 0.04787 0.03964 -0.01265
 C55 C 0.01904 -0.04235 0.02866
 C56 C 0.01468 -0.03070 0.09455
 H57 H 0.07289 0.20118 -0.02165
 H58 H 0.05129 0.02959 -0.06358
 H59 H -0.00126 -0.11477 0.00970
 H60 H -0.01711 -0.09279 0.12503
 H61 H -0.01959 0.33462 0.19747
 H62 H 0.00342 0.18098 0.26494
 C63 C 0.24919 0.06893 0.68905
 C64 C 0.25111 0.03842 0.62488
 C65 C 0.15757 0.01052 0.60526
 C66 C 0.06182 0.01097 0.64792
 C67 C 0.05419 0.03388 0.71438
 C68 C 0.15158 0.06608 0.73449
 C69 C 0.34388 0.09982 0.70916
 C70 C 0.34385 0.12770 0.77263
 C71 C 0.25047 0.12376 0.81738
 C72 C 0.15640 0.09269 0.79886
 H73 H 0.41893 0.10238 0.67612
 H74 H 0.41706 0.15109 0.78731
 H75 H 0.25118 0.14346 0.86707
 H76 H 0.08955 0.08623 0.83648
 H77 H 0.15802 -0.01012 0.55551
 H78 H -0.00657 -0.00480 0.62596
 C79 C -0.25466 -0.09280 0.65731
 C80 C -0.31583 0.00030 0.63898
 C81 C -0.30424 0.09491 0.66843
 C82 C -0.22854 0.10134 0.70921
 C83 C -0.15132 0.01617 0.71850
 C84 C -0.16452 -0.08301 0.69038
 C85 C -0.27774 -0.19535 0.64275
 C86 C -0.20583 -0.28307 0.65078
 C87 C -0.10953 -0.27099 0.67307
 C88 C -0.08872 -0.17266 0.69247
 H89 H -0.35275 -0.21096 0.62751
 H90 H -0.22407 -0.36057 0.63849
 H91 H -0.05124 -0.33836 0.67636
 H92 H -0.01112 -0.16840 0.70745
 H93 H -0.35442 0.16641 0.65986
 H94 H -0.23051 0.17662 0.73168
 C95 C -0.14374 -0.20636 0.87674
 C96 C -0.03981 -0.25384 0.88657
 C97 C 0.05207 -0.21000 0.85578
 C98 C 0.04423 -0.12170 0.81695
 C99 C -0.05630 -0.06508 0.80958
 C100 C -0.15257 -0.10775 0.84297
 C101 C -0.23952 -0.25555 0.89810
 C102 C -0.34159 -0.20441 0.89399
 C103 C -0.35093 -0.10357 0.86856
 C104 C -0.25821 -0.05577 0.84346
 H105 H -0.23771 -0.33516 0.91623
 H106 H -0.41389 -0.24292 0.91128
 H107 H -0.43056 -0.06259 0.86737
 H108 H -0.27135 0.02344 0.82592
 H109 H 0.13263 -0.24550 0.86077
 H110 H 0.12061 -0.10215 0.79152
 C111 C -0.04692 0.32503 0.80946
 C112 C -0.07447 0.31628 0.87685
 C113 C -0.11838 0.22661 0.90321
 C114 C -0.12063 0.13960 0.86536
 C115 C -0.08380 0.13908 0.79807
 C116 C -0.05648 0.23849 0.76933
 C117 C -0.00993 0.41876 0.78122
 C118 C 0.01596 0.42837 0.71481
 C119 C 0.00150 0.34698 0.67529
 C120 C -0.03545 0.25393 0.70192
 H121 H -0.00200 0.48583 0.81014
 H122 H 0.04595 0.49986 0.69385
 H123 H 0.01873 0.35602 0.62358
 H124 H -0.04870 0.19551 0.66866
 H125 H -0.14057 0.21936 0.95487
 H126 H -0.14346 0.07061 0.89193
 C127 C -0.10844 -0.03168 0.39980
 C128 C -0.20754 0.00122 0.37800
 C129 C -0.21015 0.00939 0.31242
 C130 C -0.11524 -0.00641 0.26849
 C131 C -0.01113 -0.02692 0.28765
 C132 C -0.01189 -0.05501 0.35422
 C133 C -0.10538 -0.04968 0.46595
 C134 C -0.01329 -0.10067 0.48646
 C135 C 0.07454 -0.13825 0.44143
 C136 C 0.07329 -0.11868 0.37612
 H137 H -0.17520 -0.02798 0.50193
 H138 H -0.01301 -0.11745 0.53700
 H139 H 0.14188 -0.18661 0.45687
 H140 H 0.13155 -0.16543 0.34339
 H141 H -0.28681 0.02741 0.29483
 H142 H -0.12429 0.00078 0.21836
 C143 C 0.28369 0.11448 0.33155
 C144 C 0.33842 0.02319 0.35642
 C145 C 0.33768 -0.07253 0.32497
 C146 C 0.27163 -0.08222 0.27851
 C147 C 0.19856 0.00248 0.26274
 C148 C 0.22865 0.10355 0.27773
 C149 C 0.28931 0.21737 0.35368
 C150 C 0.26687 0.30452 0.31519
 C151 C 0.24310 0.28973 0.25388
 C152 C 0.22806 0.18920 0.23451
 H153 H 0.31270 0.23289 0.39933
 H154 H 0.27473 0.38294 0.33133
 H155 H 0.23623 0.35596 0.22134
 H156 H 0.21928 0.17869 0.18493
 H157 H 0.38542 -0.14281 0.33810
 H158 H 0.27051 -0.16091 0.26086
   
