data_POSCAR
  _audit_creation_date              2014-09-24
  _audit_creation_method            'ToBaCCo'
  _symmetry_space_group_name_H-M    'P1'
  _symmetry_Int_Tables_number       1
  _symmetry_cell_setting            triclinic
  loop_
  _symmetry_equiv_pos_as_xyz
 x,y,z
_cell_length_a 17.7074
_cell_length_b 17.7460
_cell_length_c 17.7441
_cell_angle_alpha 90.076100
_cell_angle_beta 90.170000
_cell_angle_gamma 89.863800
loop_
  _atom_site_label
  _atom_site_type_symbol
  _atom_site_fract_x
  _atom_site_fract_y
  _atom_site_fract_z
O1 O 0.42534 1.06516 -0.58161
 O2 O 0.56508 1.07510 -0.42756
 O3 O 0.57105 1.06924 -0.57421
 O4 O 0.41832 1.07694 -0.43470
 O5 O 0.41886 0.95276 -0.42556
 O6 O 0.57199 0.94502 -0.56540
 O7 O 0.56543 0.95189 -0.41928
 O8 O 0.42507 0.94156 -0.57080
 Cu9 Cu 0.49466 1.08412 -0.50519
 Cu10 Cu 0.49542 0.93535 -0.49463
 C11 C 0.40226 1.00093 -0.60335
 C12 C 0.58895 1.01542 -0.39602
 C13 C 0.59778 1.00568 -0.59323
 C14 C 0.39328 1.01663 -0.40573
 O15 O -0.58097 1.42603 0.06356
 O16 O -0.44048 1.57709 0.06652
 O17 O -0.58467 1.57490 0.05482
 O18 O -0.43474 1.43140 0.07126
 O19 O -0.43003 1.42252 -0.05281
 O20 O -0.58002 1.56562 -0.06904
 O21 O -0.43036 1.56962 -0.05663
 O22 O -0.57670 1.42057 -0.06027
 Cu23 Cu -0.51162 1.50284 0.07633
 Cu24 Cu -0.50346 1.49462 -0.07224
 C25 C -0.60209 1.39606 0.00201
 C26 C -0.40916 1.59779 0.00608
 C27 C -0.60850 1.59421 -0.00997
 C28 C -0.40653 1.40283 0.01192
 O29 O 0.06508 0.42260 0.43289
 O30 O 0.06201 0.57537 0.57274
 O31 O 0.06223 0.42811 0.57960
 O32 O 0.07556 0.56881 0.42797
 O33 O -0.04830 0.57154 0.41896
 O34 O -0.06214 0.43306 0.57215
 O35 O -0.06167 0.58056 0.56540
 O36 O -0.05926 0.42624 0.42537
 Cu37 Cu 0.07853 0.49809 0.50448
 Cu38 Cu -0.07034 0.50335 0.49525
 C39 C 0.00363 0.39939 0.40387
 C40 C 0.00008 0.60608 0.59166
 C41 C -0.00224 0.40562 0.60069
 C42 C 0.01616 0.59358 0.39649
 O43 O -0.11429 1.00257 -0.19106
 O44 O -0.09939 0.99877 0.19574
 O45 O -0.19975 0.89780 -0.00076
 O46 O -0.19871 1.10127 0.01415
 O47 O -0.10653 1.19289 0.01223
 O48 O -0.10757 0.80558 -0.00550
 O49 O -0.19521 0.99663 0.10817
 O50 O -0.20330 1.00358 -0.09609
 Zr51 Zr -0.13781 0.99942 0.00348
 O52 O -0.07060 1.06591 0.07125
 O53 O -0.07642 0.93303 -0.07012
 C54 C -0.18320 1.00432 -0.16633
 C55 C -0.17004 0.99688 0.17713
 C56 C -0.17729 0.82819 -0.00295
 C57 C -0.17626 1.17079 0.01751
 H58 H -0.10103 0.89618 0.09908
 O59 O -0.07042 0.92909 0.06648
 H60 H -0.10853 1.10294 -0.09382
 O61 O -0.07515 1.06935 -0.06444
 O62 O 0.10219 0.99235 0.19064
 O63 O 0.09086 1.01187 -0.19783
 O64 O 0.00335 0.80145 0.09262
 O65 O -0.00064 1.18982 0.10614
 O66 O -0.00752 1.19638 -0.09820
 O67 O -0.01163 0.80896 -0.11098
 O68 O 0.18941 0.89539 -0.01280
 O69 O 0.19028 1.09935 -0.00178
 O70 O 0.09657 0.80448 -0.01288
 O71 O 0.09879 1.19243 -0.00206
 O72 O 0.00505 0.89043 0.18776
 O73 O -0.01044 0.90420 -0.19946
 O74 O -0.00954 1.10647 -0.19200
 O75 O 0.00060 1.09562 0.19572
 O76 O 0.19173 0.98977 0.09632
 O77 O 0.18584 1.00786 -0.10864
 Zr78 Zr -0.00025 0.99517 0.13085
 Zr79 Zr -0.00945 1.00343 -0.13369
 Zr80 Zr -0.00520 0.86647 -0.00655
 Zr81 Zr -0.00418 1.13190 0.00244
 Zr82 Zr 0.12830 0.99801 -0.00509
 O83 O 0.06181 1.06911 -0.06940
 O84 O 0.06589 0.92781 0.06254
 C85 C 0.17101 0.98949 0.16662
 C86 C 0.16135 1.01461 -0.17738
 C87 C 0.00731 0.82158 0.16282
 C88 C 0.00140 1.16587 0.17519
 C89 C -0.01021 1.17559 -0.16849
 C90 C -0.01102 0.83386 -0.17973
 C91 C 0.16655 0.82583 -0.01614
 C92 C 0.16848 1.16925 -0.00141
 H93 H 0.09207 0.90368 -0.10866
 O94 O 0.06076 0.93356 -0.07376
 H95 H 0.09916 1.09502 0.09869
 O96 O 0.06576 1.06441 0.06625
 C97 C 0.23745 1.05123 0.27188
 C98 C 0.29453 1.05473 0.32583
 C99 C 0.34670 0.99558 0.33422
 C100 C 0.34115 0.93170 0.28586
 C101 C 0.28067 0.92715 0.23352
 C102 C 0.23057 0.98850 0.22467
 C103 C 0.27105 0.86024 0.19268
 N104 N 0.32191 0.80350 0.19961
 N105 N 0.38212 0.80976 0.24416
 C106 C 0.39406 0.87211 0.28672
 H107 H 0.19852 1.09818 0.26659
 H108 H 0.29717 1.10382 0.36210
 H109 H 0.22348 0.85281 0.15525
 H110 H 0.44549 0.87432 0.31926
 C111 C -0.29587 1.03269 0.22605
 C112 C -0.35142 1.03610 0.28129
 C113 C -0.34027 1.00235 0.35157
 C114 C -0.27095 0.96587 0.36746
 C115 C -0.21406 0.96161 0.31115
 C116 C -0.22671 0.99600 0.23923
 C117 C -0.14736 0.92191 0.32937
 N118 N -0.13760 0.89199 0.39898
 N119 N -0.18991 0.89853 0.45217
 C120 C -0.25608 0.93450 0.43891
 H121 H -0.30696 1.05996 0.17253
 H122 H -0.40414 1.06463 0.26868
 H123 H -0.10275 0.91294 0.28971
 H124 H -0.29597 0.93865 0.48470
 C125 C -0.26275 0.94715 -0.26445
 C126 C -0.31887 0.95025 -0.31921
 C127 C -0.35758 1.01790 -0.33627
 C128 C -0.33967 1.08393 -0.29277
 C129 C -0.28212 1.07968 -0.23652
 C130 C -0.24372 1.01093 -0.22302
 C131 C -0.26405 1.14496 -0.19521
 N132 N -0.30208 1.20994 -0.20758
 N133 N -0.35761 1.21389 -0.25792
 C134 C -0.37811 1.15363 -0.30021
 H135 H -0.23375 0.89423 -0.25436
 H136 H -0.33019 0.89876 -0.35008
 H137 H -0.21982 1.14514 -0.15323
 H138 H -0.42536 1.16217 -0.33715
 C139 C 0.20967 0.98403 -0.30499
 C140 C 0.26694 0.98174 -0.35869
 C141 C 0.33452 1.02093 -0.34724
 C142 C 0.34404 1.06456 -0.28105
 C143 C 0.28518 1.06802 -0.22717
 C144 C 0.21893 1.02400 -0.23740
 C145 C 0.29410 1.11725 -0.16572
 N146 N 0.35956 1.15552 -0.15590
 N147 N 0.41668 1.14843 -0.20396
 C148 C 0.41122 1.10422 -0.26606
 H149 H 0.15838 0.95274 -0.31563
 H150 H 0.25843 0.94910 -0.40966
 H151 H 0.24894 1.12738 -0.12682
 H152 H 0.45949 1.10035 -0.30277
 C153 C 0.23590 1.27761 -0.05714
 C154 C 0.29411 1.33039 -0.05794
 C155 C 0.34530 1.33647 0.00263
 C156 C 0.34033 1.28328 0.06277
 C157 C 0.28114 1.22929 0.06290
 C158 C 0.22855 1.22689 0.00256
 C159 C 0.27635 1.17905 0.12399
 N160 N 0.32950 1.17996 0.17897
 N161 N 0.38746 1.22736 0.17685
 C162 C 0.39517 1.27833 0.12063
 H163 H 0.19687 1.27554 -0.10423
 H164 H 0.29682 1.36909 -0.10506
 H165 H 0.23072 1.13924 0.12883
 H166 H 0.44562 1.31217 0.12103
 C167 C 0.29057 0.77337 0.02071
 C168 C 0.34233 0.71471 0.02717
 C169 C 0.33465 0.64895 -0.01594
 C170 C 0.27145 0.64173 -0.06513
 C171 C 0.21634 0.70023 -0.06820
 C172 C 0.22512 0.76590 -0.02285
 C173 C 0.15505 0.69135 -0.11799
 N174 N 0.14760 0.62736 -0.15905
 N175 N 0.19723 0.57126 -0.15368
 C176 C 0.25847 0.57595 -0.10797
 H177 H 0.30134 0.82493 0.05110
 H178 H 0.39105 0.72254 0.06350
 H179 H 0.11355 0.73487 -0.12585
 H180 H 0.29532 0.52751 -0.10487
 C181 C -0.28317 0.75653 -0.05894
 C182 C -0.33807 0.70043 -0.05633
 C183 C -0.34816 0.65581 0.00834
 C184 C -0.30013 0.66861 0.07223
 C185 C -0.24417 0.72590 0.06882
 C186 C -0.23567 0.76942 0.00264
 C187 C -0.19833 0.73868 0.13252
 N188 N -0.20659 0.69596 0.19499
 N189 N -0.25760 0.64132 0.19818
 C190 C -0.30425 0.62609 0.13948
 H191 H -0.27724 0.78977 -0.10977
 H192 H -0.37370 0.69245 -0.10541
 H193 H -0.15608 0.78231 0.13351
 H194 H -0.34283 0.58040 0.14742
 C195 C -0.30284 1.21990 -0.01641
 C196 C -0.35695 1.27683 -0.02021
 C197 C -0.34648 1.34506 0.01797
 C198 C -0.28027 1.35549 0.06187
 C199 C -0.22578 1.29686 0.06705
 C200 C -0.23562 1.22969 0.02447
 C201 C -0.16418 1.30717 0.11629
 N202 N -0.15509 1.37357 0.15303
 N203 N -0.20370 1.43022 0.14430
 C204 C -0.26572 1.42344 0.09988
 H205 H -0.31303 1.16825 -0.04724
 H206 H -0.40768 1.26741 -0.05321
 H207 H -0.12426 1.26274 0.12751
 H208 H -0.30268 1.47129 0.09412
 C209 C -0.04553 1.22371 0.29364
 C210 C -0.04631 1.28129 0.34739
 C211 C 0.00558 1.34086 0.34406
 C212 C 0.05876 1.34261 0.28430
 C213 C 0.06086 1.28301 0.23104
 C214 C 0.00697 1.22410 0.23475
 C215 C 0.11775 1.28407 0.17587
 N216 N 0.16581 1.34317 0.17135
 N217 N 0.16099 1.40124 0.21854
 C218 C 0.10906 1.40308 0.27445
 H219 H -0.08727 1.17930 0.29716
 H220 H -0.08764 1.27908 0.39220
 H221 H 0.12512 1.23815 0.13694
 H222 H 0.10700 1.45229 0.30968
 C223 C 0.03200 1.29847 -0.21929
 C224 C 0.03548 1.35291 -0.27575
 C225 C -0.00767 1.34592 -0.34170
 C226 C -0.05511 1.28235 -0.35122
 C227 C -0.06015 1.22789 -0.29299
 C228 C -0.01444 1.23508 -0.22714
 C229 C -0.11180 1.16844 -0.30267
 N230 N -0.15162 1.16156 -0.36761
 N231 N -0.14363 1.21031 -0.42384
 C232 C -0.09664 1.27016 -0.41807
 H233 H 0.06729 1.30512 -0.16975
 H234 H 0.07215 1.40109 -0.26780
 H235 H -0.12217 1.12802 -0.25905
 H236 H -0.09190 1.30679 -0.46626
 C237 C -0.06975 0.73537 -0.25902
 C238 C -0.06739 0.68168 -0.31638
 C239 C -0.00049 0.66723 -0.35697
 C240 C 0.06409 0.71343 -0.34196
 C241 C 0.06159 0.76677 -0.28213
 C242 C -0.00587 0.77755 -0.24076
 C243 C 0.12734 0.80793 -0.26521
 N244 N 0.19003 0.79952 -0.30785
 N245 N 0.19100 0.75385 -0.36724
 C246 C 0.13025 0.71166 -0.38648
 H247 H -0.12188 0.74376 -0.22823
 H248 H -0.11801 0.64902 -0.32674
 H249 H 0.12966 0.84686 -0.21857
 H250 H 0.13441 0.67986 -0.43800
 C251 C -0.04539 0.75284 0.27067
 C252 C -0.04247 0.69854 0.32678
 C253 C 0.02006 0.65028 0.33463
 C254 C 0.08112 0.65728 0.28250
 C255 C 0.07672 0.71219 0.22409
 C256 C 0.01353 0.76103 0.21948
 C257 C 0.13623 0.71687 0.17207
 N258 N 0.19640 0.67007 0.17795
 N259 N 0.20120 0.61909 0.23260
 C260 C 0.14611 0.61116 0.28487
 H261 H -0.09524 0.78767 0.26618
 H262 H -0.08995 0.69477 0.36496
 H263 H 0.13554 0.75721 0.12676
 H264 H 0.15490 0.56879 0.32699
   
