data_POSCAR
  _audit_creation_date              2014-09-24
  _audit_creation_method            'ToBaCCo'
  _symmetry_space_group_name_H-M    'P1'
  _symmetry_Int_Tables_number       1
  _symmetry_cell_setting            triclinic
  loop_
  _symmetry_equiv_pos_as_xyz
 x,y,z
_cell_length_a 40.2539
_cell_length_b 41.3913
_cell_length_c 40.5655
_cell_angle_alpha 90.344500
_cell_angle_beta 88.832200
_cell_angle_gamma 90.669400
loop_
  _atom_site_label
  _atom_site_type_symbol
  _atom_site_fract_x
  _atom_site_fract_y
  _atom_site_fract_z
C1 C 0.11506 0.14154 0.14903
 C2 C 0.10811 0.16740 0.12821
 C3 C 0.12657 0.17198 0.09942
 C4 C 0.15219 0.15048 0.09096
 C5 C 0.15925 0.12531 0.11179
 C6 C 0.14037 0.12069 0.14087
 C7 C 0.10249 0.13244 0.17943
 N8 N 0.11940 0.10622 0.19014
 C9 C 0.14278 0.09917 0.16634
 C10 C 0.18725 0.11047 0.09944
 N11 N 0.19754 0.12574 0.07127
 C12 C 0.17581 0.15014 0.06586
 C13 C 0.11652 0.20071 0.08603
 N14 N 0.09246 0.21362 0.10600
 C15 C 0.08713 0.19318 0.13173
 H16 H 0.08233 0.14441 0.19236
 H17 H 0.16132 0.08058 0.16742
 H18 H 0.19920 0.09010 0.11060
 H19 H 0.17818 0.16797 0.04654
 H20 H 0.12680 0.21187 0.06396
 H21 H 0.07065 0.19765 0.15265
 C22 C -0.12947 0.85283 0.17689
 C23 C -0.12515 0.83997 0.14510
 C24 C -0.14316 0.85180 0.11945
 C25 C -0.16564 0.87694 0.12519
 C26 C -0.17065 0.88904 0.15676
 C27 C -0.15196 0.87717 0.18282
 C28 C -0.11591 0.84500 0.20644
 N29 N -0.12909 0.86426 0.23063
 C30 C -0.15136 0.88404 0.21610
 C31 C -0.19625 0.91076 0.15541
 N32 N -0.20625 0.91279 0.12360
 C33 C -0.18737 0.89222 0.10505
 C34 C -0.13663 0.83246 0.09240
 N35 N -0.11507 0.80891 0.10099
 C36 C -0.10762 0.81394 0.13327
 H37 H -0.09689 0.82711 0.20938
 H38 H -0.16682 0.90163 0.22864
 H39 H -0.20656 0.92422 0.17609
 H40 H -0.19051 0.88710 0.07909
 H41 H -0.14855 0.83454 0.06889
 H42 H -0.09179 0.79912 0.14796
 C43 C -0.10978 0.13805 -0.14934
 C44 C -0.10900 0.15241 -0.11804
 C45 C -0.12970 0.14122 -0.09302
 C46 C -0.15166 0.11538 -0.09912
 C47 C -0.15294 0.10166 -0.13027
 C48 C -0.13146 0.11285 -0.15553
 C49 C -0.09425 0.14599 -0.17863
 N50 N -0.10554 0.12606 -0.20297
 C51 C -0.12852 0.10567 -0.18868
 C52 C -0.17933 0.08021 -0.13011
 N53 N -0.19398 0.08021 -0.09952
 C54 C -0.17684 0.10160 -0.08043
 C55 C -0.12736 0.16291 -0.06722
 N56 N -0.10606 0.18730 -0.07619
 C57 C -0.09456 0.18059 -0.10723
 H58 H -0.07598 0.16515 -0.18133
 H59 H -0.14332 0.08768 -0.20128
 H60 H -0.18712 0.06575 -0.15094
 H61 H -0.18341 0.10852 -0.05537
 H62 H -0.14210 0.16190 -0.04467
 H63 H -0.07943 0.19649 -0.12249
 C64 C 0.12102 0.85886 -0.15852
 C65 C 0.12474 0.82741 -0.14669
 C66 C 0.14717 0.82135 -0.12225
 C67 C 0.16592 0.84688 -0.10893
 C68 C 0.16130 0.87811 -0.11975
 C69 C 0.13924 0.88401 -0.14533
 C70 C 0.10569 0.87034 -0.18590
 N71 N 0.11480 0.90188 -0.19065
 C72 C 0.13490 0.91042 -0.16521
 C73 C 0.18371 0.89763 -0.10369
 N74 N 0.20248 0.87895 -0.08399
 C75 C 0.19183 0.84777 -0.08732
 C76 C 0.14702 0.78847 -0.11727
 N77 N 0.12486 0.77444 -0.13802
 C78 C 0.11137 0.79822 -0.15625
 H79 H 0.09196 0.85529 -0.20284
 H80 H 0.14747 0.93341 -0.16207
 H81 H 0.18747 0.92323 -0.10787
 H82 H 0.20207 0.82715 -0.07494
 H83 H 0.16238 0.77574 -0.10017
 H84 H 0.09281 0.79478 -0.17491
 C85 C 0.13619 1.09900 0.83973
 C86 C 0.15767 1.09274 0.86564
 C87 C 0.16117 1.11508 0.89072
 C88 C 0.14344 1.14393 0.89016
 C89 C 0.12308 1.15073 0.86420
 C90 C 0.11974 1.12815 0.83834
 C91 C 0.12746 1.08119 0.81259
 N92 N 0.10677 1.09896 0.79399
 C93 C 0.10231 1.12801 0.80935
 C94 C 0.10948 1.18064 0.87062
 N95 N 0.12089 1.19202 0.90008
 C96 C 0.14203 1.16944 0.91170
 C97 C 0.18499 1.10384 0.91143
 N98 N 0.19655 1.07542 0.89917
 C99 C 0.17976 1.06829 0.87126
 H100 H 0.13648 1.05733 0.80639
 H101 H 0.08653 1.14712 0.80080
 H102 H 0.09199 1.19253 0.85502
 H103 H 0.15624 1.17107 0.93397
 H104 H 0.19473 1.11646 0.93268
 H105 H 0.18425 1.04754 0.85550
 C106 C 0.87213 0.88895 0.85453
 C107 C 0.84605 0.88000 0.87627
 C108 C 0.84661 0.85024 0.89184
 C109 C 0.87263 0.82873 0.88510
 C110 C 0.89846 0.83794 0.86440
 C111 C 0.89870 0.86846 0.84981
 C112 C 0.87748 0.91499 0.83387
 N113 N 0.90730 0.91118 0.81788
 C114 C 0.92036 0.88279 0.82776
 C115 C 0.91851 0.81167 0.85973
 N116 N 0.90543 0.78598 0.87673
 C117 C 0.87746 0.79680 0.89286
 C118 C 0.81899 0.84837 0.91228
 N119 N 0.80184 0.87617 0.90950
 C120 C 0.81782 0.89557 0.88732
 H121 H 0.86083 0.93502 0.83057
 H122 H 0.94278 0.87198 0.81769
 H123 H 0.94025 0.81159 0.84371
 H124 H 0.86034 0.78240 0.90760
 H125 H 0.81212 0.82858 0.92846
 H126 H 0.81007 0.91959 0.88067
 C127 C 0.12387 0.89384 1.16072
 C128 C 0.14761 0.90461 1.13739
 C129 C 0.15383 0.88658 1.10910
 C130 C 0.13607 0.85767 1.10368
 C131 C 0.11269 0.84727 1.12671
 C132 C 0.10651 0.86549 1.15533
 C133 C 0.11567 0.90421 1.19210
 N134 N 0.09357 0.88281 1.20611
 C135 C 0.08787 0.85914 1.18331
 C136 C 0.10210 0.81705 1.11720
 N137 N 0.11819 0.80860 1.08865
 C138 C 0.13905 0.83356 1.08027
 C139 C 0.18102 0.90043 1.09331
 N140 N 0.19128 0.92640 1.11125
 C141 C 0.17089 0.92917 1.13816
 H142 H 0.12597 0.92555 1.20369
 H143 H 0.07322 0.83739 1.18712
 H144 H 0.08524 0.80179 1.13137
 H145 H 0.15597 0.83412 1.05924
 H146 H 0.19334 0.89139 1.07121
 H147 H 0.17423 0.94638 1.15807
 C148 C 0.84986 1.12746 1.15609
 C149 C 0.83525 1.12817 1.12502
 C150 C 0.84426 1.15196 1.10278
 C151 C 0.86770 1.17558 1.11145
 C152 C 0.88181 1.17537 1.14235
 C153 C 0.87300 1.15070 1.16480
 C154 C 0.84513 1.10739 1.18262
 N155 N 0.86514 1.11721 1.20764
 C156 C 0.88217 1.14402 1.19664
 C157 C 0.90203 1.20256 1.14427
 N158 N 0.90056 1.21859 1.11521
 C159 C 0.87971 1.20230 1.09508
 C160 C 0.82425 1.14841 1.07586
 N161 N 0.80298 1.12322 1.08139
 C162 C 0.80978 1.11053 1.11131
 H163 H 0.82837 1.08682 1.18279
 H164 H 0.89967 1.15829 1.21056
 H165 H 0.91660 1.21013 1.16513
 H166 H 0.87324 1.20983 1.07052
 H167 H 0.82371 1.16440 1.05486
 H168 H 0.79628 1.09076 1.12293
 N169 N 0.53662 1.02158 0.93298
 N170 N 0.56620 1.03350 0.92506
 N171 N 0.46556 0.99048 0.93130
 N172 N 0.43505 0.98114 0.92390
 N173 N 0.46701 1.02219 0.93384
 N174 N 0.43786 1.03465 0.92768
 N175 N 0.53650 0.98994 0.93015
 N176 N 0.56638 0.97998 0.92084
 C177 C 0.58444 1.00746 0.91684
 C178 C 0.41826 1.00900 0.92082
 N179 N 0.46481 0.93334 1.00796
 N180 N 0.43563 0.92224 1.01856
 N181 N 0.53477 0.93596 0.97470
 N182 N 0.56314 0.92617 0.96149
 N183 N 0.53532 0.93369 1.00698
 N184 N 0.56442 0.92285 1.01635
 N185 N 0.46512 0.93610 0.97573
 N186 N 0.43642 0.92636 0.96378
 Mn187 Mn 0.50043 0.96293 0.95257
 C188 C 0.41851 0.91716 0.99070
 C189 C 0.58134 0.91786 0.98764
 N190 N 0.46705 1.06626 0.98910
 N191 N 0.43899 1.07882 0.97915
 N192 N 0.53626 1.06268 1.02087
 N193 N 0.56479 1.07183 1.03344
 N194 N 0.53742 1.06544 0.98856
 N195 N 0.56691 1.07647 0.97868
 N196 N 0.46610 1.06253 1.02128
 N197 N 0.43730 1.07214 1.03371
 Mn198 Mn 0.50210 1.04412 0.96089
 C199 C 0.42071 1.08254 1.00721
 C200 C 0.58365 1.08062 1.00701
 N201 N 0.53468 0.97746 1.06258
 N202 N 0.56306 0.96525 1.07204
 N203 N 0.46477 1.00885 1.06613
 N204 N 0.43582 1.01856 1.07830
 N205 N 0.46482 0.97727 1.06294
 N206 N 0.43601 0.96486 1.07284
 N207 N 0.53526 1.00907 1.06563
 N208 N 0.56430 1.01894 1.07679
 Mn209 Mn 0.49996 0.95511 1.03533
 Mn210 Mn 0.50054 1.03607 1.04377
 Cl211 Cl 0.50079 0.99953 0.99815
 C212 C 0.58101 0.99128 1.08160
 C213 C 0.41826 0.99079 1.08271
 N214 N 0.03104 0.48282 0.05882
 N215 N 0.02783 0.45963 0.08094
 N216 N 0.05868 0.54083 0.01805
 N217 N 0.07880 0.56573 0.01279
 N218 N 0.03519 0.54835 0.03957
 N219 N 0.03867 0.57868 0.04938
 N220 N 0.05441 0.47546 0.03703
 N221 N 0.06731 0.44716 0.04388
 C222 C 0.05079 0.43770 0.07158
 C223 C 0.06618 0.58912 0.03260
 N224 N 0.03749 0.51558 -0.07276
 N225 N 0.04035 0.53676 -0.09691
 N226 N 0.05569 0.45615 -0.03112
 N227 N 0.07268 0.42986 -0.02527
 N228 N 0.03322 0.45042 -0.05344
 N229 N 0.03455 0.41998 -0.06358
 N230 N 0.05974 0.52155 -0.05022
 N231 N 0.07803 0.54706 -0.05835
 Mn232 Mn 0.05754 0.49854 -0.00655
 C233 C 0.06594 0.55602 -0.08778
 C234 C 0.05944 0.40755 -0.04579
 N235 N -0.03613 0.55128 0.03889
 N236 N -0.03680 0.58159 0.04920
 N237 N -0.06334 0.48077 0.03543
 N238 N -0.07804 0.45249 0.04020
 N239 N -0.04061 0.48569 0.05783
 N240 N -0.03977 0.46066 0.07792
 N241 N -0.05826 0.54630 0.01605
 N242 N -0.07434 0.57317 0.00997
 Mn243 Mn -0.00264 0.51718 0.04919
 C244 C -0.06089 0.59489 0.03104
 C245 C -0.06364 0.44030 0.06710
 N246 N -0.03824 0.45339 -0.05407
 N247 N -0.03968 0.42215 -0.06083
 N248 N -0.05703 0.52661 -0.05201
 N249 N -0.07057 0.55435 -0.05973
 N250 N -0.03375 0.51889 -0.07375
 N251 N -0.03099 0.54136 -0.09665
 N252 N -0.06201 0.46134 -0.03296
 N253 N -0.08033 0.43573 -0.02530
 Mn254 Mn -0.00040 0.48440 -0.06392
 Mn255 Mn -0.06055 0.50386 -0.00838
 Cl256 Cl -0.00150 0.50095 -0.00740
 C257 C -0.06633 0.41150 -0.04292
 C258 C -0.05442 0.56311 -0.08789
 N259 N 0.94325 0.04265 0.53446
 N260 N 0.92778 0.05032 0.56234
 N261 N 0.96213 0.04826 0.45975
 N262 N 0.95699 0.06100 0.43057
 N263 N 0.93895 0.02662 0.46704
 N264 N 0.91760 0.02405 0.44290
 N265 N 0.96615 0.06443 0.52698
 N266 N 0.96648 0.08754 0.54951
 C267 C 0.94236 0.07853 0.57137
 C268 C 0.92903 0.04569 0.42034
 N269 N 1.05636 0.02543 0.45791
 N270 N 1.07408 0.02141 0.43066
 N271 N 1.03766 0.06317 0.52270
 N272 N 1.03518 0.07989 0.55059
 N273 N 1.06088 0.04115 0.52520
 N274 N 1.07451 0.04318 0.55441
 N275 N 1.03380 0.04764 0.45409
 N276 N 1.03565 0.05929 0.42373
 Mn277 Mn 1.00005 0.05631 0.49066
 C278 C 1.06111 0.04266 0.40950
 C279 C 1.05874 0.06760 0.56999
 N280 N 0.93824 -0.04098 0.48342
 N281 N 0.91911 -0.04883 0.45839
 N282 N 0.96617 -0.04671 0.55447
 N283 N 0.97074 -0.05330 0.58572
 N284 N 0.94312 -0.02465 0.55158
 N285 N 0.93161 -0.01597 0.58112
 N286 N 0.96074 -0.06318 0.48766
 N287 N 0.95718 -0.08683 0.46617
 Mn288 Mn 0.94041 0.00085 0.50910
 C289 C 0.93103 -0.07779 0.44818
 C290 C 0.94881 -0.03447 0.60207
 N291 N 1.06050 -0.02674 0.54076
 N292 N 1.08090 -0.02299 0.56557
 N293 N 1.03191 -0.06384 0.48085
 N294 N 1.02888 -0.08534 0.45692
 N295 N 1.05493 -0.04226 0.47312
 N296 N 1.06791 -0.04859 0.44364
 N297 N 1.03730 -0.04815 0.54806
 N298 N 1.04137 -0.05952 0.57806
 Mn299 Mn 1.05851 -0.00054 0.49914
 Mn300 Mn 0.99897 -0.05577 0.51785
 Cl301 Cl 0.99945 0.00025 0.50417
 C302 C 1.06876 -0.04366 0.58865
 C303 C 1.05175 -0.07585 0.43406
 C304 C 1.08859 0.08603 0.27421
 C305 C 1.10541 0.05795 0.27933
 C306 C 1.12681 0.04456 0.25594
 C307 C 1.13117 0.06077 0.22590
 C308 C 1.11437 0.09024 0.21952
 C309 C 1.09252 0.10268 0.24454
 O310 O 1.07011 0.09510 0.30012
 C311 C 1.07550 0.07216 0.32209
 C312 C 1.09695 0.04889 0.31047
 C313 C 1.10694 0.02313 0.32946
 C314 C 1.09467 0.02148 0.36194
 C315 C 1.07258 0.04517 0.37477
 C316 C 1.06252 0.07073 0.35433
 H317 H 1.13990 0.02243 0.26069
 H318 H 1.14752 0.04970 0.20784
 H319 H 1.07945 0.12508 0.24189
 H320 H 1.12388 0.00514 0.31976
 H321 H 1.10256 0.00171 0.37713
 H322 H 1.04578 0.08919 0.36340
 C323 C 0.88234 -0.10992 0.31700
 C324 C 0.89999 -0.13558 0.32841
 C325 C 0.90773 -0.16225 0.30905
 C326 C 0.89732 -0.16236 0.27634
 C327 C 0.87929 -0.13600 0.26327
 C328 C 0.87125 -0.10964 0.28461
 O329 O 0.87916 -0.08622 0.33906
 C330 C 0.89518 -0.09727 0.36492
 C331 C 0.90829 -0.12743 0.35959
 C332 C 0.92738 -0.14304 0.38259
 C333 C 0.93351 -0.12679 0.41225
 C334 C 0.92072 -0.09545 0.41832
 C335 C 0.90084 -0.08064 0.39442
 H336 H 0.92173 -0.18215 0.31866
 H337 H 0.90321 -0.18342 0.26162
 H338 H 0.85831 -0.08863 0.27612
 H339 H 0.93780 -0.16660 0.37761
 H340 H 0.94888 -0.13839 0.43018
 H341 H 0.89129 -0.05650 0.39804
 C342 C 0.90525 0.10346 0.70914
 C343 C 0.92494 0.12864 0.69819
 C344 C 0.93506 0.15365 0.71865
 C345 C 0.92447 0.15276 0.75178
 C346 C 0.90412 0.12689 0.76430
 C347 C 0.89441 0.10195 0.74200
 O348 O 0.89898 0.08173 0.68580
 C349 C 0.91508 0.09354 0.65956
 C350 C 0.93139 0.12223 0.66583
 C351 C 0.95062 0.13831 0.64208
 C352 C 0.95339 0.12407 0.61068
 C353 C 0.93691 0.09441 0.60363
 C354 C 0.91728 0.07909 0.62846
 H355 H 0.95057 0.17327 0.70945
 H356 H 0.93200 0.17281 0.76709
 H357 H 0.87956 0.08136 0.74970
 H358 H 0.96348 0.16073 0.64764
 H359 H 0.96881 0.13585 0.59205
 H360 H 0.90493 0.05613 0.62407
 C361 C 1.08497 -0.07658 0.72718
 C362 C 1.10462 -0.05002 0.72048
 C363 C 1.12563 -0.03637 0.74358
 C364 C 1.12753 -0.05152 0.77438
 C365 C 1.10900 -0.08042 0.78148
 C366 C 1.08629 -0.09194 0.75752
 O367 O 1.06757 -0.08660 0.70158
 C368 C 1.07678 -0.06615 0.67801
 C369 C 1.09953 -0.04334 0.68822
 C370 C 1.11410 -0.02090 0.66687
 C371 C 1.10456 -0.02185 0.63377
 C372 C 1.08050 -0.04467 0.62286
 C373 C 1.06658 -0.06722 0.64540
 H374 H 1.14079 -0.01531 0.73777
 H375 H 1.14486 -0.04133 0.79162
 H376 H 1.07058 -0.11291 0.76150
 H377 H 1.13231 -0.00346 0.67533
 H378 H 1.11541 -0.00438 0.61683
 H379 H 1.04845 -0.08516 0.63779
 C380 C 0.28253 1.09973 1.04995
 C381 C 0.28569 1.11087 1.01820
 C382 C 0.25992 1.12602 1.00232
 C383 C 0.23000 1.13055 1.02016
 C384 C 0.22600 1.11947 1.05326
 C385 C 0.25281 1.10303 1.06777
 O386 O 0.31050 1.08797 1.06145
 C387 C 0.33182 1.09172 1.03639
 C388 C 0.31790 1.10531 1.00916
 C389 C 0.33618 1.11189 0.98043
 C390 C 0.37015 1.10428 0.97989
 C391 C 0.38516 1.09097 1.00802
 C392 C 0.36552 1.08448 1.03655
 H393 H 0.26297 1.13469 0.97731
 H394 H 0.20993 1.14233 1.00784
 H395 H 0.25174 1.09488 1.09302
 H396 H 0.32474 1.12255 0.95925
 H397 H 0.38477 1.10890 0.95769
 H398 H 0.37615 1.07411 1.05828
 C399 C 0.28395 0.88167 0.95509
 C400 C 0.28374 0.91250 0.96789
 C401 C 0.25714 0.93321 0.96435
 C402 C 0.22968 0.92167 0.94683
 C403 C 0.22875 0.88952 0.93414
 C404 C 0.25628 0.86913 0.93914
 O405 O 0.31321 0.86745 0.95718
 C406 C 0.33183 0.88967 0.97189
 C407 C 0.31475 0.91744 0.97963
 C408 C 0.32972 0.94425 0.99412
 C409 C 0.36391 0.94280 0.99978
 C410 C 0.38224 0.91512 0.99040
 C411 C 0.36600 0.88798 0.97673
 H412 H 0.25800 0.95777 0.97366
 H413 H 0.20892 0.93766 0.94368
 H414 H 0.25736 0.84507 0.92864
 H415 H 0.31576 0.96576 1.00006
 H416 H 0.37648 0.96376 1.00997
 H417 H 0.37975 0.86689 0.96880
 C418 C 0.71350 0.95401 1.11964
 C419 C 0.71462 0.96392 1.08736
 C420 C 0.74137 0.95784 1.06618
 C421 C 0.76812 0.94076 1.07871
 C422 C 0.76818 0.93078 1.11226
 C423 C 0.74052 0.93832 1.13311
 O424 O 0.68407 0.95859 1.13429
 C425 C 0.66640 0.97195 1.11079
 C426 C 0.68421 0.97623 1.08181
 C427 C 0.67034 0.98829 1.05345
 C428 C 0.63645 0.99566 1.05467
 C429 C 0.61723 0.99006 1.08374
 C430 C 0.63240 0.97845 1.11237
 H431 H 0.74118 0.96500 1.04057
 H432 H 0.78901 0.93579 1.06232
 H433 H 0.73886 0.93003 1.15834
 H434 H 0.68497 0.99074 1.03098
 H435 H 0.62469 1.00393 1.03255
 H436 H 0.61793 0.97308 1.13450
 C437 C 0.72438 1.03933 0.89705
 C438 C 0.71832 1.03410 0.93004
 C439 C 0.74085 1.04266 0.95416
 C440 C 0.77066 1.05771 0.94390
 C441 C 0.77780 1.06358 0.90991
 C442 C 0.75432 1.05330 0.88618
 O443 O 0.69841 1.03243 0.87847
 C444 C 0.67546 1.02251 0.90021
 C445 C 0.68658 1.02278 0.93209
 C446 C 0.66610 1.01555 0.95906
 C447 C 0.63279 1.00794 0.95303
 C448 C 0.62053 1.00848 0.92058
 C449 C 0.64214 1.01553 0.89368
 H450 H 0.73532 1.03876 0.98007
 H451 H 0.78823 1.06446 0.96260
 H452 H 0.75787 1.05815 0.86018
 H453 H 0.67510 1.01724 0.98388
 H454 H 0.61596 1.00345 0.97371
 H455 H 0.63297 1.01727 0.86887
 C456 C 0.08184 0.30133 0.08733
 C457 C 0.05153 0.30686 0.10245
 C458 C 0.03268 0.28248 0.11738
 C459 C 0.04603 0.25130 0.11748
 C460 C 0.07776 0.24504 0.10289
 C461 C 0.09555 0.27054 0.08710
 O462 O 0.09587 0.32783 0.07480
 C463 C 0.07402 0.35061 0.08230
 C464 C 0.04654 0.33911 0.09940
 C465 C 0.02102 0.35904 0.11042
 C466 C 0.02345 0.39201 0.10263
 C467 C 0.05100 0.40424 0.08393
 C468 C 0.07690 0.38324 0.07425
 H469 H 0.00873 0.28735 0.12885
 H470 H 0.03177 0.23210 0.12921
 H471 H 0.11996 0.26692 0.07613
 H472 H -0.00018 0.34947 0.12417
 H473 H 0.00333 0.40770 0.11019
 H474 H 0.09835 0.39194 0.06029
 C475 C -0.07607 0.27124 -0.05764
 C476 C -0.09873 0.28043 -0.03372
 C477 C -0.12258 0.25931 -0.02066
 C478 C -0.12389 0.22777 -0.03363
 C479 C -0.10139 0.21786 -0.05920
 C480 C -0.07636 0.23991 -0.07026
 O481 O -0.05733 0.29549 -0.06891
 C482 C -0.06857 0.32069 -0.05194
 C483 C -0.09383 0.31280 -0.02996
 C484 C -0.11080 0.33590 -0.01144
 C485 C -0.10149 0.36840 -0.01591
 C486 C -0.07573 0.37716 -0.03870
 C487 C -0.05881 0.35280 -0.05666
 H488 H -0.14053 0.26722 -0.00218
 H489 H -0.14353 0.21190 -0.02473
 H490 H -0.05852 0.23369 -0.08944
 H491 H -0.13090 0.32920 0.00537
 H492 H -0.11450 0.38670 -0.00171
 H493 H -0.03919 0.35867 -0.07436
 C494 C 0.11076 0.68799 -0.11428
 C495 C 0.09623 0.67609 -0.14229
 C496 C 0.09147 0.69486 -0.17002
 C497 C 0.10189 0.72731 -0.16872
 C498 C 0.11632 0.74051 -0.13981
 C499 C 0.12105 0.72019 -0.11234
 O500 O 0.11232 0.66635 -0.09039
 C501 C 0.09840 0.64024 -0.10360
 C502 C 0.08800 0.64494 -0.13528
 C503 C 0.07131 0.62123 -0.15313
 C504 C 0.06489 0.59154 -0.13756
 C505 C 0.07540 0.58615 -0.10488
 C506 C 0.09272 0.61081 -0.08787
 H507 H 0.07998 0.68493 -0.19180
 H508 H 0.09863 0.74203 -0.19031
 H509 H 0.13141 0.72929 -0.08967
 H510 H 0.06292 0.62567 -0.17786
 H511 H 0.05137 0.57295 -0.15078
 H512 H 0.10039 0.60768 -0.06268
 C513 C -0.08346 0.72691 0.07675
 C514 C -0.09368 0.72483 0.04471
 C515 C -0.10897 0.75025 0.02902
 C516 C -0.11473 0.77863 0.04738
 C517 C -0.10559 0.78110 0.08109
 C518 C -0.08898 0.75473 0.09544
 O519 O -0.07036 0.69981 0.08757
 C520 C -0.07258 0.68003 0.06187
 C521 C -0.08686 0.69404 0.03501
 C522 C -0.09341 0.67689 0.00619
 C523 C -0.08489 0.64406 0.00515
 C524 C -0.06976 0.62931 0.03244
 C525 C -0.06332 0.64771 0.06106
 H526 H -0.11670 0.74813 0.00369
 H527 H -0.12692 0.79821 0.03523
 H528 H -0.08162 0.75485 0.12086
 H529 H -0.10512 0.68818 -0.01451
 H530 H -0.08992 0.63020 -0.01689
 H531 H -0.05227 0.63698 0.08243
 C532 C 1.07552 0.09896 0.70931
 C533 C 1.06726 0.06681 0.70600
 C534 C 1.07172 0.04439 0.73078
 C535 C 1.08527 0.05551 0.76032
 C536 C 1.09286 0.08885 0.76522
 C537 C 1.08715 0.11097 0.73932
 O538 O 1.07404 0.11508 0.68109
 C539 C 1.06439 0.09260 0.65962
 C540 C 1.05920 0.06287 0.67400
 C541 C 1.05044 0.03544 0.65631
 C542 C 1.04844 0.03831 0.62212
 C543 C 1.05596 0.06800 0.60623
 C544 C 1.06285 0.09595 0.62527
 H545 H 1.06623 0.01898 0.72704
 H546 H 1.08921 0.03812 0.77962
 H547 H 1.09407 0.13622 0.74152
 H548 H 1.04630 0.01241 0.66830
 H549 H 1.04204 0.01708 0.60780
 H550 H 1.06884 0.11881 0.61364
 C551 C 0.91490 -0.04272 0.74129
 C552 C 0.94895 -0.04161 0.73759
 C553 C 0.97020 -0.05355 0.76101
 C554 C 0.95583 -0.06822 0.78889
 C555 C 0.92072 -0.06996 0.79347
 C556 C 0.90007 -0.05549 0.76991
 O557 O 0.89929 -0.03596 0.71364
 C558 C 0.92398 -0.03062 0.69204
 C559 C 0.95487 -0.03337 0.70573
 C560 C 0.98418 -0.03314 0.68712
 C561 C 0.98160 -0.03115 0.65290
 C562 C 0.95011 -0.02979 0.63797
 C563 C 0.92089 -0.02815 0.65781
 H564 H 0.99687 -0.05360 0.75690
 H565 H 0.97210 -0.07890 0.80663
 H566 H 0.87329 -0.05791 0.77165
 H567 H 1.00809 -0.03615 0.69839
 H568 H 1.00411 -0.03212 0.63788
 H569 H 0.89657 -0.02810 0.64687
 C570 C 1.08247 -0.09585 0.29410
 C571 C 1.05753 -0.11710 0.30310
 C572 C 1.04292 -0.13826 0.28089
 C573 C 1.05483 -0.13784 0.24814
 C574 C 1.08112 -0.11641 0.23792
 C575 C 1.09460 -0.09481 0.26173
 O576 O 1.09317 -0.07784 0.31897
 C577 C 1.07454 -0.08799 0.34428
 C578 C 1.05232 -0.11201 0.33590
 C579 C 1.03044 -0.12615 0.35866
 C580 C 1.03125 -0.11476 0.39130
 C581 C 1.05362 -0.08961 0.40044
 C582 C 1.07583 -0.07635 0.37655
 H583 H 1.02307 -0.15461 0.28848
 H584 H 1.04296 -0.15410 0.23100
 H585 H 1.11475 -0.07821 0.25606
 H586 H 1.01315 -0.14503 0.35152
 H587 H 1.01402 -0.12515 0.40925
 H588 H 1.09321 -0.05722 0.38273
 C589 C 0.89509 0.09594 0.29055
 C590 C 0.87392 0.07071 0.29810
 C591 C 0.84917 0.06027 0.27721
 C592 C 0.84609 0.07630 0.24710
 C593 C 0.86784 0.10247 0.23787
 C594 C 0.89258 0.11234 0.26066
 O595 O 0.91697 0.10194 0.31400
 C596 C 0.90931 0.07999 0.33680
 C597 C 0.88311 0.06030 0.32821
 C598 C 0.87093 0.03560 0.34829
 C599 C 0.88627 0.03107 0.37863
 C600 C 0.91334 0.05106 0.38824
 C601 C 0.92505 0.07584 0.36687
 H602 H 0.83269 0.04041 0.28389
 H603 H 0.82628 0.06805 0.23155
 H604 H 0.91001 0.13177 0.25551
 H605 H 0.85036 0.02033 0.34085
 H606 H 0.87713 0.01186 0.39452
 H607 H 0.94569 0.09143 0.37348
 C608 C 0.08805 0.27404 -0.08459
 C609 C 0.09882 0.27920 -0.05310
 C610 C 0.11611 0.25641 -0.03572
 C611 C 0.12296 0.22702 -0.05147
 C612 C 0.11282 0.22066 -0.08449
 C613 C 0.09455 0.24488 -0.10091
 O614 O 0.07291 0.29952 -0.09697
 C615 C 0.07436 0.32118 -0.07269
 C616 C 0.09006 0.30983 -0.04537
 C617 C 0.09604 0.32874 -0.01772
 C618 C 0.08565 0.36087 -0.01831
 C619 C 0.06923 0.37332 -0.04603
 C620 C 0.06313 0.35302 -0.07353
 H621 H 0.12423 0.26113 -0.01085
 H622 H 0.13596 0.20945 -0.03723
 H623 H 0.08644 0.24199 -0.12596
 H624 H 0.10887 0.31926 0.00326
 H625 H 0.09056 0.37611 0.00281
 H626 H 0.05110 0.36202 -0.09520
 C627 C -0.07837 0.30640 0.11109
 C628 C -0.05998 0.30696 0.08212
 C629 C -0.05153 0.27914 0.06467
 C630 C -0.06330 0.24952 0.07710
 C631 C -0.08287 0.24827 0.10649
 C632 C -0.08983 0.27703 0.12420
 O633 O -0.08594 0.33574 0.12225
 C634 C -0.07219 0.35521 0.09975
 C635 C -0.05599 0.33870 0.07472
 C636 C -0.04149 0.35399 0.04755
 C637 C -0.04396 0.38765 0.04599
 C638 C -0.06090 0.40521 0.07115
 C639 C -0.07476 0.38892 0.09875
 H640 H -0.03758 0.28028 0.04160
 H641 H -0.05833 0.22757 0.06331
 H642 H -0.10565 0.27666 0.14609
 H643 H -0.02919 0.34048 0.02800
 H644 H -0.03288 0.40015 0.02504
 H645 H -0.08784 0.40189 0.11818
 C646 C -0.08708 0.69845 -0.10742
 C647 C -0.06069 0.69111 -0.12795
 C648 C -0.04413 0.71414 -0.14692
 C649 C -0.05544 0.74604 -0.14504
 C650 C -0.08310 0.75476 -0.12420
 C651 C -0.09878 0.72997 -0.10499
 O652 O -0.09886 0.67310 -0.09085
 C653 C -0.07944 0.64928 -0.10123
 C654 C -0.05569 0.65899 -0.12401
 C655 C -0.03221 0.63807 -0.13751
 C656 C -0.03284 0.60595 -0.12653
 C657 C -0.05670 0.59554 -0.10250
 C658 C -0.08068 0.61747 -0.09020
 H659 H -0.02320 0.70777 -0.16272
 H660 H -0.04243 0.76338 -0.16039
 H661 H -0.11945 0.73452 -0.08833
 H662 H -0.01365 0.64634 -0.15531
 H663 H -0.01412 0.58957 -0.13598
 H664 H -0.09911 0.61027 -0.07183
 C665 C 0.08865 0.72513 0.06618
 C666 C 0.11269 0.71621 0.04352
 C667 C 0.13847 0.73685 0.03371
 C668 C 0.13979 0.76775 0.04821
 C669 C 0.11547 0.77757 0.07211
 C670 C 0.08919 0.75576 0.08055
 O671 O 0.06701 0.70161 0.07322
 C672 C 0.07768 0.67722 0.05467
 C673 C 0.10550 0.68488 0.03590
 C674 C 0.12130 0.66254 0.01539
 C675 C 0.10804 0.63103 0.01445
 C676 C 0.07954 0.62248 0.03383
 C677 C 0.06405 0.64608 0.05404
 H678 H 0.15734 0.72921 0.01604
 H679 H 0.16031 0.78346 0.04123
 H680 H 0.06979 0.76196 0.09817
 H681 H 0.14318 0.66902 0.00084
 H682 H 0.12014 0.61325 -0.00119
 H683 H 0.04229 0.64035 0.06912
 C684 C 0.27848 1.03428 0.90075
 C685 C 0.28407 1.03446 0.93409
 C686 C 0.26103 1.04591 0.95720
 C687 C 0.23117 1.05813 0.94542
 C688 C 0.22504 1.05881 0.91110
 C689 C 0.24883 1.04599 0.88856
 O690 O 0.30470 1.02512 0.88278
 C691 C 0.32740 1.01948 0.90524
 C692 C 0.31595 1.02478 0.93704
 C693 C 0.33630 1.02317 0.96421
 C694 C 0.36985 1.01612 0.95835
 C695 C 0.38226 1.01095 0.92582
 C696 C 0.36075 1.01222 0.89888
 H697 H 0.26631 1.04642 0.98325
 H698 H 0.21313 1.06777 0.96288
 H699 H 0.24535 1.04711 0.86221
 H700 H 0.32695 1.02823 0.98888
 H701 H 0.38652 1.01584 0.97898
 H702 H 0.37004 1.00945 0.87380
 C703 C 0.28009 0.94695 1.09240
 C704 C 0.28111 0.97895 1.10179
 C705 C 0.25303 0.99543 1.11279
 C706 C 0.22290 0.97799 1.11488
 C707 C 0.22138 0.94483 1.10578
 C708 C 0.25040 0.92937 1.09382
 O709 O 0.30968 0.93530 1.08422
 C710 C 0.32987 0.96042 1.08863
 C711 C 0.31372 0.98777 1.09928
 C712 C 0.33045 1.01657 1.10619
 C713 C 0.36516 1.01725 1.10147
 C714 C 0.38225 0.98936 1.09023
 C715 C 0.36422 0.96049 1.08407
 H716 H 0.25442 1.02055 1.12024
 H717 H 0.20086 0.99010 1.12405
 H718 H 0.25026 0.90394 1.08747
 H719 H 0.31727 1.03773 1.11482
 H720 H 0.37866 1.03946 1.10644
 H721 H 0.37643 0.93881 1.07533
 C722 C 0.71723 1.09912 1.05720
 C723 C 0.71908 1.10374 1.02365
 C724 C 0.74821 1.11375 1.00748
 C725 C 0.77639 1.11935 1.02673
 C726 C 0.77493 1.11490 1.06144
 C727 C 0.74485 1.10430 1.07666
 O728 O 0.68698 1.09139 1.06818
 C729 C 0.66927 1.09116 1.04102
 C730 C 0.68762 1.09839 1.01301
 C731 C 0.67344 1.10032 0.98205
 C732 C 0.63897 1.09468 0.98005
 C733 C 0.61961 1.08757 1.00881
 C734 C 0.63522 1.08567 1.03962
 H735 H 0.74906 1.11774 0.98114
 H736 H 0.79924 1.12743 1.01472
 H737 H 0.74249 1.10162 1.10312
 H738 H 0.68835 1.10598 0.96030
 H739 H 0.62746 1.09582 0.95619
 H740 H 0.62129 1.08016 1.06202
 C741 C 0.71390 0.89238 0.93350
 C742 C 0.71693 0.89790 0.96685
 C743 C 0.74736 0.89704 0.98254
 C744 C 0.77566 0.88999 0.96306
 C745 C 0.77298 0.88441 0.92872
 C746 C 0.74176 0.88580 0.91370
 O747 O 0.68281 0.89362 0.92349
 C748 C 0.66577 0.90008 0.95102
 C749 C 0.68539 0.90302 0.97829
 C750 C 0.67240 0.90984 1.00962
 C751 C 0.63780 0.91375 1.01286
 C752 C 0.61718 0.91093 0.98497
 C753 C 0.63152 0.90394 0.95368
 H754 H 0.74925 0.90129 1.00880
 H755 H 0.79969 0.88883 0.97453
 H756 H 0.73926 0.88111 0.88756
 H757 H 0.68833 0.91243 1.03069
 H758 H 0.62727 0.91972 1.03687
 H759 H 0.61647 0.90187 0.93190
   
