data_POSCAR
  _audit_creation_date              2014-09-24
  _audit_creation_method            'ToBaCCo'
  _symmetry_space_group_name_H-M    'P1'
  _symmetry_Int_Tables_number       1
  _symmetry_cell_setting            triclinic
  loop_
  _symmetry_equiv_pos_as_xyz
 x,y,z
_cell_length_a 27.0175
_cell_length_b 27.0062
_cell_length_c 27.0265
_cell_angle_alpha 98.330300
_cell_angle_beta 83.770200
_cell_angle_gamma 98.556900
loop_
  _atom_site_label
  _atom_site_type_symbol
  _atom_site_fract_x
  _atom_site_fract_y
  _atom_site_fract_z
O1 O 0.56995 0.52400 0.04765
 O2 O 0.43377 0.51313 0.03644
 O3 O 0.49559 0.45100 0.05075
 O4 O 0.50842 0.58566 0.03640
 O5 O 0.52182 0.56681 -0.04595
 O6 O 0.50923 0.43170 -0.03147
 O7 O 0.44742 0.49383 -0.04577
 O8 O 0.58316 0.50495 -0.03468
 Cu9 Cu 0.50038 0.52009 0.05114
 Cu10 Cu 0.51650 0.49716 -0.04778
 C11 C 0.59952 0.51659 0.00827
 C12 C 0.41775 0.50252 -0.00682
 C13 C 0.50109 0.41869 0.01228
 C14 C 0.51742 0.59901 -0.00710
 O15 O -0.05016 0.55032 0.50378
 O16 O -0.03773 0.41523 0.49202
 O17 O -0.03592 0.48831 0.56586
 O18 O -0.04884 0.47677 0.43012
 O19 O 0.03360 0.49503 0.41584
 O20 O 0.04640 0.50681 0.55108
 O21 O 0.04470 0.43327 0.47753
 O22 O 0.03213 0.56883 0.48905
 Cu23 Cu -0.05149 0.48110 0.49959
 Cu24 Cu 0.04753 0.50305 0.48214
 C25 C -0.01137 0.58233 0.49766
 C26 C 0.00551 0.40140 0.48265
 C27 C 0.00765 0.49866 0.58123
 C28 C -0.00968 0.48367 0.40010
 O29 O 0.49533 0.03560 0.58698
 O30 O 0.50395 0.04796 0.45235
 O31 O 0.43234 0.04750 0.52471
 O32 O 0.56677 0.03276 0.51461
 O33 O 0.54701 -0.04988 0.49669
 O34 O 0.41296 -0.03524 0.50708
 O35 O 0.48419 -0.03468 0.43445
 O36 O 0.47585 -0.04713 0.56944
 Cu37 Cu 0.50168 0.04928 0.52128
 Cu38 Cu 0.47820 -0.05007 0.50002
 C39 C 0.48431 -0.00783 0.60096
 C40 C 0.49477 0.00897 0.42072
 C41 C 0.40001 0.00856 0.51745
 C42 C 0.57947 -0.01125 0.50467
 C43 C 0.50804 -0.09182 -0.09234
 C44 C 0.49825 -0.04474 -0.10172
 C45 C 0.49373 -0.00600 -0.06139
 C46 C 0.50262 -0.01260 -0.01223
 C47 C 0.51466 -0.05994 -0.00468
 C48 C 0.51568 -0.09999 -0.04397
 C49 C 0.49988 0.02946 0.03081
 C50 C 0.49297 0.01927 0.08113
 C51 C 0.49303 0.05838 0.12154
 C52 C 0.49618 0.10838 0.11163
 C53 C 0.50104 0.11960 0.06211
 C54 C 0.50459 0.08032 0.02222
 H55 H 0.50848 -0.12267 -0.12280
 H56 H 0.48381 0.02921 -0.06911
 H57 H 0.52406 -0.06630 0.03150
 H58 H 0.48679 -0.01911 0.08972
 H59 H 0.49497 0.13867 0.14254
 H60 H 0.51206 0.09033 -0.01539
 C61 C -0.09007 0.50002 1.08930
 C62 C -0.09841 0.51159 1.04231
 C63 C -0.05870 0.51311 1.00424
 C64 C -0.01137 0.50044 1.01165
 C65 C -0.00465 0.48752 1.05903
 C66 C -0.04321 0.48867 1.09823
 C67 C 0.03062 0.50069 0.97033
 C68 C 0.08128 0.50622 0.98112
 C69 C 0.12057 0.50487 0.94259
 C70 C 0.10937 0.50120 0.89260
 C71 C 0.05952 0.49728 0.88082
 C72 C 0.02052 0.49537 0.91958
 H73 H -0.12026 0.49990 1.11914
 H74 H -0.06513 0.52502 0.96927
 H75 H 0.03021 0.47574 1.06592
 H76 H 0.09093 0.51251 1.01950
 H77 H 0.13954 0.50139 0.86274
 H78 H -0.01773 0.48882 0.90943
 C79 C -0.11125 -0.11083 0.50266
 C80 C -0.06154 -0.12134 0.49846
 C81 C -0.02189 -0.08149 0.49509
 C82 C -0.03109 -0.03080 0.49935
 C83 C -0.08161 -0.02149 0.50575
 C84 C -0.12165 -0.06113 0.50545
 C85 C 0.01140 0.01215 0.49721
 C86 C 0.00329 0.05943 0.48522
 C87 C 0.04209 0.10023 0.48487
 C88 C 0.09051 0.09297 0.49331
 C89 C 0.10041 0.04609 0.50311
 C90 C 0.06058 0.00654 0.50681
 H91 H -0.14187 -0.14168 0.50243
 H92 H 0.01600 -0.09069 0.48961
 H93 H -0.09069 0.01665 0.51179
 H94 H -0.03289 0.06515 0.47529
 H95 H 0.12060 0.12435 0.49343
 H96 H 0.06876 -0.02851 0.51667
 C97 C -0.25032 0.52497 1.01998
 C98 C -0.22908 0.55023 1.06319
 C99 C -0.17890 0.54780 1.06956
 C100 C -0.34756 0.52079 1.01235
 C101 C -0.17054 0.49626 0.98861
 C102 C -0.22076 0.49872 0.98233
 C103 C -0.30311 0.52338 1.01565
 C104 C -0.14941 0.51988 1.03280
 H105 H -0.25162 0.57075 1.09250
 H106 H -0.16342 0.56691 1.10367
 H107 H -0.14891 0.47406 0.95994
 H108 H -0.23692 0.47891 0.94880
 C109 C 0.27333 0.50459 0.97376
 C110 C 0.26281 0.53375 0.93836
 C111 C 0.21314 0.53461 0.92876
 C112 C 0.36823 0.50203 0.98806
 C113 C 0.18415 0.47761 0.99056
 C114 C 0.23388 0.47678 1.00006
 C115 C 0.32472 0.50278 0.98223
 C116 C 0.17324 0.50624 0.95450
 H117 H 0.29305 0.55558 0.91790
 H118 H 0.20595 0.55751 0.90128
 H119 H 0.15429 0.45489 1.01053
 H120 H 0.24157 0.45400 1.02747
 C121 C -0.03173 -0.27339 0.49983
 C122 C -0.07002 -0.25402 0.53263
 C123 C -0.07971 -0.20471 0.53198
 C124 C -0.01687 -0.36824 0.49918
 C125 C -0.01269 -0.19369 0.46563
 C126 C -0.00308 -0.24312 0.46632
 C127 C -0.02299 -0.32479 0.49970
 C128 C -0.05122 -0.17395 0.49842
 H129 H -0.09250 -0.27709 0.55868
 H130 H -0.10915 -0.19040 0.55816
 H131 H 0.00952 -0.17120 0.43898
 H132 H 0.02643 -0.25782 0.44050
 C133 C 0.01847 0.25187 0.47418
 C134 C -0.01718 0.22090 0.50155
 C135 C -0.01055 0.17085 0.50336
 C136 C 0.01012 0.34872 0.47846
 C137 C 0.06673 0.18217 0.44912
 C138 C 0.06000 0.23218 0.44734
 C139 C 0.01379 0.30447 0.47587
 C140 C 0.03200 0.15123 0.47793
 H141 H -0.04940 0.23582 0.52258
 H142 H -0.03760 0.14815 0.52631
 H143 H 0.09952 0.16791 0.42865
 H144 H 0.08776 0.25580 0.42595
 C145 C 0.48675 -0.02308 -0.25435
 C146 C 0.52450 -0.04848 -0.24262
 C147 C 0.52823 -0.05504 -0.19298
 C148 C 0.48307 -0.01248 -0.34957
 C149 C 0.45650 -0.01036 -0.16610
 C150 C 0.45280 -0.00384 -0.21602
 C151 C 0.48366 -0.01689 -0.30588
 C152 C 0.49413 -0.03635 -0.15415
 H153 H 0.55117 -0.06324 -0.27190
 H154 H 0.55812 -0.07446 -0.18487
 H155 H 0.42951 0.00411 -0.13705
 H156 H 0.42345 0.01597 -0.22472
 C157 C 0.49247 0.02880 0.27401
 C158 C 0.46327 0.06380 0.26290
 C159 C 0.46267 0.07290 0.21331
 C160 C 0.49493 0.01476 0.36867
 C161 C 0.52004 0.01145 0.18554
 C162 C 0.52061 0.00245 0.23516
 C163 C 0.49407 0.02067 0.32535
 C164 C 0.49132 0.04705 0.17404
 H165 H 0.44119 0.08432 0.29263
 H166 H 0.43972 0.10007 0.20567
 H167 H 0.54304 -0.00856 0.15629
 H168 H 0.54345 -0.02464 0.24327
 C169 C 0.52620 -0.25179 -0.02107
 C170 C 0.49825 -0.22141 0.01430
 C171 C 0.49636 -0.17138 0.00780
 C172 C 0.52193 -0.34849 -0.01237
 C173 C 0.55164 -0.18154 -0.06882
 C174 C 0.55347 -0.23160 -0.06224
 C175 C 0.52463 -0.30432 -0.01637
 C176 C 0.52234 -0.15117 -0.03431
 H177 H 0.47687 -0.23678 0.04621
 H178 H 0.47300 -0.14912 0.03464
 H179 H 0.57251 -0.16680 -0.10127
 H180 H 0.57529 -0.25481 -0.08978
 C181 C 0.50056 0.27223 0.03388
 C182 C 0.47397 0.23199 0.00482
 C183 C 0.47459 0.18236 0.01370
 C184 C 0.49961 0.36667 0.01875
 C185 C 0.52871 0.21304 0.08064
 C186 C 0.52806 0.26263 0.07166
 C187 C 0.49963 0.32343 0.02522
 C188 C 0.50183 0.17232 0.05184
 H189 H 0.45250 0.23897 -0.02446
 H190 H 0.45300 0.15186 -0.00865
 H191 H 0.55051 0.20651 0.10982
 H192 H 0.54894 0.29351 0.09426
 C193 C -0.27422 -0.03265 0.50545
 C194 C -0.23537 -0.00608 0.47729
 C195 C -0.18575 -0.01493 0.47783
 C196 C -0.36867 -0.01781 0.50388
 C197 C -0.21356 -0.07680 0.53508
 C198 C -0.26318 -0.06786 0.53450
 C199 C -0.32548 -0.02421 0.50430
 C200 C -0.17427 -0.05055 0.50658
 H201 H -0.24347 0.02116 0.45457
 H202 H -0.15646 0.00536 0.45492
 H203 H -0.20590 -0.10403 0.55800
 H204 H -0.29295 -0.08854 0.55659
 C205 C 0.25302 0.02581 0.51596
 C206 C 0.24161 0.05180 0.47846
 C207 C 0.19199 0.05814 0.47444
 C208 C 0.34793 0.01426 0.51932
 C209 C 0.16459 0.01226 0.54549
 C210 C 0.21447 0.00595 0.54947
 C211 C 0.30440 0.01921 0.51894
 C212 C 0.15290 0.03862 0.50797
 H213 H 0.27110 0.06701 0.45213
 H214 H 0.18408 0.07786 0.44465
 H215 H 0.13532 -0.00281 0.57207
 H216 H 0.22296 -0.01433 0.57860
 C217 C -0.02197 0.47510 1.25026
 C218 C -0.06516 0.44981 1.22889
 C219 C -0.07124 0.45234 1.17868
 C220 C -0.01430 0.47924 1.34735
 C221 C 0.00992 0.50410 1.17067
 C222 C 0.01591 0.50152 1.22088
 C223 C -0.01779 0.47658 1.30299
 C224 C -0.03420 0.48040 1.14935
 H225 H -0.09465 0.42918 1.25133
 H226 H -0.10530 0.43319 1.16304
 H227 H 0.03878 0.52643 1.14917
 H228 H 0.04941 0.52136 1.23718
 C229 C 0.02886 0.49764 0.72809
 C230 C 0.06444 0.46882 0.73874
 C231 C 0.07405 0.46809 0.78840
 C232 C 0.01368 0.49956 0.63342
 C233 C 0.01203 0.52465 0.81703
 C234 C 0.00251 0.52535 0.76733
 C235 C 0.02002 0.49907 0.67680
 C236 C 0.04811 0.49621 0.82811
 H237 H 0.08493 0.44709 0.70863
 H238 H 0.10158 0.44537 0.79576
 H239 H -0.00806 0.54720 0.84675
 H240 H -0.02502 0.54787 0.75950
   
