data_POSCAR
  _audit_creation_date              2014-09-24
  _audit_creation_method            'ToBaCCo'
  _symmetry_space_group_name_H-M    'P1'
  _symmetry_Int_Tables_number       1
  _symmetry_cell_setting            triclinic
  loop_
  _symmetry_equiv_pos_as_xyz
 x,y,z
_cell_length_a 47.4375
_cell_length_b 46.0008
_cell_length_c 21.5258
_cell_angle_alpha 89.034600
_cell_angle_beta 90.130300
_cell_angle_gamma 120.465600
loop_
  _atom_site_label
  _atom_site_type_symbol
  _atom_site_fract_x
  _atom_site_fract_y
  _atom_site_fract_z
C1 C 0.17398 0.46049 0.49356
 C2 C 0.19216 0.46699 0.43802
 C3 C 0.22368 0.47106 0.44162
 C4 C 0.23563 0.46538 0.49803
 C5 C 0.21703 0.45972 0.55239
 C6 C 0.18699 0.45880 0.55154
 C7 C 0.26616 0.46309 0.50005
 C8 C 0.28352 0.46745 0.55613
 C9 C 0.30952 0.46114 0.55933
 C10 C 0.32025 0.45339 0.50494
 C11 C 0.30465 0.45058 0.44820
 C12 C 0.27713 0.45435 0.44651
 H13 H 0.15095 0.46005 0.49203
 H14 H 0.23801 0.47667 0.39958
 H15 H 0.22480 0.45399 0.59575
 H16 H 0.27668 0.47500 0.59806
 H17 H 0.34154 0.45050 0.50666
 H18 H 0.26411 0.44959 0.40318
 C19 C 0.56534 -0.29559 0.50711
 C20 C 0.55914 -0.28505 0.44944
 C21 C 0.55275 -0.25818 0.44964
 C22 C 0.55547 -0.24031 0.50447
 C23 C 0.56388 -0.25057 0.56004
 C24 C 0.56779 -0.27883 0.56270
 C25 C 0.55046 -0.21047 0.50394
 C26 C 0.54259 -0.19956 0.55903
 C27 C 0.54056 -0.17013 0.55930
 C28 C 0.54379 -0.15280 0.50310
 C29 C 0.54938 -0.16440 0.44733
 C30 C 0.55397 -0.19218 0.44846
 H31 H 0.56518 -0.31913 0.50982
 H32 H 0.54646 -0.25061 0.40679
 H33 H 0.56868 -0.23582 0.60132
 H34 H 0.53846 -0.21334 0.60242
 H35 H 0.54081 -0.13095 0.50256
 H36 H 0.56067 -0.19882 0.40533
 C37 C 1.27797 0.86837 0.52799
 C38 C 1.27039 0.85864 0.46580
 C39 C 1.24012 0.82886 0.45449
 C40 C 1.22093 0.80659 0.50384
 C41 C 1.23274 0.81537 0.56489
 C42 C 1.26037 0.84648 0.57698
 C43 C 1.18994 0.77358 0.49174
 C44 C 1.16696 0.75507 0.54021
 C45 C 1.13911 0.72296 0.52975
 C46 C 1.13168 0.71330 0.46754
 C47 C 1.15481 0.72925 0.42049
 C48 C 1.18401 0.75891 0.43248
 H49 H 1.29891 0.89250 0.53944
 H50 H 1.23233 0.82210 0.40739
 H51 H 1.22136 0.79818 0.60378
 H52 H 1.17149 0.76487 0.58634
 H53 H 1.10868 0.69151 0.45488
 H54 H 1.20217 0.76927 0.39583
 C55 C 0.86866 0.54943 0.50549
 C56 C 0.84843 0.53857 0.45366
 C57 C 0.81982 0.54036 0.45339
 C58 C 0.81168 0.55368 0.50461
 C59 C 0.83335 0.56570 0.55547
 C60 C 0.86169 0.56321 0.55658
 C61 C 0.78077 0.55503 0.50503
 C62 C 0.76432 0.55268 0.56131
 C63 C 0.73624 0.55592 0.56222
 C64 C 0.72383 0.55961 0.50488
 C65 C 0.73852 0.55970 0.44845
 C66 C 0.76736 0.55845 0.44889
 H67 H 0.88996 0.54659 0.50590
 H68 H 0.80375 0.53047 0.41388
 H69 H 0.82844 0.57721 0.59418
 H70 H 0.77397 0.54934 0.60465
 H71 H 0.70104 0.55969 0.50339
 H72 H 0.77925 0.56038 0.40493
 C73 C 0.42470 0.28190 0.49457
 C74 C 0.41772 0.26269 0.44106
 C75 C 0.40859 0.22869 0.44637
 C76 C 0.40841 0.21392 0.50455
 C77 C 0.41731 0.23436 0.55758
 C78 C 0.42472 0.26823 0.55374
 C79 C 0.40029 0.17780 0.50925
 C80 C 0.38927 0.15885 0.56571
 C81 C 0.38346 0.12552 0.57060
 C82 C 0.38622 0.11065 0.51608
 C83 C 0.39790 0.12903 0.46065
 C84 C 0.40515 0.16244 0.45744
 H85 H 0.43270 0.30843 0.48884
 H86 H 0.40187 0.21418 0.40435
 H87 H 0.41782 0.22370 0.60226
 H88 H 0.38466 0.16969 0.60572
 H89 H 0.38251 0.08545 0.51700
 H90 H 0.41614 0.17665 0.41505
 C91 C 0.66217 0.18552 0.49850
 C92 C 0.67728 0.20007 0.44151
 C93 C 0.70953 0.22720 0.44030
 C94 C 0.72837 0.23792 0.49517
 C95 C 0.71280 0.22204 0.55183
 C96 C 0.67966 0.19692 0.55390
 C97 C 0.76438 0.26371 0.49282
 C98 C 0.78164 0.28110 0.54650
 C99 C 0.81606 0.30206 0.54594
 C100 C 0.83269 0.30798 0.48876
 C101 C 0.81578 0.29313 0.43423
 C102 C 0.78220 0.27018 0.43699
 H103 H 0.63713 0.16468 0.49957
 H104 H 0.71976 0.23871 0.39562
 H105 H 0.72607 0.22845 0.59499
 H106 H 0.76862 0.27722 0.58964
 H107 H 0.85865 0.32604 0.48544
 H108 H 0.77062 0.25731 0.39478
 O109 O 0.98575 0.49710 -0.13268
 O110 O 1.05121 0.52179 0.11461
 O111 O 0.96682 0.50842 0.06127
 O112 O 1.05569 0.55567 -0.06884
 O113 O 0.99118 0.49184 0.12655
 O114 O 1.04419 0.51959 -0.13813
 O115 O 1.06236 0.55822 0.04112
 O116 O 0.97217 0.51723 -0.05508
 C117 C 0.97599 0.51612 -0.11191
 C118 C 1.06120 0.55167 0.09735
 C119 C 0.97340 0.50437 0.11562
 C120 C 1.05317 0.54916 -0.12465
 O121 O 1.03762 0.46306 -0.08669
 O122 O 0.98481 0.43560 0.08925
 O123 O 0.94482 0.45175 -0.06836
 O124 O 1.08494 0.51495 0.04026
 O125 O 1.04613 0.46556 0.06530
 O126 O 0.97945 0.43739 -0.08808
 O127 O 1.07959 0.51182 -0.07303
 O128 O 0.94704 0.44392 0.04719
 Co129 Co 1.01189 0.48054 -0.10295
 Co130 Co 1.01854 0.48021 0.08846
 Co131 Co 0.96341 0.48170 -0.00457
 Co132 Co 1.06595 0.53152 -0.01516
 O133 O 1.01475 0.49375 -0.00797
 C134 C 1.06758 0.48204 -0.09124
 C135 C 0.95531 0.42612 0.07953
 C136 C 0.95104 0.43102 -0.09159
 C137 C 1.07577 0.48645 0.06488
 O138 O 0.49182 0.45680 -0.10453
 O139 O 0.47472 0.46640 0.10994
 O140 O 0.50838 0.42980 0.03247
 O141 O 0.45761 0.49398 -0.02866
 O142 O 0.51776 0.45377 0.11878
 O143 O 0.48419 0.50412 -0.11282
 O144 O 0.46827 0.50677 0.07819
 O145 O 0.52691 0.44437 -0.07211
 C146 C 0.50189 0.43683 -0.10355
 C147 C 0.45740 0.47931 0.10726
 C148 C 0.50348 0.42734 0.08894
 C149 C 0.45741 0.49225 -0.08570
 O150 O 0.54882 0.54575 -0.09764
 O151 O 0.56203 0.52041 0.11043
 O152 O 0.58136 0.50238 -0.03115
 O153 O 0.52810 0.56162 0.04699
 O154 O 0.51889 0.53173 0.12842
 O155 O 0.55688 0.49901 -0.11522
 O156 O 0.51257 0.55467 -0.05900
 O157 O 0.56888 0.48198 0.07236
 Co158 Co 0.52036 0.50096 -0.09617
 Co159 Co 0.51848 0.49346 0.10560
 Co160 Co 0.54370 0.46770 0.00092
 Co161 Co 0.49436 0.52611 0.00895
 O162 O 0.51927 0.49712 0.00475
 C163 C 0.53797 0.56493 -0.09112
 C164 C 0.57976 0.50826 0.10370
 C165 C 0.58304 0.50885 -0.08721
 C166 C 0.53065 0.56018 0.10376
 O167 O 0.53992 0.03822 -0.08352
 O168 O 0.52640 -0.02032 0.08032
 O169 O 0.52535 0.07072 0.05985
 O170 O 0.47840 -0.06824 -0.04661
 O171 O 0.54530 0.03884 0.06910
 O172 O 0.51586 -0.02457 -0.09942
 O173 O 0.48075 -0.06570 0.06986
 O174 O 0.52268 0.07100 -0.05303
 C175 C 0.54437 0.06712 -0.07876
 C176 C 0.51003 -0.05128 0.08625
 C177 C 0.54895 0.06722 0.07492
 C178 C 0.50144 -0.05539 -0.08629
 O179 O 0.45843 -0.03098 -0.12153
 O180 O 0.49132 0.02901 0.13212
 O181 O 0.45622 0.03368 -0.04444
 O182 O 0.43122 -0.05397 0.07109
 O183 O 0.47071 -0.03060 0.13689
 O184 O 0.48268 0.03055 -0.12098
 O185 O 0.42622 -0.06289 -0.04521
 O186 O 0.45905 0.03042 0.06521
 Co187 Co 0.49845 0.00325 -0.09542
 Co188 Co 0.50679 0.00392 0.09632
 Co189 Co 0.49081 0.04710 0.00676
 Co190 Co 0.45745 -0.05663 0.01222
 O191 O 0.48804 -0.00104 0.00448
 C192 C 0.43091 -0.05371 -0.10094
 C193 C 0.46665 0.03111 0.12020
 C194 C 0.46004 0.03422 -0.10108
 C195 C 0.44052 -0.04556 0.12534
 C196 C 1.15030 0.47306 0.26563
 C197 C 1.13112 0.44877 0.31186
 C198 C 1.14502 0.44762 0.36883
 C199 C 1.17864 0.46889 0.38009
 C200 C 1.19811 0.49129 0.33196
 C201 C 1.18409 0.49381 0.27612
 C202 C 1.13353 0.47535 0.20777
 C203 C 1.14862 0.50200 0.16349
 C204 C 1.13061 0.50471 0.11405
 C205 C 1.09745 0.48037 0.10651
 C206 C 1.08310 0.45257 0.14799
 C207 C 1.10023 0.45071 0.19956
 C208 C 1.09820 0.42529 0.30075
 C209 C 1.08337 0.42566 0.24513
 H210 H 1.08367 0.40618 0.33555
 H211 H 1.05779 0.40693 0.23898
 H212 H 1.12968 0.42880 0.40346
 H213 H 1.22405 0.50828 0.33836
 H214 H 1.14224 0.52662 0.08332
 H215 H 1.05745 0.43367 0.14346
 H216 H 1.20003 0.51198 0.24154
 H217 H 1.17374 0.52188 0.16829
 C218 C 0.55547 0.66044 0.28681
 C219 C 0.57338 0.66084 0.33959
 C220 C 0.57584 0.68030 0.39092
 C221 C 0.55878 0.69810 0.39383
 C222 C 0.54126 0.69781 0.34041
 C223 C 0.53977 0.67948 0.28785
 C224 C 0.55252 0.63813 0.23390
 C225 C 0.53690 0.63711 0.17739
 C226 C 0.53201 0.61335 0.13235
 C227 C 0.54215 0.58992 0.14321
 C228 C 0.55945 0.59213 0.19739
 C229 C 0.56528 0.61638 0.24198
 C230 C 0.58774 0.64069 0.34225
 C231 C 0.58312 0.61836 0.29517
 H232 H 0.60155 0.64106 0.38273
 H233 H 0.59347 0.60219 0.30073
 H234 H 0.59146 0.68141 0.42865
 H235 H 0.52701 0.71014 0.33940
 H236 H 0.51856 0.61198 0.09070
 H237 H 0.56743 0.57411 0.20576
 H238 H 0.52513 0.67947 0.24939
 H239 H 0.52775 0.65392 0.16779
 C240 C 0.34402 -0.09205 0.32447
 C241 C 0.31064 -0.11064 0.30785
 C242 C 0.28612 -0.12576 0.35420
 C243 C 0.29422 -0.12337 0.41794
 C244 C 0.32784 -0.10427 0.43303
 C245 C 0.35202 -0.08881 0.38764
 C246 C 0.36956 -0.07785 0.27407
 C247 C 0.40342 -0.05938 0.28627
 C248 C 0.42627 -0.04867 0.23795
 C249 C 0.41611 -0.05569 0.17612
 C250 C 0.38244 -0.07289 0.16325
 C251 C 0.35919 -0.08407 0.21162
 C252 C 0.30199 -0.11473 0.24494
 C253 C 0.32572 -0.10188 0.19792
 H254 H 0.27647 -0.12876 0.23178
 H255 H 0.31772 -0.10639 0.15004
 H256 H 0.26086 -0.13912 0.33974
 H257 H 0.33650 -0.10268 0.47999
 H258 H 0.45205 -0.03514 0.24921
 H259 H 0.37423 -0.07814 0.11554
 H260 H 0.37698 -0.07542 0.40335
 H261 H 0.41292 -0.05321 0.33271
 C262 C 0.89535 0.51661 0.30814
 C263 C 0.88206 0.53757 0.29555
 C264 C 0.86396 0.54246 0.34163
 C265 C 0.85886 0.52653 0.40000
 C266 C 0.86937 0.50332 0.41003
 C267 C 0.88732 0.49830 0.36473
 C268 C 0.91759 0.51502 0.26084
 C269 C 0.93524 0.49840 0.27230
 C270 C 0.95494 0.49674 0.22613
 C271 C 0.95748 0.51149 0.16734
 C272 C 0.94129 0.52955 0.15650
 C273 C 0.92178 0.53179 0.20297
 C274 C 0.88770 0.55413 0.23776
 C275 C 0.90657 0.55073 0.19199
 H276 H 0.87727 0.56989 0.22769
 H277 H 0.90990 0.56374 0.14777
 H278 H 0.85569 0.56026 0.33354
 H279 H 0.86511 0.49031 0.45449
 H280 H 0.96718 0.48269 0.23577
 H281 H 0.94341 0.54142 0.11144
 H282 H 0.89529 0.48063 0.37552
 H283 H 0.93406 0.48638 0.31645
 C284 C 0.44218 0.31985 0.26944
 C285 C 0.45999 0.30435 0.28940
 C286 C 0.45011 0.28356 0.34298
 C287 C 0.42383 0.27951 0.37931
 C288 C 0.40631 0.29499 0.36000
 C289 C 0.41502 0.31456 0.30526
 C290 C 0.45479 0.34355 0.21423
 C291 C 0.43809 0.35894 0.18849
 C292 C 0.45298 0.38423 0.14271
 C293 C 0.48470 0.39477 0.12195
 C294 C 0.50039 0.37767 0.14301
 C295 C 0.48549 0.35185 0.18844
 C296 C 0.48875 0.31141 0.25823
 C297 C 0.50162 0.33522 0.20979
 H298 H 0.50240 0.29958 0.27352
 H299 H 0.52479 0.34106 0.18929
 H300 H 0.46421 0.27230 0.35887
 H301 H 0.38627 0.29250 0.38814
 H302 H 0.44027 0.39663 0.12527
 H303 H 0.52493 0.38576 0.12660
 H304 H 0.40115 0.32651 0.29328
 H305 H 0.41396 0.35239 0.20417
 C306 C 0.63119 0.15267 0.27014
 C307 C 0.64404 0.13784 0.31093
 C308 C 0.65852 0.15343 0.36700
 C309 C 0.66110 0.18405 0.38288
 C310 C 0.64959 0.19953 0.34180
 C311 C 0.63457 0.18395 0.28615
 C312 C 0.61388 0.13385 0.21270
 C313 C 0.59757 0.14464 0.17184
 C314 C 0.57848 0.12411 0.12344
 C315 C 0.57565 0.09264 0.11378
 C316 C 0.59405 0.08305 0.15091
 C317 C 0.61227 0.10282 0.20106
 C318 C 0.64229 0.10750 0.29580
 C319 C 0.62705 0.09055 0.24177
 H320 H 0.65254 0.09643 0.32666
 H321 H 0.62583 0.06681 0.23284
 H322 H 0.66810 0.14187 0.39838
 H323 H 0.65199 0.22353 0.35312
 H324 H 0.56452 0.13211 0.09551
 H325 H 0.59200 0.05874 0.14419
 H326 H 0.62583 0.19676 0.25641
 H327 H 0.59793 0.16802 0.17826
 C328 C 0.39409 0.07755 -0.27187
 C329 C 0.40129 0.11117 -0.26673
 C330 C 0.39435 0.12673 -0.31660
 C331 C 0.37980 0.10862 -0.37129
 C332 C 0.36639 0.07327 -0.36861
 C333 C 0.37404 0.05805 -0.32031
 C334 C 0.40895 0.06443 -0.22661
 C335 C 0.41210 0.03624 -0.23922
 C336 C 0.42923 0.02684 -0.19880
 C337 C 0.44163 0.04389 -0.14316
 C338 C 0.43858 0.07197 -0.13004
 C339 C 0.42393 0.08343 -0.17313
 C340 C 0.41668 0.12918 -0.21308
 C341 C 0.42644 0.11493 -0.16588
 H342 H 0.42143 0.15466 -0.20771
 H343 H 0.43825 0.12979 -0.12527
 H344 H 0.40355 0.15356 -0.31463
 H345 H 0.35131 0.05729 -0.40564
 H346 H 0.43267 0.00607 -0.21082
 H347 H 0.44969 0.08626 -0.08850
 H348 H 0.36498 0.03127 -0.32229
 H349 H 0.40292 0.02235 -0.28165
 C350 C 0.68302 0.54868 -0.27296
 C351 C 0.69884 0.52975 -0.27790
 C352 C 0.71818 0.53375 -0.33065
 C353 C 0.72006 0.55459 -0.38136
 C354 C 0.70392 0.57307 -0.37570
 C355 C 0.68610 0.57049 -0.32242
 C356 C 0.66145 0.54267 -0.21761
 C357 C 0.64640 0.56180 -0.20676
 C358 C 0.62290 0.55218 -0.16001
 C359 C 0.61389 0.52360 -0.12281
 C360 C 0.63105 0.50633 -0.12874
 C361 C 0.65498 0.51585 -0.17581
 C362 C 0.69363 0.50548 -0.23194
 C363 C 0.67159 0.49813 -0.18286
 H364 H 0.70560 0.49080 -0.23553
 H365 H 0.66722 0.47800 -0.15033
 H366 H 0.72935 0.51832 -0.33409
 H367 H 0.70550 0.59031 -0.41225
 H368 H 0.61090 0.56651 -0.15386
 H369 H 0.62434 0.48429 -0.09954
 H370 H 0.67401 0.58501 -0.32187
 H371 H 0.65184 0.58374 -0.23472
 C372 C 0.87059 0.34691 -0.28992
 C373 C 0.83906 0.34255 -0.29735
 C374 C 0.82054 0.32661 -0.35044
 C375 C 0.83378 0.31675 -0.39888
 C376 C 0.86564 0.32223 -0.39139
 C377 C 0.88356 0.33669 -0.33783
 C378 C 0.88975 0.36431 -0.23321
 C379 C 0.92006 0.36721 -0.21916
 C380 C 0.93877 0.38693 -0.16997
 C381 C 0.92783 0.40432 -0.13348
 C382 C 0.89636 0.39918 -0.14369
 C383 C 0.87715 0.37903 -0.19289
 C384 C 0.82688 0.35556 -0.25318
 C385 C 0.84582 0.37411 -0.20293
 H386 H 0.80282 0.35250 -0.25883
 H387 H 0.83582 0.38484 -0.17158
 H388 H 0.79671 0.32415 -0.35557
 H389 H 0.87666 0.31427 -0.42616
 H390 H 0.96268 0.38989 -0.16255
 H391 H 0.88737 0.41198 -0.11506
 H392 H 0.90784 0.34029 -0.33556
 H393 H 0.93006 0.35502 -0.24631
 C394 C 0.52630 -0.12938 -0.27194
 C395 C 0.55329 -0.10948 -0.31195
 C396 C 0.55769 -0.12316 -0.36635
 C397 C 0.53592 -0.15677 -0.38167
 C398 C 0.50997 -0.17702 -0.34090
 C399 C 0.50504 -0.16350 -0.28684
 C400 C 0.52120 -0.11274 -0.21681
 C401 C 0.49381 -0.12915 -0.17653
 C402 C 0.48846 -0.11122 -0.13036
 C403 C 0.51046 -0.07663 -0.12287
 C404 C 0.53899 -0.06088 -0.15962
 C405 C 0.54416 -0.07828 -0.20691
 C406 C 0.57560 -0.07584 -0.29806
 C407 C 0.57128 -0.06068 -0.24644
 H408 H 0.59650 -0.06078 -0.32820
 H409 H 0.58892 -0.03434 -0.23857
 H410 H 0.57815 -0.10759 -0.39715
 H411 H 0.49300 -0.20313 -0.35172
 H412 H 0.46615 -0.12398 -0.10299
 H413 H 0.55631 -0.03420 -0.15421
 H414 H 0.48437 -0.18001 -0.25768
 H415 H 0.47554 -0.15539 -0.18172
 C416 C 0.36063 0.46452 -0.27224
 C417 C 0.35390 0.49059 -0.28647
 C418 C 0.33602 0.48883 -0.34004
 C419 C 0.32544 0.46179 -0.38075
 C420 C 0.33145 0.43564 -0.36563
 C421 C 0.34862 0.43682 -0.31215
 C422 C 0.38180 0.46849 -0.21730
 C423 C 0.39071 0.44445 -0.20040
 C424 C 0.41362 0.45121 -0.15369
 C425 C 0.42772 0.48168 -0.12221
 C426 C 0.41750 0.50482 -0.13545
 C427 C 0.39478 0.49854 -0.18292
 C428 C 0.36612 0.51885 -0.24851
 C429 C 0.38625 0.52282 -0.19809
 H430 H 0.36084 0.53872 -0.25903
 H431 H 0.39593 0.54567 -0.17143
 H432 H 0.33164 0.50924 -0.35156
 H433 H 0.32307 0.41425 -0.39587
 H434 H 0.42126 0.43311 -0.14361
 H435 H 0.42886 0.52866 -0.11152
 H436 H 0.35282 0.41616 -0.30383
 H437 H 0.38122 0.42083 -0.22395
 C438 C 1.09363 0.64861 -0.32499
 C439 C 1.10959 0.68311 -0.31009
 C440 C 1.12338 0.70805 -0.35785
 C441 C 1.12142 0.69905 -0.42113
 C442 C 1.10336 0.66415 -0.43416
 C443 C 1.08946 0.63972 -0.38756
 C444 C 1.08234 0.62274 -0.27366
 C445 C 1.07057 0.58846 -0.28498
 C446 C 1.06140 0.56527 -0.23624
 C447 C 1.06308 0.57518 -0.17449
 C448 C 1.07510 0.60945 -0.16221
 C449 C 1.08533 0.63340 -0.21153
 C450 C 1.11189 0.69226 -0.24755
 C451 C 1.09951 0.66792 -0.19945
 H452 H 1.12359 0.71863 -0.23554
 H453 H 1.10200 0.67635 -0.15199
 H454 H 1.13547 0.73423 -0.34484
 H455 H 1.10140 0.65442 -0.48018
 H456 H 1.05273 0.53919 -0.24731
 H457 H 1.07720 0.61754 -0.11456
 H458 H 1.07624 0.61385 -0.40202
 H459 H 1.06891 0.57891 -0.33101
 C460 C 0.91834 0.56694 -0.28617
 C461 C 0.93320 0.57770 -0.34538
 C462 C 0.91608 0.58205 -0.39420
 C463 C 0.88270 0.57143 -0.38745
 C464 C 0.86848 0.56236 -0.32800
 C465 C 0.88625 0.56070 -0.27764
 C466 C 0.93573 0.55857 -0.23748
 C467 C 0.92433 0.55018 -0.17586
 C468 C 0.93871 0.53799 -0.13455
 C469 C 0.96432 0.53329 -0.15400
 C470 C 0.97718 0.54357 -0.21405
 C471 C 0.96383 0.55733 -0.25513
 C472 C 0.96349 0.58038 -0.35745
 C473 C 0.97791 0.56924 -0.31395
 H474 H 0.97491 0.58869 -0.40286
 H475 H 1.00011 0.56949 -0.32684
 H476 H 0.92776 0.59026 -0.43942
 H477 H 0.84285 0.55395 -0.32111
 H478 H 0.92867 0.53072 -0.08796
 H479 H 0.99704 0.54024 -0.22914
 H480 H 0.87351 0.55172 -0.23377
 H481 H 0.90413 0.55246 -0.15905
 C482 C 0.45285 0.33232 -0.28916
 C483 C 0.43537 0.33625 -0.33874
 C484 C 0.42592 0.31479 -0.38970
 C485 C 0.43303 0.28858 -0.39271
 C486 C 0.44896 0.28377 -0.34154
 C487 C 0.45890 0.30538 -0.29088
 C488 C 0.46441 0.35737 -0.23760
 C489 C 0.48435 0.35768 -0.18844
 C490 C 0.49595 0.38291 -0.14368
 C491 C 0.48763 0.40811 -0.14653
 C492 C 0.46723 0.40747 -0.19445
 C493 C 0.45594 0.38276 -0.23997
 C494 C 0.42744 0.36169 -0.33757
 C495 C 0.43723 0.38423 -0.28895
 H496 H 0.41365 0.36441 -0.37516
 H497 H 0.43069 0.40366 -0.29051
 H498 H 0.41207 0.31813 -0.42639
 H499 H 0.45561 0.26448 -0.34157
 H500 H 0.51184 0.38301 -0.10738
 H501 H 0.46132 0.42729 -0.19826
 H502 H 0.47163 0.30079 -0.25392
 H503 H 0.49187 0.33918 -0.18458
 C504 C 0.63211 0.15197 -0.27166
 C505 C 0.61999 0.16808 -0.31102
 C506 C 0.63556 0.18250 -0.36801
 C507 C 0.66359 0.18185 -0.38588
 C508 C 0.67650 0.16732 -0.34576
 C509 C 0.66093 0.15241 -0.28941
 C510 C 0.61300 0.13415 -0.21401
 C511 C 0.62069 0.11395 -0.17582
 C512 C 0.59956 0.09406 -0.12791
 C513 C 0.57082 0.09456 -0.11576
 C514 C 0.56434 0.11670 -0.14994
 C515 C 0.58460 0.13564 -0.20006
 C516 C 0.59228 0.16945 -0.29359
 C517 C 0.57520 0.15395 -0.23888
 H518 H 0.58335 0.18230 -0.32319
 H519 H 0.55349 0.15513 -0.22817
 H520 H 0.62598 0.19440 -0.39854
 H521 H 0.69839 0.16697 -0.35868
 H522 H 0.60481 0.07689 -0.10228
 H523 H 0.54174 0.11662 -0.14162
 H524 H 0.67178 0.14130 -0.26070
 H525 H 0.64186 0.11164 -0.18428
 C526 C 1.13981 0.45985 -0.28121
 C527 C 1.12105 0.44108 -0.33245
 C528 C 1.13660 0.44067 -0.38762
 C529 C 1.17095 0.45733 -0.39196
 C530 C 1.18926 0.47355 -0.33869
 C531 C 1.17400 0.47512 -0.28454
 C532 C 1.12235 0.46304 -0.22610
 C533 C 1.13866 0.48602 -0.17794
 C534 C 1.12096 0.49089 -0.13145
 C535 C 1.08671 0.47222 -0.13081
 C536 C 1.07041 0.44769 -0.17617
 C537 C 1.08779 0.44404 -0.22500
 C538 C 1.08687 0.42276 -0.32825
 C539 C 1.07062 0.42349 -0.27497
 H540 H 1.07242 0.40768 -0.36682
 H541 H 1.04412 0.40906 -0.27424
 H542 H 1.12175 0.42641 -0.42651
 H543 H 1.21573 0.48702 -0.33963
 H544 H 1.13402 0.51017 -0.09730
 H545 H 1.04391 0.43345 -0.17681
 H546 H 1.18942 0.48859 -0.24593
 H547 H 1.16494 0.50179 -0.17734
 C548 C 0.57066 0.67208 -0.27067
 C549 C 0.58721 0.67135 -0.32465
 C550 C 0.58842 0.68985 -0.37785
 C551 C 0.57221 0.70838 -0.37992
 C552 C 0.55826 0.71135 -0.32431
 C553 C 0.55747 0.69346 -0.27056
 C554 C 0.56595 0.64822 -0.21800
 C555 C 0.54780 0.64499 -0.16382
 C556 C 0.54029 0.61907 -0.12034
 C557 C 0.55083 0.59597 -0.12975
 C558 C 0.57045 0.60030 -0.18160
 C559 C 0.57815 0.62608 -0.22538
 C560 C 0.60093 0.65069 -0.32672
 C561 C 0.59636 0.62838 -0.27820
 H562 H 0.61410 0.65059 -0.36774
 H563 H 0.60618 0.61178 -0.28315
 H564 H 0.60148 0.68899 -0.41839
 H565 H 0.54547 0.72523 -0.32298
 H566 H 0.52509 0.61626 -0.08058
 H567 H 0.57755 0.58191 -0.19093
 H568 H 0.54509 0.69553 -0.23040
 H569 H 0.53821 0.66138 -0.15523
 C570 C 0.32069 -0.12110 -0.26399
 C571 C 0.30660 -0.10216 -0.28580
 C572 C 0.28403 -0.11443 -0.33445
 C573 C 0.27505 -0.14556 -0.36085
 C574 C 0.28611 -0.16593 -0.33442
 C575 C 0.30867 -0.15392 -0.28625
 C576 C 0.34876 -0.10479 -0.22026
 C577 C 0.36820 -0.11897 -0.20490
 C578 C 0.39535 -0.10184 -0.16679
 C579 C 0.40338 -0.07055 -0.14296
 C580 C 0.38395 -0.05649 -0.15641
 C581 C 0.35742 -0.07274 -0.19681
 C582 C 0.31615 -0.07060 -0.26076
 C583 C 0.34048 -0.05659 -0.21587
 H584 H 0.30493 -0.05635 -0.27657
 H585 H 0.34718 -0.03201 -0.19811
 H586 H 0.27505 -0.09891 -0.35456
 H587 H 0.27923 -0.19012 -0.35424
 H588 H 0.41016 -0.11299 -0.15573
 H589 H 0.38978 -0.03274 -0.13598
 H590 H 0.31728 -0.17012 -0.26875
 H591 H 0.36339 -0.14276 -0.22306
 C592 C 0.54137 -0.12024 0.27523
 C593 C 0.56325 -0.09950 0.32164
 C594 C 0.56632 -0.11396 0.37740
 C595 C 0.54834 -0.14898 0.38713
 C596 C 0.52812 -0.16958 0.33974
 C597 C 0.52459 -0.15549 0.28452
 C598 C 0.53608 -0.10362 0.21948
 C599 C 0.51188 -0.12169 0.17471
 C600 C 0.50490 -0.10469 0.12835
 C601 C 0.52234 -0.06938 0.12458
 C602 C 0.54828 -0.05131 0.16576
 C603 C 0.55455 -0.06801 0.21415
 C604 C 0.58148 -0.06447 0.31257
 C605 C 0.57757 -0.04910 0.25953
 H606 H 0.59866 -0.04862 0.34751
 H607 H 0.59177 -0.02183 0.25534
 H608 H 0.58245 -0.09801 0.41354
 H609 H 0.51414 -0.19673 0.34630
 H610 H 0.48480 -0.11916 0.09709
 H611 H 0.56180 -0.02397 0.16359
 H612 H 0.50831 -0.17261 0.25021
 H613 H 0.49691 -0.14881 0.17648
 C614 C 0.35500 0.44494 0.28755
 C615 C 0.34018 0.46499 0.28579
 C616 C 0.32187 0.46498 0.33688
 C617 C 0.31841 0.44553 0.39036
 C618 C 0.33101 0.42379 0.39007
 C619 C 0.34894 0.42330 0.33927
 C620 C 0.37822 0.44935 0.23627
 C621 C 0.39703 0.43354 0.23748
 C622 C 0.42165 0.44208 0.19354
 C623 C 0.42773 0.46600 0.14640
 C624 C 0.40772 0.48026 0.14230
 C625 C 0.38349 0.47261 0.18740
 C626 C 0.34504 0.48617 0.23443
 C627 C 0.36605 0.48969 0.18600
 H628 H 0.33323 0.50108 0.23258
 H629 H 0.36983 0.50724 0.14827
 H630 H 0.31215 0.48183 0.33657
 H631 H 0.32779 0.40778 0.43011
 H632 H 0.43719 0.43134 0.19892
 H633 H 0.41232 0.49890 0.10615
 H634 H 0.35858 0.40656 0.34237
 H635 H 0.39434 0.41580 0.27365
 C636 C 1.12436 0.66208 0.26880
 C637 C 1.13776 0.65599 0.32287
 C638 C 1.15106 0.68025 0.36903
 C639 C 1.15010 0.71008 0.36371
 C640 C 1.13814 0.71699 0.30953
 C641 C 1.12565 0.69337 0.26203
 C642 C 1.10787 0.63418 0.22311
 C643 C 1.09396 0.63751 0.16747
 C644 C 1.07832 0.61047 0.12715
 C645 C 1.07579 0.57941 0.14172
 C646 C 1.08943 0.57575 0.19688
 C647 C 1.10577 0.60291 0.23708
 C648 C 1.13608 0.62499 0.33256
 C649 C 1.12018 0.59890 0.29081
 H650 H 1.14641 0.62048 0.37403
 H651 H 1.11892 0.57511 0.30103
 H652 H 1.15991 0.67485 0.41171
 H653 H 1.13679 0.73976 0.30549
 H654 H 1.06818 0.61385 0.08435
 H655 H 1.08812 0.55197 0.20770
 H656 H 1.11579 0.69941 0.22195
 H657 H 1.09512 0.66077 0.15396
 C658 C 0.41943 0.08213 0.31159
 C659 C 0.43055 0.08194 0.37256
 C660 C 0.42369 0.09769 0.42023
 C661 C 0.40588 0.11389 0.40857
 C662 C 0.39541 0.11481 0.34812
 C663 C 0.40201 0.09904 0.30003
 C664 C 0.42789 0.06544 0.26182
 C665 C 0.41751 0.06347 0.19984
 C666 C 0.42868 0.05051 0.15412
 C667 C 0.45034 0.03922 0.16925
 C668 C 0.45893 0.03888 0.23138
 C669 C 0.44790 0.05180 0.27759
 C670 C 0.44892 0.06654 0.38565
 C671 C 0.45766 0.05203 0.33902
 H672 H 0.45727 0.06634 0.43249
 H673 H 0.47263 0.04118 0.35110
 H674 H 0.43255 0.09767 0.46673
 H675 H 0.38168 0.12730 0.33835
 H676 H 0.42142 0.05064 0.10642
 H677 H 0.47531 0.02974 0.24354
 H678 H 0.39345 0.10054 0.25432
 H679 H 0.40143 0.07245 0.18546
 C680 C 0.68297 0.54973 0.28367
 C681 C 0.69524 0.52780 0.29507
 C682 C 0.71519 0.53267 0.34679
 C683 C 0.72202 0.55829 0.38910
 C684 C 0.71024 0.58025 0.37737
 C685 C 0.69120 0.57629 0.32512
 C686 C 0.65980 0.54219 0.23069
 C687 C 0.64664 0.56271 0.21506
 C688 C 0.62209 0.55247 0.17076
 C689 C 0.61005 0.52161 0.14060
 C690 C 0.62497 0.50238 0.15176
 C691 C 0.64969 0.51243 0.19664
 C692 C 0.68607 0.50007 0.25684
 C693 C 0.66347 0.49230 0.20921
 H694 H 0.69554 0.48333 0.26544
 H695 H 0.65618 0.46980 0.18262
 H696 H 0.72377 0.51523 0.35631
 H697 H 0.71525 0.60015 0.40952
 H698 H 0.61167 0.56829 0.16162
 H699 H 0.61617 0.47872 0.12808
 H700 H 0.68224 0.59351 0.31941
 H701 H 0.65432 0.58634 0.23750
 C702 C 0.86894 0.33144 0.26235
 C703 C 0.83849 0.32956 0.27112
 C704 C 0.82035 0.31491 0.32574
 C705 C 0.83282 0.30356 0.37342
 C706 C 0.86274 0.30504 0.36453
 C707 C 0.88049 0.31849 0.30946
 C708 C 0.88893 0.35004 0.20613
 C709 C 0.91933 0.35304 0.19285
 C710 C 0.93975 0.37561 0.14698
 C711 C 0.93024 0.39546 0.11281
 C712 C 0.89835 0.38949 0.12034
 C713 C 0.87772 0.36708 0.16697
 C714 C 0.82734 0.34425 0.22734
 C715 C 0.84679 0.36311 0.17689
 H716 H 0.80394 0.34264 0.23391
 H717 H 0.83787 0.37557 0.14623
 H718 H 0.79746 0.31436 0.33299
 H719 H 0.87269 0.29635 0.40086
 H720 H 0.96394 0.37905 0.14105
 H721 H 0.89051 0.40428 0.09356
 H722 H 0.90376 0.31976 0.30590
 H723 H 0.92840 0.33932 0.21903
   
