data_POSCAR
  _audit_creation_date              2014-09-24
  _audit_creation_method            'ToBaCCo'
  _symmetry_space_group_name_H-M    'P1'
  _symmetry_Int_Tables_number       1
  _symmetry_cell_setting            triclinic
  loop_
  _symmetry_equiv_pos_as_xyz
 x,y,z
_cell_length_a 10.6417
_cell_length_b 10.6416
_cell_length_c 10.6413
_cell_angle_alpha 72.612900
_cell_angle_beta 107.359000
_cell_angle_gamma 72.608300
loop_
  _atom_site_label
  _atom_site_type_symbol
  _atom_site_fract_x
  _atom_site_fract_y
  _atom_site_fract_z
O1 O 0.73137 0.42511 0.14416
 O2 O 0.35306 0.49815 0.09435
 O3 O 0.56678 0.27224 0.14193
 O4 O 0.51598 0.64408 0.09299
 O5 O 0.42077 0.73259 -0.14618
 O6 O 0.49107 0.35704 -0.09568
 O7 O 0.26958 0.56521 -0.14176
 O8 O 0.64249 0.51584 -0.09490
 Cu9 Cu 0.54885 0.45211 0.14153
 Cu10 Cu 0.44879 0.55020 -0.14276
 C11 C 0.74757 0.47072 0.02820
 C12 C 0.25055 0.53092 -0.02639
 C13 C 0.52859 0.25440 0.02626
 C14 C 0.46933 0.74856 -0.03068
 O15 O -0.14260 0.72983 0.43599
 O16 O -0.09545 0.35643 0.48638
 O17 O -0.09270 0.50871 0.64577
 O18 O -0.14313 0.57671 0.26973
 O19 O 0.09604 0.48323 0.35871
 O20 O 0.14515 0.43017 0.73007
 O21 O 0.14351 0.26766 0.57617
 O22 O 0.09381 0.64557 0.50435
 Cu23 Cu -0.14185 0.54994 0.45182
 Cu24 Cu 0.14253 0.44953 0.54987
 C25 C -0.02704 0.74841 0.47090
 C26 C 0.02756 0.25138 0.53103
 C27 C 0.02986 0.47058 0.74805
 C28 C -0.02714 0.52979 0.25391
 O29 O 0.49727 0.09418 0.64589
 O30 O 0.42264 0.14411 0.26754
 O31 O 0.27107 0.14215 0.43278
 O32 O 0.64242 0.09342 0.48223
 O33 O 0.73129 -0.14580 0.57869
 O34 O 0.35553 -0.09537 0.50739
 O35 O 0.51494 -0.09503 0.35656
 O36 O 0.56258 -0.14172 0.72932
 Cu37 Cu 0.45075 0.14150 0.45010
 Cu38 Cu 0.54888 -0.14280 0.55029
 C39 C 0.52897 -0.02624 0.74824
 C40 C 0.46885 0.02829 0.25128
 C41 C 0.25309 0.02653 0.47052
 C42 C 0.74710 -0.03026 0.52955
 C43 C 0.52006 -0.02376 -0.12218
 C44 C 0.47651 -0.11416 -0.03143
 C45 C 0.45169 -0.08227 0.08024
 C46 C 0.47491 0.02909 0.11289
 C47 C 0.52074 0.11791 0.02450
 C48 C 0.54224 0.08840 -0.08937
 H49 H 0.57975 0.15496 -0.15423
 H50 H 0.41541 -0.14896 0.14665
 C51 C -0.02636 0.52347 1.11684
 C52 C -0.11446 0.47737 1.02839
 C53 C -0.08180 0.45414 0.91703
 C54 C 0.02971 0.47916 0.88482
 C55 C 0.12057 0.52258 0.97548
 C56 C 0.08761 0.54480 1.08759
 H57 H 0.15272 0.58163 1.15480
 H58 H -0.14784 0.41713 0.85104
 C59 C 0.11671 0.02478 0.47862
 C60 C 0.02789 0.11324 0.52445
 C61 C -0.08373 0.08077 0.54735
 C62 C -0.11555 -0.03095 0.52257
 C63 C -0.02492 -0.12182 0.47934
 C64 C 0.08720 -0.08905 0.45715
 H65 H 0.15373 -0.15399 0.41966
 H66 H -0.15059 0.14721 0.58348
   
