data_POSCAR
  _audit_creation_date              2014-09-24
  _audit_creation_method            'ToBaCCo'
  _symmetry_space_group_name_H-M    'P1'
  _symmetry_Int_Tables_number       1
  _symmetry_cell_setting            triclinic
  loop_
  _symmetry_equiv_pos_as_xyz
 x,y,z
_cell_length_a 21.2056
_cell_length_b 21.2209
_cell_length_c 36.1482
_cell_angle_alpha 82.135800
_cell_angle_beta 97.186500
_cell_angle_gamma 88.232600
loop_
  _atom_site_label
  _atom_site_type_symbol
  _atom_site_fract_x
  _atom_site_fract_y
  _atom_site_fract_z
O1 O 0.02800 0.54615 1.03985
 O2 O 0.04352 0.43720 0.97045
 O3 O 0.04354 0.56069 0.96956
 O4 O 0.02806 0.42411 1.04152
 O5 O -0.07590 0.42898 1.02497
 O6 O -0.06055 0.56867 0.95425
 O7 O -0.06037 0.44476 0.95389
 O8 O -0.07636 0.55139 1.02507
 Cu9 Cu 0.04621 0.49118 1.00672
 Cu10 Cu -0.07874 0.49903 0.98775
 C11 C -0.02673 0.56721 1.04451
 C12 C -0.00564 0.42203 0.95036
 C13 C -0.00578 0.58930 0.95016
 C14 C -0.02648 0.40335 1.04577
 O15 O 0.45128 0.07647 0.52368
 O16 O 0.55995 0.05412 0.45336
 O17 O 0.43563 0.05707 0.45361
 O18 O 0.57351 0.07619 0.52300
 O19 O 0.57883 -0.02717 0.54260
 O20 O 0.44221 -0.04664 0.47201
 O21 O 0.56576 -0.04908 0.47294
 O22 O 0.45670 -0.02744 0.54151
 Cu23 Cu 0.50451 0.07633 0.48628
 Cu24 Cu 0.51165 -0.04795 0.50896
 C25 C 0.43537 0.02788 0.54455
 C26 C 0.58226 -0.00160 0.45153
 C27 C 0.41461 0.00214 0.45130
 C28 C 0.59931 0.02799 0.54500
 C29 C -0.04557 -0.11454 0.22932
 C30 C -0.09862 -0.11397 0.25456
 C31 C -0.09874 -0.06329 0.27407
 C32 C -0.04504 -0.01769 0.26679
 C33 C -0.05325 -0.04975 0.20455
 C34 C -0.05278 0.00073 0.22382
 C35 C 0.01547 -0.11143 0.25678
 C36 C 0.01632 -0.06083 0.27639
 H37 H -0.13184 -0.15137 0.25777
 H38 H -0.04558 0.02370 0.28246
 H39 H -0.05620 -0.04433 0.17411
 H40 H 0.05433 -0.14686 0.26057
 C41 C 0.11428 0.05012 0.72915
 C42 C 0.11086 -0.01092 0.75703
 C43 C 0.05876 -0.01270 0.77566
 C44 C 0.01481 0.04787 0.76512
 C45 C 0.05064 0.05656 0.70361
 C46 C -0.00106 0.05525 0.72218
 C47 C 0.11088 0.10349 0.75370
 C48 C 0.05875 0.10267 0.77244
 H49 H 0.14693 -0.04934 0.76163
 H50 H -0.02771 0.04718 0.78017
 H51 H 0.04688 0.06063 0.67319
 H52 H 0.14697 0.13799 0.75671
 C53 C -0.04222 -0.30418 0.12590
 C54 C 0.01758 -0.31963 0.11502
 C55 C 0.02214 -0.36215 0.08891
 C56 C -0.03227 -0.38914 0.07266
 C57 C -0.09160 -0.37357 0.08323
 C58 C -0.09661 -0.33190 0.10962
 C59 C -0.04485 -0.25806 0.15374
 C60 C -0.10167 -0.23945 0.16661
 C61 C -0.10173 -0.19481 0.19167
 C62 C -0.04500 -0.16820 0.20528
 C63 C 0.01152 -0.18577 0.19185
 C64 C 0.01224 -0.23090 0.16697
 C65 C 0.07248 -0.29191 0.12978
 C66 C 0.06979 -0.24814 0.15497
 H67 H 0.11822 -0.30367 0.12138
 H68 H 0.11355 -0.22744 0.16522
 H69 H 0.06823 -0.37343 0.08077
 H70 H -0.13434 -0.39382 0.07115
 H71 H -0.14692 -0.17996 0.19941
 H72 H 0.05519 -0.16313 0.19994
 H73 H -0.14347 -0.32176 0.11661
 H74 H -0.14677 -0.25799 0.15726
 C75 C -0.04029 0.24220 0.13045
 C76 C -0.09107 0.25999 0.10112
 C77 C -0.08709 0.31363 0.07417
 C78 C -0.03212 0.34883 0.07517
 C79 C 0.01824 0.33088 0.10411
 C80 C 0.01421 0.27859 0.13152
 C81 C -0.04553 0.18352 0.15795
 C82 C 0.00157 0.16266 0.18871
 C83 C -0.00276 0.10462 0.21143
 C84 C -0.05411 0.06640 0.20421
 C85 C -0.10294 0.08807 0.17501
 C86 C -0.09929 0.14644 0.15204
 C87 C -0.14457 0.22302 0.09810
 C88 C -0.14821 0.16700 0.12271
 H89 H -0.18348 0.23660 0.07568
 H90 H -0.18973 0.13901 0.11847
 H91 H -0.12604 0.32675 0.05170
 H92 H 0.06113 0.35736 0.10560
 H93 H 0.03593 0.08802 0.23332
 H94 H -0.14284 0.05840 0.16952
 H95 H 0.05478 0.26685 0.15278
 H96 H 0.04284 0.18954 0.19518
 C97 C 0.30619 0.04582 0.62609
 C98 C 0.32093 -0.01415 0.61545
 C99 C 0.36352 -0.01923 0.58926
 C100 C 0.39124 0.03478 0.57252
 C101 C 0.37616 0.09441 0.58260
 C102 C 0.33441 0.09995 0.60921
 C103 C 0.26006 0.04880 0.65420
 C104 C 0.24251 0.10557 0.66731
 C105 C 0.19744 0.10594 0.69245
 C106 C 0.16927 0.04955 0.70577
 C107 C 0.18626 -0.00690 0.69233
 C108 C 0.23181 -0.00798 0.66753
 C109 C 0.29241 -0.06876 0.63049
 C110 C 0.24833 -0.06564 0.65566
 H111 H 0.30366 -0.11460 0.62223
 H112 H 0.22684 -0.10915 0.66605
 H113 H 0.37426 -0.06553 0.58142
 H114 H 0.39694 0.13684 0.57008
 H115 H 0.18336 0.15113 0.70033
 H116 H 0.16264 -0.05026 0.70034
 H117 H 0.32453 0.14695 0.61589
 H118 H 0.26224 0.15036 0.65806
 C119 C -0.23933 0.05210 0.62619
 C120 C -0.26969 -0.00653 0.62795
 C121 C -0.32254 -0.01404 0.60159
 C122 C -0.34616 0.03633 0.57344
 C123 C -0.31715 0.09493 0.57250
 C124 C -0.26451 0.10284 0.59843
 C125 C -0.18074 0.05695 0.65335
 C126 C -0.14448 0.11165 0.65212
 C127 C -0.08738 0.11184 0.67588
 C128 C -0.06576 0.05820 0.70185
 C129 C -0.10238 0.00448 0.70454
 C130 C -0.15923 0.00310 0.68018
 C131 C -0.24677 -0.05753 0.65570
 C132 C -0.19296 -0.05269 0.68139
 H133 H -0.27038 -0.10222 0.65731
 H134 H -0.17659 -0.09384 0.70196
 H135 H -0.34506 -0.05933 0.60292
 H136 H -0.33465 0.13479 0.55129
 H137 H -0.05898 0.15342 0.67333
 H138 H -0.08456 -0.03764 0.72391
 H139 H -0.24417 0.14891 0.59603
 H140 H -0.15810 0.15398 0.63226
 C141 C 0.01331 -0.24067 0.87617
 C142 C 0.06764 -0.27526 0.89674
 C143 C 0.06091 -0.33184 0.92070
 C144 C 0.00048 -0.35543 0.92476
 C145 C -0.05328 -0.32147 0.90375
 C146 C -0.04705 -0.26501 0.87984
 C147 C 0.02282 -0.18000 0.85118
 C148 C -0.02792 -0.14093 0.83020
 C149 C -0.01624 -0.08587 0.80654
 C150 C 0.04620 -0.06839 0.80299
 C151 C 0.09687 -0.10579 0.82484
 C152 C 0.08576 -0.16113 0.84866
 C153 C 0.12854 -0.25333 0.89338
 C154 C 0.13742 -0.19767 0.86975
 H155 H 0.17015 -0.27983 0.90913
 H156 H 0.18560 -0.18306 0.86792
 H157 H 0.10321 -0.35720 0.93643
 H158 H -0.10063 -0.33812 0.90598
 H159 H -0.05639 -0.05795 0.79034
 H160 H 0.14534 -0.09187 0.82341
 H161 H -0.09009 -0.24120 0.86455
 H162 H -0.07691 -0.15222 0.83141
 C163 C 0.01399 0.28755 0.87246
 C164 C 0.06821 0.30724 0.89415
 C165 C 0.06139 0.35146 0.91910
 C166 C 0.00107 0.37687 0.92304
 C167 C -0.05259 0.35775 0.90129
 C168 C -0.04637 0.31376 0.87634
 C169 C 0.02350 0.23960 0.84643
 C170 C -0.02714 0.21609 0.82392
 C171 C -0.01555 0.17152 0.80013
 C172 C 0.04667 0.14933 0.79807
 C173 C 0.09735 0.17210 0.82054
 C174 C 0.08632 0.21677 0.84456
 C175 C 0.12901 0.28261 0.89098
 C176 C 0.13787 0.23844 0.86671
 H177 H 0.17051 0.29772 0.90757
 H178 H 0.18593 0.22090 0.86529
 H179 H 0.10332 0.36580 0.93568
 H180 H -0.09974 0.37653 0.90372
 H181 H -0.05545 0.15530 0.78277
 H182 H 0.14559 0.15438 0.81976
 H183 H -0.08937 0.30087 0.86049
 H184 H -0.07598 0.23157 0.82413
 C185 C -0.28298 -0.03296 0.37749
 C186 C -0.30713 0.02954 0.37873
 C187 C -0.35240 0.03993 0.40292
 C188 C -0.37409 -0.01134 0.42628
 C189 C -0.35010 -0.07326 0.42452
 C190 C -0.30549 -0.08396 0.40059
 C191 C -0.23449 -0.04215 0.35156
 C192 C -0.20755 -0.10246 0.34852
 C193 C -0.16332 -0.10881 0.32366
 C194 C -0.14446 -0.05539 0.30113
 C195 C -0.17006 0.00511 0.30433
 C196 C -0.21501 0.01207 0.32922
 C197 C -0.28578 0.08126 0.35593
 C198 C -0.24080 0.07271 0.33171
 H199 H -0.30415 0.12918 0.35679
 H200 H -0.22600 0.11430 0.31464
 H201 H -0.37018 0.08813 0.40371
 H202 H -0.36554 -0.11414 0.44189
 H203 H -0.14333 -0.15591 0.32236
 H204 H -0.15612 0.04666 0.28683
 H205 H -0.28927 -0.13265 0.40081
 H206 H -0.21983 -0.14550 0.36499
 C207 C 0.24234 -0.01767 0.37731
 C208 C 0.27898 -0.07223 0.39617
 C209 C 0.33532 -0.06547 0.41994
 C210 C 0.35665 -0.00486 0.42495
 C211 C 0.32103 0.04912 0.40552
 C212 C 0.26468 0.04295 0.38205
 C213 C 0.18193 -0.02706 0.35264
 C214 C 0.14032 0.02380 0.33418
 C215 C 0.08579 0.01260 0.31047
 C216 C 0.07139 -0.04944 0.30417
 C217 C 0.11108 -0.10059 0.32394
 C218 C 0.16583 -0.08993 0.34797
 C219 C 0.25944 -0.13324 0.39107
 C220 C 0.20443 -0.14188 0.36723
 H221 H 0.28752 -0.17504 0.40543
 H222 H 0.19187 -0.19009 0.36387
 H223 H 0.36258 -0.10761 0.43456
 H224 H 0.33634 0.09650 0.40877
 H225 H 0.05584 0.05313 0.29653
 H226 H 0.09942 -0.14909 0.32086
 H227 H 0.23954 0.08620 0.36786
 H228 H 0.14902 0.07262 0.33752
   
