data_POSCAR
  _audit_creation_date              2014-09-24
  _audit_creation_method            'ToBaCCo'
  _symmetry_space_group_name_H-M    'P1'
  _symmetry_Int_Tables_number       1
  _symmetry_cell_setting            triclinic
  loop_
  _symmetry_equiv_pos_as_xyz
 x,y,z
_cell_length_a 28.1525
_cell_length_b 28.4950
_cell_length_c 32.9396
_cell_angle_alpha 88.899600
_cell_angle_beta 90.788200
_cell_angle_gamma 120.440700
loop_
  _atom_site_label
  _atom_site_type_symbol
  _atom_site_fract_x
  _atom_site_fract_y
  _atom_site_fract_z
C1 C 0.04815 0.54137 1.33456
 C2 C -0.00277 0.52409 1.35323
 C3 C -0.05309 0.49111 1.33335
 C4 C -0.05267 0.47942 1.29164
 C5 C -0.00166 0.50040 1.27109
 C6 C 0.04882 0.53115 1.29255
 C7 C 0.09853 0.55408 1.27076
 C8 C 0.09907 0.54424 1.22968
 C9 C 0.04981 0.51279 1.20814
 C10 C -0.00110 0.49128 1.22873
 C11 C -0.10185 0.45016 1.26929
 C12 C -0.10122 0.44006 1.22827
 C13 C -0.05141 0.46150 1.20692
 C14 C -0.05043 0.45207 1.16472
 C15 C 0.00059 0.47063 1.14586
 C16 C 0.05025 0.50254 1.16641
 H17 H 0.13775 0.58099 1.28499
 H18 H 0.13869 0.56186 1.21491
 H19 H -0.14170 0.43530 1.28302
 H20 H -0.14056 0.41492 1.21359
 H21 H -0.00346 0.53058 1.38553
 H22 H 0.00200 0.46498 1.11350
 C23 C 0.52533 0.47017 1.16755
 C24 C 0.49875 0.49196 1.14465
 C25 C 0.47546 0.51938 1.16292
 C26 C 0.47701 0.52384 1.20566
 C27 C 0.50332 0.50139 1.22945
 C28 C 0.52819 0.47507 1.21027
 C29 C 0.55510 0.45432 1.23428
 C30 C 0.55723 0.45888 1.27634
 C31 C 0.53071 0.48250 1.29639
 C32 C 0.50485 0.50541 1.27246
 C33 C 0.45227 0.54939 1.22524
 C34 C 0.45446 0.55406 1.26726
 C35 C 0.48085 0.53274 1.29134
 C36 C 0.48414 0.53838 1.33386
 C37 C 0.51044 0.51666 1.35706
 C38 C 0.53230 0.48712 1.33947
 H39 H 0.57525 0.43470 1.22074
 H40 H 0.58102 0.44452 1.29275
 H41 H 0.43082 0.56597 1.20826
 H42 H 0.43533 0.57474 1.28074
 H43 H 0.49735 0.48866 1.11183
 H44 H 0.51058 0.51999 1.38984
 C45 C 0.45898 0.95314 1.33680
 C46 C 0.47844 1.00376 1.35506
 C47 C 0.51110 1.05313 1.33404
 C48 C 0.51957 1.05182 1.29169
 C49 C 0.49634 1.00095 1.27179
 C50 C 0.46694 0.95154 1.29448
 C51 C 0.44297 0.90187 1.27373
 C52 C 0.44967 0.90040 1.23220
 C53 C 0.47856 0.94858 1.20917
 C54 C 0.50167 0.99943 1.22891
 C55 C 0.54751 1.09988 1.26816
 C56 C 0.55398 1.09831 1.22657
 C57 C 0.52975 1.04868 1.20585
 C58 C 0.53508 1.04675 1.16304
 C59 C 0.51448 0.99582 1.14486
 C60 C 0.48519 0.94716 1.16688
 H61 H 0.41767 0.86333 1.28919
 H62 H 0.43143 0.86086 1.21827
 H63 H 0.56402 1.13960 1.28137
 H64 H 0.57863 1.13686 1.21099
 H65 H 0.47347 1.00468 1.38761
 H66 H 0.51726 0.99355 1.11219
 C67 C 0.95099 0.45623 0.66643
 C68 C 1.00117 0.47603 0.64653
 C69 C 1.05184 0.50919 0.66611
 C70 C 1.05187 0.51895 0.70838
 C71 C 1.00104 0.49727 0.72935
 C72 C 0.95050 0.46640 0.70816
 C73 C 0.90066 0.44589 0.72927
 C74 C 0.90029 0.45583 0.77038
 C75 C 0.94974 0.48593 0.79214
 C76 C 1.00064 0.50656 0.77164
 C77 C 1.10115 0.54730 0.73075
 C78 C 1.10076 0.55699 0.77191
 C79 C 1.05105 0.53611 0.79336
 C80 C 1.05024 0.54606 0.83549
 C81 C 0.99929 0.52794 0.85436
 C82 C 0.94949 0.49636 0.83385
 H83 H 0.86135 0.42167 0.71421
 H84 H 0.86069 0.43987 0.78493
 H85 H 1.14088 0.56191 0.71690
 H86 H 1.14023 0.58172 0.78654
 H87 H 1.00024 0.46951 0.61410
 H88 H 0.99800 0.53385 0.88670
 C89 C 0.52485 0.47103 0.66570
 C90 C 0.50069 0.49532 0.64281
 C91 C 0.47544 0.52073 0.66133
 C92 C 0.47408 0.52209 0.70419
 C93 C 0.49837 0.49750 0.72784
 C94 C 0.52397 0.47196 0.70854
 C95 C 0.54774 0.44786 0.73253
 C96 C 0.54706 0.44936 0.77472
 C97 C 0.52204 0.47449 0.79453
 C98 C 0.49751 0.49888 0.77089
 C99 C 0.45013 0.54828 0.72397
 C100 C 0.44954 0.54989 0.76617
 C101 C 0.47284 0.52533 0.79019
 C102 C 0.47339 0.52762 0.83302
 C103 C 0.49810 0.50384 0.85586
 C104 C 0.52193 0.47705 0.83738
 H105 H 0.56737 0.42779 0.71886
 H106 H 0.56681 0.43096 0.79165
 H107 H 0.43202 0.56825 0.70698
 H108 H 0.43103 0.57103 0.77982
 H109 H 0.50153 0.49439 0.60991
 H110 H 0.49827 0.50573 0.88874
 C111 C 0.46924 -0.04757 0.83761
 C112 C 0.49011 0.00339 0.85582
 C113 C 0.51830 0.05208 0.83366
 C114 C 0.52402 0.05073 0.79127
 C115 C 0.50144 -0.00017 0.77170
 C116 C 0.47407 -0.04954 0.79475
 C117 C 0.44906 -0.09922 0.77387
 C118 C 0.45388 -0.10063 0.73200
 C119 C 0.48197 -0.05238 0.70892
 C120 C 0.50534 -0.00166 0.72880
 C121 C 0.55050 0.09896 0.76787
 C122 C 0.55469 0.09742 0.72597
 C123 C 0.53180 0.04759 0.70575
 C124 C 0.53488 0.04564 0.66303
 C125 C 0.51353 -0.00465 0.64415
 C126 C 0.48680 -0.05346 0.66634
 H127 H 0.42430 -0.13776 0.78942
 H128 H 0.43465 -0.14007 0.71779
 H129 H 0.56775 0.13849 0.78167
 H130 H 0.57608 0.13584 0.70958
 H131 H 0.48778 0.00567 0.88853
 H132 H 0.51572 -0.00594 0.61135
 O133 O 0.41689 0.65790 0.96266
 O134 O 0.41319 0.74762 0.95445
 C135 C 0.38767 0.77360 0.95061
 O136 O 0.34694 0.76412 0.97283
 O137 O 0.25397 0.67383 0.95927
 C138 C 0.22948 0.62476 0.94788
 O139 O 0.23936 0.58910 0.96286
 O140 O 0.33173 0.59321 0.94747
 C141 C 0.38308 0.61824 0.94115
 O142 O 0.41561 0.66575 1.04355
 O143 O 0.41940 0.75923 1.03538
 C144 C 0.38702 0.76555 1.05800
 O145 O 0.33529 0.73910 1.05306
 O146 O 0.24137 0.65086 1.03926
 C147 C 0.23177 0.60561 1.05458
 O148 O 0.25577 0.58079 1.04291
 O149 O 0.34742 0.58244 1.02762
 C150 C 0.38964 0.61440 1.04862
 Cr151 Cr 0.41317 0.70608 0.99904
 Cr152 Cr 0.29595 0.70547 1.00586
 Cr153 Cr 0.29514 0.58945 0.99542
 O154 O 0.33448 0.66685 1.00008
 O155 O 0.58356 0.33225 0.95719
 O156 O 0.58092 0.23928 0.96516
 C157 C 0.61355 0.23360 0.94232
 O158 O 0.66527 0.26054 0.94713
 O159 O 0.75878 0.34886 0.96105
 C160 C 0.76800 0.39392 0.94567
 O161 O 0.74370 0.41844 0.95733
 O162 O 0.65159 0.41587 0.97268
 C163 C 0.60928 0.38357 0.95187
 O164 O 0.58265 0.34007 1.03814
 O165 O 0.58740 0.25083 1.04617
 C166 C 0.61326 0.22514 1.04972
 O167 O 0.65383 0.23495 1.02722
 O168 O 0.74624 0.32560 1.04090
 C169 C 0.77053 0.37465 1.05231
 O170 O 0.76036 0.41019 1.03743
 O171 O 0.66767 0.40551 1.05287
 C172 C 0.61637 0.38008 1.05943
 Cr173 Cr 0.58673 0.29218 1.00162
 Cr174 Cr 0.70445 0.29397 0.99433
 Cr175 Cr 0.70428 0.40944 1.00489
 O176 O 0.66542 0.33205 1.00032
 O177 O 0.66897 0.40605 0.55277
 O178 O 0.76110 0.41000 0.53683
 C179 C 0.77094 0.37442 0.55190
 O180 O 0.74692 0.32555 0.54000
 O181 O 0.65381 0.23560 0.52697
 C182 C 0.61316 0.22607 0.54927
 O183 O 0.58717 0.25163 0.54525
 O184 O 0.58380 0.34173 0.53737
 C185 C 0.61758 0.38129 0.55893
 O186 O 0.65326 0.41736 0.47296
 O187 O 0.74491 0.41889 0.45712
 C188 C 0.76810 0.39353 0.44482
 O189 O 0.75814 0.34791 0.45956
 O190 O 0.66406 0.25942 0.44648
 C191 C 0.61221 0.23324 0.44201
 O192 O 0.58051 0.24056 0.46457
 O193 O 0.58473 0.33445 0.45639
 C194 C 0.61081 0.38596 0.45202
 Cr195 Cr 0.70548 0.40996 0.50466
 Cr196 Cr 0.70423 0.29370 0.49349
 Cr197 Cr 0.58719 0.29364 0.50083
 O198 O 0.66590 0.33256 0.49959
 O199 O 0.33351 0.58543 0.54004
 O200 O 0.23905 0.58177 0.53096
 C201 C 0.23129 0.61193 0.55455
 O202 O 0.25754 0.66331 0.55108
 O203 O 0.34628 0.75757 0.54015
 C204 C 0.39137 0.76711 0.55636
 O205 O 0.41782 0.74468 0.54492
 O206 O 0.41839 0.65562 0.52853
 C207 C 0.38500 0.61168 0.54726
 O208 O 0.34584 0.59034 0.45917
 O209 O 0.25491 0.59356 0.45029
 C210 C 0.22818 0.61840 0.44711
 O211 O 0.23636 0.65686 0.47049
 O212 O 0.32796 0.74984 0.45989
 C213 C 0.37820 0.77478 0.44941
 O214 O 0.41394 0.76477 0.46474
 O215 O 0.41322 0.67543 0.44846
 C216 C 0.38818 0.62538 0.44000
 Cr217 Cr 0.29490 0.59089 0.49525
 Cr218 Cr 0.29362 0.70537 0.50514
 Cr219 Cr 0.41266 0.70852 0.49677
 O220 O 0.33396 0.66850 0.49896
 C221 C 0.48831 0.61770 0.36848
 C222 C 0.45751 0.56353 0.35592
 C223 C 0.40254 0.53138 0.36804
 C224 C 0.37917 0.55240 0.39389
 C225 C 0.41045 0.60605 0.40802
 C226 C 0.46484 0.63899 0.39414
 H227 H 0.53099 0.64280 0.35954
 H228 H 0.37844 0.48936 0.35872
 H229 H 0.33714 0.52603 0.40386
 H230 H 0.49008 0.68035 0.40459
 C231 C 0.39553 0.89788 0.39117
 C232 C 0.43570 0.90635 0.36231
 C233 C 0.45607 0.87025 0.36219
 C234 C 0.43709 0.82721 0.39032
 C235 C 0.39655 0.81865 0.41860
 C236 C 0.37533 0.85381 0.41841
 H237 H 0.37921 0.92505 0.39230
 H238 H 0.48855 0.87676 0.34152
 H239 H 0.45428 0.80074 0.39015
 H240 H 0.34440 0.84825 0.44024
 C241 C 0.10374 0.60231 0.38935
 C242 C 0.09583 0.56417 0.35958
 C243 C 0.13323 0.54504 0.35837
 C244 C 0.17681 0.56324 0.38622
 C245 C 0.18414 0.60103 0.41598
 C246 C 0.14752 0.62087 0.41682
 H247 H 0.07611 0.61823 0.39125
 H248 H 0.12725 0.51387 0.33717
 H249 H 0.20408 0.54689 0.38492
 H250 H 0.15187 0.64999 0.43936
 C251 C 0.58783 0.49135 0.39851
 C252 C 0.55325 0.46208 0.36589
 C253 C 0.53686 0.40664 0.36233
 C254 C 0.55528 0.38159 0.39026
 C255 C 0.59072 0.41149 0.42220
 C256 C 0.60687 0.46663 0.42589
 H257 H 0.60127 0.53399 0.40237
 H258 H 0.50826 0.38211 0.33875
 H259 H 0.54179 0.33890 0.38687
 H260 H 0.63380 0.49072 0.45037
 C261 C 0.50446 0.11022 0.38540
 C262 C 0.53593 0.10145 0.35700
 C263 C 0.59320 0.13846 0.35557
 C264 C 0.61818 0.18233 0.38229
 C265 C 0.58644 0.19030 0.41091
 C266 C 0.52917 0.15426 0.41154
 H267 H 0.46034 0.08276 0.38741
 H268 H 0.61917 0.13184 0.33530
 H269 H 0.66244 0.20911 0.38127
 H270 H 0.50333 0.15894 0.43321
 C271 C 0.88882 0.49964 0.38394
 C272 C 0.89858 0.46747 0.35717
 C273 C 0.86294 0.41061 0.35841
 C274 C 0.81960 0.38666 0.38618
 C275 C 0.81033 0.41898 0.41288
 C276 C 0.84457 0.47575 0.41090
 H277 H 0.91563 0.54347 0.38400
 H278 H 0.87046 0.38436 0.33951
 H279 H 0.79394 0.34271 0.38735
 H280 H 0.83862 0.50152 0.43147
 C281 C 0.51491 0.39474 1.12440
 C282 C 0.54958 0.44293 1.14507
 C283 C 0.60680 0.46816 1.14019
 C284 C 0.62897 0.44642 1.11374
 C285 C 0.59413 0.39924 1.09161
 C286 C 0.53692 0.37291 1.09809
 H287 H 0.47061 0.37506 1.12762
 H288 H 0.63405 0.50580 1.15561
 H289 H 0.67316 0.46772 1.10945
 H290 H 0.50885 0.33650 1.08167
 C291 C 0.89297 0.38909 1.11137
 C292 C 0.90208 0.42921 1.13974
 C293 C 0.86633 0.45030 1.13948
 C294 C 0.82311 0.43212 1.11138
 C295 C 0.81405 0.39179 1.08347
 C296 C 0.84876 0.36979 1.08415
 H297 H 0.91990 0.37227 1.11051
 H298 H 0.87344 0.48284 1.15966
 H299 H 0.79705 0.44995 1.11118
 H300 H 0.84289 0.33902 1.06261
 C301 C 0.59380 0.09955 1.10591
 C302 C 0.55728 0.09325 1.13715
 C303 C 0.53943 0.13128 1.13930
 C304 C 0.55790 0.17443 1.11123
 C305 C 0.59470 0.18066 1.08037
 C306 C 0.61277 0.14299 1.07828
 H307 H 0.60839 0.07112 1.10316
 H308 H 0.50932 0.12641 1.16164
 H309 H 0.54288 0.20255 1.11345
 H310 H 0.64089 0.14640 1.05474
 C311 C 0.47583 0.60054 1.13235
 C312 C 0.45115 0.54382 1.13592
 C313 C 0.40562 0.51040 1.11147
 C314 C 0.38503 0.53334 1.08366
 C315 C 0.41001 0.59025 1.07951
 C316 C 0.45539 0.62361 1.10444
 H317 H 0.51151 0.62687 1.15068
 H318 H 0.38645 0.46652 1.11365
 H319 H 0.35009 0.50643 1.06495
 H320 H 0.47558 0.66754 1.10204
 C321 C 0.12646 0.58569 1.13357
 C322 C 0.10107 0.52966 1.14176
 C323 C 0.12072 0.49910 1.12301
 C324 C 0.16483 0.52419 1.09588
 C325 C 0.18922 0.58008 1.08652
 C326 C 0.17008 0.61069 1.10618
 H327 H 0.11124 0.60968 1.14744
 H328 H 0.10107 0.45566 1.12868
 H329 H 0.17843 0.49945 1.08108
 H330 H 0.18806 0.65380 1.09974
 C331 C 0.40196 0.86498 1.13915
 C332 C 0.45944 0.89597 1.14359
 C333 C 0.49260 0.88157 1.12202
 C334 C 0.46881 0.83767 1.09556
 C335 C 0.41131 0.80755 1.08986
 C336 C 0.37804 0.82097 1.11265
 H337 H 0.37580 0.87609 1.15514
 H338 H 0.53705 0.90539 1.12480
 H339 H 0.49571 0.82848 1.07858
 H340 H 0.33369 0.79878 1.10892
 C341 C 0.60692 0.46975 0.63883
 C342 C 0.54962 0.44438 0.64322
 C343 C 0.51531 0.39606 0.62266
 C344 C 0.53778 0.37419 0.59687
 C345 C 0.59510 0.40061 0.59078
 C346 C 0.62958 0.44799 0.61282
 H347 H 0.63386 0.50740 0.65434
 H348 H 0.47097 0.37623 0.62564
 H349 H 0.50996 0.33760 0.58053
 H350 H 0.67382 0.46935 0.60880
 C351 C 0.60312 0.10852 0.61196
 C352 C 0.55761 0.09477 0.63658
 C353 C 0.53109 0.12518 0.63335
 C354 C 0.54964 0.16859 0.60555
 C355 C 0.59486 0.18207 0.58036
 C356 C 0.62177 0.15188 0.58426
 H357 H 0.62371 0.08511 0.61383
 H358 H 0.49533 0.11451 0.65176
 H359 H 0.52798 0.19093 0.60332
 H360 H 0.65672 0.16107 0.56540
 C361 C 0.87253 0.45941 0.63359
 C362 C 0.90046 0.43105 0.64107
 C363 C 0.88383 0.38223 0.62075
 C364 C 0.84018 0.36242 0.59282
 C365 C 0.81336 0.39183 0.58423
 C366 C 0.82946 0.44006 0.60542
 H367 H 0.88539 0.49755 0.64859
 H368 H 0.90551 0.36025 0.62585
 H369 H 0.82884 0.32528 0.57685
 H370 H 0.80943 0.46349 0.59967
 C371 C 0.48690 0.59179 0.61078
 C372 C 0.45185 0.54604 0.63449
 C373 C 0.39464 0.52246 0.63033
 C374 C 0.37270 0.54412 0.60238
 C375 C 0.40774 0.58976 0.57816
 C376 C 0.46512 0.61367 0.58305
 H377 H 0.53118 0.61015 0.61345
 H378 H 0.36708 0.48673 0.64818
 H379 H 0.32837 0.52479 0.59944
 H380 H 0.49333 0.64873 0.56490
 C381 C 0.40466 0.86786 0.63527
 C382 C 0.46140 0.89554 0.64315
 C383 C 0.49449 0.87814 0.62502
 C384 C 0.47128 0.83434 0.59834
 C385 C 0.41475 0.80803 0.58887
 C386 C 0.38150 0.82451 0.60831
 H387 H 0.37874 0.88125 0.64878
 H388 H 0.53852 0.89960 0.63056
 H389 H 0.49797 0.82279 0.58370
 H390 H 0.33779 0.80492 0.60178
 C391 C 0.13692 0.59077 0.64295
 C392 C 0.09978 0.53416 0.64176
 C393 C 0.10799 0.50369 0.61244
 C394 C 0.15179 0.52878 0.58530
 C395 C 0.18806 0.58535 0.58596
 C396 C 0.18053 0.61603 0.61539
 H397 H 0.13062 0.61606 0.66377
 H398 H 0.08042 0.46009 0.61056
 H399 H 0.15625 0.50385 0.56300
 H400 H 0.20749 0.65976 0.61649
 C401 C 0.48447 0.60236 0.87715
 C402 C 0.44956 0.55509 0.85561
 C403 C 0.39231 0.53098 0.85953
 C404 C 0.37028 0.55283 0.88602
 C405 C 0.40530 0.59904 0.90902
 C406 C 0.46261 0.62434 0.90343
 H407 H 0.52878 0.62118 0.87461
 H408 H 0.36488 0.49410 0.84334
 H409 H 0.32600 0.53239 0.88958
 H410 H 0.49083 0.66000 0.92053
 C411 C 0.10711 0.60991 0.88837
 C412 C 0.09784 0.56930 0.86040
 C413 C 0.13358 0.54821 0.86099
 C414 C 0.17691 0.56682 0.88902
 C415 C 0.18610 0.60758 0.91657
 C416 C 0.15143 0.62963 0.91554
 H417 H 0.08020 0.62676 0.88898
 H418 H 0.12636 0.51531 0.84115
 H419 H 0.20291 0.54893 0.88949
 H420 H 0.15738 0.66071 0.93681
 C421 C 0.46303 0.86701 0.86121
 C422 C 0.44628 0.90587 0.86341
 C423 C 0.40981 0.90015 0.89452
 C424 C 0.38990 0.85655 0.92204
 C425 C 0.40696 0.81811 0.91996
 C426 C 0.44364 0.82370 0.88919
 H427 H 0.49296 0.87135 0.83890
 H428 H 0.39597 0.92917 0.89725
 H429 H 0.36192 0.85363 0.94550
 H430 H 0.45786 0.79494 0.88699
 C431 C 0.59218 0.48659 0.88857
 C432 C 0.54661 0.45283 0.86426
 C433 C 0.52231 0.39617 0.86800
 C434 C 0.54311 0.37351 0.89602
 C435 C 0.58849 0.40724 0.92086
 C436 C 0.61312 0.46408 0.91647
 H437 H 0.61107 0.53044 0.88626
 H438 H 0.48665 0.36958 0.84976
 H439 H 0.52319 0.32962 0.89858
 H440 H 0.64805 0.49128 0.93507
 C441 C 0.87998 0.50060 0.87796
 C442 C 0.89865 0.46964 0.85850
 C443 C 0.87218 0.41338 0.86593
 C444 C 0.82855 0.38852 0.89332
 C445 C 0.81044 0.41950 0.91369
 C446 C 0.83582 0.47564 0.90506
 H447 H 0.90045 0.54420 0.87285
 H448 H 0.88659 0.38905 0.85152
 H449 H 0.80976 0.34520 0.89920
 H450 H 0.82300 0.50062 0.92045
 C451 C 0.60045 0.13589 0.86046
 C452 C 0.54303 0.10330 0.85677
 C453 C 0.50914 0.11619 0.87893
 C454 C 0.53221 0.16011 0.90535
 C455 C 0.58973 0.19172 0.91041
 C456 C 0.62366 0.17989 0.88694
 H457 H 0.62718 0.12598 0.84396
 H458 H 0.46472 0.09114 0.87666
 H459 H 0.50484 0.16808 0.92287
 H460 H 0.66806 0.20332 0.89014
   
