data_POSCAR
  _audit_creation_date              2014-09-24
  _audit_creation_method            'ToBaCCo'
  _symmetry_space_group_name_H-M    'P1'
  _symmetry_Int_Tables_number       1
  _symmetry_cell_setting            triclinic
  loop_
  _symmetry_equiv_pos_as_xyz
 x,y,z
_cell_length_a 34.6123
_cell_length_b 32.6192
_cell_length_c 32.8478
_cell_angle_alpha 84.869500
_cell_angle_beta 94.577500
_cell_angle_gamma 95.172200
loop_
  _atom_site_label
  _atom_site_type_symbol
  _atom_site_fract_x
  _atom_site_fract_y
  _atom_site_fract_z
C1 C 0.30446 0.31861 0.23629
 H2 H 0.30786 0.31827 0.26934
 C3 C 0.33056 0.34333 0.21238
 H4 H 0.35407 0.36226 0.22698
 C5 C 0.27065 0.29315 0.17680
 H6 H 0.24797 0.27279 0.16304
 C7 C 0.29609 0.31739 0.15179
 H8 H 0.29262 0.31592 0.11886
 N9 N 0.27515 0.29427 0.21826
 C10 C 0.18919 0.26804 0.30958
 H11 H 0.18632 0.23464 0.31138
 C12 C 0.16666 0.28904 0.33292
 H13 H 0.14645 0.27181 0.35293
 C14 C 0.21851 0.33145 0.28078
 H15 H 0.23825 0.34789 0.25995
 C16 C 0.19651 0.35365 0.30357
 H17 H 0.19966 0.38711 0.30052
 Zn18 Zn 0.24334 0.25871 0.25293
 N19 N 0.21476 0.28940 0.28446
 C20 C 0.27799 0.22356 0.32862
 N21 N 0.27705 0.22554 0.28697
 C22 C 0.30150 0.20464 0.26763
 C23 C 0.32759 0.17971 0.29026
 C24 C 0.30370 0.19892 0.35246
 C25 C 0.18023 0.24372 0.19541
 C26 C 0.15427 0.22036 0.17003
 C27 C 0.18306 0.15880 0.19988
 C28 C 0.20850 0.18327 0.22463
 N29 N 0.20725 0.22504 0.22133
 H30 H 0.25898 0.24111 0.34344
 H31 H 0.30054 0.20728 0.23451
 H32 H 0.34672 0.16294 0.27456
 H33 H 0.30418 0.19723 0.38558
 H34 H 0.17951 0.27692 0.19383
 H35 H 0.13354 0.23555 0.14869
 H36 H 0.18484 0.12567 0.20204
 H37 H 0.22944 0.16882 0.24610
 C38 C 0.17041 0.33223 0.32990
 C39 C 0.32640 0.34254 0.16975
 C40 C 0.15604 0.17756 0.17200
 C41 C 0.32860 0.17670 0.33304
 C42 C 0.80930 0.81750 0.24306
 H43 H 0.81261 0.81806 0.27604
 C44 C 0.83516 0.84201 0.21864
 H45 H 0.85834 0.86166 0.23288
 C46 C 0.77592 0.79011 0.18429
 H47 H 0.75352 0.76912 0.17100
 C48 C 0.80110 0.81407 0.15878
 H49 H 0.79756 0.81170 0.12596
 N50 N 0.78029 0.79235 0.22561
 C51 C 0.69336 0.76729 0.31619
 H52 H 0.69076 0.73387 0.31862
 C53 C 0.66994 0.78855 0.33832
 H54 H 0.64936 0.77152 0.35803
 C55 C 0.72266 0.83044 0.28680
 H56 H 0.74269 0.84665 0.26614
 C57 C 0.69977 0.85289 0.30837
 H58 H 0.70254 0.88634 0.30456
 Zn59 Zn 0.74842 0.75729 0.26074
 N60 N 0.71927 0.78840 0.29129
 C61 C 0.78195 0.72229 0.33719
 N62 N 0.78194 0.72459 0.29558
 C63 C 0.80671 0.70365 0.27674
 C64 C 0.83198 0.67811 0.29979
 C65 C 0.80683 0.69701 0.36145
 C66 C 0.68568 0.74084 0.20307
 C67 C 0.66004 0.71678 0.17801
 C68 C 0.68908 0.65594 0.20942
 C69 C 0.71418 0.68109 0.23380
 N70 N 0.71268 0.72283 0.22957
 H71 H 0.76262 0.73980 0.35162
 H72 H 0.80641 0.70646 0.24365
 H73 H 0.85120 0.66111 0.28444
 H74 H 0.80641 0.69485 0.39452
 H75 H 0.68473 0.77403 0.20077
 H76 H 0.63934 0.73142 0.15619
 H77 H 0.69108 0.62284 0.21231
 H78 H 0.73506 0.66718 0.25573
 C79 C 0.67318 0.83174 0.33433
 C80 C 0.83107 0.84014 0.17610
 C81 C 0.66212 0.67398 0.18093
 C82 C 0.83186 0.67453 0.34249
 C83 C 0.80202 0.31332 0.74188
 H84 H 0.80510 0.31300 0.77494
 C85 C 0.82813 0.33832 0.71822
 H86 H 0.85138 0.35743 0.73302
 C87 C 0.76891 0.28768 0.68212
 H88 H 0.74647 0.26720 0.66816
 C89 C 0.79438 0.31220 0.65736
 H90 H 0.79120 0.31076 0.62442
 N91 N 0.77301 0.28880 0.72359
 C92 C 0.68566 0.26313 0.81352
 H93 H 0.68271 0.22972 0.81564
 C94 C 0.66296 0.28448 0.83638
 H95 H 0.64251 0.26753 0.85630
 C96 C 0.71543 0.32622 0.78451
 H97 H 0.73543 0.34241 0.76380
 C98 C 0.69330 0.34873 0.80679
 H99 H 0.69659 0.38218 0.80345
 Zn100 Zn 0.74079 0.25331 0.75796
 N101 N 0.71156 0.28418 0.78858
 C102 C 0.77416 0.21877 0.83453
 N103 N 0.77410 0.22056 0.79295
 C104 C 0.79902 0.19959 0.77436
 C105 C 0.82461 0.17461 0.79767
 C106 C 0.79934 0.19408 0.85910
 C107 C 0.67857 0.23752 0.69960
 C108 C 0.65319 0.21383 0.67396
 C109 C 0.68201 0.15265 0.70480
 C110 C 0.70687 0.17745 0.72979
 N111 N 0.70535 0.21919 0.72611
 H112 H 0.75478 0.23639 0.84874
 H113 H 0.79873 0.20209 0.74127
 H114 H 0.84399 0.15773 0.78235
 H115 H 0.79891 0.19256 0.89218
 H116 H 0.67760 0.27070 0.69773
 H117 H 0.63268 0.22875 0.65214
 H118 H 0.68404 0.11956 0.70724
 H119 H 0.72760 0.16328 0.75172
 C120 C 0.66692 0.32766 0.83301
 C121 C 0.82432 0.33762 0.67558
 C122 C 0.65529 0.17106 0.67629
 C123 C 0.82467 0.17163 0.84044
 C124 C 0.30307 0.81787 0.74157
 H125 H 0.30616 0.81824 0.77457
 C126 C 0.32903 0.84261 0.71746
 H127 H 0.35209 0.86226 0.73185
 C128 C 0.27028 0.79061 0.68244
 H129 H 0.24811 0.76954 0.66890
 C130 C 0.29558 0.81482 0.65725
 H131 H 0.29245 0.81262 0.62442
 N132 N 0.27433 0.79263 0.72380
 C133 C 0.18730 0.76565 0.81407
 H134 H 0.18496 0.73224 0.81613
 C135 C 0.16401 0.78639 0.83683
 H136 H 0.14371 0.76897 0.85662
 C137 C 0.21609 0.82930 0.78523
 H138 H 0.23595 0.84592 0.76463
 C139 C 0.19334 0.85124 0.80743
 H140 H 0.19599 0.88470 0.80412
 Zn141 Zn 0.24271 0.75691 0.75861
 N142 N 0.21295 0.78726 0.78921
 C143 C 0.27679 0.72325 0.83523
 N144 N 0.27666 0.72498 0.79364
 C145 C 0.30196 0.70448 0.77505
 C146 C 0.32800 0.68007 0.79838
 C147 C 0.30244 0.69911 0.85978
 C148 C 0.18052 0.73961 0.70064
 C149 C 0.15546 0.71531 0.67526
 C150 C 0.18549 0.65495 0.70634
 C151 C 0.20999 0.68033 0.73107
 N152 N 0.20772 0.72197 0.72715
 H153 H 0.25708 0.74048 0.84945
 H154 H 0.30160 0.70691 0.74195
 H155 H 0.34772 0.66349 0.78326
 H156 H 0.30219 0.69749 0.89284
 H157 H 0.17897 0.77272 0.69856
 H158 H 0.13459 0.72969 0.65345
 H159 H 0.18809 0.62195 0.70900
 H160 H 0.23105 0.66670 0.75300
 C161 C 0.16714 0.82957 0.83350
 C162 C 0.32531 0.84088 0.67493
 C163 C 0.15833 0.67265 0.67784
 C164 C 0.32811 0.67719 0.84110
 C165 C 0.02953 -0.03264 -0.03832
 C166 C 0.05449 -0.00107 -0.01334
 C167 C 0.03394 0.02059 0.00978
 C168 C -0.01018 0.00923 0.00528
 C169 C 0.00573 -0.05934 -0.00688
 C170 C -0.01518 -0.03768 0.01587
 C171 C -0.00015 -0.00654 -0.06373
 C172 C -0.02109 0.01512 -0.04100
 H173 H 0.08588 0.00303 -0.01336
 H174 H -0.02699 0.02706 0.02383
 H175 H 0.00432 -0.09277 -0.00436
 H176 H -0.00233 -0.00228 -0.09679
 C177 C 0.03284 0.46059 0.46767
 C178 C 0.05832 0.49083 0.49353
 C179 C 0.03819 0.51382 0.51572
 C180 C -0.00610 0.50460 0.50990
 C181 C 0.00694 0.43490 0.49819
 C182 C -0.01325 0.45782 0.52044
 C183 C 0.00436 0.48738 0.44146
 C184 C -0.01580 0.51070 0.46338
 H185 H 0.08980 0.49258 0.49515
 H186 H -0.02263 0.52331 0.52786
 H187 H 0.00178 0.40166 0.49946
 H188 H 0.00083 0.48803 0.40838
 C189 C 0.52980 -0.03605 0.46164
 C190 C 0.55514 -0.00687 0.48869
 C191 C 0.53488 0.01619 0.51065
 C192 C 0.49055 0.00805 0.50349
 C193 C 0.50266 -0.06169 0.49083
 C194 C 0.48249 -0.03892 0.51333
 C195 C 0.50250 -0.00824 0.43511
 C196 C 0.48233 0.01540 0.45668
 H197 H 0.58661 -0.00571 0.49108
 H198 H 0.47446 0.02730 0.52128
 H199 H 0.49810 -0.09500 0.49189
 H200 H 0.49817 -0.00865 0.40216
 C201 C 0.53561 0.46988 -0.03656
 C202 C 0.56102 0.49867 -0.00899
 C203 C 0.54079 0.52022 0.01455
 C204 C 0.49634 0.51190 0.00738
 C205 C 0.50931 0.44312 -0.00753
 C206 C 0.48866 0.46485 0.01540
 C207 C 0.50848 0.49888 -0.06189
 C208 C 0.48741 0.52040 -0.03913
 H209 H 0.59243 0.50221 -0.00883
 H210 H 0.47973 0.52933 0.02648
 H211 H 0.50631 0.40972 -0.00656
 H212 H 0.50749 0.50402 -0.09489
 C213 C 0.09901 -0.10645 -0.10329
 C214 C 0.06564 -0.09075 -0.12326
 C215 C 0.04276 -0.06735 -0.10268
 C216 C 0.14314 -0.14833 -0.14376
 C217 C 0.08620 -0.07610 -0.04158
 C218 C 0.10902 -0.09947 -0.06227
 C219 C 0.12303 -0.12947 -0.12507
 C220 C 0.05334 -0.05856 -0.06177
 H221 H 0.05723 -0.09663 -0.15483
 H222 H 0.01669 -0.05695 -0.11904
 H223 H 0.09440 -0.07144 -0.00971
 H224 H 0.13453 -0.11197 -0.04629
 C225 C 0.10432 0.39468 0.39694
 C226 C 0.09702 0.43561 0.38484
 C227 C 0.07403 0.45656 0.40779
 C228 C 0.14727 0.35447 0.35346
 C229 C 0.06606 0.39584 0.45543
 C230 C 0.08906 0.37499 0.43242
 C231 C 0.12777 0.37293 0.37324
 C232 C 0.05724 0.43667 0.44284
 H233 H 0.10921 0.45140 0.35775
 H234 H 0.06943 0.48847 0.39815
 H235 H 0.05608 0.37990 0.48338
 H236 H 0.09518 0.34354 0.44251
 C237 C 0.60362 -0.10440 0.39605
 C238 C 0.59235 -0.06600 0.37929
 C239 C 0.56842 -0.04414 0.40026
 C240 C 0.64882 -0.14573 0.35623
 C241 C 0.56739 -0.09880 0.45521
 C242 C 0.59132 -0.12060 0.43417
 C243 C 0.62827 -0.12688 0.37443
 C244 C 0.55452 -0.06077 0.43800
 H245 H 0.60234 -0.05276 0.35016
 H246 H 0.56130 -0.01393 0.38704
 H247 H 0.55959 -0.11161 0.48524
 H248 H 0.60053 -0.14993 0.44784
 C249 C 0.60176 0.39395 -0.10283
 C250 C 0.61277 0.40080 -0.06197
 C251 C 0.59117 0.42501 -0.04082
 C252 C 0.64379 0.35044 -0.14399
 C253 C 0.54694 0.43489 -0.10114
 C254 C 0.56859 0.41065 -0.12220
 C255 C 0.62455 0.37001 -0.12503
 C256 C 0.55863 0.44362 -0.06045
 H257 H 0.63807 0.38746 -0.04645
 H258 H 0.60001 0.42929 -0.00901
 H259 H 0.52084 0.44600 -0.11687
 H260 H 0.55938 0.40484 -0.15362
 C261 C -0.10410 0.09672 -0.09753
 C262 C -0.08157 0.10714 -0.06204
 C263 C -0.05490 0.08031 -0.04314
 C264 C -0.15200 0.14761 -0.13754
 C265 C -0.07361 0.03248 -0.09503
 C266 C -0.10024 0.05922 -0.11377
 C267 C -0.13027 0.12480 -0.11846
 C268 C -0.05038 0.04290 -0.05974
 H269 H -0.08421 0.13620 -0.04933
 H270 H -0.03709 0.08940 -0.01631
 H271 H -0.07123 0.00359 -0.10815
 H272 H -0.11756 0.05083 -0.14119
 C273 C -0.09619 0.59481 0.40582
 C274 C -0.07351 0.60468 0.44138
 C275 C -0.04766 0.57707 0.46044
 C276 C -0.14298 0.64722 0.36634
 C277 C -0.06738 0.52951 0.40855
 C278 C -0.09320 0.55708 0.38962
 C279 C -0.12174 0.62365 0.38503
 C280 C -0.04411 0.53933 0.44401
 H281 H -0.07545 0.63390 0.45408
 H282 H -0.02977 0.58576 0.48736
 H283 H -0.06578 0.50042 0.39553
 H284 H -0.11066 0.54910 0.36214
 C285 C 0.40445 0.10133 0.39661
 C286 C 0.43761 0.09331 0.37797
 C287 C 0.46309 0.06576 0.39768
 C288 C 0.35512 0.15069 0.35660
 C289 C 0.42265 0.05453 0.45515
 C290 C 0.39714 0.08208 0.43534
 C291 C 0.37753 0.12843 0.37535
 C292 C 0.45571 0.04561 0.43638
 H293 H 0.44366 0.10817 0.34805
 H294 H 0.48870 0.06050 0.38266
 H295 H 0.41586 0.03967 0.48465
 H296 H 0.37151 0.08800 0.45004
 C297 C 0.40326 0.60112 -0.09551
 C298 C 0.40987 0.56548 -0.11368
 C299 C 0.43690 0.53912 -0.09510
 C300 C 0.35429 0.65127 -0.13476
 C301 C 0.45051 0.58357 -0.03954
 C302 C 0.42343 0.61002 -0.05827
 C303 C 0.37649 0.62879 -0.11601
 C304 C 0.45794 0.54809 -0.05803
 H305 H 0.39428 0.55818 -0.14241
 H306 H 0.44109 0.51156 -0.10971
 H307 H 0.46612 0.59149 -0.01119
 H308 H 0.41855 0.63758 -0.04395
 C309 C -0.09321 -0.09738 0.10238
 C310 C -0.10253 -0.06093 0.07936
 C311 C -0.07688 -0.04119 0.05159
 C312 C -0.14316 -0.13770 0.15167
 C313 C -0.03231 -0.09414 0.07008
 C314 C -0.05796 -0.11379 0.09786
 C315 C -0.12036 -0.11887 0.12951
 C316 C -0.04163 -0.05776 0.04643
 H317 H -0.12986 -0.04812 0.08242
 H318 H -0.08519 -0.01363 0.03337
 H319 H -0.00516 -0.10734 0.06720
 H320 H -0.05046 -0.14199 0.11552
 C321 C -0.09575 0.40081 0.60349
 C322 C -0.10319 0.43787 0.58048
 C323 C -0.07605 0.45689 0.55389
 C324 C -0.14788 0.36121 0.65063
 C325 C -0.03382 0.40201 0.57368
 C326 C -0.06090 0.38313 0.60024
 C327 C -0.12428 0.37990 0.62934
 C328 C -0.04126 0.43890 0.54993
 H329 H -0.13018 0.45170 0.58261
 H330 H -0.08286 0.48495 0.53560
 H331 H -0.00703 0.38775 0.57172
 H332 H -0.05482 0.35447 0.61793
 C333 C 0.40370 -0.09650 0.60058
 C334 C 0.39712 -0.05777 0.58066
 C335 C 0.42303 -0.03866 0.55283
 C336 C 0.35289 -0.13583 0.64947
 C337 C 0.46252 -0.09671 0.56529
 C338 C 0.43664 -0.11573 0.59312
 C339 C 0.37605 -0.11734 0.62752
 C340 C 0.45574 -0.05816 0.54425
 H341 H 0.37167 -0.04260 0.58618
 H342 H 0.41675 -0.00917 0.53746
 H343 H 0.48790 -0.11225 0.56042
 H344 H 0.44214 -0.14564 0.60852
 C345 C 0.40606 0.40550 0.09717
 C346 C 0.39875 0.44312 0.07519
 C347 C 0.42585 0.46271 0.04889
 C348 C 0.35417 0.36583 0.14456
 C349 C 0.46775 0.40718 0.06674
 C350 C 0.44068 0.38770 0.09303
 C351 C 0.37770 0.38442 0.12313
 C352 C 0.46052 0.44479 0.04421
 H353 H 0.37193 0.45705 0.07801
 H354 H 0.41917 0.49129 0.03148
 H355 H 0.49442 0.39292 0.06420
 H356 H 0.44664 0.35861 0.10993
 C357 C 0.09106 0.10592 0.09188
 C358 C 0.10526 0.10324 0.05359
 C359 C 0.08624 0.07610 0.02651
 C360 C 0.13164 0.15300 0.14426
 C361 C 0.03812 0.05473 0.07557
 C362 C 0.05726 0.08189 0.10269
 C363 C 0.11244 0.13185 0.12059
 C364 C 0.05273 0.05118 0.03741
 H365 H 0.13138 0.12171 0.04489
 H366 H 0.09785 0.07454 -0.00291
 H367 H 0.01269 0.03557 0.08504
 H368 H 0.04616 0.08354 0.13237
 C369 C 0.09558 0.59879 0.59811
 C370 C 0.11113 0.59429 0.56089
 C371 C 0.09223 0.56704 0.53384
 C372 C 0.13486 0.64719 0.65019
 C373 C 0.04170 0.54904 0.58088
 C374 C 0.06072 0.57630 0.60797
 C375 C 0.11634 0.62537 0.62663
 C376 C 0.05747 0.54386 0.54369
 H377 H 0.13809 0.61156 0.55294
 H378 H 0.10479 0.56420 0.50518
 H379 H 0.01530 0.53120 0.58960
 H380 H 0.04855 0.57937 0.63681
 C381 C 0.59219 0.09906 0.59515
 C382 C 0.60816 0.09488 0.55809
 C383 C 0.58928 0.06834 0.53037
 C384 C 0.63159 0.14621 0.64826
 C385 C 0.53790 0.05037 0.57640
 C386 C 0.55692 0.07693 0.60418
 C387 C 0.61296 0.12494 0.62429
 C388 C 0.55410 0.04553 0.53937
 H389 H 0.63544 0.11188 0.55077
 H390 H 0.60217 0.06574 0.50184
 H391 H 0.51115 0.03280 0.58445
 H392 H 0.54441 0.07976 0.63290
 C393 C 0.59869 0.59955 0.10229
 C394 C 0.61490 0.56362 0.09432
 C395 C 0.59589 0.53773 0.06610
 C396 C 0.63816 0.64864 0.15357
 C397 C 0.54390 0.58328 0.05400
 C398 C 0.56305 0.60926 0.08226
 C399 C 0.61941 0.62665 0.13034
 C400 C 0.56032 0.54745 0.04524
 H401 H 0.64240 0.55569 0.10978
 H402 H 0.60896 0.50991 0.06088
 H403 H 0.51678 0.59182 0.03848
 H404 H 0.55026 0.63707 0.08816
   
