data_POSCAR
  _audit_creation_date              2014-09-24
  _audit_creation_method            'ToBaCCo'
  _symmetry_space_group_name_H-M    'P1'
  _symmetry_Int_Tables_number       1
  _symmetry_cell_setting            triclinic
  loop_
  _symmetry_equiv_pos_as_xyz
 x,y,z
_cell_length_a 42.6458
_cell_length_b 42.5887
_cell_length_c 14.7421
_cell_angle_alpha 89.884600
_cell_angle_beta 90.621000
_cell_angle_gamma 120.565500
loop_
  _atom_site_label
  _atom_site_type_symbol
  _atom_site_fract_x
  _atom_site_fract_y
  _atom_site_fract_z
C1 C 0.28910 0.58108 0.53622
 C2 C 0.29267 0.58246 0.44458
 C3 C 0.26705 0.58656 0.38416
 C4 C 0.32428 0.58346 0.40103
 C5 C 0.31680 0.58044 0.59655
 C6 C 0.26004 0.58470 0.58045
 C7 C 0.23028 0.55932 0.37822
 C8 C 0.20627 0.56413 0.32265
 C9 C 0.21843 0.59657 0.27259
 C10 C 0.25566 0.62375 0.27929
 C11 C 0.27960 0.61855 0.33373
 C12 C 0.31919 0.55426 0.34657
 C13 C 0.34894 0.55516 0.30491
 C14 C 0.38409 0.58564 0.31552
 C15 C 0.38906 0.61486 0.37038
 C16 C 0.35939 0.61373 0.41283
 C17 C 0.33741 0.60992 0.65523
 C18 C 0.36601 0.61171 0.70621
 C19 C 0.37435 0.58381 0.70015
 C20 C 0.35270 0.55352 0.64415
 C21 C 0.32419 0.55189 0.59244
 C22 C 0.25929 0.61715 0.57297
 C23 C 0.23294 0.62115 0.61842
 C24 C 0.20685 0.59270 0.67226
 C25 C 0.20735 0.56003 0.67836
 C26 C 0.23397 0.55620 0.63353
 H27 H 0.22021 0.53440 0.41680
 H28 H 0.17801 0.54241 0.32001
 H29 H 0.26688 0.64909 0.24249
 H30 H 0.30796 0.63992 0.33795
 H31 H 0.29220 0.53073 0.33678
 H32 H 0.34435 0.53235 0.26283
 H33 H 0.36368 0.63655 0.45446
 H34 H 0.33201 0.63212 0.65964
 H35 H 0.38148 0.63501 0.75031
 H36 H 0.35829 0.53147 0.63895
 H37 H 0.30827 0.52872 0.54813
 H38 H 0.27949 0.63958 0.53302
 H39 H 0.23314 0.64653 0.61130
 H40 H 0.18766 0.53773 0.71952
 H41 H 0.23431 0.53105 0.64037
 H42 H 0.41584 0.63855 0.38090
 C43 C 0.56296 -0.23103 0.53918
 C44 C 0.56726 -0.23001 0.44810
 C45 C 0.57411 -0.25638 0.40075
 C46 C 0.56598 -0.20219 0.39118
 C47 C 0.54851 -0.20987 0.58258
 C48 C 0.57063 -0.25492 0.59729
 C49 C 0.60936 -0.24657 0.37372
 C50 C 0.61553 -0.27194 0.32977
 C51 C 0.58631 -0.30703 0.30986
 C52 C 0.55094 -0.31638 0.33486
 C53 C 0.54493 -0.29133 0.38079
 C54 C 0.59856 -0.17011 0.37189
 C55 C 0.59894 -0.14541 0.30928
 C56 C 0.56660 -0.15223 0.26557
 C57 C 0.53361 -0.18355 0.28814
 C58 C 0.53338 -0.20877 0.34974
 C59 C 0.51135 -0.22199 0.57431
 C60 C 0.49678 -0.20336 0.61783
 C61 C 0.51916 -0.17219 0.67062
 C62 C 0.55669 -0.15930 0.67631
 C63 C 0.57125 -0.17830 0.63317
 C64 C 0.54322 -0.28250 0.64987
 C65 C 0.54998 -0.30691 0.69793
 C66 C 0.58422 -0.30438 0.69361
 C67 C 0.61209 -0.27532 0.64448
 C68 C 0.60539 -0.25078 0.59775
 H69 H 0.63210 -0.21952 0.38793
 H70 H 0.64300 -0.26400 0.31040
 H71 H 0.52808 -0.34335 0.32060
 H72 H 0.51753 -0.29910 0.40050
 H73 H 0.62389 -0.16471 0.40348
 H74 H 0.62464 -0.12105 0.29460
 H75 H 0.50805 -0.23368 0.36359
 H76 H 0.49351 -0.24637 0.53552
 H77 H 0.46786 -0.21366 0.61097
 H78 H 0.57444 -0.13542 0.71674
 H79 H 0.60006 -0.16867 0.63984
 H80 H 0.51625 -0.28597 0.65115
 H81 H 0.52786 -0.32865 0.73541
 H82 H 0.63916 -0.27135 0.64082
 H83 H 0.62726 -0.22888 0.56016
 H84 H 0.50841 -0.18918 0.25544
 C85 C 1.21935 0.77245 0.55617
 C86 C 1.22602 0.77775 0.46581
 C87 C 1.26370 0.79694 0.43079
 C88 C 1.19571 0.75993 0.39880
 C89 C 1.18206 0.74862 0.59040
 C90 C 1.24893 0.78769 0.62560
 C91 C 1.27667 0.82919 0.38106
 C92 C 1.31222 0.84721 0.34763
 C93 C 1.33523 0.83280 0.36130
 C94 C 1.32183 0.80031 0.41172
 C95 C 1.28653 0.78269 0.44598
 C96 C 1.16866 0.76936 0.39395
 C97 C 1.13699 0.74831 0.34231
 C98 C 1.13201 0.71760 0.29401
 C99 C 1.16041 0.70990 0.29381
 C100 C 1.19195 0.73084 0.34598
 C101 C 1.16883 0.71137 0.60235
 C102 C 1.13609 0.68973 0.64704
 C103 C 1.11498 0.70452 0.67681
 C104 C 1.12725 0.74149 0.65891
 C105 C 1.16102 0.76354 0.61812
 C106 C 1.25285 0.76419 0.68535
 C107 C 1.27927 0.77802 0.75387
 C108 C 1.30267 0.81590 0.76452
 C109 C 1.29876 0.83942 0.70399
 C110 C 1.27215 0.82543 0.63528
 H111 H 1.25930 0.84048 0.36851
 H112 H 1.32134 0.87206 0.30932
 H113 H 1.33832 0.78820 0.42554
 H114 H 1.27682 0.75764 0.48381
 H115 H 1.17145 0.79218 0.43300
 H116 H 1.11613 0.75561 0.34235
 H117 H 1.21259 0.72318 0.34882
 H118 H 1.18458 0.69936 0.58024
 H119 H 1.12734 0.66129 0.65822
 H120 H 1.11206 0.75405 0.68095
 H121 H 1.17109 0.79238 0.60955
 H122 H 1.23561 0.73495 0.67900
 H123 H 1.28103 0.75863 0.79781
 H124 H 1.31623 0.86873 0.70961
 H125 H 1.26938 0.84405 0.59034
 H126 H 1.15750 0.68657 0.25695
 C127 C 0.70594 0.41466 0.54848
 C128 C 0.70693 0.41579 0.45667
 C129 C 0.73725 0.41637 0.40741
 C130 C 0.67531 0.41065 0.40226
 C131 C 0.67391 0.40994 0.59817
 C132 C 0.73463 0.41314 0.60202
 C133 C 0.77202 0.44774 0.40651
 C134 C 0.80093 0.44703 0.36433
 C135 C 0.79551 0.41481 0.32354
 C136 C 0.76041 0.38365 0.32371
 C137 C 0.73159 0.38451 0.36498
 C138 C 0.67683 0.44006 0.35568
 C139 C 0.64700 0.43505 0.30361
 C140 C 0.61542 0.40042 0.29618
 C141 C 0.61409 0.37099 0.34319
 C142 C 0.64377 0.37612 0.39589
 C143 C 0.64876 0.37570 0.63288
 C144 C 0.61830 0.37069 0.67962
 C145 C 0.61249 0.40010 0.69378
 C146 C 0.63793 0.43448 0.65817
 C147 C 0.66823 0.43927 0.61031
 C148 C 0.73231 0.37958 0.61707
 C149 C 0.75911 0.37774 0.66796
 C150 C 0.78927 0.40969 0.70381
 C151 C 0.79180 0.44345 0.68622
 C152 C 0.76446 0.44507 0.63675
 H153 H 0.77676 0.47257 0.43916
 H154 H 0.82763 0.47145 0.36485
 H155 H 0.75494 0.35856 0.29143
 H156 H 0.70495 0.36003 0.36545
 H157 H 0.70104 0.46687 0.36007
 H158 H 0.64879 0.45821 0.26822
 H159 H 0.64227 0.35314 0.43156
 H160 H 0.65249 0.35263 0.62301
 H161 H 0.59983 0.34372 0.70514
 H162 H 0.63450 0.45780 0.66719
 H163 H 0.68739 0.46587 0.58328
 H164 H 0.70970 0.35473 0.58924
 H165 H 0.75610 0.35119 0.67751
 H166 H 0.81453 0.46864 0.71222
 H167 H 0.76664 0.47123 0.62508
 H168 H 0.59008 0.34407 0.34015
 C169 C 0.41780 0.21135 0.54130
 C170 C 0.42243 0.21050 0.45040
 C171 C 0.41311 0.23179 0.38708
 C172 C 0.44206 0.19339 0.41213
 C173 C 0.42734 0.19101 0.60821
 C174 C 0.40818 0.23750 0.57970
 C175 C 0.37756 0.22571 0.38266
 C176 C 0.36996 0.24895 0.33235
 C177 C 0.39779 0.27858 0.28499
 C178 C 0.43283 0.28311 0.28480
 C179 C 0.44043 0.25995 0.33547
 C180 C 0.42434 0.16398 0.35159
 C181 C 0.44350 0.14909 0.31170
 C182 C 0.48087 0.16427 0.32956
 C183 C 0.49850 0.19363 0.39063
 C184 C 0.47915 0.20791 0.43212
 C185 C 0.44606 0.20868 0.68821
 C186 C 0.45341 0.19020 0.75483
 C187 C 0.44296 0.15329 0.74347
 C188 C 0.42529 0.13569 0.66198
 C189 C 0.41686 0.15414 0.59585
 C190 C 0.43538 0.27413 0.59056
 C191 C 0.42856 0.29787 0.63998
 C192 C 0.39383 0.28595 0.67586
 C193 C 0.36592 0.24958 0.65976
 C194 C 0.37337 0.22537 0.61396
 H195 H 0.35597 0.20363 0.42056
 H196 H 0.34247 0.24408 0.33243
 H197 H 0.45481 0.30557 0.24871
 H198 H 0.46804 0.26506 0.33771
 H199 H 0.39577 0.15271 0.33515
 H200 H 0.42945 0.12660 0.26438
 H201 H 0.49325 0.23088 0.47811
 H202 H 0.45525 0.23713 0.70011
 H203 H 0.46828 0.20573 0.81407
 H204 H 0.41688 0.10734 0.65057
 H205 H 0.40163 0.13939 0.53597
 H206 H 0.46248 0.28379 0.56479
 H207 H 0.45067 0.32566 0.65009
 H208 H 0.33889 0.23910 0.68651
 H209 H 0.35220 0.19704 0.60643
 H210 H 0.52726 0.20564 0.40591
 C211 C 0.77994 0.23533 0.54661
 C212 C 0.78657 0.24010 0.45620
 C213 C 0.75741 0.22236 0.38653
 C214 C 0.82331 0.26565 0.42171
 C215 C 0.81027 0.25399 0.61327
 C216 C 0.74229 0.21423 0.58125
 C217 C 0.73544 0.18428 0.38144
 C218 C 0.70903 0.16805 0.31286
 C219 C 0.70431 0.18965 0.24811
 C220 C 0.72647 0.22780 0.25365
 C221 C 0.75271 0.24390 0.32202
 C222 C 0.84463 0.25229 0.38601
 C223 C 0.87807 0.27615 0.34631
 C224 C 0.88974 0.31334 0.33904
 C225 C 0.86843 0.32666 0.37522
 C226 C 0.83567 0.30304 0.41774
 C227 C 0.81245 0.28167 0.66897
 C228 C 0.84428 0.30407 0.71887
 C229 C 0.87474 0.29955 0.71303
 C230 C 0.87111 0.26977 0.66242
 C231 C 0.83913 0.24717 0.61364
 C232 C 0.71672 0.22454 0.55894
 C233 C 0.68092 0.20399 0.58902
 C234 C 0.67001 0.17278 0.64249
 C235 C 0.69574 0.16260 0.66489
 C236 C 0.73168 0.18335 0.63511
 H237 H 0.73905 0.16718 0.42987
 H238 H 0.69242 0.13860 0.31026
 H239 H 0.72384 0.24552 0.20560
 H240 H 0.76928 0.27334 0.32461
 H241 H 0.83513 0.22339 0.38815
 H242 H 0.89409 0.26541 0.31813
 H243 H 0.81930 0.31361 0.44464
 H244 H 0.79035 0.28726 0.66979
 H245 H 0.84567 0.32623 0.75787
 H246 H 0.89309 0.26419 0.65788
 H247 H 0.83753 0.22537 0.57243
 H248 H 0.72453 0.24850 0.51800
 H249 H 0.66190 0.21263 0.56998
 H250 H 0.68823 0.13892 0.70668
 H251 H 0.75114 0.17509 0.65305
 H252 H 0.87714 0.35534 0.37033
 O253 O 1.00631 0.44098 0.17057
 O254 O 0.95161 0.41555 0.09397
 C255 C 0.97344 0.41460 0.15432
 O256 O 1.00845 0.58411 0.15971
 O257 O 1.05941 0.60614 0.07143
 C258 C 1.04027 0.60988 0.13352
 O259 O 0.92857 0.48790 0.17955
 O260 O 0.91530 0.43715 0.09559
 C261 C 0.90830 0.45346 0.15937
 O262 O 1.08884 0.53335 0.14540
 O263 O 1.09696 0.58243 0.06180
 C264 C 1.10832 0.56681 0.11799
 Zr265 Zr 1.03447 0.49332 0.11169
 O266 O 1.04313 0.49813 0.25386
 O267 O 1.06706 0.46945 0.09571
 Zr268 Zr 0.97856 0.52836 0.12074
 O269 O 0.98453 0.53418 0.26350
 O270 O 0.94258 0.54874 0.11668
 O271 O 0.98148 0.48133 0.13819
 O272 O 1.03203 0.54014 0.12900
 O273 O 1.07945 0.52828 -0.16674
 O274 O 1.09189 0.58001 -0.08854
 C275 C 1.09987 0.56276 -0.14765
 O276 O 0.91890 0.48314 -0.14993
 O277 O 0.91032 0.43481 -0.06204
 C278 C 0.89986 0.44941 -0.12361
 O279 O 0.99862 0.57946 -0.15550
 O280 O 1.05440 0.60359 -0.08423
 C281 C 1.03178 0.60561 -0.13975
 O282 O 0.99547 0.43479 -0.16143
 O283 O 0.94565 0.41219 -0.06895
 C284 C 0.96386 0.40894 -0.13436
 Zr285 Zr 1.02732 0.48963 -0.11623
 O286 O 1.02601 0.49108 -0.25973
 O287 O 1.05911 0.46440 -0.12017
 Zr288 Zr 0.97168 0.52499 -0.10725
 O289 O 0.96990 0.52651 -0.25066
 O290 O 0.93448 0.54386 -0.09850
 Zr291 Zr 0.96011 0.45906 0.00915
 Zr292 Zr 1.04606 0.55911 -0.00473
 O293 O 1.02400 0.53609 -0.13263
 O294 O 0.97334 0.47724 -0.12566
 O295 O 1.06094 0.51895 -0.00716
 O296 O 0.94590 0.49966 0.01145
 O297 O 1.00942 0.45938 0.00151
 O298 O 0.99703 0.55962 0.00331
 H299 H 1.04677 0.55588 0.18039
 H300 H 0.91986 0.49228 0.01553
 H301 H 1.03544 0.55027 -0.18822
 H302 H 1.00867 0.43574 0.00209
 H303 H 0.93893 0.55314 0.18064
 H304 H 0.94523 0.56492 -0.05628
 H305 H 0.96316 0.50199 -0.27321
 H306 H 1.00014 0.47753 -0.27919
 H307 H 1.07979 0.47788 -0.07740
 H308 H 1.07514 0.46736 0.15756
 H309 H 1.01935 0.49030 0.28205
 H310 H 0.97937 0.51045 0.28837
 O311 O 0.56221 0.55972 -0.17152
 O312 O 0.53605 0.58455 -0.08360
 C313 C 0.55757 0.58639 -0.14743
 O314 O 0.41686 0.41710 -0.16306
 O315 O 0.44685 0.39263 -0.08759
 C316 C 0.42231 0.39048 -0.14400
 O317 O 0.43621 0.51344 -0.16588
 O318 O 0.47674 0.56215 -0.07876
 C319 C 0.45142 0.54726 -0.14026
 O320 O 0.54935 0.46530 -0.16713
 O321 O 0.50840 0.41493 -0.08691
 C322 C 0.53450 0.43117 -0.14472
 Zr323 Zr 0.53726 0.50545 -0.12299
 O324 O 0.53443 0.50168 -0.26635
 O325 O 0.59465 0.53025 -0.12681
 Zr326 Zr 0.44623 0.47218 -0.11877
 O327 O 0.44489 0.46933 -0.26226
 O328 O 0.39015 0.45511 -0.11587
 O329 O 0.49691 0.51915 -0.13701
 O330 O 0.48645 0.45942 -0.13916
 O331 O 0.55206 0.46433 0.14514
 O332 O 0.50948 0.41430 0.06477
 C333 C 0.53659 0.43028 0.12160
 O334 O 0.44039 0.51308 0.16384
 O335 O 0.47979 0.56273 0.07904
 C336 C 0.45576 0.54734 0.14206
 O337 O 0.42001 0.41606 0.15063
 O338 O 0.44786 0.39186 0.06708
 C339 C 0.42463 0.38937 0.12674
 O340 O 0.56557 0.55847 0.15873
 O341 O 0.53799 0.58402 0.07713
 C342 C 0.56055 0.58531 0.13869
 Zr343 Zr 0.53957 0.50464 0.10599
 O344 O 0.54030 0.50030 0.24897
 O345 O 0.59696 0.52935 0.10331
 Zr346 Zr 0.44859 0.47146 0.11019
 O347 O 0.44982 0.46730 0.25318
 O348 O 0.39257 0.45461 0.11322
 Zr349 Zr 0.50197 0.53898 -0.00353
 Zr350 Zr 0.48408 0.43786 -0.00911
 O351 O 0.48904 0.45853 0.12317
 O352 O 0.49962 0.51818 0.12769
 O353 O 0.54009 0.47727 -0.01036
 O354 O 0.44623 0.49906 -0.00230
 O355 O 0.55025 0.53710 -0.00716
 O356 O 0.43511 0.43880 -0.00564
 H357 H 0.48342 0.44428 -0.19318
 H358 H 0.42786 0.50671 -0.00012
 H359 H 0.48691 0.44302 0.17567
 H360 H 0.57389 0.56036 -0.00724
 H361 H 0.37778 0.43259 -0.07930
 H362 H 0.37941 0.43253 0.07485
 H363 H 0.46742 0.49182 0.27726
 H364 H 0.52885 0.51351 0.27426
 H365 H 0.60270 0.51377 0.06565
 H366 H 0.60147 0.51558 -0.08828
 H367 H 0.52366 0.51612 -0.28835
 H368 H 0.46210 0.49404 -0.28511
 O369 O 0.48977 0.05284 0.19198
 O370 O 0.52390 0.09077 0.07658
 C371 C 0.50851 0.08478 0.15485
 O372 O 0.56587 -0.03333 0.10575
 O373 O 0.50919 -0.08169 0.07073
 C374 C 0.54259 -0.06789 0.09911
 O375 O 0.59967 0.06681 0.10298
 O376 O 0.57470 0.09690 0.03123
 C377 C 0.60027 0.09633 0.07761
 O378 O 0.44471 -0.04964 0.20835
 O379 O 0.45312 -0.08890 0.11964
 C380 C 0.43926 -0.08177 0.18874
 Zr381 Zr 0.47993 0.00119 0.14563
 O382 O 0.50049 0.00479 0.27907
 O383 O 0.43332 -0.00086 0.20017
 Zr384 Zr 0.55975 0.01146 0.07544
 O385 O 0.57773 0.01493 0.21133
 O386 O 0.60985 0.02062 0.02433
 O387 O 0.53415 0.03920 0.11924
 O388 O 0.51016 -0.02419 0.13426
 O389 O 0.40788 -0.06662 -0.08986
 O390 O 0.43333 -0.09747 -0.02344
 C391 C 0.40708 -0.09636 -0.06555
 O392 O 0.55952 0.04850 -0.21340
 O393 O 0.55491 0.08825 -0.11695
 C394 C 0.56576 0.08074 -0.19112
 O395 O 0.52225 -0.05311 -0.18506
 O396 O 0.48679 -0.09094 -0.07085
 C397 C 0.50314 -0.08508 -0.14769
 O398 O 0.44658 0.03491 -0.11677
 O399 O 0.50235 0.08176 -0.06959
 C400 C 0.47041 0.06935 -0.10532
 Zr401 Zr 0.44979 -0.01136 -0.07329
 O402 O 0.43086 -0.02208 -0.20943
 O403 O 0.40073 -0.01493 -0.03156
 Zr404 Zr 0.52983 -0.00169 -0.14211
 O405 O 0.50927 -0.01300 -0.27688
 O406 O 0.58059 0.00664 -0.18582
 Zr407 Zr 0.52476 0.05282 -0.01185
 Zr408 Zr 0.48439 -0.05344 0.01523
 O409 O 0.47582 -0.03849 -0.11517
 O410 O 0.49966 0.02451 -0.13279
 O411 O 0.44643 -0.03764 0.04909
 O412 O 0.56236 0.03679 -0.04570
 O413 O 0.47072 0.02500 0.03400
 O414 O 0.53852 -0.02636 -0.03044
 H415 H 0.51075 -0.03809 0.18761
 H416 H 0.58723 0.05549 -0.06442
 H417 H 0.46280 -0.05748 -0.16224
 H418 H 0.45821 0.03869 0.04698
 H419 H 0.62609 0.02570 0.07771
 H420 H 0.58847 -0.00539 -0.14109
 H421 H 0.50257 0.00536 -0.29354
 H422 H 0.44788 -0.00071 -0.24590
 H423 H 0.38932 -0.03489 0.01324
 H424 H 0.41448 -0.01078 0.15181
 H425 H 0.51943 0.03053 0.29038
 H426 H 0.57227 0.03198 0.24322
 C427 C 1.19463 0.60078 0.21968
 C428 C 1.20227 0.63159 0.16986
 C429 C 1.17057 0.62320 0.12640
 C430 C 1.14590 0.58809 0.15217
 O431 O 1.16021 0.57452 0.20867
 H432 H 1.22757 0.65728 0.16472
 H433 H 1.16611 0.64044 0.08044
 C434 C 0.59220 0.66569 0.26427
 C435 C 0.62253 0.66234 0.27606
 C436 C 0.61499 0.63168 0.22902
 C437 C 0.58096 0.61909 0.19108
 O438 O 0.56699 0.63949 0.21260
 H439 H 0.64651 0.67927 0.31717
 H440 H 0.63195 0.61962 0.22398
 C441 C 0.37023 -0.14983 0.32263
 C442 C 0.39329 -0.16387 0.32014
 C443 C 0.42241 -0.13982 0.27035
 C444 C 0.41565 -0.11246 0.24766
 O445 O 0.38414 -0.11833 0.27883
 H446 H 0.38928 -0.18915 0.34790
 H447 H 0.44568 -0.14210 0.25190
 C448 C 0.82613 0.41388 0.27968
 C449 C 0.82639 0.38231 0.25972
 C450 C 0.85781 0.39334 0.21423
 C451 C 0.87474 0.43081 0.21036
 O452 O 0.85577 0.44349 0.25049
 H453 H 0.80604 0.35444 0.27530
 H454 H 0.86707 0.37606 0.18591
 C455 C 0.39162 0.30642 0.24137
 C456 C 0.36284 0.31170 0.25936
 C457 C 0.37074 0.34313 0.21581
 C458 C 0.40344 0.35447 0.17371
 O459 O 0.41618 0.33240 0.18906
 H460 H 0.33985 0.29589 0.30298
 H461 H 0.35519 0.35679 0.21699
 C462 C 0.67596 0.17214 0.17650
 C463 C 0.66823 0.19042 0.11036
 C464 C 0.63925 0.16409 0.06313
 C465 C 0.63152 0.13173 0.10322
 O466 O 0.65368 0.13639 0.17171
 H467 H 0.68134 0.21940 0.09820
 H468 H 0.62503 0.16803 0.00701
 C469 C 0.45045 0.13480 -0.18810
 C470 C 0.46196 0.14824 -0.10094
 C471 C 0.46859 0.12394 -0.05910
 C472 C 0.46051 0.09711 -0.12233
 O473 O 0.44915 0.10320 -0.20085
 H474 H 0.46551 0.17287 -0.07018
 H475 H 0.47925 0.12603 0.00904
 C476 C 0.58257 0.39591 -0.25638
 C477 C 0.55526 0.36354 -0.21978
 C478 C 0.53322 0.37246 -0.17452
 C479 C 0.54839 0.40944 -0.18657
 O480 O 0.57810 0.42372 -0.23634
 H481 H 0.55153 0.33652 -0.22394
 H482 H 0.50919 0.35426 -0.13626
 C483 C 0.90831 0.32573 -0.24760
 C484 C 0.94158 0.32808 -0.26133
 C485 C 0.96688 0.35953 -0.21951
 C486 C 0.94741 0.37380 -0.18192
 O487 O 0.91205 0.35355 -0.19859
 H488 H 0.94744 0.31026 -0.30043
 H489 H 0.99609 0.37101 -0.21759
 C490 C 0.50273 -0.15522 -0.27499
 C491 C 0.46801 -0.17468 -0.24028
 C492 C 0.46412 -0.15054 -0.18902
 C493 C 0.49651 -0.11796 -0.19648
 O494 O 0.52027 -0.12055 -0.24841
 H495 H 0.44827 -0.20340 -0.24848
 H496 H 0.44051 -0.15603 -0.14995
 C497 C 0.40534 0.58604 -0.24796
 C498 C 0.43383 0.61771 -0.21118
 C499 C 0.45535 0.60737 -0.16740
 C500 C 0.43860 0.57024 -0.18098
 O501 O 0.40838 0.55720 -0.23019
 H502 H 0.43857 0.64513 -0.21553
 H503 H 0.48011 0.62477 -0.12935
 C504 C 1.08342 0.68252 -0.27307
 C505 C 1.05595 0.68971 -0.25323
 C506 C 1.03146 0.66077 -0.20238
 C507 C 1.04633 0.63884 -0.19338
 O508 O 1.07740 0.65170 -0.23624
 H509 H 1.05354 0.71277 -0.27401
 H510 H 1.00644 0.65667 -0.17342
 C511 C 0.81623 0.40836 -0.24305
 C512 C 0.81432 0.37690 -0.21023
 C513 C 0.84522 0.38838 -0.15998
 C514 C 0.86411 0.42580 -0.16650
 O515 O 0.84668 0.43809 -0.21637
 H516 H 0.79286 0.34884 -0.21915
 H517 H 0.85316 0.37147 -0.12306
 C518 C 0.38833 0.31010 -0.27114
 C519 C 0.35505 0.30558 -0.24583
 C520 C 0.36324 0.33591 -0.19600
 C521 C 0.40067 0.35607 -0.19281
 O522 O 0.41590 0.34078 -0.23839
 H523 H 0.32803 0.28347 -0.26294
 H524 H 0.34433 0.34228 -0.16442
 C525 C 0.63256 0.15169 -0.32145
 C526 C 0.60901 0.16489 -0.31367
 C527 C 0.57989 0.13888 -0.26740
 C528 C 0.58741 0.11151 -0.25146
 O529 O 0.61936 0.11917 -0.28358
 H530 H 0.61330 0.19116 -0.33418
 H531 H 0.55657 0.14028 -0.24460
 C532 C 1.17975 0.59704 -0.27572
 C533 C 1.18316 0.63008 -0.25237
 C534 C 1.15357 0.62154 -0.20082
 C535 C 1.13415 0.58398 -0.19692
 O536 O 1.14991 0.56902 -0.24209
 H537 H 1.20494 0.65724 -0.26876
 H538 H 1.14691 0.64040 -0.16980
 C539 C 0.58949 0.66865 -0.26562
 C540 C 0.61960 0.66475 -0.27712
 C541 C 0.61167 0.63344 -0.23322
 C542 C 0.57781 0.62081 -0.19673
 O543 O 0.56423 0.64191 -0.21600
 H544 H 0.64391 0.68147 -0.31583
 H545 H 0.62837 0.62104 -0.22912
 C546 C 0.32989 -0.16958 -0.16748
 C547 C 0.33751 -0.18951 -0.10568
 C548 C 0.36701 -0.16445 -0.05707
 C549 C 0.37508 -0.13116 -0.09168
 O550 O 0.35273 -0.13408 -0.15813
 H551 H 0.32412 -0.21872 -0.09731
 H552 H 0.38137 -0.16981 -0.00396
 C553 C 0.56794 -0.12705 0.19492
 C554 C 0.59705 -0.10834 0.13759
 C555 C 0.58974 -0.08542 0.09025
 C556 C 0.55663 -0.09197 0.12142
 O557 O 0.54306 -0.11738 0.18489
 H558 H 0.62128 -0.11035 0.13305
 H559 H 0.60714 -0.06516 0.04137
 C560 C 0.41498 0.58710 0.26687
 C561 C 0.44651 0.61885 0.24388
 C562 C 0.46607 0.60800 0.19424
 C563 C 0.44531 0.57049 0.19131
 O564 O 0.41426 0.55767 0.23501
 H565 H 0.45395 0.64667 0.25872
 H566 H 0.49223 0.62534 0.16318
 C567 C 1.09661 0.69177 0.24998
 C568 C 1.06363 0.68893 0.26992
 C569 C 1.03782 0.65832 0.22586
 C570 C 1.05689 0.64500 0.18134
 O571 O 1.09241 0.66508 0.19592
 H572 H 1.05858 0.70573 0.31539
 H573 H 1.00858 0.64638 0.22853
 C574 C 0.50159 0.15073 0.28042
 C575 C 0.53704 0.17258 0.25211
 C576 C 0.54436 0.15041 0.20158
 C577 C 0.51307 0.11665 0.20406
 O578 O 0.48695 0.11668 0.25133
 H579 H 0.55486 0.20152 0.26361
 H580 H 0.56934 0.15795 0.16626
 C581 C 0.58434 0.39558 0.23956
 C582 C 0.55632 0.36270 0.20656
 C583 C 0.53453 0.37123 0.15676
 C584 C 0.55074 0.40858 0.16339
 O585 O 0.58088 0.42339 0.21324
 H586 H 0.55240 0.33575 0.21616
 H587 H 0.50979 0.35252 0.12030
 C588 C 0.92312 0.33831 0.29034
 C589 C 0.95577 0.33906 0.29782
 C590 C 0.97959 0.36803 0.24647
 C591 C 0.95928 0.38202 0.21045
 O592 O 0.92518 0.36424 0.23729
 H593 H 0.96172 0.32148 0.33836
 H594 H 1.00825 0.37794 0.23691
   
