data_POSCAR
  _audit_creation_date              2014-09-24
  _audit_creation_method            'ToBaCCo'
  _symmetry_space_group_name_H-M    'P1'
  _symmetry_Int_Tables_number       1
  _symmetry_cell_setting            triclinic
  loop_
  _symmetry_equiv_pos_as_xyz
 x,y,z
_cell_length_a 39.9693
_cell_length_b 40.4654
_cell_length_c 37.0285
_cell_angle_alpha 91.387500
_cell_angle_beta 90.749700
_cell_angle_gamma 90.482700
loop_
  _atom_site_label
  _atom_site_type_symbol
  _atom_site_fract_x
  _atom_site_fract_y
  _atom_site_fract_z
C1 C 0.20366 0.52436 1.03989
 H2 H 0.19956 0.54351 1.02046
 C3 C 0.18263 0.52178 1.06958
 H4 H 0.16271 0.53956 1.07263
 C5 C 0.23412 0.47766 1.05819
 H6 H 0.25354 0.45983 1.05315
 C7 C 0.21410 0.47439 1.08846
 H8 H 0.21901 0.45361 1.10538
 N9 N 0.22863 0.50230 1.03463
 C10 C 0.30451 0.54188 0.96468
 H11 H 0.30321 0.52277 0.94374
 C12 C 0.32977 0.56565 0.96418
 H13 H 0.34752 0.56496 0.94233
 C14 C 0.28339 0.56503 1.01913
 H15 H 0.26571 0.56401 1.04093
 C16 C 0.30857 0.58940 1.01975
 H17 H 0.31022 0.60705 1.04217
 Zn18 Zn 0.25385 0.50395 0.99188
 N19 N 0.28226 0.54162 0.99208
 C20 C 0.22593 0.53062 0.92889
 N21 N 0.22375 0.50507 0.95193
 C22 C 0.19874 0.48215 0.94843
 C23 C 0.17410 0.48507 0.92146
 C24 C 0.20226 0.53420 0.90140
 C25 C 0.30930 0.46959 1.01268
 C26 C 0.33460 0.44624 1.01154
 C27 C 0.30453 0.41718 0.96326
 C28 C 0.27981 0.44159 0.96494
 N29 N 0.28284 0.46723 0.98931
 H30 H 0.24556 0.54892 0.93219
 H31 H 0.19730 0.46225 0.96735
 H32 H 0.15381 0.46717 0.91977
 H33 H 0.20517 0.55458 0.88333
 H34 H 0.31112 0.49026 1.03169
 H35 H 0.35577 0.44895 1.02997
 H36 H 0.30241 0.39721 0.94335
 H37 H 0.25870 0.44041 0.94638
 C38 C 0.33277 0.58912 0.99259
 C39 C 0.18742 0.49641 1.09463
 C40 C 0.33269 0.41996 0.98624
 C41 C 0.17523 0.51187 0.89801
 C42 C 0.81069 0.49968 -0.03111
 H43 H 0.82095 0.49358 -0.00502
 C44 C 0.83229 0.50383 -0.05989
 H45 H 0.85896 0.50127 -0.05533
 C46 C 0.76375 0.50978 -0.06882
 H47 H 0.73691 0.51149 -0.07222
 C48 C 0.78452 0.51421 -0.09843
 H49 H 0.77325 0.51904 -0.12447
 N50 N 0.77707 0.50266 -0.03591
 C51 C 0.70225 0.53046 0.04437
 H52 H 0.70509 0.51019 0.06253
 C53 C 0.67930 0.55527 0.05229
 H54 H 0.66474 0.55358 0.07661
 C55 C 0.71922 0.55797 -0.00810
 H56 H 0.73511 0.55929 -0.03134
 C57 C 0.69639 0.58331 -0.00130
 H58 H 0.69449 0.60343 -0.01996
 Zn59 Zn 0.74929 0.49498 0.00446
 N60 N 0.72092 0.53160 0.01400
 C61 C 0.79163 0.51749 0.06018
 N62 N 0.77706 0.48977 0.04541
 C63 C 0.78398 0.45930 0.05809
 C64 C 0.80667 0.45586 0.08670
 C65 C 0.81455 0.51518 0.08869
 C66 C 0.72057 0.44186 -0.03769
 C67 C 0.69850 0.41552 -0.04492
 C68 C 0.68294 0.41689 0.01785
 C69 C 0.70479 0.44367 0.02374
 N70 N 0.72259 0.45612 -0.00403
 H71 H 0.78594 0.54135 0.04920
 H72 H 0.77276 0.43756 0.04526
 H73 H 0.81270 0.43128 0.09549
 H74 H 0.82625 0.53749 0.09980
 H75 H 0.73537 0.45130 -0.05933
 H76 H 0.69641 0.40519 -0.07212
 H77 H 0.66824 0.40795 0.04002
 H78 H 0.70731 0.45466 0.05051
 C79 C 0.67531 0.58164 0.02865
 C80 C 0.81937 0.51124 -0.09413
 C81 C 0.67889 0.40319 -0.01706
 C82 C 0.82245 0.48406 0.10224
 C83 C -0.04395 0.26398 0.43361
 H84 H -0.06409 0.24616 0.43554
 C85 C -0.04259 0.28434 0.40374
 H86 H -0.06158 0.28052 0.38309
 C87 C 0.00436 0.28986 0.45922
 H88 H 0.02223 0.29216 0.48136
 C89 C 0.00691 0.31053 0.42981
 H90 H 0.02712 0.32852 0.43005
 N91 N -0.02074 0.26717 0.46061
 C92 C -0.08421 0.20824 0.52188
 H93 H -0.08688 0.22637 0.54353
 C94 C -0.10642 0.18128 0.51902
 H95 H -0.12617 0.17887 0.53854
 C96 C -0.05394 0.18792 0.47150
 H97 H -0.03303 0.19043 0.45348
 C98 C -0.07548 0.16087 0.46759
 H99 H -0.07126 0.14301 0.44593
 Zn100 Zn -0.02377 0.24259 0.50310
 N101 N -0.05834 0.21069 0.49851
 C102 C -0.05932 0.29199 0.53893
 N103 N -0.03122 0.27344 0.54113
 C104 C -0.00728 0.27997 0.56682
 C105 C -0.01064 0.30684 0.59086
 C106 C -0.06369 0.31907 0.56239
 C107 C 0.03985 0.21649 0.48511
 C108 C 0.06711 0.19554 0.48959
 C109 C 0.04540 0.18048 0.54755
 C110 C 0.01837 0.20136 0.54173
 N111 N 0.01604 0.21878 0.51092
 H112 H -0.07773 0.28651 0.51790
 H113 H 0.01532 0.26556 0.56750
 H114 H 0.00937 0.31250 0.61009
 H115 H -0.08606 0.33373 0.55975
 H116 H 0.03709 0.22981 0.46034
 H117 H 0.08520 0.19335 0.46817
 H118 H 0.04665 0.16743 0.57263
 H119 H -0.00116 0.20333 0.56160
 C120 C -0.10151 0.15670 0.49222
 C121 C -0.01716 0.30870 0.40155
 C122 C 0.06986 0.17658 0.52080
 C123 C -0.03858 0.32746 0.58802
 C124 C 0.99638 0.71324 0.53317
 H125 H 0.97825 0.71068 0.51132
 C126 C 0.99557 0.69142 0.56162
 H127 H 0.97658 0.67216 0.56125
 C128 C 1.04388 0.74074 0.55878
 H129 H 1.06318 0.75944 0.55711
 C130 C 1.04393 0.71942 0.58799
 H131 H 1.06280 0.72297 0.60893
 N132 N 1.02024 0.73728 0.53218
 C133 C 0.97233 0.80205 0.45507
 H134 H 0.99066 0.80222 0.43383
 C135 C 0.94259 0.81962 0.45122
 H136 H 0.93867 0.83369 0.42709
 C137 C 0.95637 0.78480 0.51309
 H138 H 0.96207 0.77174 0.53747
 C139 C 0.92642 0.80211 0.51045
 H140 H 0.90922 0.80183 0.53279
 Zn141 Zn 1.01950 0.76202 0.48952
 N142 N 0.97850 0.78486 0.48550
 C143 C 0.99890 0.72299 0.42748
 N144 N 1.02387 0.73031 0.45176
 C145 C 1.05229 0.71218 0.45299
 C146 C 1.05607 0.68476 0.43002
 C147 C 1.00164 0.69562 0.40393
 C148 C 1.06002 0.81497 0.51633
 C149 C 1.08527 0.83901 0.51498
 C150 C 1.09882 0.81876 0.45507
 C151 C 1.07396 0.79458 0.45792
 N152 N 1.05510 0.79314 0.48819
 H153 H 0.97620 0.73729 0.42751
 H154 H 1.07158 0.71844 0.47282
 H155 H 1.07880 0.67051 0.43183
 H156 H 0.98102 0.68925 0.38574
 H157 H 1.04404 0.81397 0.53963
 H158 H 1.08870 0.85653 0.53734
 H159 H 1.11311 0.82014 0.43049
 H160 H 1.06905 0.77765 0.43543
 C161 C 0.91907 0.81973 0.47916
 C162 C 1.01979 0.69393 0.58940
 C163 C 1.10459 0.84132 0.48382
 C164 C 1.03006 0.67553 0.40589
 C165 C 0.45038 -0.00854 0.30068
 H166 H 0.46776 -0.02884 0.30196
 C167 C 0.42236 -0.00795 0.32299
 H168 H 0.41815 -0.02809 0.34117
 C169 C 0.43534 0.04291 0.27632
 H170 H 0.44102 0.06336 0.25920
 C171 C 0.40708 0.04444 0.29794
 H172 H 0.39155 0.06617 0.29690
 N173 N 0.45619 0.01657 0.27774
 C174 C 0.52703 -0.02323 0.19958
 H175 H 0.54533 -0.00338 0.20154
 C176 C 0.53286 -0.05062 0.17710
 H177 H 0.55545 -0.05044 0.16144
 C178 C 0.47477 -0.04528 0.21677
 H179 H 0.45212 -0.04294 0.23222
 C180 C 0.47917 -0.07292 0.19382
 H181 H 0.45971 -0.09170 0.19240
 Zn182 Zn 0.49588 0.01670 0.25011
 N183 N 0.49891 -0.02146 0.21965
 C184 C 0.55314 -0.00850 0.28514
 N185 N 0.53272 0.01813 0.28317
 C186 C 0.53681 0.04456 0.30628
 C187 C 0.56248 0.04495 0.33241
 C188 C 0.57905 -0.00911 0.31068
 C189 C 0.46996 0.05338 0.19462
 C190 C 0.46637 0.07938 0.17093
 C191 C 0.51681 0.10422 0.19643
 C192 C 0.51918 0.07784 0.22015
 N193 N 0.49558 0.05337 0.21913
 H194 H 0.54889 -0.02986 0.26762
 H195 H 0.51990 0.06522 0.30463
 H196 H 0.56544 0.06645 0.35013
 H197 H 0.59459 -0.03086 0.31192
 H198 H 0.45197 0.03324 0.19389
 H199 H 0.44571 0.07882 0.15172
 H200 H 0.53556 0.12370 0.19762
 H201 H 0.53982 0.07695 0.23923
 C202 C 0.50905 -0.07654 0.17423
 C203 C 0.40014 0.01873 0.32163
 C204 C 0.48975 0.10546 0.17191
 C205 C 0.58389 0.01765 0.33508
 C206 C 0.53369 -0.01554 0.69070
 H207 H 0.50905 -0.01495 0.67844
 C208 C 0.56174 -0.01559 0.66864
 H209 H 0.55826 -0.01503 0.63961
 C210 C 0.56814 -0.01807 0.74307
 H211 H 0.57039 -0.01933 0.77216
 C212 C 0.59688 -0.01840 0.72199
 H213 H 0.62113 -0.01925 0.73526
 N214 N 0.53727 -0.01684 0.72723
 C215 C 0.47892 -0.06032 0.81334
 H216 H 0.46035 -0.04172 0.81869
 C217 C 0.48179 -0.08701 0.83642
 H218 H 0.46545 -0.08839 0.85944
 C219 C 0.52303 -0.08087 0.77744
 H220 H 0.53881 -0.07870 0.75415
 C221 C 0.52675 -0.10795 0.79978
 H222 H 0.54532 -0.12631 0.79306
 Zn223 Zn 0.49850 -0.01865 0.75652
 N224 N 0.49999 -0.05722 0.78503
 C225 C 0.44163 -0.04759 0.72023
 N226 N 0.46000 -0.01953 0.72634
 C227 C 0.45177 0.00927 0.71050
 C228 C 0.42430 0.01059 0.68705
 C229 C 0.41395 -0.04745 0.69666
 C230 C 0.52227 0.04118 0.79151
 C231 C 0.51914 0.06982 0.81306
 C232 C 0.46183 0.05439 0.82437
 C233 C 0.46607 0.02608 0.80271
 N234 N 0.49598 0.01980 0.78697
 H235 H 0.44864 -0.07016 0.73331
 H236 H 0.46687 0.03120 0.71586
 H237 H 0.41851 0.03374 0.67441
 H238 H 0.39953 -0.06997 0.69229
 H239 H 0.54564 0.03635 0.77823
 H240 H 0.54031 0.08656 0.81622
 H241 H 0.43791 0.05830 0.83703
 H242 H 0.44518 0.00936 0.79789
 C243 C 0.50657 -0.11083 0.83038
 C244 C 0.59386 -0.01754 0.68416
 C245 C 0.48852 0.07691 0.82959
 C246 C 0.40515 -0.01806 0.67947
 C247 C 0.22141 0.05411 0.50385
 C248 C 0.24141 0.05328 0.53936
 C249 C 0.26225 0.02690 0.54227
 C250 C 0.26035 0.00298 0.50936
 C251 C 0.24784 0.05155 0.47411
 C252 C 0.26840 0.02492 0.47701
 C253 C 0.20304 0.02089 0.50121
 C254 C 0.22306 -0.00574 0.50440
 H255 H 0.23940 0.07264 0.55982
 H256 H 0.27625 -0.01921 0.51164
 H257 H 0.25012 0.06873 0.45238
 H258 H 0.17622 0.01862 0.49700
 C259 C 0.77261 -0.05434 0.50313
 C260 C 0.74722 -0.05050 0.53356
 C261 C 0.72842 -0.02261 0.53179
 C262 C 0.73698 -0.00083 0.49946
 C263 C 0.75154 -0.05226 0.46832
 C264 C 0.73281 -0.02425 0.46622
 C265 C 0.79311 -0.02246 0.50469
 C266 C 0.77495 0.00565 0.50269
 H267 H 0.74319 -0.06920 0.55352
 H268 H 0.72212 0.02205 0.49763
 H269 H 0.75000 -0.07236 0.44856
 H270 H 0.82020 -0.02242 0.50659
 C271 C 0.46814 0.27969 0.98672
 C272 C 0.47018 0.25285 0.95699
 C273 C 0.49780 0.23335 0.95940
 C274 C 0.52117 0.24285 0.99168
 C275 C 0.47070 0.26082 1.02209
 C276 C 0.49833 0.24142 1.02481
 C277 C 0.50138 0.29868 0.98438
 C278 C 0.52896 0.27967 0.98716
 H279 H 0.45085 0.24912 0.93648
 H280 H 0.54384 0.22750 0.99383
 H281 H 0.45139 0.26155 1.04235
 H282 H 0.50321 0.32522 0.98164
 C283 C 0.54025 0.72187 0.02112
 C284 C 0.53601 0.74198 -0.01325
 C285 C 0.50716 0.75982 -0.01466
 C286 C 0.48470 0.75528 0.01860
 C287 C 0.53671 0.74711 0.05214
 C288 C 0.50777 0.76465 0.05101
 C289 C 0.50841 0.70069 0.02200
 C290 C 0.47934 0.71769 0.02050
 H291 H 0.55454 0.74254 -0.03429
 H292 H 0.46126 0.76958 0.01807
 H293 H 0.55629 0.75188 0.07215
 H294 H 0.50889 0.67393 0.02170
 C295 C 1.01185 0.45828 0.27620
 C296 C 0.98022 0.46105 0.25258
 C297 C 0.97888 0.48882 0.23250
 C298 C 1.00972 0.51160 0.23827
 C299 C 1.04079 0.46144 0.24984
 C300 C 1.03983 0.48924 0.22974
 C301 C 1.01293 0.49030 0.29887
 C302 C 1.01186 0.51823 0.27932
 H303 H 0.96097 0.44207 0.25107
 H304 H 1.00946 0.53470 0.22314
 H305 H 1.05990 0.44278 0.24687
 H306 H 1.01438 0.49070 0.32812
 C307 C -0.00802 0.54369 0.71713
 C308 C -0.03587 0.54237 0.74505
 C309 C -0.03565 0.51464 0.76519
 C310 C -0.00739 0.49045 0.75530
 C311 C 0.02433 0.53921 0.73919
 C312 C 0.02479 0.51144 0.75929
 C313 C -0.01209 0.51167 0.69473
 C314 C -0.01179 0.48376 0.71441
 H315 H -0.05361 0.56217 0.74911
 H316 H -0.00763 0.46771 0.77123
 H317 H 0.04453 0.55721 0.74011
 H318 H -0.01491 0.51128 0.66557
 C319 C 0.14944 0.13172 0.50357
 C320 C 0.14634 0.10458 0.52601
 N321 N 0.11909 0.10163 0.54710
 C322 C 0.09453 0.12460 0.54671
 C323 C 0.09722 0.15204 0.52408
 N324 N 0.12489 0.15473 0.50306
 N325 N 0.17657 0.13424 0.48209
 C326 C 0.20053 0.11049 0.48159
 C327 C 0.19705 0.08263 0.50345
 N328 N 0.17009 0.08094 0.52550
 H329 H 0.07277 0.12057 0.56307
 H330 H 0.22182 0.11371 0.46439
 C331 C 0.62603 0.65935 0.02297
 C332 C 0.59575 0.64971 0.03829
 N333 N 0.59235 0.61898 0.05154
 C334 C 0.61784 0.59710 0.04988
 C335 C 0.64826 0.60618 0.03387
 N336 N 0.65153 0.63734 0.02084
 N337 N 0.62900 0.69020 0.00952
 C338 C 0.60270 0.71148 0.00986
 C339 C 0.57167 0.70114 0.02350
 N340 N 0.56956 0.67064 0.03812
 H341 H 0.61369 0.57247 0.05966
 H342 H 0.60577 0.73581 -0.00115
 C343 C 0.84758 -0.12805 0.50786
 C344 C 0.83294 -0.11979 0.47472
 N345 N 0.84557 -0.13256 0.44358
 C346 C 0.87260 -0.15277 0.44402
 C347 C 0.88808 -0.16035 0.47719
 N348 N 0.87467 -0.14800 0.50832
 N349 N 0.83562 -0.11458 0.53895
 C350 C 0.80997 -0.09275 0.53841
 C351 C 0.79545 -0.08386 0.50519
 N352 N 0.80752 -0.09775 0.47411
 H353 H 0.88183 -0.16267 0.41869
 H354 H 0.80209 -0.08131 0.56355
 C355 C 0.38267 0.34262 0.98236
 C356 C 0.41530 0.35562 0.98199
 N357 N 0.42024 0.38876 0.98159
 C358 C 0.39395 0.40971 0.98203
 C359 C 0.36111 0.39704 0.98297
 N360 N 0.35618 0.36360 0.98273
 N361 N 0.37816 0.30931 0.98344
 C362 C 0.40483 0.28850 0.98438
 C363 C 0.43760 0.30156 0.98424
 N364 N 0.44169 0.33493 0.98291
 H365 H 0.39863 0.43610 0.98188
 H366 H 0.40060 0.26210 0.98556
 C367 C 0.82716 0.09730 0.50072
 C368 C 0.84257 0.06738 0.49140
 N369 N 0.87528 0.06704 0.48245
 C370 C 0.89351 0.09541 0.48221
 C371 C 0.87841 0.12573 0.49144
 N372 N 0.84544 0.12587 0.50077
 N373 N 0.79429 0.09712 0.50987
 C374 C 0.77627 0.06831 0.51024
 C375 C 0.79197 0.03824 0.50133
 N376 N 0.82478 0.03890 0.49207
 H377 H 0.91977 0.09405 0.47570
 H378 H 0.75036 0.06893 0.51823
 C379 C 0.38899 0.66216 0.01031
 C380 C 0.42003 0.64875 0.00113
 N381 N 0.42206 0.61691 -0.01052
 C382 C 0.39432 0.59760 -0.01363
 C383 C 0.36289 0.61062 -0.00459
 N384 N 0.36098 0.64274 0.00751
 N385 N 0.38759 0.69430 0.02202
 C386 C 0.41589 0.71343 0.02510
 C387 C 0.44706 0.69964 0.01641
 N388 N 0.44793 0.66761 0.00453
 H389 H 0.39696 0.57206 -0.02240
 H390 H 0.41406 0.73871 0.03496
 C391 C 0.17206 -0.09707 0.50470
 C392 C 0.16825 -0.07556 0.47579
 N393 N 0.14549 -0.08268 0.44920
 C394 C 0.12586 -0.11017 0.45044
 C395 C 0.12842 -0.13102 0.48013
 N396 N 0.15167 -0.12404 0.50659
 N397 N 0.19520 -0.08989 0.53104
 C398 C 0.21410 -0.06172 0.53021
 C399 C 0.20884 -0.03932 0.50238
 N400 N 0.18618 -0.04702 0.47568
 H401 H 0.10746 -0.11498 0.42921
 H402 H 0.23161 -0.05596 0.55206
 C403 C 0.62003 0.33257 0.99426
 C404 C 0.59762 0.33711 0.96537
 N405 N 0.60355 0.36124 0.94144
 C406 C 0.63062 0.38157 0.94542
 C407 C 0.65233 0.37826 0.97530
 N408 N 0.64656 0.35358 0.99896
 N409 N 0.61394 0.30826 1.01808
 C410 C 0.58598 0.28885 1.01480
 C411 C 0.56259 0.29472 0.98711
 N412 N 0.56926 0.31858 0.96287
 H413 H 0.63420 0.40116 0.92643
 H414 H 0.58108 0.27046 1.03483
 C415 C 0.51076 0.17088 1.10665
 C416 C 0.47895 0.18269 1.09742
 N417 N 0.45151 0.17006 1.11346
 C418 C 0.45435 0.14576 1.13799
 C419 C 0.48614 0.13333 1.14694
 N420 N 0.51367 0.14660 1.13123
 N421 N 0.53810 0.18323 1.09012
 C422 C 0.53506 0.20650 1.06436
 C423 C 0.50315 0.21802 1.05456
 N424 N 0.47590 0.20591 1.07176
 H425 H 0.43198 0.13626 1.15036
 H426 H 0.55740 0.21580 1.05184
 C427 C -0.00943 0.62611 0.64757
 C428 C 0.01943 0.61889 0.66763
 N429 N 0.04770 0.63705 0.66309
 C430 C 0.04854 0.66200 0.63912
 C431 C 0.01972 0.66911 0.61842
 N432 N -0.00857 0.65084 0.62356
 N433 N -0.03750 0.60751 0.65138
 C434 C -0.03791 0.58169 0.67417
 C435 C -0.00888 0.57398 0.69405
 N436 N 0.01911 0.59303 0.69028
 H437 H 0.07187 0.67511 0.63556
 H438 H -0.06045 0.56688 0.67628
 C439 C 0.48987 0.82890 -0.09725
 C440 C 0.52154 0.81520 -0.09175
 N441 N 0.54753 0.82505 -0.11217
 C442 C 0.54337 0.84814 -0.13787
 C443 C 0.51166 0.86231 -0.14344
 N444 N 0.48567 0.85217 -0.12274
 N445 N 0.46395 0.81907 -0.07663
 C446 C 0.46835 0.79646 -0.05038
 C447 C 0.50032 0.78314 -0.04418
 N448 N 0.52601 0.79284 -0.06546
 H449 H 0.56493 0.85599 -0.15287
 H450 H 0.44697 0.78903 -0.03491
 C451 C 1.01288 0.37687 0.34703
 C452 C 0.98657 0.38060 0.32225
 N453 N 0.96009 0.35950 0.32263
 C454 C 0.95835 0.33502 0.34707
 C455 C 0.98424 0.33168 0.37322
 N456 N 1.01098 0.35286 0.37182
 N457 N 1.03937 0.39806 0.34682
 C458 C 1.04036 0.42332 0.32328
 C459 C 1.01332 0.42799 0.29925
 N460 N 0.98722 0.40611 0.29918
 H461 H 0.93624 0.31960 0.34636
 H462 H 1.06146 0.44027 0.32407
 C463 C 0.49213 0.84766 0.12038
 C464 C 0.52425 0.83914 0.10897
 N465 N 0.55079 0.85822 0.11942
 C466 C 0.54679 0.88577 0.14052
 C467 C 0.51449 0.89486 0.15227
 N468 N 0.48805 0.87496 0.14197
 N469 N 0.46549 0.82878 0.10919
 C470 C 0.46962 0.80184 0.08694
 C471 C 0.50192 0.79313 0.07572
 N472 N 0.52844 0.81208 0.08726
 H473 H 0.56902 0.89939 0.14883
 H474 H 0.44800 0.78720 0.07851
 C475 C -0.02184 0.39024 0.66140
 C476 C -0.03628 0.41853 0.64692
 N477 N -0.05254 0.41639 0.61459
 C478 C -0.05481 0.38722 0.59577
 C479 C -0.03980 0.35874 0.60970
 N480 N -0.02366 0.36112 0.64239
 N481 N -0.00533 0.39262 0.69367
 C482 C -0.00238 0.42212 0.71199
 C483 C -0.01618 0.45069 0.69709
 N484 N -0.03292 0.44796 0.66487
 H485 H -0.06704 0.38678 0.56954
 H486 H 0.01153 0.42329 0.73722
 C487 C 0.50945 0.14867 0.89102
 C488 C 0.47827 0.16380 0.89494
 N489 N 0.45113 0.15089 0.87717
 C490 C 0.45363 0.12322 0.85586
 C491 C 0.48479 0.10749 0.85217
 N492 N 0.51203 0.12099 0.86976
 N493 N 0.53660 0.16179 0.90871
 C494 C 0.53391 0.18919 0.93051
 C495 C 0.50253 0.20423 0.93497
 N496 N 0.47555 0.19108 0.91668
 H497 H 0.43154 0.11402 0.84163
 H498 H 0.55618 0.19913 0.94372
 C499 C 1.01549 0.61179 0.33296
 C500 C 1.03064 0.58407 0.34794
 N501 N 1.04595 0.58675 0.38073
 C502 C 1.04680 0.61599 0.39945
 C503 C 1.03140 0.64397 0.38486
 N504 N 1.01596 0.64104 0.35183
 N505 N 1.00004 0.60880 0.30012
 C506 C 0.99895 0.57925 0.28167
 C507 C 1.01369 0.55131 0.29697
 N508 N 1.02920 0.55464 0.32980
 H509 H 1.05848 0.61696 0.42597
 H510 H 0.98587 0.57752 0.25593
 C511 C 1.11252 0.50628 0.14972
 C512 C 1.11844 0.48417 0.17748
 N513 N 1.14755 0.46731 0.17845
 C514 C 1.17092 0.47104 0.15250
 C515 C 1.16498 0.49274 0.12367
 N516 N 1.13578 0.51007 0.12373
 N517 N 1.08321 0.52291 0.14857
 C518 C 1.05946 0.51838 0.17402
 C519 C 1.06524 0.49608 0.20202
 N520 N 1.09481 0.47956 0.20286
 H521 H 1.19384 0.45744 0.15528
 H522 H 1.03616 0.53148 0.17155
 C523 C 0.64871 -0.00764 0.60456
 C524 C 0.67680 -0.02605 0.61434
 N525 N 0.67794 -0.04049 0.64701
 C526 C 0.65213 -0.03750 0.67039
 C527 C 0.62356 -0.01945 0.66057
 N528 N 0.62273 -0.00495 0.62769
 N529 N 0.64752 0.00657 0.57173
 C530 C 0.67310 0.00303 0.54808
 C531 C 0.70111 -0.01593 0.55751
 N532 N 0.70212 -0.02994 0.59062
 H533 H 0.65357 -0.05004 0.69581
 H534 H 0.67088 0.01401 0.52185
 C535 C -0.10516 0.50180 0.84910
 C536 C -0.11263 0.52190 0.81986
 N537 N -0.14227 0.53799 0.81875
 C538 C -0.16487 0.53489 0.84564
 C539 C -0.15746 0.51480 0.87521
 N540 N -0.12757 0.49882 0.87601
 N541 N -0.07541 0.48596 0.85043
 C542 C -0.05269 0.48925 0.82372
 C543 C -0.06000 0.50944 0.79427
 N544 N -0.08992 0.52536 0.79327
 H545 H -0.18792 0.54860 0.84422
 H546 H -0.02894 0.47687 0.82617
 C547 C 0.34720 0.00967 0.40300
 C548 C 0.31854 0.02728 0.39331
 N549 N 0.31625 0.04048 0.36008
 C550 C 0.34161 0.03739 0.33619
 C551 C 0.37097 0.02056 0.34604
 N552 N 0.37273 0.00675 0.37927
 N553 N 0.34939 -0.00345 0.43636
 C554 C 0.32426 0.00039 0.46054
 C555 C 0.29563 0.01845 0.45108
 N556 N 0.29363 0.03137 0.41749
 H557 H 0.33873 0.04796 0.30980
 H558 H 0.32723 -0.00972 0.48714
 C559 C 0.10353 0.49495 0.83439
 C560 C 0.09687 0.52660 0.82171
 N561 N 0.11534 0.55277 0.83414
 C562 C 0.14052 0.54879 0.85854
 C563 C 0.14794 0.51698 0.87107
 N564 N 0.12886 0.49082 0.85872
 N565 N 0.08449 0.46892 0.82221
 C566 C 0.05901 0.47319 0.79801
 C567 C 0.05233 0.50498 0.78521
 N568 N 0.07167 0.53082 0.79752
 H569 H 0.15395 0.57051 0.86846
 H570 H 0.04459 0.45190 0.78863
 C571 C 0.66157 -0.00836 0.38268
 C572 C 0.65928 0.00832 0.41614
 N573 N 0.63307 0.02873 0.42236
 C574 C 0.60890 0.03306 0.39669
 C575 C 0.61080 0.01598 0.36313
 N576 N 0.63738 -0.00426 0.35719
 N577 N 0.68756 -0.02895 0.37644
 C578 C 0.71120 -0.03407 0.40237
 C579 C 0.70867 -0.01805 0.43644
 N580 N 0.68278 0.00310 0.44220
 H581 H 0.58797 0.04882 0.40304
 H582 H 0.73170 -0.05043 0.39623
 C583 C 0.89918 0.50157 0.15740
 C584 C 0.89903 0.47547 0.18152
 N585 N 0.87352 0.45313 0.18028
 C586 C 0.84825 0.45546 0.15558
 C587 C 0.84854 0.48130 0.13077
 N588 N 0.87403 0.50390 0.13266
 N589 N 0.92485 0.52374 0.15857
 C590 C 0.95060 0.52090 0.18266
 C591 C 0.95083 0.49445 0.20675
 N592 N 0.92470 0.47255 0.20543
 H593 H 0.82813 0.43742 0.15558
 H594 H 0.97061 0.53891 0.18226
 C595 C 0.33571 0.01640 0.62479
 C596 C 0.32588 -0.01066 0.60272
 N597 N 0.34120 -0.04020 0.60684
 C598 C 0.36609 -0.04380 0.63190
 C599 C 0.37645 -0.01646 0.65371
 N600 N 0.36071 0.01294 0.64945
 N601 N 0.32084 0.04603 0.62054
 C602 C 0.29660 0.05000 0.59503
 C603 C 0.28676 0.02305 0.57231
 N604 N 0.30185 -0.00671 0.57690
 H605 H 0.37829 -0.06745 0.63381
 H606 H 0.28612 0.07430 0.59203
   
