data_POSCAR
  _audit_creation_date              2014-09-24
  _audit_creation_method            'ToBaCCo'
  _symmetry_space_group_name_H-M    'P1'
  _symmetry_Int_Tables_number       1
  _symmetry_cell_setting            triclinic
  loop_
  _symmetry_equiv_pos_as_xyz
 x,y,z
_cell_length_a 23.0368
_cell_length_b 22.7300
_cell_length_c 22.8565
_cell_angle_alpha 89.911100
_cell_angle_beta 90.074400
_cell_angle_gamma 89.739700
loop_
  _atom_site_label
  _atom_site_type_symbol
  _atom_site_fract_x
  _atom_site_fract_y
  _atom_site_fract_z
C1 C -0.08043 0.51352 0.27946
 C2 C -0.02435 0.52477 0.25880
 C3 C -0.01057 0.58089 0.23759
 C4 C -0.05279 0.62533 0.23616
 C5 C -0.10896 0.61396 0.25710
 C6 C -0.12261 0.55790 0.27897
 C7 C 0.01915 0.47720 0.25727
 C8 C 0.00539 0.42318 0.23139
 C9 C 0.04691 0.37834 0.22821
 C10 C 0.10249 0.38697 0.25189
 C11 C 0.11623 0.44088 0.27830
 C12 C 0.07474 0.48591 0.28054
 H13 H -0.09100 0.47019 0.29628
 H14 H 0.03247 0.58921 0.22029
 H15 H -0.03721 0.41665 0.21227
 H16 H 0.08544 0.52752 0.30095
 H17 H -0.14192 0.64821 0.25578
 H18 H 0.13485 0.35228 0.24939
 C19 C -0.08082 0.49228 0.73260
 C20 C -0.02527 0.47696 0.75299
 C21 C -0.01509 0.42020 0.77495
 C22 C -0.06006 0.37906 0.77704
 C23 C -0.11547 0.39443 0.75613
 C24 C -0.12574 0.45110 0.73367
 C25 C 0.02203 0.52041 0.75190
 C26 C 0.01360 0.57620 0.77653
 C27 C 0.05852 0.61743 0.77656
 C28 C 0.11214 0.60320 0.75086
 C29 C 0.12061 0.54746 0.72568
 C30 C 0.07577 0.50614 0.72672
 H31 H -0.08871 0.53584 0.71480
 H32 H 0.02765 0.40855 0.79141
 H33 H -0.02769 0.58698 0.79675
 H34 H 0.08226 0.46329 0.70692
 H35 H -0.15033 0.36252 0.75704
 H36 H 0.14697 0.63515 0.75030
 C37 C 0.27078 -0.07480 0.50618
 C38 C 0.24430 -0.02050 0.51822
 C39 C 0.21846 -0.01094 0.57286
 C40 C 0.21874 -0.05531 0.61517
 C41 C 0.24573 -0.10942 0.60337
 C42 C 0.27203 -0.11904 0.54881
 C43 C 0.24426 0.02670 0.47416
 C44 C 0.22363 0.01608 0.41751
 C45 C 0.22265 0.06143 0.37603
 C46 C 0.24337 0.11743 0.39078
 C47 C 0.26451 0.12784 0.44732
 C48 C 0.26450 0.08276 0.48891
 H49 H 0.29146 -0.08196 0.46414
 H50 H 0.19753 0.03085 0.58215
 H51 H 0.20706 -0.02709 0.40631
 H52 H 0.28141 0.09089 0.53245
 H53 H 0.24641 -0.14362 0.63654
 H54 H 0.24311 0.15260 0.35864
 C55 C 0.72850 -0.07758 0.49282
 C56 C 0.75334 -0.02300 0.47917
 C57 C 0.77565 -0.01340 0.42290
 C58 C 0.77362 -0.05785 0.38066
 C59 C 0.74830 -0.11221 0.39432
 C60 C 0.72544 -0.12200 0.45046
 C61 C 0.75538 0.02435 0.52333
 C62 C 0.77781 0.01342 0.57944
 C63 C 0.78024 0.05863 0.62105
 C64 C 0.75915 0.11499 0.60680
 C65 C 0.73623 0.12590 0.55084
 C66 C 0.73486 0.08080 0.50931
 H67 H 0.71046 -0.08490 0.53603
 H68 H 0.79560 0.02840 0.41231
 H69 H 0.79440 -0.03002 0.59021
 H70 H 0.71661 0.08929 0.46633
 H71 H 0.74651 -0.14657 0.36149
 H72 H 0.76038 0.15005 0.63892
 C73 C 0.48779 0.27041 1.07515
 C74 C 0.47868 0.24347 1.02087
 C75 C 0.42460 0.21840 1.00816
 C76 C 0.37995 0.21976 1.04971
 C77 C 0.38914 0.24752 1.10392
 C78 C 0.44313 0.27314 1.11639
 C79 C 0.52531 0.24342 0.97690
 C80 C 0.58027 0.22045 0.99064
 C81 C 0.62503 0.22197 0.94924
 C82 C 0.61516 0.24763 0.89418
 C83 C 0.56034 0.27112 0.88067
 C84 C 0.51548 0.26836 0.92170
 H85 H 0.52930 0.29064 1.08465
 H86 H 0.41766 0.19734 0.96617
 H87 H 0.58779 0.20078 1.03328
 H88 H 0.47332 0.28711 0.91132
 H89 H 0.35459 0.24937 1.13607
 H90 H 0.64979 0.24944 0.86211
 C91 C 0.51818 0.72939 1.07604
 C92 C 0.52769 0.75147 1.01957
 C93 C 0.58291 0.77211 1.00416
 C94 C 0.62817 0.77099 1.04501
 C95 C 0.61856 0.74836 1.10136
 C96 C 0.56352 0.72738 1.11673
 C97 C 0.48012 0.75231 0.97647
 C98 C 0.42619 0.77721 0.99079
 C99 C 0.38109 0.77805 0.94967
 C100 C 0.38956 0.75298 0.89417
 C101 C 0.44337 0.72764 0.88001
 C102 C 0.48851 0.72780 0.92091
 H103 H 0.47580 0.71255 1.08785
 H104 H 0.59018 0.79003 0.96077
 H105 H 0.41984 0.79690 1.03354
 H106 H 0.52989 0.70773 0.90995
 H107 H 0.65358 0.74716 1.13314
 H108 H 0.35469 0.75319 0.86223
 B109 B 0.99877 1.06077 0.03525
 B110 B 1.03839 1.00117 0.06106
 B111 B 0.96374 0.99889 0.06187
 B112 B 0.93904 1.03400 -0.00030
 B113 B 0.99825 1.05756 -0.04036
 B114 B 1.06032 1.03767 -0.00127
 B115 B 1.00243 0.93494 -0.03513
 B116 B 0.96265 0.99437 -0.06067
 B117 B 1.03797 0.99622 -0.06099
 B118 B 1.06288 0.96168 0.00145
 B119 B 1.00299 0.93751 0.04014
 B120 B 0.94163 0.95792 0.00218
 B121 B 0.56031 0.50272 0.46082
 B122 B 0.49962 0.54026 0.43837
 B123 B 0.50005 0.46394 0.43669
 B124 B 0.53885 0.43954 0.49720
 B125 B 0.56009 0.50046 0.53776
 B126 B 0.53614 0.56258 0.50109
 B127 B 0.43850 0.49918 0.53628
 B128 B 0.50021 0.46149 0.56007
 B129 B 0.49850 0.53707 0.56105
 B130 B 0.46073 0.56167 0.49997
 B131 B 0.43874 0.50007 0.46054
 B132 B 0.46261 0.43847 0.49897
 C133 C 1.00822 1.23174 0.13348
 C134 C 1.03893 1.22396 0.08188
 C135 C 1.03241 1.17251 0.04968
 C136 C 1.03271 1.32519 0.19737
 C137 C 0.96082 1.13840 0.11681
 C138 C 0.96725 1.18988 0.14985
 C139 C 1.02048 1.28211 0.16935
 C140 C 0.99721 1.12556 0.06865
 H141 H 1.06974 1.25681 0.06738
 H142 H 1.05945 1.16901 0.01257
 H143 H 0.92919 1.10833 0.13184
 H144 H 0.94121 1.19624 0.18878
 C145 C 0.98333 0.77323 0.14860
 C146 C 0.95634 0.77841 0.09447
 C147 C 0.96562 0.82781 0.05982
 C148 C 0.95999 0.67758 0.20995
 C149 C 1.03179 0.86607 0.13116
 C150 C 1.02255 0.81635 0.16631
 C151 C 0.97149 0.72216 0.18383
 C152 C 1.00051 0.87544 0.07854
 H153 H 0.92777 0.74410 0.07877
 H154 H 0.94480 0.82739 0.01778
 H155 H 1.06368 0.89710 0.14594
 H156 H 1.04594 0.81171 0.20721
 C157 C 0.97220 1.22231 -0.14864
 C158 C 1.02614 1.21061 -0.12338
 C159 C 1.03527 1.15855 -0.09174
 C160 C 0.95037 1.32493 -0.19923
 C161 C 0.93784 1.12909 -0.11229
 C162 C 0.92850 1.18070 -0.14405
 C163 C 0.96056 1.27782 -0.17695
 C164 C 0.99070 1.11695 -0.08262
 H165 H 1.06122 1.24191 -0.12770
 H166 H 1.07811 1.15144 -0.07591
 H167 H 0.90077 1.10155 -0.10817
 H168 H 0.88627 1.18886 -0.16348
 C169 C 1.02796 0.76786 -0.13748
 C170 C 1.05017 0.77339 -0.08123
 C171 C 1.03885 0.82390 -0.04862
 C172 C 1.04976 0.67018 -0.19647
 C173 C 0.98119 0.86294 -0.12683
 C174 C 0.99242 0.81230 -0.15987
 C175 C 1.04012 0.71546 -0.17069
 C176 C 1.00544 0.87140 -0.07055
 H177 H 1.07656 0.73860 -0.06235
 H178 H 1.05639 0.82432 -0.00579
 H179 H 0.95356 0.89442 -0.14694
 H180 H 0.97351 0.80806 -0.20308
 C181 C 1.14243 1.03024 0.22443
 C182 C 1.16689 0.99897 0.17816
 C183 C 1.13444 0.98846 0.12746
 C184 C 1.19846 1.05136 0.32275
 C185 C 1.05370 1.04042 0.16947
 C186 C 1.08582 1.05097 0.21987
 C187 C 1.17453 1.04160 0.27699
 C188 C 1.07597 1.00746 0.12205
 H189 H 1.21152 0.98391 0.18058
 H190 H 1.15770 0.96910 0.09219
 H191 H 1.01089 1.05822 0.16894
 H192 H 1.06635 1.07582 0.25528
 C193 C 1.13654 0.97373 -0.22957
 C194 C 1.11268 1.02845 -0.21564
 C195 C 1.08266 1.03624 -0.16294
 C196 C 1.19058 0.95511 -0.32972
 C197 C 1.10080 0.93503 -0.13840
 C198 C 1.13056 0.92719 -0.19073
 C199 C 1.16618 0.96427 -0.28404
 C200 C 1.07589 0.98980 -0.12213
 H201 H 1.11628 1.06493 -0.24597
 H202 H 1.06300 1.07805 -0.15658
 H203 H 1.10079 0.89773 -0.10987
 H204 H 1.14921 0.88449 -0.20068
 C205 C 0.85799 0.97374 0.22677
 C206 C 0.91467 0.95321 0.22300
 C207 C 0.94794 0.96511 0.17356
 C208 C 0.80016 0.95232 0.32447
 C209 C 0.86966 1.02010 0.13194
 C210 C 0.83585 1.00846 0.18161
 C211 C 0.82496 0.96208 0.27901
 C212 C 0.92654 0.99683 0.12478
 H213 H 0.93375 0.92837 0.25876
 H214 H 0.99150 0.95092 0.17595
 H215 H 0.85142 1.05070 0.10216
 H216 H 0.79275 1.02742 0.18502
 C217 C 0.85996 1.02148 -0.22711
 C218 C 0.83119 1.01313 -0.17422
 C219 C 0.86274 0.99949 -0.12348
 C220 C 0.80503 1.04759 -0.32575
 C221 C 0.95051 0.99838 -0.17863
 C222 C 0.91956 1.01212 -0.22941
 C223 C 0.82882 1.03618 -0.27997
 C224 C 0.92413 0.99574 -0.12278
 H225 H 0.78436 1.01708 -0.17200
 H226 H 0.83788 0.99130 -0.08555
 H227 H 0.99372 0.98452 -0.18581
 H228 H 0.94227 1.01417 -0.27087
 C229 C 1.22835 1.13940 0.01788
 C230 C 1.19121 1.13176 0.06492
 C231 C 1.13894 1.10221 0.05769
 C232 C 1.32826 1.19328 0.03746
 C233 C 1.15877 1.08901 -0.04406
 C234 C 1.21163 1.11881 -0.03712
 C235 C 1.28284 1.16901 0.02714
 C236 C 1.12152 1.07696 0.00370
 H237 H 1.20216 1.14949 0.10752
 H238 H 1.11113 1.10336 0.09498
 H239 H 1.14787 1.07587 -0.08747
 H240 H 1.23930 1.12578 -0.07476
 C241 C 0.77447 1.13982 -0.01255
 C242 C 0.82780 1.16819 -0.00797
 C243 C 0.87879 1.13531 -0.00045
 C244 C 0.67716 1.19655 -0.03776
 C245 C 0.82289 1.04640 0.00153
 C246 C 0.77201 1.07904 -0.00576
 C247 C 0.72219 1.17204 -0.02589
 C248 C 0.87832 1.07291 0.00009
 H249 H 0.83033 1.21561 -0.01199
 H250 H 0.91865 1.15971 0.00014
 H251 H 0.81755 1.00019 0.00835
 H252 H 0.73067 1.05651 -0.00696
 C253 C 1.23418 0.86484 -0.01298
 C254 C 1.22499 0.91763 -0.04213
 C255 C 1.17300 0.94821 -0.03497
 C256 C 1.33016 0.80544 -0.03676
 C257 C 1.14030 0.87614 0.03317
 C258 C 1.19234 0.84479 0.02608
 C259 C 1.28601 0.83146 -0.02491
 C260 C 1.12695 0.92710 -0.00008
 H261 H 1.25730 0.93443 -0.07220
 H262 H 1.16833 0.98568 -0.06188
 H263 H 1.11095 0.85829 0.06385
 H264 H 1.19941 0.80450 0.05051
 C265 C 0.78075 0.84778 0.01433
 C266 C 0.80801 0.86806 0.06445
 C267 C 0.85898 0.90002 0.06028
 C268 C 0.68047 0.79475 0.03100
 C269 C 0.85842 0.88930 -0.04398
 C270 C 0.80669 0.85706 -0.04012
 C271 C 0.72640 0.81774 0.02083
 C272 C 0.88377 0.91565 0.00583
 H273 H 0.79034 0.85832 0.10732
 H274 H 0.88042 0.90713 0.10081
 H275 H 0.87756 0.89363 -0.08638
 H276 H 0.78707 0.83958 -0.07949
 C277 C 0.72181 0.52528 0.34924
 C278 C 0.70299 0.46885 0.36350
 C279 C 0.65135 0.46117 0.39510
 C280 C 0.82371 0.54618 0.30080
 C281 C 0.63620 0.56471 0.39467
 C282 C 0.68698 0.57297 0.36303
 C283 C 0.77695 0.53550 0.32177
 C284 C 0.61901 0.50921 0.41747
 H285 H 0.72811 0.43071 0.35032
 H286 H 0.63829 0.41699 0.40089
 H287 H 0.61078 0.60374 0.40027
 H288 H 0.69912 0.61703 0.34971
 C289 C 0.27281 0.47189 0.35583
 C290 C 0.28546 0.52756 0.37758
 C291 C 0.33695 0.53733 0.40873
 C292 C 0.17239 0.45073 0.30402
 C293 C 0.36337 0.43666 0.39531
 C294 C 0.31240 0.42662 0.36413
 C295 C 0.21850 0.46044 0.32695
 C296 C 0.37753 0.49208 0.42077
 H297 H 0.25499 0.56350 0.37139
 H298 H 0.34141 0.58030 0.42467
 H299 H 0.39205 0.39926 0.39881
 H300 H 0.30382 0.38307 0.34701
 C301 C 0.71820 0.48549 0.65564
 C302 C 0.69654 0.54113 0.64109
 C303 C 0.64564 0.54645 0.60738
 C304 C 0.81863 0.46622 0.70872
 C305 C 0.63651 0.44228 0.60667
 C306 C 0.68645 0.43626 0.64034
 C307 C 0.77263 0.47717 0.68572
 C308 C 0.61783 0.49691 0.58264
 H309 H 0.71854 0.58035 0.65606
 H310 H 0.62864 0.58975 0.60232
 H311 H 0.61180 0.40263 0.60081
 H312 H 0.70012 0.39279 0.65445
 C313 C 0.26894 0.51046 0.63484
 C314 C 0.31002 0.46810 0.65081
 C315 C 0.36138 0.46190 0.61837
 C316 C 0.17408 0.53309 0.69617
 C317 C 0.32908 0.53696 0.55283
 C318 C 0.27786 0.54335 0.58449
 C319 C 0.21776 0.52149 0.66938
 C320 C 0.37497 0.49976 0.57114
 H321 H 0.30298 0.44053 0.68882
 H322 H 0.39096 0.42934 0.63315
 H323 H 0.33224 0.56394 0.51531
 H324 H 0.24558 0.57505 0.57001
 C325 C 0.53229 0.64495 0.27207
 C326 C 0.54152 0.58464 0.27353
 C327 C 0.53174 0.55316 0.32489
 C328 C 0.55351 0.70117 0.17314
 C329 C 0.50522 0.64129 0.37419
 C330 C 0.51516 0.67359 0.32297
 C331 C 0.54396 0.67694 0.21905
 C332 C 0.50780 0.57904 0.37623
 H333 H 0.55909 0.56208 0.23569
 H334 H 0.54953 0.50958 0.32470
 H335 H 0.49780 0.66684 0.41215
 H336 H 0.51114 0.72110 0.32374
 C337 C 0.47380 0.64000 0.72751
 C338 C 0.44817 0.58535 0.72021
 C339 C 0.45908 0.55262 0.66993
 C340 C 0.45263 0.69922 0.82461
 C341 C 0.52307 0.62740 0.63478
 C342 C 0.51221 0.66055 0.68522
 C343 C 0.46212 0.67333 0.77964
 C344 C 0.49552 0.57288 0.62431
 H345 H 0.41957 0.56774 0.75347
 H346 H 0.43943 0.51059 0.66836
 H347 H 0.55317 0.64618 0.60536
 H348 H 0.53377 0.70242 0.69101
 C349 C 0.47681 0.36606 0.26554
 C350 C 0.51960 0.34793 0.30479
 C351 C 0.53045 0.38053 0.35559
 C352 C 0.45325 0.30434 0.17030
 C353 C 0.45966 0.45123 0.32598
 C354 C 0.44866 0.41933 0.27505
 C355 C 0.46375 0.33191 0.21412
 C356 C 0.49664 0.42990 0.37147
 H357 H 0.54520 0.30884 0.29594
 H358 H 0.56684 0.36660 0.37995
 H359 H 0.43728 0.49280 0.32969
 H360 H 0.41772 0.43624 0.24340
 C361 C 0.52684 0.36008 0.72926
 C362 C 0.54708 0.41721 0.72367
 C363 C 0.53527 0.44945 0.67305
 C364 C 0.54992 0.30051 0.82590
 C365 C 0.47965 0.36987 0.63522
 C366 C 0.49150 0.33705 0.68568
 C367 C 0.53964 0.32687 0.78129
 C368 C 0.50457 0.42555 0.62445
 H369 H 0.57287 0.43685 0.75812
 H370 H 0.55417 0.49250 0.67198
 H371 H 0.44538 0.35338 0.60946
 H372 H 0.47148 0.29438 0.69140
 C373 C 0.64090 0.72919 0.48965
 C374 C 0.66871 0.67486 0.49453
 C375 C 0.63608 0.62364 0.50202
 C376 C 0.69846 0.82637 0.46372
 C377 C 0.54856 0.68103 0.50410
 C378 C 0.58093 0.73229 0.49657
 C379 C 0.67312 0.78162 0.47592
 C380 C 0.57447 0.62442 0.50262
 H381 H 0.71548 0.67166 0.49059
 H382 H 0.65978 0.58257 0.50295
 H383 H 0.50325 0.68738 0.51086
 H384 H 0.55879 0.77445 0.49524
 C385 C 0.65510 0.27946 0.50576
 C386 C 0.67917 0.33531 0.51074
 C387 C 0.64428 0.38510 0.50135
 C388 C 0.71102 0.18211 0.53598
 C389 C 0.56501 0.32460 0.47518
 C390 C 0.59887 0.27427 0.48415
 C391 C 0.68716 0.22741 0.52211
 C392 C 0.58329 0.38095 0.49274
 H393 H 0.72431 0.34062 0.52288
 H394 H 0.66536 0.42734 0.50354
 H395 H 0.52525 0.31878 0.45149
 H396 H 0.58106 0.23143 0.47406
 C397 C 0.35799 0.73036 0.52010
 C398 C 0.37240 0.71028 0.46438
 C399 C 0.40256 0.65705 0.45767
 C400 C 0.30044 0.82955 0.53771
 C401 C 0.40201 0.64340 0.56134
 C402 C 0.37222 0.69627 0.56845
 C403 C 0.32642 0.78438 0.52851
 C404 C 0.42098 0.62276 0.50601
 H405 H 0.35941 0.73507 0.42598
 H406 H 0.40799 0.64173 0.41367
 H407 H 0.40440 0.61712 0.59967
 H408 H 0.35874 0.70963 0.61189
 C409 C 0.34762 0.27868 0.49161
 C410 C 0.32249 0.33429 0.49544
 C411 C 0.35774 0.38356 0.50411
 C412 C 0.28984 0.18333 0.46244
 C413 C 0.44068 0.32169 0.51184
 C414 C 0.40642 0.27217 0.50334
 C415 C 0.31428 0.22792 0.47606
 C416 C 0.41950 0.37935 0.50401
 H417 H 0.27612 0.34003 0.48966
 H418 H 0.33538 0.42506 0.50404
 H419 H 0.48173 0.31388 0.53209
 H420 H 0.42577 0.22876 0.50704
   
