data_POSCAR
  _audit_creation_date              2014-09-24
  _audit_creation_method            'ToBaCCo'
  _symmetry_space_group_name_H-M    'P1'
  _symmetry_Int_Tables_number       1
  _symmetry_cell_setting            triclinic
  loop_
  _symmetry_equiv_pos_as_xyz
 x,y,z
_cell_length_a 48.3769
_cell_length_b 48.9145
_cell_length_c 40.3087
_cell_angle_alpha 89.921300
_cell_angle_beta 89.937800
_cell_angle_gamma 92.659500
loop_
  _atom_site_label
  _atom_site_type_symbol
  _atom_site_fract_x
  _atom_site_fract_y
  _atom_site_fract_z
O1 O 0.02887 0.32170 -0.05185
 O2 O -0.02109 0.33731 0.01504
 O3 O 0.03319 0.33381 0.01135
 O4 O -0.02435 0.32940 -0.04804
 O5 O -0.03120 0.28547 -0.03656
 O6 O 0.02778 0.28951 0.02121
 O7 O -0.02481 0.29325 0.02666
 O8 O 0.02122 0.27770 -0.04144
 Cu9 Cu 0.00498 0.33501 -0.01939
 Cu10 Cu -0.00226 0.28212 -0.00654
 C11 C 0.03308 0.29673 -0.05825
 C12 C -0.03157 0.31755 0.03228
 C13 C 0.04035 0.31249 0.02645
 C14 C -0.03799 0.30687 -0.05195
 O15 O 0.47005 0.83584 0.52507
 O16 O 0.52746 0.82757 0.46636
 O17 O 0.47362 0.82890 0.46181
 O18 O 0.52440 0.83295 0.53069
 O19 O 0.51984 0.78814 0.53658
 O20 O 0.47026 0.78396 0.46806
 O21 O 0.52313 0.78273 0.47254
 O22 O 0.46643 0.79097 0.53188
 Cu23 Cu 0.49941 0.83589 0.49556
 Cu24 Cu 0.49452 0.78201 0.50309
 C25 C 0.45821 0.81472 0.53801
 C26 C 0.53483 0.80372 0.45906
 C27 C 0.46348 0.80553 0.45322
 C28 C 0.53095 0.81103 0.54517
 O29 O 1.02258 0.70102 0.03387
 O30 O 0.97067 0.68288 -0.03096
 O31 O 1.02297 0.70017 -0.03134
 O32 O 0.97036 0.68301 0.03269
 O33 O 0.95802 0.72595 0.03237
 O34 O 1.01024 0.74282 -0.03156
 O35 O 0.95879 0.72596 -0.03202
 O36 O 1.00932 0.74349 0.03303
 Cu37 Cu 0.99819 0.68751 0.00116
 Cu38 Cu 0.98294 0.73881 0.00041
 C39 C 1.02467 0.72546 0.04475
 C40 C 0.95569 0.70147 -0.04216
 C41 C 1.02551 0.72445 -0.04265
 C42 C 0.95492 0.70153 0.04294
 O43 O 0.47152 0.19932 0.45131
 O44 O 0.52405 0.17862 0.51177
 O45 O 0.46967 0.17903 0.51067
 O46 O 0.52576 0.19896 0.45189
 O47 O 0.52804 0.24039 0.47372
 O48 O 0.47246 0.22065 0.53203
 O49 O 0.52493 0.22027 0.53300
 O50 O 0.47309 0.24070 0.47335
 Cu51 Cu 0.49765 0.18479 0.47916
 Cu52 Cu 0.49999 0.23490 0.50464
 C53 C 0.46265 0.22330 0.45311
 C54 C 0.53318 0.19606 0.53291
 C55 C 0.46146 0.19660 0.53127
 C56 C 0.53689 0.22295 0.45348
 O57 O 0.70233 -0.04363 0.04507
 O58 O 0.70831 0.00919 -0.02121
 O59 O 0.70896 -0.04426 -0.01932
 O60 O 0.69853 0.00988 0.04207
 O61 O 0.74365 0.01507 0.04930
 O62 O 0.75409 -0.04018 -0.01105
 O63 O 0.75349 0.01184 -0.01373
 O64 O 0.74725 -0.03787 0.05388
 Cu65 Cu 0.69999 -0.01776 0.01099
 Cu66 Cu 0.75407 -0.01259 0.02074
 C67 C 0.72400 -0.04939 0.06100
 C68 C 0.73221 0.01928 -0.02906
 C69 C 0.73332 -0.05102 -0.02620
 C70 C 0.71924 0.02224 0.05556
 O71 O 0.23676 0.53291 0.46661
 O72 O 0.24052 0.47670 0.52747
 O73 O 0.23739 0.52989 0.53105
 O74 O 0.23901 0.47987 0.46287
 O75 O 0.28462 0.48486 0.46130
 O76 O 0.28309 0.53347 0.53064
 O77 O 0.28615 0.48123 0.52626
 O78 O 0.28243 0.53698 0.46588
 Cu79 Cu 0.23381 0.50436 0.49716
 Cu80 Cu 0.28865 0.50953 0.49597
 C81 C 0.25910 0.54424 0.45557
 C82 C 0.26406 0.46967 0.53750
 C83 C 0.26003 0.53995 0.54268
 C84 C 0.26207 0.47432 0.45003
 O85 O 0.33555 1.03607 0.03149
 O86 O 0.33593 0.98080 -0.03061
 O87 O 0.33558 1.03461 -0.03272
 O88 O 0.33462 0.98248 0.03389
 O89 O 0.28899 0.98081 0.03272
 O90 O 0.28999 1.03252 -0.03306
 O91 O 0.29030 0.97938 -0.03135
 O92 O 0.28995 1.03358 0.03136
 Cu93 Cu 0.34004 1.00865 0.00050
 Cu94 Cu 0.28528 1.00641 -0.00024
 C95 C 0.31263 1.04436 0.04206
 C96 C 0.31309 0.97047 -0.04137
 C97 C 0.31282 1.04282 -0.04397
 C98 C 0.31147 0.97269 0.04458
 O99 O 0.82314 0.46049 0.47791
 O100 O 0.82396 0.51355 0.54294
 O101 O 0.82339 0.45933 0.54175
 O102 O 0.82458 0.51398 0.47863
 O103 O 0.77889 0.51240 0.47836
 O104 O 0.77770 0.45845 0.54230
 O105 O 0.77833 0.51212 0.54284
 O106 O 0.77742 0.45965 0.47753
 Cu107 Cu 0.82836 0.48701 0.51055
 Cu108 Cu 0.77352 0.48552 0.51050
 C109 C 0.80009 0.45110 0.46667
 C110 C 0.80124 0.52234 0.55347
 C111 C 0.80036 0.44914 0.55219
 C112 C 0.80190 0.52240 0.46756
 C113 C 0.29061 0.31185 0.30373
 C114 C 0.31016 0.29263 0.30069
 C115 C 0.29757 0.27051 0.28433
 N116 N 0.27121 0.27595 0.27643
 C117 C 0.26690 0.30132 0.28807
 C118 C 0.30931 0.24480 0.27984
 C119 C 0.29641 0.22405 0.26016
 C120 C 0.30176 0.19647 0.26193
 C121 C 0.28648 0.18360 0.23728
 C122 C 0.27225 0.20369 0.22118
 N123 N 0.27834 0.22827 0.23534
 C124 C 0.25556 0.19939 0.19280
 C125 C 0.23645 0.21848 0.18219
 C126 C 0.22256 0.21757 0.15212
 C127 C 0.20378 0.23768 0.15323
 C128 C 0.20707 0.25037 0.18380
 N129 N 0.22702 0.23860 0.20147
 C130 C 0.18997 0.27057 0.19617
 C131 C 0.19634 0.28610 0.22488
 C132 C 0.17810 0.30247 0.24119
 C133 C 0.19249 0.31461 0.26711
 C134 C 0.21916 0.30524 0.26599
 N135 N 0.22138 0.28824 0.23979
 C136 C 0.24106 0.31378 0.28746
 H137 H 0.29378 0.33121 0.31633
 H138 H 0.33105 0.29457 0.31023
 H139 H 0.23958 0.28058 0.23072
 H140 H 0.31531 0.18663 0.27913
 H141 H 0.28605 0.16194 0.23174
 H142 H 0.22532 0.20358 0.13174
 H143 H 0.18909 0.24219 0.13396
 H144 H 0.18424 0.32902 0.28442
 H145 H 0.27307 0.24723 0.22615
 H146 H 0.15670 0.30550 0.23495
 C147 C 0.69063 0.69757 0.33514
 C148 C 0.71128 0.67935 0.33596
 C149 C 0.72484 0.68151 0.30569
 N150 N 0.71297 0.70020 0.28629
 C151 C 0.69206 0.71009 0.30426
 C152 C 0.74682 0.66523 0.29597
 C153 C 0.76460 0.67174 0.26886
 C154 C 0.78497 0.65517 0.25719
 C155 C 0.79892 0.66959 0.23252
 C156 C 0.78628 0.69433 0.22918
 N157 N 0.76568 0.69560 0.25176
 C158 C 0.79466 0.71544 0.20677
 C159 C 0.77766 0.73700 0.19742
 C160 C 0.78514 0.75732 0.17465
 C161 C 0.76280 0.77326 0.17113
 C162 C 0.74232 0.76237 0.19201
 N163 N 0.75130 0.73992 0.20761
 C164 C 0.71554 0.77267 0.19517
 C165 C 0.69557 0.76281 0.21849
 C166 C 0.66822 0.77019 0.21930
 C167 C 0.65628 0.75796 0.24688
 C168 C 0.67666 0.74348 0.26223
 N169 N 0.70053 0.74666 0.24491
 C170 C 0.67325 0.72916 0.29256
 H171 H 0.67614 0.70104 0.35499
 H172 H 0.71590 0.66612 0.35659
 H173 H 0.71976 0.74094 0.25294
 H174 H 0.78967 0.63498 0.26589
 H175 H 0.81633 0.66248 0.21867
 H176 H 0.80447 0.76015 0.16129
 H177 H 0.76180 0.79072 0.15475
 H178 H 0.63509 0.75977 0.25490
 H179 H 0.75513 0.71294 0.25755
 H180 H 0.65795 0.78339 0.20215
 C181 C 0.68500 0.29309 0.28761
 C182 C 0.70363 0.31508 0.28779
 C183 C 0.72789 0.30624 0.27394
 N184 N 0.72482 0.27940 0.26597
 C185 C 0.69867 0.27125 0.27455
 C186 C 0.75319 0.32186 0.27217
 C187 C 0.77591 0.31410 0.25271
 C188 C 0.80242 0.32621 0.25407
 C189 C 0.81796 0.31344 0.23062
 C190 C 0.80048 0.29406 0.21536
 N191 N 0.77482 0.29490 0.22860
 C192 C 0.80820 0.27666 0.18934
 C193 C 0.79146 0.25387 0.17892
 C194 C 0.79585 0.23890 0.15036
 C195 C 0.77801 0.21633 0.15178
 C196 C 0.76333 0.21829 0.18116
 N197 N 0.77148 0.24130 0.19764
 C198 C 0.74515 0.19758 0.19420
 C199 C 0.72709 0.20227 0.22095
 C200 C 0.71307 0.18199 0.23923
 C201 C 0.69695 0.19506 0.26186
 C202 C 0.70155 0.22296 0.25673
 N203 N 0.71987 0.22716 0.23167
 C204 C 0.68808 0.24376 0.27394
 H205 H 0.66400 0.29311 0.29685
 H206 H 0.69966 0.33514 0.29741
 H207 H 0.72496 0.24587 0.22036
 H208 H 0.80990 0.34266 0.27008
 H209 H 0.83964 0.31797 0.22541
 H210 H 0.81090 0.24342 0.13098
 H211 H 0.77649 0.20001 0.13368
 H212 H 0.68349 0.18511 0.28011
 H213 H 0.75704 0.28460 0.21975
 H214 H 0.71436 0.16007 0.23660
 C215 C 0.26506 0.72886 0.34790
 C216 C 0.28273 0.75154 0.34781
 C217 C 0.27428 0.76821 0.32227
 N218 N 0.25177 0.75654 0.30705
 C219 C 0.24634 0.73223 0.32233
 C220 C 0.28647 0.79438 0.31480
 C221 C 0.27780 0.81088 0.28829
 C222 C 0.28494 0.83850 0.28448
 C223 C 0.27347 0.84661 0.25509
 C224 C 0.26004 0.82364 0.24140
 N225 N 0.26289 0.80194 0.26174
 C226 C 0.24707 0.82287 0.20996
 C227 C 0.23020 0.80046 0.19854
 C228 C 0.22099 0.79721 0.16617
 C229 C 0.20375 0.77417 0.16580
 C230 C 0.20291 0.76412 0.19798
 N231 N 0.21909 0.78024 0.21795
 C232 C 0.18592 0.74150 0.20879
 C233 C 0.18857 0.72926 0.24042
 C234 C 0.16975 0.71013 0.25401
 C235 C 0.18058 0.70208 0.28380
 C236 C 0.20553 0.71683 0.28795
 N237 N 0.21035 0.73312 0.26122
 C238 C 0.22389 0.71361 0.31486
 H239 H 0.26576 0.71205 0.36531
 H240 H 0.29954 0.75546 0.36510
 H241 H 0.22884 0.74379 0.25578
 H242 H 0.29720 0.85154 0.30101
 H243 H 0.27522 0.86706 0.24478
 H244 H 0.22610 0.81015 0.14502
 H245 H 0.19297 0.76586 0.14428
 H246 H 0.17110 0.68693 0.30032
 H247 H 0.25778 0.78167 0.25599
 H248 H 0.15035 0.70249 0.24344
 C249 C 0.75015 0.19909 0.85356
 C250 C 0.77183 0.21811 0.85211
 C251 C 0.77162 0.22929 0.82050
 N252 N 0.75070 0.21762 0.80252
 C253 C 0.73760 0.19906 0.82264
 C254 C 0.79182 0.24835 0.80797
 C255 C 0.78759 0.26448 0.77936
 C256 C 0.80770 0.28132 0.76416
 C257 C 0.79476 0.29525 0.73939
 C258 C 0.76720 0.28603 0.73943
 N259 N 0.76299 0.26753 0.76414
 C260 C 0.74642 0.29575 0.71830
 C261 C 0.72076 0.28129 0.71287
 C262 C 0.69987 0.29015 0.69249
 C263 C 0.67943 0.26980 0.69234
 C264 C 0.68840 0.24908 0.71261
 N265 N 0.71383 0.25599 0.72475
 C266 C 0.67378 0.22371 0.71788
 C267 C 0.68230 0.20354 0.74024
 C268 C 0.67176 0.17668 0.74118
 C269 C 0.68378 0.16439 0.76789
 C270 C 0.70105 0.18417 0.78278
 N271 N 0.70002 0.20795 0.76576
 C272 C 0.71598 0.18052 0.81246
 H273 H 0.74449 0.18652 0.87484
 H274 H 0.78618 0.22310 0.87203
 H275 H 0.70820 0.22690 0.77348
 H276 H 0.82939 0.28378 0.77057
 H277 H 0.80473 0.31043 0.72333
 H278 H 0.69953 0.30901 0.67850
 H279 H 0.66036 0.27011 0.67837
 H280 H 0.67996 0.14336 0.77563
 H281 H 0.74386 0.25983 0.77254
 H282 H 0.65678 0.16695 0.72456
 C283 C 0.20639 0.76559 0.84298
 C284 C 0.22463 0.78788 0.84407
 C285 C 0.23658 0.79020 0.81289
 N286 N 0.22612 0.77024 0.79271
 C287 C 0.20761 0.75516 0.81104
 C288 C 0.25554 0.81151 0.80297
 C289 C 0.27190 0.81030 0.77393
 C290 C 0.28809 0.83197 0.76105
 C291 C 0.30241 0.82190 0.73459
 C292 C 0.29410 0.79454 0.73158
 N293 N 0.27575 0.78754 0.75580
 C294 C 0.30452 0.77647 0.70794
 C295 C 0.29074 0.75154 0.69870
 C296 C 0.30036 0.73379 0.67503
 C297 C 0.28045 0.71317 0.67168
 C298 C 0.25941 0.71868 0.69379
 N299 N 0.26558 0.74244 0.70987
 C300 C 0.23442 0.70263 0.69741
 C301 C 0.21428 0.70729 0.72208
 C302 C 0.18805 0.69457 0.72323
 C303 C 0.17558 0.70329 0.75176
 C304 C 0.19459 0.72091 0.76751
 N305 N 0.21815 0.72310 0.74937
 C306 C 0.19040 0.73330 0.79871
 H307 H 0.19358 0.75808 0.86336
 H308 H 0.22869 0.80085 0.86542
 H309 H 0.23677 0.73234 0.75712
 H310 H 0.28976 0.85282 0.77001
 H311 H 0.31710 0.83346 0.71919
 H312 H 0.31943 0.73580 0.66098
 H313 H 0.28141 0.69628 0.65451
 H314 H 0.15493 0.69713 0.76005
 H315 H 0.26891 0.76773 0.76189
 H316 H 0.17883 0.68019 0.70563
 C317 C 0.21363 0.24051 0.83500
 C318 C 0.22986 0.21828 0.83668
 C319 C 0.24120 0.21514 0.80539
 N320 N 0.23231 0.23462 0.78465
 C321 C 0.21553 0.25022 0.80272
 C322 C 0.25839 0.19377 0.79610
 C323 C 0.27403 0.19411 0.76634
 C324 C 0.28842 0.17229 0.75429
 C325 C 0.30313 0.18172 0.72703
 C326 C 0.29676 0.20878 0.72266
 N327 N 0.27918 0.21623 0.74674
 C328 C 0.30845 0.22635 0.69816
 C329 C 0.29625 0.25051 0.68745
 C330 C 0.30694 0.26769 0.66277
 C331 C 0.28841 0.28773 0.65849
 C332 C 0.26718 0.28247 0.68113
 N333 N 0.27179 0.25938 0.69833
 C334 C 0.24359 0.29830 0.68463
 C335 C 0.22393 0.29463 0.71054
 C336 C 0.19912 0.30773 0.71240
 C337 C 0.18709 0.30045 0.74222
 C338 C 0.20487 0.28318 0.75790
 N339 N 0.22733 0.27990 0.73856
 C340 C 0.20068 0.27217 0.79004
 H341 H 0.20172 0.24853 0.85522
 H342 H 0.23303 0.20592 0.85852
 H343 H 0.24530 0.27085 0.74592
 H344 H 0.28878 0.15180 0.76438
 H345 H 0.31688 0.16996 0.71210
 H346 H 0.32585 0.26571 0.64877
 H347 H 0.29044 0.30420 0.64060
 H348 H 0.16757 0.30735 0.75143
 H349 H 0.27395 0.23613 0.75182
 H350 H 0.19065 0.32156 0.69453
 C351 C 0.69303 0.71896 0.66588
 C352 C 0.71209 0.69913 0.66433
 C353 C 0.72619 0.69991 0.69425
 N354 N 0.71631 0.71953 0.71404
 C355 C 0.69601 0.73122 0.69676
 C356 C 0.74656 0.68147 0.70350
 C357 C 0.76446 0.68581 0.73102
 C358 C 0.78274 0.66701 0.74278
 C359 C 0.79776 0.67965 0.76780
 C360 C 0.78770 0.70553 0.77144
 N361 N 0.76770 0.70926 0.74868
 C362 C 0.79765 0.72523 0.79466
 C363 C 0.78230 0.74754 0.80539
 C364 C 0.79060 0.76529 0.83061
 C365 C 0.76962 0.78267 0.83523
 C366 C 0.74922 0.77550 0.81222
 N367 N 0.75685 0.75361 0.79447
 C368 C 0.72367 0.78847 0.80913
 C369 C 0.70373 0.78214 0.78406
 C370 C 0.67750 0.79250 0.78276
 C371 C 0.66483 0.78202 0.75471
 C372 C 0.68365 0.76571 0.73930
 N373 N 0.70743 0.76625 0.75705
 C374 C 0.67864 0.75137 0.70923
 H375 H 0.67844 0.72362 0.64657
 H376 H 0.71517 0.68561 0.64355
 H377 H 0.72583 0.75820 0.74952
 H378 H 0.78533 0.64637 0.73409
 H379 H 0.81398 0.67053 0.78188
 H380 H 0.80944 0.76522 0.84506
 H381 H 0.76952 0.79849 0.85392
 H382 H 0.64407 0.78604 0.74663
 H383 H 0.75905 0.72775 0.74325
 H384 H 0.66829 0.80634 0.80001
 C385 C 0.28698 0.07331 0.07923
 C386 C 0.28611 0.09563 0.10087
 C387 C 0.31069 0.11115 0.10831
 C388 C 0.33590 0.10334 0.09502
 C389 C 0.33671 0.08075 0.07390
 C390 C 0.31220 0.06581 0.06514
 C391 C 0.30958 0.13437 0.12856
 C392 C 0.28424 0.14203 0.14175
 C393 C 0.25984 0.12582 0.13535
 C394 C 0.26092 0.10282 0.11483
 C395 C 0.23467 0.13306 0.14929
 C396 C 0.23352 0.15652 0.16876
 C397 C 0.25737 0.17339 0.17407
 C398 C 0.28279 0.16584 0.16088
 H399 H 0.26788 0.06187 0.07331
 H400 H 0.35498 0.11487 0.10067
 H401 H 0.35650 0.07554 0.06368
 H402 H 0.32836 0.14660 0.13379
 H403 H 0.24211 0.09070 0.10945
 H404 H 0.21585 0.12072 0.14491
 H405 H 0.21385 0.16189 0.17919
 H406 H 0.30126 0.17878 0.16512
 C407 C 0.77674 0.55235 0.59313
 C408 C 0.77600 0.57591 0.61290
 C409 C 0.80016 0.59302 0.61670
 C410 C 0.82486 0.58571 0.60155
 C411 C 0.82546 0.56211 0.58207
 C412 C 0.80133 0.54548 0.57715
 C413 C 0.79914 0.61727 0.63520
 C414 C 0.77432 0.62447 0.65024
 C415 C 0.75039 0.60687 0.64726
 C416 C 0.75135 0.58283 0.62847
 C417 C 0.72581 0.61367 0.66302
 C418 C 0.72485 0.63772 0.68149
 C419 C 0.74826 0.65567 0.68405
 C420 C 0.77297 0.64897 0.66824
 H421 H 0.75802 0.53961 0.58974
 H422 H 0.84363 0.59848 0.60434
 H423 H 0.84465 0.55735 0.56999
 H424 H 0.81758 0.63058 0.63774
 H425 H 0.73287 0.56959 0.62581
 H426 H 0.70734 0.60037 0.66114
 H427 H 0.70570 0.64248 0.69370
 H428 H 0.79107 0.66280 0.67013
 C429 C 0.70703 0.90557 0.08496
 C430 C 0.70892 0.88496 0.10916
 C431 C 0.72574 0.88981 0.13747
 C432 C 0.74033 0.91504 0.14112
 C433 C 0.73911 0.93495 0.11644
 C434 C 0.72268 0.93035 0.08813
 C435 C 0.72849 0.86910 0.16115
 C436 C 0.71548 0.84322 0.15639
 C437 C 0.69882 0.83818 0.12802
 C438 C 0.69525 0.85924 0.10488
 C439 C 0.68670 0.81190 0.12281
 C440 C 0.69168 0.79066 0.14498
 C441 C 0.70833 0.79555 0.17301
 C442 C 0.71971 0.82198 0.17896
 H443 H 0.69461 0.90182 0.06292
 H444 H 0.75333 0.91907 0.16260
 H445 H 0.75125 0.95397 0.11930
 H446 H 0.74152 0.87284 0.18272
 H447 H 0.68260 0.85534 0.08305
 H448 H 0.67399 0.80760 0.10115
 H449 H 0.68291 0.77029 0.14008
 H450 H 0.73275 0.82561 0.20052
 C451 C 0.24635 0.42626 0.56466
 C452 C 0.24879 0.40568 0.58869
 C453 C 0.27059 0.40777 0.61208
 C454 C 0.28989 0.42998 0.61059
 C455 C 0.28778 0.44989 0.58603
 C456 C 0.26600 0.44827 0.56303
 C457 C 0.27298 0.38749 0.63635
 C458 C 0.25439 0.36467 0.63693
 C459 C 0.23307 0.36209 0.61298
 C460 C 0.23012 0.38284 0.58935
 C461 C 0.21531 0.33857 0.61284
 C462 C 0.21882 0.31773 0.63600
 C463 C 0.23961 0.32047 0.66017
 C464 C 0.25713 0.34410 0.66076
 H465 H 0.22963 0.42483 0.54677
 H466 H 0.30676 0.43184 0.62823
 H467 H 0.30301 0.46684 0.58530
 H468 H 0.28959 0.38923 0.65440
 H469 H 0.21363 0.38100 0.57117
 H470 H 0.19897 0.33614 0.59457
 H471 H 0.20528 0.29948 0.63524
 H472 H 0.27329 0.34606 0.67935
 C473 C 0.94103 0.30046 0.07904
 C474 C 0.91865 0.30248 0.10069
 C475 C 0.90294 0.32609 0.10028
 C476 C 0.91141 0.34821 0.07979
 C477 C 0.93427 0.34626 0.05858
 C478 C 0.94853 0.32184 0.05691
 C479 C 0.87872 0.32674 0.11958
 C480 C 0.87029 0.30405 0.13927
 C481 C 0.88725 0.28126 0.14108
 C482 C 0.91125 0.28065 0.12184
 C483 C 0.87947 0.25889 0.16123
 C484 C 0.85437 0.25832 0.17813
 C485 C 0.83645 0.27992 0.17490
 C486 C 0.84482 0.30320 0.15626
 H487 H 0.95223 0.28175 0.07897
 H488 H 0.89992 0.36670 0.07948
 H489 H 0.93967 0.36324 0.04218
 H490 H 0.86607 0.34446 0.11854
 H491 H 0.92369 0.26276 0.12250
 H492 H 0.89243 0.24147 0.16317
 H493 H 0.84834 0.24044 0.19281
 H494 H 0.83108 0.31999 0.15400
 C495 C 0.43242 0.80348 0.58997
 C496 C 0.40843 0.80414 0.60946
 C497 C 0.38552 0.81844 0.59803
 C498 C 0.38763 0.83309 0.56808
 C499 C 0.41190 0.83285 0.54921
 C500 C 0.43412 0.81756 0.55970
 C501 C 0.36074 0.81730 0.61628
 C502 C 0.35873 0.80223 0.64595
 C503 C 0.38220 0.78917 0.65814
 C504 C 0.40683 0.79017 0.63981
 C505 C 0.38040 0.77454 0.68804
 C506 C 0.35528 0.77176 0.70496
 C507 C 0.33163 0.78354 0.69230
 C508 C 0.33347 0.79923 0.66313
 H509 H 0.44970 0.79181 0.59811
 H510 H 0.37038 0.84430 0.55898
 H511 H 0.41291 0.84366 0.52572
 H512 H 0.34291 0.82761 0.60707
 H513 H 0.42457 0.77958 0.64878
 H514 H 0.39822 0.76460 0.69784
 H515 H 0.35397 0.75954 0.72739
 H516 H 0.31508 0.80819 0.65334
 C517 C 0.06280 0.71422 0.08202
 C518 C 0.08249 0.72238 0.10620
 C519 C 0.08305 0.74943 0.11861
 C520 C 0.06409 0.76783 0.10679
 C521 C 0.04492 0.75977 0.08253
 C522 C 0.04396 0.73293 0.06966
 C523 C 0.10278 0.75788 0.14234
 C524 C 0.12243 0.73984 0.15344
 C525 C 0.12205 0.71276 0.14114
 C526 C 0.10190 0.70411 0.11782
 C527 C 0.14215 0.69499 0.15204
 C528 C 0.16273 0.70416 0.17432
 C529 C 0.16334 0.73112 0.18633
 C530 C 0.14283 0.74870 0.17619
 H531 H 0.06254 0.69349 0.07249
 H532 H 0.06424 0.78862 0.11608
 H533 H 0.03077 0.77476 0.07390
 H534 H 0.10314 0.77867 0.15174
 H535 H 0.10162 0.68336 0.10833
 H536 H 0.14220 0.67416 0.14294
 H537 H 0.17840 0.69035 0.18193
 H538 H 0.14320 0.76949 0.18555
 C539 C 0.55358 0.20148 0.58882
 C540 C 0.57576 0.19933 0.61071
 C541 C 0.59879 0.18431 0.60135
 C542 C 0.59833 0.17030 0.57092
 C543 C 0.57600 0.17257 0.54916
 C544 C 0.55401 0.18895 0.55758
 C545 C 0.62221 0.18453 0.62190
 C546 C 0.62285 0.19980 0.65142
 C547 C 0.59914 0.21359 0.66144
 C548 C 0.57572 0.21312 0.64111
 C549 C 0.59957 0.22853 0.69108
 C550 C 0.62367 0.23085 0.70997
 C551 C 0.64765 0.21836 0.69944
 C552 C 0.64708 0.20238 0.67054
 H553 H 0.53644 0.21391 0.59549
 H554 H 0.61566 0.15847 0.56344
 H555 H 0.57662 0.16280 0.52509
 H556 H 0.64022 0.17367 0.61438
 H557 H 0.55787 0.22436 0.64836
 H558 H 0.58151 0.23901 0.69919
 H559 H 0.62396 0.24314 0.73232
 H560 H 0.66567 0.19270 0.66257
 C561 C 0.71279 0.05214 0.93215
 C562 C 0.71694 0.07315 0.90848
 C563 C 0.74397 0.07984 0.89667
 C564 C 0.76637 0.06594 0.90900
 C565 C 0.76230 0.04605 0.93347
 C566 C 0.73555 0.03885 0.94549
 C567 C 0.74840 0.10086 0.87341
 C568 C 0.72639 0.11629 0.86290
 C569 C 0.69941 0.11021 0.87517
 C570 C 0.69472 0.08823 0.89730
 C571 C 0.67778 0.12675 0.86576
 C572 C 0.68304 0.14948 0.84518
 C573 C 0.70983 0.15557 0.83295
 C574 C 0.73123 0.13840 0.84124
 H575 H 0.69205 0.04708 0.94118
 H576 H 0.78721 0.07090 0.90027
 H577 H 0.78030 0.03612 0.94276
 H578 H 0.76917 0.10586 0.86438
 H579 H 0.67401 0.08349 0.90664
 H580 H 0.65698 0.12256 0.87503
 H581 H 0.66630 0.16256 0.83913
 H582 H 0.75191 0.14293 0.83169
 C583 C 0.23630 0.58343 0.42849
 C584 C 0.23626 0.60425 0.40442
 C585 C 0.25794 0.60654 0.38083
 C586 C 0.27944 0.58835 0.38196
 C587 C 0.27974 0.56829 0.40652
 C588 C 0.25824 0.56562 0.42989
 C589 C 0.25819 0.62733 0.35692
 C590 C 0.23769 0.64661 0.35706
 C591 C 0.21623 0.64473 0.38093
 C592 C 0.21533 0.62321 0.40407
 C593 C 0.19652 0.66491 0.38182
 C594 C 0.19862 0.68716 0.35997
 C595 C 0.21990 0.68904 0.33628
 C596 C 0.23899 0.66839 0.33445
 H597 H 0.21977 0.58157 0.44666
 H598 H 0.29623 0.58987 0.36413
 H599 H 0.29670 0.55459 0.40705
 H600 H 0.27482 0.62900 0.33884
 H601 H 0.19886 0.62171 0.42235
 H602 H 0.18001 0.66391 0.40002
 H603 H 0.18391 0.70312 0.36178
 H604 H 0.25559 0.67008 0.31635
 C605 C 0.28777 0.93873 0.91949
 C606 C 0.28668 0.91597 0.89840
 C607 C 0.31085 0.90153 0.89255
 C608 C 0.33586 0.91056 0.90737
 C609 C 0.33679 0.93337 0.92829
 C610 C 0.31272 0.94748 0.93482
 C611 C 0.30954 0.87818 0.87231
 C612 C 0.28436 0.86919 0.85783
 C613 C 0.26036 0.88408 0.86311
 C614 C 0.26167 0.90732 0.88339
 C615 C 0.23533 0.87537 0.84818
 C616 C 0.23399 0.85196 0.82842
 C617 C 0.25753 0.83673 0.82353
 C618 C 0.28272 0.84545 0.83825
 H619 H 0.26906 0.94946 0.92424
 H620 H 0.35461 0.89980 0.90307
 H621 H 0.35625 0.93962 0.93988
 H622 H 0.32801 0.86694 0.86803
 H623 H 0.24319 0.91856 0.88769
 H624 H 0.21680 0.88663 0.85182
 H625 H 0.21449 0.84559 0.81697
 H626 H 0.30092 0.83370 0.83446
 C627 C 0.78195 0.43105 0.41370
 C628 C 0.78062 0.40990 0.39015
 C629 C 0.79635 0.38654 0.39499
 C630 C 0.81411 0.38534 0.42238
 C631 C 0.81595 0.40687 0.44511
 C632 C 0.79954 0.42955 0.44126
 C633 C 0.79397 0.36472 0.37250
 C634 C 0.77664 0.36623 0.34476
 C635 C 0.76198 0.39014 0.33898
 C636 C 0.76379 0.41169 0.36194
 C637 C 0.74563 0.39198 0.31038
 C638 C 0.74343 0.37014 0.28804
 C639 C 0.75696 0.34593 0.29442
 C640 C 0.77364 0.34415 0.32273
 H641 H 0.76952 0.44876 0.41055
 H642 H 0.82647 0.36771 0.42631
 H643 H 0.82954 0.40544 0.46633
 H644 H 0.80560 0.34658 0.37659
 H645 H 0.75213 0.42981 0.35788
 H646 H 0.73449 0.41024 0.30536
 H647 H 0.73066 0.37182 0.26615
 H648 H 0.78421 0.32547 0.32754
 C649 C 0.07438 0.30660 0.90493
 C650 C 0.09398 0.29749 0.88210
 C651 C 0.09065 0.27085 0.86855
 C652 C 0.06773 0.25396 0.87754
 C653 C 0.04875 0.26292 0.90065
 C654 C 0.05203 0.28909 0.91490
 C655 C 0.11060 0.26116 0.84686
 C656 C 0.13417 0.27753 0.83889
 C657 C 0.13749 0.30430 0.85202
 C658 C 0.11726 0.31419 0.87337
 C659 C 0.16124 0.32052 0.84395
 C660 C 0.18169 0.31014 0.82358
 C661 C 0.17866 0.28344 0.81099
 C662 C 0.15473 0.26734 0.81840
 H663 H 0.07715 0.32674 0.91596
 H664 H 0.06482 0.23356 0.86731
 H665 H 0.03158 0.24913 0.90775
 H666 H 0.10807 0.24065 0.83676
 H667 H 0.11992 0.33461 0.88369
 H668 H 0.16414 0.34110 0.85367
 H669 H 0.20003 0.32281 0.81785
 H670 H 0.15237 0.24678 0.80844
 C671 C 0.55940 0.77492 0.41844
 C672 C 0.58044 0.77131 0.39511
 C673 C 0.59973 0.79315 0.38807
 C674 C 0.59725 0.81841 0.40397
 C675 C 0.57599 0.82196 0.42685
 C676 C 0.55707 0.80020 0.43451
 C677 C 0.62128 0.78934 0.36548
 C678 C 0.62371 0.76398 0.34979
 C679 C 0.60400 0.74233 0.35624
 C680 C 0.58250 0.74614 0.37887
 C681 C 0.60636 0.71708 0.34030
 C682 C 0.62847 0.71305 0.31883
 C683 C 0.64853 0.73417 0.31309
 C684 C 0.64584 0.75973 0.32818
 H685 H 0.54472 0.75810 0.42392
 H686 H 0.61180 0.83540 0.39879
 H687 H 0.57460 0.84161 0.43894
 H688 H 0.63628 0.80599 0.36036
 H689 H 0.56756 0.72946 0.38409
 H690 H 0.59135 0.70035 0.34478
 H691 H 0.63032 0.69328 0.30719
 H692 H 0.66137 0.77602 0.32366
 C693 C 0.92928 0.71254 0.90710
 C694 C 0.90584 0.70875 0.88689
 C695 C 0.88613 0.68723 0.89388
 C696 C 0.89125 0.66876 0.91960
 C697 C 0.91498 0.67239 0.93922
 C698 C 0.93364 0.69476 0.93371
 C699 C 0.86134 0.68509 0.87575
 C700 C 0.85622 0.70400 0.85049
 C701 C 0.87681 0.72439 0.84219
 C702 C 0.90139 0.72671 0.86053
 C703 C 0.87211 0.74276 0.81633
 C704 C 0.84680 0.74176 0.79977
 C705 C 0.82568 0.72263 0.80899
 C706 C 0.83058 0.70346 0.83404
 H707 H 0.94380 0.72973 0.90271
 H708 H 0.87656 0.65197 0.92512
 H709 H 0.91801 0.65860 0.95982
 H710 H 0.84580 0.66916 0.88182
 H711 H 0.91673 0.74292 0.85482
 H712 H 0.88773 0.75835 0.80948
 H713 H 0.84318 0.75673 0.78060
 H714 H 0.81417 0.68884 0.84138
 C715 C 0.43559 0.22258 0.40018
 C716 C 0.41140 0.22825 0.38267
 C717 C 0.38955 0.24087 0.39926
 C718 C 0.39277 0.24892 0.43240
 C719 C 0.41722 0.24412 0.44920
 C720 C 0.43851 0.23051 0.43348
 C721 C 0.36484 0.24534 0.38252
 C722 C 0.36205 0.23849 0.34895
 C723 C 0.38435 0.22727 0.33177
 C724 C 0.40870 0.22166 0.34891
 C725 C 0.38194 0.22209 0.29766
 C726 C 0.35777 0.22821 0.28076
 C727 C 0.33524 0.23869 0.29786
 C728 C 0.33740 0.24323 0.33216
 H729 H 0.45214 0.21225 0.38799
 H730 H 0.37636 0.25886 0.44535
 H731 H 0.41914 0.25018 0.47498
 H732 H 0.34794 0.25452 0.39549
 H733 H 0.42563 0.21255 0.33592
 H734 H 0.39887 0.21371 0.28398
 H735 H 0.35657 0.22467 0.25427
 H736 H 0.32001 0.25095 0.34565
 C737 C 0.71858 0.90686 0.94213
 C738 C 0.72216 0.88856 0.91579
 C739 C 0.74438 0.89326 0.89332
 C740 C 0.76323 0.91550 0.89835
 C741 C 0.76005 0.93305 0.92527
 C742 C 0.73756 0.92909 0.94706
 C743 C 0.74755 0.87552 0.86640
 C744 C 0.72955 0.85244 0.86248
 C745 C 0.70811 0.84703 0.88579
 C746 C 0.70413 0.86548 0.91183
 C747 C 0.69142 0.82290 0.88311
 C748 C 0.69635 0.80401 0.85805
 C749 C 0.71722 0.80947 0.83440
 C750 C 0.73329 0.83410 0.83627
 H751 H 0.70128 0.90366 0.95903
 H752 H 0.78047 0.91931 0.88152
 H753 H 0.77473 0.95024 0.92853
 H754 H 0.76441 0.87931 0.84898
 H755 H 0.68744 0.86154 0.92943
 H756 H 0.67512 0.81826 0.90098
 H757 H 0.68402 0.78497 0.85719
 H758 H 0.74961 0.83821 0.81824
 C759 C 0.24420 0.43300 0.41916
 C760 C 0.24519 0.41519 0.39195
 C761 C 0.26412 0.42105 0.36581
 C762 C 0.28224 0.44421 0.36779
 C763 C 0.28178 0.46126 0.39553
 C764 C 0.26270 0.45588 0.42125
 C765 C 0.26505 0.40339 0.33849
 C766 C 0.24828 0.37924 0.33774
 C767 C 0.23005 0.37290 0.36444
 C768 C 0.22811 0.39126 0.39094
 C769 C 0.21472 0.34788 0.36471
 C770 C 0.21812 0.32892 0.33936
 C771 C 0.23599 0.33511 0.31266
 C772 C 0.25032 0.36070 0.31141
 H773 H 0.22961 0.42868 0.43914
 H774 H 0.29698 0.44893 0.34811
 H775 H 0.29605 0.47897 0.39666
 H776 H 0.27947 0.40796 0.31838
 H777 H 0.21398 0.38648 0.41126
 H778 H 0.20086 0.34257 0.38509
 H779 H 0.20707 0.30917 0.34073
 H780 H 0.26416 0.36546 0.29080
 C781 C 0.28748 0.07199 0.91865
 C782 C 0.28692 0.09390 0.89623
 C783 C 0.31186 0.10811 0.88704
 C784 C 0.33703 0.09959 0.89974
 C785 C 0.33748 0.07755 0.92185
 C786 C 0.31269 0.06374 0.93206
 C787 C 0.31117 0.13068 0.86553
 C788 C 0.28586 0.13898 0.85283
 C789 C 0.26102 0.12422 0.86137
 C790 C 0.26170 0.10190 0.88313
 C791 C 0.23583 0.13206 0.84805
 C792 C 0.23518 0.15440 0.82658
 C793 C 0.25959 0.16960 0.81848
 C794 C 0.28493 0.16179 0.83173
 H795 H 0.26812 0.06155 0.92580
 H796 H 0.35637 0.11013 0.89280
 H797 H 0.35727 0.07178 0.93151
 H798 H 0.33028 0.14179 0.85874
 H799 H 0.24259 0.09082 0.88995
 H800 H 0.21665 0.12088 0.85420
 H801 H 0.21553 0.16003 0.81637
 H802 H 0.30382 0.17348 0.82551
 C803 C 0.77902 0.54711 0.42165
 C804 C 0.77845 0.56857 0.39860
 C805 C 0.80115 0.58778 0.39635
 C806 C 0.82445 0.58454 0.41641
 C807 C 0.82500 0.56285 0.43900
 C808 C 0.80213 0.54425 0.44222
 C809 C 0.79998 0.61008 0.37449
 C810 C 0.77645 0.61330 0.35477
 C811 C 0.75421 0.59347 0.35621
 C812 C 0.75535 0.57129 0.37812
 C813 C 0.73088 0.59645 0.33620
 C814 C 0.72914 0.61931 0.31573
 C815 C 0.75061 0.63962 0.31500
 C816 C 0.77446 0.63633 0.33416
 H817 H 0.76141 0.53266 0.42368
 H818 H 0.84210 0.59895 0.41489
 H819 H 0.84305 0.56102 0.45457
 H820 H 0.81717 0.62509 0.37317
 H821 H 0.73808 0.55637 0.37958
 H822 H 0.71376 0.58136 0.33684
 H823 H 0.71066 0.62158 0.30100
 H824 H 0.79100 0.65207 0.33367
 C825 C 0.06337 0.71165 0.92074
 C826 C 0.08354 0.71884 0.89674
 C827 C 0.08541 0.74581 0.88401
 C828 C 0.06716 0.76510 0.89538
 C829 C 0.04743 0.75796 0.91950
 C830 C 0.04525 0.73121 0.93265
 C831 C 0.10579 0.75327 0.86054
 C832 C 0.12477 0.73429 0.85011
 C833 C 0.12298 0.70726 0.86270
 C834 C 0.10219 0.69962 0.88569
 C835 C 0.14245 0.68854 0.85264
 C836 C 0.16402 0.69680 0.83120
 C837 C 0.16618 0.72375 0.81913
 C838 C 0.14607 0.74219 0.82803
 H839 H 0.06216 0.69095 0.93045
 H840 H 0.06835 0.78587 0.88590
 H841 H 0.03387 0.77357 0.92785
 H842 H 0.10726 0.77403 0.85097
 H843 H 0.10089 0.67894 0.89550
 H844 H 0.14139 0.66773 0.86198
 H845 H 0.17938 0.68235 0.82453
 H846 H 0.14768 0.76298 0.81860
 C847 C 0.56390 0.21982 0.40064
 C848 C 0.58795 0.22597 0.38193
 C849 C 0.60999 0.24192 0.39622
 C850 C 0.60719 0.25241 0.42831
 C851 C 0.58290 0.24692 0.44630
 C852 C 0.56130 0.23029 0.43287
 C853 C 0.63445 0.24725 0.37821
 C854 C 0.63679 0.23781 0.34556
 C855 C 0.61434 0.22293 0.33066
 C856 C 0.59025 0.21663 0.34915
 C857 C 0.61631 0.21487 0.29739
 C858 C 0.64014 0.22178 0.27897
 C859 C 0.66275 0.23613 0.29375
 C860 C 0.66108 0.24355 0.32735
 H861 H 0.54716 0.20714 0.39010
 H862 H 0.62378 0.26483 0.43953
 H863 H 0.58133 0.25500 0.47121
 H864 H 0.65148 0.25913 0.38941
 H865 H 0.57319 0.20483 0.33792
 H866 H 0.59924 0.20366 0.28544
 H867 H 0.64096 0.21597 0.25308
 H868 H 0.67853 0.25437 0.33906
 C869 C 0.92742 0.28074 0.91284
 C870 C 0.90337 0.27954 0.89336
 C871 C 0.88899 0.30362 0.88753
 C872 C 0.89945 0.32863 0.90035
 C873 C 0.92362 0.32971 0.91929
 C874 C 0.93757 0.30576 0.92612
 C875 C 0.86432 0.30230 0.86923
 C876 C 0.85404 0.27726 0.85626
 C877 C 0.86894 0.25335 0.86117
 C878 C 0.89339 0.25462 0.87985
 C879 C 0.85900 0.22848 0.84751
 C880 C 0.83434 0.22719 0.82957
 C881 C 0.81897 0.25062 0.82534
 C882 C 0.82899 0.27567 0.83866
 H883 H 0.93822 0.26222 0.91771
 H884 H 0.88881 0.34731 0.89598
 H885 H 0.93104 0.34922 0.92932
 H886 H 0.85308 0.32070 0.86521
 H887 H 0.90456 0.23619 0.88400
 H888 H 0.87022 0.21001 0.85085
 H889 H 0.82693 0.20773 0.81935
 H890 H 0.81712 0.29376 0.83556
 C891 C 0.41997 0.81859 0.42518
 C892 C 0.39929 0.81336 0.40120
 C893 C 0.40303 0.79310 0.37675
 C894 C 0.42718 0.77834 0.37678
 C895 C 0.44705 0.78292 0.40145
 C896 C 0.44357 0.80293 0.42578
 C897 C 0.38221 0.78718 0.35336
 C898 C 0.35717 0.80042 0.35484
 C899 C 0.35316 0.82045 0.37945
 C900 C 0.37447 0.82718 0.40209
 C901 C 0.32756 0.83275 0.38162
 C902 C 0.30592 0.82469 0.36023
 C903 C 0.30983 0.80478 0.33586
 C904 C 0.33564 0.79311 0.33288
 H905 H 0.41707 0.83372 0.44436
 H906 H 0.43031 0.76267 0.35835
 H907 H 0.46513 0.77065 0.40173
 H908 H 0.38509 0.77156 0.33475
 H909 H 0.37138 0.84244 0.42107
 H910 H 0.32403 0.84802 0.40041
 H911 H 0.28601 0.83369 0.36293
 H912 H 0.33849 0.77752 0.31423
 C913 C 0.28477 0.94347 0.08529
 C914 C 0.28285 0.92223 0.10860
 C915 C 0.30679 0.90848 0.11759
 C916 C 0.33239 0.91670 0.10349
 C917 C 0.33413 0.93798 0.08022
 C918 C 0.31030 0.95133 0.07063
 C919 C 0.30463 0.88655 0.14013
 C920 C 0.27879 0.87822 0.15360
 C921 C 0.25499 0.89242 0.14498
 C922 C 0.25719 0.91433 0.12262
 C923 C 0.22923 0.88428 0.15856
 C924 C 0.22690 0.86195 0.18005
 C925 C 0.25024 0.84735 0.18822
 C926 C 0.27623 0.85570 0.17522
 H927 H 0.26622 0.95368 0.07828
 H928 H 0.35099 0.90648 0.11016
 H929 H 0.35403 0.94362 0.06926
 H930 H 0.32292 0.87580 0.14683
 H931 H 0.23887 0.92500 0.11578
 H932 H 0.21084 0.89502 0.15230
 H933 H 0.20679 0.85579 0.19012
 H934 H 0.29425 0.84442 0.18161
 C935 C 0.78024 0.42245 0.60025
 C936 C 0.77866 0.39865 0.61992
 C937 C 0.79631 0.37707 0.61305
 C938 C 0.81622 0.38028 0.58787
 C939 C 0.81821 0.40433 0.56912
 C940 C 0.79990 0.42531 0.57466
 C941 C 0.79360 0.35257 0.63121
 C942 C 0.77401 0.34963 0.65682
 C943 C 0.75749 0.37179 0.66494
 C944 C 0.75963 0.39600 0.64615
 C945 C 0.73887 0.36927 0.69157
 C946 C 0.73623 0.34487 0.70956
 C947 C 0.75160 0.32232 0.70075
 C948 C 0.77054 0.32483 0.67435
 H949 H 0.76623 0.43871 0.60478
 H950 H 0.83009 0.36409 0.58247
 H951 H 0.83339 0.40614 0.54937
 H952 H 0.80668 0.33580 0.62538
 H953 H 0.74646 0.41271 0.65189
 H954 H 0.72624 0.38612 0.69836
 H955 H 0.72155 0.34323 0.72986
 H956 H 0.78233 0.30741 0.66738
 C957 C 0.73703 0.05775 0.09614
 C958 C 0.73345 0.08151 0.11493
 C959 C 0.70740 0.09349 0.11545
 C960 C 0.68516 0.08097 0.09811
 C961 C 0.68887 0.05732 0.07954
 C962 C 0.71491 0.04575 0.07784
 C963 C 0.70415 0.11807 0.13268
 C964 C 0.72667 0.13090 0.14930
 C965 C 0.75249 0.11843 0.14964
 C966 C 0.75569 0.09381 0.13255
 C967 C 0.77492 0.13112 0.16647
 C968 C 0.77210 0.15637 0.18186
 C969 C 0.74687 0.16943 0.18063
 C970 C 0.72401 0.15635 0.16489
 H971 H 0.75718 0.04894 0.09527
 H972 H 0.66500 0.08975 0.09838
 H973 H 0.67144 0.04850 0.06576
 H974 H 0.68428 0.12748 0.13257
 H975 H 0.77563 0.08453 0.13240
 H976 H 0.79480 0.12179 0.16716
 H977 H 0.78985 0.16615 0.19413
 H978 H 0.70452 0.16640 0.16394
 C979 C 0.23978 0.57903 0.57258
 C980 C 0.24034 0.59797 0.59877
 C981 C 0.26036 0.59610 0.62416
 C982 C 0.27977 0.57574 0.62259
 C983 C 0.27968 0.55766 0.59584
 C984 C 0.25970 0.55909 0.57078
 C985 C 0.26118 0.61503 0.65023
 C986 C 0.24313 0.63662 0.65047
 C987 C 0.22350 0.63892 0.62474
 C988 C 0.22181 0.61922 0.59945
 C989 C 0.20655 0.66144 0.62416
 C990 C 0.20973 0.68196 0.64816
 C991 C 0.22917 0.67975 0.67371
 C992 C 0.24526 0.65665 0.67528
 H993 H 0.22452 0.58036 0.55303
 H994 H 0.29531 0.57410 0.64173
 H995 H 0.29509 0.54229 0.59487
 H996 H 0.27650 0.61352 0.66971
 H997 H 0.20674 0.62095 0.57974
 H998 H 0.19150 0.66363 0.60456
 H999 H 0.19733 0.69979 0.64656
 H1000 H 0.26045 0.65514 0.69489
 C1001 C 0.92670 0.71225 0.09260
 C1002 C 0.90332 0.70721 0.11273
 C1003 C 0.88488 0.68464 0.10580
 C1004 C 0.89113 0.66652 0.08018
 C1005 C 0.91485 0.67133 0.06080
 C1006 C 0.93232 0.69457 0.06632
 C1007 C 0.86025 0.68092 0.12405
 C1008 C 0.85411 0.69921 0.14952
 C1009 C 0.87345 0.72072 0.15779
 C1010 C 0.89780 0.72471 0.13918
 C1011 C 0.86779 0.73836 0.18405
 C1012 C 0.84271 0.73546 0.20108
 C1013 C 0.82272 0.71520 0.19182
 C1014 C 0.82865 0.69682 0.16635
 H1015 H 0.94035 0.73010 0.09703
 H1016 H 0.87743 0.64896 0.07473
 H1017 H 0.91888 0.65758 0.04048
 H1018 H 0.84571 0.66412 0.11805
 H1019 H 0.91221 0.74171 0.14489
 H1020 H 0.88249 0.75477 0.19093
 H1021 H 0.83832 0.74979 0.22064
 H1022 H 0.81317 0.68124 0.15909
 C1023 C 0.43703 0.20311 0.58470
 C1024 C 0.41300 0.20087 0.60409
 C1025 C 0.38970 0.18514 0.59258
 C1026 C 0.39157 0.17051 0.56277
 C1027 C 0.41573 0.17278 0.54362
 C1028 C 0.43822 0.18984 0.55393
 C1029 C 0.36472 0.18518 0.61038
 C1030 C 0.36280 0.20091 0.63936
 C1031 C 0.38663 0.21545 0.65165
 C1032 C 0.41157 0.21520 0.63404
 C1033 C 0.38488 0.23097 0.68070
 C1034 C 0.35950 0.23320 0.69660
 C1035 C 0.33555 0.21993 0.68378
 C1036 C 0.33728 0.20330 0.65557
 H1037 H 0.45449 0.21607 0.59293
 H1038 H 0.37404 0.15813 0.55369
 H1039 H 0.41628 0.16241 0.51992
 H1040 H 0.34658 0.17379 0.60109
 H1041 H 0.42958 0.22701 0.64301
 H1042 H 0.40296 0.24210 0.69051
 H1043 H 0.35827 0.24619 0.71826
 H1044 H 0.31865 0.19322 0.64565
 C1045 C 0.06660 0.29358 0.07393
 C1046 C 0.08889 0.29486 0.09617
 C1047 C 0.10864 0.31706 0.09460
 C1048 C 0.10526 0.33802 0.07137
 C1049 C 0.08282 0.33673 0.04951
 C1050 C 0.06353 0.31435 0.05030
 C1051 C 0.13163 0.31772 0.11585
 C1052 C 0.13518 0.29633 0.13848
 C1053 C 0.11494 0.27454 0.14063
 C1054 C 0.09190 0.27402 0.11960
 C1055 C 0.11848 0.25314 0.16315
 C1056 C 0.14242 0.25267 0.18232
 C1057 C 0.16304 0.27365 0.17947
 C1058 C 0.15910 0.29582 0.15817
 H1059 H 0.05165 0.27638 0.07500
 H1060 H 0.12009 0.35527 0.06989
 H1061 H 0.08086 0.35301 0.03154
 H1062 H 0.14702 0.33452 0.11427
 H1063 H 0.07663 0.25709 0.12094
 H1064 H 0.10313 0.23637 0.16521
 H1065 H 0.14536 0.23544 0.19864
 H1066 H 0.17518 0.31191 0.15589
 C1067 C 0.55551 0.78825 0.59134
 C1068 C 0.57765 0.78700 0.61362
 C1069 C 0.59690 0.80949 0.61654
 C1070 C 0.59297 0.83327 0.59789
 C1071 C 0.57085 0.83432 0.57558
 C1072 C 0.55230 0.81159 0.57154
 C1073 C 0.62005 0.80753 0.63737
 C1074 C 0.62422 0.78325 0.65504
 C1075 C 0.60441 0.76111 0.65272
 C1076 C 0.58123 0.76319 0.63222
 C1077 C 0.60841 0.73689 0.67033
 C1078 C 0.63220 0.73424 0.68933
 C1079 C 0.65243 0.75569 0.69105
 C1080 C 0.64816 0.78040 0.67434
 H1081 H 0.54117 0.77068 0.58878
 H1082 H 0.60737 0.85082 0.59995
 H1083 H 0.56881 0.85255 0.56068
 H1084 H 0.63509 0.82460 0.63919
 H1085 H 0.56633 0.74601 0.63009
 H1086 H 0.59338 0.71980 0.66891
 H1087 H 0.63520 0.71516 0.70220
 H1088 H 0.66378 0.79697 0.67570
   
