data_POSCAR
  _audit_creation_date              2014-09-24
  _audit_creation_method            'ToBaCCo'
  _symmetry_space_group_name_H-M    'P1'
  _symmetry_Int_Tables_number       1
  _symmetry_cell_setting            triclinic
  loop_
  _symmetry_equiv_pos_as_xyz
 x,y,z
_cell_length_a 36.6975
_cell_length_b 38.2435
_cell_length_c 39.5607
_cell_angle_alpha 87.724400
_cell_angle_beta 88.776900
_cell_angle_gamma 89.415100
loop_
  _atom_site_label
  _atom_site_type_symbol
  _atom_site_fract_x
  _atom_site_fract_y
  _atom_site_fract_z
C1 C 0.14233 0.15699 0.20089
 C2 C 0.13848 0.18389 0.17620
 C3 C 0.16148 0.18506 0.14814
 C4 C 0.18856 0.15943 0.14434
 C5 C 0.19243 0.13285 0.16871
 C6 C 0.16904 0.13156 0.19731
 C7 C 0.12563 0.15113 0.23185
 N8 N 0.14131 0.12266 0.24752
 C9 C 0.16800 0.11048 0.22640
 C10 C 0.22284 0.11371 0.15968
 N11 N 0.23758 0.12812 0.13048
 C12 C 0.21647 0.15615 0.12100
 C13 C 0.15422 0.21569 0.13025
 N14 N 0.12736 0.23325 0.14677
 C15 C 0.11744 0.21390 0.17495
 H16 H 0.10406 0.16709 0.24252
 H17 H 0.18622 0.08867 0.23180
 H18 H 0.23405 0.09156 0.17400
 H19 H 0.22126 0.17388 0.09946
 H20 H 0.16859 0.22526 0.10760
 H21 H 0.09803 0.22183 0.19419
 C22 C -0.12560 0.82996 0.20134
 C23 C -0.12404 0.80463 0.17671
 C24 C -0.15109 0.80320 0.15298
 C25 C -0.18020 0.82746 0.15359
 C26 C -0.18146 0.85245 0.17791
 C27 C -0.15408 0.85368 0.20195
 C28 C -0.10420 0.83598 0.22858
 N29 N -0.11912 0.86285 0.24602
 C30 C -0.14965 0.87384 0.22959
 C31 C -0.21292 0.87157 0.17363
 N32 N -0.23132 0.85906 0.14716
 C33 C -0.21132 0.83196 0.13480
 C34 C -0.14309 0.77482 0.13353
 N35 N -0.11193 0.75916 0.14491
 C36 C -0.10026 0.77737 0.17139
 H37 H -0.08017 0.82092 0.23529
 H38 H -0.16796 0.89444 0.23763
 H39 H -0.22150 0.89271 0.18937
 H40 H -0.21899 0.81630 0.11391
 H41 H -0.15917 0.76584 0.11301
 H42 H -0.07677 0.77103 0.18656
 C43 C -0.14257 0.18250 -0.20040
 C44 C -0.13943 0.20626 -0.17477
 C45 C -0.16449 0.20653 -0.14837
 C46 C -0.19332 0.18245 -0.14733
 C47 C -0.19649 0.15874 -0.17278
 C48 C -0.17072 0.15885 -0.19985
 C49 C -0.12177 0.17773 -0.22894
 N50 N -0.13619 0.15155 -0.24660
 C51 C -0.16634 0.13982 -0.22886
 C52 C -0.22703 0.13895 -0.16489
 N53 N -0.24253 0.14992 -0.13542
 C54 C -0.22184 0.17664 -0.12471
 C55 C -0.15451 0.23321 -0.12787
 N56 N -0.12397 0.24877 -0.14140
 C57 C -0.11481 0.23228 -0.17019
 H58 H -0.09807 0.19307 -0.23598
 H59 H -0.18394 0.11911 -0.23648
 H60 H -0.23720 0.11805 -0.17967
 H61 H -0.22661 0.19112 -0.10211
 H62 H -0.16859 0.24088 -0.10497
 H63 H -0.09240 0.23899 -0.18732
 C64 C 0.12612 0.84680 -0.20016
 C65 C 0.12809 0.81759 -0.17768
 C66 C 0.15431 0.81592 -0.15297
 C67 C 0.17891 0.84363 -0.15039
 C68 C 0.17640 0.87248 -0.17233
 C69 C 0.15002 0.87403 -0.19726
 C70 C 0.10671 0.85372 -0.22911
 N71 N 0.11859 0.88439 -0.24398
 C72 C 0.14493 0.89704 -0.22420
 C73 C 0.20522 0.89381 -0.16668
 N74 N 0.22583 0.87874 -0.14179
 C75 C 0.20967 0.84801 -0.13157
 C76 C 0.15137 0.78357 -0.13664
 N77 N 0.12397 0.76570 -0.15063
 C78 C 0.10977 0.78637 -0.17594
 H79 H 0.08681 0.83664 -0.23952
 H80 H 0.16109 0.92012 -0.22958
 H81 H 0.21117 0.91770 -0.18113
 H82 H 0.22029 0.82942 -0.11281
 H83 H 0.16835 0.77355 -0.11633
 H84 H 0.08833 0.77921 -0.19257
 C85 C 0.16754 1.14736 0.78847
 C86 C 0.19595 1.14427 0.81182
 C87 C 0.19897 1.16849 0.83684
 C88 C 0.17351 1.19625 0.83888
 C89 C 0.14570 1.19879 0.81598
 C90 C 0.14272 1.17445 0.79080
 C91 C 0.15793 1.12859 0.76087
 N92 N 0.12790 1.14386 0.74650
 C93 C 0.11859 1.17197 0.76503
 C94 C 0.12525 1.22782 0.82292
 N95 N 0.13962 1.24378 0.84970
 C96 C 0.16935 1.22449 0.85963
 C97 C 0.22912 1.15889 0.85543
 N98 N 0.24447 1.12959 0.84248
 C99 C 0.22422 1.12060 0.81574
 H100 H 0.17210 1.10574 0.75174
 H101 H 0.09628 1.19003 0.76031
 H102 H 0.10193 1.23649 0.80856
 H103 H 0.18684 1.23058 0.88026
 H104 H 0.23917 1.17232 0.87689
 H105 H 0.22925 1.09846 0.80009
 C106 C 0.85633 0.86053 0.80736
 C107 C 0.83180 0.86647 0.83404
 C108 C 0.83069 0.84361 0.86186
 C109 C 0.85418 0.81455 0.86339
 C110 C 0.87846 0.80852 0.83699
 C111 C 0.87959 0.83185 0.80854
 C112 C 0.86000 0.87650 0.77596
 N113 N 0.88507 0.85859 0.75753
 C114 C 0.89735 0.83112 0.77740
 C115 C 0.89474 0.77646 0.84408
 N116 N 0.88083 0.76293 0.87401
 C117 C 0.85596 0.78636 0.88585
 C118 C 0.80074 0.85252 0.88118
 N119 N 0.78352 0.88014 0.86563
 C120 C 0.80255 0.88901 0.83681
 H121 H 0.84449 0.89910 0.76686
 H122 H 0.91646 0.81111 0.76967
 H123 H 0.91433 0.76342 0.82792
 H124 H 0.83912 0.78311 0.90847
 H125 H 0.79066 0.83825 0.90360
 H126 H 0.79409 0.90822 0.81768
 C127 C 0.14277 0.86125 1.19977
 C128 C 0.17163 0.86245 1.17594
 C129 C 0.17305 0.83884 1.15039
 C130 C 0.14582 0.81369 1.14828
 C131 C 0.11740 0.81250 1.17174
 C132 C 0.11583 0.83649 1.19766
 C133 C 0.13580 0.87913 1.22872
 N134 N 0.10526 0.86590 1.24441
 C135 C 0.09288 0.83975 1.22533
 C136 C 0.09696 0.78362 1.16537
 N137 N 0.11235 0.76721 1.13860
 C138 C 0.14224 0.78558 1.12803
 C139 C 0.20515 0.84421 1.13262
 N140 N 0.22342 0.87053 1.14665
 C141 C 0.20303 0.88187 1.17326
 H142 H 0.15244 0.89971 1.23811
 H143 H 0.06969 0.82327 1.23128
 H144 H 0.07369 0.77458 1.18035
 H145 H 0.16092 0.77823 1.10791
 H146 H 0.21500 0.82931 1.11152
 H147 H 0.21072 0.90186 1.19024
 C148 C 0.81125 1.15574 1.20328
 C149 C 0.78789 1.15546 1.17571
 C150 C 0.79226 1.17976 1.14944
 C151 C 0.81984 1.20444 1.15008
 C152 C 0.84309 1.20519 1.17709
 C153 C 0.83870 1.18032 1.20427
 C154 C 0.81281 1.13508 1.23229
 N155 N 0.84055 1.14606 1.25151
 C156 C 0.85651 1.17384 1.23442
 C157 C 0.86653 1.23291 1.17003
 N158 N 0.85778 1.24825 1.13949
 C159 C 0.82907 1.23089 1.12750
 C160 C 0.76612 1.17393 1.12614
 N161 N 0.74559 1.14646 1.13763
 C162 C 0.75884 1.13486 1.16795
 H163 H 0.79457 1.11368 1.23843
 H164 H 0.87943 1.18835 1.24319
 H165 H 0.88818 1.24132 1.18591
 H166 H 0.81489 1.23737 1.10438
 H167 H 0.76286 1.18850 1.10240
 H168 H 0.74802 1.11316 1.18332
 N169 N 0.53955 1.04124 0.96193
 N170 N 0.56780 1.06221 0.95691
 N171 N 0.46133 1.02037 0.94081
 N172 N 0.43331 1.02717 0.92102
 N173 N 0.46251 1.04309 0.96479
 N174 N 0.43535 1.06587 0.96202
 N175 N 0.53827 1.01861 0.93785
 N176 N 0.56551 1.02357 0.91589
 C177 C 0.58375 1.05086 0.92802
 C178 C 0.41733 1.05566 0.93461
 N179 N 0.46081 0.91887 0.96240
 N180 N 0.43168 0.89925 0.96044
 N181 N 0.53742 0.94329 0.93673
 N182 N 0.56783 0.94218 0.91823
 N183 N 0.53692 0.91740 0.95957
 N184 N 0.56651 0.89792 0.95705
 N185 N 0.46019 0.94478 0.93959
 N186 N 0.43034 0.94353 0.92160
 Mn187 Mn 0.49925 0.98174 0.93824
 C188 C 0.41302 0.91481 0.93480
 C189 C 0.58537 0.91340 0.93102
 N190 N 0.46362 1.03769 1.03775
 N191 N 0.43491 1.05814 1.04283
 N192 N 0.54031 1.01001 1.05787
 N193 N 0.56729 1.01276 1.07900
 N194 N 0.54052 1.03606 1.03522
 N195 N 0.56776 1.05738 1.04045
 N196 N 0.46411 1.01173 1.06048
 N197 N 0.43609 1.01384 1.08166
 Mn198 Mn 0.50161 1.04003 0.99993
 C199 C 0.41818 1.04292 1.07048
 C200 C 0.58425 1.04231 1.06777
 N201 N 0.53901 0.91253 1.03214
 N202 N 0.56796 0.89170 1.03390
 N203 N 0.46265 0.93687 1.05867
 N204 N 0.43330 0.93388 1.07842
 N205 N 0.46216 0.91401 1.03484
 N206 N 0.43254 0.89479 1.03772
 N207 N 0.53940 0.93527 1.05609
 N208 N 0.56851 0.93065 1.07475
 Mn209 Mn 0.49974 0.91531 0.99719
 Mn210 Mn 0.50161 0.97344 1.05861
 Cl211 Cl 0.50056 0.97772 0.99843
 C212 C 0.58597 0.90331 1.06078
 C213 C 0.41496 0.90732 1.06517
 N214 N -0.01851 0.45890 -0.05373
 N215 N -0.02365 0.43105 -0.07180
 N216 N -0.04380 0.53493 -0.03760
 N217 N -0.06335 0.56386 -0.04267
 N218 N -0.01851 0.53239 -0.06139
 N219 N -0.02028 0.55918 -0.08327
 N220 N -0.04409 0.46122 -0.03019
 N221 N -0.06725 0.43521 -0.03156
 C222 C -0.05420 0.41654 -0.05757
 C223 C -0.04848 0.57846 -0.07151
 N224 N -0.01975 0.54047 0.05819
 N225 N -0.02423 0.56874 0.07600
 N226 N -0.04429 0.46540 0.04226
 N227 N -0.06534 0.43800 0.04874
 N228 N -0.01926 0.46711 0.06534
 N229 N -0.02285 0.44143 0.08836
 N230 N -0.04479 0.53917 0.03509
 N231 N -0.06710 0.56639 0.03664
 Mn232 Mn -0.04473 0.50022 0.00238
 C233 C -0.05393 0.58459 0.06230
 C234 C -0.05174 0.42355 0.07775
 N235 N 0.05983 0.53283 -0.06211
 N236 N 0.06213 0.56056 -0.08312
 N237 N 0.08573 0.46043 -0.03198
 N238 N 0.10787 0.43296 -0.03374
 N239 N 0.06026 0.45903 -0.05471
 N240 N 0.06430 0.43079 -0.07246
 N241 N 0.08496 0.53398 -0.03905
 N242 N 0.10509 0.56213 -0.04385
 Mn243 Mn 0.02080 0.49568 -0.05841
 C244 C 0.09081 0.57834 -0.07155
 C245 C 0.09408 0.41477 -0.05925
 N246 N 0.05920 0.46642 0.06383
 N247 N 0.06167 0.43849 0.08447
 N248 N 0.08391 0.53931 0.03346
 N249 N 0.10344 0.56825 0.03343
 N250 N 0.05831 0.53992 0.05714
 N251 N 0.05955 0.56902 0.07367
 N252 N 0.08501 0.46583 0.04035
 N253 N 0.10578 0.43781 0.04443
 Mn254 Mn 0.01968 0.50343 0.06152
 Mn255 Mn 0.08538 0.49993 0.00070
 Cl256 Cl 0.02024 0.49979 0.00152
 C257 C 0.09118 0.42119 0.07217
 C258 C 0.08788 0.58633 0.05891
 N259 N 1.02353 -0.05327 0.46084
 N260 N 1.02683 -0.07061 0.43275
 N261 N 1.04685 -0.03820 0.53362
 N262 N 1.06488 -0.04342 0.56186
 N263 N 1.02061 -0.06108 0.53186
 N264 N 1.02028 -0.08265 0.55876
 N265 N 1.04963 -0.03025 0.46252
 N266 N 1.07149 -0.03136 0.43562
 C267 C 1.05696 -0.05679 0.41738
 C268 C 1.04829 -0.07145 0.57703
 N269 N 1.02582 0.06141 0.54093
 N270 N 1.03084 0.07933 0.56836
 N271 N 1.05266 0.04448 0.46793
 N272 N 1.07341 0.04855 0.44043
 N273 N 1.02859 0.07003 0.46973
 N274 N 1.03234 0.09213 0.44346
 N275 N 1.05019 0.03617 0.53885
 N276 N 1.07232 0.03615 0.56468
 Mn277 Mn 1.05026 0.00302 0.50066
 C278 C 1.05997 0.06315 0.58292
 C279 C 1.06062 0.07857 0.42563
 N280 N 0.94235 -0.05715 0.53071
 N281 N 0.93944 -0.07810 0.55793
 N282 N 0.92133 -0.02408 0.46032
 N283 N 0.90156 -0.02391 0.43270
 N284 N 0.94568 -0.04945 0.45983
 N285 N 0.94334 -0.06706 0.43207
 N286 N 0.91782 -0.03192 0.53165
 N287 N 0.89771 -0.03507 0.55964
 Mn288 Mn 0.98300 -0.05564 0.49583
 C289 C 0.91122 -0.06423 0.57553
 C290 C 0.91569 -0.05105 0.41545
 N291 N 0.95033 0.07405 0.46826
 N292 N 0.94979 0.09704 0.44242
 N293 N 0.92050 0.04282 0.53701
 N294 N 0.89785 0.04425 0.56338
 N295 N 0.94699 0.06536 0.53949
 N296 N 0.94306 0.08271 0.56753
 N297 N 0.92425 0.05106 0.46576
 N298 N 0.90531 0.05784 0.43823
 Mn299 Mn 0.98793 0.06819 0.50473
 Mn300 Mn 0.92044 0.00950 0.49859
 Cl301 Cl 0.98538 0.00633 0.49997
 C302 C 0.92137 0.08673 0.42404
 C303 C 0.91224 0.06938 0.58212
 C304 C 1.09455 0.11625 0.32861
 C305 C 1.11096 0.08645 0.34362
 N306 N 1.13739 0.06913 0.32633
 C307 C 1.14823 0.08025 0.29461
 C308 C 1.13171 0.11023 0.27927
 N309 N 1.10520 0.12727 0.29705
 N310 N 1.06806 0.13365 0.34571
 C311 C 1.05704 0.12243 0.37726
 C312 C 1.07321 0.09240 0.39235
 N313 N 1.09990 0.07511 0.37510
 H314 H 1.16928 0.06558 0.28181
 H315 H 1.03562 0.13663 0.39023
 C316 C 0.88341 -0.08535 0.32054
 C317 C 0.91421 -0.09940 0.33658
 N318 N 0.93395 -0.12496 0.32181
 C319 C 0.92415 -0.13757 0.29174
 C320 C 0.89270 -0.12418 0.27555
 N321 N 0.87335 -0.09806 0.29058
 N322 N 0.86380 -0.05959 0.33545
 C323 C 0.87355 -0.04745 0.36588
 C324 C 0.90413 -0.06199 0.38219
 N325 N 0.92372 -0.08755 0.36692
 H326 H 0.94083 -0.15795 0.28114
 H327 H 0.85744 -0.02703 0.37731
 C328 C 0.87126 0.10255 0.67665
 C329 C 0.90302 0.11679 0.66163
 N330 N 0.92122 0.14173 0.67745
 C331 C 0.90919 0.15345 0.70763
 C332 C 0.87696 0.13970 0.72315
 N333 N 0.85894 0.11425 0.70698
 N334 N 0.85327 0.07737 0.66051
 C335 C 0.86563 0.06597 0.63005
 C336 C 0.89742 0.08048 0.61497
 N337 N 0.91526 0.10553 0.63135
 H338 H 0.92511 0.17323 0.71893
 H339 H 0.85083 0.04586 0.61777
 C340 C 1.07397 -0.10841 0.67549
 C341 C 1.08982 -0.07798 0.66109
 N342 N 1.11369 -0.05983 0.67904
 C343 C 1.12303 -0.07095 0.71071
 C344 C 1.10807 -0.10217 0.72520
 N345 N 1.08351 -0.11982 0.70701
 N346 N 1.04973 -0.12632 0.65750
 C347 C 1.04078 -0.11516 0.62563
 C348 C 1.05714 -0.08494 0.61104
 N349 N 1.08118 -0.06705 0.62929
 H350 H 1.14216 -0.05547 0.72385
 H351 H 1.02129 -0.12979 0.61182
 C352 C 0.31931 1.07743 1.11484
 C353 C 0.33360 1.09442 1.08547
 N354 N 0.31529 1.12203 1.07127
 C355 C 0.28341 1.13366 1.08515
 C356 C 0.26898 1.11692 1.11498
 N357 N 0.28762 1.08903 1.12880
 N358 N 0.33743 1.04971 1.12907
 C359 C 0.36932 1.03819 1.11526
 C360 C 0.38389 1.05525 1.08592
 N361 N 0.36556 1.08303 1.07166
 H362 H 0.26996 1.15573 1.07283
 H363 H 0.38314 1.01595 1.12715
 C364 C 0.31013 0.88143 0.90369
 C365 C 0.32524 0.91278 0.89054
 N366 N 0.30653 0.93270 0.86766
 C367 C 0.27349 0.92262 0.85692
 C368 C 0.25823 0.89069 0.86947
 N369 N 0.27721 0.87113 0.89287
 N370 N 0.32879 0.86161 0.92682
 C371 C 0.36197 0.87174 0.93732
 C372 C 0.37732 0.90301 0.92391
 N373 N 0.35843 0.92282 0.90084
 H374 H 0.25980 0.93958 0.83874
 H375 H 0.37624 0.85546 0.95584
 C376 C 0.68764 0.86620 1.09640
 C377 C 0.66931 0.89418 1.11129
 N378 N 0.68434 0.91002 1.13753
 C379 C 0.71697 0.89921 1.14984
 C380 C 0.73583 0.87089 1.13525
 N381 N 0.72035 0.85520 1.10867
 N382 N 0.67238 0.85053 1.06995
 C383 C 0.63958 0.86165 1.05779
 C384 C 0.62120 0.88969 1.07284
 N385 N 0.63671 0.90520 1.09924
 H386 H 0.72756 0.91290 1.17075
 H387 H 0.62805 0.84882 1.03664
 C388 C 0.67894 1.09434 0.88103
 C389 C 0.66456 1.10772 0.91104
 N390 N 0.68139 1.13487 0.92504
 C391 C 0.71194 1.14933 0.91051
 C392 C 0.72673 1.13613 0.88016
 N393 N 0.70944 1.10877 0.86637
 N394 N 0.66219 1.06710 0.86703
 C395 C 0.63166 1.05267 0.88165
 C396 C 0.61700 1.06606 0.91173
 N397 N 0.63399 1.09339 0.92570
 H398 H 0.72411 1.17089 0.92277
 H399 H 0.61898 1.03097 0.86986
 C400 C 0.12525 0.32009 0.10425
 C401 C 0.09381 0.33517 0.11856
 N402 N 0.07371 0.31638 0.14193
 C403 C 0.08372 0.28318 0.15169
 C404 C 0.11528 0.26803 0.13730
 N405 N 0.13511 0.28709 0.11387
 N406 N 0.14536 0.33853 0.08077
 C407 C 0.13531 0.37145 0.07066
 C408 C 0.10365 0.38662 0.08462
 N409 N 0.08361 0.36811 0.10841
 H410 H 0.06698 0.26883 0.17014
 H411 H 0.15173 0.38545 0.05162
 C412 C -0.10502 0.32565 -0.09121
 C413 C -0.07139 0.33672 -0.10521
 N414 N -0.05521 0.31819 -0.12997
 C415 C -0.07124 0.28932 -0.14173
 C416 C -0.10545 0.27840 -0.12836
 N417 N -0.12128 0.29692 -0.10309
 N418 N -0.12107 0.34409 -0.06624
 C419 C -0.10512 0.37318 -0.05477
 C420 C -0.07163 0.38463 -0.06906
 N421 N -0.05554 0.36592 -0.09396
 H422 H -0.05716 0.27524 -0.16126
 H423 H -0.11864 0.38739 -0.03490
 C424 C 0.12363 0.67916 -0.10653
 C425 C 0.09278 0.66367 -0.11976
 N426 N 0.07277 0.68189 -0.14305
 C427 C 0.08217 0.71491 -0.15374
 C428 C 0.11314 0.73064 -0.14048
 N429 N 0.13299 0.71207 -0.11711
 N430 N 0.14352 0.66123 -0.08301
 C431 C 0.13386 0.62850 -0.07189
 C432 C 0.10283 0.61290 -0.08486
 N433 N 0.08302 0.63092 -0.10865
 H434 H 0.06532 0.72860 -0.17207
 H435 H 0.15011 0.61496 -0.05288
 C436 C -0.09870 0.67970 0.09604
 C437 C -0.06578 0.66634 0.10881
 N438 N -0.04816 0.68406 0.13244
 C439 C -0.06209 0.71440 0.14425
 C440 C -0.09555 0.72774 0.13206
 N441 N -0.11282 0.70991 0.10796
 N442 N -0.11616 0.66205 0.07217
 C443 C -0.10227 0.63152 0.06060
 C444 C -0.06952 0.61784 0.07370
 N445 N -0.05203 0.63576 0.09749
 H446 H -0.04700 0.72767 0.16295
 H447 H -0.11680 0.61797 0.04161
 C448 C 1.10858 0.09393 0.67306
 C449 C 1.07823 0.11205 0.66001
 N450 N 1.06466 0.14000 0.67625
 C451 C 1.08008 0.15094 0.70487
 C452 C 1.11100 0.13316 0.71815
 N453 N 1.12420 0.10485 0.70163
 N454 N 1.12215 0.06591 0.65678
 C455 C 1.10685 0.05531 0.62792
 C456 C 1.07659 0.07362 0.61456
 N457 N 1.06296 0.10159 0.63113
 H458 H 1.06805 0.17335 0.71666
 H459 H 1.11833 0.03291 0.61547
 C460 C 0.88359 -0.09600 0.67593
 C461 C 0.91050 -0.11405 0.65783
 N462 N 0.92855 -0.14123 0.67327
 C463 C 0.92091 -0.15122 0.70609
 C464 C 0.89397 -0.13293 0.72454
 N465 N 0.87617 -0.10574 0.70856
 N466 N 0.86542 -0.06881 0.66076
 C467 C 0.87315 -0.05860 0.62815
 C468 C 0.90043 -0.07630 0.60994
 N469 N 0.91846 -0.10375 0.62527
 H470 H 0.93602 -0.17288 0.71739
 H471 H 0.85852 -0.03656 0.61679
 C472 C 1.09638 -0.08738 0.32187
 C473 C 1.06508 -0.10257 0.33680
 N474 N 1.04727 -0.12753 0.32042
 C475 C 1.05945 -0.13830 0.28981
 C476 C 1.09126 -0.12348 0.27468
 N477 N 1.10865 -0.09813 0.29137
 N478 N 1.11421 -0.06235 0.33823
 C479 C 1.10216 -0.05188 0.36901
 C480 C 1.07092 -0.06726 0.38416
 N481 N 1.05308 -0.09223 0.36754
 H482 H 1.04424 -0.15820 0.27783
 H483 H 1.11686 -0.03185 0.38149
 C484 C 0.88988 0.13213 0.32957
 C485 C 0.87141 0.10335 0.34450
 N486 N 0.84319 0.08943 0.32835
 C487 C 0.83238 0.10285 0.29787
 C488 C 0.85070 0.13190 0.28235
 N489 N 0.87918 0.14571 0.29897
 N490 N 0.91829 0.14588 0.34592
 C491 C 0.92900 0.13208 0.37647
 C492 C 0.91046 0.10318 0.39141
 N493 N 0.88206 0.08959 0.37488
 H494 H 0.80976 0.09055 0.28631
 H495 H 0.95183 0.14344 0.38884
 C496 C 0.13337 0.31913 -0.09719
 C497 C 0.10194 0.33575 -0.10970
 N498 N 0.08347 0.32134 -0.13476
 C499 C 0.09497 0.29108 -0.14833
 C500 C 0.12691 0.27400 -0.13642
 N501 N 0.14517 0.28868 -0.11077
 N502 N 0.15162 0.33396 -0.07188
 C503 C 0.13983 0.36468 -0.05874
 C504 C 0.10841 0.38138 -0.07160
 N505 N 0.09034 0.36623 -0.09674
 H506 H 0.07886 0.28093 -0.16810
 H507 H 0.15485 0.37597 -0.03867
 C508 C -0.09084 0.33019 0.12567
 C509 C -0.09874 0.33898 0.09178
 N510 N -0.11881 0.31705 0.07389
 C511 C -0.13208 0.28698 0.08844
 C512 C -0.12564 0.27852 0.12288
 N513 N -0.10462 0.30033 0.14056
 N514 N -0.06991 0.35194 0.14320
 C515 C -0.05672 0.38211 0.12838
 C516 C -0.06534 0.39123 0.09465
 N517 N -0.08612 0.36928 0.07718
 H518 H -0.14753 0.27006 0.07304
 H519 H -0.04007 0.39898 0.14289
 C520 C -0.07671 0.67769 -0.11441
 C521 C -0.09316 0.66536 -0.08396
 N522 N -0.11774 0.68590 -0.06788
 C523 C -0.12679 0.71821 -0.08084
 C524 C -0.11053 0.73083 -0.11167
 N525 N -0.08574 0.70989 -0.12747
 N526 N -0.05188 0.65733 -0.13043
 C527 C -0.04268 0.62515 -0.11731
 C528 C -0.05912 0.61265 -0.08677
 N529 N -0.08407 0.63317 -0.07081
 H530 H -0.14648 0.73343 -0.06694
 H531 H -0.02259 0.60958 -0.13055
 C532 C 0.11516 0.68682 0.09021
 C533 C 0.08363 0.66982 0.10242
 N534 N 0.06142 0.68548 0.12521
 C535 C 0.06951 0.71736 0.13684
 C536 C 0.10164 0.73435 0.12541
 N537 N 0.12350 0.71856 0.10203
 N538 N 0.13719 0.67101 0.06719
 C539 C 0.12916 0.63876 0.05604
 C540 C 0.09789 0.62148 0.06881
 N541 N 0.07588 0.63766 0.09160
 H542 H 0.05104 0.72893 0.15491
 H543 H 0.14715 0.62664 0.03780
 C544 C 0.32304 1.10705 0.89629
 C545 C 0.33787 1.07778 0.88050
 N546 N 0.32183 1.06602 0.85258
 C547 C 0.29164 1.08213 0.83967
 C548 C 0.27650 1.11162 0.85536
 N549 N 0.29289 1.12321 0.88343
 N550 N 0.33905 1.11886 0.92422
 C551 C 0.36928 1.10277 0.93706
 C552 C 0.38436 1.07346 0.92128
 N553 N 0.36812 1.06167 0.89327
 H554 H 0.27991 1.07188 0.81737
 H555 H 0.38141 1.11283 0.95936
 C556 C 0.31047 0.87503 1.09910
 C557 C 0.32781 0.90284 1.11403
 N558 N 0.31048 0.91985 1.13929
 C559 C 0.27657 0.91022 1.15043
 C560 C 0.25908 0.88215 1.13561
 N561 N 0.27673 0.86540 1.11019
 N562 N 0.32758 0.85807 1.07371
 C563 C 0.36139 0.86773 1.06249
 C564 C 0.37890 0.89559 1.07738
 N565 N 0.36160 0.91251 1.10288
 H566 H 0.26365 0.92447 1.17051
 H567 H 0.37435 0.85387 1.04208
 C568 C 0.67383 1.08527 1.11606
 C569 C 0.65764 1.10305 1.08843
 N570 N 0.67048 1.13473 1.07756
 C571 C 0.69889 1.14949 1.09298
 C572 C 0.71540 1.13173 1.12068
 N573 N 0.70219 1.09997 1.13152
 N574 N 0.66085 1.05365 1.12706
 C575 C 0.63225 1.03905 1.11175
 C576 C 0.61585 1.05691 1.08417
 N577 N 0.62907 1.08853 1.07313
 H578 H 0.70799 1.17496 1.08382
 H579 H 0.62237 1.01384 1.12111
 C580 C 0.69253 0.88243 0.90548
 C581 C 0.67757 0.91328 0.89095
 N582 N 0.69820 0.93341 0.86911
 C583 C 0.73300 0.92386 0.86086
 C584 C 0.74786 0.89264 0.87509
 N585 N 0.72708 0.87292 0.89724
 N586 N 0.67220 0.86219 0.92733
 C587 C 0.63745 0.87144 0.93547
 C588 C 0.62226 0.90232 0.92104
 N589 N 0.64275 0.92261 0.89905
 H590 H 0.74872 0.94047 0.84343
 H591 H 0.62194 0.85488 0.95319
   
