data_POSCAR
  _audit_creation_date              2014-09-24
  _audit_creation_method            'ToBaCCo'
  _symmetry_space_group_name_H-M    'P1'
  _symmetry_Int_Tables_number       1
  _symmetry_cell_setting            triclinic
  loop_
  _symmetry_equiv_pos_as_xyz
 x,y,z
_cell_length_a 21.9899
_cell_length_b 21.9819
_cell_length_c 21.1105
_cell_angle_alpha 105.425300
_cell_angle_beta 74.251700
_cell_angle_gamma 77.503800
loop_
  _atom_site_label
  _atom_site_type_symbol
  _atom_site_fract_x
  _atom_site_fract_y
  _atom_site_fract_z
O1 O 0.55189 0.52555 0.07091
 O2 O 0.39283 0.53258 0.03970
 O3 O 0.47474 0.44851 0.07078
 O4 O 0.46931 0.60750 0.03943
 O5 O 0.52486 0.55187 -0.07308
 O6 O 0.53301 0.39296 -0.04119
 O7 O 0.44837 0.47354 -0.07184
 O8 O 0.60753 0.46975 -0.04154
 Cu9 Cu 0.46683 0.53375 0.06632
 Cu10 Cu 0.53366 0.46684 -0.06809
 C11 C 0.60692 0.49671 0.02002
 C12 C 0.39317 0.50397 -0.02137
 C13 C 0.50520 0.39356 0.02029
 C14 C 0.49615 0.60683 -0.02232
 O15 O -0.05745 0.60422 0.54654
 O16 O -0.05090 0.43236 0.52571
 O17 O -0.02838 0.52630 0.61269
 O18 O -0.07860 0.51191 0.45755
 O19 O 0.02730 0.47458 0.38978
 O20 O 0.07739 0.49177 0.54500
 O21 O 0.05483 0.39861 0.45843
 O22 O 0.04709 0.57057 0.47627
 Cu23 Cu -0.06452 0.52187 0.54241
 Cu24 Cu 0.06244 0.48072 0.46069
 C25 C -0.00674 0.61703 0.51447
 C26 C 0.00322 0.38609 0.48876
 C27 C 0.03288 0.51175 0.60535
 C28 C -0.03391 0.49040 0.39709
 O29 O 0.46882 0.02977 0.61275
 O30 O 0.48622 0.07753 0.45619
 O31 O 0.39412 0.05503 0.54382
 O32 O 0.56509 0.05132 0.52519
 O33 O 0.60095 -0.05371 0.45605
 O34 O 0.42961 -0.05160 0.47986
 O35 O 0.52230 -0.02867 0.39036
 O36 O 0.51188 -0.07615 0.54666
 Cu37 Cu 0.47541 0.06424 0.54119
 Cu38 Cu 0.51932 -0.06338 0.46162
 C39 C 0.48755 -0.03101 0.60684
 C40 C 0.50702 0.03227 0.39647
 C41 C 0.38261 0.00227 0.51557
 C42 C 0.61232 -0.00175 0.48678
 C43 C 0.49324 -0.07648 -0.14222
 C44 C 0.49211 -0.13521 -0.12818
 C45 C 0.49583 -0.14211 -0.06502
 C46 C 0.50055 -0.08790 -0.01386
 C47 C 0.50300 -0.02841 -0.02777
 C48 C 0.50120 -0.02344 -0.09276
 C49 C 0.50823 0.03432 -0.10688
 C50 C 0.50989 0.08850 -0.05615
 C51 C 0.51008 0.08581 0.00945
 C52 C 0.50782 0.02621 0.02326
 C53 C 0.50383 -0.09172 0.05051
 C54 C 0.50612 -0.03780 0.10112
 C55 C 0.50932 0.02136 0.08835
 C56 C 0.51303 0.07601 0.13940
 C57 C 0.51272 0.13520 0.12607
 C58 C 0.51179 0.14111 0.06178
 H59 H 0.51265 0.03881 -0.15750
 H60 H 0.51109 0.13241 -0.06957
 H61 H 0.50440 -0.13631 0.06306
 H62 H 0.50495 -0.04343 0.15068
 H63 H 0.48646 -0.17569 -0.16630
 H64 H 0.51474 0.17690 0.16588
 C65 C 0.07854 0.51111 0.86016
 C66 C 0.13774 0.50995 0.87365
 C67 C 0.14443 0.50492 0.93658
 C68 C 0.08965 0.49957 0.98723
 C69 C 0.02918 0.50069 0.97427
 C70 C 0.02391 0.50593 0.91042
 C71 C -0.03571 0.50487 0.89801
 C72 C -0.09006 0.50232 0.94828
 C73 C -0.08640 0.49670 1.01191
 C74 C -0.02604 0.49574 1.02498
 C75 C 0.09383 0.49184 1.04999
 C76 C 0.03929 0.48989 1.10056
 C77 C -0.02095 0.49072 1.08897
 C78 C -0.07633 0.48742 1.14000
 C79 C -0.13576 0.48955 1.12678
 C80 C -0.14167 0.49311 1.06320
 H81 H -0.04156 0.50599 0.84914
 H82 H -0.13508 0.50509 0.93626
 H83 H 0.13933 0.48698 1.06123
 H84 H 0.04554 0.48770 1.14897
 H85 H 0.17883 0.51452 0.83497
 H86 H -0.17767 0.48686 1.16610
 C87 C -0.04577 -0.12212 0.50948
 C88 C -0.10399 -0.10230 0.49557
 C89 C -0.12287 -0.04249 0.48428
 C90 C -0.08169 -0.00161 0.48456
 C91 C -0.02268 -0.02072 0.49922
 C92 C -0.00498 -0.08076 0.51272
 C93 C 0.05201 -0.09699 0.53055
 C94 C 0.09269 -0.05671 0.53164
 C95 C 0.07745 0.00149 0.51556
 C96 C 0.01851 0.02048 0.50075
 C97 C -0.09744 0.05712 0.46950
 C98 C -0.05686 0.09749 0.47081
 C99 C 0.00073 0.08058 0.48743
 C100 C 0.04188 0.12152 0.48991
 C101 C 0.10042 0.10154 0.50306
 C102 C 0.11890 0.04213 0.51523
 H103 H 0.06550 -0.14065 0.54448
 H104 H 0.13585 -0.07132 0.54597
 H105 H -0.14093 0.07207 0.45579
 H106 H -0.07080 0.14177 0.45799
 H107 H -0.13572 -0.13384 0.49415
 H108 H 0.13235 0.13291 0.50379
 C109 C -0.26945 0.44597 0.98472
 C110 C -0.32915 0.49462 1.03224
 C111 C -0.32691 0.54147 1.09106
 C112 C -0.26620 0.54087 1.10094
 C113 C -0.20638 0.49306 1.05264
 C114 C -0.20902 0.44453 0.99547
 H115 H -0.26955 0.40860 0.93944
 H116 H -0.37197 0.57946 1.12875
 H117 H -0.26579 0.57832 1.14597
 H118 H -0.16400 0.40596 0.95852
 C119 C 0.27137 0.54877 1.01891
 C120 C 0.33236 0.50576 0.96725
 C121 C 0.33071 0.46442 0.90434
 C122 C 0.26998 0.46390 0.89494
 C123 C 0.20918 0.50594 0.94718
 C124 C 0.21100 0.55020 1.00804
 H125 H 0.27015 0.58247 1.06748
 H126 H 0.37627 0.43079 0.86299
 H127 H 0.27049 0.42997 0.84689
 H128 H 0.16535 0.58532 1.04795
 C129 C 0.03873 -0.30232 0.47474
 C130 C -0.01142 -0.31730 0.51976
 C131 C -0.06885 -0.26541 0.56728
 C132 C -0.07754 -0.20096 0.56707
 C133 C -0.02970 -0.18715 0.51873
 C134 C 0.02900 -0.23791 0.47332
 H135 H 0.08366 -0.34091 0.43759
 H136 H -0.10810 -0.27469 0.60357
 H137 H -0.12312 -0.16223 0.60253
 H138 H 0.06595 -0.22823 0.43486
 C139 C -0.04017 0.30316 0.53153
 C140 C 0.00724 0.31713 0.48257
 C141 C 0.06162 0.26489 0.43083
 C142 C 0.07043 0.20017 0.43044
 C143 C 0.02516 0.18688 0.48184
 C144 C -0.03091 0.23839 0.53154
 H145 H -0.08241 0.34266 0.57205
 H146 H 0.09855 0.27433 0.39213
 H147 H 0.11414 0.16081 0.39200
 H148 H -0.06566 0.22889 0.57223
 C149 C 0.52287 -0.10811 -0.33558
 C150 C 0.48224 -0.04756 -0.33264
 C151 C 0.43808 -0.00202 -0.26695
 C152 C 0.43708 -0.01508 -0.20568
 C153 C 0.48421 -0.07089 -0.20807
 C154 C 0.52501 -0.11892 -0.27362
 H155 H 0.55676 -0.14479 -0.38535
 H156 H 0.40428 0.04400 -0.26273
 H157 H 0.40281 0.02108 -0.15578
 H158 H 0.56063 -0.16325 -0.27686
 C159 C 0.56684 0.01202 0.27097
 C160 C 0.51310 0.05009 0.33319
 C161 C 0.46351 0.10244 0.33317
 C162 C 0.46503 0.11316 0.27039
 C163 C 0.51680 0.07239 0.20741
 C164 C 0.56943 0.02409 0.20882
 H165 H 0.60609 -0.02792 0.27022
 H166 H 0.42180 0.13252 0.38083
 H167 H 0.42435 0.15107 0.27034
 H168 H 0.61034 -0.00701 0.16084
 C169 C 0.54203 -0.32715 -0.09329
 C170 C 0.49435 -0.32938 -0.03480
 C171 C 0.44557 -0.26974 0.01250
 C172 C 0.44492 -0.20929 0.00194
 C173 C 0.49444 -0.20668 -0.05474
 C174 C 0.54224 -0.26646 -0.10294
 H175 H 0.58016 -0.37219 -0.13076
 H176 H 0.40759 -0.26988 0.05753
 H177 H 0.40633 -0.16425 0.03872
 H178 H 0.58038 -0.26599 -0.14764
 C179 C 0.45933 0.32591 0.08910
 C180 C 0.50829 0.32960 0.03268
 C181 C 0.55995 0.27118 -0.01266
 C182 C 0.56219 0.21044 -0.00228
 C183 C 0.51150 0.20618 0.05207
 C184 C 0.46074 0.26481 0.09844
 H185 H 0.41904 0.37002 0.12505
 H186 H 0.59897 0.27255 -0.05597
 H187 H 0.60295 0.16640 -0.03750
 H188 H 0.42160 0.26310 0.14139
 C189 C -0.26642 -0.05697 0.42489
 C190 C -0.31875 -0.00455 0.47913
 C191 C -0.30466 0.04101 0.52932
 C192 C -0.23957 0.03115 0.52834
 C193 C -0.18806 -0.02363 0.47653
 C194 C -0.20146 -0.06640 0.42361
 H195 H -0.27601 -0.09233 0.38513
 H196 H -0.34426 0.08173 0.57166
 H197 H -0.22987 0.06398 0.57010
 H198 H -0.16206 -0.10903 0.38351
 C199 C 0.26137 0.05812 0.57595
 C200 C 0.31383 0.00496 0.52284
 C201 C 0.30011 -0.04147 0.47313
 C202 C 0.23528 -0.03178 0.47331
 C203 C 0.18367 0.02368 0.52392
 C204 C 0.19666 0.06734 0.57652
 H205 H 0.27074 0.09414 0.61532
 H206 H 0.33987 -0.08275 0.43164
 H207 H 0.22591 -0.06532 0.43181
 H208 H 0.15717 0.11046 0.61572
 C209 C -0.01553 0.43050 1.27214
 C210 C -0.05247 0.48467 1.33424
 C211 C -0.10331 0.53566 1.33396
 C212 C -0.11341 0.53501 1.27109
 C213 C -0.07355 0.48279 1.20816
 C214 C -0.02707 0.42883 1.20991
 H215 H 0.02337 0.39027 1.27148
 H216 H -0.13241 0.57783 1.38140
 H217 H -0.15000 0.57673 1.27089
 H218 H 0.00329 0.38753 1.16208
 C219 C 0.10446 0.46676 0.66669
 C220 C 0.05189 0.51698 0.66789
 C221 C 0.01414 0.56977 0.73093
 C222 C 0.02663 0.57071 0.79257
 C223 C 0.07495 0.51727 0.79275
 C224 C 0.11554 0.46659 0.72893
 H225 H 0.13426 0.42567 0.61849
 H226 H -0.02607 0.60944 0.73276
 H227 H -0.00439 0.61083 0.84114
 H228 H 0.15348 0.42528 0.72791
   
