data_POSCAR
  _audit_creation_date              2014-09-24
  _audit_creation_method            'ToBaCCo'
  _symmetry_space_group_name_H-M    'P1'
  _symmetry_Int_Tables_number       1
  _symmetry_cell_setting            triclinic
  loop_
  _symmetry_equiv_pos_as_xyz
 x,y,z
_cell_length_a 20.5244
_cell_length_b 20.6692
_cell_length_c 20.0679
_cell_angle_alpha 90.416100
_cell_angle_beta 91.782300
_cell_angle_gamma 90.836400
loop_
  _atom_site_label
  _atom_site_type_symbol
  _atom_site_fract_x
  _atom_site_fract_y
  _atom_site_fract_z
O1 O 0.56685 0.12680 0.03936
 O2 O 0.43757 -0.05919 -0.14020
 O3 O 0.61092 0.02781 -0.07370
 O4 O 0.41585 0.12588 -0.05851
 O5 O 0.55868 -0.04445 -0.13160
 O6 O 0.44784 0.14683 0.04181
 O7 O 0.42891 0.04092 -0.13393
 O8 O 0.63446 0.04884 0.04444
 C9 C 0.62414 0.10830 0.04521
 C10 C 0.42218 -0.00817 -0.16807
 C11 C 0.60220 -0.00106 -0.12764
 C12 C 0.42059 0.16436 -0.01126
 O13 O 0.42902 0.05081 0.11813
 O14 O 0.55582 -0.11991 -0.02075
 O15 O 0.56813 -0.05517 0.07807
 O16 O 0.36385 -0.04261 -0.04891
 O17 O 0.43695 -0.11437 -0.02409
 O18 O 0.55086 0.03328 0.12978
 O19 O 0.35911 0.04799 0.03159
 O20 O 0.65012 -0.06926 -0.00830
 Co21 Co 0.49904 0.08201 0.07365
 Co22 Co 0.49755 -0.07422 -0.07303
 Co23 Co 0.58490 -0.01308 0.00015
 Co24 Co 0.40001 0.03987 -0.04972
 O25 O 0.49221 0.01435 -0.01087
 C26 C 0.37142 0.04756 0.09438
 C27 C 0.61765 -0.12341 -0.02033
 C28 C 0.57176 -0.02340 0.13071
 C29 C 0.37816 -0.09915 -0.02980
 O30 O -0.12456 0.42866 -0.02255
 O31 O 0.05741 0.57191 0.13264
 O32 O 0.05243 0.37918 0.08383
 O33 O -0.08232 0.62392 -0.01979
 O34 O 0.04139 0.46066 0.14216
 O35 O -0.13525 0.53938 -0.00242
 O36 O -0.03139 0.61030 0.09061
 O37 O -0.06503 0.38525 0.05538
 C38 C -0.11958 0.39337 0.02823
 C39 C 0.00367 0.59917 0.14055
 C40 C 0.03767 0.40131 0.13815
 C41 C -0.13201 0.59875 0.00134
 O42 O -0.05856 0.56527 -0.11351
 O43 O 0.13431 0.44096 0.04011
 O44 O -0.03744 0.37386 -0.06834
 O45 O 0.08091 0.63200 0.03724
 O46 O 0.13665 0.55053 0.02133
 O47 O -0.03821 0.45655 -0.12625
 O48 O 0.02954 0.61432 -0.07721
 O49 O 0.07976 0.39542 -0.04163
 Co50 Co -0.08096 0.49777 -0.05948
 Co51 Co 0.08469 0.50554 0.07761
 Co52 Co 0.00732 0.39530 0.00722
 Co53 Co 0.00002 0.60780 0.00780
 O54 O 0.00293 0.50166 0.00823
 C55 C -0.01053 0.60204 -0.12447
 C56 C 0.13326 0.40775 -0.01306
 C57 C -0.03256 0.39760 -0.12381
 C58 C 0.13319 0.60981 0.02030
 O59 O -0.07052 -0.13699 0.45593
 O60 O 0.11378 0.08074 0.55210
 O61 O 0.08536 -0.01742 0.37733
 O62 O 0.04566 -0.10826 0.57378
 O63 O 0.10100 0.07610 0.42788
 O64 O -0.05515 -0.12717 0.57679
 O65 O 0.11980 -0.02005 0.57211
 O66 O 0.02174 -0.11528 0.41179
 C67 C -0.01957 -0.15584 0.42841
 C68 C 0.14733 0.03326 0.56952
 C69 C 0.11695 0.03416 0.38547
 C70 C 0.00177 -0.14555 0.58914
 O71 O -0.11504 -0.00998 0.57220
 O72 O -0.01514 0.12547 0.43322
 O73 O -0.08685 -0.05503 0.37436
 O74 O 0.03335 0.05638 0.63308
 O75 O -0.00900 0.12092 0.56002
 O76 O -0.13645 -0.02079 0.45753
 O77 O -0.04094 -0.03362 0.64363
 O78 O -0.02129 0.04732 0.35819
 Co79 Co -0.08632 -0.06857 0.51400
 Co80 Co 0.04245 0.09020 0.49459
 Co81 Co -0.00104 -0.03300 0.39233
 Co82 Co 0.03567 -0.02514 0.59686
 O83 O -0.00208 -0.00782 0.49871
 C84 C -0.09725 -0.01306 0.63121
 C85 C -0.02654 0.10639 0.37464
 C86 C -0.13693 -0.03175 0.39733
 C87 C 0.00351 0.10751 0.61926
 C88 C -0.25885 0.13480 0.07239
 C89 C -0.32192 0.15549 0.05471
 C90 C -0.33327 0.22173 0.04571
 C91 C -0.28162 0.26657 0.05074
 C92 C -0.21799 0.24518 0.06696
 C93 C -0.20733 0.17942 0.07905
 C94 C -0.16554 0.28919 0.06668
 C95 C -0.17556 0.35339 0.04702
 C96 C -0.23912 0.37488 0.03358
 C97 C -0.29200 0.33196 0.03646
 H98 H -0.38184 0.23817 0.03228
 H99 H -0.15887 0.16227 0.09160
 H100 H -0.11644 0.27207 0.07586
 H101 H -0.34049 0.34912 0.02411
 H102 H -0.24924 0.08403 0.08050
 H103 H -0.24749 0.42426 0.01810
 C104 C 0.26408 0.87505 -0.02666
 C105 C 0.32998 0.85657 -0.02049
 C106 C 0.34357 0.79063 -0.00787
 C107 C 0.29254 0.74455 -0.00345
 C108 C 0.22726 0.76473 -0.00973
 C109 C 0.21362 0.82988 -0.02092
 C110 C 0.17625 0.71963 -0.00424
 C111 C 0.18882 0.65397 0.00756
 C112 C 0.25377 0.63353 0.01199
 C113 C 0.30529 0.67855 0.00675
 H114 H 0.39358 0.77460 -0.00325
 H115 H 0.16368 0.84597 -0.02581
 H116 H 0.12635 0.73601 -0.00832
 H117 H 0.35502 0.66189 0.01132
 H118 H 0.25092 0.92477 -0.03635
 H119 H 0.26465 0.58323 0.02138
 C120 C 0.39352 0.27176 0.03830
 C121 C 0.38678 0.22712 -0.01473
 C122 C 0.33889 0.23746 -0.06515
 C123 C 0.29369 0.28727 -0.05873
 C124 C 0.29827 0.32922 -0.00281
 C125 C 0.35006 0.32282 0.04383
 C126 C 0.24836 0.37339 0.00830
 C127 C 0.19254 0.37423 -0.03423
 C128 C 0.19053 0.33522 -0.09198
 C129 C 0.24099 0.29253 -0.10445
 H130 H 0.33301 0.20340 -0.10631
 H131 H 0.35458 0.35483 0.08678
 H132 H 0.25064 0.40328 0.05296
 H133 H 0.23688 0.26100 -0.14781
 H134 H 0.43020 0.26513 0.07754
 H135 H 0.14836 0.33528 -0.12582
 C136 C -0.37529 0.75862 -0.04741
 C137 C -0.35012 0.81394 -0.01402
 C138 C -0.29380 0.80931 0.02646
 C139 C -0.26076 0.75100 0.03116
 C140 C -0.28354 0.69619 -0.00591
 C141 C -0.34191 0.70011 -0.04382
 C142 C -0.24499 0.64053 -0.00817
 C143 C -0.18350 0.64092 0.02435
 C144 C -0.16409 0.69404 0.06470
 C145 C -0.20283 0.74815 0.06906
 H146 H -0.27479 0.85153 0.05340
 H147 H -0.36060 0.65870 -0.07219
 H148 H -0.25937 0.60035 -0.04069
 H149 H -0.18505 0.78959 0.09804
 H150 H -0.41950 0.76112 -0.07799
 H151 H -0.11614 0.69643 0.08840
 C152 C -0.08032 -0.35950 0.21682
 C153 C -0.01489 -0.37468 0.20602
 C154 C 0.03283 -0.35794 0.25503
 C155 C 0.01657 -0.31933 0.30989
 C156 C -0.04849 -0.29893 0.31672
 C157 C -0.09703 -0.32187 0.27161
 C158 C -0.06269 -0.25139 0.36442
 C159 C -0.01202 -0.22222 0.40297
 C160 C 0.05116 -0.24729 0.40031
 C161 C 0.06526 -0.29595 0.35459
 H162 H 0.08331 -0.37013 0.24764
 H163 H -0.14732 -0.30781 0.27656
 H164 H -0.11131 -0.23160 0.36555
 H165 H 0.11521 -0.31147 0.35069
 H166 H -0.11837 -0.37460 0.18129
 H167 H 0.09083 -0.22523 0.42970
 C168 C -0.03338 0.37629 0.75189
 C169 C -0.02704 0.35455 0.81785
 C170 C -0.01788 0.28843 0.82979
 C171 C -0.01579 0.24416 0.77749
 C172 C -0.02267 0.26557 0.71106
 C173 C -0.03127 0.33192 0.69867
 C174 C -0.01959 0.22025 0.65873
 C175 C -0.00830 0.15453 0.67277
 C176 C -0.00203 0.13445 0.73925
 C177 C -0.00633 0.17870 0.79115
 H178 H -0.01263 0.27080 0.88035
 H179 H -0.03642 0.34936 0.64803
 H180 H -0.02356 0.23634 0.60750
 H181 H -0.00090 0.16188 0.84203
 H182 H -0.04074 0.42708 0.74165
 H183 H 0.00773 0.08449 0.75124
 C184 C 0.01192 0.37812 0.25797
 C185 C 0.01505 0.35778 0.19132
 C186 C -0.00275 0.29350 0.17446
 C187 C -0.02035 0.24917 0.22322
 C188 C -0.01999 0.26889 0.29057
 C189 C -0.00528 0.33385 0.30738
 C190 C -0.03017 0.22245 0.34003
 C191 C -0.03823 0.15622 0.32302
 C192 C -0.04350 0.13836 0.25541
 C193 C -0.03503 0.18457 0.20587
 H194 H -0.00118 0.27698 0.12339
 H195 H -0.00516 0.34990 0.35889
 H196 H -0.02624 0.23727 0.39194
 H197 H -0.03635 0.16909 0.15413
 H198 H 0.02468 0.42748 0.27204
 H199 H -0.04988 0.08805 0.24082
 C200 C -0.06111 -0.37709 0.76888
 C201 C -0.00865 -0.36778 0.81585
 C202 C 0.04131 -0.32338 0.80023
 C203 C 0.03591 -0.28580 0.74195
 C204 C -0.02050 -0.29132 0.69972
 C205 C -0.06748 -0.33860 0.71251
 C206 C -0.03032 -0.24786 0.64691
 C207 C 0.01665 -0.20003 0.63441
 C208 C 0.07567 -0.19933 0.67234
 C209 C 0.08474 -0.24098 0.72629
 H210 H 0.08309 -0.31632 0.83409
 H211 H -0.11022 -0.34473 0.67986
 H212 H -0.07543 -0.24963 0.61730
 H213 H 0.12907 -0.23677 0.75687
 H214 H -0.10000 -0.41185 0.77719
 H215 H 0.11355 -0.16386 0.66297
 C216 C 0.37738 -0.06599 0.73685
 C217 C 0.39119 -0.00756 0.77157
 C218 C 0.36558 0.05047 0.74537
 C219 C 0.32015 0.04878 0.69155
 C220 C 0.30233 -0.01113 0.66149
 C221 C 0.33351 -0.06764 0.68230
 C222 C 0.24999 -0.01442 0.61502
 C223 C 0.21352 0.04099 0.60000
 C224 C 0.23509 0.10128 0.62558
 C225 C 0.28832 0.10520 0.67083
 H226 H 0.37650 0.09640 0.77008
 H227 H 0.32105 -0.11383 0.65898
 H228 H 0.23414 -0.06114 0.59501
 H229 H 0.30175 0.15170 0.69288
 H230 H 0.39738 -0.11137 0.75408
 H231 H 0.20795 0.14467 0.61458
 C232 C -0.34811 -0.10095 0.18028
 C233 C -0.38502 -0.04456 0.18671
 C234 C -0.36936 -0.00120 0.23940
 C235 C -0.31398 -0.01064 0.28079
 C236 C -0.27413 -0.06478 0.27026
 C237 C -0.29296 -0.11085 0.22146
 C238 C -0.21554 -0.07101 0.30772
 C239 C -0.19735 -0.02463 0.35664
 C240 C -0.23860 0.02745 0.36859
 C241 C -0.29612 0.03480 0.33053
 H242 H -0.39739 0.04243 0.24521
 H243 H -0.26362 -0.15319 0.21332
 H244 H -0.18444 -0.11206 0.29931
 H245 H -0.32623 0.07641 0.33948
 H246 H -0.35941 -0.13538 0.14057
 H247 H -0.22557 0.06322 0.40662
 C248 C 0.25803 0.01313 0.12009
 C249 C 0.31734 0.04246 0.14091
 C250 C 0.32487 0.06655 0.20668
 C251 C 0.27370 0.06093 0.25129
 C252 C 0.21504 0.02959 0.23005
 C253 C 0.20747 0.00624 0.16444
 C254 C 0.16478 0.02177 0.27476
 C255 C 0.17131 0.04560 0.34049
 C256 C 0.22864 0.07880 0.36091
 C257 C 0.27990 0.08586 0.31670
 H258 H 0.37024 0.09008 0.22290
 H259 H 0.16249 -0.01754 0.14748
 H260 H 0.12002 -0.00270 0.25814
 H261 H 0.32437 0.11053 0.33366
 H262 H 0.25120 -0.00561 0.06980
 H263 H 0.23431 0.09777 0.41124
 C264 C -0.37183 0.00136 0.75095
 C265 C -0.35159 0.00872 0.81801
 C266 C -0.28452 0.01618 0.83412
 C267 C -0.23799 0.01293 0.78423
 C268 C -0.25888 0.00566 0.71688
 C269 C -0.32595 0.00122 0.70065
 C270 C -0.21236 0.00021 0.66722
 C271 C -0.14505 -0.00110 0.68400
 C272 C -0.12500 0.00542 0.75127
 C273 C -0.17093 0.01358 0.80079
 H274 H -0.26832 0.02012 0.88596
 H275 H -0.34280 -0.00488 0.64926
 H276 H -0.22881 -0.00584 0.61566
 H277 H -0.15406 0.01834 0.85232
 H278 H -0.42306 -0.00534 0.73765
 H279 H -0.07386 0.00344 0.76570
   
