data_POSCAR
  _audit_creation_date              2014-09-24
  _audit_creation_method            'ToBaCCo'
  _symmetry_space_group_name_H-M    'P1'
  _symmetry_Int_Tables_number       1
  _symmetry_cell_setting            triclinic
  loop_
  _symmetry_equiv_pos_as_xyz
 x,y,z
_cell_length_a 42.9056
_cell_length_b 42.8017
_cell_length_c 42.8897
_cell_angle_alpha 77.675900
_cell_angle_beta 98.217700
_cell_angle_gamma 77.810000
loop_
  _atom_site_label
  _atom_site_type_symbol
  _atom_site_fract_x
  _atom_site_fract_y
  _atom_site_fract_z
O1 O 0.55848 0.47743 0.03425
 O2 O 0.47059 0.48647 0.03181
 O3 O 0.51969 0.43768 0.03580
 O4 O 0.50913 0.52606 0.03119
 O5 O 0.50007 0.53722 -0.02242
 O6 O 0.51171 0.44833 -0.01779
 O7 O 0.46194 0.49671 -0.02169
 O8 O 0.54932 0.48868 -0.01936
 Cu9 Cu 0.51539 0.48084 0.03863
 Cu10 Cu 0.50483 0.49388 -0.02569
 C11 C 0.56889 0.48172 0.00774
 C12 C 0.45119 0.49273 0.00463
 C13 C 0.51736 0.42787 0.00984
 C14 C 0.50292 0.54679 0.00370
 O15 O -0.03371 0.56234 0.48197
 O16 O -0.03029 0.47432 0.49067
 O17 O -0.03001 0.51275 0.53029
 O18 O -0.03310 0.52378 0.44209
 O19 O 0.02050 0.51198 0.45101
 O20 O 0.02353 0.50204 0.53867
 O21 O 0.02330 0.46267 0.49951
 O22 O 0.01976 0.55125 0.48952
 Cu23 Cu -0.03714 0.51942 0.48536
 Cu24 Cu 0.02714 0.50579 0.49560
 C25 C -0.00762 0.57200 0.48433
 C26 C -0.00301 0.45341 0.49646
 C27 C -0.00269 0.50590 0.54952
 C28 C -0.00670 0.51956 0.43151
 O29 O 0.49255 0.02770 0.53823
 O30 O 0.48664 0.02716 0.45171
 O31 O 0.44648 0.02763 0.49211
 O32 O 0.53264 0.02803 0.49800
 O33 O 0.54653 -0.02643 0.51221
 O34 O 0.46004 -0.02686 0.50552
 O35 O 0.50064 -0.02730 0.46579
 O36 O 0.50573 -0.02673 0.55196
 Cu37 Cu 0.48825 0.03308 0.49356
 Cu38 Cu 0.50467 -0.03229 0.51022
 C39 C 0.49972 0.00054 0.55996
 C40 C 0.49277 -0.00024 0.44397
 C41 C 0.43849 0.00035 0.49810
 C42 C 0.55436 0.00095 0.50612
 C43 C 0.49705 -0.02052 0.01531
 C44 C 0.49914 0.00478 -0.00895
 C45 C 0.49839 0.00238 -0.04311
 C46 C 0.50277 0.03653 -0.00236
 C47 C 0.49633 -0.01667 0.04885
 C48 C 0.49575 -0.05347 0.01010
 C49 C 0.52233 0.01196 -0.05938
 C50 C 0.52139 0.01142 -0.09189
 C51 C 0.49648 0.00126 -0.10888
 C52 C 0.47260 -0.00858 -0.09260
 C53 C 0.47335 -0.00770 -0.06007
 C54 C 0.53157 0.03845 0.01642
 C55 C 0.53534 0.06888 0.02112
 C56 C 0.51015 0.09761 0.00753
 C57 C 0.48121 0.09549 -0.01087
 C58 C 0.47772 0.06522 -0.01611
 C59 C 0.47178 0.00736 0.05494
 C60 C 0.47078 0.00988 0.08678
 C61 C 0.49411 -0.01183 0.11312
 C62 C 0.51866 -0.03583 0.10687
 C63 C 0.51967 -0.03828 0.07507
 C64 C 0.47098 -0.06768 0.01989
 C65 C 0.47026 -0.09939 0.01703
 C66 C 0.49443 -0.11766 0.00447
 C67 C 0.51904 -0.10327 -0.00574
 C68 C 0.51983 -0.07152 -0.00273
 H69 H 0.54184 0.01987 -0.04686
 H70 H 0.54030 0.01877 -0.10374
 H71 H 0.45292 -0.01614 -0.10528
 H72 H 0.45417 -0.01443 -0.04829
 H73 H 0.55122 0.01649 0.02693
 H74 H 0.55783 0.07003 0.03541
 H75 H 0.45545 0.06409 -0.03082
 H76 H 0.45310 0.02378 0.03509
 H77 H 0.45129 0.02827 0.09086
 H78 H 0.53721 -0.05264 0.12659
 H79 H 0.53873 -0.05704 0.07085
 H80 H 0.45222 -0.05420 0.02989
 H81 H 0.45079 -0.10967 0.02472
 H82 H 0.53820 -0.11696 -0.01511
 H83 H 0.53955 -0.06129 -0.00980
 H84 H 0.46162 0.11742 -0.02180
 C85 C -0.00527 0.49722 0.98417
 C86 C 0.01806 0.50043 1.00749
 C87 C 0.05148 0.50115 1.00221
 C88 C 0.01167 0.50332 1.04004
 C89 C -0.03813 0.49510 0.99024
 C90 C 0.00025 0.49602 0.95097
 C91 C 0.07091 0.47562 0.99243
 C92 C 0.10323 0.47547 0.99037
 C93 C 0.11678 0.50052 0.99858
 C94 C 0.09711 0.52624 1.00785
 C95 C 0.06485 0.52653 1.00964
 C96 C 0.03234 0.48150 1.06801
 C97 C 0.02836 0.48513 1.09885
 C98 C 0.00371 0.51079 1.10239
 C99 C -0.01742 0.53231 1.07437
 C100 C -0.01332 0.52875 1.04342
 C101 C -0.06569 0.51713 0.96911
 C102 C -0.09681 0.51427 0.97283
 C103 C -0.10109 0.48916 0.99769
 C104 C -0.07348 0.46741 1.01925
 C105 C -0.04224 0.47023 1.01543
 C106 C 0.01005 0.52142 0.93129
 C107 C 0.01230 0.52118 0.89910
 C108 C 0.00430 0.49581 0.88595
 C109 C -0.00495 0.47019 0.90591
 C110 C -0.00699 0.47033 0.93804
 H111 H 0.06136 0.45539 0.98728
 H112 H 0.11796 0.45517 0.98349
 H113 H 0.10678 0.54607 1.01392
 H114 H 0.05034 0.54642 1.01730
 H115 H 0.05178 0.46177 1.06591
 H116 H 0.04470 0.46789 1.12001
 H117 H -0.02913 0.54624 1.02210
 H118 H -0.06305 0.53646 0.94952
 H119 H -0.11760 0.53170 0.95615
 H120 H -0.07604 0.44762 1.03840
 H121 H -0.02127 0.45258 1.03163
 H122 H 0.01507 0.54185 0.94055
 H123 H 0.01914 0.54141 0.88413
 H124 H -0.01085 0.45012 0.89655
 H125 H -0.01467 0.45056 0.95277
 H126 H -0.03640 0.55250 1.07639
 C127 C 0.00667 -0.00448 0.50017
 C128 C -0.01747 0.02099 0.50198
 C129 C -0.05096 0.01717 0.50277
 C130 C -0.01217 0.05402 0.50294
 C131 C 0.04078 -0.00214 0.50083
 C132 C 0.00003 -0.03634 0.49698
 C133 C -0.07705 0.03836 0.47903
 C134 C -0.10883 0.03594 0.48011
 C135 C -0.11514 0.01238 0.50512
 C136 C -0.08891 -0.00890 0.52887
 C137 C -0.05710 -0.00639 0.52781
 C138 C 0.00092 0.07180 0.47883
 C139 C 0.00398 0.10364 0.47928
 C140 C -0.00646 0.11840 0.50356
 C141 C -0.01930 0.10039 0.52775
 C142 C -0.02218 0.06861 0.52738
 C143 C 0.05784 0.00778 0.52591
 C144 C 0.09034 0.00863 0.52659
 C145 C 0.10644 -0.00101 0.50254
 C146 C 0.08931 -0.01096 0.47756
 C147 C 0.05685 -0.01153 0.47674
 C148 C 0.01272 -0.06460 0.52281
 C149 C 0.00786 -0.09509 0.51959
 C150 C -0.00899 -0.09788 0.49016
 C151 C -0.02162 -0.06957 0.46424
 C152 C -0.01741 -0.03889 0.46775
 H153 H -0.07276 0.05677 0.45961
 H154 H -0.12849 0.05240 0.46126
 H155 H -0.09307 -0.02692 0.54871
 H156 H -0.03733 -0.02244 0.54680
 H157 H 0.00815 0.06131 0.45934
 H158 H 0.01357 0.11710 0.46011
 H159 H -0.03239 0.05536 0.54617
 H160 H 0.04614 0.01441 0.54517
 H161 H 0.10313 0.01604 0.54631
 H162 H 0.10102 -0.01812 0.45851
 H163 H 0.04420 -0.01928 0.45718
 H164 H 0.02641 -0.06298 0.54542
 H165 H 0.01800 -0.11670 0.53974
 H166 H -0.03468 -0.07128 0.44136
 H167 H -0.02709 -0.01728 0.44753
 H168 H -0.02716 0.11095 0.54698
 C169 C -0.32959 0.47645 1.00797
 C170 C -0.35171 0.48129 0.97879
 C171 C -0.38448 0.48261 0.97888
 C172 C -0.39604 0.47906 1.00815
 C173 C -0.37391 0.47372 1.03745
 C174 C -0.34103 0.47246 1.03736
 C175 C -0.29505 0.47629 1.00738
 N176 N -0.27339 0.47261 1.03515
 N177 N -0.24261 0.47335 1.03422
 C178 C -0.23220 0.47781 1.00547
 N179 N -0.25384 0.48132 0.97780
 N180 N -0.28455 0.48057 0.97873
 C181 C -0.19825 0.47961 1.00398
 C182 C -0.18857 0.48581 0.97376
 C183 C -0.15703 0.48861 0.97190
 C184 C -0.13429 0.48523 1.00019
 C185 C -0.14366 0.47844 1.03051
 C186 C -0.17535 0.47575 1.03239
 H187 H -0.34383 0.48441 0.95569
 H188 H -0.40082 0.48667 0.95587
 H189 H -0.38205 0.47089 1.06042
 H190 H -0.32467 0.46864 1.06029
 H191 H -0.20542 0.48876 0.95137
 H192 H -0.15037 0.49325 0.94822
 H193 H -0.12668 0.47590 1.05271
 H194 H -0.18197 0.47092 1.05607
 C195 C 0.35116 0.49672 1.00199
 C196 C 0.37245 0.49212 1.03165
 C197 C 0.40537 0.49103 1.03253
 C198 C 0.41788 0.49478 1.00369
 C199 C 0.39635 0.49992 0.97394
 C200 C 0.36349 0.50071 0.97315
 C201 C 0.31638 0.49714 1.00123
 N202 N 0.29693 0.49596 0.97378
 N203 N 0.26576 0.49610 0.97324
 C204 C 0.25269 0.49753 1.00010
 N205 N 0.27214 0.49876 1.02751
 N206 N 0.30331 0.49850 1.02809
 C207 C 0.21794 0.49796 0.99959
 C208 C 0.20338 0.50515 1.02543
 C209 C 0.17061 0.50595 1.02498
 C210 C 0.15163 0.49936 0.99882
 C211 C 0.16617 0.49178 0.97312
 C212 C 0.19896 0.49128 0.97340
 H213 H 0.36379 0.48894 1.05434
 H214 H 0.42100 0.48708 1.05594
 H215 H 0.40488 0.50295 0.95116
 H216 H 0.34774 0.50448 0.94986
 H217 H 0.21723 0.51039 1.04600
 H218 H 0.16016 0.51142 1.04534
 H219 H 0.15204 0.48677 0.95258
 H220 H 0.20943 0.48556 0.95315
 C221 C -0.01190 -0.32710 0.47860
 C222 C 0.01772 -0.34928 0.47974
 C223 C 0.01920 -0.38260 0.48161
 C224 C -0.00910 -0.39437 0.48163
 C225 C -0.03890 -0.37177 0.47956
 C226 C -0.04017 -0.33865 0.47847
 C227 C -0.01318 -0.29227 0.47836
 N228 N -0.03631 -0.27471 0.49084
 N229 N -0.03693 -0.24364 0.49158
 C230 C -0.01464 -0.22876 0.47955
 N231 N 0.00831 -0.24621 0.46679
 N232 N 0.00913 -0.27740 0.46635
 C233 C -0.01472 -0.19461 0.48122
 C234 C -0.00149 -0.17474 0.45888
 C235 C -0.00060 -0.14284 0.46118
 C236 C -0.01224 -0.13057 0.48629
 C237 C -0.02562 -0.15028 0.50851
 C238 C -0.02722 -0.18189 0.50577
 H239 H 0.03992 -0.34104 0.48000
 H240 H 0.04259 -0.39908 0.48303
 H241 H -0.06126 -0.37971 0.47949
 H242 H -0.06337 -0.32202 0.47740
 H243 H 0.00817 -0.18389 0.43964
 H244 H 0.01001 -0.12805 0.44392
 H245 H -0.03474 -0.14120 0.52803
 H246 H -0.03742 -0.19672 0.52340
 C247 C -0.00137 0.35132 0.50193
 C248 C 0.02747 0.36201 0.50201
 C249 C 0.02712 0.39505 0.50077
 C250 C -0.00210 0.41812 0.49919
 C251 C -0.03084 0.40735 0.49938
 C252 C -0.03046 0.37437 0.50083
 C253 C -0.00142 0.31652 0.50260
 N254 N -0.02870 0.30578 0.50564
 N255 N -0.02909 0.27473 0.50584
 C256 C -0.00226 0.25302 0.50293
 N257 N 0.02509 0.26371 0.49991
 N258 N 0.02551 0.29480 0.49978
 C259 C -0.00303 0.21850 0.50300
 C260 C 0.02339 0.19666 0.49669
 C261 C 0.02230 0.16420 0.49666
 C262 C -0.00511 0.15284 0.50319
 C263 C -0.03148 0.17468 0.50944
 C264 C -0.03048 0.20710 0.50930
 H265 H 0.05032 0.34490 0.50294
 H266 H 0.04966 0.40259 0.50060
 H267 H -0.05376 0.42446 0.49826
 H268 H -0.05314 0.36706 0.50073
 H269 H 0.04490 0.20464 0.49170
 H270 H 0.04307 0.14782 0.49199
 H271 H -0.05313 0.16680 0.51408
 H272 H -0.05131 0.22319 0.51418
 C273 C 0.49962 0.00083 -0.34127
 C274 C 0.49409 0.03061 -0.36515
 C275 C 0.49439 0.03055 -0.39768
 C276 C 0.50050 0.00064 -0.40717
 C277 C 0.50661 -0.02919 -0.38306
 C278 C 0.50601 -0.02906 -0.35059
 C279 C 0.49849 0.00096 -0.30692
 N280 N 0.49820 -0.02694 -0.28490
 N281 N 0.49703 -0.02676 -0.25407
 C282 C 0.49619 0.00132 -0.24391
 N283 N 0.49650 0.02921 -0.26592
 N284 N 0.49755 0.02906 -0.29677
 C285 C 0.49538 0.00150 -0.20951
 C286 C 0.50058 0.02866 -0.19787
 C287 C 0.50070 0.02859 -0.16529
 C288 C 0.49535 0.00150 -0.14364
 C289 C 0.48958 -0.02543 -0.15529
 C290 C 0.48977 -0.02552 -0.18787
 H291 H 0.48908 0.05409 -0.35881
 H292 H 0.48963 0.05406 -0.41539
 H293 H 0.51146 -0.05278 -0.38923
 H294 H 0.51057 -0.05246 -0.33279
 H295 H 0.50495 0.04988 -0.21383
 H296 H 0.50484 0.04984 -0.15701
 H297 H 0.48559 -0.04670 -0.13904
 H298 H 0.48557 -0.04679 -0.19607
 C299 C 0.48932 -0.00228 0.34348
 C300 C 0.48262 0.02800 0.35214
 C301 C 0.48347 0.02873 0.38472
 C302 C 0.49107 -0.00079 0.40934
 C303 C 0.49751 -0.03102 0.40064
 C304 C 0.49664 -0.03176 0.36814
 C305 C 0.48909 -0.00328 0.30907
 N306 N 0.49574 -0.03263 0.30095
 N307 N 0.49598 -0.03371 0.27020
 C308 C 0.48959 -0.00549 0.24616
 N309 N 0.48285 0.02390 0.25424
 N310 N 0.48261 0.02498 0.28504
 C311 C 0.49029 -0.00689 0.21199
 C312 C 0.48390 0.02220 0.18696
 C313 C 0.48500 0.02066 0.15486
 C314 C 0.49258 -0.00999 0.14709
 C315 C 0.49877 -0.03903 0.17206
 C316 C 0.49764 -0.03751 0.20409
 H317 H 0.47686 0.05118 0.33380
 H318 H 0.47838 0.05243 0.39061
 H319 H 0.50342 -0.05422 0.41899
 H320 H 0.50190 -0.05553 0.36241
 H321 H 0.47821 0.04621 0.19216
 H322 H 0.48042 0.04346 0.13619
 H323 H 0.50416 -0.06301 0.16678
 H324 H 0.50256 -0.06043 0.22267
 C325 C 0.49581 -0.35071 0.00086
 C326 C 0.49614 -0.36168 -0.02779
 C327 C 0.49786 -0.39486 -0.02707
 C328 C 0.49951 -0.41778 0.00235
 C329 C 0.49883 -0.40672 0.03087
 C330 C 0.49690 -0.37360 0.03012
 C331 C 0.49484 -0.31581 0.00055
 N332 N 0.49140 -0.30483 0.02763
 N333 N 0.49109 -0.27371 0.02777
 C334 C 0.49429 -0.25217 0.00088
 N335 N 0.49767 -0.26310 -0.02627
 N336 N 0.49792 -0.29426 -0.02643
 C337 C 0.49425 -0.21764 0.00142
 C338 C 0.50090 -0.19599 -0.02500
 C339 C 0.50111 -0.16355 -0.02406
 C340 C 0.49445 -0.15203 0.00321
 C341 C 0.48781 -0.17366 0.02957
 C342 C 0.48776 -0.20605 0.02871
 H343 H 0.49522 -0.34469 -0.05076
 H344 H 0.49839 -0.40264 -0.04945
 H345 H 0.49998 -0.42371 0.05393
 H346 H 0.49669 -0.36607 0.05265
 H347 H 0.50604 -0.20412 -0.04638
 H348 H 0.50608 -0.14732 -0.04481
 H349 H 0.48307 -0.16564 0.05111
 H350 H 0.48261 -0.22200 0.04954
 C351 C 0.52375 0.32527 0.01492
 C352 C 0.52947 0.34589 -0.01275
 C353 C 0.52759 0.37924 -0.01440
 C354 C 0.52058 0.39242 0.01186
 C355 C 0.51569 0.37159 0.03985
 C356 C 0.51696 0.33844 0.04124
 C357 C 0.52381 0.29051 0.01597
 N358 N 0.50710 0.27436 0.03574
 N359 N 0.50612 0.24344 0.03591
 C360 C 0.52205 0.22730 0.01653
 N361 N 0.53905 0.24333 -0.00301
 N362 N 0.53980 0.27437 -0.00338
 C363 C 0.51998 0.19342 0.01586
 C364 C 0.54388 0.17269 0.00512
 C365 C 0.54118 0.14111 0.00335
 C366 C 0.51421 0.12999 0.01165
 C367 C 0.49047 0.15053 0.02264
 C368 C 0.49349 0.18183 0.02504
 H369 H 0.53463 0.33644 -0.03346
 H370 H 0.53156 0.39472 -0.03622
 H371 H 0.51013 0.38111 0.06041
 H372 H 0.51260 0.32310 0.06294
 H373 H 0.56461 0.18093 -0.00197
 H374 H 0.55966 0.12569 -0.00536
 H375 H 0.46954 0.14233 0.02926
 H376 H 0.47464 0.19730 0.03329
 C377 C -0.34519 0.00291 0.51025
 C378 C -0.36976 0.03240 0.50275
 C379 C -0.40226 0.03168 0.50169
 C380 C -0.41103 0.00146 0.50813
 C381 C -0.38648 -0.02808 0.51596
 C382 C -0.35391 -0.02736 0.51700
 C383 C -0.31081 0.00390 0.51056
 N384 N -0.28683 -0.02437 0.51729
 N385 N -0.25605 -0.02330 0.51703
 C386 C -0.24796 0.00610 0.51002
 N387 N -0.27194 0.03432 0.50339
 N388 N -0.30267 0.03325 0.50366
 C389 C -0.21384 0.00749 0.50923
 C390 C -0.20597 0.03812 0.50134
 C391 C -0.17398 0.03963 0.50010
 C392 C -0.14905 0.01056 0.50672
 C393 C -0.15678 -0.02009 0.51485
 C394 C -0.18885 -0.02162 0.51604
 H395 H -0.36397 0.05617 0.49746
 H396 H -0.42056 0.05490 0.49562
 H397 H -0.39244 -0.05177 0.52105
 H398 H -0.33561 -0.05055 0.52290
 H399 H -0.22454 0.06105 0.49607
 H400 H -0.16869 0.06361 0.49428
 H401 H -0.13811 -0.04290 0.51978
 H402 H -0.19404 -0.04562 0.52216
 C403 C 0.33825 0.00005 0.49812
 C404 C 0.34803 0.02976 0.49423
 C405 C 0.38046 0.02991 0.49362
 C406 C 0.40390 0.00033 0.49710
 C407 C 0.39410 -0.02934 0.50069
 C408 C 0.36161 -0.02946 0.50107
 C409 C 0.30398 -0.00019 0.49942
 N410 N 0.29353 -0.02794 0.49901
 N411 N 0.26276 -0.02821 0.50027
 C412 C 0.24115 -0.00079 0.50213
 N413 N 0.25161 0.02695 0.50261
 N414 N 0.28237 0.02725 0.50126
 C415 C 0.20685 -0.00107 0.50316
 C416 C 0.18543 0.02569 0.50930
 C417 C 0.15292 0.02554 0.50964
 C418 C 0.14113 -0.00122 0.50354
 C419 C 0.16257 -0.02808 0.49773
 C420 C 0.19508 -0.02807 0.49764
 H421 H 0.33065 0.05295 0.49174
 H422 H 0.38724 0.05318 0.49088
 H423 H 0.41157 -0.05254 0.50340
 H424 H 0.35492 -0.05279 0.50411
 H425 H 0.19373 0.04683 0.51375
 H426 H 0.13681 0.04665 0.51398
 H427 H 0.15419 -0.04922 0.49336
 H428 H 0.21088 -0.04912 0.49290
 C429 C -0.00737 0.52650 1.32972
 C430 C -0.03665 0.52987 1.34131
 C431 C -0.03663 0.52817 1.37428
 C432 C -0.00732 0.52298 1.39632
 C433 C 0.02182 0.52017 1.38459
 C434 C 0.02179 0.52195 1.35174
 C435 C -0.00680 0.52678 1.29516
 N436 N 0.02179 0.52299 1.28459
 N437 N 0.02278 0.52206 1.25394
 C438 C -0.00477 0.52487 1.23244
 N439 N -0.03347 0.52891 1.24290
 N440 N -0.03446 0.52983 1.27363
 C441 C -0.00314 0.52258 1.19867
 C442 C -0.03144 0.52601 1.17581
 C443 C -0.02939 0.52264 1.14435
 C444 C 0.00100 0.51555 1.13523
 C445 C 0.02917 0.51265 1.15791
 C446 C 0.02714 0.51615 1.18919
 H447 H -0.05955 0.53346 1.32501
 H448 H -0.05949 0.53044 1.38258
 H449 H 0.04482 0.51628 1.40087
 H450 H 0.04481 0.51934 1.34373
 H451 H -0.05515 0.53101 1.18229
 H452 H -0.05148 0.52486 1.12737
 H453 H 0.05288 0.50778 1.15139
 H454 H 0.04945 0.51349 1.20603
 C455 C 0.00072 0.49998 0.65153
 C456 C 0.02908 0.49886 0.63852
 C457 C 0.02807 0.50023 0.60552
 C458 C -0.00138 0.50299 0.58473
 C459 C -0.02970 0.50385 0.59776
 C460 C -0.02864 0.50224 0.63080
 C461 C 0.00163 0.49915 0.68639
 N462 N -0.02468 0.49608 0.69989
 N463 N -0.02402 0.49559 0.73113
 C464 C 0.00294 0.49827 0.75021
 N465 N 0.02926 0.50136 0.73671
 N466 N 0.02863 0.50175 0.70548
 C467 C 0.00350 0.49777 0.78496
 C468 C 0.02943 0.50501 0.80376
 C469 C 0.02970 0.50459 0.83652
 C470 C 0.00420 0.49661 0.85120
 C471 C -0.02169 0.48940 0.83242
 C472 C -0.02209 0.49006 0.79969
 H473 H 0.05213 0.49700 0.65380
 H474 H 0.05031 0.49958 0.59623
 H475 H -0.05276 0.50592 0.58239
 H476 H -0.05096 0.50318 0.63998
 H477 H 0.04950 0.51111 0.79316
 H478 H 0.05004 0.51005 0.85050
 H479 H -0.04190 0.48363 0.84297
 H480 H -0.04247 0.48439 0.78598
   
