data_POSCAR
  _audit_creation_date              2014-09-24
  _audit_creation_method            'ToBaCCo'
  _symmetry_space_group_name_H-M    'P1'
  _symmetry_Int_Tables_number       1
  _symmetry_cell_setting            triclinic
  loop_
  _symmetry_equiv_pos_as_xyz
 x,y,z
_cell_length_a 50.1688
_cell_length_b 51.7744
_cell_length_c 52.1621
_cell_angle_alpha 86.394200
_cell_angle_beta 93.873900
_cell_angle_gamma 83.632100
loop_
  _atom_site_label
  _atom_site_type_symbol
  _atom_site_fract_x
  _atom_site_fract_y
  _atom_site_fract_z
N1 N 0.32976 0.22788 0.20503
 N2 N 0.32267 0.25295 0.19976
 C3 C 0.33822 0.26192 0.18198
 C4 C 0.35606 0.24132 0.17561
 C5 C 0.35010 0.22000 0.19073
 H6 H 0.33676 0.28202 0.17449
 H7 H 0.35967 0.20021 0.19113
 Cu8 Cu 0.29437 0.27225 0.21697
 Cu9 Cu 0.31184 0.20824 0.23039
 Cu10 Cu 0.25240 0.23395 0.24844
 N11 N 0.25880 0.28600 0.22733
 N12 N 0.24253 0.27133 0.23867
 C13 C 0.21950 0.28616 0.24234
 C14 C 0.22124 0.31143 0.23265
 C15 C 0.24650 0.31051 0.22327
 H16 H 0.20262 0.27894 0.25114
 H17 H 0.25530 0.32644 0.21400
 N18 N 0.27116 0.20163 0.26516
 N19 N 0.29464 0.19163 0.25836
 C20 C 0.30265 0.16936 0.27290
 C21 C 0.28305 0.16501 0.28974
 C22 C 0.26332 0.18600 0.28411
 H23 H 0.32132 0.15725 0.27116
 H24 H 0.24459 0.18982 0.29303
 H25 H 0.27381 0.24074 0.21580
 H26 H 0.28905 0.24637 0.24831
 N27 N 0.70379 -0.21623 0.21437
 N28 N 0.71661 -0.23739 0.20641
 C29 C 0.70326 -0.24385 0.18490
 C30 C 0.68068 -0.22575 0.17902
 C31 C 0.68191 -0.20848 0.19829
 H32 H 0.70943 -0.26068 0.17459
 H33 H 0.66785 -0.19166 0.20087
 Cu34 Cu 0.74901 -0.25472 0.22556
 Cu35 Cu 0.71567 -0.20066 0.24549
 Cu36 Cu 0.77349 -0.23102 0.27975
 N37 N 0.78185 -0.27120 0.24458
 N38 N 0.79112 -0.26195 0.26586
 C39 C 0.81355 -0.27709 0.27542
 C40 C 0.81885 -0.29709 0.25926
 C41 C 0.79814 -0.29255 0.23982
 H42 H 0.82502 -0.27360 0.29288
 H43 H 0.79489 -0.30397 0.22352
 N44 N 0.75275 -0.19949 0.29055
 N45 N 0.73083 -0.18790 0.27743
 C46 C 0.72118 -0.16718 0.28974
 C47 C 0.73778 -0.16556 0.31177
 C48 C 0.75762 -0.18644 0.31158
 H49 H 0.70325 -0.15434 0.28317
 H50 H 0.77428 -0.19195 0.32578
 H51 H 0.75600 -0.21414 0.24487
 H52 H 0.73520 -0.23457 0.26430
 N53 N 0.72576 0.23422 0.77023
 N54 N 0.73797 0.25102 0.78345
 C55 C 0.72230 0.25916 0.80206
 C56 C 0.69922 0.24668 0.80061
 C57 C 0.70217 0.23112 0.78014
 H58 H 0.72768 0.27257 0.81608
 H59 H 0.68830 0.21817 0.77315
 Cu60 Cu 0.77395 0.26055 0.77620
 Cu61 Cu 0.74183 0.21585 0.74201
 Cu62 Cu 0.80447 0.22767 0.73098
 N63 N 0.80518 0.27229 0.76042
 N64 N 0.81694 0.25928 0.74268
 C65 C 0.83758 0.27143 0.73492
 C66 C 0.83924 0.29341 0.74867
 C67 C 0.81821 0.29317 0.76482
 H68 H 0.85030 0.26452 0.72030
 H69 H 0.81247 0.30715 0.77857
 N70 N 0.78606 0.20393 0.71098
 N71 N 0.76135 0.19959 0.71503
 C72 C 0.75330 0.18276 0.69829
 C73 C 0.77410 0.17630 0.68280
 C74 C 0.79459 0.19018 0.69148
 H75 H 0.73368 0.17596 0.69735
 H76 H 0.81428 0.19027 0.68427
 H77 H 0.77438 0.22234 0.76571
 H78 H 0.76139 0.24920 0.74108
 N79 N 0.27162 -0.25357 0.77678
 N80 N 0.26823 -0.27709 0.78595
 C81 C 0.28081 -0.28169 0.80964
 C82 C 0.29289 -0.25985 0.81579
 C83 C 0.28657 -0.24236 0.79439
 H84 H 0.28083 -0.29955 0.82154
 H85 H 0.29263 -0.22304 0.79166
 Cu86 Cu 0.24749 -0.29956 0.76646
 Cu87 Cu 0.25657 -0.23974 0.74253
 Cu88 Cu 0.21109 -0.27560 0.71196
 N89 N 0.21806 -0.31669 0.75225
 N90 N 0.20359 -0.30733 0.73112
 C91 C 0.18404 -0.32263 0.72639
 C92 C 0.18629 -0.34274 0.74573
 C93 C 0.20830 -0.33816 0.76174
 H94 H 0.16917 -0.31901 0.71022
 H95 H 0.21648 -0.34911 0.77936
 N96 N 0.22176 -0.24298 0.69615
 N97 N 0.23910 -0.22937 0.70782
 C98 C 0.24267 -0.20861 0.69210
 C99 C 0.22682 -0.20906 0.66935
 C100 C 0.21381 -0.23117 0.67269
 H101 H 0.25584 -0.19420 0.69694
 H102 H 0.19992 -0.23842 0.65891
 H103 H 0.22333 -0.25987 0.74555
 H104 H 0.25046 -0.27430 0.72601
 N105 N 0.68500 -0.23452 0.81430
 N106 N 0.69246 -0.25896 0.82235
 C107 C 0.68006 -0.26466 0.84375
 C108 C 0.66382 -0.24258 0.84936
 C109 C 0.66759 -0.22383 0.83022
 H110 H 0.68219 -0.28365 0.85403
 H111 H 0.65807 -0.20399 0.82770
 Cu112 Cu 0.71698 -0.28119 0.80370
 Cu113 Cu 0.69645 -0.21883 0.78267
 Cu114 Cu 0.73851 -0.25863 0.74792
 N115 N 0.74812 -0.29869 0.78903
 N116 N 0.75622 -0.28992 0.76708
 C117 C 0.77730 -0.30602 0.76081
 C118 C 0.78305 -0.32613 0.78002
 C119 C 0.76396 -0.32064 0.79768
 H120 H 0.78755 -0.30298 0.74350
 H121 H 0.76140 -0.33178 0.81537
 N122 N 0.72565 -0.22219 0.73655
 N123 N 0.71002 -0.20688 0.74997
 C124 C 0.70483 -0.18326 0.73720
 C125 C 0.71797 -0.18363 0.71472
 C126 C 0.73104 -0.20865 0.71500
 H127 H 0.69243 -0.16694 0.74381
 H128 H 0.74333 -0.21655 0.70047
 H129 H 0.70184 -0.25263 0.76473
 H130 H 0.73236 -0.24306 0.78247
 N131 N 0.31215 0.21891 0.76161
 N132 N 0.29949 0.23998 0.76992
 C133 C 0.31551 0.24929 0.78801
 C134 C 0.33970 0.23322 0.79136
 C135 C 0.33674 0.21411 0.77419
 H136 H 0.30976 0.26639 0.79811
 H137 H 0.35137 0.19791 0.77104
 Cu138 Cu 0.26310 0.25381 0.75687
 Cu139 Cu 0.29507 0.19980 0.73525
 Cu140 Cu 0.23257 0.22090 0.70929
 N141 N 0.22638 0.26482 0.74134
 N142 N 0.21472 0.25229 0.72326
 C143 C 0.18990 0.26459 0.71658
 C144 C 0.18563 0.28598 0.73114
 C145 C 0.20930 0.28541 0.74662
 H146 H 0.17603 0.25843 0.70209
 H147 H 0.21390 0.29903 0.76066
 N148 N 0.25346 0.19026 0.69798
 N149 N 0.27787 0.18192 0.70797
 C150 C 0.28730 0.16075 0.69614
 C151 C 0.26776 0.15549 0.67769
 C152 C 0.24654 0.17472 0.67951
 H153 H 0.30708 0.15021 0.70039
 H154 H 0.22741 0.17729 0.66828
 H155 H 0.26536 0.23929 0.72090
 H156 H 0.25093 0.21890 0.74610
 N157 N 0.28215 -0.25422 0.22984
 N158 N 0.27963 -0.27806 0.22362
 C159 C 0.29254 -0.28271 0.20235
 C160 C 0.30391 -0.26056 0.19466
 C161 C 0.29685 -0.24283 0.21265
 H162 H 0.29313 -0.30078 0.19299
 H163 H 0.30211 -0.22319 0.21333
 Cu164 Cu 0.25919 -0.30074 0.24330
 Cu165 Cu 0.26604 -0.24012 0.25982
 Cu166 Cu 0.22105 -0.27675 0.28881
 N167 N 0.23003 -0.31848 0.25554
 N168 N 0.21487 -0.30911 0.27313
 C169 C 0.19555 -0.32478 0.27693
 C170 C 0.19874 -0.34505 0.26071
 C171 C 0.22096 -0.34028 0.24750
 H172 H 0.18000 -0.32124 0.29006
 H173 H 0.22968 -0.35138 0.23266
 N174 N 0.23046 -0.24346 0.30146
 N175 N 0.24761 -0.22957 0.29041
 C176 C 0.25023 -0.20836 0.30360
 C177 C 0.23394 -0.20880 0.32402
 C178 C 0.22168 -0.23139 0.32197
 H179 H 0.26306 -0.19366 0.29864
 H180 H 0.20774 -0.23876 0.33472
 H181 H 0.26052 -0.27456 0.28041
 H182 H 0.23361 -0.26127 0.25488
 N183 N 0.71988 0.24511 0.23388
 N184 N 0.72882 0.26578 0.22284
 C185 C 0.71549 0.27159 0.19953
 C186 C 0.69713 0.25377 0.19571
 C187 C 0.70059 0.23731 0.21796
 H188 H 0.71890 0.28767 0.18639
 H189 H 0.68946 0.22115 0.22257
 Cu190 Cu 0.75703 0.28407 0.23963
 Cu191 Cu 0.73280 0.23010 0.26876
 Cu192 Cu 0.77749 0.26246 0.30047
 N193 N 0.79000 0.29360 0.25671
 N194 N 0.79784 0.28513 0.28058
 C195 C 0.82069 0.29491 0.28775
 C196 C 0.82766 0.31056 0.26731
 C197 C 0.80756 0.30930 0.24789
 H198 H 0.83111 0.29116 0.30666
 H199 H 0.80575 0.31901 0.22879
 N200 N 0.76510 0.23151 0.31611
 N201 N 0.74803 0.21856 0.30349
 C202 C 0.74372 0.19745 0.31833
 C203 C 0.75902 0.19704 0.34157
 C204 C 0.77233 0.21909 0.33938
 H205 H 0.73073 0.18327 0.31237
 H206 H 0.78648 0.22556 0.35344
 H207 H 0.73732 0.26890 0.27009
 H208 H 0.76590 0.24795 0.25822
 C209 C 0.23726 -0.02304 0.40699
 C210 C 0.23521 0.00366 0.40564
 C211 C 0.24099 0.01067 0.43044
 N212 N 0.24659 -0.01083 0.44684
 C213 C 0.24424 -0.03147 0.43256
 C214 C 0.24256 0.03645 0.43729
 C215 C 0.24565 0.04322 0.46308
 C216 C 0.25289 0.06693 0.47042
 C217 C 0.25207 0.06654 0.49672
 C218 C 0.24435 0.04261 0.50475
 N219 N 0.24041 0.02853 0.48412
 C220 C 0.23974 0.03503 0.53045
 C221 C 0.23790 0.00894 0.53918
 C222 C 0.23077 0.00104 0.56341
 C223 C 0.23322 -0.02568 0.56479
 C224 C 0.24167 -0.03320 0.54133
 N225 N 0.24461 -0.01201 0.52574
 C226 C 0.24826 -0.05927 0.53536
 C227 C 0.25324 -0.06659 0.51028
 C228 C 0.26460 -0.09104 0.50464
 C229 C 0.26508 -0.09065 0.47829
 C230 C 0.25401 -0.06597 0.46851
 N231 N 0.24666 -0.05149 0.48813
 C232 C 0.25006 -0.05785 0.44196
 H233 H 0.23414 -0.03490 0.39093
 H234 H 0.23022 0.01645 0.38836
 H235 H 0.23535 -0.03332 0.48635
 H236 H 0.25808 0.08293 0.45809
 H237 H 0.25654 0.08217 0.50857
 H238 H 0.22465 0.01321 0.57858
 H239 H 0.22936 -0.03815 0.58124
 H240 H 0.27276 -0.10674 0.46756
 H241 H 0.23166 0.01127 0.48405
 H242 H 0.27180 -0.10750 0.51810
 C243 C 0.72587 0.06929 0.49827
 C244 C 0.72608 0.06790 0.52465
 C245 C 0.73707 0.04285 0.53322
 N246 N 0.74375 0.02898 0.51305
 C247 C 0.73684 0.04507 0.49166
 C248 C 0.74228 0.03365 0.55931
 C249 C 0.75020 0.00718 0.56737
 C250 C 0.76067 -0.00183 0.59201
 C251 C 0.76396 -0.02857 0.59257
 C252 C 0.75546 -0.03517 0.56824
 N253 N 0.74706 -0.01328 0.55301
 C254 C 0.75396 -0.06091 0.56123
 C255 C 0.75155 -0.06742 0.53538
 C256 C 0.74677 -0.09167 0.52747
 C257 C 0.74760 -0.09027 0.50119
 C258 C 0.75275 -0.06519 0.49396
 N259 N 0.75527 -0.05130 0.51487
 C260 C 0.75650 -0.05593 0.46860
 C261 C 0.75737 -0.02931 0.46125
 C262 C 0.76604 -0.01996 0.43811
 C263 C 0.76176 0.00677 0.43744
 C264 C 0.75067 0.01301 0.46021
 N265 N 0.74802 -0.00908 0.47461
 C266 C 0.74184 0.03859 0.46641
 H267 H 0.71866 0.08625 0.48547
 H268 H 0.71906 0.08357 0.53620
 H269 H 0.73748 -0.01031 0.49103
 H270 H 0.76525 0.00967 0.60803
 H271 H 0.77157 -0.04168 0.60907
 H272 H 0.74315 -0.10863 0.53937
 H273 H 0.74474 -0.10592 0.48884
 H274 H 0.76615 0.02008 0.42186
 H275 H 0.73680 -0.01246 0.53493
 H276 H 0.77430 -0.03123 0.42312
 C277 C 0.43953 0.27385 -0.03301
 C278 C 0.44005 0.27384 -0.00669
 C279 C 0.46446 0.28189 0.00152
 N280 N 0.47879 0.28691 -0.01888
 C281 C 0.46364 0.28190 -0.04001
 C282 C 0.47240 0.28591 0.02732
 C283 C 0.49852 0.29124 0.03560
 C284 C 0.50549 0.30018 0.05938
 C285 C 0.53275 0.30157 0.06055
 C286 C 0.54170 0.29347 0.03745
 N287 N 0.52073 0.28708 0.02241
 C288 C 0.56891 0.29073 0.03153
 C289 C 0.57709 0.28770 0.00641
 C290 C 0.60348 0.28185 0.00045
 C291 C 0.60297 0.28185 -0.02587
 C292 C 0.57628 0.28777 -0.03513
 N293 N 0.56051 0.29146 -0.01536
 C294 C 0.56711 0.29089 -0.06149
 C295 C 0.53958 0.29353 -0.07036
 C296 C 0.52967 0.30149 -0.09542
 C297 C 0.50241 0.30002 -0.09661
 C298 C 0.49638 0.29123 -0.07225
 N299 N 0.51918 0.28719 -0.05641
 C300 C 0.47055 0.28593 -0.06566
 H301 H 0.42319 0.26865 -0.04556
 H302 H 0.42421 0.26864 0.00504
 H303 H 0.52117 0.27786 -0.03806
 H304 H 0.49234 0.30504 0.07441
 H305 H 0.54465 0.30771 0.07666
 H306 H 0.62125 0.27798 0.01368
 H307 H 0.62030 0.27795 -0.03690
 H308 H 0.48861 0.30475 -0.11354
 H309 H 0.52204 0.27762 0.00550
 H310 H 0.54094 0.30758 -0.11126
 C311 C 0.45347 0.79975 0.08678
 C312 C 0.48065 0.80107 0.08742
 C313 C 0.48638 0.80790 0.06243
 N314 N 0.46361 0.81091 0.04661
 C315 C 0.44350 0.80569 0.06140
 C316 C 0.51210 0.81232 0.05486
 C317 C 0.51799 0.81624 0.02888
 C318 C 0.54120 0.82556 0.02094
 C319 C 0.54028 0.82473 -0.00538
 C320 C 0.51651 0.81500 -0.01282
 N321 N 0.50308 0.80980 0.00818
 C322 C 0.50869 0.80969 -0.03830
 C323 C 0.48228 0.80532 -0.04656
 C324 C 0.47456 0.79771 -0.07070
 C325 C 0.44731 0.79688 -0.07141
 C326 C 0.43930 0.80383 -0.04762
 N327 N 0.46067 0.80922 -0.03256
 C328 C 0.41243 0.80621 -0.04071
 C329 C 0.40492 0.81019 -0.01548
 C330 C 0.37870 0.81618 -0.00898
 C331 C 0.37972 0.81646 0.01744
 C332 C 0.40653 0.81067 0.02635
 N333 N 0.42169 0.80673 0.00617
 C334 C 0.41605 0.80732 0.05261
 H335 H 0.44234 0.79498 0.10316
 H336 H 0.49457 0.79743 0.10436
 H337 H 0.44173 0.79901 0.00736
 H338 H 0.55728 0.83204 0.03291
 H339 H 0.55551 0.83044 -0.01763
 H340 H 0.48720 0.79332 -0.08623
 H341 H 0.43484 0.79174 -0.08763
 H342 H 0.36262 0.82012 0.02882
 H343 H 0.48652 0.79945 0.00867
 H344 H 0.36066 0.81958 -0.02190
 C345 C -0.00568 0.41461 0.22952
 C346 C 0.02175 0.41238 0.23422
 C347 C 0.02775 0.43536 0.24436
 N348 N 0.00495 0.45152 0.24598
 C349 C -0.01549 0.43890 0.23684
 C350 C 0.05370 0.44039 0.25354
 C351 C 0.05950 0.46507 0.26105
 C352 C 0.08267 0.46956 0.27531
 C353 C 0.08126 0.49602 0.27739
 C354 C 0.05731 0.50700 0.26428
 N355 N 0.04422 0.48800 0.25430
 C356 C 0.04894 0.53406 0.26056
 C357 C 0.02262 0.54448 0.25123
 C358 C 0.01480 0.57043 0.24331
 C359 C -0.01244 0.57277 0.23731
 C360 C -0.02035 0.54819 0.24192
 N361 N 0.00111 0.53093 0.25044
 C362 C -0.04719 0.54233 0.24004
 C363 C -0.05403 0.51659 0.24218
 C364 C -0.07933 0.50995 0.24703
 C365 C -0.07811 0.48338 0.24621
 C366 C -0.05212 0.47451 0.24075
 N367 N -0.03756 0.49490 0.23832
 C368 C -0.04300 0.44837 0.23668
 H369 H -0.01711 0.39997 0.22174
 H370 H 0.03564 0.39566 0.23075
 H371 H -0.01852 0.49443 0.23152
 H372 H 0.09895 0.45525 0.28332
 H373 H 0.09629 0.50605 0.28728
 H374 H 0.02739 0.58607 0.24205
 H375 H -0.02501 0.59057 0.23057
 H376 H -0.09457 0.47192 0.24914
 H377 H 0.02738 0.49075 0.24126
 H378 H -0.09688 0.52292 0.25074
 C379 C 0.07455 0.47442 0.73313
 C380 C 0.07197 0.50097 0.72826
 C381 C 0.04730 0.51045 0.73650
 N382 N 0.03477 0.49064 0.74624
 C383 C 0.05134 0.46859 0.74412
 C384 C 0.03754 0.53708 0.73660
 C385 C 0.01114 0.54584 0.74259
 C386 C 0.00265 0.57094 0.74877
 C387 C -0.02446 0.57202 0.75170
 C388 C -0.03179 0.54756 0.74721
 N389 N -0.00998 0.53170 0.74166
 C390 C -0.05843 0.54102 0.74658
 C391 C -0.06466 0.51508 0.74771
 C392 C -0.09025 0.50775 0.74351
 C393 C -0.08779 0.48115 0.74776
 C394 C -0.06080 0.47313 0.75451
 N395 N -0.04671 0.49392 0.75454
 C396 C -0.04979 0.44719 0.76179
 C397 C -0.02179 0.43927 0.76509
 C398 C -0.01013 0.41578 0.77734
 C399 C 0.01710 0.41471 0.77495
 C400 C 0.02134 0.43756 0.76130
 N401 N -0.00249 0.45240 0.75531
 C402 C 0.04657 0.44346 0.75350
 H403 H 0.09163 0.46097 0.72917
 H404 H 0.08667 0.51203 0.71983
 H405 H -0.00574 0.46900 0.74274
 H406 H 0.01469 0.58689 0.75080
 H407 H -0.03735 0.58898 0.75639
 H408 H -0.10875 0.52026 0.73794
 H409 H -0.10406 0.46912 0.74609
 H410 H 0.03205 0.39880 0.78227
 H411 H -0.01013 0.51337 0.73464
 H412 H -0.02022 0.40086 0.78685
 C413 C 0.37543 0.26272 0.13773
 C414 C 0.39505 0.26342 0.11982
 C415 C 0.41662 0.24324 0.12101
 C416 C 0.41809 0.22265 0.14002
 C417 C 0.39838 0.22200 0.15767
 C418 C 0.37690 0.24201 0.15678
 C419 C 0.43629 0.24391 0.10316
 C420 C 0.43454 0.26442 0.08399
 C421 C 0.41285 0.28454 0.08271
 C422 C 0.39332 0.28395 0.10068
 C423 C 0.41102 0.30490 0.06338
 C424 C 0.43042 0.30530 0.04543
 C425 C 0.45197 0.28544 0.04659
 C426 C 0.45404 0.26508 0.06594
 H427 H 0.35885 0.27814 0.13656
 H428 H 0.43448 0.20702 0.14123
 H429 H 0.40020 0.20593 0.17221
 H430 H 0.45286 0.22844 0.10411
 H431 H 0.37673 0.29941 0.09970
 H432 H 0.39453 0.32044 0.06210
 H433 H 0.42869 0.32112 0.03058
 H434 H 0.47070 0.24973 0.06674
 C435 C 0.63854 0.79434 0.15575
 C436 C 0.61817 0.79444 0.13594
 C437 C 0.61969 0.77470 0.11844
 C438 C 0.64167 0.75530 0.12095
 C439 C 0.66187 0.75526 0.14076
 C440 C 0.66060 0.77465 0.15861
 C441 C 0.59916 0.77457 0.09883
 C442 C 0.57707 0.79393 0.09658
 C443 C 0.57562 0.81380 0.11403
 C444 C 0.59620 0.81395 0.13356
 C445 C 0.55351 0.83314 0.11173
 C446 C 0.53291 0.83272 0.09241
 C447 C 0.53413 0.81296 0.07518
 C448 C 0.55629 0.79367 0.07725
 H449 H 0.63681 0.80965 0.16890
 H450 H 0.64320 0.74004 0.10765
 H451 H 0.67833 0.73979 0.14194
 H452 H 0.60030 0.75936 0.08543
 H453 H 0.59503 0.82914 0.14698
 H454 H 0.55210 0.84852 0.12490
 H455 H 0.51594 0.84775 0.09089
 H456 H 0.55717 0.77843 0.06389
 C457 C 0.67295 0.26898 -0.16597
 C458 C 0.65212 0.27003 -0.14919
 C459 C 0.63509 0.25002 -0.14839
 C460 C 0.63897 0.22951 -0.16449
 C461 C 0.65964 0.22863 -0.18111
 C462 C 0.67694 0.24823 -0.18200
 C463 C 0.61459 0.25067 -0.13138
 C464 C 0.61089 0.27104 -0.11505
 C465 C 0.62768 0.29125 -0.11600
 C466 C 0.64816 0.29065 -0.13310
 C467 C 0.62387 0.31160 -0.09959
 C468 C 0.60390 0.31169 -0.08215
 C469 C 0.58745 0.29148 -0.08087
 C470 C 0.59085 0.27134 -0.09754
 H471 H 0.68592 0.28436 -0.16656
 H472 H 0.62612 0.21401 -0.16409
 H473 H 0.66227 0.21226 -0.19294
 H474 H 0.60167 0.23520 -0.13070
 H475 H 0.66113 0.30607 -0.13372
 H476 H 0.63647 0.32728 -0.10008
 H477 H 0.60140 0.32738 -0.06942
 H478 H 0.57815 0.25572 -0.09649
 C479 C 0.31561 0.76848 -0.15415
 C480 C 0.33168 0.77159 -0.13168
 C481 C 0.34157 0.74956 -0.11495
 C482 C 0.33502 0.72491 -0.12080
 C483 C 0.31910 0.72197 -0.14318
 C484 C 0.30933 0.74363 -0.16019
 C485 C 0.35817 0.75244 -0.09283
 C486 C 0.36529 0.77704 -0.08736
 C487 C 0.35518 0.79917 -0.10391
 C488 C 0.33829 0.79633 -0.12588
 C489 C 0.36268 0.82370 -0.09852
 C490 C 0.38066 0.82614 -0.07739
 C491 C 0.39106 0.80417 -0.06123
 C492 C 0.38301 0.77975 -0.06599
 H493 H 0.30808 0.78543 -0.16687
 H494 H 0.34245 0.70781 -0.10820
 H495 H 0.31485 0.70255 -0.14726
 H496 H 0.36593 0.73548 -0.08015
 H497 H 0.33071 0.81326 -0.13867
 H498 H 0.35515 0.84086 -0.11097
 H499 H 0.38697 0.84503 -0.07392
 H500 H 0.39136 0.76280 -0.05356
 C501 C 0.17851 0.33395 0.24729
 C502 C 0.15856 0.35538 0.24620
 C503 C 0.16047 0.37749 0.22938
 C504 C 0.18239 0.37789 0.21414
 C505 C 0.20216 0.35652 0.21537
 C506 C 0.20042 0.33427 0.23183
 C507 C 0.14038 0.39878 0.22793
 C508 C 0.11836 0.39823 0.24307
 C509 C 0.11658 0.37621 0.26010
 C510 C 0.13670 0.35496 0.26157
 C511 C 0.09455 0.37576 0.27526
 C512 C 0.07431 0.39676 0.27333
 C513 C 0.07574 0.41849 0.25620
 C514 C 0.09793 0.41925 0.24128
 H515 H 0.17696 0.31714 0.26030
 H516 H 0.18418 0.39467 0.20115
 H517 H 0.21860 0.35737 0.20308
 H518 H 0.14180 0.41567 0.21491
 H519 H 0.13524 0.33803 0.27454
 H520 H 0.09290 0.35910 0.28846
 H521 H 0.05735 0.39602 0.28505
 H522 H 0.09902 0.43607 0.22808
 C523 C 0.14717 0.63551 0.73162
 C524 C 0.13027 0.61592 0.73542
 C525 C 0.13587 0.59749 0.75679
 C526 C 0.15831 0.59881 0.77386
 C527 C 0.17497 0.61834 0.77005
 C528 C 0.16965 0.63716 0.74901
 C529 C 0.11890 0.57812 0.76091
 C530 C 0.09625 0.57696 0.74396
 C531 C 0.09064 0.59527 0.72245
 C532 C 0.10772 0.61460 0.71828
 C533 C 0.06789 0.59403 0.70557
 C534 C 0.05079 0.57496 0.71008
 C535 C 0.05619 0.55684 0.73146
 C536 C 0.07897 0.55789 0.74833
 H537 H 0.14245 0.64949 0.71520
 H538 H 0.16294 0.58478 0.79030
 H539 H 0.19196 0.61846 0.78389
 H540 H 0.12321 0.56407 0.77740
 H541 H 0.10335 0.62869 0.70183
 H542 H 0.06326 0.60788 0.68899
 H543 H 0.03323 0.57435 0.69695
 H544 H 0.08302 0.54397 0.76493
 C545 C -0.15674 0.66398 0.24346
 C546 C -0.13560 0.64361 0.24635
 C547 C -0.11709 0.64144 0.26822
 C548 C -0.11993 0.65977 0.28674
 C549 C -0.14093 0.68006 0.28372
 C550 C -0.15977 0.68250 0.26211
 C551 C -0.09605 0.62101 0.27126
 C552 C -0.09322 0.60275 0.25260
 C553 C -0.11164 0.60500 0.23059
 C554 C -0.13273 0.62537 0.22763
 C555 C -0.10865 0.58678 0.21189
 C556 C -0.08761 0.56653 0.21496
 C557 C -0.06931 0.56413 0.23677
 C558 C -0.07225 0.58225 0.25560
 H559 H -0.17063 0.66520 0.22653
 H560 H -0.10588 0.65843 0.30362
 H561 H -0.14225 0.69363 0.29862
 H562 H -0.08189 0.61934 0.28811
 H563 H -0.14689 0.62704 0.21078
 H564 H -0.12256 0.58821 0.19491
 H565 H -0.08556 0.55265 0.20032
 H566 H -0.05820 0.58028 0.27253
 C567 C -0.14198 0.33276 0.76236
 C568 C -0.12338 0.35100 0.75978
 C569 C -0.10458 0.34842 0.74085
 C570 C -0.10445 0.32759 0.72506
 C571 C -0.12283 0.30948 0.72779
 C572 C -0.14202 0.31174 0.74636
 C573 C -0.08624 0.36672 0.73788
 C574 C -0.08634 0.38763 0.75366
 C575 C -0.10489 0.39015 0.77286
 C576 C -0.12331 0.37183 0.77579
 C577 C -0.10476 0.41107 0.78870
 C578 C -0.08662 0.42944 0.78535
 C579 C -0.06846 0.42723 0.76606
 C580 C -0.06829 0.40618 0.75039
 H581 H -0.15625 0.33508 0.77694
 H582 H -0.09013 0.32531 0.71048
 H583 H -0.12187 0.29387 0.71497
 H584 H -0.07194 0.36474 0.72322
 H585 H -0.13762 0.37384 0.79043
 H586 H -0.11874 0.41329 0.80358
 H587 H -0.08686 0.44554 0.79766
 H588 H -0.05426 0.40449 0.73549
 C589 C 0.26157 0.14135 0.32512
 C590 C 0.26170 0.12053 0.34376
 C591 C 0.28369 0.10074 0.34677
 C592 C 0.30513 0.10211 0.33105
 C593 C 0.30487 0.12290 0.31258
 C594 C 0.28316 0.14281 0.30936
 C595 C 0.28398 0.07999 0.36548
 C596 C 0.26257 0.07884 0.38134
 C597 C 0.24053 0.09864 0.37831
 C598 C 0.24021 0.11930 0.35950
 C599 C 0.21923 0.09754 0.39429
 C600 C 0.21985 0.07716 0.41326
 C601 C 0.24167 0.05751 0.41644
 C602 C 0.26295 0.05835 0.40037
 H603 H 0.24462 0.15637 0.32308
 H604 H 0.32216 0.08712 0.33308
 H605 H 0.32183 0.12325 0.30089
 H606 H 0.30090 0.06485 0.36780
 H607 H 0.22332 0.13448 0.35723
 H608 H 0.20221 0.11254 0.39225
 H609 H 0.20336 0.07672 0.42560
 H610 H 0.27987 0.04323 0.40298
 C611 C 0.75538 0.14062 0.65942
 C612 C 0.75595 0.12345 0.63964
 C613 C 0.77578 0.12421 0.62167
 C614 C 0.79464 0.14212 0.62378
 C615 C 0.79402 0.15905 0.64360
 C616 C 0.77446 0.15847 0.66164
 C617 C 0.77656 0.10696 0.60200
 C618 C 0.75787 0.08881 0.60017
 C619 C 0.73800 0.08804 0.61812
 C620 C 0.73712 0.10543 0.63769
 C621 C 0.71946 0.06973 0.61632
 C622 C 0.72073 0.05219 0.59704
 C623 C 0.74045 0.05282 0.57925
 C624 C 0.75890 0.07122 0.58080
 H625 H 0.74033 0.13971 0.67328
 H626 H 0.80994 0.14301 0.61015
 H627 H 0.80880 0.17272 0.64458
 H628 H 0.79181 0.10752 0.58825
 H629 H 0.72192 0.10480 0.65148
 H630 H 0.70412 0.06886 0.62990
 H631 H 0.70642 0.03802 0.59600
 H632 H 0.77420 0.07154 0.56709
 C633 C 0.24328 -0.17200 0.64383
 C634 C 0.24107 -0.15387 0.62241
 C635 C 0.21985 -0.15381 0.60314
 C636 C 0.20131 -0.17201 0.60561
 C637 C 0.20364 -0.18999 0.62702
 C638 C 0.22455 -0.19015 0.64643
 C639 C 0.21743 -0.13549 0.58184
 C640 C 0.23591 -0.11715 0.57964
 C641 C 0.25723 -0.11734 0.59889
 C642 C 0.25971 -0.13573 0.62008
 C643 C 0.27562 -0.09895 0.59677
 C644 C 0.27277 -0.08032 0.57594
 C645 C 0.25157 -0.07982 0.55689
 C646 C 0.23329 -0.09840 0.55867
 H647 H 0.25973 -0.17194 0.65836
 H648 H 0.18490 -0.17227 0.59104
 H649 H 0.18879 -0.20355 0.62844
 H650 H 0.20108 -0.13539 0.56711
 H651 H 0.27601 -0.13578 0.63485
 H652 H 0.29208 -0.09884 0.61131
 H653 H 0.28701 -0.06610 0.57471
 H654 H 0.21690 -0.09795 0.54394
 C655 C 0.75379 -0.14679 0.35259
 C656 C 0.75075 -0.12860 0.37132
 C657 C 0.72832 -0.10930 0.36894
 C658 C 0.70935 -0.10850 0.34787
 C659 C 0.71249 -0.12668 0.32932
 C660 C 0.73468 -0.14608 0.33143
 C661 C 0.72516 -0.09115 0.38766
 C662 C 0.74416 -0.09209 0.40878
 C663 C 0.76665 -0.11139 0.41117
 C664 C 0.76981 -0.12951 0.39241
 C665 C 0.78561 -0.11225 0.43233
 C666 C 0.78231 -0.09419 0.45097
 C667 C 0.76001 -0.07505 0.44874
 C668 C 0.74101 -0.07405 0.42760
 H669 H 0.77108 -0.16143 0.35466
 H670 H 0.69202 -0.09383 0.34574
 H671 H 0.69734 -0.12544 0.31341
 H672 H 0.70793 -0.07634 0.38582
 H673 H 0.78704 -0.14432 0.39427
 H674 H 0.80297 -0.12688 0.43446
 H675 H 0.79714 -0.09507 0.46718
 H676 H 0.72378 -0.05925 0.42595
 C677 C 0.62485 0.78120 -0.13094
 C678 C 0.60659 0.78337 -0.11178
 C679 C 0.60869 0.76420 -0.09099
 C680 C 0.62915 0.74330 -0.08967
 C681 C 0.64719 0.74121 -0.10892
 C682 C 0.64518 0.76003 -0.12981
 C683 C 0.59016 0.76610 -0.07203
 C684 C 0.56941 0.78681 -0.07376
 C685 C 0.56739 0.80605 -0.09452
 C686 C 0.58606 0.80426 -0.11332
 C687 C 0.54652 0.82665 -0.09627
 C688 C 0.52759 0.82798 -0.07782
 C689 C 0.52932 0.80881 -0.05737
 C690 C 0.55039 0.78840 -0.05525
 H691 H 0.62276 0.79578 -0.14696
 H692 H 0.63111 0.72846 -0.07383
 H693 H 0.66274 0.72483 -0.10734
 H694 H 0.59170 0.75134 -0.05613
 H695 H 0.58444 0.81896 -0.12929
 H696 H 0.54471 0.84157 -0.11202
 H697 H 0.51143 0.84385 -0.07955
 H698 H 0.55163 0.77362 -0.03940
 C699 C 0.36366 0.25749 -0.17551
 C700 C 0.38548 0.25960 -0.15773
 C701 C 0.40742 0.23976 -0.15477
 C702 C 0.40722 0.21827 -0.16979
 C703 C 0.38537 0.21625 -0.18736
 C704 C 0.36324 0.23572 -0.19037
 C705 C 0.42903 0.24159 -0.13667
 C706 C 0.42884 0.26290 -0.12131
 C707 C 0.40694 0.28285 -0.12441
 C708 C 0.38550 0.28113 -0.14268
 C709 C 0.40667 0.30403 -0.10889
 C710 C 0.42762 0.30521 -0.09012
 C711 C 0.44922 0.28534 -0.08670
 C712 C 0.44995 0.26439 -0.10254
 H713 H 0.34703 0.27285 -0.17755
 H714 H 0.42388 0.20288 -0.16780
 H715 H 0.38584 0.19923 -0.19838
 H716 H 0.44580 0.22628 -0.13431
 H717 H 0.36866 0.29637 -0.14494
 H718 H 0.39007 0.31948 -0.11103
 H719 H 0.42688 0.32146 -0.07799
 H720 H 0.46665 0.24903 -0.09979
 C721 C 0.32554 0.76809 0.16335
 C722 C 0.34097 0.77139 0.14213
 C723 C 0.35106 0.74939 0.12949
 C724 C 0.34546 0.72457 0.13816
 C725 C 0.33016 0.72145 0.15926
 C726 C 0.32005 0.74310 0.17215
 C727 C 0.36680 0.75247 0.10856
 C728 C 0.37284 0.77726 0.10020
 C729 C 0.36265 0.79935 0.11269
 C730 C 0.34666 0.79629 0.13349
 C731 C 0.36908 0.82409 0.10442
 C732 C 0.38593 0.82681 0.08438
 C733 C 0.39627 0.80490 0.07218
 C734 C 0.38943 0.78024 0.07989
 H735 H 0.31777 0.78503 0.17287
 H736 H 0.35309 0.70750 0.12873
 H737 H 0.32659 0.70193 0.16559
 H738 H 0.37464 0.73554 0.09899
 H739 H 0.33896 0.81320 0.14316
 H740 H 0.36149 0.84123 0.11375
 H741 H 0.39131 0.84591 0.07862
 H742 H 0.39771 0.76334 0.07054
 C743 C 0.67279 0.27343 0.15399
 C744 C 0.65354 0.27277 0.13323
 C745 C 0.63868 0.25118 0.13170
 C746 C 0.64348 0.23057 0.15072
 C747 C 0.66263 0.23137 0.17124
 C748 C 0.67739 0.25283 0.17329
 C749 C 0.61918 0.25055 0.11126
 C750 C 0.61434 0.27122 0.09225
 C751 C 0.62934 0.29275 0.09359
 C752 C 0.64883 0.29340 0.11409
 C753 C 0.62452 0.31330 0.07439
 C754 C 0.60496 0.31258 0.05414
 C755 C 0.58992 0.29136 0.05284
 C756 C 0.59467 0.27072 0.07191
 H757 H 0.68383 0.29018 0.15517
 H758 H 0.63236 0.21383 0.14977
 H759 H 0.66578 0.21501 0.18547
 H760 H 0.60773 0.23401 0.11019
 H761 H 0.66024 0.30996 0.11518
 H762 H 0.63583 0.32994 0.07507
 H763 H 0.60139 0.32863 0.03951
 H764 H 0.58303 0.25433 0.07081
 C765 C -0.17945 0.64936 0.76087
 C766 C -0.15916 0.62829 0.76185
 C767 C -0.15556 0.61006 0.78345
 C768 C -0.17242 0.61315 0.80362
 C769 C -0.19267 0.63412 0.80249
 C770 C -0.19652 0.65263 0.78114
 C771 C -0.13514 0.58907 0.78456
 C772 C -0.11831 0.58611 0.76427
 C773 C -0.12204 0.60430 0.74256
 C774 C -0.14242 0.62525 0.74151
 C775 C -0.10523 0.60129 0.72229
 C776 C -0.08476 0.58056 0.72356
 C777 C -0.08079 0.56254 0.74509
 C778 C -0.09766 0.56533 0.76539
 H779 H -0.18176 0.66301 0.74408
 H780 H -0.16996 0.59934 0.82034
 H781 H -0.20510 0.63568 0.81857
 H782 H -0.13233 0.57512 0.80119
 H783 H -0.14521 0.63922 0.72488
 H784 H -0.10783 0.61502 0.70552
 H785 H -0.07186 0.57858 0.70780
 H786 H -0.09449 0.55144 0.78206
 C787 C -0.14757 0.34549 0.24728
 C788 C -0.12616 0.36085 0.24783
 C789 C -0.10581 0.35649 0.26826
 C790 C -0.10694 0.33660 0.28747
 C791 C -0.12830 0.32150 0.28683
 C792 C -0.14903 0.32592 0.26697
 C793 C -0.08487 0.37228 0.26940
 C794 C -0.08406 0.39255 0.25047
 C795 C -0.10414 0.39672 0.22977
 C796 C -0.12501 0.38078 0.22854
 C797 C -0.10322 0.41707 0.21089
 C798 C -0.08296 0.43348 0.21281
 C799 C -0.06331 0.42975 0.23358
 C800 C -0.06377 0.40907 0.25220
 H801 H -0.16333 0.34924 0.23183
 H802 H -0.09141 0.33288 0.30316
 H803 H -0.12847 0.30637 0.30206
 H804 H -0.06943 0.36905 0.28523
 H805 H -0.14055 0.38415 0.21281
 H806 H -0.11837 0.42053 0.19486
 H807 H -0.08280 0.44938 0.19832
 H808 H -0.04866 0.40630 0.26831
 C809 C 0.16012 0.32597 0.74662
 C810 C 0.13742 0.34459 0.74544
 C811 C 0.11537 0.34272 0.72758
 C812 C 0.11638 0.32216 0.71132
 C813 C 0.13909 0.30374 0.71256
 C814 C 0.16129 0.30541 0.73013
 C815 C 0.09278 0.36151 0.72614
 C816 C 0.09206 0.38227 0.74222
 C817 C 0.11411 0.38406 0.76018
 C818 C 0.13658 0.36517 0.76173
 C819 C 0.11344 0.40489 0.77615
 C820 C 0.09132 0.42399 0.77412
 C821 C 0.06950 0.42250 0.75619
 C822 C 0.06981 0.40149 0.74044
 H823 H 0.17684 0.32772 0.76037
 H824 H 0.09965 0.32039 0.69753
 H825 H 0.13913 0.28828 0.69956
 H826 H 0.07590 0.36011 0.71236
 H827 H 0.15350 0.36663 0.77544
 H828 H 0.13013 0.40653 0.79003
 H829 H 0.09124 0.44010 0.78640
 H830 H 0.05293 0.40041 0.72658
 C831 C 0.15974 0.63085 0.27229
 C832 C 0.14291 0.61131 0.26805
 C833 C 0.14792 0.59424 0.24836
 C834 C 0.16978 0.59678 0.23347
 C835 C 0.18634 0.61626 0.23773
 C836 C 0.18147 0.63369 0.25701
 C837 C 0.13086 0.57509 0.24364
 C838 C 0.10868 0.57287 0.25825
 C839 C 0.10378 0.58975 0.27816
 C840 C 0.12098 0.60878 0.28300
 C841 C 0.08150 0.58752 0.29266
 C842 C 0.06398 0.56908 0.28721
 C843 C 0.06851 0.55255 0.26724
 C844 C 0.09105 0.55431 0.25299
 H845 H 0.15566 0.64388 0.28734
 H846 H 0.17394 0.58383 0.21833
 H847 H 0.20279 0.61768 0.22557
 H848 H 0.13465 0.56214 0.22840
 H849 H 0.11710 0.62182 0.29815
 H850 H 0.07744 0.60024 0.30801
 H851 H 0.04666 0.56786 0.29835
 H852 H 0.09446 0.54158 0.23752
 C853 C 0.73782 -0.16244 0.67708
 C854 C 0.73744 -0.14217 0.65784
 C855 C 0.71652 -0.12130 0.65594
 C856 C 0.69653 -0.12093 0.67345
 C857 C 0.69714 -0.14110 0.69262
 C858 C 0.71768 -0.16209 0.69458
 C859 C 0.71586 -0.10117 0.63656
 C860 C 0.73593 -0.10158 0.61910
 C861 C 0.75705 -0.12228 0.62115
 C862 C 0.75765 -0.14247 0.64049
 C863 C 0.77719 -0.12247 0.60374
 C864 C 0.77631 -0.10243 0.58438
 C865 C 0.75523 -0.08201 0.58205
 C866 C 0.73515 -0.08161 0.59953
 H867 H 0.75397 -0.17831 0.67852
 H868 H 0.68036 -0.10509 0.67228
 H869 H 0.68124 -0.14039 0.70566
 H870 H 0.69973 -0.08524 0.63503
 H871 H 0.77377 -0.15841 0.64200
 H872 H 0.79357 -0.13812 0.60509
 H873 H 0.79202 -0.10284 0.57109
 H874 H 0.71890 -0.06580 0.59772
 C875 C 0.24874 -0.17072 0.34660
 C876 C 0.24565 -0.15235 0.36517
 C877 C 0.22415 -0.15261 0.38132
 C878 C 0.20617 -0.17132 0.37863
 C879 C 0.20939 -0.18955 0.36008
 C880 C 0.23065 -0.18947 0.34382
 C881 C 0.22094 -0.13417 0.39983
 C882 C 0.23896 -0.11543 0.40236
 C883 C 0.26052 -0.11524 0.38623
 C884 C 0.26373 -0.13370 0.36778
 C885 C 0.27850 -0.09650 0.38874
 C886 C 0.27510 -0.07801 0.40696
 C887 C 0.25369 -0.07792 0.42293
 C888 C 0.23572 -0.09676 0.42067
 H889 H 0.26541 -0.17044 0.33449
 H890 H 0.18955 -0.17181 0.39081
 H891 H 0.19499 -0.20354 0.35838
 H892 H 0.20441 -0.13436 0.41219
 H893 H 0.28025 -0.13349 0.35541
 H894 H 0.29514 -0.09609 0.37657
 H895 H 0.28915 -0.06364 0.40860
 H896 H 0.21919 -0.09668 0.43303
 C897 C 0.74418 0.15727 0.36399
 C898 C 0.74667 0.13800 0.38443
 C899 C 0.76655 0.13843 0.40489
 C900 C 0.78349 0.15818 0.40458
 C901 C 0.78093 0.17725 0.38413
 C902 C 0.76134 0.17700 0.36354
 C903 C 0.76926 0.11906 0.42525
 C904 C 0.75240 0.09919 0.42534
 C905 C 0.73245 0.09880 0.40489
 C906 C 0.72968 0.11823 0.38462
 C907 C 0.71568 0.07885 0.40499
 C908 C 0.71871 0.05940 0.42510
 C909 C 0.73846 0.05965 0.44542
 C910 C 0.75526 0.07959 0.44549
 H911 H 0.72881 0.15677 0.34850
 H912 H 0.79886 0.15880 0.42009
 H913 H 0.79457 0.19201 0.38444
 H914 H 0.78455 0.11938 0.44092
 H915 H 0.71441 0.11788 0.36893
 H916 H 0.70032 0.07823 0.38948
 H917 H 0.70567 0.04407 0.42485
 H918 H 0.77062 0.07963 0.46114
 C919 C 0.24972 0.13426 0.63908
 C920 C 0.25134 0.11442 0.62190
 C921 C 0.27290 0.09418 0.62528
 C922 C 0.29237 0.09411 0.64585
 C923 C 0.29063 0.11393 0.66286
 C924 C 0.26936 0.13428 0.65969
 C925 C 0.27469 0.07442 0.60804
 C926 C 0.25520 0.07466 0.58739
 C927 C 0.23357 0.09487 0.58405
 C928 C 0.23178 0.11459 0.60132
 C929 C 0.21413 0.09508 0.56338
 C930 C 0.21612 0.07552 0.54612
 C931 C 0.23753 0.05544 0.54925
 C932 C 0.25704 0.05508 0.56993
 H933 H 0.23326 0.14978 0.63611
 H934 H 0.30900 0.07872 0.64879
 H935 H 0.30597 0.11314 0.67857
 H936 H 0.29127 0.05893 0.61063
 H937 H 0.21521 0.13010 0.59870
 H938 H 0.19744 0.11041 0.56053
 H939 H 0.20097 0.07602 0.53022
 H940 H 0.27366 0.03963 0.57225
   
