data_POSCAR
  _audit_creation_date              2014-09-24
  _audit_creation_method            'ToBaCCo'
  _symmetry_space_group_name_H-M    'P1'
  _symmetry_Int_Tables_number       1
  _symmetry_cell_setting            triclinic
  loop_
  _symmetry_equiv_pos_as_xyz
 x,y,z
_cell_length_a 25.6571
_cell_length_b 25.6838
_cell_length_c 67.4286
_cell_angle_alpha 79.798000
_cell_angle_beta 95.101600
_cell_angle_gamma 120.008400
loop_
  _atom_site_label
  _atom_site_type_symbol
  _atom_site_fract_x
  _atom_site_fract_y
  _atom_site_fract_z
C1 C -0.01722 0.16067 0.51483
 H2 H 0.02928 0.17615 0.51168
 C3 C -0.03064 0.19296 0.52611
 H4 H 0.00588 0.23350 0.53118
 C5 C -0.12029 0.08654 0.51347
 H6 H -0.15493 0.04441 0.50889
 C7 C -0.13567 0.11698 0.52508
 H8 H -0.18229 0.09802 0.52917
 N9 N -0.06171 0.10842 0.50875
 C10 C -0.02617 -0.04153 0.51172
 H11 H -0.01782 -0.04032 0.49615
 C12 C -0.03199 -0.09039 0.52624
 H13 H -0.02747 -0.12638 0.52174
 C14 C -0.04563 0.00220 0.53627
 H15 H -0.05176 0.03785 0.54012
 C16 C -0.05246 -0.04595 0.55115
 H17 H -0.06330 -0.04635 0.56636
 Zn18 Zn -0.03718 0.06254 0.49665
 N19 N -0.03375 0.00310 0.51692
 C20 C 0.08450 0.10384 0.48545
 N21 N 0.03886 0.11682 0.48418
 C22 C 0.04392 0.16811 0.47252
 C23 C 0.09596 0.20841 0.46138
 C24 C 0.13707 0.14240 0.47413
 C25 C -0.14731 -0.02805 0.48204
 C26 C -0.18348 -0.06537 0.46791
 C27 C -0.10531 -0.00201 0.44311
 C28 C -0.07140 0.03429 0.45757
 N29 N -0.09209 0.02037 0.47672
 H30 H 0.07954 0.06277 0.49474
 H31 H 0.00664 0.17692 0.47152
 H32 H 0.09830 0.24826 0.45191
 H33 H 0.17240 0.13073 0.47486
 H34 H -0.16210 -0.03975 0.49751
 H35 H -0.22647 -0.10448 0.47279
 H36 H -0.08609 0.01005 0.42821
 H37 H -0.02717 0.07204 0.45355
 C38 C -0.04671 -0.09363 0.54616
 C39 C -0.09034 0.17053 0.53177
 C40 C -0.16181 -0.05393 0.44819
 C41 C 0.14292 0.19523 0.46178
 C42 C 1.21356 0.09665 0.14177
 H43 H 1.21843 0.14054 0.14261
 C44 C 1.24983 0.09242 0.12873
 H45 H 1.28301 0.13363 0.11978
 C46 C 1.16245 -0.01020 0.15203
 H47 H 1.12758 -0.05000 0.16092
 C48 C 1.19807 -0.01658 0.13907
 H49 H 1.19024 -0.06157 0.13812
 N50 N 1.16997 0.04578 0.15271
 C51 C 1.02279 0.08331 0.15412
 H52 H 1.02076 0.08694 0.16974
 C53 C 0.97651 0.08059 0.14083
 H54 H 0.93938 0.08294 0.14625
 C55 C 1.07040 0.06987 0.12845
 H56 H 1.10540 0.06321 0.12371
 C57 C 1.02514 0.06632 0.11485
 H58 H 1.02695 0.05833 0.09975
 Zn59 Zn 1.11917 0.06048 0.16676
 N60 N 1.06778 0.07654 0.14783
 C61 C 1.16209 0.17428 0.18155
 N62 N 1.16992 0.12606 0.18076
 C63 C 1.21388 0.11907 0.19157
 C64 C 1.25025 0.15963 0.20459
 C65 C 1.19783 0.21635 0.19447
 C66 C 1.02319 -0.05869 0.17942
 C67 C 0.97705 -0.10234 0.19272
 C68 C 1.02570 -0.03955 0.21872
 C69 C 1.07086 0.00224 0.20512
 N70 N 1.06813 -0.00696 0.18572
 H71 H 1.12688 0.17894 0.17277
 H72 H 1.21902 0.08026 0.19064
 H73 H 1.28374 0.15182 0.21342
 H74 H 1.18981 0.25335 0.19550
 H75 H 1.02109 -0.06425 0.16379
 H76 H 0.93996 -0.14183 0.18729
 H77 H 1.02753 -0.02983 0.23384
 H78 H 1.10586 0.04388 0.20987
 C79 C 0.97644 0.06968 0.12114
 C80 C 1.24147 0.03518 0.12685
 C81 C 0.97704 -0.09158 0.21242
 C82 C 1.24162 0.20827 0.20657
 C83 C 0.04238 0.87382 0.86075
 H84 H 0.00514 0.82774 0.86177
 C85 C 0.09435 0.88565 0.87197
 H86 H 0.09669 0.84821 0.88149
 C87 C 0.08285 0.97858 0.84777
 H88 H 0.07785 1.01464 0.83846
 C89 C 0.13534 0.99267 0.85916
 H90 H 0.17058 1.03967 0.85845
 N91 N 0.03730 0.91996 0.84903
 C92 C -0.14884 0.87889 0.85110
 H93 H -0.16362 0.87593 0.83562
 C94 C -0.18491 0.88018 0.86524
 H95 H -0.22782 0.87666 0.86043
 C96 C -0.07295 0.89217 0.87561
 H97 H -0.02875 0.89857 0.87964
 C98 C -0.10686 0.89460 0.89006
 H99 H -0.08791 0.90173 0.90499
 Zn100 Zn -0.03875 0.89817 0.83652
 N101 N -0.09364 0.88551 0.85644
 C102 C -0.12183 0.79163 0.81946
 N103 N -0.06334 0.82772 0.82443
 C104 C -0.01898 0.81930 0.81861
 C105 C -0.03245 0.77353 0.80735
 C106 C -0.13723 0.74581 0.80786
 C107 C -0.02774 1.01322 0.82142
 C108 C -0.03345 1.05632 0.80690
 C109 C -0.05384 0.99148 0.78197
 C110 C -0.04708 0.95012 0.79686
 N111 N -0.03531 0.96103 0.81622
 H112 H -0.15634 0.79967 0.82382
 H113 H 0.02749 0.84985 0.82194
 H114 H 0.00400 0.76900 0.80249
 H115 H -0.18375 0.71870 0.80355
 H116 H -0.01945 1.02032 0.83699
 H117 H -0.02890 1.09683 0.81139
 H118 H -0.06461 0.98109 0.76676
 H119 H -0.05314 0.90837 0.79300
 C120 C -0.16318 0.89013 0.88492
 C121 C 0.14121 0.94581 0.87158
 C122 C -0.04809 1.04490 0.78696
 C123 C -0.09203 0.73691 0.80144
 C124 C 0.44437 0.00542 0.01559
 C125 C 0.41709 0.00830 -0.00315
 C126 C 0.43806 0.00180 -0.02049
 C127 C 0.48973 -0.00508 -0.01932
 C128 C 0.51872 -0.00683 -0.00048
 C129 C 0.49577 -0.00186 0.01707
 C130 C 0.52566 -0.00280 0.03552
 C131 C 0.57713 -0.00827 0.03676
 C132 C 0.60141 -0.01210 0.01955
 C133 C 0.57114 -0.01287 0.00079
 C134 C 0.51448 -0.00794 -0.03660
 C135 C 0.56535 -0.01454 -0.03535
 C136 C 0.59360 -0.01876 -0.01676
 C137 C 0.64494 -0.02643 -0.01521
 C138 C 0.67434 -0.02463 0.00338
 C139 C 0.65459 -0.01616 0.02059
 H140 H 0.50997 0.00131 0.04921
 H141 H 0.59719 -0.01010 0.05146
 H142 H 0.49551 -0.00386 -0.05138
 H143 H 0.58295 -0.01459 -0.04930
 H144 H 0.37726 0.01318 -0.00408
 H145 H 0.71439 -0.02908 0.00445
 C146 C -0.13698 0.33481 0.64485
 C147 C -0.13541 0.29723 0.66234
 C148 C -0.13218 0.31237 0.68154
 C149 C -0.13393 0.36568 0.68336
 C150 C -0.13443 0.40501 0.66570
 C151 C -0.13580 0.38958 0.64639
 C152 C -0.13829 0.42813 0.62918
 C153 C -0.13707 0.48198 0.63080
 C154 C -0.13358 0.49948 0.64970
 C155 C -0.13436 0.45951 0.66736
 C156 C -0.13754 0.37963 0.70226
 C157 C -0.13868 0.43231 0.70388
 C158 C -0.13592 0.47348 0.68668
 C159 C -0.13700 0.52713 0.68821
 C160 C -0.13513 0.56642 0.67072
 C161 C -0.13170 0.55459 0.65153
 H162 H -0.14209 0.41670 0.61424
 H163 H -0.14084 0.50862 0.61702
 H164 H -0.14147 0.34916 0.71604
 H165 H -0.14262 0.43987 0.71882
 H166 H -0.13403 0.25656 0.66086
 H167 H -0.13370 0.60850 0.67220
 C168 C 0.64592 0.67281 0.34870
 C169 C 0.67508 0.70048 0.33008
 C170 C 0.65524 0.67234 0.31286
 C171 C 0.60215 0.61507 0.31391
 C172 C 0.57209 0.58548 0.33269
 C173 C 0.59469 0.61376 0.35025
 C174 C 0.56666 0.58118 0.36885
 C175 C 0.51589 0.52367 0.37010
 C176 C 0.49100 0.49614 0.35282
 C177 C 0.51976 0.52698 0.33396
 C178 C 0.57779 0.58702 0.29670
 C179 C 0.52637 0.53008 0.29794
 C180 C 0.49668 0.49916 0.31640
 C181 C 0.44535 0.44047 0.31787
 C182 C 0.41833 0.41019 0.33663
 C183 C 0.43943 0.43755 0.35399
 H184 H 0.58434 0.59873 0.38281
 H185 H 0.49709 0.50053 0.38490
 H186 H 0.59772 0.60897 0.28198
 H187 H 0.51060 0.51035 0.28422
 H188 H 0.71507 0.74500 0.32899
 H189 H 0.37858 0.36546 0.33757
 C190 C -0.12302 0.25035 0.57479
 N191 N -0.07188 0.28169 0.56364
 N192 N -0.06247 0.25705 0.54951
 C193 C -0.10390 0.20024 0.54590
 N194 N -0.15565 0.16943 0.55680
 N195 N -0.16496 0.19394 0.57102
 C196 C -0.13020 0.27475 0.59185
 N197 N -0.17523 0.23881 0.60538
 N198 N -0.17846 0.25882 0.62190
 C199 C -0.13715 0.31572 0.62541
 N200 N -0.09232 0.35185 0.61181
 N201 N -0.08892 0.33172 0.59533
 C202 C 0.82811 0.80269 0.25082
 N203 N 0.84026 0.77668 0.23730
 N204 N 0.88742 0.80997 0.22491
 C205 C 0.92454 0.87010 0.22588
 N206 N 0.91209 0.89569 0.23941
 N207 N 0.86482 0.86275 0.25158
 C208 C 0.77799 0.76718 0.26515
 N209 N 0.76176 0.79668 0.27591
 N210 N 0.72043 0.76597 0.29034
 C211 C 0.69354 0.70441 0.29462
 N212 N 0.70948 0.67472 0.28373
 N213 N 0.75067 0.70551 0.26916
 C214 C 0.28317 -0.02067 -0.08740
 N215 N 0.27010 0.02406 -0.09511
 N216 N 0.22636 0.01419 -0.10869
 C217 C 0.19374 -0.04092 -0.11496
 N218 N 0.20744 -0.08529 -0.10740
 N219 N 0.25140 -0.07532 -0.09395
 C220 C 0.32762 -0.01198 -0.07118
 N221 N 0.34358 -0.05520 -0.06464
 N222 N 0.38032 -0.04980 -0.04892
 C223 C 0.40244 -0.00099 -0.03915
 N224 N 0.38639 0.04219 -0.04566
 N225 N 0.34991 0.03697 -0.06146
 C226 C -0.08545 0.75251 0.58942
 N227 N -0.05343 0.76393 0.57266
 N228 N -0.04083 0.81287 0.55889
 C229 C -0.05923 0.85251 0.56148
 N230 N -0.09103 0.84097 0.57831
 N231 N -0.10399 0.79193 0.59197
 C232 C -0.09949 0.69903 0.60478
 N233 N -0.13851 0.68393 0.61987
 N234 N -0.15005 0.63686 0.63428
 C235 C -0.12318 0.60282 0.63420
 N236 N -0.08375 0.61828 0.61915
 N237 N -0.07248 0.66518 0.60462
 C238 C 0.33436 0.31404 0.25203
 N239 N 0.30331 0.33188 0.23772
 N240 N 0.27437 0.29894 0.22306
 C241 C 0.27577 0.24721 0.22210
 N242 N 0.30732 0.22998 0.23636
 N243 N 0.33590 0.26260 0.25103
 C244 C 0.36434 0.34815 0.26877
 N245 N 0.38645 0.32403 0.28451
 N246 N 0.41261 0.35372 0.30002
 C247 C 0.41825 0.40898 0.30027
 N248 N 0.39598 0.43315 0.28457
 N249 N 0.36944 0.40323 0.26909
 C250 C 0.74921 -0.07671 -0.07466
 N251 N 0.80466 -0.07012 -0.07056
 N252 N 0.83199 -0.08227 -0.08343
 C253 C 0.80546 -0.10092 -0.10111
 N254 N 0.74958 -0.10777 -0.10518
 N255 N 0.72178 -0.09629 -0.09213
 C256 C 0.72102 -0.06138 -0.06034
 N257 N 0.66046 -0.08472 -0.05974
 N258 N 0.63589 -0.07262 -0.04579
 C259 C 0.67104 -0.03580 -0.03222
 N260 N 0.73153 -0.01234 -0.03305
 N261 N 0.75597 -0.02493 -0.04677
 C262 C 0.33382 0.02169 0.08137
 N263 N 0.30291 -0.02705 0.09573
 N264 N 0.27411 -0.02290 0.11039
 C265 C 0.27550 0.03025 0.11130
 N266 N 0.30691 0.07889 0.09700
 N267 N 0.33536 0.07470 0.08233
 C268 C 0.36368 0.01736 0.06463
 N269 N 0.38571 0.06343 0.04886
 N270 N 0.41178 0.05972 0.03336
 C271 C 0.41741 0.01005 0.03318
 N272 N 0.39521 -0.03623 0.04891
 N273 N 0.36876 -0.03266 0.06437
 C274 C 0.75076 0.82717 0.40819
 N275 N 0.72430 0.81843 0.42596
 N276 N 0.75242 0.85757 0.43903
 C277 C 0.80772 0.90739 0.43474
 N278 N 0.83310 0.91614 0.41671
 N279 N 0.80549 0.87681 0.40381
 C280 C 0.72243 0.78373 0.39386
 N281 N 0.75720 0.78276 0.38009
 N282 N 0.73265 0.74576 0.36637
 C283 C 0.67221 0.70825 0.36572
 N284 N 0.63724 0.70942 0.37948
 N285 N 0.66194 0.74603 0.39344
 C286 C -0.08652 0.16024 0.74367
 N287 N -0.10515 0.10228 0.74111
 N288 N -0.09229 0.06612 0.75479
 C289 C -0.06050 0.08631 0.77163
 N290 N -0.04200 0.14436 0.77422
 N291 N -0.05450 0.18077 0.76044
 C292 C -0.10044 0.19979 0.72830
 N293 N -0.07341 0.26060 0.72850
 N294 N -0.08456 0.29633 0.71397
 C295 C -0.12389 0.27251 0.69888
 N296 N -0.15079 0.21164 0.69875
 N297 N -0.13938 0.17601 0.71318
 C298 C 0.82751 0.02647 0.08269
 N299 N 0.86424 0.00311 0.08196
 N300 N 0.91151 0.01743 0.09414
 C301 C 0.92392 0.05546 0.10767
 N302 N 0.88677 0.07848 0.10862
 N303 N 0.83962 0.06462 0.09621
 C304 C 0.77741 0.01189 0.06833
 N305 N 0.75009 0.04626 0.06430
 N306 N 0.70891 0.03585 0.04970
 C307 C 0.69300 -0.00979 0.03882
 N308 N 0.71992 -0.04444 0.04313
 N309 N 0.76122 -0.03383 0.05758
 C310 C 0.28509 0.30439 0.42094
 N311 N 0.25325 0.32708 0.42757
 N312 N 0.20924 0.29285 0.44097
 C313 C 0.19556 0.23472 0.44840
 N314 N 0.22826 0.21242 0.44206
 N315 N 0.27206 0.24654 0.42852
 C316 C 0.32951 0.34038 0.40473
 N317 N 0.35180 0.31392 0.39491
 N318 N 0.38814 0.34535 0.37910
 C319 C 0.40406 0.40457 0.37268
 N320 N 0.38196 0.43108 0.38256
 N321 N 0.34535 0.39956 0.39829
 C322 C -0.12422 0.62478 0.75834
 N323 N -0.16600 0.63967 0.76195
 N324 N -0.15689 0.67334 0.77619
 C325 C -0.10549 0.69371 0.78729
 N326 N -0.06424 0.67787 0.78386
 N327 N -0.07346 0.64397 0.76970
 C328 C -0.13109 0.59343 0.74125
 N329 N -0.08984 0.57757 0.73787
 N330 N -0.09295 0.55425 0.72137
 C331 C -0.13746 0.54591 0.70765
 N332 N -0.17873 0.56169 0.71106
 N333 N -0.17578 0.58473 0.72760
   
