data_POSCAR
  _audit_creation_date              2014-09-24
  _audit_creation_method            'ToBaCCo'
  _symmetry_space_group_name_H-M    'P1'
  _symmetry_Int_Tables_number       1
  _symmetry_cell_setting            triclinic
  loop_
  _symmetry_equiv_pos_as_xyz
 x,y,z
_cell_length_a 26.9870
_cell_length_b 27.2613
_cell_length_c 27.3270
_cell_angle_alpha 90.232700
_cell_angle_beta 89.825500
_cell_angle_gamma 90.342100
loop_
  _atom_site_label
  _atom_site_type_symbol
  _atom_site_fract_x
  _atom_site_fract_y
  _atom_site_fract_z
C1 C 0.50375 0.93883 -0.62218
 C2 C 0.45877 0.95429 -0.60154
 C3 C 0.45936 0.97252 -0.55324
 C4 C 0.50290 0.97142 -0.52447
 C5 C 0.54741 0.95584 -0.54706
 C6 C 0.54854 0.94074 -0.59634
 C7 C 0.50133 0.98472 -0.47083
 C8 C 0.54502 0.99685 -0.44470
 C9 C 0.54400 1.00412 -0.39376
 C10 C 0.49829 1.00379 -0.36928
 C11 C 0.45429 0.99314 -0.39418
 C12 C 0.45619 0.98258 -0.44437
 H13 H 0.50481 0.93066 -0.66093
 H14 H 0.42535 0.98598 -0.53763
 H15 H 0.58117 0.95320 -0.52624
 H16 H 0.58042 0.99918 -0.46303
 H17 H 0.49706 1.01132 -0.33033
 H18 H 0.42223 0.97069 -0.46162
 C19 C -0.63394 1.50882 -0.06487
 C20 C -0.60952 1.46369 -0.06209
 C21 C -0.55899 1.46394 -0.04990
 C22 C -0.53368 1.50782 -0.03729
 C23 C -0.56073 1.55223 -0.03748
 C24 C -0.61042 1.55349 -0.05338
 C25 C -0.47895 1.50711 -0.02601
 C26 C -0.44908 1.54972 -0.03169
 C27 C -0.39757 1.54799 -0.02473
 C28 C -0.37543 1.50330 -0.01330
 C29 C -0.40350 1.46033 -0.00901
 C30 C -0.45520 1.46282 -0.01278
 H31 H -0.67354 1.50886 -0.07090
 H32 H -0.53929 1.42975 -0.05267
 H33 H -0.54280 1.58612 -0.02705
 H34 H -0.46476 1.58399 -0.04363
 H35 H -0.33560 1.50170 -0.00853
 H36 H -0.47604 1.42942 -0.00703
 C37 C -0.01180 0.37923 0.51249
 C38 C 0.00169 0.40348 0.46911
 C39 C 0.00978 0.45449 0.47155
 C40 C -0.00053 0.48176 0.51456
 C41 C -0.01471 0.45604 0.55722
 C42 C -0.01969 0.40469 0.55639
 C43 C 0.00242 0.53685 0.51362
 C44 C 0.01410 0.56468 0.55600
 C45 C 0.02051 0.61619 0.55353
 C46 C 0.01483 0.63906 0.50781
 C47 C 0.00288 0.61250 0.46563
 C48 C -0.00506 0.56196 0.46913
 H49 H -0.01393 0.33956 0.51307
 H50 H 0.02195 0.47344 0.43909
 H51 H -0.02306 0.47556 0.59077
 H52 H 0.02107 0.54613 0.59016
 H53 H 0.01715 0.67861 0.50492
 H54 H -0.01623 0.54240 0.43647
 O55 O -0.12808 1.00835 -0.05286
 O56 O 0.12579 1.00249 -0.05566
 O57 O -0.00322 1.07398 -0.11562
 O58 O 0.00068 0.93944 -0.11362
 O59 O -0.00045 0.88098 -0.05270
 O60 O 0.00007 1.13412 -0.05595
 O61 O 0.06611 1.00292 -0.11596
 O62 O -0.06931 1.00749 -0.11445
 Zr63 Zr -0.00116 1.00735 -0.07555
 O64 O 0.04325 0.96364 -0.03283
 O65 O -0.04479 1.05257 -0.03310
 C66 C -0.11481 1.00715 -0.09850
 C67 C 0.11164 0.99950 -0.10086
 C68 C -0.00235 1.11954 -0.10110
 C69 C 0.00122 0.89432 -0.09819
 H70 H 0.06605 1.07183 -0.05622
 O71 O 0.04463 1.05194 -0.03447
 H72 H -0.06690 0.94263 -0.05221
 O73 O -0.04563 0.96406 -0.03183
 O74 O 0.12728 1.01041 0.07626
 O75 O -0.12649 1.00670 0.07976
 O76 O 0.06895 1.13426 0.00892
 O77 O 0.06592 0.88278 0.00886
 O78 O -0.06910 0.88308 0.01413
 O79 O -0.06523 1.13465 0.00588
 O80 O 0.00061 1.07709 0.13563
 O81 O 0.00113 0.94533 0.13766
 O82 O 0.00198 1.13679 0.07603
 O83 O -0.00174 0.88355 0.07967
 O84 O 0.12842 1.07392 0.00959
 O85 O -0.12714 1.07593 0.00926
 O86 O -0.12874 0.94335 0.01484
 O87 O 0.12673 0.94267 0.00986
 O88 O 0.06731 1.01406 0.13639
 O89 O -0.06501 1.00855 0.13813
 Zr90 Zr 0.08652 1.00850 0.01044
 Zr91 Zr -0.08731 1.00920 0.01249
 Zr92 Zr 0.00118 1.09506 0.01018
 Zr93 Zr -0.00130 0.92235 0.01256
 Zr94 Zr 0.00063 1.01053 0.09682
 O95 O -0.04533 0.96510 0.05693
 O96 O 0.04609 1.05441 0.05490
 C97 C 0.11292 1.01278 0.12159
 C98 C -0.11090 1.00594 0.12473
 C99 C 0.11458 1.11934 0.00843
 C100 C 0.11186 0.89743 0.00803
 C101 C -0.11480 0.89787 0.01469
 C102 C -0.11129 1.12083 0.00498
 C103 C 0.00034 1.12231 0.12127
 C104 C 0.00052 0.89958 0.12447
 H105 H -0.06573 1.07533 0.07565
 O106 O -0.04425 1.05426 0.05519
 H107 H 0.06585 0.94460 0.07608
 O108 O 0.04435 0.96507 0.05538
 C109 C 0.37191 0.91963 0.29832
 C110 C 0.33648 0.95732 0.30044
 C111 C 0.33764 0.98950 0.34124
 C112 C 0.37671 0.98734 0.37523
 C113 C 0.41515 0.95295 0.36946
 C114 C 0.41021 0.91760 0.33202
 C115 C 0.30057 1.02456 0.34701
 C116 C 0.26259 1.02853 0.31295
 C117 C 0.26139 0.99878 0.27050
 C118 C 0.30008 0.96389 0.26338
 C119 C 0.30269 0.93830 0.21843
 C120 C 0.26789 0.94543 0.18208
 C121 C 0.22841 0.97724 0.18947
 C122 C 0.22377 1.00366 0.23410
 C123 C 0.18122 1.03323 0.24051
 C124 C 0.14543 1.03656 0.20384
 C125 C 0.15146 1.01152 0.15944
 C126 C 0.19317 0.98227 0.15238
 H127 H 0.37071 0.89069 0.27134
 H128 H 0.37845 1.01485 0.40385
 H129 H 0.43601 0.88749 0.32863
 H130 H 0.30092 1.04926 0.37820
 H131 H 0.23576 1.05686 0.31986
 H132 H 0.33255 0.91381 0.20933
 H133 H 0.27172 0.92540 0.14791
 H134 H 0.17376 1.05298 0.27394
 H135 H 0.11292 1.05886 0.21018
 H136 H 0.19727 0.96184 0.11849
 C137 C -0.36672 0.89991 0.30459
 C138 C -0.32726 0.93370 0.30958
 C139 C -0.32446 0.96116 0.35365
 C140 C -0.36353 0.95960 0.38788
 C141 C -0.40654 0.93177 0.37821
 C142 C -0.40561 0.89928 0.33807
 C143 C -0.28409 0.99222 0.36193
 C144 C -0.24743 0.99820 0.32658
 C145 C -0.25055 0.97440 0.28063
 C146 C -0.29150 0.94205 0.27183
 C147 C -0.29720 0.92150 0.22463
 C148 C -0.26415 0.93214 0.18717
 C149 C -0.22344 0.96263 0.19538
 C150 C -0.21517 0.98321 0.24249
 C151 C -0.17165 1.01162 0.24932
 C152 C -0.13846 1.01953 0.21088
 C153 C -0.14786 1.00040 0.16418
 C154 C -0.19059 0.97221 0.15662
 H155 H -0.36911 0.87405 0.27475
 H156 H -0.36231 0.98419 0.41912
 H157 H -0.43591 0.87384 0.33160
 H158 H -0.28130 1.01298 0.39575
 H159 H -0.21826 1.02375 0.33563
 H160 H -0.32821 0.89852 0.21472
 H161 H -0.27057 0.91621 0.15129
 H162 H -0.16135 1.02713 0.28417
 H163 H -0.10503 1.04050 0.21789
 H164 H -0.19734 0.95613 0.12090
 C165 C -0.32589 1.03883 -0.35124
 C166 C -0.32166 1.01200 -0.30704
 C167 C -0.36267 0.98241 -0.29301
 C168 C -0.40545 0.98010 -0.32178
 C169 C -0.40945 1.00734 -0.36486
 C170 C -0.36910 1.03634 -0.37963
 C171 C -0.36115 0.95503 -0.25022
 C172 C -0.32043 0.95736 -0.21971
 C173 C -0.27912 0.98740 -0.23075
 C174 C -0.27879 1.01375 -0.27599
 C175 C -0.23564 1.04060 -0.28851
 C176 C -0.19472 1.04253 -0.25752
 C177 C -0.19545 1.01891 -0.21228
 C178 C -0.23802 0.99156 -0.19804
 C179 C -0.23828 0.97038 -0.15090
 C180 C -0.19804 0.97563 -0.11974
 C181 C -0.15574 1.00191 -0.13400
 C182 C -0.15428 1.02311 -0.18068
 H183 H -0.29686 1.06261 -0.36453
 H184 H -0.43595 0.95654 -0.31060
 H185 H -0.37126 1.05783 -0.41279
 H186 H -0.39210 0.93168 -0.23989
 H187 H -0.32238 0.93429 -0.18790
 H188 H -0.23210 1.06023 -0.32248
 H189 H -0.16241 1.06350 -0.26879
 H190 H -0.26945 0.95054 -0.13612
 H191 H -0.20012 0.95874 -0.08394
 H192 H -0.12187 1.04404 -0.19174
 C193 C 0.32029 1.01466 -0.35755
 C194 C 0.31732 0.99181 -0.31107
 C195 C 0.36015 0.96721 -0.29416
 C196 C 0.40392 0.96692 -0.32193
 C197 C 0.40663 0.99101 -0.36695
 C198 C 0.36423 1.01409 -0.38491
 C199 C 0.35955 0.94342 -0.24924
 C200 C 0.31804 0.94492 -0.21941
 C201 C 0.27507 0.97074 -0.23319
 C202 C 0.27404 0.99332 -0.28040
 C203 C 0.23011 1.01714 -0.29488
 C204 C 0.18933 1.02050 -0.26376
 C205 C 0.19062 1.00076 -0.21677
 C206 C 0.23341 0.97527 -0.20095
 C207 C 0.23326 0.95653 -0.15277
 C208 C 0.19328 0.96404 -0.12154
 C209 C 0.15157 0.99007 -0.13682
 C210 C 0.14982 1.00736 -0.18500
 H211 H 0.28971 1.03401 -0.37353
 H212 H 0.43631 0.94807 -0.30825
 H213 H 0.36547 1.03296 -0.41971
 H214 H 0.39192 0.92385 -0.23658
 H215 H 0.32119 0.92535 -0.18548
 H216 H 0.22603 1.03397 -0.33020
 H217 H 0.15671 1.03968 -0.27634
 H218 H 0.26381 0.93682 -0.13728
 H219 H 0.19527 0.94942 -0.08477
 H220 H 0.11761 1.02749 -0.19714
 C221 C 0.28712 1.37931 -0.09578
 C222 C 0.29418 1.34014 -0.06298
 C223 C 0.33982 1.33815 -0.03761
 C224 C 0.37398 1.37729 -0.04057
 C225 C 0.36301 1.41949 -0.06803
 C226 C 0.32066 1.41816 -0.09794
 C227 C 0.35005 1.29822 -0.00759
 C228 C 0.31532 1.26093 -0.00095
 C229 C 0.26806 1.26290 -0.02297
 C230 C 0.25713 1.30363 -0.05390
 C231 C 0.20865 1.30813 -0.07259
 C232 C 0.17208 1.27398 -0.06181
 C233 C 0.18242 1.23341 -0.03291
 C234 C 0.23073 1.22646 -0.01389
 C235 C 0.23943 1.18315 0.01324
 C236 C 0.20161 1.14880 0.02117
 C237 C 0.15382 1.15684 0.00323
 C238 C 0.14449 1.19944 -0.02338
 H239 H 0.25582 1.38129 -0.12006
 H240 H 0.40669 1.37642 -0.01770
 H241 H 0.31285 1.44769 -0.12312
 H242 H 0.38506 1.29611 0.01161
 H243 H 0.32596 1.23198 0.02350
 H244 H 0.19705 1.33888 -0.09426
 H245 H 0.13520 1.27939 -0.07642
 H246 H 0.27526 1.17406 0.02777
 H247 H 0.20981 1.11571 0.04136
 H248 H 0.10785 1.20538 -0.03826
 C249 C 0.28977 0.63977 -0.08904
 C250 C 0.29310 0.67640 -0.05268
 C251 C 0.33518 0.67622 -0.02177
 C252 C 0.36923 0.63716 -0.02372
 C253 C 0.36177 0.59749 -0.05616
 C254 C 0.32322 0.60130 -0.09057
 C255 C 0.34202 0.71416 0.01202
 C256 C 0.30761 0.75180 0.01632
 C257 C 0.26379 0.75200 -0.01192
 C258 C 0.25586 0.71282 -0.04596
 C259 C 0.20990 0.70977 -0.07043
 C260 C 0.17317 0.74424 -0.06267
 C261 C 0.18102 0.78379 -0.03123
 C262 C 0.22681 0.78906 -0.00621
 C263 C 0.23362 0.83151 0.02310
 C264 C 0.19621 0.86642 0.02779
 C265 C 0.15061 0.85980 0.00433
 C266 C 0.14318 0.81833 -0.02498
 H267 H 0.26181 0.63986 -0.11712
 H268 H 0.39899 0.63625 0.00274
 H269 H 0.31859 0.57417 -0.11930
 H270 H 0.37420 0.71464 0.03567
 H271 H 0.31541 0.77922 0.04377
 H272 H 0.20025 0.67984 -0.09449
 H273 H 0.13821 0.73995 -0.08175
 H274 H 0.26781 0.83948 0.04186
 H275 H 0.20292 0.89871 0.05008
 H276 H 0.10834 0.81375 -0.04423
 C277 C -0.28655 0.62546 -0.05858
 C278 C -0.29383 0.66863 -0.03063
 C279 C -0.34003 0.67422 -0.00636
 C280 C -0.37533 0.63591 -0.00670
 C281 C -0.36536 0.59178 -0.03116
 C282 C -0.32160 0.58778 -0.05848
 C283 C -0.35009 0.71735 0.01931
 C284 C -0.31509 0.75492 0.02213
 C285 C -0.26775 0.75029 0.00038
 C286 C -0.25666 0.70595 -0.02557
 C287 C -0.20813 0.69943 -0.04389
 C288 C -0.17180 0.73503 -0.03769
 C289 C -0.18233 0.77901 -0.01388
 C290 C -0.23061 0.78789 0.00474
 C291 C -0.23955 0.83426 0.02659
 C292 C -0.20199 0.86964 0.03010
 C293 C -0.15413 0.85988 0.01280
 C294 C -0.14463 0.81435 -0.00900
 H295 H -0.25411 0.61942 -0.08079
 H296 H -0.40946 0.63949 0.01403
 H297 H -0.31388 0.55461 -0.07905
 H298 H -0.38537 0.72204 0.03777
 H299 H -0.32575 0.78660 0.04323
 H300 H -0.19636 0.66633 -0.06199
 H301 H -0.13494 0.72806 -0.05193
 H302 H -0.27538 0.84485 0.04035
 H303 H -0.21051 0.90485 0.04645
 H304 H -0.10801 0.80684 -0.02358
 C305 C -0.36367 1.33285 0.03089
 C306 C -0.32186 1.32444 0.00036
 C307 C -0.30959 1.36114 -0.03433
 C308 C -0.33745 1.40405 -0.03760
 C309 C -0.37745 1.41264 -0.00611
 C310 C -0.39099 1.37635 0.02754
 C311 C -0.26914 1.35540 -0.06546
 C312 C -0.23855 1.31513 -0.06143
 C313 C -0.24736 1.27860 -0.02598
 C314 C -0.29109 1.28182 0.00363
 C315 C -0.30229 1.24245 0.03533
 C316 C -0.27097 1.20221 0.03926
 C317 C -0.22650 1.20027 0.01309
 C318 C -0.21380 1.23886 -0.01941
 C319 C -0.16702 1.23705 -0.04281
 C320 C -0.13471 1.19848 -0.03465
 C321 C -0.14768 1.16001 -0.00336
 C322 C -0.19399 1.16058 0.01998
 H323 H -0.37542 1.30721 0.05855
 H324 H -0.32750 1.43148 -0.06463
 H325 H -0.42192 1.38217 0.05219
 H326 H -0.26043 1.38288 -0.09281
 H327 H -0.20852 1.31342 -0.08739
 H328 H -0.33549 1.24138 0.05729
 H329 H -0.28112 1.17284 0.06403
 H330 H -0.15331 1.26566 -0.06637
 H331 H -0.09909 1.19880 -0.05311
 H332 H -0.20388 1.13115 0.04480
 C333 C 0.03930 1.36503 0.34199
 C334 C 0.00984 1.32251 0.33439
 C335 C -0.02277 1.30858 0.37264
 C336 C -0.02481 1.33531 0.41642
 C337 C 0.00507 1.37705 0.42422
 C338 C 0.03669 1.39180 0.38581
 C339 C -0.05369 1.26793 0.36737
 C340 C -0.05260 1.23984 0.32520
 C341 C -0.02011 1.25108 0.28616
 C342 C 0.01156 1.29321 0.29060
 C343 C 0.04417 1.30407 0.25147
 C344 C 0.04668 1.27427 0.21002
 C345 C 0.01675 1.23260 0.20558
 C346 C -0.01763 1.22087 0.24332
 C347 C -0.04764 1.17864 0.23698
 C348 C -0.04182 1.14826 0.19658
 C349 C -0.00670 1.15879 0.16046
 C350 C 0.02167 1.20181 0.16416
 H351 H 0.06500 1.37858 0.31494
 H352 H -0.05182 1.32427 0.44372
 H353 H 0.06134 1.42297 0.38990
 H354 H -0.07897 1.25738 0.39646
 H355 H -0.07762 1.20902 0.32497
 H356 H 0.06895 1.33516 0.25200
 H357 H 0.07283 1.28370 0.18133
 H358 H -0.07569 1.16727 0.26263
 H359 H -0.06496 1.11579 0.19364
 H360 H 0.04877 1.21018 0.13599
 C361 C -0.07031 1.30274 -0.36471
 C362 C -0.03932 1.30521 -0.32311
 C363 C -0.00789 1.34689 -0.31826
 C364 C -0.00428 1.38171 -0.35609
 C365 C -0.03178 1.37581 -0.39911
 C366 C -0.06630 1.33731 -0.40199
 C367 C 0.02129 1.35255 -0.27661
 C368 C 0.02092 1.31731 -0.24001
 C369 C -0.00784 1.27398 -0.24415
 C370 C -0.03775 1.26742 -0.28685
 C371 C -0.06324 1.22238 -0.29301
 C372 C -0.05970 1.18500 -0.25881
 C373 C -0.03175 1.19122 -0.21642
 C374 C -0.00645 1.23626 -0.20780
 C375 C 0.01904 1.24163 -0.16292
 C376 C 0.02016 1.20365 -0.12894
 C377 C -0.00333 1.15868 -0.13844
 C378 C -0.02922 1.15264 -0.18239
 H379 H -0.09761 1.27422 -0.36992
 H380 H 0.02220 1.41166 -0.35335
 H381 H -0.08906 1.33285 -0.43433
 H382 H 0.04523 1.38437 -0.27249
 H383 H 0.04535 1.32433 -0.20967
 H384 H -0.08502 1.21404 -0.32497
 H385 H -0.07927 1.15079 -0.26562
 H386 H 0.03765 1.27506 -0.15231
 H387 H 0.03979 1.20956 -0.09493
 H388 H -0.04851 1.11834 -0.18952
 C389 C 0.06332 0.72292 -0.37192
 C390 C 0.03912 0.71515 -0.32675
 C391 C 0.01542 0.66915 -0.31953
 C392 C 0.01232 0.63453 -0.35802
 C393 C 0.03144 0.64556 -0.40476
 C394 C 0.05918 0.68914 -0.40995
 C395 C -0.00670 0.65875 -0.27452
 C396 C -0.00720 0.69345 -0.23701
 C397 C 0.01363 0.74073 -0.24332
 C398 C 0.03701 0.75176 -0.28908
 C399 C 0.05561 0.79973 -0.29658
 C400 C 0.05148 0.83578 -0.26092
 C401 C 0.02919 0.82567 -0.21606
 C402 C 0.01070 0.77787 -0.20604
 C403 C -0.01016 0.76958 -0.15914
 C404 C -0.01318 0.80730 -0.12447
 C405 C 0.00399 0.85467 -0.13528
 C406 C 0.02524 0.86347 -0.18120
 H407 H 0.08560 0.75493 -0.37942
 H408 H -0.00862 0.60098 -0.35237
 H409 H 0.07831 0.69746 -0.44385
 H410 H -0.02453 0.62356 -0.26840
 H411 H -0.02572 0.68244 -0.20385
 H412 H 0.07237 0.81134 -0.33041
 H413 H 0.06572 0.87220 -0.26874
 H414 H -0.02412 0.73432 -0.14778
 H415 H -0.02948 0.79936 -0.08908
 H416 H 0.03954 0.89976 -0.18960
 C417 C -0.03993 0.65580 0.34051
 C418 C -0.00491 0.69326 0.32970
 C419 C 0.03354 0.70171 0.36403
 C420 C 0.03653 0.67387 0.40679
 C421 C 0.00072 0.63822 0.41784
 C422 C -0.03711 0.62890 0.38399
 C423 C 0.06860 0.73851 0.35615
 C424 C 0.06494 0.76930 0.31623
 C425 C 0.02622 0.76401 0.28201
 C426 C -0.00740 0.72356 0.28704
 C427 C -0.04203 0.71492 0.24925
 C428 C -0.04492 0.74582 0.20889
 C429 C -0.01490 0.78756 0.20551
 C430 C 0.02041 0.79770 0.24264
 C431 C 0.04737 0.84224 0.23989
 C432 C 0.04027 0.87461 0.20146
 C433 C 0.00665 0.86376 0.16407
 C434 C -0.02056 0.81988 0.16581
 H435 H -0.07089 0.64759 0.31699
 H436 H 0.06662 0.68063 0.43222
 H437 H -0.06547 0.60174 0.39179
 H438 H 0.09870 0.74432 0.38177
 H439 H 0.09385 0.79648 0.31266
 H440 H -0.06688 0.68383 0.24938
 H441 H -0.07187 0.73761 0.18064
 H442 H 0.07298 0.85411 0.26775
 H443 H 0.06154 0.90848 0.20084
 H444 H -0.04725 0.81183 0.13725
   
