data_POSCAR
  _audit_creation_date              2014-09-24
  _audit_creation_method            'ToBaCCo'
  _symmetry_space_group_name_H-M    'P1'
  _symmetry_Int_Tables_number       1
  _symmetry_cell_setting            triclinic
  loop_
  _symmetry_equiv_pos_as_xyz
 x,y,z
_cell_length_a 45.9503
_cell_length_b 46.6341
_cell_length_c 29.9346
_cell_angle_alpha 90.013100
_cell_angle_beta 90.003100
_cell_angle_gamma 120.387300
loop_
  _atom_site_label
  _atom_site_type_symbol
  _atom_site_fract_x
  _atom_site_fract_y
  _atom_site_fract_z
C1 C 0.44321 0.91026 0.50306
 C2 C 0.44845 0.92781 0.54343
 C3 C 0.46618 0.96287 0.54141
 C4 C 0.48153 0.98031 0.50170
 C5 C 0.47693 0.96172 0.46253
 C6 C 0.45673 0.92696 0.46265
 C7 C 0.50172 1.01772 0.50164
 C8 C 0.50636 1.03628 0.46229
 C9 C 0.52568 1.07144 0.46217
 C10 C 0.53751 1.08770 0.50360
 C11 C 0.53301 1.06992 0.54322
 C12 C 0.51655 1.03518 0.54143
 H13 H 0.43011 0.88341 0.50262
 H14 H 0.46681 0.97667 0.57068
 H15 H 0.48845 0.97393 0.43143
 H16 H 0.49584 1.02321 0.43150
 H17 H 0.54895 1.11441 0.50569
 H18 H 0.51557 1.02191 0.57152
 C19 C 0.09010 0.53404 0.49798
 C20 C 0.07326 0.53020 0.53883
 C21 C 0.03773 0.51442 0.53784
 C22 C 0.01905 0.50037 0.49836
 C23 C 0.03697 0.50431 0.45842
 C24 C 0.07236 0.52230 0.45769
 C25 C -0.01892 0.48251 0.49924
 C26 C -0.03790 0.47962 0.46060
 C27 C -0.07363 0.46251 0.46123
 C28 C -0.08977 0.45100 0.50293
 C29 C -0.07155 0.45365 0.54176
 C30 C -0.03648 0.46817 0.53918
 H31 H 0.11720 0.54508 0.49699
 H32 H 0.02458 0.51456 0.56762
 H33 H 0.02375 0.49409 0.42743
 H34 H -0.02473 0.48985 0.42977
 H35 H -0.11660 0.44118 0.50613
 H36 H -0.02310 0.46797 0.56877
 C37 C 0.46940 0.55882 0.49874
 C38 C 0.48102 0.55283 0.53935
 C39 C 0.49675 0.53350 0.53776
 C40 C 0.49812 0.51784 0.49813
 C41 C 0.48483 0.52331 0.45879
 C42 C 0.47169 0.54466 0.45854
 C43 C 0.51361 0.49614 0.49803
 C44 C 0.52707 0.49085 0.45859
 C45 C 0.54035 0.46960 0.45830
 C46 C 0.54281 0.45552 0.49840
 C47 C 0.53082 0.46127 0.53856
 C48 C 0.51496 0.48034 0.53755
 H49 H 0.45670 0.57300 0.49798
 H50 H 0.50928 0.53176 0.56725
 H51 H 0.48496 0.51146 0.42784
 H52 H 0.52700 0.50273 0.42764
 H53 H 0.55495 0.44076 0.49820
 H54 H 0.50336 0.48240 0.56785
 O55 O 0.39016 0.66686 -0.03976
 O56 O 0.38322 0.71849 -0.05116
 C57 C 0.36529 0.73163 -0.05810
 O58 O 0.33997 0.72542 -0.03388
 O59 O 0.28721 0.66770 -0.05084
 C60 C 0.27404 0.63739 -0.06177
 O61 O 0.28019 0.61714 -0.04113
 O62 O 0.33925 0.62439 -0.05627
 C63 C 0.37053 0.64220 -0.06412
 O64 O 0.38701 0.67353 0.04953
 O65 O 0.38402 0.72742 0.03813
 C66 C 0.36177 0.72818 0.06257
 O67 O 0.33050 0.71066 0.05443
 O68 O 0.27595 0.65432 0.03711
 C69 C 0.27363 0.62944 0.05785
 O70 O 0.29119 0.61645 0.04775
 O71 O 0.34914 0.62101 0.03238
 C72 C 0.37301 0.64253 0.05664
 Cr73 Cr 0.38436 0.69559 -0.00082
 Cr74 Cr 0.30943 0.68881 0.00163
 Cr75 Cr 0.31571 0.62147 -0.00421
 O76 O 0.33644 0.66857 -0.00118
 O77 O 0.61321 0.32937 -0.05043
 O78 O 0.61192 0.27389 -0.03596
 C79 C 0.63286 0.26808 -0.05594
 O80 O 0.66383 0.28219 -0.04570
 O81 O 0.72116 0.33716 -0.03595
 C82 C 0.72630 0.36186 -0.05972
 O83 O 0.71196 0.37848 -0.05226
 O84 O 0.65712 0.38072 -0.04291
 C85 C 0.63026 0.35944 -0.06254
 O86 O 0.61301 0.33978 0.03849
 O87 O 0.61346 0.28535 0.05313
 C88 C 0.62959 0.27111 0.06423
 O89 O 0.65572 0.27563 0.04356
 O90 O 0.71158 0.33219 0.05324
 C91 C 0.72637 0.36315 0.06080
 O92 O 0.72158 0.38317 0.03742
 O93 O 0.66526 0.38293 0.04665
 C94 C 0.63444 0.36658 0.05773
 Cr95 Cr 0.61488 0.30806 0.00128
 Cr96 Cr 0.68709 0.30779 0.00368
 Cr97 Cr 0.68799 0.37938 -0.00263
 O98 O 0.66327 0.33175 0.00079
 C99 C 0.41878 0.87568 -0.33248
 C100 C 0.44475 0.90900 -0.33419
 C101 C 0.45384 0.92632 -0.37460
 C102 C 0.43724 0.91085 -0.41494
 C103 C 0.41030 0.87760 -0.41245
 C104 C 0.40128 0.86035 -0.37190
 C105 C 0.41094 0.85660 -0.29009
 C106 C 0.37743 0.83379 -0.27804
 C107 C 0.37034 0.81491 -0.23902
 C108 C 0.39662 0.81836 -0.21126
 C109 C 0.43008 0.84152 -0.22299
 C110 C 0.43716 0.86040 -0.26193
 C111 C 0.38926 0.79721 -0.17096
 C112 C 0.40941 0.78340 -0.16044
 C113 C 0.40198 0.76262 -0.12340
 C114 C 0.37420 0.75514 -0.09594
 C115 C 0.35429 0.76931 -0.10612
 C116 C 0.36172 0.79009 -0.14323
 H117 H 0.45850 0.92164 -0.30425
 H118 H 0.47530 0.95132 -0.37401
 H119 H 0.39546 0.86467 -0.44150
 H120 H 0.38108 0.83466 -0.37169
 H121 H 0.35668 0.83053 -0.29882
 H122 H 0.34432 0.79705 -0.23111
 H123 H 0.45085 0.84502 -0.20206
 H124 H 0.46326 0.87745 -0.27052
 H125 H 0.43052 0.78802 -0.18149
 H126 H 0.41776 0.75202 -0.11672
 H127 H 0.33270 0.76408 -0.08570
 H128 H 0.34597 0.80067 -0.15018
 C129 C 0.12853 0.56293 -0.33891
 C130 C 0.14381 0.57777 -0.37965
 C131 C 0.12565 0.56751 -0.41958
 C132 C 0.09148 0.54175 -0.42028
 C133 C 0.07625 0.52731 -0.37889
 C134 C 0.09448 0.53776 -0.33898
 C135 C 0.14825 0.57344 -0.29665
 C136 C 0.14368 0.54990 -0.26389
 C137 C 0.16284 0.55971 -0.22468
 C138 C 0.18714 0.59328 -0.21737
 C139 C 0.19155 0.61682 -0.25004
 C140 C 0.17227 0.60704 -0.28909
 C141 C 0.20817 0.60377 -0.17622
 C142 C 0.21704 0.63415 -0.15544
 C143 C 0.23806 0.64481 -0.11802
 C144 C 0.25049 0.62522 -0.10016
 C145 C 0.24105 0.59448 -0.12026
 C146 C 0.22022 0.58393 -0.15797
 H147 H 0.17008 0.59716 -0.38087
 H148 H 0.13858 0.58077 -0.44953
 H149 H 0.05058 0.50676 -0.37692
 H150 H 0.08183 0.52600 -0.30808
 H151 H 0.12567 0.52376 -0.26886
 H152 H 0.15852 0.54100 -0.19999
 H153 H 0.21034 0.64281 -0.24582
 H154 H 0.17614 0.62588 -0.31332
 H155 H 0.20768 0.64973 -0.16806
 H156 H 0.24462 0.66850 -0.10312
 H157 H 0.25040 0.57892 -0.10749
 H158 H 0.21427 0.56061 -0.17349
 C159 C 0.46016 0.58504 -0.33749
 C160 C 0.46588 0.55822 -0.33860
 C161 C 0.47369 0.54829 -0.37867
 C162 C 0.47600 0.56486 -0.41927
 C163 C 0.47152 0.59269 -0.41734
 C164 C 0.46369 0.60253 -0.37715
 C165 C 0.44903 0.59373 -0.29558
 C166 C 0.46105 0.62709 -0.28390
 C167 C 0.44925 0.63500 -0.24546
 C168 C 0.42511 0.60974 -0.21791
 C169 C 0.41352 0.57643 -0.22924
 C170 C 0.42530 0.56852 -0.26760
 C171 C 0.41138 0.61797 -0.17813
 C172 C 0.37681 0.59910 -0.16800
 C173 C 0.36366 0.60685 -0.13090
 C174 C 0.38475 0.63370 -0.10298
 C175 C 0.41936 0.65258 -0.11307
 C176 C 0.43252 0.64480 -0.15024
 H177 H 0.46376 0.54446 -0.30845
 H178 H 0.47585 0.52627 -0.37763
 H179 H 0.47451 0.60754 -0.44658
 H180 H 0.45950 0.62339 -0.37743
 H181 H 0.47957 0.64708 -0.30454
 H182 H 0.45847 0.66090 -0.23785
 H183 H 0.39525 0.55640 -0.20841
 H184 H 0.41520 0.54258 -0.27590
 H185 H 0.35976 0.57862 -0.18922
 H186 H 0.33686 0.59190 -0.12434
 H187 H 0.43632 0.67342 -0.09228
 H188 H 0.45931 0.65959 -0.15690
 C189 C 0.56376 0.12300 -0.33139
 C190 C 0.53450 0.09146 -0.33405
 C191 C 0.52485 0.07411 -0.37448
 C192 C 0.54443 0.08765 -0.41322
 C193 C 0.57417 0.11880 -0.41029
 C194 C 0.58359 0.13633 -0.36999
 C195 C 0.57314 0.14225 -0.28889
 C196 C 0.60718 0.16269 -0.27687
 C197 C 0.61599 0.18171 -0.23785
 C198 C 0.59100 0.18049 -0.20944
 C199 C 0.55694 0.15962 -0.22106
 C200 C 0.54813 0.14090 -0.26038
 C201 C 0.60054 0.20143 -0.16843
 C202 C 0.58162 0.21591 -0.15439
 C203 C 0.59150 0.23676 -0.11701
 C204 C 0.62078 0.24397 -0.09323
 C205 C 0.63938 0.22911 -0.10673
 C206 C 0.62924 0.20789 -0.14364
 H207 H 0.51891 0.08013 -0.30490
 H208 H 0.50158 0.05038 -0.37554
 H209 H 0.59014 0.12978 -0.43924
 H210 H 0.60607 0.16071 -0.36943
 H211 H 0.62713 0.16401 -0.29759
 H212 H 0.64250 0.19785 -0.23044
 H213 H 0.53699 0.15767 -0.19974
 H214 H 0.52166 0.12583 -0.26880
 H215 H 0.55970 0.21195 -0.17300
 H216 H 0.57684 0.24810 -0.10762
 H217 H 0.66189 0.23395 -0.08878
 H218 H 0.64399 0.19660 -0.15276
 C219 C 0.87533 0.42327 -0.33267
 C220 C 0.86161 0.40366 -0.37115
 C221 C 0.87917 0.41302 -0.41161
 C222 C 0.91082 0.44227 -0.41458
 C223 C 0.92490 0.46143 -0.37584
 C224 C 0.90739 0.45201 -0.33536
 C225 C 0.85567 0.41452 -0.29042
 C226 C 0.85571 0.43946 -0.26400
 C227 C 0.83604 0.43127 -0.22538
 C228 C 0.81577 0.39792 -0.21228
 C229 C 0.81615 0.37299 -0.23825
 C230 C 0.83588 0.38120 -0.27688
 C231 C 0.79359 0.38916 -0.17242
 C232 C 0.78928 0.36362 -0.14338
 C233 C 0.76773 0.35494 -0.10654
 C234 C 0.75002 0.37166 -0.09788
 C235 C 0.75457 0.39738 -0.12676
 C236 C 0.77604 0.40599 -0.16359
 H237 H 0.83685 0.38153 -0.37033
 H238 H 0.86783 0.39751 -0.44073
 H239 H 0.94910 0.48425 -0.37707
 H240 H 0.91887 0.46741 -0.30620
 H241 H 0.87034 0.46534 -0.27373
 H242 H 0.83665 0.45109 -0.20580
 H243 H 0.80058 0.34704 -0.22931
 H244 H 0.83559 0.36143 -0.29623
 H245 H 0.80275 0.35045 -0.14897
 H246 H 0.76487 0.33505 -0.08494
 H247 H 0.74118 0.41065 -0.12131
 H248 H 0.77836 0.42540 -0.18570
 C249 C 0.55201 0.42778 -0.33753
 C250 C 0.54380 0.40814 -0.37634
 C251 C 0.53575 0.41833 -0.41607
 C252 C 0.53619 0.44867 -0.41827
 C253 C 0.54367 0.46793 -0.37920
 C254 C 0.55119 0.45750 -0.33933
 C255 C 0.56242 0.41789 -0.29584
 C256 C 0.58736 0.44211 -0.26787
 C257 C 0.59773 0.43294 -0.22928
 C258 C 0.58385 0.39926 -0.21787
 C259 C 0.55887 0.37502 -0.24580
 C260 C 0.54814 0.38422 -0.28408
 C261 C 0.59563 0.38945 -0.17738
 C262 C 0.57312 0.36143 -0.15218
 C263 C 0.58436 0.35175 -0.11490
 C264 C 0.61827 0.37016 -0.10143
 C265 C 0.64071 0.39845 -0.12605
 C266 C 0.62960 0.40783 -0.16378
 H267 H 0.54445 0.38526 -0.37648
 H268 H 0.52952 0.40252 -0.44518
 H269 H 0.54469 0.49163 -0.37959
 H270 H 0.55666 0.47296 -0.30998
 H271 H 0.59939 0.46826 -0.27611
 H272 H 0.61660 0.45235 -0.20830
 H273 H 0.54790 0.34882 -0.23854
 H274 H 0.52856 0.36487 -0.30437
 H275 H 0.54667 0.34705 -0.16099
 H276 H 0.56641 0.32997 -0.09636
 H277 H 0.66708 0.41292 -0.11675
 H278 H 0.64785 0.42915 -0.18277
 C279 C 0.86929 0.43988 0.34022
 C280 C 0.90228 0.46719 0.34223
 C281 C 0.92080 0.47533 0.38202
 C282 C 0.90705 0.45616 0.42124
 C283 C 0.87346 0.42923 0.41884
 C284 C 0.85496 0.42148 0.37928
 C285 C 0.85004 0.42988 0.29749
 C286 C 0.82867 0.39605 0.28742
 C287 C 0.81004 0.38632 0.24790
 C288 C 0.81264 0.41011 0.21683
 C289 C 0.83433 0.44399 0.22655
 C290 C 0.85273 0.45376 0.26647
 C291 C 0.79232 0.39938 0.17498
 C292 C 0.77841 0.41777 0.15720
 C293 C 0.75775 0.40652 0.11933
 C294 C 0.75019 0.37643 0.09878
 C295 C 0.76460 0.35841 0.11592
 C296 C 0.78563 0.36989 0.15329
 H297 H 0.91416 0.48200 0.31277
 H298 H 0.94564 0.49721 0.38154
 H299 H 0.86144 0.41258 0.44665
 H300 H 0.82936 0.40062 0.37929
 H301 H 0.82641 0.37690 0.31001
 H302 H 0.79321 0.36004 0.24205
 H303 H 0.83727 0.46300 0.20320
 H304 H 0.86870 0.48004 0.27326
 H305 H 0.78261 0.44033 0.17331
 H306 H 0.74680 0.42082 0.10700
 H307 H 0.75956 0.33534 0.10045
 H308 H 0.79657 0.35551 0.16526
 C309 C 0.55248 0.12673 0.34034
 C310 C 0.57228 0.13974 0.37882
 C311 C 0.56320 0.12182 0.41869
 C312 C 0.53376 0.09009 0.42171
 C313 C 0.51368 0.07744 0.38284
 C314 C 0.52292 0.09551 0.34288
 C315 C 0.56293 0.14577 0.29780
 C316 C 0.53903 0.14694 0.26972
 C317 C 0.54921 0.16592 0.23059
 C318 C 0.58351 0.18417 0.21865
 C319 C 0.60730 0.18253 0.24638
 C320 C 0.59713 0.16352 0.28540
 C321 C 0.59462 0.20555 0.17815
 C322 C 0.62094 0.20809 0.15130
 C323 C 0.63220 0.22920 0.11420
 C324 C 0.61730 0.24816 0.10298
 C325 C 0.59071 0.24531 0.12954
 C326 C 0.57956 0.22431 0.16669
 H327 H 0.59503 0.16393 0.37817
 H328 H 0.58053 0.13260 0.44638
 H329 H 0.49015 0.05402 0.38299
 H330 H 0.50707 0.08478 0.31374
 H331 H 0.51253 0.13374 0.27847
 H332 H 0.53020 0.16631 0.20965
 H333 H 0.63394 0.19653 0.23846
 H334 H 0.61612 0.16273 0.30592
 H335 H 0.63276 0.19362 0.15884
 H336 H 0.65261 0.23066 0.09434
 H337 H 0.57876 0.25968 0.12203
 H338 H 0.55961 0.22336 0.18705
 C339 C 0.56814 0.44378 0.33404
 C340 C 0.54646 0.41898 0.36402
 C341 C 0.53799 0.42755 0.40466
 C342 C 0.55059 0.46105 0.41579
 C343 C 0.57216 0.48590 0.38576
 C344 C 0.58115 0.47734 0.34536
 C345 C 0.57719 0.43443 0.29122
 C346 C 0.61107 0.44886 0.27828
 C347 C 0.61969 0.43864 0.23904
 C348 C 0.59454 0.41413 0.21150
 C349 C 0.56054 0.40040 0.22411
 C350 C 0.55200 0.41024 0.26371
 C351 C 0.60379 0.40232 0.17057
 C352 C 0.58490 0.36876 0.15740
 C353 C 0.59428 0.35738 0.11998
 C354 C 0.62308 0.37914 0.09525
 C355 C 0.64179 0.41271 0.10799
 C356 C 0.63210 0.42422 0.14496
 H357 H 0.53635 0.39296 0.35615
 H358 H 0.52110 0.40797 0.42717
 H359 H 0.58223 0.51190 0.39374
 H360 H 0.59784 0.49685 0.32265
 H361 H 0.63093 0.46733 0.29924
 H362 H 0.64614 0.44935 0.23099
 H363 H 0.54044 0.38205 0.20335
 H364 H 0.52565 0.39906 0.27280
 H365 H 0.56335 0.35098 0.17669
 H366 H 0.57959 0.33129 0.11126
 H367 H 0.66398 0.43012 0.08933
 H368 H 0.64686 0.45034 0.15342
 C369 C 0.12638 0.54806 0.33250
 C370 C 0.09832 0.51605 0.33887
 C371 C 0.08089 0.50733 0.37957
 C372 C 0.09117 0.53047 0.41472
 C373 C 0.11936 0.56234 0.40831
 C374 C 0.13680 0.57095 0.36789
 C375 C 0.14486 0.55788 0.28930
 C376 C 0.15730 0.59014 0.27237
 C377 C 0.17636 0.60024 0.23320
 C378 C 0.18326 0.57828 0.20964
 C379 C 0.17010 0.54572 0.22592
 C380 C 0.15114 0.53564 0.26534
 C381 C 0.20503 0.58981 0.16918
 C382 C 0.22874 0.57978 0.16130
 C383 C 0.25056 0.59214 0.12469
 C384 C 0.24935 0.61502 0.09528
 C385 C 0.22527 0.62461 0.10270
 C386 C 0.20327 0.61204 0.13908
 H387 H 0.08953 0.49790 0.31216
 H388 H 0.05946 0.48249 0.38355
 H389 H 0.12769 0.58093 0.43442
 H390 H 0.15864 0.59561 0.36446
 H391 H 0.15245 0.60772 0.28957
 H392 H 0.18640 0.62560 0.22201
 H393 H 0.17455 0.52803 0.20827
 H394 H 0.14210 0.51070 0.27760
 H395 H 0.23115 0.56310 0.18414
 H396 H 0.26893 0.58436 0.12006
 H397 H 0.22346 0.64196 0.08046
 H398 H 0.18491 0.61981 0.14367
 C399 C 0.43264 0.87187 0.33941
 C400 C 0.46611 0.89657 0.34870
 C401 C 0.47412 0.91454 0.38872
 C402 C 0.44886 0.90784 0.42036
 C403 C 0.41550 0.88293 0.41117
 C404 C 0.40747 0.86522 0.37112
 C405 C 0.42376 0.85292 0.29692
 C406 C 0.39475 0.84664 0.27318
 C407 C 0.38542 0.82758 0.23419
 C408 C 0.40476 0.81413 0.21815
 C409 C 0.43414 0.82091 0.24154
 C410 C 0.44360 0.84020 0.28043
 C411 C 0.39385 0.79253 0.17781
 C412 C 0.41762 0.79415 0.14679
 C413 C 0.40724 0.77340 0.10929
 C414 C 0.37284 0.75066 0.10182
 C415 C 0.34907 0.74917 0.13270
 C416 C 0.35946 0.76977 0.17028
 H417 H 0.48597 0.90229 0.32473
 H418 H 0.50007 0.93347 0.39511
 H419 H 0.39549 0.87746 0.43479
 H420 H 0.38154 0.84607 0.36508
 H421 H 0.37932 0.85662 0.28472
 H422 H 0.36308 0.82347 0.21650
 H423 H 0.44936 0.81058 0.23047
 H424 H 0.46589 0.84437 0.29833
 H425 H 0.44425 0.81169 0.15125
 H426 H 0.42621 0.77526 0.08609
 H427 H 0.32240 0.73176 0.12820
 H428 H 0.34052 0.76742 0.19388
 C429 C 0.44255 0.56945 0.33420
 C430 C 0.46200 0.59424 0.36560
 C431 C 0.47098 0.58601 0.40611
 C432 C 0.46091 0.55283 0.41603
 C433 C 0.44134 0.52795 0.38474
 C434 C 0.43209 0.53617 0.34429
 C435 C 0.43332 0.57848 0.29115
 C436 C 0.40031 0.55995 0.27436
 C437 C 0.39132 0.56956 0.23487
 C438 C 0.41521 0.59779 0.21118
 C439 C 0.44844 0.61578 0.22749
 C440 C 0.45734 0.60630 0.26707
 C441 C 0.40531 0.60911 0.17049
 C442 C 0.41833 0.64320 0.16276
 C443 C 0.40836 0.65400 0.12538
 C444 C 0.38494 0.63097 0.09486
 C445 C 0.37213 0.59687 0.10229
 C446 C 0.38226 0.58608 0.13963
 H447 H 0.47007 0.62004 0.35894
 H448 H 0.48632 0.60571 0.42945
 H449 H 0.43305 0.50215 0.39169
 H450 H 0.41722 0.51659 0.32058
 H451 H 0.38121 0.53859 0.29248
 H452 H 0.36540 0.55542 0.22361
 H453 H 0.46762 0.63722 0.20961
 H454 H 0.48312 0.62070 0.27883
 H455 H 0.43567 0.66160 0.18622
 H456 H 0.41854 0.68043 0.12092
 H457 H 0.35410 0.57847 0.07940
 H458 H 0.37209 0.55967 0.14427
   
