data_POSCAR
  _audit_creation_date              2014-09-24
  _audit_creation_method            'ToBaCCo'
  _symmetry_space_group_name_H-M    'P1'
  _symmetry_Int_Tables_number       1
  _symmetry_cell_setting            triclinic
  loop_
  _symmetry_equiv_pos_as_xyz
 x,y,z
_cell_length_a 42.2997
_cell_length_b 39.6919
_cell_length_c 42.7598
_cell_angle_alpha 89.013100
_cell_angle_beta 91.260500
_cell_angle_gamma 90.217000
loop_
  _atom_site_label
  _atom_site_type_symbol
  _atom_site_fract_x
  _atom_site_fract_y
  _atom_site_fract_z
C1 C 0.24374 0.49361 1.00536
 C2 C 0.75788 0.50627 -0.00828
 C3 C -0.00580 0.25112 0.49404
 C4 C 1.00558 0.75051 0.50598
 C5 C 0.48689 -0.01573 0.25477
 C6 C 0.50883 0.01028 0.74693
 C7 C 0.29768 0.03166 0.45787
 H8 H 0.30037 0.05223 0.47400
 C9 C 0.31601 0.03082 0.43112
 H10 H 0.33308 0.05071 0.42707
 C11 C 0.27355 -0.02036 0.44483
 H12 H 0.25775 -0.04081 0.45060
 C13 C 0.29111 -0.02202 0.41770
 H14 H 0.28787 -0.04340 0.40257
 N15 N 0.27707 0.00623 0.46427
 C16 C 0.21250 0.05029 0.52981
 H17 H 0.21643 0.03361 0.54978
 C18 C 0.19034 0.07605 0.53128
 H19 H 0.17800 0.07946 0.55290
 C20 C 0.22393 0.06559 0.47746
 H21 H 0.23654 0.06081 0.45629
 C22 C 0.20138 0.09124 0.47766
 H23 H 0.19682 0.10581 0.45642
 Zn24 Zn 0.25538 0.00753 0.50241
 N25 N 0.22882 0.04559 0.50325
 C26 C 0.28849 0.03490 0.55507
 N27 N 0.28636 0.00863 0.53509
 C28 C 0.30749 -0.01709 0.53681
 C29 C 0.33165 -0.01735 0.55961
 C30 C 0.31209 0.03551 0.57840
 C31 C 0.20595 -0.03439 0.48389
 C32 C 0.18531 -0.06181 0.48482
 C33 C 0.21053 -0.08014 0.53342
 C34 C 0.23128 -0.05270 0.53117
 N35 N 0.22878 -0.03069 0.50647
 H36 H 0.27213 0.05564 0.55284
 H37 H 0.30569 -0.03730 0.52021
 H38 H 0.34849 -0.03782 0.56016
 H39 H 0.31290 0.05633 0.59442
 H40 H 0.20402 -0.01606 0.46493
 H41 H 0.16737 -0.06454 0.46657
 H42 H 0.21251 -0.09746 0.55321
 H43 H 0.24906 -0.04881 0.54929
 C44 C 0.18386 0.09646 0.50472
 C45 C 0.31309 0.00349 0.41079
 C46 C 0.18748 -0.08501 0.50982
 C47 C 0.33415 0.00916 0.58092
 C48 C 0.69624 0.02199 0.53340
 H49 H 0.69459 0.03996 0.51412
 C50 C 0.67577 0.02437 0.55842
 H51 H 0.65823 0.04418 0.55805
 C52 C 0.72024 -0.02660 0.55630
 H53 H 0.73731 -0.04669 0.55513
 C54 C 0.70018 -0.02516 0.58182
 H55 H 0.70243 -0.04394 0.60039
 N56 N 0.71790 -0.00319 0.53276
 C57 C 0.78719 0.03505 0.46715
 H58 H 0.78546 0.01574 0.44963
 C59 C 0.80860 0.06153 0.46359
 H60 H 0.82275 0.06267 0.44282
 C61 C 0.77061 0.05659 0.51542
 H62 H 0.75623 0.05409 0.53592
 C63 C 0.79221 0.08324 0.51310
 H64 H 0.79430 0.10086 0.53207
 Zn65 Zn 0.74271 -0.00562 0.49654
 N66 N 0.76867 0.03308 0.49268
 C67 C 0.71294 0.01648 0.43946
 N68 N 0.71440 -0.00843 0.46174
 C69 C 0.69394 -0.03489 0.46109
 C70 C 0.67093 -0.03713 0.43733
 C71 C 0.69025 0.01526 0.41527
 C72 C 0.79404 -0.04144 0.52085
 C73 C 0.81785 -0.06567 0.52213
 C74 C 0.79194 -0.09407 0.47908
 C75 C 0.76875 -0.06895 0.47832
 N76 N 0.77035 -0.04318 0.49894
 H77 H 0.72862 0.03793 0.44090
 H78 H 0.69520 -0.05402 0.47941
 H79 H 0.65484 -0.05841 0.43727
 H80 H 0.68885 0.03580 0.39830
 H81 H 0.79497 -0.02050 0.53671
 H82 H 0.83697 -0.06341 0.53924
 H83 H 0.79094 -0.11390 0.46200
 H84 H 0.75018 -0.06954 0.46060
 C85 C 0.81189 0.08575 0.48706
 C86 C 0.67742 0.00049 0.58303
 C87 C 0.81722 -0.09211 0.50076
 C88 C 0.66861 -0.01159 0.41422
 C89 C 0.48059 0.19734 1.04253
 H90 H 0.46276 0.19869 1.02402
 C91 C 0.47788 0.17345 1.06659
 H92 H 0.45758 0.15676 1.06659
 C93 C 0.52858 0.21774 1.06485
 H94 H 0.54859 0.23466 1.06376
 C95 C 0.52691 0.19400 1.08932
 H96 H 0.54582 0.19281 1.10678
 N97 N 0.50552 0.21900 1.04214
 C98 C 0.46957 0.30336 0.98486
 H99 H 0.48740 0.30525 0.96715
 C100 C 0.44408 0.32571 0.98414
 H101 H 0.44253 0.34485 0.96583
 C102 C 0.45056 0.27683 1.03082
 H103 H 0.45332 0.25815 1.04930
 C104 C 0.42482 0.29875 1.03109
 H105 H 0.40773 0.29613 1.04946
 Zn106 Zn 0.50736 0.24945 1.00767
 N107 N 0.47209 0.27914 1.00768
 C108 C 0.48580 0.22827 0.94714
 N109 N 0.50729 0.22330 0.97090
 C110 C 0.52908 0.19828 0.96981
 C111 C 0.53002 0.17721 0.94404
 C112 C 0.48610 0.20798 0.92074
 C113 C 0.54713 0.29749 1.03463
 C114 C 0.57287 0.31942 1.03702
 C115 C 0.59327 0.29632 0.98964
 C116 C 0.56708 0.27476 0.98815
 N117 N 0.54457 0.27592 1.01037
 H118 H 0.46827 0.24783 0.94858
 H119 H 0.54557 0.19450 0.98924
 H120 H 0.54715 0.15701 0.94412
 H121 H 0.46913 0.21280 0.90190
 H122 H 0.52879 0.29801 1.05186
 H123 H 0.57429 0.33668 1.05634
 H124 H 0.61039 0.29593 0.97119
 H125 H 0.56436 0.25781 0.96877
 C126 C 0.42122 0.32351 1.00745
 C127 C 0.50141 0.17127 1.09026
 C128 C 0.59609 0.31944 1.01403
 C129 C 0.50838 0.18191 0.91894
 C130 C 0.47693 0.80546 -0.03684
 H131 H 0.46123 0.80771 -0.01736
 C132 C 0.47691 0.83012 -0.06058
 H133 H 0.46117 0.85144 -0.05910
 C134 C 0.51757 0.77561 -0.06160
 H135 H 0.53342 0.75433 -0.06186
 C136 C 0.51825 0.79955 -0.08583
 H137 H 0.53447 0.79621 -0.10476
 N138 N 0.49732 0.77911 -0.03762
 C139 C 0.46380 0.69277 0.01689
 H140 H 0.48301 0.69050 0.03391
 C141 C 0.43871 0.66998 0.01772
 H142 H 0.43886 0.65007 0.03536
 C143 C 0.44081 0.72111 -0.02719
 H144 H 0.44181 0.74114 -0.04460
 C145 C 0.41525 0.69860 -0.02736
 H146 H 0.39652 0.70160 -0.04484
 Zn147 Zn 0.49930 0.74804 -0.00372
 N148 N 0.46429 0.71795 -0.00508
 C149 C 0.47758 0.76449 0.05652
 N150 N 0.49896 0.77235 0.03417
 C151 C 0.51952 0.79850 0.03793
 C152 C 0.51975 0.81714 0.06533
 C153 C 0.47695 0.78248 0.08420
 C154 C 0.53496 0.69017 -0.01532
 C155 C 0.56203 0.67078 -0.01831
 C156 C 0.59370 0.71890 -0.00351
 C157 C 0.56590 0.73741 -0.00068
 N158 N 0.53721 0.72278 -0.00630
 H159 H 0.46058 0.74460 0.05295
 H160 H 0.53517 0.80556 0.01929
 H161 H 0.53589 0.83823 0.06766
 H162 H 0.45988 0.77565 0.10174
 H163 H 0.51218 0.67914 -0.02074
 H164 H 0.55951 0.64468 -0.02493
 H165 H 0.61632 0.73102 0.00076
 H166 H 0.56742 0.76353 0.00565
 C167 C 0.41392 0.67284 -0.00448
 C168 C 0.49804 0.82752 -0.08535
 C169 C 0.59193 0.68512 -0.01251
 C170 C 0.49822 0.80917 0.08886
 C171 C 1.03458 0.48349 0.19894
 H172 H 1.01528 0.46553 0.19871
 C173 C 1.05901 0.48053 0.17773
 H174 H 1.05826 0.46025 0.16112
 C175 C 1.05802 0.53272 0.21996
 H176 H 1.05724 0.55330 0.23615
 C177 C 1.08286 0.53082 0.19902
 H178 H 1.10134 0.54976 0.19963
 N179 N 1.03448 0.50928 0.21947
 C180 C 0.97114 0.47457 0.29236
 H181 H 0.95412 0.49485 0.29149
 C182 C 0.96786 0.44825 0.31404
 H183 H 0.94766 0.44821 0.32913
 C184 C 1.01791 0.45036 0.27338
 H185 H 1.03773 0.45167 0.25789
 C186 C 1.01594 0.42386 0.29525
 H187 H 1.03454 0.40520 0.29640
 Zn188 Zn 0.99879 0.51301 0.24518
 N189 N 0.99563 0.47501 0.27234
 C190 C 0.93802 0.49404 0.22075
 N191 N 0.96268 0.51603 0.21826
 C192 C 0.96366 0.53926 0.19454
 C193 C 0.93963 0.54039 0.17165
 C194 C 0.91315 0.49483 0.19874
 C195 C 1.02441 0.54915 0.29449
 C196 C 1.02554 0.57326 0.31781
 C197 C 0.98204 0.60230 0.29173
 C198 C 0.98145 0.57728 0.26900
 N199 N 1.00219 0.55113 0.27109
 H200 H 0.93797 0.47506 0.23908
 H201 H 0.98375 0.55609 0.19283
 H202 H 0.94120 0.55819 0.15225
 H203 H 0.89411 0.47660 0.20045
 H204 H 1.04036 0.52791 0.29575
 H205 H 1.04266 0.57064 0.33690
 H206 H 0.96469 0.62230 0.29055
 H207 H 0.96365 0.57807 0.25049
 C208 C 0.99072 0.42263 0.31615
 C209 C 1.08345 0.50457 0.17738
 C210 C 1.00374 0.59983 0.31696
 C211 C 0.91420 0.51775 0.17355
 C212 C -0.04848 0.46307 0.79242
 H213 H -0.03375 0.44083 0.79265
 C214 C -0.07518 0.46399 0.81103
 H215 H -0.08084 0.44243 0.82576
 C216 C -0.05777 0.51911 0.77455
 H217 H -0.05036 0.54095 0.76118
 C218 C -0.08442 0.52122 0.79299
 H219 H -0.09763 0.54454 0.79322
 N220 N -0.04031 0.49040 0.77471
 C221 C 0.02724 0.44618 0.71208
 H222 H 0.04747 0.46221 0.71683
 C223 C 0.02941 0.42058 0.69036
 H224 H 0.05176 0.41662 0.67918
 C225 C -0.02642 0.43249 0.72087
 H226 H -0.04840 0.43792 0.73213
 C227 C -0.02552 0.40703 0.69873
 H228 H -0.04698 0.39322 0.69322
 Zn229 Zn -0.00181 0.48927 0.75320
 N230 N -0.00028 0.45154 0.72697
 C231 C 0.05138 0.46177 0.78728
 N232 N 0.03110 0.48818 0.78400
 C233 C 0.03261 0.51455 0.80386
 C234 C 0.05561 0.51545 0.82774
 C235 C 0.07491 0.46173 0.81075
 C236 C -0.02202 0.53321 0.70553
 C237 C -0.02106 0.56081 0.68495
 C238 C 0.02981 0.57606 0.70745
 C239 C 0.02756 0.54851 0.72814
 N240 N 0.00181 0.52787 0.72689
 H241 H 0.04925 0.44051 0.77196
 H242 H 0.01576 0.53488 0.80115
 H243 H 0.05606 0.53651 0.84349
 H244 H 0.09119 0.44077 0.81255
 H245 H -0.04189 0.51599 0.70463
 H246 H -0.04022 0.56473 0.66806
 H247 H 0.05050 0.59219 0.70840
 H248 H 0.04660 0.54332 0.74476
 C249 C 0.00260 0.40105 0.68280
 C250 C -0.09310 0.49360 0.81186
 C251 C 0.00515 0.58250 0.68570
 C252 C 0.07730 0.48886 0.83137
 C253 C 0.07860 0.18852 0.50142
 C254 C 0.07976 0.21803 0.48290
 C255 C 0.05300 0.23895 0.48064
 C256 C 0.02480 0.22987 0.49599
 C257 C 0.02547 0.20144 0.51643
 C258 C 0.05168 0.18025 0.51845
 C259 C 0.10605 0.16574 0.50299
 C260 C 0.10437 0.13587 0.52092
 C261 C 0.12992 0.11363 0.52142
 C262 C 0.15748 0.12121 0.50469
 C263 C 0.15901 0.15173 0.48728
 C264 C 0.13322 0.17397 0.48618
 C265 C 0.05116 0.15055 0.53675
 C266 C 0.07700 0.12858 0.53777
 C267 C 0.10755 0.22574 0.46677
 C268 C 0.13383 0.20411 0.46840
 H269 H 0.03040 0.14396 0.54997
 H270 H 0.07550 0.10565 0.55180
 H271 H 0.10890 0.24850 0.45250
 H272 H 0.15467 0.21086 0.45538
 H273 H 0.05436 0.26213 0.46707
 H274 H 0.00488 0.19514 0.53003
 H275 H 0.12790 0.09000 0.53428
 H276 H 0.18016 0.15815 0.47461
 C277 C 0.69618 0.59344 -0.01738
 C278 C 0.69505 0.56808 -0.03975
 C279 C 0.71658 0.54164 -0.03727
 C280 C 0.73899 0.53957 -0.01220
 C281 C 0.74177 0.56722 0.00817
 C282 C 0.71969 0.59360 0.00630
 C283 C 0.67133 0.61935 -0.01793
 C284 C 0.67117 0.64359 0.00559
 C285 C 0.64580 0.66625 0.00657
 C286 C 0.62080 0.66452 -0.01571
 C287 C 0.62237 0.64124 -0.04010
 C288 C 0.64728 0.61830 -0.04106
 C289 C 0.71969 0.61930 0.02852
 C290 C 0.69571 0.64375 0.02829
 C291 C 0.67135 0.56862 -0.06326
 C292 C 0.64789 0.59343 -0.06397
 H293 H 0.73774 0.61987 0.04687
 H294 H 0.69603 0.66247 0.04644
 H295 H 0.67045 0.54920 -0.08076
 H296 H 0.62954 0.59251 -0.08202
 H297 H 0.71464 0.52119 -0.05371
 H298 H 0.76011 0.56808 0.02609
 H299 H 0.64477 0.68402 0.02548
 H300 H 0.60365 0.64029 -0.05779
 C301 C 0.92375 -0.18203 0.49939
 C302 C 0.91905 -0.21702 0.50049
 C303 C 0.94550 -0.23845 0.50190
 C304 C 0.97671 -0.22523 0.50322
 C305 C 0.98036 -0.18980 0.49965
 C306 C 0.95425 -0.16829 0.49865
 C307 C 0.89623 -0.15925 0.49896
 C308 C 0.90120 -0.12425 0.49838
 C309 C 0.87516 -0.10266 0.49894
 C310 C 0.84422 -0.11572 0.49969
 C311 C 0.83947 -0.15090 0.49945
 C312 C 0.86554 -0.17286 0.49939
 C313 C 0.95823 -0.13313 0.49729
 C314 C 0.93215 -0.11147 0.49736
 C315 C 0.88797 -0.22976 0.50062
 C316 C 0.86169 -0.20808 0.50003
 H317 H 0.98174 -0.12224 0.49664
 H318 H 0.93626 -0.08451 0.49671
 H319 H 0.88392 -0.25673 0.50140
 H320 H 0.83818 -0.21898 0.50034
 H321 H 0.94192 -0.26550 0.50292
 H322 H 1.00336 -0.17824 0.49747
 H323 H 0.87888 -0.07561 0.49857
 H324 H 0.81566 -0.16105 0.50000
 C325 C 0.31597 0.41562 1.00695
 C326 C 0.30056 0.42416 0.97857
 C327 C 0.27614 0.44797 0.97831
 C328 C 0.26640 0.46307 1.00630
 C329 C 0.28288 0.45435 1.03446
 C330 C 0.30724 0.43047 1.03499
 C331 C 0.34260 0.39166 1.00714
 C332 C 0.35849 0.38372 1.03546
 C333 C 0.38405 0.36129 1.03545
 C334 C 0.39395 0.34704 1.00733
 C335 C 0.37773 0.35539 0.97911
 C336 C 0.35204 0.37769 0.97889
 C337 C 0.32364 0.42180 1.06290
 C338 C 0.34874 0.39873 1.06316
 C339 C 0.31051 0.40942 0.95080
 C340 C 0.33576 0.38654 0.95097
 H341 H 0.31714 0.43310 1.08472
 H342 H 0.36082 0.39286 1.08517
 H343 H 0.29883 0.41583 0.92870
 H344 H 0.34277 0.37592 0.92901
 H345 H 0.26570 0.45569 0.95600
 H346 H 0.27736 0.46698 1.05592
 H347 H 0.39664 0.35544 1.05721
 H348 H 0.38494 0.34431 0.95741
 C349 C 0.91289 0.18379 0.48492
 C350 C 0.90870 0.21558 0.49806
 C351 C 0.93453 0.23794 0.49994
 C352 C 0.96487 0.22795 0.49036
 C353 C 0.96732 0.19717 0.47432
 C354 C 0.94195 0.17465 0.47255
 C355 C 0.88649 0.15943 0.48432
 C356 C 0.89116 0.12741 0.47183
 C357 C 0.86659 0.10377 0.47260
 C358 C 0.83716 0.11192 0.48530
 C359 C 0.83264 0.14453 0.49711
 C360 C 0.85735 0.16834 0.49683
 C361 C 0.94543 0.14275 0.45938
 C362 C 0.92051 0.11942 0.45922
 C363 C 0.87895 0.22393 0.50971
 C364 C 0.85373 0.20071 0.50913
 H365 H 0.96782 0.13549 0.44971
 H366 H 0.92432 0.09483 0.44937
 H367 H 0.87528 0.24841 0.51982
 H368 H 0.83134 0.20802 0.51874
 H369 H 0.93126 0.26263 0.50975
 H370 H 0.98938 0.19008 0.46390
 H371 H 0.87079 0.07868 0.46406
 H372 H 0.81004 0.15135 0.50657
 C373 C 0.31398 0.57417 0.00060
 C374 C 0.30400 0.55814 -0.02686
 C375 C 0.28107 0.53265 -0.02513
 C376 C 0.26693 0.52381 0.00362
 C377 C 0.27847 0.53955 0.03110
 C378 C 0.30151 0.56495 0.02965
 C379 C 0.33875 0.60036 -0.00095
 C380 C 0.34948 0.61560 0.02672
 C381 C 0.37360 0.63982 0.02526
 C382 C 0.38707 0.64877 -0.00358
 C383 C 0.37571 0.63361 -0.03119
 C384 C 0.35169 0.60916 -0.02996
 C385 C 0.31269 0.58095 0.05680
 C386 C 0.33624 0.60590 0.05535
 C387 C 0.31743 0.56762 -0.05548
 C388 C 0.34078 0.59280 -0.05703
 H389 H 0.30327 0.57403 0.07938
 H390 H 0.34433 0.61748 0.07686
 H391 H 0.30988 0.55542 -0.07687
 H392 H 0.35060 0.59927 -0.07954
 H393 H 0.27430 0.51946 -0.04622
 H394 H 0.27008 0.53162 0.05381
 H395 H 0.38202 0.65163 0.04656
 H396 H 0.38624 0.64007 -0.05339
 C397 C 0.09045 -0.18644 0.51126
 C398 C 0.08641 -0.20763 0.48554
 C399 C 0.06032 -0.22959 0.48427
 C400 C 0.03702 -0.22901 0.50757
 C401 C 0.04287 -0.20866 0.53407
 C402 C 0.06920 -0.18731 0.53591
 C403 C 0.11695 -0.16218 0.51200
 C404 C 0.12074 -0.14075 0.53765
 C405 C 0.14503 -0.11661 0.53754
 C406 C 0.16474 -0.11325 0.51161
 C407 C 0.16104 -0.13528 0.48633
 C408 C 0.13728 -0.16003 0.48652
 C409 C 0.07409 -0.16600 0.56148
 C410 C 0.09951 -0.14319 0.56239
 C411 C 0.10807 -0.20571 0.46109
 C412 C 0.13291 -0.18211 0.46145
 H413 H 0.05785 -0.16658 0.58073
 H414 H 0.10218 -0.12685 0.58233
 H415 H 0.10532 -0.22196 0.44111
 H416 H 0.14859 -0.18088 0.44176
 H417 H 0.05839 -0.24644 0.46479
 H418 H 0.02587 -0.20839 0.55267
 H419 H 0.14772 -0.09941 0.55686
 H420 H 0.17633 -0.13270 0.46641
 C421 C 0.69069 0.42390 1.00757
 C422 C 0.68152 0.45716 1.01250
 C423 C 0.70340 0.48308 1.00829
 C424 C 0.73437 0.47672 0.99767
 C425 C 0.74393 0.44262 0.99604
 C426 C 0.72187 0.41622 0.99977
 C427 C 0.66706 0.39668 1.01057
 C428 C 0.67582 0.36330 1.00490
 C429 C 0.65273 0.33773 1.00648
 C430 C 0.62129 0.34556 1.01397
 C431 C 0.61329 0.37912 1.02019
 C432 C 0.63596 0.40472 1.01844
 C433 C 0.73004 0.38237 0.99518
 C434 C 0.70737 0.35640 0.99749
 C435 C 0.65038 0.46414 1.02103
 C436 C 0.62794 0.43834 1.02390
 H437 H 0.75400 0.37595 0.98917
 H438 H 0.71456 0.33074 0.99324
 H439 H 0.64314 0.48984 1.02503
 H440 H 0.60404 0.44480 1.03010
 H441 H 0.69578 0.50833 1.01343
 H442 H 0.76820 0.43678 0.99069
 H443 H 0.65913 0.31190 1.00188
 H444 H 0.58910 0.38550 1.02543
 C445 C 0.49356 0.06587 1.18430
 C446 C 0.48247 0.03414 1.17544
 C447 C 0.48002 0.00850 1.19799
 C448 C 0.48916 0.01343 1.22976
 C449 C 0.49988 0.04616 1.23803
 C450 C 0.50218 0.07226 1.21548
 C451 C 0.49592 0.09297 1.16040
 C452 C 0.50669 0.12501 1.16915
 C453 C 0.50865 0.15072 1.14621
 C454 C 0.49988 0.14438 1.11479
 C455 C 0.48947 0.11191 1.10659
 C456 C 0.48726 0.08626 1.12924
 C457 C 0.51288 0.10468 1.22341
 C458 C 0.51508 0.13059 1.20066
 C459 C 0.47398 0.02841 1.14401
 C460 C 0.47644 0.05401 1.12127
 H461 H 0.51961 0.11007 1.24741
 H462 H 0.52342 0.15518 1.20780
 H463 H 0.46542 0.00388 1.13691
 H464 H 0.46969 0.04855 1.09729
 H465 H 0.47096 -0.01519 1.18990
 H466 H 0.50612 0.05143 1.26217
 H467 H 0.51649 0.17567 1.15284
 H468 H 0.48333 0.10647 1.08245
 C469 C 0.00848 0.68490 0.58920
 C470 C 0.03366 0.68542 0.56848
 C471 C 0.03252 0.70747 0.54263
 C472 C 0.00622 0.72892 0.53672
 C473 C -0.01769 0.72966 0.55942
 C474 C -0.01711 0.70704 0.58506
 C475 C 0.00858 0.66013 0.61533
 C476 C -0.01735 0.65850 0.63525
 C477 C -0.01804 0.63350 0.65883
 C478 C 0.00720 0.61067 0.66276
 C479 C 0.03352 0.61342 0.64334
 C480 C 0.03415 0.63785 0.61928
 C481 C -0.04207 0.70549 0.60622
 C482 C -0.04231 0.68147 0.63073
 C483 C 0.05909 0.66315 0.57348
 C484 C 0.05939 0.63984 0.59853
 H485 H -0.06196 0.72247 0.60338
 H486 H -0.06235 0.68064 0.64608
 H487 H 0.07874 0.66344 0.55764
 H488 H 0.07927 0.62283 0.60132
 H489 H 0.05157 0.70702 0.52608
 H490 H -0.03706 0.74720 0.55740
 H491 H -0.03826 0.63147 0.67390
 H492 H 0.05282 0.59564 0.64616
 C493 C 0.50431 0.93060 -0.18175
 C494 C 0.47636 0.94575 -0.19306
 C495 C 0.47807 0.97103 -0.21621
 C496 C 0.50734 0.98053 -0.22927
 C497 C 0.53527 0.96587 -0.21633
 C498 C 0.53383 0.94062 -0.19305
 C499 C 0.50266 0.90424 -0.15709
 C500 C 0.53069 0.88948 -0.14538
 C501 C 0.52901 0.86445 -0.12193
 C502 C 0.49954 0.85409 -0.11020
 C503 C 0.47167 0.86933 -0.12218
 C504 C 0.47311 0.89449 -0.14556
 C505 C 0.56140 0.92538 -0.18062
 C506 C 0.55985 0.90020 -0.15723
 C507 C 0.44722 0.93547 -0.18086
 C508 C 0.44561 0.91017 -0.15760
 H509 H 0.58436 0.93293 -0.18908
 H510 H 0.58167 0.88906 -0.14833
 H511 H 0.42546 0.94702 -0.18942
 H512 H 0.42266 0.90293 -0.14888
 H513 H 0.45648 0.98343 -0.22405
 H514 H 0.55821 0.97437 -0.22403
 H515 H 0.55065 0.85340 -0.11249
 H516 H 0.44888 0.86137 -0.11356
 C517 C 0.98734 0.32186 0.41500
 C518 C 0.97524 0.33062 0.44396
 C519 C 0.97619 0.30710 0.46859
 C520 C 0.99137 0.27560 0.46555
 C521 C 1.00086 0.26627 0.43537
 C522 C 0.99955 0.28958 0.41021
 C523 C 0.98733 0.34710 0.38929
 C524 C 0.99928 0.33846 0.36016
 C525 C 0.99985 0.36293 0.33600
 C526 C 0.98904 0.39600 0.34108
 C527 C 0.97711 0.40394 0.37059
 C528 C 0.97587 0.37959 0.39456
 C529 C 1.01081 0.28161 0.38055
 C530 C 1.01064 0.30562 0.35594
 C531 C 0.96309 0.36308 0.44807
 C532 C 0.96365 0.38727 0.42384
 H533 H 1.02020 0.25677 0.37643
 H534 H 1.01984 0.29853 0.33355
 H535 H 0.95367 0.37007 0.47040
 H536 H 0.95456 0.41222 0.42812
 H537 H 0.96581 0.31390 0.49052
 H538 H 1.01007 0.24126 0.43168
 H539 H 1.00866 0.35621 0.31335
 H540 H 0.96940 0.42931 0.37528
 C541 C 0.49164 0.89750 0.19362
 C542 C 0.46213 0.90969 0.20222
 C543 C 0.46075 0.93561 0.22385
 C544 C 0.48865 0.95001 0.23731
 C545 C 0.51800 0.93571 0.22925
 C546 C 0.51961 0.90995 0.20730
 C547 C 0.49335 0.87289 0.16828
 C548 C 0.52302 0.86223 0.15827
 C549 C 0.52456 0.84062 0.13275
 C550 C 0.49666 0.82986 0.11727
 C551 C 0.46710 0.84014 0.12815
 C552 C 0.46531 0.86184 0.15350
 C553 C 0.54886 0.89767 0.19751
 C554 C 0.55054 0.87423 0.17339
 C555 C 0.43453 0.89728 0.18752
 C556 C 0.43609 0.87365 0.16362
 H557 H 0.57069 0.90696 0.20798
 H558 H 0.57358 0.86604 0.16604
 H559 H 0.41155 0.90650 0.19403
 H560 H 0.41429 0.86523 0.15245
 H561 H 0.43788 0.94676 0.22769
 H562 H 0.54002 0.94534 0.23845
 H563 H 0.54737 0.83252 0.12466
 H564 H 0.44555 0.83237 0.11609
 C565 C 0.00161 0.31064 0.57865
 C566 C -0.01777 0.28186 0.57903
 C567 C -0.01985 0.26172 0.55230
 C568 C -0.00360 0.27102 0.52484
 C569 C 0.01782 0.29847 0.52637
 C570 C 0.01975 0.31885 0.55258
 C571 C 0.00281 0.33280 0.60597
 C572 C 0.02156 0.36203 0.60501
 C573 C 0.02155 0.38386 0.63032
 C574 C 0.00341 0.37652 0.65687
 C575 C -0.01471 0.34656 0.65774
 C576 C -0.01527 0.32473 0.63219
 C577 C 0.03890 0.34781 0.55283
 C578 C 0.03961 0.36920 0.57854
 C579 C -0.03505 0.27418 0.60597
 C580 C -0.03381 0.29524 0.63210
 H581 H 0.05299 0.35434 0.53274
 H582 H 0.05428 0.39162 0.57762
 H583 H -0.05000 0.25197 0.60671
 H584 H -0.04780 0.28861 0.65222
 H585 H -0.03411 0.23906 0.55306
 H586 H 0.03213 0.30481 0.50637
 H587 H 0.03501 0.40708 0.62883
 H588 H -0.02845 0.34031 0.67814
 C589 C 0.50908 0.08984 0.81581
 C590 C 0.48031 0.07946 0.80212
 C591 C 0.48044 0.05517 0.77870
 C592 C 0.50912 0.04124 0.76842
 C593 C 0.53768 0.05167 0.78328
 C594 C 0.53784 0.07625 0.80644
 C595 C 0.50897 0.11433 0.84141
 C596 C 0.53771 0.12412 0.85560
 C597 C 0.53744 0.14681 0.88039
 C598 C 0.50863 0.15925 0.89149
 C599 C 0.48001 0.14918 0.87679
 C600 C 0.48006 0.12680 0.85173
 C601 C 0.56617 0.08684 0.82105
 C602 C 0.56612 0.11052 0.84508
 C603 C 0.45187 0.09284 0.81280
 C604 C 0.45175 0.11609 0.83719
 H605 H 0.58856 0.07657 0.81400
 H606 H 0.58848 0.11785 0.85583
 H607 H 0.42948 0.08500 0.80246
 H608 H 0.42927 0.12552 0.84491
 H609 H 0.45800 0.04618 0.76940
 H610 H 0.55980 0.03991 0.77746
 H611 H 0.55966 0.15468 0.89108
 H612 H 0.45764 0.15798 0.88534
 C613 C 0.99983 0.68617 0.42368
 C614 C 0.99814 0.67141 0.45357
 C615 C 0.99875 0.69196 0.47979
 C616 C 1.00295 0.72739 0.47692
 C617 C 1.00247 0.74173 0.44627
 C618 C 1.00145 0.72127 0.41970
 C619 C 0.99992 0.66437 0.39606
 C620 C 1.00137 0.67901 0.36598
 C621 C 1.00202 0.65795 0.33982
 C622 C 1.00190 0.62263 0.34392
 C623 C 1.00008 0.60854 0.37425
 C624 C 0.99890 0.62923 0.40034
 C625 C 1.00253 0.73508 0.38922
 C626 C 1.00245 0.71433 0.36283
 C627 C 0.99628 0.63617 0.45683
 C628 C 0.99687 0.61542 0.43067
 H629 H 1.00373 0.76215 0.38573
 H630 H 1.00353 0.72603 0.33980
 H631 H 0.99489 0.62448 0.47985
 H632 H 0.99586 0.58835 0.43423
 H633 H 0.99587 0.67968 0.50227
 H634 H 1.00395 0.76885 0.44326
 H635 H 1.00336 0.66886 0.31647
 H636 H 0.99942 0.58139 0.37744
 C637 C 1.17743 0.49822 0.08191
 C638 C 1.19021 0.46698 0.07412
 C639 C 1.21205 0.46545 0.04992
 C640 C 1.22197 0.49506 0.03392
 C641 C 1.20757 0.52594 0.04149
 C642 C 1.18590 0.52776 0.06569
 C643 C 1.15402 0.49991 0.10694
 C644 C 1.14090 0.53114 0.11436
 C645 C 1.11833 0.53257 0.13785
 C646 C 1.10859 0.50301 0.15369
 C647 C 1.12210 0.47188 0.14596
 C648 C 1.14482 0.47020 0.12259
 C649 C 1.17225 0.55856 0.07376
 C650 C 1.15022 0.56024 0.09776
 C651 C 1.18052 0.43779 0.09041
 C652 C 1.15827 0.43938 0.11426
 H653 H 1.17862 0.58156 0.06139
 H654 H 1.14022 0.58448 0.10319
 H655 H 1.19016 0.41348 0.08462
 H656 H 1.15138 0.41625 0.12613
 H657 H 1.22075 0.44107 0.04321
 H658 H 1.21317 0.54867 0.02832
 H659 H 1.10770 0.55654 0.14320
 H660 H 1.11493 0.44903 0.15816
 C661 C 0.58522 0.00589 0.68030
 C662 C 0.57099 -0.02402 0.69090
 C663 C 0.54712 -0.02242 0.71305
 C664 C 0.53780 0.00874 0.72555
 C665 C 0.55187 0.03858 0.71356
 C666 C 0.57582 0.03725 0.69142
 C667 C 0.60964 0.00442 0.65621
 C668 C 0.62323 0.03445 0.64493
 C669 C 0.64589 0.03298 0.62151
 C670 C 0.65479 0.00178 0.60914
 C671 C 0.64104 -0.02811 0.62098
 C672 C 0.61839 -0.02691 0.64443
 C673 C 0.59012 0.06675 0.67972
 C674 C 0.61349 0.06537 0.65696
 C675 C 0.58050 -0.05494 0.67869
 C676 C 0.60384 -0.05637 0.65590
 H677 H 0.58308 0.09114 0.68812
 H678 H 0.62378 0.08873 0.64846
 H679 H 0.56968 -0.07823 0.68669
 H680 H 0.61033 -0.08072 0.64699
 H681 H 0.53534 -0.04549 0.72016
 H682 H 0.54372 0.06298 0.72083
 H683 H 0.65652 0.05610 0.61285
 H684 H 0.64726 -0.05220 0.61131
 C685 C -0.18502 0.50379 0.90807
 C686 C -0.18291 0.53094 0.92849
 C687 C -0.20246 0.53147 0.95429
 C688 C -0.22385 0.50477 0.96066
 C689 C -0.22752 0.47919 0.93815
 C690 C -0.20740 0.47803 0.91243
 C691 C -0.16286 0.50199 0.88205
 C692 C -0.16393 0.47409 0.86230
 C693 C -0.14145 0.47158 0.83874
 C694 C -0.11848 0.49701 0.83481
 C695 C -0.11844 0.52524 0.85425
 C696 C -0.14035 0.52772 0.87807
 C697 C -0.20858 0.45115 0.89143
 C698 C -0.18705 0.44908 0.86694
 C699 C -0.16054 0.55655 0.92338
 C700 C -0.13963 0.55501 0.89851
 H701 H -0.22577 0.43111 0.89440
 H702 H -0.18831 0.42754 0.85173
 H703 H -0.15884 0.57769 0.93904
 H704 H -0.12240 0.57502 0.89560
 H705 H -0.20005 0.55202 0.97056
 H706 H -0.24550 0.46002 0.94032
 H707 H -0.14161 0.44988 0.82369
 H708 H -0.10050 0.54461 0.85161
 C709 C 0.40347 -0.00855 0.31295
 C710 C 0.41706 -0.04001 0.30783
 C711 C 0.44232 -0.04223 0.28748
 C712 C 0.45492 -0.01321 0.27221
 C713 C 0.43971 0.01803 0.27697
 C714 C 0.41428 0.02047 0.29735
 C715 C 0.37866 -0.00568 0.33643
 C716 C 0.36593 0.02607 0.34262
 C717 C 0.34362 0.02890 0.36624
 C718 C 0.33443 0.00030 0.38388
 C719 C 0.34708 -0.03141 0.37686
 C720 C 0.36917 -0.03454 0.35322
 C721 C 0.40029 0.05170 0.30347
 C722 C 0.37649 0.05444 0.32567
 C723 C 0.40628 -0.06851 0.32441
 C724 C 0.38272 -0.06582 0.34676
 H725 H 0.40827 0.07434 0.29148
 H726 H 0.36678 0.07908 0.33010
 H727 H 0.41664 -0.09299 0.32060
 H728 H 0.37551 -0.08829 0.35951
 H729 H 0.45396 -0.06635 0.28559
 H730 H 0.44802 0.04096 0.26605
 H731 H 0.33378 0.05336 0.37119
 H732 H 0.34075 -0.05351 0.39062
 C733 C 0.17289 0.49151 0.92972
 C734 C 0.18709 0.52225 0.93766
 C735 C 0.20993 0.52293 0.96187
 C736 C 0.21991 0.49288 0.97742
 C737 C 0.20411 0.46250 0.96982
 C738 C 0.18102 0.46159 0.94581
 C739 C 0.14854 0.49076 0.90449
 C740 C 0.13387 0.46009 0.89694
 C741 C 0.11062 0.45956 0.87302
 C742 C 0.10209 0.48942 0.85660
 C743 C 0.11719 0.51994 0.86455
 C744 C 0.14026 0.52078 0.88858
 C745 C 0.16576 0.43137 0.93765
 C746 C 0.14260 0.43063 0.91362
 C747 C 0.17803 0.55182 0.92134
 C748 C 0.15514 0.55107 0.89710
 H749 H 0.17179 0.40809 0.94993
 H750 H 0.13143 0.40680 0.90807
 H751 H 0.18883 0.57574 0.92727
 H752 H 0.14891 0.57443 0.88504
 H753 H 0.21961 0.54704 0.96874
 H754 H 0.20982 0.43950 0.98271
 H755 H 0.09885 0.43603 0.86755
 H756 H 0.11120 0.54299 0.85188
 C757 C 0.56571 -0.01187 0.32363
 C758 C 0.57098 -0.00259 0.29242
 C759 C 0.54560 -0.00330 0.27062
 C760 C 0.51474 -0.01349 0.27951
 C761 C 0.51059 -0.02221 0.31155
 C762 C 0.53562 -0.02152 0.33336
 C763 C 0.59222 -0.01173 0.34663
 C764 C 0.58670 -0.02121 0.37783
 C765 C 0.61185 -0.02121 0.39960
 C766 C 0.64248 -0.01191 0.39049
 C767 C 0.64765 -0.00229 0.35907
 C768 C 0.62252 -0.00222 0.33700
 C769 C 0.53099 -0.03063 0.36484
 C770 C 0.55611 -0.03047 0.38671
 C771 C 0.60164 0.00687 0.28360
 C772 C 0.62697 0.00706 0.30550
 H773 H 0.50775 -0.03809 0.37264
 H774 H 0.55156 -0.03775 0.41074
 H775 H 0.60614 0.01411 0.25955
 H776 H 0.65021 0.01448 0.29770
 H777 H 0.55008 0.00335 0.24644
 H778 H 0.48811 -0.02976 0.32050
 H779 H 0.60746 -0.02794 0.42380
 H780 H 0.67119 0.00477 0.35181
 C781 C 0.82432 0.50677 0.07154
 C782 C 0.83531 0.49916 0.04186
 C783 C 0.81379 0.49723 0.01673
 C784 C 0.78142 0.50539 0.02014
 C785 C 0.77063 0.51045 0.05086
 C786 C 0.79201 0.51170 0.07648
 C787 C 0.84715 0.50950 0.09793
 C788 C 0.83622 0.51641 0.12791
 C789 C 0.85820 0.51903 0.15290
 C790 C 0.89076 0.51558 0.14763
 C791 C 0.90125 0.50874 0.11746
 C792 C 0.87954 0.50527 0.09259
 C793 C 0.78188 0.51840 0.10685
 C794 C 0.80360 0.52060 0.13215
 C795 C 0.86779 0.49416 0.03762
 C796 C 0.88959 0.49747 0.06252
 H797 H 0.75700 0.52219 0.11107
 H798 H 0.79480 0.52590 0.15515
 H799 H 0.87651 0.48824 0.01472
 H800 H 0.91448 0.49390 0.05820
 H801 H 0.82287 0.48956 -0.00546
 H802 H 0.74570 0.51459 0.05457
 H803 H 0.85017 0.52413 0.17625
 H804 H 0.92630 0.50550 0.11358
 C805 C 0.43299 0.00996 0.67615
 C806 C 0.44272 -0.02055 0.69018
 C807 C 0.46697 -0.02033 0.71300
 C808 C 0.48070 0.01030 0.72319
 C809 C 0.47133 0.04053 0.70763
 C810 C 0.44730 0.04055 0.68449
 C811 C 0.40774 0.00979 0.65179
 C812 C 0.39844 0.04024 0.63725
 C813 C 0.37450 0.03991 0.61402
 C814 C 0.35967 0.00941 0.60545
 C815 C 0.36939 -0.02089 0.62039
 C816 C 0.39353 -0.02086 0.64340
 C817 C 0.43743 0.07053 0.66935
 C818 C 0.41341 0.07038 0.64614
 C819 C 0.42813 -0.05077 0.68099
 C820 C 0.40381 -0.05091 0.65812
 H821 H 0.44834 0.09432 0.67551
 H822 H 0.40651 0.09406 0.63506
 H823 H 0.43546 -0.07452 0.69166
 H824 H 0.39309 -0.07474 0.65181
 H825 H 0.47527 -0.04419 0.72263
 H826 H 0.48289 0.06407 0.71345
 H827 H 0.36773 0.06332 0.60236
 H828 H 0.35796 -0.04446 0.61439
   
