data_POSCAR
  _audit_creation_date              2014-09-24
  _audit_creation_method            'ToBaCCo'
  _symmetry_space_group_name_H-M    'P1'
  _symmetry_Int_Tables_number       1
  _symmetry_cell_setting            triclinic
  loop_
  _symmetry_equiv_pos_as_xyz
 x,y,z
_cell_length_a 47.4998
_cell_length_b 30.0255
_cell_length_c 20.8193
_cell_angle_alpha 89.963400
_cell_angle_beta 89.731000
_cell_angle_gamma 90.030500
loop_
  _atom_site_label
  _atom_site_type_symbol
  _atom_site_fract_x
  _atom_site_fract_y
  _atom_site_fract_z
C1 C 0.79466 0.18942 0.44030
 C2 C 0.80639 0.17464 0.49833
 C3 C 0.79535 0.18646 0.55873
 C4 C 0.77031 0.21250 0.56103
 C5 C 0.75703 0.22579 0.50294
 C6 C 0.76932 0.21457 0.44257
 C7 C 0.75517 0.22712 0.38607
 C8 C 0.73019 0.25114 0.38841
 C9 C 0.71806 0.26366 0.44728
 C10 C 0.73160 0.25119 0.50522
 C11 C 0.75896 0.22790 0.61956
 C12 C 0.73458 0.25327 0.62161
 C13 C 0.71994 0.26446 0.56534
 C14 C 0.69500 0.29077 0.56726
 C15 C 0.68230 0.30283 0.50896
 C16 C 0.69305 0.28913 0.44954
 H17 H 0.76278 0.21782 0.33900
 H18 H 0.72067 0.26024 0.34316
 H19 H 0.76903 0.22208 0.66511
 H20 H 0.72803 0.26490 0.66839
 H21 H 0.82504 0.15420 0.49639
 H22 H 0.66236 0.32033 0.50944
 C23 C 0.29788 0.70357 0.44164
 C24 C 0.30695 0.68344 0.49841
 C25 C 0.29278 0.68981 0.55690
 C26 C 0.26810 0.71633 0.55822
 C27 C 0.25833 0.73652 0.50079
 C28 C 0.27331 0.73003 0.44235
 C29 C 0.26284 0.74896 0.38561
 C30 C 0.23832 0.77405 0.38607
 C31 C 0.22341 0.78185 0.44346
 C32 C 0.23346 0.76305 0.50162
 C33 C 0.25308 0.72357 0.61544
 C34 C 0.22872 0.74924 0.61634
 C35 C 0.21846 0.76987 0.56020
 C36 C 0.19310 0.79535 0.56010
 C37 C 0.18381 0.81349 0.50151
 C38 C 0.19828 0.80688 0.44369
 H39 H 0.27314 0.74378 0.33977
 H40 H 0.23108 0.78674 0.34045
 H41 H 0.25984 0.70928 0.66047
 H42 H 0.21801 0.75159 0.66198
 H43 H 0.32566 0.66282 0.49701
 H44 H 0.16573 0.83539 0.50059
 C45 C 0.20950 0.18666 -0.43016
 C46 C 0.19647 0.17191 -0.48682
 C47 C 0.20504 0.18640 -0.54815
 C48 C 0.22878 0.21525 -0.55319
 C49 C 0.24310 0.22919 -0.49683
 C50 C 0.23341 0.21502 -0.43531
 C51 C 0.24866 0.22831 -0.38065
 C52 C 0.27197 0.25596 -0.38567
 C53 C 0.28171 0.27086 -0.44564
 C54 C 0.26731 0.25735 -0.50195
 C55 C 0.23932 0.22939 -0.61322
 C56 C 0.26245 0.25752 -0.61803
 C57 C 0.27714 0.27172 -0.56326
 C58 C 0.30076 0.30094 -0.56778
 C59 C 0.31402 0.31452 -0.51081
 C60 C 0.30539 0.29919 -0.45047
 H61 H 0.24334 0.21692 -0.33293
 H62 H 0.28218 0.26564 -0.34151
 H63 H 0.23028 0.21863 -0.65803
 H64 H 0.26828 0.26805 -0.66583
 H65 H 0.17713 0.15312 -0.48268
 H66 H 0.33312 0.33418 -0.51332
 C67 C -0.20331 0.80925 -0.57314
 C68 C -0.19120 0.82506 -0.51599
 C69 C -0.19991 0.80986 -0.45560
 C70 C -0.22236 0.77909 -0.45114
 C71 C -0.23516 0.76259 -0.50778
 C72 C -0.22562 0.77759 -0.56890
 C73 C -0.23969 0.76211 -0.62385
 C74 C -0.26105 0.73071 -0.61953
 C75 C -0.26993 0.71338 -0.55989
 C76 C -0.25767 0.73113 -0.50318
 C77 C -0.23253 0.76482 -0.39120
 C78 C -0.25478 0.73505 -0.38662
 C79 C -0.26815 0.71829 -0.44182
 C80 C -0.29095 0.68784 -0.43710
 C81 C -0.30120 0.66822 -0.49361
 C82 C -0.29173 0.68087 -0.55516
 H83 H -0.23506 0.77471 -0.67131
 H84 H -0.27098 0.72175 -0.66417
 H85 H -0.22366 0.77694 -0.34676
 H86 H -0.26073 0.72465 -0.33877
 H87 H -0.17290 0.84652 -0.51812
 H88 H -0.31745 0.64334 -0.48960
 O89 O -0.05034 0.93337 0.09906
 O90 O -0.07462 0.98388 0.03799
 C91 C -0.07341 0.95241 0.08053
 O92 O 0.04190 1.06994 0.12778
 O93 O 0.07100 1.02320 0.07068
 C94 C 0.06638 1.05255 0.11515
 O95 O -0.03715 1.08257 0.11973
 O96 O -0.06832 1.05509 0.04547
 C97 C -0.06242 1.07756 0.09672
 O98 O 0.02674 0.91024 0.10691
 O99 O 0.06399 0.94789 0.06186
 C100 C 0.05345 0.91702 0.09840
 Zr101 Zr -0.00826 0.94597 0.07155
 O102 O -0.00996 0.93885 0.17266
 O103 O -0.01800 0.87762 0.05971
 Zr104 Zr 0.00212 1.05747 0.08534
 O105 O -0.00042 1.05937 0.18671
 O106 O 0.00757 1.12726 0.08242
 O107 O -0.02803 1.00702 0.08637
 O108 O 0.02032 0.99514 0.09514
 O109 O 0.03633 0.92148 -0.11499
 O110 O 0.06868 0.95291 -0.04709
 C111 C 0.06176 0.92621 -0.09340
 O112 O -0.02538 1.09696 -0.11737
 O113 O -0.06257 1.06163 -0.06839
 C114 C -0.05207 1.09012 -0.10879
 O115 O 0.05185 1.08097 -0.09614
 O116 O 0.07586 1.02850 -0.03778
 C117 C 0.07490 1.06166 -0.07763
 O118 O -0.04074 0.94530 -0.13493
 O119 O -0.07017 0.98974 -0.07513
 C120 C -0.06526 0.96237 -0.12195
 Zr121 Zr -0.00142 0.95406 -0.08872
 O122 O 0.00594 0.95747 -0.18898
 O123 O -0.01135 0.88554 -0.09650
 Zr124 Zr 0.00942 1.06530 -0.07429
 O125 O 0.01697 1.07262 -0.17394
 O126 O 0.01313 1.13496 -0.06102
 Zr127 Zr -0.04087 1.01588 -0.00966
 Zr128 Zr 0.04183 0.99504 0.00654
 O129 O 0.02841 1.00419 -0.08884
 O130 O -0.01992 1.01649 -0.09915
 O131 O 0.01925 0.93513 -0.00491
 O132 O -0.01806 1.07537 0.00174
 O133 O -0.02989 0.94811 -0.01413
 O134 O 0.03161 1.06334 0.01153
 H135 H 0.03096 0.99006 0.13528
 H136 H -0.02871 1.10374 0.00261
 H137 H 0.04230 1.00291 -0.12443
 H138 H -0.04505 0.92577 -0.01956
 H139 H 0.00614 1.13752 0.12755
 H140 H 0.02932 1.14029 -0.03226
 H141 H 0.00300 1.05392 -0.19643
 H142 H -0.00678 0.98044 -0.20664
 H143 H 0.00257 0.86879 -0.07085
 H144 H -0.00165 0.86319 0.03878
 H145 H -0.02327 0.96149 0.18923
 H146 H -0.00138 1.02815 0.20148
 O147 O 0.45692 0.43472 0.11143
 O148 O 0.42890 0.47563 0.04393
 C149 C 0.43251 0.44767 0.09066
 O150 O 0.53714 0.59012 0.11838
 O151 O 0.57012 0.54599 0.06851
 C152 C 0.56281 0.57724 0.10834
 O153 O 0.45826 0.58676 0.11039
 O154 O 0.42932 0.54806 0.04223
 C155 C 0.43357 0.57541 0.08928
 O156 O 0.53566 0.42784 0.12054
 O157 O 0.56915 0.46930 0.06767
 C158 C 0.56162 0.43942 0.10914
 Zr159 Zr 0.49777 0.45271 0.07974
 O160 O 0.49466 0.44527 0.18051
 O161 O 0.49629 0.38292 0.06739
 Zr162 Zr 0.49896 0.56580 0.08087
 O163 O 0.49802 0.56624 0.18254
 O164 O 0.49632 0.63619 0.07962
 O165 O 0.47314 0.51003 0.08814
 O166 O 0.52209 0.50859 0.09723
 O167 O 0.54405 0.42736 -0.10434
 O168 O 0.57338 0.46897 -0.04049
 C169 C 0.56884 0.43888 -0.08394
 O170 O 0.46893 0.58870 -0.12478
 O171 O 0.43453 0.54943 -0.07154
 C172 C 0.44292 0.57781 -0.11473
 O173 O 0.54687 0.58827 -0.10501
 O174 O 0.57458 0.54474 -0.04049
 C175 C 0.57118 0.57474 -0.08440
 O176 O 0.46542 0.43513 -0.12632
 O177 O 0.43286 0.47630 -0.07011
 C178 C 0.43980 0.44830 -0.11468
 Zr179 Zr 0.50378 0.45314 -0.08072
 O180 O 0.51073 0.45048 -0.18110
 O181 O 0.49955 0.38295 -0.07784
 Zr182 Zr 0.50585 0.56622 -0.07980
 O183 O 0.51270 0.56897 -0.18024
 O184 O 0.50387 0.63663 -0.07517
 Zr185 Zr 0.45976 0.51117 -0.00836
 Zr186 Zr 0.54338 0.50821 0.00842
 O187 O 0.52938 0.50870 -0.08745
 O188 O 0.48055 0.51077 -0.09807
 O189 O 0.52597 0.44361 0.00442
 O190 O 0.47791 0.57499 -0.00444
 O191 O 0.47584 0.44592 -0.00518
 O192 O 0.52773 0.57387 0.00567
 H193 H 0.53312 0.50843 0.13749
 H194 H 0.46534 0.60127 -0.00665
 H195 H 0.54317 0.50815 -0.12329
 H196 H 0.46237 0.42076 -0.00777
 H197 H 0.51301 0.64750 0.05619
 H198 H 0.52107 0.64726 -0.05335
 H199 H 0.49932 0.54801 -0.20032
 H200 H 0.49823 0.47286 -0.20094
 H201 H 0.51454 0.37131 -0.04955
 H202 H 0.49417 0.37018 0.11104
 H203 H 0.49670 0.47533 0.19913
 H204 H 0.48200 0.54739 0.19637
 C205 C 0.31275 0.31394 0.37268
 C206 C 0.32828 0.35324 0.36482
 C207 C 0.34575 0.36266 0.30758
 C208 C 0.34995 0.40701 0.28864
 C209 C 0.36908 0.41742 0.23969
 C210 C 0.38483 0.38360 0.20977
 C211 C 0.38040 0.33918 0.22818
 C212 C 0.36077 0.32867 0.27618
 C213 C 0.40794 0.39442 0.16464
 C214 C 0.40718 0.43125 0.12389
 H215 H 0.32716 0.37886 0.40136
 H216 H 0.33888 0.43374 0.31288
 H217 H 0.37254 0.45209 0.22770
 H218 H 0.39260 0.31269 0.20635
 H219 H 0.35845 0.29427 0.29091
 H220 H 0.42643 0.37330 0.16473
 H221 H 0.31011 0.29327 0.33070
 H222 H 0.38775 0.44966 0.11812
 C223 C -0.19138 0.82212 0.36729
 C224 C -0.17642 0.86178 0.35800
 C225 C -0.15987 0.87082 0.29924
 C226 C -0.15564 0.91502 0.27958
 C227 C -0.13774 0.92476 0.22798
 C228 C -0.12339 0.89032 0.19586
 C229 C -0.12794 0.84611 0.21499
 C230 C -0.14615 0.83634 0.26593
 C231 C -0.10102 0.89973 0.14834
 C232 C -0.09977 0.93864 0.11190
 H233 H -0.17755 0.88789 0.39379
 H234 H -0.16573 0.94213 0.30516
 H235 H -0.13409 0.95930 0.21563
 H236 H -0.11674 0.81913 0.19164
 H237 H -0.14835 0.80202 0.28107
 H238 H -0.08399 0.87586 0.14435
 H239 H -0.19364 0.80073 0.32598
 H240 H -0.11777 0.96068 0.10950
 C241 C 0.69593 0.66114 0.38970
 C242 C 0.66850 0.64387 0.38895
 C243 C 0.65446 0.62678 0.33065
 C244 C 0.62500 0.62810 0.32885
 C245 C 0.61051 0.61294 0.27521
 C246 C 0.62514 0.59594 0.22173
 C247 C 0.65461 0.59296 0.22416
 C248 C 0.66924 0.60854 0.27808
 C249 C 0.60955 0.57977 0.16491
 C250 C 0.58414 0.59946 0.14753
 H251 H 0.65505 0.64831 0.43051
 H252 H 0.61306 0.64122 0.36908
 H253 H 0.58773 0.61393 0.27628
 H254 H 0.66627 0.57903 0.18413
 H255 H 0.69194 0.60566 0.27876
 H256 H 0.61724 0.55084 0.13920
 H257 H 0.70708 0.66151 0.34454
 H258 H 0.57770 0.62992 0.17124
 C259 C 0.18843 1.17501 0.39785
 C260 C 0.17135 1.13704 0.39478
 C261 C 0.15180 1.12863 0.34107
 C262 C 0.14639 1.08462 0.32227
 C263 C 0.12685 1.07553 0.27401
 C264 C 0.11193 1.11038 0.24455
 C265 C 0.11713 1.15438 0.26380
 C266 C 0.13710 1.16352 0.31121
 C267 C 0.08951 1.10138 0.19727
 C268 C 0.09044 1.06516 0.15544
 H269 H 0.17362 1.11099 0.43038
 H270 H 0.15720 1.05719 0.34529
 H271 H 0.12275 1.04115 0.26150
 H272 H 0.10559 1.18168 0.24239
 H273 H 0.14029 1.19772 0.32593
 H274 H 0.07188 1.12421 0.19494
 H275 H 0.18871 1.19603 0.35579
 H276 H 0.10924 1.04487 0.15273
 C277 C 0.68160 0.30269 -0.37436
 C278 C 0.66477 0.34064 -0.36769
 C279 C 0.64847 0.35022 -0.30884
 C280 C 0.64532 0.39450 -0.28876
 C281 C 0.62791 0.40492 -0.23665
 C282 C 0.61278 0.37122 -0.20470
 C283 C 0.61604 0.32688 -0.22459
 C284 C 0.63404 0.31633 -0.27573
 C285 C 0.59114 0.38237 -0.15619
 C286 C 0.59355 0.41894 -0.11539
 H287 H 0.66488 0.36581 -0.40499
 H288 H 0.65600 0.42114 -0.31418
 H289 H 0.62523 0.43955 -0.22355
 H290 H 0.60419 0.30053 -0.20133
 H291 H 0.63564 0.28201 -0.29126
 H292 H 0.57202 0.36267 -0.15528
 H293 H 0.68471 0.28272 -0.33180
 H294 H 0.61362 0.43579 -0.11088
 C295 C 0.17744 0.80411 -0.38314
 C296 C 0.14855 0.81344 -0.38346
 C297 C 0.13202 0.82473 -0.32539
 C298 C 0.14391 0.84644 -0.27213
 C299 C 0.12685 0.86002 -0.22063
 C300 C 0.09763 0.85207 -0.22171
 C301 C 0.08613 0.82908 -0.27408
 C302 C 0.10306 0.81595 -0.32549
 C303 C 0.07786 0.86915 -0.17229
 C304 C 0.08437 0.90129 -0.12612
 H305 H 0.13674 0.80887 -0.42733
 H306 H 0.16612 0.85442 -0.27111
 H307 H 0.13663 0.87724 -0.18103
 H308 H 0.06373 0.82246 -0.27629
 H309 H 0.09339 0.79938 -0.36601
 H310 H 0.05602 0.85924 -0.17702
 H311 H 0.18737 0.80192 -0.33683
 H312 H 0.10587 0.91133 -0.11756
 C313 C 0.30443 0.66829 -0.38458
 C314 C 0.33342 0.66777 -0.37385
 C315 C 0.34768 0.64395 -0.32094
 C316 C 0.37665 0.63638 -0.32738
 C317 C 0.39177 0.61615 -0.27831
 C318 C 0.37839 0.60367 -0.22068
 C319 C 0.34917 0.60954 -0.21481
 C320 C 0.33387 0.62980 -0.26444
 C321 C 0.39502 0.58509 -0.16693
 C322 C 0.42251 0.59970 -0.15682
 H323 H 0.34686 0.68501 -0.40797
 H324 H 0.38774 0.64629 -0.37070
 H325 H 0.41404 0.61038 -0.28569
 H326 H 0.33837 0.59971 -0.17111
 H327 H 0.31158 0.63532 -0.25752
 H328 H 0.38580 0.56000 -0.13588
 H329 H 0.29024 0.65211 -0.35124
 H330 H 0.43053 0.62705 -0.18555
 C331 C -0.19066 1.17191 -0.38492
 C332 C -0.16170 1.16304 -0.38297
 C333 C -0.14647 1.14837 -0.32488
 C334 C -0.11729 1.15512 -0.32287
 C335 C -0.10160 1.14068 -0.27049
 C336 C -0.11478 1.11913 -0.21838
 C337 C -0.14396 1.11177 -0.22063
 C338 C -0.15973 1.12631 -0.27332
 C339 C -0.09833 1.10117 -0.16388
 C340 C -0.07115 1.11573 -0.14976
 H341 H -0.14872 1.17142 -0.42408
 H342 H -0.10647 1.17132 -0.36243
 H343 H -0.07906 1.14536 -0.27241
 H344 H -0.15452 1.09436 -0.18181
 H345 H -0.18205 1.11918 -0.27408
 H346 H -0.10733 1.07399 -0.13632
 H347 H -0.20203 1.16962 -0.34017
 H348 H -0.06231 1.14413 -0.17461
 C349 C 0.69498 0.67980 -0.37809
 C350 C 0.67893 0.64174 -0.36518
 C351 C 0.65977 0.63853 -0.30939
 C352 C 0.65510 0.59690 -0.28083
 C353 C 0.63524 0.59216 -0.23164
 C354 C 0.61926 0.62894 -0.21103
 C355 C 0.62386 0.67059 -0.23971
 C356 C 0.64418 0.67552 -0.28804
 C357 C 0.59589 0.62331 -0.16472
 C358 C 0.59677 0.59157 -0.11597
 H359 H 0.68125 0.61241 -0.39495
 H360 H 0.66653 0.56783 -0.29736
 H361 H 0.63154 0.55930 -0.21188
 H362 H 0.61141 0.69916 -0.22538
 H363 H 0.64681 0.70779 -0.31053
 H364 H 0.57699 0.64289 -0.17158
 H365 H 0.69598 0.70453 -0.34046
 H366 H 0.61649 0.57511 -0.10522
 C367 C 0.19691 1.17642 -0.37005
 C368 C 0.17990 1.13906 -0.35913
 C369 C 0.16298 1.13317 -0.29994
 C370 C 0.15725 1.09002 -0.27763
 C371 C 0.13899 1.08326 -0.22565
 C372 C 0.12566 1.11965 -0.19581
 C373 C 0.13161 1.16285 -0.21771
 C374 C 0.15032 1.16965 -0.26890
 C375 C 0.10298 1.11300 -0.14782
 C376 C 0.10156 1.07588 -0.10758
 H377 H 0.17973 1.11216 -0.39376
 H378 H 0.16648 1.06140 -0.30138
 H379 H 0.13424 1.04944 -0.21119
 H380 H 0.12122 1.19132 -0.19620
 H381 H 0.15376 1.20327 -0.28607
 H382 H 0.08586 1.13684 -0.14719
 H383 H 0.20022 1.19829 -0.32962
 H384 H 0.11970 1.05430 -0.10282
 C385 C 0.32324 0.31011 -0.39424
 C386 C 0.33460 0.35253 -0.38559
 C387 C 0.35568 0.36305 -0.33582
 C388 C 0.35790 0.40700 -0.31374
 C389 C 0.37850 0.41867 -0.26913
 C390 C 0.39758 0.38659 -0.24633
 C391 C 0.39571 0.34278 -0.26924
 C392 C 0.37482 0.33095 -0.31323
 C393 C 0.42029 0.39869 -0.20120
 C394 C 0.41678 0.43196 -0.15526
 H395 H 0.32744 0.37939 -0.41625
 H396 H 0.34374 0.43246 -0.33135
 H397 H 0.37994 0.45307 -0.25399
 H398 H 0.41046 0.31770 -0.25308
 H399 H 0.37427 0.29707 -0.33085
 H400 H 0.43991 0.38034 -0.20327
 H401 H 0.32793 0.28407 -0.35999
 H402 H 0.39631 0.44730 -0.14912
 C403 C -0.18308 0.82282 -0.39868
 C404 C -0.17265 0.86589 -0.39035
 C405 C -0.15204 0.87745 -0.34002
 C406 C -0.15040 0.92155 -0.31806
 C407 C -0.13002 0.93396 -0.27318
 C408 C -0.11063 0.90244 -0.25014
 C409 C -0.11213 0.85847 -0.27253
 C410 C -0.13268 0.84597 -0.31676
 C411 C -0.08758 0.91474 -0.20608
 C412 C -0.08917 0.95023 -0.16302
 H413 H -0.17997 0.89214 -0.42187
 H414 H -0.16479 0.94653 -0.33611
 H415 H -0.12896 0.96844 -0.25833
 H416 H -0.09716 0.83377 -0.25615
 H417 H -0.13270 0.81203 -0.33416
 H418 H -0.06893 0.89395 -0.20607
 H419 H -0.17823 0.79748 -0.36347
 H420 H -0.10854 0.96892 -0.15794
 C421 C 0.31537 0.69809 0.38314
 C422 C 0.32529 0.65643 0.36423
 C423 C 0.34559 0.65013 0.31107
 C424 C 0.36555 0.68295 0.29500
 C425 C 0.38616 0.67442 0.24848
 C426 C 0.38695 0.63333 0.21655
 C427 C 0.36672 0.60076 0.23199
 C428 C 0.34637 0.60906 0.27913
 C429 C 0.41053 0.62371 0.17221
 C430 C 0.40854 0.59282 0.12249
 H431 H 0.31758 0.62712 0.38916
 H432 H 0.36605 0.71451 0.32002
 H433 H 0.40182 0.69969 0.23812
 H434 H 0.36726 0.56819 0.20978
 H435 H 0.33146 0.58306 0.29142
 H436 H 0.43037 0.64060 0.18031
 H437 H 0.32031 0.72725 0.35465
 H438 H 0.38826 0.57883 0.11013
 C439 C -0.19043 1.18148 0.38228
 C440 C -0.17263 1.14482 0.37341
 C441 C -0.15226 1.14121 0.31996
 C442 C -0.14685 1.09922 0.29331
 C443 C -0.12547 1.09375 0.24777
 C444 C -0.10854 1.13004 0.22936
 C445 C -0.11382 1.17208 0.25618
 C446 C -0.13584 1.17782 0.30048
 C447 C -0.08437 1.12330 0.18549
 C448 C -0.08668 1.09547 0.13235
 H449 H -0.17425 1.11656 0.40558
 H450 H -0.15894 1.07044 0.30853
 H451 H -0.12143 1.06075 0.22888
 H452 H -0.10081 1.20034 0.24314
 H453 H -0.13919 1.21033 0.32166
 H454 H -0.06451 1.13938 0.19609
 H455 H -0.19246 1.20445 0.34255
 H456 H -0.10735 1.08342 0.11891
 C457 C 0.67635 0.29935 0.39123
 C458 C 0.66434 0.34125 0.38197
 C459 C 0.64401 0.35132 0.33044
 C460 C 0.64171 0.39531 0.30853
 C461 C 0.62149 0.40680 0.26299
 C462 C 0.60279 0.37453 0.23909
 C463 C 0.60478 0.33061 0.26161
 C464 C 0.62540 0.31892 0.30646
 C465 C 0.58028 0.38687 0.19351
 C466 C 0.58443 0.41991 0.14742
 H467 H 0.67032 0.36810 0.41392
 H468 H 0.65547 0.42098 0.32717
 H469 H 0.61995 0.44126 0.24809
 H470 H 0.59032 0.30538 0.24458
 H471 H 0.62609 0.28497 0.32385
 H472 H 0.56023 0.36976 0.19634
 H473 H 0.67306 0.27338 0.35604
 H474 H 0.60530 0.43382 0.14098
 C475 C 0.18666 0.82723 0.38440
 C476 C 0.15804 0.82369 0.37027
 C477 C 0.14400 0.84350 0.31354
 C478 C 0.11506 0.83589 0.30634
 C479 C 0.10032 0.85443 0.25515
 C480 C 0.11426 0.88086 0.20909
 C481 C 0.14320 0.88879 0.21628
 C482 C 0.15802 0.87021 0.26780
 C483 C 0.09878 0.90293 0.15616
 C484 C 0.07237 0.88853 0.13572
 H485 H 0.14498 0.80464 0.40315
 H486 H 0.10360 0.81598 0.34114
 H487 H 0.07785 0.84893 0.25338
 H488 H 0.15434 0.90962 0.18209
 H489 H 0.18021 0.87742 0.27149
 H490 H 0.10771 0.93290 0.13532
 H491 H 0.20090 0.84401 0.35190
 H492 H 0.06361 0.85776 0.15410
   
