data_POSCAR
  _audit_creation_date              2014-09-24
  _audit_creation_method            'ToBaCCo'
  _symmetry_space_group_name_H-M    'P1'
  _symmetry_Int_Tables_number       1
  _symmetry_cell_setting            triclinic
  loop_
  _symmetry_equiv_pos_as_xyz
 x,y,z
_cell_length_a 36.0915
_cell_length_b 36.0907
_cell_length_c 36.0919
_cell_angle_alpha 89.808200
_cell_angle_beta 90.001100
_cell_angle_gamma 90.000600
loop_
  _atom_site_label
  _atom_site_type_symbol
  _atom_site_fract_x
  _atom_site_fract_y
  _atom_site_fract_z
N1 N 0.18167 0.18029 0.18053
 N2 N -0.18070 0.81825 0.18167
 N3 N -0.18089 0.18201 -0.18164
 N4 N 0.18116 0.81963 -0.18059
 N5 N 0.18300 1.18314 0.81670
 N6 N 0.81658 0.81682 0.81694
 N7 N 0.18270 0.81687 1.18335
 N8 N 0.81643 1.18323 1.18297
 N9 N 0.46145 0.93430 0.96014
 N10 N 0.43248 0.91234 0.95626
 N11 N 0.53958 0.95981 0.93435
 N12 N 0.56827 0.95565 0.91206
 N13 N 0.53949 0.93404 0.96011
 N14 N 0.56816 0.91170 0.95608
 N15 N 0.46159 0.96005 0.93436
 N16 N 0.43272 0.95631 0.91225
 C17 C 0.41486 0.92635 0.92618
 C18 C 0.58584 0.92546 0.92591
 N19 N 0.53972 1.06528 0.95995
 N20 N 0.56858 1.08740 0.95595
 N21 N 0.46171 1.03976 0.93426
 N22 N 0.43301 1.04390 0.91196
 N23 N 0.46169 1.06540 0.95996
 N24 N 0.43296 1.08768 0.95585
 N25 N 0.53969 1.03960 0.93429
 N26 N 0.56850 1.04355 0.91212
 Mn27 Mn 0.50065 0.99981 0.93385
 C28 C 0.58624 1.07356 0.92592
 C29 C 0.41534 1.07398 0.92570
 N30 N 0.53947 0.93387 1.03982
 N31 N 0.56827 0.91167 1.04370
 N32 N 0.46162 0.95975 1.06562
 N33 N 0.43295 0.95571 1.08797
 N34 N 0.46145 0.93412 1.03990
 N35 N 0.43264 0.91195 1.04406
 N36 N 0.53963 0.95957 1.06546
 N37 N 0.56855 0.95556 1.08749
 Mn38 Mn 0.50045 0.93361 0.99999
 C39 C 0.58611 0.92548 1.07364
 C40 C 0.41513 0.92571 1.07424
 N41 N 0.46180 1.06522 1.03974
 N42 N 0.43291 1.08727 1.04364
 N43 N 0.53988 1.03932 1.06538
 N44 N 0.56859 1.04337 1.08767
 N45 N 0.53983 1.06516 1.03970
 N46 N 0.56848 1.08750 1.04384
 N47 N 0.46187 1.03947 1.06551
 N48 N 0.43304 1.04330 1.08764
 Mn49 Mn 0.50075 1.06574 0.99983
 Mn50 Mn 0.50076 0.99953 1.06596
 Cl51 Cl 0.50066 0.99967 0.99991
 C52 C 0.41526 1.07332 1.07373
 C53 C 0.58617 1.07361 1.07394
 N54 N -0.06574 0.46081 0.03983
 N55 N -0.08811 0.43214 0.04381
 N56 N -0.03981 0.53855 0.06586
 N57 N -0.04360 0.56725 0.08809
 N58 N -0.06550 0.53887 0.04012
 N59 N -0.08747 0.56781 0.04414
 N60 N -0.04003 0.46056 0.06556
 N61 N -0.04426 0.43174 0.08778
 C62 C -0.07443 0.41427 0.07392
 C63 C -0.07353 0.58522 0.07427
 N64 N 0.06562 0.53860 0.04011
 N65 N 0.08792 0.56727 0.04425
 N66 N 0.03976 0.46041 0.06551
 N67 N 0.04369 0.43137 0.08749
 N68 N 0.06547 0.46063 0.03980
 N69 N 0.08761 0.43178 0.04357
 N70 N 0.03992 0.53846 0.06585
 N71 N 0.04403 0.56707 0.08818
 Mn72 Mn -0.00004 0.49948 0.06617
 C73 C 0.07417 0.58477 0.07441
 C74 C 0.07375 0.41381 0.07351
 N75 N -0.06555 0.53946 -0.03968
 N76 N -0.08784 0.56819 -0.04381
 N77 N -0.04000 0.46151 -0.06560
 N78 N -0.04395 0.43275 -0.08773
 N79 N -0.06574 0.46146 -0.03990
 N80 N -0.08790 0.43266 -0.04386
 N81 N -0.03981 0.53955 -0.06538
 N82 N -0.04386 0.56835 -0.08764
 Mn83 Mn -0.06611 0.50016 0.00010
 C84 C -0.07400 0.58596 -0.07391
 C85 C -0.07403 0.41505 -0.07389
 N86 N 0.06549 0.46111 -0.03989
 N87 N 0.08776 0.43242 -0.04405
 N88 N 0.03991 0.53931 -0.06535
 N89 N 0.04387 0.56834 -0.08733
 N90 N 0.06560 0.53909 -0.03961
 N91 N 0.08776 0.56794 -0.04339
 N92 N 0.03977 0.46126 -0.06560
 N93 N 0.04384 0.43265 -0.08793
 Mn94 Mn 0.06601 0.49986 0.00010
 Mn95 Mn -0.00004 0.50040 -0.06596
 Cl96 Cl -0.00005 0.49998 0.00010
 C97 C 0.07398 0.41493 -0.07419
 C98 C 0.07392 0.58589 -0.07335
 N99 N 0.95957 0.06583 0.46058
 N100 N 0.95555 0.08806 0.43174
 N101 N 0.93385 0.04043 0.53882
 N102 N 0.91185 0.04448 0.56773
 N103 N 0.95963 0.06607 0.53858
 N104 N 0.95588 0.08827 0.56730
 N105 N 0.93372 0.04025 0.46078
 N106 N 0.91138 0.04441 0.43210
 C107 C 0.92530 0.07442 0.41424
 C108 C 0.92587 0.07453 0.58520
 N109 N 0.95921 -0.06517 0.53942
 N110 N 0.95502 -0.08746 0.56819
 N111 N 0.93351 -0.03953 0.46132
 N112 N 0.91140 -0.04345 0.43248
 N113 N 0.95919 -0.06530 0.46143
 N114 N 0.95524 -0.08743 0.43268
 N115 N 0.93360 -0.03934 0.53936
 N116 N 0.91132 -0.04334 0.56811
 Mn117 Mn 0.93319 0.00045 0.50007
 C118 C 0.92498 -0.07355 0.58583
 C119 C 0.92523 -0.07354 0.41490
 N120 N 1.03936 0.06584 0.53860
 N121 N 1.04350 0.08820 0.56717
 N122 N 1.06495 0.03981 0.46075
 N123 N 1.08707 0.04361 0.43188
 N124 N 1.03930 0.06560 0.46061
 N125 N 1.04329 0.08765 0.43165
 N126 N 1.06498 0.04004 0.53878
 N127 N 1.08725 0.04413 0.56749
 Mn128 Mn 0.99946 0.06630 0.49958
 C129 C 1.07357 0.07437 0.58493
 C130 C 1.07328 0.07365 0.41401
 N131 N 1.03894 -0.06555 0.46132
 N132 N 1.04297 -0.08791 0.43272
 N133 N 1.06473 -0.03970 0.53918
 N134 N 1.08684 -0.04362 0.56805
 N135 N 1.03896 -0.06536 0.53932
 N136 N 1.04284 -0.08744 0.56828
 N137 N 1.06473 -0.03990 0.46117
 N138 N 1.08698 -0.04410 0.43246
 Mn139 Mn 0.99907 -0.06582 0.50037
 Mn140 Mn 1.06532 0.00006 0.49998
 Cl141 Cl 0.99926 0.00025 0.50000
 C142 C 1.07312 -0.07424 0.41499
 C143 C 1.07291 -0.07360 0.58591
 C144 C 1.13420 0.13425 0.27865
 C145 C 1.14639 0.11106 0.24990
 C146 C 1.16177 0.12616 0.21769
 C147 C 1.16532 0.16470 0.21360
 C148 C 1.15310 0.18788 0.24228
 C149 C 1.13766 0.17283 0.27445
 C150 C 1.11821 0.11832 0.31306
 C151 C 1.08721 0.13480 0.32986
 C152 C 1.07253 0.12019 0.36260
 C153 C 1.08860 0.08886 0.37924
 C154 C 1.11942 0.07219 0.36238
 C155 C 1.13407 0.08677 0.32959
 H156 H 1.17073 0.10780 0.19578
 H157 H 1.15598 0.21765 0.23993
 H158 H 1.04861 0.13345 0.37490
 H159 H 1.13234 0.04798 0.37461
 H160 H 1.12904 0.19137 0.29635
 H161 H 1.07409 0.15881 0.31748
 H162 H 1.14364 0.08127 0.25215
 H163 H 1.15822 0.07372 0.31752
 C164 C 0.86484 -0.13426 0.27972
 C165 C 0.82629 -0.13774 0.27548
 C166 C 0.81140 -0.15318 0.24333
 C167 C 0.83472 -0.16539 0.21472
 C168 C 0.87324 -0.16178 0.21883
 C169 C 0.88817 -0.14640 0.25102
 C170 C 0.88063 -0.11835 0.31413
 C171 C 0.91214 -0.13424 0.33067
 C172 C 0.92665 -0.11964 0.36340
 C173 C 0.90998 -0.08883 0.38023
 C174 C 0.87867 -0.07275 0.36362
 C175 C 0.86411 -0.08739 0.33092
 H176 H 0.78164 -0.15609 0.24095
 H177 H 0.89171 -0.17071 0.19697
 H178 H 0.95084 -0.13258 0.37560
 H179 H 0.86539 -0.04884 0.37590
 H180 H 0.91795 -0.14362 0.25329
 H181 H 0.92521 -0.15837 0.31862
 H182 H 0.80765 -0.12915 0.29733
 H183 H 0.84012 -0.07424 0.31855
 C184 C 0.86626 0.13579 0.72047
 C185 C 0.85422 0.11267 0.74949
 C186 C 0.83905 0.12783 0.78166
 C187 C 0.83554 0.16639 0.78545
 C188 C 0.84772 0.18951 0.75655
 C189 C 0.86296 0.17439 0.72441
 C190 C 0.88187 0.11975 0.68605
 C191 C 0.91279 0.13606 0.66883
 C192 C 0.92715 0.12128 0.63611
 C193 C 0.91083 0.08996 0.61991
 C194 C 0.88007 0.07349 0.63716
 C195 C 0.86574 0.08822 0.66993
 H196 H 0.83013 0.10951 0.80374
 H197 H 0.84489 0.21929 0.75868
 H198 H 0.95103 0.13441 0.62350
 H199 H 0.86696 0.04929 0.62528
 H200 H 0.87150 0.19288 0.70232
 H201 H 0.92612 0.16005 0.68087
 H202 H 0.85687 0.08286 0.74746
 H203 H 0.84164 0.07531 0.68232
 C204 C 1.13359 -0.13434 0.72133
 C205 C 1.13702 -0.17292 0.72554
 C206 C 1.15247 -0.18797 0.75771
 C207 C 1.16474 -0.16479 0.78637
 C208 C 1.16118 -0.12625 0.78229
 C209 C 1.14580 -0.11116 0.75008
 C210 C 1.11766 -0.11840 0.68690
 C211 C 1.13360 -0.08687 0.67038
 C212 C 1.11901 -0.07227 0.63758
 C213 C 1.08818 -0.08887 0.62069
 C214 C 1.07204 -0.12018 0.63729
 C215 C 1.08666 -0.13482 0.67005
 H216 H 1.15534 -0.21775 0.76006
 H217 H 1.17017 -0.10789 0.80418
 H218 H 1.13198 -0.04808 0.62538
 H219 H 1.04811 -0.13340 0.62497
 H220 H 1.14307 -0.08136 0.74782
 H221 H 1.15775 -0.07387 0.68249
 H222 H 1.12838 -0.19146 0.70365
 H223 H 1.07348 -0.15882 0.68241
 C224 C 0.27980 1.13324 1.13453
 C225 C 0.27568 1.13649 1.17311
 C226 C 0.24348 1.15173 1.18816
 C227 C 0.21469 1.16396 1.16497
 C228 C 0.21868 1.16055 1.12643
 C229 C 0.25092 1.14537 1.11134
 C230 C 0.31427 1.11755 1.11858
 C231 C 0.33059 1.13365 1.08704
 C232 C 0.36340 1.11925 1.07242
 C233 C 0.38050 1.08844 1.08902
 C234 C 0.36409 1.07215 1.12036
 C235 C 0.33132 1.08658 1.13502
 H236 H 0.24121 1.15450 1.21793
 H237 H 0.19669 1.16950 1.10806
 H238 H 0.37545 1.13233 1.04821
 H239 H 0.37657 1.04824 1.13359
 H240 H 0.25309 1.14276 1.08154
 H241 H 0.31832 1.15778 1.07403
 H242 H 0.29767 1.12790 1.19165
 H243 H 0.31912 1.07327 1.15902
 C244 C 0.27926 0.86673 0.86539
 C245 C 0.27513 0.86348 0.82681
 C246 C 0.24293 0.84825 0.81177
 C247 C 0.21415 0.83602 0.83496
 C248 C 0.21814 0.83945 0.87350
 C249 C 0.25037 0.85462 0.88858
 C250 C 0.31375 0.88236 0.88134
 C251 C 0.33005 0.86622 0.91287
 C252 C 0.36289 0.88055 0.92750
 C253 C 0.38005 0.91132 0.91090
 C254 C 0.36367 0.92766 0.87957
 C255 C 0.33087 0.91331 0.86492
 H256 H 0.24066 0.84547 0.78200
 H257 H 0.19615 0.83048 0.89187
 H258 H 0.37493 0.86743 0.95170
 H259 H 0.37619 0.95155 0.86635
 H260 H 0.25255 0.85723 0.91838
 H261 H 0.31774 0.84210 0.92588
 H262 H 0.29713 0.87206 0.80827
 H263 H 0.31869 0.92664 0.84092
 C264 C 0.72142 0.86438 1.13395
 C265 C 0.75029 0.88753 1.14605
 C266 C 0.78245 0.87240 1.16144
 C267 C 0.78637 0.83385 1.16511
 C268 C 0.75762 0.81070 1.15289
 C269 C 0.72549 0.82579 1.13744
 C270 C 0.68701 0.88039 1.11813
 C271 C 0.66997 0.86404 1.08721
 C272 C 0.63723 0.87877 1.07268
 C273 C 0.62084 0.91009 1.08882
 C274 C 0.63793 0.92660 1.11957
 C275 C 0.67070 0.91190 1.13407
 H276 H 0.80442 0.89073 1.17039
 H277 H 0.75986 0.78092 1.15584
 H278 H 0.62476 0.86562 1.04881
 H279 H 0.62589 0.95079 1.13255
 H280 H 0.70351 0.80728 1.12887
 H281 H 0.68216 0.84005 1.07403
 H282 H 0.74816 0.91733 1.14326
 H283 H 0.68295 0.92484 1.15817
 C284 C 0.72128 1.13436 0.86469
 C285 C 0.75017 1.14651 0.88778
 C286 C 0.78229 1.16191 0.87259
 C287 C 0.78616 1.16553 0.83404
 C288 C 0.75737 1.15330 0.81094
 C289 C 0.72529 1.13784 0.82609
 C290 C 0.68694 1.11842 0.88074
 C291 C 0.66999 1.08744 0.86441
 C292 C 0.63732 1.07279 0.87918
 C293 C 0.62091 1.08887 0.91052
 C294 C 0.63791 1.11968 0.92701
 C295 C 0.67061 1.13430 0.91229
 H296 H 0.80429 1.17087 0.89089
 H297 H 0.75957 1.15623 0.78116
 H298 H 0.62491 1.04889 0.86603
 H299 H 0.62585 1.13261 0.95122
 H300 H 0.70329 1.12924 0.80762
 H301 H 0.68219 1.07431 0.84040
 H302 H 0.74808 1.14374 0.91759
 H303 H 0.68280 1.15843 0.92522
 C304 C 0.13515 0.27826 0.13323
 C305 C 0.17376 0.27430 0.13652
 C306 C 0.18898 0.24212 0.15179
 C307 C 0.16595 0.21322 0.16402
 C308 C 0.12738 0.21703 0.16053
 C309 C 0.11212 0.24924 0.14533
 C310 C 0.11901 0.31272 0.11757
 C311 C 0.08748 0.32888 0.13370
 C312 C 0.07271 0.36171 0.11935
 C313 C 0.08915 0.37900 0.08857
 C314 C 0.12047 0.36274 0.07224
 C315 C 0.13528 0.32996 0.08661
 H316 H 0.21877 0.23998 0.15461
 H317 H 0.10913 0.19494 0.16950
 H318 H 0.04852 0.37364 0.13246
 H319 H 0.13358 0.37537 0.04834
 H320 H 0.08230 0.25129 0.14269
 H321 H 0.07460 0.31646 0.15783
 H322 H 0.19218 0.29640 0.12794
 H323 H 0.15927 0.31789 0.07329
 C324 C -0.13489 0.27997 -0.13440
 C325 C -0.11170 0.25118 -0.14657
 C326 C -0.12678 0.21901 -0.16184
 C327 C -0.16532 0.21501 -0.16532
 C328 C -0.18851 0.24372 -0.15309
 C329 C -0.17347 0.27585 -0.13776
 C330 C -0.11895 0.31435 -0.11856
 C331 C -0.13535 0.33120 -0.08758
 C332 C -0.12068 0.36387 -0.07300
 C333 C -0.08936 0.38039 -0.08916
 C334 C -0.07279 0.36350 -0.11998
 C335 C -0.08742 0.33079 -0.13453
 H336 H -0.10841 0.19708 -0.17080
 H337 H -0.21829 0.24143 -0.15591
 H338 H -0.13388 0.37619 -0.04908
 H339 H -0.04859 0.37563 -0.13297
 H340 H -0.19202 0.29777 -0.12915
 H341 H -0.15935 0.31891 -0.07437
 H342 H -0.08190 0.25336 -0.14389
 H343 H -0.07443 0.31868 -0.15867
 C344 C 0.13498 0.72155 -0.13316
 C345 C 0.11185 0.75052 -0.14522
 C346 C 0.12700 0.78275 -0.16049
 C347 C 0.16554 0.78664 -0.16407
 C348 C 0.18868 0.75779 -0.15189
 C349 C 0.17357 0.72560 -0.13656
 C350 C 0.11896 0.68705 -0.11747
 C351 C 0.08741 0.67085 -0.13353
 C352 C 0.07273 0.63799 -0.11915
 C353 C 0.08927 0.62072 -0.08842
 C354 C 0.12061 0.63701 -0.07215
 C355 C 0.13533 0.66982 -0.08656
 H356 H 0.10868 0.80480 -0.16941
 H357 H 0.21845 0.76001 -0.15478
 H358 H 0.04852 0.62604 -0.13221
 H359 H 0.13379 0.62439 -0.04829
 H360 H 0.19206 0.70354 -0.12802
 H361 H 0.07445 0.68325 -0.15762
 H362 H 0.08205 0.74840 -0.14250
 H363 H 0.15934 0.68193 -0.07329
 C364 C -0.13324 0.72046 0.13551
 C365 C -0.13657 0.72441 0.17410
 C366 C -0.15189 0.75652 0.18921
 C367 C -0.16413 0.78538 0.16607
 C368 C -0.16059 0.78160 0.12752
 C369 C -0.14533 0.74946 0.11238
 C370 C -0.11760 0.68605 0.11948
 C371 C -0.13370 0.66992 0.08795
 C372 C -0.11935 0.63716 0.07322
 C373 C -0.08859 0.61991 0.08970
 C374 C -0.07230 0.63612 0.12104
 C375 C -0.08668 0.66884 0.13580
 H376 H -0.15475 0.75865 0.21899
 H377 H -0.16954 0.80365 0.10919
 H378 H -0.13245 0.62527 0.04901
 H379 H -0.04842 0.62352 0.13417
 H380 H -0.14265 0.74743 0.08258
 H381 H -0.15780 0.68230 0.07502
 H382 H -0.12800 0.70234 0.19260
 H383 H -0.07338 0.68088 0.15981
 C384 C 1.13528 0.13639 0.71916
 C385 C 1.14774 0.11342 0.74814
 C386 C 1.16319 0.12874 0.78014
 C387 C 1.16660 0.16732 0.78381
 C388 C 1.15411 0.19029 0.75491
 C389 C 1.13859 0.17501 0.72295
 C390 C 1.11916 0.12017 0.68498
 C391 C 1.08811 0.13651 0.66799
 C392 C 1.07324 0.12155 0.63555
 C393 C 1.08913 0.08999 0.61939
 C394 C 1.12002 0.07349 0.63642
 C395 C 1.13486 0.08841 0.66889
 H396 H 1.17232 0.11050 0.80220
 H397 H 1.15684 0.22009 0.75693
 H398 H 1.04928 0.13473 0.62314
 H399 H 1.13283 0.04912 0.62457
 H400 H 1.12977 0.19342 0.70090
 H401 H 1.07507 0.16068 0.67999
 H402 H 1.14511 0.08360 0.74627
 H403 H 1.15904 0.07544 0.68107
 C404 C 0.86294 -0.13545 0.72048
 C405 C 0.82438 -0.13612 0.72569
 C406 C 0.80902 -0.15173 0.75766
 C407 C 0.83178 -0.16731 0.78549
 C408 C 0.87053 -0.16639 0.78007
 C409 C 0.88582 -0.15068 0.74809
 C410 C 0.87918 -0.11925 0.68619
 C411 C 0.86416 -0.08691 0.67035
 C412 C 0.87908 -0.07202 0.63779
 C413 C 0.90936 -0.08912 0.62039
 C414 C 0.92458 -0.12126 0.63629
 C415 C 0.90964 -0.13619 0.66881
 H416 H 0.77914 -0.15262 0.76011
 H417 H 0.88914 -0.17714 0.80104
 H418 H 0.86693 -0.04707 0.62628
 H419 H 0.94792 -0.13504 0.62347
 H420 H 0.91568 -0.14998 0.74524
 H421 H 0.84108 -0.07287 0.68333
 H422 H 0.80594 -0.12525 0.70464
 H423 H 0.92155 -0.16138 0.68000
 C424 C 1.13477 -0.13636 0.28078
 C425 C 1.13806 -0.17498 0.27699
 C426 C 1.15366 -0.19027 0.24508
 C427 C 1.16622 -0.16730 0.21620
 C428 C 1.16280 -0.12872 0.21986
 C429 C 1.14728 -0.11340 0.25181
 C430 C 1.11863 -0.12012 0.31494
 C431 C 1.13440 -0.08841 0.33106
 C432 C 1.11957 -0.07347 0.36352
 C433 C 1.08864 -0.08990 0.38053
 C434 C 1.07267 -0.12142 0.36434
 C435 C 1.08754 -0.13640 0.33191
 H436 H 1.15638 -0.22007 0.24307
 H437 H 1.17197 -0.11049 0.19781
 H438 H 1.13243 -0.04913 0.37538
 H439 H 1.04868 -0.13454 0.37674
 H440 H 1.14466 -0.08357 0.25368
 H441 H 1.15861 -0.07548 0.31889
 H442 H 1.12920 -0.19338 0.29903
 H443 H 1.07446 -0.16054 0.31989
 C444 C 0.86368 0.13664 0.27955
 C445 C 0.86308 0.17521 0.27427
 C446 C 0.84763 0.19064 0.24226
 C447 C 0.83216 0.16795 0.21445
 C448 C 0.83302 0.12919 0.21994
 C449 C 0.84855 0.11382 0.25196
 C450 C 0.87978 0.12032 0.31385
 C451 C 0.86277 0.08986 0.33133
 C452 C 0.87763 0.07486 0.36387
 C453 C 0.90976 0.09004 0.37966
 C454 C 0.92692 0.12031 0.36216
 C455 C 0.91211 0.13528 0.32960
 H456 H 0.84679 0.22054 0.23976
 H457 H 0.82234 0.11063 0.19898
 H458 H 0.86380 0.05153 0.37678
 H459 H 0.95186 0.13242 0.37358
 H460 H 0.84919 0.08396 0.25487
 H461 H 0.83759 0.07798 0.32020
 H462 H 0.87388 0.19360 0.29531
 H463 H 0.92620 0.15836 0.31653
 C464 C 0.13609 0.28072 -0.13585
 C465 C 0.11317 0.25181 -0.14826
 C466 C 0.12854 0.21979 -0.16361
 C467 C 0.16713 0.21603 -0.16697
 C468 C 0.19005 0.24488 -0.15454
 C469 C 0.17472 0.27685 -0.13911
 C470 C 0.11983 0.31489 -0.11976
 C471 C 0.13611 0.33172 -0.08868
 C472 C 0.12112 0.36414 -0.07382
 C473 C 0.08959 0.38048 -0.08977
 C474 C 0.07313 0.36362 -0.12068
 C475 C 0.08808 0.33114 -0.13551
 H476 H 0.11034 0.19777 -0.17270
 H477 H 0.21986 0.24281 -0.15724
 H478 H 0.13427 0.37642 -0.04984
 H479 H 0.04878 0.37560 -0.13352
 H480 H 0.19309 0.29886 -0.13033
 H481 H 0.16026 0.31959 -0.07561
 H482 H 0.08334 0.25374 -0.14566
 H483 H 0.07515 0.31908 -0.15970
 C484 C -0.13690 0.27962 0.13542
 C485 C -0.11411 0.25195 0.15068
 C486 C -0.12951 0.21999 0.16632
 C487 C -0.16827 0.21463 0.16711
 C488 C -0.19093 0.24249 0.15146
 C489 C -0.17547 0.27445 0.13593
 C490 C -0.12054 0.31391 0.11932
 C491 C -0.13546 0.32987 0.08699
 C492 C -0.12044 0.36242 0.07221
 C493 C -0.09015 0.37971 0.08940
 C494 C -0.07502 0.36370 0.12153
 C495 C -0.09008 0.33119 0.13636
 H496 H -0.11097 0.19899 0.17713
 H497 H -0.22083 0.24008 0.15224
 H498 H -0.13252 0.37401 0.04727
 H499 H -0.05167 0.37645 0.13538
 H500 H -0.19384 0.29555 0.12502
 H501 H -0.15855 0.31696 0.07287
 H502 H -0.08425 0.25475 0.15010
 H503 H -0.07823 0.31992 0.16155
 C504 C -0.13582 0.72048 -0.13631
 C505 C -0.15103 0.74807 -0.11355
 C506 C -0.16668 0.78001 -0.12897
 C507 C -0.16756 0.78543 -0.16774
 C508 C -0.15199 0.75764 -0.19038
 C509 C -0.13644 0.72570 -0.17489
 C510 C -0.11965 0.68624 -0.11994
 C511 C -0.08732 0.67049 -0.13490
 C512 C -0.07246 0.63797 -0.11989
 C513 C -0.08957 0.62051 -0.08956
 C514 C -0.12168 0.63632 -0.07437
 C515 C -0.13659 0.66881 -0.08942
 H516 H -0.17743 0.80096 -0.11045
 H517 H -0.15285 0.76007 -0.22028
 H518 H -0.04752 0.62654 -0.13201
 H519 H -0.13547 0.62343 -0.05100
 H520 H -0.12559 0.70466 -0.19325
 H521 H -0.07326 0.68353 -0.15802
 H522 H -0.15038 0.74522 -0.08368
 H523 H -0.16177 0.67993 -0.07754
 C524 C 0.13606 0.71914 0.13593
 C525 C 0.11306 0.74803 0.14826
 C526 C 0.12834 0.78009 0.16361
 C527 C 0.16692 0.78393 0.16704
 C528 C 0.18992 0.75512 0.15467
 C529 C 0.17468 0.72309 0.13925
 C530 C 0.11989 0.68491 0.11988
 C531 C 0.13623 0.66806 0.08885
 C532 C 0.12130 0.63559 0.07402
 C533 C 0.08977 0.61924 0.08996
 C534 C 0.07328 0.63611 0.12085
 C535 C 0.08817 0.66863 0.13564
 H536 H 0.11008 0.80208 0.17264
 H537 H 0.21972 0.75725 0.15741
 H538 H 0.13447 0.62330 0.05007
 H539 H 0.04893 0.62412 0.13369
 H540 H 0.19310 0.70112 0.13051
 H541 H 0.16037 0.68021 0.07578
 H542 H 0.08324 0.74602 0.14562
 H543 H 0.07519 0.68071 0.15981
 C544 C 0.28078 1.13555 0.86358
 C545 C 0.25186 1.14797 0.88651
 C546 C 0.21979 1.16336 0.87115
 C547 C 0.21596 1.16675 0.83256
 C548 C 0.24479 1.15430 0.80962
 C549 C 0.27683 1.13883 0.82495
 C550 C 0.31504 1.11947 0.87984
 C551 C 0.33200 1.08844 0.86360
 C552 C 0.36450 1.07360 0.87859
 C553 C 0.38080 1.08953 0.91008
 C554 C 0.36381 1.12040 0.92647
 C555 C 0.33126 1.13521 0.91153
 H556 H 0.19778 1.17246 0.88936
 H557 H 0.24266 1.15701 0.77982
 H558 H 0.37688 1.04965 0.86549
 H559 H 0.37576 1.13323 0.95079
 H560 H 0.29882 1.13005 0.80657
 H561 H 0.31990 1.07537 0.83950
 H562 H 0.25386 1.14536 0.91634
 H563 H 0.31910 1.15938 0.92442
 C564 C 0.28045 0.86451 1.13647
 C565 C 0.25153 0.85210 1.11354
 C566 C 0.21945 0.83670 1.12890
 C567 C 0.21563 0.83331 1.16750
 C568 C 0.24445 0.84580 1.19043
 C569 C 0.27649 0.86126 1.17510
 C570 C 0.31474 0.88051 1.12020
 C571 C 0.33178 0.91151 1.13641
 C572 C 0.36432 0.92626 1.12139
 C573 C 0.38056 0.91028 1.08991
 C574 C 0.36349 0.87943 1.07354
 C575 C 0.33091 0.86471 1.08851
 H576 H 0.19745 0.82758 1.11069
 H577 H 0.24231 0.84309 1.22024
 H578 H 0.37677 0.95019 1.13447
 H579 H 0.37538 0.86655 1.04923
 H580 H 0.29849 0.87005 1.19348
 H581 H 0.31973 0.92462 1.16051
 H582 H 0.25352 0.85469 1.08371
 H583 H 0.31869 0.84056 1.07564
 C584 C 0.72030 1.13563 1.13629
 C585 C 0.72535 1.13625 1.17487
 C586 C 0.75720 1.15183 1.19034
 C587 C 0.78508 1.16741 1.16767
 C588 C 0.77982 1.16656 1.12890
 C589 C 0.74796 1.15089 1.11350
 C590 C 0.68616 1.11940 1.11994
 C591 C 0.66881 1.13635 1.08938
 C592 C 0.63642 1.12139 1.07435
 C593 C 0.62062 1.08922 1.08959
 C594 C 0.63800 1.07211 1.11997
 C595 C 0.67043 1.08702 1.13497
 H596 H 0.75952 1.15267 1.22023
 H597 H 0.80084 1.17733 1.11036
 H598 H 0.62360 1.13518 1.05093
 H599 H 0.62657 1.04713 1.13214
 H600 H 0.74524 1.15024 1.08363
 H601 H 0.67993 1.16157 1.07744
 H602 H 0.70424 1.12536 1.19324
 H603 H 0.68340 1.07297 1.15813
 C604 C 0.72026 0.86326 0.86436
 C605 C 0.72543 0.82470 0.86382
 C606 C 0.75737 0.80931 0.84833
 C607 C 0.78520 0.83205 0.83275
 C608 C 0.77983 0.87080 0.83357
 C609 C 0.74790 0.88612 0.84916
 C610 C 0.68602 0.87954 0.88045
 C611 C 0.66867 0.91006 0.86342
 C612 C 0.63620 0.92505 0.87826
 C613 C 0.62033 0.90980 0.91039
 C614 C 0.63768 0.87945 0.92757
 C615 C 0.67019 0.86449 0.91278
 H616 H 0.75978 0.77942 0.84751
 H617 H 0.80082 0.88939 0.82282
 H618 H 0.62340 0.94844 0.86442
 H619 H 0.62620 0.86728 0.95252
 H620 H 0.74508 0.91598 0.84978
 H621 H 0.67985 0.92199 0.83823
 H622 H 0.70436 0.80627 0.87467
 H623 H 0.68315 0.84136 0.92689
   
