data_POSCAR
  _audit_creation_date              2014-09-24
  _audit_creation_method            'ToBaCCo'
  _symmetry_space_group_name_H-M    'P1'
  _symmetry_Int_Tables_number       1
  _symmetry_cell_setting            triclinic
  loop_
  _symmetry_equiv_pos_as_xyz
 x,y,z
_cell_length_a 22.2838
_cell_length_b 22.3593
_cell_length_c 61.3509
_cell_angle_alpha 90.237400
_cell_angle_beta 90.463400
_cell_angle_gamma 119.717400
loop_
  _atom_site_label
  _atom_site_type_symbol
  _atom_site_fract_x
  _atom_site_fract_y
  _atom_site_fract_z
C1 C -0.05710 -0.07426 0.48414
 C2 C -0.01084 -0.03515 0.50084
 C3 C -0.00032 -0.06812 0.51861
 C4 C -0.03534 -0.14054 0.51998
 C5 C -0.08166 -0.17889 0.50285
 C6 C -0.09336 -0.14677 0.48478
 C7 C 0.02760 0.04078 0.49954
 C8 C 0.02459 0.08098 0.51664
 C9 C 0.06124 0.15320 0.51557
 C10 C 0.10184 0.18475 0.49718
 C11 C 0.10604 0.14516 0.48003
 C12 C 0.06805 0.07304 0.48127
 H13 H -0.06248 -0.04730 0.47031
 H14 H 0.03421 -0.03632 0.53154
 H15 H -0.00609 0.05582 0.53083
 H16 H 0.07018 0.04175 0.46809
 H17 H -0.10883 -0.23432 0.50355
 H18 H 0.13074 0.24039 0.49630
 C19 C 1.06886 0.01520 0.14979
 C20 C 1.03564 0.02943 0.16667
 C21 C 1.07471 0.07833 0.18272
 C22 C 1.14714 0.11288 0.18229
 C23 C 1.17983 0.09689 0.16554
 C24 C 1.14165 0.04862 0.14887
 C25 C 0.95958 -0.00810 0.16778
 C26 C 0.92702 -0.04841 0.18600
 C27 C 0.85467 -0.08736 0.18692
 C28 C 0.81513 -0.08355 0.16956
 C29 C 0.84714 -0.04264 0.15125
 C30 C 0.91963 -0.00549 0.15044
 H31 H 1.03700 -0.02100 0.13722
 H32 H 1.04817 0.09005 0.19530
 H33 H 0.95835 -0.05009 0.19933
 H34 H 0.94518 0.02499 0.13626
 H35 H 1.23539 0.11984 0.16630
 H36 H 0.75930 -0.11319 0.17017
 C37 C 0.03957 0.97622 0.85109
 C38 C -0.00745 0.96299 0.83395
 C39 C -0.01763 0.91417 0.81789
 C40 C 0.01937 0.87855 0.81862
 C41 C 0.06753 0.89339 0.83568
 C42 C 0.07817 0.94183 0.85230
 C43 C -0.04482 1.00183 0.83254
 C44 C -0.03404 1.04462 0.81472
 C45 C -0.06578 1.08514 0.81365
 C46 C -0.11025 1.08088 0.83045
 C47 C -0.12268 1.03745 0.84860
 C48 C -0.08868 0.99834 0.84933
 H49 H 0.04425 1.01253 0.86362
 H50 H -0.05535 0.90345 0.80504
 H51 H -0.00002 1.04694 0.80183
 H52 H -0.09359 0.96677 0.86325
 H53 H 0.09947 0.86957 0.83516
 H54 H -0.13581 1.11101 0.82895
 O55 O 0.57653 0.05876 -0.02021
 O56 O 0.45959 0.05204 0.02214
 O57 O 0.57352 0.04680 0.02216
 O58 O 0.45656 0.05226 -0.02032
 O59 O 0.40112 -0.06125 -0.02170
 O60 O 0.51738 -0.06653 0.01944
 O61 O 0.40297 -0.06148 0.02077
 O62 O 0.52091 -0.05456 -0.02288
 Cu63 Cu 0.52216 0.06371 0.00113
 Cu64 Cu 0.45509 -0.07221 -0.00127
 C65 C 0.56900 0.00402 -0.02899
 C66 C 0.41157 -0.00515 0.02886
 C67 C 0.56494 -0.01151 0.02800
 C68 C 0.40861 -0.00429 -0.02824
 O69 O -0.05340 0.40879 0.68548
 O70 O -0.04824 0.53165 0.64532
 O71 O -0.03956 0.41971 0.64327
 O72 O -0.05350 0.52507 0.68772
 O73 O 0.06031 0.58190 0.69082
 O74 O 0.07397 0.47981 0.64652
 O75 O 0.06533 0.59198 0.64824
 O76 O 0.06026 0.46667 0.68856
 Cu77 Cu -0.06000 0.46549 0.66510
 Cu78 Cu 0.07633 0.53615 0.66875
 C79 C 0.00206 0.41652 0.69402
 C80 C 0.00889 0.58271 0.63983
 C81 C 0.02015 0.43200 0.63740
 C82 C 0.00159 0.57068 0.69709
 O83 O 0.48213 0.42251 0.31037
 O84 O 0.59189 0.52841 0.35557
 O85 O 0.47421 0.41447 0.35290
 O86 O 0.59522 0.53933 0.31326
 O87 O 0.53612 0.59446 0.31400
 O88 O 0.41812 0.47257 0.35404
 O89 O 0.53626 0.58700 0.35640
 O90 O 0.42181 0.47647 0.31164
 Cu91 Cu 0.54154 0.47046 0.33298
 Cu92 Cu 0.47229 0.53827 0.33414
 C93 C 0.43362 0.43133 0.30317
 C94 C 0.58353 0.57599 0.36369
 C95 C 0.42561 0.42268 0.36035
 C96 C 0.58568 0.58791 0.30669
 C97 C 0.05102 0.27528 0.56795
 C98 C 0.11409 0.29638 0.55739
 C99 C 0.11741 0.25641 0.54047
 C100 C 0.05809 0.19575 0.53372
 C101 C -0.00417 0.17684 0.54448
 N102 N -0.00612 0.21656 0.56102
 C103 C 0.04464 0.31570 0.58612
 N104 N -0.01880 0.30699 0.59098
 C105 C -0.02835 0.34280 0.60730
 C106 C 0.02817 0.39094 0.61985
 C107 C 0.09370 0.39975 0.61535
 C108 C 0.10209 0.36215 0.59870
 H109 H 0.16665 0.27280 0.53277
 H110 H -0.05145 0.13109 0.53958
 H111 H -0.07987 0.33406 0.61031
 H112 H 0.13869 0.43551 0.62481
 H113 H 0.16045 0.34367 0.56178
 H114 H 0.15304 0.36906 0.59609
 C115 C 0.75287 0.77529 0.23978
 C116 C 0.81497 0.78234 0.23179
 C117 C 0.84830 0.82742 0.21469
 C118 C 0.82060 0.86616 0.20558
 C119 C 0.75929 0.85870 0.21433
 N120 N 0.72758 0.81422 0.23092
 C121 C 0.71355 0.72722 0.25755
 N122 N 0.66359 0.73506 0.26759
 C123 C 0.62332 0.69219 0.28348
 C124 C 0.63168 0.63673 0.29013
 C125 C 0.68299 0.62761 0.28012
 C126 C 0.72380 0.67242 0.26381
 H127 H 0.89521 0.83107 0.20837
 H128 H 0.73669 0.88839 0.20810
 H129 H 0.58434 0.70121 0.29072
 H130 H 0.69078 0.58513 0.28460
 H131 H 0.83829 0.75409 0.23859
 H132 H 0.76134 0.66261 0.25598
 C133 C 0.22185 -0.01993 -0.09638
 C134 C 0.20610 0.03142 -0.10210
 C135 C 0.15863 0.01901 -0.11896
 C136 C 0.12642 -0.04452 -0.13041
 C137 C 0.14392 -0.09443 -0.12385
 N138 N 0.18978 -0.08110 -0.10732
 C139 C 0.27037 -0.01174 -0.07844
 N140 N 0.26682 -0.06976 -0.07021
 C141 C 0.30970 -0.06820 -0.05415
 C142 C 0.36095 -0.00512 -0.04536
 C143 C 0.36597 0.05572 -0.05354
 C144 C 0.32084 0.05271 -0.07008
 H145 H 0.14960 0.06067 -0.12337
 H146 H 0.11934 -0.14540 -0.13106
 H147 H 0.30385 -0.11652 -0.04843
 H148 H 0.40505 0.10548 -0.04731
 H149 H 0.22923 0.08043 -0.09361
 H150 H 0.32677 0.10032 -0.07646
 C151 C -0.00319 0.75624 0.57280
 C152 C 0.04932 0.82229 0.56718
 C153 C 0.03864 0.85678 0.54993
 C154 C -0.02428 0.82593 0.53799
 C155 C -0.07575 0.75998 0.54465
 N156 N -0.06401 0.72791 0.56152
 C157 C 0.00382 0.71585 0.59076
 N158 N -0.05488 0.66164 0.59852
 C159 C -0.05420 0.61975 0.61432
 C160 C 0.00865 0.63063 0.62327
 C161 C 0.07012 0.68638 0.61566
 C162 C 0.06801 0.72908 0.59940
 H163 H 0.08130 0.90643 0.54555
 H164 H -0.12657 0.73433 0.53719
 H165 H -0.10296 0.57746 0.61964
 H166 H 0.11974 0.69636 0.62203
 H167 H 0.09809 0.84766 0.57593
 H168 H 0.11618 0.77045 0.59340
 C169 C 0.26962 0.25957 0.23196
 C170 C 0.29386 0.26902 0.21055
 C171 C 0.25334 0.22221 0.19432
 C172 C 0.18903 0.16509 0.19937
 C173 C 0.16616 0.15852 0.22102
 N174 N 0.20640 0.20530 0.23653
 C175 C 0.31282 0.30586 0.24972
 N176 N 0.28387 0.32687 0.26529
 C177 C 0.32156 0.36839 0.28226
 C178 C 0.39192 0.38908 0.28450
 C179 C 0.42237 0.36737 0.26873
 C180 C 0.38324 0.32642 0.25122
 H181 H 0.27245 0.23100 0.17781
 H182 H 0.11735 0.11530 0.22582
 H183 H 0.29629 0.38377 0.29423
 H184 H 0.47658 0.38236 0.26991
 H185 H 0.34353 0.31240 0.20639
 H186 H 0.40735 0.30952 0.23929
 C187 C 0.74782 0.02765 -0.09967
 C188 C 0.77934 0.08647 -0.11271
 C189 C 0.82166 0.08966 -0.12976
 C190 C 0.83315 0.03420 -0.13424
 C191 C 0.79904 -0.02446 -0.12087
 N192 N 0.75788 -0.02618 -0.10434
 C193 C 0.70348 0.02265 -0.08111
 N194 N 0.65244 -0.04038 -0.07466
 C195 C 0.60937 -0.04812 -0.05793
 C196 C 0.61657 0.00986 -0.04662
 C197 C 0.66994 0.07502 -0.05272
 C198 C 0.71343 0.08160 -0.06980
 H199 H 0.84734 0.13730 -0.13869
 H200 H 0.80271 -0.07019 -0.12385
 H201 H 0.56924 -0.09936 -0.05367
 H202 H 0.67815 0.12123 -0.04433
 H203 H 0.77134 0.12981 -0.10994
 H204 H 0.75482 0.13241 -0.07383
 C205 C 0.24520 0.00947 0.09781
 C206 C 0.17827 -0.04150 0.10337
 C207 C 0.14387 -0.02886 0.12018
 C208 C 0.17571 0.03449 0.13174
 C209 C 0.24301 0.08391 0.12538
 N210 N 0.27484 0.07039 0.10889
 C211 C 0.28463 0.00141 0.07980
 N212 N 0.33887 0.05948 0.07178
 C213 C 0.37915 0.05817 0.05556
 C214 C 0.36636 -0.00472 0.04636
 C215 C 0.31088 -0.06566 0.05436
 C216 C 0.26986 -0.06288 0.07109
 H217 H 0.09322 -0.07018 0.12444
 H218 H 0.26980 0.13473 0.13268
 H219 H 0.42143 0.10654 0.05002
 H220 H 0.29950 -0.11527 0.04780
 H221 H 0.15199 -0.09029 0.09478
 H222 H 0.22830 -0.11056 0.07727
 C223 C 0.76750 0.73615 0.43385
 C224 C 0.80176 0.70842 0.44572
 C225 C 0.84739 0.74674 0.46251
 C226 C 0.86013 0.81364 0.46766
 C227 C 0.82469 0.83946 0.45508
 N228 N 0.77988 0.80059 0.43893
 C229 C 0.71905 0.69630 0.41584
 N230 N 0.71663 0.63765 0.40846
 C231 C 0.67391 0.59891 0.39197
 C232 C 0.62953 0.61826 0.38180
 C233 C 0.63067 0.67834 0.38917
 C234 C 0.67559 0.71767 0.40611
 H235 H 0.87467 0.72437 0.47066
 H236 H 0.82999 0.88932 0.45852
 H237 H 0.67465 0.55286 0.38690
 H238 H 0.59734 0.69516 0.38175
 H239 H 0.79369 0.65751 0.44207
 H240 H 0.67601 0.76398 0.41158
 C241 C -0.02407 0.22638 0.76130
 C242 C 0.03005 0.21910 0.77037
 C243 C 0.01632 0.17278 0.78733
 C244 C -0.05108 0.13325 0.79523
 C245 C -0.10385 0.14112 0.78546
 N246 N -0.08920 0.18668 0.76902
 C247 C -0.01349 0.27529 0.74351
 N248 N -0.06997 0.26704 0.73223
 C249 C -0.06590 0.31052 0.71620
 C250 C -0.00189 0.36713 0.71072
 C251 C 0.05726 0.37671 0.72201
 C252 C 0.05176 0.33116 0.73844
 H253 H 0.05869 0.16862 0.79447
 H254 H -0.15677 0.11081 0.79075
 H255 H -0.11296 0.30108 0.70795
 H256 H 0.10758 0.42005 0.71844
 H257 H 0.08231 0.24801 0.76448
 H258 H 0.09798 0.34119 0.74729
 C259 C 0.72677 -0.03489 0.09763
 C260 C 0.70616 -0.09764 0.10824
 C261 C 0.74543 -0.10011 0.12564
 C262 C 0.80492 -0.04026 0.13276
 C263 C 0.82330 0.02167 0.12194
 N264 N 0.78423 0.02282 0.10496
 C265 C 0.68674 -0.02966 0.07903
 N266 N 0.69156 0.03222 0.07450
 C267 C 0.65471 0.04006 0.05803
 C268 C 0.60939 -0.01673 0.04508
 C269 C 0.60524 -0.08040 0.04912
 C270 C 0.64393 -0.08699 0.06589
 H271 H 0.72951 -0.14909 0.13337
 H272 H 0.86819 0.06927 0.12713
 H273 H 0.65984 0.09020 0.05538
 H274 H 0.57186 -0.12544 0.03933
 H275 H 0.65972 -0.14440 0.10350
 H276 H 0.64042 -0.13650 0.06828
 C277 C 0.24077 0.24858 0.42673
 C278 C 0.23622 0.18774 0.43483
 C279 C 0.19172 0.15355 0.45202
 C280 C 0.15133 0.17930 0.46112
 C281 C 0.15616 0.23919 0.45220
 N282 N 0.20004 0.27170 0.43556
 C283 C 0.28821 0.28928 0.40898
 N284 N 0.27935 0.33951 0.39963
 C285 C 0.32161 0.38146 0.38392
 C286 C 0.37760 0.37471 0.37672
 C287 C 0.38773 0.32302 0.38593
 C288 C 0.34342 0.28038 0.40208
 H289 H 0.18993 0.10770 0.45846
 H290 H 0.12504 0.26018 0.45839
 H291 H 0.31167 0.42052 0.37727
 H292 H 0.43057 0.31634 0.38096
 H293 H 0.26609 0.16616 0.42812
 H294 H 0.35393 0.24249 0.40929
 C295 C -0.00276 0.73403 0.76869
 C296 C 0.00975 0.72273 0.79028
 C297 C 0.01508 0.76871 0.80659
 C298 C 0.00908 0.82675 0.80146
 C299 C -0.00542 0.83494 0.77965
 N300 N -0.01086 0.78905 0.76403
 C301 C -0.00329 0.68943 0.75084
 N302 N -0.05095 0.66992 0.73438
 C303 C -0.05190 0.63037 0.71727
 C304 C -0.00146 0.61043 0.71583
 C305 C 0.04827 0.63058 0.73254
 C306 C 0.04711 0.66939 0.75015
 H307 H 0.02401 0.75875 0.82321
 H308 H -0.01015 0.87889 0.77481
 H309 H -0.09074 0.61612 0.70457
 H310 H 0.08797 0.61606 0.73200
 H311 H 0.01539 0.67876 0.79448
 H312 H 0.08638 0.68520 0.76279
   
