data_POSCAR
  _audit_creation_date              2014-09-24
  _audit_creation_method            'ToBaCCo'
  _symmetry_space_group_name_H-M    'P1'
  _symmetry_Int_Tables_number       1
  _symmetry_cell_setting            triclinic
  loop_
  _symmetry_equiv_pos_as_xyz
 x,y,z
_cell_length_a 24.8144
_cell_length_b 24.6002
_cell_length_c 25.3482
_cell_angle_alpha 89.723700
_cell_angle_beta 89.818900
_cell_angle_gamma 90.501900
loop_
  _atom_site_label
  _atom_site_type_symbol
  _atom_site_fract_x
  _atom_site_fract_y
  _atom_site_fract_z
C1 C 0.18612 0.18002 0.25425
 N2 N 0.17156 0.23076 0.23909
 C3 C 0.20220 0.25971 0.20415
 N4 N 0.24857 0.23767 0.18514
 C5 C 0.26454 0.18745 0.20144
 N6 N 0.23254 0.15906 0.23528
 C7 C -0.19818 0.81317 0.26309
 N8 N -0.17196 0.77120 0.23965
 C9 C -0.18430 0.75618 0.18942
 N10 N -0.22353 0.78300 0.16285
 C11 C -0.24981 0.82506 0.18575
 N12 N -0.23641 0.83991 0.23543
 C13 C -0.19157 0.19267 -0.24733
 N14 N -0.16304 0.23114 -0.22088
 C15 C -0.18507 0.25598 -0.17806
 N16 N -0.23488 0.24053 -0.16092
 C17 C -0.26359 0.20211 -0.18736
 N18 N -0.24160 0.17893 -0.23057
 C19 C 0.18928 0.80651 -0.26931
 N20 N 0.16768 0.75982 -0.24931
 C21 C 0.18811 0.73726 -0.20456
 N22 N 0.22827 0.76365 -0.17809
 C23 C 0.24966 0.81070 -0.19757
 N24 N 0.23062 0.83057 -0.24363
 C25 C 0.17152 1.20214 0.73169
 N26 N 0.15173 1.24925 0.75163
 C27 C 0.17790 1.27580 0.79123
 N28 N 0.22329 1.25370 0.81182
 C29 C 0.24336 1.20655 0.79301
 N30 N 0.21757 1.18136 0.75260
 C31 C 0.80692 0.80996 0.74755
 N32 N 0.83419 0.77137 0.77505
 C33 C 0.81548 0.75243 0.82217
 N34 N 0.76971 0.77328 0.84278
 C35 C 0.74210 0.81235 0.81659
 N36 N 0.76066 0.83031 0.76878
 C37 C 0.20483 0.79664 1.26831
 N38 N 0.18932 0.74613 1.25320
 C39 C 0.21169 0.72169 1.21067
 N40 N 0.25044 0.74889 1.18249
 C41 C 0.26634 0.79980 1.19663
 N42 N 0.24325 0.82340 1.23951
 C43 C 0.81467 1.17151 1.24322
 N44 N 0.84288 1.21028 1.21643
 C45 C 0.82240 1.23540 1.17324
 N46 N 0.77230 1.22107 1.15644
 C47 C 0.74315 1.18174 1.18197
 N48 N 0.76467 1.15704 1.22541
 O49 O 0.54364 0.96183 0.89301
 O50 O 0.45345 0.92608 1.06103
 O51 O 0.62443 0.98997 1.03698
 O52 O 0.37760 0.98298 0.94798
 O53 O 0.55353 0.94031 1.06171
 O54 O 0.44113 0.94738 0.89706
 O55 O 0.38496 0.97661 1.04389
 O56 O 0.57440 0.94103 0.96932
 C57 C 0.57407 0.93371 0.92072
 C58 C 0.40366 0.93270 1.06156
 C59 C 0.60352 0.95215 1.06813
 C60 C 0.39349 0.94809 0.91424
 O61 O 0.42879 1.04844 0.88560
 O62 O 0.53836 1.04111 1.09788
 O63 O 0.59688 1.04155 0.94232
 O64 O 0.42478 1.08194 1.04509
 O65 O 0.44062 1.02422 1.10437
 O66 O 0.52869 1.06644 0.89317
 O67 O 0.40912 1.09090 0.95513
 O68 O 0.56932 1.07704 1.02817
 Co69 Co 0.48615 1.00623 0.90191
 Co70 Co 0.49547 0.98552 1.07282
 Co71 Co 0.56592 1.00892 0.99984
 Co72 Co 0.40566 1.03116 0.99785
 O73 O 0.48572 1.01001 0.98927
 C74 C 0.40568 1.08699 0.90684
 C75 C 0.56512 1.07851 1.07666
 C76 C 0.57684 1.07172 0.90732
 C77 C 0.42357 1.07006 1.09205
 O78 O 0.04255 0.44046 0.11182
 O79 O 0.02972 0.55325 -0.10268
 O80 O 0.08884 0.44396 -0.04701
 O81 O 0.08766 0.58832 0.05588
 O82 O 0.02797 0.45527 -0.10442
 O83 O 0.04781 0.54103 0.11868
 O84 O 0.08735 0.57534 -0.04267
 O85 O 0.09614 0.43099 0.04695
 C86 C 0.08750 0.42595 0.09472
 C87 C 0.07527 0.57248 -0.09004
 C88 C 0.07490 0.44100 -0.09365
 C89 C 0.08499 0.57263 0.10267
 O90 O -0.05545 0.54853 0.09895
 O91 O -0.06844 0.45361 -0.05252
 O92 O -0.00462 0.38598 0.04936
 O93 O -0.01204 0.61419 -0.04387
 O94 O -0.07019 0.55181 -0.05495
 O95 O -0.05988 0.44565 0.08094
 O96 O -0.01504 0.61353 0.05345
 O97 O -0.00871 0.39254 -0.04506
 Co98 Co -0.00482 0.49429 0.09312
 Co99 Co -0.01750 0.50335 -0.07140
 Co100 Co 0.04032 0.42072 0.00143
 Co101 Co 0.03472 0.58842 0.00551
 O102 O 0.01258 0.50213 0.00792
 C103 C -0.05041 0.59758 0.08622
 C104 C -0.05585 0.40522 -0.05656
 C105 C -0.04903 0.39744 0.07081
 C106 C -0.05823 0.60054 -0.05763
 O107 O 1.08173 0.05811 0.44264
 O108 O 0.91799 0.05911 0.55758
 O109 O 0.93762 0.01216 0.39420
 O110 O 1.01248 0.06427 0.57870
 O111 O 0.91727 0.06645 0.45828
 O112 O 1.09010 0.05069 0.54390
 O113 O 0.94537 0.01382 0.62879
 O114 O 1.03488 0.00980 0.38488
 C115 C 1.06508 0.05024 0.39647
 C116 C 0.91327 0.05033 0.60747
 C117 C 0.91907 0.05676 0.40996
 C118 C 1.06148 0.07535 0.57604
 O119 O 1.09845 -0.05334 0.53629
 O120 O 0.87783 -0.03437 0.45213
 O121 O 1.03396 -0.09440 0.42542
 O122 O 0.95820 -0.07559 0.57856
 O123 O 0.88541 -0.04455 0.54877
 O124 O 1.10142 -0.04292 0.43764
 O125 O 1.04479 -0.03341 0.60282
 O126 O 0.94097 -0.08941 0.44225
 Co127 Co 1.08320 0.00229 0.49082
 Co128 Co 0.90835 0.00957 0.50328
 Co129 Co 0.98679 -0.03824 0.41778
 Co130 Co 0.98412 -0.00586 0.57235
 O131 O 0.99487 -0.00968 0.49374
 C132 C 1.08387 -0.05923 0.58356
 C133 C 0.89286 -0.08007 0.43729
 C134 C 1.08279 -0.08592 0.41996
 C135 C 0.90880 -0.07987 0.57553
 C136 C 1.16061 0.09152 0.29004
 C137 C 1.15263 0.14811 0.28675
 C138 C 1.11084 0.17138 0.31665
 C139 C 1.08044 0.13925 0.35160
 C140 C 1.08913 0.08315 0.35453
 C141 C 1.12838 0.05935 0.32277
 H142 H 1.19165 0.07171 0.26716
 H143 H 1.10352 0.21471 0.31525
 H144 H 1.05121 0.15825 0.37720
 H145 H 1.13604 0.01614 0.32540
 C146 C 0.79177 -0.12148 0.33500
 C147 C 0.81702 -0.16754 0.31314
 C148 C 0.86044 -0.19060 0.34056
 C149 C 0.88176 -0.16476 0.38486
 C150 C 0.86020 -0.11542 0.40276
 C151 C 0.81323 -0.09569 0.37929
 H152 H 0.75727 -0.10307 0.31617
 H153 H 0.88026 -0.22665 0.32607
 H154 H 0.91772 -0.18132 0.40271
 H155 H 0.79547 -0.05808 0.39255
 C156 C 0.86690 0.17925 0.67292
 C157 C 0.83438 0.15780 0.71342
 C158 C 0.82682 0.10124 0.71749
 C159 C 0.85227 0.06647 0.68242
 C160 C 0.88422 0.08774 0.64170
 C161 C 0.89102 0.14428 0.63652
 H162 H 0.87322 0.22273 0.66932
 H163 H 0.80229 0.08381 0.74882
 H164 H 0.84706 0.02291 0.68704
 H165 H 0.91631 0.16111 0.60549
 C166 C 1.19264 -0.12072 0.66537
 C167 C 1.16576 -0.16591 0.68827
 C168 C 1.11298 -0.17840 0.67182
 C169 C 1.08624 -0.14356 0.63718
 C170 C 1.11267 -0.09741 0.61691
 C171 C 1.16643 -0.08717 0.62956
 H172 H 1.23366 -0.11024 0.67608
 H173 H 1.09101 -0.21279 0.68826
 H174 H 1.04474 -0.15208 0.62680
 H175 H 1.18731 -0.05190 0.61350
 C176 C 0.34087 1.18741 1.13988
 C177 C 0.31088 1.16265 1.18072
 C178 C 0.32614 1.11030 1.19813
 C179 C 0.36668 1.08170 1.17226
 C180 C 0.39267 1.10461 1.12833
 C181 C 0.38105 1.15849 1.11375
 H182 H 0.33131 1.22783 1.12582
 H183 H 0.30511 1.09001 1.23025
 H184 H 0.37483 1.04025 1.18423
 H185 H 0.40093 1.17720 1.08007
 C186 C 0.30923 0.88935 0.80734
 C187 C 0.28700 0.84212 0.83090
 C188 C 0.30032 0.83013 0.88378
 C189 C 0.33375 0.86552 0.91245
 C190 C 0.35472 0.91250 0.88821
 C191 C 0.34276 0.92377 0.83560
 H192 H 0.30084 0.90023 0.76675
 H193 H 0.28405 0.79433 0.90336
 H194 H 0.34380 0.85599 0.95300
 H195 H 0.35961 0.95949 0.81625
 C196 C 0.68736 0.83392 1.11218
 C197 C 0.71179 0.85501 1.15785
 C198 C 0.69759 0.90756 1.17481
 C199 C 0.66238 0.93918 1.14521
 C200 C 0.63846 0.91785 1.09997
 C201 C 0.64960 0.86458 1.08450
 H202 H 0.69640 0.79335 1.09848
 H203 H 0.71548 0.92545 1.20965
 H204 H 0.65374 0.98028 1.15764
 H205 H 0.62981 0.84704 1.05062
 C206 C 0.65762 1.14347 0.80337
 C207 C 0.68926 1.17930 0.83393
 C208 C 0.67723 1.18499 0.88792
 C209 C 0.63932 1.15055 0.91180
 C210 C 0.61094 1.11244 0.88161
 C211 C 0.61826 1.11082 0.82702
 H212 H 0.66478 1.13884 0.76145
 H213 H 0.70031 1.21228 0.91272
 H214 H 0.63335 1.15236 0.95403
 H215 H 0.59606 1.08181 0.80327
 C216 C 0.13578 0.33571 0.20509
 C217 C 0.18069 0.31087 0.18168
 C218 C 0.19995 0.33120 0.13318
 C219 C 0.17187 0.37196 0.10644
 C220 C 0.12424 0.39335 0.12787
 C221 C 0.10795 0.37661 0.17854
 H222 H 0.12029 0.32153 0.24275
 H223 H 0.23455 0.31318 0.11415
 H224 H 0.18562 0.38429 0.06755
 H225 H 0.07161 0.39251 0.19627
 C226 C -0.09660 0.28991 -0.14532
 C227 C -0.15282 0.29467 -0.14667
 C228 C -0.17771 0.33519 -0.11635
 C229 C -0.14659 0.37122 -0.08618
 C230 C -0.09036 0.36603 -0.08476
 C231 C -0.06580 0.32476 -0.11424
 H232 H -0.07640 0.25872 -0.16778
 H233 H -0.22111 0.33952 -0.11666
 H234 H -0.16629 0.40294 -0.06402
 H235 H -0.02239 0.32032 -0.11448
 C236 C 0.18849 0.66037 -0.13984
 C237 C 0.16371 0.68704 -0.18227
 C238 C 0.11366 0.66749 -0.20051
 C239 C 0.08666 0.62555 -0.17358
 C240 C 0.10938 0.60258 -0.12810
 C241 C 0.16167 0.61847 -0.11315
 H242 H 0.22751 0.67360 -0.12554
 H243 H 0.09376 0.68678 -0.23353
 H244 H 0.04630 0.61430 -0.18578
 H245 H 0.18032 0.60111 -0.07842
 C246 C -0.13165 0.66990 0.19051
 C247 C -0.15216 0.71429 0.16230
 C248 C -0.13980 0.71963 0.10827
 C249 C -0.10637 0.68196 0.08327
 C250 C -0.08624 0.63741 0.11153
 C251 C -0.09971 0.63137 0.16516
 H252 H -0.14053 0.66491 0.23213
 H253 H -0.15476 0.75379 0.08572
 H254 H -0.09660 0.68735 0.04188
 H255 H -0.08432 0.59748 0.18783
 C256 C 1.16895 0.12973 0.66646
 C257 C 1.14399 0.17377 0.69150
 C258 C 1.09084 0.18712 0.67628
 C259 C 1.06306 0.15573 0.63862
 C260 C 1.08873 0.11201 0.61394
 C261 C 1.14208 0.09999 0.62797
 H262 H 1.20967 0.11793 0.67633
 H263 H 1.06997 0.22057 0.69469
 H264 H 1.02183 0.16556 0.62880
 H265 H 1.16283 0.06601 0.61028
 C266 C 0.87985 -0.18507 0.68157
 C267 C 0.82853 -0.16894 0.69977
 C268 C 0.80103 -0.12911 0.67041
 C269 C 0.82544 -0.10384 0.62664
 C270 C 0.87829 -0.11702 0.61137
 C271 C 0.90455 -0.15903 0.63840
 H272 H 0.90249 -0.21595 0.70225
 H273 H 0.76130 -0.11582 0.68224
 H274 H 0.80423 -0.07123 0.60702
 H275 H 0.94529 -0.17002 0.62773
 C276 C 1.19543 -0.12652 0.32835
 C277 C 1.17779 -0.17748 0.31005
 C278 C 1.13064 -0.20062 0.33262
 C279 C 1.10018 -0.17188 0.36962
 C280 C 1.11711 -0.12026 0.38619
 C281 C 1.16590 -0.09873 0.36638
 H282 H 1.23169 -0.10746 0.31280
 H283 H 1.11561 -0.23991 0.32001
 H284 H 1.06286 -0.18945 0.38434
 H285 H 1.18026 -0.05905 0.37857
 C286 C 0.81227 0.10294 0.31442
 C287 C 0.83846 0.14591 0.28746
 C288 C 0.89038 0.16192 0.30495
 C289 C 0.91579 0.13475 0.34658
 C290 C 0.89005 0.09114 0.37192
 C291 C 0.83801 0.07572 0.35590
 H292 H 0.77251 0.08919 0.30269
 H293 H 0.91225 0.19488 0.28586
 H294 H 0.95615 0.14673 0.35792
 H295 H 0.81779 0.04155 0.37470
 C296 C 0.18317 0.34924 -0.14431
 C297 C 0.15669 0.32346 -0.18667
 C298 C 0.10717 0.34468 -0.20389
 C299 C 0.08257 0.38692 -0.17634
 C300 C 0.10695 0.40880 -0.13112
 C301 C 0.15851 0.39127 -0.11687
 H302 H 0.22191 0.33531 -0.13037
 H303 H 0.08582 0.32687 -0.23686
 H304 H 0.04274 0.39969 -0.18826
 H305 H 0.17841 0.40770 -0.08238
 C306 C -0.09137 0.28171 0.15860
 C307 C -0.14630 0.27455 0.14596
 C308 C -0.16848 0.30741 0.10582
 C309 C -0.13698 0.34754 0.08067
 C310 C -0.08245 0.35388 0.09373
 C311 C -0.05978 0.32027 0.13220
 H312 H -0.07225 0.25724 0.18872
 H313 H -0.21045 0.30329 0.09483
 H314 H -0.15501 0.37350 0.05107
 H315 H -0.01778 0.32507 0.14303
 C316 C -0.09669 0.71422 -0.14960
 C317 C -0.15310 0.71267 -0.14720
 C318 C -0.17878 0.67416 -0.11421
 C319 C -0.14832 0.63707 -0.08484
 C320 C -0.09186 0.63944 -0.08676
 C321 C -0.06640 0.67850 -0.11915
 H322 H -0.07592 0.74375 -0.17434
 H323 H -0.22234 0.67230 -0.11176
 H324 H -0.16867 0.60710 -0.06029
 H325 H -0.02284 0.68068 -0.12180
 C326 C 0.20713 0.65047 0.14410
 C327 C 0.18897 0.67299 0.19172
 C328 C 0.14279 0.64980 0.21618
 C329 C 0.11118 0.61139 0.18965
 C330 C 0.12564 0.59524 0.13873
 C331 C 0.17565 0.61208 0.11787
 H332 H 0.24327 0.66557 0.12471
 H333 H 0.12818 0.66464 0.25370
 H334 H 0.07298 0.59863 0.20665
 H335 H 0.18818 0.59913 0.07894
 C336 C 0.30521 1.19637 0.87076
 C337 C 0.28967 1.18033 0.81969
 C338 C 0.31632 1.13653 0.79610
 C339 C 0.35605 1.10818 0.82359
 C340 C 0.36962 1.12245 0.87562
 C341 C 0.34448 1.16750 0.89857
 H342 H 0.28546 1.22990 0.89020
 H343 H 0.30558 1.12329 0.75680
 H344 H 0.37456 1.07356 0.80477
 H345 H 0.35400 1.17942 0.93857
 C346 C 0.34477 0.80855 1.13294
 C347 C 0.30239 0.83235 1.16158
 C348 C 0.29288 0.88810 1.15507
 C349 C 0.32462 0.91941 1.12079
 C350 C 0.36783 0.89628 1.09303
 C351 C 0.37795 0.84053 1.09970
 H352 H 0.35280 0.76555 1.13708
 H353 H 0.26023 0.90752 1.17603
 H354 H 0.31624 0.96243 1.11726
 H355 H 0.41126 0.82179 1.07917
 C356 C 0.65909 1.12310 1.18535
 C357 C 0.69070 1.16283 1.15945
 C358 C 0.67380 1.18134 1.10950
 C359 C 0.62938 1.15747 1.08429
 C360 C 0.60039 1.11484 1.10848
 C361 C 0.61428 1.09968 1.16030
 H362 H 0.67039 1.10821 1.22399
 H363 H 0.69660 1.21231 1.08843
 H364 H 0.61957 1.17034 1.04464
 H365 H 0.59304 1.06672 1.18006
 C366 C 0.69044 0.83727 0.89807
 C367 C 0.69550 0.83860 0.84271
 C368 C 0.65749 0.86770 0.81334
 C369 C 0.61621 0.89590 0.83882
 C370 C 0.61253 0.89656 0.89435
 C371 C 0.64984 0.86643 0.92353
 H372 H 0.71935 0.81562 0.92200
 H373 H 0.66016 0.86939 0.77071
 H374 H 0.58839 0.91901 0.81492
 H375 H 0.64894 0.86704 0.96604
   
