data_POSCAR
  _audit_creation_date              2014-09-24
  _audit_creation_method            'ToBaCCo'
  _symmetry_space_group_name_H-M    'P1'
  _symmetry_Int_Tables_number       1
  _symmetry_cell_setting            triclinic
  loop_
  _symmetry_equiv_pos_as_xyz
 x,y,z
_cell_length_a 31.3714
_cell_length_b 19.5048
_cell_length_c 19.2711
_cell_angle_alpha 89.807400
_cell_angle_beta 90.110600
_cell_angle_gamma 89.898800
loop_
  _atom_site_label
  _atom_site_type_symbol
  _atom_site_fract_x
  _atom_site_fract_y
  _atom_site_fract_z
O1 O 0.05999 0.11754 0.12867
 O2 O 0.10682 0.05622 0.06162
 C3 C 0.09823 0.09999 0.11014
 O4 O -0.05869 -0.12937 0.11913
 O5 O -0.10592 -0.06183 0.05843
 C6 C -0.09706 -0.11086 0.10172
 O7 O 0.06070 -0.12198 0.12611
 O8 O 0.10743 -0.05902 0.06029
 C9 C 0.09910 -0.10414 0.10807
 O10 O -0.05901 0.12499 0.12146
 O11 O -0.10609 0.05932 0.05926
 C12 C -0.09734 0.10720 0.10355
 Zr13 Zr 0.00051 0.08456 0.08921
 O14 O -0.00129 0.07418 0.19837
 O15 O 0.00460 0.19267 0.09470
 Zr16 Zr 0.00069 -0.08738 0.08874
 O17 O -0.00049 -0.07511 0.19762
 O18 O 0.00214 -0.19528 0.09941
 O19 O 0.03896 -0.00161 0.10209
 O20 O -0.03710 -0.00153 0.10137
 O21 O -0.05927 0.12588 -0.11931
 O22 O -0.10619 0.05977 -0.05712
 C23 C -0.09753 0.10788 -0.10140
 O24 O 0.06013 -0.11924 -0.12623
 O25 O 0.10722 -0.05780 -0.05963
 C26 C 0.09845 -0.10161 -0.10802
 O27 O -0.05927 -0.12572 -0.12039
 O28 O -0.10620 -0.06028 -0.05775
 C29 C -0.09755 -0.10783 -0.10241
 O30 O 0.06012 0.11903 -0.12552
 O31 O 0.10715 0.05639 -0.05936
 C32 C 0.09845 0.10100 -0.10739
 Zr33 Zr 0.00037 0.08624 -0.08635
 O34 O -0.00461 0.08644 -0.19595
 O35 O 0.00527 0.19450 -0.08561
 Zr36 Zr 0.00033 -0.08680 -0.08693
 O37 O -0.00454 -0.08553 -0.19653
 O38 O 0.00461 -0.19514 -0.08702
 Zr39 Zr 0.06399 -0.00111 0.00071
 Zr40 Zr -0.06338 -0.00078 0.00092
 O41 O -0.03683 -0.00010 -0.09931
 O42 O 0.03837 -0.00031 -0.10048
 O43 O -0.03756 0.09901 0.00143
 O44 O 0.03748 -0.10004 0.00072
 O45 O 0.03743 0.09798 0.00145
 O46 O -0.03735 -0.10063 0.00085
 H47 H -0.05668 -0.00192 0.14167
 H48 H 0.05679 -0.14028 0.00034
 H49 H -0.05611 0.00021 -0.14010
 H50 H 0.05658 0.13833 0.00167
 H51 H 0.00772 -0.21418 0.05283
 H52 H -0.01890 -0.21284 -0.05789
 H53 H 0.01947 -0.05798 -0.21458
 H54 H 0.01945 0.05916 -0.21424
 H55 H -0.01884 0.21247 -0.05808
 H56 H -0.01513 0.21145 0.05936
 H57 H -0.00173 0.12143 0.21708
 H58 H -0.00139 -0.12205 0.21736
 O59 O 0.55940 0.62107 0.62539
 O60 O 0.60632 0.55879 0.55940
 C61 C 0.59769 0.60323 0.60730
 O62 O 0.44032 0.37480 0.61946
 O63 O 0.39312 0.44241 0.55875
 C64 C 0.40193 0.39365 0.60245
 O65 O 0.55942 0.38099 0.62693
 O66 O 0.60634 0.44307 0.56055
 C67 C 0.59769 0.39879 0.60882
 O68 O 0.44013 0.62767 0.61768
 O69 O 0.39306 0.56012 0.55734
 C70 C 0.40181 0.60895 0.60058
 Zr71 Zr 0.49989 0.58758 0.58612
 O72 O 0.49807 0.57947 0.69547
 O73 O 0.50395 0.69581 0.58937
 Zr74 Zr 0.49990 0.41559 0.58828
 O75 O 0.49880 0.42944 0.69698
 O76 O 0.50061 0.30777 0.60028
 O77 O 0.53825 0.50154 0.60042
 O78 O 0.46234 0.50168 0.59949
 O79 O 0.44012 0.62567 0.37665
 O80 O 0.39327 0.56046 0.43977
 C81 C 0.40186 0.60790 0.39470
 O82 O 0.55988 0.38043 0.37423
 O83 O 0.60691 0.44306 0.43985
 C84 C 0.59822 0.39845 0.39216
 O85 O 0.44047 0.37371 0.37998
 O86 O 0.39341 0.44004 0.44143
 C87 C 0.40218 0.39180 0.39762
 O88 O 0.55931 0.61878 0.37068
 O89 O 0.60632 0.55742 0.43804
 C90 C 0.59761 0.60105 0.38917
 Zr91 Zr 0.49971 0.58673 0.41091
 O92 O 0.49485 0.58638 0.30133
 O93 O 0.50461 0.69502 0.41133
 Zr94 Zr 0.49992 0.41332 0.41291
 O95 O 0.49519 0.41264 0.30329
 O96 O 0.50422 0.30500 0.41486
 Zr97 Zr 0.56355 0.50053 0.49920
 Zr98 Zr 0.43605 0.50078 0.49899
 O99 O 0.46273 0.49992 0.39893
 O100 O 0.53779 0.49985 0.39808
 O101 O 0.46169 0.60070 0.49827
 O102 O 0.53700 0.40161 0.50074
 O103 O 0.53692 0.59963 0.49838
 O104 O 0.46198 0.40090 0.50063
 H105 H 0.44298 0.50189 0.64007
 H106 H 0.55634 0.36142 0.50097
 H107 H 0.44349 0.49957 0.35810
 H108 H 0.55607 0.63997 0.49803
 H109 H 0.50949 0.28820 0.55538
 H110 H 0.48106 0.28792 0.44512
 H111 H 0.51919 0.43994 0.28484
 H112 H 0.51797 0.55682 0.28346
 H113 H 0.47988 0.71322 0.43723
 H114 H 0.48335 0.71395 0.55500
 H115 H 0.49744 0.62710 0.71316
 H116 H 0.49726 0.38285 0.71742
 N117 N 0.15993 0.20964 0.22836
 C118 C 0.20056 0.19384 0.21064
 N119 N 0.20759 0.14692 0.16019
 N120 N 0.17494 0.11673 0.12833
 C121 C 0.13419 0.13251 0.14587
 N122 N 0.12727 0.17946 0.19652
 C123 C 0.23567 0.22714 0.24416
 C124 C 0.26514 0.25553 0.27200
 C125 C 0.30017 0.28976 0.30474
 N126 N 0.34085 0.27270 0.28860
 N127 N 0.37342 0.30511 0.31838
 C128 C 0.36635 0.35568 0.36526
 N129 N 0.32554 0.37258 0.38137
 N130 N 0.29299 0.34017 0.35157
 N131 N 0.84114 0.76918 0.20964
 C132 C 0.80052 0.78697 0.19334
 N133 N 0.79360 0.83793 0.14668
 N134 N 0.82630 0.87023 0.11722
 C135 C 0.86704 0.85267 0.13348
 N136 N 0.87387 0.80148 0.18017
 C137 C 0.76527 0.75320 0.22599
 C138 C 0.73558 0.72538 0.25382
 C139 C 0.70027 0.69281 0.28752
 N140 N 0.65969 0.70933 0.26968
 N141 N 0.62688 0.67987 0.30185
 C142 C 0.63361 0.63296 0.35297
 N143 N 0.67430 0.61648 0.37060
 N144 N 0.70708 0.64593 0.33843
 N145 N 0.84067 0.22641 0.78844
 C146 C 0.80006 0.20929 0.80489
 N147 N 0.79309 0.15909 0.85231
 N148 N 0.82578 0.12691 0.88239
 C149 C 0.86652 0.14386 0.86598
 N150 N 0.87338 0.19424 0.81851
 C151 C 0.76487 0.24323 0.77184
 C152 C 0.73529 0.27141 0.74375
 C153 C 0.70011 0.30458 0.70990
 N154 N 0.65949 0.28829 0.72720
 N155 N 0.62679 0.31851 0.69513
 C156 C 0.63364 0.36598 0.64467
 N157 N 0.67438 0.38221 0.62754
 N158 N 0.70707 0.35199 0.65962
 N159 N 0.20763 0.85194 0.84054
 C160 C 0.20042 0.80513 0.79004
 N161 N 0.15972 0.78918 0.77282
 N162 N 0.12718 0.81913 0.80517
 C163 C 0.13428 0.86598 0.85585
 N164 N 0.17510 0.88189 0.87291
 C165 C 0.23542 0.77215 0.75592
 C166 C 0.26482 0.74406 0.72760
 C167 C 0.29981 0.71021 0.69435
 N168 N 0.29261 0.65940 0.64798
 N169 N 0.32515 0.62727 0.61783
 C170 C 0.36597 0.64489 0.63310
 N171 N 0.37304 0.69589 0.67950
 N172 N 0.34050 0.72800 0.70964
 N173 N 0.20774 0.14820 0.84195
 C174 C 0.20055 0.19590 0.79191
 N175 N 0.15983 0.21214 0.77471
 N176 N 0.12728 0.18168 0.80662
 C177 C 0.13435 0.13395 0.85684
 N178 N 0.17519 0.11773 0.87388
 C179 C 0.23561 0.22940 0.75812
 C180 C 0.26501 0.25787 0.72999
 C181 C 0.30001 0.29211 0.69683
 N182 N 0.29274 0.34301 0.65017
 N183 N 0.32523 0.37527 0.61992
 C184 C 0.36610 0.35772 0.63534
 N185 N 0.37326 0.30665 0.68206
 N186 N 0.34076 0.27441 0.71229
 N187 N 0.84073 0.77523 0.78644
 C188 C 0.80006 0.79219 0.80293
 N189 N 0.79304 0.84181 0.85069
 N190 N 0.82569 0.87354 0.88102
 C191 C 0.86648 0.85674 0.86458
 N192 N 0.87339 0.80695 0.81676
 C193 C 0.76488 0.75853 0.76971
 C194 C 0.73532 0.73051 0.74155
 C195 C 0.70012 0.69746 0.70773
 N196 N 0.65946 0.71378 0.72490
 N197 N 0.62679 0.68360 0.69303
 C198 C 0.63368 0.63608 0.64289
 N199 N 0.67446 0.61981 0.62588
 N200 N 0.70712 0.65000 0.65776
 N201 N 0.20564 0.85124 0.15480
 C202 C 0.19884 0.80332 0.20465
 N203 N 0.15825 0.78688 0.22197
 N204 N 0.12545 0.81738 0.19036
 C205 C 0.13205 0.86544 0.14021
 N206 N 0.17287 0.88175 0.12317
 C207 C 0.23419 0.77002 0.23829
 C208 C 0.26387 0.74184 0.26633
 C209 C 0.29919 0.70801 0.29953
 N210 N 0.29231 0.65839 0.34765
 N211 N 0.32505 0.62660 0.37808
 C212 C 0.36580 0.64333 0.36141
 N213 N 0.37257 0.69311 0.31322
 N214 N 0.33981 0.72489 0.28279
 N215 N 0.84112 0.22539 0.21361
 C216 C 0.80043 0.20854 0.19716
 N217 N 0.79333 0.15864 0.14973
 N218 N 0.82594 0.12651 0.11971
 C219 C 0.86675 0.14318 0.13612
 N220 N 0.87373 0.19327 0.18359
 C221 C 0.76529 0.24254 0.23015
 C222 C 0.73575 0.27076 0.25814
 C223 C 0.70058 0.30400 0.29182
 N224 N 0.65991 0.28756 0.27481
 N225 N 0.62726 0.31783 0.30663
 C226 C 0.63418 0.36555 0.35655
 N227 N 0.67497 0.38195 0.37339
 N228 N 0.70761 0.35167 0.34157
   
