data_POSCAR
  _audit_creation_date              2014-09-24
  _audit_creation_method            'ToBaCCo'
  _symmetry_space_group_name_H-M    'P1'
  _symmetry_Int_Tables_number       1
  _symmetry_cell_setting            triclinic
  loop_
  _symmetry_equiv_pos_as_xyz
 x,y,z
_cell_length_a 54.5002
_cell_length_b 53.7230
_cell_length_c 50.1453
_cell_angle_alpha 89.555100
_cell_angle_beta 89.401500
_cell_angle_gamma 89.563700
loop_
  _atom_site_label
  _atom_site_type_symbol
  _atom_site_fract_x
  _atom_site_fract_y
  _atom_site_fract_z
N1 N 0.61962 0.63317 0.62558
 N2 N 0.87852 0.36818 0.12609
 N3 N 0.38396 0.12865 -0.12601
 N4 N 0.11389 0.87169 0.37892
 N5 N 0.09595 0.16396 0.11077
 N6 N 0.08183 0.14902 0.12494
 C7 C 0.06051 0.16078 0.13054
 C8 C 0.06142 0.18435 0.11936
 C9 C 0.08415 0.18579 0.10700
 H10 H 0.04555 0.15288 0.14205
 H11 H 0.09140 0.20144 0.09583
 Cu12 Cu 0.09260 0.11584 0.13541
 Cu13 Cu 0.12799 0.15353 0.09716
 Cu14 Cu 0.15090 0.09823 0.12236
 N15 N 0.10790 0.08798 0.15400
 N16 N 0.13084 0.08156 0.14921
 C17 C 0.13709 0.06257 0.16547
 C18 C 0.11696 0.05672 0.18120
 C19 C 0.09869 0.07315 0.17340
 H20 H 0.15498 0.05375 0.16596
 H21 H 0.08031 0.07456 0.18161
 N22 N 0.16830 0.11795 0.09504
 N23 N 0.15988 0.13941 0.08580
 C24 C 0.17561 0.14810 0.06706
 C25 C 0.19465 0.13114 0.06433
 C26 C 0.18945 0.11229 0.08232
 H27 H 0.17302 0.16502 0.05558
 H28 H 0.20010 0.09549 0.08550
 H29 H 0.12349 0.11546 0.09998
 H30 H 0.13381 0.13197 0.13071
 N31 N 0.40234 0.83744 0.60922
 N32 N 0.41648 0.85243 0.62274
 C33 C 0.43780 0.84068 0.62809
 C34 C 0.43687 0.81706 0.61745
 C35 C 0.41413 0.81559 0.60565
 H36 H 0.45276 0.84862 0.63910
 H37 H 0.40685 0.79989 0.59500
 Cu38 Cu 0.40572 0.88564 0.63282
 Cu39 Cu 0.37029 0.84784 0.59618
 Cu40 Cu 0.34739 0.90318 0.62089
 N41 N 0.39044 0.91353 0.65126
 N42 N 0.36749 0.91993 0.64691
 C43 C 0.36125 0.93893 0.66298
 C44 C 0.38139 0.94481 0.67812
 C45 C 0.39966 0.92838 0.67018
 H46 H 0.34335 0.94773 0.66376
 H47 H 0.41805 0.92698 0.67799
 N48 N 0.32994 0.88339 0.59439
 N49 N 0.33837 0.86193 0.58533
 C50 C 0.32260 0.85319 0.56717
 C51 C 0.30352 0.87010 0.56464
 C52 C 0.30874 0.88899 0.58214
 H53 H 0.32518 0.83624 0.55595
 H54 H 0.29806 0.90577 0.58531
 H55 H 0.37475 0.88592 0.59816
 H56 H 0.36450 0.86948 0.62947
 N57 N 0.90242 0.66380 0.38247
 N58 N 0.91809 0.64900 0.37013
 C59 C 0.93936 0.66111 0.36619
 C60 C 0.93677 0.68481 0.37643
 C61 C 0.91308 0.68595 0.38651
 H62 H 0.95542 0.65341 0.35633
 H63 H 0.90433 0.70161 0.39628
 Cu64 Cu 0.90885 0.61578 0.35921
 Cu65 Cu 0.86945 0.65313 0.39239
 Cu66 Cu 0.85941 0.58977 0.38744
 N67 N 0.89462 0.58567 0.34483
 N68 N 0.87501 0.57567 0.35584
 C69 C 0.86874 0.55537 0.34202
 C70 C 0.88535 0.55252 0.32124
 C71 C 0.90161 0.57200 0.32363
 H72 H 0.85321 0.54364 0.34669
 H73 H 0.91707 0.57614 0.31068
 N74 N 0.83894 0.61168 0.40961
 N75 N 0.84199 0.63600 0.41063
 C76 C 0.82491 0.64577 0.42722
 C77 C 0.81057 0.62658 0.43707
 C78 C 0.81995 0.60526 0.42549
 H79 H 0.82348 0.66524 0.43238
 H80 H 0.81349 0.58644 0.42847
 H81 H 0.88317 0.61848 0.39932
 H82 H 0.86512 0.62217 0.36807
 N83 N 0.59739 0.33367 -0.11472
 N84 N 0.58460 0.34723 -0.13163
 C85 C 0.56408 0.33485 -0.13798
 C86 C 0.56418 0.31235 -0.12445
 C87 C 0.58556 0.31216 -0.10992
 H88 H 0.55017 0.34154 -0.15154
 H89 H 0.59183 0.29762 -0.09654
 Cu90 Cu 0.59649 0.37928 -0.14439
 Cu91 Cu 0.62772 0.34541 -0.09906
 Cu92 Cu 0.64847 0.40314 -0.12035
 N93 N 0.60882 0.41131 -0.15681
 N94 N 0.62944 0.42024 -0.14760
 C95 C 0.63476 0.44157 -0.16055
 C96 C 0.61648 0.44631 -0.17879
 C97 C 0.60024 0.42681 -0.17589
 H98 H 0.65099 0.45258 -0.15736
 H99 H 0.58392 0.42378 -0.18746
 N100 N 0.66526 0.38304 -0.09300
 N101 N 0.65784 0.36071 -0.08542
 C102 C 0.67311 0.35186 -0.06655
 C103 C 0.69078 0.36958 -0.06196
 C104 C 0.68528 0.38906 -0.07900
 H105 H 0.67117 0.33419 -0.05631
 H106 H 0.69507 0.40643 -0.08082
 H107 H 0.61995 0.38283 -0.10350
 H108 H 0.63793 0.36767 -0.13090
 C109 C -0.06720 0.31360 0.12398
 N110 N -0.06125 0.33806 0.12242
 N111 N -0.07866 0.35558 0.12314
 C112 C -0.10269 0.34929 0.12527
 N113 N -0.10865 0.32481 0.12674
 N114 N -0.09122 0.30729 0.12618
 C115 C -0.04799 0.29430 0.12333
 N116 N -0.05353 0.27015 0.12861
 N117 N -0.03607 0.25265 0.12813
 C118 C -0.01247 0.25865 0.12220
 N119 N -0.00695 0.28279 0.11684
 N120 N -0.02438 0.30030 0.11748
 C121 C 0.00675 0.23935 0.12154
 N122 N 0.02955 0.24464 0.11202
 N123 N 0.04695 0.22711 0.11129
 C124 C 0.04224 0.20369 0.12021
 N125 N 0.01947 0.19842 0.12982
 N126 N 0.00202 0.21591 0.13040
 C127 C 0.56535 0.68771 0.62269
 N128 N 0.55938 0.66323 0.62236
 N129 N 0.57679 0.64571 0.62330
 C130 C 0.60083 0.65204 0.62442
 N131 N 0.60681 0.67652 0.62466
 N132 N 0.58938 0.69404 0.62389
 C133 C 0.54616 0.70702 0.62187
 N134 N 0.55175 0.73124 0.62614
 N135 N 0.53431 0.74875 0.62554
 C136 C 0.51068 0.74270 0.62048
 N137 N 0.50510 0.71849 0.61613
 N138 N 0.52251 0.70096 0.61690
 C139 C 0.49148 0.76201 0.61974
 N140 N 0.46865 0.75666 0.61095
 N141 N 0.45127 0.77421 0.61017
 C142 C 0.45603 0.79771 0.61831
 N143 N 0.47883 0.80304 0.62718
 N144 N 0.49626 0.78553 0.62781
 C145 C 1.06114 0.81637 0.37797
 N146 N 1.05444 0.84075 0.37855
 N147 N 1.07137 0.85851 0.37877
 C148 C 1.09563 0.85254 0.37857
 N149 N 1.10231 0.82814 0.37808
 N150 N 1.08539 0.81039 0.37770
 C151 C 1.04251 0.79679 0.37766
 N152 N 1.04910 0.77269 0.37356
 N153 N 1.03220 0.75490 0.37323
 C154 C 1.00812 0.76054 0.37715
 N155 N 1.00153 0.78464 0.38132
 N156 N 1.01841 0.80245 0.38149
 C157 C 0.98953 0.74090 0.37690
 N158 N 0.96598 0.74586 0.38432
 N159 N 0.94917 0.72798 0.38423
 C160 C 0.95527 0.70454 0.37656
 N161 N 0.97880 0.69960 0.36906
 N162 N 0.99564 0.71744 0.36930
 C163 C 0.43771 0.18290 -0.12683
 N164 N 0.41370 0.18924 -0.12959
 N165 N 0.39643 0.17182 -0.12931
 C166 C 0.40256 0.14742 -0.12644
 N167 N 0.42658 0.14106 -0.12380
 N168 N 0.44383 0.15850 -0.12390
 C169 C 0.45670 0.20214 -0.12684
 N170 N 0.48002 0.19645 -0.11960
 N171 N 0.49719 0.21396 -0.11934
 C172 C 0.49170 0.23777 -0.12648
 N173 N 0.46840 0.24344 -0.13383
 N174 N 0.45119 0.22596 -0.13391
 C175 C 0.51060 0.25710 -0.12611
 N176 N 0.50628 0.27985 -0.13715
 N177 N 0.52340 0.29741 -0.13675
 C178 C 0.54540 0.29291 -0.12513
 N179 N 0.54970 0.27019 -0.11403
 N180 N 0.53264 0.25257 -0.11459
 C181 C 0.11279 -0.07189 0.32167
 N182 N 0.13387 -0.07810 0.33432
 N183 N 0.13408 -0.09595 0.35288
 C184 C 0.11324 -0.10835 0.35952
 N185 N 0.09215 -0.10221 0.34669
 N186 N 0.09191 -0.08423 0.32821
 C187 C 0.11288 -0.05245 0.30092
 N188 N 0.09160 -0.04366 0.29044
 N189 N 0.09192 -0.02610 0.27150
 C190 C 0.11355 -0.01685 0.26224
 N191 N 0.13479 -0.02570 0.27270
 N192 N 0.13446 -0.04311 0.29173
 C193 C 0.11417 0.00225 0.24116
 N194 N 0.13581 0.00851 0.22938
 N195 N 0.13661 0.02578 0.21022
 C196 C 0.11581 0.03757 0.20223
 N197 N 0.09414 0.03139 0.21404
 N198 N 0.09332 0.01397 0.23311
 C199 C 0.61671 0.57880 -0.31505
 N200 N 0.63857 0.58737 -0.32432
 N201 N 0.63943 0.60467 -0.34345
 C202 C 0.61848 0.61416 -0.35402
 N203 N 0.59658 0.60574 -0.34453
 N204 N 0.59571 0.58829 -0.32550
 C205 C 0.61599 0.55956 -0.29410
 N206 N 0.59474 0.54781 -0.28763
 N207 N 0.59437 0.53007 -0.26889
 C208 C 0.61520 0.52359 -0.25582
 N209 N 0.63638 0.53545 -0.26221
 N210 N 0.63679 0.55305 -0.28105
 C211 C 0.61508 0.50388 -0.23537
 N212 N 0.63513 0.49995 -0.22003
 N213 N 0.63540 0.48180 -0.20181
 C214 C 0.61569 0.46678 -0.19836
 N215 N 0.59560 0.47069 -0.21369
 N216 N 0.59527 0.48898 -0.23182
 C217 C 0.38525 1.07283 0.81701
 N218 N 0.36410 1.07901 0.82991
 N219 N 0.36381 1.09667 0.84838
 C220 C 0.38466 1.10891 0.85468
 N221 N 0.40582 1.10282 0.84160
 N222 N 0.40614 1.08502 0.82321
 C223 C 0.38524 1.05356 0.79640
 N224 N 0.40656 1.04475 0.78569
 N225 N 0.40629 1.02731 0.76691
 C226 C 0.38469 1.01819 0.75808
 N227 N 0.36341 1.02706 0.76877
 N228 N 0.36368 1.04435 0.78762
 C229 C 0.38411 0.99917 0.73723
 N230 N 0.36250 0.99299 0.72594
 N231 N 0.36173 0.97576 0.70704
 C232 C 0.38253 0.96394 0.69883
 N233 N 0.40418 0.97005 0.71014
 N234 N 0.40497 0.98743 0.72896
 C235 C 0.88170 0.42382 0.18308
 N236 N 0.85980 0.41578 0.17399
 N237 N 0.85885 0.39816 0.15552
 C238 C 0.87976 0.38779 0.14548
 N239 N 0.90168 0.39573 0.15474
 N240 N 0.90264 0.41351 0.17309
 C241 C 0.88257 0.44311 0.20362
 N242 N 0.90400 0.45445 0.20956
 N243 N 0.90465 0.47196 0.22823
 C244 C 0.88393 0.47859 0.24177
 N245 N 0.86255 0.46718 0.23588
 N246 N 0.86187 0.44984 0.21708
 C247 C 0.88452 0.49773 0.26249
 N248 N 0.86501 0.50099 0.27917
 N249 N 0.86538 0.51834 0.29798
 C250 C 0.88520 0.53321 0.30066
 N251 N 0.90471 0.53003 0.28394
 N252 N 0.90441 0.51252 0.26525
 C253 C 0.32855 0.13125 -0.06848
 N254 N 0.33897 0.15257 -0.07767
 N255 N 0.35675 0.15180 -0.09612
 C256 C 0.36457 0.12970 -0.10629
 N257 N 0.35414 0.10842 -0.09698
 N258 N 0.33651 0.10917 -0.07842
 C259 C 0.30900 0.13186 -0.04812
 N260 N 0.30164 0.11047 -0.03599
 N261 N 0.28381 0.11079 -0.01765
 C262 C 0.27254 0.13248 -0.01087
 N263 N 0.27985 0.15390 -0.02303
 N264 N 0.29783 0.15360 -0.04126
 C265 C 0.25261 0.13254 0.00906
 N266 N 0.23825 0.15303 0.01273
 N267 N 0.21981 0.15268 0.03042
 C268 C 0.21521 0.13190 0.04518
 N269 N 0.22969 0.11151 0.04162
 N270 N 0.24799 0.11180 0.02383
 C271 C 0.67674 0.63313 0.56988
 N272 N 0.67128 0.61229 0.58412
 N273 N 0.65316 0.61245 0.60213
 C274 C 0.63975 0.63344 0.60665
 N275 N 0.64512 0.65426 0.59220
 N276 N 0.66334 0.65415 0.57425
 C277 C 0.69663 0.63267 0.54991
 N278 N 0.70417 0.65388 0.53750
 N279 N 0.72227 0.65323 0.51941
 C280 C 0.73337 0.63133 0.51300
 N281 N 0.72577 0.61015 0.52537
 N282 N 0.70779 0.61082 0.54352
 C283 C 0.75327 0.63035 0.49305
 N284 N 0.76221 0.60805 0.48472
 N285 N 0.78035 0.60693 0.46678
 C286 C 0.79032 0.62807 0.45657
 N287 N 0.78142 0.65041 0.46489
 N288 N 0.76316 0.65153 0.48277
 C289 C 0.82178 0.36694 0.07135
 N290 N 0.82852 0.38856 0.08290
 N291 N 0.84648 0.38884 0.10068
 C292 C 0.85848 0.36752 0.10759
 N293 N 0.85181 0.34590 0.09586
 N294 N 0.83371 0.34559 0.07819
 C295 C 0.80217 0.36688 0.05149
 N296 N 0.79257 0.34518 0.04279
 N297 N 0.77480 0.34532 0.02471
 C298 C 0.76615 0.36715 0.01454
 N299 N 0.77583 0.38880 0.02319
 N300 N 0.79344 0.38868 0.04139
 C301 C 0.74670 0.36751 -0.00550
 N302 N 0.74111 0.38894 -0.01866
 N303 N 0.72342 0.38949 -0.03677
 C304 C 0.71054 0.36867 -0.04227
 N305 N 0.71608 0.34721 -0.02908
 N306 N 0.73391 0.34661 -0.01108
 C307 C 0.16908 0.86938 0.43552
 N308 N 0.16053 0.89145 0.42596
 N309 N 0.14294 0.89211 0.40774
 C310 C 0.13314 0.87074 0.39841
 N311 N 0.14155 0.84865 0.40821
 N312 N 0.15929 0.84797 0.42632
 C313 C 0.18866 0.86886 0.45542
 N314 N 0.20026 0.84724 0.46197
 N315 N 0.21831 0.84702 0.47973
 C316 C 0.22526 0.86840 0.49169
 N317 N 0.21355 0.88997 0.48523
 N318 N 0.19565 0.89021 0.46737
 C319 C 0.24528 0.86844 0.51106
 N320 N 0.24977 0.88914 0.52550
 N321 N 0.26817 0.88951 0.54275
 C322 C 0.28286 0.86925 0.54609
 N323 N 0.27840 0.84851 0.53166
 N324 N 0.25987 0.84808 0.51451
   
