data_POSCAR
  _audit_creation_date              2014-09-24
  _audit_creation_method            'ToBaCCo'
  _symmetry_space_group_name_H-M    'P1'
  _symmetry_Int_Tables_number       1
  _symmetry_cell_setting            triclinic
  loop_
  _symmetry_equiv_pos_as_xyz
 x,y,z
_cell_length_a 47.8937
_cell_length_b 33.1343
_cell_length_c 21.3999
_cell_angle_alpha 90.048300
_cell_angle_beta 89.890800
_cell_angle_gamma 90.045400
loop_
  _atom_site_label
  _atom_site_type_symbol
  _atom_site_fract_x
  _atom_site_fract_y
  _atom_site_fract_z
O1 O 0.71437 0.24186 0.44060
 O2 O 0.76108 0.20127 0.56177
 O3 O 0.71436 0.24205 0.56185
 O4 O 0.76107 0.20110 0.44052
 O5 O 0.78496 0.25825 0.44031
 O6 O 0.73826 0.29918 0.56162
 O7 O 0.78498 0.25841 0.56155
 O8 O 0.73827 0.29900 0.44038
 Cu9 Cu 0.73531 0.21580 0.50122
 Cu10 Cu 0.76403 0.28447 0.50096
 C11 C 0.71828 0.27742 0.42047
 C12 C 0.78109 0.22283 0.58163
 C13 C 0.71824 0.27769 0.58173
 C14 C 0.78106 0.22263 0.42039
 O15 O 0.23821 0.79913 0.56162
 O16 O 0.28506 0.75803 0.44064
 O17 O 0.23844 0.79896 0.44038
 O18 O 0.28486 0.75820 0.56189
 O19 O 0.26087 0.70114 0.56190
 O20 O 0.21445 0.74190 0.44038
 O21 O 0.26107 0.70097 0.44065
 O22 O 0.21422 0.74208 0.56164
 Cu23 Cu 0.26407 0.78433 0.50114
 Cu24 Cu 0.23523 0.71577 0.50116
 C25 C 0.21813 0.77771 0.58158
 C26 C 0.28113 0.72242 0.42066
 C27 C 0.21845 0.77745 0.42032
 C28 C 0.28088 0.72264 0.58192
 O29 O 0.28454 0.24176 -0.44012
 O30 O 0.23771 0.20083 -0.56097
 O31 O 0.28442 0.24168 -0.56137
 O32 O 0.23782 0.20093 -0.43972
 O33 O 0.21394 0.25802 -0.43952
 O34 O 0.26054 0.29878 -0.56118
 O35 O 0.21383 0.25792 -0.56079
 O36 O 0.26066 0.29886 -0.43993
 Cu37 Cu 0.26353 0.21554 -0.50056
 Cu38 Cu 0.23483 0.28415 -0.50034
 C39 C 0.28067 0.27736 -0.42009
 C40 C 0.21769 0.22231 -0.58084
 C41 C 0.28052 0.27726 -0.58134
 C42 C 0.21784 0.22244 -0.41953
 O43 O -0.23872 0.79867 -0.55926
 O44 O -0.28559 0.75759 -0.43832
 O45 O -0.23894 0.79859 -0.43802
 O46 O -0.28537 0.75769 -0.55958
 O47 O -0.26140 0.70066 -0.55964
 O48 O -0.21497 0.74157 -0.43808
 O49 O -0.26163 0.70057 -0.43838
 O50 O -0.21476 0.74165 -0.55932
 Cu51 Cu -0.26458 0.78389 -0.49878
 Cu52 Cu -0.23577 0.71536 -0.49885
 C53 C -0.21866 0.77724 -0.57925
 C54 C -0.28170 0.72199 -0.41840
 C55 C -0.21894 0.77714 -0.41802
 C56 C -0.28139 0.72213 -0.57968
 N57 N -0.02904 0.95696 0.11056
 N58 N -0.04899 0.95044 0.15193
 N59 N 0.02968 0.92876 0.06715
 N60 N 0.04968 0.90223 0.07780
 N61 N 0.02965 0.95697 0.11031
 N62 N 0.04960 0.95047 0.15149
 N63 N -0.02908 0.92874 0.06741
 N64 N -0.04911 0.90219 0.07826
 C65 C -0.06140 0.91645 0.13079
 C66 C 0.06198 0.91650 0.13021
 N67 N 0.02967 0.95694 -0.11077
 N68 N 0.04962 0.95042 -0.15214
 N69 N -0.02907 0.92875 -0.06738
 N70 N -0.04916 0.90228 -0.07794
 N71 N -0.02902 0.95694 -0.11050
 N72 N -0.04905 0.95049 -0.15156
 N73 N 0.02969 0.92874 -0.06766
 N74 N 0.04970 0.90220 -0.07855
 Mn75 Mn 0.00030 0.92827 -0.00013
 C76 C 0.06200 0.91644 -0.13105
 C77 C -0.06149 0.91656 -0.13026
 N78 N 0.02969 1.04386 0.11042
 N79 N 0.04962 1.05041 0.15171
 N80 N -0.02901 1.07205 0.06753
 N81 N -0.04908 1.09850 0.07825
 N82 N -0.02899 1.04385 0.11062
 N83 N -0.04902 1.05027 0.15184
 N84 N 0.02975 1.07207 0.06734
 N85 N 0.04975 1.09865 0.07816
 Mn86 Mn 0.00033 1.00041 0.11110
 C87 C 0.06202 1.08441 0.13058
 C88 C -0.06143 1.08420 0.13066
 N89 N -0.02898 1.04384 -0.11042
 N90 N -0.04897 1.05031 -0.15154
 N91 N 0.02976 1.07205 -0.06749
 N92 N 0.04979 1.09859 -0.07829
 N93 N 0.02970 1.04384 -0.11066
 N94 N 0.04967 1.05035 -0.15199
 N95 N -0.02900 1.07205 -0.06726
 N96 N -0.04904 1.09855 -0.07785
 Mn97 Mn 0.00034 1.00039 -0.11121
 Mn98 Mn 0.00038 1.07253 0.00003
 Cl99 Cl 0.00034 1.00040 -0.00005
 C100 C -0.06136 1.08428 -0.13024
 C101 C 0.06209 1.08432 -0.13080
 N102 N 0.52944 0.45635 -0.11146
 N103 N 0.54948 0.44991 -0.15266
 N104 N 0.47067 0.42815 -0.06836
 N105 N 0.45060 0.40166 -0.07912
 N106 N 0.47075 0.45638 -0.11141
 N107 N 0.45078 0.44995 -0.15262
 N108 N 0.52943 0.42813 -0.06839
 N109 N 0.54948 0.40164 -0.07913
 C110 C 0.56185 0.41595 -0.13150
 C111 C 0.43833 0.41598 -0.13148
 N112 N 0.47062 0.45625 0.10964
 N113 N 0.45056 0.44980 0.15078
 N114 N 0.52935 0.42802 0.06642
 N115 N 0.54932 0.40144 0.07717
 N116 N 0.52930 0.45621 0.10961
 N117 N 0.54920 0.44965 0.15090
 N118 N 0.47059 0.42807 0.06642
 N119 N 0.45048 0.40161 0.07699
 Mn120 Mn 0.50001 0.42762 -0.00098
 C121 C 0.43812 0.41589 0.12942
 C122 C 0.56158 0.41566 0.12967
 N123 N 0.47083 0.54328 -0.11113
 N124 N 0.45080 0.54973 -0.15216
 N125 N 0.52955 0.57143 -0.06801
 N126 N 0.54960 0.59796 -0.07873
 N127 N 0.52951 0.54325 -0.11123
 N128 N 0.54951 0.54977 -0.15250
 N129 N 0.47079 0.57145 -0.06790
 N130 N 0.45071 0.59790 -0.07835
 Mn131 Mn 0.50013 0.49982 -0.11193
 C132 C 0.43838 0.58364 -0.13073
 C133 C 0.56192 0.58372 -0.13123
 N134 N 0.52937 0.54309 0.10985
 N135 N 0.54935 0.54951 0.15105
 N136 N 0.47070 0.57137 0.06690
 N137 N 0.45070 0.59792 0.07780
 N138 N 0.47069 0.54312 0.10993
 N139 N 0.45071 0.54961 0.15126
 N140 N 0.52947 0.57132 0.06680
 N141 N 0.54953 0.59780 0.07756
 Mn142 Mn 0.50000 0.49967 0.11037
 Mn143 Mn 0.50013 0.57187 -0.00055
 Cl144 Cl 0.50007 0.49974 -0.00078
 C145 C 0.56180 0.58346 0.12991
 C146 C 0.43836 0.58361 0.13022
 C147 C 0.33772 0.32734 0.29866
 C148 C 0.34117 0.30700 0.23459
 C149 C 0.36116 0.32452 0.19803
 C150 C 0.37569 0.36061 0.22923
 C151 C 0.38691 0.34419 0.29132
 C152 C 0.36698 0.32672 0.32777
 C153 C 0.33201 0.37193 0.28414
 C154 C 0.35197 0.38942 0.24764
 C155 C 0.31652 0.30876 0.33898
 C156 C 0.29972 0.29406 0.37426
 C157 C 0.39742 0.37970 0.19098
 C158 C 0.41577 0.39593 0.16170
 H159 H 0.32899 0.28119 0.21928
 H160 H 0.36611 0.31372 0.15141
 H161 H 0.40864 0.34608 0.30541
 H162 H 0.37164 0.31365 0.37307
 H163 H 0.31385 0.38830 0.30093
 H164 H 0.35091 0.42078 0.23317
 C165 C -0.16143 0.82755 0.30091
 C166 C -0.15807 0.80731 0.23675
 C167 C -0.13814 0.82489 0.20009
 C168 C -0.12358 0.86095 0.23128
 C169 C -0.11226 0.84446 0.29324
 C170 C -0.13213 0.82693 0.32979
 C171 C -0.16718 0.87216 0.28657
 C172 C -0.14728 0.88972 0.24997
 C173 C -0.18259 0.80891 0.34130
 C174 C -0.19940 0.79413 0.37652
 C175 C -0.10191 0.88012 0.19286
 C176 C -0.08364 0.89641 0.16337
 H177 H -0.17027 0.78152 0.22145
 H178 H -0.13327 0.81416 0.15339
 H179 H -0.09051 0.84637 0.30719
 H180 H -0.12740 0.81382 0.37503
 H181 H -0.18531 0.88851 0.30356
 H182 H -0.14837 0.92110 0.23563
 C183 C 0.66171 0.67200 0.29998
 C184 C 0.66749 0.67635 0.22969
 C185 C 0.64760 0.65883 0.19296
 C186 C 0.62395 0.63874 0.23024
 C187 C 0.61254 0.67207 0.27304
 C188 C 0.63238 0.68955 0.30968
 C189 C 0.65844 0.62647 0.31088
 C190 C 0.63860 0.60899 0.27424
 C191 C 0.68280 0.69058 0.34048
 C192 C 0.69951 0.70530 0.37585
 C193 C 0.60233 0.61965 0.19180
 C194 C 0.58406 0.60342 0.16237
 H195 H 0.68557 0.69178 0.21049
 H196 H 0.64864 0.65925 0.14228
 H197 H 0.59078 0.68121 0.27437
 H198 H 0.62760 0.71366 0.34239
 H199 H 0.67068 0.60941 0.34435
 H200 H 0.63385 0.57698 0.27635
 C201 C 0.16169 1.17314 0.30132
 C202 C 0.16987 1.13110 0.27733
 C203 C 0.15005 1.11361 0.24052
 C204 C 0.12400 1.13988 0.23132
 C205 C 0.13502 1.18011 0.20554
 C206 C 0.15486 1.19761 0.24239
 C207 C 0.13353 1.16707 0.33437
 C208 C 0.11375 1.14961 0.29762
 C209 C 0.18275 1.19170 0.34193
 C210 C 0.19949 1.20638 0.37733
 C211 C 0.10242 1.12078 0.19271
 C212 C 0.08421 1.10449 0.16315
 H213 H 0.18952 1.11639 0.28817
 H214 H 0.15273 1.08393 0.21984
 H215 H 0.12790 1.19361 0.16220
 H216 H 0.16475 1.22611 0.23061
 H217 H 0.12947 1.17577 0.38246
 H218 H 0.09276 1.14336 0.31426
 C219 C 0.66206 0.32707 -0.30088
 C220 C 0.66719 0.37214 -0.28874
 C221 C 0.64727 0.38971 -0.25226
 C222 C 0.62415 0.36051 -0.23148
 C223 C 0.63949 0.32560 -0.19920
 C224 C 0.65945 0.30800 -0.23574
 C225 C 0.63259 0.32484 -0.32870
 C226 C 0.61269 0.34240 -0.29227
 C227 C 0.68323 0.30842 -0.34118
 C228 C 0.70002 0.29367 -0.37645
 C229 C 0.60246 0.37968 -0.19323
 C230 C 0.58415 0.39597 -0.16390
 H231 H 0.68494 0.38876 -0.30708
 H232 H 0.64795 0.42139 -0.23935
 H233 H 0.63509 0.31563 -0.15189
 H234 H 0.67215 0.28295 -0.21974
 H235 H 0.62776 0.31066 -0.37315
 H236 H 0.59082 0.34324 -0.30551
 C237 C 0.16197 0.82727 -0.30101
 C238 C 0.15645 0.80459 -0.23965
 C239 C 0.13654 0.82225 -0.20305
 C240 C 0.12415 0.86082 -0.23147
 C241 C 0.11348 0.84813 -0.29613
 C242 C 0.13333 0.83051 -0.33264
 C243 C 0.16924 0.87055 -0.28118
 C244 C 0.14936 0.88819 -0.24462
 C245 C 0.18310 0.80855 -0.34139
 C246 C 0.19989 0.79374 -0.37665
 C247 C 0.10250 0.88006 -0.19309
 C248 C 0.08424 0.89640 -0.16363
 H249 H 0.16722 0.77715 -0.22614
 H250 H 0.13026 0.80995 -0.15816
 H251 H 0.09216 0.85255 -0.31188
 H252 H 0.12901 0.81986 -0.37964
 H253 H 0.18835 0.88595 -0.29456
 H254 H 0.15145 0.91870 -0.22669
 C255 C 0.33801 0.67242 -0.29867
 C256 C 0.33214 0.62788 -0.28391
 C257 C 0.35210 0.61031 -0.24771
 C258 C 0.37596 0.63901 -0.22981
 C259 C 0.36163 0.67522 -0.19846
 C260 C 0.34165 0.69282 -0.23472
 C261 C 0.36721 0.67282 -0.32829
 C262 C 0.38714 0.65528 -0.29214
 C263 C 0.31682 0.69106 -0.33871
 C264 C 0.30004 0.70581 -0.37381
 C265 C 0.39770 0.61984 -0.19187
 C266 C 0.41604 0.60357 -0.16282
 H267 H 0.31389 0.61160 -0.30032
 H268 H 0.35094 0.57898 -0.23312
 H269 H 0.36671 0.68604 -0.15195
 H270 H 0.32959 0.71871 -0.21928
 H271 H 0.37185 0.68580 -0.37371
 H272 H 0.40883 0.65324 -0.30661
 C273 C -0.16162 1.17285 -0.29894
 C274 C -0.16736 1.12825 -0.28441
 C275 C -0.14741 1.11077 -0.24807
 C276 C -0.12368 1.13960 -0.22980
 C277 C -0.13820 1.17566 -0.19848
 C278 C -0.15818 1.19317 -0.23487
 C279 C -0.13236 1.17351 -0.32826
 C280 C -0.11244 1.15606 -0.29196
 C281 C -0.18283 1.19141 -0.33909
 C282 C -0.19966 1.20608 -0.37419
 C283 C -0.10197 1.12050 -0.19169
 C284 C -0.08365 1.10425 -0.16249
 H285 H -0.18551 1.11185 -0.30108
 H286 H -0.14849 1.07940 -0.23363
 H287 H -0.13326 1.18646 -0.15188
 H288 H -0.17035 1.21896 -0.21946
 H289 H -0.12768 1.18661 -0.37358
 H290 H -0.09071 1.15421 -0.30621
 C291 C 0.66209 0.67259 -0.30096
 C292 C 0.66445 0.62645 -0.29755
 C293 C 0.64454 0.60891 -0.26101
 C294 C 0.62420 0.63920 -0.23142
 C295 C 0.61226 0.66317 -0.28657
 C296 C 0.63215 0.68070 -0.32308
 C297 C 0.66273 0.68690 -0.23269
 C298 C 0.64278 0.66932 -0.19608
 C299 C 0.68326 0.69123 -0.34134
 C300 C 0.70005 0.70598 -0.37662
 C301 C 0.60251 0.62004 -0.19307
 C302 C 0.58421 0.60375 -0.16368
 H303 H 0.68040 0.60908 -0.32163
 H304 H 0.64344 0.57651 -0.25380
 H305 H 0.59009 0.66616 -0.29606
 H306 H 0.62702 0.69870 -0.36384
 H307 H 0.67752 0.70884 -0.21472
 H308 H 0.64048 0.67620 -0.14673
 C309 C 0.16190 1.17324 -0.30135
 C310 C 0.17016 1.13128 -0.27734
 C311 C 0.15032 1.11372 -0.24057
 C312 C 0.12417 1.13985 -0.23142
 C313 C 0.11403 1.14944 -0.29773
 C314 C 0.13383 1.16697 -0.33444
 C315 C 0.15489 1.19775 -0.24244
 C316 C 0.13503 1.18017 -0.20562
 C317 C 0.18297 1.19186 -0.34197
 C318 C 0.19969 1.20655 -0.37748
 C319 C 0.10257 1.12068 -0.19287
 C320 C 0.08432 1.10437 -0.16336
 H321 H 0.18988 1.11669 -0.28814
 H322 H 0.15304 1.08408 -0.21987
 H323 H 0.09309 1.14305 -0.31440
 H324 H 0.12985 1.17559 -0.38254
 H325 H 0.16467 1.22632 -0.23066
 H326 H 0.12779 1.19367 -0.16229
 C327 C 0.33798 0.32751 -0.30061
 C328 C 0.33220 0.37205 -0.28563
 C329 C 0.35216 0.38953 -0.24923
 C330 C 0.37595 0.36077 -0.23135
 C331 C 0.38714 0.34454 -0.29372
 C332 C 0.36721 0.32708 -0.33008
 C333 C 0.34152 0.30704 -0.23675
 C334 C 0.36151 0.32454 -0.20029
 C335 C 0.31677 0.30893 -0.34082
 C336 C 0.29994 0.29421 -0.37594
 C337 C 0.39768 0.37984 -0.19315
 C338 C 0.41602 0.39606 -0.16386
 H339 H 0.31400 0.38839 -0.30205
 H340 H 0.35105 0.42085 -0.23448
 H341 H 0.40886 0.34653 -0.30806
 H342 H 0.37187 0.31413 -0.37554
 H343 H 0.32940 0.28114 -0.22151
 H344 H 0.36651 0.31365 -0.15382
 C345 C -0.16181 0.82755 -0.29855
 C346 C -0.16764 0.87211 -0.28385
 C347 C -0.14770 0.88974 -0.24760
 C348 C -0.12387 0.86108 -0.22959
 C349 C -0.11267 0.84472 -0.29187
 C350 C -0.13259 0.82712 -0.32808
 C351 C -0.15823 0.80725 -0.23457
 C352 C -0.13825 0.82490 -0.19827
 C353 C -0.18300 0.80884 -0.33862
 C354 C -0.19977 0.79403 -0.37375
 C355 C -0.10215 0.88030 -0.19158
 C356 C -0.08381 0.89660 -0.16245
 H357 H -0.18587 0.88836 -0.30034
 H358 H -0.14883 0.92109 -0.23306
 H359 H -0.09097 0.84675 -0.30628
 H360 H -0.12794 0.81408 -0.37348
 H361 H -0.17032 0.78137 -0.21915
 H362 H -0.13322 0.81415 -0.15173
 C363 C 0.33832 0.67222 0.30061
 C364 C 0.36755 0.67239 0.32987
 C365 C 0.38742 0.65492 0.29325
 C366 C 0.37618 0.63896 0.23084
 C367 C 0.36189 0.67535 0.20015
 C368 C 0.34196 0.69287 0.23687
 C369 C 0.33237 0.62777 0.28535
 C370 C 0.35227 0.61028 0.24868
 C371 C 0.31717 0.69080 0.34108
 C372 C 0.30037 0.70554 0.37637
 C373 C 0.39784 0.61986 0.19234
 C374 C 0.41611 0.60362 0.16282
 H375 H 0.37224 0.68515 0.37542
 H376 H 0.40912 0.65273 0.30743
 H377 H 0.36694 0.68636 0.15371
 H378 H 0.32995 0.71888 0.22191
 H379 H 0.31411 0.61147 0.30181
 H380 H 0.35105 0.57901 0.23374
 C381 C -0.16173 1.17257 0.30036
 C382 C -0.13241 1.17367 0.32911
 C383 C -0.11249 1.15624 0.29257
 C384 C -0.12379 1.13938 0.23079
 C385 C -0.13856 1.17514 0.19942
 C386 C -0.15853 1.19262 0.23606
 C387 C -0.16728 1.12784 0.28635
 C388 C -0.14734 1.11039 0.24977
 C389 C -0.18292 1.19111 0.34075
 C390 C -0.19972 1.20580 0.37603
 C391 C -0.10208 1.12033 0.19243
 C392 C -0.08375 1.10412 0.16306
 H393 H -0.12769 1.18701 0.37423
 H394 H -0.09072 1.15467 0.30641
 H395 H -0.13378 1.18575 0.15263
 H396 H -0.17087 1.21821 0.22066
 H397 H -0.18532 1.11135 0.30352
 H398 H -0.14830 1.07895 0.23562
 C399 C 0.66127 0.32721 0.30017
 C400 C 0.66772 0.37124 0.28312
 C401 C 0.64789 0.38865 0.24637
 C402 C 0.62356 0.36032 0.23026
 C403 C 0.61238 0.34568 0.29355
 C404 C 0.63217 0.32830 0.33025
 C405 C 0.65712 0.30563 0.23733
 C406 C 0.63727 0.32306 0.20052
 C407 C 0.68235 0.30874 0.34074
 C408 C 0.69909 0.29412 0.37610
 C409 C 0.60197 0.37935 0.19170
 C410 C 0.58376 0.39560 0.16218
 H411 H 0.68625 0.38731 0.29845
 H412 H 0.64944 0.41963 0.23023
 H413 H 0.59076 0.34866 0.30825
 H414 H 0.62751 0.31640 0.37637
 H415 H 0.66875 0.27907 0.22299
 H416 H 0.63188 0.31143 0.15466
 C417 C 0.16163 0.82759 0.30008
 C418 C 0.13293 0.83093 0.33167
 C419 C 0.11316 0.84846 0.29510
 C420 C 0.12396 0.86098 0.23041
 C421 C 0.13639 0.82234 0.20211
 C422 C 0.15622 0.80476 0.23879
 C423 C 0.16896 0.87082 0.28012
 C424 C 0.14915 0.88837 0.24348
 C425 C 0.18267 0.80897 0.34053
 C426 C 0.19935 0.79424 0.37588
 C427 C 0.10240 0.88015 0.19200
 C428 C 0.08418 0.89646 0.16261
 H429 H 0.12852 0.82040 0.37870
 H430 H 0.09182 0.85294 0.31081
 H431 H 0.13019 0.80993 0.15726
 H432 H 0.16702 0.77729 0.22537
 H433 H 0.18805 0.88624 0.29346
 H434 H 0.15128 0.91884 0.22545
   
