data_POSCAR
  _audit_creation_date              2014-09-24
  _audit_creation_method            'ToBaCCo'
  _symmetry_space_group_name_H-M    'P1'
  _symmetry_Int_Tables_number       1
  _symmetry_cell_setting            triclinic
  loop_
  _symmetry_equiv_pos_as_xyz
 x,y,z
_cell_length_a 31.5865
_cell_length_b 31.6104
_cell_length_c 20.8506
_cell_angle_alpha 89.936600
_cell_angle_beta 89.987600
_cell_angle_gamma 89.023800
loop_
  _atom_site_label
  _atom_site_type_symbol
  _atom_site_fract_x
  _atom_site_fract_y
  _atom_site_fract_z
C1 C -0.03694 0.27697 0.02972
 C2 C -0.03796 0.27884 -0.03904
 C3 C 0.00122 0.28113 -0.07205
 C4 C 0.04097 0.27833 -0.04094
 C5 C 0.04102 0.27622 0.02727
 C6 C 0.00263 0.27496 0.06050
 H7 H 0.00390 0.27380 0.11253
 H8 H 0.00085 0.28278 -0.12388
 C9 C 0.45779 0.78618 0.53709
 C10 C 0.45794 0.78640 0.46902
 C11 C 0.49685 0.78698 0.43652
 C12 C 0.53574 0.78655 0.46921
 C13 C 0.53560 0.78651 0.53731
 C14 C 0.49665 0.78670 0.56981
 H15 H 0.49665 0.78592 0.62183
 H16 H 0.49685 0.78645 0.38449
 C17 C 1.03748 0.71911 0.03740
 C18 C 1.03668 0.71737 -0.03093
 C19 C 0.99769 0.71702 -0.06326
 C20 C 0.95840 0.71858 -0.03104
 C21 C 0.95924 0.71827 0.03736
 C22 C 0.99824 0.71842 0.06969
 H23 H 0.99744 0.71897 0.12168
 H24 H 0.99851 0.71654 -0.11525
 C25 C 0.54220 0.21479 0.52844
 C26 C 0.54265 0.21572 0.46040
 C27 C 0.50393 0.21546 0.42730
 C28 C 0.46484 0.21538 0.45944
 C29 C 0.46451 0.21472 0.52753
 C30 C 0.50320 0.21408 0.56059
 H31 H 0.50293 0.21431 0.61264
 H32 H 0.50420 0.21650 0.37530
 C33 C 0.71907 -0.03802 0.04101
 C34 C 0.71652 -0.03811 -0.02742
 C35 C 0.71601 0.00037 -0.06087
 C36 C 0.71826 0.03936 -0.02953
 C37 C 0.72035 0.04023 0.03830
 C38 C 0.72017 0.00172 0.07212
 H39 H 0.72175 0.00313 0.12399
 H40 H 0.71520 -0.00009 -0.11293
 C41 C 0.21539 0.46121 0.53124
 C42 C 0.21525 0.46120 0.46314
 C43 C 0.21474 0.50005 0.43034
 C44 C 0.21491 0.53898 0.46277
 C45 C 0.21472 0.53893 0.53086
 C46 C 0.21466 0.50013 0.56364
 H47 H 0.21528 0.50026 0.61567
 H48 H 0.21541 0.49991 0.37832
 C49 C 0.28238 1.03990 0.03022
 C50 C 0.27816 1.03876 -0.03844
 C51 C 0.27416 0.99913 -0.06874
 C52 C 0.27591 0.96076 -0.03509
 C53 C 0.28168 0.96169 0.03209
 C54 C 0.28561 1.00076 0.06312
 H55 H 0.28853 1.00012 0.11492
 H56 H 0.27099 0.99781 -0.12050
 C57 C 0.78429 0.53889 0.54091
 C58 C 0.78491 0.53954 0.47285
 C59 C 0.78599 0.50109 0.43933
 C60 C 0.78581 0.46193 0.47099
 C61 C 0.78515 0.46110 0.53906
 C62 C 0.78492 0.49965 0.57260
 H63 H 0.78407 0.49910 0.62460
 H64 H 0.78562 0.50167 0.38729
 O65 O 0.21995 0.28045 0.16726
 O66 O 0.31855 0.25763 0.25597
 O67 O 0.27672 0.22063 0.16266
 O68 O 0.26035 0.31630 0.26064
 O69 O 0.22176 0.27951 0.32844
 O70 O 0.24532 0.18220 0.23682
 O71 O 0.28250 0.22222 0.32860
 O72 O 0.18546 0.23903 0.23408
 Cu73 Cu 0.27267 0.27244 0.20458
 Cu74 Cu 0.23010 0.22717 0.28934
 C75 C 0.18619 0.26251 0.18463
 C76 C 0.31716 0.23675 0.30798
 C77 C 0.26391 0.18521 0.18311
 C78 C 0.23776 0.31426 0.31085
 O79 O 0.68195 0.74366 0.26648
 O80 O 0.77989 0.72008 0.17667
 O81 O 0.73969 0.68477 0.27083
 O82 O 0.72314 0.78063 0.17289
 O83 O 0.75646 0.81841 0.24566
 O84 O 0.77866 0.72129 0.33835
 O85 O 0.81542 0.76050 0.24346
 O86 O 0.71855 0.77918 0.33821
 Cu87 Cu 0.72742 0.72866 0.21461
 Cu88 Cu 0.77095 0.77347 0.29862
 C89 C 0.68369 0.76471 0.31822
 C90 C 0.81415 0.73702 0.19412
 C91 C 0.76235 0.68669 0.32098
 C92 C 0.73686 0.81584 0.19273
 O93 O 0.82202 0.24502 0.23682
 O94 O 0.72563 0.22451 0.33015
 O95 O 0.76558 0.18648 0.23665
 O96 O 0.78356 0.28245 0.33187
 O97 O 0.74496 0.31998 0.26336
 O98 O 0.72768 0.22395 0.16720
 O99 O 0.68794 0.26226 0.26076
 O100 O 0.78453 0.28316 0.16768
 Cu101 Cu 0.77796 0.23088 0.29090
 Cu102 Cu 0.73257 0.27613 0.20763
 C103 C 0.81967 0.26735 0.18624
 C104 C 0.69039 0.24005 0.31142
 C105 C 0.74372 0.18886 0.18566
 C106 C 0.76706 0.31744 0.31413
 O107 O 0.27890 0.78187 0.17010
 O108 O 0.25725 0.68452 0.26061
 O109 O 0.21965 0.72574 0.16646
 O110 O 0.31494 0.74171 0.26501
 O111 O 0.27714 0.78106 0.33211
 O112 O 0.18093 0.75992 0.23857
 O113 O 0.22053 0.72174 0.33167
 O114 O 0.23792 0.81832 0.23666
 Cu115 Cu 0.27143 0.72968 0.20851
 Cu116 Cu 0.22536 0.77401 0.29180
 C117 C 0.26158 0.81653 0.18742
 C118 C 0.23582 0.68664 0.31207
 C119 C 0.18403 0.73988 0.18604
 C120 C 0.31226 0.76444 0.31508
 O121 O 0.77874 0.27715 0.66648
 O122 O 0.76186 0.18086 0.76261
 O123 O 0.72248 0.21741 0.66629
 O124 O 0.81941 0.23862 0.75779
 O125 O 0.78088 0.27187 0.83120
 O126 O 0.68524 0.25744 0.73318
 O127 O 0.72063 0.21748 0.82866
 O128 O 0.74305 0.31446 0.73862
 Cu129 Cu 0.77427 0.22467 0.70612
 Cu130 Cu 0.72873 0.26917 0.78990
 C131 C 0.76398 0.31231 0.68674
 C132 C 0.73820 0.18287 0.81190
 C133 C 0.68760 0.23449 0.68331
 C134 C 0.81639 0.25796 0.81086
 O135 O 0.31310 0.74060 0.73832
 O136 O 0.21634 0.71818 0.83001
 O137 O 0.25675 0.68227 0.73506
 O138 O 0.27260 0.77787 0.83259
 O139 O 0.23522 0.81559 0.76280
 O140 O 0.21739 0.71966 0.66736
 O141 O 0.17897 0.75771 0.76246
 O142 O 0.27525 0.77801 0.66873
 Cu143 Cu 0.26850 0.72600 0.79106
 Cu144 Cu 0.22299 0.77144 0.70813
 C145 C 0.31057 0.76272 0.68758
 C146 C 0.18132 0.73469 0.81229
 C147 C 0.23429 0.68475 0.68468
 C148 C 0.25640 0.81295 0.81441
 O149 O 0.18507 0.24021 0.75470
 O150 O 0.28253 0.21949 0.66167
 O151 O 0.24395 0.18144 0.75539
 O152 O 0.22398 0.27875 0.66242
 O153 O 0.25963 0.31514 0.73422
 O154 O 0.28284 0.21700 0.82420
 O155 O 0.31888 0.25757 0.73055
 O156 O 0.22251 0.27379 0.82759
 Cu157 Cu 0.23024 0.22631 0.70142
 Cu158 Cu 0.27458 0.26959 0.78626
 C159 C 0.18739 0.25990 0.80758
 C160 C 0.31712 0.23553 0.67978
 C161 C 0.26678 0.18260 0.80549
 C162 C 0.23843 0.31353 0.68255
 O163 O 0.73940 0.68392 0.74506
 O164 O 0.71591 0.78193 0.83498
 O165 O 0.68025 0.74164 0.74108
 O166 O 0.77610 0.72478 0.83924
 O167 O 0.81408 0.75778 0.76624
 O168 O 0.71695 0.78056 0.67360
 O169 O 0.75663 0.81718 0.76812
 O170 O 0.77493 0.72062 0.67334
 Cu171 Cu 0.72424 0.72933 0.79717
 Cu172 Cu 0.76926 0.77273 0.71315
 C173 C 0.76054 0.68575 0.69332
 C174 C 0.73316 0.81604 0.81751
 C175 C 0.68225 0.76432 0.69091
 C176 C 0.81142 0.73822 0.81925
 N177 N 0.26460 0.11464 0.04356
 C178 C 0.27871 0.07724 0.06837
 N179 N 0.28672 0.07580 0.13261
 N180 N 0.28203 0.11004 0.16934
 C181 C 0.26955 0.14748 0.14325
 N182 N 0.26072 0.14916 0.07976
 N183 N 0.75241 0.57694 0.63257
 C184 C 0.77868 0.57743 0.58092
 N185 N 0.80024 0.61324 0.56843
 N186 N 0.79472 0.64763 0.60451
 C187 C 0.76788 0.64730 0.65530
 N188 N 0.74705 0.61122 0.66902
 N189 N 0.73066 0.92750 0.14328
 C190 C 0.72267 0.92474 0.07922
 N191 N 0.71888 0.88547 0.05372
 N192 N 0.72261 0.85084 0.08986
 C193 C 0.73082 0.85398 0.15343
 N194 N 0.73494 0.89295 0.17951
 N195 N 0.19844 0.38703 0.55885
 C196 C 0.22085 0.42239 0.57076
 N197 N 0.24771 0.42227 0.62170
 N198 N 0.25285 0.38783 0.65796
 C199 C 0.23121 0.35217 0.64478
 N200 N 0.20377 0.35245 0.59472
 N201 N 0.89139 0.29990 0.05654
 C202 C 0.92711 0.27700 0.07024
 N203 N 0.92820 0.25451 0.12590
 N204 N 0.89433 0.25249 0.16363
 C205 C 0.85801 0.27340 0.14782
 N206 N 0.85732 0.29777 0.09415
 N207 N 0.41957 0.75329 0.62658
 C208 C 0.41900 0.78062 0.57621
 N209 N 0.38297 0.80331 0.56451
 N210 N 0.34845 0.79786 0.60011
 C211 C 0.34890 0.76997 0.64963
 N212 N 0.38520 0.74802 0.66253
 N213 N 0.07238 0.73076 0.13897
 C214 C 0.07496 0.72361 0.07464
 N215 N 0.11420 0.72173 0.04800
 N216 N 0.14895 0.72624 0.08337
 C217 C 0.14594 0.73350 0.14725
 N218 N 0.10699 0.73587 0.17441
 N219 N 0.58131 0.24980 0.61456
 C220 C 0.58055 0.21958 0.56833
 N221 N 0.61445 0.19294 0.56231
 N222 N 0.64858 0.19753 0.59904
 C223 C 0.64962 0.22836 0.64424
 N224 N 0.61522 0.25415 0.65176
 N225 N 0.75382 0.07755 0.88381
 C226 C 0.72322 0.07718 0.92960
 N227 N 0.69608 0.11078 0.93387
 N228 N 0.70063 0.14433 0.89594
 C229 C 0.73185 0.14505 0.85121
 N230 N 0.75814 0.11090 0.84541
 N231 N 0.24620 0.57739 0.37193
 C232 C 0.21979 0.57782 0.42341
 N233 N 0.19743 0.61385 0.43624
 N234 N 0.20228 0.64845 0.40062
 C235 C 0.22926 0.64813 0.34998
 N236 N 0.25090 0.61186 0.33597
 N237 N 0.29271 0.88542 0.94034
 C238 C 0.26997 0.92125 0.92745
 N239 N 0.24342 0.92133 0.87615
 N240 N 0.23926 0.88690 0.84011
 C241 C 0.26161 0.85098 0.85376
 N242 N 0.28840 0.85083 0.90461
 N243 N 0.80823 0.39013 0.43595
 C244 C 0.78126 0.42382 0.43052
 N245 N 0.75100 0.42314 0.38426
 N246 N 0.74689 0.38949 0.34652
 C247 C 0.77297 0.35527 0.35353
 N248 N 0.80385 0.35625 0.39872
 N249 N 0.07559 0.27084 0.85580
 C250 C 0.07830 0.27492 0.92075
 N251 N 0.11761 0.27422 0.94719
 N252 N 0.15228 0.27024 0.91121
 C253 C 0.14917 0.26597 0.84677
 N254 N 0.11016 0.26616 0.81965
 N255 N 0.57495 0.75481 0.37874
 C256 C 0.57469 0.78140 0.42992
 N257 N 0.61001 0.80383 0.44224
 N258 N 0.64468 0.79879 0.40645
 C259 C 0.64507 0.77162 0.35611
 N260 N 0.60946 0.74995 0.34259
 N261 N 0.92327 0.72834 0.86679
 C262 C 0.92082 0.72258 0.93146
 N263 N 0.88160 0.72170 0.95814
 N264 N 0.84677 0.72588 0.92250
 C265 C 0.84965 0.73179 0.85828
 N266 N 0.88856 0.73314 0.83106
 N267 N 0.39102 0.19746 0.43147
 C268 C 0.42608 0.22040 0.41976
 N269 N 0.42571 0.24736 0.36891
 N270 N 0.39126 0.25212 0.33259
 C271 C 0.35587 0.22996 0.34563
 N272 N 0.35643 0.20240 0.39556
 N273 N 0.68981 0.89340 0.93317
 C274 C 0.71997 0.92353 0.93235
 N275 N 0.75286 0.91925 0.89085
 N276 N 0.75645 0.88535 0.85336
 C277 C 0.72725 0.85444 0.85595
 N278 N 0.69373 0.85911 0.89629
 N279 N 0.19495 0.38879 0.43107
 C280 C 0.22071 0.42241 0.42393
 N281 N 0.25076 0.42090 0.37736
 N282 N 0.25578 0.38662 0.34089
 C283 C 0.23089 0.35253 0.34950
 N284 N 0.20022 0.35427 0.39507
 N285 N 0.30109 0.10937 0.93353
 C286 C 0.27769 0.07465 0.92089
 N287 N 0.25416 0.07454 0.86621
 N288 N 0.25172 0.10850 0.82854
 C289 C 0.27321 0.14389 0.84342
 N290 N 0.29854 0.14351 0.89602
 N291 N 0.74863 0.58040 0.38849
 C292 C 0.77921 0.57853 0.43422
 N293 N 0.80549 0.61181 0.44053
 N294 N 0.80021 0.64637 0.40454
 C295 C 0.76905 0.64846 0.35978
 N296 N 0.74361 0.61471 0.35200
 N297 N 0.07725 0.75351 0.88591
 C298 C 0.07456 0.72083 0.92790
 N299 N 0.10608 0.69103 0.92886
 N300 N 0.14013 0.69513 0.89168
 C301 C 0.14320 0.72848 0.85092
 N302 N 0.11093 0.75726 0.84813
 N303 N 0.58101 0.24864 0.37105
 C304 C 0.58162 0.22163 0.42181
 N305 N 0.61791 0.19961 0.43446
 N306 N 0.65256 0.20528 0.39924
 C307 C 0.65202 0.23280 0.34925
 N308 N 0.61552 0.25417 0.33551
 N309 N 0.88796 0.26036 0.94913
 C310 C 0.92476 0.27402 0.92324
 N311 N 0.92559 0.28074 0.85865
 N312 N 0.89124 0.27544 0.82264
 C313 C 0.85432 0.26359 0.84982
 N314 N 0.85332 0.25588 0.91364
 N315 N 0.38487 0.80662 0.43644
 C316 C 0.41943 0.78094 0.42951
 N317 N 0.41913 0.75104 0.38277
 N318 N 0.38516 0.74612 0.34588
 C319 C 0.35017 0.77099 0.35422
 N320 N 0.35068 0.80147 0.40000
 N321 N 0.24679 0.92297 0.11882
 C322 C 0.27743 0.92381 0.07315
 N323 N 0.30436 0.89010 0.06779
 N324 N 0.29958 0.85601 0.10459
 C325 C 0.26826 0.85480 0.14912
 N326 N 0.24224 0.88909 0.15608
 N327 N 0.75395 0.42196 0.62909
 C328 C 0.78012 0.42185 0.57734
 N329 N 0.80212 0.38578 0.56339
 N330 N 0.79720 0.35088 0.59829
 C331 C 0.77052 0.35094 0.64928
 N332 N 0.74920 0.38721 0.66433
 N333 N 0.75280 0.07920 0.12752
 C334 C 0.72650 0.07961 0.07594
 N335 N 0.70513 0.11604 0.06175
 N336 N 0.71057 0.15089 0.09650
 C337 C 0.73726 0.15048 0.14749
 N338 N 0.75813 0.11393 0.16255
 N339 N 0.25002 0.57855 0.61619
 C340 C 0.21962 0.57752 0.57017
 N341 N 0.19283 0.61130 0.56405
 N342 N 0.19742 0.64554 0.60048
 C343 C 0.22839 0.64681 0.64550
 N344 N 0.25435 0.61254 0.65312
 N345 N 0.91750 0.75533 0.11968
 C346 C 0.92122 0.72228 0.07842
 N347 N 0.89074 0.69248 0.07834
 N348 N 0.85665 0.69691 0.11561
 C349 C 0.85250 0.73059 0.15563
 N350 N 0.88378 0.75943 0.15757
 N351 N 0.39208 0.19393 0.55919
 C352 C 0.42556 0.21984 0.56659
 N353 N 0.42381 0.24963 0.61346
 N354 N 0.38945 0.25426 0.64998
 C355 C 0.35551 0.22920 0.64111
 N356 N 0.35749 0.19881 0.59523
 N357 N 0.08404 0.24033 0.10937
 C358 C 0.07945 0.27302 0.06754
 N359 N 0.10890 0.30384 0.06731
 N360 N 0.14290 0.30078 0.10500
 C361 C 0.14789 0.26751 0.14571
 N362 N 0.11766 0.23759 0.14768
 N363 N 0.57579 0.75102 0.62339
 C364 C 0.57433 0.78111 0.57683
 N365 N 0.60792 0.80696 0.57006
 N366 N 0.64234 0.80176 0.60640
 C367 C 0.64403 0.77108 0.65196
 N368 N 0.60997 0.74607 0.66020
   
