data_POSCAR
  _audit_creation_date              2014-09-24
  _audit_creation_method            'ToBaCCo'
  _symmetry_space_group_name_H-M    'P1'
  _symmetry_Int_Tables_number       1
  _symmetry_cell_setting            triclinic
  loop_
  _symmetry_equiv_pos_as_xyz
 x,y,z
_cell_length_a 34.8800
_cell_length_b 35.4615
_cell_length_c 12.9765
_cell_angle_alpha 89.901200
_cell_angle_beta 90.053000
_cell_angle_gamma 119.962700
loop_
  _atom_site_label
  _atom_site_type_symbol
  _atom_site_fract_x
  _atom_site_fract_y
  _atom_site_fract_z
O1 O 0.17985 0.41558 0.40638
 O2 O 0.25935 0.42654 0.60831
 O3 O 0.17930 0.41573 0.60933
 O4 O 0.25977 0.42597 0.40896
 O5 O 0.28838 0.49738 0.41013
 O6 O 0.20842 0.48710 0.60800
 O7 O 0.28825 0.49795 0.60606
 O8 O 0.20885 0.48695 0.40765
 Cu9 Cu 0.21639 0.41369 0.50836
 Cu10 Cu 0.25093 0.49941 0.50785
 C11 C 0.18074 0.44971 0.37329
 C12 C 0.28833 0.46429 0.63869
 C13 C 0.18012 0.44984 0.64240
 C14 C 0.28862 0.46372 0.37807
 O15 O 0.55729 -0.25124 0.39107
 O16 O 0.54815 -0.18263 0.59031
 O17 O 0.55809 -0.25100 0.59351
 O18 O 0.54912 -0.18205 0.39251
 O19 O 0.47636 -0.22391 0.39403
 O20 O 0.48556 -0.29383 0.59233
 O21 O 0.47541 -0.22480 0.59078
 O22 O 0.48473 -0.29394 0.39362
 Cu23 Cu 0.56049 -0.21279 0.49199
 Cu24 Cu 0.47324 -0.26356 0.49268
 C25 C 0.52256 -0.28478 0.35956
 C26 C 0.51014 -0.19109 0.62136
 C27 C 0.52355 -0.28458 0.62602
 C28 C 0.51107 -0.19036 0.36194
 O29 O 1.17728 0.73376 0.58110
 O30 O 1.26522 0.81781 0.41371
 O31 O 1.18377 0.75360 0.38451
 O32 O 1.24547 0.81182 0.61210
 O33 O 1.28295 0.77676 0.61109
 O34 O 1.21717 0.71462 0.38365
 O35 O 1.29917 0.77937 0.41659
 O36 O 1.21436 0.69828 0.57946
 Cu37 Cu 1.21492 0.78283 0.49788
 Cu38 Cu 1.25650 0.73876 0.49737
 C39 C 1.18120 0.70104 0.60703
 C40 C 1.29771 0.81259 0.38785
 C41 C 1.18838 0.72332 0.34685
 C42 C 1.27541 0.80569 0.64905
 O43 O 0.74211 0.57454 0.60756
 O44 O 0.82127 0.58395 0.40653
 O45 O 0.74197 0.57509 0.40820
 O46 O 0.82174 0.58434 0.60946
 O47 O 0.79167 0.51286 0.60935
 O48 O 0.71241 0.50357 0.41036
 O49 O 0.79137 0.51248 0.40906
 O50 O 0.71228 0.50301 0.60634
 Cu51 Cu 0.78505 0.58675 0.50793
 Cu52 Cu 0.74936 0.50090 0.50876
 C53 C 0.71274 0.53697 0.63832
 C54 C 0.81987 0.54951 0.37427
 C55 C 0.71275 0.53747 0.37765
 C56 C 0.82033 0.55002 0.64331
 O57 O 0.45022 0.18209 0.59356
 O58 O 0.44368 0.25171 0.39226
 O59 O 0.45033 0.18159 0.39527
 O60 O 0.44264 0.25169 0.59482
 O61 O 0.51544 0.29272 0.59577
 O62 O 0.52322 0.22234 0.39739
 O63 O 0.51646 0.29303 0.39549
 O64 O 0.52312 0.22239 0.59371
 Cu65 Cu 0.43938 0.21298 0.49390
 Cu66 Cu 0.52686 0.26204 0.49573
 C67 C 0.48786 0.18931 0.62482
 C68 C 0.47898 0.28450 0.36036
 C69 C 0.48821 0.18924 0.36508
 C70 C 0.47765 0.28428 0.62877
 O71 O 0.73420 0.18097 0.42502
 O72 O 0.82149 0.26599 0.59135
 O73 O 0.75370 0.18886 0.62225
 O74 O 0.81675 0.24519 0.39426
 O75 O 0.78340 0.28408 0.38634
 O76 O 0.71658 0.22424 0.61492
 O77 O 0.78544 0.30234 0.58188
 O78 O 0.70088 0.22008 0.42101
 Cu79 Cu 0.78475 0.21680 0.50780
 Cu80 Cu 0.74383 0.26133 0.49979
 C81 C 0.70183 0.18610 0.39746
 C82 C 0.81772 0.29906 0.61458
 C83 C 0.72362 0.19543 0.65596
 C84 C 0.81231 0.27498 0.35273
 N85 N 0.95015 0.54027 0.12604
 N86 N 0.91745 0.54781 0.14692
 N87 N 1.04429 0.56167 0.19417
 N88 N 1.08039 0.58058 0.25058
 N89 N 1.04387 0.58879 0.12572
 N90 N 1.08007 0.62750 0.13515
 N91 N 0.95139 0.51356 0.19418
 N92 N 0.91935 0.50152 0.26203
 C93 C 0.89848 0.52298 0.23174
 C94 C 1.10227 0.62152 0.21405
 N95 N 1.04911 0.45709 0.12508
 N96 N 1.08226 0.45008 0.14509
 N97 N 0.95466 0.43516 0.19240
 N98 N 0.91846 0.41591 0.24837
 N99 N 0.95538 0.40837 0.12361
 N100 N 0.91929 0.36951 0.13253
 N101 N 1.04753 0.48330 0.19393
 N102 N 1.07975 0.49552 0.26137
 Mn103 Mn 0.99945 0.49840 0.19420
 C104 C 1.10108 0.47469 0.23019
 C105 C 0.89685 0.37509 0.21139
 N106 N 1.04203 0.58961 -0.09708
 N107 N 1.06871 0.63096 -0.12044
 N108 N 0.95087 0.51368 -0.16698
 N109 N 0.91909 0.50199 -0.23549
 N110 N 0.94961 0.54041 -0.09866
 N111 N 0.91711 0.54827 -0.12080
 N112 N 1.04383 0.56404 -0.16767
 N113 N 1.07229 0.58744 -0.24041
 Mn114 Mn 0.99633 0.56528 0.01425
 C115 C 1.08781 0.62905 -0.20924
 C116 C 0.89829 0.52363 -0.20613
 N117 N 0.95781 0.40878 -0.09959
 N118 N 0.93183 0.36757 -0.12503
 N119 N 1.04883 0.48512 -0.16759
 N120 N 1.08060 0.49706 -0.23621
 N121 N 1.05013 0.45814 -0.09979
 N122 N 1.08260 0.45035 -0.12247
 N123 N 0.95580 0.43475 -0.16903
 N124 N 0.92766 0.41175 -0.24264
 Mn125 Mn 1.00320 0.43259 0.01259
 Mn126 Mn 0.99982 0.49939 -0.16862
 Cl127 Cl 0.99969 0.49891 0.01258
 C128 C 0.91273 0.36999 -0.21344
 C129 C 1.10142 0.47531 -0.20752
 N130 N 0.47612 0.41418 0.11099
 N131 N 0.47494 0.37728 0.13362
 N132 N 0.43462 0.46997 0.17936
 N133 N 0.40790 0.47481 0.24275
 N134 N 0.41191 0.43979 0.11062
 N135 N 0.36892 0.42276 0.12651
 N136 N 0.49900 0.44399 0.18043
 N137 N 0.51475 0.42851 0.25092
 C138 C 0.49972 0.38706 0.22043
 C139 C 0.36706 0.44526 0.20884
 N140 N 0.52670 0.58930 0.10949
 N141 N 0.52702 0.62596 0.12927
 N142 N 0.56769 0.53343 0.17957
 N143 N 0.59426 0.52824 0.24290
 N144 N 0.59056 0.56328 0.11011
 N145 N 0.63352 0.57980 0.12555
 N146 N 0.50332 0.55956 0.17875
 N147 N 0.48628 0.57482 0.24632
 Mn148 Mn 0.50115 0.50176 0.18056
 C149 C 0.50119 0.61610 0.21414
 C150 C 0.63517 0.55730 0.20835
 N151 N 0.41200 0.43953 -0.11159
 N152 N 0.36900 0.42235 -0.12599
 N153 N 0.49891 0.44377 -0.18243
 N154 N 0.51378 0.42806 -0.25432
 N155 N 0.47588 0.41380 -0.11320
 N156 N 0.47369 0.37655 -0.13774
 N157 N 0.43439 0.46966 -0.18087
 N158 N 0.40728 0.47445 -0.24320
 Mn159 Mn 0.44366 0.42630 -0.00075
 C160 C 0.36672 0.44477 -0.20784
 C161 C 0.49810 0.38628 -0.22531
 N162 N 0.59031 0.56342 -0.11234
 N163 N 0.63326 0.58027 -0.12694
 N164 N 0.50314 0.55955 -0.18222
 N165 N 0.48707 0.57506 -0.25200
 N166 N 0.52673 0.58952 -0.11369
 N167 N 0.52815 0.62658 -0.13652
 N168 N 0.56765 0.53351 -0.18170
 N169 N 0.59451 0.52849 -0.24416
 Mn170 Mn 0.55895 0.57688 -0.00156
 Mn171 Mn 0.50101 0.50164 -0.18288
 Cl172 Cl 0.50120 0.50161 -0.00125
 C173 C 0.63521 0.55784 -0.20895
 C174 C 0.50272 0.61675 -0.22235
 N175 N 0.40798 -0.05141 0.09840
 N176 N 0.36672 -0.07834 0.12599
 N177 N 0.47700 0.04240 0.16684
 N178 N 0.48662 0.07511 0.22992
 N179 N 0.44796 0.03905 0.09733
 N180 N 0.43652 0.06895 0.11255
 N181 N 0.43577 -0.04930 0.16975
 N182 N 0.41380 -0.07572 0.24693
 C183 C 0.37089 -0.09391 0.21742
 C184 C 0.46124 0.09143 0.19485
 N185 N 0.59098 0.05141 0.09634
 N186 N 0.63229 0.07935 0.12132
 N187 N 0.52225 -0.04257 0.16685
 N188 N 0.51245 -0.07558 0.22937
 N189 N 0.55116 -0.03914 0.09706
 N190 N 0.56235 -0.06929 0.11146
 N191 N 0.56356 0.04920 0.16860
 N192 N 0.58585 0.07633 0.24429
 Mn193 Mn 0.49965 -0.00007 0.16930
 C194 C 0.62859 0.09522 0.21260
 C195 C 0.53762 -0.09198 0.19359
 N196 N 0.44694 0.03788 -0.12468
 N197 N 0.43505 0.06743 -0.13935
 N198 N 0.43702 -0.05030 -0.19382
 N199 N 0.42011 -0.08482 -0.25371
 N200 N 0.40821 -0.05346 -0.12432
 N201 N 0.37034 -0.09038 -0.13644
 N202 N 0.47555 0.04119 -0.19465
 N203 N 0.48472 0.07380 -0.25793
 Mn204 Mn 0.42734 -0.00708 -0.01354
 C205 C 0.45928 0.08983 -0.22196
 C206 C 0.37860 -0.10948 -0.21765
 N207 N 0.55142 -0.03840 -0.12449
 N208 N 0.56255 -0.06858 -0.13726
 N209 N 0.56120 0.04968 -0.19505
 N210 N 0.57788 0.08437 -0.25465
 N211 N 0.59008 0.05295 -0.12557
 N212 N 0.62771 0.09012 -0.13715
 N213 N 0.52267 -0.04186 -0.19429
 N214 N 0.51270 -0.07514 -0.25571
 Mn215 Mn 0.57133 0.00680 -0.01439
 Mn216 Mn 0.49911 -0.00032 -0.19559
 Cl217 Cl 0.49933 -0.00018 -0.01302
 C218 C 0.53783 -0.09142 -0.21875
 C219 C 0.61930 0.10925 -0.21821
 C220 C 1.14750 0.44605 0.29779
 C221 C 1.13938 0.47883 0.28612
 H222 H 1.12667 0.41512 0.26017
 H223 H 1.15808 0.50841 0.33046
 C224 C 0.52671 0.68760 0.28993
 C225 C 0.49356 0.64720 0.27165
 H226 H 0.55913 0.69783 0.25760
 H227 H 0.46212 0.63473 0.31101
 C228 C 0.33293 -0.15687 0.32896
 C229 C 0.33291 -0.12376 0.28064
 H230 H 0.36125 -0.16145 0.31914
 H231 H 0.30371 -0.12036 0.28062
 C232 C 0.85290 0.55256 0.29909
 C233 C 0.86069 0.51952 0.28865
 H234 H 0.87376 0.58324 0.26029
 H235 H 0.84198 0.49020 0.33405
 C236 C 0.47591 0.31367 0.28454
 C237 C 0.50624 0.35594 0.28157
 H238 H 0.44605 0.30136 0.23871
 H239 H 0.53409 0.36896 0.33420
 C240 C 0.66370 0.15237 0.34108
 C241 C 0.66711 0.12637 0.27274
 H242 H 0.63221 0.15110 0.35100
 H243 H 0.69915 0.12986 0.25576
 C244 C 0.49110 0.15953 -0.31107
 C245 C 0.45556 0.12487 -0.27167
 H246 H 0.52368 0.16373 -0.29690
 H247 H 0.42296 0.12144 -0.27747
 C248 C 0.67871 0.53190 -0.29716
 C249 C 0.67633 0.56532 -0.25704
 H250 H 0.65173 0.49904 -0.28356
 H251 H 0.70385 0.59835 -0.26228
 C252 C 0.84891 0.33308 -0.32540
 C253 C 0.88123 0.33186 -0.27324
 H254 H 0.84566 0.36187 -0.31883
 H255 H 0.88343 0.30246 -0.27028
 C256 C 0.50576 -0.15984 -0.31304
 C257 C 0.54055 -0.12746 -0.26569
 H258 H 0.47378 -0.16173 -0.30949
 H259 H 0.57199 -0.12667 -0.26333
 C260 C 0.32252 0.46991 -0.29654
 C261 C 0.32541 0.43679 -0.25595
 H262 H 0.34920 0.50293 -0.28325
 H263 H 0.29819 0.40362 -0.26093
 C264 C 1.14691 0.66426 -0.33459
 C265 C 1.12012 0.66764 -0.26697
 H266 H 1.14546 0.63319 -0.34409
 H267 H 1.12322 0.69899 -0.25061
 C268 C 0.85341 0.55348 -0.28009
 C269 C 0.86048 0.52014 -0.26442
 H270 H 0.87478 0.58463 -0.24397
 H271 H 0.84118 0.49021 -0.30714
 C272 C 0.47384 0.31308 -0.29488
 C273 C 0.50451 0.35525 -0.28793
 H274 H 0.44340 0.30055 -0.25125
 H275 H 0.53305 0.36856 -0.33845
 C276 C 0.69463 0.16622 -0.26283
 C277 C 0.65108 0.15028 -0.26843
 H278 H 0.70755 0.15057 -0.21313
 H279 H 0.63797 0.16339 -0.32506
 C280 C 1.14681 0.44601 -0.28129
 C281 C 1.13924 0.47906 -0.26615
 H282 H 1.12577 0.41485 -0.24471
 H283 H 1.15826 0.50899 -0.30922
 C284 C 0.52815 0.68806 -0.30330
 C285 C 0.49517 0.64775 -0.28216
 H286 H 0.56076 0.69854 -0.27179
 H287 H 0.46349 0.63508 -0.32050
 C288 C 0.30348 -0.16473 -0.26907
 C289 C 0.34680 -0.15037 -0.26825
 H290 H 0.29048 -0.14795 -0.22386
 H291 H 0.36027 -0.16452 -0.32085
 C292 C 0.50652 -0.15927 0.29486
 C293 C 0.54072 -0.12766 0.24336
 H294 H 0.47466 -0.16089 0.29274
 H295 H 0.57197 -0.12721 0.23963
 C296 C 0.32513 0.46990 0.31044
 C297 C 0.32595 0.43766 0.25900
 H298 H 0.35374 0.50239 0.30713
 H299 H 0.29695 0.40550 0.25595
 C300 C 1.15699 0.69606 0.26617
 C301 C 1.14461 0.65404 0.25950
 H302 H 1.13764 0.70807 0.22743
 H303 H 1.16167 0.64146 0.30566
 C304 C 0.49231 0.15800 0.29793
 C305 C 0.45815 0.12693 0.24536
 H306 H 0.52399 0.15922 0.29617
 H307 H 0.42709 0.12684 0.24120
 C308 C 0.67647 0.53179 0.30975
 C309 C 0.67615 0.56431 0.25817
 H310 H 0.64758 0.49949 0.30661
 H311 H 0.70541 0.59628 0.25497
 C312 C 0.84388 0.30119 0.27097
 C313 C 0.85437 0.34241 0.25599
 H314 H 0.86464 0.28958 0.23810
 H315 H 0.83589 0.35491 0.29653
   
