data_POSCAR
  _audit_creation_date              2014-09-24
  _audit_creation_method            'ToBaCCo'
  _symmetry_space_group_name_H-M    'P1'
  _symmetry_Int_Tables_number       1
  _symmetry_cell_setting            triclinic
  loop_
  _symmetry_equiv_pos_as_xyz
 x,y,z
_cell_length_a 35.2619
_cell_length_b 36.9905
_cell_length_c 44.8617
_cell_angle_alpha 90.555800
_cell_angle_beta 87.887200
_cell_angle_gamma 80.329100
loop_
  _atom_site_label
  _atom_site_type_symbol
  _atom_site_fract_x
  _atom_site_fract_y
  _atom_site_fract_z
C1 C 1.21550 0.22080 0.20165
 C2 C 1.24604 0.23885 0.18550
 C3 C 1.26637 0.25736 0.20368
 C4 C 1.25423 0.25631 0.23690
 C5 C 1.23720 0.19686 0.22551
 C6 C 1.25745 0.21535 0.24388
 C7 C 1.19054 0.25178 0.22002
 C8 C 1.21052 0.27002 0.23885
 H9 H 1.25118 0.23697 0.16153
 H10 H 1.27081 0.27138 0.25186
 H11 H 1.23391 0.16879 0.22966
 H12 H 1.15938 0.25541 0.22105
 C13 C 0.73963 -0.29063 0.20651
 C14 C 0.76722 -0.26980 0.18928
 C15 C 0.78453 -0.24741 0.20657
 C16 C 0.77249 -0.24757 0.24000
 C17 C 0.76364 -0.31044 0.23106
 C18 C 0.78073 -0.28823 0.24874
 C19 C 0.71143 -0.26012 0.22290
 C20 C 0.72817 -0.23837 0.24127
 H21 H 0.77111 -0.27058 0.16524
 H22 H 0.78657 -0.22934 0.25414
 H23 H 0.76625 -0.33972 0.23431
 H24 H 0.68053 -0.25708 0.22111
 C25 C 0.73020 0.22482 -0.30325
 C26 C 0.75861 0.24350 -0.31781
 C27 C 0.78081 0.26108 -0.29782
 C28 C 0.76929 0.25699 -0.26624
 C29 C 0.75143 0.20003 -0.28247
 C30 C 0.77283 0.21720 -0.26147
 C31 C 0.70669 0.25349 -0.28498
 C32 C 0.72745 0.27058 -0.26335
 H33 H 0.75832 0.24972 -0.34135
 H34 H 0.78646 0.27046 -0.25106
 H35 H 0.75275 0.17063 -0.28429
 H36 H 0.67670 0.26306 -0.28922
 C37 C 1.25749 -0.29621 -0.28977
 C38 C 1.27478 -0.26769 -0.30779
 C39 C 1.29089 -0.24378 -0.29115
 C40 C 1.28828 -0.25066 -0.25739
 C41 C 1.29061 -0.31488 -0.27085
 C42 C 1.30653 -0.29113 -0.25365
 C43 C 1.22949 -0.27396 -0.26681
 C44 C 1.24537 -0.25029 -0.24978
 H45 H 1.27566 -0.26772 -0.33195
 H46 H 1.30125 -0.23110 -0.24374
 H47 H 1.29684 -0.34407 -0.26735
 H48 H 1.20004 -0.27828 -0.26323
 C49 C 0.21752 0.24231 0.79743
 C50 C 0.24755 0.25570 0.81319
 C51 C 0.27302 0.27312 0.79481
 C52 C 0.26399 0.27280 0.76317
 C53 C 0.19732 0.27543 0.78010
 C54 C 0.22155 0.29130 0.76198
 C55 C 0.23860 0.21678 0.77285
 C56 C 0.26287 0.23242 0.75477
 H57 H 0.24714 0.25680 0.83733
 H58 H 0.28379 0.28515 0.74814
 H59 H 0.16649 0.28213 0.77823
 H60 H 0.23336 0.18905 0.76938
 C61 C 0.70300 0.74276 0.79644
 C62 C 0.72552 0.76607 0.81190
 C63 C 0.74724 0.78628 0.79250
 C64 C 0.74120 0.77958 0.76074
 C65 C 0.67871 0.76805 0.77766
 C66 C 0.69930 0.78768 0.75690
 C67 C 0.73024 0.71990 0.77622
 C68 C 0.75152 0.73966 0.75611
 H69 H 0.72102 0.77302 0.83539
 H70 H 0.75762 0.79496 0.74577
 H71 H 0.64773 0.77389 0.78110
 H72 H 0.73600 0.69035 0.77821
 C73 C 0.72835 0.24091 0.29591
 C74 C 0.75515 0.25880 0.31497
 C75 C 0.77978 0.27669 0.29920
 C76 C 0.77587 0.27443 0.26520
 C77 C 0.70841 0.27189 0.27640
 C78 C 0.73318 0.28940 0.26021
 C79 C 0.75491 0.21607 0.27359
 C80 C 0.77957 0.23343 0.25738
 H81 H 0.75393 0.25799 0.33911
 H82 H 0.79614 0.28881 0.25230
 H83 H 0.67797 0.27594 0.27226
 H84 H 0.75150 0.18809 0.26868
 C85 C 0.21198 0.74813 0.29263
 C86 C 0.23967 0.76936 0.30805
 C87 C 0.26260 0.78540 0.28905
 C88 C 0.25517 0.77938 0.25583
 C89 C 0.18940 0.77665 0.27254
 C90 C 0.21165 0.79240 0.25272
 C91 C 0.23768 0.72145 0.27114
 C92 C 0.26000 0.73745 0.25160
 H93 H 0.23945 0.77400 0.33188
 H94 H 0.27347 0.79268 0.24021
 H95 H 0.15825 0.78271 0.27319
 H96 H 0.23765 0.69218 0.27141
 O97 O 1.05077 0.00845 0.03041
 O98 O 0.92253 -0.01924 0.02905
 O99 O 0.96513 0.05917 0.03128
 O100 O 1.01021 -0.06958 0.02921
 O101 O 0.91328 0.04347 0.01655
 O102 O 1.06257 -0.05360 0.01433
 O103 O 0.94755 -0.07046 0.01009
 O104 O 1.02921 0.06028 0.01313
 C105 C 1.04540 0.04200 0.03357
 C106 C 0.92941 -0.05285 0.03141
 C107 C 0.93075 0.05777 0.03617
 C108 C 1.04365 -0.06654 0.03442
 O109 O 1.05728 -0.03076 -0.04373
 O110 O 0.92372 0.02323 -0.04340
 O111 O 1.00604 0.05586 -0.04341
 O112 O 0.97664 -0.06539 -0.04576
 O113 O 0.92084 -0.03807 -0.03072
 O114 O 1.05983 0.02908 -0.02811
 O115 O 1.04061 -0.07938 -0.02769
 O116 O 0.94027 0.06994 -0.02422
 Co117 Co 1.05118 -0.01106 -0.00673
 Co118 Co 0.92654 0.00171 -0.00714
 Co119 Co 0.98559 0.05478 -0.00603
 Co120 Co 0.99343 -0.06472 -0.00834
 O121 O 0.98915 -0.00484 -0.00709
 C122 C 1.05699 -0.06362 -0.04758
 C123 C 0.92705 0.05569 -0.04583
 C124 C 1.04131 0.04800 -0.04737
 C125 C 0.94192 -0.05684 -0.05032
 O126 O 1.06631 0.51593 0.54305
 O127 O 0.93878 0.48901 0.54793
 O128 O 0.97212 0.56601 0.54481
 O129 O 1.03327 0.43938 0.54244
 O130 O 0.92265 0.55038 0.52765
 O131 O 1.08190 0.45459 0.52129
 O132 O 0.96935 0.43665 0.53274
 O133 O 1.03576 0.56829 0.53059
 C134 C 1.05681 0.54915 0.54852
 C135 C 0.94950 0.45596 0.55276
 C136 C 0.93752 0.56542 0.54798
 C137 C 1.06767 0.44119 0.54335
 O138 O 1.06935 0.48282 0.46724
 O139 O 0.93379 0.52190 0.47244
 O140 O 1.01711 0.56324 0.47096
 O141 O 0.98680 0.44089 0.47169
 O142 O 0.93369 0.46158 0.49315
 O143 O 1.07079 0.54289 0.48838
 O144 O 1.05227 0.43259 0.48122
 O145 O 0.95158 0.57208 0.48540
 Co146 Co 1.06503 0.49936 0.50527
 Co147 Co 0.93920 0.50541 0.51004
 Co148 Co 0.99487 0.56145 0.50787
 Co149 Co 1.00970 0.44324 0.50708
 O150 O 1.00217 0.50237 0.50759
 C151 C 1.06681 0.45055 0.46151
 C152 C 0.93657 0.55405 0.46662
 C153 C 1.05234 0.55964 0.46830
 C154 C 0.95151 0.44603 0.47095
 O155 O 0.56122 0.04305 0.51447
 O156 O 0.42552 -0.03254 0.51715
 O157 O 0.44137 0.07683 0.51234
 O158 O 0.54612 -0.06703 0.51800
 O159 O 0.42468 0.02989 0.53140
 O160 O 0.55986 -0.01618 0.53224
 O161 O 0.47968 -0.05596 0.53397
 O162 O 0.50532 0.06706 0.53053
 C163 C 0.54024 0.06090 0.53437
 C164 C 0.44424 -0.04919 0.53747
 C165 C 0.42730 0.06259 0.53414
 C166 C 0.55956 -0.04874 0.53734
 O167 O 0.57319 -0.04390 0.47573
 O168 O 0.41875 0.04860 0.47196
 O169 O 0.53258 0.06934 0.47305
 O170 O 0.45969 -0.06478 0.47678
 O171 O 0.43294 -0.01464 0.45853
 O172 O 0.55950 0.01701 0.45709
 O173 O 0.52423 -0.06262 0.45977
 O174 O 0.47092 0.06458 0.45609
 Co175 Co 0.55687 0.00037 0.49478
 Co176 Co 0.43208 0.00753 0.49484
 Co177 Co 0.48829 0.06315 0.49329
 Co178 Co 0.50181 -0.05622 0.49688
 O179 O 0.49473 0.00366 0.49496
 C180 C 0.55812 -0.05903 0.45543
 C181 C 0.43706 0.06234 0.45183
 C182 C 0.55176 0.05027 0.45298
 C183 C 0.44227 -0.04825 0.45586
 O184 O 0.56337 0.50132 0.04507
 O185 O 0.43733 0.47072 0.03966
 O186 O 0.47151 0.54853 0.04278
 O187 O 0.53002 0.42208 0.04032
 O188 O 0.42302 0.53293 0.02328
 O189 O 0.58055 0.43999 0.02473
 O190 O 0.46785 0.41919 0.02357
 O191 O 0.53564 0.55340 0.03057
 C192 C 0.55432 0.53461 0.04985
 C193 C 0.44668 0.43739 0.04338
 C194 C 0.43681 0.54772 0.04451
 C195 C 0.56317 0.42620 0.04509
 O196 O 0.57533 0.46727 -0.03062
 O197 O 0.44012 0.50832 -0.03405
 O198 O 0.52032 0.54881 -0.02903
 O199 O 0.49451 0.42567 -0.03420
 O200 O 0.43810 0.44722 -0.01793
 O201 O 0.57322 0.52747 -0.01023
 O202 O 0.55850 0.41651 -0.01840
 O203 O 0.45389 0.55755 -0.01623
 Co204 Co 0.56636 0.48428 0.00708
 Co205 Co 0.44153 0.48955 0.00296
 Co206 Co 0.49616 0.54590 0.00678
 Co207 Co 0.51198 0.42701 0.00306
 O208 O 0.50402 0.48667 0.00497
 C209 C 0.57506 0.43470 -0.03671
 C210 C 0.44311 0.54075 -0.03777
 C211 C 0.55566 0.54464 -0.03065
 C212 C 0.45964 0.43021 -0.03795
 C213 C 1.16376 0.22170 0.16381
 C214 C 1.14221 0.20425 0.14448
 C215 C 1.14953 0.16602 0.14091
 C216 C 1.18015 0.14564 0.15584
 C217 C 1.20185 0.16308 0.17502
 C218 C 1.19299 0.20124 0.18022
 C219 C 1.12602 0.14853 0.12037
 C220 C 1.11964 0.11400 0.12347
 C221 C 1.09774 0.09591 0.10201
 C222 C 1.10539 0.05753 0.09909
 C223 C 1.08745 0.03965 0.07746
 C224 C 1.06146 0.05997 0.05845
 C225 C 1.05220 0.09815 0.06245
 C226 C 1.06995 0.11596 0.08412
 H227 H 1.15739 0.25129 0.16606
 H228 H 1.11948 0.22065 0.13250
 H229 H 1.18809 0.11634 0.15224
 H230 H 1.22589 0.14643 0.18523
 H231 H 1.11360 0.16504 0.10227
 H232 H 1.13217 0.09766 0.14165
 H233 H 1.12622 0.04143 0.11294
 H234 H 1.09481 0.01011 0.07501
 H235 H 1.03159 0.11436 0.04851
 H236 H 1.06185 0.14538 0.08663
 C237 C 1.24939 0.64163 0.68675
 C238 C 1.22820 0.62075 0.66979
 C239 C 1.19444 0.63728 0.65642
 C240 C 1.18325 0.67550 0.65905
 C241 C 1.20439 0.69634 0.67587
 C242 C 1.23718 0.67971 0.69066
 C243 C 1.17256 0.61428 0.63884
 C244 C 1.13471 0.62357 0.63464
 C245 C 1.11329 0.60273 0.61480
 C246 C 1.08098 0.62168 0.60096
 C247 C 1.06174 0.60392 0.58015
 C248 C 1.07417 0.56666 0.57308
 C249 C 1.10510 0.54708 0.58825
 C250 C 1.12455 0.56494 0.60891
 H251 H 1.27516 0.62752 0.69647
 H252 H 1.23799 0.59146 0.66739
 H253 H 1.15852 0.68959 0.64784
 H254 H 1.19484 0.72571 0.67765
 H255 H 1.18845 0.58917 0.62899
 H256 H 1.11892 0.64861 0.64470
 H257 H 1.07142 0.65068 0.60546
 H258 H 1.03771 0.61959 0.56905
 H259 H 1.11504 0.51820 0.58348
 H260 H 1.14843 0.54913 0.62000
 C261 C 0.72378 0.19101 0.64903
 C262 C 0.70355 0.17029 0.63128
 C263 C 0.66790 0.16200 0.64119
 C264 C 0.65321 0.17418 0.66974
 C265 C 0.67333 0.19509 0.68752
 C266 C 0.70845 0.20512 0.67716
 C267 C 0.64827 0.13930 0.62144
 C268 C 0.61118 0.13547 0.62484
 C269 C 0.59266 0.11386 0.60345
 C270 C 0.55302 0.12348 0.59915
 C271 C 0.53542 0.10550 0.57732
 C272 C 0.55728 0.07755 0.55950
 C273 C 0.59643 0.06657 0.56496
 C274 C 0.61388 0.08428 0.58686
 H275 H 0.75192 0.19501 0.64070
 H276 H 0.71615 0.16030 0.60974
 H277 H 0.62677 0.16694 0.67892
 H278 H 0.66159 0.20286 0.70975
 H279 H 0.66500 0.12666 0.60223
 H280 H 0.59297 0.15056 0.64226
 H281 H 0.53592 0.14576 0.61201
 H282 H 0.50508 0.11426 0.57375
 H283 H 0.61375 0.04454 0.55198
 H284 H 0.64406 0.07484 0.59053
 C285 C 0.73613 0.66724 0.16124
 C286 C 0.71768 0.64294 0.14538
 C287 C 0.68290 0.63367 0.15640
 C288 C 0.66789 0.64760 0.18440
 C289 C 0.68655 0.67150 0.20043
 C290 C 0.72006 0.68299 0.18856
 C291 C 0.66333 0.60907 0.13846
 C292 C 0.62490 0.61204 0.13854
 C293 C 0.60540 0.59039 0.11795
 C294 C 0.57107 0.60706 0.10545
 C295 C 0.55373 0.58847 0.08392
 C296 C 0.56995 0.55250 0.07508
 C297 C 0.60302 0.53497 0.08895
 C298 C 0.62079 0.55385 0.11006
 H299 H 0.76317 0.67311 0.15211
 H300 H 0.73038 0.63169 0.12421
 H301 H 0.64206 0.63963 0.19417
 H302 H 0.67464 0.68097 0.22226
 H303 H 0.68089 0.59029 0.12279
 H304 H 0.60709 0.63353 0.15176
 H305 H 0.55849 0.63506 0.11148
 H306 H 0.52808 0.60247 0.07373
 H307 H 0.61603 0.50719 0.08262
 H308 H 0.64670 0.54000 0.11997
 C309 C 0.84087 -0.24135 0.17306
 C310 C 0.86295 -0.22003 0.15663
 C311 C 0.85560 -0.18164 0.15933
 C312 C 0.82724 -0.16511 0.18052
 C313 C 0.80549 -0.18668 0.19745
 C314 C 0.81142 -0.22488 0.19314
 C315 C 0.87745 -0.16046 0.13890
 C316 C 0.86386 -0.12651 0.12953
 C317 C 0.88304 -0.10808 0.10525
 C318 C 0.87421 -0.06974 0.10293
 C319 C 0.88967 -0.05166 0.07927
 C320 C 0.91396 -0.07161 0.05711
 C321 C 0.92299 -0.10990 0.05946
 C322 C 0.90768 -0.12796 0.08313
 H323 H 0.84608 -0.27081 0.16950
 H324 H 0.88481 -0.23354 0.14076
 H325 H 0.82149 -0.13567 0.18384
 H326 H 0.78286 -0.17343 0.21280
 H327 H 0.90458 -0.17485 0.12954
 H328 H 0.83692 -0.11189 0.13906
 H329 H 0.85506 -0.05373 0.11940
 H330 H 0.88217 -0.02210 0.07810
 H331 H 0.94156 -0.12607 0.04273
 H332 H 0.91431 -0.15756 0.08332
 C333 C 0.82787 0.27058 0.66306
 C334 C 0.85379 0.29080 0.65011
 C335 C 0.86179 0.32237 0.66422
 C336 C 0.84491 0.33217 0.69274
 C337 C 0.81947 0.31109 0.70632
 C338 C 0.80946 0.28067 0.69109
 C339 C 0.88769 0.34370 0.64783
 C340 C 0.88440 0.38038 0.64925
 C341 C 0.90461 0.40115 0.62716
 C342 C 0.88808 0.43727 0.62039
 C343 C 0.90348 0.45586 0.59699
 C344 C 0.93570 0.43856 0.57979
 C345 C 0.95365 0.40336 0.58773
 C346 C 0.93862 0.38503 0.61133
 H347 H 0.82282 0.24644 0.65101
 H348 H 0.86692 0.28217 0.62841
 H349 H 0.85121 0.35604 0.70447
 H350 H 0.80610 0.32008 0.72782
 H351 H 0.90664 0.32865 0.63080
 H352 H 0.86284 0.39580 0.66439
 H353 H 0.86221 0.45059 0.63241
 H354 H 0.88923 0.48314 0.59157
 H355 H 0.97905 0.38968 0.57533
 H356 H 0.95348 0.35801 0.61666
 C357 C 0.34446 -0.20668 0.70653
 C358 C 0.36476 -0.18232 0.69160
 C359 C 0.35126 -0.16564 0.66511
 C360 C 0.31669 -0.17363 0.65405
 C361 C 0.29653 -0.19793 0.66891
 C362 C 0.31048 -0.21523 0.69501
 C363 C 0.37529 -0.14270 0.64828
 C364 C 0.36089 -0.11780 0.62823
 C365 C 0.38423 -0.09808 0.60768
 C366 C 0.36460 -0.07078 0.58967
 C367 C 0.38430 -0.05412 0.56756
 C368 C 0.42427 -0.06431 0.56288
 C369 C 0.44434 -0.09051 0.58162
 C370 C 0.42457 -0.10741 0.60368
 H371 H 0.35620 -0.21991 0.72639
 H372 H 0.39149 -0.17701 0.70046
 H373 H 0.30571 -0.16242 0.63330
 H374 H 0.27023 -0.20367 0.65960
 H375 H 0.40566 -0.14702 0.65258
 H376 H 0.33001 -0.11177 0.62611
 H377 H 0.33362 -0.06295 0.59215
 H378 H 0.36805 -0.03381 0.55365
 H379 H 0.47519 -0.09892 0.57852
 H380 H 0.44103 -0.12852 0.61664
 C381 C 0.32494 0.25702 0.17084
 C382 C 0.35223 0.27508 0.15686
 C383 C 0.35250 0.31227 0.16303
 C384 C 0.32648 0.33047 0.18509
 C385 C 0.29952 0.31207 0.19954
 C386 C 0.29785 0.27554 0.19182
 C387 C 0.37936 0.33101 0.14514
 C388 C 0.37069 0.36622 0.13713
 C389 C 0.39353 0.38377 0.11462
 C390 C 0.38565 0.42208 0.11198
 C391 C 0.40360 0.43963 0.08934
 C392 C 0.42975 0.41918 0.06863
 C393 C 0.43845 0.38096 0.07162
 C394 C 0.42048 0.36340 0.09422
 H395 H 0.32451 0.22866 0.16484
 H396 H 0.37219 0.26035 0.14022
 H397 H 0.32666 0.35887 0.19098
 H398 H 0.27895 0.32678 0.21578
 H399 H 0.40528 0.31402 0.13619
 H400 H 0.34443 0.38273 0.14619
 H401 H 0.36494 0.43850 0.12719
 H402 H 0.39636 0.46916 0.08770
 H403 H 0.45847 0.36447 0.05599
 H404 H 0.42693 0.33383 0.09470
 C405 C 0.78168 0.16377 -0.22872
 C406 C 0.79886 0.14451 -0.20486
 C407 C 0.82672 0.15805 -0.18865
 C408 C 0.83707 0.19181 -0.19698
 C409 C 0.81972 0.21137 -0.22099
 C410 C 0.79161 0.19770 -0.23744
 C411 C 0.84294 0.13598 -0.16313
 C412 C 0.87274 0.14244 -0.14733
 C413 C 0.88708 0.11930 -0.12187
 C414 C 0.90522 0.13495 -0.09889
 C415 C 0.91816 0.11429 -0.07419
 C416 C 0.91356 0.07736 -0.07209
 C417 C 0.89646 0.06132 -0.09547
 C418 C 0.88347 0.08199 -0.12015
 H419 H 0.75930 0.15219 -0.23922
 H420 H 0.78990 0.11882 -0.19887
 H421 H 0.85827 0.20357 -0.18510
 H422 H 0.82954 0.23660 -0.22682
 H423 H 0.82892 0.11312 -0.15696
 H424 H 0.88641 0.16589 -0.15213
 H425 H 0.90885 0.16342 -0.09982
 H426 H 0.93170 0.12728 -0.05669
 H427 H 0.89314 0.03275 -0.09471
 H428 H 0.87111 0.06843 -0.13794
 C429 C 0.83464 0.71185 0.28395
 C430 C 0.85492 0.69771 0.30876
 C431 C 0.84286 0.66946 0.32549
 C432 C 0.80916 0.65666 0.31754
 C433 C 0.78912 0.67060 0.29278
 C434 C 0.80188 0.69798 0.27545
 C435 C 0.86516 0.65463 0.35149
 C436 C 0.86473 0.62063 0.36171
 C437 C 0.88511 0.60460 0.38822
 C438 C 0.88559 0.56718 0.39368
 C439 C 0.90255 0.55078 0.41893
 C440 C 0.91950 0.57143 0.43949
 C441 C 0.91959 0.60877 0.43397
 C442 C 0.90245 0.62527 0.40869
 H443 H 0.84506 0.73303 0.27106
 H444 H 0.88043 0.70848 0.31463
 H445 H 0.79768 0.63629 0.33061
 H446 H 0.76318 0.66024 0.28745
 H447 H 0.88315 0.67194 0.36153
 H448 H 0.84895 0.60283 0.34972
 H449 H 0.87244 0.55051 0.37844
 H450 H 0.90213 0.52192 0.42245
 H451 H 0.93249 0.62538 0.44941
 H452 H 0.90235 0.65424 0.40580
 C453 C 0.25544 0.17650 0.28888
 C454 C 0.27228 0.16001 0.31407
 C455 C 0.30934 0.16488 0.32151
 C456 C 0.32873 0.18794 0.30395
 C457 C 0.31160 0.20487 0.27888
 C458 C 0.27515 0.19870 0.27087
 C459 C 0.32640 0.14598 0.34796
 C460 C 0.36431 0.13446 0.34992
 C461 C 0.38197 0.11478 0.37594
 C462 C 0.42129 0.11428 0.37998
 C463 C 0.43922 0.09677 0.40439
 C464 C 0.41822 0.07917 0.42529
 C465 C 0.37913 0.07861 0.42086
 C466 C 0.36115 0.09612 0.39637
 H467 H 0.22682 0.17211 0.28359
 H468 H 0.25657 0.14286 0.32751
 H469 H 0.35685 0.19325 0.30967
 H470 H 0.32707 0.22222 0.26545
 H471 H 0.30665 0.14045 0.36568
 H472 H 0.38362 0.13998 0.33183
 H473 H 0.43813 0.12798 0.36442
 H474 H 0.46950 0.09739 0.40703
 H475 H 0.36240 0.06478 0.43639
 H476 H 0.33118 0.09454 0.39352
 C477 C 0.32640 0.71430 -0.20098
 C478 C 0.34612 0.69940 -0.17630
 C479 C 0.37107 0.66562 -0.17874
 C480 C 0.37799 0.64821 -0.20692
 C481 C 0.35831 0.66315 -0.23162
 C482 C 0.33155 0.69585 -0.22873
 C483 C 0.38822 0.64899 -0.15134
 C484 C 0.39760 0.61259 -0.14800
 C485 C 0.41018 0.59505 -0.11959
 C486 C 0.40643 0.55822 -0.11544
 C487 C 0.41699 0.54063 -0.08885
 C488 C 0.43169 0.55949 -0.06580
 C489 C 0.43619 0.59613 -0.07008
 C490 C 0.42573 0.61372 -0.09674
 H491 H 0.30572 0.73931 -0.19783
 H492 H 0.34057 0.71355 -0.15493
 H493 H 0.39822 0.62290 -0.20995
 H494 H 0.36345 0.64873 -0.25289
 H495 H 0.38937 0.66724 -0.13253
 H496 H 0.39295 0.59446 -0.16610
 H497 H 0.39487 0.54306 -0.13273
 H498 H 0.41353 0.51225 -0.08633
 H499 H 0.44805 0.61116 -0.05288
 H500 H 0.43035 0.64170 -0.09936
 C501 C 1.20102 -0.24891 -0.20497
 C502 C 1.18080 -0.23079 -0.18037
 C503 C 1.18319 -0.19411 -0.17400
 C504 C 1.20754 -0.17622 -0.19213
 C505 C 1.22822 -0.19459 -0.21663
 C506 C 1.22456 -0.23087 -0.22354
 C507 C 1.16040 -0.17592 -0.14802
 C508 C 1.14675 -0.13986 -0.14669
 C509 C 1.12290 -0.12140 -0.12120
 C510 C 1.12061 -0.08341 -0.11750
 C511 C 1.09888 -0.06471 -0.09378
 C512 C 1.07870 -0.08359 -0.07322
 C513 C 1.08007 -0.12146 -0.07724
 C514 C 1.10185 -0.14023 -0.10105
 H515 H 1.19850 -0.27724 -0.20932
 H516 H 1.16274 -0.24532 -0.16650
 H517 H 1.21105 -0.14830 -0.18726
 H518 H 1.24653 -0.18029 -0.23046
 H519 H 1.15369 -0.19338 -0.13007
 H520 H 1.15351 -0.12274 -0.16492
 H521 H 1.13609 -0.06815 -0.13285
 H522 H 1.09816 -0.03543 -0.09141
 H523 H 1.06437 -0.13659 -0.06196
 H524 H 1.10157 -0.16925 -0.10367
 C525 C 1.16166 0.27819 0.28106
 C526 C 1.14512 0.29630 0.30692
 C527 C 1.15746 0.32813 0.31714
 C528 C 1.18720 0.34139 0.30105
 C529 C 1.20419 0.32287 0.27522
 C530 C 1.19134 0.29127 0.26492
 C531 C 1.13985 0.34519 0.34542
 C532 C 1.13614 0.38112 0.35184
 C533 C 1.11741 0.39828 0.37995
 C534 C 1.12346 0.43362 0.38787
 C535 C 1.10680 0.45077 0.41422
 C536 C 1.08372 0.43285 0.43330
 C537 C 1.07694 0.39786 0.42519
 C538 C 1.09330 0.38083 0.39873
 H539 H 1.15198 0.25321 0.27423
 H540 H 1.12266 0.28527 0.31912
 H541 H 1.19816 0.36529 0.30881
 H542 H 1.22746 0.33307 0.26339
 H543 H 1.12871 0.32707 0.36095
 H544 H 1.14738 0.39890 0.33597
 H545 H 1.14146 0.44792 0.37375
 H546 H 1.11234 0.47791 0.41981
 H547 H 1.05872 0.38369 0.43921
 H548 H 1.08636 0.35431 0.39315
 C549 C 0.67221 -0.22506 0.27788
 C550 C 0.65097 -0.20384 0.30049
 C551 C 0.66223 -0.17154 0.31087
 C552 C 0.69538 -0.16065 0.29765
 C553 C 0.71682 -0.18210 0.27483
 C554 C 0.70532 -0.21446 0.26462
 C555 C 0.63808 -0.15073 0.33527
 C556 C 0.64833 -0.12378 0.35181
 C557 C 0.62412 -0.10600 0.37752
 C558 C 0.64179 -0.08940 0.40028
 C559 C 0.62036 -0.07392 0.42549
 C560 C 0.58068 -0.07465 0.42847
 C561 C 0.56267 -0.09015 0.40531
 C562 C 0.58403 -0.10541 0.38002
 H563 H 0.66302 -0.25037 0.27132
 H564 H 0.62577 -0.21310 0.31022
 H565 H 0.70477 -0.13561 0.30452
 H566 H 0.74211 -0.17317 0.26499
 H567 H 0.61124 -0.15997 0.34093
 H568 H 0.67635 -0.11609 0.34801
 H569 H 0.67246 -0.08901 0.39881
 H570 H 0.63495 -0.06173 0.44282
 H571 H 0.53198 -0.09044 0.40670
 H572 H 0.56883 -0.11638 0.36249
 C573 C 0.66871 0.29246 -0.23238
 C574 C 0.65034 0.30995 -0.20684
 C575 C 0.67044 0.32815 -0.18689
 C576 C 0.70957 0.32915 -0.19342
 C577 C 0.72821 0.31153 -0.21909
 C578 C 0.70836 0.29209 -0.23892
 C579 C 0.64969 0.34385 -0.15909
 C580 C 0.66085 0.36982 -0.14207
 C581 C 0.63855 0.38551 -0.11490
 C582 C 0.64065 0.42157 -0.10612
 C583 C 0.61983 0.43750 -0.08086
 C584 C 0.59684 0.41748 -0.06348
 C585 C 0.59517 0.38115 -0.07191
 C586 C 0.61585 0.36527 -0.09735
 H587 H 0.65150 0.27762 -0.24579
 H588 H 0.62021 0.30857 -0.20236
 H589 H 0.72632 0.34260 -0.17844
 H590 H 0.75814 0.31363 -0.22295
 H591 H 0.62287 0.33458 -0.15323
 H592 H 0.68561 0.38180 -0.14908
 H593 H 0.65810 0.43765 -0.11908
 H594 H 0.62187 0.46554 -0.07489
 H595 H 0.57788 0.36502 -0.05886
 H596 H 0.61443 0.33701 -0.10288
 C597 C 1.15331 0.23689 -0.17494
 C598 C 1.13053 0.21639 -0.15825
 C599 C 1.14597 0.18140 -0.14829
 C600 C 1.18539 0.16816 -0.15373
 C601 C 1.20817 0.18861 -0.17035
 C602 C 1.19222 0.22264 -0.18223
 C603 C 1.12054 0.16015 -0.13149
 C604 C 1.12756 0.12346 -0.13000
 C605 C 1.10367 0.10268 -0.11133
 C606 C 1.12156 0.07052 -0.09793
 C607 C 1.10084 0.05194 -0.07792
 C608 C 1.06162 0.06483 -0.07140
 C609 C 1.04304 0.09565 -0.08631
 C610 C 1.06393 0.11454 -0.10606
 H611 H 1.14001 0.26374 -0.18185
 H612 H 1.10052 0.22772 -0.15346
 H613 H 1.19895 0.14221 -0.14503
 H614 H 1.23836 0.17749 -0.17445
 H615 H 1.09519 0.17544 -0.12006
 H616 H 1.15285 0.10799 -0.14133
 H617 H 1.15203 0.06061 -0.10202
 H618 H 1.11574 0.02800 -0.06695
 H619 H 1.01273 0.10596 -0.08187
 H620 H 1.04902 0.13853 -0.11691
 C621 C 1.15542 0.71462 0.30003
 C622 C 1.13299 0.69410 0.31701
 C623 C 1.14185 0.68546 0.34654
 C624 C 1.17289 0.69872 0.35910
 C625 C 1.19526 0.71931 0.34218
 C626 C 1.18659 0.72803 0.31244
 C627 C 1.11826 0.66279 0.36375
 C628 C 1.13304 0.64025 0.38516
 C629 C 1.11074 0.61786 0.40389
 C630 C 1.13130 0.59032 0.42110
 C631 C 1.11211 0.57059 0.44125
 C632 C 1.07183 0.57799 0.44470
 C633 C 1.05095 0.60461 0.42680
 C634 C 1.07021 0.62457 0.40667
 H635 H 1.14869 0.71957 0.27691
 H636 H 1.10924 0.68416 0.30682
 H637 H 1.18005 0.69327 0.38206
 H638 H 1.21978 0.72733 0.35252
 H639 H 1.08882 0.66361 0.35749
 H640 H 1.16354 0.63739 0.38902
 H641 H 1.16247 0.58455 0.41944
 H642 H 1.12892 0.55005 0.45464
 H643 H 1.01984 0.61093 0.42914
 H644 H 1.05320 0.64597 0.39430
 C645 C 0.66440 0.23751 0.32362
 C646 C 0.64045 0.21819 0.34030
 C647 C 0.65348 0.18185 0.34837
 C648 C 0.69160 0.16571 0.34086
 C649 C 0.71566 0.18511 0.32449
 C650 C 0.70195 0.22074 0.31456
 C651 C 0.62760 0.16237 0.36626
 C652 C 0.62949 0.12586 0.36480
 C653 C 0.60624 0.10574 0.38474
 C654 C 0.61959 0.06845 0.38992
 C655 C 0.60085 0.04955 0.41115
 C656 C 0.56851 0.06780 0.42757
 C657 C 0.55368 0.10433 0.42100
 C658 C 0.57207 0.12304 0.39960
 H659 H 0.65343 0.26565 0.31818
 H660 H 0.61156 0.23160 0.34678
 H661 H 0.70323 0.13844 0.34819
 H662 H 0.74511 0.17210 0.31960
 H663 H 0.60681 0.17903 0.38116
 H664 H 0.65041 0.10973 0.34958
 H665 H 0.64549 0.05432 0.37840
 H666 H 0.61264 0.02125 0.41567
 H667 H 0.52824 0.11876 0.43292
 H668 H 0.55958 0.15112 0.39523
 C669 C 0.65194 0.70446 -0.19730
 C670 C 0.63265 0.68105 -0.18068
 C671 C 0.64340 0.67161 -0.15171
 C672 C 0.67365 0.68642 -0.13944
 C673 C 0.69304 0.70985 -0.15601
 C674 C 0.68184 0.72033 -0.18505
 C675 C 0.62182 0.64711 -0.13472
 C676 C 0.63693 0.62627 -0.11243
 C677 C 0.61507 0.60346 -0.09379
 C678 C 0.63566 0.57691 -0.07571
 C679 C 0.61633 0.55693 -0.05580
 C680 C 0.57596 0.56320 -0.05356
 C681 C 0.55523 0.58893 -0.07223
 C682 C 0.57453 0.60910 -0.09200
 H683 H 0.64363 0.70985 -0.22005
 H684 H 0.60960 0.66977 -0.19070
 H685 H 0.68240 0.68026 -0.11694
 H686 H 0.71726 0.71894 -0.14596
 H687 H 0.59310 0.64557 -0.14168
 H688 H 0.66692 0.62537 -0.10762
 H689 H 0.66685 0.57209 -0.07657
 H690 H 0.63300 0.53710 -0.04172
 H691 H 0.52406 0.59442 -0.07083
 H692 H 0.55739 0.62989 -0.10485
 C693 C 0.78136 -0.16057 -0.21241
 C694 C 0.80413 -0.13712 -0.19984
 C695 C 0.81886 -0.14388 -0.17144
 C696 C 0.80991 -0.17396 -0.15554
 C697 C 0.78656 -0.19670 -0.16760
 C698 C 0.77160 -0.19046 -0.19620
 C699 C 0.84158 -0.11855 -0.15747
 C700 C 0.87171 -0.13128 -0.14095
 C701 C 0.89085 -0.10804 -0.12141
 C702 C 0.92911 -0.12058 -0.11415
 C703 C 0.94632 -0.10276 -0.09206
 C704 C 0.92523 -0.07252 -0.07623
 C705 C 0.88735 -0.05909 -0.08421
 C706 C 0.87033 -0.07658 -0.10672
 H707 H 0.77001 -0.15389 -0.23409
 H708 H 0.81026 -0.11370 -0.21230
 H709 H 0.82031 -0.17951 -0.13335
 H710 H 0.78122 -0.21986 -0.15449
 H711 H 0.83277 -0.08932 -0.16020
 H712 H 0.88220 -0.16057 -0.14085
 H713 H 0.94537 -0.14494 -0.12498
 H714 H 0.97559 -0.11373 -0.08644
 H715 H 0.87052 -0.03573 -0.07244
 H716 H 0.84050 -0.06669 -0.11136
 C717 C 0.84271 0.29959 0.30284
 C718 C 0.86693 0.31923 0.31811
 C719 C 0.85368 0.33904 0.34441
 C720 C 0.81586 0.33852 0.35530
 C721 C 0.79192 0.31883 0.34023
 C722 C 0.80515 0.29882 0.31405
 C723 C 0.88029 0.35780 0.36138
 C724 C 0.86754 0.38736 0.37885
 C725 C 0.89093 0.40347 0.40065
 C726 C 0.87122 0.42744 0.42267
 C727 C 0.89102 0.44146 0.44522
 C728 C 0.93119 0.43212 0.44619
 C729 C 0.95131 0.40925 0.42359
 C730 C 0.93140 0.39495 0.40102
 H731 H 0.85369 0.28418 0.28281
 H732 H 0.89610 0.31881 0.30948
 H733 H 0.80492 0.35232 0.37600
 H734 H 0.76294 0.31915 0.34924
 H735 H 0.91048 0.34590 0.36008
 H736 H 0.83735 0.39936 0.37863
 H737 H 0.84013 0.43471 0.42289
 H738 H 0.87476 0.45939 0.46210
 H739 H 0.98237 0.40197 0.42362
 H740 H 0.94791 0.37730 0.38416
 C741 C 0.29518 -0.15902 0.28829
 C742 C 0.31810 -0.13669 0.30213
 C743 C 0.33772 -0.14823 0.32804
 C744 C 0.33451 -0.18296 0.33940
 C745 C 0.31163 -0.20503 0.32570
 C746 C 0.29096 -0.19298 0.30046
 C747 C 0.35798 -0.12237 0.34440
 C748 C 0.38575 -0.13371 0.36363
 C749 C 0.40206 -0.10965 0.38480
 C750 C 0.43021 -0.12641 0.40396
 C751 C 0.44378 -0.10628 0.42654
 C752 C 0.42969 -0.06869 0.43051
 C753 C 0.40268 -0.05137 0.41069
 C754 C 0.38882 -0.07161 0.38815
 H755 H 0.27932 -0.14894 0.26901
 H756 H 0.31974 -0.10996 0.29304
 H757 H 0.34799 -0.19267 0.35975
 H758 H 0.30915 -0.23125 0.33545
 H759 H 0.34859 -0.09345 0.34093
 H760 H 0.39649 -0.16280 0.36494
 H761 H 0.44108 -0.15556 0.40201
 H762 H 0.46492 -0.12035 0.44123
 H763 H 0.39143 -0.02234 0.41313
 H764 H 0.36716 -0.05732 0.37411
 C765 C 0.31069 0.32372 -0.20647
 C766 C 0.33330 0.34552 -0.19172
 C767 C 0.34714 0.33598 -0.16344
 C768 C 0.33836 0.30398 -0.15029
 C769 C 0.31507 0.28276 -0.16456
 C770 C 0.30006 0.29259 -0.19263
 C771 C 0.36766 0.36109 -0.14675
 C772 C 0.39568 0.34869 -0.12817
 C773 C 0.41277 0.37279 -0.10785
 C774 C 0.45107 0.36217 -0.09986
 C775 C 0.46677 0.38185 -0.07806
 C776 C 0.44408 0.41197 -0.06315
 C777 C 0.40592 0.42309 -0.07150
 C778 C 0.39046 0.40385 -0.09382
 H779 H 0.29946 0.33304 -0.22768
 H780 H 0.33943 0.37029 -0.20217
 H781 H 0.34815 0.29607 -0.12833
 H782 H 0.30903 0.25844 -0.15339
 H783 H 0.35918 0.39033 -0.14964
 H784 H 0.40659 0.31952 -0.12760
 H785 H 0.46869 0.33816 -0.11015
 H786 H 0.49625 0.37259 -0.07204
 H787 H 0.38785 0.44625 -0.06039
 H788 H 0.36057 0.41225 -0.09905
 C789 C 1.21235 -0.15741 0.21528
 C790 C 1.19687 -0.13802 0.19061
 C791 C 1.16373 -0.14657 0.17762
 C792 C 1.14692 -0.17550 0.18940
 C793 C 1.16225 -0.19470 0.21396
 C794 C 1.19498 -0.18578 0.22734
 C795 C 1.14859 -0.12654 0.15089
 C796 C 1.11152 -0.12335 0.14366
 C797 C 1.09518 -0.10713 0.11576
 C798 C 1.05657 -0.10921 0.11044
 C799 C 1.03985 -0.09602 0.08410
 C800 C 1.06138 -0.08033 0.06236
 C801 C 1.09979 -0.07756 0.06774
 C802 C 1.11660 -0.09081 0.09412
 H803 H 1.23771 -0.15007 0.22496
 H804 H 1.21074 -0.11624 0.18167
 H805 H 1.12259 -0.18429 0.17922
 H806 H 1.14903 -0.21738 0.22186
 H807 H 1.16883 -0.11453 0.13716
 H808 H 1.09163 -0.13392 0.15885
 H809 H 1.03927 -0.12153 0.12663
 H810 H 1.01007 -0.09829 0.08070
 H811 H 1.11695 -0.06521 0.05148
 H812 H 1.14625 -0.08818 0.09713
 C813 C 1.17398 0.34441 0.74516
 C814 C 1.15619 0.36550 0.72234
 C815 C 1.17065 0.36047 0.69275
 C816 C 1.20441 0.33476 0.68667
 C817 C 1.22230 0.31375 0.70958
 C818 C 1.20665 0.31771 0.73888
 C819 C 1.14764 0.37987 0.66888
 C820 C 1.16095 0.38285 0.64077
 C821 C 1.13610 0.39891 0.61666
 C822 C 1.15305 0.41377 0.59188
 C823 C 1.13079 0.42770 0.56813
 C824 C 1.09114 0.42659 0.56852
 C825 C 1.07413 0.41160 0.59323
 C826 C 1.09636 0.39778 0.61702
 H827 H 1.16148 0.34817 0.76763
 H828 H 1.13027 0.38504 0.72769
 H829 H 1.21613 0.32925 0.66418
 H830 H 1.24702 0.29291 0.70396
 H831 H 1.11823 0.39206 0.67490
 H832 H 1.19115 0.37392 0.63502
 H833 H 1.18363 0.41463 0.59092
 H834 H 1.14467 0.43916 0.54939
 H835 H 1.04365 0.41029 0.59408
 H836 H 1.08244 0.38542 0.63523
 C837 C 0.64380 -0.19732 0.72491
 C838 C 0.62660 -0.18039 0.70006
 C839 C 0.64549 -0.15751 0.68239
 C840 C 0.68217 -0.15153 0.69036
 C841 C 0.69959 -0.16850 0.71534
 C842 C 0.68099 -0.19225 0.73298
 C843 C 0.62645 -0.14203 0.65532
 C844 C 0.63523 -0.11262 0.64120
 C845 C 0.61506 -0.09718 0.61459
 C846 C 0.61410 -0.05995 0.60857
 C847 C 0.59567 -0.04426 0.58368
 C848 C 0.57813 -0.06562 0.56399
 C849 C 0.57924 -0.10298 0.56980
 C850 C 0.59765 -0.11870 0.59481
 H851 H 0.62811 -0.21589 0.73658
 H852 H 0.59844 -0.18575 0.69433
 H853 H 0.69807 -0.13448 0.67707
 H854 H 0.72743 -0.16226 0.72056
 H855 H 0.60287 -0.15457 0.64767
 H856 H 0.65628 -0.09781 0.65026
 H857 H 0.62747 -0.04285 0.62330
 H858 H 0.59536 -0.01537 0.57979
 H859 H 0.56618 -0.12011 0.55490
 H860 H 0.59881 -0.14777 0.59818
 C861 C 0.74095 0.31199 0.20830
 C862 C 0.72589 0.33175 0.18382
 C863 C 0.68941 0.35384 0.18610
 C864 C 0.66939 0.35784 0.21397
 C865 C 0.68445 0.33809 0.23845
 C866 C 0.71989 0.31423 0.23565
 C867 C 0.67267 0.37111 0.15885
 C868 C 0.63461 0.37779 0.15491
 C869 C 0.61718 0.39089 0.12659
 C870 C 0.57981 0.38472 0.12117
 C871 C 0.56235 0.39594 0.09461
 C872 C 0.58190 0.41372 0.07292
 C873 C 0.61903 0.42052 0.07847
 C874 C 0.63647 0.40939 0.10509
 H875 H 0.76817 0.29360 0.20531
 H876 H 0.74204 0.32851 0.16267
 H877 H 0.64191 0.37582 0.21688
 H878 H 0.66801 0.34093 0.25946
 H879 H 0.69248 0.37485 0.14060
 H880 H 0.61524 0.37061 0.17232
 H881 H 0.56417 0.37083 0.13744
 H882 H 0.53353 0.39068 0.09106
 H883 H 0.63448 0.43476 0.06235
 H884 H 0.66474 0.41583 0.10880
 C885 C 0.83826 0.22044 0.22325
 C886 C 0.85768 0.20283 0.19792
 C887 C 0.83921 0.18114 0.17917
 C888 C 0.80035 0.17880 0.18550
 C889 C 0.78120 0.19605 0.21080
 C890 C 0.80016 0.21639 0.23021
 C891 C 0.86090 0.16194 0.15306
 C892 C 0.85111 0.13219 0.13997
 C893 C 0.87229 0.11305 0.11371
 C894 C 0.85270 0.09288 0.09460
 C895 C 0.87160 0.07465 0.06940
 C896 C 0.91060 0.07597 0.06309
 C897 C 0.93048 0.09531 0.08269
 C898 C 0.91158 0.11363 0.10774
 H899 H 0.85321 0.23645 0.23772
 H900 H 0.88740 0.20563 0.19324
 H901 H 0.78430 0.16413 0.17089
 H902 H 0.75125 0.19378 0.21503
 H903 H 0.88595 0.17263 0.14477
 H904 H 0.82618 0.12136 0.14826
 H905 H 0.82253 0.09163 0.09897
 H906 H 0.85569 0.05966 0.05484
 H907 H 0.96073 0.09645 0.07862
 H908 H 0.92805 0.12766 0.12252
 C909 C 0.80550 0.73970 0.71901
 C910 C 0.83012 0.72191 0.69622
 C911 C 0.82770 0.68602 0.68721
 C912 C 0.80115 0.66768 0.70224
 C913 C 0.77649 0.68531 0.72481
 C914 C 0.77777 0.72187 0.73361
 C915 C 0.85356 0.66814 0.66258
 C916 C 0.84435 0.64117 0.64547
 C917 C 0.86926 0.62243 0.62071
 C918 C 0.85238 0.60280 0.59938
 C919 C 0.87459 0.58416 0.57584
 C920 C 0.91428 0.58457 0.57322
 C921 C 0.93144 0.60368 0.59478
 C922 C 0.90919 0.62238 0.61837
 H923 H 0.80953 0.76697 0.72539
 H924 H 0.85100 0.73639 0.68544
 H925 H 0.79927 0.63950 0.69679
 H926 H 0.75556 0.67009 0.73434
 H927 H 0.87979 0.67884 0.65770
 H928 H 0.81634 0.63322 0.64874
 H929 H 0.82179 0.60203 0.60083
 H930 H 0.86063 0.56946 0.55966
 H931 H 0.96209 0.60416 0.59345
 H932 H 0.92357 0.63613 0.63483
 C933 C 0.26180 0.19065 0.71091
 C934 C 0.27988 0.17006 0.68667
 C935 C 0.31820 0.17166 0.67822
 C936 C 0.33799 0.19508 0.69439
 C937 C 0.31972 0.21586 0.71880
 C938 C 0.28171 0.21320 0.72762
 C939 C 0.33622 0.14731 0.65327
 C940 C 0.36817 0.15185 0.63766
 C941 C 0.38373 0.12789 0.61180
 C942 C 0.40416 0.14252 0.58879
 C943 C 0.41809 0.12128 0.56358
 C944 C 0.41234 0.08469 0.56099
 C945 C 0.39292 0.06958 0.58439
 C946 C 0.37876 0.09094 0.60958
 H947 H 0.23213 0.18871 0.71668
 H948 H 0.26382 0.15253 0.67458
 H949 H 0.36778 0.19666 0.68895
 H950 H 0.33570 0.23294 0.73141
 H951 H 0.32100 0.12567 0.64651
 H952 H 0.38184 0.17527 0.64232
 H953 H 0.40879 0.17071 0.59009
 H954 H 0.43342 0.13356 0.54608
 H955 H 0.38862 0.04130 0.58320
 H956 H 0.36435 0.07830 0.62736
 C957 C 0.31802 0.72691 0.21630
 C958 C 0.34012 0.70678 0.19325
 C959 C 0.32830 0.67590 0.18035
 C960 C 0.29390 0.66543 0.19128
 C961 C 0.27177 0.68563 0.21412
 C962 C 0.28365 0.71646 0.22707
 C963 C 0.35325 0.65477 0.15650
 C964 C 0.34152 0.63014 0.13823
 C965 C 0.36674 0.60854 0.11482
 C966 C 0.34960 0.59212 0.09160
 C967 C 0.37222 0.57174 0.06897
 C968 C 0.41252 0.56729 0.06917
 C969 C 0.42973 0.58281 0.09281
 C970 C 0.40717 0.60302 0.11546
 H971 H 0.32826 0.75021 0.22600
 H972 H 0.36667 0.71530 0.18553
 H973 H 0.28398 0.64138 0.18279
 H974 H 0.24510 0.67709 0.22144
 H975 H 0.38209 0.66083 0.15353
 H976 H 0.31179 0.62634 0.13939
 H977 H 0.31854 0.59546 0.09075
 H978 H 0.35817 0.55993 0.05111
 H979 H 0.46078 0.57943 0.09380
 H980 H 0.42170 0.61382 0.13348
   
