data_POSCAR
  _audit_creation_date              2014-09-24
  _audit_creation_method            'ToBaCCo'
  _symmetry_space_group_name_H-M    'P1'
  _symmetry_Int_Tables_number       1
  _symmetry_cell_setting            triclinic
  loop_
  _symmetry_equiv_pos_as_xyz
 x,y,z
_cell_length_a 25.5065
_cell_length_b 25.5069
_cell_length_c 25.5071
_cell_angle_alpha 90.237300
_cell_angle_beta 89.999800
_cell_angle_gamma 89.997900
loop_
  _atom_site_label
  _atom_site_type_symbol
  _atom_site_fract_x
  _atom_site_fract_y
  _atom_site_fract_z
C1 C 0.50030 1.00017 -0.64221
 C2 C 0.45345 1.00775 -0.61483
 C3 C 0.45364 1.00916 -0.55992
 C4 C 0.50031 1.00004 -0.53141
 C5 C 0.54697 0.99098 -0.56002
 C6 C 0.54716 0.99252 -0.61491
 C7 C 0.50031 0.99996 -0.47246
 C8 C 0.54692 1.00927 -0.44383
 C9 C 0.54706 1.00776 -0.38897
 C10 C 0.50031 0.99983 -0.36171
 C11 C 0.45356 0.99197 -0.38905
 C12 C 0.45369 0.99059 -0.44392
 H13 H 0.50030 1.00021 -0.68479
 H14 H 0.41716 1.01769 -0.54003
 H15 H 0.58345 0.98240 -0.54023
 H16 H 0.58342 1.01803 -0.46345
 H17 H 0.50031 0.99978 -0.31917
 H18 H 0.41719 0.98189 -0.46364
 C19 C -0.64218 1.49993 0.00025
 C20 C -0.61482 1.45313 0.00794
 C21 C -0.55991 1.45335 0.00942
 C22 C -0.53137 1.49998 0.00025
 C23 C -0.55996 1.54658 -0.00892
 C24 C -0.61486 1.54675 -0.00744
 C25 C -0.47243 1.50001 0.00025
 C26 C -0.44386 1.54669 0.00952
 C27 C -0.38900 1.54684 0.00807
 C28 C -0.36167 1.50006 0.00025
 C29 C -0.38895 1.45325 -0.00756
 C30 C -0.44381 1.45335 -0.00901
 H31 H -0.68477 1.49991 0.00024
 H32 H -0.54006 1.41694 0.01804
 H33 H -0.54014 1.58301 -0.01754
 H34 H -0.46355 1.58323 0.01818
 H35 H -0.31913 1.50008 0.00025
 H36 H -0.46347 1.41679 -0.01768
 C37 C 0.00015 0.35974 0.50004
 C38 C 0.00790 0.38691 0.45324
 C39 C 0.00937 0.44183 0.45349
 C40 C 0.00015 0.47052 0.50019
 C41 C -0.00906 0.44206 0.54677
 C42 C -0.00760 0.38720 0.54684
 C43 C 0.00014 0.52947 0.50029
 C44 C 0.00934 0.55816 0.54699
 C45 C 0.00785 0.61308 0.54723
 C46 C 0.00008 0.64025 0.50043
 C47 C -0.00766 0.61277 0.45363
 C48 C -0.00909 0.55792 0.45370
 H49 H 0.00013 0.31718 0.50014
 H50 H 0.01802 0.46156 0.41707
 H51 H -0.01769 0.46183 0.58332
 H52 H 0.01800 0.53843 0.58341
 H53 H 0.00005 0.68281 0.50033
 H54 H -0.01771 0.53814 0.41716
 O55 O -0.13431 1.00226 -0.07049
 O56 O 0.13497 0.99756 -0.07051
 O57 O -0.00197 1.07048 -0.13420
 O58 O 0.00262 0.92914 -0.13459
 O59 O 0.00256 0.86497 -0.07127
 O60 O -0.00199 1.13481 -0.07052
 O61 O 0.07140 0.99749 -0.13470
 O62 O -0.07075 1.00215 -0.13469
 Zr63 Zr 0.00032 0.99987 -0.09191
 O64 O 0.04775 0.95245 -0.04734
 O65 O -0.04712 1.04740 -0.04710
 C66 C -0.11923 1.00366 -0.11905
 C67 C 0.11988 0.99604 -0.11907
 C68 C -0.00344 1.11907 -0.11903
 C69 C 0.00405 0.88059 -0.11970
 H70 H 0.07018 1.06975 -0.06943
 O71 O 0.04780 1.04739 -0.04710
 H72 H -0.06958 0.93005 -0.06984
 O73 O -0.04718 0.95246 -0.04739
 O74 O 0.13498 1.00234 0.07085
 O75 O -0.13433 0.99782 0.07083
 O76 O 0.07097 1.13462 0.00292
 O77 O 0.07089 0.86531 -0.00244
 O78 O -0.07046 0.86538 0.00218
 O79 O -0.07038 1.13465 -0.00170
 O80 O 0.00263 1.07085 0.13509
 O81 O -0.00199 0.92950 0.13469
 O82 O 0.00263 1.13500 0.07175
 O83 O -0.00205 0.86518 0.07100
 O84 O 0.13525 1.07114 0.00270
 O85 O -0.13459 1.07111 -0.00192
 O86 O -0.13463 0.92897 0.00233
 O87 O 0.13521 0.92875 -0.00228
 O88 O 0.07151 1.00245 0.13515
 O89 O -0.07087 0.99787 0.13514
 Zr90 Zr 0.09249 0.99996 0.00020
 Zr91 Zr -0.09183 1.00002 0.00020
 Zr92 Zr 0.00031 1.09215 0.00050
 Zr93 Zr 0.00026 0.90783 -0.00002
 Zr94 Zr 0.00032 1.00012 0.09241
 O95 O -0.04715 0.95264 0.04755
 O96 O 0.04777 1.04748 0.04780
 C97 C 0.11999 1.00386 0.11943
 C98 C -0.11934 0.99640 0.11940
 C99 C 0.11954 1.11962 0.00431
 C100 C 0.11947 0.88028 -0.00386
 C101 C -0.11901 0.88048 0.00369
 C102 C -0.11894 1.11958 -0.00323
 C103 C 0.00409 1.11939 0.12018
 C104 C -0.00348 0.88092 0.11952
 H105 H -0.06955 1.06996 0.07028
 O106 O -0.04715 1.04754 0.04784
 H107 H 0.07015 0.93021 0.06988
 O108 O 0.04777 0.95258 0.04756
 C109 C 0.25474 1.01450 0.18108
 C110 C 0.24290 1.01342 0.23454
 C111 C 0.19059 1.00955 0.25081
 C112 C 0.15028 1.00657 0.21356
 C113 C 0.40758 1.01204 0.35809
 C114 C 0.21475 1.01148 0.14392
 C115 C 0.28515 1.01487 0.27194
 C116 C 0.32239 1.01520 0.30104
 C117 C 0.36774 1.01427 0.33274
 C118 C 0.16197 1.00725 0.15959
 H119 H 0.29507 1.01739 0.16803
 H120 H 0.18100 1.00854 0.29217
 H121 H 0.11014 1.00348 0.22701
 H122 H 0.22540 1.01239 0.10283
 C123 C -0.18999 0.99104 0.25073
 C124 C -0.24228 0.98693 0.23442
 C125 C -0.25409 0.98558 0.18094
 C126 C -0.21409 0.98858 0.14381
 C127 C -0.40697 0.98827 0.35796
 C128 C -0.14967 0.99399 0.21351
 C129 C -0.28453 0.98549 0.27179
 C130 C -0.32179 0.98515 0.30088
 C131 C -0.36713 0.98607 0.33259
 C132 C -0.16133 0.99305 0.15953
 H133 H -0.18042 0.99225 0.29210
 H134 H -0.29440 0.98250 0.16786
 H135 H -0.22471 0.98746 0.10272
 H136 H -0.10954 0.99727 0.22699
 C137 C -0.25366 1.01407 -0.18138
 C138 C -0.24140 1.01348 -0.23478
 C139 C -0.18898 1.00995 -0.25073
 C140 C -0.14895 1.00683 -0.21325
 C141 C -0.40462 1.01250 -0.36017
 C142 C -0.21392 1.01091 -0.14397
 C143 C -0.28329 1.01512 -0.27254
 C144 C -0.32017 1.01556 -0.30208
 C145 C -0.36508 1.01471 -0.33438
 C146 C -0.16102 1.00705 -0.15935
 H147 H -0.29410 1.01668 -0.16860
 H148 H -0.17908 1.00933 -0.29203
 H149 H -0.10870 1.00405 -0.22648
 H150 H -0.22484 1.01143 -0.10294
 C151 C 0.25432 0.98582 -0.18150
 C152 C 0.24204 0.98615 -0.23490
 C153 C 0.18960 0.98944 -0.25081
 C154 C 0.14957 0.99258 -0.21330
 C155 C 0.40524 0.98718 -0.36030
 C156 C 0.21459 0.98900 -0.14406
 C157 C 0.28392 0.98450 -0.27267
 C158 C 0.32079 0.98407 -0.30223
 C159 C 0.36570 0.98494 -0.33452
 C160 C 0.16167 0.99262 -0.15940
 H161 H 0.29477 0.98340 -0.16874
 H162 H 0.17968 0.98987 -0.29210
 H163 H 0.10931 0.99518 -0.22650
 H164 H 0.22552 0.98868 -0.10304
 C165 C 0.25091 1.19026 0.00956
 C166 C 0.23462 1.24255 0.01392
 C167 C 0.18115 1.25436 0.01554
 C168 C 0.14400 1.21436 0.01252
 C169 C 0.35810 1.40727 0.01229
 C170 C 0.21366 1.14994 0.00660
 C171 C 0.27200 1.28482 0.01530
 C172 C 0.30108 1.32208 0.01557
 C173 C 0.33277 1.36743 0.01457
 C174 C 0.15969 1.16160 0.00777
 H175 H 0.29226 1.18070 0.00814
 H176 H 0.16809 1.29468 0.01881
 H177 H 0.10292 1.22498 0.01383
 H178 H 0.22712 1.10981 0.00309
 C179 C 0.25080 0.80957 -0.00907
 C180 C 0.23449 0.75729 -0.01344
 C181 C 0.18102 0.74550 -0.01506
 C182 C 0.14389 0.78552 -0.01205
 C183 C 0.35801 0.59258 -0.01180
 C184 C 0.21358 0.84991 -0.00612
 C185 C 0.27186 0.71501 -0.01481
 C186 C 0.30094 0.67775 -0.01508
 C187 C 0.33265 0.63241 -0.01408
 C188 C 0.15959 0.83828 -0.00730
 H189 H 0.29216 0.81911 -0.00764
 H190 H 0.16794 0.70520 -0.01833
 H191 H 0.10280 0.77492 -0.01337
 H192 H 0.22705 0.89003 -0.00261
 C193 C -0.18144 0.74608 0.01357
 C194 C -0.23483 0.75839 0.01348
 C195 C -0.25074 0.81084 0.01040
 C196 C -0.21323 0.85084 0.00727
 C197 C -0.36024 0.59520 0.01275
 C198 C -0.14400 0.78579 0.01040
 C199 C -0.27261 0.71653 0.01519
 C200 C -0.30217 0.67967 0.01569
 C201 C -0.33446 0.63476 0.01490
 C202 C -0.15934 0.83872 0.00702
 H203 H -0.16868 0.70563 0.01583
 H204 H -0.29203 0.82078 0.01017
 H205 H -0.22644 0.89111 0.00487
 H206 H -0.10298 0.77484 0.01055
 C207 C -0.18131 1.25402 -0.01313
 C208 C -0.23470 1.24174 -0.01300
 C209 C -0.25064 1.18930 -0.00989
 C210 C -0.21315 1.14928 -0.00677
 C211 C -0.36015 1.40491 -0.01225
 C212 C -0.14388 1.21429 -0.00997
 C213 C -0.27247 1.28361 -0.01469
 C214 C -0.30203 1.32048 -0.01519
 C215 C -0.33435 1.36537 -0.01440
 C216 C -0.15925 1.16137 -0.00656
 H217 H -0.16853 1.29446 -0.01541
 H218 H -0.29193 1.17938 -0.00962
 H219 H -0.22637 1.10902 -0.00434
 H220 H -0.10286 1.22522 -0.01015
 C221 C 0.01449 1.18156 0.25496
 C222 C 0.01370 1.23498 0.24305
 C223 C 0.01008 1.25103 0.19073
 C224 C 0.00707 1.21360 0.15045
 C225 C 0.01229 1.35962 0.40739
 C226 C 0.01142 1.14422 0.21499
 C227 C 0.01520 1.27262 0.28523
 C228 C 0.01553 1.30197 0.32239
 C229 C 0.01457 1.33402 0.36762
 C230 C 0.00746 1.15968 0.16218
 H231 H 0.01717 1.16870 0.29531
 H232 H 0.00930 1.29234 0.18110
 H233 H 0.00419 1.22689 0.11029
 H234 H 0.01210 1.10318 0.22566
 C235 C -0.00947 1.25051 -0.18883
 C236 C -0.01319 1.23433 -0.24124
 C237 C -0.01401 1.18088 -0.25345
 C238 C -0.01089 1.14364 -0.21369
 C239 C -0.01225 1.35863 -0.40481
 C240 C -0.00640 1.21320 -0.14877
 C241 C -0.01479 1.27186 -0.28320
 C242 C -0.01522 1.30114 -0.32017
 C243 C -0.01440 1.33310 -0.36520
 C244 C -0.00683 1.15924 -0.16081
 H245 H -0.00867 1.29185 -0.17897
 H246 H -0.01677 1.16791 -0.29387
 H247 H -0.01160 1.10257 -0.22459
 H248 H -0.00345 1.22659 -0.10854
 C249 C 0.00987 0.74896 -0.19027
 C250 C 0.01367 0.76501 -0.24258
 C251 C 0.01465 0.81843 -0.25446
 C252 C 0.01158 0.85577 -0.21449
 C253 C 0.01224 0.64037 -0.40692
 C254 C 0.00686 0.78638 -0.14998
 C255 C 0.01516 0.72738 -0.28476
 C256 C 0.01549 0.69803 -0.32192
 C257 C 0.01452 0.66598 -0.36715
 C258 C 0.00743 0.84031 -0.16170
 H259 H 0.00895 0.70764 -0.18065
 H260 H 0.01747 0.83130 -0.29480
 H261 H 0.01241 0.89681 -0.22514
 H262 H 0.00384 0.77309 -0.10983
 C263 C -0.00966 0.74947 0.18930
 C264 C -0.01323 0.76564 0.24172
 C265 C -0.01389 0.81909 0.25394
 C266 C -0.01077 0.85633 0.21419
 C267 C -0.01230 0.64135 0.40528
 C268 C -0.00658 0.78679 0.14924
 C269 C -0.01483 0.72811 0.28367
 C270 C -0.01528 0.69883 0.32064
 C271 C -0.01445 0.66687 0.36567
 C272 C -0.00687 0.84074 0.16129
 H273 H -0.00898 0.70813 0.17942
 H274 H -0.01653 0.83206 0.29437
 H275 H -0.01135 0.89740 0.22510
 H276 H -0.00376 0.77340 0.10900
   
