data_POSCAR
  _audit_creation_date              2014-09-24
  _audit_creation_method            'ToBaCCo'
  _symmetry_space_group_name_H-M    'P1'
  _symmetry_Int_Tables_number       1
  _symmetry_cell_setting            triclinic
  loop_
  _symmetry_equiv_pos_as_xyz
 x,y,z
_cell_length_a 19.9600
_cell_length_b 19.9601
_cell_length_c 19.9600
_cell_angle_alpha 81.755100
_cell_angle_beta 98.240400
_cell_angle_gamma 81.752200
loop_
  _atom_site_label
  _atom_site_type_symbol
  _atom_site_fract_x
  _atom_site_fract_y
  _atom_site_fract_z
O1 O 0.60813 0.47787 0.03358
 O2 O 0.43351 0.47779 0.07361
 O3 O 0.52188 0.39083 0.03259
 O4 O 0.51965 0.56465 0.07450
 O5 O 0.47587 0.60897 -0.03342
 O6 O 0.47811 0.43515 -0.07533
 O7 O 0.38963 0.52184 -0.03427
 O8 O 0.56419 0.52200 -0.07433
 Cu9 Cu 0.52518 0.47330 0.06440
 Cu10 Cu 0.47253 0.52648 -0.06515
 C11 C 0.61583 0.50064 -0.02715
 C12 C 0.38179 0.49908 0.02647
 C13 C 0.49974 0.38341 -0.02838
 C14 C 0.49810 0.61639 0.02753
 O15 O -0.03388 0.61024 0.47817
 O16 O -0.07392 0.43572 0.47788
 O17 O -0.07476 0.52170 0.56482
 O18 O -0.03283 0.52405 0.39098
 O19 O 0.07506 0.48018 0.43530
 O20 O 0.03318 0.47801 0.60911
 O21 O 0.03397 0.39174 0.52208
 O22 O 0.07403 0.56637 0.52211
 Cu23 Cu -0.06466 0.52733 0.47345
 Cu24 Cu 0.06489 0.47467 0.52662
 C25 C 0.02685 0.61809 0.50094
 C26 C -0.02677 0.38406 0.49933
 C27 C -0.02778 0.50015 0.61656
 C28 C 0.02812 0.50182 0.38356
 O29 O 0.47811 0.07339 0.56645
 O30 O 0.47818 0.03334 0.39184
 O31 O 0.39118 0.03239 0.47811
 O32 O 0.56499 0.07428 0.48031
 O33 O 0.60932 -0.03362 0.52414
 O34 O 0.43549 -0.07555 0.52184
 O35 O 0.52237 -0.07457 0.43579
 O36 O 0.52210 -0.03451 0.61034
 Cu37 Cu 0.47365 0.06418 0.47479
 Cu38 Cu 0.52683 -0.06537 0.52744
 C39 C 0.49931 0.02622 0.61818
 C40 C 0.50093 -0.02740 0.38414
 C41 C 0.38375 -0.02858 0.50024
 C42 C 0.61674 0.02733 0.50190
 C43 C 0.50875 -0.01643 -0.06599
 C44 C 0.49035 -0.06545 -0.01641
 C45 C 0.48095 -0.04813 0.04787
 C46 C 0.49149 0.01590 0.06495
 C47 C 0.50972 0.06498 0.01531
 C48 C 0.51909 0.04768 -0.04900
 H49 H 0.53719 0.08361 -0.08534
 H50 H 0.46273 -0.08399 0.08417
 C51 C -0.01549 0.51062 1.06527
 C52 C -0.06511 0.49231 1.01622
 C53 C -0.04803 0.48178 0.95218
 C54 C 0.01623 0.49122 0.93485
 C55 C 0.06583 0.50956 0.98388
 C56 C 0.04883 0.51995 1.04798
 H57 H 0.08519 0.53805 1.08388
 H58 H -0.08430 0.46355 0.91631
 C59 C 0.06536 0.01522 0.49050
 C60 C 0.01630 0.06486 0.50875
 C61 C -0.04775 0.04780 0.51927
 C62 C -0.06506 -0.01649 0.50988
 C63 C -0.01604 -0.06608 0.49149
 C64 C 0.04807 -0.04907 0.48111
 H65 H 0.08398 -0.08541 0.46299
 H66 H -0.08362 0.08410 0.53748
 C67 C -0.31509 0.50409 0.95618
 C68 C -0.25821 0.48720 1.00361
 C69 C -0.19073 0.49615 0.98523
 C70 C -0.13358 0.48109 1.03249
 H71 H -0.26153 0.46823 1.05651
 H72 H -0.18840 0.51766 0.93277
 H73 H -0.31121 0.52339 0.90350
 H74 H -0.13760 0.46203 1.08515
 C75 C 0.31631 0.49581 1.04235
 C76 C 0.25887 0.51440 0.99556
 C77 C 0.19154 0.50544 1.01437
 C78 C 0.13415 0.52103 0.96744
 H79 H 0.26139 0.53466 0.94274
 H80 H 0.18947 0.48339 1.06676
 H81 H 0.31245 0.47547 1.09480
 H82 H 0.13787 0.54056 0.91480
 C83 C 0.04267 -0.31644 0.50438
 C84 C -0.00421 -0.25904 0.48607
 C85 C 0.01453 -0.19174 0.49526
 C86 C -0.03247 -0.13438 0.47993
 H87 H -0.05704 -0.26158 0.46587
 H88 H 0.06693 -0.18968 0.51725
 H89 H 0.09513 -0.31256 0.52468
 H90 H -0.08511 -0.13811 0.46047
 C91 C -0.04351 0.31498 0.49602
 C92 C 0.00381 0.25803 0.51330
 C93 C -0.01462 0.19053 0.50456
 C94 C 0.03257 0.13333 0.51991
 H95 H 0.05669 0.26131 0.53243
 H96 H -0.06706 0.18820 0.48294
 H97 H -0.09616 0.31115 0.47658
 H98 H 0.08521 0.13733 0.53907
 C99 C 0.49588 0.04208 -0.31637
 C100 C 0.51422 -0.00475 -0.25893
 C101 C 0.50502 0.01405 -0.19165
 C102 C 0.52035 -0.03290 -0.13427
 H103 H 0.53443 -0.05759 -0.26144
 H104 H 0.48301 0.06646 -0.18964
 H105 H 0.47555 0.09454 -0.31252
 H106 H 0.53983 -0.08556 -0.13796
 C107 C 0.50425 -0.04410 0.31505
 C108 C 0.48701 0.00327 0.25814
 C109 C 0.49574 -0.01510 0.19062
 C110 C 0.48037 0.03214 0.13345
 H111 H 0.46789 0.05614 0.26146
 H112 H 0.51735 -0.06753 0.18824
 H113 H 0.52368 -0.09675 0.31118
 H114 H 0.46123 0.08477 0.13749
 C115 C 0.50093 -0.31468 0.04451
 C116 C 0.48393 -0.25793 -0.00296
 C117 C 0.49321 -0.19059 0.01519
 C118 C 0.47815 -0.13367 -0.03226
 H119 H 0.46497 -0.26130 -0.05585
 H120 H 0.51523 -0.18822 0.06750
 H121 H 0.52021 -0.31082 0.09720
 H122 H 0.45863 -0.13777 -0.08479
 C123 C 0.49717 0.31446 -0.04543
 C124 C 0.51489 0.25764 0.00190
 C125 C 0.50604 0.19021 -0.01627
 C126 C 0.52173 0.13325 0.03111
 H127 H 0.53417 0.26100 0.05473
 H128 H 0.48376 0.18778 -0.06849
 H129 H 0.47764 0.31061 -0.09806
 H130 H 0.54152 0.13737 0.08356
 C131 C -0.31434 0.04433 0.49910
 C132 C -0.25756 -0.00310 0.51620
 C133 C -0.19021 0.01507 0.50697
 C134 C -0.13328 -0.03236 0.52207
 H135 H -0.26092 -0.05600 0.53519
 H136 H -0.18786 0.06738 0.48493
 H137 H -0.31049 0.09702 0.47979
 H138 H -0.13737 -0.08488 0.54161
 C139 C 0.31481 -0.04562 0.50283
 C140 C 0.25801 0.00175 0.48520
 C141 C 0.19058 -0.01639 0.49410
 C142 C 0.13363 0.03101 0.47847
 H143 H 0.26139 0.05458 0.46597
 H144 H 0.18815 -0.06862 0.51636
 H145 H 0.31094 -0.09825 0.52233
 H146 H 0.13777 0.08346 0.45870
 C147 C 0.04517 0.49912 1.31463
 C148 C -0.00219 0.51652 1.25781
 C149 C 0.01601 0.50742 1.19045
 C150 C -0.03136 0.52280 1.13348
 H151 H -0.05506 0.53568 1.26115
 H152 H 0.06828 0.48522 1.18810
 H153 H 0.09783 0.47967 1.31080
 H154 H -0.08384 0.54252 1.13755
 C155 C -0.04476 0.50284 0.68551
 C156 C 0.00268 0.48550 0.74226
 C157 C -0.01543 0.49453 0.80967
 C158 C 0.03203 0.47917 0.86658
 H159 H 0.05554 0.46642 0.73885
 H160 H -0.06770 0.51664 0.81211
 H161 H -0.09743 0.52220 0.68940
 H162 H 0.08452 0.45956 0.86242
   
