data_POSCAR
  _audit_creation_date              2014-09-24
  _audit_creation_method            'ToBaCCo'
  _symmetry_space_group_name_H-M    'P1'
  _symmetry_Int_Tables_number       1
  _symmetry_cell_setting            triclinic
  loop_
  _symmetry_equiv_pos_as_xyz
 x,y,z
_cell_length_a 57.3093
_cell_length_b 57.2489
_cell_length_c 57.0993
_cell_angle_alpha 90.020100
_cell_angle_beta 89.864600
_cell_angle_gamma 89.911200
loop_
  _atom_site_label
  _atom_site_type_symbol
  _atom_site_fract_x
  _atom_site_fract_y
  _atom_site_fract_z
Si1 Si 0.24930 0.50109 0.99664
 Si2 Si 0.74944 0.49954 0.00284
 Si3 Si 0.00062 0.24919 0.50072
 Si4 Si 1.00097 0.75028 0.49876
 Si5 Si 0.49906 0.00050 0.25015
 Si6 Si 0.50183 -0.00029 0.75051
 C7 C 0.28622 0.01704 0.47451
 H8 H 0.28675 0.03034 0.48797
 C9 C 0.30187 0.01792 0.45576
 H10 H 0.31446 0.03198 0.45468
 C11 C 0.26957 -0.01788 0.45973
 H12 H 0.25728 -0.03204 0.46157
 C13 C 0.28493 -0.01767 0.44069
 H14 H 0.28426 -0.03154 0.42780
 N15 N 0.27037 -0.00057 0.47607
 C16 C 0.21467 0.02687 0.52050
 H17 H 0.21406 0.01344 0.53381
 C18 C 0.19887 0.04545 0.52125
 H19 H 0.18608 0.04641 0.53521
 C20 C 0.23171 0.04179 0.48568
 H21 H 0.24423 0.04008 0.47163
 C22 C 0.21621 0.06066 0.48578
 H23 H 0.21699 0.07354 0.47191
 Zn24 Zn 0.25068 -0.00096 0.50273
 N25 N 0.23077 0.02545 0.50299
 C26 C 0.26908 0.01638 0.54564
 N27 N 0.27027 -0.00097 0.52937
 C28 C 0.28645 -0.01832 0.53097
 C29 C 0.30204 -0.01887 0.54972
 C30 C 0.28436 0.01649 0.56467
 C31 C 0.21533 -0.02943 0.48504
 C32 C 0.19986 -0.04824 0.48436
 C33 C 0.21734 -0.06310 0.51985
 C34 C 0.23250 -0.04401 0.51988
 N35 N 0.23133 -0.02773 0.50253
 H36 H 0.25652 0.03034 0.54375
 H37 H 0.28729 -0.03165 0.51756
 H38 H 0.31490 -0.03272 0.55083
 H39 H 0.28339 0.03040 0.57750
 H40 H 0.21452 -0.01604 0.47171
 H41 H 0.18713 -0.04942 0.47042
 H42 H 0.21829 -0.07593 0.53376
 H43 H 0.24493 -0.04208 0.53393
 C44 C 0.19965 0.06247 0.50371
 C45 C 0.30122 0.00040 0.43871
 C46 C 0.20087 -0.06520 0.50194
 C47 C 0.30098 -0.00131 0.56670
 C48 C 0.71427 0.01790 0.52536
 H49 H 0.71360 0.03111 0.51183
 C50 C 0.69831 0.01850 0.54386
 H51 H 0.68533 0.03226 0.54466
 C52 C 0.73160 -0.01656 0.54055
 H53 H 0.74429 -0.03043 0.53896
 C54 C 0.71594 -0.01660 0.55936
 H55 H 0.71676 -0.03040 0.57231
 N56 N 0.73057 0.00064 0.52411
 C57 C 0.78604 0.02925 0.48031
 H58 H 0.78703 0.01595 0.46687
 C59 C 0.80150 0.04807 0.47990
 H60 H 0.81441 0.04936 0.46607
 C61 C 0.76844 0.04354 0.51513
 H62 H 0.75587 0.04147 0.52909
 C63 C 0.78359 0.06264 0.51539
 H64 H 0.78248 0.07534 0.52942
 Zn65 Zn 0.75056 0.00057 0.49768
 N66 N 0.76983 0.02740 0.49767
 C67 C 0.73212 0.01735 0.45453
 N68 N 0.73123 0.00005 0.47086
 C69 C 0.71545 -0.01761 0.46925
 C70 C 0.69992 -0.01852 0.45047
 C71 C 0.71688 0.01710 0.43546
 C72 C 0.78638 -0.02707 0.51580
 C73 C 0.80237 -0.04547 0.51664
 C74 C 0.78568 -0.06080 0.48098
 C75 C 0.76997 -0.04210 0.48080
 N76 N 0.77053 -0.02578 0.49815
 H77 H 0.74436 0.03154 0.45642
 H78 H 0.71485 -0.03090 0.48271
 H79 H 0.68735 -0.03259 0.44938
 H80 H 0.71757 0.03100 0.42261
 H81 H 0.78669 -0.01364 0.52913
 H82 H 0.81502 -0.04629 0.53069
 H83 H 0.78526 -0.07363 0.46704
 H84 H 0.75765 -0.04047 0.46662
 C85 C 0.80028 0.06489 0.49763
 C86 C 0.69915 0.00108 0.56098
 C87 C 0.80204 -0.06245 0.49904
 C88 C 0.70063 -0.00098 0.43345
 C89 C 0.48134 0.21545 1.02874
 H90 H 0.46809 0.21450 1.01531
 C91 C 0.48089 0.19982 1.04750
 H92 H 0.46722 0.18682 1.04860
 C93 C 0.51580 0.23306 1.04338
 H94 H 0.52965 0.24569 1.04146
 C95 C 0.51600 0.21775 1.06243
 H96 H 0.52988 0.21877 1.07523
 N97 N 0.49856 0.23171 1.02707
 C98 C 0.47033 0.28611 0.98173
 H99 H 0.48376 0.28667 0.96840
 C100 C 0.45152 0.30161 0.98073
 H101 H 0.45038 0.31411 0.96654
 C102 C 0.45564 0.26953 1.01686
 H103 H 0.45753 0.25731 1.03113
 C104 C 0.43655 0.28474 1.01653
 H105 H 0.42369 0.28406 1.03044
 Zn106 Zn 0.49873 0.25099 1.00014
 N107 N 0.47198 0.27039 0.99952
 C108 C 0.48228 0.23158 0.95725
 N109 N 0.49934 0.23091 0.97380
 C110 C 0.51689 0.21491 0.97272
 C111 C 0.51796 0.19894 0.95426
 C112 C 0.48271 0.21591 0.93848
 C113 C 0.52650 0.28715 1.01744
 C114 C 0.54518 0.30276 1.01810
 C115 C 0.56059 0.28479 0.98300
 C116 C 0.54160 0.26950 0.98299
 N117 N 0.52514 0.27082 1.00018
 H118 H 0.46817 0.24401 0.95871
 H119 H 0.52998 0.21450 0.98634
 H120 H 0.53196 0.18622 0.95358
 H121 H 0.46904 0.21647 0.92541
 H122 H 0.51297 0.28806 1.03066
 H123 H 0.54613 0.31572 1.03190
 H124 H 0.57360 0.28367 0.96926
 H125 H 0.53995 0.25680 0.96911
 C126 C 0.43451 0.30094 0.99831
 C127 C 0.49842 0.20094 1.06445
 C128 C 0.56237 0.30156 1.00072
 C129 C 0.50071 0.19945 0.93700
 C130 C 0.48285 0.78513 -0.02832
 H131 H 0.46919 0.78582 -0.01523
 C132 C 0.48254 0.80067 -0.04716
 H133 H 0.46857 0.81334 -0.04866
 C134 C 0.51808 0.76815 -0.04212
 H135 H 0.53213 0.75577 -0.03986
 C136 C 0.51844 0.78340 -0.06122
 H137 H 0.53266 0.78257 -0.07373
 N138 N 0.50034 0.76917 -0.02624
 C139 C 0.47149 0.71386 0.01764
 H140 H 0.48459 0.71319 0.03125
 C141 C 0.45279 0.69826 0.01805
 H142 H 0.45140 0.68556 0.03203
 C143 C 0.45755 0.73087 -0.01754
 H144 H 0.45969 0.74329 -0.03160
 C145 C 0.43858 0.71557 -0.01780
 H146 H 0.42604 0.71641 -0.03194
 Zn147 Zn 0.49994 0.74957 0.00048
 N148 N 0.47344 0.72986 0.00013
 C149 C 0.48169 0.76821 0.04302
 N150 N 0.49938 0.76929 0.02711
 C151 C 0.51670 0.78541 0.02908
 C152 C 0.51683 0.80110 0.04781
 C153 C 0.48116 0.78360 0.06202
 C154 C 0.52875 0.71394 -0.01651
 C155 C 0.54755 0.69839 -0.01673
 C156 C 0.56135 0.71580 0.01922
 C157 C 0.54229 0.73105 0.01877
 N158 N 0.52657 0.72997 0.00096
 H159 H 0.46779 0.75569 0.04087
 H160 H 0.53034 0.78613 0.01597
 H161 H 0.53062 0.81394 0.04919
 H162 H 0.46695 0.78274 0.07454
 H163 H 0.51577 0.71319 -0.03021
 H164 H 0.54913 0.68565 -0.03067
 H165 H 0.57374 0.71669 0.03349
 H166 H 0.53995 0.74348 0.03281
 C167 C 0.43620 0.69913 0.00016
 C168 C 0.50051 0.79980 -0.06374
 C169 C 0.56397 0.69933 0.00131
 C170 C 0.49888 0.80019 0.06441
 C171 C 1.03015 0.48118 0.21399
 H172 H 1.01696 0.46769 0.21349
 C173 C 1.04873 0.48062 0.19814
 H174 H 1.04993 0.46663 0.18541
 C175 C 1.04443 0.51625 0.23079
 H176 H 1.04246 0.53034 0.24321
 C177 C 1.06329 0.51636 0.21523
 H178 H 1.07591 0.53042 0.21587
 N179 N 1.02843 0.49872 0.23000
 C180 C 0.98492 0.47042 0.28597
 H181 H 0.97142 0.48363 0.28672
 C182 C 0.98460 0.45178 0.30173
 H183 H 0.97076 0.45054 0.31463
 C184 C 1.01981 0.45616 0.26864
 H185 H 1.03374 0.45815 0.25604
 C186 C 1.02015 0.43724 0.28410
 H187 H 1.03421 0.42460 0.28319
 Zn188 Zn 1.00197 0.49867 0.24990
 N189 N 1.00226 0.47218 0.26973
 C190 C 0.95912 0.48118 0.23169
 N191 N 0.97533 0.49850 0.23037
 C192 C 0.97360 0.51584 0.21416
 C193 C 0.95480 0.51643 0.19868
 C194 C 0.94002 0.48113 0.21652
 C195 C 1.01938 0.52737 0.28538
 C196 C 1.01979 0.54617 0.30096
 C197 C 0.98396 0.56035 0.28378
 C198 C 0.98422 0.54129 0.26850
 N199 N 1.00186 0.52536 0.26946
 H200 H 0.96108 0.46726 0.24428
 H201 H 0.98695 0.52915 0.21325
 H202 H 0.95358 0.53028 0.18581
 H203 H 0.92721 0.46727 0.21761
 H204 H 1.03296 0.51424 0.28602
 H205 H 1.03377 0.54761 0.31361
 H206 H 0.96981 0.57290 0.28300
 H207 H 0.97015 0.53910 0.25615
 C208 C 1.00239 0.43506 0.30078
 C209 C 1.06543 0.49839 0.19876
 C210 C 1.00190 0.56278 0.30016
 C211 C 0.93786 0.49892 0.19988
 C212 C -0.03078 0.48324 0.78582
 H213 H -0.01726 0.47005 0.78643
 C214 C -0.04930 0.48248 0.80174
 H215 H -0.05011 0.46862 0.81463
 C216 C -0.04598 0.51778 0.76866
 H217 H -0.04440 0.53175 0.75606
 C218 C -0.06480 0.51767 0.78428
 H219 H -0.07777 0.53144 0.78351
 N220 N -0.02955 0.50061 0.76960
 C221 C 0.01432 0.47256 0.71370
 H222 H 0.02749 0.48605 0.71274
 C223 C 0.01507 0.45372 0.69818
 H224 H 0.02888 0.45262 0.68524
 C225 C -0.02010 0.45773 0.73138
 H226 H -0.03401 0.45956 0.74404
 C227 C -0.02001 0.43860 0.71617
 H228 H -0.03373 0.42565 0.71730
 Zn229 Zn -0.00317 0.50083 0.74957
 N230 N -0.00298 0.47414 0.72999
 C231 C 0.03986 0.48388 0.76782
 N232 N 0.02356 0.50117 0.76897
 C233 C 0.02521 0.51869 0.78499
 C234 C 0.04402 0.51949 0.80046
 C235 C 0.05896 0.48401 0.78299
 C236 C -0.02122 0.52886 0.71385
 C237 C -0.02206 0.54748 0.69808
 C238 C 0.01346 0.56252 0.71508
 C239 C 0.01365 0.54361 0.73055
 N240 N -0.00365 0.52734 0.72976
 H241 H 0.03795 0.46978 0.75540
 H242 H 0.01178 0.53198 0.78579
 H243 H 0.04517 0.53347 0.81320
 H244 H 0.07181 0.47015 0.78205
 H245 H -0.03451 0.51546 0.71334
 H246 H -0.03607 0.54851 0.68541
 H247 H 0.02734 0.57533 0.71571
 H248 H 0.02777 0.54181 0.74289
 C249 C -0.00227 0.43661 0.69942
 C250 C -0.06645 0.49986 0.80096
 C251 C -0.00454 0.56444 0.69870
 C252 C 0.06103 0.50198 0.79945
 C253 C 0.02592 0.23016 0.50164
 C254 C 0.04233 0.21700 0.50232
 C255 C 0.06155 0.20084 0.50316
 C256 C 0.06181 0.18311 0.52002
 C257 C 0.08003 0.16687 0.52044
 C258 C 0.09827 0.16812 0.50394
 C259 C 0.09796 0.18615 0.48718
 C260 C 0.07971 0.20239 0.48682
 C261 C 0.11719 0.15036 0.50391
 C262 C 0.12557 0.14102 0.48269
 C263 C 0.14277 0.12368 0.48269
 C264 C 0.15187 0.11547 0.50387
 C265 C 0.14387 0.12483 0.52506
 C266 C 0.12665 0.14216 0.52510
 C267 C 0.16898 0.09704 0.50386
 C268 C 0.18309 0.08139 0.50381
 H269 H 0.04777 0.18167 0.53268
 H270 H 0.07959 0.15302 0.53334
 H271 H 0.11189 0.18775 0.47444
 H272 H 0.07969 0.21607 0.47371
 H273 H 0.11844 0.14674 0.46610
 H274 H 0.14878 0.11649 0.46619
 H275 H 0.15082 0.11863 0.54156
 H276 H 0.12078 0.14921 0.54170
 C277 C 0.73112 0.52537 0.00343
 C278 C 0.71836 0.54212 0.00382
 C279 C 0.70261 0.56170 0.00426
 C280 C 0.70314 0.57830 -0.01372
 C281 C 0.68705 0.59669 -0.01384
 C282 C 0.67022 0.59870 0.00403
 C283 C 0.67007 0.58210 0.02220
 C284 C 0.68614 0.56372 0.02228
 C285 C 0.65245 0.61760 0.00342
 C286 C 0.64565 0.62915 0.02410
 C287 C 0.62824 0.64628 0.02359
 C288 C 0.61742 0.65210 0.00244
 C289 C 0.62422 0.64089 -0.01826
 C290 C 0.64164 0.62377 -0.01780
 C291 C 0.59887 0.66907 0.00206
 C292 C 0.58308 0.68301 0.00173
 H293 H 0.71583 0.57690 -0.02774
 H294 H 0.68779 0.60936 -0.02790
 H295 H 0.65714 0.58298 0.03603
 H296 H 0.68551 0.55089 0.03620
 H297 H 0.65383 0.62497 0.04065
 H298 H 0.62311 0.65487 0.03972
 H299 H 0.61587 0.64517 -0.03472
 H300 H 0.64625 0.61497 -0.03395
 C301 C 0.97600 -0.23025 0.49835
 C302 C 0.96000 -0.21659 0.49816
 C303 C 0.94143 -0.19965 0.49801
 C304 C 0.94657 -0.17610 0.49402
 C305 C 0.92875 -0.15943 0.49422
 C306 C 0.90549 -0.16608 0.49844
 C307 C 0.90046 -0.18983 0.50229
 C308 C 0.91835 -0.20650 0.50211
 C309 C 0.88665 -0.14825 0.49895
 C310 C 0.86486 -0.15274 0.48856
 C311 C 0.84731 -0.13571 0.48876
 C312 C 0.85130 -0.11405 0.49937
 C313 C 0.87284 -0.10949 0.50988
 C314 C 0.89040 -0.12645 0.50969
 C315 C 0.83352 -0.09627 0.49922
 C316 C 0.81898 -0.08103 0.49912
 H317 H 0.96437 -0.17061 0.49079
 H318 H 0.93314 -0.14134 0.49086
 H319 H 0.88278 -0.19546 0.50585
 H320 H 0.91420 -0.22468 0.50530
 H321 H 0.86154 -0.16924 0.47992
 H322 H 0.83072 -0.13939 0.48049
 H323 H 0.87610 -0.09280 0.51819
 H324 H 0.90685 -0.12259 0.51812
 C325 C 0.26777 0.47535 0.99616
 C326 C 0.28058 0.45865 0.99582
 C327 C 0.29635 0.43908 0.99545
 C328 C 0.31277 0.43696 0.97739
 C329 C 0.32879 0.41853 0.97748
 C330 C 0.32863 0.40197 0.99569
 C331 C 0.31185 0.40408 1.01360
 C332 C 0.29583 0.42253 1.01347
 C333 C 0.34633 0.38299 0.99630
 C334 C 0.35704 0.37668 1.01753
 C335 C 0.37437 0.35947 1.01799
 C336 C 0.38119 0.34831 0.99727
 C337 C 0.37045 0.35424 0.97610
 C338 C 0.35313 0.37146 0.97560
 C339 C 0.39968 0.33127 0.99765
 C340 C 0.41542 0.31728 0.99796
 H341 H 0.31340 0.44974 0.96341
 H342 H 0.34167 0.41757 0.96361
 H343 H 0.31109 0.39145 1.02769
 H344 H 0.28317 0.42400 1.02752
 H345 H 0.35243 0.38545 1.03371
 H346 H 0.38265 0.35509 1.03446
 H347 H 0.37560 0.34570 0.95996
 H348 H 0.34501 0.37572 0.95903
 C349 C 0.97468 0.23110 0.49996
 C350 C 0.95789 0.21846 0.49941
 C351 C 0.93826 0.20284 0.49875
 C352 C 0.92244 0.20215 0.51744
 C353 C 0.90399 0.18620 0.51725
 C354 C 0.90113 0.17070 0.49834
 C355 C 0.91697 0.17175 0.47950
 C356 C 0.93541 0.18769 0.47973
 C357 C 0.88214 0.15306 0.49851
 C358 C 0.86979 0.14783 0.47789
 C359 C 0.85258 0.13053 0.47788
 C360 C 0.84749 0.11825 0.49845
 C361 C 0.85946 0.12352 0.51911
 C362 C 0.87665 0.14082 0.51917
 C363 C 0.83051 0.09975 0.49819
 C364 C 0.81658 0.08399 0.49794
 H365 H 0.92449 0.21381 0.53224
 H366 H 0.89192 0.18601 0.53187
 H367 H 0.91544 0.15985 0.46484
 H368 H 0.94764 0.18798 0.46523
 H369 H 0.87341 0.15713 0.46179
 H370 H 0.84340 0.12661 0.46180
 H371 H 0.85573 0.11405 0.53510
 H372 H 0.88606 0.14421 0.53523
 C373 C 0.26789 0.52668 -0.00334
 C374 C 0.28081 0.54326 -0.00325
 C375 C 0.29673 0.56266 -0.00307
 C376 C 0.30974 0.56799 -0.02313
 C377 C 0.32602 0.58615 -0.02267
 C378 C 0.32955 0.59919 -0.00209
 C379 C 0.31616 0.59388 0.01791
 C380 C 0.29987 0.57572 0.01740
 C381 C 0.34757 0.61779 -0.00132
 C382 C 0.36200 0.62027 0.01844
 C383 C 0.37951 0.63723 0.01886
 C384 C 0.38283 0.65196 -0.00041
 C385 C 0.36843 0.64981 -0.02004
 C386 C 0.35091 0.63285 -0.02051
 C387 C 0.40138 0.66888 -0.00021
 C388 C 0.41714 0.68280 -0.00005
 H389 H 0.30754 0.55790 -0.03902
 H390 H 0.33626 0.58959 -0.03825
 H391 H 0.31825 0.60378 0.03392
 H392 H 0.28990 0.57173 0.03303
 H393 H 0.36010 0.60875 0.03335
 H394 H 0.39064 0.63868 0.03411
 H395 H 0.37084 0.66114 -0.03505
 H396 H 0.33991 0.63156 -0.03585
 C397 C 0.02712 -0.23194 0.49900
 C398 C 0.04401 -0.21943 0.49912
 C399 C 0.06373 -0.20392 0.49926
 C400 C 0.07675 -0.20087 0.51973
 C401 C 0.09512 -0.18483 0.52021
 C402 C 0.10068 -0.17161 0.50020
 C403 C 0.08771 -0.17509 0.47959
 C404 C 0.06935 -0.19112 0.47916
 C405 C 0.11945 -0.15376 0.50097
 C406 C 0.13466 -0.15073 0.48183
 C407 C 0.15171 -0.13328 0.48224
 C408 C 0.15378 -0.11865 0.50176
 C409 C 0.13892 -0.12170 0.52100
 C410 C 0.12188 -0.13914 0.52063
 C411 C 0.17071 -0.10011 0.50185
 C412 C 0.18461 -0.08433 0.50190
 H413 H 0.07254 -0.21070 0.53539
 H414 H 0.10498 -0.18277 0.53623
 H415 H 0.09137 -0.16497 0.46399
 H416 H 0.05930 -0.19325 0.46325
 H417 H 0.13342 -0.16190 0.46658
 H418 H 0.16315 -0.13109 0.46727
 H419 H 0.14031 -0.11041 0.53616
 H420 H 0.11025 -0.14082 0.53551
 C421 C 0.73070 0.47404 1.00294
 C422 C 0.71770 0.45752 1.00302
 C423 C 0.70170 0.43817 1.00312
 C424 C 0.70042 0.42321 0.98379
 C425 C 0.68415 0.40503 0.98349
 C426 C 0.66892 0.40160 1.00255
 C427 C 0.67056 0.41659 1.02202
 C428 C 0.68682 0.43475 1.02227
 C429 C 0.65100 0.38290 1.00193
 C430 C 0.64590 0.36974 1.02211
 C431 C 0.62842 0.35273 1.02170
 C432 C 0.61582 0.34864 1.00114
 C433 C 0.62092 0.36146 0.98091
 C434 C 0.63840 0.37846 0.98127
 C435 C 0.59725 0.33174 1.00095
 C436 C 0.58147 0.31785 1.00082
 H437 H 0.71186 0.42571 0.96887
 H438 H 0.68351 0.39362 0.96838
 H439 H 0.65888 0.41462 1.03682
 H440 H 0.68757 0.44633 1.03727
 H441 H 0.65547 0.37255 1.03818
 H442 H 0.62462 0.34289 1.03746
 H443 H 0.61120 0.35851 0.96494
 H444 H 0.64168 0.38851 0.96555
 C445 C 0.49910 0.02604 1.23137
 C446 C 0.49923 0.04237 1.21806
 C447 C 0.49950 0.06125 1.20144
 C448 C 0.49556 0.08427 1.20873
 C449 C 0.49582 0.10247 1.19237
 C450 C 0.50009 0.09784 1.16853
 C451 C 0.50399 0.07462 1.16142
 C452 C 0.50369 0.05649 1.17777
 C453 C 0.50036 0.11704 1.15103
 C454 C 0.51698 0.11713 1.13285
 C455 C 0.51676 0.13470 1.11588
 C456 C 0.49998 0.15245 1.11684
 C457 C 0.48356 0.15272 1.13502
 C458 C 0.48376 0.13515 1.15205
 C459 C 0.49932 0.16997 1.09878
 C460 C 0.49886 0.18429 1.08331
 H461 H 0.49232 0.08815 1.22702
 H462 H 0.49299 0.12019 1.19840
 H463 H 0.50695 0.07044 1.14316
 H464 H 0.50667 0.03872 1.17194
 H465 H 0.53020 0.10364 1.13179
 H466 H 0.52958 0.13436 1.10191
 H467 H 0.47045 0.16635 1.13589
 H468 H 0.47060 0.13544 1.16569
 C469 C 0.00003 0.73189 0.52460
 C470 C -0.00058 0.71909 0.54132
 C471 C -0.00128 0.70327 0.56089
 C472 C 0.01931 0.69288 0.56892
 C473 C 0.01855 0.67662 0.58717
 C474 C -0.00286 0.67049 0.59759
 C475 C -0.02343 0.68126 0.58957
 C476 C -0.02263 0.69754 0.57133
 C477 C -0.00376 0.65250 0.61630
 C478 C -0.02153 0.63556 0.61643
 C479 C -0.02196 0.61815 0.63358
 C480 C -0.00470 0.61745 0.65085
 C481 C 0.01291 0.63436 0.65104
 C482 C 0.01340 0.65177 0.63388
 C483 C -0.00474 0.59903 0.66800
 C484 C -0.00470 0.58338 0.68212
 H485 H 0.03591 0.69708 0.56086
 H486 H 0.03465 0.66841 0.59273
 H487 H -0.04014 0.67713 0.59743
 H488 H -0.03867 0.70549 0.56524
 H489 H -0.03479 0.63546 0.60295
 H490 H -0.03562 0.60509 0.63321
 H491 H 0.02634 0.63399 0.66435
 H492 H 0.02714 0.66473 0.63440
 C493 C 0.50252 0.97381 -0.23124
 C494 C 0.50286 0.95702 -0.21853
 C495 C 0.50312 0.93737 -0.20283
 C496 C 0.52240 0.93354 -0.18833
 C497 C 0.52222 0.91519 -0.17219
 C498 C 0.50269 0.90041 -0.17032
 C499 C 0.48353 0.90421 -0.18522
 C500 C 0.48376 0.92258 -0.20135
 C501 C 0.50208 0.88158 -0.15242
 C502 C 0.48156 0.87724 -0.13956
 C503 C 0.48119 0.86012 -0.12211
 C504 C 0.50128 0.84708 -0.11729
 C505 C 0.52171 0.85106 -0.13016
 C506 C 0.52212 0.86819 -0.14761
 C507 C 0.50107 0.83008 -0.09872
 C508 C 0.50084 0.81613 -0.08291
 H509 H 0.53742 0.94498 -0.18923
 H510 H 0.53710 0.91294 -0.16076
 H511 H 0.46837 0.89298 -0.18441
 H512 H 0.46874 0.92540 -0.21249
 H513 H 0.46595 0.88747 -0.14259
 H514 H 0.46532 0.85726 -0.11218
 H515 H 0.53736 0.84105 -0.12658
 H516 H 0.53809 0.87092 -0.15740
 C517 C 1.00179 0.26763 0.47493
 C518 C 1.00255 0.28051 0.45826
 C519 C 1.00344 0.29644 0.43880
 C520 C 1.02010 0.31426 0.43844
 C521 C 1.02043 0.33043 0.42011
 C522 C 1.00402 0.32900 0.40187
 C523 C 0.98750 0.31083 0.40224
 C524 C 0.98722 0.29467 0.42060
 C525 C 1.00376 0.34679 0.38294
 C526 C 0.98248 0.35592 0.37473
 C527 C 0.98223 0.37332 0.35756
 C528 C 1.00321 0.38181 0.34834
 C529 C 1.02446 0.37265 0.35617
 C530 C 1.02475 0.35525 0.37335
 C531 C 1.00294 0.40033 0.33130
 C532 C 1.00269 0.41605 0.31727
 H533 H 1.03264 0.31587 0.45252
 H534 H 1.03315 0.34438 0.42050
 H535 H 0.97484 0.30911 0.38831
 H536 H 0.97424 0.28093 0.42071
 H537 H 0.96605 0.35000 0.38198
 H538 H 0.96569 0.38036 0.35169
 H539 H 1.04079 0.37907 0.34911
 H540 H 1.04139 0.34837 0.37910
 C541 C 0.49848 0.97491 0.23146
 C542 C 0.49799 0.95849 0.21827
 C543 C 0.49729 0.93946 0.20183
 C544 C 0.50403 0.91695 0.20858
 C545 C 0.50365 0.89866 0.19232
 C546 C 0.49648 0.90269 0.16911
 C547 C 0.48966 0.92538 0.16257
 C548 C 0.49008 0.94361 0.17882
 C549 C 0.49636 0.88346 0.15165
 C550 C 0.47810 0.88159 0.13533
 C551 C 0.47845 0.86410 0.11825
 C552 C 0.49701 0.84823 0.11725
 C553 C 0.51510 0.84971 0.13361
 C554 C 0.51477 0.86719 0.15073
 C555 C 0.49774 0.83090 0.09899
 C556 C 0.49829 0.81673 0.08338
 H557 H 0.50961 0.91355 0.22637
 H558 H 0.50874 0.88133 0.19794
 H559 H 0.48439 0.92913 0.14476
 H560 H 0.48493 0.96100 0.17338
 H561 H 0.46352 0.89363 0.13580
 H562 H 0.46434 0.86308 0.10571
 H563 H 0.52959 0.83755 0.13294
 H564 H 0.52920 0.86833 0.16289
 C565 C 0.00024 0.26788 0.52637
 C566 C 0.00017 0.28090 0.54296
 C567 C 0.00020 0.29696 0.56235
 C568 C 0.01904 0.31215 0.56548
 C569 C 0.01874 0.32846 0.58370
 C570 C -0.00047 0.32982 0.59904
 C571 C -0.01923 0.31430 0.59590
 C572 C -0.01888 0.29798 0.57767
 C573 C -0.00111 0.34773 0.61787
 C574 C -0.02179 0.36012 0.62268
 C575 C -0.02215 0.37762 0.63978
 C576 C -0.00189 0.38292 0.65232
 C577 C 0.01869 0.37049 0.64787
 C578 C 0.01910 0.35301 0.63077
 C579 C -0.00206 0.40156 0.66924
 C580 C -0.00216 0.41741 0.68314
 H581 H 0.03383 0.31159 0.55364
 H582 H 0.03329 0.34037 0.58544
 H583 H -0.03412 0.31474 0.60759
 H584 H -0.03355 0.28629 0.57541
 H585 H -0.03755 0.35669 0.61285
 H586 H -0.03816 0.38721 0.64301
 H587 H 0.03447 0.37444 0.65750
 H588 H 0.03521 0.34358 0.62767
 C589 C 0.50227 0.02521 0.76935
 C590 C 0.50259 0.04175 0.78239
 C591 C 0.50301 0.06113 0.79844
 C592 C 0.48277 0.07423 0.80251
 C593 C 0.48292 0.09237 0.81893
 C594 C 0.50333 0.09759 0.83154
 C595 C 0.52367 0.08451 0.82706
 C596 C 0.52348 0.06640 0.81064
 C597 C 0.50325 0.11618 0.84970
 C598 C 0.51493 0.11275 0.87107
 C599 C 0.51449 0.12999 0.88840
 C600 C 0.50240 0.15089 0.88464
 C601 C 0.49082 0.15455 0.86340
 C602 C 0.49122 0.13732 0.84603
 C603 C 0.50169 0.16836 0.90275
 C604 C 0.50119 0.18269 0.91822
 H605 H 0.46680 0.07023 0.79324
 H606 H 0.46691 0.10193 0.82217
 H607 H 0.53973 0.08832 0.83623
 H608 H 0.53925 0.05638 0.80760
 H609 H 0.52405 0.09655 0.87458
 H610 H 0.52344 0.12693 0.90482
 H611 H 0.48143 0.17069 0.86029
 H612 H 0.48230 0.14058 0.82966
 C613 C 1.00090 0.73158 0.47312
 C614 C 1.00097 0.71858 0.45653
 C615 C 1.00114 0.70254 0.43712
 C616 C 0.98086 0.69887 0.42404
 C617 C 0.98079 0.68250 0.40585
 C618 C 1.00103 0.66958 0.40053
 C619 C 1.02141 0.67362 0.41362
 C620 C 1.02143 0.68997 0.43180
 C621 C 1.00079 0.65154 0.38183
 C622 C 1.02003 0.64878 0.36670
 C623 C 1.02009 0.63124 0.34965
 C624 C 1.00096 0.61625 0.34749
 C625 C 0.98164 0.61900 0.36228
 C626 C 0.98153 0.63654 0.37932
 C627 C 1.00133 0.59767 0.33051
 C628 C 1.00162 0.58188 0.31654
 H629 H 0.96506 0.70851 0.42801
 H630 H 0.96492 0.67999 0.39591
 H631 H 1.03717 0.66373 0.41018
 H632 H 1.03719 0.69258 0.44191
 H633 H 1.03499 0.66024 0.36801
 H634 H 1.03512 0.62928 0.33826
 H635 H 0.96678 0.60742 0.36081
 H636 H 0.96661 0.63800 0.39089
 C637 C 1.23109 0.50095 0.02267
 C638 C 1.21847 0.50085 0.03957
 C639 C 1.20290 0.50069 0.05938
 C640 C 1.19058 0.52093 0.06546
 C641 C 1.17458 0.52052 0.08397
 C642 C 1.17064 0.49980 0.09663
 C643 C 1.18334 0.47962 0.09057
 C644 C 1.19936 0.48008 0.07206
 C645 C 1.15291 0.49913 0.11563
 C646 C 1.13785 0.47987 0.11788
 C647 C 1.12060 0.47958 0.13523
 C648 C 1.11819 0.49849 0.15058
 C649 C 1.13325 0.51762 0.14866
 C650 C 1.15050 0.51796 0.13130
 C651 C 1.09990 0.49848 0.16789
 C652 C 1.08432 0.49846 0.18211
 H653 H 1.19309 0.53695 0.05567
 H654 H 1.16486 0.53626 0.08800
 H655 H 1.18091 0.46349 0.10016
 H656 H 1.20882 0.46431 0.06750
 H657 H 1.13904 0.46525 0.10589
 H658 H 1.10897 0.46473 0.13649
 H659 H 1.13155 0.53234 0.16048
 H660 H 1.16200 0.53290 0.13019
 C661 C 0.52683 0.00012 0.73100
 C662 C 0.54294 0.00055 0.71740
 C663 C 0.56167 0.00123 0.70060
 C664 C 0.56084 0.01721 0.68209
 C665 C 0.57851 0.01744 0.66520
 C666 C 0.59729 0.00165 0.66657
 C667 C 0.59813 -0.01418 0.68542
 C668 C 0.58040 -0.01439 0.70230
 C669 C 0.61567 0.00146 0.64819
 C670 C 0.63931 -0.00147 0.65413
 C671 C 0.65653 -0.00162 0.63672
 C672 C 0.65033 0.00112 0.61318
 C673 C 0.62688 0.00400 0.60711
 C674 C 0.60965 0.00417 0.62446
 C675 C 0.66794 0.00102 0.59516
 C676 C 0.68234 0.00101 0.57975
 H677 H 0.54643 0.02940 0.68064
 H678 H 0.57754 0.03006 0.65112
 H679 H 0.61222 -0.02671 0.68682
 H680 H 0.58116 -0.02690 0.71652
 H681 H 0.64451 -0.00333 0.67225
 H682 H 0.67466 -0.00380 0.64161
 H683 H 0.62188 0.00606 0.58893
 H684 H 0.59159 0.00612 0.61929
 C685 C -0.23244 0.49961 0.97676
 C686 C -0.21983 0.49969 0.95984
 C687 C -0.20425 0.49982 0.94004
 C688 C -0.19174 0.52006 0.93453
 C689 C -0.17573 0.51996 0.91602
 C690 C -0.17197 0.49954 0.90280
 C691 C -0.18486 0.47935 0.90829
 C692 C -0.20089 0.47951 0.92679
 C693 C -0.15422 0.49918 0.88381
 C694 C -0.13921 0.47988 0.88114
 C695 C -0.12189 0.47990 0.86386
 C696 C -0.11936 0.49915 0.84898
 C697 C -0.13439 0.51832 0.85130
 C698 C -0.15170 0.51835 0.86859
 C699 C -0.10099 0.49945 0.83176
 C700 C -0.08536 0.49966 0.81759
 H701 H -0.19411 0.53584 0.94476
 H702 H -0.16587 0.53567 0.91244
 H703 H -0.18255 0.46346 0.89825
 H704 H -0.21050 0.46375 0.93091
 H705 H -0.14050 0.46500 0.89277
 H706 H -0.11029 0.46502 0.86228
 H707 H -0.13261 0.53330 0.83984
 H708 H -0.16317 0.53333 0.87004
 C709 C 0.47363 0.00077 0.26910
 C710 C 0.45711 0.00083 0.28220
 C711 C 0.43777 0.00082 0.29831
 C712 C 0.42602 0.02165 0.30347
 C713 C 0.40793 0.02182 0.31995
 C714 C 0.40136 0.00112 0.33149
 C715 C 0.41309 -0.01979 0.32593
 C716 C 0.43118 -0.01990 0.30947
 C717 C 0.38279 0.00141 0.34969
 C718 C 0.36656 -0.01695 0.35130
 C719 C 0.34958 -0.01699 0.36893
 C720 C 0.34858 0.00130 0.38517
 C721 C 0.36450 0.01975 0.38359
 C722 C 0.38148 0.01983 0.36598
 C723 C 0.33160 0.00094 0.40378
 C724 C 0.31762 0.00068 0.41958
 H725 H 0.43098 0.03779 0.29492
 H726 H 0.39904 0.03812 0.32362
 H727 H 0.40866 -0.03594 0.33473
 H728 H 0.44024 -0.03610 0.30569
 H729 H 0.36694 -0.03123 0.33886
 H730 H 0.33732 -0.03134 0.36998
 H731 H 0.36394 0.03395 0.39613
 H732 H 0.39390 0.03405 0.36542
 C733 C 0.23050 0.50131 0.97114
 C734 C 0.21747 0.50137 0.95461
 C735 C 0.20142 0.50136 0.93527
 C736 C 0.18952 0.48088 0.92934
 C737 C 0.17307 0.48107 0.91130
 C738 C 0.16827 0.50180 0.89896
 C739 C 0.18057 0.52223 0.90486
 C740 C 0.19702 0.52200 0.92290
 C741 C 0.15009 0.50222 0.88047
 C742 C 0.13456 0.52121 0.87875
 C743 C 0.11695 0.52129 0.86184
 C744 C 0.11463 0.50245 0.84642
 C745 C 0.13012 0.48358 0.84782
 C746 C 0.14773 0.48344 0.86473
 C747 C 0.09601 0.50227 0.82956
 C748 C 0.08018 0.50213 0.81570
 H749 H 0.19271 0.46484 0.93889
 H750 H 0.16370 0.46513 0.90740
 H751 H 0.17749 0.53838 0.89548
 H752 H 0.20615 0.53795 0.92734
 H753 H 0.13569 0.53576 0.89080
 H754 H 0.10500 0.53595 0.86097
 H755 H 0.12849 0.46891 0.83594
 H756 H 0.15958 0.46871 0.86543
 C757 C 0.52501 0.00019 0.26826
 C758 C 0.54187 0.00007 0.28083
 C759 C 0.56163 0.00004 0.29633
 C760 C 0.56682 0.01999 0.30946
 C761 C 0.58539 0.01975 0.32529
 C762 C 0.59900 -0.00051 0.32823
 C763 C 0.59381 -0.02040 0.31474
 C764 C 0.57523 -0.02011 0.29889
 C765 C 0.61807 -0.00105 0.34580
 C766 C 0.62134 -0.02081 0.36009
 C767 C 0.63868 -0.02099 0.37727
 C768 C 0.65301 -0.00148 0.38038
 C769 C 0.65011 0.01815 0.36607
 C770 C 0.63277 0.01838 0.34889
 C771 C 0.67016 -0.00134 0.39875
 C772 C 0.68422 -0.00119 0.41442
 H773 H 0.55631 0.03564 0.30770
 H774 H 0.58872 0.03524 0.33564
 H775 H 0.60414 -0.03616 0.31640
 H776 H 0.57136 -0.03566 0.28881
 H777 H 0.61011 -0.03590 0.35838
 H778 H 0.64069 -0.03623 0.38833
 H779 H 0.66113 0.03334 0.36832
 H780 H 0.63087 0.03373 0.33798
 C781 C 0.76832 0.49916 0.02828
 C782 C 0.78138 0.49890 0.04478
 C783 C 0.79747 0.49855 0.06408
 C784 C 0.79921 0.51783 0.07905
 C785 C 0.81561 0.51785 0.09715
 C786 C 0.83049 0.49856 0.10051
 C787 C 0.82838 0.47915 0.08554
 C788 C 0.81199 0.47917 0.06745
 C789 C 0.84857 0.49890 0.11911
 C790 C 0.85334 0.47874 0.13236
 C791 C 0.87094 0.47888 0.14928
 C792 C 0.88401 0.49914 0.15316
 C793 C 0.87923 0.51935 0.14025
 C794 C 0.86162 0.51926 0.12335
 C795 C 0.90272 0.49904 0.16993
 C796 C 0.91863 0.49897 0.18372
 H797 H 0.78805 0.53291 0.07660
 H798 H 0.81662 0.53293 0.10856
 H799 H 0.83978 0.46417 0.08746
 H800 H 0.81088 0.46421 0.05588
 H801 H 0.84341 0.46289 0.12970
 H802 H 0.87447 0.46314 0.15921
 H803 H 0.88930 0.53510 0.14306
 H804 H 0.85860 0.53496 0.11323
 C805 C 0.47562 -0.00017 0.73278
 C806 C 0.45865 -0.00006 0.72037
 C807 C 0.43882 0.00012 0.70496
 C808 C 0.42494 -0.01983 0.70262
 C809 C 0.40643 -0.02003 0.68670
 C810 C 0.40160 -0.00026 0.67288
 C811 C 0.41544 0.01983 0.67566
 C812 C 0.43393 0.01998 0.69157
 C813 C 0.38271 -0.00080 0.65513
 C814 C 0.36825 0.01877 0.65160
 C815 C 0.35110 0.01851 0.63422
 C816 C 0.34818 -0.00129 0.62015
 C817 C 0.36228 -0.02094 0.62371
 C818 C 0.37942 -0.02073 0.64108
 C819 C 0.33121 -0.00125 0.60161
 C820 C 0.31729 -0.00126 0.58582
 H821 H 0.42856 -0.03531 0.71292
 H822 H 0.39591 -0.03565 0.68519
 H823 H 0.41236 0.03522 0.66507
 H824 H 0.44465 0.03548 0.69316
 H825 H 0.37018 0.03426 0.66231
 H826 H 0.34025 0.03380 0.63163
 H827 H 0.36023 -0.03632 0.61285
 H828 H 0.39048 -0.03594 0.64313
   
