data_POSCAR
  _audit_creation_date              2014-09-24
  _audit_creation_method            'ToBaCCo'
  _symmetry_space_group_name_H-M    'P1'
  _symmetry_Int_Tables_number       1
  _symmetry_cell_setting            triclinic
  loop_
  _symmetry_equiv_pos_as_xyz
 x,y,z
_cell_length_a 34.1691
_cell_length_b 32.4157
_cell_length_c 12.8737
_cell_angle_alpha 89.722700
_cell_angle_beta 90.640500
_cell_angle_gamma 122.909400
loop_
  _atom_site_label
  _atom_site_type_symbol
  _atom_site_fract_x
  _atom_site_fract_y
  _atom_site_fract_z
C1 C 0.51390 0.91501 0.63460
 C2 C 0.50448 0.88139 0.55571
 C3 C 0.50886 0.89470 0.45189
 C4 C 0.52701 0.94406 0.42456
 C5 C 0.54083 0.97970 0.50415
 C6 C 0.53410 0.96510 0.60993
 C7 C 0.54753 1.00071 0.68770
 C8 C 0.56715 1.04994 0.66199
 C9 C 0.57161 1.06489 0.55751
 C10 C 0.55868 1.02935 0.47779
 C11 C 0.53021 0.95828 0.32022
 C12 C 0.54693 1.00683 0.29427
 C13 C 0.56191 1.04296 0.37175
 C14 C 0.57908 1.09234 0.34669
 C15 C 0.59413 1.12733 0.42552
 C16 C 0.58902 1.11448 0.53002
 H17 H 0.54373 0.99073 0.76908
 H18 H 0.57820 1.07619 0.72482
 H19 H 0.51959 0.93187 0.25782
 H20 H 0.54840 1.01598 0.21280
 H21 H 0.48787 0.84271 0.57496
 H22 H 0.60683 1.16511 0.40450
 C23 C 0.10302 0.60916 0.59211
 C24 C 0.12302 0.61237 0.49660
 C25 C 0.09606 0.58801 0.40935
 C26 C 0.04697 0.55980 0.41582
 C27 C 0.02594 0.55744 0.51205
 C28 C 0.05410 0.58269 0.60037
 C29 C 0.03280 0.58077 0.69443
 C30 C -0.01553 0.55351 0.70249
 C31 C -0.04398 0.52629 0.61750
 C32 C -0.02320 0.52863 0.52101
 C33 C 0.01855 0.53368 0.33001
 C34 C -0.02993 0.50520 0.33883
 C35 C -0.05150 0.50217 0.43366
 C36 C -0.10069 0.47303 0.44439
 C37 C -0.12007 0.46913 0.54139
 C38 C -0.09281 0.49598 0.62660
 H39 H 0.05346 0.60064 0.76223
 H40 H -0.03048 0.55311 0.77649
 H41 H 0.03370 0.53488 0.25573
 H42 H -0.05054 0.48520 0.27107
 H43 H 0.16073 0.63195 0.49128
 H44 H -0.15773 0.44661 0.54978
 C45 C 0.38708 0.49192 0.57366
 C46 C 0.36921 0.49152 0.47537
 C47 C 0.38097 0.47638 0.38743
 C48 C 0.41098 0.45944 0.39593
 C49 C 0.42993 0.45907 0.49440
 C50 C 0.41847 0.47605 0.58377
 C51 C 0.43760 0.47537 0.68027
 C52 C 0.46782 0.45923 0.68929
 C53 C 0.47860 0.44068 0.60332
 C54 C 0.46094 0.44258 0.50272
 C55 C 0.42174 0.44225 0.30846
 C56 C 0.45251 0.42704 0.31577
 C57 C 0.47486 0.42964 0.40954
 C58 C 0.50887 0.41753 0.41394
 C59 C 0.51868 0.40789 0.51770
 C60 C 0.50782 0.42221 0.61339
 H61 H 0.42911 0.48704 0.75039
 H62 H 0.48265 0.46181 0.76509
 H63 H 0.40562 0.43957 0.23370
 H64 H 0.45601 0.41026 0.24829
 H65 H 0.34840 0.50737 0.46512
 H66 H 0.53670 0.38911 0.52651
 O67 O 0.38172 0.64972 -0.13735
 O68 O 0.41691 0.73911 -0.06224
 C69 C 0.40151 0.76522 -0.09090
 O70 O 0.35942 0.75151 -0.07863
 O71 O 0.26945 0.68638 -0.06573
 C72 C 0.24946 0.64978 -0.12719
 O73 O 0.25746 0.61578 -0.12716
 O74 O 0.31228 0.58211 -0.10981
 C75 C 0.35001 0.60572 -0.15970
 O76 O 0.37514 0.61559 0.05517
 O77 O 0.40627 0.70424 0.12993
 C78 C 0.40028 0.73731 0.16267
 O79 O 0.36976 0.74421 0.12423
 O80 O 0.27929 0.67834 0.13780
 C81 C 0.24334 0.63505 0.13314
 O82 O 0.24025 0.60239 0.07393
 O83 O 0.29997 0.57468 0.09413
 C84 C 0.33950 0.57977 0.09873
 Cr85 Cr 0.39254 0.67654 -0.00354
 Cr86 Cr 0.32001 0.71319 0.02856
 Cr87 Cr 0.27946 0.59631 -0.01650
 O88 O 0.33060 0.66222 0.00351
 O89 O 0.59569 0.35553 -0.08520
 O90 O 0.61097 0.28925 -0.16826
 C91 C 0.63350 0.26912 -0.18526
 O92 O 0.66799 0.27763 -0.12937
 O93 O 0.74108 0.36853 -0.10581
 C94 C 0.76118 0.41429 -0.08920
 O95 O 0.74473 0.43288 -0.03056
 O96 O 0.66537 0.42439 -0.06552
 C97 C 0.62367 0.40197 -0.09608
 O98 O 0.58195 0.30885 0.09786
 O99 O 0.59481 0.24430 0.01594
 C100 C 0.62229 0.23517 0.06299
 O101 O 0.66561 0.26671 0.07449
 O102 O 0.74225 0.35533 0.09637
 C103 C 0.74547 0.38617 0.16158
 O104 O 0.71649 0.39893 0.16374
 O105 O 0.63519 0.38828 0.12750
 C106 C 0.59591 0.34835 0.14550
 Cr107 Cr 0.59852 0.30152 -0.03413
 Cr108 Cr 0.70268 0.31804 -0.01558
 Cr109 Cr 0.68916 0.40839 0.04711
 O110 O 0.66364 0.34283 -0.00146
 C111 C 0.41454 0.83188 -0.20927
 C112 C 0.44295 0.87208 -0.27209
 C113 C 0.49145 0.89417 -0.27158
 C114 C 0.51193 0.87983 -0.19583
 C115 C 0.48317 0.84048 -0.12761
 C116 C 0.43378 0.81328 -0.14171
 C117 C 0.50522 0.83017 -0.04801
 N118 N 0.55242 0.85540 -0.04219
 N119 N 0.57922 0.89058 -0.10991
 C120 C 0.56058 0.90359 -0.18675
 H121 H 0.37713 0.81323 -0.21917
 H122 H 0.42655 0.88232 -0.33033
 H123 H 0.48573 0.80357 0.01161
 H124 H 0.58379 0.93317 -0.23850
 C125 C 0.17016 0.59719 -0.19607
 C126 C 0.13247 0.58805 -0.25672
 C127 C 0.13508 0.62526 -0.31760
 C128 C 0.17526 0.67354 -0.31125
 C129 C 0.21414 0.68290 -0.25067
 C130 C 0.21163 0.64380 -0.19438
 C131 C 0.25473 0.73054 -0.25304
 N132 N 0.25525 0.76636 -0.30919
 N133 N 0.21822 0.75772 -0.36394
 C134 C 0.17831 0.71249 -0.36722
 H135 H 0.16718 0.56718 -0.15146
 H136 H 0.10232 0.55072 -0.26212
 H137 H 0.28631 0.73968 -0.21266
 H138 H 0.14921 0.70725 -0.41319
 C139 C 0.40395 0.58784 -0.24396
 C140 C 0.41274 0.55688 -0.29931
 C141 C 0.37621 0.51389 -0.34670
 C142 C 0.32973 0.50184 -0.33498
 C143 C 0.32129 0.53526 -0.28643
 C144 C 0.35860 0.57780 -0.23667
 C145 C 0.27554 0.52500 -0.29081
 N146 N 0.24033 0.48194 -0.33144
 N147 N 0.24774 0.44866 -0.36926
 C148 C 0.29110 0.45701 -0.37204
 H149 H 0.43291 0.61973 -0.20565
 H150 H 0.44867 0.56816 -0.30963
 H151 H 0.26741 0.55108 -0.26453
 H152 H 0.29524 0.42879 -0.40400
 C153 C 0.65127 0.23476 -0.33434
 C154 C 0.64136 0.19610 -0.39973
 C155 C 0.59758 0.15148 -0.39872
 C156 C 0.56210 0.14744 -0.33486
 C157 C 0.57283 0.18604 -0.26509
 C158 C 0.61775 0.23058 -0.26602
 C159 C 0.53823 0.17788 -0.19489
 N160 N 0.49483 0.13667 -0.20104
 N161 N 0.48365 0.10247 -0.27266
 C162 C 0.51564 0.10658 -0.34027
 H163 H 0.68599 0.26783 -0.33494
 H164 H 0.66865 0.20065 -0.45013
 H165 H 0.54527 0.20339 -0.13475
 H166 H 0.50433 0.07787 -0.39742
 C167 C 0.81285 0.48265 -0.20695
 C168 C 0.85014 0.50387 -0.27538
 C169 C 0.88167 0.48878 -0.27640
 C170 C 0.87915 0.45646 -0.19898
 C171 C 0.84233 0.43638 -0.12716
 C172 C 0.80692 0.44650 -0.13750
 C173 C 0.84143 0.40548 -0.04892
 N174 N 0.87398 0.39381 -0.04644
 N175 N 0.90736 0.41089 -0.11724
 C176 C 0.91087 0.44149 -0.19390
 H177 H 0.78644 0.49127 -0.21458
 H178 H 0.85166 0.52840 -0.33504
 H179 H 0.81570 0.39117 0.01102
 H180 H 0.93860 0.45400 -0.24929
 C181 C 0.61413 0.44264 -0.24756
 C182 C 0.58270 0.44514 -0.31352
 C183 C 0.53486 0.42648 -0.29266
 C184 C 0.52041 0.41446 -0.18369
 C185 C 0.56978 0.43086 -0.09591
 C186 C 0.60610 0.43092 -0.14333
 C187 C 0.55913 0.41283 0.04209
 N188 N 0.47597 0.36382 0.07579
 N189 N 0.44170 0.35533 -0.01788
 C190 C 0.45844 0.37720 -0.14035
 H191 H 0.64527 0.44759 -0.28170
 H192 H 0.59634 0.45883 -0.39037
 H193 H 0.58907 0.42553 0.09362
 H194 H 0.43153 0.36753 -0.19803
 C195 C 0.79517 0.38101 0.29564
 C196 C 0.83429 0.40188 0.36056
 C197 C 0.86756 0.45282 0.36076
 C198 C 0.86085 0.48335 0.29369
 C199 C 0.82065 0.46213 0.22867
 C200 C 0.78690 0.41049 0.23157
 C201 C 0.81570 0.49374 0.16290
 N202 N 0.84746 0.54283 0.16443
 N203 N 0.88419 0.56288 0.22805
 C204 C 0.89178 0.53501 0.29324
 H205 H 0.77045 0.34159 0.29744
 H206 H 0.83816 0.37815 0.41340
 H207 H 0.78696 0.48029 0.11092
 H208 H 0.92186 0.55383 0.34393
 C209 C 0.56132 0.16445 0.16185
 C210 C 0.54902 0.12606 0.23009
 C211 C 0.57857 0.10889 0.24652
 C212 C 0.61693 0.12505 0.18002
 C213 C 0.62833 0.16281 0.10762
 C214 C 0.60304 0.18590 0.10727
 C215 C 0.66544 0.17701 0.03960
 N216 N 0.69095 0.15651 0.04813
 N217 N 0.68175 0.12280 0.12007
 C218 C 0.64583 0.10661 0.18682
 H219 H 0.54066 0.18060 0.16000
 H220 H 0.51942 0.11403 0.28031
 H221 H 0.67362 0.20333 -0.02156
 H222 H 0.63977 0.07902 0.24335
 C223 C 0.58417 0.37838 0.30425
 C224 C 0.57248 0.40877 0.35088
 C225 C 0.53573 0.41365 0.31893
 C226 C 0.52456 0.40371 0.20792
 C227 C 0.52545 0.35108 0.16599
 C228 C 0.56281 0.35071 0.21469
 C229 C 0.51319 0.32819 0.03365
 N230 N 0.50555 0.36130 -0.05395
 N231 N 0.50845 0.42299 -0.01450
 C232 C 0.51742 0.44193 0.11241
 H233 H 0.61440 0.37963 0.33572
 H234 H 0.59292 0.42842 0.41905
 H235 H 0.50624 0.34079 -0.03892
 H236 H 0.51938 0.47511 0.13488
 C237 C 0.18171 0.57865 0.25450
 C238 C 0.14277 0.56428 0.31484
 C239 C 0.12280 0.59226 0.31642
 C240 C 0.14017 0.63332 0.25031
 C241 C 0.17957 0.64786 0.18819
 C242 C 0.20190 0.62158 0.19478
 C243 C 0.19480 0.68802 0.12097
 N244 N 0.17304 0.71272 0.11959
 N245 N 0.13689 0.69984 0.18049
 C246 C 0.11978 0.66105 0.24604
 H247 H 0.19735 0.55718 0.25768
 H248 H 0.13030 0.53326 0.36680
 H249 H 0.22326 0.69968 0.06862
 H250 H 0.08993 0.65167 0.29288
 C251 C 0.40926 0.78993 0.30845
 C252 C 0.43570 0.83035 0.37206
 C253 C 0.48404 0.85381 0.37732
 C254 C 0.50619 0.83490 0.32133
 C255 C 0.47931 0.79328 0.25583
 C256 C 0.43014 0.77162 0.24668
 C257 C 0.50325 0.77607 0.20134
 N258 N 0.55014 0.79897 0.21191
 N259 N 0.57501 0.83799 0.27317
 C260 C 0.55462 0.85672 0.32832
 H261 H 0.37196 0.77388 0.30462
 H262 H 0.41829 0.84375 0.41745
 H263 H 0.48582 0.74468 0.15104
 H264 H 0.57642 0.88856 0.37686
 C265 C 0.39295 0.55860 0.17539
 C266 C 0.40361 0.53157 0.23950
 C267 C 0.36828 0.48933 0.28817
 C268 C 0.32125 0.47047 0.26137
 C269 C 0.30992 0.49712 0.19305
 C270 C 0.34642 0.54400 0.15598
 C271 C 0.26260 0.47537 0.16565
 N272 N 0.22952 0.43176 0.20783
 N273 N 0.24031 0.40798 0.27492
 C274 C 0.28507 0.42587 0.30314
 H275 H 0.42197 0.59302 0.14606
 H276 H 0.43982 0.54663 0.25991
 H277 H 0.25114 0.49119 0.10924
 H278 H 0.29219 0.40475 0.35647
   
