data_POSCAR
  _audit_creation_date              2014-09-24
  _audit_creation_method            'ToBaCCo'
  _symmetry_space_group_name_H-M    'P1'
  _symmetry_Int_Tables_number       1
  _symmetry_cell_setting            triclinic
  loop_
  _symmetry_equiv_pos_as_xyz
 x,y,z
_cell_length_a 36.7296
_cell_length_b 36.4154
_cell_length_c 36.6188
_cell_angle_alpha 89.998300
_cell_angle_beta 90.000900
_cell_angle_gamma 90.040700
loop_
  _atom_site_label
  _atom_site_type_symbol
  _atom_site_fract_x
  _atom_site_fract_y
  _atom_site_fract_z
C1 C 0.33084 0.38456 1.36066
 C2 C 0.35726 0.38605 1.33305
 C3 C 0.38459 0.36001 1.33183
 C4 C 0.38580 0.33204 1.35817
 C5 C 0.35981 0.33067 1.38529
 C6 C 0.33204 0.35709 1.38649
 C7 C 0.30040 0.40531 1.36765
 N8 N 0.28258 0.39121 1.39727
 C9 C 0.30224 0.36154 1.40879
 C10 C 0.36691 0.30009 1.40608
 N11 N 0.39672 0.28237 1.39237
 C12 C 0.40826 0.30222 1.36287
 C13 C 0.40541 0.36736 1.30145
 N14 N 0.39134 0.39721 1.28414
 C15 C 0.36186 0.40878 1.30341
 H16 H 0.29178 0.42829 1.35114
 H17 H 0.29587 0.34394 1.43166
 H18 H 0.35035 0.29128 1.42883
 H19 H 0.43128 0.29598 1.34560
 H20 H 0.42842 0.35139 1.29206
 H21 H 0.34483 0.43198 1.29640
 C22 C 1.16969 0.61579 0.86047
 C23 C 1.14323 0.61429 0.83291
 C24 C 1.11590 0.64033 0.83170
 C25 C 1.11475 0.66832 0.85802
 C26 C 1.14078 0.66971 0.88510
 C27 C 1.16855 0.64328 0.88628
 C28 C 1.20011 0.59500 0.86745
 N29 N 1.21798 0.60910 0.89704
 C30 C 1.19837 0.63881 0.90856
 C31 C 1.13369 0.70029 0.90590
 N32 N 1.10384 0.71799 0.89223
 C33 C 1.09227 0.69813 0.86275
 C34 C 1.09503 0.63294 0.80137
 N35 N 1.10905 0.60307 0.78408
 C36 C 1.13857 0.59151 0.80331
 H37 H 1.20868 0.57200 0.85095
 H38 H 1.20478 0.65641 0.93142
 H39 H 1.15026 0.70910 0.92864
 H40 H 1.06922 0.70434 0.84552
 H41 H 1.07200 0.64890 0.79200
 H42 H 1.15557 0.56830 0.79630
 C43 C 0.67008 -0.11251 0.13925
 C44 C 0.64359 -0.11102 0.16680
 C45 C 0.61615 -0.13699 0.16785
 C46 C 0.61491 -0.16489 0.14147
 C47 C 0.64095 -0.16629 0.11443
 C48 C 0.66882 -0.13994 0.11335
 C49 C 0.70063 -0.09185 0.13232
 N50 N 0.71843 -0.10596 0.10268
 C51 C 0.69865 -0.13555 0.09109
 C52 C 0.63383 -0.19687 0.09362
 N53 N 0.60395 -0.21455 0.10728
 C54 C 0.59238 -0.19467 0.13673
 C55 C 0.59525 -0.12974 0.19816
 N56 N 0.60934 -0.10000 0.21565
 C57 C 0.63896 -0.08840 0.19655
 H58 H 0.70934 -0.06891 0.14885
 H59 H 0.70495 -0.15313 0.06820
 H60 H 0.65042 -0.20571 0.07092
 H61 H 0.56933 -0.20087 0.15398
 H62 H 0.57218 -0.14573 0.20741
 H63 H 0.65605 -0.06529 0.20378
 C64 C -0.17012 1.11240 -0.36086
 C65 C -0.14361 1.11086 -0.33331
 C66 C -0.11616 1.13683 -0.33226
 C67 C -0.11494 1.16475 -0.35861
 C68 C -0.14099 1.16620 -0.38564
 C69 C -0.16887 1.13985 -0.38673
 C70 C -0.20067 1.09174 -0.36778
 N71 N -0.21848 1.10587 -0.39739
 C72 C -0.19872 1.13548 -0.40897
 C73 C -0.13386 1.19681 -0.40641
 N74 N -0.10395 1.21445 -0.39275
 C75 C -0.09238 1.19452 -0.36333
 C76 C -0.09526 1.12954 -0.30196
 N77 N -0.10935 1.09979 -0.28449
 C78 C -0.13898 1.08822 -0.30358
 H79 H -0.20936 1.06878 -0.35126
 H80 H -0.20505 1.15308 -0.43184
 H81 H -0.15044 1.20567 -0.42911
 H82 H -0.06933 1.20068 -0.34608
 H83 H -0.07219 1.14553 -0.29270
 H84 H -0.15608 1.06512 -0.29637
 C85 C 0.66958 0.61290 0.63937
 C86 C 0.64329 0.61158 0.66714
 C87 C 0.61588 0.63755 0.66822
 C88 C 0.61445 0.66530 0.64167
 C89 C 0.64025 0.66655 0.61440
 C90 C 0.66808 0.64023 0.61323
 C91 C 0.70011 0.59222 0.63231
 N92 N 0.71726 0.60637 0.60253
 C93 C 0.69773 0.63577 0.59072
 C94 C 0.63300 0.69697 0.59344
 N95 N 0.60324 0.71473 0.60721
 C96 C 0.59190 0.69505 0.63690
 C97 C 0.59516 0.63042 0.69870
 N98 N 0.60931 0.60075 0.71623
 C99 C 0.63881 0.58909 0.69701
 H100 H 0.70970 0.56926 0.64841
 H101 H 0.70458 0.65283 0.56751
 H102 H 0.64942 0.70566 0.57055
 H103 H 0.56898 0.70137 0.65428
 H104 H 0.57213 0.64641 0.70798
 H105 H 0.65590 0.56599 0.70421
 C106 C 0.82979 0.38690 0.14002
 C107 C 0.85627 0.38824 0.16760
 C108 C 0.88367 0.36225 0.16853
 C109 C 0.88486 0.33449 0.14200
 C110 C 0.85883 0.33324 0.11494
 C111 C 0.83101 0.35961 0.11398
 C112 C 0.79930 0.40764 0.13317
 N113 N 0.78150 0.39372 0.10344
 C114 C 0.80121 0.36416 0.09171
 C115 C 0.86593 0.30280 0.09393
 N116 N 0.89581 0.28505 0.10748
 C117 C 0.90738 0.30475 0.13706
 C118 C 0.90459 0.36938 0.19887
 N119 N 0.89057 0.39906 0.21647
 C120 C 0.86096 0.41074 0.19743
 H121 H 0.79065 0.43052 0.14981
 H122 H 0.79489 0.34672 0.06872
 H123 H 0.84936 0.29412 0.07115
 H124 H 0.93042 0.29846 0.15428
 H125 H 0.92765 0.35335 0.20802
 H126 H 0.84393 0.43384 0.20474
 C127 C 0.33089 0.11509 0.86022
 C128 C 0.35740 0.11331 0.83272
 C129 C 0.38504 0.13905 0.83158
 C130 C 0.38648 0.16702 0.85786
 C131 C 0.36032 0.16872 0.88496
 C132 C 0.33225 0.14257 0.88605
 C133 C 0.30024 0.09460 0.86711
 N134 N 0.28244 0.10884 0.89666
 C135 C 0.30232 0.13838 0.90824
 C136 C 0.36769 0.19933 0.90572
 N137 N 0.39767 0.21630 0.89188
 C138 C 0.40930 0.19662 0.86256
 C139 C 0.40587 0.13150 0.80127
 N140 N 0.39152 0.10181 0.78392
 C141 C 0.36184 0.09053 0.80309
 H142 H 0.29147 0.07168 0.85058
 H143 H 0.29604 0.15601 0.93109
 H144 H 0.35166 0.20909 0.92853
 H145 H 0.43260 0.20332 0.84574
 H146 H 0.42907 0.14726 0.79195
 H147 H 0.34455 0.06753 0.79599
 C148 C 0.16886 0.88505 0.36025
 C149 C 0.14236 0.88678 0.33275
 C150 C 0.11478 0.86097 0.33157
 C151 C 0.11340 0.83298 0.35785
 C152 C 0.13956 0.83132 0.38495
 C153 C 0.16756 0.85754 0.38606
 C154 C 0.19947 0.90560 0.36715
 N155 N 0.21730 0.89137 0.39669
 C156 C 0.19748 0.86178 0.40826
 C157 C 0.13225 0.80070 0.40570
 N158 N 0.10232 0.78366 0.39185
 C159 C 0.09064 0.80332 0.36253
 C160 C 0.09395 0.86850 0.30126
 N161 N 0.10824 0.89824 0.28394
 C162 C 0.13788 0.90957 0.30313
 H163 H 0.20819 0.92855 0.35063
 H164 H 0.20381 0.84415 0.43110
 H165 H 0.14830 0.79097 0.42851
 H166 H 0.06736 0.79658 0.34570
 H167 H 0.07078 0.85270 0.29192
 H168 H 0.15512 0.93262 0.29607
 Zn169 Zn 0.00866 1.04527 -0.02316
 Zn170 Zn -0.02831 0.97197 -0.02844
 Zn171 Zn 0.04405 0.97887 0.00881
 Zn172 Zn -0.02232 1.01039 0.04373
 O173 O 0.00048 1.00159 0.00019
 O174 O -0.01306 1.04738 -0.06679
 O175 O -0.00648 0.92942 -0.04025
 O176 O 0.08224 1.00454 -0.00778
 O177 O -0.04053 0.99329 -0.07094
 O178 O 0.05597 1.05379 -0.03161
 O179 O 0.04700 0.93493 -0.01271
 O180 O 0.00299 0.99414 0.08229
 O181 O -0.07047 0.95982 -0.00660
 O182 O 0.05226 0.97069 0.05632
 O183 O -0.06573 0.98847 0.04662
 O184 O -0.03081 1.05816 0.05159
 O185 O -0.00797 1.08410 0.00186
 C186 C -0.03270 1.02457 -0.08399
 C187 C 0.02478 0.91700 -0.03228
 C188 C 0.08411 1.03508 -0.02428
 C189 C 0.03341 0.97790 0.08440
 C190 C -0.08313 0.96827 0.02451
 C191 C -0.02402 1.08631 0.03242
 Zn192 Zn 0.49106 -0.04517 0.47686
 Zn193 Zn 0.52208 -0.01032 0.54375
 Zn194 Zn 0.52823 0.02801 0.47156
 Zn195 Zn 0.45582 0.02134 0.50874
 O196 O 0.49933 -0.00150 0.50018
 O197 O 0.50752 -0.08402 0.50195
 O198 O 0.56556 0.01149 0.54667
 O199 O 0.54044 0.00663 0.42909
 O200 O 0.53041 -0.05811 0.55167
 O201 O 0.51285 -0.04739 0.43326
 O202 O 0.57039 0.04008 0.49342
 O203 O 0.45301 0.06527 0.48722
 O204 O 0.49678 0.00601 0.58227
 O205 O 0.50652 0.07061 0.45970
 O206 O 0.44757 0.02953 0.55625
 O207 O 0.41757 -0.00424 0.49213
 O208 O 0.44374 -0.05356 0.46835
 C209 C 0.52351 -0.08626 0.53253
 C210 C 0.58302 0.03164 0.52455
 C211 C 0.53256 -0.02465 0.41606
 C212 C 0.47530 0.08312 0.46765
 C213 C 0.46638 0.02230 0.58435
 C214 C 0.41564 -0.03478 0.47565
 Zn215 Zn 0.97798 0.48953 0.54447
 Zn216 Zn 1.00912 0.45461 0.47766
 Zn217 Zn 0.97179 0.52759 0.47213
 Zn218 Zn 1.04419 0.52135 0.50939
 O219 O 1.00073 0.49830 0.50087
 O220 O 0.96963 0.44174 0.55244
 O221 O 0.98740 0.45219 0.43402
 O222 O 0.92961 0.53957 0.49395
 O223 O 0.99261 0.41580 0.50279
 O224 O 0.93447 0.51125 0.54732
 O225 O 0.95963 0.50605 0.42971
 O226 O 1.04690 0.56524 0.48774
 O227 O 1.05646 0.44636 0.46924
 O228 O 0.99338 0.57023 0.46018
 O229 O 1.08251 0.49587 0.49286
 O230 O 1.05239 0.52973 0.55688
 O231 O 1.00325 0.50605 0.58298
 C232 C 0.97653 0.41358 0.53333
 C233 C 0.96762 0.47478 0.41675
 C234 C 0.91699 0.53124 0.52511
 C235 C 1.02456 0.58292 0.46812
 C236 C 1.08452 0.46528 0.47647
 C237 C 1.03360 0.52251 0.58501
 Zn238 Zn 0.52234 0.51030 1.04441
 Zn239 Zn 0.49134 0.54518 0.97752
 Zn240 Zn 0.52864 0.47215 0.97214
 Zn241 Zn 0.45615 0.47853 1.00926
 O242 O 0.49966 0.50150 1.00079
 O243 O 0.53069 0.55809 1.05236
 O244 O 0.51312 0.54753 0.93392
 O245 O 0.57078 0.46013 0.99405
 O246 O 0.50783 0.58401 1.00264
 O247 O 0.56581 0.48854 1.04736
 O248 O 0.54088 0.49364 0.92970
 O249 O 0.45343 0.43463 0.98764
 O250 O 0.44402 0.55349 0.96902
 O251 O 0.50700 0.42954 0.96020
 O252 O 0.41787 0.50404 0.99265
 O253 O 0.44787 0.47019 1.05674
 O254 O 0.49699 0.49384 1.08289
 C255 C 0.52384 0.58624 1.03321
 C256 C 0.53291 0.52490 0.91670
 C257 C 0.58333 0.46849 1.02523
 C258 C 0.47579 0.41690 0.96808
 C259 C 0.41592 0.53462 0.97624
 C260 C 0.46663 0.47742 1.08489
 C261 C 1.18337 0.42914 0.44080
 C262 C 1.20119 0.44920 0.41368
 C263 C 1.23428 0.43689 0.39944
 C264 C 1.25045 0.40392 0.41198
 C265 C 1.23211 0.38431 0.43990
 C266 C 1.19896 0.39680 0.45400
 C267 C 1.14870 0.44147 0.45438
 C268 C 1.11947 0.45213 0.46494
 H269 H 1.18939 0.47441 0.40334
 H270 H 1.24689 0.45377 0.37880
 H271 H 1.24251 0.35885 0.45073
 H272 H 1.18531 0.38098 0.47500
 C273 C 0.31715 0.57099 0.94054
 C274 C 0.30163 0.60336 0.95373
 C275 C 0.26850 0.61592 0.93964
 C276 C 0.25010 0.59634 0.91174
 C277 C 0.26619 0.56333 0.89921
 C278 C 0.29927 0.55095 0.91344
 C279 C 0.35179 0.55857 0.95412
 C280 C 0.38099 0.54784 0.96469
 H281 H 0.31532 0.61916 0.97472
 H282 H 0.25815 0.64141 0.95046
 H283 H 0.25355 0.54646 0.87858
 H284 H 0.31101 0.52571 0.90311
 C285 C -0.18224 0.93173 0.05912
 C286 C -0.19798 0.89947 0.04587
 C287 C -0.23117 0.88706 0.05998
 C288 C -0.24939 0.90667 0.08797
 C289 C -0.23307 0.93956 0.10056
 C290 C -0.19994 0.95179 0.08630
 C291 C -0.14749 0.94398 0.04561
 C292 C -0.11819 0.95474 0.03534
 H293 H -0.18442 0.88365 0.02483
 H294 H -0.24168 0.86165 0.04912
 H295 H -0.24557 0.95642 0.12126
 H296 H -0.18801 0.97694 0.09669
 C297 C 0.68215 0.06816 0.55911
 C298 C 0.69992 0.04807 0.58624
 C299 C 0.73306 0.06031 0.60047
 C300 C 0.74933 0.09324 0.58791
 C301 C 0.73105 0.11287 0.55999
 C302 C 0.69785 0.10045 0.54590
 C303 C 0.64740 0.05590 0.54564
 C304 C 0.61808 0.04514 0.53539
 H305 H 0.68803 0.02289 0.59660
 H306 H 0.74560 0.04342 0.62112
 H307 H 0.74153 0.13831 0.54915
 H308 H 0.68424 0.11630 0.52491
 C309 C 0.44073 0.18287 0.43087
 C310 C 0.45392 0.19854 0.39868
 C311 C 0.43969 0.23181 0.38601
 C312 C 0.41162 0.25017 0.40527
 C313 C 0.39911 0.23395 0.43811
 C314 C 0.41349 0.20075 0.45060
 C315 C 0.45425 0.14795 0.44331
 C316 C 0.46450 0.11846 0.45417
 H317 H 0.47500 0.18484 0.38310
 H318 H 0.45049 0.24226 0.36067
 H319 H 0.37837 0.24659 0.45474
 H320 H 0.40313 0.18888 0.47568
 C321 C 0.94036 0.31397 0.56903
 C322 C 0.95376 0.29797 0.60095
 C323 C 0.93941 0.26472 0.61352
 C324 C 0.91101 0.24666 0.59442
 C325 C 0.89827 0.26322 0.56185
 C326 C 0.91277 0.29643 0.54944
 C327 C 0.95416 0.34884 0.55673
 C328 C 0.96488 0.37828 0.54621
 H329 H 0.97512 0.31141 0.61640
 H330 H 0.95044 0.25403 0.63865
 H331 H 0.87723 0.25085 0.54537
 H332 H 0.90225 0.30856 0.52456
 C333 C 0.05967 0.81738 -0.06914
 C334 C 0.04641 0.80165 -0.10127
 C335 C 0.06071 0.76843 -0.11398
 C336 C 0.08891 0.75016 -0.09483
 C337 C 0.10151 0.76645 -0.06206
 C338 C 0.08706 0.79961 -0.04951
 C339 C 0.04605 0.85225 -0.05664
 C340 C 0.03570 0.88170 -0.04577
 H341 H 0.02522 0.81527 -0.11677
 H342 H 0.04983 0.75794 -0.13928
 H343 H 0.12236 0.75390 -0.04552
 H344 H 0.09748 0.81152 -0.02448
 C345 C 0.55980 0.68589 1.06898
 C346 C 0.54643 0.70179 1.10097
 C347 C 0.56073 0.73506 1.11356
 C348 C 0.58902 0.75323 1.09442
 C349 C 0.60172 0.73678 1.06178
 C350 C 0.58728 0.70355 1.04935
 C351 C 0.54608 0.65101 1.05666
 C352 C 0.53543 0.62154 1.04611
 H353 H 0.52516 0.68826 1.11645
 H354 H 0.54974 0.74567 1.13875
 H355 H 0.62267 0.74924 1.04526
 H356 H 0.59776 0.69150 1.02442
 C357 C 0.42994 0.44184 1.18387
 C358 C 0.39320 0.44526 1.19336
 C359 C 0.38057 0.43094 1.22644
 C360 C 0.40454 0.41289 1.25048
 C361 C 0.44149 0.40989 1.24079
 C362 C 0.45407 0.42427 1.20771
 C363 C 0.44268 0.45530 1.14920
 C364 C 0.45349 0.46586 1.11994
 H365 H 0.37424 0.45862 1.17501
 H366 H 0.35190 0.43327 1.23279
 H367 H 0.46072 0.39662 1.25886
 H368 H 0.48258 0.42147 1.20063
 C369 C 0.57036 -0.05691 0.31640
 C370 C 0.60715 -0.05328 0.30712
 C371 C 0.61991 -0.06695 0.27381
 C372 C 0.59601 -0.08457 0.24936
 C373 C 0.55899 -0.08764 0.25879
 C374 C 0.54630 -0.07391 0.29207
 C375 C 0.55745 -0.04445 0.35138
 C376 C 0.54630 -0.03489 0.38084
 H377 H 0.62606 -0.04035 0.32585
 H378 H 0.64861 -0.06456 0.26763
 H379 H 0.53982 -0.10056 0.24039
 H380 H 0.51776 -0.07686 0.29898
 C381 C -0.07043 1.05670 -0.18372
 C382 C -0.10721 1.05308 -0.19301
 C383 C -0.11995 1.06675 -0.22633
 C384 C -0.09604 1.08435 -0.25077
 C385 C -0.05902 1.08740 -0.24134
 C386 C -0.04635 1.07368 -0.20804
 C387 C -0.05754 1.04427 -0.14872
 C388 C -0.04641 1.03475 -0.11924
 H389 H -0.12613 1.04016 -0.17429
 H390 H -0.14866 1.06436 -0.23252
 H391 H -0.03984 1.10031 -0.25973
 H392 H -0.01781 1.07663 -0.20113
 C393 C 1.07029 0.55826 0.68394
 C394 C 1.04620 0.57590 0.70778
 C395 C 1.05883 0.59034 0.74081
 C396 C 1.09580 0.58733 0.75046
 C397 C 1.11972 0.56922 0.72643
 C398 C 1.10703 0.55483 0.69339
 C399 C 1.05750 0.54473 0.64931
 C400 C 1.04670 0.53412 0.62006
 H401 H 1.01769 0.57871 0.70072
 H402 H 1.03964 0.60366 0.75888
 H403 H 1.14840 0.56688 0.73273
 H404 H 1.12596 0.54142 0.67504
 C405 C 0.81778 0.56823 0.55883
 C406 C 0.80794 0.60514 0.55505
 C407 C 0.77476 0.61762 0.56904
 C408 C 0.75098 0.59332 0.58711
 C409 C 0.76101 0.55618 0.59044
 C410 C 0.79418 0.54376 0.57640
 C411 C 0.85258 0.55562 0.54585
 C412 C 0.88191 0.54474 0.53584
 H413 H 0.82611 0.62436 0.54169
 H414 H 0.76814 0.64644 0.56644
 H415 H 0.74314 0.53670 0.60374
 H416 H 0.80153 0.51512 0.57949
 C417 C 0.68234 0.43182 1.05992
 C418 C 0.69804 0.39965 1.04648
 C419 C 0.73116 0.38710 1.06058
 C420 C 0.74938 0.40649 1.08874
 C421 C 0.73310 0.43930 1.10153
 C422 C 0.70003 0.45167 1.08728
 C423 C 0.64764 0.44419 1.04642
 C424 C 0.61837 0.45499 1.03612
 H425 H 0.68448 0.38398 1.02530
 H426 H 0.74165 0.36176 1.04955
 H427 H 0.74559 0.45600 1.12238
 H428 H 0.68813 0.47675 1.09782
 C429 C 0.18294 1.07139 -0.05998
 C430 C 0.20073 1.05120 -0.08699
 C431 C 0.23391 1.06337 -0.10119
 C432 C 0.25019 1.09633 -0.08871
 C433 C 0.23186 1.11609 -0.06091
 C434 C 0.19863 1.10373 -0.04685
 C435 C 0.14824 1.05911 -0.04638
 C436 C 0.11902 1.04839 -0.03582
 H437 H 0.18886 1.02598 -0.09727
 H438 H 0.24649 1.04637 -0.12174
 H439 H 0.24235 1.14156 -0.05015
 H440 H 0.18500 1.11965 -0.02592
 C441 C 0.31677 -0.07105 0.44001
 C442 C 0.29892 -0.05085 0.41303
 C443 C 0.26575 -0.06307 0.39885
 C444 C 0.24953 -0.09606 0.41133
 C445 C 0.26791 -0.11581 0.43910
 C446 C 0.30114 -0.10342 0.45313
 C447 C 0.35147 -0.05874 0.45357
 C448 C 0.38070 -0.04803 0.46411
 H449 H 0.31074 -0.02561 0.40276
 H450 H 0.25312 -0.04607 0.37834
 H451 H 0.25747 -0.14131 0.44984
 H452 H 0.31482 -0.11934 0.47403
 C453 C 0.55912 -0.18590 0.56857
 C454 C 0.58625 -0.20386 0.54875
 C455 C 0.60066 -0.23703 0.56129
 C456 C 0.58829 -0.25313 0.59424
 C457 C 0.56031 -0.23470 0.61356
 C458 C 0.54605 -0.20147 0.60085
 C459 C 0.54551 -0.15103 0.55613
 C460 C 0.53497 -0.12157 0.54549
 H461 H 0.59649 -0.19207 0.52359
 H462 H 0.62131 -0.24974 0.54461
 H463 H 0.54960 -0.24506 0.63898
 H464 H 0.52505 -0.18771 0.61648
 C465 C 1.05812 0.68282 0.43067
 C466 C 1.07588 0.70668 0.45476
 C467 C 1.09004 0.73997 0.44212
 C468 C 1.08664 0.74988 0.40513
 C469 C 1.06831 0.72588 0.38121
 C470 C 1.05421 0.69256 0.39392
 C471 C 1.04515 0.64781 0.44348
 C472 C 1.03519 0.61828 0.45452
 H473 H 1.07907 0.69940 0.48327
 H474 H 1.10352 0.75801 0.46131
 H475 H 1.06564 0.73241 0.35252
 H476 H 1.04070 0.67420 0.37498
 C477 C -0.06004 1.18581 0.06850
 C478 C -0.04661 1.20156 0.10054
 C479 C -0.06091 1.23472 0.11336
 C480 C -0.08927 1.25293 0.09440
 C481 C -0.10203 1.23664 0.06169
 C482 C -0.08758 1.20352 0.04904
 C483 C -0.04632 1.15101 0.05597
 C484 C -0.03565 1.12159 0.04532
 H485 H -0.02529 1.18799 0.11590
 H486 H -0.04987 1.24522 0.13858
 H487 H -0.12304 1.24914 0.04530
 H488 H -0.09812 1.19158 0.02406
 C489 C 0.44209 0.31704 0.93068
 C490 C 0.42427 0.29323 0.95478
 C491 C 0.41004 0.25996 0.94214
 C492 C 0.41341 0.25005 0.90516
 C493 C 0.43180 0.27399 0.88124
 C494 C 0.44598 0.30728 0.89393
 C495 C 0.45513 0.35202 0.94348
 C496 C 0.46513 0.38155 0.95450
 H497 H 0.42110 0.30051 0.98329
 H498 H 0.39652 0.24196 0.96134
 H499 H 0.43445 0.26746 0.85255
 H500 H 0.45953 0.32561 0.87499
 C501 C 0.57060 0.55755 0.81708
 C502 C 0.54649 0.57461 0.79286
 C503 C 0.55910 0.58841 0.75957
 C504 C 0.59609 0.58535 0.75001
 C505 C 0.62003 0.56770 0.77436
 C506 C 0.60735 0.55396 0.80769
 C507 C 0.55776 0.54494 0.85205
 C508 C 0.54664 0.53527 0.88150
 H509 H 0.51797 0.57754 0.79985
 H510 H 0.53989 0.60135 0.74125
 H511 H 0.64871 0.56531 0.76809
 H512 H 0.62630 0.54097 0.82632
 C513 C 0.42981 0.05734 0.68352
 C514 C 0.45410 0.07445 0.70754
 C515 C 0.44162 0.08873 0.74069
 C516 C 0.40461 0.08608 0.75026
 C517 C 0.38048 0.06843 0.72606
 C518 C 0.39302 0.05421 0.69291
 C519 C 0.44247 0.04406 0.64877
 C520 C 0.45325 0.03367 0.61944
 H521 H 0.48265 0.07701 0.70054
 H522 H 0.46096 0.10168 0.75888
 H523 H 0.35177 0.06637 0.73233
 H524 H 0.37394 0.04119 0.67442
 C525 C 0.06993 0.94280 0.18357
 C526 C 0.04565 0.92557 0.20754
 C527 C 0.05814 0.91126 0.24067
 C528 C 0.09514 0.91398 0.25028
 C529 C 0.11925 0.93172 0.22614
 C530 C 0.10670 0.94598 0.19300
 C531 C 0.05727 0.95611 0.14883
 C532 C 0.04651 0.96652 0.11951
 H533 H 0.01711 0.92296 0.20051
 H534 H 0.03882 0.89822 0.25883
 H535 H 0.14795 0.93384 0.23243
 H536 H 0.12577 0.95908 0.17455
 C537 C 0.92975 0.44212 0.31721
 C538 C 0.95374 0.42504 0.29288
 C539 C 0.94098 0.41129 0.25962
 C540 C 0.90396 0.41441 0.25021
 C541 C 0.88014 0.43207 0.27467
 C542 C 0.89297 0.44577 0.30796
 C543 C 0.94273 0.45469 0.35213
 C544 C 0.95390 0.46437 0.38156
 H545 H 0.98228 0.42207 0.29976
 H546 H 0.96010 0.39834 0.24122
 H547 H 0.85143 0.43451 0.26852
 H548 H 0.87411 0.45876 0.32668
   
