data_POSCAR
  _audit_creation_date              2014-09-24
  _audit_creation_method            'ToBaCCo'
  _symmetry_space_group_name_H-M    'P1'
  _symmetry_Int_Tables_number       1
  _symmetry_cell_setting            triclinic
  loop_
  _symmetry_equiv_pos_as_xyz
 x,y,z
_cell_length_a 44.4478
_cell_length_b 45.4751
_cell_length_c 45.0788
_cell_angle_alpha 90.993500
_cell_angle_beta 90.466900
_cell_angle_gamma 91.103300
loop_
  _atom_site_label
  _atom_site_type_symbol
  _atom_site_fract_x
  _atom_site_fract_y
  _atom_site_fract_z
N1 N 0.16805 0.23877 0.23914
 N2 N 0.17602 0.21498 0.25313
 C3 C 0.15750 0.21067 0.27616
 C4 C 0.13679 0.23293 0.27659
 C5 C 0.14397 0.25028 0.25271
 H6 H 0.15874 0.19251 0.29123
 H7 H 0.13263 0.26991 0.24588
 Cu8 Cu 0.20963 0.19187 0.23982
 Cu9 Cu 0.18993 0.25309 0.20479
 Cu10 Cu 0.25074 0.21191 0.18127
 N11 N 0.24329 0.16877 0.22658
 N12 N 0.25978 0.17686 0.20395
 C13 C 0.28189 0.15732 0.19999
 C14 C 0.27883 0.13588 0.22131
 C15 C 0.25413 0.14378 0.23763
 H16 H 0.29865 0.15849 0.18278
 H17 H 0.24495 0.13214 0.25633
 N18 N 0.23787 0.24805 0.16139
 N19 N 0.21497 0.26382 0.17055
 C20 C 0.21198 0.28704 0.15267
 C21 C 0.23399 0.28576 0.13120
 C22 C 0.24989 0.26076 0.13732
 H23 H 0.19480 0.30341 0.15487
 H24 H 0.26882 0.25251 0.12501
 H25 H 0.20521 0.21268 0.19055
 H26 H 0.23071 0.23496 0.21555
 N27 N 0.65603 0.73571 0.74208
 N28 N 0.66547 0.71372 0.75798
 C29 C 0.64714 0.71036 0.78140
 C30 C 0.62510 0.73134 0.77999
 C31 C 0.63141 0.74705 0.75470
 H32 H 0.64962 0.69404 0.79836
 H33 H 0.61929 0.76550 0.74618
 Cu34 Cu 0.70092 0.69195 0.74644
 Cu35 Cu 0.67668 0.74861 0.70667
 Cu36 Cu 0.74004 0.71040 0.68559
 N37 N 0.73574 0.66991 0.73373
 N38 N 0.75134 0.67753 0.71033
 C39 C 0.77409 0.65869 0.70662
 C40 C 0.77250 0.63812 0.72888
 C41 C 0.74790 0.64584 0.74556
 H42 H 0.79009 0.65952 0.68870
 H43 H 0.73946 0.63455 0.76479
 N44 N 0.72469 0.74422 0.66354
 N45 N 0.70044 0.75855 0.67157
 C46 C 0.69536 0.78000 0.65206
 C47 C 0.71733 0.77916 0.63071
 C48 C 0.73564 0.75621 0.63860
 H49 H 0.67693 0.79513 0.65309
 H50 H 0.75530 0.74865 0.62701
 H51 H 0.69499 0.70821 0.69557
 H52 H 0.71904 0.73409 0.71850
 N53 N 0.32202 0.75283 0.74246
 N54 N 0.31686 0.77594 0.75949
 C55 C 0.33829 0.77784 0.78092
 C56 C 0.35775 0.75464 0.77684
 C57 C 0.34669 0.73936 0.75233
 H58 H 0.34021 0.79531 0.79745
 H59 H 0.35657 0.72029 0.74189
 Cu60 Cu 0.28376 0.80241 0.75087
 Cu61 Cu 0.29809 0.74247 0.70747
 Cu62 Cu 0.24515 0.79232 0.68661
 N63 N 0.25525 0.83138 0.73643
 N64 N 0.24165 0.82764 0.71062
 C65 C 0.22446 0.85089 0.70510
 C66 C 0.22696 0.87035 0.72893
 C67 C 0.24658 0.85720 0.74856
 H68 H 0.21049 0.85291 0.68555
 H69 H 0.25422 0.86599 0.76983
 N70 N 0.25138 0.75539 0.66488
 N71 N 0.27155 0.73606 0.67270
 C72 C 0.27125 0.71377 0.65252
 C73 C 0.24972 0.71962 0.63115
 C74 C 0.23762 0.74600 0.63973
 H75 H 0.28617 0.69529 0.65283
 H76 H 0.22063 0.75789 0.62783
 H77 H 0.28962 0.78590 0.69970
 H78 H 0.25986 0.76420 0.71955
 N79 N 0.83743 0.26486 0.25322
 N80 N 0.83480 0.29338 0.25751
 C81 C 0.85583 0.30307 0.27711
 C82 C 0.87214 0.27934 0.28621
 C83 C 0.85982 0.25525 0.27074
 H84 H 0.85896 0.32574 0.28435
 H85 H 0.86769 0.23290 0.27077
 Cu86 Cu 0.80365 0.31567 0.23849
 Cu87 Cu 0.81450 0.24380 0.22194
 Cu88 Cu 0.75212 0.27962 0.19603
 N89 N 0.76485 0.33230 0.22967
 N90 N 0.74442 0.31798 0.21358
 C91 C 0.71991 0.33469 0.21101
 C92 C 0.72526 0.36077 0.22647
 C93 C 0.75406 0.35855 0.23804
 H94 H 0.69972 0.32848 0.19870
 H95 H 0.76639 0.37471 0.25143
 N96 N 0.76404 0.24104 0.18061
 N97 N 0.78829 0.22743 0.18974
 C98 C 0.79312 0.20430 0.17132
 C99 C 0.77075 0.20335 0.14972
 C100 C 0.75269 0.22695 0.15649
 H101 H 0.81259 0.19042 0.17226
 H102 H 0.73420 0.23493 0.14341
 H103 H 0.79972 0.27920 0.19892
 H104 H 0.77845 0.26851 0.23320
 N105 N 0.82920 0.73521 0.26036
 N106 N 0.82122 0.71138 0.24511
 C107 C 0.84184 0.70616 0.22410
 C108 C 0.86391 0.72776 0.22624
 C109 C 0.85528 0.74595 0.24953
 H110 H 0.84087 0.68815 0.20811
 H111 H 0.86673 0.76569 0.25770
 Cu112 Cu 0.78467 0.68953 0.25391
 Cu113 Cu 0.80449 0.75076 0.29244
 Cu114 Cu 0.73845 0.71175 0.30768
 N115 N 0.74809 0.66772 0.26271
 N116 N 0.73007 0.67628 0.28399
 C117 C 0.70744 0.65636 0.28650
 C118 C 0.71152 0.63425 0.26559
 C119 C 0.73757 0.64218 0.25088
 H120 H 0.68977 0.65742 0.30281
 H121 H 0.74867 0.62983 0.23362
 N122 N 0.75093 0.74809 0.32915
 N123 N 0.77621 0.76272 0.32381
 C124 C 0.77890 0.78545 0.34331
 C125 C 0.75417 0.78510 0.36167
 C126 C 0.73688 0.76114 0.35201
 H127 H 0.79780 0.80077 0.34464
 H128 H 0.71610 0.75317 0.36148
 H129 H 0.78483 0.71106 0.30375
 H130 H 0.76408 0.73369 0.27650
 N131 N 0.33471 0.24132 -0.24050
 N132 N 0.32689 0.21788 -0.25650
 C133 C 0.34706 0.21380 -0.27813
 C134 C 0.36884 0.23564 -0.27573
 C135 C 0.36044 0.25289 -0.25151
 H136 H 0.34614 0.19618 -0.29455
 H137 H 0.37187 0.27238 -0.24268
 Cu138 Cu 0.29149 0.19433 -0.24777
 Cu139 Cu 0.31031 0.25489 -0.20690
 Cu140 Cu 0.24602 0.21289 -0.19249
 N141 N 0.25595 0.17082 -0.23904
 N142 N 0.23797 0.17851 -0.21741
 C143 C 0.21603 0.15798 -0.21482
 C144 C 0.22059 0.13622 -0.23586
 C145 C 0.24609 0.14505 -0.25099
 H146 H 0.19868 0.15821 -0.19814
 H147 H 0.25717 0.13323 -0.26866
 N148 N 0.25756 0.24822 -0.16946
 N149 N 0.28203 0.26435 -0.17421
 C150 C 0.28402 0.28572 -0.15295
 C151 C 0.25962 0.28241 -0.13418
 C152 C 0.24355 0.25861 -0.14534
 H153 H 0.30236 0.30158 -0.15056
 H154 H 0.22359 0.24893 -0.13569
 H155 H 0.29279 0.21424 -0.19725
 H156 H 0.27078 0.23732 -0.22307
 N157 N 0.67179 0.25250 -0.24008
 N158 N 0.67855 0.27446 -0.25755
 C159 C 0.65747 0.27557 -0.27928
 C160 C 0.63648 0.25309 -0.27478
 C161 C 0.64640 0.23898 -0.24986
 H162 H 0.65695 0.29198 -0.29635
 H163 H 0.63538 0.22064 -0.23916
 Cu164 Cu 0.71334 0.30027 -0.24876
 Cu165 Cu 0.69500 0.24358 -0.20496
 Cu166 Cu 0.75451 0.29034 -0.18622
 N167 N 0.74644 0.32700 -0.23694
 N168 N 0.76222 0.32307 -0.21256
 C169 C 0.78292 0.34494 -0.20945
 C170 C 0.78002 0.36365 -0.23305
 C171 C 0.75661 0.35161 -0.25011
 H172 H 0.79866 0.34739 -0.19112
 H173 H 0.74729 0.36033 -0.27027
 N174 N 0.74319 0.25585 -0.16251
 N175 N 0.72078 0.23778 -0.17016
 C176 C 0.71881 0.21611 -0.15029
 C177 C 0.74106 0.22074 -0.12906
 C178 C 0.75600 0.24619 -0.13735
 H179 H 0.70219 0.19846 -0.15103
 H180 H 0.77496 0.25666 -0.12597
 H181 H 0.70945 0.28679 -0.19682
 H182 H 0.73563 0.26262 -0.21797
 N183 N 0.17235 0.75367 0.25566
 N184 N 0.17800 0.77700 0.23969
 C185 C 0.15613 0.77901 0.21877
 C186 C 0.13602 0.75557 0.22226
 C187 C 0.14710 0.74014 0.24572
 H188 H 0.15431 0.79665 0.20312
 H189 H 0.13670 0.72100 0.25558
 Cu190 Cu 0.21254 0.80277 0.24995
 Cu191 Cu 0.19581 0.74349 0.29005
 Cu192 Cu 0.25591 0.78902 0.31024
 N193 N 0.24725 0.82784 0.26105
 N194 N 0.26374 0.82260 0.28469
 C195 C 0.28541 0.84363 0.28760
 C196 C 0.28245 0.86315 0.26461
 C197 C 0.25796 0.85236 0.24810
 H198 H 0.30196 0.84485 0.30533
 H199 H 0.24827 0.86180 0.22847
 N200 N 0.24410 0.75367 0.33280
 N201 N 0.22155 0.73614 0.32430
 C202 C 0.21887 0.71388 0.34334
 C203 C 0.24077 0.71736 0.36499
 C204 C 0.25634 0.74291 0.35782
 H205 H 0.20177 0.69671 0.34192
 H206 H 0.27518 0.75279 0.36990
 H207 H 0.21085 0.78623 0.30107
 H208 H 0.23634 0.76371 0.27742
 N209 N 0.48745 0.41468 0.48846
 N210 N 0.46425 0.42294 0.50423
 C211 C 0.46037 0.40421 0.52673
 C212 C 0.48236 0.38309 0.52494
 C213 C 0.49903 0.39034 0.50031
 H214 H 0.44274 0.40576 0.54301
 H215 H 0.51826 0.37879 0.49178
 Cu216 Cu 0.44136 0.45733 0.49386
 Cu217 Cu 0.50104 0.43640 0.45405
 Cu218 Cu 0.46002 0.49735 0.43453
 N219 N 0.41827 0.49128 0.48258
 N220 N 0.42590 0.50690 0.45945
 C221 C 0.40668 0.52916 0.45663
 C222 C 0.38585 0.52737 0.47907
 C223 C 0.39377 0.50305 0.49520
 H224 H 0.40759 0.54540 0.43940
 H225 H 0.38263 0.49462 0.51459
 N226 N 0.49535 0.48412 0.41224
 N227 N 0.51120 0.46119 0.41998
 C228 C 0.53407 0.45801 0.40090
 C229 C 0.53252 0.48000 0.38011
 C230 C 0.50764 0.49602 0.38787
 H231 H 0.55033 0.44070 0.40182
 H232 H 0.49922 0.51497 0.37652
 H233 H 0.48455 0.47692 0.46704
 H234 H 0.45945 0.45295 0.44314
 N235 N -0.01628 -0.08982 0.99141
 N236 N -0.03823 -0.07936 1.00752
 C237 C -0.04418 -0.09815 1.02959
 C238 C -0.02479 -0.12156 1.02697
 C239 C -0.00753 -0.11556 1.00251
 H240 H -0.06134 -0.09503 1.04613
 H241 H 0.01030 -0.12890 0.99366
 Cu242 Cu -0.05706 -0.04233 0.99820
 Cu243 Cu 0.00000 -0.06892 0.95807
 Cu244 Cu -0.03538 -0.00562 0.93667
 N245 N -0.07825 -0.00821 0.98419
 N246 N -0.07012 0.00589 0.96022
 C247 C -0.08910 0.02820 0.95593
 C248 C -0.11018 0.02804 0.97835
 C249 C -0.10262 0.00459 0.99588
 H250 H -0.08776 0.04345 0.93782
 H251 H -0.11409 -0.00280 1.01551
 N252 N 0.00034 -0.02120 0.91611
 N253 N 0.01374 -0.04523 0.92491
 C254 C 0.03776 -0.05012 0.90783
 C255 C 0.03970 -0.02841 0.88711
 C256 C 0.01560 -0.01027 0.89278
 H257 H 0.05297 -0.06822 0.91019
 H258 H 0.00989 0.00947 0.88114
 H259 H -0.01325 -0.02632 0.97000
 H260 H -0.04075 -0.04897 0.94719
 N261 N 1.01890 0.59455 0.98057
 N262 N 1.04406 0.58849 0.99451
 C263 C 1.04832 0.60796 1.01715
 C264 C 1.02446 0.62704 1.01748
 C265 C 1.00627 0.61793 0.99385
 H266 H 1.06686 0.60783 1.03282
 H267 H 0.98526 0.62737 0.98697
 Cu268 Cu 1.06760 0.55463 0.98246
 Cu269 Cu 1.00379 0.57120 0.94678
 Cu270 Cu 1.04646 0.51215 0.92367
 N271 N 1.09080 0.52072 0.97004
 N272 N 1.08290 0.50471 0.94657
 C273 C 1.10207 0.48229 0.94352
 C274 C 1.12280 0.48408 0.96650
 C275 C 1.11508 0.50882 0.98288
 H276 H 1.10030 0.46514 0.92664
 H277 H 1.12596 0.51718 1.00291
 N278 N 1.00870 0.52315 0.90367
 N279 N 0.99217 0.54522 0.91300
 C280 C 0.96743 0.54663 0.89569
 C281 C 0.96841 0.52440 0.87437
 C282 C 0.99493 0.51006 0.88001
 H283 H 0.95023 0.56292 0.89818
 H284 H 1.00340 0.49134 0.86778
 H285 H 1.02369 0.53196 0.95792
 H286 H 1.04535 0.55665 0.93288
 N287 N 0.51929 0.09896 0.47837
 N288 N 0.54381 0.09195 0.49293
 C289 C 0.54815 0.11114 0.51577
 C290 C 0.52503 0.13105 0.51568
 C291 C 0.50713 0.12269 0.49155
 H292 H 0.56627 0.11026 0.53188
 H293 H 0.48658 0.13280 0.48431
 Cu294 Cu 0.56689 0.05754 0.48156
 Cu295 Cu 0.50417 0.07606 0.44420
 Cu296 Cu 0.54034 0.01113 0.42809
 N297 N 0.58775 0.02158 0.47073
 N298 N 0.57766 0.00396 0.44929
 C299 C 0.59572 -0.01936 0.44689
 C300 C 0.61811 -0.01647 0.46818
 C301 C 0.61246 0.00982 0.48293
 H302 H 0.59221 -0.03767 0.43154
 H303 H 0.62505 0.01939 0.50143
 N304 N 0.50584 0.02473 0.40473
 N305 N 0.49227 0.04969 0.41067
 C306 C 0.46979 0.05301 0.39086
 C307 C 0.46916 0.02905 0.37158
 C308 C 0.49239 0.01154 0.38096
 H309 H 0.45480 0.07145 0.39044
 H310 H 0.49914 -0.00913 0.37117
 H311 H 0.52000 0.03750 0.46036
 H312 H 0.54408 0.05626 0.43228
 N313 N -0.03029 0.08588 0.51339
 N314 N -0.05084 0.07595 0.49436
 C315 C -0.05467 0.09584 0.47301
 C316 C -0.03576 0.11962 0.47896
 C317 C -0.02054 0.11267 0.50479
 H318 H -0.06963 0.09301 0.45408
 H319 H -0.00262 0.12537 0.51555
 Cu320 Cu -0.07029 0.03759 0.49786
 Cu321 Cu -0.01519 0.06168 0.54561
 Cu322 Cu -0.05439 -0.00329 0.55689
 N323 N -0.09602 0.00459 0.50902
 N324 N -0.08971 -0.01093 0.53249
 C325 C -0.11114 -0.03174 0.53592
 C326 C -0.13196 -0.02934 0.51336
 C327 C -0.12178 -0.00604 0.49650
 H328 H -0.11168 -0.04750 0.55361
 H329 H -0.13245 0.00283 0.47705
 N330 N -0.01825 0.00797 0.57954
 N331 N -0.00371 0.03330 0.57649
 C332 C 0.01996 0.03423 0.59554
 C333 C 0.02015 0.00801 0.61080
 C334 C -0.00418 -0.00801 0.60000
 H335 H 0.03647 0.05198 0.59726
 H336 H -0.01089 -0.02993 0.60650
 H337 H -0.02784 0.02198 0.52768
 H338 H -0.05663 0.04233 0.54982
 N339 N 0.47146 0.61015 0.02810
 N340 N 0.44586 0.60384 0.01437
 C341 C 0.44151 0.62337 -0.00728
 C342 C 0.46572 0.64284 -0.00728
 C343 C 0.48430 0.63388 0.01556
 H344 H 0.42276 0.62272 -0.02275
 H345 H 0.50593 0.64328 0.02207
 Cu346 Cu 0.42166 0.56933 0.02397
 Cu347 Cu 0.48726 0.58602 0.05984
 Cu348 Cu 0.45080 0.51924 0.06925
 N349 N 0.40477 0.52969 0.02595
 N350 N 0.41694 0.51007 0.04317
 C351 C 0.40131 0.48460 0.04050
 C352 C 0.37796 0.48841 0.02077
 C353 C 0.38069 0.51735 0.01184
 H354 H 0.40601 0.46489 0.05264
 H355 H 0.36625 0.52863 -0.00348
 N356 N 0.48530 0.53234 0.09373
 N357 N 0.49929 0.55792 0.09055
 C358 C 0.52225 0.55997 0.11030
 C359 C 0.52269 0.53435 0.12642
 C360 C 0.49883 0.51746 0.11541
 H361 H 0.53795 0.57837 0.11238
 H362 H 0.49187 0.49584 0.12253
 H363 H 0.46916 0.54901 0.03949
 H364 H 0.44777 0.56500 0.07143
 N365 N 0.52804 -0.09010 0.02718
 N366 N 0.55019 -0.08080 0.01038
 C367 C 0.55095 -0.09767 -0.01441
 C368 C 0.52804 -0.11851 -0.01318
 C369 C 0.51385 -0.11311 0.01355
 H370 H 0.56705 -0.09521 -0.03208
 H371 H 0.49481 -0.12503 0.02251
 Cu372 Cu 0.57614 -0.04784 0.02269
 Cu373 Cu 0.51947 -0.07163 0.06545
 Cu374 Cu 0.56511 -0.01202 0.08734
 N375 N 0.60165 -0.01456 0.03502
 N376 N 0.59760 -0.00077 0.06052
 C377 C 0.61818 0.02130 0.06339
 C378 C 0.63593 0.02143 0.03830
 C379 C 0.62480 -0.00169 0.02080
 H380 H 0.61968 0.03664 0.08197
 H381 H 0.63285 -0.00859 -0.00072
 N382 N 0.53113 -0.02688 0.11131
 N383 N 0.51432 -0.04999 0.10329
 C384 C 0.49255 -0.05399 0.12353
 C385 C 0.49565 -0.03224 0.14520
 C386 C 0.52023 -0.01543 0.13674
 H387 H 0.47472 -0.07045 0.12177
 H388 H 0.52881 0.00431 0.14784
 H389 H 0.53648 -0.03034 0.05540
 H390 H 0.56255 -0.05572 0.07431
 N391 N 1.02204 0.39944 0.52262
 N392 N 1.04184 0.41027 0.50406
 C393 C 1.04448 0.39157 0.48083
 C394 C 1.02515 0.36773 0.48493
 C395 C 1.01140 0.37340 0.51178
 H396 H 1.05945 0.39511 0.46241
 H397 H 0.99444 0.35986 0.52228
 Cu398 Cu 1.06232 0.44793 0.51128
 Cu399 Cu 1.00997 0.42115 0.55812
 Cu400 Cu 1.04687 0.48780 0.57231
 N401 N 1.08814 0.48077 0.52442
 N402 N 1.08248 0.49597 0.54873
 C403 C 1.10292 0.51811 0.55175
 C404 C 1.12223 0.51689 0.52790
 C405 C 1.11229 0.49279 0.51105
 H406 H 1.10298 0.53465 0.56929
 H407 H 1.12155 0.48489 0.49036
 N408 N 1.01452 0.47237 0.59765
 N409 N 1.00080 0.44675 0.59259
 C410 C 0.97861 0.44331 0.61253
 C411 C 0.97821 0.46799 0.63081
 C412 C 1.00144 0.48589 0.62088
 H413 H 0.96281 0.42494 0.61282
 H414 H 1.00774 0.50758 0.62923
 H415 H 1.02031 0.46224 0.54301
 H416 H 1.05083 0.44352 0.56368
 C417 C 0.34969 0.02754 0.23440
 C418 C 0.33210 -0.00157 0.23640
 C419 C 0.34923 -0.02500 0.24368
 C420 C 0.38279 -0.01683 0.24861
 C421 C 0.36534 0.03127 0.26454
 C422 C 0.38301 0.00844 0.27202
 C423 C 0.37495 0.02133 0.21240
 C424 C 0.39236 -0.00176 0.21966
 H425 H 0.30792 -0.00298 0.23351
 H426 H 0.39655 -0.03586 0.25483
 H427 H 0.36357 0.05098 0.27823
 H428 H 0.37876 0.03424 0.19276
 C429 C 0.14627 -0.02875 0.74086
 C430 C 0.16694 -0.00167 0.74460
 C431 C 0.15201 0.02409 0.74729
 C432 C 0.11765 0.02034 0.74676
 C433 C 0.12552 -0.02774 0.76772
 C434 C 0.11052 -0.00199 0.77101
 C435 C 0.12573 -0.02195 0.71435
 C436 C 0.11084 0.00394 0.71738
 H437 H 0.19122 -0.00312 0.74526
 H438 H 0.10550 0.04135 0.74936
 H439 H 0.12188 -0.04657 0.78168
 H440 H 0.12456 -0.03574 0.69457
 C441 C 0.64763 0.46602 0.23913
 C442 C 0.66512 0.49523 0.24185
 C443 C 0.64760 0.51883 0.24785
 C444 C 0.61406 0.51089 0.25091
 C445 C 0.63025 0.46337 0.26807
 C446 C 0.61285 0.48694 0.27458
 C447 C 0.62354 0.47127 0.21547
 C448 C 0.60584 0.49481 0.22157
 H449 H 0.68934 0.49672 0.23972
 H450 H 0.59975 0.53009 0.25594
 H451 H 0.63073 0.44369 0.28120
 H452 H 0.62213 0.45856 0.19497
 C453 C 0.84515 0.53034 0.73802
 C454 C 0.82758 0.50120 0.74003
 C455 C 0.84494 0.47765 0.74616
 C456 C 0.87855 0.48567 0.75018
 C457 C 0.86206 0.53353 0.76762
 C458 C 0.87968 0.51021 0.77416
 C459 C 0.86954 0.52445 0.71494
 C460 C 0.88731 0.50125 0.72142
 H461 H 0.80334 0.49975 0.73770
 H462 H 0.89284 0.46659 0.75532
 H463 H 0.86159 0.55359 0.78084
 H464 H 0.87185 0.53713 0.69496
 C465 C 0.24384 0.36490 0.02736
 C466 C 0.25115 0.35000 -0.00231
 C467 C 0.25608 0.36904 -0.02487
 C468 C 0.25339 0.40151 -0.01552
 C469 C 0.27023 0.38633 0.03321
 C470 C 0.27531 0.40566 0.01099
 C471 C 0.21698 0.38441 0.02062
 C472 C 0.22204 0.40380 -0.00163
 H473 H 0.25359 0.32644 -0.00467
 H474 H 0.25696 0.41672 -0.03415
 H475 H 0.28358 0.38632 0.05344
 H476 H 0.19593 0.38284 0.03246
 C477 C 0.75419 0.14616 -0.02224
 C478 C 0.75705 0.16147 0.00812
 C479 C 0.76286 0.14289 0.03082
 C480 C 0.76587 0.11056 0.02083
 C481 C 0.78365 0.12985 -0.02598
 C482 C 0.78983 0.11101 -0.00382
 C483 C 0.73000 0.12211 -0.01804
 C484 C 0.73606 0.10334 0.00445
 H485 H 0.75443 0.18494 0.01128
 H486 H 0.77067 0.09567 0.03945
 H487 H 0.79804 0.13251 -0.04508
 H488 H 0.70910 0.12146 -0.03056
 C489 C 0.24583 0.63846 0.46925
 C490 C 0.25106 0.65307 0.49967
 C491 C 0.25536 0.63376 0.52203
 C492 C 0.25451 0.60139 0.51173
 C493 C 0.27310 0.61904 0.46462
 C494 C 0.27781 0.59959 0.48662
 C495 C 0.21933 0.61693 0.47369
 C496 C 0.22389 0.59736 0.49585
 H497 H 0.25200 0.67672 0.50292
 H498 H 0.25775 0.58572 0.53001
 H499 H 0.28731 0.62041 0.44525
 H500 H 0.19856 0.61796 0.46108
 C501 C 0.73073 0.85662 0.52518
 C502 C 0.72856 0.83907 0.49600
 C503 C 0.73331 0.85554 0.47142
 C504 C 0.73963 0.88831 0.47839
 C505 C 0.76164 0.87193 0.52461
 C506 C 0.76632 0.88868 0.50036
 C507 C 0.70819 0.88146 0.52168
 C508 C 0.71282 0.89811 0.49718
 H509 H 0.72556 0.81539 0.49526
 H510 H 0.74334 0.90161 0.45828
 H511 H 0.77802 0.87042 0.54243
 H512 H 0.68960 0.88468 0.53668
 C513 C 0.03257 0.23520 0.35824
 C514 C 0.00170 0.23912 0.34391
 C515 C -0.02100 0.24215 0.36369
 C516 C -0.01068 0.24143 0.39635
 C517 C 0.03682 0.26188 0.37901
 C518 C 0.01411 0.26554 0.39887
 C519 C 0.02835 0.20888 0.37865
 C520 C 0.00609 0.21222 0.39885
 H521 H -0.00217 0.23775 0.32015
 H522 H -0.02933 0.24410 0.41236
 H523 H 0.05667 0.27599 0.37825
 H524 H 0.04169 0.18924 0.37705
 C525 C -0.03126 0.74248 0.14583
 C526 C -0.00032 0.74856 0.15994
 C527 C 0.02174 0.75492 0.14003
 C528 C 0.01058 0.75465 0.10769
 C529 C -0.03766 0.76952 0.12729
 C530 C -0.01564 0.77626 0.10752
 C531 C -0.02622 0.71782 0.12298
 C532 C -0.00445 0.72415 0.10279
 H533 H 0.00318 0.74912 0.18373
 H534 H 0.02847 0.75981 0.09140
 H535 H -0.05839 0.78140 0.12940
 H536 H -0.03839 0.69698 0.12333
 C537 C 0.47281 0.24809 0.64458
 C538 C 0.50374 0.25188 0.65934
 C539 C 0.52659 0.25709 0.64001
 C540 C 0.51618 0.25814 0.60743
 C541 C 0.46871 0.27582 0.62640
 C542 C 0.49149 0.28141 0.60708
 C543 C 0.47664 0.22348 0.62133
 C544 C 0.49925 0.22869 0.60169
 H545 H 0.50676 0.25181 0.68319
 H546 H 0.53473 0.26243 0.59159
 H547 H 0.44857 0.28872 0.62788
 H548 H 0.46310 0.20343 0.62106
 C549 C 0.52164 0.75137 0.86164
 C550 C 0.49111 0.75375 0.84613
 C551 C 0.46807 0.76036 0.86476
 C552 C 0.47789 0.76386 0.89750
 C553 C 0.52618 0.78063 0.87853
 C554 C 0.50354 0.78718 0.89749
 C555 C 0.51660 0.72860 0.88580
 C556 C 0.49383 0.73512 0.90473
 H557 H 0.48864 0.75209 0.82225
 H558 H 0.45900 0.76901 0.91255
 H559 H 0.54626 0.79434 0.87658
 H560 H 0.52963 0.70880 0.88731
 C561 C 0.11187 0.23722 0.29740
 C562 C 0.11041 0.22304 0.32318
 C563 C 0.08561 0.22645 0.34436
 C564 C 0.05737 0.23202 0.33598
 H565 H 0.12873 0.20927 0.32996
 H566 H 0.09051 0.22268 0.36755
 H567 H 0.09491 0.25295 0.29161
 H568 H 0.05196 0.23450 0.31270
 C569 C 0.60077 0.73572 0.80155
 C570 C 0.58010 0.75657 0.79839
 C571 C 0.55564 0.76232 0.81962
 C572 C 0.54698 0.74393 0.84099
 H573 H 0.58132 0.77111 0.77969
 H574 H 0.54373 0.78269 0.81702
 H575 H 0.60057 0.72160 0.82059
 H576 H 0.55741 0.72280 0.84326
 C577 C 0.38609 0.74792 0.79223
 C578 C 0.39621 0.76175 0.81686
 C579 C 0.42609 0.75444 0.82886
 C580 C 0.43700 0.76595 0.85437
 H581 H 0.38306 0.77864 0.82757
 H582 H 0.43961 0.73928 0.81613
 H583 H 0.39952 0.73072 0.78234
 H584 H 0.42291 0.77975 0.86803
 C585 C -0.10271 0.28097 0.30491
 C586 C -0.09015 0.25749 0.31693
 C587 C -0.06086 0.26059 0.33210
 C588 C -0.05263 0.24281 0.35386
 H589 H -0.10071 0.23587 0.31480
 H590 H -0.04501 0.27708 0.32423
 H591 H -0.09304 0.30259 0.30992
 H592 H -0.06874 0.22763 0.36347
 C593 C -0.11016 0.73035 0.20633
 C594 C -0.08896 0.75153 0.20932
 C595 C -0.06380 0.75560 0.18842
 C596 C -0.05560 0.73566 0.16786
 H597 H -0.09064 0.76773 0.22706
 H598 H -0.05157 0.77643 0.18994
 H599 H -0.10942 0.71448 0.18825
 H600 H -0.06643 0.71421 0.16646
 C601 C 0.39325 0.23834 0.70515
 C602 C 0.41465 0.25943 0.70770
 C603 C 0.43993 0.26274 0.68665
 C604 C 0.44767 0.24246 0.66615
 H605 H 0.41336 0.27588 0.72526
 H606 H 0.45283 0.28318 0.68817
 H607 H 0.39404 0.22235 0.68719
 H608 H 0.43630 0.22128 0.66481
 C609 C 0.60961 0.24604 0.71027
 C610 C 0.59948 0.25974 0.68624
 C611 C 0.56916 0.25204 0.67466
 C612 C 0.55813 0.26297 0.64954
 H613 H 0.61270 0.27694 0.67589
 H614 H 0.55530 0.23717 0.68747
 H615 H 0.59587 0.22847 0.71942
 H616 H 0.57243 0.27633 0.63560
 C617 C 0.10691 0.74853 0.20791
 C618 C 0.09585 0.76179 0.18412
 C619 C 0.06532 0.75321 0.17376
 C620 C 0.05310 0.76290 0.14868
 H621 H 0.10868 0.77876 0.17299
 H622 H 0.05244 0.73814 0.18729
 H623 H 0.09362 0.73118 0.21801
 H624 H 0.06637 0.77644 0.13397
 C625 C 0.29694 0.10968 0.22641
 C626 C 0.32365 0.10544 0.21373
 C627 C 0.34215 0.07961 0.22004
 C628 C 0.33032 0.05315 0.22652
 H629 H 0.33336 0.12223 0.19980
 H630 H 0.36634 0.08237 0.21846
 H631 H 0.28835 0.09408 0.24227
 H632 H 0.30613 0.04999 0.22712
 C633 C 0.79147 0.61244 0.73386
 C634 C 0.81764 0.60842 0.71997
 C635 C 0.83672 0.58276 0.72535
 C636 C 0.82537 0.55604 0.73144
 H637 H 0.82640 0.62516 0.70542
 H638 H 0.86082 0.58580 0.72309
 H639 H 0.78392 0.59687 0.75025
 H640 H 0.80122 0.55271 0.73259
 C641 C 0.79748 0.39123 0.76271
 C642 C 0.79230 0.40905 0.73994
 C643 C 0.80686 0.43827 0.73634
 C644 C 0.83271 0.44735 0.74953
 H645 H 0.77487 0.40318 0.72391
 H646 H 0.79555 0.45275 0.72127
 H647 H 0.81401 0.39736 0.77956
 H648 H 0.84578 0.43227 0.76243
 C649 C 0.30006 -0.11130 0.26046
 C650 C 0.29534 -0.09297 0.23792
 C651 C 0.31088 -0.06422 0.23407
 C652 C 0.33661 -0.05518 0.24757
 H653 H 0.27757 -0.09793 0.22197
 H654 H 0.30016 -0.04988 0.21844
 H655 H 0.31740 -0.10606 0.27680
 H656 H 0.34910 -0.07005 0.26125
 C657 C 0.21226 -0.10292 0.73287
 C658 C 0.19679 -0.09042 0.71081
 C659 C 0.18044 -0.06278 0.71446
 C660 C 0.16336 -0.05699 0.73806
 H661 H 0.19731 -0.09955 0.68852
 H662 H 0.18061 -0.04778 0.69605
 H663 H 0.21408 -0.09180 0.75429
 H664 H 0.16221 -0.07257 0.75595
 C665 C 0.70430 0.38531 0.22933
 C666 C 0.71026 0.40869 0.24701
 C667 C 0.68977 0.43348 0.25132
 C668 C 0.66727 0.44010 0.23276
 H669 H 0.73066 0.40950 0.26027
 H670 H 0.69415 0.44761 0.27054
 H671 H 0.68329 0.38339 0.21713
 H672 H 0.66299 0.42716 0.21277
 C673 C 0.69342 0.60690 0.26200
 C674 C 0.69918 0.58721 0.24044
 C675 C 0.68474 0.55789 0.23737
 C676 C 0.65949 0.54925 0.25105
 H677 H 0.71692 0.59168 0.22480
 H678 H 0.69577 0.54280 0.22237
 H679 H 0.67611 0.60267 0.27817
 H680 H 0.64661 0.56468 0.26402
 C681 C 0.20300 0.10865 0.76107
 C682 C 0.21042 0.08725 0.74189
 C683 C 0.19466 0.05848 0.73971
 C684 C 0.16684 0.05325 0.74989
 H685 H 0.22999 0.08996 0.72804
 H686 H 0.20649 0.04124 0.72813
 H687 H 0.18437 0.10572 0.77606
 H688 H 0.15365 0.07094 0.75895
 C689 C 0.23941 0.30576 0.10630
 C690 C 0.22574 0.33167 0.10402
 C691 C 0.23080 0.35210 0.07930
 C692 C 0.23872 0.34335 0.05197
 H693 H 0.21119 0.33917 0.12161
 H694 H 0.22653 0.37517 0.08353
 H695 H 0.25573 0.29910 0.08993
 H696 H 0.24167 0.32019 0.04710
 C697 C 0.71945 0.79890 0.60521
 C698 C 0.74100 0.79672 0.58472
 C699 C 0.74390 0.81589 0.55864
 C700 C 0.72578 0.83826 0.55229
 H701 H 0.75772 0.77988 0.58676
 H702 H 0.76232 0.81120 0.54379
 H703 H 0.70241 0.81540 0.60367
 H704 H 0.70721 0.84381 0.56648
 C705 C 0.74934 0.80458 0.38764
 C706 C 0.72510 0.80164 0.40492
 C707 C 0.72132 0.81737 0.43349
 C708 C 0.73531 0.84279 0.44114
 H709 H 0.70815 0.78498 0.39959
 H710 H 0.70590 0.80716 0.44885
 H711 H 0.76702 0.82039 0.39339
 H712 H 0.74852 0.85470 0.42509
 C713 C 0.25237 0.29718 -0.10598
 C714 C 0.26509 0.32220 -0.09574
 C715 C 0.25615 0.33319 -0.06621
 C716 C 0.26458 0.35957 -0.05521
 H717 H 0.28175 0.33398 -0.10859
 H718 H 0.24174 0.31908 -0.05312
 H719 H 0.23510 0.28652 -0.09285
 H720 H 0.27727 0.37472 -0.06881
 C721 C 0.74755 0.20280 -0.10294
 C722 C 0.73618 0.17546 -0.10030
 C723 C 0.74236 0.15649 -0.07487
 C724 C 0.74785 0.16674 -0.04728
 H725 H 0.72303 0.16556 -0.11828
 H726 H 0.74089 0.13294 -0.07886
 H727 H 0.76278 0.21198 -0.08620
 H728 H 0.74823 0.19020 -0.04269
 C729 C 0.24579 0.69831 0.39065
 C730 C 0.23342 0.67118 0.39168
 C731 C 0.23722 0.65106 0.41663
 C732 C 0.24150 0.66013 0.44475
 H733 H 0.22105 0.66228 0.37270
 H734 H 0.23509 0.62770 0.41172
 H735 H 0.26033 0.70652 0.40844
 H736 H 0.24215 0.68342 0.45022
 C737 C 0.24229 0.70396 0.60321
 C738 C 0.25533 0.67921 0.59413
 C739 C 0.24854 0.66765 0.56411
 C740 C 0.26057 0.64307 0.55323
 H741 H 0.27164 0.66845 0.60800
 H742 H 0.23355 0.68009 0.55024
 H743 H 0.22596 0.71415 0.58885
 H744 H 0.27408 0.62942 0.56736
 C745 C 0.76994 0.18504 0.12224
 C746 C 0.74724 0.18692 0.10262
 C747 C 0.74698 0.17436 0.07224
 C748 C 0.76442 0.15267 0.06228
 H749 H 0.72834 0.20067 0.10775
 H750 H 0.73067 0.18368 0.05729
 H751 H 0.78920 0.17165 0.11738
 H752 H 0.77888 0.14104 0.07731
 C753 C 0.48729 0.35792 0.54450
 C754 C 0.47233 0.35495 0.56998
 C755 C 0.47491 0.33012 0.59050
 C756 C 0.49187 0.30630 0.58630
 H757 H 0.45666 0.37166 0.57668
 H758 H 0.46139 0.33199 0.61024
 H759 H 0.50364 0.34199 0.53757
 H760 H 0.50657 0.30459 0.56742
 C761 C -0.02204 0.85241 0.04564
 C762 C -0.03764 0.84917 0.07066
 C763 C -0.03581 0.82359 0.09032
 C764 C -0.01647 0.80140 0.08717
 H765 H -0.05309 0.86606 0.07745
 H766 H -0.05118 0.82392 0.10875
 H767 H -0.00654 0.83588 0.03822
 H768 H 0.00006 0.80156 0.06978
 C769 C 0.01914 0.65069 0.03962
 C770 C -0.00797 0.66269 0.04282
 C771 C -0.01535 0.68405 0.06657
 C772 C 0.00431 0.70362 0.07868
 H773 H -0.02667 0.65467 0.02923
 H774 H -0.03868 0.68433 0.07327
 H775 H 0.03735 0.65689 0.05469
 H776 H 0.02689 0.70560 0.07001
 C777 C 0.52024 0.15476 0.53792
 C778 C 0.49375 0.16810 0.54068
 C779 C 0.48696 0.18957 0.56459
 C780 C 0.50737 0.20790 0.57751
 H781 H 0.47506 0.16120 0.52652
 H782 H 0.46353 0.19105 0.57074
 H783 H 0.53835 0.15990 0.55348
 H784 H 0.53024 0.20870 0.56945
 C785 C -0.03074 0.14459 0.45915
 C786 C -0.01746 0.16994 0.46803
 C787 C -0.01133 0.19401 0.44717
 C788 C -0.00168 0.18865 0.41958
 H789 H -0.01187 0.17367 0.49123
 H790 H -0.01245 0.21644 0.45548
 H791 H -0.03871 0.14204 0.43645
 H792 H 0.00262 0.16622 0.41253
 C793 C 0.47111 0.66604 0.97080
 C794 C 0.49787 0.67974 0.96824
 C795 C 0.50529 0.70004 0.94406
 C796 C 0.48512 0.71639 0.92983
 H797 H 0.51632 0.67389 0.98265
 H798 H 0.52886 0.70199 0.93842
 H799 H 0.45318 0.67029 0.95514
 H800 H 0.46204 0.71699 0.93723
 C801 C 0.52180 0.85837 0.96419
 C802 C 0.49823 0.83955 0.96537
 C803 C 0.49288 0.81501 0.94376
 C804 C 0.50578 0.81348 0.91701
 H805 H 0.48291 0.84091 0.98385
 H806 H 0.47835 0.79719 0.95091
 H807 H 0.53797 0.85675 0.94652
 H808 H 0.52019 0.83121 0.90955
 C809 C 0.01989 0.34179 0.46518
 C810 C 0.03110 0.34074 0.43768
 C811 C 0.02872 0.31548 0.41667
 C812 C 0.01335 0.29017 0.42086
 H813 H 0.04380 0.35945 0.42965
 H814 H 0.04076 0.31854 0.39617
 H815 H 0.00671 0.32361 0.47365
 H816 H -0.00052 0.28733 0.44021
 C817 C 0.36069 0.54747 0.48341
 C818 C 0.33928 0.54354 0.50385
 C819 C 0.31336 0.56329 0.50702
 C820 C 0.30271 0.57877 0.48435
 H821 H 0.34091 0.52573 0.51935
 H822 H 0.30273 0.56440 0.52847
 H823 H 0.36011 0.56617 0.46893
 H824 H 0.31284 0.57655 0.46271
 C825 C 0.86475 0.04859 -0.01814
 C826 C 0.84542 0.04740 0.00463
 C827 C 0.81943 0.06707 0.00833
 C828 C 0.81698 0.09285 -0.00529
 H829 H 0.84764 0.03037 0.02092
 H830 H 0.80166 0.05954 0.02275
 H831 H 0.86212 0.06460 -0.03536
 H832 H 0.83481 0.10061 -0.01949
 C833 C 0.66032 0.04279 0.03152
 C834 C 0.67212 0.04469 0.00431
 C835 C 0.69450 0.06732 -0.00436
 C836 C 0.71486 0.07996 0.01418
 H837 H 0.66336 0.03064 -0.01347
 H838 H 0.69479 0.07271 -0.02765
 H839 H 0.66740 0.05822 0.04887
 H840 H 0.71669 0.07264 0.03683
 C841 C 0.14655 0.53833 0.52132
 C842 C 0.15831 0.54057 0.49415
 C843 C 0.18085 0.56327 0.48600
 C844 C 0.20141 0.57493 0.50494
 H845 H 0.14951 0.52672 0.47622
 H846 H 0.18135 0.56928 0.46288
 H847 H 0.15345 0.55371 0.53880
 H848 H 0.20295 0.56686 0.52734
 C849 C 0.14634 0.46257 -0.02714
 C850 C 0.15915 0.46080 -0.00024
 C851 C 0.18077 0.43800 0.00786
 C852 C 0.20004 0.42574 -0.01121
 H853 H 0.15187 0.47516 0.01758
 H854 H 0.18192 0.43252 0.03112
 H855 H 0.15166 0.44670 -0.04440
 H856 H 0.20127 0.43331 -0.03381
 C857 C 0.64128 0.96165 0.47446
 C858 C 0.65698 0.96184 0.49995
 C859 C 0.67770 0.93825 0.50812
 C860 C 0.69332 0.92247 0.48835
 H861 H 0.65259 0.97836 0.51685
 H862 H 0.68077 0.93459 0.53160
 H863 H 0.64380 0.94383 0.45849
 H864 H 0.69269 0.92803 0.46511
 C865 C 0.84095 0.95190 0.50998
 C866 C 0.82275 0.95167 0.48614
 C867 C 0.79579 0.93209 0.48394
 C868 C 0.79429 0.90615 0.49758
 H869 H 0.82672 0.96702 0.46845
 H870 H 0.77665 0.93983 0.47155
 H871 H 0.83601 0.93772 0.52842
 H872 H 0.81375 0.89822 0.50936
 C873 C 0.35469 0.46599 0.01356
 C874 C 0.32952 0.47148 -0.00172
 C875 C 0.30497 0.44931 -0.00587
 C876 C 0.29975 0.42799 0.01375
 H877 H 0.32661 0.49274 -0.01166
 H878 H 0.29012 0.45202 -0.02465
 H879 H 0.35836 0.44428 0.02218
 H880 H 0.31348 0.42716 0.03364
 C881 C 0.55212 0.48505 0.35437
 C882 C 0.57801 0.47079 0.35103
 C883 C 0.59796 0.47263 0.32505
 C884 C 0.59317 0.48877 0.30085
 H885 H 0.58520 0.45596 0.36808
 H886 H 0.61763 0.45906 0.32620
 H887 H 0.54472 0.50060 0.33814
 H888 H 0.57462 0.50372 0.29983
 C889 C 0.06348 -0.02674 0.86472
 C890 C 0.06361 -0.00861 0.84175
 C891 C 0.08765 -0.01142 0.81961
 C892 C 0.08792 0.00350 0.79434
 H893 H 0.04569 0.00689 0.83863
 H894 H 0.10531 -0.02688 0.82399
 H895 H 0.08138 -0.04249 0.86675
 H896 H 0.07113 0.02000 0.79048
 C897 C 0.04196 -0.00301 0.63240
 C898 C 0.05918 0.01435 0.64992
 C899 C 0.07903 0.00099 0.67208
 C900 C 0.09156 0.01686 0.69428
 H901 H 0.05773 0.03807 0.64873
 H902 H 0.08233 -0.02251 0.67075
 H903 H 0.04249 -0.02664 0.63515
 H904 H 0.08672 0.04008 0.69630
 C905 C 0.54479 0.52637 0.14940
 C906 C 0.54687 0.49862 0.15872
 C907 C 0.56962 0.48859 0.18004
 C908 C 0.58266 0.50580 0.20105
 H909 H 0.53269 0.48150 0.14876
 H910 H 0.57454 0.46539 0.17897
 H911 H 0.56037 0.54328 0.15757
 H912 H 0.57573 0.52833 0.20401
 C913 C 0.47486 -0.02527 0.16954
 C914 C 0.45385 -0.04447 0.17888
 C915 C 0.43026 -0.03647 0.20036
 C916 C 0.41828 -0.00968 0.20109
 H917 H 0.45369 -0.06696 0.17059
 H918 H 0.42047 -0.05393 0.21336
 H919 H 0.47667 -0.00350 0.17958
 H920 H 0.42630 0.00674 0.18576
 C921 C 0.95538 0.47452 0.65351
 C922 C 0.95253 0.50150 0.66548
 C923 C 0.92777 0.51005 0.68532
 C924 C 0.91238 0.49140 0.70254
 H925 H 0.96742 0.51916 0.65863
 H926 H 0.92291 0.53328 0.68634
 H927 H 0.93939 0.45718 0.65876
 H928 H 0.91896 0.46868 0.70397
 C929 C 0.94682 0.51779 0.84992
 C930 C 0.91994 0.53065 0.84851
 C931 C 0.89810 0.52759 0.82362
 C932 C 0.90073 0.50962 0.79986
 H933 H 0.91352 0.54559 0.86618
 H934 H 0.87883 0.54167 0.82529
 H935 H 0.95373 0.50247 0.83282
 H936 H 0.91881 0.49413 0.79863
 C937 C 0.44790 0.02437 0.34654
 C938 C 0.44766 0.00022 0.32893
 C939 C 0.42722 -0.00424 0.30296
 C940 C 0.40145 0.01017 0.29944
 H941 H 0.46415 -0.01658 0.33250
 H942 H 0.43427 -0.01975 0.28606
 H943 H 0.43252 0.04199 0.34243
 H944 H 0.39415 0.02541 0.31647
   
