data_POSCAR
  _audit_creation_date              2014-09-24
  _audit_creation_method            'ToBaCCo'
  _symmetry_space_group_name_H-M    'P1'
  _symmetry_Int_Tables_number       1
  _symmetry_cell_setting            triclinic
  loop_
  _symmetry_equiv_pos_as_xyz
 x,y,z
_cell_length_a 45.7975
_cell_length_b 49.0624
_cell_length_c 49.3732
_cell_angle_alpha 89.715300
_cell_angle_beta 89.591700
_cell_angle_gamma 91.556400
loop_
  _atom_site_label
  _atom_site_type_symbol
  _atom_site_fract_x
  _atom_site_fract_y
  _atom_site_fract_z
C1 C 0.23413 0.52160 1.05374
 H2 H 0.24690 0.53943 1.04770
 C3 C 0.21853 0.52185 1.07813
 H4 H 0.22023 0.54000 1.09041
 C5 C 0.21831 0.47611 1.04558
 H6 H 0.21817 0.45843 1.03257
 C7 C 0.20281 0.47525 1.07004
 H8 H 0.19024 0.45686 1.07484
 N9 N 0.23322 0.49916 1.03773
 C10 C 0.30787 0.52652 0.99805
 H11 H 0.31692 0.50645 0.99829
 C12 C 0.32664 0.54929 0.99583
 H13 H 0.34994 0.54635 0.99437
 C14 C 0.26666 0.55466 0.99840
 H15 H 0.24319 0.55651 0.99934
 C16 C 0.28468 0.57806 0.99626
 H17 H 0.27489 0.59789 0.99597
 Zn18 Zn 0.25338 0.49836 1.00409
 N19 N 0.27849 0.52956 0.99992
 C20 C 0.23726 0.49999 0.94940
 N21 N 0.22656 0.49802 0.97512
 C22 C 0.19732 0.49686 0.98013
 C23 C 0.17755 0.49732 0.95876
 C24 C 0.21826 0.50056 0.92741
 C25 C 0.29372 0.46299 1.02531
 C26 C 0.31197 0.44076 1.02625
 C27 C 0.29165 0.42515 0.98385
 C28 C 0.27378 0.44781 0.98368
 N29 N 0.27563 0.46647 1.00394
 H30 H 0.26062 0.50130 0.94603
 H31 H 0.18921 0.49567 1.00071
 H32 H 0.15437 0.49598 0.96319
 H33 H 0.22721 0.50253 0.90712
 H34 H 0.29434 0.47791 1.04138
 H35 H 0.32652 0.43857 1.04327
 H36 H 0.29064 0.41093 0.96715
 H37 H 0.25884 0.45067 0.96714
 C38 C 0.31516 0.57554 0.99534
 C39 C 0.20215 0.49854 1.08671
 C40 C 0.31146 0.42174 1.00510
 C41 C 0.18792 0.49927 0.93195
 C42 C 0.79676 0.52053 -0.03298
 H43 H 0.79757 0.53675 -0.01820
 C44 C 0.81693 0.52051 -0.05431
 H45 H 0.83338 0.53673 -0.05575
 C46 C 0.77471 0.47932 -0.04855
 H47 H 0.75843 0.46315 -0.04610
 C48 C 0.79452 0.47844 -0.07014
 H49 H 0.79286 0.46179 -0.08442
 N50 N 0.77594 0.50035 -0.03071
 C51 C 0.70540 0.53653 0.01545
 H52 H 0.70282 0.52171 0.03164
 C53 C 0.68719 0.55886 0.01438
 H54 H 0.67051 0.56105 0.02980
 C55 C 0.72967 0.55106 -0.02486
 H56 H 0.74595 0.54776 -0.04034
 C57 C 0.71181 0.57362 -0.02680
 H58 H 0.71496 0.58776 -0.04353
 Zn59 Zn 0.74941 0.50182 -0.00122
 N60 N 0.72636 0.53321 -0.00381
 C61 C 0.76975 0.52340 0.04883
 N62 N 0.77154 0.50243 0.03101
 C63 C 0.78999 0.48162 0.03529
 C64 C 0.80703 0.48096 0.05860
 C65 C 0.78649 0.52361 0.07236
 C66 C 0.70448 0.46935 -0.02256
 C67 C 0.68386 0.44795 -0.02371
 C68 C 0.70247 0.43064 0.01850
 C69 C 0.72269 0.45247 0.01891
 N70 N 0.72342 0.47119 -0.00154
 H71 H 0.75552 0.54010 0.04481
 H72 H 0.79141 0.46549 0.02052
 H73 H 0.82175 0.46431 0.06153
 H74 H 0.78454 0.54030 0.08646
 H75 H 0.70534 0.48469 -0.03839
 H76 H 0.66902 0.44678 -0.04067
 H77 H 0.70183 0.41618 0.03515
 H78 H 0.73738 0.45463 0.03580
 C79 C 0.69028 0.57778 -0.00696
 C80 C 0.81589 0.49930 -0.07332
 C81 C 0.68260 0.42830 -0.00294
 C82 C 0.80537 0.50214 0.07753
 C83 C -0.02651 0.29427 0.45320
 H84 H -0.04255 0.29279 0.46937
 C85 C -0.02968 0.31333 0.43248
 H86 H -0.04914 0.32529 0.43279
 C87 C 0.01742 0.27921 0.43362
 H88 H 0.03621 0.26640 0.43461
 C89 C 0.01526 0.29814 0.41250
 H90 H 0.03305 0.29945 0.39802
 N91 N -0.00319 0.27782 0.45354
 C92 C -0.03133 0.21358 0.51010
 H93 H -0.01376 0.21509 0.52459
 C94 C -0.05371 0.19400 0.51370
 H95 H -0.05340 0.18082 0.53134
 C96 C -0.05285 0.22911 0.46956
 H97 H -0.05208 0.24240 0.45205
 C98 C -0.07560 0.20968 0.47228
 H99 H -0.09210 0.20828 0.45672
 Zn100 Zn 0.00090 0.25549 0.48452
 N101 N -0.03137 0.23076 0.48842
 C102 C -0.01691 0.27841 0.53483
 N103 N 0.00345 0.27924 0.51461
 C104 C 0.02560 0.29826 0.51443
 C105 C 0.02834 0.31704 0.53545
 C106 C -0.01509 0.29693 0.55620
 C107 C 0.03549 0.21559 0.46157
 C108 C 0.05867 0.19779 0.45958
 C109 C 0.08020 0.21903 0.49900
 C110 C 0.05651 0.23634 0.50032
 N111 N 0.03476 0.23432 0.48175
 H112 H -0.03490 0.26374 0.53421
 H113 H 0.04121 0.29876 0.49787
 H114 H 0.04650 0.33163 0.53510
 H115 H -0.03180 0.29622 0.57183
 H116 H 0.01772 0.21420 0.44728
 H117 H 0.05878 0.18291 0.44347
 H118 H 0.09692 0.22044 0.51436
 H119 H 0.05520 0.25080 0.51666
 C120 C -0.07618 0.19169 0.49454
 C121 C -0.00826 0.31624 0.41182
 C122 C 0.08129 0.19921 0.47862
 C123 C 0.00777 0.31662 0.55671
 C124 C 0.97987 0.69394 0.54114
 H125 H 0.96228 0.69238 0.52668
 C126 C 0.98202 0.67444 0.56167
 H127 H 0.96603 0.65781 0.56272
 C128 C 1.02287 0.71687 0.55632
 H129 H 1.03905 0.73313 0.55387
 C130 C 1.02580 0.69787 0.57722
 H131 H 1.04394 0.70016 0.59104
 N132 N 1.00008 0.71464 0.53888
 C133 C 0.95756 0.77731 0.49192
 H134 H 0.97337 0.77967 0.47563
 C135 C 0.93310 0.79358 0.49255
 H136 H 0.93034 0.80863 0.47672
 C137 C 0.94278 0.75547 0.53289
 H138 H 0.94689 0.74083 0.54874
 C139 C 0.91803 0.77150 0.53442
 H140 H 0.90300 0.76879 0.55130
 Zn141 Zn 0.99658 0.73876 0.50917
 N142 N 0.96184 0.75857 0.51177
 C143 C 0.97185 0.71593 0.46173
 N144 N 0.99614 0.71730 0.47742
 C145 C 1.01963 0.70181 0.47196
 C146 C 1.01936 0.68420 0.44981
 C147 C 0.97056 0.69846 0.43955
 C148 C 1.02914 0.78252 0.52952
 C149 C 1.04997 0.80377 0.52965
 C150 C 1.06772 0.78838 0.48629
 C151 C 1.04650 0.76736 0.48700
 N152 N 1.02775 0.76485 0.50842
 H153 H 0.95309 0.72782 0.46677
 H154 H 1.03840 0.70283 0.48513
 H155 H 1.03801 0.67163 0.44604
 H156 H 0.95097 0.69748 0.42739
 H157 H 1.01368 0.78028 0.54610
 H158 H 1.05069 0.81760 0.54667
 H159 H 1.08195 0.79053 0.46876
 H160 H 1.04454 0.75359 0.47007
 C161 C 0.91295 0.79084 0.51401
 C162 C 1.00530 0.67619 0.58002
 C163 C 1.06941 0.80712 0.50769
 C164 C 0.99444 0.68217 0.43348
 C165 C 0.46737 -0.02003 0.29010
 H166 H 0.48365 -0.03559 0.29037
 C167 C 0.44403 -0.02138 0.30843
 H168 H 0.44229 -0.03828 0.32258
 C169 C 0.45015 0.02107 0.27144
 H170 H 0.45294 0.03792 0.25744
 C171 C 0.42641 0.02049 0.28937
 H172 H 0.41118 0.03698 0.28896
 N173 N 0.46997 0.00092 0.27204
 C174 C 0.52363 -0.02852 0.20553
 H175 H 0.54068 -0.01281 0.20497
 C176 C 0.52321 -0.04910 0.18609
 H177 H 0.53993 -0.04814 0.17054
 C178 C 0.48022 -0.04657 0.22560
 H179 H 0.46330 -0.04539 0.24086
 C180 C 0.47889 -0.06754 0.20660
 H181 H 0.46137 -0.08260 0.20876
 Zn182 Zn 0.50335 0.00207 0.24915
 N183 N 0.50242 -0.02766 0.22483
 C184 C 0.55716 -0.01817 0.26879
 N185 N 0.53655 0.00107 0.27172
 C186 C 0.53839 0.01995 0.29173
 C187 C 0.56189 0.02029 0.30955
 C188 C 0.58109 -0.01857 0.28619
 C189 C 0.48291 0.03736 0.20947
 C190 C 0.48272 0.06041 0.19283
 C191 C 0.52699 0.07677 0.21439
 C192 C 0.52630 0.05339 0.23066
 N193 N 0.50433 0.03438 0.22808
 H194 H 0.55506 -0.03329 0.25305
 H195 H 0.52142 0.03473 0.29387
 H196 H 0.56268 0.03529 0.32556
 H197 H 0.59747 -0.03381 0.28334
 H198 H 0.46601 0.02166 0.20751
 H199 H 0.46568 0.06221 0.17790
 H200 H 0.54449 0.09181 0.21691
 H201 H 0.54347 0.05042 0.24517
 C202 C 0.50048 -0.06920 0.18610
 C203 C 0.42323 -0.00085 0.30831
 C204 C 0.50499 0.08050 0.19517
 C205 C 0.58370 0.00087 0.30691
 C206 C 0.52852 -0.01901 0.71217
 H207 H 0.51179 -0.03486 0.71452
 C208 C 0.55009 -0.02136 0.69230
 H209 H 0.55007 -0.03939 0.67973
 C210 C 0.54841 0.02388 0.72557
 H211 H 0.54718 0.04182 0.73809
 C212 C 0.57035 0.02242 0.70583
 H213 H 0.58582 0.03935 0.70340
 N214 N 0.52801 0.00335 0.72827
 C215 C 0.47225 -0.02409 0.79558
 H216 H 0.45563 -0.00888 0.79455
 C217 C 0.47080 -0.04410 0.81576
 H218 H 0.45259 -0.04441 0.82987
 C219 C 0.51616 -0.04192 0.77831
 H220 H 0.53418 -0.04057 0.76409
 C221 C 0.51564 -0.06222 0.79828
 H222 H 0.53337 -0.07635 0.79914
 Zn223 Zn 0.49581 0.00591 0.75225
 N224 N 0.49459 -0.02342 0.77730
 C225 C 0.44125 -0.01484 0.73230
 N226 N 0.46189 0.00558 0.73059
 C227 C 0.45986 0.02597 0.71203
 C228 C 0.43614 0.02666 0.69451
 C229 C 0.41725 -0.01510 0.71496
 C230 C 0.52172 0.04119 0.78965
 C231 C 0.52382 0.06333 0.80723
 C232 C 0.47810 0.07923 0.78984
 C233 C 0.47686 0.05676 0.77260
 N234 N 0.49848 0.03827 0.77285
 H235 H 0.44368 -0.03130 0.74665
 H236 H 0.47681 0.04174 0.71085
 H237 H 0.43481 0.04337 0.68022
 H238 H 0.40146 -0.03189 0.71619
 H239 H 0.53837 0.02597 0.78971
 H240 H 0.54244 0.06521 0.82055
 H241 H 0.46026 0.09326 0.78997
 H242 H 0.45811 0.05368 0.75973
 C243 C 0.49282 -0.06341 0.81748
 C244 C 0.57115 -0.00029 0.68862
 C245 C 0.50163 0.08252 0.80772
 C246 C 0.41450 0.00581 0.69564
 C247 C 0.24679 0.00375 0.50088
 C248 C 0.75363 -0.01167 0.50093
 C249 C 0.49415 0.24077 1.00314
 C250 C 0.50679 0.76099 -0.00032
 C251 C 0.99884 0.50964 0.24929
 C252 C 0.00666 0.48330 0.74589
 C253 C 0.13411 0.18729 0.48323
 C254 C 0.15607 0.16801 0.48411
 C255 C 0.14924 0.14022 0.48050
 C256 C 0.12024 0.13219 0.47473
 C257 C 0.09838 0.15144 0.47363
 C258 C 0.10498 0.17915 0.47821
 C259 C 0.17258 0.12001 0.48277
 C260 C 0.16721 0.09488 0.49272
 C261 C 0.18943 0.07368 0.49552
 C262 C 0.18382 0.05232 0.51388
 C263 C 0.20276 0.03067 0.51583
 C264 C 0.22730 0.02894 0.49854
 C265 C 0.23404 0.05152 0.48152
 C266 C 0.21508 0.07338 0.47968
 H267 H 0.13989 0.20857 0.48648
 H268 H 0.17832 0.17473 0.48824
 H269 H 0.11436 0.11103 0.47100
 H270 H 0.07613 0.14452 0.46983
 H271 H 0.19471 0.12659 0.47770
 H272 H 0.14545 0.08968 0.50020
 H273 H 0.16452 0.05226 0.52670
 H274 H 0.19769 0.01460 0.53037
 H275 H 0.25386 0.05247 0.46951
 H276 H 0.22029 0.08960 0.46540
 C277 C 0.65910 0.60941 -0.03358
 C278 C 0.64024 0.63129 -0.03501
 C279 C 0.63261 0.64569 -0.01160
 C280 C 0.64500 0.63812 0.01328
 C281 C 0.66375 0.61616 0.01471
 C282 C 0.67086 0.60146 -0.00866
 C283 C 0.61196 0.66839 -0.01422
 C284 C 0.59704 0.67876 0.00666
 C285 C 0.57552 0.70063 0.00378
 C286 C 0.56870 0.71620 0.02655
 C287 C 0.54752 0.73610 0.02525
 C288 C 0.53277 0.74148 0.00084
 C289 C 0.53895 0.72488 -0.02166
 C290 C 0.56022 0.70503 -0.02036
 H291 H 0.66401 0.59836 -0.05192
 H292 H 0.63122 0.63674 -0.05447
 H293 H 0.64072 0.64915 0.03170
 H294 H 0.67301 0.61086 0.03410
 H295 H 0.60856 0.67633 -0.03441
 H296 H 0.60040 0.67112 0.02694
 H297 H 0.57949 0.71264 0.04566
 H298 H 0.54214 0.74653 0.04379
 H299 H 0.52684 0.72698 -0.04027
 H300 H 0.56369 0.69254 -0.03801
 C301 C 0.87948 -0.17884 0.53987
 C302 C 0.85734 -0.15976 0.54049
 C303 C 0.84290 -0.15248 0.51664
 C304 C 0.84978 -0.16595 0.49242
 C305 C 0.87194 -0.18495 0.49179
 C306 C 0.88749 -0.19113 0.51537
 C307 C 0.82166 -0.13019 0.51759
 C308 C 0.81676 -0.11400 0.49621
 C309 C 0.79910 -0.08917 0.49757
 C310 C 0.80487 -0.06833 0.47866
 C311 C 0.78995 -0.04399 0.47990
 C312 C 0.76907 -0.03940 0.50044
 C313 C 0.76161 -0.06141 0.51797
 C314 C 0.77674 -0.08580 0.51682
 H315 H 0.89112 -0.18314 0.55835
 H316 H 0.85225 -0.14990 0.55946
 H317 H 0.83829 -0.16177 0.47385
 H318 H 0.87712 -0.19465 0.47277
 H319 H 0.81227 -0.12535 0.53711
 H320 H 0.82845 -0.11736 0.47744
 H321 H 0.82143 -0.07066 0.46313
 H322 H 0.79525 -0.02825 0.46507
 H323 H 0.74388 -0.06021 0.53241
 H324 H 0.77054 -0.10207 0.53075
 C325 C 0.36162 0.40448 1.01205
 C326 C 0.38162 0.38361 1.01212
 C327 C 0.37309 0.35690 1.00501
 C328 C 0.34385 0.35160 0.99751
 C329 C 0.32377 0.37266 0.99732
 C330 C 0.33245 0.39926 1.00481
 C331 C 0.39562 0.33577 1.00625
 C332 C 0.39154 0.30918 1.00062
 C333 C 0.41578 0.28989 1.00297
 C334 C 0.41723 0.26746 0.98555
 C335 C 0.44154 0.25069 0.98584
 C336 C 0.46532 0.25653 1.00314
 C337 C 0.46197 0.27729 1.02251
 C338 C 0.43773 0.29375 1.02238
 H339 H 0.36909 0.42486 1.01743
 H340 H 0.40395 0.38840 1.01789
 H341 H 0.33619 0.33140 0.99193
 H342 H 0.30135 0.36806 0.99178
 H343 H 0.41729 0.34290 1.01199
 H344 H 0.37087 0.30144 0.99305
 H345 H 0.39989 0.26332 0.97122
 H346 H 0.44157 0.23343 0.97234
 H347 H 0.47887 0.28144 1.03727
 H348 H 0.43646 0.30970 1.03737
 C349 C 0.87154 0.17510 0.48995
 C350 C 0.84992 0.15446 0.49200
 C351 C 0.85677 0.12831 0.50123
 C352 C 0.88564 0.12350 0.50925
 C353 C 0.90723 0.14406 0.50710
 C354 C 0.90053 0.17008 0.49730
 C355 C 0.83331 0.10679 0.50255
 C356 C 0.83879 0.08005 0.50194
 C357 C 0.81615 0.05781 0.50294
 C358 C 0.82506 0.03152 0.50946
 C359 C 0.80529 0.00941 0.50931
 C360 C 0.77597 0.01263 0.50147
 C361 C 0.76670 0.03945 0.49676
 C362 C 0.78655 0.06167 0.49695
 H363 H 0.86551 0.19505 0.48278
 H364 H 0.82781 0.15886 0.48605
 H365 H 0.89176 0.10403 0.51747
 H366 H 0.92933 0.13939 0.51280
 H367 H 0.81102 0.11345 0.50344
 H368 H 0.86116 0.07368 0.50053
 H369 H 0.84755 0.02802 0.51486
 H370 H 0.81329 -0.01013 0.51560
 H371 H 0.74404 0.04310 0.49220
 H372 H 0.77859 0.08156 0.49183
 C373 C 0.32827 0.62281 -0.02166
 C374 C 0.34737 0.64555 -0.02289
 C375 C 0.37345 0.64612 -0.00809
 C376 C 0.38024 0.62323 0.00772
 C377 C 0.36116 0.60057 0.00898
 C378 C 0.33501 0.60001 -0.00576
 C379 C 0.39365 0.67021 -0.01066
 C380 C 0.41381 0.67676 0.00800
 C381 C 0.43552 0.69966 0.00521
 C382 C 0.45110 0.70791 0.02821
 C383 C 0.47315 0.72805 0.02639
 C384 C 0.47991 0.74124 0.00157
 C385 C 0.46469 0.73223 -0.02166
 C386 C 0.44268 0.71197 -0.01985
 H387 H 0.30851 0.62287 -0.03356
 H388 H 0.34178 0.66273 -0.03551
 H389 H 0.40051 0.62235 0.01874
 H390 H 0.36691 0.58344 0.02160
 H391 H 0.39111 0.68316 -0.02822
 H392 H 0.41434 0.66512 0.02665
 H393 H 0.44663 0.69833 0.04767
 H394 H 0.48536 0.73308 0.04446
 H395 H 0.47043 0.73996 -0.04160
 H396 H 0.43232 0.70534 -0.03837
 C397 C 0.08130 -0.14336 0.51488
 C398 C 0.10045 -0.12081 0.51331
 C399 C 0.12908 -0.12346 0.50356
 C400 C 0.13813 -0.14929 0.49512
 C401 C 0.11888 -0.17192 0.49663
 C402 C 0.09026 -0.16918 0.50656
 C403 C 0.14802 -0.09854 0.50155
 C404 C 0.17728 -0.09848 0.49976
 C405 C 0.19509 -0.07280 0.49857
 C406 C 0.22362 -0.07229 0.50867
 C407 C 0.24020 -0.04792 0.50911
 C408 C 0.22833 -0.02316 0.50027
 C409 C 0.20076 -0.02459 0.48760
 C410 C 0.18427 -0.04889 0.48710
 H411 H 0.05923 -0.14045 0.52210
 H412 H 0.09279 -0.10113 0.51967
 H413 H 0.15976 -0.15209 0.48684
 H414 H 0.12640 -0.19158 0.49010
 H415 H 0.13719 -0.07925 0.50295
 H416 H 0.18870 -0.11746 0.50097
 H417 H 0.23295 -0.09071 0.51665
 H418 H 0.26220 -0.04830 0.51694
 H419 H 0.19176 -0.00698 0.47779
 H420 H 0.16318 -0.04890 0.47735
 C421 C 0.63105 0.41203 0.98993
 C422 C 0.60934 0.39154 0.99036
 C423 C 0.61592 0.36469 0.99749
 C424 C 0.64481 0.35874 1.00449
 C425 C 0.66656 0.37936 1.00424
 C426 C 0.65988 0.40620 0.99691
 C427 C 0.59167 0.34411 0.99829
 C428 C 0.59498 0.31705 0.99659
 C429 C 0.56964 0.29754 0.99678
 C430 C 0.57317 0.27067 1.00576
 C431 C 0.54918 0.25239 1.00736
 C432 C 0.52078 0.26084 1.00101
 C433 C 0.51819 0.28703 0.98936
 C434 C 0.54208 0.30510 0.98752
 H435 H 0.62513 0.43260 0.98465
 H436 H 0.58723 0.39673 0.98511
 H437 H 0.65064 0.33847 1.01074
 H438 H 0.68864 0.37432 1.00969
 H439 H 0.56992 0.35202 1.00000
 H440 H 0.61659 0.30877 0.99547
 H441 H 0.59446 0.26392 1.01192
 H442 H 0.55267 0.23176 1.01423
 H443 H 0.49770 0.29376 0.98130
 H444 H 0.53883 0.32486 0.97838
 C445 C 0.53204 0.11464 1.16565
 C446 C 0.53233 0.13643 1.14730
 C447 C 0.50623 0.14864 1.13982
 C448 C 0.47990 0.13955 1.15214
 C449 C 0.47961 0.11778 1.17049
 C450 C 0.50560 0.10477 1.17708
 C451 C 0.50722 0.17016 1.11864
 C452 C 0.48481 0.17444 1.10195
 C453 C 0.48693 0.19282 1.07812
 C454 C 0.46895 0.18719 1.05593
 C455 C 0.47137 0.20290 1.03239
 C456 C 0.49223 0.22453 1.03009
 C457 C 0.50842 0.23156 1.05340
 C458 C 0.50614 0.21564 1.07695
 H459 H 0.55241 0.10496 1.17020
 H460 H 0.55292 0.14318 1.13825
 H461 H 0.45949 0.14916 1.14768
 H462 H 0.45901 0.11109 1.17952
 H463 H 0.52796 0.18068 1.11497
 H464 H 0.46505 0.16195 1.10400
 H465 H 0.45337 0.17018 1.05655
 H466 H 0.45733 0.19775 1.01551
 H467 H 0.52264 0.24947 1.05382
 H468 H 0.51913 0.22149 1.09431
 C469 C 0.03623 0.64583 0.60847
 C470 C 0.03915 0.62558 0.62820
 C471 C 0.01445 0.61393 0.64116
 C472 C -0.01329 0.62360 0.63462
 C473 C -0.01621 0.64394 0.61499
 C474 C 0.00849 0.65515 0.60150
 C475 C 0.01850 0.59226 0.66171
 C476 C -0.00177 0.57263 0.66696
 C477 C 0.00158 0.55045 0.68722
 C478 C -0.02324 0.53469 0.69456
 C479 C -0.02141 0.51352 0.71339
 C480 C 0.00520 0.50786 0.72621
 C481 C 0.03042 0.52275 0.71755
 C482 C 0.02861 0.54390 0.69861
 H483 H 0.05569 0.65379 0.59829
 H484 H 0.06077 0.61864 0.63302
 H485 H -0.03276 0.61588 0.64492
 H486 H -0.03782 0.65113 0.61059
 H487 H 0.03920 0.59239 0.67206
 H488 H -0.02210 0.57264 0.65590
 H489 H -0.04423 0.53871 0.68560
 H490 H -0.04099 0.50151 0.71811
 H491 H 0.05183 0.51778 0.72488
 H492 H 0.04865 0.55442 0.69259
 C493 C 0.48283 0.92265 -0.13424
 C494 C 0.48229 0.90324 -0.11345
 C495 C 0.49159 0.87667 -0.11817
 C496 C 0.50094 0.86970 -0.14439
 C497 C 0.50134 0.88910 -0.16527
 C498 C 0.49233 0.91583 -0.16044
 C499 C 0.49032 0.85674 -0.09550
 C500 C 0.50751 0.83509 -0.09393
 C501 C 0.50674 0.81595 -0.07059
 C502 C 0.53215 0.80227 -0.06379
 C503 C 0.53242 0.78444 -0.04163
 C504 C 0.50682 0.77883 -0.02624
 C505 C 0.48152 0.79314 -0.03297
 C506 C 0.48131 0.81106 -0.05503
 H507 H 0.47616 0.94313 -0.12967
 H508 H 0.47488 0.90911 -0.09348
 H509 H 0.50739 0.84918 -0.14903
 H510 H 0.50821 0.88302 -0.18532
 H511 H 0.47586 0.86115 -0.07873
 H512 H 0.52406 0.83214 -0.10932
 H513 H 0.55214 0.80598 -0.07525
 H514 H 0.55302 0.77567 -0.03632
 H515 H 0.46174 0.79042 -0.02102
 H516 H 0.46113 0.82089 -0.05986
 C517 C 0.97466 0.36123 0.39710
 C518 C 0.97464 0.38270 0.37851
 C519 C 0.99009 0.38129 0.35402
 C520 C 1.00532 0.35751 0.34823
 C521 C 1.00538 0.33587 0.36686
 C522 C 0.99034 0.33735 0.39194
 C523 C 0.99111 0.40587 0.33637
 C524 C 1.00060 0.40673 0.31057
 C525 C 1.00199 0.43268 0.29500
 C526 C 0.99784 0.43262 0.26690
 C527 C 0.99744 0.45722 0.25236
 C528 C 1.00038 0.48259 0.26566
 C529 C 1.00752 0.48206 0.29348
 C530 C 1.00799 0.45761 0.30789
 H531 H 0.96360 0.36448 0.41617
 H532 H 0.96297 0.40090 0.38369
 H533 H 1.01777 0.35563 0.32969
 H534 H 1.01695 0.31787 0.36107
 H535 H 0.98308 0.42439 0.34526
 H536 H 1.00623 0.38821 0.30021
 H537 H 0.99427 0.41357 0.25627
 H538 H 0.99390 0.45654 0.23070
 H539 H 1.01320 0.50038 0.30450
 H540 H 1.01342 0.45831 0.32918
 C541 C 0.47245 0.89655 0.15945
 C542 C 0.47115 0.87641 0.13955
 C543 C 0.49629 0.86910 0.12534
 C544 C 0.52308 0.88193 0.13194
 C545 C 0.52449 0.90206 0.15187
 C546 C 0.49917 0.91000 0.16604
 C547 C 0.49370 0.84754 0.10445
 C548 C 0.51255 0.84523 0.08369
 C549 C 0.51005 0.82369 0.06274
 C550 C 0.53489 0.81763 0.04742
 C551 C 0.53364 0.79752 0.02752
 C552 C 0.50763 0.78227 0.02272
 C553 C 0.48227 0.78978 0.03698
 C554 C 0.48351 0.80992 0.05689
 H555 H 0.45201 0.90213 0.16866
 H556 H 0.45021 0.86682 0.13490
 H557 H 0.54321 0.87605 0.12230
 H558 H 0.54588 0.91041 0.15672
 H559 H 0.47520 0.83347 0.10627
 H560 H 0.53097 0.85941 0.08192
 H561 H 0.55544 0.82847 0.05089
 H562 H 0.55321 0.79366 0.01588
 H563 H 0.46115 0.78057 0.03248
 H564 H 0.46342 0.81508 0.06702
 C565 C 0.01923 0.36390 0.57369
 C566 C 0.02142 0.38288 0.59462
 C567 C 0.01399 0.37544 0.62130
 C568 C 0.00485 0.34834 0.62677
 C569 C 0.00283 0.32928 0.60585
 C570 C 0.00993 0.33684 0.57903
 C571 C 0.01686 0.39624 0.64285
 C572 C 0.00098 0.39552 0.66579
 C573 C 0.00312 0.41715 0.68659
 C574 C -0.02152 0.42267 0.70239
 C575 C -0.02059 0.44340 0.72170
 C576 C 0.00552 0.45851 0.72665
 C577 C 0.03008 0.45299 0.71032
 C578 C 0.02906 0.43240 0.69089
 H579 H 0.02448 0.37055 0.55325
 H580 H 0.02862 0.40359 0.58989
 H581 H -0.00015 0.34162 0.64723
 H582 H -0.00379 0.30848 0.61076
 H583 H 0.03129 0.41365 0.63876
 H584 H -0.01562 0.37962 0.66872
 H585 H -0.04189 0.41144 0.69920
 H586 H -0.04071 0.44795 0.73211
 H587 H 0.05020 0.46485 0.71253
 H588 H 0.04867 0.42847 0.67937
 C589 C 0.49310 0.13112 0.82111
 C590 C 0.49244 0.15163 0.84070
 C591 C 0.50088 0.14632 0.86745
 C592 C 0.50970 0.11989 0.87427
 C593 C 0.51043 0.09949 0.85472
 C594 C 0.50209 0.10481 0.82795
 C595 C 0.49848 0.16810 0.88805
 C596 C 0.51368 0.16815 0.91117
 C597 C 0.50880 0.18736 0.93366
 C598 C 0.51542 0.17880 0.95991
 C599 C 0.51048 0.19559 0.98204
 C600 C 0.49813 0.22149 0.97875
 C601 C 0.49384 0.23081 0.95198
 C602 C 0.49846 0.21379 0.92976
 H603 H 0.48661 0.13585 0.80061
 H604 H 0.48525 0.17169 0.83497
 H605 H 0.51512 0.11446 0.89484
 H606 H 0.51666 0.07923 0.86081
 H607 H 0.48311 0.18402 0.88423
 H608 H 0.52930 0.15240 0.91476
 H609 H 0.52436 0.15887 0.96339
 H610 H 0.51692 0.18817 1.00170
 H611 H 0.48674 0.25135 0.94826
 H612 H 0.49453 0.22160 0.90962
 C613 C 0.96741 0.64566 0.40799
 C614 C 0.96594 0.62602 0.38767
 C615 C 0.98948 0.62268 0.36978
 C616 C 1.01480 0.63927 0.37277
 C617 C 1.01638 0.65878 0.39333
 C618 C 0.99268 0.66215 0.41113
 C619 C 0.98730 0.60066 0.34946
 C620 C 1.00174 0.60116 0.32569
 C621 C 0.99988 0.57867 0.30565
 C622 C 1.02131 0.57741 0.28528
 C623 C 1.02118 0.55595 0.26672
 C624 C 0.99987 0.53463 0.26844
 C625 C 0.97729 0.53717 0.28781
 C626 C 0.97728 0.55870 0.30611
 H627 H 0.94900 0.64749 0.42169
 H628 H 0.94634 0.61328 0.38597
 H629 H 1.03368 0.63676 0.35983
 H630 H 1.03612 0.67124 0.39535
 H631 H 0.97290 0.58359 0.35462
 H632 H 1.01602 0.61845 0.32079
 H633 H 1.03844 0.59303 0.28383
 H634 H 1.03780 0.55648 0.25111
 H635 H 0.95975 0.52193 0.28907
 H636 H 0.95931 0.55947 0.32034
 C637 C 1.17790 0.47448 0.12520
 C638 C 1.15916 0.47460 0.14770
 C639 C 1.14628 0.49875 0.15591
 C640 C 1.15388 0.52318 0.14244
 C641 C 1.17305 0.52327 0.12032
 C642 C 1.18484 0.49878 0.11071
 C643 C 1.12381 0.49795 0.17755
 C644 C 1.09901 0.51144 0.17470
 C645 C 1.07429 0.50908 0.19395
 C646 C 1.04598 0.50894 0.18361
 C647 C 1.02183 0.50816 0.20092
 C648 C 1.02522 0.50920 0.22937
 C649 C 1.05396 0.50787 0.23955
 C650 C 1.07820 0.50796 0.22208
 H651 H 1.18727 0.45529 0.11963
 H652 H 1.15388 0.45558 0.15810
 H653 H 1.14452 0.54221 0.14869
 H654 H 1.17693 0.54247 0.10989
 H655 H 1.12624 0.48398 0.19440
 H656 H 1.09554 0.52288 0.15620
 H657 H 1.04250 0.50908 0.16192
 H658 H 1.00067 0.50661 0.19151
 H659 H 1.05761 0.50746 0.26119
 H660 H 1.09993 0.50796 0.23058
 C661 C 0.58423 -0.01164 0.64070
 C662 C 0.60407 -0.01218 0.61916
 C663 C 0.63297 -0.00254 0.62228
 C664 C 0.64161 0.00784 0.64763
 C665 C 0.62168 0.00834 0.66928
 C666 C 0.59275 -0.00139 0.66604
 C667 C 0.65261 -0.00294 0.59823
 C668 C 0.68179 0.00060 0.59885
 C669 C 0.70012 -0.00071 0.57399
 C670 C 0.72924 -0.00858 0.57594
 C671 C 0.74638 -0.01153 0.55260
 C672 C 0.73456 -0.00759 0.52657
 C673 C 0.70624 0.00304 0.52514
 C674 C 0.68922 0.00613 0.54840
 H675 H 0.56198 -0.01875 0.63730
 H676 H 0.59667 -0.02004 0.59984
 H677 H 0.66345 0.01602 0.65085
 H678 H 0.62895 0.01629 0.68858
 H679 H 0.64231 -0.00753 0.57906
 H680 H 0.69288 0.00282 0.61800
 H681 H 0.73860 -0.01295 0.59552
 H682 H 0.76876 -0.01771 0.55480
 H683 H 0.69700 0.00931 0.50609
 H684 H 0.66763 0.01424 0.54620
 C685 C -0.15560 0.52316 0.88959
 C686 C -0.13594 0.52289 0.86783
 C687 C -0.12307 0.49855 0.85982
 C688 C -0.13080 0.47425 0.87371
 C689 C -0.15055 0.47452 0.89542
 C690 C -0.16309 0.49899 0.90367
 C691 C -0.10237 0.49938 0.83657
 C692 C -0.08162 0.48095 0.83269
 C693 C -0.06030 0.48220 0.80989
 C694 C -0.04534 0.45858 0.80319
 C695 C -0.02451 0.45896 0.78238
 C696 C -0.01846 0.48283 0.76704
 C697 C -0.03255 0.50684 0.77489
 C698 C -0.05332 0.50648 0.79574
 H699 H -0.16527 0.54226 0.89516
 H700 H -0.13063 0.54183 0.85731
 H701 H -0.12211 0.45491 0.86769
 H702 H -0.15584 0.45558 0.90592
 H703 H -0.10415 0.51629 0.82262
 H704 H -0.07990 0.46409 0.84673
 H705 H -0.04961 0.43976 0.81426
 H706 H -0.01287 0.44048 0.77832
 H707 H -0.02695 0.52630 0.76560
 H708 H -0.06295 0.52556 0.80122
 C709 C 0.37078 0.00638 0.32124
 C710 C 0.34837 0.00678 0.34064
 C711 C 0.35370 -0.00044 0.36767
 C712 C 0.38214 -0.00770 0.37498
 C713 C 0.40447 -0.00817 0.35561
 C714 C 0.39909 -0.00112 0.32854
 C715 C 0.32969 0.00132 0.38791
 C716 C 0.32955 -0.01230 0.41154
 C717 C 0.30775 -0.00836 0.43335
 C718 C 0.31614 -0.01345 0.46004
 C719 C 0.29691 -0.00936 0.48152
 C720 C 0.26863 0.00055 0.47710
 C721 C 0.25954 0.00337 0.44997
 C722 C 0.27901 -0.00041 0.42838
 H723 H 0.36595 0.01182 0.30050
 H724 H 0.32678 0.01273 0.33451
 H725 H 0.38766 -0.01224 0.39574
 H726 H 0.42621 -0.01333 0.36200
 H727 H 0.31201 0.01475 0.38329
 H728 H 0.34706 -0.02594 0.41602
 H729 H 0.33784 -0.02052 0.46436
 H730 H 0.30433 -0.01440 0.50163
 H731 H 0.23730 0.00867 0.44545
 H732 H 0.27129 0.00232 0.40792
 C733 C 0.14136 0.51491 0.91119
 C734 C 0.12161 0.51554 0.88980
 C735 C 0.12703 0.50145 0.86569
 C736 C 0.15317 0.48716 0.86320
 C737 C 0.17294 0.48649 0.88465
 C738 C 0.16718 0.50022 0.90896
 C739 C 0.10507 0.50266 0.84377
 C740 C 0.10318 0.48480 0.82328
 C741 C 0.07984 0.48534 0.80258
 C742 C 0.07224 0.46114 0.78906
 C743 C 0.04952 0.46040 0.77029
 C744 C 0.03429 0.48418 0.76374
 C745 C 0.04201 0.50837 0.77764
 C746 C 0.06476 0.50911 0.79632
 H747 H 0.13653 0.52618 0.92941
 H748 H 0.10186 0.52699 0.89219
 H749 H 0.15870 0.47667 0.84474
 H750 H 0.19259 0.47493 0.88231
 H751 H 0.08869 0.51801 0.84574
 H752 H 0.11786 0.46793 0.82252
 H753 H 0.08329 0.44246 0.79369
 H754 H 0.04338 0.44086 0.76172
 H755 H 0.03011 0.52682 0.77423
 H756 H 0.07027 0.52836 0.80580
 C757 C 0.62156 0.02520 0.33512
 C758 C 0.64389 0.02505 0.35426
 C759 C 0.65360 0.00039 0.36499
 C760 C 0.64137 -0.02427 0.35522
 C761 C 0.61902 -0.02411 0.33608
 C762 C 0.60856 0.00063 0.32609
 C763 C 0.67616 0.00132 0.38644
 C764 C 0.67917 -0.01865 0.40479
 C765 C 0.69933 -0.01670 0.42813
 C766 C 0.69345 -0.03323 0.45082
 C767 C 0.71106 -0.03146 0.47369
 C768 C 0.73487 -0.01262 0.47493
 C769 C 0.74197 0.00247 0.45122
 C770 C 0.72425 0.00070 0.42828
 H771 H 0.61443 0.04460 0.32740
 H772 H 0.65319 0.04432 0.36113
 H773 H 0.64891 -0.04375 0.36224
 H774 H 0.60947 -0.04340 0.32957
 H775 H 0.68886 0.02012 0.38844
 H776 H 0.66458 -0.03635 0.40421
 H777 H 0.67486 -0.04738 0.45103
 H778 H 0.70575 -0.04455 0.49085
 H779 H 0.76145 0.01535 0.44996
 H780 H 0.73052 0.01263 0.41059
 C781 C 0.82807 0.47792 0.11667
 C782 C 0.84645 0.47776 0.13914
 C783 C 0.86097 0.50177 0.14766
 C784 C 0.85637 0.52613 0.13323
 C785 C 0.83791 0.52628 0.11082
 C786 C 0.82379 0.50215 0.10213
 C787 C 0.88207 0.49990 0.17030
 C788 C 0.89469 0.52149 0.18257
 C789 C 0.91903 0.51881 0.20186
 C790 C 0.94080 0.53935 0.20239
 C791 C 0.96562 0.53636 0.21820
 C792 C 0.96964 0.51255 0.23384
 C793 C 0.94608 0.49336 0.23539
 C794 C 0.92137 0.49622 0.21923
 H795 H 0.81723 0.45905 0.11063
 H796 H 0.84961 0.45869 0.14973
 H797 H 0.86753 0.54505 0.13838
 H798 H 0.83542 0.54517 0.09975
 H799 H 0.88851 0.47963 0.17613
 H800 H 0.88908 0.54196 0.17686
 H801 H 0.93916 0.55732 0.18971
 H802 H 0.98250 0.55224 0.21734
 H803 H 0.94630 0.47605 0.24893
 H804 H 0.90406 0.48079 0.22047
 C805 C 0.36170 -0.00384 0.68399
 C806 C 0.33882 -0.00446 0.66534
 C807 C 0.34347 0.00462 0.63863
 C808 C 0.37166 0.01369 0.63071
 C809 C 0.39453 0.01409 0.64923
 C810 C 0.38987 0.00547 0.67614
 C811 C 0.31926 0.00284 0.61892
 C812 C 0.31728 0.02043 0.59815
 C813 C 0.29654 0.01733 0.57533
 C814 C 0.30186 0.03319 0.55205
 C815 C 0.28516 0.02921 0.52885
 C816 C 0.26304 0.00868 0.52787
 C817 C 0.25570 -0.00513 0.55225
 C818 C 0.27251 -0.00119 0.57556
 H819 H 0.35728 -0.01045 0.70460
 H820 H 0.31737 -0.01185 0.67181
 H821 H 0.37637 0.01974 0.60999
 H822 H 0.41608 0.02058 0.64222
 H823 H 0.30341 -0.01370 0.62154
 H824 H 0.33300 0.03730 0.59681
 H825 H 0.31964 0.04821 0.55146
 H826 H 0.29035 0.04150 0.51110
 H827 H 0.23709 -0.01912 0.55350
 H828 H 0.26651 -0.01276 0.59352
   
