data_POSCAR
  _audit_creation_date              2014-09-24
  _audit_creation_method            'ToBaCCo'
  _symmetry_space_group_name_H-M    'P1'
  _symmetry_Int_Tables_number       1
  _symmetry_cell_setting            triclinic
  loop_
  _symmetry_equiv_pos_as_xyz
 x,y,z
_cell_length_a 50.7278
_cell_length_b 49.8704
_cell_length_c 57.2830
_cell_angle_alpha 89.932300
_cell_angle_beta 89.838000
_cell_angle_gamma 87.246500
loop_
  _atom_site_label
  _atom_site_type_symbol
  _atom_site_fract_x
  _atom_site_fract_y
  _atom_site_fract_z
C1 C -0.08137 0.30613 0.00463
 C2 C -0.06842 0.31162 0.02574
 C3 C -0.04077 0.31346 0.02525
 C4 C -0.02604 0.30818 0.00478
 C5 C -0.03960 0.30122 -0.01563
 C6 C -0.06737 0.30118 -0.01634
 C7 C 0.00342 0.31011 0.00452
 C8 C 0.01666 0.31612 -0.01636
 C9 C 0.04428 0.31579 -0.01749
 C10 C 0.05889 0.31177 0.00304
 C11 C 0.04627 0.30719 0.02441
 C12 C 0.01864 0.30559 0.02489
 H13 H -0.10232 0.30314 0.00490
 H14 H -0.03081 0.32013 0.04068
 H15 H -0.02843 0.29681 -0.03129
 H16 H 0.00567 0.32109 -0.03205
 H17 H 0.08025 0.31119 0.00227
 H18 H 0.00919 0.30083 0.04121
 C19 C 0.43136 0.80596 0.49555
 C20 C 0.44589 0.80979 0.51595
 C21 C 0.47342 0.81110 0.51436
 C22 C 0.48691 0.80644 0.49304
 C23 C 0.47177 0.80185 0.47292
 C24 C 0.44407 0.80244 0.47393
 C25 C 0.51657 0.80581 0.49198
 C26 C 0.53008 0.81055 0.47088
 C27 C 0.55781 0.80889 0.46978
 C28 C 0.57225 0.80410 0.49033
 C29 C 0.55939 0.79999 0.51162
 C30 C 0.53174 0.80005 0.51214
 H31 H 0.41012 0.80478 0.49658
 H32 H 0.48404 0.81592 0.53001
 H33 H 0.48125 0.79786 0.45630
 H34 H 0.51931 0.81579 0.45515
 H35 H 0.59361 0.80260 0.48967
 H36 H 0.52227 0.79566 0.52851
 C37 C 1.07323 0.70730 -0.00452
 C38 C 1.05870 0.70788 0.01640
 C39 C 1.03165 0.70353 0.01533
 C40 C 1.01924 0.69706 -0.00572
 C41 C 1.03440 0.69649 -0.02645
 C42 C 1.06143 0.70252 -0.02637
 C43 C 0.99027 0.69198 -0.00567
 C44 C 0.97434 0.69732 -0.02542
 C45 C 0.94694 0.69393 -0.02470
 C46 C 0.93521 0.68666 -0.00348
 C47 C 0.95049 0.68218 0.01662
 C48 C 0.97798 0.68320 0.01491
 H49 H 1.09438 0.70851 -0.00338
 H50 H 1.01995 0.70662 0.03097
 H51 H 1.02478 0.69215 -0.04265
 H52 H 0.98286 0.70507 -0.04121
 H53 H 0.91405 0.68510 -0.00243
 H54 H 0.98963 0.67766 0.03010
 C55 C 0.56572 0.19307 0.50506
 C56 C 0.55256 0.18740 0.52589
 C57 C 0.52492 0.18677 0.52584
 C58 C 0.51005 0.19395 0.50578
 C59 C 0.52389 0.20101 0.48544
 C60 C 0.55161 0.19967 0.48465
 C61 C 0.48035 0.19439 0.50615
 C62 C 0.46571 0.19240 0.48530
 C63 C 0.43793 0.19344 0.48550
 C64 C 0.42475 0.19451 0.50709
 C65 C 0.43870 0.19643 0.52804
 C66 C 0.46630 0.19709 0.52738
 H67 H 0.58706 0.19274 0.50487
 H68 H 0.51532 0.18049 0.54165
 H69 H 0.51334 0.20820 0.47015
 H70 H 0.47574 0.19044 0.46873
 H71 H 0.40342 0.19438 0.50767
 H72 H 0.47657 0.19968 0.54364
 C73 C 0.69018 -0.07108 -0.00275
 C74 C 0.69589 -0.05855 0.01867
 C75 C 0.69574 -0.03016 0.01905
 C76 C 0.68841 -0.01460 -0.00066
 C77 C 0.68179 -0.02802 -0.02129
 C78 C 0.68380 -0.05603 -0.02279
 C79 C 0.68815 0.01554 -0.00013
 C80 C 0.69197 0.03004 -0.02092
 C81 C 0.68987 0.05831 -0.02159
 C82 C 0.68539 0.07192 -0.00030
 C83 C 0.68438 0.05819 0.02108
 C84 C 0.68465 0.03000 0.02090
 H85 H 0.69024 -0.09265 -0.00413
 H86 H 0.70270 -0.02013 0.03435
 H87 H 0.67507 -0.01682 -0.03650
 H88 H 0.69793 0.01912 -0.03645
 H89 H 0.68200 0.09346 -0.00008
 H90 H 0.68251 0.01946 0.03722
 C91 C 0.18775 0.43198 0.49739
 C92 C 0.18649 0.44557 0.51880
 C93 C 0.18781 0.47366 0.51876
 C94 C 0.19251 0.48800 0.49795
 C95 C 0.19593 0.47327 0.47702
 C96 C 0.19306 0.44540 0.47650
 C97 C 0.19389 0.51808 0.49819
 C98 C 0.18891 0.53355 0.47779
 C99 C 0.18964 0.56172 0.47818
 C100 C 0.19330 0.57451 0.49963
 C101 C 0.19923 0.55982 0.51994
 C102 C 0.20012 0.53169 0.51893
 H103 H 0.18466 0.41066 0.49699
 H104 H 0.18550 0.48416 0.53512
 H105 H 0.20147 0.48316 0.46109
 H106 H 0.18471 0.52386 0.46149
 H107 H 0.19163 0.59620 0.50051
 H108 H 0.20624 0.52064 0.53436
 C109 C 0.32205 1.06913 0.00215
 C110 C 0.32722 1.05375 0.02226
 C111 C 0.32914 1.02574 0.02050
 C112 C 0.32353 1.01269 -0.00053
 C113 C 0.31765 1.02859 -0.02043
 C114 C 0.31767 1.05697 -0.01965
 C115 C 0.32301 0.98261 -0.00138
 C116 C 0.32794 0.96845 -0.02234
 C117 C 0.32630 0.94029 -0.02359
 C118 C 0.32153 0.92622 -0.00272
 C119 C 0.31715 0.93976 0.01847
 C120 C 0.31716 0.96786 0.01882
 H121 H 0.31958 1.09068 0.00404
 H122 H 0.33482 1.01426 0.03585
 H123 H 0.31364 1.01873 -0.03667
 H124 H 0.33407 0.97927 -0.03760
 H125 H 0.31932 0.90476 -0.00293
 H126 H 0.31261 0.97809 0.03506
 C127 C 0.82159 0.56443 0.49985
 C128 C 0.81845 0.55097 0.52113
 C129 C 0.81910 0.52276 0.52133
 C130 C 0.82422 0.50781 0.50078
 C131 C 0.82842 0.52192 0.47987
 C132 C 0.82607 0.55007 0.47906
 C133 C 0.82413 0.47771 0.50092
 C134 C 0.81751 0.46349 0.48065
 C135 C 0.81696 0.43536 0.48069
 C136 C 0.82169 0.42134 0.50160
 C137 C 0.82757 0.43499 0.52219
 C138 C 0.82971 0.46297 0.52148
 H139 H 0.81943 0.58614 0.49937
 H140 H 0.81543 0.51266 0.53763
 H141 H 0.83345 0.51120 0.46396
 H142 H 0.81260 0.47410 0.46468
 H143 H 0.81965 0.39982 0.50200
 H144 H 0.83570 0.47305 0.53715
 O145 O 0.25191 0.20551 0.23523
 O146 O 0.22220 0.25495 0.27657
 O147 O 0.21202 0.24027 0.23378
 O148 O 0.26009 0.21886 0.27857
 O149 O 0.28746 0.24888 0.26610
 O150 O 0.23896 0.27038 0.22083
 O151 O 0.24902 0.28519 0.26357
 O152 O 0.27894 0.23579 0.22273
 Cu153 Cu 0.23381 0.22688 0.25720
 Cu154 Cu 0.26628 0.26309 0.24200
 C155 C 0.27047 0.21228 0.22181
 C156 C 0.23093 0.27841 0.27741
 C157 C 0.21722 0.25877 0.21950
 C158 C 0.28174 0.23042 0.28034
 O159 O 0.76216 0.78194 0.23157
 O160 O 0.78716 0.73377 0.27582
 O161 O 0.79889 0.74383 0.23230
 O162 O 0.74931 0.77078 0.27454
 O163 O 0.72126 0.74168 0.26187
 O164 O 0.77095 0.71421 0.22038
 O165 O 0.75900 0.70444 0.26379
 O166 O 0.73467 0.75230 0.21882
 Cu167 Cu 0.77718 0.76051 0.25480
 Cu168 Cu 0.74362 0.72523 0.24006
 C169 C 0.74451 0.77521 0.21734
 C170 C 0.77723 0.71096 0.27755
 C171 C 0.79328 0.72458 0.21892
 C172 C 0.72677 0.76071 0.27546
 O173 O 0.77460 0.24822 0.23342
 O174 O 0.72822 0.22528 0.27785
 O175 O 0.73827 0.21271 0.23422
 O176 O 0.76454 0.25955 0.27699
 O177 O 0.73461 0.29064 0.26620
 O178 O 0.70945 0.24435 0.22239
 O179 O 0.69832 0.25586 0.26598
 O180 O 0.74530 0.27983 0.22249
 Cu181 Cu 0.75435 0.23321 0.25662
 Cu182 Cu 0.71896 0.27076 0.24307
 C183 C 0.76795 0.26806 0.22042
 C184 C 0.70553 0.23699 0.27980
 C185 C 0.71960 0.22063 0.22077
 C186 C 0.75372 0.28291 0.27927
 O187 O 0.26702 0.76138 0.22208
 O188 O 0.23811 0.71656 0.26540
 O189 O 0.22681 0.73121 0.22288
 O190 O 0.27856 0.74687 0.26509
 O191 O 0.25341 0.78086 0.27829
 O192 O 0.20203 0.76563 0.23593
 O193 O 0.21316 0.75062 0.27882
 O194 O 0.24207 0.79538 0.23557
 Cu195 Cu 0.25522 0.73561 0.24258
 Cu196 Cu 0.22516 0.77648 0.25858
 C197 C 0.25909 0.78593 0.22109
 C198 C 0.22080 0.72599 0.27962
 C199 C 0.20582 0.74611 0.22192
 C200 C 0.27470 0.76642 0.27910
 O201 O 0.75625 0.20182 0.76160
 O202 O 0.78492 0.24764 0.71897
 O203 O 0.79383 0.23517 0.76287
 O204 O 0.74693 0.21415 0.71800
 O205 O 0.71846 0.24630 0.72948
 O206 O 0.76537 0.26764 0.77371
 O207 O 0.75637 0.27988 0.73011
 O208 O 0.72817 0.23441 0.77295
 Cu209 Cu 0.77336 0.22150 0.73914
 Cu210 Cu 0.73924 0.26035 0.75253
 C211 C 0.73763 0.21047 0.77488
 C212 C 0.77544 0.27160 0.71719
 C213 C 0.78735 0.25471 0.77628
 C214 C 0.72456 0.22658 0.71619
 O215 O 0.29856 0.74807 0.73245
 O216 O 0.25166 0.72520 0.77671
 O217 O 0.26267 0.71258 0.73341
 O218 O 0.28848 0.75950 0.77611
 O219 O 0.25877 0.79065 0.76502
 O220 O 0.23401 0.74417 0.72115
 O221 O 0.22194 0.75575 0.76447
 O222 O 0.26937 0.77972 0.72136
 Cu223 Cu 0.27827 0.73320 0.75583
 Cu224 Cu 0.24304 0.77071 0.74193
 C225 C 0.29190 0.76773 0.71921
 C226 C 0.22876 0.73661 0.77815
 C227 C 0.24430 0.72049 0.71966
 C228 C 0.27793 0.78300 0.77807
 O229 O 0.24019 0.29700 0.73882
 O230 O 0.26631 0.24956 0.78370
 O231 O 0.27915 0.26126 0.74066
 O232 O 0.22841 0.28637 0.78211
 O233 O 0.20155 0.25601 0.76964
 O234 O 0.25257 0.23064 0.72822
 O235 O 0.23953 0.21921 0.77109
 O236 O 0.21383 0.26618 0.72632
 Cu237 Cu 0.25622 0.27658 0.76258
 Cu238 Cu 0.22419 0.23996 0.74761
 C239 C 0.22274 0.28947 0.72467
 C240 C 0.25712 0.22633 0.78521
 C241 C 0.27448 0.24192 0.72712
 C242 C 0.20637 0.27540 0.78312
 O243 O 0.73317 0.77339 0.72062
 O244 O 0.78213 0.75112 0.76464
 O245 O 0.77114 0.73701 0.72201
 O246 O 0.74340 0.78724 0.76356
 O247 O 0.71573 0.75788 0.77663
 O248 O 0.74399 0.70742 0.73558
 O249 O 0.75444 0.72215 0.77842
 O250 O 0.70585 0.74367 0.73368
 Cu251 Cu 0.76021 0.76517 0.74143
 Cu252 Cu 0.72728 0.72982 0.75744
 C253 C 0.71139 0.76196 0.71926
 C254 C 0.77651 0.73313 0.77929
 C255 C 0.76199 0.71374 0.72141
 C256 C 0.72497 0.78109 0.77736
 C257 C 0.32450 0.09432 0.08862
 C258 C 0.31319 0.06935 0.08590
 C259 C 0.31494 0.05581 0.06460
 C260 C 0.32812 0.06685 0.04551
 C261 C 0.34035 0.09131 0.04847
 C262 C 0.33858 0.10489 0.06981
 C263 C 0.32012 0.10996 0.11040
 N264 N 0.33012 0.13456 0.11290
 N265 N 0.32449 0.14944 0.13171
 C266 C 0.30858 0.14038 0.14883
 N267 N 0.29889 0.11562 0.14649
 N268 N 0.30454 0.10073 0.12769
 C269 C 0.30059 0.15781 0.16882
 C270 C 0.28175 0.14961 0.18508
 C271 C 0.27246 0.16702 0.20269
 C272 C 0.28185 0.19298 0.20448
 C273 C 0.30136 0.20082 0.18876
 C274 C 0.31061 0.18345 0.17113
 H275 H 0.30223 0.06058 0.09999
 H276 H 0.30500 0.03719 0.06282
 H277 H 0.35090 0.10015 0.03416
 H278 H 0.34766 0.12402 0.07133
 H279 H 0.27363 0.12997 0.18386
 H280 H 0.25749 0.16033 0.21459
 H281 H 0.30910 0.22066 0.18970
 H282 H 0.32521 0.19040 0.15900
 C283 C 0.80592 0.59627 0.58469
 C284 C 0.79134 0.57355 0.58021
 C285 C 0.79536 0.55883 0.55963
 C286 C 0.81407 0.56647 0.54306
 C287 C 0.82872 0.58910 0.54758
 C288 C 0.82470 0.60382 0.56813
 C289 C 0.80131 0.61225 0.60628
 N290 N 0.81460 0.63483 0.61012
 N291 N 0.80999 0.64960 0.62918
 C292 C 0.79192 0.64242 0.64528
 N293 N 0.77875 0.61973 0.64153
 N294 N 0.78335 0.60497 0.62245
 C295 C 0.78590 0.65958 0.66595
 C296 C 0.76702 0.65226 0.68251
 C297 C 0.75994 0.66941 0.70102
 C298 C 0.77155 0.69429 0.70339
 C299 C 0.79109 0.70119 0.68732
 C300 C 0.79820 0.68403 0.66884
 H301 H 0.77663 0.56721 0.59251
 H302 H 0.78351 0.54171 0.55652
 H303 H 0.84352 0.59527 0.53529
 H304 H 0.83634 0.62114 0.57099
 H305 H 0.75725 0.63352 0.68092
 H306 H 0.74484 0.66347 0.71311
 H307 H 0.80047 0.72018 0.68867
 H308 H 0.81292 0.69027 0.65650
 C309 C 0.70987 0.89410 0.07997
 C310 C 0.70159 0.92124 0.08178
 C311 C 0.69735 0.93690 0.06174
 C312 C 0.70155 0.92594 0.03916
 C313 C 0.71081 0.89877 0.03775
 C314 C 0.71463 0.88313 0.05777
 C315 C 0.71327 0.87709 0.10103
 N316 N 0.71328 0.84994 0.09929
 N317 N 0.71640 0.83448 0.11813
 C318 C 0.71977 0.84551 0.13951
 N319 N 0.71976 0.87268 0.14128
 N320 N 0.71645 0.88817 0.12244
 C321 C 0.72423 0.82814 0.16022
 C322 C 0.73621 0.83802 0.18033
 C323 C 0.74228 0.82098 0.19916
 C324 C 0.73609 0.79382 0.19839
 C325 C 0.72320 0.78421 0.17864
 C326 C 0.71750 0.80114 0.15969
 H327 H 0.69759 0.93024 0.09870
 H328 H 0.68947 0.95722 0.06425
 H329 H 0.71600 0.88934 0.02129
 H330 H 0.72163 0.86239 0.05583
 H331 H 0.74166 0.85873 0.18125
 H332 H 0.75216 0.82896 0.21418
 H333 H 0.71828 0.76336 0.17750
 H334 H 0.70809 0.79297 0.14450
 C335 C 0.18662 0.40068 0.58345
 C336 C 0.17370 0.42619 0.58228
 C337 C 0.17290 0.44060 0.56124
 C338 C 0.18559 0.43003 0.54109
 C339 C 0.19871 0.40455 0.54259
 C340 C 0.19888 0.38996 0.56335
 C341 C 0.18799 0.38520 0.60545
 N342 N 0.19002 0.35798 0.60484
 N343 N 0.19289 0.34377 0.62441
 C344 C 0.19412 0.35618 0.64543
 N345 N 0.19194 0.38345 0.64611
 N346 N 0.18880 0.39769 0.62649
 C347 C 0.19912 0.34010 0.66682
 C348 C 0.21149 0.35107 0.68630
 C349 C 0.21875 0.33481 0.70541
 C350 C 0.21333 0.30742 0.70554
 C351 C 0.19994 0.29682 0.68647
 C352 C 0.19310 0.31291 0.66728
 H353 H 0.16396 0.43482 0.59755
 H354 H 0.16224 0.45991 0.56080
 H355 H 0.20951 0.39598 0.52785
 H356 H 0.20936 0.37052 0.56384
 H357 H 0.21644 0.37195 0.68639
 H358 H 0.22897 0.34356 0.71990
 H359 H 0.19549 0.27580 0.68601
 H360 H 0.18343 0.30393 0.65259
 C361 C 0.88688 0.31301 0.08882
 C362 C 0.91394 0.30564 0.08902
 C363 C 0.92892 0.30632 0.06853
 C364 C 0.91717 0.31400 0.04704
 C365 C 0.89023 0.32265 0.04731
 C366 C 0.87540 0.32222 0.06786
 C367 C 0.87037 0.30959 0.10992
 N368 N 0.84471 0.31870 0.11030
 N369 N 0.82932 0.31394 0.12858
 C370 C 0.83890 0.29976 0.14722
 N371 N 0.86465 0.29091 0.14696
 N372 N 0.88006 0.29574 0.12871
 C373 C 0.82128 0.29292 0.16682
 C374 C 0.82982 0.27424 0.18393
 C375 C 0.81262 0.26642 0.20150
 C376 C 0.78655 0.27726 0.20248
 C377 C 0.77822 0.29645 0.18575
 C378 C 0.79535 0.30413 0.16808
 H379 H 0.92346 0.29856 0.10492
 H380 H 0.94931 0.29898 0.06948
 H381 H 0.88042 0.33013 0.03170
 H382 H 0.85468 0.32848 0.06713
 H383 H 0.84965 0.26518 0.18348
 H384 H 0.81968 0.25167 0.21420
 H385 H 0.75826 0.30520 0.18603
 H386 H 0.78815 0.31864 0.15525
 C387 C 0.40488 0.80789 0.58195
 C388 C 0.42996 0.79500 0.57925
 C389 C 0.44358 0.79640 0.55808
 C390 C 0.43246 0.81070 0.53906
 C391 C 0.40776 0.82431 0.54197
 C392 C 0.39414 0.82297 0.56318
 C393 C 0.38952 0.80453 0.60378
 N394 N 0.36529 0.81695 0.60653
 N395 N 0.35092 0.81275 0.62558
 C396 C 0.36013 0.79593 0.64270
 N397 N 0.38446 0.78372 0.64004
 N398 N 0.39885 0.78794 0.62101
 C399 C 0.34348 0.79006 0.66326
 C400 C 0.35189 0.77054 0.67973
 C401 C 0.33541 0.76369 0.69820
 C402 C 0.31018 0.77629 0.70071
 C403 C 0.30208 0.79636 0.68466
 C404 C 0.31851 0.80314 0.66615
 H405 H 0.43888 0.78327 0.59332
 H406 H 0.46243 0.78543 0.55633
 H407 H 0.39882 0.83576 0.52773
 H408 H 0.37493 0.83326 0.56466
 H409 H 0.37102 0.76010 0.67810
 H410 H 0.34228 0.74820 0.71029
 H411 H 0.28278 0.80649 0.68609
 H412 H 0.31142 0.81836 0.65389
 C413 C 0.09639 0.72081 0.08131
 C414 C 0.10504 0.73342 0.06099
 C415 C 0.09283 0.72904 0.03961
 C416 C 0.07106 0.71252 0.03810
 C417 C 0.06212 0.70048 0.05882
 C418 C 0.07491 0.70425 0.08004
 C419 C 0.11009 0.72458 0.10363
 N420 N 0.11226 0.70440 0.11955
 N421 N 0.12556 0.70748 0.13931
 C422 C 0.13687 0.73101 0.14403
 N423 N 0.13442 0.75127 0.12822
 N424 N 0.12141 0.74808 0.10835
 C425 C 0.15256 0.73422 0.16537
 C426 C 0.15429 0.75967 0.17553
 C427 C 0.17072 0.76321 0.19468
 C428 C 0.18621 0.74149 0.20362
 C429 C 0.18410 0.71592 0.19376
 C430 C 0.16712 0.71224 0.17497
 H431 H 0.12157 0.74635 0.06155
 H432 H 0.09996 0.73948 0.02445
 H433 H 0.04600 0.68702 0.05860
 H434 H 0.06790 0.69429 0.09552
 H435 H 0.14316 0.77689 0.16849
 H436 H 0.17213 0.78316 0.20188
 H437 H 0.19584 0.69888 0.20039
 H438 H 0.16619 0.69244 0.16736
 C439 C 0.59934 0.18514 0.58858
 C440 C 0.60816 0.17092 0.56862
 C441 C 0.59249 0.17050 0.54857
 C442 C 0.56765 0.18427 0.54804
 C443 C 0.55831 0.19734 0.56837
 C444 C 0.57394 0.19777 0.58838
 C445 C 0.61703 0.18835 0.60888
 N446 N 0.60918 0.20406 0.62721
 N447 N 0.62559 0.20857 0.64471
 C448 C 0.65061 0.19758 0.64468
 N449 N 0.65839 0.18157 0.62650
 N450 N 0.64197 0.17708 0.60896
 C451 C 0.66927 0.20394 0.66357
 C452 C 0.69489 0.19183 0.66423
 C453 C 0.71277 0.19888 0.68148
 C454 C 0.70547 0.21828 0.69838
 C455 C 0.67977 0.23010 0.69790
 C456 C 0.66188 0.22297 0.68077
 H457 H 0.62751 0.16077 0.56821
 H458 H 0.60006 0.15989 0.53330
 H459 H 0.53939 0.20837 0.56847
 H460 H 0.56643 0.20882 0.60344
 H461 H 0.70124 0.17707 0.65129
 H462 H 0.73242 0.18939 0.68139
 H463 H 0.67347 0.24503 0.71072
 H464 H 0.64234 0.23272 0.68083
 C465 C 0.69784 0.10163 0.91463
 C466 C 0.69071 0.07483 0.91432
 C467 C 0.68792 0.06062 0.93518
 C468 C 0.69260 0.07268 0.95706
 C469 C 0.70014 0.09964 0.95695
 C470 C 0.70246 0.11386 0.93613
 C471 C 0.70070 0.11690 0.89273
 N472 N 0.69902 0.14414 0.89297
 N473 N 0.70240 0.15810 0.87348
 C474 C 0.70776 0.14542 0.85293
 N475 N 0.70934 0.11814 0.85263
 N476 N 0.70575 0.10415 0.87213
 C477 C 0.71307 0.16119 0.83171
 C478 C 0.72758 0.14966 0.81302
 C479 C 0.73496 0.16547 0.79413
 C480 C 0.72763 0.19300 0.79344
 C481 C 0.71207 0.20419 0.81162
 C482 C 0.70501 0.18850 0.83060
 H483 H 0.68675 0.06498 0.89795
 H484 H 0.68107 0.04049 0.93386
 H485 H 0.70540 0.10985 0.97277
 H486 H 0.70849 0.13438 0.93689
 H487 H 0.73409 0.12866 0.81339
 H488 H 0.74687 0.15628 0.78032
 H489 H 0.70610 0.22534 0.81161
 H490 H 0.69363 0.19791 0.84465
 C491 C 0.18640 0.60994 0.41539
 C492 C 0.17224 0.58646 0.41663
 C493 C 0.17282 0.57081 0.43703
 C494 C 0.18810 0.57810 0.45632
 C495 C 0.20273 0.60131 0.45457
 C496 C 0.20155 0.61719 0.43457
 C497 C 0.18611 0.62693 0.39426
 N498 N 0.18890 0.65376 0.39624
 N499 N 0.19081 0.66909 0.37735
 C500 C 0.19026 0.65822 0.35567
 N501 N 0.18721 0.63137 0.35364
 N502 N 0.18502 0.61603 0.37258
 C503 C 0.19498 0.67513 0.33498
 C504 C 0.20585 0.66381 0.31445
 C505 C 0.21361 0.68029 0.29613
 C506 C 0.21020 0.70837 0.29783
 C507 C 0.19804 0.71957 0.31785
 C508 C 0.19071 0.70314 0.33630
 H509 H 0.16037 0.58049 0.40201
 H510 H 0.16109 0.55328 0.43772
 H511 H 0.21555 0.60715 0.46856
 H512 H 0.21309 0.63490 0.43392
 H513 H 0.20945 0.64230 0.31295
 H514 H 0.22279 0.67109 0.28083
 H515 H 0.19515 0.74112 0.31968
 H516 H 0.18221 0.71244 0.35184
 C517 C 0.32603 0.89782 0.91195
 C518 C 0.33539 0.88508 0.93237
 C519 C 0.33635 0.89917 0.95338
 C520 C 0.32809 0.92660 0.95465
 C521 C 0.32016 0.93959 0.93369
 C522 C 0.31898 0.92536 0.91275
 C523 C 0.32214 0.88211 0.89039
 N524 N 0.30827 0.89297 0.87215
 N525 N 0.30306 0.87823 0.85349
 C526 C 0.31155 0.85202 0.85225
 N527 N 0.32575 0.84129 0.87034
 N528 N 0.33089 0.85599 0.88902
 C529 C 0.30430 0.83507 0.83224
 C530 C 0.31488 0.80861 0.83021
 C531 C 0.30674 0.79195 0.81231
 C532 C 0.28772 0.80131 0.79606
 C533 C 0.27758 0.82796 0.79773
 C534 C 0.28584 0.84469 0.81559
 H535 H 0.34138 0.86394 0.93232
 H536 H 0.34394 0.88839 0.96851
 H537 H 0.31303 0.96038 0.93349
 H538 H 0.31178 0.93584 0.89730
 H539 H 0.32921 0.80057 0.84267
 H540 H 0.31499 0.77154 0.81149
 H541 H 0.26297 0.83579 0.78543
 H542 H 0.27728 0.86496 0.81663
 C543 C 0.80073 0.39238 0.41741
 C544 C 0.82065 0.38289 0.43278
 C545 C 0.82579 0.39682 0.45328
 C546 C 0.81117 0.42057 0.45894
 C547 C 0.79126 0.43010 0.44360
 C548 C 0.78610 0.41616 0.42307
 C549 C 0.79512 0.37735 0.39579
 N550 N 0.77582 0.38626 0.38089
 N551 N 0.77048 0.37242 0.36173
 C552 C 0.78422 0.34910 0.35663
 N553 N 0.80360 0.34028 0.37146
 N554 N 0.80895 0.35411 0.39061
 C555 C 0.77760 0.33308 0.33582
 C556 C 0.79107 0.30832 0.33132
 C557 C 0.78378 0.29239 0.31258
 C558 C 0.76288 0.30086 0.29785
 C559 C 0.74991 0.32596 0.30191
 C560 C 0.75718 0.34189 0.32068
 H561 H 0.83235 0.36468 0.42899
 H562 H 0.84147 0.38916 0.46461
 H563 H 0.77942 0.44816 0.44762
 H564 H 0.77054 0.42400 0.41170
 H565 H 0.80695 0.30092 0.34253
 H566 H 0.79421 0.27317 0.30992
 H567 H 0.73373 0.33308 0.29088
 H568 H 0.74645 0.36090 0.32356
 C569 C 0.08598 0.31662 0.91692
 C570 C 0.06239 0.30317 0.91918
 C571 C 0.04853 0.30365 0.94025
 C572 C 0.05785 0.31764 0.95960
 C573 C 0.08095 0.33186 0.95716
 C574 C 0.09486 0.33139 0.93603
 C575 C 0.10191 0.31389 0.89525
 N576 N 0.12510 0.32619 0.89306
 N577 N 0.14025 0.32220 0.87423
 C578 C 0.13287 0.30571 0.85680
 N579 N 0.10952 0.29370 0.85886
 N580 N 0.09437 0.29771 0.87767
 C581 C 0.15062 0.29966 0.83670
 C582 C 0.14433 0.28018 0.82014
 C583 C 0.16211 0.27279 0.80234
 C584 C 0.18655 0.28477 0.80067
 C585 C 0.19244 0.30492 0.81671
 C586 C 0.17470 0.31225 0.83454
 H587 H 0.05494 0.29162 0.90485
 H588 H 0.03099 0.29218 0.94165
 H589 H 0.08844 0.34308 0.97168
 H590 H 0.11289 0.34209 0.93487
 H591 H 0.12593 0.27010 0.82125
 H592 H 0.15694 0.25727 0.79021
 H593 H 0.21107 0.31461 0.81586
 H594 H 0.18015 0.32741 0.84691
 C595 C 0.60179 0.80791 0.40529
 C596 C 0.57750 0.79555 0.40681
 C597 C 0.56269 0.79686 0.42744
 C598 C 0.57183 0.81053 0.44703
 C599 C 0.59553 0.82389 0.44519
 C600 C 0.61033 0.82261 0.42456
 C601 C 0.61883 0.80411 0.38432
 N602 N 0.64280 0.81510 0.38316
 N603 N 0.65886 0.81016 0.36506
 C604 C 0.65168 0.79399 0.34735
 N605 N 0.62757 0.78328 0.34837
 N606 N 0.61151 0.78823 0.36645
 C607 C 0.67024 0.78701 0.32796
 C608 C 0.66354 0.76845 0.31076
 C609 C 0.68169 0.76038 0.29345
 C610 C 0.70697 0.77072 0.29285
 C611 C 0.71344 0.78986 0.30962
 C612 C 0.69530 0.79789 0.32700
 H613 H 0.57025 0.78413 0.39231
 H614 H 0.54464 0.78615 0.42837
 H615 H 0.60288 0.83492 0.45988
 H616 H 0.62884 0.83254 0.42397
 H617 H 0.64442 0.75969 0.31090
 H618 H 0.67601 0.74569 0.28074
 H619 H 0.73274 0.79826 0.30963
 H620 H 0.70112 0.81228 0.33991
 C621 C 0.89800 0.70489 0.91420
 C622 C 0.88856 0.71302 0.93627
 C623 C 0.90465 0.71018 0.95593
 C624 C 0.93042 0.69863 0.95409
 C625 C 0.93998 0.69087 0.93190
 C626 C 0.92400 0.69416 0.91214
 C627 C 0.88055 0.70732 0.89360
 N628 N 0.89071 0.70842 0.87166
 N629 N 0.87483 0.71092 0.85320
 C630 C 0.84818 0.71211 0.85593
 N631 N 0.83807 0.71080 0.87785
 N632 N 0.85392 0.70853 0.89629
 C633 C 0.83043 0.71561 0.83561
 C634 C 0.80398 0.70863 0.83722
 C635 C 0.78671 0.71340 0.81855
 C636 C 0.79543 0.72567 0.79804
 C637 C 0.82202 0.73216 0.79623
 C638 C 0.83941 0.72694 0.81475
 H639 H 0.86874 0.72177 0.93835
 H640 H 0.89684 0.71713 0.97257
 H641 H 0.95961 0.68163 0.92986
 H642 H 0.93178 0.68765 0.89534
 H643 H 0.79654 0.69968 0.85301
 H644 H 0.76631 0.70827 0.82048
 H645 H 0.82929 0.74157 0.78058
 H646 H 0.85968 0.73257 0.81302
 C647 C 0.39334 0.19895 0.42128
 C648 C 0.38404 0.21197 0.44158
 C649 C 0.39858 0.21023 0.46219
 C650 C 0.42253 0.19479 0.46329
 C651 C 0.43171 0.18153 0.44290
 C652 C 0.41741 0.18386 0.42204
 C653 C 0.37770 0.20128 0.39958
 N654 N 0.38955 0.20080 0.37827
 N655 N 0.37524 0.20400 0.35886
 C656 C 0.34853 0.20748 0.36005
 N657 N 0.33675 0.20768 0.38136
 N658 N 0.35104 0.20479 0.40072
 C659 C 0.33237 0.21160 0.33879
 C660 C 0.30589 0.20463 0.33889
 C661 C 0.28984 0.20997 0.31954
 C662 C 0.29974 0.22289 0.29979
 C663 C 0.32636 0.22954 0.29949
 C664 C 0.34263 0.22365 0.31874
 H665 H 0.36571 0.22405 0.44141
 H666 H 0.39117 0.22148 0.47717
 H667 H 0.44980 0.16911 0.44304
 H668 H 0.42491 0.17348 0.40663
 H669 H 0.29748 0.19519 0.35404
 H670 H 0.26940 0.20470 0.32037
 H671 H 0.33450 0.23949 0.28447
 H672 H 0.36297 0.22933 0.31826
 C673 C 0.68158 0.90195 0.91156
 C674 C 0.69352 0.92673 0.91328
 C675 C 0.69329 0.94078 0.93436
 C676 C 0.68108 0.93044 0.95427
 C677 C 0.66815 0.90624 0.95234
 C678 C 0.66837 0.89216 0.93121
 C679 C 0.68435 0.88575 0.88989
 N680 N 0.67382 0.86128 0.88835
 N681 N 0.67796 0.84596 0.86953
 C682 C 0.69283 0.85443 0.85144
 N683 N 0.70306 0.87905 0.85286
 N684 N 0.69891 0.89436 0.87166
 C685 C 0.69915 0.83658 0.83126
 C686 C 0.71684 0.84434 0.81383
 C687 C 0.72463 0.82662 0.79594
 C688 C 0.71485 0.80075 0.79499
 C689 C 0.69642 0.79334 0.81190
 C690 C 0.68869 0.81103 0.82985
 H691 H 0.70380 0.93496 0.89852
 H692 H 0.70366 0.95922 0.93532
 H693 H 0.65821 0.89797 0.96727
 H694 H 0.65879 0.87324 0.93049
 H695 H 0.72525 0.86388 0.81431
 H696 H 0.73879 0.83299 0.78314
 H697 H 0.68847 0.77358 0.81166
 H698 H 0.67495 0.80441 0.84290
 C699 C 0.19938 0.39882 0.41313
 C700 C 0.20923 0.38837 0.43429
 C701 C 0.20789 0.40380 0.45457
 C702 C 0.19610 0.42992 0.45435
 C703 C 0.18668 0.44060 0.43303
 C704 C 0.18849 0.42526 0.41256
 C705 C 0.20041 0.38188 0.39196
 N706 N 0.20102 0.39294 0.37029
 N707 N 0.20299 0.37738 0.35139
 C708 C 0.20411 0.35018 0.35342
 N709 N 0.20314 0.33921 0.37508
 N710 N 0.20140 0.35473 0.39394
 C711 C 0.20797 0.33269 0.33274
 C712 C 0.20179 0.30555 0.33387
 C713 C 0.20802 0.28820 0.31533
 C714 C 0.22094 0.29755 0.29542
 C715 C 0.22622 0.32491 0.29389
 C716 C 0.21959 0.34237 0.31230
 H717 H 0.21820 0.36825 0.43517
 H718 H 0.21612 0.39518 0.47046
 H719 H 0.17730 0.46055 0.43225
 H720 H 0.18075 0.43380 0.39645
 H721 H 0.19265 0.29756 0.34934
 H722 H 0.20377 0.26722 0.31705
 H723 H 0.23611 0.33269 0.27872
 H724 H 0.22464 0.36317 0.31095
 C725 C 0.30357 0.10554 0.91970
 C726 C 0.29352 0.07984 0.92124
 C727 C 0.29816 0.06381 0.94100
 C728 C 0.31297 0.07300 0.96002
 C729 C 0.32311 0.09885 0.95815
 C730 C 0.31849 0.11477 0.93836
 C731 C 0.29825 0.12277 0.89892
 N732 N 0.30803 0.14762 0.89746
 N733 N 0.30283 0.16332 0.87904
 C734 C 0.28763 0.15486 0.86127
 N735 N 0.27796 0.12996 0.86269
 N736 N 0.28317 0.11426 0.88110
 C737 C 0.28108 0.17268 0.84112
 C738 C 0.26423 0.16430 0.82340
 C739 C 0.25693 0.18154 0.80503
 C740 C 0.26636 0.20756 0.80387
 C741 C 0.28373 0.21574 0.82125
 C742 C 0.29099 0.19850 0.83968
 H743 H 0.28175 0.07214 0.90725
 H744 H 0.28895 0.04472 0.94151
 H745 H 0.33557 0.10671 0.97155
 H746 H 0.32677 0.13437 0.93772
 H747 H 0.25629 0.14454 0.82386
 H748 H 0.24358 0.17456 0.79189
 H749 H 0.29134 0.23566 0.82087
 H750 H 0.30410 0.20559 0.85296
 C751 C 0.82243 0.59335 0.41388
 C752 C 0.81102 0.56834 0.41613
 C753 C 0.81291 0.55404 0.43706
 C754 C 0.82630 0.56433 0.45628
 C755 C 0.83840 0.58895 0.45385
 C756 C 0.83652 0.60329 0.43287
 C757 C 0.81848 0.60945 0.39228
 N758 N 0.82892 0.63390 0.39006
 N759 N 0.82409 0.64895 0.37117
 C760 C 0.80858 0.64021 0.35372
 N761 N 0.79837 0.61565 0.35585
 N762 N 0.80322 0.60060 0.37471
 C763 C 0.80192 0.65758 0.33334
 C764 C 0.78379 0.64953 0.31650
 C765 C 0.77616 0.66663 0.29813
 C766 C 0.78656 0.69214 0.29611
 C767 C 0.80522 0.69992 0.31257
 C768 C 0.81279 0.68285 0.33098
 H769 H 0.80004 0.56004 0.40189
 H770 H 0.80303 0.53532 0.43845
 H771 H 0.84910 0.59725 0.46827
 H772 H 0.84566 0.62242 0.43172
 H773 H 0.77504 0.63020 0.31774
 H774 H 0.76180 0.66001 0.28571
 H775 H 0.81364 0.71943 0.31150
 H776 H 0.82686 0.68968 0.34357
 C777 C 0.10849 0.70590 0.91168
 C778 C 0.08499 0.69222 0.91151
 C779 C 0.06938 0.69097 0.93172
 C780 C 0.07668 0.70382 0.95264
 C781 C 0.09995 0.71841 0.95201
 C782 C 0.11569 0.71903 0.93208
 C783 C 0.12577 0.70676 0.89091
 N784 N 0.15221 0.70852 0.89358
 N785 N 0.16795 0.71063 0.87511
 C786 C 0.15789 0.71133 0.85319
 N787 N 0.13142 0.70944 0.85045
 N788 N 0.11567 0.70703 0.86896
 C789 C 0.17544 0.71551 0.83297
 C790 C 0.16574 0.72820 0.81261
 C791 C 0.18299 0.73468 0.79457
 C792 C 0.21017 0.72809 0.79634
 C793 C 0.21967 0.71438 0.81627
 C794 C 0.20252 0.70839 0.83448
 H795 H 0.07907 0.68180 0.89594
 H796 H 0.05228 0.67892 0.93084
 H797 H 0.10598 0.73036 0.96660
 H798 H 0.13336 0.73040 0.93251
 H799 H 0.14498 0.73404 0.81101
 H800 H 0.17512 0.74515 0.77935
 H801 H 0.24051 0.70909 0.81816
 H802 H 0.21054 0.69848 0.84991
 C803 C 0.59455 0.21168 0.42068
 C804 C 0.57001 0.19985 0.42027
 C805 C 0.55591 0.19630 0.44096
 C806 C 0.56585 0.20495 0.46246
 C807 C 0.59000 0.21768 0.46264
 C808 C 0.60431 0.22074 0.44203
 C809 C 0.61032 0.21396 0.39912
 N810 N 0.63697 0.21504 0.40027
 N811 N 0.65135 0.21681 0.38092
 C812 C 0.63968 0.21775 0.35962
 N813 N 0.61300 0.21677 0.35844
 N814 N 0.59861 0.21475 0.37781
 C815 C 0.65579 0.22050 0.33831
 C816 C 0.64492 0.23256 0.31812
 C817 C 0.66091 0.23728 0.29875
 C818 C 0.68791 0.22953 0.29908
 C819 C 0.69846 0.21638 0.31889
 C820 C 0.68262 0.21214 0.33838
 H821 H 0.56210 0.19255 0.40406
 H822 H 0.53759 0.18606 0.44017
 H823 H 0.59795 0.22526 0.47872
 H824 H 0.62302 0.23028 0.44281
 H825 H 0.62430 0.23923 0.31761
 H826 H 0.65226 0.24742 0.28368
 H827 H 0.71922 0.21028 0.31969
 H828 H 0.69147 0.20259 0.35364
 C829 C 0.89192 0.28865 0.91970
 C830 C 0.88005 0.30399 0.93773
 C831 C 0.89326 0.30776 0.95874
 C832 C 0.91900 0.29647 0.96244
 C833 C 0.93075 0.28097 0.94418
 C834 C 0.91736 0.27707 0.92322
 C835 C 0.87770 0.28479 0.89743
 N836 N 0.88769 0.26775 0.88076
 N837 N 0.87461 0.26409 0.86094
 C838 C 0.85104 0.27739 0.85692
 N839 N 0.84116 0.29451 0.87355
 N840 N 0.85419 0.29812 0.89335
 C841 C 0.83590 0.27277 0.83528
 C842 C 0.81228 0.28780 0.83086
 C843 C 0.79703 0.28247 0.81131
 C844 C 0.80496 0.26192 0.79567
 C845 C 0.82895 0.24738 0.79966
 C846 C 0.84429 0.25278 0.81923
 H847 H 0.86048 0.31333 0.93562
 H848 H 0.88348 0.32067 0.97158
 H849 H 0.94993 0.27084 0.94614
 H850 H 0.92703 0.26492 0.90976
 H851 H 0.80527 0.30346 0.84273
 H852 H 0.77867 0.29408 0.80877
 H853 H 0.83562 0.23141 0.78794
 H854 H 0.86241 0.24086 0.82205
 C855 C 0.39731 0.79411 0.41185
 C856 C 0.39037 0.81369 0.42871
 C857 C 0.40560 0.81631 0.44874
 C858 C 0.42821 0.79949 0.45243
 C859 C 0.43538 0.78007 0.43553
 C860 C 0.42005 0.77736 0.41546
 C861 C 0.38060 0.79105 0.39091
 N862 N 0.38601 0.77117 0.37516
 N863 N 0.37048 0.76814 0.35671
 C864 C 0.34891 0.78488 0.35322
 N865 N 0.34363 0.80483 0.36890
 N866 N 0.35913 0.80785 0.38732
 C867 C 0.33092 0.78101 0.33326
 C868 C 0.30843 0.79823 0.33023
 C869 C 0.29056 0.79381 0.31232
 C870 C 0.29473 0.77208 0.29695
 C871 C 0.31756 0.75524 0.29955
 C872 C 0.33547 0.75965 0.31752
 H873 H 0.37304 0.82698 0.42652
 H874 H 0.39981 0.83171 0.46132
 H875 H 0.45257 0.76666 0.43801
 H876 H 0.42595 0.76205 0.40286
 H877 H 0.30432 0.81495 0.34194
 H878 H 0.27321 0.80721 0.31078
 H879 H 0.32135 0.73832 0.28798
 H880 H 0.35263 0.74605 0.31929
 C881 C 0.30355 0.89536 0.08180
 C882 C 0.28867 0.91924 0.07693
 C883 C 0.29295 0.93357 0.05638
 C884 C 0.31227 0.92444 0.04024
 C885 C 0.32715 0.90060 0.04511
 C886 C 0.32283 0.88621 0.06562
 C887 C 0.29880 0.87999 0.10348
 N888 N 0.31152 0.85579 0.10733
 N889 N 0.30686 0.84176 0.12659
 C890 C 0.28934 0.85136 0.14288
 N891 N 0.27675 0.87563 0.13910
 N892 N 0.28138 0.88964 0.11983
 C893 C 0.28332 0.83530 0.16390
 C894 C 0.26579 0.84573 0.18103
 C895 C 0.25867 0.83000 0.20002
 C896 C 0.26885 0.80342 0.20233
 C897 C 0.28704 0.79324 0.18562
 C898 C 0.29422 0.80902 0.16664
 H899 H 0.27356 0.92681 0.08892
 H900 H 0.28088 0.95165 0.05300
 H901 H 0.34243 0.89323 0.03318
 H902 H 0.33471 0.86797 0.06881
 H903 H 0.25713 0.86594 0.17958
 H904 H 0.24464 0.83849 0.21259
 H905 H 0.29527 0.77286 0.18690
 H906 H 0.30785 0.80035 0.15383
 C907 C 0.82675 0.39022 0.58653
 C908 C 0.81590 0.41667 0.58544
 C909 C 0.81712 0.43150 0.56481
 C910 C 0.82928 0.42030 0.54477
 C911 C 0.84117 0.39430 0.54613
 C912 C 0.83992 0.37941 0.56679
 C913 C 0.82279 0.37357 0.60760
 N914 N 0.83183 0.34749 0.60839
 N915 N 0.82650 0.33203 0.62663
 C916 C 0.81188 0.34198 0.64484
 N917 N 0.80317 0.36815 0.64418
 N918 N 0.80851 0.38359 0.62597
 C919 C 0.80421 0.32437 0.66435
 C920 C 0.78652 0.33413 0.68163
 C921 C 0.77760 0.31710 0.69901
 C922 C 0.78627 0.28992 0.69963
 C923 C 0.80459 0.28031 0.68281
 C924 C 0.81342 0.29734 0.66532
 H925 H 0.80568 0.42569 0.60030
 H926 H 0.80749 0.45135 0.56430
 H927 H 0.85102 0.38527 0.53108
 H928 H 0.84867 0.35918 0.56706
 H929 H 0.77904 0.35483 0.68148
 H930 H 0.76360 0.32518 0.71180
 H931 H 0.81168 0.25948 0.68283
 H932 H 0.82712 0.28917 0.65234
 C933 C 0.68542 0.10430 0.08494
 C934 C 0.67215 0.08022 0.08432
 C935 C 0.67140 0.06522 0.06362
 C936 C 0.68442 0.07376 0.04336
 C937 C 0.69832 0.09750 0.04448
 C938 C 0.69846 0.11272 0.06483
 C939 C 0.68613 0.12087 0.10626
 N940 N 0.68736 0.14791 0.10444
 N941 N 0.68976 0.16304 0.12336
 C942 C 0.69129 0.15174 0.14490
 N943 N 0.68987 0.12465 0.14679
 N944 N 0.68718 0.10950 0.12783
 C945 C 0.69605 0.16865 0.16552
 C946 C 0.70916 0.15788 0.18524
 C947 C 0.71638 0.17466 0.20349
 C948 C 0.71017 0.20242 0.20255
 C949 C 0.69600 0.21294 0.18331
 C950 C 0.68922 0.19628 0.16492
 H951 H 0.66193 0.07333 0.09965
 H952 H 0.66033 0.04720 0.06347
 H953 H 0.70947 0.10431 0.02966
 H954 H 0.70930 0.13092 0.06496
 H955 H 0.71477 0.13668 0.18613
 H956 H 0.72720 0.16598 0.21815
 H957 H 0.69095 0.23425 0.18206
 H958 H 0.67898 0.20513 0.15001
 C959 C 0.21195 0.60391 0.58327
 C960 C 0.19955 0.57934 0.58415
 C961 C 0.19579 0.56468 0.56368
 C962 C 0.20470 0.57417 0.54204
 C963 C 0.21812 0.59820 0.54149
 C964 C 0.22145 0.61300 0.56179
 C965 C 0.21447 0.62053 0.60439
 N966 N 0.21612 0.64752 0.60240
 N967 N 0.21858 0.66275 0.62125
 C968 C 0.21967 0.65160 0.64287
 N969 N 0.21801 0.62458 0.64490
 N970 N 0.21529 0.60934 0.62602
 C971 C 0.22365 0.66862 0.66353
 C972 C 0.23571 0.65784 0.68373
 C973 C 0.24185 0.67460 0.70230
 C974 C 0.23558 0.70233 0.70117
 C975 C 0.22242 0.71287 0.68141
 C976 C 0.21673 0.69622 0.66270
 H977 H 0.19201 0.57190 0.60050
 H978 H 0.18520 0.54638 0.56473
 H979 H 0.22595 0.60572 0.52528
 H980 H 0.23152 0.63163 0.56067
 H981 H 0.24132 0.63665 0.68481
 H982 H 0.25191 0.66593 0.71737
 H983 H 0.21738 0.73416 0.68003
 H984 H 0.20723 0.70503 0.64742
 C985 C 0.91032 0.68059 0.08305
 C986 C 0.90101 0.66592 0.06404
 C987 C 0.91454 0.66540 0.04268
 C988 C 0.93768 0.67952 0.03987
 C989 C 0.94747 0.69329 0.05918
 C990 C 0.93402 0.69377 0.08047
 C991 C 0.89472 0.68364 0.10494
 N992 N 0.90302 0.69941 0.12252
 N993 N 0.88825 0.70380 0.14151
 C994 C 0.86450 0.69259 0.14378
 N995 N 0.85635 0.67651 0.12635
 N996 N 0.87112 0.67214 0.10733
 C997 C 0.84724 0.69906 0.16419
 C998 C 0.82272 0.68736 0.16662
 C999 C 0.80557 0.69506 0.18481
 C1000 C 0.81248 0.71471 0.20098
 C1001 C 0.83733 0.72580 0.19900
 C1002 C 0.85453 0.71804 0.18085
 H1003 H 0.88290 0.65539 0.06545
 H1004 H 0.90664 0.65434 0.02825
 H1005 H 0.96497 0.70476 0.05758
 H1006 H 0.94182 0.70526 0.09468
 H1007 H 0.81650 0.67260 0.15419
 H1008 H 0.78659 0.68606 0.18585
 H1009 H 0.84329 0.74092 0.21120
 H1010 H 0.87328 0.72743 0.17957
 C1011 C 0.39522 0.20295 0.59272
 C1012 C 0.38884 0.18394 0.57580
 C1013 C 0.40318 0.18163 0.55498
 C1014 C 0.42423 0.19824 0.55059
 C1015 C 0.43097 0.21689 0.56767
 C1016 C 0.41663 0.21922 0.58851
 C1017 C 0.37907 0.20640 0.61423
 N1018 N 0.38488 0.22501 0.63048
 N1019 N 0.36967 0.22893 0.64927
 C1020 C 0.34800 0.21440 0.65264
 N1021 N 0.34233 0.19562 0.63650
 N1022 N 0.35754 0.19169 0.61771
 C1023 C 0.33023 0.21985 0.67286
 C1024 C 0.30686 0.20606 0.67545
 C1025 C 0.28911 0.21265 0.69350
 C1026 C 0.29435 0.23316 0.70938
 C1027 C 0.31813 0.24632 0.70728
 C1028 C 0.33585 0.23976 0.68923
 H1029 H 0.37259 0.17097 0.57849
 H1030 H 0.39779 0.16679 0.54228
 H1031 H 0.44693 0.23016 0.56468
 H1032 H 0.42209 0.23408 0.60114
 H1033 H 0.30192 0.19055 0.66322
 H1034 H 0.27099 0.20209 0.69466
 H1035 H 0.32280 0.26219 0.71926
 H1036 H 0.35371 0.25071 0.68785
 C1037 C 0.09406 0.29661 0.08630
 C1038 C 0.09918 0.31673 0.06992
 C1039 C 0.08346 0.32028 0.05008
 C1040 C 0.06223 0.30379 0.04605
 C1041 C 0.05681 0.28392 0.06257
 C1042 C 0.07255 0.28037 0.08247
 C1043 C 0.11141 0.29232 0.10693
 N1044 N 0.10626 0.27341 0.12319
 N1045 N 0.12222 0.26915 0.14139
 C1046 C 0.14405 0.28359 0.14413
 N1047 N 0.14914 0.30257 0.12792
 N1048 N 0.13317 0.30685 0.10974
 C1049 C 0.16226 0.27824 0.16402
 C1050 C 0.18580 0.29189 0.16601
 C1051 C 0.20347 0.28595 0.18424
 C1052 C 0.19798 0.26628 0.20090
 C1053 C 0.17421 0.25303 0.19917
 C1054 C 0.15659 0.25892 0.18096
 H1055 H 0.11545 0.32973 0.07233
 H1056 H 0.08788 0.33606 0.03787
 H1057 H 0.04078 0.27071 0.05985
 H1058 H 0.06805 0.26465 0.09470
 H1059 H 0.19080 0.30692 0.15330
 H1060 H 0.22159 0.29653 0.18507
 H1061 H 0.16933 0.23778 0.21172
 H1062 H 0.13864 0.24808 0.18006
 C1063 C 0.60306 0.79044 0.57578
 C1064 C 0.58195 0.77404 0.57099
 C1065 C 0.56800 0.77682 0.55005
 C1066 C 0.57485 0.79605 0.53343
 C1067 C 0.59613 0.81222 0.53810
 C1068 C 0.61007 0.80946 0.55901
 C1069 C 0.61770 0.78778 0.59810
 N1070 N 0.63839 0.80330 0.60251
 N1071 N 0.65177 0.80075 0.62242
 C1072 C 0.64500 0.78260 0.63881
 N1073 N 0.62422 0.76717 0.63446
 N1074 N 0.61084 0.76972 0.61453
 C1075 C 0.66065 0.77897 0.66050
 C1076 C 0.65397 0.75982 0.67728
 C1077 C 0.66991 0.75499 0.69685
 C1078 C 0.69290 0.76917 0.70006
 C1079 C 0.69904 0.78901 0.68375
 C1080 C 0.68310 0.79387 0.66421
 H1081 H 0.57611 0.75906 0.58344
 H1082 H 0.55192 0.76381 0.54681
 H1083 H 0.60166 0.82745 0.52575
 H1084 H 0.62622 0.82243 0.56209
 H1085 H 0.63674 0.74808 0.67506
 H1086 H 0.66461 0.73959 0.70911
 H1087 H 0.71658 0.80035 0.68573
 H1088 H 0.68877 0.80887 0.65173
   
