data_POSCAR
  _audit_creation_date              2014-09-24
  _audit_creation_method            'ToBaCCo'
  _symmetry_space_group_name_H-M    'P1'
  _symmetry_Int_Tables_number       1
  _symmetry_cell_setting            triclinic
  loop_
  _symmetry_equiv_pos_as_xyz
 x,y,z
_cell_length_a 34.7181
_cell_length_b 34.7671
_cell_length_c 33.4138
_cell_angle_alpha 90.104500
_cell_angle_beta 89.954400
_cell_angle_gamma 89.764100
loop_
  _atom_site_label
  _atom_site_type_symbol
  _atom_site_fract_x
  _atom_site_fract_y
  _atom_site_fract_z
C1 C 1.25187 0.24949 0.24957
 C2 C 0.75016 -0.24866 0.24784
 C3 C 0.74928 0.24993 -0.25079
 C4 C 1.25098 -0.25147 -0.25121
 C5 C 0.25070 0.25105 0.75038
 C6 C 0.74947 0.74912 0.75227
 C7 C 0.74857 0.24949 0.25092
 C8 C 0.24950 0.75112 0.25134
 N9 N 0.96173 0.04231 -0.07257
 N10 N 0.93705 0.05109 -0.10123
 N11 N 1.04254 0.06768 -0.04397
 N12 N 1.06786 0.09465 -0.05254
 N13 N 1.04243 0.04100 -0.07186
 N14 N 1.06737 0.04940 -0.10038
 N15 N 0.96142 0.06882 -0.04449
 N16 N 0.93630 0.09617 -0.05319
 C17 C 0.92103 0.08447 -0.08841
 C18 C 1.08342 0.08260 -0.08753
 N19 N 1.04210 0.04181 0.07005
 N20 N 1.06693 0.05058 0.09857
 N21 N 0.96133 0.06961 0.04213
 N22 N 0.93697 0.09764 0.05094
 N23 N 0.96098 0.04313 0.07015
 N24 N 0.93604 0.05231 0.09852
 N25 N 1.04197 0.06844 0.04219
 N26 N 1.06649 0.09603 0.05111
 Mn27 Mn 1.00176 0.06890 -0.00107
 C28 C 1.08225 0.08422 0.08598
 C29 C 0.92100 0.08615 0.08584
 N30 N 1.04146 -0.04224 -0.07120
 N31 N 1.06651 -0.05160 -0.09939
 N32 N 0.95937 -0.06677 -0.04378
 N33 N 0.93393 -0.09362 -0.05248
 N34 N 0.96067 -0.04083 -0.07229
 N35 N 0.93642 -0.04961 -0.10132
 N36 N 1.04025 -0.06901 -0.04351
 N37 N 1.06426 -0.09733 -0.05227
 Mn38 Mn 1.00163 0.00005 -0.07228
 C39 C 1.08081 -0.08578 -0.08685
 C40 C 0.91954 -0.08225 -0.08818
 N41 N 0.96001 -0.03995 0.07075
 N42 N 0.93510 -0.04808 0.09937
 N43 N 1.03991 -0.06867 0.04305
 N44 N 1.06344 -0.09717 0.05253
 N45 N 1.04092 -0.04158 0.07052
 N46 N 1.06536 -0.05092 0.09925
 N47 N 0.95904 -0.06628 0.04253
 N48 N 0.93326 -0.09282 0.05104
 Mn49 Mn 1.00107 0.00087 0.07070
 Mn50 Mn 0.99959 -0.06794 -0.00043
 Cl51 Cl 1.00103 0.00046 -0.00074
 C52 C 0.91826 -0.08082 0.08629
 C53 C 1.07955 -0.08543 0.08731
 N54 N 1.03974 0.43132 0.54148
 N55 N 1.06398 0.40327 0.55034
 N56 N 0.95907 0.45823 0.56976
 N57 N 0.93447 0.44911 0.59842
 N58 N 0.95909 0.43183 0.54158
 N59 N 0.93486 0.40398 0.55048
 N60 N 1.04022 0.45802 0.56935
 N61 N 1.06507 0.44891 0.59777
 C62 C 1.07999 0.41494 0.58517
 C63 C 0.91926 0.41543 0.58564
 N64 N 0.95846 0.56783 0.54240
 N65 N 0.93313 0.59497 0.55128
 N66 N 1.04005 0.54131 0.56998
 N67 N 1.06506 0.54999 0.59837
 N68 N 1.03935 0.56829 0.54250
 N69 N 1.06369 0.59601 0.55152
 N70 N 0.95917 0.54141 0.57047
 N71 N 0.93457 0.55008 0.59930
 Mn72 Mn 0.99968 0.49974 0.57023
 C73 C 0.91815 0.58323 0.58658
 C74 C 1.07990 0.58395 0.58607
 N75 N 0.95899 0.43265 0.45517
 N76 N 0.93354 0.40577 0.44665
 N77 N 1.04055 0.45887 0.42768
 N78 N 1.06556 0.44993 0.39926
 N79 N 1.03983 0.43193 0.45520
 N80 N 1.06415 0.40398 0.44618
 N81 N 0.95963 0.45896 0.42699
 N82 N 0.93479 0.45044 0.39840
 Mn83 Mn 0.99937 0.43172 0.49832
 C84 C 0.91837 0.41749 0.41143
 C85 C 1.08037 0.41586 0.41159
 N86 N 1.03965 0.56899 0.45612
 N87 N 1.06348 0.59720 0.44716
 N88 N 0.95925 0.54215 0.42774
 N89 N 0.93477 0.55133 0.39901
 N90 N 0.95900 0.56857 0.45593
 N91 N 0.93470 0.59649 0.44694
 N92 N 1.04038 0.54235 0.42816
 N93 N 1.06498 0.55175 0.39959
 Mn94 Mn 0.99906 0.56864 0.49927
 Mn95 Mn 1.00002 0.50058 0.42729
 Cl96 Cl 0.99955 0.50018 0.49877
 C97 C 1.07953 0.58579 0.41219
 C98 C 0.91936 0.58504 0.41174
 N99 N 0.56777 0.03900 0.54370
 N100 N 0.59491 0.06427 0.55191
 N101 N 0.54101 -0.04182 0.57166
 N102 N 0.55007 -0.06621 0.60045
 N103 N 0.56776 -0.04175 0.54384
 N104 N 0.59572 -0.06596 0.55302
 N105 N 0.54142 0.03887 0.57195
 N106 N 0.55023 0.06378 0.60037
 C107 C 0.58334 0.07978 0.58708
 C108 C 0.58399 -0.08140 0.58803
 N109 N 0.43146 -0.04119 0.54335
 N110 N 0.40466 -0.06692 0.55116
 N111 N 0.45804 0.03936 0.57176
 N112 N 0.44951 0.06456 0.60005
 N113 N 0.43165 0.03974 0.54360
 N114 N 0.40473 0.06550 0.55175
 N115 N 0.45787 -0.04119 0.57148
 N116 N 0.44957 -0.06669 0.59936
 Mn117 Mn 0.49956 -0.00119 0.57207
 C118 C 0.41661 -0.08284 0.58593
 C119 C 0.41652 0.08100 0.58679
 N120 N 0.56757 -0.04205 0.45766
 N121 N 0.59464 -0.06760 0.44936
 N122 N 0.54145 0.03920 0.42972
 N123 N 0.55032 0.06426 0.40154
 N124 N 0.56810 0.03865 0.45760
 N125 N 0.59581 0.06314 0.44909
 N126 N 0.54131 -0.04148 0.42938
 N127 N 0.55003 -0.06638 0.40089
 Mn128 Mn 0.56806 -0.00155 0.50069
 C129 C 0.58301 -0.08282 0.41415
 C130 C 0.58405 0.07926 0.41440
 N131 N 0.43173 0.03983 0.45751
 N132 N 0.40493 0.06571 0.44948
 N133 N 0.45794 -0.04106 0.42903
 N134 N 0.44920 -0.06595 0.40056
 N135 N 0.43149 -0.04114 0.45717
 N136 N 0.40430 -0.06634 0.44879
 N137 N 0.45829 0.03957 0.42950
 N138 N 0.45011 0.06502 0.40149
 Mn139 Mn 0.43125 -0.00069 0.50042
 Mn140 Mn 0.49975 -0.00094 0.42905
 Cl141 Cl 0.49965 -0.00110 0.50055
 C142 C 0.41706 0.08143 0.41471
 C143 C 0.41598 -0.08189 0.41365
 N144 N 0.56816 0.53982 0.04384
 N145 N 0.59600 0.56442 0.05156
 N146 N 0.54020 0.46071 0.07369
 N147 N 0.54850 0.43595 0.10240
 N148 N 0.56633 0.45916 0.04529
 N149 N 0.59279 0.43307 0.05362
 N150 N 0.54154 0.54137 0.07175
 N151 N 0.55049 0.56723 0.09914
 C152 C 0.58429 0.58162 0.08579
 C153 C 0.58106 0.41857 0.08906
 N154 N 0.43033 0.46275 0.04582
 N155 N 0.40365 0.43693 0.05368
 N156 N 0.45838 0.54333 0.07241
 N157 N 0.44990 0.56858 0.10070
 N158 N 0.43194 0.54369 0.04432
 N159 N 0.40500 0.56942 0.05258
 N160 N 0.45689 0.46276 0.07380
 N161 N 0.44881 0.43718 0.10167
 Mn162 Mn 0.49926 0.50205 0.07330
 C163 C 0.41578 0.42104 0.08840
 C164 C 0.41687 0.58504 0.08755
 N165 N 0.56653 0.45752 -0.04068
 N166 N 0.59416 0.43276 -0.04943
 N167 N 0.54153 0.53791 -0.07040
 N168 N 0.55094 0.56168 -0.09958
 N169 N 0.56797 0.53809 -0.04231
 N170 N 0.59595 0.56206 -0.05149
 N171 N 0.53977 0.45724 -0.06845
 N172 N 0.54850 0.43210 -0.09677
 Mn173 Mn 0.56750 0.49866 0.00157
 C174 C 0.58221 0.41670 -0.08409
 C175 C 0.58467 0.57688 -0.08699
 N176 N 0.43203 0.54181 -0.04184
 N177 N 0.40571 0.56798 -0.05040
 N178 N 0.45673 0.45946 -0.06803
 N179 N 0.44776 0.43387 -0.09566
 N180 N 0.42986 0.46117 -0.04037
 N181 N 0.40179 0.43694 -0.04861
 N182 N 0.45831 0.54010 -0.07011
 N183 N 0.45035 0.56489 -0.09885
 Mn184 Mn 0.43071 0.50238 0.00200
 Mn185 Mn 0.49906 0.49866 -0.06960
 Cl186 Cl 0.49912 0.50045 0.00181
 C187 C 0.41779 0.58240 -0.08578
 C188 C 0.41368 0.41977 -0.08283
 C189 C 1.18001 0.17759 0.17937
 N190 N 1.18008 0.21627 0.17391
 N191 N 1.20253 0.23877 0.19613
 C192 C 1.22624 0.22347 0.22435
 N193 N 1.22572 0.18471 0.23000
 N194 N 1.20304 0.16224 0.20801
 C195 C 1.15531 0.15287 0.15473
 N196 N 1.14923 0.11555 0.16484
 N197 N 1.12623 0.09341 0.14276
 C198 C 1.10886 0.10774 0.10957
 N199 N 1.11520 0.14493 0.09931
 N200 N 1.13792 0.16712 0.12154
 C201 C 1.17846 0.67689 0.67905
 N202 N 1.17850 0.71558 0.67374
 N203 N 1.20117 0.73799 0.69582
 C204 C 1.22513 0.72258 0.72374
 N205 N 1.22466 0.68380 0.72924
 N206 N 1.20176 0.66142 0.70739
 C207 C 1.15352 0.65228 0.65455
 N208 N 1.14766 0.61486 0.66441
 N209 N 1.12446 0.59284 0.64244
 C210 C 1.10665 0.60738 0.60960
 N211 N 1.11275 0.64467 0.59959
 N212 N 1.13568 0.66675 0.62171
 C213 C 0.67738 0.17886 0.67812
 N214 N 0.67658 0.17682 0.71864
 N215 N 0.69963 0.19885 0.74065
 C216 C 0.72423 0.22409 0.72309
 N217 N 0.72493 0.22605 0.68243
 N218 N 0.70213 0.20371 0.66039
 C219 C 0.65207 0.15427 0.65402
 N220 N 0.65884 0.14892 0.61438
 N221 N 0.63657 0.12556 0.59290
 C222 C 0.60646 0.10712 0.61018
 N223 N 0.59942 0.11279 0.64971
 N224 N 0.62191 0.13585 0.67127
 C225 C 0.67799 0.68088 0.17623
 N226 N 0.66307 0.70144 0.20708
 N227 N 0.68561 0.72374 0.22933
 C228 C 0.72400 0.72646 0.22165
 N229 N 0.73891 0.70518 0.19110
 N230 N 0.71632 0.68302 0.16868
 C231 C 0.65318 0.65617 0.15195
 N232 N 0.66698 0.63907 0.11832
 N233 N 0.64465 0.61589 0.09676
 C234 C 0.60783 0.60893 0.10818
 N235 N 0.59395 0.62611 0.14172
 N236 N 0.61621 0.64947 0.16316
 C237 C 0.81887 -0.17353 0.17808
 N238 N 0.79679 -0.20062 0.16014
 N239 N 0.77514 -0.22419 0.18190
 C240 C 0.77496 -0.22200 0.22253
 N241 N 0.79712 -0.19473 0.24039
 N242 N 0.81860 -0.17094 0.21861
 C243 C 0.84338 -0.14825 0.15396
 N244 N 0.86124 -0.11751 0.17073
 N245 N 0.88442 -0.09537 0.14893
 C246 C 0.89070 -0.10334 0.10966
 N247 N 0.87275 -0.13397 0.09289
 N248 N 0.84936 -0.15591 0.11459
 C249 C 0.82120 0.32154 0.67843
 N250 N 0.79738 0.33707 0.70634
 N251 N 0.77474 0.31468 0.72842
 C252 C 0.77512 0.27577 0.72380
 N253 N 0.79934 0.26032 0.69600
 N254 N 0.82175 0.28274 0.67365
 C255 C 0.84609 0.34629 0.65393
 N256 N 0.86404 0.33202 0.62096
 N257 N 0.88682 0.35431 0.59893
 C258 C 0.89273 0.39164 0.60916
 N259 N 0.87484 0.40596 0.64214
 N260 N 0.85176 0.38373 0.66400
 C261 C 0.32463 -0.18330 0.67687
 N262 N 0.29688 -0.20508 0.65956
 N263 N 0.27373 -0.22672 0.68189
 C264 C 0.27713 -0.22710 0.72244
 N265 N 0.30497 -0.20517 0.73960
 N266 N 0.32830 -0.18379 0.71727
 C267 C 0.34962 -0.15877 0.65255
 N268 N 0.38093 -0.14172 0.66906
 N269 N 0.40286 -0.11822 0.64748
 C270 C 0.39410 -0.11076 0.60870
 N271 N 0.36289 -0.12791 0.59210
 N272 N 0.34113 -0.15166 0.61360
 C273 C 0.32547 0.31828 0.17829
 N274 N 0.29787 0.29648 0.16076
 N275 N 0.27484 0.27452 0.18288
 C276 C 0.27824 0.27381 0.22342
 N277 N 0.30598 0.29571 0.24079
 N278 N 0.32919 0.31742 0.21867
 C279 C 0.35010 0.34339 0.15423
 N280 N 0.38120 0.36069 0.17089
 N281 N 0.40270 0.38480 0.14958
 C282 C 0.39368 0.39264 0.11094
 N283 N 0.36269 0.37524 0.09420
 N284 N 0.34136 0.35090 0.11542
 C285 C 0.82047 0.17673 -0.18062
 N286 N 0.79826 0.20405 -0.16288
 N287 N 0.77580 0.22695 -0.18475
 C288 C 0.77486 0.22385 -0.22532
 N289 N 0.79718 0.19636 -0.24297
 N290 N 0.81945 0.17323 -0.22108
 C291 C 0.84568 0.15194 -0.15639
 N292 N 0.86325 0.12068 -0.17277
 N293 N 0.88670 0.09873 -0.15088
 C294 C 0.89361 0.10739 -0.11191
 N295 N 0.87604 0.13860 -0.09552
 N296 N 0.85236 0.16036 -0.11731
 C297 C 0.82267 0.67946 0.31787
 N298 N 0.79893 0.66403 0.28999
 N299 N 0.77626 0.68653 0.26794
 C300 C 0.77657 0.72543 0.27258
 N301 N 0.80079 0.74078 0.30027
 N302 N 0.82323 0.71824 0.32259
 C303 C 0.84724 0.65460 0.34258
 N304 N 0.86480 0.66881 0.37569
 N305 N 0.88724 0.64635 0.39806
 C306 C 0.89312 0.60894 0.38801
 N307 N 0.87561 0.59468 0.35489
 N308 N 0.85287 0.61708 0.33270
 C309 C 0.32529 0.18157 0.32247
 N310 N 0.29724 0.20348 0.33942
 N311 N 0.27416 0.22503 0.31678
 C312 C 0.27793 0.22519 0.27626
 N313 N 0.30606 0.20313 0.25945
 N314 N 0.32933 0.18183 0.28210
 C315 C 0.35022 0.15714 0.34714
 N316 N 0.38177 0.13994 0.33098
 N317 N 0.40364 0.11652 0.35287
 C318 C 0.39460 0.10931 0.39164
 N319 N 0.36315 0.12663 0.40789
 N320 N 0.34143 0.15029 0.38607
 C321 C 0.32549 0.68124 -0.17890
 N322 N 0.29787 0.70352 -0.16172
 N323 N 0.27439 0.72477 -0.18421
 C324 C 0.27731 0.72425 -0.22480
 N325 N 0.30504 0.70184 -0.24184
 N326 N 0.32870 0.68081 -0.21935
 C327 C 0.35073 0.65715 -0.15422
 N328 N 0.38167 0.63902 -0.17061
 N329 N 0.40373 0.61592 -0.14851
 C330 C 0.39547 0.61002 -0.10931
 N331 N 0.36467 0.62828 -0.09286
 N332 N 0.34279 0.65159 -0.11488
 C333 C 1.17851 -0.17979 -0.18066
 N334 N 1.17845 -0.21853 -0.17575
 N335 N 1.20102 -0.24096 -0.19817
 C336 C 1.22493 -0.22553 -0.22606
 N337 N 1.22452 -0.18670 -0.23117
 N338 N 1.20174 -0.16431 -0.20897
 C339 C 1.15378 -0.15506 -0.15580
 N340 N 1.14833 -0.11746 -0.16529
 N341 N 1.12538 -0.09521 -0.14307
 C342 C 1.10741 -0.10967 -0.11034
 N343 N 1.11308 -0.14716 -0.10067
 N344 N 1.13578 -0.16948 -0.12305
 C345 C 1.17864 0.32169 0.31866
 N346 N 1.17869 0.28300 0.32406
 N347 N 1.20153 0.26039 0.30215
 C348 C 1.22564 0.27559 0.27432
 N349 N 1.22512 0.31436 0.26871
 N350 N 1.20206 0.33694 0.29039
 C351 C 1.15368 0.34656 0.34309
 N352 N 1.14795 0.38403 0.33316
 N353 N 1.12484 0.40637 0.35514
 C354 C 1.10700 0.39209 0.38805
 N355 N 1.11297 0.35474 0.39811
 N356 N 1.13580 0.33235 0.37598
 C357 C 0.67768 -0.17971 0.32093
 N358 N 0.67665 -0.17676 0.28049
 N359 N 0.69994 -0.19810 0.25782
 C360 C 0.72500 -0.22349 0.27466
 N361 N 0.72594 -0.22636 0.31524
 N362 N 0.70289 -0.20470 0.33794
 C363 C 0.65214 -0.15591 0.34567
 N364 N 0.65906 -0.15125 0.38535
 N365 N 0.63659 -0.12840 0.40741
 C366 C 0.60617 -0.10985 0.39064
 N367 N 0.59898 -0.11488 0.35109
 N368 N 0.62165 -0.13742 0.32896
 C369 C 0.67656 0.32018 -0.17850
 N370 N 0.71503 0.31847 -0.17157
 N371 N 0.73778 0.29654 -0.19430
 C372 C 0.72293 0.27498 -0.22456
 N373 N 0.68440 0.27734 -0.23171
 N374 N 0.66168 0.29945 -0.20917
 C375 C 0.65154 0.34432 -0.15343
 N376 N 0.61439 0.35117 -0.16405
 N377 N 0.59198 0.37383 -0.14168
 C378 C 0.60587 0.39010 -0.10771
 N379 N 0.64289 0.38297 -0.09692
 N380 N 0.66535 0.36055 -0.11941
 C381 C 1.18194 0.17600 -0.17972
 N382 N 1.20352 0.20354 -0.16188
 N383 N 1.22516 0.22708 -0.18369
 C384 C 1.22583 0.22442 -0.22430
 N385 N 1.20414 0.19670 -0.24206
 N386 N 1.18269 0.17293 -0.22021
 C387 C 1.15755 0.15065 -0.15550
 N388 N 1.14038 0.11938 -0.17200
 N389 N 1.11743 0.09710 -0.15009
 C390 C 1.11069 0.10543 -0.11099
 N391 N 1.12792 0.13661 -0.09449
 N392 N 1.15108 0.15870 -0.11629
 C393 C 1.17757 0.68025 0.31957
 N394 N 1.20106 0.66488 0.29126
 N395 N 1.22411 0.68728 0.26964
 C396 C 1.22478 0.72616 0.27527
 N397 N 1.20041 0.74142 0.30317
 N398 N 1.17758 0.71896 0.32502
 C399 C 1.15250 0.65540 0.34391
 N400 N 1.13447 0.66955 0.37690
 N401 N 1.11172 0.64715 0.39890
 C402 C 1.10594 0.60981 0.38863
 N403 N 1.12390 0.59562 0.35561
 N404 N 1.14692 0.61795 0.33378
 C405 C 0.67730 0.17786 0.32237
 N406 N 0.66213 0.19834 0.29167
 N407 N 0.68440 0.22096 0.26951
 C408 C 0.72278 0.22414 0.27709
 N409 N 0.73797 0.20291 0.30743
 N410 N 0.71564 0.18044 0.32979
 C411 C 0.65268 0.15302 0.34680
 N412 N 0.66654 0.13651 0.38065
 N413 N 0.64434 0.11354 0.40253
 C414 C 0.60755 0.10614 0.39129
 N415 N 0.59362 0.12267 0.35748
 N416 N 0.61576 0.14585 0.33572
 C417 C 0.67966 0.67310 -0.17973
 N418 N 0.71110 0.68958 -0.16301
 N419 N 0.73311 0.71328 -0.18418
 C420 C 0.72446 0.72190 -0.22280
 N421 N 0.69380 0.70396 -0.23991
 N422 N 0.67163 0.68034 -0.21872
 C423 C 0.65467 0.64824 -0.15576
 N424 N 0.62125 0.63435 -0.17101
 N425 N 0.59854 0.61200 -0.14892
 C426 C 0.60849 0.60283 -0.11083
 N427 N 0.64186 0.61674 -0.09559
 N428 N 0.66447 0.63916 -0.11761
 C429 C 0.82066 -0.17612 -0.17969
 N430 N 0.79425 -0.19855 -0.16125
 N431 N 0.77196 -0.22205 -0.18241
 C432 C 0.77552 -0.22478 -0.22282
 N433 N 0.80193 -0.20199 -0.24124
 N434 N 0.82402 -0.17812 -0.22012
 C435 C 0.84553 -0.15076 -0.15596
 N436 N 0.86571 -0.12197 -0.17353
 N437 N 0.88867 -0.09950 -0.15178
 C438 C 0.89248 -0.10524 -0.11178
 N439 N 0.87233 -0.13400 -0.09426
 N440 N 0.84908 -0.15618 -0.11591
 C441 C 0.81824 0.32428 0.32043
 N442 N 0.79663 0.29687 0.33843
 N443 N 0.77466 0.27340 0.31680
 C444 C 0.77365 0.27604 0.27620
 N445 N 0.79535 0.30363 0.25830
 N446 N 0.81713 0.32730 0.27995
 C447 C 0.84307 0.34958 0.34436
 N448 N 0.86051 0.38051 0.32755
 N449 N 0.88387 0.40273 0.34913
 C450 C 0.89077 0.39468 0.38822
 N451 N 0.87327 0.36383 0.40504
 N452 N 0.84971 0.34181 0.38356
 C453 C 0.32248 -0.18132 0.32197
 N454 N 0.29543 -0.20381 0.33946
 N455 N 0.27216 -0.22553 0.31727
 C456 C 0.27457 -0.22540 0.27654
 N457 N 0.30186 -0.20270 0.25929
 N458 N 0.32532 -0.18125 0.28149
 C459 C 0.34777 -0.15678 0.34630
 N460 N 0.37882 -0.13937 0.32961
 N461 N 0.40108 -0.11618 0.35130
 C462 C 0.39296 -0.10935 0.39042
 N463 N 0.36199 -0.12681 0.40716
 N464 N 0.33991 -0.15026 0.38556
 C465 C 0.32124 0.32187 -0.17649
 N466 N 0.28268 0.32011 -0.17025
 N467 N 0.26061 0.29799 -0.19328
 C468 C 0.27627 0.27636 -0.22317
 N469 N 0.31490 0.27872 -0.22959
 N470 N 0.33692 0.30100 -0.20674
 C471 C 0.34558 0.34634 -0.15136
 N472 N 0.38294 0.35256 -0.16132
 N473 N 0.40486 0.37555 -0.13909
 C474 C 0.39026 0.39283 -0.10592
 N475 N 0.35301 0.38635 -0.09572
 N476 N 0.33102 0.36354 -0.11809
 C477 C 1.17685 -0.17899 0.18234
 N478 N 1.17701 -0.21778 0.17765
 N479 N 1.19994 -0.23993 0.19990
 C480 C 1.22424 -0.22426 0.22746
 N481 N 1.22337 -0.18531 0.23240
 N482 N 1.20021 -0.16321 0.21038
 C483 C 1.15189 -0.15447 0.15739
 N484 N 1.14645 -0.11674 0.16658
 N485 N 1.12363 -0.09463 0.14413
 C486 C 1.10575 -0.10933 0.11141
 N487 N 1.11138 -0.14696 0.10207
 N488 N 1.13395 -0.16914 0.12468
 C489 C 1.17808 0.32175 0.67904
 N490 N 1.17767 0.28290 0.67489
 N491 N 1.20020 0.26075 0.69756
 C492 C 1.22434 0.27654 0.72506
 N493 N 1.22454 0.31551 0.72906
 N494 N 1.20179 0.33763 0.70667
 C495 C 1.15320 0.34623 0.65416
 N496 N 1.14767 0.38388 0.66355
 N497 N 1.12461 0.40595 0.64138
 C498 C 1.10661 0.39125 0.60875
 N499 N 1.11238 0.35370 0.59917
 N500 N 1.13517 0.33156 0.62154
 C501 C 0.67831 -0.17689 0.68305
 N502 N 0.71622 -0.18120 0.67419
 N503 N 0.73856 -0.20413 0.69614
 C504 C 0.72379 -0.22421 0.72746
 N505 N 0.68600 -0.21885 0.73688
 N506 N 0.66369 -0.19577 0.71508
 C507 C 0.65349 -0.15250 0.65818
 N508 N 0.61667 -0.14467 0.66937
 N509 N 0.59425 -0.12235 0.64679
 C510 C 0.60779 -0.10739 0.61206
 N511 N 0.64450 -0.11541 0.60075
 N512 N 0.66697 -0.13755 0.62342
 C513 C 0.67496 0.31931 0.18018
 N514 N 0.69992 0.29449 0.16236
 N515 N 0.72327 0.27253 0.18430
 C516 C 0.72290 0.27489 0.22494
 N517 N 0.69802 0.30004 0.24260
 N518 N 0.67445 0.32172 0.22069
 C519 C 0.64938 0.34370 0.15613
 N520 N 0.61960 0.36291 0.17351
 N521 N 0.59709 0.38603 0.15192
 C522 C 0.60376 0.39093 0.11225
 N523 N 0.63344 0.37164 0.09484
 N524 N 0.65572 0.34825 0.11635
 C525 C 0.82148 0.17894 0.17925
 N526 N 0.79809 0.16303 0.20716
 N527 N 0.77518 0.18509 0.22959
 C528 C 0.77487 0.22401 0.22532
 N529 N 0.79866 0.23983 0.19753
 N530 N 0.82136 0.21775 0.17484
 C531 C 0.84669 0.15454 0.15445
 N532 N 0.86465 0.16918 0.12177
 N533 N 0.88780 0.14715 0.09954
 C534 C 0.89403 0.10975 0.10930
 N535 N 0.87610 0.09508 0.14197
 N536 N 0.85269 0.11703 0.16401
 C537 C 0.81927 0.67600 0.68046
 N538 N 0.82088 0.67433 0.72101
 N539 N 0.79908 0.69758 0.74336
 C540 C 0.77463 0.72332 0.72610
 N541 N 0.77290 0.72460 0.68546
 N542 N 0.79494 0.70162 0.66310
 C543 C 0.84391 0.65101 0.65575
 N544 N 0.84904 0.65855 0.61624
 N545 N 0.87233 0.63664 0.59405
 C546 C 0.89099 0.60614 0.61046
 N547 N 0.88558 0.59835 0.64986
 N548 N 0.86256 0.62047 0.67214
 C549 C 0.32344 0.18095 0.67856
 N550 N 0.32461 0.17887 0.71906
 N551 N 0.30142 0.20071 0.74134
 C552 C 0.27632 0.22579 0.72405
 N553 N 0.27530 0.22785 0.68341
 N554 N 0.29825 0.20570 0.66110
 C555 C 0.34861 0.15633 0.65419
 N556 N 0.34142 0.15092 0.61465
 N557 N 0.36345 0.12732 0.59296
 C558 C 0.39371 0.10868 0.60995
 N559 N 0.40118 0.11443 0.64935
 N560 N 0.37894 0.13773 0.67112
 C561 C 0.32328 0.68439 0.18007
 N562 N 0.32625 0.68413 0.22053
 N563 N 0.30255 0.70534 0.24296
 C564 C 0.27489 0.72795 0.22595
 N565 N 0.27239 0.72829 0.18523
 N566 N 0.29589 0.70682 0.16282
 C567 C 0.34870 0.66004 0.15547
 N568 N 0.34072 0.65371 0.11623
 N569 N 0.36283 0.63029 0.09439
 C570 C 0.39395 0.61267 0.11088
 N571 N 0.40220 0.61933 0.14998
 N572 N 0.37991 0.64250 0.17190
   
