data_POSCAR
  _audit_creation_date              2014-09-24
  _audit_creation_method            'ToBaCCo'
  _symmetry_space_group_name_H-M    'P1'
  _symmetry_Int_Tables_number       1
  _symmetry_cell_setting            triclinic
  loop_
  _symmetry_equiv_pos_as_xyz
 x,y,z
_cell_length_a 39.5909
_cell_length_b 39.8520
_cell_length_c 23.7717
_cell_angle_alpha 89.926000
_cell_angle_beta 90.073900
_cell_angle_gamma 119.808800
loop_
  _atom_site_label
  _atom_site_type_symbol
  _atom_site_fract_x
  _atom_site_fract_y
  _atom_site_fract_z
C1 C 0.44821 0.89639 0.49952
 C2 C 0.46305 0.91643 0.54988
 C3 C 0.48438 0.95694 0.54985
 C4 C 0.48933 0.97818 0.49981
 C5 C 0.47305 0.95718 0.44966
 C6 C 0.45365 0.91670 0.44937
 C7 C 0.51120 1.02171 0.49994
 C8 C 0.52758 1.04291 0.44993
 C9 C 0.54695 1.08343 0.44990
 C10 C 0.55224 1.10350 0.50024
 C11 C 0.53729 1.08321 0.55036
 C12 C 0.51602 1.04274 0.55007
 H13 H 0.43241 0.86500 0.49924
 H14 H 0.49707 0.97143 0.58911
 H15 H 0.47498 0.97175 0.41043
 H16 H 0.52570 1.02839 0.41070
 H17 H 0.56798 1.13489 0.50051
 H18 H 0.50332 1.02819 0.58928
 C19 C 0.10433 0.55449 0.49653
 C20 C 0.08442 0.53986 0.54711
 C21 C 0.04367 0.51771 0.54732
 C22 C 0.02200 0.51167 0.49723
 C23 C 0.04291 0.52790 0.44690
 C24 C 0.08364 0.54807 0.44642
 C25 C -0.02184 0.48868 0.49734
 C26 C -0.04292 0.47237 0.44713
 C27 C -0.08371 0.45220 0.44687
 C28 C -0.10417 0.44589 0.49717
 C29 C -0.08404 0.46061 0.54753
 C30 C -0.04332 0.48272 0.54752
 H31 H 0.13592 0.57084 0.49606
 H32 H 0.02940 0.50523 0.58680
 H33 H 0.02811 0.52530 0.40757
 H34 H -0.02816 0.47493 0.40780
 H35 H -0.13576 0.42957 0.49724
 H36 H -0.02901 0.49519 0.58695
 C37 C 0.44910 0.55411 0.50336
 C38 C 0.46328 0.54783 0.55374
 C39 C 0.48403 0.52781 0.55358
 C40 C 0.48893 0.51163 0.50339
 C41 C 0.47336 0.51754 0.45314
 C42 C 0.45461 0.53950 0.45304
 C43 C 0.50995 0.48882 0.50357
 C44 C 0.52559 0.48287 0.45351
 C45 C 0.54434 0.46091 0.45380
 C46 C 0.54975 0.44633 0.50431
 C47 C 0.53547 0.45263 0.55442
 C48 C 0.51477 0.47266 0.55393
 H49 H 0.43372 0.57031 0.50323
 H50 H 0.49624 0.52527 0.59296
 H51 H 0.47531 0.50518 0.41370
 H52 H 0.52372 0.49521 0.41395
 H53 H 0.56510 0.43012 0.50463
 H54 H 0.50257 0.47518 0.59325
 O55 O 0.39403 0.65980 -0.04402
 O56 O 0.39316 0.72362 -0.06303
 C57 C 0.37445 0.74037 -0.07727
 O58 O 0.34375 0.73516 -0.05268
 O59 O 0.28043 0.66989 -0.07147
 C60 C 0.26335 0.63403 -0.08164
 O61 O 0.26766 0.60992 -0.05201
 O62 O 0.33404 0.61198 -0.06427
 C63 C 0.37034 0.63091 -0.07325
 O64 O 0.38879 0.66981 0.06771
 O65 O 0.39092 0.73513 0.04871
 C66 C 0.36547 0.74039 0.07330
 O67 O 0.33000 0.72371 0.05910
 O68 O 0.26519 0.65996 0.04028
 C69 C 0.25994 0.63108 0.06962
 O70 O 0.27722 0.61208 0.06070
 O71 O 0.34146 0.60987 0.04845
 C72 C 0.36991 0.63396 0.07801
 Cr73 Cr 0.38958 0.69603 0.00220
 Cr74 Cr 0.30592 0.69611 -0.00605
 Cr75 Cr 0.30616 0.61308 -0.00179
 O76 O 0.33392 0.66847 -0.00188
 O77 O 0.60600 0.33994 -0.04065
 O78 O 0.60701 0.27620 -0.05942
 C79 C 0.62577 0.25951 -0.07355
 O80 O 0.65649 0.26475 -0.04887
 O81 O 0.71973 0.33008 -0.06773
 C82 C 0.73673 0.36593 -0.07801
 O83 O 0.73239 0.39002 -0.04850
 O84 O 0.66594 0.38783 -0.06093
 C85 C 0.62963 0.36886 -0.06990
 O86 O 0.61132 0.32997 0.07111
 O87 O 0.60932 0.26470 0.05237
 C88 C 0.63481 0.25949 0.07705
 O89 O 0.67028 0.27623 0.06291
 O90 O 0.73502 0.34005 0.04404
 C91 C 0.74025 0.36893 0.07325
 O92 O 0.72290 0.38787 0.06419
 O93 O 0.65858 0.38994 0.05174
 C94 C 0.63013 0.36584 0.08127
 Cr95 Cr 0.61056 0.30377 0.00572
 Cr96 Cr 0.69430 0.30384 -0.00227
 Cr97 Cr 0.69389 0.38679 0.00163
 O98 O 0.66622 0.33141 0.00169
 C99 C 0.42958 0.80273 -0.26747
 C100 C 0.40332 0.81248 -0.30428
 C101 C 0.43604 0.85490 -0.30619
 C102 C 0.46252 0.84552 -0.27013
 C103 C 0.41344 0.81209 -0.21470
 C104 C 0.44618 0.85451 -0.21649
 C105 C 0.38701 0.82150 -0.25082
 C106 C 0.41991 0.86428 -0.25344
 C107 C 0.44746 0.87804 -0.35782
 C108 C 0.45550 0.89638 -0.40092
 C109 C 0.40012 0.78748 -0.16455
 C110 C 0.38861 0.76642 -0.12418
 H111 H 0.43339 0.77712 -0.27270
 H112 H 0.38583 0.79543 -0.34093
 H113 H 0.49369 0.85565 -0.27867
 H114 H 0.46363 0.87151 -0.17979
 H115 H 0.35584 0.81138 -0.24235
 H116 H 0.41609 0.88988 -0.24824
 C117 C 0.14824 0.56265 -0.21942
 C118 C 0.13965 0.58844 -0.25902
 C119 C 0.14751 0.56958 -0.30990
 C120 C 0.15571 0.54357 -0.27115
 C121 C 0.19149 0.59383 -0.21938
 C122 C 0.19936 0.57497 -0.27026
 C123 C 0.18327 0.61980 -0.25817
 C124 C 0.19077 0.60075 -0.30976
 C125 C 0.12370 0.55717 -0.36102
 C126 C 0.10487 0.54831 -0.40382
 C127 C 0.21654 0.60789 -0.16956
 C128 C 0.23766 0.61977 -0.12913
 H129 H 0.13103 0.54716 -0.18167
 H130 H 0.11480 0.59381 -0.25496
 H131 H 0.14411 0.51208 -0.27707
 H132 H 0.22421 0.56961 -0.27434
 H133 H 0.19486 0.65128 -0.25232
 H134 H 0.20802 0.61627 -0.34746
 C135 C 0.44359 0.58845 -0.21134
 C136 C 0.41741 0.55411 -0.25051
 C137 C 0.43527 0.58079 -0.30168
 C138 C 0.46167 0.61495 -0.26341
 C139 C 0.41170 0.59971 -0.20982
 C140 C 0.42956 0.62638 -0.26101
 C141 C 0.38537 0.56557 -0.24816
 C142 C 0.40340 0.59207 -0.30003
 C143 C 0.44714 0.56974 -0.35357
 C144 C 0.45546 0.55990 -0.39687
 C145 C 0.39770 0.61033 -0.15965
 C146 C 0.38549 0.61942 -0.11951
 H147 H 0.45993 0.58705 -0.17427
 H148 H 0.41258 0.52426 -0.24678
 H149 H 0.49317 0.63513 -0.27029
 H150 H 0.43439 0.65622 -0.26477
 H151 H 0.35385 0.54537 -0.24136
 H152 H 0.38703 0.59348 -0.33704
 C153 C 0.61216 0.19607 -0.26390
 C154 C 0.59972 0.15263 -0.26664
 C155 C 0.56448 0.14539 -0.30268
 C156 C 0.57676 0.18850 -0.30065
 C157 C 0.58695 0.18798 -0.21106
 C158 C 0.55170 0.18076 -0.24707
 C159 C 0.57468 0.14487 -0.21302
 C160 C 0.53921 0.13724 -0.24989
 C161 C 0.55311 0.12238 -0.35438
 C162 C 0.54510 0.10416 -0.39753
 C163 C 0.60020 0.21249 -0.16085
 C164 C 0.61166 0.23350 -0.12046
 H165 H 0.64230 0.22050 -0.26913
 H166 H 0.61935 0.14081 -0.27526
 H167 H 0.57747 0.20619 -0.33721
 H168 H 0.53210 0.19261 -0.23843
 H169 H 0.57400 0.12722 -0.17642
 H170 H 0.50907 0.11279 -0.24475
 C171 C 0.81088 0.43783 -0.25551
 C172 C 0.85581 0.45631 -0.25632
 C173 C 0.85212 0.43045 -0.30650
 C174 C 0.80761 0.41219 -0.30646
 C175 C 0.80834 0.40617 -0.21586
 C176 C 0.80471 0.38036 -0.26609
 C177 C 0.85286 0.42441 -0.21582
 C178 C 0.84957 0.39878 -0.26684
 C179 C 0.87583 0.44289 -0.35768
 C180 C 0.89456 0.45179 -0.40051
 C181 C 0.78340 0.39210 -0.16599
 C182 C 0.76235 0.38021 -0.12553
 H183 H 0.79467 0.45372 -0.25029
 H184 H 0.87708 0.48768 -0.25290
 H185 H 0.78925 0.40733 -0.34428
 H186 H 0.78345 0.34899 -0.26959
 H187 H 0.87118 0.42925 -0.17798
 H188 H 0.86576 0.38288 -0.27205
 C189 C 0.56933 0.37323 -0.25707
 C190 C 0.53766 0.38526 -0.25920
 C191 C 0.56407 0.41906 -0.29806
 C192 C 0.59551 0.40718 -0.29668
 C193 C 0.58792 0.40011 -0.20632
 C194 C 0.61427 0.43388 -0.24525
 C195 C 0.55647 0.41198 -0.20757
 C196 C 0.58266 0.44595 -0.24733
 C197 C 0.55206 0.43009 -0.34992
 C198 C 0.54365 0.43988 -0.39325
 C199 C 0.60207 0.38947 -0.15623
 C200 C 0.61439 0.38037 -0.11614
 H201 H 0.56403 0.34321 -0.26052
 H202 H 0.50603 0.36540 -0.26555
 H203 H 0.61141 0.40528 -0.33386
 H204 H 0.64591 0.45377 -0.23898
 H205 H 0.54061 0.41385 -0.17032
 H206 H 0.58798 0.47597 -0.24391
 C207 C 0.85689 0.41533 0.21112
 C208 C 0.86171 0.44702 0.25338
 C209 C 0.85532 0.41908 0.30209
 C210 C 0.85089 0.38756 0.26072
 C211 C 0.81283 0.40012 0.21007
 C212 C 0.80644 0.37219 0.25879
 C213 C 0.81730 0.43162 0.25151
 C214 C 0.81126 0.40387 0.30092
 C215 C 0.87823 0.43017 0.35407
 C216 C 0.89639 0.44005 0.39743
 C217 C 0.78821 0.38949 0.15981
 C218 C 0.76690 0.38041 0.11960
 H219 H 0.87537 0.41995 0.17360
 H220 H 0.88472 0.47792 0.25175
 H221 H 0.86496 0.36957 0.26514
 H222 H 0.78342 0.34129 0.26045
 H223 H 0.80325 0.44964 0.24719
 H224 H 0.79272 0.39923 0.33839
 C225 C 0.59441 0.14603 0.21699
 C226 C 0.61873 0.15612 0.27190
 C227 C 0.58167 0.14493 0.30597
 C228 C 0.55716 0.13444 0.25195
 C229 C 0.60198 0.18774 0.21448
 C230 C 0.56494 0.17652 0.24861
 C231 C 0.62649 0.19821 0.26852
 C232 C 0.58927 0.18665 0.30335
 C233 C 0.56989 0.12180 0.35761
 C234 C 0.55952 0.10346 0.40070
 C235 C 0.61332 0.21235 0.16432
 C236 C 0.62290 0.23342 0.12395
 H237 H 0.59663 0.12960 0.18087
 H238 H 0.64072 0.14747 0.28207
 H239 H 0.52852 0.10794 0.24571
 H240 H 0.54294 0.18516 0.23851
 H241 H 0.65512 0.22471 0.27479
 H242 H 0.58706 0.20312 0.33941
 C243 C 0.62528 0.42588 0.26891
 C244 C 0.61228 0.45670 0.26922
 C245 C 0.57850 0.43062 0.30849
 C246 C 0.59134 0.40002 0.30894
 C247 C 0.59833 0.40619 0.21842
 C248 C 0.56457 0.38015 0.25775
 C249 C 0.58551 0.43679 0.21788
 C250 C 0.55155 0.41093 0.25801
 C251 C 0.56705 0.44313 0.35939
 C252 C 0.55707 0.45207 0.40202
 C253 C 0.60938 0.39204 0.16885
 C254 C 0.61866 0.38012 0.12860
 H255 H 0.65572 0.43184 0.27286
 H256 H 0.63177 0.48832 0.27451
 H257 H 0.59364 0.38506 0.34693
 H258 H 0.54506 0.34853 0.25252
 H259 H 0.58322 0.45173 0.17984
 H260 H 0.52111 0.40496 0.25409
 C261 C 0.18338 0.56896 0.24838
 C262 C 0.18939 0.59691 0.29740
 C263 C 0.14529 0.58148 0.29860
 C264 C 0.13894 0.55335 0.25027
 C265 C 0.18759 0.60019 0.20649
 C266 C 0.14348 0.58477 0.20756
 C267 C 0.19394 0.62831 0.25483
 C268 C 0.14945 0.61273 0.25678
 C269 C 0.12250 0.57055 0.35063
 C270 C 0.10445 0.56081 0.39405
 C271 C 0.21211 0.61069 0.15620
 C272 C 0.23334 0.61969 0.11597
 H273 H 0.19757 0.55106 0.24439
 H274 H 0.20804 0.60182 0.33488
 H275 H 0.11604 0.52240 0.24899
 H276 H 0.12489 0.57987 0.17003
 H277 H 0.21684 0.65926 0.25613
 H278 H 0.13524 0.63061 0.26086
 C279 C 0.43147 0.81770 0.25035
 C280 C 0.44562 0.86157 0.25214
 C281 C 0.41850 0.85454 0.30238
 C282 C 0.40454 0.81103 0.30130
 C283 C 0.39831 0.81194 0.21077
 C284 C 0.37119 0.80492 0.26103
 C285 C 0.41226 0.85546 0.21174
 C286 C 0.38532 0.84882 0.26286
 C287 C 0.43019 0.87755 0.35409
 C288 C 0.44045 0.89576 0.39725
 C289 C 0.38701 0.78743 0.16058
 C290 C 0.37743 0.76642 0.12019
 H291 H 0.45033 0.80466 0.24468
 H292 H 0.47636 0.88514 0.24906
 H293 H 0.40145 0.79299 0.33867
 H294 H 0.34046 0.78134 0.26413
 H295 H 0.41533 0.87345 0.17432
 H296 H 0.36647 0.86187 0.26861
 C297 C 0.37464 0.57536 0.26721
 C298 C 0.38641 0.54363 0.26845
 C299 C 0.42085 0.56956 0.30686
 C300 C 0.40924 0.60107 0.30638
 C301 C 0.40132 0.59378 0.21608
 C302 C 0.43574 0.61967 0.25455
 C303 C 0.41291 0.56227 0.21647
 C304 C 0.44753 0.58798 0.25575
 C305 C 0.43214 0.55716 0.35813
 C306 C 0.44200 0.54829 0.40102
 C307 C 0.39043 0.60782 0.16612
 C308 C 0.38126 0.61969 0.12560
 H309 H 0.34456 0.57036 0.27138
 H310 H 0.36626 0.51223 0.27474
 H311 H 0.40783 0.61687 0.34390
 H312 H 0.45591 0.65107 0.24832
 H313 H 0.41432 0.54649 0.17890
 H314 H 0.47762 0.59300 0.25160
   
