data_POSCAR
  _audit_creation_date              2014-09-24
  _audit_creation_method            'ToBaCCo'
  _symmetry_space_group_name_H-M    'P1'
  _symmetry_Int_Tables_number       1
  _symmetry_cell_setting            triclinic
  loop_
  _symmetry_equiv_pos_as_xyz
 x,y,z
_cell_length_a 19.8912
_cell_length_b 20.8290
_cell_length_c 19.8912
_cell_angle_alpha 90.000000
_cell_angle_beta 90.000000
_cell_angle_gamma 90.000000
loop_
  _atom_site_label
  _atom_site_type_symbol
  _atom_site_fract_x
  _atom_site_fract_y
  _atom_site_fract_z
C1 C 0.25000 0.24984 0.25000
 C2 C 0.75000 0.75000 0.25000
 C3 C 0.75000 0.25016 0.75000
 C4 C 0.25000 0.75000 0.75000
 C5 C 0.09441 0.09646 0.02403
 H6 H 0.09599 0.09926 -0.03026
 C7 C 0.13398 0.13777 0.06267
 H8 H 0.16646 0.17237 0.03819
 C9 C 0.04973 0.04842 0.12250
 H10 H 0.01614 0.01430 0.14572
 C11 C 0.08844 0.08885 0.16300
 H12 H 0.08511 0.08518 0.21723
 N13 N 0.05406 0.05231 0.05431
 C14 C 0.02661 -0.09923 -0.09495
 H15 H -0.02769 -0.10200 -0.09627
 C16 C 0.06502 -0.14035 -0.13500
 H17 H 0.04035 -0.17478 -0.16752
 C18 C 0.12534 -0.05141 -0.05061
 H19 H 0.14875 -0.01739 -0.01703
 C20 C 0.16561 -0.09165 -0.08980
 H21 H 0.21986 -0.08798 -0.08679
 Zn22 Zn 0.00143 -0.00142 -0.00165
 N23 N 0.05712 -0.05526 -0.05455
 C24 C -0.04813 0.04884 -0.12527
 N25 N -0.05127 0.05275 -0.05702
 C26 C -0.09100 0.09698 -0.02604
 C27 C -0.13124 0.13829 -0.06398
 C28 C -0.08754 0.08928 -0.16508
 C29 C -0.02418 -0.09933 0.09132
 C30 C -0.06280 -0.13996 0.13168
 C31 C -0.16313 -0.09055 0.08673
 C32 C -0.12266 -0.05081 0.04723
 N33 N -0.05447 -0.05519 0.05096
 H34 H -0.01507 0.01457 -0.14903
 H35 H -0.09170 0.09973 0.02827
 H36 H -0.16327 0.17289 -0.03893
 H37 H -0.08523 0.08556 -0.21935
 H38 H 0.03010 -0.10247 0.09250
 H39 H -0.03831 -0.17447 0.16425
 H40 H -0.21735 -0.08642 0.08394
 H41 H -0.14590 -0.01667 0.01366
 C42 C 0.13515 -0.13628 -0.13257
 C43 C 0.13111 0.13370 0.13277
 C44 C -0.13288 -0.13521 0.12959
 C45 C -0.12970 0.13413 -0.13410
 C46 C 0.09495 0.59924 0.52661
 H47 H 0.09627 0.60200 0.47231
 C48 C 0.13500 0.64035 0.56502
 H49 H 0.16752 0.67478 0.54035
 C50 C 0.05061 0.55141 0.62534
 H51 H 0.01703 0.51739 0.64875
 C52 C 0.08980 0.59165 0.66561
 H53 H 0.08679 0.58798 0.71986
 N54 N 0.05455 0.55527 0.55712
 C55 C 0.02604 0.40302 0.40900
 H56 H -0.02827 0.40027 0.40830
 C57 C 0.06398 0.36171 0.36876
 H58 H 0.03893 0.32711 0.33673
 C59 C 0.12527 0.45116 0.45187
 H60 H 0.14903 0.48544 0.48493
 C61 C 0.16508 0.41072 0.41246
 H62 H 0.21935 0.41445 0.41477
 Zn63 Zn 0.00165 0.50142 0.50143
 N64 N 0.05702 0.44725 0.44873
 C65 C -0.04723 0.55081 0.37734
 N66 N -0.05096 0.55519 0.44553
 C67 C -0.09132 0.59933 0.47582
 C68 C -0.13168 0.63996 0.43720
 C69 C -0.08673 0.59055 0.33687
 C70 C -0.02402 0.40354 0.59441
 C71 C -0.06267 0.36223 0.63398
 C72 C -0.16300 0.41115 0.58844
 C73 C -0.12250 0.45158 0.54973
 N74 N -0.05431 0.44770 0.55406
 H75 H -0.01366 0.51667 0.35410
 H76 H -0.09250 0.60247 0.53010
 H77 H -0.16425 0.67447 0.46169
 H78 H -0.08394 0.58642 0.28265
 H79 H 0.03026 0.40074 0.59599
 H80 H -0.03819 0.32763 0.66645
 H81 H -0.21723 0.41482 0.58511
 H82 H -0.14572 0.48570 0.51614
 C83 C 0.13410 0.36587 0.37030
 C84 C 0.13257 0.63628 0.63515
 C85 C -0.13277 0.36630 0.63111
 C86 C -0.12959 0.63522 0.36712
 C87 C 0.59100 0.09698 0.52604
 H88 H 0.59170 0.09973 0.47173
 C89 C 0.63124 0.13829 0.56398
 H90 H 0.66327 0.17289 0.53893
 C91 C 0.54813 0.04884 0.62527
 H92 H 0.51507 0.01457 0.64903
 C93 C 0.58754 0.08928 0.66508
 H94 H 0.58523 0.08556 0.71935
 N95 N 0.55127 0.05275 0.55702
 C96 C 0.52418 -0.09933 0.40868
 H97 H 0.46990 -0.10247 0.40750
 C98 C 0.56280 -0.13996 0.36832
 H99 H 0.53831 -0.17447 0.33575
 C100 C 0.62266 -0.05081 0.45277
 H101 H 0.64590 -0.01667 0.48634
 C102 C 0.66313 -0.09055 0.41327
 H103 H 0.71735 -0.08642 0.41606
 Zn104 Zn 0.49857 -0.00142 0.50165
 N105 N 0.55447 -0.05519 0.44904
 C106 C 0.45027 0.04842 0.37750
 N107 N 0.44594 0.05231 0.44569
 C108 C 0.40559 0.09646 0.47598
 C109 C 0.36602 0.13777 0.43733
 C110 C 0.41156 0.08885 0.33700
 C111 C 0.47339 -0.09923 0.59495
 C112 C 0.43498 -0.14035 0.63500
 C113 C 0.33439 -0.09165 0.58980
 C114 C 0.37466 -0.05141 0.55061
 N115 N 0.44288 -0.05526 0.55455
 H116 H 0.48386 0.01430 0.35428
 H117 H 0.40401 0.09926 0.53026
 H118 H 0.33355 0.17237 0.46181
 H119 H 0.41489 0.08518 0.28277
 H120 H 0.52769 -0.10200 0.59627
 H121 H 0.45965 -0.17478 0.66752
 H122 H 0.28014 -0.08798 0.58679
 H123 H 0.35125 -0.01739 0.51703
 C124 C 0.63288 -0.13521 0.37041
 C125 C 0.62970 0.13413 0.63410
 C126 C 0.36486 -0.13628 0.63257
 C127 C 0.36889 0.13370 0.36723
 C128 C 0.59132 0.59933 0.02418
 H129 H 0.59250 0.60247 -0.03010
 C130 C 0.63168 0.63996 0.06280
 H131 H 0.66425 0.67447 0.03831
 C132 C 0.54723 0.55081 0.12266
 H133 H 0.51366 0.51667 0.14590
 C134 C 0.58673 0.59055 0.16313
 H135 H 0.58394 0.58642 0.21735
 N136 N 0.55096 0.55519 0.05447
 C137 C 0.52403 0.40354 -0.09441
 H138 H 0.46974 0.40074 -0.09599
 C139 C 0.56267 0.36223 -0.13398
 H140 H 0.53819 0.32763 -0.16645
 C141 C 0.62250 0.45158 -0.04973
 H142 H 0.64572 0.48570 -0.01614
 C143 C 0.66300 0.41115 -0.08844
 H144 H 0.71723 0.41482 -0.08511
 Zn145 Zn 0.49835 0.50142 -0.00143
 N146 N 0.55431 0.44770 -0.05406
 C147 C 0.44939 0.55141 -0.12534
 N148 N 0.44545 0.55527 -0.05712
 C149 C 0.40505 0.59924 -0.02661
 C150 C 0.36500 0.64035 -0.06502
 C151 C 0.41020 0.59165 -0.16561
 C152 C 0.47396 0.40302 0.09100
 C153 C 0.43602 0.36171 0.13124
 C154 C 0.33492 0.41072 0.08754
 C155 C 0.37473 0.45116 0.04813
 N156 N 0.44298 0.44725 0.05128
 H157 H 0.48297 0.51739 -0.14875
 H158 H 0.40373 0.60200 0.02769
 H159 H 0.33248 0.67478 -0.04035
 H160 H 0.41321 0.58798 -0.21986
 H161 H 0.52827 0.40027 0.09170
 H162 H 0.46107 0.32711 0.16327
 H163 H 0.28065 0.41445 0.08523
 H164 H 0.35097 0.48544 0.01507
 C165 C 0.63277 0.36630 -0.13111
 C166 C 0.62959 0.63522 0.13288
 C167 C 0.36590 0.36587 0.12970
 C168 C 0.36743 0.63628 -0.13514
 C169 C 0.21016 -0.21140 -0.20928
 C170 C 0.17578 -0.17739 -0.17414
 C171 C 0.20818 0.29057 0.29308
 C172 C 0.17421 0.32464 0.32842
 C173 C 0.70809 -0.20939 0.29310
 C174 C 0.67369 -0.17574 0.32846
 C175 C 0.70805 0.29090 -0.20705
 C176 C 0.67363 0.32501 -0.17219
 C177 C -0.20692 0.20944 -0.20818
 C178 C -0.17158 0.17536 -0.17421
 C179 C -0.20690 0.70939 0.29191
 C180 C -0.17154 0.67574 0.32631
 C181 C 0.29295 0.20910 0.29195
 C182 C 0.32780 0.17499 0.32637
 C183 C 0.29072 0.71140 -0.21016
 C184 C 0.32586 0.67739 -0.17578
 C185 C -0.20809 -0.20939 0.20690
 C186 C -0.17369 -0.17574 0.17154
 C187 C -0.20805 0.29090 0.70705
 C188 C -0.17363 0.32501 0.67220
 C189 C 0.28984 -0.21140 0.70928
 C190 C 0.32422 -0.17739 0.67414
 C191 C 0.29182 0.29057 0.20692
 C192 C 0.32579 0.32464 0.17158
 C193 C 0.20705 0.20910 0.20805
 C194 C 0.17220 0.17499 0.17363
 C195 C 0.20928 0.71140 0.71016
 C196 C 0.17414 0.67739 0.67578
 C197 C 0.70692 0.20944 0.70818
 C198 C 0.67158 0.17536 0.67421
 C199 C 0.70690 0.70939 0.20809
 C200 C 0.67154 0.67574 0.17369
   
