data_POSCAR
  _audit_creation_date              2014-09-24
  _audit_creation_method            'ToBaCCo'
  _symmetry_space_group_name_H-M    'P1'
  _symmetry_Int_Tables_number       1
  _symmetry_cell_setting            triclinic
  loop_
  _symmetry_equiv_pos_as_xyz
 x,y,z
_cell_length_a 46.9686
_cell_length_b 46.9327
_cell_length_c 46.9337
_cell_angle_alpha 93.501600
_cell_angle_beta 93.328400
_cell_angle_gamma 93.768400
loop_
  _atom_site_label
  _atom_site_type_symbol
  _atom_site_fract_x
  _atom_site_fract_y
  _atom_site_fract_z
C1 C 0.27832 0.47504 1.00378
 C2 C 0.26531 0.50074 0.99997
 C3 C 0.28217 0.52565 0.99532
 C4 C 0.31191 0.52494 0.99479
 C5 C 0.32475 0.49915 0.99829
 C6 C 0.30798 0.47419 1.00262
 C7 C 0.23410 0.50159 1.00083
 C8 C 0.22079 0.49695 1.02632
 C9 C 0.19111 0.49809 1.02720
 C10 C 0.17465 0.50323 1.00240
 C11 C 0.18783 0.50755 0.97686
 C12 C 0.21755 0.50705 0.97615
 H13 H 0.26533 0.45573 1.00718
 H14 H 0.27213 0.54555 0.99259
 H15 H 0.23361 0.49292 1.04544
 H16 H 0.22777 0.51041 0.95638
 H17 H 0.34776 0.49847 0.99768
 H18 H 0.15163 0.50384 1.00292
 C19 C 0.71792 0.47577 0.00555
 C20 C 0.73473 0.50045 0.00007
 C21 C 0.72166 0.52593 -0.00466
 C22 C 0.69199 0.52681 -0.00361
 C23 C 0.67527 0.50206 0.00155
 C24 C 0.68819 0.47650 0.00598
 C25 C 0.76595 0.49959 -0.00065
 C26 C 0.77930 0.50341 -0.02628
 C27 C 0.80899 0.50228 -0.02700
 C28 C 0.82542 0.49796 -0.00194
 C29 C 0.81221 0.49445 0.02373
 C30 C 0.78248 0.49495 0.02430
 H31 H 0.72793 0.45600 0.00900
 H32 H 0.73461 0.54508 -0.00870
 H33 H 0.76649 0.50681 -0.04561
 H34 H 0.77224 0.49222 0.04418
 H35 H 0.65227 0.50267 0.00210
 H36 H 0.84845 0.49736 -0.00234
 C37 C 0.02560 0.22191 0.49665
 C38 C -0.00010 0.23498 0.50022
 C39 C -0.02511 0.21818 0.50455
 C40 C -0.02450 0.18842 0.50501
 C41 C 0.00124 0.17549 0.50172
 C42 C 0.02632 0.19221 0.49769
 C43 C -0.00083 0.26622 0.49947
 C44 C 0.00274 0.27940 0.47375
 C45 C 0.00172 0.30913 0.47300
 C46 C -0.00227 0.32573 0.49812
 C47 C -0.00553 0.31266 0.52388
 C48 C -0.00511 0.28290 0.52450
 H49 H 0.04499 0.23487 0.49348
 H50 H -0.04503 0.22822 0.50713
 H51 H 0.00587 0.26646 0.45438
 H52 H -0.00767 0.27277 0.54443
 H53 H 0.00176 0.15246 0.50228
 H54 H -0.00280 0.34878 0.49768
 C55 C 1.02503 0.78230 0.49427
 C56 C 1.00037 0.76541 0.49964
 C57 C 0.97477 0.77839 0.50405
 C58 C 0.97374 0.80804 0.50279
 C59 C 0.99847 0.82486 0.49775
 C60 C 1.02418 0.81204 0.49365
 C61 C 1.00137 0.73420 0.50061
 C62 C 0.99699 0.72104 0.52621
 C63 C 0.99825 0.69136 0.52719
 C64 C 1.00326 0.67474 0.50237
 C65 C 1.00732 0.68776 0.47671
 C66 C 1.00670 0.71749 0.47591
 H67 H 1.04487 0.77228 0.49109
 H68 H 0.95564 0.76538 0.50800
 H69 H 0.99306 0.73398 0.54535
 H70 H 1.00985 0.72757 0.45605
 H71 H 0.99767 0.84786 0.49707
 H72 H 1.00395 0.65171 0.50296
 C73 C 0.49623 0.02495 0.22122
 C74 C 0.50089 -0.00059 0.23430
 C75 C 0.50644 -0.02514 0.21748
 C76 C 0.50700 -0.02424 0.18775
 C77 C 0.50266 0.00137 0.17484
 C78 C 0.49743 0.02601 0.19155
 C79 C 0.49993 -0.00166 0.26552
 C80 C 0.47447 0.00298 0.27880
 C81 C 0.47349 0.00165 0.30846
 C82 C 0.49815 -0.00368 0.32497
 C83 C 0.52369 -0.00799 0.31186
 C84 C 0.52450 -0.00731 0.28214
 H85 H 0.49213 0.04401 0.23416
 H86 H 0.50980 -0.04497 0.22749
 H87 H 0.45540 0.00715 0.26601
 H88 H 0.54427 -0.01065 0.27198
 H89 H 0.50329 0.00211 0.15183
 H90 H 0.49747 -0.00440 0.34798
 C91 C 0.49387 0.02443 0.78266
 C92 C 0.49849 -0.00049 0.76596
 C93 C 0.50234 -0.02612 0.77915
 C94 C 0.50126 -0.02691 0.80887
 C95 C 0.49696 -0.00189 0.82547
 C96 C 0.49342 0.02379 0.81241
 C97 C 0.49926 0.00028 0.73472
 C98 C 0.52486 -0.00362 0.72143
 C99 C 0.52563 -0.00257 0.69173
 C100 C 0.50068 0.00178 0.67521
 C101 C 0.47502 0.00537 0.68835
 C102 C 0.47438 0.00493 0.71811
 H103 H 0.49111 0.04430 0.77253
 H104 H 0.50572 -0.04542 0.76621
 H105 H 0.54416 -0.00703 0.73424
 H106 H 0.45453 0.00773 0.72830
 H107 H 0.49639 -0.00234 0.84853
 H108 H 0.50121 0.00232 0.65218
 C109 C 0.29208 0.03842 0.45380
 H110 H 0.29275 0.05526 0.47068
 C111 C 0.31239 0.03916 0.43325
 H112 H 0.32867 0.05671 0.43419
 C113 C 0.27117 -0.00599 0.43302
 H114 H 0.25569 -0.02398 0.43360
 C115 C 0.29115 -0.00609 0.41207
 H116 H 0.29083 -0.02405 0.39639
 N117 N 0.27219 0.01596 0.45348
 C118 C 0.20799 0.04621 0.50926
 H119 H 0.20870 0.03010 0.52477
 C120 C 0.18787 0.06672 0.51086
 H121 H 0.17312 0.06655 0.52777
 C122 C 0.22535 0.06518 0.46735
 H123 H 0.23945 0.06395 0.44999
 C124 C 0.20546 0.08608 0.46815
 H125 H 0.20446 0.10110 0.45154
 Zn126 Zn 0.24935 0.01441 0.48525
 N127 N 0.22612 0.04571 0.48769
 C128 C 0.27644 0.03568 0.53921
 N129 N 0.27497 0.01455 0.51785
 C130 C 0.29354 -0.00649 0.51783
 C131 C 0.31463 -0.00693 0.53994
 C132 C 0.29730 0.03605 0.56178
 C133 C 0.20382 -0.02152 0.46029
 C134 C 0.18254 -0.04389 0.45862
 C135 C 0.20372 -0.06078 0.50207
 C136 C 0.22462 -0.03808 0.50294
 N137 N 0.22420 -0.01895 0.48228
 H138 H 0.26194 0.05260 0.53846
 H139 H 0.29219 -0.02270 0.50030
 H140 H 0.32952 -0.02361 0.53955
 H141 H 0.29866 0.05311 0.57853
 H142 H 0.20366 -0.00567 0.44449
 H143 H 0.16600 -0.04540 0.44141
 H144 H 0.20375 -0.07551 0.51897
 H145 H 0.24049 -0.03524 0.52066
 C146 C 0.18638 0.08664 0.48996
 C147 C 0.31218 0.01651 0.41246
 C148 C 0.18232 -0.06351 0.47987
 C149 C 0.31664 0.01461 0.56202
 C150 C 0.70798 0.00739 0.54507
 H151 H 0.70887 0.02277 0.52884
 C152 C 0.68767 0.00906 0.56553
 H153 H 0.67296 0.02590 0.56519
 C154 C 0.72509 -0.03425 0.56444
 H155 H 0.73917 -0.05154 0.56340
 C156 C 0.70501 -0.03338 0.58530
 H157 H 0.70384 -0.04985 0.60047
 N158 N 0.72608 -0.01408 0.54480
 C159 C 0.79408 0.01619 0.49261
 H160 H 0.79287 -0.00140 0.47648
 C161 C 0.81519 0.03846 0.49212
 H162 H 0.83024 0.03812 0.47548
 C163 C 0.77659 0.03761 0.53464
 H164 H 0.76193 0.03682 0.55152
 C165 C 0.79746 0.06033 0.53495
 H166 H 0.79866 0.07715 0.55193
 Zn167 Zn 0.74961 -0.01658 0.51358
 N168 N 0.77530 0.01616 0.51361
 C169 C 0.72534 0.00075 0.46100
 N170 N 0.72473 -0.01984 0.48021
 C171 C 0.70428 -0.04191 0.47775
 C172 C 0.68308 -0.04371 0.45546
 C173 C 0.70453 -0.00025 0.43837
 C174 C 0.79204 -0.04770 0.53788
 C175 C 0.81228 -0.06815 0.53880
 C176 C 0.79141 -0.08967 0.49362
 C177 C 0.77149 -0.06881 0.49355
 N178 N 0.77236 -0.04822 0.51537
 H179 H 0.74126 0.01854 0.46375
 H180 H 0.70397 -0.05765 0.49367
 H181 H 0.66646 -0.06096 0.45407
 H182 H 0.70468 0.01661 0.42360
 H183 H 0.79260 -0.03073 0.55461
 H184 H 0.82840 -0.06706 0.55638
 H185 H 0.79121 -0.10545 0.47576
 H186 H 0.75618 -0.06839 0.47551
 C187 C 0.81701 0.06064 0.51355
 C188 C 0.68596 -0.01167 0.58563
 C189 C 0.81222 -0.08907 0.51627
 C190 C 0.68303 -0.02250 0.43579
 C191 C 0.46057 0.20778 1.04719
 H192 H 0.44374 0.20712 1.03037
 C193 C 0.45979 0.18749 1.06771
 H194 H 0.44222 0.17124 1.06683
 C195 C 0.50502 0.22860 1.06780
 H196 H 0.52305 0.24402 1.06715
 C197 C 0.50509 0.20864 1.08873
 H198 H 0.52306 0.20893 1.10432
 N199 N 0.48307 0.22760 1.04742
 C200 C 0.45317 0.29175 0.99162
 H201 H 0.46928 0.29091 0.97608
 C202 C 0.43277 0.31198 0.99002
 H203 H 0.43303 0.32667 0.97309
 C204 C 0.43407 0.27463 1.03357
 H205 H 0.43520 0.26059 1.05095
 C206 C 0.41327 0.29464 1.03278
 H207 H 0.39825 0.29577 1.04941
 Zn208 Zn 0.48473 0.25033 1.01562
 N209 N 0.45355 0.27369 1.01321
 C210 C 0.46344 0.22306 0.96171
 N211 N 0.48452 0.22454 0.98304
 C212 C 0.50548 0.20587 0.98305
 C213 C 0.50587 0.18466 0.96096
 C214 C 0.46303 0.20208 0.93916
 C215 C 0.52076 0.29588 1.04046
 C216 C 0.54318 0.31710 1.04205
 C217 C 0.56000 0.29564 0.99858
 C218 C 0.53727 0.27480 0.99778
 N219 N 0.51814 0.27538 1.01849
 H220 H 0.44660 0.23764 0.96247
 H221 H 0.52165 0.20723 1.00055
 H222 H 0.52248 0.16970 0.96133
 H223 H 0.44601 0.20072 0.92243
 H224 H 0.50492 0.29616 1.05629
 H225 H 0.54472 0.33373 1.05923
 H226 H 0.57473 0.29548 0.98164
 H227 H 0.53439 0.25884 0.98009
 C228 C 0.41284 0.31365 1.01095
 C229 C 0.48246 0.18766 1.08840
 C230 C 0.56278 0.31715 1.02074
 C231 C 0.48438 0.18264 0.93891
 C232 C 0.49122 0.79137 -0.04642
 H233 H 0.47584 0.79039 -0.03016
 C234 C 0.48949 0.81172 -0.06678
 H235 H 0.47261 0.82638 -0.06633
 C236 C 0.53293 0.77446 -0.06595
 H237 H 0.55027 0.76044 -0.06499
 C238 C 0.53200 0.79459 -0.08670
 H239 H 0.54848 0.79587 -0.10189
 N240 N 0.51276 0.77335 -0.04627
 C241 C 0.48289 0.70520 0.00591
 H242 H 0.50050 0.70651 0.02196
 C243 C 0.46073 0.68400 0.00648
 H244 H 0.46116 0.66898 0.02311
 C245 C 0.46133 0.72257 -0.03599
 H246 H 0.46201 0.73723 -0.05285
 C247 C 0.43870 0.70161 -0.03622
 H248 H 0.42185 0.70033 -0.05311
 Zn249 Zn 0.51539 0.74984 -0.01510
 N250 N 0.48280 0.72397 -0.01506
 C251 C 0.49802 0.77409 0.03762
 N252 N 0.51854 0.77479 0.01830
 C253 C 0.54051 0.79536 0.02070
 C254 C 0.54227 0.81657 0.04306
 C255 C 0.49898 0.79491 0.06031
 C256 C 0.54675 0.70752 -0.03954
 C257 C 0.56732 0.68739 -0.04051
 C258 C 0.58868 0.70849 0.00463
 C259 C 0.56770 0.72829 0.00476
 N260 N 0.54714 0.72725 -0.01702
 H261 H 0.48033 0.75806 0.03492
 H262 H 0.55619 0.79574 0.00470
 H263 H 0.55943 0.83328 0.04440
 H264 H 0.48218 0.79467 0.07518
 H265 H 0.52979 0.70682 -0.05624
 H266 H 0.56632 0.67122 -0.05810
 H267 H 0.60444 0.70882 0.02247
 H268 H 0.56719 0.74364 0.02281
 C269 C 0.43852 0.68209 -0.01484
 C270 C 0.51023 0.81357 -0.08690
 C271 C 0.58822 0.68762 -0.01803
 C272 C 0.52113 0.81651 0.06284
 C273 C 1.04613 0.46155 0.20731
 H274 H 1.02916 0.44474 0.20669
 C275 C 1.06668 0.46078 0.18701
 H276 H 1.06566 0.44323 0.17079
 C277 C 1.06713 0.50594 0.22804
 H278 H 1.06663 0.52394 0.24345
 C279 C 1.08809 0.50601 0.20807
 H280 H 1.10387 0.52395 0.20834
 N281 N 1.04655 0.48402 0.22710
 C282 C 0.99059 0.45393 0.29147
 H283 H 0.97517 0.47005 0.29064
 C284 C 0.98888 0.43349 0.31177
 H285 H 0.97199 0.43373 0.32653
 C286 C 1.03237 0.43487 0.27425
 H287 H 1.04973 0.43604 0.26015
 C288 C 1.03147 0.41404 0.29433
 H289 H 1.04799 0.39902 0.29546
 Zn290 Zn 1.01480 0.48564 0.24993
 N291 N 1.01215 0.45435 0.27333
 C292 C 0.96080 0.46442 0.22287
 N293 N 0.98223 0.48554 0.22428
 C294 C 0.98237 0.50660 0.20561
 C295 C 0.96029 0.50705 0.18449
 C296 C 0.93826 0.46405 0.20198
 C297 C 1.03995 0.52146 0.29537
 C298 C 1.04174 0.54376 0.31664
 C299 C 0.99844 0.56079 0.29541
 C300 C 0.99745 0.53816 0.27451
 N301 N 1.01797 0.51898 0.27497
 H302 H 0.96146 0.44749 0.23745
 H303 H 0.99995 0.52281 0.20691
 H304 H 0.96077 0.52373 0.16952
 H305 H 0.92145 0.44699 0.20067
 H306 H 1.05562 0.50556 0.29556
 H307 H 1.05892 0.54516 0.33320
 H308 H 0.98165 0.57555 0.29536
 H309 H 0.97975 0.53540 0.25863
 C310 C 1.00967 0.41357 0.31343
 C311 C 1.08759 0.48341 0.18714
 C312 C 1.02061 0.56340 0.31683
 C313 C 0.93814 0.48550 0.18254
 C314 C -0.04516 0.49194 0.79197
 H315 H -0.02905 0.47652 0.79111
 C316 C -0.06565 0.49024 0.81226
 H317 H -0.06545 0.47334 0.82699
 C318 C -0.06417 0.53373 0.77483
 H319 H -0.06297 0.55108 0.76074
 C320 C -0.08505 0.53283 0.79489
 H321 H -0.10008 0.54935 0.79604
 N322 N -0.04469 0.51350 0.77387
 C323 C 0.00750 0.48350 0.70597
 H324 H 0.02371 0.50109 0.70725
 C325 C 0.00792 0.46137 0.68481
 H326 H 0.02459 0.46180 0.66979
 C327 C -0.03467 0.46199 0.72332
 H328 H -0.05158 0.46271 0.73794
 C329 C -0.03506 0.43940 0.70239
 H330 H -0.05213 0.42260 0.70111
 Zn331 Zn -0.01342 0.51607 0.75039
 N332 N -0.01354 0.48343 0.72470
 C333 C 0.03899 0.49865 0.77481
 N334 N 0.01989 0.51924 0.77535
 C335 C 0.02242 0.54128 0.79577
 C336 C 0.04468 0.54303 0.81700
 C337 C 0.06157 0.49960 0.79567
 C338 C -0.03746 0.54733 0.70786
 C339 C -0.03823 0.56782 0.68755
 C340 C 0.00699 0.58928 0.70846
 C341 C 0.00691 0.56837 0.72845
 N342 N -0.01501 0.54780 0.72759
 H343 H 0.03619 0.48090 0.75891
 H344 H 0.00659 0.55702 0.79602
 H345 H 0.04612 0.56024 0.83359
 H346 H 0.07625 0.48273 0.79556
 H347 H -0.05426 0.53036 0.70731
 H348 H -0.05577 0.56676 0.67140
 H349 H 0.02492 0.60505 0.70865
 H350 H 0.02490 0.56791 0.74380
 C351 C -0.01363 0.43922 0.68289
 C352 C -0.08557 0.51103 0.81395
 C353 C -0.01561 0.58873 0.68760
 C354 C 0.06423 0.52181 0.81712
 C355 C 0.05280 0.17873 0.49516
 C356 C 0.07463 0.16676 0.49347
 C357 C 0.09971 0.15188 0.49195
 C358 C 0.12062 0.13836 0.49102
 C359 C 0.14440 0.12150 0.49031
 C360 C 0.16399 0.10615 0.49001
 C361 C 0.67858 0.55318 -0.00725
 C362 C 0.66677 0.57499 -0.00985
 C363 C 0.65216 0.60014 -0.01241
 C364 C 0.63891 0.62116 -0.01421
 C365 C 0.62241 0.64514 -0.01590
 C366 C 0.60738 0.66495 -0.01703
 C367 C 0.94727 -0.17867 0.50615
 C368 C 0.92536 -0.16697 0.50855
 C369 C 0.90010 -0.15251 0.51090
 C370 C 0.87898 -0.13939 0.51257
 C371 C 0.85489 -0.12303 0.51416
 C372 C 0.83499 -0.10811 0.51525
 C373 C 0.32135 0.44767 1.00533
 C374 C 0.33323 0.42579 1.00714
 C375 C 0.34800 0.40065 1.00877
 C376 C 0.36143 0.37968 1.00978
 C377 C 0.37818 0.35581 1.01055
 C378 C 0.39343 0.33614 1.01089
 C379 C 0.94967 0.17093 0.50814
 C380 C 0.92830 0.15572 0.51026
 C381 C 0.90366 0.13720 0.51214
 C382 C 0.88301 0.12074 0.51324
 C383 C 0.85936 0.10068 0.51395
 C384 C 0.83971 0.08283 0.51404
 C385 C 0.32850 0.54932 -0.00841
 C386 C 0.34369 0.57067 -0.01074
 C387 C 0.36217 0.59530 -0.01285
 C388 C 0.37859 0.61596 -0.01412
 C389 C 0.39860 0.63963 -0.01500
 C390 C 0.41640 0.65932 -0.01521
 C391 C 0.04839 -0.17136 0.48980
 C392 C 0.06967 -0.15627 0.48689
 C393 C 0.09433 -0.13804 0.48413
 C394 C 0.11511 -0.12192 0.48232
 C395 C 0.13904 -0.10236 0.48082
 C396 C 0.15905 -0.08502 0.48009
 C397 C 0.67074 0.45091 1.01021
 C398 C 0.65567 0.42964 1.01320
 C399 C 0.63743 0.40499 1.01608
 C400 C 0.62129 0.38424 1.01800
 C401 C 0.60170 0.36035 1.01960
 C402 C 0.58434 0.34037 1.02043
 C403 C 0.49381 0.05244 1.17816
 C404 C 0.49120 0.07433 1.16641
 C405 C 0.48860 0.09959 1.15190
 C406 C 0.48673 0.12074 1.13876
 C407 C 0.48491 0.14487 1.12239
 C408 C 0.48365 0.16482 1.10746
 C409 C -0.00493 0.67861 0.55224
 C410 C -0.00737 0.66683 0.57418
 C411 C -0.00980 0.65230 0.59948
 C412 C -0.01155 0.63914 0.62064
 C413 C -0.01325 0.62274 0.64480
 C414 C -0.01445 0.60780 0.66475
 C415 C 0.50389 0.94805 -0.17829
 C416 C 0.50580 0.92615 -0.16637
 C417 C 0.50756 0.90096 -0.15159
 C418 C 0.50869 0.87993 -0.13818
 C419 C 0.50959 0.85596 -0.12147
 C420 C 0.51004 0.83619 -0.10626
 C421 C 1.00412 0.32197 0.44790
 C422 C 1.00585 0.33391 0.42597
 C423 C 1.00742 0.34872 0.40077
 C424 C 1.00840 0.36217 0.37973
 C425 C 1.00918 0.37892 0.35577
 C426 C 1.00955 0.39416 0.33602
 C427 C 0.51120 0.95025 0.17032
 C428 C 0.51414 0.92902 0.15528
 C429 C 0.51693 0.90439 0.13712
 C430 C 0.51876 0.88363 0.12107
 C431 C 0.52024 0.85973 0.10159
 C432 C 0.52096 0.83974 0.08431
 C433 C -0.00861 0.33000 0.54974
 C434 C -0.01068 0.34507 0.57116
 C435 C -0.01250 0.36339 0.59588
 C436 C -0.01355 0.37967 0.61661
 C437 C -0.01418 0.39953 0.64035
 C438 C -0.01421 0.41721 0.66009
 C439 C 0.49007 0.04958 0.82975
 C440 C 0.48781 0.07096 0.84481
 C441 C 0.48580 0.09564 0.86312
 C442 C 0.48462 0.11635 0.87939
 C443 C 0.48388 0.14009 0.89924
 C444 C 0.48381 0.15983 0.91691
 C445 C 1.01132 0.67043 0.45107
 C446 C 1.01411 0.65548 0.42974
 C447 C 1.01675 0.63740 0.40501
 C448 C 1.01846 0.62143 0.38417
 C449 C 1.01984 0.60202 0.36018
 C450 C 1.02049 0.58480 0.34013
 C451 C 1.17820 0.49469 0.05216
 C452 C 1.16629 0.49208 0.07402
 C453 C 1.15160 0.48948 0.09923
 C454 C 1.13831 0.48762 0.12033
 C455 C 1.12179 0.48582 0.14442
 C456 C 1.10675 0.48458 0.16433
 C457 C 0.55205 -0.00539 0.67806
 C458 C 0.57386 -0.00731 0.66598
 C459 C 0.59895 -0.00907 0.65100
 C460 C 0.61990 -0.01019 0.63742
 C461 C 0.64376 -0.01108 0.62051
 C462 C 0.66344 -0.01151 0.60515
 C463 C -0.17802 0.50487 0.94798
 C464 C -0.16594 0.50676 0.92612
 C465 C -0.15096 0.50847 0.90100
 C466 C -0.13737 0.50956 0.88004
 C467 C -0.12046 0.51043 0.85617
 C468 C -0.10510 0.51086 0.83647
 C469 C 0.44714 0.00524 0.32203
 C470 C 0.42530 0.00782 0.33393
 C471 C 0.40010 0.01040 0.34859
 C472 C 0.37900 0.01225 0.36184
 C473 C 0.35491 0.01405 0.37832
 C474 C 0.33499 0.01531 0.39333
 C475 C 0.17066 0.51174 0.95123
 C476 C 0.15583 0.51469 0.92992
 C477 C 0.13788 0.51750 0.90521
 C478 C 0.12200 0.51935 0.88440
 C479 C 0.10269 0.52087 0.86043
 C480 C 0.08554 0.52161 0.84040
 C481 C 0.54921 -0.01230 0.32911
 C482 C 0.57045 -0.01532 0.34399
 C483 C 0.59509 -0.01820 0.36199
 C484 C 0.61586 -0.02008 0.37791
 C485 C 0.63979 -0.02161 0.39726
 C486 C 0.65978 -0.02234 0.41444
 C487 C 0.82939 0.49112 0.04956
 C488 C 0.84435 0.48888 0.07095
 C489 C 0.86256 0.48690 0.09565
 C490 C 0.87876 0.48575 0.11635
 C491 C 0.89855 0.48503 0.14006
 C492 C 0.91618 0.48495 0.15977
 C493 C 0.44928 0.00875 0.67108
 C494 C 0.42795 0.01103 0.65606
 C495 C 0.40332 0.01307 0.63779
 C496 C 0.38267 0.01427 0.62153
 C497 C 0.35902 0.01504 0.60170
 C498 C 0.33935 0.01514 0.58403
   
