data_POSCAR
  _audit_creation_date              2014-09-24
  _audit_creation_method            'ToBaCCo'
  _symmetry_space_group_name_H-M    'P1'
  _symmetry_Int_Tables_number       1
  _symmetry_cell_setting            triclinic
  loop_
  _symmetry_equiv_pos_as_xyz
 x,y,z
_cell_length_a 43.1757
_cell_length_b 42.6107
_cell_length_c 62.3487
_cell_angle_alpha 89.998000
_cell_angle_beta 90.024300
_cell_angle_gamma 117.516200
loop_
  _atom_site_label
  _atom_site_type_symbol
  _atom_site_fract_x
  _atom_site_fract_y
  _atom_site_fract_z
C1 C -0.01424 0.48958 1.25182
 C2 C 0.02133 0.50572 1.25138
 C3 C 0.04236 0.51473 1.27140
 C4 C 0.04115 0.51574 1.23093
 C5 C -0.03557 0.47874 1.23191
 C6 C -0.03367 0.48248 1.27236
 C7 C 0.06755 0.54962 1.27507
 C8 C 0.08735 0.55878 1.29386
 C9 C 0.08282 0.53316 1.30979
 C10 C 0.05751 0.49774 1.30547
 C11 C 0.03782 0.48879 1.28659
 C12 C 0.03646 0.53796 1.21608
 C13 C 0.05555 0.54733 1.19698
 C14 C 0.07982 0.53481 1.19246
 C15 C 0.08469 0.51290 1.20750
 C16 C 0.06565 0.50361 1.22658
 C17 C -0.03097 0.45721 1.21650
 C18 C -0.05077 0.44800 1.19764
 C19 C -0.07585 0.45979 1.19397
 C20 C -0.08100 0.48052 1.20974
 C21 C -0.06110 0.48985 1.22849
 C22 C -0.05738 0.44765 1.27785
 C23 C -0.07540 0.44046 1.29729
 C24 C -0.07039 0.46807 1.31146
 C25 C -0.04713 0.50306 1.30572
 C26 C -0.02889 0.51020 1.28632
 H27 H 0.07190 0.56996 1.26331
 H28 H 0.10730 0.58594 1.29500
 H29 H 0.05108 0.47662 1.31691
 H30 H 0.01868 0.46152 1.28392
 H31 H 0.01807 0.54807 1.21932
 H32 H 0.05113 0.56411 1.18565
 H33 H 0.06987 0.48673 1.23795
 H34 H -0.01190 0.44772 1.21901
 H35 H -0.04605 0.43213 1.18579
 H36 H -0.10062 0.48938 1.20765
 H37 H -0.06534 0.50615 1.24028
 H38 H -0.06156 0.42598 1.26718
 H39 H -0.09356 0.41332 1.30117
 H40 H -0.04269 0.52480 1.31638
 H41 H -0.01099 0.53731 1.28220
 H42 H 0.10362 0.50336 1.20464
 C43 C 0.50692 0.48205 1.24984
 C44 C 0.48955 0.50180 1.24949
 C45 C 0.48195 0.51563 1.26959
 C46 C 0.47687 0.51012 1.22920
 C47 C 0.51827 0.47131 1.22989
 C48 C 0.51546 0.47020 1.27038
 C49 C 0.44732 0.50657 1.27501
 C50 C 0.43980 0.51875 1.29413
 C51 C 0.46684 0.54060 1.30803
 C52 C 0.50159 0.55024 1.30234
 C53 C 0.50907 0.53785 1.28328
 C54 C 0.45528 0.48310 1.21513
 C55 C 0.44273 0.49125 1.19638
 C56 C 0.45140 0.52654 1.19142
 C57 C 0.47287 0.55348 1.20562
 C58 C 0.48534 0.54531 1.22436
 C59 C 0.53932 0.49656 1.21475
 C60 C 0.55076 0.48611 1.19638
 C61 C 0.54152 0.45024 1.19288
 C62 C 0.52033 0.42508 1.20809
 C63 C 0.50902 0.43555 1.22644
 C64 C 0.55032 0.47974 1.27545
 C65 C 0.55869 0.46915 1.29487
 C66 C 0.53226 0.44840 1.30942
 C67 C 0.49727 0.43834 1.30413
 C68 C 0.48895 0.44916 1.28476
 H69 H 0.42609 0.48964 1.26457
 H70 H 0.41284 0.51132 1.29797
 H71 H 0.52291 0.56690 1.31280
 H72 H 0.53600 0.54547 1.27921
 H73 H 0.44791 0.45570 1.21877
 H74 H 0.42638 0.46996 1.18569
 H75 H 0.50169 0.56649 1.23512
 H76 H 0.54730 0.52438 1.21732
 H77 H 0.56747 0.50620 1.18517
 H78 H 0.51223 0.39719 1.20572
 H79 H 0.49281 0.41567 1.23793
 H80 H 0.57107 0.49575 1.26446
 H81 H 0.58581 0.47685 1.29842
 H82 H 0.47642 0.42251 1.31509
 H83 H 0.46185 0.44119 1.28097
 H84 H 0.47952 0.58084 1.20242
 C85 C 0.49507 1.02224 1.24990
 C86 C 0.47615 0.98629 1.24996
 C87 C 0.46470 0.96562 1.27019
 C88 C 0.46606 0.96558 1.22971
 C89 C 0.50512 1.04286 1.22960
 C90 C 0.50692 1.04300 1.27007
 C91 C 0.47311 0.93806 1.27386
 C92 C 0.46272 0.91825 1.29271
 C93 C 0.44329 0.92526 1.30858
 C94 C 0.43448 0.95284 1.30445
 C95 C 0.44493 0.97258 1.28550
 C96 C 0.49136 0.96780 1.21481
 C97 C 0.48133 0.94828 1.19577
 C98 C 0.44585 0.92600 1.19139
 C99 C 0.42068 0.92347 1.20653
 C100 C 0.43072 0.94296 1.22554
 C101 C 0.47996 1.04029 1.21454
 C102 C 0.48995 1.05972 1.19546
 C103 C 0.52552 1.08259 1.19096
 C104 C 0.55043 1.08533 1.20658
 C105 C 0.54031 1.06585 1.22558
 C106 C 0.49862 1.07060 1.27383
 C107 C 0.50959 1.09065 1.29257
 C108 C 0.52950 1.08386 1.30821
 C109 C 0.53817 1.05621 1.30400
 C110 C 0.52714 1.03621 1.28517
 H111 H 0.48789 0.93187 1.26205
 H112 H 0.46897 0.89655 1.29420
 H113 H 0.42061 0.96042 1.31608
 H114 H 0.43774 0.99349 1.28284
 H115 H 0.51882 0.98470 1.21791
 H116 H 0.50130 0.95091 1.18438
 H117 H 0.41086 0.94065 1.23695
 H118 H 0.45253 1.02300 1.21748
 H119 H 0.46955 1.05544 1.18403
 H120 H 0.57786 1.10351 1.20479
 H121 H 0.56010 1.06866 1.23719
 H122 H 0.48354 1.07666 1.26218
 H123 H 0.50341 1.11240 1.29413
 H124 H 0.55241 1.04881 1.31547
 H125 H 0.53426 1.01528 1.28241
 H126 H 0.39321 0.90606 1.20380
 C127 C 1.02408 0.51490 0.74970
 C128 C 0.98849 0.49837 0.75001
 C129 C 0.96775 0.48981 0.72989
 C130 C 0.96844 0.48770 0.77037
 C131 C 1.04515 0.52521 0.76972
 C132 C 1.04385 0.52308 0.72923
 C133 C 0.97212 0.51636 0.71508
 C134 C 0.95303 0.50773 0.69597
 C135 C 0.92907 0.47241 0.69138
 C136 C 0.92431 0.44601 0.70645
 C137 C 0.94336 0.45467 0.72556
 C138 C 0.94366 0.49943 0.77483
 C139 C 0.92467 0.48985 0.79393
 C140 C 0.92987 0.46805 0.80890
 C141 C 0.95433 0.45584 0.80424
 C142 C 0.97337 0.46548 0.78511
 C143 C 1.07041 0.51385 0.77310
 C144 C 1.09028 0.52285 0.79186
 C145 C 1.08564 0.54378 0.80792
 C146 C 1.06047 0.55569 0.80405
 C147 C 1.04067 0.54662 0.78520
 C148 C 1.03933 0.49620 0.71472
 C149 C 1.05789 0.50428 0.69543
 C150 C 1.08165 0.53962 0.69009
 C151 C 1.08618 0.56632 0.70510
 C152 C 1.06771 0.55807 0.72440
 H153 H 0.99047 0.54372 0.71829
 H154 H 0.95742 0.52861 0.68462
 H155 H 0.90561 0.41868 0.70355
 H156 H 0.93943 0.43387 0.73687
 H157 H 0.93925 0.51630 0.76355
 H158 H 0.90558 0.49915 0.79687
 H159 H 0.99197 0.45567 0.78180
 H160 H 1.07469 0.49776 0.76118
 H161 H 1.11015 0.51425 0.79316
 H162 H 1.05476 0.57090 0.81582
 H163 H 1.02158 0.55611 0.78276
 H164 H 1.02119 0.46891 0.71828
 H165 H 1.05227 0.48267 0.68446
 H166 H 1.10500 0.59367 0.70254
 H167 H 1.07190 0.57912 0.73558
 H168 H 0.95902 0.43915 0.81550
 C169 C 0.49076 0.50632 0.75014
 C170 C 0.50665 0.48513 0.75046
 C171 C 0.51490 0.47195 0.73032
 C172 C 0.51715 0.47453 0.77079
 C173 C 0.48045 0.51805 0.77013
 C174 C 0.48334 0.51931 0.72964
 C175 C 0.48856 0.45204 0.71553
 C176 C 0.49692 0.44094 0.69628
 C177 C 0.53176 0.44942 0.69154
 C178 C 0.55792 0.46869 0.70662
 C179 C 0.54952 0.47969 0.72587
 C180 C 0.50567 0.43856 0.77513
 C181 C 0.51538 0.42808 0.79412
 C182 C 0.53707 0.45341 0.80907
 C183 C 0.54895 0.48950 0.80455
 C184 C 0.53917 0.49997 0.78554
 C185 C 0.49127 0.55419 0.77340
 C186 C 0.48215 0.56586 0.79213
 C187 C 0.46189 0.54160 0.80800
 C188 C 0.45051 0.50530 0.80451
 C189 C 0.45952 0.49361 0.78569
 C190 C 0.51034 0.53927 0.71525
 C191 C 0.50293 0.55092 0.69588
 C192 C 0.46840 0.54298 0.69062
 C193 C 0.44154 0.52347 0.70524
 C194 C 0.44899 0.51192 0.72461
 H195 H 0.46160 0.44541 0.71883
 H196 H 0.47625 0.42628 0.68492
 H197 H 0.58488 0.47509 0.70357
 H198 H 0.57014 0.49482 0.73717
 H199 H 0.48895 0.41856 0.76385
 H200 H 0.50633 0.40013 0.79696
 H201 H 0.54880 0.52790 0.78231
 H202 H 0.50711 0.57345 0.76151
 H203 H 0.49070 0.59391 0.79408
 H204 H 0.43501 0.48595 0.81645
 H205 H 0.45028 0.46553 0.78329
 H206 H 0.53710 0.54569 0.71901
 H207 H 0.52413 0.56573 0.68489
 H208 H 0.41479 0.51746 0.70178
 H209 H 0.42788 0.49682 0.73561
 H210 H 0.56554 0.50961 0.81580
 C211 C 0.47841 -0.01795 0.74986
 C212 C 0.49752 0.01797 0.74926
 C213 C 0.50628 0.03756 0.72864
 C214 C 0.51003 0.03968 0.76906
 C215 C 0.46667 -0.03767 0.77039
 C216 C 0.46778 -0.03947 0.72991
 C217 C 0.54134 0.05905 0.72321
 C218 C 0.55000 0.07744 0.70379
 C219 C 0.52370 0.07505 0.68959
 C220 C 0.48854 0.05397 0.69524
 C221 C 0.47990 0.03537 0.71462
 C222 C 0.52944 0.03255 0.78464
 C223 C 0.54019 0.05281 0.80340
 C224 C 0.53209 0.08084 0.80678
 C225 C 0.51349 0.08845 0.79084
 C226 C 0.50263 0.06812 0.77220
 C227 C 0.44758 -0.02924 0.78544
 C228 C 0.43666 -0.04816 0.80464
 C229 C 0.44409 -0.07652 0.80924
 C230 C 0.46281 -0.08503 0.79364
 C231 C 0.47382 -0.06593 0.77456
 C232 C 0.43249 -0.06267 0.72632
 C233 C 0.42190 -0.08301 0.70767
 C234 C 0.44641 -0.08093 0.69194
 C235 C 0.48208 -0.05779 0.69600
 C236 C 0.49254 -0.03753 0.71474
 H237 H 0.56200 0.06126 0.73393
 H238 H 0.57728 0.09392 0.69999
 H239 H 0.46778 0.05155 0.68455
 H240 H 0.45266 0.01926 0.71871
 H241 H 0.53604 0.01116 0.78235
 H242 H 0.55435 0.04617 0.81539
 H243 H 0.48801 0.07432 0.76028
 H244 H 0.44128 -0.00782 0.78238
 H245 H 0.42347 -0.03936 0.81603
 H246 H 0.46801 -0.10738 0.79548
 H247 H 0.48799 -0.07328 0.76295
 H248 H 0.41300 -0.06498 0.73802
 H249 H 0.39443 -0.10130 0.70622
 H250 H 0.50218 -0.05398 0.68446
 H251 H 0.52004 -0.02010 0.71735
 H252 H 0.50751 0.11033 0.79271
 O253 O 0.37939 0.66718 0.97551
 O254 O 0.38350 0.72934 0.98247
 C255 C 0.36189 0.73564 0.97179
 O256 O 0.32965 0.72158 0.97622
 O257 O 0.27003 0.66656 0.98362
 C258 C 0.26437 0.63901 0.97289
 O259 O 0.27938 0.62023 0.97700
 O260 O 0.33585 0.61376 0.98286
 C261 C 0.36200 0.63438 0.97163
 O262 O 0.38224 0.65700 1.01801
 O263 O 0.38288 0.71754 1.02503
 C264 C 0.36755 0.73592 1.02939
 O265 O 0.34126 0.73350 1.01886
 O266 O 0.28294 0.67660 1.02618
 C267 C 0.26625 0.64393 1.03055
 O268 O 0.26968 0.62032 1.01981
 O269 O 0.32784 0.61694 1.02574
 C270 C 0.36042 0.63142 1.02924
 Cr271 Cr 0.38011 0.69193 1.00028
 Cr272 Cr 0.30687 0.69850 1.00122
 Cr273 Cr 0.30417 0.61971 1.00135
 O274 O 0.33035 0.67003 1.00097
 O275 O 0.62778 0.34362 0.98114
 O276 O 0.62753 0.28310 0.97465
 C277 C 0.64341 0.26515 0.97053
 O278 O 0.66942 0.26775 0.98143
 O279 O 0.72786 0.32495 0.97537
 C280 C 0.74447 0.35769 0.97119
 O281 O 0.74044 0.38100 0.98187
 O282 O 0.68257 0.38429 0.97490
 C283 C 0.65027 0.36969 0.97051
 O284 O 0.62837 0.33296 1.02388
 O285 O 0.62489 0.27115 1.01733
 C286 C 0.64600 0.26443 1.02827
 O287 O 0.67840 0.27835 1.02425
 O288 O 0.73827 0.33383 1.01820
 C289 C 0.74347 0.36127 1.02891
 O290 O 0.72861 0.38008 1.02449
 O291 O 0.67231 0.38653 1.01754
 C292 C 0.64552 0.36562 1.02818
 Cr293 Cr 0.62905 0.30856 0.99925
 Cr294 Cr 0.70258 0.30231 0.99980
 Cr295 Cr 0.70498 0.38103 0.99970
 O296 O 0.67888 0.33063 0.99957
 O297 O 0.66804 0.38613 0.51845
 O298 O 0.72487 0.38099 0.52578
 C299 C 0.74059 0.36298 0.53013
 O300 O 0.73640 0.33604 0.51920
 O301 O 0.67717 0.27991 0.52574
 C302 C 0.64471 0.26507 0.52963
 O303 O 0.62311 0.27078 0.51849
 O304 O 0.62535 0.33207 0.52530
 C305 C 0.64190 0.36483 0.52944
 O306 O 0.67887 0.38366 0.47586
 O307 O 0.73745 0.38202 0.48325
 C308 C 0.74148 0.35894 0.47233
 O309 O 0.72513 0.32615 0.47643
 O310 O 0.66756 0.26825 0.48298
 C311 C 0.64152 0.26533 0.47196
 O312 O 0.62543 0.28312 0.47590
 O313 O 0.62429 0.34295 0.48263
 C314 C 0.64652 0.36865 0.47162
 Cr315 Cr 0.70136 0.38134 0.50083
 Cr316 Cr 0.70067 0.30360 0.50108
 Cr317 Cr 0.62639 0.30810 0.50059
 O318 O 0.67615 0.33100 0.50083
 O319 O 0.33923 0.61397 0.51706
 O320 O 0.28356 0.62127 0.52437
 C321 C 0.26887 0.64030 0.52863
 O322 O 0.27384 0.66732 0.51755
 O323 O 0.33399 0.72255 0.52353
 C324 C 0.36639 0.73629 0.52753
 O325 O 0.38739 0.72932 0.51664
 O326 O 0.38341 0.66734 0.52342
 C327 C 0.36592 0.63476 0.52782
 O328 O 0.32839 0.61609 0.47449
 O329 O 0.27089 0.61985 0.48184
 C330 C 0.26733 0.64311 0.47082
 O331 O 0.28441 0.67592 0.47469
 O332 O 0.34307 0.73293 0.48076
 C333 C 0.36891 0.73519 0.46984
 O334 O 0.38445 0.71690 0.47395
 O335 O 0.38352 0.65608 0.48067
 C336 C 0.36063 0.63037 0.46996
 Cr337 Cr 0.30653 0.61969 0.49942
 Cr338 Cr 0.30970 0.69859 0.49913
 Cr339 Cr 0.38281 0.69158 0.49868
 O340 O 0.33303 0.66999 0.49908
 C341 C 0.47831 0.58853 0.33496
 C342 C 0.47000 0.60047 0.35393
 C343 C 0.44192 0.57742 0.36674
 C344 C 0.42294 0.54174 0.36046
 C345 C 0.43111 0.52989 0.34143
 C346 C 0.45871 0.55319 0.32841
 C347 C 0.43365 0.59153 0.38652
 C348 C 0.40236 0.57599 0.39623
 C349 C 0.39300 0.59047 0.41542
 C350 C 0.35750 0.57731 0.42048
 C351 C 0.34707 0.59005 0.43823
 C352 C 0.37197 0.61629 0.45147
 C353 C 0.40758 0.62917 0.44665
 C354 C 0.41804 0.61630 0.42889
 H355 H 0.49965 0.60710 0.32520
 H356 H 0.48526 0.62797 0.35845
 H357 H 0.40205 0.52266 0.37023
 H358 H 0.41611 0.50231 0.33701
 H359 H 0.45356 0.61667 0.39237
 H360 H 0.38164 0.55241 0.38923
 H361 H 0.33763 0.55725 0.41053
 H362 H 0.31941 0.57948 0.44145
 H363 H 0.42744 0.64918 0.45662
 H364 H 0.44570 0.62646 0.42605
 C365 C 0.40347 0.90150 0.33969
 C366 C 0.39293 0.88095 0.35832
 C367 C 0.41146 0.86358 0.36598
 C368 C 0.44076 0.86693 0.35441
 C369 C 0.45136 0.88742 0.33579
 C370 C 0.43287 0.90506 0.32787
 C371 C 0.39849 0.84105 0.38542
 C372 C 0.41836 0.83137 0.39755
 C373 C 0.40504 0.80731 0.41628
 C374 C 0.42308 0.78867 0.42269
 C375 C 0.41143 0.76536 0.44006
 C376 C 0.38157 0.76042 0.45163
 C377 C 0.36384 0.77960 0.44549
 C378 C 0.37545 0.80284 0.42804
 H379 H 0.38728 0.91309 0.33422
 H380 H 0.36992 0.87840 0.36673
 H381 H 0.45542 0.85337 0.35934
 H382 H 0.47485 0.88997 0.32812
 H383 H 0.37141 0.83207 0.38964
 H384 H 0.44547 0.84042 0.39340
 H385 H 0.44610 0.79182 0.41404
 H386 H 0.42584 0.75117 0.44438
 H387 H 0.34089 0.77662 0.45414
 H388 H 0.36142 0.81753 0.42410
 C389 C 0.10594 0.51668 0.34118
 C390 C 0.12597 0.52621 0.35993
 C391 C 0.14265 0.56138 0.36691
 C392 C 0.13930 0.58712 0.35452
 C393 C 0.11937 0.57780 0.33575
 C394 C 0.10210 0.54225 0.32841
 C395 C 0.16449 0.57030 0.38657
 C396 C 0.17275 0.59953 0.39830
 C397 C 0.19610 0.60949 0.41727
 C398 C 0.21348 0.64524 0.42331
 C399 C 0.23636 0.65613 0.44076
 C400 C 0.24213 0.63138 0.45276
 C401 C 0.22406 0.59542 0.44706
 C402 C 0.20123 0.58455 0.42955
 H403 H 0.09532 0.48929 0.33645
 H404 H 0.12866 0.50588 0.36898
 H405 H 0.15238 0.61476 0.35897
 H406 H 0.11674 0.59893 0.32778
 H407 H 0.17408 0.55194 0.39131
 H408 H 0.16305 0.61781 0.39360
 H409 H 0.20977 0.66496 0.41426
 H410 H 0.24971 0.68401 0.44475
 H411 H 0.22768 0.57562 0.45606
 H412 H 0.18746 0.55660 0.42592
 C413 C 0.52208 0.40235 0.33741
 C414 C 0.53131 0.39170 0.35654
 C415 C 0.55989 0.41562 0.36869
 C416 C 0.57842 0.45090 0.36159
 C417 C 0.56934 0.46146 0.34239
 C418 C 0.54127 0.43725 0.33003
 C419 C 0.56919 0.40280 0.38862
 C420 C 0.60087 0.41909 0.39781
 C421 C 0.61127 0.40573 0.41708
 C422 C 0.64701 0.41946 0.42164
 C423 C 0.65838 0.40766 0.43940
 C424 C 0.63422 0.38180 0.45315
 C425 C 0.59837 0.36839 0.44884
 C426 C 0.58696 0.38034 0.43109
 H427 H 0.50038 0.38310 0.32816
 H428 H 0.51637 0.36448 0.36170
 H429 H 0.59968 0.47065 0.37082
 H430 H 0.58405 0.48875 0.33730
 H431 H 0.54970 0.37790 0.39503
 H432 H 0.62114 0.44239 0.39028
 H433 H 0.66632 0.43921 0.41126
 H434 H 0.68619 0.41861 0.44222
 H435 H 0.57906 0.34869 0.45922
 H436 H 0.55916 0.36980 0.42866
 C437 C 0.52228 0.12211 0.33544
 C438 C 0.53361 0.14307 0.35382
 C439 C 0.56326 0.14686 0.36499
 C440 C 0.58159 0.12917 0.35731
 C441 C 0.57034 0.10816 0.33886
 C442 C 0.54054 0.10436 0.32736
 C443 C 0.57465 0.17058 0.38394
 C444 C 0.59553 0.16927 0.39951
 C445 C 0.60636 0.19342 0.41830
 C446 C 0.63713 0.19983 0.42927
 C447 C 0.64850 0.22291 0.44681
 C448 C 0.62916 0.23994 0.45384
 C449 C 0.59791 0.23283 0.44319
 C450 C 0.58650 0.20970 0.42574
 H451 H 0.49838 0.11917 0.32814
 H452 H 0.51884 0.15623 0.35945
 H453 H 0.60528 0.13229 0.36502
 H454 H 0.58638 0.09652 0.33319
 H455 H 0.56493 0.18981 0.38497
 H456 H 0.60571 0.15042 0.39846
 H457 H 0.65272 0.18733 0.42404
 H458 H 0.67265 0.22771 0.45470
 H459 H 0.58208 0.24507 0.44837
 H460 H 0.56187 0.20441 0.41841
 C461 C 0.89463 0.48072 0.33909
 C462 C 0.87544 0.47233 0.35816
 C463 C 0.87163 0.44331 0.37063
 C464 C 0.88857 0.42355 0.36396
 C465 C 0.90751 0.43179 0.34482
 C466 C 0.91046 0.46022 0.33209
 C467 C 0.85004 0.43471 0.39038
 C468 C 0.83555 0.40254 0.39954
 C469 C 0.81226 0.39270 0.41857
 C470 C 0.79165 0.35661 0.42303
 C471 C 0.76898 0.34571 0.44055
 C472 C 0.76639 0.37071 0.45414
 C473 C 0.78740 0.40689 0.44993
 C474 C 0.81024 0.41782 0.43242
 H475 H 0.89641 0.50274 0.32956
 H476 H 0.86300 0.48822 0.36300
 H477 H 0.88766 0.40194 0.37347
 H478 H 0.92018 0.41610 0.34005
 H479 H 0.84427 0.45510 0.39662
 H480 H 0.83907 0.38147 0.39213
 H481 H 0.79282 0.33666 0.41277
 H482 H 0.75321 0.31762 0.44330
 H483 H 0.78626 0.42684 0.46019
 H484 H 0.82636 0.44588 0.43005
 C485 C 0.56421 0.41203 1.17520
 C486 C 0.57525 0.40071 1.15708
 C487 C 0.57701 0.41632 1.13701
 C488 C 0.56715 0.44344 1.13538
 C489 C 0.55591 0.45467 1.15352
 C490 C 0.55418 0.43899 1.17363
 C491 C 0.58762 0.40238 1.11816
 C492 C 0.60140 0.42109 1.10023
 C493 C 0.61200 0.40643 1.08171
 C494 C 0.63916 0.42944 1.06835
 C495 C 0.65007 0.41633 1.05092
 C496 C 0.63365 0.37989 1.04632
 C497 C 0.60586 0.35698 1.05943
 C498 C 0.59511 0.37007 1.07688
 H499 H 0.56372 0.39976 1.19049
 H500 H 0.58258 0.37971 1.15877
 H501 H 0.56714 0.45538 1.12007
 H502 H 0.54776 0.47504 1.15170
 H503 H 0.58543 0.37611 1.11962
 H504 H 0.60695 0.44857 1.09945
 H505 H 0.65233 0.45760 1.07160
 H506 H 0.67142 0.43474 1.04110
 H507 H 0.59242 0.32881 1.05627
 H508 H 0.57328 0.35166 1.08636
 C509 C 0.89544 0.47562 1.16382
 C510 C 0.87505 0.46685 1.14526
 C511 C 0.86250 0.43314 1.13606
 C512 C 0.87056 0.40811 1.14595
 C513 C 0.89085 0.41684 1.16462
 C514 C 0.90340 0.45065 1.17382
 C515 C 0.83983 0.42480 1.11685
 C516 C 0.83607 0.39988 1.10243
 C517 C 0.81294 0.39121 1.08333
 C518 C 0.80310 0.35878 1.07288
 C519 C 0.78088 0.34915 1.05508
 C520 C 0.76802 0.37184 1.04728
 C521 C 0.77842 0.40463 1.05745
 C522 C 0.80078 0.41434 1.07515
 H523 H 0.90512 0.50207 1.17029
 H524 H 0.86914 0.48657 1.13801
 H525 H 0.86045 0.38147 1.13976
 H526 H 0.89595 0.39679 1.17215
 H527 H 0.82613 0.44032 1.11468
 H528 H 0.85003 0.38460 1.10474
 H529 H 0.81229 0.34058 1.07868
 H530 H 0.77343 0.32371 1.04761
 H531 H 0.76938 0.42295 1.05168
 H532 H 0.80861 0.44015 1.08206
 C533 C 0.51289 0.11103 1.15985
 C534 C 0.52357 0.13100 1.14100
 C535 C 0.55740 0.14264 1.13295
 C536 C 0.58061 0.13415 1.14436
 C537 C 0.57005 0.11423 1.16320
 C538 C 0.53598 0.10231 1.17149
 C539 C 0.56788 0.16482 1.11328
 C540 C 0.59494 0.16910 1.10084
 C541 C 0.60677 0.19291 1.08194
 C542 C 0.64158 0.20602 1.07526
 C543 C 0.65425 0.22904 1.05781
 C544 C 0.63222 0.23920 1.04641
 C545 C 0.59711 0.22543 1.05277
 C546 C 0.58447 0.20250 1.07032
 H547 H 0.48690 0.10403 1.16560
 H548 H 0.50529 0.13764 1.13273
 H549 H 0.60724 0.14325 1.13912
 H550 H 0.58874 0.10750 1.17074
 H551 H 0.55267 0.17823 1.10917
 H552 H 0.61011 0.15564 1.10489
 H553 H 0.65924 0.19884 1.08381
 H554 H 0.68139 0.23898 1.05331
 H555 H 0.57937 0.23252 1.04426
 H556 H 0.55719 0.19209 1.07448
 C557 C 0.40274 0.51457 1.16545
 C558 C 0.38949 0.52363 1.14734
 C559 C 0.41088 0.55333 1.13497
 C560 C 0.44588 0.57409 1.14125
 C561 C 0.45908 0.56508 1.15938
 C562 C 0.43765 0.53531 1.17173
 C563 C 0.39533 0.56277 1.11641
 C564 C 0.41415 0.58221 1.09976
 C565 C 0.39930 0.59349 1.08162
 C566 C 0.42217 0.62200 1.06893
 C567 C 0.40961 0.63416 1.05189
 C568 C 0.37377 0.61792 1.04703
 C569 C 0.35087 0.58893 1.05947
 C570 C 0.36346 0.57673 1.07652
 H571 H 0.38544 0.49179 1.17483
 H572 H 0.36236 0.50744 1.14302
 H573 H 0.46299 0.59782 1.13260
 H574 H 0.48613 0.58149 1.16378
 H575 H 0.36739 0.55324 1.11677
 H576 H 0.44204 0.59124 1.09949
 H577 H 0.44991 0.63526 1.07237
 H578 H 0.42803 0.65650 1.04263
 H579 H 0.32314 0.57559 1.05604
 H580 H 0.34497 0.55397 1.08537
 C581 C 0.10652 0.51987 1.16088
 C582 C 0.12684 0.52960 1.14228
 C583 C 0.14136 0.56446 1.13457
 C584 C 0.13520 0.58955 1.14601
 C585 C 0.11480 0.57977 1.16460
 C586 C 0.10039 0.54488 1.17229
 C587 C 0.16386 0.57364 1.11521
 C588 C 0.17188 0.60244 1.10312
 C589 C 0.19550 0.61199 1.08430
 C590 C 0.21309 0.64759 1.07801
 C591 C 0.23597 0.65795 1.06057
 C592 C 0.24151 0.63281 1.04884
 C593 C 0.22334 0.59702 1.05485
 C594 C 0.20051 0.58667 1.07234
 H595 H 0.09547 0.49268 1.16629
 H596 H 0.13126 0.50977 1.13387
 H597 H 0.14676 0.61697 1.14114
 H598 H 0.11109 0.59977 1.17330
 H599 H 0.17427 0.55575 1.11096
 H600 H 0.16176 0.62057 1.10732
 H601 H 0.20946 0.66757 1.08681
 H602 H 0.24939 0.68573 1.05633
 H603 H 0.22675 0.57691 1.04605
 H604 H 0.18654 0.55880 1.07617
 C605 C 0.40532 0.90145 1.15998
 C606 C 0.39457 0.88102 1.14132
 C607 C 0.41335 0.86403 1.13337
 C608 C 0.44312 0.86771 1.14466
 C609 C 0.45389 0.88818 1.16331
 C610 C 0.43504 0.90516 1.17122
 C611 C 0.40005 0.84156 1.11396
 C612 C 0.41974 0.83221 1.10147
 C613 C 0.40590 0.80834 1.08269
 C614 C 0.42353 0.78947 1.07596
 C615 C 0.41119 0.76615 1.05863
 C616 C 0.38106 0.76141 1.04743
 C617 C 0.36382 0.78091 1.05384
 C618 C 0.37612 0.80420 1.07125
 H619 H 0.39045 0.91450 1.16555
 H620 H 0.37147 0.87851 1.13305
 H621 H 0.45770 0.85411 1.13961
 H622 H 0.47647 0.88996 1.17187
 H623 H 0.37281 0.83236 1.11004
 H624 H 0.44696 0.84133 1.10535
 H625 H 0.44669 0.79240 1.08435
 H626 H 0.42525 0.75170 1.05408
 H627 H 0.34070 0.77812 1.04547
 H628 H 0.36244 0.81913 1.07544
 C629 C 0.52004 0.40441 0.66257
 C630 C 0.52914 0.39388 0.64336
 C631 C 0.55931 0.41694 0.63212
 C632 C 0.57976 0.45128 0.64024
 C633 C 0.57070 0.46176 0.65948
 C634 C 0.54091 0.43837 0.67093
 C635 C 0.56813 0.40411 0.61204
 C636 C 0.60018 0.41864 0.60330
 C637 C 0.60919 0.40448 0.58388
 C638 C 0.63850 0.42709 0.57181
 C639 C 0.64881 0.41447 0.55391
 C640 C 0.63017 0.37877 0.54780
 C641 C 0.60082 0.35610 0.55990
 C642 C 0.59049 0.36874 0.57776
 H643 H 0.49703 0.38574 0.67109
 H644 H 0.51278 0.36738 0.63742
 H645 H 0.60247 0.47043 0.63177
 H646 H 0.58681 0.48839 0.66528
 H647 H 0.54731 0.38110 0.60458
 H648 H 0.62107 0.44180 0.61054
 H649 H 0.65357 0.45464 0.57629
 H650 H 0.67168 0.43261 0.54504
 H651 H 0.58605 0.32836 0.55579
 H652 H 0.56850 0.35009 0.58701
 C653 C 0.51537 0.11348 0.66210
 C654 C 0.52526 0.13319 0.64314
 C655 C 0.55306 0.13469 0.63076
 C656 C 0.57001 0.11492 0.63737
 C657 C 0.56027 0.09542 0.65638
 C658 C 0.53310 0.09477 0.66905
 C659 C 0.56335 0.15689 0.61111
 C660 C 0.59511 0.16946 0.60214
 C661 C 0.60659 0.19328 0.58321
 C662 C 0.64252 0.21245 0.57911
 C663 C 0.65485 0.23551 0.56166
 C664 C 0.63145 0.23989 0.54780
 C665 C 0.59541 0.22031 0.55167
 C666 C 0.58306 0.19710 0.56910
 H667 H 0.49440 0.11353 0.67159
 H668 H 0.51152 0.14785 0.63834
 H669 H 0.59056 0.11405 0.62789
 H670 H 0.57381 0.08054 0.66112
 H671 H 0.54469 0.16483 0.60482
 H672 H 0.61465 0.16391 0.60963
 H673 H 0.66124 0.20987 0.58958
 H674 H 0.68278 0.25013 0.55917
 H675 H 0.57667 0.22280 0.54118
 H676 H 0.55513 0.18205 0.57119
 C677 C 0.89490 0.48441 0.66282
 C678 C 0.87552 0.47518 0.64382
 C679 C 0.86961 0.44433 0.63260
 C680 C 0.88437 0.42329 0.64056
 C681 C 0.90372 0.43251 0.65958
 C682 C 0.90901 0.46303 0.67099
 C683 C 0.84835 0.43554 0.61269
 C684 C 0.83239 0.40303 0.60402
 C685 C 0.80980 0.39421 0.58471
 C686 C 0.80423 0.36428 0.57260
 C687 C 0.78218 0.35434 0.55471
 C688 C 0.76494 0.37401 0.54863
 C689 C 0.77040 0.40389 0.56083
 C690 C 0.79244 0.41383 0.57868
 H691 H 0.89831 0.50795 0.67132
 H692 H 0.86466 0.49199 0.63802
 H693 H 0.88164 0.40003 0.63209
 H694 H 0.91497 0.41597 0.66522
 H695 H 0.84520 0.45685 0.60530
 H696 H 0.83564 0.38163 0.61119
 H697 H 0.81698 0.34849 0.57702
 H698 H 0.77841 0.33104 0.54577
 H699 H 0.75725 0.41944 0.55677
 H700 H 0.79492 0.43630 0.58797
 C701 C 0.48194 0.58924 0.66220
 C702 C 0.47386 0.60078 0.64300
 C703 C 0.44399 0.57854 0.63121
 C704 C 0.42282 0.54397 0.63877
 C705 C 0.43086 0.53248 0.65800
 C706 C 0.46035 0.55506 0.67000
 C707 C 0.43626 0.59238 0.61114
 C708 C 0.40449 0.57875 0.60206
 C709 C 0.39642 0.59353 0.58253
 C710 C 0.36688 0.57162 0.57040
 C711 C 0.35733 0.58476 0.55242
 C712 C 0.37700 0.62032 0.54625
 C713 C 0.40664 0.64229 0.55838
 C714 C 0.41621 0.62912 0.57634
 H715 H 0.50473 0.60732 0.67115
 H716 H 0.49077 0.62743 0.63750
 H717 H 0.40033 0.52541 0.62986
 H718 H 0.41420 0.50570 0.66336
 H719 H 0.45764 0.61529 0.60402
 H720 H 0.38306 0.55578 0.60907
 H721 H 0.35100 0.54421 0.57492
 H722 H 0.33423 0.56714 0.54354
 H723 H 0.42219 0.66991 0.55421
 H724 H 0.43849 0.64727 0.58560
 C725 C 0.40116 0.88603 0.66484
 C726 C 0.39018 0.86521 0.64637
 C727 C 0.41301 0.85632 0.63505
 C728 C 0.44725 0.86853 0.64272
 C729 C 0.45835 0.88935 0.66124
 C730 C 0.43548 0.89846 0.67283
 C731 C 0.39946 0.83314 0.61597
 C732 C 0.41969 0.83119 0.60021
 C733 C 0.40555 0.80756 0.58133
 C734 C 0.42755 0.79731 0.57005
 C735 C 0.41506 0.77449 0.55244
 C736 C 0.38025 0.76157 0.54564
 C737 C 0.35848 0.77257 0.55659
 C738 C 0.37099 0.79544 0.57412
 H739 H 0.38267 0.89316 0.67225
 H740 H 0.36366 0.85626 0.64078
 H741 H 0.46535 0.86121 0.63493
 H742 H 0.48447 0.89662 0.66686
 H743 H 0.37143 0.81726 0.61502
 H744 H 0.44775 0.84684 0.60119
 H745 H 0.45438 0.80655 0.57510
 H746 H 0.43256 0.76663 0.54434
 H747 H 0.33167 0.76353 0.55161
 H748 H 0.35352 0.80377 0.58173
 C749 C 0.10767 0.52304 0.65957
 C750 C 0.12684 0.53174 0.64050
 C751 C 0.13951 0.56559 0.63151
 C752 C 0.13184 0.59049 0.64188
 C753 C 0.11286 0.58194 0.66102
 C754 C 0.10051 0.54808 0.67042
 C755 C 0.16032 0.57338 0.61141
 C756 C 0.17936 0.60598 0.60333
 C757 C 0.20106 0.61319 0.58373
 C758 C 0.20904 0.64410 0.57199
 C759 C 0.23052 0.65262 0.55390
 C760 C 0.24488 0.63057 0.54727
 C761 C 0.23699 0.59965 0.55908
 C762 C 0.21539 0.59107 0.57711
 H763 H 0.10003 0.49701 0.66613
 H764 H 0.13231 0.51195 0.63292
 H765 H 0.13978 0.61651 0.63528
 H766 H 0.10682 0.60180 0.66785
 H767 H 0.16018 0.55099 0.60314
 H768 H 0.17932 0.62865 0.61104
 H769 H 0.19864 0.66177 0.57687
 H770 H 0.23625 0.67676 0.54528
 H771 H 0.24786 0.58223 0.55455
 H772 H 0.21089 0.56765 0.58611
 C773 C 0.47714 0.58571 0.83789
 C774 C 0.46825 0.59848 0.85626
 C775 C 0.43494 0.58000 0.86540
 C776 C 0.41047 0.54842 0.85566
 C777 C 0.41933 0.53572 0.83718
 C778 C 0.45272 0.55432 0.82803
 C779 C 0.42638 0.59552 0.88434
 C780 C 0.40188 0.57640 0.89882
 C781 C 0.39285 0.59193 0.91767
 C782 C 0.36135 0.57129 0.92848
 C783 C 0.35142 0.58486 0.94611
 C784 C 0.37284 0.61948 0.95336
 C785 C 0.40466 0.63995 0.94281
 C786 C 0.41470 0.62633 0.92530
 H787 H 0.50325 0.60041 0.83145
 H788 H 0.48753 0.62291 0.86340
 H789 H 0.38417 0.53401 0.86180
 H790 H 0.39970 0.51183 0.82974
 H791 H 0.44139 0.62383 0.88625
 H792 H 0.38726 0.54802 0.89677
 H793 H 0.34413 0.54464 0.92312
 H794 H 0.32674 0.56835 0.95388
 H795 H 0.42201 0.66656 0.94816
 H796 H 0.43978 0.64289 0.91810
 C797 C 0.12056 0.53126 0.83481
 C798 C 0.14090 0.54024 0.85338
 C799 C 0.14694 0.57049 0.86517
 C800 C 0.13225 0.59189 0.85787
 C801 C 0.11186 0.58301 0.83924
 C802 C 0.10571 0.55257 0.82716
 C803 C 0.16983 0.57927 0.88433
 C804 C 0.16998 0.60048 0.90030
 C805 C 0.19348 0.60917 0.91919
 C806 C 0.20171 0.64043 0.93062
 C807 C 0.22438 0.64999 0.94820
 C808 C 0.23916 0.62831 0.95485
 C809 C 0.23017 0.59653 0.94376
 C810 C 0.20747 0.58695 0.92624
 H811 H 0.11573 0.50676 0.82703
 H812 H 0.15177 0.52316 0.85868
 H813 H 0.13725 0.61616 0.86604
 H814 H 0.10257 0.60131 0.83393
 H815 H 0.18715 0.56736 0.88514
 H816 H 0.15296 0.61273 0.89949
 H817 H 0.19100 0.65783 0.92570
 H818 H 0.23065 0.67461 0.95641
 H819 H 0.24071 0.57897 0.94861
 H820 H 0.20075 0.56192 0.91850
 C821 C 0.40418 0.90234 0.84044
 C822 C 0.39287 0.88248 0.85929
 C823 C 0.40986 0.86374 0.86723
 C824 C 0.43847 0.86511 0.85577
 C825 C 0.44993 0.88502 0.83698
 C826 C 0.43293 0.90395 0.82874
 C827 C 0.39589 0.84187 0.88684
 C828 C 0.41410 0.82990 0.89879
 C829 C 0.39976 0.80664 0.91781
 C830 C 0.42315 0.80272 0.93187
 C831 C 0.41095 0.77999 0.94950
 C832 C 0.37495 0.76056 0.95348
 C833 C 0.35147 0.76449 0.93946
 C834 C 0.36366 0.78706 0.92176
 H835 H 0.38900 0.91493 0.83475
 H836 H 0.37038 0.88147 0.86759
 H837 H 0.45196 0.85046 0.86093
 H838 H 0.47290 0.88606 0.82942
 H839 H 0.36985 0.83637 0.89172
 H840 H 0.44116 0.83800 0.89496
 H841 H 0.45105 0.81719 0.92915
 H842 H 0.42976 0.77755 0.95995
 H843 H 0.32354 0.74958 0.94191
 H844 H 0.34456 0.78823 0.91104
 C845 C 0.52336 0.41253 0.84062
 C846 C 0.53348 0.40124 0.85916
 C847 C 0.56791 0.41931 0.86678
 C848 C 0.59219 0.44896 0.85529
 C849 C 0.58203 0.46028 0.83675
 C850 C 0.54756 0.44211 0.82916
 C851 C 0.57757 0.40537 0.88610
 C852 C 0.60578 0.42449 0.89823
 C853 C 0.61603 0.40993 0.91699
 C854 C 0.65114 0.42646 0.92343
 C855 C 0.66222 0.41350 0.94080
 C856 C 0.63830 0.38381 0.95234
 C857 C 0.60296 0.36765 0.94619
 C858 C 0.59190 0.38059 0.92875
 H859 H 0.49651 0.39818 0.83530
 H860 H 0.51428 0.37825 0.86760
 H861 H 0.61927 0.46300 0.86009
 H862 H 0.60143 0.48272 0.82802
 H863 H 0.56056 0.37808 0.89027
 H864 H 0.62292 0.45174 0.89410
 H865 H 0.67022 0.44927 0.91478
 H866 H 0.68961 0.42672 0.94513
 H867 H 0.58379 0.34493 0.95483
 H868 H 0.56440 0.36779 0.92482
 C869 C 0.90319 0.48276 0.84061
 C870 C 0.88317 0.47299 0.85934
 C871 C 0.86921 0.43824 0.86720
 C872 C 0.87560 0.41331 0.85575
 C873 C 0.89568 0.42312 0.83702
 C874 C 0.90955 0.45791 0.82919
 C875 C 0.84695 0.42898 0.88669
 C876 C 0.83948 0.40040 0.89888
 C877 C 0.81593 0.39062 0.91776
 C878 C 0.79893 0.35505 0.92416
 C879 C 0.77595 0.34440 0.94155
 C880 C 0.76970 0.36922 0.95314
 C881 C 0.78738 0.40502 0.94707
 C882 C 0.81031 0.41565 0.92962
 H883 H 0.91383 0.50987 0.83511
 H884 H 0.87857 0.49270 0.86774
 H885 H 0.86446 0.38596 0.86073
 H886 H 0.89957 0.40322 0.82833
 H887 H 0.83622 0.44661 0.89093
 H888 H 0.84996 0.38256 0.89469
 H889 H 0.80303 0.33528 0.91544
 H890 H 0.76292 0.31663 0.94583
 H891 H 0.78341 0.42489 0.95575
 H892 H 0.82381 0.44351 0.92571
 C893 C 0.52043 0.11355 0.83656
 C894 C 0.53082 0.13460 0.85495
 C895 C 0.56360 0.14437 0.86425
 C896 C 0.58602 0.13279 0.85463
 C897 C 0.57567 0.11183 0.83613
 C898 C 0.54282 0.10213 0.82682
 C899 C 0.57387 0.16798 0.88323
 C900 C 0.59751 0.16963 0.89777
 C901 C 0.60809 0.19368 0.91664
 C902 C 0.63935 0.20075 0.92724
 C903 C 0.65071 0.22364 0.94486
 C904 C 0.63096 0.23997 0.95232
 C905 C 0.59933 0.23236 0.94200
 C906 C 0.58787 0.20933 0.92449
 H907 H 0.49474 0.10611 0.83001
 H908 H 0.51310 0.14324 0.86200
 H909 H 0.61193 0.14067 0.86090
 H910 H 0.59378 0.10402 0.82879
 H911 H 0.56089 0.18426 0.88511
 H912 H 0.61023 0.15310 0.89575
 H913 H 0.65531 0.18885 0.92170
 H914 H 0.67519 0.22889 0.95245
 H915 H 0.58324 0.24411 0.94752
 H916 H 0.56299 0.20374 0.91746
   
