data_POSCAR
  _audit_creation_date              2014-09-24
  _audit_creation_method            'ToBaCCo'
  _symmetry_space_group_name_H-M    'P1'
  _symmetry_Int_Tables_number       1
  _symmetry_cell_setting            triclinic
  loop_
  _symmetry_equiv_pos_as_xyz
 x,y,z
_cell_length_a 26.7307
_cell_length_b 45.5303
_cell_length_c 42.8609
_cell_angle_alpha 90.093700
_cell_angle_beta 90.061800
_cell_angle_gamma 90.425400
loop_
  _atom_site_label
  _atom_site_type_symbol
  _atom_site_fract_x
  _atom_site_fract_y
  _atom_site_fract_z
O1 O 0.26361 0.27807 0.20985
 O2 O 0.30882 0.22066 0.26316
 O3 O 0.26458 0.22097 0.20880
 O4 O 0.30792 0.27787 0.26378
 O5 O 0.23380 0.27770 0.28632
 O6 O 0.19244 0.21839 0.23350
 O7 O 0.23606 0.22058 0.28737
 O8 O 0.18920 0.27563 0.23198
 Cu9 Cu 0.29361 0.24947 0.23407
 Cu10 Cu 0.20548 0.24806 0.26211
 C11 C 0.21848 0.28644 0.21160
 C12 C 0.28027 0.21091 0.28454
 C13 C 0.22128 0.20961 0.21189
 C14 C 0.27819 0.28772 0.28432
 O15 O 0.69033 0.27852 0.26559
 O16 O 0.73504 0.22288 0.20992
 O17 O 0.69115 0.22181 0.26443
 O18 O 0.73417 0.28014 0.21130
 O19 O 0.80793 0.28030 0.23429
 O20 O 0.76514 0.22182 0.28734
 O21 O 0.80872 0.22322 0.23311
 O22 O 0.76439 0.27915 0.28842
 Cu23 Cu 0.70534 0.25077 0.23541
 Cu24 Cu 0.79393 0.25113 0.26310
 C25 C 0.71969 0.28829 0.28656
 C26 C 0.77960 0.21353 0.21198
 C27 C 0.72066 0.21201 0.28512
 C28 C 0.77844 0.29033 0.21367
 O29 O 0.76660 0.77932 0.70977
 O30 O 0.81054 0.72350 0.76527
 O31 O 0.76684 0.72204 0.71098
 O32 O 0.80990 0.78077 0.76401
 O33 O 0.73617 0.78077 0.78691
 O34 O 0.69278 0.72239 0.73370
 O35 O 0.73671 0.72337 0.78817
 O36 O 0.69256 0.77901 0.73252
 Cu37 Cu 0.79590 0.75138 0.73526
 Cu38 Cu 0.70726 0.75136 0.76276
 C39 C 0.72197 0.78857 0.71155
 C40 C 0.78115 0.71382 0.78619
 C41 C 0.72223 0.71241 0.71308
 C42 C 0.78038 0.79100 0.78450
 O43 O 0.31235 0.77877 0.73616
 O44 O 0.26943 0.72141 0.79065
 O45 O 0.31260 0.72154 0.73627
 O46 O 0.26933 0.77874 0.79060
 O47 O 0.19494 0.77747 0.76842
 O48 O 0.23869 0.72123 0.71336
 O49 O 0.19537 0.72105 0.76780
 O50 O 0.23812 0.77859 0.71367
 Cu51 Cu 0.29838 0.75017 0.76567
 Cu52 Cu 0.20948 0.74959 0.73837
 C53 C 0.28255 0.78855 0.71561
 C54 C 0.22489 0.71162 0.78867
 C55 C 0.28303 0.71156 0.71552
 C56 C 0.22438 0.78761 0.78917
 C57 C 0.97520 0.00024 -0.00053
 C58 C 1.02564 -0.00340 0.00198
 C59 C 1.05575 0.01644 0.02204
 C60 C 1.05238 -0.02647 -0.01585
 C61 C 0.94576 -0.01569 -0.02458
 C62 C 0.94809 0.02025 0.02082
 C63 C 1.06059 0.04625 0.01428
 C64 C 1.08399 0.06578 0.03487
 C65 C 1.10200 0.05580 0.06367
 C66 C 1.09829 0.02586 0.07112
 C67 C 1.07594 0.00618 0.05016
 C68 C 1.09365 -0.01903 -0.03455
 C69 C 1.11561 -0.04014 -0.05381
 C70 C 1.09641 -0.06893 -0.05473
 C71 C 1.05670 -0.07667 -0.03493
 C72 C 1.03539 -0.05574 -0.01531
 C73 C 0.90891 -0.03603 -0.01566
 C74 C 0.88670 -0.05445 -0.03791
 C75 C 0.90037 -0.05246 -0.06956
 C76 C 0.93501 -0.03066 -0.07857
 C77 C 0.95758 -0.01251 -0.05627
 C78 C 0.95120 0.01630 0.05322
 C79 C 0.93052 0.03688 0.07350
 C80 C 0.90553 0.06154 0.06176
 C81 C 0.90010 0.06465 0.02929
 C82 C 0.92127 0.04413 0.00896
 H83 H 1.04504 0.05444 -0.00734
 H84 H 1.08637 0.08885 0.02890
 H85 H 1.11200 0.01789 0.09331
 H86 H 1.07220 -0.01676 0.05647
 H87 H 1.10761 0.00335 -0.03514
 H88 H 1.14622 -0.03372 -0.06892
 H89 H 1.00463 -0.06218 -0.00034
 H90 H 0.89948 -0.03879 0.00874
 H91 H 0.86059 -0.07115 -0.03006
 H92 H 0.94548 -0.02800 -0.10280
 H93 H 0.98557 0.00337 -0.06356
 H94 H 0.97069 -0.00241 0.06279
 H95 H 0.93435 0.03363 0.09841
 H96 H 0.88108 0.08350 0.01966
 H97 H 0.91833 0.04744 -0.01599
 H98 H 1.04185 -0.09887 -0.03490
 C99 C 0.47251 0.49908 0.50069
 C100 C 0.52359 0.49901 0.50073
 C101 C 0.55245 0.52125 0.51884
 C102 C 0.55178 0.47680 0.48255
 C103 C 0.44365 0.48151 0.47761
 C104 C 0.44423 0.51686 0.52361
 C105 C 0.54195 0.55125 0.51539
 C106 C 0.56360 0.57192 0.53539
 C107 C 0.59708 0.56307 0.55874
 C108 C 0.61024 0.53330 0.56082
 C109 C 0.58800 0.51251 0.54099
 C110 C 0.58790 0.48561 0.46069
 C111 C 0.60966 0.46492 0.44080
 C112 C 0.59546 0.43518 0.44251
 C113 C 0.56133 0.42624 0.46553
 C114 C 0.54016 0.44680 0.48561
 C115 C 0.40984 0.45981 0.48759
 C116 C 0.38815 0.44048 0.46599
 C117 C 0.39960 0.44277 0.43403
 C118 C 0.43122 0.46569 0.42402
 C119 C 0.45293 0.48490 0.44559
 C120 C 0.45338 0.51366 0.55567
 C121 C 0.43237 0.53311 0.57706
 C122 C 0.40159 0.55607 0.56682
 C123 C 0.39030 0.55821 0.53482
 C124 C 0.41128 0.53864 0.51341
 H125 H 0.51553 0.55852 0.49791
 H126 H 0.55360 0.59481 0.53295
 H127 H 0.63601 0.52598 0.57865
 H128 H 0.59680 0.48949 0.54387
 H129 H 0.59756 0.50862 0.45810
 H130 H 0.63593 0.47232 0.42322
 H131 H 0.51329 0.43946 0.50287
 H132 H 0.40227 0.45691 0.51222
 H133 H 0.36418 0.42296 0.47445
 H134 H 0.43984 0.46846 0.39952
 H135 H 0.47837 0.50185 0.43745
 H136 H 0.47819 0.49667 0.56399
 H137 H 0.44084 0.53046 0.60160
 H138 H 0.36699 0.57576 0.52617
 H139 H 0.40386 0.54143 0.48874
 H140 H 0.55052 0.40336 0.46768
 C141 C 0.02303 0.50202 0.00256
 C142 C -0.02803 0.50282 0.00239
 C143 C -0.05765 0.48551 0.02518
 C144 C -0.05552 0.52104 -0.02053
 C145 C 0.05290 0.52390 -0.01527
 C146 C 0.05021 0.47934 0.02069
 C147 C -0.09174 0.46406 0.01485
 C148 C -0.11369 0.44465 0.03616
 C149 C -0.10221 0.44662 0.06815
 C150 C -0.07047 0.46938 0.07854
 C151 C -0.04850 0.48867 0.05726
 C152 C -0.04618 0.51792 -0.05258
 C153 C -0.06698 0.53746 -0.07393
 C154 C -0.09774 0.56044 -0.06368
 C155 C -0.10906 0.56258 -0.03169
 C156 C -0.08829 0.54293 -0.01031
 C157 C 0.04347 0.55403 -0.01173
 C158 C 0.06585 0.57441 -0.03163
 C159 C 0.09901 0.56513 -0.05495
 C160 C 0.11125 0.53522 -0.05705
 C161 C 0.08826 0.51471 -0.03732
 C162 C 0.08663 0.48757 0.04268
 C163 C 0.10779 0.46648 0.06230
 C164 C 0.09270 0.43689 0.06022
 C165 C 0.05807 0.42854 0.03716
 C166 C 0.03750 0.44951 0.01733
 H167 H -0.09919 0.46134 -0.00984
 H168 H -0.13777 0.42726 0.02742
 H169 H -0.06184 0.47189 0.10309
 H170 H -0.02281 0.50542 0.06566
 H171 H -0.02156 0.50084 -0.06093
 H172 H -0.05848 0.53479 -0.09846
 H173 H -0.09588 0.54566 0.01433
 H174 H 0.01720 0.56162 0.00568
 H175 H 0.05655 0.59742 -0.02922
 H176 H 0.13676 0.52759 -0.07486
 H177 H 0.09625 0.49159 -0.04025
 H178 H 0.09713 0.51044 0.04551
 H179 H 0.13446 0.47344 0.07991
 H180 H 0.04658 0.40579 0.03469
 H181 H 0.01039 0.44260 -0.00003
 H182 H -0.13235 0.58015 -0.02302
 C183 C 0.52527 0.99866 0.49757
 C184 C 0.47420 0.99876 0.49788
 C185 C 0.44574 0.98126 0.52112
 C186 C 0.44559 1.01657 0.47517
 C187 C 0.55386 1.02088 0.47940
 C188 C 0.55373 0.97645 0.51554
 C189 C 0.41180 0.95950 0.51132
 C190 C 0.39055 0.94021 0.53304
 C191 C 0.40255 0.94260 0.56493
 C192 C 0.43433 0.96555 0.57477
 C193 C 0.45561 0.98472 0.55308
 C194 C 0.45421 1.01338 0.44305
 C195 C 0.43302 1.03290 0.42184
 C196 C 0.40256 1.05593 0.43233
 C197 C 0.39182 1.05808 0.46439
 C198 C 0.41298 1.03844 0.48562
 C199 C 0.54348 1.05089 0.48301
 C200 C 0.56479 1.07154 0.46296
 C201 C 0.59783 1.06265 0.43940
 C202 C 0.61092 1.03288 0.43714
 C203 C 0.58900 1.01211 0.45702
 C204 C 0.59009 0.98527 0.53731
 C205 C 0.61204 0.96459 0.55708
 C206 C 0.59778 0.93485 0.55532
 C207 C 0.56344 0.92590 0.53235
 C208 C 0.54206 0.94647 0.51240
 H209 H 0.40379 0.95653 0.48674
 H210 H 0.36644 0.92266 0.52470
 H211 H 0.44338 0.96841 0.59922
 H212 H 0.48118 1.00170 0.56109
 H213 H 0.47878 0.99634 0.43454
 H214 H 0.44107 1.03024 0.39725
 H215 H 0.40598 1.04124 0.51033
 H216 H 0.51739 1.05818 0.50067
 H217 H 0.55487 1.09444 0.46552
 H218 H 0.63637 1.02555 0.41914
 H219 H 0.59770 0.98908 0.45402
 H220 H 0.59978 1.00828 0.53996
 H221 H 0.63847 0.97198 0.57463
 H222 H 0.55258 0.90302 0.53017
 H223 H 0.51498 0.93913 0.49521
 H224 H 0.36878 1.07568 0.47323
 C225 C 1.17294 0.14291 0.15027
 C226 C 1.21757 0.15821 0.14400
 C227 C 1.23396 0.18003 0.16485
 C228 C 1.20525 0.18730 0.19139
 C229 C 1.16015 0.17180 0.19701
 C230 C 1.14427 0.14935 0.17679
 C231 C 1.15569 0.11985 0.12849
 C232 C 1.11155 0.10412 0.13510
 C233 C 1.09504 0.08243 0.11417
 C234 C 1.12180 0.07702 0.08657
 C235 C 1.16587 0.09291 0.08018
 C236 C 1.18336 0.11419 0.10131
 C237 C 1.10030 0.13314 0.18260
 C238 C 1.08448 0.11073 0.16226
 C239 C 1.24471 0.15156 0.11685
 C240 C 1.22770 0.13008 0.09575
 H241 H 1.07800 0.13776 0.20310
 H242 H 1.05063 0.09859 0.16772
 H243 H 1.27916 0.16327 0.11171
 H244 H 1.24947 0.12585 0.07493
 H245 H 1.26856 0.19172 0.15996
 H246 H 1.13769 0.17683 0.21735
 H247 H 1.06074 0.07033 0.11879
 H248 H 1.18629 0.08865 0.05882
 C249 C 0.66922 0.64782 0.64814
 C250 C 0.72068 0.64982 0.65453
 C251 C 0.73799 0.67105 0.67581
 C252 C 0.70406 0.68975 0.69104
 C253 C 0.65252 0.68714 0.68466
 C254 C 0.63493 0.66643 0.66297
 C255 C 0.65089 0.62596 0.62533
 C256 C 0.59959 0.62453 0.61837
 C257 C 0.58241 0.60395 0.59645
 C258 C 0.61605 0.58472 0.58174
 C259 C 0.66732 0.58623 0.58917
 C260 C 0.68504 0.60704 0.61080
 C261 C 0.58384 0.66418 0.65554
 C262 C 0.56652 0.64371 0.63345
 C263 C 0.75373 0.63060 0.63943
 C264 C 0.73618 0.60948 0.61805
 H265 H 0.55705 0.67851 0.66671
 H266 H 0.52694 0.64295 0.62806
 H267 H 0.79349 0.63187 0.64421
 H268 H 0.76292 0.59507 0.60697
 H269 H 0.77768 0.67286 0.68072
 H270 H 0.62624 0.70165 0.69607
 H271 H 0.54279 0.60259 0.59110
 H272 H 0.69332 0.57158 0.57773
 C273 C -0.17200 0.35717 0.15286
 C274 C -0.22103 0.34624 0.15005
 C275 C -0.23742 0.32405 0.17035
 C276 C -0.20512 0.31268 0.19343
 C277 C -0.15595 0.32409 0.19582
 C278 C -0.13927 0.34627 0.17562
 C279 C -0.15452 0.38039 0.13145
 C280 C -0.10542 0.39123 0.13421
 C281 C -0.08878 0.41304 0.11359
 C282 C -0.12091 0.42415 0.09039
 C283 C -0.17018 0.41312 0.08809
 C284 C -0.18716 0.39120 0.10856
 C285 C -0.09044 0.35777 0.17773
 C286 C -0.07384 0.37991 0.15741
 C287 C -0.25268 0.35769 0.12694
 C288 C -0.23603 0.37979 0.10654
 H289 H -0.06482 0.34958 0.19522
 H290 H -0.03598 0.38825 0.15990
 H291 H -0.29063 0.34946 0.12454
 H292 H -0.26160 0.38796 0.08900
 H293 H -0.27532 0.31567 0.16806
 H294 H -0.13045 0.31575 0.21333
 H295 H -0.05050 0.42093 0.11520
 H296 H -0.19530 0.42171 0.07052
 C297 C 0.33291 0.85503 0.65199
 C298 C 0.28382 0.84408 0.64953
 C299 C 0.26745 0.82240 0.67046
 C300 C 0.29983 0.81164 0.69371
 C301 C 0.34896 0.82297 0.69583
 C302 C 0.36568 0.84466 0.67504
 C303 C 0.35041 0.87771 0.62994
 C304 C 0.39953 0.88859 0.63237
 C305 C 0.41617 0.90990 0.61116
 C306 C 0.38401 0.92049 0.58769
 C307 C 0.33472 0.90943 0.58573
 C308 C 0.31775 0.88800 0.60678
 C309 C 0.41452 0.85617 0.67680
 C310 C 0.43111 0.87782 0.65588
 C311 C 0.25216 0.85500 0.62613
 C312 C 0.26883 0.87658 0.60512
 H313 H 0.44015 0.84839 0.69451
 H314 H 0.46897 0.88622 0.65814
 H315 H 0.21419 0.84675 0.62399
 H316 H 0.24324 0.88435 0.58739
 H317 H 0.22959 0.81388 0.66857
 H318 H 0.37424 0.81490 0.71360
 H319 H 0.45445 0.91782 0.61255
 H320 H 0.30953 0.91764 0.56799
 C321 C -0.16764 0.64815 -0.14993
 C322 C -0.21642 0.65903 -0.14703
 C323 C -0.23302 0.68054 -0.16795
 C324 C -0.20116 0.69119 -0.19164
 C325 C -0.15228 0.67999 -0.19414
 C326 C -0.13536 0.65846 -0.17337
 C327 C -0.15000 0.62553 -0.12800
 C328 C -0.10123 0.61465 -0.13094
 C329 C -0.08450 0.59333 -0.10990
 C330 C -0.11625 0.58270 -0.08613
 C331 C -0.16518 0.59380 -0.08365
 C332 C -0.18222 0.61525 -0.10451
 C333 C -0.08684 0.64698 -0.17561
 C334 C -0.07011 0.62539 -0.15480
 C335 C -0.24762 0.64816 -0.12327
 C336 C -0.23081 0.62664 -0.10238
 H337 H -0.06160 0.65470 -0.19363
 H338 H -0.03256 0.61699 -0.15747
 H339 H -0.28535 0.65636 -0.12078
 H340 H -0.25606 0.61888 -0.08438
 H341 H -0.27068 0.68896 -0.16577
 H342 H -0.12741 0.68795 -0.21226
 H343 H -0.04648 0.58538 -0.11171
 H344 H -0.19008 0.58556 -0.06569
 C345 C 0.33222 1.14448 0.34723
 C346 C 0.28365 1.15554 0.35063
 C347 C 0.26695 1.17731 0.33010
 C348 C 0.29844 1.18806 0.30627
 C349 C 0.34712 1.17669 0.30324
 C350 C 0.36418 1.15488 0.32366
 C351 C 0.34995 1.12157 0.36879
 C352 C 0.39851 1.11051 0.36540
 C353 C 0.41535 1.08895 0.38614
 C354 C 0.38390 1.07830 0.41005
 C355 C 0.33515 1.08954 0.41295
 C356 C 0.31802 1.11122 0.39241
 C357 C 0.41250 1.14319 0.32095
 C358 C 0.42932 1.12133 0.34142
 C359 C 0.25274 1.14458 0.37450
 C360 C 0.26963 1.12280 0.39502
 H361 H 0.43751 1.15098 0.30284
 H362 H 0.46672 1.11279 0.33841
 H363 H 0.21517 1.15294 0.37734
 H364 H 0.24462 1.11499 0.41313
 H365 H 0.22943 1.18584 0.33269
 H366 H 0.37168 1.18473 0.28500
 H367 H 0.45324 1.08086 0.38401
 H368 H 0.31047 1.08128 0.43101
 C369 C 1.17093 -0.15146 -0.14487
 C370 C 1.22246 -0.15693 -0.14656
 C371 C 1.24017 -0.17734 -0.16841
 C372 C 1.20685 -0.19166 -0.18917
 C373 C 1.15526 -0.18531 -0.18742
 C374 C 1.13709 -0.16568 -0.16500
 C375 C 1.15199 -0.13049 -0.12151
 C376 C 1.10028 -0.12575 -0.11921
 C377 C 1.08240 -0.10589 -0.09694
 C378 C 1.11590 -0.09048 -0.07743
 C379 C 1.16767 -0.09535 -0.08007
 C380 C 1.18591 -0.11563 -0.10191
 C381 C 1.08562 -0.16026 -0.16206
 C382 C 1.06751 -0.14085 -0.13934
 C383 C 1.25522 -0.14188 -0.12632
 C384 C 1.23729 -0.12143 -0.10452
 H385 H 1.05907 -0.17129 -0.17727
 H386 H 1.02756 -0.13763 -0.13752
 H387 H 1.29510 -0.14583 -0.12743
 H388 H 1.26385 -0.11019 -0.08949
 H389 H 1.27995 -0.18175 -0.16944
 H390 H 1.12890 -0.19621 -0.20290
 H391 H 1.04254 -0.10192 -0.09518
 H392 H 1.19348 -0.08364 -0.06490
 C393 C 0.66697 0.35140 0.35265
 C394 C 0.63251 0.33295 0.33729
 C395 C 0.64997 0.31263 0.31531
 C396 C 0.70153 0.31029 0.30915
 C397 C 0.73561 0.32880 0.32495
 C398 C 0.71846 0.34961 0.34653
 C399 C 0.64880 0.37292 0.37567
 C400 C 0.68314 0.39171 0.39068
 C401 C 0.66557 0.41226 0.41244
 C402 C 0.61422 0.41367 0.41949
 C403 C 0.58037 0.39454 0.40434
 C404 C 0.59743 0.37421 0.38228
 C405 C 0.75171 0.36867 0.36214
 C406 C 0.73433 0.38945 0.38374
 C407 C 0.58136 0.33502 0.34442
 C408 C 0.56416 0.35518 0.36669
 H409 H 0.79151 0.36755 0.35757
 H410 H 0.76121 0.40377 0.39520
 H411 H 0.55443 0.32082 0.33284
 H412 H 0.52451 0.35585 0.37179
 H413 H 0.62357 0.29828 0.30343
 H414 H 0.77533 0.32722 0.32020
 H415 H 0.69174 0.42682 0.42422
 H416 H 0.54071 0.39583 0.40941
 C417 C 0.82941 -0.14107 -0.15553
 C418 C 0.78061 -0.15226 -0.15248
 C419 C 0.76439 -0.17480 -0.17250
 C420 C 0.79666 -0.18630 -0.19553
 C421 C 0.84556 -0.17455 -0.19823
 C422 C 0.86204 -0.15199 -0.17833
 C423 C 0.84685 -0.11763 -0.13425
 C424 C 0.89582 -0.10666 -0.13712
 C425 C 0.91277 -0.08506 -0.11623
 C426 C 0.88098 -0.07414 -0.09271
 C427 C 0.83153 -0.08499 -0.09067
 C428 C 0.81440 -0.10687 -0.11125
 C429 C 0.91057 -0.14014 -0.18077
 C430 C 0.92709 -0.11778 -0.16058
 C431 C 0.74905 -0.14075 -0.12935
 C432 C 0.76564 -0.11843 -0.10910
 H433 H 0.93604 -0.14824 -0.19839
 H434 H 0.96467 -0.10914 -0.16336
 H435 H 0.71125 -0.14915 -0.12678
 H436 H 0.74018 -0.11029 -0.09149
 H437 H 0.72667 -0.18340 -0.17000
 H438 H 0.87099 -0.18292 -0.21576
 H439 H 0.95117 -0.07740 -0.11776
 H440 H 0.80644 -0.07651 -0.07304
 C441 C 0.32898 0.35468 0.34751
 C442 C 0.27996 0.34369 0.35019
 C443 C 0.26340 0.32185 0.32940
 C444 C 0.29554 0.31098 0.30608
 C445 C 0.34460 0.32236 0.30375
 C446 C 0.36149 0.34420 0.32439
 C447 C 0.34669 0.37752 0.36941
 C448 C 0.39575 0.38843 0.36676
 C449 C 0.41262 0.40987 0.38784
 C450 C 0.38074 0.42057 0.41139
 C451 C 0.33150 0.40948 0.41358
 C452 C 0.31431 0.38791 0.39266
 C453 C 0.41027 0.35576 0.32239
 C454 C 0.42707 0.37755 0.34318
 C455 C 0.24857 0.35472 0.37367
 C456 C 0.26544 0.37645 0.39454
 H457 H 0.43570 0.34789 0.30462
 H458 H 0.46487 0.38597 0.34075
 H459 H 0.21065 0.34644 0.37598
 H460 H 0.24006 0.38430 0.41234
 H461 H 0.22561 0.31328 0.33145
 H462 H 0.36970 0.31422 0.28593
 H463 H 0.45086 0.41781 0.38628
 H464 H 0.30654 0.41776 0.43140
 C465 C 0.17177 0.64839 -0.14527
 C466 C 0.22322 0.65013 -0.15168
 C467 C 0.24062 0.67094 -0.17331
 C468 C 0.20676 0.68944 -0.18885
 C469 C 0.15523 0.68709 -0.18241
 C470 C 0.13758 0.66683 -0.16039
 C471 C 0.15333 0.62695 -0.12215
 C472 C 0.10204 0.62578 -0.11520
 C473 C 0.08474 0.60558 -0.09303
 C474 C 0.11823 0.58645 -0.07808
 C475 C 0.16950 0.58769 -0.08549
 C476 C 0.18735 0.60814 -0.10736
 C477 C 0.08649 0.66485 -0.15294
 C478 C 0.06907 0.64480 -0.13056
 C479 C 0.25616 0.63106 -0.13630
 C480 C 0.23850 0.61033 -0.11463
 H481 H 0.05978 0.67907 -0.16434
 H482 H 0.02950 0.64422 -0.12519
 H483 H 0.29592 0.63213 -0.14109
 H484 H 0.26514 0.59600 -0.10335
 H485 H 0.28030 0.67257 -0.17827
 H486 H 0.12902 0.70146 -0.19406
 H487 H 0.04512 0.60441 -0.08769
 H488 H 0.19537 0.57308 -0.07388
 C489 C 0.66856 1.14736 0.34994
 C490 C 0.63404 1.16591 0.33526
 C491 C 0.65130 1.18663 0.31358
 C492 C 0.70276 1.18931 0.30709
 C493 C 0.73693 1.17067 0.32216
 C494 C 0.71994 1.14942 0.34342
 C495 C 0.65059 1.12550 0.37275
 C496 C 0.68497 1.10664 0.38713
 C497 C 0.66759 1.08584 0.40877
 C498 C 0.61642 1.08428 0.41637
 C499 C 0.58253 1.10345 0.40181
 C500 C 0.59937 1.12401 0.37987
 C501 C 0.75324 1.13027 0.35836
 C502 C 0.73603 1.10915 0.37974
 C503 C 0.58303 1.16359 0.34284
 C504 C 0.56605 1.14313 0.36494
 H505 H 0.79295 1.13159 0.35347
 H506 H 0.76295 1.09478 0.39070
 H507 H 0.55606 1.17787 0.33179
 H508 H 0.52654 1.14232 0.37045
 H509 H 0.62485 1.20110 0.30228
 H510 H 0.77657 1.17254 0.31715
 H511 H 0.69379 1.07123 0.42010
 H512 H 0.54299 1.10204 0.40731
 C513 C 0.16485 0.35103 0.14751
 C514 C 0.13054 0.33229 0.16249
 C515 C 0.14824 0.31143 0.18379
 C516 C 0.19989 0.30888 0.18965
 C517 C 0.23378 0.32774 0.17424
 C518 C 0.21642 0.34903 0.15334
 C519 C 0.14646 0.37311 0.12521
 C520 C 0.18069 0.39215 0.11056
 C521 C 0.16295 0.41318 0.08945
 C522 C 0.11152 0.41489 0.08267
 C523 C 0.07775 0.39553 0.09747
 C524 C 0.09500 0.37468 0.11888
 C525 C 0.24954 0.36836 0.13813
 C526 C 0.23197 0.38963 0.11720
 C527 C 0.07929 0.33465 0.15568
 C528 C 0.06186 0.35537 0.13409
 H529 H 0.28940 0.36708 0.14248
 H530 H 0.25876 0.40414 0.10602
 H531 H 0.05245 0.32025 0.16697
 H532 H 0.02214 0.35624 0.12923
 H533 H 0.12195 0.29686 0.19538
 H534 H 0.27357 0.32604 0.17877
 H535 H 0.18908 0.42789 0.07793
 H536 H 0.03802 0.39701 0.09262
 C537 C 0.66936 0.85134 0.64523
 C538 C 0.72086 0.84954 0.65138
 C539 C 0.73800 0.82883 0.67303
 C540 C 0.70389 0.81044 0.68886
 C541 C 0.65232 0.81280 0.68266
 C542 C 0.63488 0.83300 0.66061
 C543 C 0.65119 0.87276 0.62216
 C544 C 0.59981 0.87408 0.61553
 C545 C 0.58274 0.89434 0.59346
 C546 C 0.61660 0.91337 0.57829
 C547 C 0.66797 0.91193 0.58535
 C548 C 0.68554 0.89146 0.60713
 C549 C 0.58372 0.83509 0.65345
 C550 C 0.56653 0.85515 0.63113
 C551 C 0.75413 0.86849 0.63575
 C552 C 0.73674 0.88918 0.61410
 H553 H 0.55677 0.82097 0.66505
 H554 H 0.52687 0.85583 0.62601
 H555 H 0.79393 0.86736 0.64034
 H556 H 0.76364 0.90342 0.60263
 H557 H 0.77771 0.82724 0.67782
 H558 H 0.62590 0.79854 0.69456
 H559 H 0.54307 0.89565 0.58839
 H560 H 0.69414 0.92643 0.57356
 C561 C 0.83324 0.14916 0.14728
 C562 C 0.78478 0.16035 0.14360
 C563 C 0.76726 0.18137 0.16487
 C564 C 0.79793 0.19124 0.18960
 C565 C 0.84652 0.17979 0.19280
 C566 C 0.86431 0.15873 0.17175
 C567 C 0.85178 0.12694 0.12513
 C568 C 0.90009 0.11562 0.12900
 C569 C 0.91738 0.09430 0.10812
 C570 C 0.88680 0.08433 0.08343
 C571 C 0.83862 0.09615 0.07965
 C572 C 0.82081 0.11740 0.10057
 C573 C 0.91257 0.14703 0.17471
 C574 C 0.93013 0.12583 0.15370
 C575 C 0.75488 0.15027 0.11874
 C576 C 0.77261 0.12919 0.09757
 H577 H 0.93694 0.15427 0.19347
 H578 H 0.96748 0.11732 0.15684
 H579 H 0.71745 0.15875 0.11562
 H580 H 0.74832 0.12201 0.07875
 H581 H 0.72988 0.19005 0.16210
 H582 H 0.87050 0.18718 0.21169
 H583 H 0.95480 0.08562 0.11086
 H584 H 0.81482 0.08844 0.06080
 C585 C 0.33303 0.64473 0.65253
 C586 C 0.28436 0.65577 0.64955
 C587 C 0.26818 0.67764 0.67021
 C588 C 0.30034 0.68850 0.69371
 C589 C 0.34909 0.67714 0.69631
 C590 C 0.36560 0.65524 0.67579
 C591 C 0.35025 0.62177 0.63082
 C592 C 0.39893 0.61077 0.63380
 C593 C 0.41532 0.58918 0.61292
 C594 C 0.38331 0.57844 0.58926
 C595 C 0.33446 0.58962 0.58676
 C596 C 0.31776 0.61133 0.60747
 C597 C 0.41400 0.64360 0.67810
 C598 C 0.43033 0.62168 0.65751
 C599 C 0.25286 0.64471 0.62596
 C600 C 0.26928 0.62287 0.60527
 H601 H 0.43947 0.65147 0.69599
 H602 H 0.46783 0.61318 0.66019
 H603 H 0.21521 0.65303 0.62343
 H604 H 0.24383 0.61499 0.58738
 H605 H 0.23061 0.68618 0.66795
 H606 H 0.37417 0.68527 0.71429
 H607 H 0.45328 0.58114 0.61472
 H608 H 0.30938 0.58130 0.56888
   
