data_POSCAR
  _audit_creation_date              2014-09-24
  _audit_creation_method            'ToBaCCo'
  _symmetry_space_group_name_H-M    'P1'
  _symmetry_Int_Tables_number       1
  _symmetry_cell_setting            triclinic
  loop_
  _symmetry_equiv_pos_as_xyz
 x,y,z
_cell_length_a 46.0182
_cell_length_b 47.7944
_cell_length_c 7.0177
_cell_angle_alpha 89.867000
_cell_angle_beta 89.922700
_cell_angle_gamma 89.985500
loop_
  _atom_site_label
  _atom_site_type_symbol
  _atom_site_fract_x
  _atom_site_fract_y
  _atom_site_fract_z
O1 O 0.23126 0.27682 0.03177
 O2 O 0.28378 0.22229 0.16949
 O3 O 0.23127 0.22194 0.03428
 O4 O 0.28371 0.27669 0.16748
 O5 O 0.26713 0.27708 0.46316
 O6 O 0.21471 0.22234 0.32998
 O7 O 0.26720 0.22223 0.46518
 O8 O 0.21467 0.27676 0.32742
 Cu9 Cu 0.25935 0.24942 0.07184
 Cu10 Cu 0.23908 0.24961 0.42528
 C11 C 0.21407 0.28608 0.15839
 C12 C 0.28441 0.21299 0.33857
 C13 C 0.21410 0.21281 0.16177
 C14 C 0.28431 0.28619 0.33574
 O15 O 0.78425 0.27646 0.33278
 O16 O 0.73187 0.22165 0.46827
 O17 O 0.78436 0.22206 0.33194
 O18 O 0.73181 0.27652 0.46937
 O19 O 0.71520 0.27649 0.17408
 O20 O 0.76777 0.22204 0.03661
 O21 O 0.71530 0.22210 0.17290
 O22 O 0.76765 0.27690 0.03744
 Cu23 Cu 0.75992 0.24915 0.42945
 Cu24 Cu 0.73963 0.24940 0.07643
 C25 C 0.78482 0.28602 0.16434
 C26 C 0.71470 0.21255 0.34137
 C27 C 0.78498 0.21279 0.16308
 C28 C 0.71459 0.28577 0.34292
 O29 O 0.71563 0.72250 0.82956
 O30 O 0.76818 0.77704 0.96460
 O31 O 0.71565 0.77691 0.83009
 O32 O 0.76810 0.72218 0.96527
 O33 O 0.78462 0.72249 0.66949
 O34 O 0.73215 0.77723 0.53421
 O35 O 0.78468 0.77688 0.66876
 O36 O 0.73215 0.72234 0.53377
 Cu37 Cu 0.74004 0.74965 0.92623
 Cu38 Cu 0.76024 0.74974 0.57265
 C39 C 0.71498 0.71314 0.66094
 C40 C 0.78535 0.78624 0.83739
 C41 C 0.71501 0.78639 0.66149
 C42 C 0.78527 0.71303 0.83819
 O43 O 0.23192 0.72297 0.96340
 O44 O 0.28458 0.77759 0.82958
 O45 O 0.23208 0.77784 0.96518
 O46 O 0.28438 0.72320 0.82667
 O47 O 0.26781 0.72340 0.53129
 O48 O 0.21552 0.77804 0.66980
 O49 O 0.26805 0.77827 0.53407
 O50 O 0.21537 0.72364 0.66795
 Cu51 Cu 0.26008 0.75036 0.92503
 Cu52 Cu 0.23984 0.75088 0.57192
 C53 C 0.21472 0.71401 0.83619
 C54 C 0.28525 0.78722 0.66139
 C55 C 0.21492 0.78723 0.83890
 C56 C 0.28496 0.71401 0.65757
 C57 C 0.98574 0.08735 0.05066
 C58 C 1.01550 0.08726 0.05888
 C59 C 1.02421 0.05962 0.03966
 N60 N 1.00071 0.04293 0.02082
 C61 C 0.97714 0.05975 0.02716
 C62 C 1.05346 0.05061 0.03337
 C63 C 1.06256 0.02245 0.01269
 C64 C 1.09117 0.01433 -0.01692
 C65 C 1.09122 -0.01431 -0.03189
 C66 C 1.06264 -0.02308 -0.01154
 N67 N 1.04539 -0.00055 0.01896
 C68 C 1.05360 -0.05136 -0.02278
 C69 C 1.02439 -0.06038 -0.03374
 C70 C 1.01579 -0.08800 -0.05610
 C71 C 0.98603 -0.08791 -0.06480
 C72 C 0.97732 -0.06024 -0.04697
 N73 N 1.00083 -0.04354 -0.02869
 C74 C 0.94807 -0.05124 -0.04004
 C75 C 0.93898 -0.02309 -0.01871
 C76 C 0.91041 -0.01500 0.01301
 C77 C 0.91037 0.01363 0.02852
 C78 C 0.93891 0.02243 0.00630
 N79 N 0.95613 -0.00007 -0.02575
 C80 C 0.94793 0.05072 0.01756
 H81 H 0.97200 0.10566 0.06273
 H82 H 1.02914 0.10552 0.07671
 H83 H 0.97784 0.00043 -0.06423
 H84 H 1.11011 0.02766 -0.02850
 H85 H 1.11018 -0.02716 -0.05779
 H86 H 1.02952 -0.10633 -0.06625
 H87 H 0.97238 -0.10618 -0.08111
 H88 H 0.89144 0.02645 0.05619
 H89 H 1.02363 -0.00103 0.05614
 H90 H 0.89151 -0.02835 0.02593
 C91 C 0.48491 0.58752 0.54851
 C92 C 0.51466 0.58730 0.55788
 C93 C 0.52326 0.55960 0.54050
 N94 N 0.49969 0.54299 0.52173
 C95 C 0.47620 0.55993 0.52614
 C96 C 0.55247 0.55047 0.53512
 C97 C 0.56146 0.52226 0.51542
 C98 C 0.59004 0.51402 0.48602
 C99 C 0.58998 0.48539 0.47139
 C100 C 0.56136 0.47673 0.49178
 N101 N 0.54420 0.49933 0.52202
 C102 C 0.55221 0.44848 0.48049
 C103 C 0.52296 0.43958 0.46911
 C104 C 0.51427 0.41200 0.44625
 C105 C 0.48451 0.41221 0.43655
 C106 C 0.47592 0.43991 0.45423
 N107 N 0.49947 0.45652 0.47351
 C108 C 0.44670 0.44904 0.45962
 C109 C 0.43771 0.47723 0.48007
 C110 C 0.40914 0.48546 0.51002
 C111 C 0.40921 0.51409 0.52502
 C112 C 0.43782 0.52276 0.50427
 N113 N 0.45497 0.50018 0.47359
 C114 C 0.44696 0.55102 0.51532
 H115 H 0.47126 0.60590 0.55864
 H116 H 0.52838 0.60552 0.57483
 H117 H 0.47673 0.50057 0.43626
 H118 H 0.60903 0.52728 0.47415
 H119 H 0.60889 0.47246 0.44553
 H120 H 0.52792 0.39361 0.43602
 H121 H 0.47080 0.39400 0.41936
 H122 H 0.39030 0.52701 0.55122
 H123 H 0.52243 0.49894 0.55900
 H124 H 0.39016 0.47219 0.52203
 C125 C 0.01416 0.41253 0.04531
 C126 C -0.01560 0.41270 0.05506
 C127 C -0.02423 0.44041 0.03824
 N128 N -0.00069 0.45707 0.01947
 C129 C 0.02283 0.44016 0.02340
 C130 C -0.05346 0.44950 0.03330
 C131 C -0.06249 0.47770 0.01315
 C132 C -0.09105 0.48590 -0.01707
 C133 C -0.09103 0.51455 -0.03163
 C134 C -0.06245 0.52325 -0.01027
 N135 N -0.04527 0.50066 0.02026
 C136 C -0.05336 0.55154 -0.02059
 C137 C -0.02412 0.56051 -0.03070
 C138 C -0.01545 0.58814 -0.05213
 C139 C 0.01432 0.58798 -0.06134
 C140 C 0.02295 0.56027 -0.04474
 N141 N -0.00060 0.54360 -0.02660
 C142 C 0.05218 0.55118 -0.03950
 C143 C 0.06120 0.52297 -0.01988
 C144 C 0.08977 0.51474 0.01008
 C145 C 0.08975 0.48609 0.02412
 C146 C 0.06116 0.47740 0.00275
 N147 N 0.04399 0.50000 -0.02730
 C148 C 0.05206 0.44912 0.01285
 H149 H 0.02783 0.39415 0.05497
 H150 H -0.02929 0.39444 0.07176
 H151 H 0.02225 0.49963 -0.06478
 H152 H -0.10999 0.47261 -0.02961
 H153 H -0.10993 0.52746 -0.05799
 H154 H -0.02912 0.60652 -0.06173
 H155 H 0.02801 0.60625 -0.07757
 H156 H 0.10866 0.47316 0.05017
 H157 H -0.02355 0.50105 0.05802
 H158 H 0.10871 0.52802 0.02275
 C159 C 0.48563 1.08794 0.52068
 C160 C 0.51545 1.08793 0.52015
 C161 C 0.52406 1.06032 0.49797
 N162 N 0.50053 1.04357 0.48289
 C163 C 0.47700 1.06034 0.49858
 C164 C 0.55316 1.05129 0.48092
 C165 C 0.56165 1.02293 0.46921
 C166 C 0.58911 1.01382 0.41603
 C167 C 0.58907 0.98513 0.43219
 C168 C 0.56160 0.97748 0.49523
 N169 N 0.54512 1.00067 0.51874
 C170 C 0.55307 0.94982 0.53976
 C171 C 0.52403 0.94160 0.57228
 C172 C 0.51540 0.91525 0.63314
 C173 C 0.48556 0.91528 0.63326
 C174 C 0.47698 0.94164 0.57241
 N175 N 0.50052 0.95759 0.53429
 C176 C 0.44796 0.94989 0.54002
 C177 C 0.43946 0.97755 0.49526
 C178 C 0.41201 0.98523 0.43248
 C179 C 0.41197 1.01392 0.41646
 C180 C 0.43942 1.02300 0.46953
 N181 N 0.45594 1.00072 0.51864
 C182 C 0.44790 1.05135 0.48182
 H183 H 0.47189 1.10623 0.53335
 H184 H 0.52920 1.10621 0.53226
 H185 H 0.47603 1.00154 0.58525
 H186 H 0.60737 1.02653 0.37131
 H187 H 0.60730 0.97150 0.40261
 H188 H 0.52915 0.89775 0.67143
 H189 H 0.47178 0.89780 0.67175
 H190 H 0.39372 1.02665 0.37208
 H191 H 0.52502 1.00152 0.58553
 H192 H 0.39377 0.97161 0.40312
 C193 C 1.14443 0.10981 0.17186
 C194 C 1.16144 0.12213 0.00036
 C195 C 1.15557 0.15169 0.07679
 C196 C 1.13891 0.13968 0.24851
 C197 C 1.11626 0.11190 0.05564
 C198 C 1.11042 0.14146 0.13218
 C199 C 1.13288 0.12387 -0.11622
 C200 C 1.12738 0.15380 -0.03933
 C201 C 1.17724 0.17394 0.09551
 C202 C 1.19477 0.19227 0.12086
 C203 C 1.09417 0.08992 0.04653
 C204 C 1.07579 0.07199 0.04044
 H205 H 1.15117 0.09150 0.25886
 H206 H 1.18266 0.11445 -0.05368
 H207 H 1.14161 0.14641 0.39884
 H208 H 1.08921 0.14914 0.18660
 H209 H 1.13014 0.11710 -0.26635
 H210 H 1.12063 0.17213 -0.12604
 C211 C 0.63232 0.62317 0.38213
 C212 C 0.62695 0.65323 0.45713
 C213 C 0.65507 0.65112 0.57397
 C214 C 0.66081 0.62144 0.49941
 C215 C 0.61554 0.61151 0.55436
 C216 C 0.64366 0.60942 0.67126
 C217 C 0.60983 0.64119 0.62900
 C218 C 0.63826 0.63941 0.74603
 C219 C 0.67685 0.67328 0.59214
 C220 C 0.69448 0.69153 0.61709
 C221 C 0.59335 0.58962 0.54640
 C222 C 0.57489 0.57176 0.54126
 H223 H 0.62961 0.61622 0.23232
 H224 H 0.62034 0.67148 0.36917
 H225 H 0.68201 0.61358 0.44616
 H226 H 0.65025 0.59118 0.75940
 H227 H 0.58864 0.64904 0.68253
 H228 H 0.64091 0.64631 0.89601
 C229 C -0.11123 0.35947 0.14731
 C230 C -0.14093 0.36203 0.24947
 C231 C -0.15562 0.34842 0.07625
 C232 C -0.12622 0.34553 -0.02570
 C233 C -0.11633 0.38826 0.05560
 C234 C -0.13098 0.37469 -0.11779
 C235 C -0.14572 0.39114 0.15764
 C236 C -0.16076 0.37721 -0.01541
 C237 C -0.17727 0.32613 0.09507
 C238 C -0.19478 0.30776 0.12037
 C239 C -0.09424 0.41026 0.04663
 C240 C -0.07584 0.42817 0.04049
 H241 H -0.09064 0.35244 0.21447
 H242 H -0.14526 0.35657 0.40075
 H243 H -0.11845 0.32655 -0.10103
 H244 H -0.12662 0.38019 -0.26894
 H245 H -0.15346 0.41012 0.23322
 H246 H -0.18136 0.38424 -0.08230
 C247 C 0.37255 0.87342 0.38541
 C248 C 0.37596 0.84529 0.49349
 C249 C 0.34538 0.84921 0.57730
 C250 C 0.34159 0.87699 0.46964
 C251 C 0.38503 0.88874 0.55930
 C252 C 0.35446 0.89267 0.64326
 C253 C 0.38878 0.86097 0.66703
 C254 C 0.35790 0.86457 0.75109
 C255 C 0.32351 0.82709 0.59428
 C256 C 0.30582 0.80885 0.61830
 C257 C 0.40725 0.91062 0.55164
 C258 C 0.42567 0.92850 0.54642
 H259 H 0.37885 0.87733 0.23492
 H260 H 0.38454 0.82557 0.43191
 H261 H 0.32196 0.88331 0.38855
 H262 H 0.34591 0.91238 0.70516
 H263 H 0.40839 0.85466 0.74842
 H264 H 0.35165 0.86071 0.90180
 C265 C -0.11094 0.64185 -0.13250
 C266 C -0.13983 0.63950 -0.24397
 C267 C -0.15593 0.65218 -0.07259
 C268 C -0.12735 0.65486 0.03865
 C269 C -0.11638 0.61262 -0.04844
 C270 C -0.13245 0.62526 0.12311
 C271 C -0.14495 0.60995 -0.15977
 C272 C -0.16140 0.62294 0.01139
 C273 C -0.17772 0.67432 -0.09310
 C274 C -0.19533 0.69256 -0.11977
 C275 C -0.09418 0.59073 -0.03752
 C276 C -0.07573 0.57287 -0.02980
 H277 H -0.08996 0.64936 -0.19188
 H278 H -0.14310 0.64560 -0.39521
 H279 H -0.12037 0.67356 0.12013
 H280 H -0.12914 0.61911 0.27421
 H281 H -0.15191 0.59126 -0.24150
 H282 H -0.18239 0.61543 0.07046
 C283 C 0.38988 1.14151 0.37373
 C284 C 0.36130 1.13925 0.25880
 C285 C 0.34465 1.15130 0.43005
 C286 C 0.37292 1.15389 0.54475
 C287 C 0.38449 1.11200 0.45329
 C288 C 0.36788 1.12401 0.62469
 C289 C 0.35623 1.10942 0.33851
 C290 C 0.33923 1.12179 0.50953
 C291 C 0.32271 1.17331 0.41001
 C292 C 0.30499 1.19147 0.38373
 C293 C 0.40685 1.09026 0.46392
 C294 C 0.42541 1.07252 0.47181
 H295 H 0.41092 1.14936 0.31756
 H296 H 0.35836 1.14575 0.10801
 H297 H 0.37952 1.17241 0.62947
 H298 H 0.37086 1.11746 0.77528
 H299 H 0.34965 1.09091 0.25358
 H300 H 0.31817 1.11395 0.56540
 C301 C 1.11310 -0.13953 -0.16173
 C302 C 1.14420 -0.13560 -0.24150
 C303 C 1.15622 -0.15196 -0.06996
 C304 C 1.12541 -0.15622 0.00956
 C305 C 1.11667 -0.11238 -0.04749
 C306 C 1.12864 -0.12871 0.12425
 C307 C 1.14746 -0.10813 -0.12710
 C308 C 1.15983 -0.12481 0.04430
 C309 C 1.17799 -0.17410 -0.09038
 C310 C 1.19557 -0.19233 -0.11776
 C311 C 1.09447 -0.09050 -0.03789
 C312 C 1.07601 -0.07265 -0.03120
 H313 H 1.09369 -0.14530 -0.24673
 H314 H 1.15083 -0.13866 -0.39225
 H315 H 1.11660 -0.17622 0.06580
 H316 H 1.12196 -0.12559 0.27479
 H317 H 1.15624 -0.08812 -0.18357
 H318 H 1.17926 -0.11904 0.12912
 C319 C 0.61765 0.36638 0.29031
 C320 C 0.65088 0.37130 0.28629
 C321 C 0.65467 0.34772 0.43347
 C322 C 0.62173 0.34248 0.43713
 C323 C 0.61513 0.38732 0.45520
 C324 C 0.61888 0.36375 0.60245
 C325 C 0.64806 0.39258 0.45143
 C326 C 0.65219 0.36864 0.59847
 C327 C 0.67646 0.32557 0.41398
 C328 C 0.69408 0.30734 0.38793
 C329 C 0.59296 0.40922 0.46491
 C330 C 0.57454 0.42711 0.47186
 H331 H 0.60327 0.36570 0.16343
 H332 H 0.66425 0.37417 0.15584
 H333 H 0.61115 0.32163 0.43116
 H334 H 0.60546 0.36091 0.73264
 H335 H 0.65860 0.41345 0.45700
 H336 H 0.66660 0.36930 0.72512
 C337 C 0.88835 -0.13948 -0.17300
 C338 C 0.87642 -0.15621 -0.00057
 C339 C 0.84544 -0.15188 -0.07636
 C340 C 0.85707 -0.13548 -0.24903
 C341 C 0.88508 -0.11237 -0.05785
 C342 C 0.85411 -0.10805 -0.13375
 C343 C 0.87349 -0.12875 0.11498
 C344 C 0.84213 -0.12478 0.03879
 C345 C 0.82358 -0.17398 -0.09408
 C346 C 0.80590 -0.19219 -0.11882
 C347 C 0.90730 -0.09050 -0.05050
 C348 C 0.92574 -0.07262 -0.04578
 H349 H 0.90757 -0.14527 -0.26021
 H350 H 0.88533 -0.17626 0.05419
 H351 H 0.85009 -0.13847 -0.39906
 H352 H 0.84522 -0.08801 -0.18881
 H353 H 0.88052 -0.12571 0.26481
 H354 H 0.82289 -0.11900 0.12577
 C355 C 0.35513 0.39032 0.32723
 C356 C 0.36033 0.36054 0.24803
 C357 C 0.34414 0.34834 0.42107
 C358 C 0.33860 0.37781 0.50010
 C359 C 0.38364 0.38799 0.43964
 C360 C 0.36749 0.37583 0.61285
 C361 C 0.38916 0.35852 0.36053
 C362 C 0.37267 0.34599 0.53340
 C363 C 0.32238 0.32615 0.40342
 C364 C 0.30478 0.30786 0.37893
 C365 C 0.40583 0.40989 0.44748
 C366 C 0.42428 0.42775 0.45290
 H367 H 0.34820 0.40876 0.24218
 H368 H 0.35716 0.35402 0.09770
 H369 H 0.31757 0.38548 0.55753
 H370 H 0.37071 0.38239 0.76301
 H371 H 0.41017 0.35086 0.30284
 H372 H 0.37962 0.32754 0.61823
 C373 C 0.13059 0.62499 0.11463
 C374 C 0.15997 0.62270 0.00729
 C375 C 0.15475 0.65190 -0.07790
 C376 C 0.12574 0.65456 0.02903
 C377 C 0.11522 0.61227 -0.05908
 C378 C 0.11003 0.64147 -0.14432
 C379 C 0.14422 0.60962 -0.16608
 C380 C 0.13935 0.63914 -0.25143
 C381 C 0.17655 0.67408 -0.09578
 C382 C 0.19418 0.69236 -0.12046
 C383 C 0.09302 0.59037 -0.05119
 C384 C 0.07457 0.57250 -0.04587
 H385 H 0.12672 0.61890 0.26531
 H386 H 0.18074 0.61525 0.06968
 H387 H 0.11841 0.67326 0.10932
 H388 H 0.08928 0.64892 -0.20695
 H389 H 0.15154 0.59092 -0.24656
 H390 H 0.14318 0.64519 -0.40224
 C391 C 0.61168 1.14059 0.35512
 C392 C 0.62634 1.15499 0.52757
 C393 C 0.65596 1.15161 0.42914
 C394 C 0.64160 1.13755 0.25642
 C395 C 0.61639 1.11207 0.45150
 C396 C 0.64600 1.10870 0.35294
 C397 C 0.63071 1.12610 0.62433
 C398 C 0.66071 1.12309 0.52545
 C399 C 0.67775 1.17376 0.40945
 C400 C 0.69534 1.19204 0.38324
 C401 C 0.59415 1.09024 0.46212
 C402 C 0.57563 1.07246 0.47031
 H403 H 0.59130 1.14752 0.28483
 H404 H 0.61852 1.17425 0.59933
 H405 H 0.64633 1.14251 0.10486
 H406 H 0.65379 1.08945 0.28091
 H407 H 0.62593 1.12109 0.77569
 H408 H 0.68110 1.11617 0.59545
 C409 C 0.11243 0.36219 0.17134
 C410 C 0.12270 0.34347 0.00445
 C411 C 0.15432 0.34820 0.06625
 C412 C 0.14435 0.36660 0.23348
 C413 C 0.11495 0.38791 0.04078
 C414 C 0.14656 0.39265 0.10273
 C415 C 0.12488 0.36955 -0.12657
 C416 C 0.15688 0.37392 -0.06431
 C417 C 0.17603 0.32599 0.08693
 C418 C 0.19360 0.30771 0.11335
 C419 C 0.09283 0.40987 0.02947
 C420 C 0.07442 0.42777 0.02176
 H421 H 0.09394 0.35763 0.26831
 H422 H 0.11313 0.32300 -0.03567
 H423 H 0.15257 0.36515 0.38192
 H424 H 0.15610 0.41312 0.14323
 H425 H 0.11663 0.37102 -0.27488
 H426 H 0.17539 0.37848 -0.16104
 C427 C 0.63211 0.87656 0.38501
 C428 C 0.66088 0.87827 0.49919
 C429 C 0.65521 0.84866 0.57627
 C430 C 0.62680 0.84659 0.46253
 C431 C 0.61579 0.88842 0.55815
 C432 C 0.61015 0.85882 0.63534
 C433 C 0.64419 0.89048 0.67199
 C434 C 0.63886 0.86056 0.74927
 C435 C 0.67695 0.82642 0.59356
 C436 C 0.69454 0.80809 0.61794
 C437 C 0.59368 0.91042 0.55061
 C438 C 0.57532 0.92838 0.54567
 H439 H 0.62906 0.88342 0.23510
 H440 H 0.68198 0.88601 0.44322
 H441 H 0.61991 0.82830 0.37646
 H442 H 0.58906 0.85109 0.69166
 H443 H 0.65106 0.90875 0.75834
 H444 H 0.64185 0.85376 0.89941
 C445 C 0.88966 0.14031 0.14018
 C446 C 0.87433 0.15430 -0.03175
 C447 C 0.84507 0.15101 0.07156
 C448 C 0.86011 0.13735 0.24374
 C449 C 0.88476 0.11158 0.04805
 C450 C 0.85552 0.10830 0.15147
 C451 C 0.86976 0.12521 -0.12426
 C452 C 0.84014 0.12228 -0.02049
 C453 C 0.82321 0.17307 0.09173
 C454 C 0.80553 0.19125 0.11802
 C455 C 0.90702 0.08977 0.03680
 C456 C 0.92551 0.07197 0.02825
 H457 H 0.91025 0.14744 0.20657
 H458 H 0.88179 0.17345 -0.10704
 H459 H 0.85589 0.14260 0.39533
 H460 H 0.84807 0.08916 0.22703
 H461 H 0.87403 0.11991 -0.27566
 H462 H 0.81954 0.11515 -0.08658
 C463 C 0.35517 0.61217 0.43322
 C464 C 0.33937 0.62114 0.61849
 C465 C 0.34468 0.65192 0.56515
 C466 C 0.36013 0.64333 0.38017
 C467 C 0.38410 0.61223 0.54234
 C468 C 0.38942 0.64300 0.48909
 C469 C 0.36863 0.62085 0.72717
 C470 C 0.37362 0.65193 0.67420
 C471 C 0.32296 0.67412 0.58538
 C472 C 0.30539 0.69239 0.61203
 C473 C 0.40623 0.59028 0.53190
 C474 C 0.42462 0.57238 0.52441
 H475 H 0.34786 0.59553 0.33413
 H476 H 0.31854 0.61240 0.67201
 H477 H 0.35640 0.65278 0.23761
 H478 H 0.41027 0.65172 0.43594
 H479 H 0.37235 0.61142 0.86983
 H480 H 0.38098 0.66852 0.77353
   
