data_POSCAR
  _audit_creation_date              2014-09-24
  _audit_creation_method            'ToBaCCo'
  _symmetry_space_group_name_H-M    'P1'
  _symmetry_Int_Tables_number       1
  _symmetry_cell_setting            triclinic
  loop_
  _symmetry_equiv_pos_as_xyz
 x,y,z
_cell_length_a 41.7610
_cell_length_b 41.7574
_cell_length_c 41.6078
_cell_angle_alpha 89.912700
_cell_angle_beta 89.914900
_cell_angle_gamma 89.903700
loop_
  _atom_site_label
  _atom_site_type_symbol
  _atom_site_fract_x
  _atom_site_fract_y
  _atom_site_fract_z
C1 C 0.16970 0.16858 0.21065
 C2 C 0.15604 0.19603 0.19686
 C3 C 0.16981 0.20978 0.16940
 C4 C 0.19725 0.19608 0.15569
 C5 C 0.21096 0.16862 0.16943
 C6 C 0.19716 0.15488 0.19692
 H7 H 0.13482 0.20675 0.20745
 H8 H 0.20789 0.20682 0.13446
 H9 H 0.20779 0.13365 0.20762
 C10 C -0.16944 0.83052 0.21220
 C11 C -0.15578 0.80308 0.19842
 C12 C -0.16956 0.78937 0.17102
 C13 C -0.19699 0.80311 0.15738
 C14 C -0.21068 0.83052 0.17111
 C15 C -0.19690 0.84423 0.19851
 H16 H -0.13456 0.79236 0.20896
 H17 H -0.20769 0.79246 0.13620
 H18 H -0.20759 0.86544 0.20912
 C19 C -0.16932 0.16983 -0.21146
 C20 C -0.19676 0.15621 -0.19766
 C21 C -0.21051 0.16995 -0.17021
 C22 C -0.19681 0.19732 -0.15652
 C23 C -0.16940 0.21097 -0.17027
 C24 C -0.15565 0.19723 -0.19773
 H25 H -0.20746 0.13504 -0.20824
 H26 H -0.20749 0.20799 -0.13530
 H27 H -0.13444 0.20789 -0.20836
 C28 C 0.16995 0.83094 -0.21130
 C29 C 0.15626 0.80353 -0.19750
 C30 C 0.16996 0.78974 -0.17005
 C31 C 0.19737 0.80335 -0.15637
 C32 C 0.21110 0.83073 -0.17012
 C33 C 0.19739 0.84453 -0.19757
 H34 H 0.13505 0.79290 -0.20808
 H35 H 0.20801 0.79264 -0.13515
 H36 H 0.20810 0.86571 -0.20820
 C37 C 0.16940 1.16950 0.78784
 C38 C 0.19682 1.15577 0.80159
 C39 C 0.21056 1.16949 0.82901
 C40 C 0.19688 1.19694 0.84268
 C41 C 0.16948 1.21069 0.82898
 C42 C 0.15575 1.19697 0.80156
 H43 H 0.20751 1.13455 0.79102
 H44 H 0.20754 1.20759 0.86388
 H45 H 0.13456 1.20771 0.79097
 C46 C 0.83142 0.83018 0.78931
 C47 C 0.80397 0.84386 0.80307
 C48 C 0.79017 0.83011 0.83051
 C49 C 0.80382 0.80266 0.84425
 C50 C 0.83127 0.78891 0.83055
 C51 C 0.84507 0.80269 0.80307
 H52 H 0.79329 0.86510 0.79246
 H53 H 0.79304 0.79203 0.86547
 H54 H 0.86629 0.79203 0.79241
 C55 C 0.16911 0.83017 1.21129
 C56 C 0.15544 0.80279 1.19754
 C57 C 0.16921 0.78905 1.17009
 C58 C 0.19663 0.80270 1.15636
 C59 C 0.21032 0.83006 1.17006
 C60 C 0.19656 0.84380 1.19751
 H61 H 0.13423 0.79213 1.20816
 H62 H 0.20732 0.79203 1.13514
 H63 H 0.20725 0.86496 1.20810
 C64 C 0.83016 1.16917 1.21138
 C65 C 0.80272 1.15558 1.19766
 C66 C 0.78900 1.16937 1.17021
 C67 C 0.80271 1.19676 1.15646
 C68 C 0.83012 1.21038 1.17014
 C69 C 0.84384 1.19659 1.19758
 H70 H 0.79201 1.13439 1.20829
 H71 H 0.79206 1.20747 1.13525
 H72 H 0.86504 1.20722 1.20816
 N73 N 0.53358 1.05697 0.96557
 N74 N 0.55787 1.07679 0.96160
 N75 N 0.46637 1.03459 0.94308
 N76 N 0.44208 1.03852 0.92318
 N77 N 0.46618 1.05683 0.96538
 N78 N 0.44176 1.07653 0.96127
 N79 N 0.53376 1.03472 0.94329
 N80 N 0.55818 1.03877 0.92352
 C81 C 0.57286 1.06508 0.93529
 C82 C 0.42709 1.06476 0.93488
 N83 N 0.46660 0.94336 0.96554
 N84 N 0.44229 0.92360 0.96153
 N85 N 0.53402 0.96574 0.94338
 N86 N 0.55843 0.96175 0.92358
 N87 N 0.53400 0.94349 0.96573
 N88 N 0.55841 0.92374 0.96179
 N89 N 0.46662 0.96561 0.94318
 N90 N 0.44233 0.96161 0.92333
 Mn91 Mn 0.50019 1.00016 0.94285
 C92 C 0.42751 0.93533 0.93512
 C93 C 0.57329 0.93548 0.93543
 N94 N 0.46587 1.05682 1.03461
 N95 N 0.44143 1.07654 1.03854
 N96 N 0.53326 1.03471 1.05716
 N97 N 0.55758 1.03869 1.07699
 N98 N 0.53327 1.05696 1.03480
 N99 N 0.55760 1.07671 1.03879
 N100 N 0.46586 1.03457 1.05697
 N101 N 0.44142 1.03852 1.07674
 Mn102 Mn 0.49972 1.05728 1.00009
 C103 C 0.42654 1.06477 1.06489
 C104 C 0.57239 1.06497 1.06519
 N105 N 0.53370 0.94349 1.03497
 N106 N 0.55810 0.92376 1.03909
 N107 N 0.46612 0.96559 1.05706
 N108 N 0.44169 0.96155 1.07682
 N109 N 0.46630 0.94335 1.03477
 N110 N 0.44200 0.92354 1.03873
 N111 N 0.53352 0.96573 1.05726
 N112 N 0.55779 0.96177 1.07718
 Mn113 Mn 0.50015 0.94304 1.00025
 Mn114 Mn 0.49969 1.00015 1.05750
 Cl115 Cl 0.49994 1.00016 1.00017
 C116 C 0.57276 0.93552 1.06549
 C117 C 0.42701 0.93525 1.06503
 N118 N -0.03463 0.46664 -0.05712
 N119 N -0.03858 0.44232 -0.07695
 N120 N -0.05685 0.53401 -0.03460
 N121 N -0.07661 0.55841 -0.03853
 N122 N -0.03461 0.53405 -0.05695
 N123 N -0.03860 0.55848 -0.07673
 N124 N -0.05687 0.46660 -0.03476
 N125 N -0.07659 0.44225 -0.03875
 C126 C -0.06483 0.42747 -0.06515
 C127 C -0.06487 0.57332 -0.06489
 N128 N -0.03460 0.53359 0.05693
 N129 N -0.03857 0.55788 0.07683
 N130 N -0.05686 0.46632 0.03447
 N131 N -0.07661 0.44197 0.03844
 N132 N -0.03461 0.46619 0.05676
 N133 N -0.03859 0.44174 0.07652
 N134 N -0.05684 0.53373 0.03464
 N135 N -0.07658 0.55812 0.03874
 Mn136 Mn -0.05724 0.50017 -0.00006
 C137 C -0.06483 0.57282 0.06513
 C138 C -0.06486 0.42700 0.06474
 N139 N 0.03437 0.53392 -0.05706
 N140 N 0.03835 0.55836 -0.07682
 N141 N 0.05660 0.46639 -0.03494
 N142 N 0.07635 0.44200 -0.03903
 N143 N 0.03435 0.46652 -0.05723
 N144 N 0.03834 0.44222 -0.07712
 N145 N 0.05661 0.53379 -0.03477
 N146 N 0.07636 0.55813 -0.03873
 Mn147 Mn -0.00013 0.50028 -0.05747
 C148 C 0.06462 0.57311 -0.06503
 C149 C 0.06460 0.42729 -0.06541
 N150 N 0.03437 0.46606 0.05665
 N151 N 0.03838 0.44163 0.07643
 N152 N 0.05662 0.53351 0.03446
 N153 N 0.07634 0.55786 0.03845
 N154 N 0.03438 0.53346 0.05682
 N155 N 0.03834 0.55777 0.07666
 N156 N 0.05661 0.46611 0.03429
 N157 N 0.07638 0.44172 0.03822
 Mn158 Mn -0.00011 0.49982 0.05717
 Mn159 Mn 0.05699 0.49995 -0.00024
 Cl160 Cl -0.00012 0.50005 -0.00015
 C161 C 0.06465 0.42680 0.06458
 C162 C 0.06458 0.57263 0.06486
 N163 N 1.03461 -0.05683 0.46627
 N164 N 1.03860 -0.07663 0.44188
 N165 N 1.05691 -0.03446 0.53377
 N166 N 1.07671 -0.03840 0.55817
 N167 N 1.03471 -0.05671 0.53391
 N168 N 1.03878 -0.07642 0.55841
 N169 N 1.05681 -0.03458 0.46613
 N170 N 1.07654 -0.03861 0.44163
 C171 C 1.06482 -0.06491 0.42687
 C172 C 1.06505 -0.06465 0.57318
 N173 N 1.03449 0.05676 0.53353
 N174 N 1.03849 0.07657 0.55790
 N175 N 1.05668 0.03440 0.46590
 N176 N 1.07644 0.03838 0.44143
 N177 N 1.03440 0.05664 0.46588
 N178 N 1.03836 0.07639 0.44139
 N179 N 1.05678 0.03452 0.53354
 N180 N 1.07657 0.03857 0.55791
 Mn181 Mn 1.05718 -0.00003 0.49983
 C182 C 1.06480 0.06487 0.57275
 C183 C 1.06465 0.06464 0.42649
 N184 N 0.96574 -0.05674 0.53412
 N185 N 0.96180 -0.07649 0.55861
 N186 N 0.94334 -0.03461 0.46648
 N187 N 0.92355 -0.03865 0.44211
 N188 N 0.96563 -0.05685 0.46648
 N189 N 0.96164 -0.07665 0.44211
 N190 N 0.94345 -0.03450 0.53413
 N191 N 0.92372 -0.03850 0.55863
 Mn192 Mn 1.00017 -0.05716 0.50019
 C193 C 0.93552 -0.06476 0.57354
 C194 C 0.93532 -0.06494 0.42726
 N195 N 0.96541 0.05662 0.46610
 N196 N 0.96133 0.07634 0.44161
 N197 N 0.94332 0.03449 0.53389
 N198 N 0.92357 0.03855 0.55837
 N199 N 0.96552 0.05675 0.53374
 N200 N 0.96151 0.07657 0.55811
 N201 N 0.94321 0.03437 0.46625
 N202 N 0.92339 0.03832 0.44186
 Mn203 Mn 0.99995 0.05708 0.49981
 Mn204 Mn 0.94295 -0.00006 0.50019
 Cl205 Cl 1.00006 -0.00004 0.50001
 C206 C 0.93505 0.06457 0.42685
 C207 C 0.93528 0.06486 0.57312
 C208 C 1.15640 0.15537 0.23748
 C209 C 1.14465 0.14375 0.26126
 C210 C 1.13065 0.12998 0.28971
 C211 C 1.14178 0.10052 0.30141
 C212 C 1.12829 0.08722 0.32916
 C213 C 1.10362 0.10333 0.34533
 C214 C 1.09246 0.13277 0.33360
 C215 C 1.10596 0.14607 0.30585
 C216 C 1.08983 0.08971 0.37396
 C217 C 1.07832 0.07828 0.39795
 H218 H 1.16087 0.08788 0.28912
 H219 H 1.13709 0.06444 0.33802
 H220 H 1.07340 0.14543 0.34592
 H221 H 1.09718 0.16886 0.29702
 C222 C 0.84385 -0.15626 0.23894
 C223 C 0.85556 -0.14459 0.26266
 C224 C 0.86948 -0.13071 0.29101
 C225 C 0.85575 -0.10337 0.30484
 C226 C 0.86918 -0.08997 0.33250
 C227 C 0.89640 -0.10387 0.34642
 C228 C 0.91016 -0.13119 0.33256
 C229 C 0.89673 -0.14459 0.30491
 C230 C 0.91015 -0.09015 0.37494
 C231 C 0.92164 -0.07865 0.39883
 H232 H 0.83468 -0.09246 0.29429
 H233 H 0.85835 -0.06884 0.34302
 H234 H 0.93121 -0.14212 0.34314
 H235 H 0.90753 -0.16574 0.29441
 C236 C 0.84395 0.15656 0.76174
 C237 C 0.85565 0.14485 0.73799
 C238 C 0.86955 0.13092 0.70960
 C239 C 0.89409 0.14694 0.69317
 C240 C 0.90750 0.13347 0.66547
 C241 C 0.89642 0.10394 0.65409
 C242 C 0.87191 0.08791 0.67055
 C243 C 0.85850 0.10137 0.69824
 C244 C 0.91013 0.09015 0.62553
 C245 C 0.92160 0.07861 0.60160
 H246 H 0.90280 0.16980 0.70174
 H247 H 0.92644 0.14607 0.65294
 H248 H 0.86317 0.06506 0.66196
 H249 H 0.83953 0.08879 0.71076
 C250 C 1.15672 -0.15576 0.76191
 C251 C 1.14501 -0.14407 0.73816
 C252 C 1.13106 -0.13020 0.70976
 C253 C 1.10576 -0.14572 0.69417
 C254 C 1.09229 -0.13234 0.66646
 C255 C 1.10408 -0.10338 0.65423
 C256 C 1.12935 -0.08783 0.66985
 C257 C 1.14281 -0.10121 0.69756
 C258 C 1.09032 -0.08969 0.62565
 C259 C 1.07879 -0.07826 0.60169
 H260 H 1.09649 -0.16815 0.70339
 H261 H 1.07276 -0.14457 0.65457
 H262 H 1.13864 -0.06542 0.66060
 H263 H 1.16237 -0.08901 0.70942
 C264 C 0.23776 1.15543 1.15620
 C265 C 0.26153 1.14382 1.14453
 C266 C 0.28995 1.13002 1.13064
 C267 C 0.30553 1.10458 1.14610
 C268 C 0.33325 1.09128 1.13269
 C269 C 0.34550 1.10338 1.10376
 C270 C 0.32989 1.12880 1.08827
 C271 C 0.30217 1.14209 1.10168
 C272 C 0.37408 1.08978 1.09002
 C273 C 0.39804 1.07838 1.07854
 H274 H 0.29628 1.09507 1.16851
 H275 H 0.34512 1.07164 1.14487
 H276 H 0.33916 1.13833 1.06589
 H277 H 0.29032 1.16177 1.08953
 C278 C 0.23936 0.84460 0.84385
 C279 C 0.26307 0.85618 0.85550
 C280 C 0.29142 0.86997 0.86935
 C281 C 0.30771 0.89450 0.85319
 C282 C 0.33534 0.90781 0.86659
 C283 C 0.34680 0.89664 0.89619
 C284 C 0.33049 0.87213 0.91237
 C285 C 0.30285 0.85882 0.89898
 C286 C 0.37528 0.91027 0.90993
 C287 C 0.39914 0.92170 0.92142
 H288 H 0.29907 0.90329 0.83027
 H289 H 0.34777 0.92675 0.85388
 H290 H 0.33914 0.86332 0.93528
 H291 H 0.29044 0.83986 0.91167
 C292 C 0.76102 0.84448 1.15718
 C293 C 0.73726 0.85610 1.14554
 C294 C 0.70885 0.86988 1.13168
 C295 C 0.68172 0.85084 1.12669
 C296 C 0.65407 0.86421 1.11325
 C297 C 0.65344 0.89668 1.10475
 C298 C 0.68057 0.91573 1.10973
 C299 C 0.70822 0.90236 1.12317
 C300 C 0.62498 0.91041 1.09092
 C301 C 0.60114 0.92188 1.07932
 H302 H 0.68195 0.82570 1.13319
 H303 H 0.63323 0.84926 1.10951
 H304 H 0.68033 0.94087 1.10323
 H305 H 0.72906 0.91730 1.12692
 C306 C 0.76122 1.15606 0.84383
 C307 C 0.73749 1.14446 0.85553
 C308 C 0.70911 1.13065 0.86943
 C309 C 0.69222 1.10693 0.85280
 C310 C 0.66456 1.09360 0.86624
 C311 C 0.65368 1.10392 0.89636
 C312 C 0.67059 1.12761 0.91302
 C313 C 0.69825 1.14095 0.89958
 C314 C 0.62517 1.09026 0.91014
 C315 C 0.60128 1.07878 0.92163
 H316 H 0.70041 1.09880 0.82947
 H317 H 0.65167 1.07529 0.85315
 H318 H 0.66238 1.13577 0.93633
 H319 H 0.71113 1.15928 0.91264
 C320 C 0.15589 0.23809 0.15542
 C321 C 0.14426 0.26186 0.14378
 C322 C 0.13041 0.29028 0.12996
 C323 C 0.09952 0.29996 0.13888
 C324 C 0.08612 0.32768 0.12556
 C325 C 0.10357 0.34583 0.10327
 C326 C 0.13445 0.33613 0.09432
 C327 C 0.14785 0.30841 0.10764
 C328 C 0.08983 0.37440 0.08963
 C329 C 0.07834 0.39833 0.07821
 H330 H 0.08583 0.28613 0.15613
 H331 H 0.06222 0.33497 0.13265
 H332 H 0.14815 0.34998 0.07710
 H333 H 0.17176 0.30115 0.10058
 C334 C -0.15547 0.23920 -0.15631
 C335 C -0.14386 0.26290 -0.14465
 C336 C -0.13007 0.29124 -0.13077
 C337 C -0.14480 0.30596 -0.10435
 C338 C -0.13150 0.33361 -0.09098
 C339 C -0.10342 0.34665 -0.10397
 C340 C -0.08867 0.33190 -0.13036
 C341 C -0.10197 0.30425 -0.14374
 C342 C -0.08980 0.37516 -0.09028
 C343 C -0.07841 0.39905 -0.07882
 H344 H -0.16654 0.29609 -0.09415
 H345 H -0.14310 0.34481 -0.07057
 H346 H -0.06695 0.34179 -0.14059
 H347 H -0.09039 0.29307 -0.16417
 C348 C 0.15598 0.76150 -0.15602
 C349 C 0.14429 0.73780 -0.14436
 C350 C 0.13035 0.70946 -0.13051
 C351 C 0.10485 0.69413 -0.14597
 C352 C 0.09142 0.66647 -0.13261
 C353 C 0.10345 0.65403 -0.10376
 C354 C 0.12892 0.66938 -0.08827
 C355 C 0.14235 0.69704 -0.10162
 C356 C 0.08974 0.62549 -0.09010
 C357 C 0.07827 0.60157 -0.07866
 H358 H 0.09540 0.70353 -0.16831
 H359 H 0.07173 0.65479 -0.14478
 H360 H 0.13841 0.65996 -0.06595
 H361 H 0.16207 0.70870 -0.08948
 C362 C -0.15564 0.76110 0.15700
 C363 C -0.14402 0.73738 0.14528
 C364 C -0.13022 0.70902 0.13134
 C365 C -0.10455 0.69359 0.14653
 C366 C -0.09123 0.66593 0.13305
 C367 C -0.10354 0.65360 0.10432
 C368 C -0.12919 0.66905 0.08910
 C369 C -0.14251 0.69670 0.10258
 C370 C -0.08990 0.62509 0.09049
 C371 C -0.07846 0.60122 0.07892
 H372 H -0.09487 0.70290 0.16878
 H373 H -0.07139 0.65417 0.14501
 H374 H -0.13889 0.65971 0.06687
 H375 H -0.16236 0.70844 0.09064
 C376 C 1.15615 0.15627 0.76108
 C377 C 1.14446 0.14459 0.73736
 C378 C 1.13056 0.13071 0.70900
 C379 C 1.14167 0.10117 0.69756
 C380 C 1.12827 0.08775 0.66990
 C381 C 1.10369 0.10383 0.65358
 C382 C 1.09255 0.13335 0.66505
 C383 C 1.10596 0.14677 0.69271
 C384 C 1.08997 0.09008 0.62507
 C385 C 1.07848 0.07858 0.60117
 H386 H 1.16069 0.08856 0.70998
 H387 H 1.13706 0.06491 0.66124
 H388 H 1.07356 0.14599 0.65261
 H389 H 1.09720 0.16963 0.70135
 C390 C 0.84469 -0.15655 0.76251
 C391 C 0.85635 -0.14481 0.73873
 C392 C 0.87018 -0.13083 0.71030
 C393 C 0.89561 -0.14619 0.69460
 C394 C 0.90893 -0.13270 0.66685
 C395 C 0.89687 -0.10379 0.65470
 C396 C 0.87148 -0.08840 0.67044
 C397 C 0.85816 -0.10189 0.69818
 C398 C 0.91049 -0.08998 0.62608
 C399 C 0.92190 -0.07845 0.60209
 H400 H 0.90508 -0.16858 0.70376
 H401 H 0.92856 -0.14480 0.65487
 H402 H 0.86197 -0.06604 0.66125
 H403 H 0.83850 -0.08982 0.71013
 C404 C 1.15585 -0.15656 0.23809
 C405 C 1.14418 -0.14485 0.26185
 C406 C 1.13032 -0.13090 0.29026
 C407 C 1.10406 -0.14554 0.30521
 C408 C 1.09070 -0.13208 0.33293
 C409 C 1.10356 -0.10392 0.34581
 C410 C 1.12980 -0.08925 0.33083
 C411 C 1.14315 -0.10271 0.30311
 C412 C 1.08990 -0.09014 0.37440
 C413 C 1.07846 -0.07862 0.39836
 H414 H 1.09396 -0.16735 0.29547
 H415 H 1.07042 -0.14362 0.34432
 H416 H 1.13993 -0.06747 0.34059
 H417 H 1.16346 -0.09120 0.29174
 C418 C 0.84340 0.15587 0.23817
 C419 C 0.85510 0.14415 0.26192
 C420 C 0.86905 0.13025 0.29031
 C421 C 0.89551 0.14479 0.30488
 C422 C 0.90897 0.13138 0.33258
 C423 C 0.89601 0.10338 0.34582
 C424 C 0.86957 0.08881 0.33123
 C425 C 0.85611 0.10222 0.30353
 C426 C 0.90977 0.08966 0.37440
 C427 C 0.92130 0.07820 0.39835
 H428 H 0.90569 0.16647 0.29486
 H429 H 0.92941 0.14284 0.34367
 H430 H 0.85936 0.06715 0.34127
 H431 H 0.83564 0.09079 0.29246
 C432 C 0.15556 0.23898 -0.15705
 C433 C 0.14395 0.26272 -0.14537
 C434 C 0.13015 0.29110 -0.13146
 C435 C 0.10058 0.30257 -0.14247
 C436 C 0.08723 0.33023 -0.12902
 C437 C 0.10339 0.34652 -0.10453
 C438 C 0.13294 0.33503 -0.09349
 C439 C 0.14630 0.30737 -0.10693
 C440 C 0.08970 0.37502 -0.09075
 C441 C 0.07824 0.39890 -0.07920
 H442 H 0.08790 0.29018 -0.16142
 H443 H 0.06436 0.33891 -0.13773
 H444 H 0.14564 0.34744 -0.07456
 H445 H 0.16917 0.29870 -0.09825
 C446 C -0.15592 0.23863 0.15610
 C447 C -0.14427 0.26233 0.14439
 C448 C -0.13041 0.29067 0.13048
 C449 C -0.10385 0.30512 0.14497
 C450 C -0.09048 0.33278 0.13154
 C451 C -0.10362 0.34610 0.10358
 C452 C -0.13015 0.33162 0.08906
 C453 C -0.14352 0.30397 0.10248
 C454 C -0.08995 0.37463 0.08986
 C455 C -0.07851 0.39855 0.07839
 H456 H -0.09353 0.29505 0.16662
 H457 H -0.06996 0.34378 0.14296
 H458 H -0.14050 0.34172 0.06743
 H459 H -0.16406 0.29299 0.09109
 C460 C -0.15558 0.76209 -0.15620
 C461 C -0.14400 0.73832 -0.14451
 C462 C -0.13023 0.70989 -0.13062
 C463 C -0.14387 0.69624 -0.10304
 C464 C -0.13057 0.66852 -0.08963
 C465 C -0.10358 0.65433 -0.10374
 C466 C -0.08992 0.66800 -0.13130
 C467 C -0.10321 0.69572 -0.14471
 C468 C -0.08995 0.62575 -0.09001
 C469 C -0.07852 0.60181 -0.07853
 H470 H -0.16476 0.70699 -0.09196
 H471 H -0.14133 0.65815 -0.06832
 H472 H -0.06904 0.65723 -0.14241
 H473 H -0.09248 0.70607 -0.16605
 C474 C 0.15528 0.76082 0.15611
 C475 C 0.14367 0.73713 0.14444
 C476 C 0.12987 0.70880 0.13057
 C477 C 0.10384 0.69379 0.14557
 C478 C 0.09053 0.66616 0.13218
 C479 C 0.10320 0.65341 0.10373
 C480 C 0.12920 0.66844 0.08871
 C481 C 0.14251 0.69608 0.10210
 C482 C 0.08958 0.62491 0.09002
 C483 C 0.07818 0.60103 0.07854
 H484 H 0.09388 0.70342 0.16760
 H485 H 0.07042 0.65473 0.14399
 H486 H 0.13918 0.65879 0.06670
 H487 H 0.16264 0.70749 0.09031
 C488 C 0.23881 1.15551 0.84301
 C489 C 0.26251 1.14387 0.85471
 C490 C 0.29086 1.13004 0.86866
 C491 C 0.30220 1.14117 0.89828
 C492 C 0.32985 1.12785 0.91177
 C493 C 0.34628 1.10335 0.89568
 C494 C 0.33492 1.09220 0.86608
 C495 C 0.30726 1.10552 0.85259
 C496 C 0.37479 1.08973 0.90950
 C497 C 0.39868 1.07834 0.92108
 H498 H 0.28970 1.16013 0.91091
 H499 H 0.33842 1.13665 0.93467
 H500 H 0.34743 1.07327 0.85344
 H501 H 0.29871 1.09675 0.82967
 C502 C 0.23861 0.84395 1.15605
 C503 C 0.26234 0.85559 1.14440
 C504 C 0.29072 0.86946 1.13057
 C505 C 0.30195 0.85885 1.10067
 C506 C 0.32962 0.87225 1.08731
 C507 C 0.34617 0.89631 1.10380
 C508 C 0.33492 0.90693 1.13369
 C509 C 0.30726 0.89353 1.14705
 C510 C 0.37469 0.91003 1.09011
 C511 C 0.39858 0.92153 1.07866
 H512 H 0.28935 0.84025 1.08773
 H513 H 0.33811 0.86387 1.06418
 H514 H 0.34754 0.92552 1.14665
 H515 H 0.29879 0.90190 1.17019
 C516 C 0.76074 1.15552 1.15625
 C517 C 0.73701 1.14395 1.14461
 C518 C 0.70864 1.13018 1.13077
 C519 C 0.69235 1.10566 1.14695
 C520 C 0.66469 1.09238 1.13359
 C521 C 0.65320 1.10357 1.10400
 C522 C 0.66952 1.12806 1.08780
 C523 C 0.69719 1.14135 1.10116
 C524 C 0.62469 1.08997 1.09030
 C525 C 0.60080 1.07857 1.07884
 H526 H 0.70100 1.09686 1.16986
 H527 H 0.65226 1.07345 1.14631
 H528 H 0.66085 1.13689 1.06491
 H529 H 0.70960 1.16030 1.08846
 C530 C 0.76186 0.84407 0.84445
 C531 C 0.73809 0.85575 0.85605
 C532 C 0.70966 0.86965 0.86981
 C533 C 0.68643 0.88347 0.84985
 C534 C 0.65875 0.89689 0.86319
 C535 C 0.65418 0.89656 0.89656
 C536 C 0.67742 0.88277 0.91653
 C537 C 0.70511 0.86934 0.90318
 C538 C 0.62565 0.91030 0.91027
 C539 C 0.60174 0.92180 0.92175
 H540 H 0.68971 0.88383 0.82401
 H541 H 0.64093 0.90749 0.84753
 H542 H 0.67412 0.88238 0.94236
 H543 H 0.72292 0.85871 0.91884
   
