data_POSCAR
  _audit_creation_date              2014-09-24
  _audit_creation_method            'ToBaCCo'
  _symmetry_space_group_name_H-M    'P1'
  _symmetry_Int_Tables_number       1
  _symmetry_cell_setting            triclinic
  loop_
  _symmetry_equiv_pos_as_xyz
 x,y,z
_cell_length_a 49.6594
_cell_length_b 50.7396
_cell_length_c 15.8110
_cell_angle_alpha 90.188900
_cell_angle_beta 88.779000
_cell_angle_gamma 120.155200
loop_
  _atom_site_label
  _atom_site_type_symbol
  _atom_site_fract_x
  _atom_site_fract_y
  _atom_site_fract_z
C1 C 0.18703 0.41921 0.47362
 C2 C 0.18593 0.41881 0.56367
 C3 C 0.20896 0.41677 0.60790
 C4 C 0.23532 0.41849 0.56739
 C5 C 0.23729 0.42062 0.47722
 C6 C 0.21292 0.42021 0.43220
 H7 H 0.21423 0.42027 0.36373
 H8 H 0.20720 0.41571 0.67658
 C9 C 0.49989 -0.26187 0.46281
 C10 C 0.49828 -0.25830 0.55153
 C11 C 0.49935 -0.23203 0.58378
 C12 C 0.49938 -0.20985 0.53050
 C13 C 0.49754 -0.21508 0.44194
 C14 C 0.49903 -0.24011 0.40949
 H15 H 0.49759 -0.24339 0.34164
 H16 H 0.49810 -0.23008 0.65186
 C17 C 1.28052 0.77878 0.45279
 C18 C 1.28375 0.77282 0.53865
 C19 C 1.26248 0.74515 0.57683
 C20 C 1.23761 0.72264 0.53210
 C21 C 1.23497 0.72715 0.44516
 C22 C 1.25589 0.75556 0.40687
 H23 H 1.25430 0.75852 0.33986
 H24 H 1.26488 0.74141 0.64312
 C25 C 0.79865 0.53375 0.47703
 C26 C 0.79273 0.53234 0.56577
 C27 C 0.76767 0.53543 0.59675
 C28 C 0.74488 0.53431 0.54269
 C29 C 0.74858 0.53085 0.45458
 C30 C 0.77581 0.53213 0.42304
 H31 H 0.77900 0.53219 0.35516
 H32 H 0.76420 0.53506 0.66457
 C33 C 0.48549 0.28379 0.47582
 C34 C 0.48042 0.27506 0.56297
 C35 C 0.48051 0.24850 0.58799
 C36 C 0.48577 0.23034 0.53009
 C37 C 0.49203 0.24000 0.44419
 C38 C 0.49144 0.26610 0.41834
 H39 H 0.49656 0.27320 0.35250
 H40 H 0.47765 0.24272 0.65474
 C41 C 0.73996 0.21144 0.49126
 C42 C 0.74998 0.21048 0.57383
 C43 C 0.77764 0.23532 0.60336
 C44 C 0.79621 0.26128 0.55219
 C45 C 0.78654 0.26111 0.46788
 C46 C 0.75866 0.23665 0.43935
 H47 H 0.75109 0.23765 0.37619
 H48 H 0.78365 0.23430 0.66802
 O49 O 0.96590 0.50754 -0.10434
 O50 O 1.04331 0.54371 0.14412
 O51 O 0.96456 0.51345 0.04318
 O52 O 1.06411 0.54154 -0.09904
 O53 O 0.98418 0.51358 0.16366
 O54 O 1.02219 0.54367 -0.12288
 O55 O 1.07608 0.54178 0.05052
 O56 O 0.92669 0.46882 -0.03973
 C57 C 0.93707 0.48774 -0.10449
 C58 C 1.06964 0.55561 0.10781
 C59 C 0.96817 0.52079 0.11881
 C60 C 1.05129 0.55615 -0.12415
 O61 O 1.02990 0.50057 -0.18834
 O62 O 0.98820 0.46260 0.16366
 O63 O 0.95762 0.44191 -0.02653
 O64 O 1.05699 0.48159 0.03895
 O65 O 1.04605 0.49420 0.15897
 O66 O 0.97519 0.46137 -0.14965
 O67 O 1.04195 0.47867 -0.09858
 O68 O 0.94769 0.46015 0.10863
 Co69 Co 0.99915 0.50255 -0.12781
 Co70 Co 1.01455 0.50300 0.14331
 Co71 Co 0.96349 0.47867 0.00639
 Co72 Co 1.05585 0.51002 -0.02588
 O73 O 1.01027 0.49862 0.00491
 C74 C 1.03948 0.48297 -0.17322
 C75 C 0.95944 0.44925 0.15652
 C76 C 0.96058 0.43818 -0.10299
 C77 C 1.05819 0.48180 0.11657
 O78 O 0.48996 0.47709 -0.15776
 O79 O 0.47561 0.51663 0.18023
 O80 O 0.49194 0.45705 0.05212
 O81 O 0.43673 0.49321 -0.06068
 O82 O 0.49471 0.48005 0.16736
 O83 O 0.46664 0.51025 -0.16962
 O84 O 0.44311 0.49299 0.08594
 O85 O 0.52243 0.47100 -0.08116
 C86 C 0.50261 0.46210 -0.13863
 C87 C 0.44837 0.49853 0.16150
 C88 C 0.48559 0.45551 0.12847
 C89 C 0.44025 0.49356 -0.13843
 O90 O 0.51907 0.55824 -0.14712
 O91 O 0.55094 0.52691 0.12023
 O92 O 0.56124 0.52592 -0.02603
 O93 O 0.48361 0.55561 0.08216
 O94 O 0.52831 0.56099 0.11708
 O95 O 0.54554 0.52585 -0.15137
 O96 O 0.47924 0.55485 -0.07184
 O97 O 0.55071 0.48548 0.07584
 Co98 Co 0.50506 0.51737 -0.14150
 Co99 Co 0.51113 0.52019 0.13261
 Co100 Co 0.52486 0.49274 0.01437
 Co101 Co 0.46371 0.52337 0.00897
 O102 O 0.49938 0.51310 -0.00245
 C103 C 0.50282 0.56945 -0.12182
 C104 C 0.56081 0.50823 0.12969
 C105 C 0.56727 0.53179 -0.10244
 C106 C 0.51069 0.57184 0.11052
 O107 O 0.52358 0.03827 -0.19527
 O108 O 0.50715 -0.01153 0.15686
 O109 O 0.55843 0.05306 0.05026
 O110 O 0.48004 -0.04841 -0.06946
 O111 O 0.53241 0.04601 0.16396
 O112 O 0.51757 -0.00934 -0.12968
 O113 O 0.47006 -0.04833 0.08281
 O114 O 0.55260 0.04726 -0.09271
 C115 C 0.55049 0.05009 -0.16960
 C116 C 0.49191 -0.03900 0.13602
 C117 C 0.55804 0.05558 0.12739
 C118 C 0.50453 -0.03695 -0.11338
 O119 O 0.47172 -0.01485 -0.21453
 O120 O 0.47916 0.04136 0.14295
 O121 O 0.51174 0.06946 -0.09140
 O122 O 0.43097 -0.02589 0.04350
 O123 O 0.45303 -0.01623 0.16167
 O124 O 0.47126 0.02821 -0.13542
 O125 O 0.44155 -0.02657 -0.10272
 O126 O 0.51801 0.07580 0.06315
 Co127 Co 0.49356 0.00849 -0.12662
 Co128 Co 0.49321 0.01469 0.14109
 Co129 Co 0.53218 0.05782 -0.01659
 Co130 Co 0.45900 -0.03317 -0.01016
 O131 O 0.49602 0.01322 0.00136
 C132 C 0.44464 -0.03230 -0.17915
 C133 C 0.49498 0.06807 0.11444
 C134 C 0.48593 0.05666 -0.12855
 C135 C 0.42857 -0.02819 0.12083
 C136 C 1.16191 0.41697 0.42731
 C137 C 1.16463 0.42981 0.34732
 C138 C 1.14099 0.43713 0.31837
 N139 N 1.14224 0.44670 0.23772
 N140 N 1.12249 0.45549 0.21260
 C141 C 1.10093 0.45544 0.26727
 N142 N 1.09978 0.44604 0.34817
 N143 N 1.11940 0.43702 0.37314
 C144 C 1.07964 0.46604 0.23952
 C145 C 1.07595 0.46881 0.15364
 H146 H 1.18586 0.43843 0.30964
 H147 H 1.06700 0.47160 0.28612
 H148 H 1.13948 0.40788 0.45922
 H149 H 1.08760 0.46143 0.10881
 C150 C 0.49984 0.71239 0.42799
 C151 C 0.51144 0.71198 0.34664
 C152 C 0.50884 0.68410 0.30981
 N153 N 0.52857 0.68602 0.24607
 N154 N 0.52540 0.66090 0.20946
 C155 C 0.50208 0.63297 0.23469
 N156 N 0.48231 0.63110 0.29807
 N157 N 0.48572 0.65615 0.33534
 C158 C 0.49638 0.60498 0.19140
 C159 C 0.51923 0.60162 0.14779
 H160 H 0.52420 0.73286 0.31012
 H161 H 0.47313 0.58537 0.19815
 H162 H 0.49200 0.69221 0.46683
 H163 H 0.54341 0.61954 0.14855
 C164 C 0.30283 -0.19311 0.41516
 C165 C 0.30024 -0.18059 0.33907
 C166 C 0.32462 -0.14935 0.31330
 N167 N 0.32292 -0.13691 0.23906
 N168 N 0.34519 -0.10890 0.21593
 C169 C 0.36986 -0.09219 0.26653
 N170 N 0.37136 -0.10453 0.34086
 N171 N 0.34918 -0.13244 0.36382
 C172 C 0.39626 -0.06243 0.23954
 C173 C 0.39816 -0.04968 0.16021
 H174 H 0.28001 -0.19263 0.30014
 H175 H 0.41653 -0.05227 0.27915
 H176 H 0.32376 -0.17899 0.44964
 H177 H 0.37801 -0.05981 0.12022
 C178 C 0.82937 0.53951 0.44156
 C179 C 0.83390 0.53159 0.35982
 C180 C 0.86369 0.53462 0.32977
 N181 N 0.86841 0.53230 0.24592
 N182 N 0.89423 0.53304 0.21755
 C183 C 0.91636 0.53591 0.27194
 N184 N 0.91168 0.53824 0.35597
 N185 N 0.88591 0.53777 0.38435
 C186 C 0.94349 0.53367 0.24122
 C187 C 0.95021 0.53421 0.15485
 H188 H 0.81490 0.52178 0.31621
 H189 H 0.95633 0.52853 0.28644
 H190 H 0.84921 0.54971 0.48263
 H191 H 0.93763 0.54010 0.11068
 C192 C 0.48896 0.31298 0.44420
 C193 C 0.47398 0.31440 0.37190
 C194 C 0.47518 0.34268 0.34283
 N195 N 0.46107 0.34264 0.27012
 N196 N 0.46215 0.36795 0.24227
 C197 C 0.47722 0.39432 0.28640
 N198 N 0.49110 0.39429 0.35951
 N199 N 0.49008 0.36899 0.38728
 C200 C 0.48061 0.42315 0.25349
 C201 C 0.47155 0.42575 0.17227
 H202 H 0.46023 0.29380 0.33616
 H203 H 0.49411 0.44364 0.28993
 H204 H 0.50243 0.33344 0.48061
 H205 H 0.45943 0.40549 0.13408
 C206 C 0.70905 0.18791 0.46044
 C207 C 0.70544 0.17560 0.37962
 C208 C 0.67531 0.15122 0.34872
 N209 N 0.67400 0.13931 0.27096
 N210 N 0.64700 0.11765 0.24095
 C211 C 0.62018 0.10697 0.28757
 N212 N 0.62149 0.11879 0.36559
 N213 N 0.64855 0.14046 0.39572
 C214 C 0.58991 0.08422 0.25274
 C215 C 0.58774 0.07263 0.17142
 H216 H 0.72568 0.18359 0.33794
 H217 H 0.56886 0.07814 0.28931
 H218 H 0.68918 0.17892 0.50381
 H219 H 0.60887 0.07903 0.13485
 C220 C 0.48715 0.20462 -0.44103
 C221 C 0.47231 0.18844 -0.36640
 C222 C 0.47756 0.16456 -0.33108
 N223 N 0.45675 0.14392 -0.27436
 N224 N 0.46228 0.12358 -0.23720
 C225 C 0.48909 0.12342 -0.25466
 N226 N 0.50989 0.14408 -0.31122
 N227 N 0.50420 0.16416 -0.34909
 C228 C 0.49708 0.10300 -0.20947
 C229 C 0.47522 0.07551 -0.17076
 H230 H 0.45547 0.19258 -0.33346
 H231 H 0.52145 0.10943 -0.20954
 H232 H 0.49936 0.19605 -0.47938
 H233 H 0.45053 0.06677 -0.17801
 C234 C 0.71805 0.53427 -0.42402
 C235 C 0.71503 0.54335 -0.34198
 C236 C 0.68655 0.54308 -0.31146
 N237 N 0.68441 0.55077 -0.23022
 N238 N 0.65873 0.55027 -0.20121
 C239 C 0.63426 0.54224 -0.25259
 N240 N 0.63649 0.53478 -0.33396
 N241 N 0.66211 0.53520 -0.36288
 C242 C 0.60493 0.53984 -0.22081
 C243 C 0.59918 0.54272 -0.13535
 H244 H 0.73411 0.55205 -0.29870
 H245 H 0.58620 0.53267 -0.26509
 H246 H 0.69840 0.52743 -0.46429
 H247 H 0.61751 0.54900 -0.09025
 C248 C 0.82253 0.28760 -0.41554
 C249 C 0.83639 0.28989 -0.33730
 C250 C 0.86331 0.31881 -0.30890
 N251 N 0.87426 0.32093 -0.22968
 N252 N 0.89789 0.34712 -0.20240
 C253 C 0.91165 0.37218 -0.25355
 N254 N 0.90094 0.36996 -0.33303
 N255 N 0.87726 0.34382 -0.36018
 C256 C 0.93624 0.40202 -0.22275
 C257 C 0.94449 0.40715 -0.13792
 H258 H 0.82799 0.27054 -0.29508
 H259 H 0.94545 0.42123 -0.26617
 H260 H 0.83298 0.30820 -0.45337
 H261 H 0.93452 0.38816 -0.09369
 C262 C 0.49849 -0.18469 -0.43390
 C263 C 0.51125 -0.17218 -0.35549
 C264 C 0.50764 -0.14774 -0.31625
 N265 N 0.52839 -0.12897 -0.25859
 N266 N 0.52430 -0.10792 -0.21905
 C267 C 0.49903 -0.10522 -0.23506
 N268 N 0.47828 -0.12407 -0.29241
 N269 N 0.48259 -0.14479 -0.33272
 C270 C 0.49230 -0.08421 -0.18741
 C271 C 0.51489 -0.05675 -0.15270
 H272 H 0.52554 -0.17938 -0.32340
 H273 H 0.46816 -0.08980 -0.18423
 H274 H 0.48901 -0.17325 -0.46989
 H275 H 0.53944 -0.04847 -0.16419
 C276 C 0.25815 0.41973 -0.37766
 C277 C 0.28418 0.41693 -0.39739
 C278 C 0.30926 0.42607 -0.33572
 N279 N 0.33811 0.43245 -0.36216
 N280 N 0.36155 0.44330 -0.30827
 C281 C 0.35697 0.44801 -0.22577
 N282 N 0.32800 0.44101 -0.19899
 N283 N 0.30465 0.43038 -0.25296
 C284 C 0.38296 0.46180 -0.16650
 C285 C 0.41390 0.47651 -0.19486
 H286 H 0.28729 0.40908 -0.45822
 H287 H 0.37765 0.46240 -0.09994
 H288 H 0.25536 0.42360 -0.31137
 H289 H 0.41911 0.47698 -0.26192
 C290 C 1.21506 0.69500 -0.41997
 C291 C 1.18315 0.68467 -0.41797
 C292 C 1.16203 0.66229 -0.35397
 N293 N 1.13128 0.65357 -0.35057
 N294 N 1.11227 0.63375 -0.29171
 C295 C 1.12345 0.62217 -0.23368
 N296 N 1.15414 0.63098 -0.23707
 N297 N 1.17307 0.65069 -0.29580
 C298 C 1.10301 0.59874 -0.17144
 C299 C 1.07069 0.58598 -0.16631
 H300 H 1.17388 0.69477 -0.46023
 H301 H 1.11379 0.58907 -0.13308
 H302 H 1.22437 0.68607 -0.37402
 H303 H 1.05948 0.59589 -0.20173
 C304 C 0.80906 0.52561 -0.37436
 C305 C 0.82272 0.50791 -0.39220
 C306 C 0.83789 0.49972 -0.32747
 N307 N 0.85844 0.49083 -0.35154
 N308 N 0.87322 0.48414 -0.29388
 C309 C 0.86761 0.48562 -0.21012
 N310 N 0.84648 0.49379 -0.18587
 N311 N 0.83194 0.50086 -0.24366
 C312 C 0.88578 0.48064 -0.14717
 C313 C 0.91671 0.48983 -0.16564
 H314 H 0.82179 0.49880 -0.45463
 H315 H 0.87606 0.47276 -0.08417
 H316 H 0.80743 0.53079 -0.30848
 H317 H 0.92716 0.50111 -0.22542
 C318 C 0.47744 0.29240 -0.37167
 C319 C 0.46635 0.31247 -0.38118
 C320 C 0.47342 0.33669 -0.31993
 N321 N 0.46332 0.35655 -0.33383
 N322 N 0.47210 0.38052 -0.28399
 C323 C 0.49144 0.38567 -0.21866
 N324 N 0.50128 0.36558 -0.20400
 N325 N 0.49249 0.34155 -0.25400
 C326 C 0.50229 0.41307 -0.16660
 C327 C 0.49375 0.43444 -0.18668
 H328 H 0.45354 0.31164 -0.43654
 H329 H 0.51710 0.41658 -0.11343
 H330 H 0.48335 0.28933 -0.30818
 H331 H 0.47872 0.43042 -0.23972
 C332 C 0.73117 0.18525 -0.36592
 C333 C 0.71411 0.15484 -0.39008
 C334 C 0.68788 0.13279 -0.33738
 N335 N 0.66202 0.11046 -0.37440
 N336 N 0.63643 0.09273 -0.32820
 C337 C 0.63598 0.09665 -0.24332
 N338 N 0.66209 0.11841 -0.20608
 N339 N 0.68753 0.13635 -0.25236
 C340 C 0.60764 0.07891 -0.19183
 C341 C 0.57802 0.06445 -0.22591
 H342 H 0.71659 0.14829 -0.45371
 H343 H 0.61009 0.07953 -0.12379
 H344 H 0.72971 0.19120 -0.30076
 H345 H 0.57503 0.06486 -0.29346
 C346 C 1.16395 0.42231 -0.38704
 C347 C 1.15196 0.44077 -0.41128
 C348 C 1.12754 0.44236 -0.36226
 N349 N 1.11652 0.46036 -0.38976
 N350 N 1.09450 0.46232 -0.34556
 C351 C 1.08261 0.44615 -0.27263
 N352 N 1.09341 0.42792 -0.24560
 N353 N 1.11540 0.42593 -0.28986
 C354 C 1.06092 0.45048 -0.21865
 C355 C 1.05106 0.47085 -0.23957
 H356 H 1.16098 0.45501 -0.46738
 H357 H 1.05552 0.44003 -0.15626
 H358 H 1.15908 0.41354 -0.32268
 H359 H 1.05496 0.48044 -0.30277
 C360 C 0.49353 0.71805 -0.38624
 C361 C 0.51444 0.70766 -0.37795
 C362 C 0.50891 0.68368 -0.31652
 N363 N 0.53004 0.67441 -0.30980
 N364 N 0.52471 0.65180 -0.25716
 C365 C 0.49808 0.63758 -0.20916
 N366 N 0.47704 0.64702 -0.21533
 N367 N 0.48238 0.66969 -0.26798
 C368 C 0.49108 0.61103 -0.15590
 C369 C 0.51121 0.59945 -0.15618
 H370 H 0.53506 0.71696 -0.41868
 H371 H 0.46885 0.59902 -0.12231
 H372 H 0.47425 0.71057 -0.34129
 H373 H 0.53312 0.61144 -0.19130
 C374 C 0.30878 -0.20448 -0.40866
 C375 C 0.30980 -0.17731 -0.38887
 C376 C 0.33835 -0.15061 -0.36047
 N377 N 0.33740 -0.12583 -0.33247
 N378 N 0.36337 -0.10094 -0.30957
 C379 C 0.39128 -0.09977 -0.31518
 N380 N 0.39232 -0.12440 -0.34438
 N381 N 0.36629 -0.14940 -0.36669
 C382 C 0.41965 -0.07310 -0.28530
 C383 C 0.41761 -0.05382 -0.22641
 H384 H 0.28985 -0.17480 -0.40170
 H385 H 0.44208 -0.07082 -0.30100
 H386 H 0.32758 -0.20829 -0.39171
 H387 H 0.39497 -0.05815 -0.20394
 C388 C 0.49247 -0.19622 0.38039
 C389 C 0.51168 -0.16479 0.37424
 C390 C 0.50482 -0.14618 0.31731
 N391 N 0.52320 -0.11546 0.31739
 N392 N 0.51649 -0.09812 0.26940
 C393 C 0.49114 -0.11080 0.21946
 N394 N 0.47288 -0.14159 0.21872
 N395 N 0.47958 -0.15896 0.26687
 C396 C 0.48295 -0.09148 0.16947
 C397 C 0.49967 -0.05996 0.17791
 H398 H 0.53157 -0.15339 0.41489
 H399 H 0.46301 -0.10207 0.12879
 H400 H 0.47406 -0.20791 0.33539
 H401 H 0.51920 -0.04979 0.22010
 C402 C 0.26384 0.42404 0.42508
 C403 C 0.29344 0.44962 0.43015
 C404 C 0.31912 0.45402 0.37278
 N405 N 0.34883 0.47561 0.38966
 N406 N 0.37222 0.48001 0.33760
 C407 C 0.36672 0.46307 0.26653
 N408 N 0.33699 0.44156 0.24951
 N409 N 0.31364 0.43702 0.30187
 C410 C 0.39209 0.46884 0.20616
 C411 C 0.42325 0.48773 0.22585
 H412 H 0.29805 0.46630 0.47900
 H413 H 0.38606 0.45895 0.14374
 H414 H 0.25891 0.40799 0.37423
 H415 H 0.42935 0.49657 0.28932
 C416 C 1.21388 0.70084 0.39271
 C417 C 1.20040 0.70325 0.31899
 C418 C 1.18179 0.67625 0.26699
 N419 N 1.15800 0.67408 0.22113
 N420 N 1.14011 0.64895 0.17735
 C421 C 1.14572 0.62534 0.17667
 N422 N 1.17003 0.62786 0.22070
 N423 N 1.18765 0.65281 0.26537
 C424 C 1.12451 0.59655 0.13481
 C425 C 1.09284 0.58650 0.13312
 H426 H 1.20206 0.72466 0.30179
 H427 H 1.13291 0.58134 0.11622
 H428 H 1.20877 0.67840 0.41322
 H429 H 1.08428 0.60049 0.16120
 C430 C 0.49916 0.22353 0.37867
 C431 C 0.47818 0.19320 0.36130
 C432 C 0.48516 0.17570 0.29958
 N433 N 0.46356 0.14624 0.28557
 N434 N 0.47004 0.12929 0.23409
 C435 C 0.49836 0.14112 0.19459
 N436 N 0.51989 0.17078 0.20760
 N437 N 0.51339 0.18779 0.25919
 C438 C 0.50640 0.12143 0.14442
 C439 C 0.48628 0.09007 0.14485
 H440 H 0.45619 0.18160 0.39626
 H441 H 0.52929 0.13113 0.11454
 H442 H 0.52003 0.23615 0.33966
 H443 H 0.46393 0.08066 0.17770
 C444 C 0.72412 0.52375 0.39259
 C445 C 0.71111 0.54204 0.37969
 C446 C 0.68407 0.53199 0.32556
 N447 N 0.66917 0.54817 0.32312
 N448 N 0.64366 0.53842 0.27768
 C449 C 0.63209 0.51212 0.23317
 N450 N 0.64713 0.49605 0.23507
 N451 N 0.67261 0.50577 0.28068
 C452 C 0.60387 0.50116 0.18328
 C453 C 0.58735 0.51656 0.18385
 H454 H 0.71950 0.56303 0.41467
 H455 H 0.59633 0.48107 0.14468
 H456 H 0.71720 0.50389 0.35343
 H457 H 0.59491 0.53654 0.22288
 C458 C 0.80418 0.28632 0.40714
 C459 C 0.83544 0.29699 0.38810
 C460 C 0.85386 0.32409 0.33509
 N461 N 0.88527 0.33706 0.33099
 N462 N 0.90250 0.36270 0.28705
 C463 C 0.88893 0.37625 0.24558
 N464 N 0.85747 0.36307 0.24876
 N465 N 0.84024 0.33748 0.29303
 C466 C 0.90779 0.40489 0.19881
 C467 C 0.94003 0.42113 0.20453
 H468 H 0.84722 0.28653 0.41814
 H469 H 0.89608 0.41354 0.16035
 H470 H 0.79173 0.29535 0.37359
 H471 H 0.95164 0.41278 0.24453
   
