data_POSCAR
  _audit_creation_date              2014-09-24
  _audit_creation_method            'ToBaCCo'
  _symmetry_space_group_name_H-M    'P1'
  _symmetry_Int_Tables_number       1
  _symmetry_cell_setting            triclinic
  loop_
  _symmetry_equiv_pos_as_xyz
 x,y,z
_cell_length_a 44.2168
_cell_length_b 42.0702
_cell_length_c 42.6559
_cell_angle_alpha 87.877800
_cell_angle_beta 91.409500
_cell_angle_gamma 89.677700
loop_
  _atom_site_label
  _atom_site_type_symbol
  _atom_site_fract_x
  _atom_site_fract_y
  _atom_site_fract_z
C1 C 0.17627 0.11684 0.16136
 C2 C 0.16768 0.10546 0.19086
 C3 C 0.14571 0.12124 0.20799
 C4 C 0.13072 0.14803 0.19341
 C5 C 0.13928 0.15988 0.16349
 C6 C 0.16256 0.14435 0.14776
 C7 C 0.19943 0.10149 0.14600
 C8 C 0.21056 0.11396 0.11747
 C9 C 0.19658 0.14158 0.10385
 C10 C 0.17256 0.15653 0.11864
 C11 C 0.15887 0.18386 0.10498
 C12 C 0.13514 0.19936 0.11978
 C13 C 0.12560 0.18735 0.14927
 H14 H 0.17806 0.08360 0.20019
 H15 H 0.11372 0.16083 0.20584
 H16 H 0.21038 0.08121 0.15794
 H17 H 0.20388 0.15126 0.08141
 H18 H 0.16713 0.19345 0.08288
 H19 H 0.10748 0.19920 0.16098
 C20 C -0.20034 0.84340 0.18384
 C21 C -0.19375 0.85615 0.21306
 C22 C -0.16684 0.84805 0.22998
 C23 C -0.14687 0.82605 0.21687
 C24 C -0.15341 0.81293 0.18771
 C25 C -0.18017 0.82190 0.17098
 C26 C -0.22701 0.85208 0.16745
 C27 C -0.23404 0.84041 0.13748
 C28 C -0.21358 0.81850 0.12494
 C29 C -0.18692 0.80911 0.14156
 C30 C -0.16698 0.78694 0.12935
 C31 C -0.14064 0.77703 0.14635
 C32 C -0.13386 0.79051 0.17533
 H33 H -0.20913 0.87378 0.22161
 H34 H -0.12668 0.81795 0.22972
 H35 H -0.24280 0.86706 0.17916
 H36 H -0.21759 0.80931 0.10186
 H37 H -0.17211 0.77710 0.10671
 H38 H -0.11382 0.78281 0.18873
 C39 C -0.17874 0.12399 -0.18124
 C40 C -0.16893 0.10967 -0.20831
 C41 C -0.14869 0.12528 -0.22838
 C42 C -0.13694 0.15489 -0.22004
 C43 C -0.14625 0.16928 -0.19267
 C44 C -0.16771 0.15405 -0.17349
 C45 C -0.20041 0.10903 -0.16266
 C46 C -0.21218 0.12374 -0.13632
 C47 C -0.20066 0.15394 -0.12863
 C48 C -0.17854 0.16909 -0.14698
 C49 C -0.16761 0.19936 -0.13970
 C50 C -0.14578 0.21466 -0.15846
 C51 C -0.13506 0.19906 -0.18471
 H52 H -0.17749 0.08643 -0.21401
 H53 H -0.12145 0.16735 -0.23540
 H54 H -0.20953 0.08678 -0.17049
 H55 H -0.20823 0.16562 -0.10802
 H56 H -0.17665 0.21123 -0.11984
 H57 H -0.11787 0.21002 -0.19910
 C58 C 0.22788 0.83079 -0.20120
 C59 C 0.21740 0.84483 -0.22977
 C60 C 0.19213 0.83256 -0.24621
 C61 C 0.17825 0.80482 -0.23345
 C62 C 0.18865 0.79036 -0.20493
 C63 C 0.21316 0.80384 -0.18850
 C64 C 0.25300 0.84336 -0.18518
 C65 C 0.26324 0.82978 -0.15614
 C66 C 0.24754 0.80364 -0.14314
 C67 C 0.22313 0.79023 -0.15939
 C68 C 0.20900 0.76299 -0.14713
 C69 C 0.18568 0.74808 -0.16404
 C70 C 0.17525 0.76232 -0.19279
 H71 H 0.22824 0.86644 -0.23807
 H72 H 0.15991 0.79360 -0.24606
 H73 H 0.26493 0.86327 -0.19578
 H74 H 0.25447 0.79337 -0.12041
 H75 H 0.21658 0.75309 -0.12445
 H76 H 0.15727 0.75124 -0.20610
 C77 C 0.16175 1.19492 0.79793
 C78 C 0.14387 1.18326 0.77334
 C79 C 0.15224 1.15557 0.75770
 C80 C 0.17939 1.13980 0.76783
 C81 C 0.19773 1.15153 0.79211
 C82 C 0.18889 1.17928 0.80706
 C83 C 0.15286 1.22227 0.81329
 C84 C 0.17057 1.23444 0.83815
 C85 C 0.19811 1.21872 0.84643
 C86 C 0.20724 1.19146 0.83115
 C87 C 0.23444 1.17607 0.83997
 C88 C 0.24339 1.14796 0.82577
 C89 C 0.22476 1.13582 0.80179
 H90 H 0.12403 1.19691 0.76578
 H91 H 0.18611 1.11772 0.75773
 H92 H 0.13245 1.23448 0.80492
 H93 H 0.21201 1.22642 0.86591
 H94 H 0.24885 1.18637 0.85776
 H95 H 0.23113 1.11405 0.79079
 C96 C 0.85061 0.82631 0.83359
 C97 C 0.86693 0.83601 0.80736
 C98 C 0.85830 0.86299 0.78870
 C99 C 0.83193 0.87986 0.79681
 C100 C 0.81573 0.87079 0.82381
 C101 C 0.82538 0.84394 0.84232
 C102 C 0.85904 0.79854 0.85062
 C103 C 0.84337 0.78798 0.87752
 C104 C 0.81884 0.80690 0.88693
 C105 C 0.80964 0.83442 0.86935
 C106 C 0.78469 0.85233 0.87829
 C107 C 0.77422 0.87890 0.85992
 C108 C 0.79002 0.88793 0.83261
 H109 H 0.88580 0.82135 0.80075
 H110 H 0.82471 0.90085 0.78310
 H111 H 0.87695 0.78444 0.84124
 H112 H 0.80685 0.80075 0.90807
 H113 H 0.77344 0.84545 0.89974
 H114 H 0.78214 0.90800 0.81795
 C115 C 0.15896 0.80322 1.19430
 C116 C 0.15117 0.81642 1.22276
 C117 C 0.16666 0.84294 1.23433
 C118 C 0.19135 0.85508 1.21725
 C119 C 0.20028 0.84116 1.18940
 C120 C 0.18358 0.81554 1.17762
 C121 C 0.14244 0.77770 1.18247
 C122 C 0.14945 0.76443 1.15345
 C123 C 0.17441 0.77720 1.13718
 C124 C 0.19161 0.80210 1.14923
 C125 C 0.21682 0.81367 1.13320
 C126 C 0.23462 0.83819 1.14534
 C127 C 0.22576 0.85225 1.17324
 H128 H 0.13298 0.80571 1.23589
 H129 H 0.20353 0.87561 1.22524
 H130 H 0.12465 0.76784 1.19671
 H131 H 0.18019 0.76886 1.11441
 H132 H 0.22275 0.80334 1.11126
 H133 H 0.23920 0.87115 1.18293
 C134 C 0.80395 1.24882 1.23566
 C135 C 0.81997 1.23576 1.26170
 C136 C 0.81103 1.20690 1.27655
 C137 C 0.78451 1.19195 1.26508
 C138 C 0.76762 1.20540 1.23943
 C139 C 0.77776 1.23372 1.22444
 C140 C 0.81452 1.27626 1.21997
 C141 C 0.79982 1.28832 1.19242
 C142 C 0.77325 1.27363 1.18180
 C143 C 0.76204 1.24670 1.19780
 C144 C 0.73569 1.23220 1.18702
 C145 C 0.72453 1.20477 1.20235
 C146 C 0.74090 1.19103 1.22826
 H147 H 0.84080 1.24720 1.26878
 H148 H 0.77640 1.17035 1.27652
 H149 H 0.83464 1.28784 1.22887
 H150 H 0.76181 1.28241 1.16042
 H151 H 0.72387 1.24220 1.16633
 H152 H 0.73262 1.16957 1.23989
 N153 N 0.54235 1.07109 0.98356
 N154 N 0.56639 1.08942 0.98317
 N155 N 0.48011 1.05614 0.95203
 N156 N 0.45597 1.05950 0.93322
 N157 N 0.47954 1.07711 0.97410
 N158 N 0.45506 1.09506 0.97087
 N159 N 0.54355 1.05005 0.96166
 N160 N 0.56886 1.05320 0.94601
 C161 C 0.58279 1.07794 0.95976
 C162 C 0.44076 1.08417 0.94509
 N163 N 0.47102 0.96476 0.97162
 N164 N 0.44742 0.94746 0.96390
 N165 N 0.53831 0.98190 0.96008
 N166 N 0.56284 0.97647 0.94398
 N167 N 0.53386 0.95863 0.98083
 N168 N 0.55510 0.93661 0.97913
 N169 N 0.47500 0.98790 0.95061
 N170 N 0.45387 0.98716 0.92820
 Mn171 Mn 0.50932 1.01904 0.95564
 C172 C 0.43691 0.96171 0.93681
 C173 C 0.57312 0.94811 0.95612
 N174 N 0.47213 1.07446 1.04064
 N175 N 0.44893 1.09427 1.03844
 N176 N 0.53041 1.04460 1.07114
 N177 N 0.55084 1.04529 1.09418
 N178 N 0.53466 1.06795 1.05049
 N179 N 0.55777 1.08561 1.05923
 N180 N 0.46715 1.05119 1.06115
 N181 N 0.44008 1.05434 1.07310
 Mn182 Mn 0.50729 1.07296 1.01216
 C183 C 0.42920 1.08158 1.05895
 C184 C 0.56771 1.07096 1.08641
 N185 N 0.52612 0.95575 1.04791
 N186 N 0.55055 0.93769 1.05207
 N187 N 0.46203 0.98330 1.06018
 N188 N 0.43672 0.98176 1.07576
 N189 N 0.46264 0.96163 1.03884
 N190 N 0.43758 0.94446 1.03963
 N191 N 0.52489 0.97687 1.06978
 N192 N 0.54836 0.97369 1.08927
 Mn193 Mn 0.49835 0.95974 1.00981
 Mn194 Mn 0.49604 1.01395 1.06589
 Cl195 Cl 0.50276 1.01636 1.01085
 C196 C 0.56397 0.94893 1.07827
 C197 C 0.42163 0.95747 1.06286
 N198 N 0.03524 0.46812 0.04737
 N199 N 0.03873 0.44546 0.06939
 N200 N 0.05622 0.53000 0.01459
 N201 N 0.07736 0.55206 0.01506
 N202 N 0.03680 0.53438 0.03686
 N203 N 0.04417 0.55942 0.05305
 N204 N 0.05319 0.46318 0.02391
 N205 N 0.06910 0.43672 0.02925
 C206 C 0.05998 0.42612 0.05790
 C207 C 0.06945 0.57034 0.03910
 N208 N 0.02615 0.52301 -0.07176
 N209 N 0.02820 0.54626 -0.09328
 N210 N 0.04687 0.45666 -0.04349
 N211 N 0.06422 0.43131 -0.04655
 N212 N 0.02373 0.45631 -0.06336
 N213 N 0.02435 0.43061 -0.08003
 N214 N 0.04955 0.52318 -0.05219
 N215 N 0.06818 0.54641 -0.05997
 Mn216 Mn 0.05190 0.49309 -0.01429
 C217 C 0.05465 0.56056 -0.08573
 C218 C 0.04968 0.41523 -0.06937
 N219 N -0.02860 0.53746 0.04177
 N220 N -0.03322 0.56163 0.06019
 N221 N -0.05208 0.46871 0.03199
 N222 N -0.07137 0.44703 0.04196
 N223 N -0.02914 0.47083 0.05191
 N224 N -0.03182 0.45016 0.07566
 N225 N -0.05163 0.53457 0.02207
 N226 N -0.07235 0.55634 0.02647
 Mn227 Mn 0.00366 0.50294 0.04481
 C228 C -0.06059 0.57331 0.04998
 C229 C -0.05824 0.43552 0.06907
 N230 N -0.04067 0.45912 -0.05864
 N231 N -0.04582 0.43258 -0.07346
 N232 N -0.05812 0.52791 -0.04401
 N233 N -0.07301 0.55521 -0.04639
 N234 N -0.03878 0.52598 -0.06672
 N235 N -0.03990 0.55197 -0.08501
 N236 N -0.05858 0.46113 -0.03471
 N237 N -0.07618 0.43596 -0.03237
 Mn238 Mn -0.00744 0.49119 -0.06553
 Mn239 Mn -0.05538 0.49791 -0.00621
 Cl240 Cl -0.00176 0.49632 -0.01029
 C241 C -0.06813 0.41848 -0.05687
 C242 C -0.06172 0.56976 -0.07232
 N243 N 1.02592 -0.07020 0.46578
 N244 N 1.02684 -0.09069 0.44303
 N245 N 1.05295 -0.04793 0.52884
 N246 N 1.07265 -0.05284 0.55247
 N247 N 1.03010 -0.06759 0.53167
 N248 N 1.03348 -0.08615 0.55702
 N249 N 1.04790 -0.04952 0.46290
 N250 N 1.06455 -0.05561 0.43854
 C251 C 1.05116 -0.08137 0.42630
 C252 C 1.06008 -0.07686 0.56982
 N253 N 1.03712 0.04377 0.52447
 N254 N 1.04464 0.06342 0.54687
 N255 N 1.05108 0.01954 0.45774
 N256 N 1.06489 0.02066 0.43047
 N257 N 1.03129 0.04292 0.45863
 N258 N 1.03079 0.06013 0.43228
 N259 N 1.05695 0.02049 0.52368
 N260 N 1.07849 0.02370 0.54517
 Mn261 Mn 1.05266 -0.01436 0.49316
 C262 C 1.07058 0.05049 0.55954
 C263 C 1.05194 0.04634 0.41500
 N264 N 0.96479 -0.06294 0.53500
 N265 N 0.95861 -0.08222 0.55933
 N266 N 0.94173 -0.04186 0.46729
 N267 N 0.92535 -0.04259 0.44093
 N268 N 0.96140 -0.06541 0.46887
 N269 N 0.95923 -0.08243 0.44369
 N270 N 0.94514 -0.03943 0.53285
 N271 N 0.92514 -0.04200 0.55502
 Mn272 Mn 0.99555 -0.06693 0.50053
 C273 C 0.93374 -0.06853 0.57154
 C274 C 0.93643 -0.06834 0.42674
 N275 N 0.96669 0.04784 0.46165
 N276 N 0.96065 0.06841 0.43802
 N277 N 0.94960 0.02830 0.52922
 N278 N 0.93492 0.03200 0.55546
 N279 N 0.97224 0.04828 0.52746
 N280 N 0.97370 0.06596 0.55228
 N281 N 0.94552 0.02621 0.46333
 N282 N 0.92481 0.03102 0.44097
 Mn283 Mn 1.00192 0.04609 0.49314
 Mn284 Mn 0.94521 -0.00666 0.49808
 Cl285 Cl 0.99890 -0.01051 0.49625
 C286 C 0.93452 0.05725 0.42524
 C287 C 0.95013 0.05577 0.56942
 C288 C 1.11065 0.11269 0.25190
 C289 C 1.10455 0.09852 0.28151
 C290 C 1.12781 0.08222 0.29900
 C291 C 1.15683 0.08085 0.28703
 C292 C 1.16267 0.09452 0.25762
 C293 C 1.13962 0.10996 0.23901
 C294 C 1.12180 0.06747 0.32819
 C295 C 1.09275 0.06888 0.34037
 C296 C 1.06945 0.08539 0.32305
 C297 C 1.07544 0.09995 0.29372
 C298 C 1.04058 0.08742 0.33554
 C299 C 1.03502 0.07394 0.36518
 C300 C 1.05802 0.05765 0.38267
 C301 C 1.08676 0.05464 0.36992
 H302 H 1.09230 0.12406 0.23836
 H303 H 1.17510 0.06904 0.30037
 H304 H 1.18578 0.09348 0.24990
 H305 H 1.13976 0.05500 0.34146
 H306 H 1.05750 0.11246 0.28049
 H307 H 1.02243 0.09992 0.32267
 H308 H 1.01262 0.07646 0.37458
 H309 H 1.10465 0.04240 0.38347
 C310 C 0.87034 -0.13371 0.26919
 C311 C 0.87728 -0.11928 0.29753
 C312 C 0.85378 -0.10870 0.31650
 C313 C 0.82369 -0.11277 0.30673
 C314 C 0.81688 -0.12718 0.27848
 C315 C 0.84005 -0.13792 0.25906
 C316 C 0.86075 -0.09455 0.34504
 C317 C 0.89099 -0.09131 0.35503
 C318 C 0.91448 -0.10187 0.33587
 C319 C 0.90748 -0.11543 0.30716
 C320 C 0.94466 -0.09938 0.34606
 C321 C 0.95150 -0.08760 0.37543
 C322 C 0.92841 -0.07759 0.39483
 C323 C 0.89818 -0.07864 0.38429
 H324 H 0.88885 -0.14035 0.25457
 H325 H 0.80534 -0.10512 0.32112
 H326 H 0.79324 -0.13088 0.27270
 H327 H 0.84269 -0.08660 0.35968
 H328 H 0.92554 -0.12356 0.29260
 H329 H 0.96292 -0.10722 0.33166
 H330 H 0.97494 -0.08638 0.38317
 H331 H 0.88036 -0.07106 0.39940
 C332 C 0.88822 0.11386 0.72949
 C333 C 0.89509 0.10097 0.70063
 C334 C 0.87257 0.08455 0.68367
 C335 C 0.84348 0.08173 0.69560
 C336 C 0.83667 0.09512 0.72401
 C337 C 0.85895 0.11113 0.74139
 C338 C 0.87935 0.07154 0.65490
 C339 C 0.90820 0.07532 0.64250
 C340 C 0.93062 0.09215 0.65922
 C341 C 0.92403 0.10454 0.68834
 C342 C 0.95918 0.09664 0.64634
 C343 C 0.96538 0.08484 0.61703
 C344 C 0.94332 0.06791 0.60039
 C345 C 0.91484 0.06294 0.61337
 H346 H 0.90571 0.12586 0.74271
 H347 H 0.82587 0.06951 0.68277
 H348 H 0.81373 0.09330 0.73214
 H349 H 0.86208 0.05886 0.64198
 H350 H 0.94127 0.11733 0.70120
 H351 H 0.97661 0.10951 0.65877
 H352 H 0.98758 0.08878 0.60747
 H353 H 0.89770 0.05004 0.60052
 C354 C 1.14989 -0.15393 0.71654
 C355 C 1.13836 -0.13755 0.68949
 C356 C 1.15776 -0.11889 0.67065
 C357 C 1.18844 -0.11707 0.67913
 C358 C 1.19979 -0.13327 0.70615
 C359 C 1.18078 -0.15191 0.72561
 C360 C 1.14618 -0.10236 0.64366
 C361 C 1.11536 -0.10438 0.63525
 C362 C 1.09602 -0.12313 0.65425
 C363 C 1.10758 -0.13942 0.68122
 C364 C 1.06536 -0.12555 0.64585
 C365 C 1.05397 -0.11005 0.61861
 C366 C 1.07286 -0.09150 0.59933
 C367 C 1.10356 -0.08838 0.60798
 H368 H 1.13417 -0.16691 0.73118
 H369 H 1.20377 -0.10317 0.66479
 H370 H 1.22386 -0.13184 0.71093
 H371 H 1.16113 -0.08809 0.62918
 H372 H 1.09262 -0.15373 0.69568
 H373 H 1.05023 -0.13975 0.66016
 H374 H 1.03020 -0.11270 0.61258
 H375 H 1.11831 -0.07424 0.59317
 C376 C 0.25814 1.11966 1.08917
 C377 C 0.28683 1.10755 1.08258
 C378 C 0.29396 1.07539 1.09038
 C379 C 0.27188 1.05546 1.10307
 C380 C 0.24369 1.06778 1.11024
 C381 C 0.23675 1.10038 1.10477
 C382 C 0.32333 1.06392 1.08651
 C383 C 0.34584 1.08435 1.07537
 C384 C 0.33855 1.11622 1.06636
 C385 C 0.30902 1.12760 1.06987
 C386 C 0.36111 1.13631 1.05456
 C387 C 0.39070 1.12503 1.05221
 C388 C 0.39822 1.09369 1.06204
 C389 C 0.37567 1.07346 1.07347
 H390 H 0.25391 1.14483 1.08483
 H391 H 0.27674 1.03055 1.10846
 H392 H 0.22737 1.05154 1.12033
 H393 H 0.32890 1.03938 1.09306
 H394 H 0.30357 1.15224 1.06363
 H395 H 0.35591 1.16073 1.04730
 H396 H 0.40780 1.14090 1.04297
 H397 H 0.38129 1.04917 1.08063
 C398 C 0.29815 0.87463 0.85851
 C399 C 0.32424 0.88583 0.87393
 C400 C 0.34278 0.86432 0.89209
 C401 C 0.33556 0.83198 0.89372
 C402 C 0.31010 0.82093 0.87770
 C403 C 0.29076 0.84205 0.86027
 C404 C 0.36836 0.87538 0.90823
 C405 C 0.37613 0.90759 0.90591
 C406 C 0.35826 0.92905 0.88696
 C407 C 0.33217 0.91811 0.87139
 C408 C 0.36690 0.96107 0.88390
 C409 C 0.39290 0.97169 0.89961
 C410 C 0.41021 0.95061 0.91911
 C411 C 0.40168 0.91861 0.92216
 H412 H 0.28351 0.89139 0.84547
 H413 H 0.34980 0.81513 0.90716
 H414 H 0.30581 0.79562 0.87877
 H415 H 0.38233 0.85886 0.92244
 H416 H 0.31823 0.93461 0.85716
 H417 H 0.35361 0.97785 0.86935
 H418 H 0.39912 0.99650 0.89705
 H419 H 0.41517 0.90216 0.93692
 C420 C 0.72461 0.87931 1.12805
 C421 C 0.69620 0.88777 1.11524
 C422 C 0.68179 0.86811 1.09346
 C423 C 0.69638 0.84019 1.08485
 C424 C 0.72439 0.83124 1.09863
 C425 C 0.73876 0.85026 1.12120
 C426 C 0.65294 0.87650 1.08113
 C427 C 0.63814 0.90387 1.09115
 C428 C 0.65270 0.92322 1.11330
 C429 C 0.68177 0.91537 1.12472
 C430 C 0.63783 0.94997 1.12410
 C431 C 0.60872 0.95765 1.11311
 C432 C 0.59413 0.93908 1.09069
 C433 C 0.60896 0.91216 1.07969
 H434 H 0.73563 0.89600 1.14321
 H435 H 0.68569 0.82473 1.06817
 H436 H 0.73368 0.80853 1.09258
 H437 H 0.64181 0.86149 1.06429
 H438 H 0.69284 0.93032 1.14167
 H439 H 0.64866 0.96490 1.14119
 H440 H 0.59777 0.97847 1.12193
 H441 H 0.59779 0.89768 1.06245
 C442 C 0.74209 1.12758 0.89553
 C443 C 0.71591 1.11358 0.90774
 C444 C 0.71120 1.08057 0.90529
 C445 C 0.73347 1.06183 0.89229
 C446 C 0.75941 1.07583 0.88018
 C447 C 0.76373 1.10915 0.88030
 C448 C 0.68408 1.06689 0.91533
 C449 C 0.66160 1.08587 0.92792
 C450 C 0.66683 1.11870 0.93161
 C451 C 0.69387 1.13235 0.92139
 C452 C 0.64477 1.13743 0.94519
 C453 C 0.61761 1.12388 0.95467
 C454 C 0.61180 1.09159 0.95012
 C455 C 0.63388 1.07261 0.93679
 H456 H 0.74406 1.15318 0.89596
 H457 H 0.73064 1.03632 0.89100
 H458 H 0.77614 1.06012 0.87089
 H459 H 0.68030 1.04163 0.91289
 H460 H 0.69755 1.15765 0.92363
 H461 H 0.64848 1.16255 0.94841
 H462 H 0.60083 1.13884 0.96505
 H463 H 0.62963 1.04754 0.93370
 C464 C 0.11415 0.25533 0.12115
 C465 C 0.10413 0.28368 0.10547
 C466 C 0.10117 0.28505 0.07234
 C467 C 0.10703 0.25782 0.05557
 C468 C 0.11672 0.22977 0.07126
 C469 C 0.12118 0.22833 0.10409
 C470 C 0.09266 0.31365 0.05643
 C471 C 0.08651 0.34089 0.07321
 C472 C 0.08837 0.33927 0.10640
 C473 C 0.09746 0.31081 0.12230
 C474 C 0.08095 0.36617 0.12315
 C475 C 0.07170 0.39433 0.10721
 C476 C 0.07053 0.39641 0.07428
 C477 C 0.07816 0.36965 0.05734
 H478 H 0.11751 0.25467 0.14642
 H479 H 0.10445 0.25829 0.03022
 H480 H 0.12117 0.20918 0.05755
 H481 H 0.09082 0.31469 0.03100
 H482 H 0.09933 0.30978 0.14772
 H483 H 0.08201 0.36535 0.14857
 H484 H 0.06574 0.41469 0.12067
 H485 H 0.07675 0.37097 0.03191
 C486 C -0.13099 0.25666 -0.12004
 C487 C -0.11946 0.28687 -0.11350
 C488 C -0.11045 0.30753 -0.13841
 C489 C -0.11422 0.29820 -0.16940
 C490 C -0.12638 0.26853 -0.17575
 C491 C -0.13437 0.24704 -0.15124
 C492 C -0.09793 0.33723 -0.13201
 C493 C -0.09505 0.34700 -0.10101
 C494 C -0.10514 0.32690 -0.07613
 C495 C -0.11685 0.29678 -0.08248
 C496 C -0.10348 0.33739 -0.04530
 C497 C -0.09189 0.36744 -0.03918
 C498 C -0.08104 0.38715 -0.06364
 C499 C -0.08254 0.37674 -0.09453
 H500 H -0.13678 0.24053 -0.10076
 H501 H -0.10792 0.31395 -0.18880
 H502 H -0.12963 0.26255 -0.20005
 H503 H -0.09066 0.35283 -0.15115
 H504 H -0.12416 0.28120 -0.06333
 H505 H -0.11129 0.32243 -0.02596
 H506 H -0.09088 0.37507 -0.01520
 H507 H -0.07451 0.39205 -0.11353
 C508 C 0.14239 0.70966 -0.15535
 C509 C 0.13101 0.68104 -0.14221
 C510 C 0.15071 0.65997 -0.12489
 C511 C 0.18148 0.66709 -0.12206
 C512 C 0.19266 0.69516 -0.13556
 C513 C 0.17329 0.71722 -0.15171
 C514 C 0.13941 0.63212 -0.11055
 C515 C 0.10868 0.62463 -0.11368
 C516 C 0.08908 0.64496 -0.13196
 C517 C 0.10029 0.67321 -0.14587
 C518 C 0.05856 0.63664 -0.13591
 C519 C 0.04754 0.60874 -0.12154
 C520 C 0.06664 0.58904 -0.10243
 C521 C 0.09727 0.59708 -0.09875
 H522 H 0.12707 0.72626 -0.16769
 H523 H 0.19697 0.65093 -0.10933
 H524 H 0.21670 0.69956 -0.13329
 H525 H 0.15454 0.61629 -0.09689
 H526 H 0.08515 0.68905 -0.15947
 H527 H 0.04321 0.65174 -0.15004
 H528 H 0.02392 0.60288 -0.12488
 H529 H 0.11227 0.58181 -0.08434
 C530 C -0.13462 0.72465 0.12138
 C531 C -0.11680 0.69966 0.11111
 C532 C -0.08493 0.70094 0.11431
 C533 C -0.07150 0.72756 0.12766
 C534 C -0.08948 0.75252 0.13776
 C535 C -0.12121 0.75129 0.13472
 C536 C -0.06717 0.67567 0.10405
 C537 C -0.08098 0.64940 0.09029
 C538 C -0.11293 0.64854 0.08702
 C539 C -0.13055 0.67345 0.09765
 C540 C -0.12692 0.62294 0.07274
 C541 C -0.10953 0.59857 0.06122
 C542 C -0.07782 0.59895 0.06419
 C543 C -0.06354 0.62421 0.07919
 H544 H -0.15905 0.72307 0.11948
 H545 H -0.04712 0.72910 0.13025
 H546 H -0.07855 0.77289 0.14777
 H547 H -0.04272 0.67659 0.10649
 H548 H -0.15501 0.67259 0.09512
 H549 H -0.15133 0.62197 0.07006
 H550 H -0.12102 0.57927 0.04988
 H551 H -0.03907 0.62474 0.08129
 C552 C 1.14670 0.12564 0.70897
 C553 C 1.12897 0.11506 0.68369
 C554 C 1.09798 0.12321 0.68110
 C555 C 1.08514 0.14140 0.70417
 C556 C 1.10278 0.15164 0.72944
 C557 C 1.13406 0.14427 0.73236
 C558 C 1.08033 0.11295 0.65558
 C559 C 1.09329 0.09425 0.63278
 C560 C 1.12429 0.08577 0.63571
 C561 C 1.14194 0.09645 0.66091
 C562 C 1.13715 0.06642 0.61354
 C563 C 1.11948 0.05525 0.58884
 C564 C 1.08875 0.06366 0.58544
 C565 C 1.07576 0.08347 0.60734
 H566 H 1.17066 0.12027 0.70930
 H567 H 1.06129 0.14751 0.70285
 H568 H 1.09123 0.16443 0.74716
 H569 H 1.05654 0.11932 0.65359
 H570 H 1.16572 0.09000 0.66294
 H571 H 1.16082 0.05963 0.61549
 H572 H 1.12996 0.04005 0.57222
 H573 H 1.05198 0.08976 0.60503
 C574 C 0.86205 -0.11472 0.73453
 C575 C 0.87906 -0.10947 0.70736
 C576 C 0.91041 -0.11636 0.70802
 C577 C 0.92428 -0.12827 0.73583
 C578 C 0.90720 -0.13424 0.76243
 C579 C 0.87568 -0.12816 0.76223
 C580 C 0.92742 -0.11141 0.68088
 C581 C 0.91342 -0.09979 0.65288
 C582 C 0.88195 -0.09319 0.65220
 C583 C 0.86503 -0.09805 0.67934
 C584 C 0.86789 -0.08128 0.62446
 C585 C 0.88494 -0.07482 0.59799
 C586 C 0.91630 -0.08057 0.59846
 C587 C 0.93043 -0.09382 0.62576
 H588 H 0.83789 -0.11025 0.73325
 H589 H 0.94835 -0.13330 0.73696
 H590 H 0.91911 -0.14305 0.78349
 H591 H 0.95150 -0.11652 0.68159
 H592 H 0.84096 -0.09285 0.67865
 H593 H 0.84383 -0.07618 0.62345
 H594 H 0.87362 -0.06459 0.57715
 H595 H 0.95468 -0.09787 0.62639
 C596 C 1.12663 -0.14423 0.27371
 C597 C 1.11767 -0.13145 0.30205
 C598 C 1.13885 -0.11495 0.32056
 C599 C 1.16887 -0.11258 0.31097
 C600 C 1.17791 -0.12648 0.28338
 C601 C 1.15696 -0.14230 0.26408
 C602 C 1.12975 -0.10136 0.34846
 C603 C 1.09994 -0.10503 0.35866
 C604 C 1.07911 -0.12273 0.34079
 C605 C 1.08792 -0.13529 0.31233
 C606 C 1.04983 -0.12778 0.35183
 C607 C 1.04113 -0.11516 0.38013
 C608 C 1.06117 -0.09640 0.39742
 C609 C 1.09066 -0.09152 0.38657
 H610 H 1.10971 -0.15548 0.25918
 H611 H 1.18554 -0.10040 0.32510
 H612 H 1.20154 -0.12513 0.27757
 H613 H 1.14593 -0.08827 0.36240
 H614 H 1.07176 -0.14845 0.29843
 H615 H 1.03368 -0.14162 0.33865
 H616 H 1.01850 -0.11964 0.38823
 H617 H 1.10646 -0.07747 0.40000
 C618 C 0.83180 0.15959 0.30572
 C619 C 0.85258 0.14593 0.32785
 C620 C 0.87066 0.16566 0.34667
 C621 C 0.86739 0.19867 0.34336
 C622 C 0.84711 0.21212 0.32102
 C623 C 0.82934 0.19295 0.30128
 C624 C 0.89179 0.15213 0.36842
 C625 C 0.89501 0.11900 0.37174
 C626 C 0.87685 0.09924 0.35293
 C627 C 0.85590 0.11280 0.33104
 C628 C 0.87953 0.06614 0.35671
 C629 C 0.89923 0.05272 0.37962
 C630 C 0.91710 0.07208 0.39866
 C631 C 0.91547 0.10525 0.39417
 H632 H 0.81912 0.14401 0.29069
 H633 H 0.88070 0.21418 0.35792
 H634 H 0.84506 0.23778 0.31981
 H635 H 0.90556 0.16736 0.38288
 H636 H 0.84207 0.09756 0.31666
 H637 H 0.86584 0.05063 0.34252
 H638 H 0.90018 0.02706 0.38281
 H639 H 0.92891 0.12026 0.40915
 C640 C 0.12973 0.26905 -0.14370
 C641 C 0.11997 0.29547 -0.12747
 C642 C 0.14131 0.31475 -0.11217
 C643 C 0.17211 0.30730 -0.11349
 C644 C 0.18176 0.28111 -0.12989
 C645 C 0.16082 0.26136 -0.14539
 C646 C 0.13155 0.34132 -0.09610
 C647 C 0.10067 0.34913 -0.09564
 C648 C 0.07934 0.32978 -0.11106
 C649 C 0.08908 0.30291 -0.12652
 C650 C 0.04859 0.33797 -0.11136
 C651 C 0.03910 0.36555 -0.09725
 C652 C 0.06006 0.38506 -0.08205
 C653 C 0.09080 0.37644 -0.08075
 H654 H 0.11268 0.25397 -0.15391
 H655 H 0.18885 0.32202 -0.10216
 H656 H 0.20589 0.27740 -0.13125
 H657 H 0.14798 0.35618 -0.08444
 H658 H 0.07265 0.28816 -0.13835
 H659 H 0.03196 0.32341 -0.12305
 H660 H 0.01527 0.37173 -0.09838
 H661 H 0.10709 0.39159 -0.06927
 C662 C -0.15508 0.31638 0.17078
 C663 C -0.14203 0.33993 0.15157
 C664 C -0.16078 0.36193 0.13428
 C665 C -0.19222 0.36064 0.13741
 C666 C -0.20503 0.33737 0.15705
 C667 C -0.18665 0.31472 0.17358
 C668 C -0.14780 0.38470 0.11405
 C669 C -0.11629 0.38611 0.11142
 C670 C -0.09750 0.36480 0.12958
 C671 C -0.11052 0.34160 0.14926
 C672 C -0.06597 0.36717 0.12784
 C673 C -0.05315 0.39045 0.10827
 C674 C -0.07169 0.41107 0.08962
 C675 C -0.10323 0.40873 0.09112
 H676 H -0.14057 0.29879 0.18284
 H677 H -0.20691 0.37754 0.12460
 H678 H -0.22937 0.33706 0.15918
 H679 H -0.16217 0.40133 0.10044
 H680 H -0.09615 0.32496 0.16285
 H681 H -0.05126 0.35118 0.14175
 H682 H -0.02874 0.39208 0.10734
 H683 H -0.11754 0.42501 0.07704
 C684 C -0.11970 0.74466 -0.11047
 C685 C -0.11322 0.71344 -0.09993
 C686 C -0.13480 0.69600 -0.08279
 C687 C -0.16256 0.71030 -0.07648
 C688 C -0.16955 0.74095 -0.08855
 C689 C -0.14858 0.75848 -0.10672
 C690 C -0.12850 0.66437 -0.07294
 C691 C -0.10137 0.64972 -0.08128
 C692 C -0.08006 0.66720 -0.09900
 C693 C -0.08579 0.69912 -0.10751
 C694 C -0.05356 0.65231 -0.10846
 C695 C -0.04814 0.62032 -0.10046
 C696 C -0.06875 0.60291 -0.08231
 C697 C -0.09533 0.61775 -0.07264
 H698 H -0.10180 0.75783 -0.12175
 H699 H -0.17945 0.69727 -0.06335
 H700 H -0.19216 0.74967 -0.08493
 H701 H -0.14501 0.65094 -0.05962
 H702 H -0.06937 0.71248 -0.12104
 H703 H -0.03710 0.66533 -0.12219
 H704 H -0.02746 0.60936 -0.10793
 H705 H -0.11139 0.60434 -0.05872
 C706 C 0.14393 0.71833 0.11905
 C707 C 0.12656 0.69363 0.10676
 C708 C 0.09672 0.68883 0.11683
 C709 C 0.08453 0.70919 0.13846
 C710 C 0.10170 0.73403 0.15024
 C711 C 0.13191 0.73914 0.14107
 C712 C 0.07952 0.66375 0.10516
 C713 C 0.09174 0.64350 0.08328
 C714 C 0.12142 0.64866 0.07266
 C715 C 0.13871 0.67354 0.08461
 C716 C 0.13333 0.62871 0.05033
 C717 C 0.11619 0.60361 0.03894
 C718 C 0.08697 0.59784 0.04991
 C719 C 0.07480 0.61805 0.07196
 H720 H 0.16722 0.72016 0.11208
 H721 H 0.06149 0.70614 0.14609
 H722 H 0.09043 0.74979 0.16568
 H723 H 0.05667 0.65996 0.11315
 H724 H 0.16157 0.67729 0.07665
 H725 H 0.15597 0.63241 0.04179
 H726 H 0.12601 0.58837 0.02194
 H727 H 0.05217 0.61394 0.08039
 C728 C 0.28247 1.13280 0.86752
 C729 C 0.31107 1.12090 0.87691
 C730 C 0.32953 1.10632 0.85494
 C731 C 0.31894 1.10406 0.82383
 C732 C 0.29079 1.11702 0.81437
 C733 C 0.27235 1.13190 0.83601
 C734 C 0.35844 1.09494 0.86430
 C735 C 0.36943 1.09901 0.89509
 C736 C 0.35096 1.11408 0.91683
 C737 C 0.32175 1.12434 0.90778
 C738 C 0.36216 1.11919 0.94720
 C739 C 0.39152 1.10981 0.95598
 C740 C 0.41005 1.09454 0.93479
 C741 C 0.39878 1.08885 0.90442
 H742 H 0.26832 1.14329 0.88481
 H743 H 0.33280 1.09307 0.80659
 H744 H 0.28391 1.11618 0.78990
 H745 H 0.37261 1.08366 0.84749
 H746 H 0.30765 1.13583 0.92454
 H747 H 0.34831 1.13074 0.96411
 H748 H 0.39961 1.11413 0.97961
 H749 H 0.41300 1.07712 0.88796
 C750 C 0.27170 0.88030 1.12768
 C751 C 0.29858 0.88941 1.11290
 C752 C 0.31676 0.86628 1.09904
 C753 C 0.30781 0.83438 1.10038
 C754 C 0.28129 0.82544 1.11546
 C755 C 0.26283 0.84821 1.12922
 C756 C 0.34379 0.87529 1.08452
 C757 C 0.35329 0.90710 1.08434
 C758 C 0.33510 0.93013 1.09845
 C759 C 0.30775 0.92125 1.11219
 C760 C 0.34491 0.96164 1.09934
 C761 C 0.37282 0.97016 1.08721
 C762 C 0.39122 0.94768 1.07315
 C763 C 0.38108 0.91617 1.07119
 H764 H 0.25767 0.89823 1.13783
 H765 H 0.32153 0.81624 1.09012
 H766 H 0.27552 0.80046 1.11676
 H767 H 0.35771 0.85747 1.07398
 H768 H 0.29395 0.93903 1.12297
 H769 H 0.33135 0.97955 1.11015
 H770 H 0.38021 0.99446 1.08912
 H771 H 0.39530 0.89858 1.06074
 C772 C 0.69357 1.15831 1.18472
 C773 C 0.66820 1.14665 1.16831
 C774 C 0.64495 1.16795 1.15759
 C775 C 0.64658 1.20005 1.16483
 C776 C 0.67173 1.21140 1.18110
 C777 C 0.69591 1.19097 1.19026
 C778 C 0.62076 1.15707 1.13918
 C779 C 0.61918 1.12503 1.13160
 C780 C 0.64155 1.10330 1.14352
 C781 C 0.66607 1.11429 1.16160
 C782 C 0.63902 1.07096 1.13695
 C783 C 0.61471 1.06038 1.11860
 C784 C 0.59314 1.08207 1.10582
 C785 C 0.59548 1.11436 1.11230
 H786 H 0.71208 1.14238 1.19169
 H787 H 0.62875 1.21658 1.15723
 H788 H 0.67275 1.23652 1.18570
 H789 H 0.60332 1.17361 1.13048
 H790 H 0.68359 1.09778 1.17013
 H791 H 0.65576 1.05388 1.14606
 H792 H 0.61306 1.03535 1.11382
 H793 H 0.57848 1.13101 1.10285
 C794 C 0.72303 0.88073 0.88475
 C795 C 0.69792 0.89740 0.89541
 C796 C 0.69561 0.93063 0.88976
 C797 C 0.71882 0.94663 0.87395
 C798 C 0.74420 0.92994 0.86414
 C799 C 0.74673 0.89678 0.86944
 C800 C 0.67028 0.94726 0.90022
 C801 C 0.64760 0.93109 0.91687
 C802 C 0.65044 0.89794 0.92314
 C803 C 0.67532 0.88129 0.91204
 C804 C 0.62840 0.88193 0.94061
 C805 C 0.60361 0.89847 0.95167
 C806 C 0.60006 0.93123 0.94501
 C807 C 0.62219 0.94747 0.92755
 H808 H 0.72398 0.85513 0.88844
 H809 H 0.71759 0.97215 0.86960
 H810 H 0.76212 0.94321 0.85293
 H811 H 0.66838 0.97274 0.89568
 H812 H 0.67728 0.85582 0.91669
 H813 H 0.63035 0.85658 0.94579
 H814 H 0.58690 0.88548 0.96506
 H815 H 0.61980 0.97284 0.92259
   
