data_POSCAR
  _audit_creation_date              2014-09-24
  _audit_creation_method            'ToBaCCo'
  _symmetry_space_group_name_H-M    'P1'
  _symmetry_Int_Tables_number       1
  _symmetry_cell_setting            triclinic
  loop_
  _symmetry_equiv_pos_as_xyz
 x,y,z
_cell_length_a 32.4601
_cell_length_b 34.5621
_cell_length_c 33.0682
_cell_angle_alpha 85.245100
_cell_angle_beta 95.534000
_cell_angle_gamma 94.874900
loop_
  _atom_site_label
  _atom_site_type_symbol
  _atom_site_fract_x
  _atom_site_fract_y
  _atom_site_fract_z
C1 C 0.21809 0.28731 0.28026
 C2 C 0.24926 0.31159 0.25437
 C3 C 0.27207 0.29011 0.23348
 C4 C 0.26129 0.24601 0.23986
 C5 C 0.19180 0.26252 0.24929
 C6 C 0.21422 0.24058 0.22845
 C7 C 0.24400 0.25840 0.30710
 C8 C 0.26667 0.23679 0.28622
 H9 H 0.25067 0.34301 0.24985
 H10 H 0.27965 0.22849 0.22266
 H11 H 0.15830 0.26200 0.24471
 H12 H 0.24503 0.25620 0.34004
 C13 C 0.71865 0.78216 0.28902
 C14 C 0.74996 0.80722 0.26403
 C15 C 0.77188 0.78664 0.24129
 C16 C 0.76106 0.74243 0.24618
 C17 C 0.69196 0.75803 0.25795
 C18 C 0.71391 0.73710 0.23561
 C19 C 0.74544 0.75277 0.31458
 C20 C 0.76735 0.73177 0.29227
 H21 H 0.75376 0.83866 0.26379
 H22 H 0.77911 0.72561 0.22795
 H23 H 0.65835 0.75645 0.25535
 H24 H 0.74976 0.75076 0.34748
 C25 C 0.71143 0.28259 0.78289
 C26 C 0.74086 0.30623 0.75913
 C27 C 0.76533 0.28478 0.73635
 C28 C 0.75563 0.24270 0.74232
 C29 C 0.68550 0.25688 0.75234
 C30 C 0.70859 0.23607 0.73093
 C31 C 0.73740 0.25352 0.80978
 C32 C 0.76089 0.23282 0.78873
 H33 H 0.74092 0.33765 0.75598
 H34 H 0.77414 0.22472 0.72601
 H35 H 0.65204 0.25232 0.75045
 H36 H 0.73732 0.24992 0.84261
 C37 C 0.20951 0.78364 0.78233
 C38 C 0.23970 0.80902 0.75654
 C39 C 0.26321 0.78871 0.73517
 C40 C 0.25455 0.74437 0.74167
 C41 C 0.18414 0.75721 0.75217
 C42 C 0.20763 0.73682 0.73079
 C43 C 0.23676 0.75559 0.80913
 C44 C 0.26058 0.73524 0.78805
 H45 H 0.24094 0.84054 0.75430
 H46 H 0.27370 0.72771 0.72439
 H47 H 0.15079 0.75178 0.75051
 H48 H 0.23731 0.75249 0.84202
 C49 C 0.06579 0.05597 0.00940
 H50 H 0.06482 0.05878 -0.02350
 C51 C 0.09088 0.08258 0.03233
 H52 H 0.10944 0.10588 0.01712
 C53 C 0.04167 0.02310 0.06948
 H54 H 0.02172 0.00056 0.08387
 C55 C 0.06629 0.04905 0.09352
 H56 H 0.06552 0.04611 0.12632
 N57 N 0.04199 0.02685 0.02820
 C58 C 0.01554 -0.06143 -0.05996
 H59 H -0.01799 -0.06472 -0.06129
 C60 C 0.03662 -0.08404 -0.08303
 H61 H 0.01932 -0.10475 -0.10233
 C62 C 0.07923 -0.03081 -0.03280
 H63 H 0.09576 -0.01048 -0.01276
 C64 C 0.10151 -0.05286 -0.05535
 H65 H 0.13511 -0.04918 -0.05289
 Zn66 Zn 0.00618 -0.00601 -0.00512
 N67 N 0.03698 -0.03514 -0.03584
 C68 C -0.03062 0.02663 -0.08110
 N69 N -0.02810 0.02677 -0.03976
 C70 C -0.04933 0.05157 -0.02127
 C71 C -0.07522 0.07684 -0.04445
 C72 C -0.05623 0.05151 -0.10546
 C73 C -0.00733 -0.06807 0.05384
 C74 C -0.03018 -0.09364 0.07983
 C75 C -0.09277 -0.06573 0.04960
 C76 C -0.06880 -0.04067 0.02425
 N77 N -0.02677 -0.04166 0.02742
 H78 H -0.01281 0.00739 -0.09527
 H79 H -0.04626 0.05147 0.01161
 H80 H -0.09228 0.09622 -0.02942
 H81 H -0.05836 0.05110 -0.13832
 H82 H 0.02605 -0.06862 0.05531
 H83 H -0.01439 -0.11389 0.10151
 H84 H -0.12611 -0.06416 0.04749
 H85 H -0.08385 -0.02025 0.00241
 C86 C 0.07999 -0.07961 -0.08076
 C87 C 0.09098 0.07912 0.07477
 C88 C -0.07324 -0.09211 0.07796
 C89 C -0.07884 0.07669 -0.08689
 C90 C 0.06765 0.54839 0.51215
 H91 H 0.06765 0.55125 0.47932
 C92 C 0.09232 0.57475 0.53572
 H93 H 0.11153 0.59792 0.52109
 C94 C 0.04131 0.51577 0.57135
 H95 H 0.02061 0.49348 0.58510
 C96 C 0.06549 0.54148 0.59602
 H97 H 0.06361 0.53862 0.62868
 N98 N 0.04288 0.51956 0.53020
 C99 C 0.01711 0.43223 0.44092
 H100 H -0.01647 0.42959 0.43854
 C101 C 0.03848 0.40954 0.41820
 H102 H 0.02138 0.38945 0.39806
 C103 C 0.08059 0.46140 0.47029
 H104 H 0.09690 0.48123 0.49101
 C105 C 0.10314 0.43926 0.44815
 H106 H 0.13677 0.44241 0.45154
 Zn107 Zn 0.00732 0.48751 0.49584
 N108 N 0.03833 0.45789 0.46592
 C109 C -0.02691 0.52140 0.41926
 N110 N -0.02530 0.52122 0.46059
 C111 C -0.04629 0.54642 0.47877
 C112 C -0.07104 0.57244 0.45528
 C113 C -0.05139 0.54704 0.39457
 C114 C -0.00914 0.42553 0.55405
 C115 C -0.03325 0.40046 0.57935
 C116 C -0.09442 0.42976 0.54748
 C117 C -0.06921 0.45430 0.52286
 N118 N -0.02727 0.45241 0.52720
 H119 H -0.00928 0.50180 0.40536
 H120 H -0.04394 0.54603 0.51166
 H121 H -0.08798 0.59210 0.47007
 H122 H -0.05288 0.54686 0.36172
 H123 H 0.02421 0.42426 0.55646
 H124 H -0.01849 0.37987 0.60144
 H125 H -0.12766 0.43210 0.54449
 H126 H -0.08321 0.47509 0.50067
 C127 C 0.08188 0.41324 0.42175
 C128 C 0.09104 0.57133 0.57802
 C129 C -0.07623 0.40297 0.57632
 C130 C -0.07377 0.57264 0.41282
 C131 C 0.56583 0.05212 0.50900
 H132 H 0.56576 0.05534 0.47617
 C133 C 0.59078 0.07804 0.53289
 H134 H 0.61015 0.10123 0.51848
 C135 C 0.53940 0.01902 0.56792
 H136 H 0.51856 -0.00326 0.58148
 C137 C 0.56385 0.04428 0.59288
 H138 H 0.56204 0.04105 0.62555
 N139 N 0.54088 0.02325 0.52677
 C140 C 0.51379 -0.06337 0.43667
 H141 H 0.48021 -0.06583 0.43455
 C142 C 0.53477 -0.08630 0.41384
 H143 H 0.51737 -0.10645 0.39396
 C144 C 0.57764 -0.03459 0.46564
 H145 H 0.59426 -0.01488 0.48629
 C146 C 0.59982 -0.05699 0.44337
 H147 H 0.63345 -0.05419 0.44670
 Zn148 Zn 0.50486 -0.00829 0.49218
 N149 N 0.53538 -0.03786 0.46161
 C150 C 0.47013 0.02618 0.41615
 N151 N 0.47223 0.02586 0.45751
 C152 C 0.45164 0.05109 0.47608
 C153 C 0.42677 0.07727 0.45297
 C154 C 0.44553 0.05196 0.39184
 C155 C 0.48828 -0.07066 0.54999
 C156 C 0.46419 -0.09559 0.57545
 C157 C 0.40317 -0.06546 0.54447
 C158 C 0.42835 -0.04108 0.51968
 N159 N 0.47022 -0.04343 0.52352
 H160 H 0.48743 0.00653 0.40193
 H161 H 0.45437 0.05058 0.50899
 H162 H 0.41015 0.09695 0.46807
 H163 H 0.44364 0.05188 0.35896
 H164 H 0.52156 -0.07227 0.55202
 H165 H 0.47891 -0.11644 0.59726
 H166 H 0.36999 -0.06275 0.54190
 H167 H 0.41438 -0.02001 0.49779
 C168 C 0.57818 -0.08299 0.41718
 C169 C 0.58960 0.07415 0.57520
 C170 C 0.42131 -0.09257 0.57298
 C171 C 0.42352 0.07758 0.41050
 C172 C 0.56910 0.55890 0.00881
 H173 H 0.56924 0.56248 -0.02399
 C174 C 0.59347 0.58488 0.03311
 H175 H 0.61265 0.60844 0.01906
 C176 C 0.54277 0.52478 0.06726
 H177 H 0.52219 0.50205 0.08048
 C178 C 0.56663 0.55007 0.09262
 H179 H 0.56469 0.54638 0.12526
 N180 N 0.54450 0.52948 0.02616
 C181 C 0.51881 0.44336 -0.06442
 H182 H 0.48525 0.44051 -0.06622
 C183 C 0.53986 0.42046 -0.08718
 H184 H 0.52251 0.40000 -0.10675
 C185 C 0.58257 0.47290 -0.03609
 H186 H 0.59909 0.49287 -0.01564
 C187 C 0.60484 0.45052 -0.05832
 H188 H 0.63846 0.45358 -0.05522
 Zn189 Zn 0.50922 0.49769 -0.00877
 N190 N 0.54030 0.46916 -0.03977
 C191 C 0.47333 0.53198 -0.08436
 N192 N 0.47552 0.53128 -0.04297
 C193 C 0.45405 0.55555 -0.02406
 C194 C 0.42815 0.58106 -0.04684
 C195 C 0.44771 0.55711 -0.10835
 C196 C 0.49461 0.43419 0.04807
 C197 C 0.47131 0.40795 0.07299
 C198 C 0.40914 0.43659 0.04272
 C199 C 0.43356 0.46232 0.01844
 N200 N 0.47560 0.46129 0.02220
 H201 H 0.49130 0.51309 -0.09885
 H202 H 0.45683 0.55476 0.00886
 H203 H 0.41080 0.59994 -0.03148
 H204 H 0.44573 0.55729 -0.14125
 H205 H 0.52802 0.43364 0.05000
 H206 H 0.48676 0.38721 0.09436
 H207 H 0.37580 0.43825 0.04026
 H208 H 0.41887 0.48331 -0.00300
 C209 C 0.58326 0.42409 -0.08408
 C210 C 0.59205 0.58048 0.07539
 C211 C 0.42823 0.40952 0.07058
 C212 C 0.42476 0.58169 -0.08934
 C213 C 0.14282 -0.14513 -0.14770
 C214 C 0.12224 -0.16219 -0.18167
 C215 C 0.14327 -0.18504 -0.20457
 C216 C 0.18527 -0.19183 -0.19340
 C217 C 0.20591 -0.17332 -0.15986
 C218 C 0.18479 -0.15049 -0.13703
 C219 C 0.12089 -0.12192 -0.12405
 C220 C 0.10232 -0.10259 -0.10429
 H221 H 0.08991 -0.15763 -0.19064
 H222 H 0.12642 -0.19652 -0.23126
 H223 H 0.23855 -0.17659 -0.15126
 H224 H 0.20122 -0.13696 -0.11110
 C225 C 0.14759 0.35102 0.35420
 C226 C 0.13276 0.31380 0.34331
 C227 C 0.15558 0.29336 0.31961
 C228 C 0.19319 0.31021 0.30552
 C229 C 0.20854 0.34708 0.31828
 C230 C 0.18568 0.36742 0.34198
 C231 C 0.12403 0.37238 0.37820
 C232 C 0.10463 0.39076 0.39813
 H233 H 0.10366 0.30050 0.35328
 H234 H 0.14380 0.26425 0.31248
 H235 H 0.23849 0.36023 0.31069
 H236 H 0.19788 0.39590 0.35100
 C237 C 0.64331 -0.14971 0.35370
 C238 C 0.65842 -0.18391 0.37283
 C239 C 0.68233 -0.20627 0.35225
 C240 C 0.69233 -0.19431 0.31228
 C241 C 0.67528 -0.16067 0.29281
 C242 C 0.65138 -0.13836 0.31348
 C243 C 0.61980 -0.12622 0.37554
 C244 C 0.60059 -0.10653 0.39431
 H245 H 0.65166 -0.19338 0.40372
 H246 H 0.69219 -0.23306 0.36782
 H247 H 0.68062 -0.15147 0.26152
 H248 H 0.63930 -0.11222 0.29812
 C249 C 0.64549 0.35598 -0.14877
 C250 C 0.68626 0.34767 -0.13576
 C251 C 0.70716 0.32399 -0.15786
 C252 C 0.68738 0.30752 -0.19301
 C253 C 0.64670 0.31727 -0.20646
 C254 C 0.62588 0.34096 -0.18427
 C255 C 0.62385 0.38021 -0.12595
 C256 C 0.60549 0.40033 -0.10686
 H257 H 0.70199 0.35963 -0.10863
 H258 H 0.73900 0.31869 -0.14754
 H259 H 0.63090 0.30751 -0.23447
 H260 H 0.59456 0.34783 -0.19504
 C261 C -0.15722 0.15024 -0.15163
 C262 C -0.14612 0.17283 -0.18660
 C263 C -0.17302 0.19939 -0.20636
 C264 C -0.21127 0.20372 -0.19122
 C265 C -0.22233 0.18052 -0.15636
 C266 C -0.19546 0.15400 -0.13672
 C267 C -0.12905 0.12403 -0.13012
 C268 C -0.10590 0.10231 -0.11099
 H269 H -0.11649 0.17029 -0.19828
 H270 H -0.16339 0.21721 -0.23279
 H271 H -0.25184 0.18273 -0.14434
 H272 H -0.20439 0.13662 -0.10971
 C273 C -0.15075 0.64782 0.34885
 C274 C -0.14038 0.67030 0.31355
 C275 C -0.16725 0.69737 0.29472
 C276 C -0.20466 0.70232 0.31117
 C277 C -0.21499 0.67919 0.34633
 C278 C -0.18820 0.65218 0.36500
 C279 C -0.12270 0.62108 0.36959
 C280 C -0.09997 0.59886 0.38851
 H281 H -0.11135 0.66728 0.30091
 H282 H -0.15822 0.71507 0.26798
 H283 H -0.24388 0.68188 0.35933
 H284 H -0.19656 0.63490 0.39228
 C285 C 0.34721 0.15320 0.34615
 C286 C 0.30959 0.15832 0.36164
 C287 C 0.28323 0.18528 0.34200
 C288 C 0.29418 0.20755 0.30652
 C289 C 0.33183 0.20192 0.29088
 C290 C 0.35822 0.17493 0.31065
 C291 C 0.37474 0.12632 0.36749
 C292 C 0.39728 0.10398 0.38649
 H293 H 0.30073 0.14161 0.38907
 H294 H 0.25416 0.18850 0.35443
 H295 H 0.34140 0.21900 0.26397
 H296 H 0.38738 0.17133 0.29851
 C297 C 0.34499 0.65467 -0.15282
 C298 C 0.35509 0.67712 -0.18821
 C299 C 0.32743 0.70311 -0.20772
 C300 C 0.28941 0.70700 -0.19192
 C301 C 0.27939 0.68400 -0.15658
 C302 C 0.30702 0.65805 -0.13719
 C303 C 0.37377 0.62880 -0.13177
 C304 C 0.39735 0.60725 -0.11302
 H305 H 0.38449 0.67486 -0.20046
 H306 H 0.33627 0.72079 -0.23454
 H307 H 0.25008 0.68586 -0.14405
 H308 H 0.29885 0.64075 -0.10986
 C309 C -0.14374 -0.15636 0.15888
 C310 C -0.16753 -0.19045 0.14865
 C311 C -0.19437 -0.20951 0.17586
 C312 C -0.19785 -0.19455 0.21355
 C313 C -0.17320 -0.16071 0.22387
 C314 C -0.14637 -0.14177 0.19669
 C315 C -0.11814 -0.13515 0.13003
 C316 C -0.09732 -0.11617 0.10612
 H317 H -0.16593 -0.20187 0.11935
 H318 H -0.21335 -0.23518 0.16681
 H319 H -0.17472 -0.14881 0.25292
 H320 H -0.12810 -0.11542 0.20494
 C321 C -0.15019 0.34107 0.65573
 C322 C -0.16217 0.36060 0.68745
 C323 C -0.18958 0.34193 0.71417
 C324 C -0.20579 0.30306 0.70980
 C325 C -0.19275 0.28357 0.67783
 C326 C -0.16533 0.30249 0.65109
 C327 C -0.12341 0.36134 0.62738
 C328 C -0.10156 0.37962 0.60391
 H329 H -0.15042 0.39046 0.69148
 H330 H -0.19699 0.35809 0.73878
 H331 H -0.20490 0.25438 0.67169
 H332 H -0.15653 0.28719 0.62633
 C333 C 0.34792 -0.15455 0.65291
 C334 C 0.32580 -0.18976 0.64371
 C335 C 0.29862 -0.20854 0.67075
 C336 C 0.29315 -0.19219 0.70725
 C337 C 0.31593 -0.15706 0.71644
 C338 C 0.34310 -0.13840 0.68943
 C339 C 0.37439 -0.13408 0.62438
 C340 C 0.39607 -0.11579 0.60076
 H341 H 0.32910 -0.20240 0.61540
 H342 H 0.28107 -0.23522 0.66252
 H343 H 0.31284 -0.14405 0.74456
 H344 H 0.36007 -0.11116 0.69686
 C345 C 0.35692 0.34530 0.15068
 C346 C 0.33380 0.31060 0.14130
 C347 C 0.30677 0.29204 0.16864
 C348 C 0.30244 0.30819 0.20552
 C349 C 0.32647 0.34260 0.21499
 C350 C 0.35347 0.36100 0.18774
 C351 C 0.38269 0.36611 0.12176
 C352 C 0.40375 0.38512 0.09810
 H353 H 0.33607 0.29832 0.11257
 H354 H 0.28831 0.26585 0.16031
 H355 H 0.32425 0.35539 0.24343
 H356 H 0.37122 0.38783 0.19531
 C357 C 0.15553 0.15927 0.14540
 C358 C 0.13921 0.19519 0.14732
 C359 C 0.15868 0.22200 0.17380
 C360 C 0.19476 0.21316 0.19876
 C361 C 0.21141 0.17731 0.19606
 C362 C 0.19183 0.15049 0.16958
 C363 C 0.13392 0.13092 0.11988
 C364 C 0.11485 0.10724 0.09903
 H365 H 0.11114 0.20230 0.12872
 H366 H 0.14547 0.24960 0.17474
 H367 H 0.23879 0.16943 0.21530
 H368 H 0.20459 0.12267 0.16850
 C369 C 0.15232 0.65261 0.64932
 C370 C 0.13384 0.68739 0.65158
 C371 C 0.15213 0.71501 0.67768
 C372 C 0.18922 0.70818 0.70193
 C373 C 0.20796 0.67342 0.69902
 C374 C 0.18954 0.64576 0.67289
 C375 C 0.13211 0.62359 0.62382
 C376 C 0.11400 0.59958 0.60277
 H377 H 0.10505 0.69301 0.63345
 H378 H 0.13729 0.74174 0.67886
 H379 H 0.23617 0.66707 0.71772
 H380 H 0.20398 0.61882 0.67153
 C381 C 0.65199 0.15376 0.64790
 C382 C 0.63439 0.18895 0.65043
 C383 C 0.65309 0.21592 0.67708
 C384 C 0.68971 0.20803 0.70162
 C385 C 0.70755 0.17283 0.69849
 C386 C 0.68873 0.14582 0.67182
 C387 C 0.63136 0.12539 0.62182
 C388 C 0.61293 0.10188 0.60034
 H389 H 0.60596 0.19539 0.63206
 H390 H 0.63893 0.24299 0.67843
 H391 H 0.73534 0.16563 0.71744
 H392 H 0.70247 0.11855 0.67029
 C393 C 0.65482 0.65823 0.15008
 C394 C 0.69164 0.64925 0.17324
 C395 C 0.71114 0.67514 0.20073
 C396 C 0.69395 0.71032 0.20547
 C397 C 0.65717 0.71929 0.18173
 C398 C 0.63776 0.69339 0.15424
 C399 C 0.63367 0.63087 0.12312
 C400 C 0.61517 0.60790 0.10106
 H401 H 0.70496 0.62199 0.17046
 H402 H 0.73901 0.66708 0.21903
 H403 H 0.64348 0.74637 0.18430
 H404 H 0.60926 0.70064 0.13647
   
