data_POSCAR
  _audit_creation_date              2014-09-24
  _audit_creation_method            'ToBaCCo'
  _symmetry_space_group_name_H-M    'P1'
  _symmetry_Int_Tables_number       1
  _symmetry_cell_setting            triclinic
  loop_
  _symmetry_equiv_pos_as_xyz
 x,y,z
_cell_length_a 54.9511
_cell_length_b 55.3038
_cell_length_c 55.4872
_cell_angle_alpha 89.991000
_cell_angle_beta 89.661400
_cell_angle_gamma 90.371600
loop_
  _atom_site_label
  _atom_site_type_symbol
  _atom_site_fract_x
  _atom_site_fract_y
  _atom_site_fract_z
N1 N 0.27534 0.23030 0.21273
 N2 N 0.26495 0.24973 0.20399
 C3 C 0.27798 0.25775 0.18494
 C4 C 0.29760 0.24251 0.18144
 C5 C 0.29528 0.22525 0.19947
 H6 H 0.27338 0.27338 0.17426
 H7 H 0.30733 0.21029 0.20290
 Cu8 Cu 0.23539 0.26270 0.21836
 Cu9 Cu 0.26225 0.21307 0.24071
 Cu10 Cu 0.20951 0.23596 0.26646
 N11 N 0.20582 0.27540 0.23299
 N12 N 0.19594 0.26493 0.25195
 C13 C 0.17619 0.27748 0.25885
 C14 C 0.17343 0.29690 0.24334
 C15 C 0.19259 0.29495 0.22712
 H16 H 0.16467 0.27276 0.27401
 H17 H 0.19688 0.30716 0.21247
 N18 N 0.22589 0.20685 0.27861
 N19 N 0.24612 0.19825 0.26907
 C20 C 0.25290 0.17857 0.28166
 C21 C 0.23604 0.17450 0.29991
 C22 C 0.21921 0.19282 0.29737
 H23 H 0.26879 0.16783 0.27771
 H24 H 0.20345 0.19593 0.30865
 H25 H 0.22655 0.22306 0.23570
 H26 H 0.24523 0.24245 0.25609
 N27 N 0.72198 -0.23293 0.21198
 N28 N 0.72947 -0.25477 0.20654
 C29 C 0.71630 -0.26335 0.18799
 C30 C 0.69965 -0.24584 0.18116
 C31 C 0.70398 -0.22672 0.19689
 H32 H 0.71900 -0.28093 0.17995
 H33 H 0.69435 -0.20978 0.19791
 Cu34 Cu 0.75588 -0.27003 0.22394
 Cu35 Cu 0.73509 -0.21483 0.23918
 Cu36 Cu 0.78608 -0.23857 0.26641
 N37 N 0.78726 -0.28053 0.23599
 N38 N 0.79867 -0.26851 0.25295
 C39 C 0.81932 -0.28012 0.25851
 C40 C 0.82122 -0.30061 0.24411
 C41 C 0.80041 -0.30011 0.22995
 H42 H 0.83205 -0.27381 0.27190
 H43 H 0.79485 -0.31316 0.21655
 N44 N 0.77056 -0.20846 0.27734
 N45 N 0.75103 -0.19941 0.26707
 C46 C 0.74441 -0.17926 0.27904
 C47 C 0.76066 -0.17535 0.29766
 C48 C 0.77699 -0.19424 0.29597
 H49 H 0.72889 -0.16827 0.27457
 H50 H 0.79208 -0.19772 0.30785
 H51 H 0.76929 -0.22944 0.23436
 H52 H 0.74955 -0.24328 0.25836
 N53 N 0.72162 0.22898 0.79034
 N54 N 0.73228 0.24824 0.79941
 C55 C 0.71971 0.25556 0.81896
 C56 C 0.70009 0.24007 0.82242
 C57 C 0.70195 0.22335 0.80388
 H58 H 0.72450 0.27102 0.82988
 H59 H 0.68965 0.20850 0.80018
 Cu60 Cu 0.76126 0.26223 0.78455
 Cu61 Cu 0.73378 0.21311 0.76128
 Cu62 Cu 0.78522 0.23828 0.73427
 N63 N 0.79024 0.27601 0.76947
 N64 N 0.79921 0.26693 0.74947
 C65 C 0.81865 0.28019 0.74250
 C66 C 0.82229 0.29864 0.75915
 C67 C 0.80380 0.29524 0.77605
 H68 H 0.82940 0.27637 0.72661
 H69 H 0.80008 0.30616 0.79175
 N70 N 0.76852 0.20929 0.72166
 N71 N 0.74890 0.19976 0.73181
 C72 C 0.74194 0.18024 0.71898
 C73 C 0.75801 0.17723 0.69990
 C74 C 0.77460 0.19602 0.70222
 H75 H 0.72650 0.16883 0.72338
 H76 H 0.78987 0.19988 0.69045
 H77 H 0.76968 0.22364 0.76511
 H78 H 0.74995 0.24347 0.74642
 N79 N 0.28128 -0.23456 0.78962
 N80 N 0.27281 -0.25592 0.79596
 C81 C 0.28574 -0.26424 0.81471
 C82 C 0.30325 -0.24713 0.82054
 C83 C 0.29982 -0.22850 0.80423
 H84 H 0.28256 -0.28144 0.82350
 H85 H 0.31044 -0.21204 0.80267
 Cu86 Cu 0.24600 -0.27110 0.77896
 Cu87 Cu 0.26844 -0.21695 0.76207
 Cu88 Cu 0.21695 -0.24095 0.73508
 N89 N 0.21456 -0.28174 0.76704
 N90 N 0.20366 -0.27050 0.74932
 C91 C 0.18289 -0.28234 0.74400
 C92 C 0.18041 -0.30205 0.75944
 C93 C 0.20098 -0.30088 0.77388
 H94 H 0.17040 -0.27665 0.73017
 H95 H 0.20613 -0.31327 0.78798
 N96 N 0.23321 -0.21114 0.72358
 N97 N 0.25277 -0.20197 0.73392
 C98 C 0.25974 -0.18196 0.72181
 C99 C 0.24379 -0.17825 0.70294
 C100 C 0.22719 -0.19714 0.70469
 H101 H 0.27534 -0.17091 0.72638
 H102 H 0.21211 -0.20074 0.69277
 H103 H 0.23362 -0.23081 0.76683
 H104 H 0.25318 -0.24572 0.74358
 N105 N 0.72314 -0.23033 0.78786
 N106 N 0.73395 -0.24891 0.79786
 C107 C 0.72235 -0.25451 0.81859
 C108 C 0.70334 -0.23849 0.82181
 C109 C 0.70445 -0.22338 0.80194
 H110 H 0.72734 -0.26914 0.83046
 H111 H 0.69222 -0.20877 0.79771
 Cu112 Cu 0.76168 -0.26412 0.78228
 Cu113 Cu 0.73369 -0.21681 0.75711
 Cu114 Cu 0.78306 -0.24414 0.72912
 N115 N 0.78949 -0.27921 0.76670
 N116 N 0.79714 -0.27189 0.74544
 C117 C 0.81561 -0.28602 0.73812
 C118 C 0.82007 -0.30309 0.75591
 C119 C 0.80308 -0.29803 0.77384
 H120 H 0.82527 -0.28364 0.72126
 H121 H 0.80026 -0.30770 0.79054
 N122 N 0.76629 -0.21582 0.71564
 N123 N 0.74717 -0.20578 0.72600
 C124 C 0.73995 -0.18692 0.71251
 C125 C 0.75544 -0.18482 0.69291
 C126 C 0.77192 -0.20341 0.69547
 H127 H 0.72502 -0.17508 0.71698
 H128 H 0.78691 -0.20753 0.68349
 H129 H 0.74858 -0.24824 0.74355
 H130 H 0.76968 -0.22722 0.75958
 N131 N 0.28183 0.23343 0.78440
 N132 N 0.27314 0.25386 0.79279
 C133 C 0.28656 0.26092 0.81183
 C134 C 0.30473 0.24407 0.81540
 C135 C 0.30109 0.22687 0.79765
 H136 H 0.28374 0.27738 0.82196
 H137 H 0.31168 0.21076 0.79455
 Cu138 Cu 0.24576 0.26952 0.77728
 Cu139 Cu 0.26812 0.21703 0.75659
 Cu140 Cu 0.21866 0.24395 0.72925
 N141 N 0.21767 0.28413 0.76203
 N142 N 0.20696 0.27391 0.74349
 C143 C 0.18807 0.28761 0.73662
 C144 C 0.18695 0.30761 0.75157
 C145 C 0.20603 0.30478 0.76749
 H146 H 0.17631 0.28355 0.72159
 H147 H 0.21092 0.31676 0.78209
 N148 N 0.23321 0.21361 0.71760
 N149 N 0.25180 0.20319 0.72826
 C150 C 0.25767 0.18300 0.71605
 C151 C 0.24216 0.18065 0.69665
 C152 C 0.22688 0.20040 0.69821
 H153 H 0.27261 0.17123 0.72049
 H154 H 0.21225 0.20482 0.68608
 H155 H 0.25436 0.24757 0.74010
 H156 H 0.23332 0.23061 0.76067
 N157 N 0.27770 -0.22751 0.20768
 N158 N 0.26751 -0.24699 0.19857
 C159 C 0.27919 -0.25293 0.17802
 C160 C 0.29765 -0.23620 0.17402
 C161 C 0.29608 -0.22031 0.19322
 H162 H 0.27475 -0.26837 0.16692
 H163 H 0.30800 -0.20515 0.19691
 Cu164 Cu 0.24056 -0.26306 0.21497
 Cu165 Cu 0.26752 -0.21384 0.23839
 Cu166 Cu 0.22024 -0.24294 0.26858
 N167 N 0.21312 -0.27830 0.23134
 N168 N 0.20571 -0.27082 0.25261
 C169 C 0.18674 -0.28457 0.25990
 C170 C 0.18188 -0.30146 0.24213
 C171 C 0.19899 -0.29693 0.22428
 H172 H 0.17684 -0.28207 0.27660
 H173 H 0.20107 -0.30661 0.20748
 N174 N 0.23723 -0.21429 0.28151
 N175 N 0.25476 -0.20286 0.26970
 C176 C 0.26198 -0.18358 0.28270
 C177 C 0.24843 -0.18287 0.30376
 C178 C 0.23295 -0.20265 0.30241
 H179 H 0.27624 -0.17110 0.27737
 H180 H 0.21920 -0.20785 0.31545
 H181 H 0.25432 -0.24578 0.25299
 H182 H 0.23185 -0.22618 0.23731
 N183 N 0.71674 0.23389 0.21197
 N184 N 0.72680 0.25405 0.20415
 C185 C 0.71528 0.26117 0.18399
 C186 C 0.69724 0.24439 0.17886
 C187 C 0.69872 0.22734 0.19700
 H188 H 0.71983 0.27715 0.17363
 H189 H 0.68722 0.21158 0.19938
 Cu190 Cu 0.75435 0.26861 0.22075
 Cu191 Cu 0.72711 0.21783 0.24126
 Cu192 Cu 0.77669 0.24249 0.27078
 N193 N 0.78298 0.28137 0.23700
 N194 N 0.79127 0.27139 0.25679
 C195 C 0.81075 0.28400 0.26449
 C196 C 0.81509 0.30276 0.24853
 C197 C 0.79713 0.30052 0.23126
 H198 H 0.82124 0.27960 0.28030
 H199 H 0.79442 0.31217 0.21588
 N200 N 0.75947 0.21330 0.28213
 N201 N 0.74025 0.20419 0.27115
 C202 C 0.73223 0.18473 0.28352
 C203 C 0.74728 0.18128 0.30307
 C204 C 0.76436 0.19969 0.30161
 H205 H 0.71680 0.17363 0.27852
 H206 H 0.77903 0.20311 0.31407
 H207 H 0.74199 0.24796 0.25776
 H208 H 0.76291 0.22939 0.23870
 C209 C 0.24740 0.01018 0.50033
 C210 C 0.24842 -0.01431 0.50171
 C211 C 0.24891 -0.02968 0.47988
 C212 C 0.24877 -0.02730 0.52511
 C213 C 0.24669 0.02546 0.52222
 C214 C 0.24655 0.02319 0.47693
 C215 C 0.23031 -0.04672 0.47639
 C216 C 0.23092 -0.06223 0.45660
 C217 C 0.25041 -0.06127 0.44007
 C218 C 0.26897 -0.04397 0.44352
 C219 C 0.26822 -0.02829 0.46328
 C220 C 0.22909 -0.02597 0.54129
 C221 C 0.22889 -0.03996 0.56233
 C222 C 0.24839 -0.05543 0.56753
 C223 C 0.26820 -0.05639 0.55142
 C224 C 0.26829 -0.04258 0.53036
 C225 C 0.26616 0.02591 0.53845
 C226 C 0.26570 0.04151 0.55828
 C227 C 0.24575 0.05690 0.56217
 C228 C 0.22614 0.05602 0.54601
 C229 C 0.22672 0.04059 0.52615
 C230 C 0.26421 0.04089 0.47174
 C231 C 0.26278 0.05467 0.45072
 C232 C 0.24348 0.05121 0.43454
 C233 C 0.22593 0.03325 0.43963
 C234 C 0.22745 0.01937 0.46066
 H235 H 0.21525 -0.04798 0.48903
 H236 H 0.21608 -0.07495 0.45422
 H237 H 0.28437 -0.04296 0.43129
 H238 H 0.28291 -0.01542 0.46592
 H239 H 0.21369 -0.01454 0.53735
 H240 H 0.21344 -0.03880 0.57447
 H241 H 0.28351 -0.04401 0.51795
 H242 H 0.28188 0.01456 0.53546
 H243 H 0.28122 0.04198 0.57020
 H244 H 0.21030 0.06726 0.54872
 H245 H 0.21153 0.04042 0.51379
 H246 H 0.27897 0.04425 0.48419
 H247 H 0.27635 0.06861 0.44752
 H248 H 0.21093 0.03009 0.42744
 H249 H 0.21342 0.00606 0.46453
 H250 H 0.28330 -0.06840 0.55475
 C251 C 0.74262 0.01202 0.50038
 C252 C 0.74364 -0.01253 0.49869
 C253 C 0.74489 -0.02510 0.47504
 C254 C 0.74498 -0.02834 0.52031
 C255 C 0.74379 0.02478 0.52393
 C256 C 0.74183 0.02778 0.47867
 C257 C 0.72743 -0.04280 0.46945
 C258 C 0.72946 -0.05634 0.44830
 C259 C 0.74919 -0.05265 0.43245
 C260 C 0.76652 -0.03468 0.43795
 C261 C 0.76440 -0.02103 0.45908
 C262 C 0.72802 -0.02665 0.53928
 C263 C 0.72963 -0.04202 0.55924
 C264 C 0.74795 -0.05966 0.56038
 C265 C 0.76456 -0.06152 0.54112
 C266 C 0.76315 -0.04600 0.52142
 C267 C 0.76401 0.02233 0.53906
 C268 C 0.76601 0.03639 0.55992
 C269 C 0.74787 0.05323 0.56595
 C270 C 0.72745 0.05527 0.55097
 C271 C 0.72551 0.04128 0.53011
 C272 C 0.75846 0.04702 0.47658
 C273 C 0.75806 0.06227 0.45661
 C274 C 0.74114 0.05852 0.43805
 C275 C 0.72426 0.03938 0.44026
 C276 C 0.72445 0.02430 0.46051
 H277 H 0.71241 -0.04638 0.48170
 H278 H 0.71603 -0.07030 0.44476
 H279 H 0.78185 -0.03136 0.42602
 H280 H 0.77828 -0.00772 0.46329
 H281 H 0.71352 -0.01352 0.53860
 H282 H 0.71663 -0.03998 0.57382
 H283 H 0.77630 -0.04781 0.50693
 H284 H 0.77853 0.01001 0.53437
 H285 H 0.78188 0.03433 0.57120
 H286 H 0.71339 0.06834 0.55489
 H287 H 0.70994 0.04365 0.51848
 H288 H 0.77187 0.05024 0.49047
 H289 H 0.77087 0.07720 0.45588
 H290 H 0.71105 0.03593 0.42627
 H291 H 0.71105 0.00993 0.46198
 H292 H 0.77852 -0.07524 0.54107
 C293 C 0.49846 0.25108 -0.01128
 C294 C 0.49788 0.25218 0.01316
 C295 C 0.52045 0.25185 0.02774
 C296 C 0.47459 0.25246 0.02682
 C297 C 0.47598 0.24973 -0.02570
 C298 C 0.52151 0.25045 -0.02523
 C299 C 0.52291 0.23421 0.04569
 C300 C 0.54384 0.23332 0.05969
 C301 C 0.56287 0.25005 0.05605
 C302 C 0.56027 0.26799 0.03828
 C303 C 0.53917 0.26896 0.02432
 C304 C 0.45848 0.23268 0.02614
 C305 C 0.43783 0.23220 0.04101
 C306 C 0.43297 0.25150 0.05680
 C307 C 0.44896 0.27144 0.05709
 C308 C 0.46965 0.27183 0.04235
 C309 C 0.46096 0.26992 -0.02850
 C310 C 0.44149 0.26909 -0.04465
 C311 C 0.43676 0.24800 -0.05811
 C312 C 0.45129 0.22753 -0.05430
 C313 C 0.47085 0.22849 -0.03845
 C314 C 0.52673 0.26915 -0.04156
 C315 C 0.54759 0.26831 -0.05598
 C316 C 0.56349 0.24856 -0.05460
 C317 C 0.55825 0.22981 -0.03819
 C318 C 0.53743 0.23078 -0.02356
 H319 H 0.50860 0.22098 0.04878
 H320 H 0.54499 0.21964 0.07359
 H321 H 0.57463 0.28110 0.03502
 H322 H 0.53743 0.28303 0.01088
 H323 H 0.46226 0.21735 0.01461
 H324 H 0.42576 0.21667 0.04033
 H325 H 0.48207 0.28708 0.04333
 H326 H 0.46491 0.28653 -0.01891
 H327 H 0.43079 0.28523 -0.04733
 H328 H 0.44782 0.21083 -0.06390
 H329 H 0.48228 0.21274 -0.03640
 H330 H 0.51452 0.28434 -0.04323
 H331 H 0.55097 0.28283 -0.06868
 H332 H 0.57026 0.21445 -0.03671
 H333 H 0.53348 0.21605 -0.01126
 H334 H 0.44589 0.28641 0.06930
 C335 C 0.50310 0.74831 -0.01195
 C336 C 0.50180 0.74840 0.01258
 C337 C 0.52389 0.74832 0.02809
 C338 C 0.47807 0.74988 0.02539
 C339 C 0.48096 0.74801 -0.02732
 C340 C 0.52671 0.74972 -0.02496
 C341 C 0.54265 0.73146 0.02474
 C342 C 0.56301 0.73165 0.03979
 C343 C 0.56479 0.74831 0.05892
 C344 C 0.54568 0.76476 0.06248
 C345 C 0.52562 0.76485 0.04720
 C346 C 0.47181 0.73223 0.04251
 C347 C 0.45035 0.73425 0.05592
 C348 C 0.43490 0.75411 0.05263
 C349 C 0.44111 0.77168 0.03530
 C350 C 0.46256 0.76961 0.02183
 C351 C 0.47866 0.76520 -0.04576
 C352 C 0.45841 0.76500 -0.06080
 C353 C 0.43985 0.74763 -0.05774
 C354 C 0.44220 0.73031 -0.03930
 C355 C 0.46265 0.73038 -0.02437
 C356 C 0.54241 0.76960 -0.02191
 C357 C 0.56364 0.77163 -0.03578
 C358 C 0.56947 0.75383 -0.05293
 C359 C 0.55386 0.73380 -0.05564
 C360 C 0.53261 0.73186 -0.04189
 H361 H 0.54150 0.71807 0.01055
 H362 H 0.57739 0.71880 0.03636
 H363 H 0.54595 0.77740 0.07737
 H364 H 0.51131 0.77786 0.05039
 H365 H 0.48372 0.71704 0.04567
 H366 H 0.44623 0.72065 0.06942
 H367 H 0.46731 0.78361 0.00896
 H368 H 0.49264 0.77883 -0.04855
 H369 H 0.45753 0.77824 -0.07513
 H370 H 0.42819 0.71677 -0.03634
 H371 H 0.46424 0.71662 -0.01060
 H372 H 0.53793 0.78375 -0.00918
 H373 H 0.57540 0.78720 -0.03328
 H374 H 0.55769 0.72003 -0.06898
 H375 H 0.52055 0.71654 -0.04464
 H376 H 0.42947 0.78710 0.03232
 C377 C -0.01346 0.50077 0.24918
 C378 C 0.01128 0.50017 0.24863
 C379 C 0.02492 0.47711 0.24857
 C380 C 0.02627 0.52259 0.24752
 C381 C -0.02686 0.52393 0.24866
 C382 C -0.02870 0.47848 0.24972
 C383 C 0.04135 0.47247 0.26721
 C384 C 0.05528 0.45146 0.26702
 C385 C 0.05331 0.43485 0.24797
 C386 C 0.03686 0.43955 0.22924
 C387 C 0.02272 0.46051 0.22956
 C388 C 0.02418 0.54074 0.26509
 C389 C 0.03903 0.56136 0.26399
 C390 C 0.05647 0.56401 0.24549
 C391 C 0.05863 0.54563 0.22811
 C392 C 0.04369 0.52518 0.22913
 C393 C -0.02700 0.53839 0.22788
 C394 C -0.04138 0.55917 0.22706
 C395 C -0.05548 0.56592 0.24715
 C396 C -0.05486 0.55166 0.26807
 C397 C -0.04089 0.53068 0.26871
 C398 C -0.04753 0.47584 0.23296
 C399 C -0.06271 0.45556 0.23351
 C400 C -0.05934 0.43728 0.25076
 C401 C -0.04047 0.43995 0.26762
 C402 C -0.02544 0.46048 0.26725
 H403 H 0.04344 0.48521 0.28189
 H404 H 0.06805 0.44848 0.28150
 H405 H 0.03496 0.42699 0.21438
 H406 H 0.01035 0.46399 0.21486
 H407 H 0.01125 0.53884 0.27978
 H408 H 0.03682 0.57523 0.27758
 H409 H 0.04579 0.51127 0.21555
 H410 H -0.01645 0.53324 0.21217
 H411 H -0.04159 0.56994 0.21076
 H412 H -0.06578 0.55637 0.28367
 H413 H -0.04110 0.51958 0.28480
 H414 H -0.05058 0.48960 0.21944
 H415 H -0.07741 0.45447 0.22065
 H416 H -0.03728 0.42618 0.28108
 H417 H -0.01142 0.46239 0.28076
 H418 H 0.07221 0.54683 0.21394
 C419 C 0.01237 0.50091 0.74648
 C420 C -0.01226 0.49883 0.74562
 C421 C -0.02451 0.47483 0.74611
 C422 C -0.02844 0.52031 0.74627
 C423 C 0.02495 0.52460 0.74819
 C424 C 0.02839 0.47950 0.74708
 C425 C -0.04030 0.46830 0.72742
 C426 C -0.05426 0.44714 0.72905
 C427 C -0.05297 0.43238 0.74961
 C428 C -0.03670 0.43868 0.76807
 C429 C -0.02256 0.45972 0.76632
 C430 C -0.02516 0.53991 0.73044
 C431 C -0.04034 0.56009 0.73191
 C432 C -0.05950 0.56080 0.74886
 C433 C -0.06317 0.54076 0.76409
 C434 C -0.04777 0.52087 0.76289
 C435 C 0.02304 0.53878 0.76907
 C436 C 0.03719 0.55976 0.77149
 C437 C 0.05320 0.56696 0.75294
 C438 C 0.05449 0.55307 0.73179
 C439 C 0.04068 0.53193 0.72956
 C440 C 0.04368 0.47617 0.76690
 C441 C 0.06036 0.45731 0.76713
 C442 C 0.06236 0.44155 0.74735
 C443 C 0.04661 0.44459 0.72767
 C444 C 0.02973 0.46345 0.72755
 H445 H -0.04223 0.47992 0.71185
 H446 H -0.06686 0.44288 0.71470
 H447 H -0.03529 0.42756 0.78406
 H448 H -0.01078 0.46470 0.78112
 H449 H -0.01083 0.53966 0.71697
 H450 H -0.03686 0.57521 0.71998
 H451 H -0.05089 0.50591 0.77514
 H452 H 0.01120 0.53317 0.78374
 H453 H 0.03588 0.57021 0.78795
 H454 H 0.06692 0.55807 0.71738
 H455 H 0.04252 0.52103 0.71344
 H456 H 0.04281 0.48834 0.78217
 H457 H 0.07182 0.45515 0.78278
 H458 H 0.04786 0.43291 0.71207
 H459 H 0.01822 0.46597 0.71198
 H460 H -0.07810 0.54031 0.77689
 C461 C 0.35352 0.24837 0.12657
 C462 C 0.35003 0.22646 0.13935
 C463 C 0.33184 0.22466 0.15721
 C464 C 0.31684 0.24442 0.16260
 C465 C 0.32031 0.26608 0.14981
 C466 C 0.33836 0.26808 0.13209
 C467 C 0.37334 0.24962 0.10784
 C468 C 0.37857 0.27068 0.09439
 C469 C 0.39762 0.27110 0.07763
 C470 C 0.41190 0.25054 0.07367
 C471 C 0.40659 0.22934 0.08665
 C472 C 0.38759 0.22877 0.10371
 C473 C 0.36470 0.20645 0.13429
 C474 C 0.38305 0.20758 0.11685
 H475 H 0.36202 0.18965 0.14403
 H476 H 0.39395 0.19161 0.11370
 H477 H 0.32928 0.20773 0.16672
 H478 H 0.30925 0.28175 0.15364
 H479 H 0.40120 0.28760 0.06767
 H480 H 0.41773 0.21345 0.08397
 H481 H 0.34012 0.28525 0.12302
 H482 H 0.36833 0.28710 0.09663
 C483 C 0.64527 0.74934 0.12697
 C484 C 0.65069 0.77175 0.13805
 C485 C 0.66857 0.77319 0.15599
 C486 C 0.68197 0.75269 0.16281
 C487 C 0.67719 0.73071 0.15089
 C488 C 0.65906 0.72899 0.13340
 C489 C 0.62515 0.74838 0.10877
 C490 C 0.61678 0.72666 0.09832
 C491 C 0.59747 0.72669 0.08202
 C492 C 0.58612 0.74838 0.07544
 C493 C 0.59468 0.77013 0.08550
 C494 C 0.61360 0.77023 0.10238
 C495 C 0.63839 0.79268 0.13105
 C496 C 0.62054 0.79201 0.11333
 H497 H 0.64271 0.80993 0.13931
 H498 H 0.61163 0.80874 0.10851
 H499 H 0.67219 0.79057 0.16424
 H500 H 0.68700 0.71443 0.15533
 H501 H 0.59104 0.70954 0.07504
 H502 H 0.58646 0.78712 0.08039
 H503 H 0.65621 0.71159 0.12509
 H504 H 0.62447 0.70938 0.10293
 C505 C 0.64419 0.24526 -0.12273
 C506 C 0.64759 0.22339 -0.13554
 C507 C 0.66582 0.22176 -0.15335
 C508 C 0.68098 0.24164 -0.15862
 C509 C 0.67770 0.26319 -0.14569
 C510 C 0.65961 0.26503 -0.12804
 C511 C 0.62417 0.24645 -0.10426
 C512 C 0.61884 0.26758 -0.09109
 C513 C 0.59949 0.26801 -0.07470
 C514 C 0.58500 0.24740 -0.07084
 C515 C 0.59044 0.22609 -0.08344
 C516 C 0.60972 0.22552 -0.10020
 C517 C 0.63274 0.20329 -0.13054
 C518 C 0.61428 0.20431 -0.11322
 H519 H 0.63537 0.18650 -0.14026
 H520 H 0.60324 0.18829 -0.11014
 H521 H 0.66828 0.20490 -0.16296
 H522 H 0.68889 0.27893 -0.14939
 H523 H 0.59578 0.28460 -0.06502
 H524 H 0.57914 0.21016 -0.08079
 H525 H 0.65801 0.28213 -0.11888
 H526 H 0.62916 0.28408 -0.09333
 C527 C 0.35919 0.74782 -0.12541
 C528 C 0.35151 0.77066 -0.13391
 C529 C 0.33325 0.77216 -0.15145
 C530 C 0.32213 0.75120 -0.16056
 C531 C 0.32932 0.72861 -0.15167
 C532 C 0.34762 0.72689 -0.13440
 C533 C 0.37938 0.74700 -0.10730
 C534 C 0.38922 0.72522 -0.09859
 C535 C 0.40852 0.72547 -0.08230
 C536 C 0.41847 0.74739 -0.07411
 C537 C 0.40846 0.76917 -0.08236
 C538 C 0.38931 0.76914 -0.09900
 C539 C 0.36207 0.79189 -0.12488
 C540 C 0.38042 0.79115 -0.10767
 H541 H 0.35608 0.80938 -0.13124
 H542 H 0.38802 0.80810 -0.10132
 H543 H 0.32757 0.78975 -0.15785
 H544 H 0.32113 0.71212 -0.15840
 H545 H 0.41608 0.70839 -0.07658
 H546 H 0.41567 0.78626 -0.07592
 H547 H 0.35244 0.70901 -0.12842
 H548 H 0.38262 0.70780 -0.10443
 C549 C 0.11931 0.35311 0.24694
 C550 C 0.13235 0.34888 0.22529
 C551 C 0.14986 0.33049 0.22420
 C552 C 0.15457 0.31596 0.24438
 C553 C 0.14127 0.31991 0.26566
 C554 C 0.12392 0.33820 0.26698
 C555 C 0.10133 0.37344 0.24759
 C556 C 0.08820 0.37980 0.26853
 C557 C 0.07235 0.39941 0.26843
 C558 C 0.06898 0.41312 0.24747
 C559 C 0.08156 0.40667 0.22638
 C560 C 0.09783 0.38716 0.22635
 C561 C 0.12792 0.36304 0.20487
 C562 C 0.11095 0.38168 0.20535
 H563 H 0.13779 0.35973 0.18824
 H564 H 0.10830 0.39218 0.18909
 H565 H 0.15970 0.32744 0.20751
 H566 H 0.14451 0.30912 0.28157
 H567 H 0.06268 0.40395 0.28487
 H568 H 0.07932 0.41738 0.21018
 H569 H 0.11444 0.34037 0.28390
 H570 H 0.09011 0.37011 0.28526
 C571 C 0.12451 0.64431 0.76098
 C572 C 0.12576 0.66129 0.74195
 C573 C 0.14383 0.67941 0.74189
 C574 C 0.16159 0.68043 0.76008
 C575 C 0.16039 0.66317 0.77871
 C576 C 0.14212 0.64553 0.77925
 C577 C 0.10505 0.62516 0.76029
 C578 C 0.10132 0.60833 0.77907
 C579 C 0.08386 0.59001 0.77696
 C580 C 0.06977 0.58793 0.75609
 C581 C 0.07263 0.60515 0.73770
 C582 C 0.08991 0.62386 0.73978
 C583 C 0.10945 0.65967 0.72268
 C584 C 0.09218 0.64113 0.72143
 H585 H 0.11043 0.67261 0.70802
 H586 H 0.08040 0.64032 0.70585
 H587 H 0.14439 0.69210 0.72705
 H588 H 0.17342 0.66319 0.79322
 H589 H 0.08192 0.57691 0.79137
 H590 H 0.06146 0.60386 0.72170
 H591 H 0.14241 0.63277 0.79394
 H592 H 0.11177 0.60887 0.79545
 C593 C -0.12339 0.64591 0.24560
 C594 C -0.14123 0.64556 0.22733
 C595 C -0.15951 0.66323 0.22693
 C596 C -0.16016 0.68187 0.24424
 C597 C -0.14175 0.68253 0.26178
 C598 C -0.12376 0.66485 0.26252
 C599 C -0.10489 0.62607 0.24606
 C600 C -0.08768 0.62362 0.26465
 C601 C -0.07142 0.60433 0.26472
 C602 C -0.07165 0.58718 0.24614
 C603 C -0.08841 0.58960 0.22735
 C604 C -0.10527 0.60860 0.22740
 C605 C -0.14068 0.62765 0.20948
 C606 C -0.12291 0.60977 0.20934
 H607 H -0.15419 0.62748 0.19532
 H608 H -0.12329 0.59634 0.19511
 H609 H -0.17301 0.66242 0.21283
 H610 H -0.14125 0.69644 0.27544
 H611 H -0.05864 0.60270 0.27941
 H612 H -0.08895 0.57609 0.21319
 H613 H -0.11031 0.66641 0.27651
 H614 H -0.08677 0.63608 0.27957
 C615 C -0.12354 0.35411 0.75846
 C616 C -0.12610 0.33835 0.73854
 C617 C -0.14369 0.31976 0.73905
 C618 C -0.15955 0.31688 0.75892
 C619 C -0.15703 0.33291 0.77847
 C620 C -0.13932 0.35110 0.77831
 C621 C -0.10458 0.37373 0.75720
 C622 C -0.09979 0.38958 0.77652
 C623 C -0.08262 0.40814 0.77413
 C624 C -0.06978 0.41147 0.75246
 C625 C -0.07390 0.39539 0.73332
 C626 C -0.09097 0.37647 0.73561
 C627 C -0.11147 0.34155 0.71800
 C628 C -0.09450 0.36037 0.71645
 H629 H -0.11345 0.32956 0.70268
 H630 H -0.08395 0.36231 0.69999
 H631 H -0.14526 0.30803 0.72352
 H632 H -0.16858 0.33150 0.79425
 H633 H -0.07984 0.42038 0.78912
 H634 H -0.06376 0.39762 0.71664
 H635 H -0.13853 0.36278 0.79385
 H636 H -0.10916 0.38807 0.79358
 C637 C 0.23591 0.11930 0.35504
 C638 C 0.25765 0.12523 0.34247
 C639 C 0.25750 0.14286 0.32420
 C640 C 0.23602 0.15513 0.31844
 C641 C 0.21451 0.14914 0.33088
 C642 C 0.21438 0.13147 0.34885
 C643 C 0.23694 0.10076 0.37477
 C644 C 0.21631 0.09339 0.38818
 C645 C 0.21842 0.07688 0.40709
 C646 C 0.24110 0.06722 0.41317
 C647 C 0.26165 0.07388 0.39947
 C648 C 0.25974 0.09047 0.38039
 C649 C 0.27949 0.11388 0.34852
 C650 C 0.28054 0.09699 0.36714
 H651 H 0.29615 0.11838 0.33892
 H652 H 0.29798 0.08901 0.37132
 H653 H 0.27432 0.14745 0.31494
 H654 H 0.19758 0.15806 0.32669
 H655 H 0.20231 0.07221 0.41747
 H656 H 0.27921 0.06622 0.40376
 H657 H 0.19728 0.12784 0.35779
 H658 H 0.19841 0.10035 0.38459
 C659 C 0.75709 0.12241 0.64440
 C660 C 0.73591 0.12713 0.65823
 C661 C 0.73640 0.14476 0.67648
 C662 C 0.75767 0.15815 0.68107
 C663 C 0.77862 0.15339 0.66734
 C664 C 0.77840 0.13578 0.64932
 C665 C 0.75570 0.10373 0.62481
 C666 C 0.77578 0.09752 0.61019
 C667 C 0.77329 0.08073 0.59156
 C668 C 0.75077 0.06962 0.58698
 C669 C 0.73082 0.07517 0.60185
 C670 C 0.73311 0.09204 0.62066
 C671 C 0.71427 0.11451 0.65354
 C672 C 0.71287 0.09744 0.63510
 H673 H 0.69804 0.11810 0.66411
 H674 H 0.69560 0.08841 0.63201
 H675 H 0.71998 0.14837 0.68674
 H676 H 0.79539 0.16318 0.67057
 H677 H 0.78893 0.07696 0.58023
 H678 H 0.71342 0.06641 0.59871
 H679 H 0.79508 0.13309 0.63939
 H680 H 0.79350 0.10560 0.61260
 C681 C 0.24725 -0.12267 0.64818
 C682 C 0.22553 -0.13606 0.65203
 C683 C 0.22445 -0.15394 0.67002
 C684 C 0.24476 -0.15883 0.68444
 C685 C 0.26612 -0.14522 0.68084
 C686 C 0.26740 -0.12743 0.66300
 C687 C 0.24787 -0.10429 0.62825
 C688 C 0.26881 -0.09057 0.62242
 C689 C 0.26874 -0.07442 0.60307
 C690 C 0.24781 -0.07134 0.58909
 C691 C 0.22668 -0.08446 0.59509
 C692 C 0.22661 -0.10097 0.61436
 C693 C 0.20504 -0.13167 0.63782
 C694 C 0.20556 -0.11448 0.61944
 H695 H 0.18836 -0.14182 0.64084
 H696 H 0.18927 -0.11193 0.60884
 H697 H 0.20769 -0.16400 0.67277
 H698 H 0.28215 -0.14856 0.69153
 H699 H 0.28520 -0.06432 0.59895
 H700 H 0.21050 -0.08246 0.58420
 H701 H 0.28440 -0.11776 0.66105
 H702 H 0.28552 -0.09221 0.63234
 C703 C 0.75931 -0.12014 0.35270
 C704 C 0.73802 -0.12578 0.33954
 C705 C 0.73870 -0.14336 0.32124
 C706 C 0.76025 -0.15590 0.31608
 C707 C 0.78132 -0.15019 0.32910
 C708 C 0.78094 -0.13254 0.34708
 C709 C 0.75767 -0.10169 0.37250
 C710 C 0.77784 -0.09455 0.38645
 C711 C 0.77512 -0.07818 0.40542
 C712 C 0.75226 -0.06847 0.41103
 C713 C 0.73220 -0.07488 0.39678
 C714 C 0.73473 -0.09129 0.37761
 C715 C 0.71605 -0.11426 0.34505
 C716 C 0.71441 -0.09752 0.36376
 H717 H 0.69975 -0.11855 0.33497
 H718 H 0.69689 -0.08943 0.36755
 H719 H 0.72221 -0.14774 0.31153
 H720 H 0.79828 -0.15934 0.32538
 H721 H 0.79086 -0.07367 0.41622
 H722 H 0.71453 -0.06716 0.40073
 H723 H 0.79770 -0.12913 0.35652
 H724 H 0.79582 -0.10156 0.38323
 C725 C 0.64892 0.76216 -0.12187
 C726 C 0.66256 0.74102 -0.12651
 C727 C 0.68064 0.74109 -0.14450
 C728 C 0.68512 0.76186 -0.15841
 C729 C 0.67164 0.78279 -0.15373
 C730 C 0.65385 0.78303 -0.13569
 C731 C 0.62933 0.76112 -0.10295
 C732 C 0.61491 0.78121 -0.09677
 C733 C 0.59600 0.77894 -0.08000
 C734 C 0.59098 0.75666 -0.06894
 C735 C 0.60578 0.73677 -0.07429
 C736 C 0.62485 0.73883 -0.09112
 C737 C 0.65773 0.71976 -0.11358
 C738 C 0.63919 0.71865 -0.09637
 H739 H 0.66818 0.70357 -0.11711
 H740 H 0.63588 0.70164 -0.08718
 H741 H 0.69069 0.72469 -0.14811
 H742 H 0.67486 0.79915 -0.16401
 H743 H 0.58475 0.79452 -0.07625
 H744 H 0.60227 0.71958 -0.06550
 H745 H 0.64401 0.79963 -0.13310
 H746 H 0.61766 0.79874 -0.10487
 C747 C 0.36236 0.24511 -0.13221
 C748 C 0.34061 0.25800 -0.12782
 C749 C 0.32195 0.25787 -0.14505
 C750 C 0.32441 0.24459 -0.16649
 C751 C 0.34584 0.23158 -0.17057
 C752 C 0.36456 0.23182 -0.15376
 C753 C 0.38195 0.24587 -0.11355
 C754 C 0.40462 0.23459 -0.11682
 C755 C 0.42220 0.23551 -0.09887
 C756 C 0.41774 0.24755 -0.07704
 C757 C 0.39535 0.25926 -0.07375
 C758 C 0.37755 0.25864 -0.09186
 C759 C 0.33753 0.27067 -0.10615
 C760 C 0.35550 0.27079 -0.08847
 H761 H 0.32085 0.28048 -0.10270
 H762 H 0.35212 0.28068 -0.07194
 H763 H 0.30533 0.26774 -0.14153
 H764 H 0.34837 0.22132 -0.18699
 H765 H 0.43955 0.22696 -0.10228
 H766 H 0.39166 0.26865 -0.05699
 H767 H 0.38049 0.22135 -0.15800
 H768 H 0.40933 0.22514 -0.13316
 C769 C 0.35342 0.76344 0.11901
 C770 C 0.33980 0.74221 0.12410
 C771 C 0.32122 0.74261 0.14158
 C772 C 0.31617 0.76382 0.15451
 C773 C 0.32950 0.78488 0.14924
 C774 C 0.34781 0.78478 0.13171
 C775 C 0.37367 0.76204 0.10083
 C776 C 0.38834 0.78210 0.09452
 C777 C 0.40776 0.77956 0.07843
 C778 C 0.41307 0.75703 0.06816
 C779 C 0.39813 0.73711 0.07372
 C780 C 0.37856 0.73943 0.08992
 C781 C 0.34513 0.72058 0.11213
 C782 C 0.36415 0.71919 0.09548
 H783 H 0.33467 0.70433 0.11598
 H784 H 0.36778 0.70192 0.08700
 H785 H 0.31125 0.72612 0.14561
 H786 H 0.32582 0.80159 0.15869
 H787 H 0.41913 0.79517 0.07457
 H788 H 0.40188 0.71970 0.06556
 H789 H 0.35749 0.80152 0.12865
 H790 H 0.38539 0.79982 0.10203
 C791 C 0.64416 0.24452 0.12211
 C792 C 0.65409 0.26659 0.13063
 C793 C 0.67207 0.26644 0.14855
 C794 C 0.67972 0.24459 0.15876
 C795 C 0.66983 0.22279 0.15032
 C796 C 0.65241 0.22268 0.13217
 C797 C 0.62451 0.24543 0.10353
 C798 C 0.61407 0.22448 0.09338
 C799 C 0.59465 0.22617 0.07745
 C800 C 0.58506 0.24874 0.07115
 C801 C 0.59616 0.26979 0.08017
 C802 C 0.61581 0.26830 0.09620
 C803 C 0.64543 0.28864 0.12182
 C804 C 0.62651 0.28948 0.10519
 H805 H 0.65299 0.30555 0.12834
 H806 H 0.62006 0.30701 0.09940
 H807 H 0.67938 0.28340 0.15522
 H808 H 0.67558 0.20568 0.15778
 H809 H 0.58697 0.20966 0.07016
 H810 H 0.58898 0.28735 0.07540
 H811 H 0.64533 0.20533 0.12669
 H812 H 0.62047 0.20660 0.09759
 C813 C -0.12739 0.64079 0.75563
 C814 C -0.13231 0.65382 0.73430
 C815 C -0.14923 0.67276 0.73463
 C816 C -0.16237 0.67840 0.75576
 C817 C -0.15783 0.66481 0.77668
 C818 C -0.14056 0.64645 0.77668
 C819 C -0.10900 0.62093 0.75463
 C820 C -0.10133 0.60836 0.77526
 C821 C -0.08490 0.58935 0.77331
 C822 C -0.07577 0.58214 0.75076
 C823 C -0.08260 0.59522 0.73018
 C824 C -0.09881 0.61470 0.73201
 C825 C -0.12082 0.64742 0.71262
 C826 C -0.10480 0.62798 0.71141
 H827 H -0.12470 0.65724 0.69620
 H828 H -0.09682 0.62342 0.69410
 H829 H -0.15265 0.68243 0.71804
 H830 H -0.16732 0.66842 0.79340
 H831 H -0.07929 0.58029 0.78964
 H832 H -0.07571 0.58999 0.71261
 H833 H -0.13812 0.63667 0.79330
 H834 H -0.10763 0.61301 0.79310
 C835 C -0.12884 0.35745 0.25219
 C836 C -0.13854 0.35028 0.22968
 C837 C -0.15686 0.33252 0.22865
 C838 C -0.16541 0.32126 0.24973
 C839 C -0.15524 0.32778 0.27192
 C840 C -0.13727 0.34569 0.27321
 C841 C -0.11009 0.37728 0.25256
 C842 C -0.10053 0.38694 0.27405
 C843 C -0.08379 0.40606 0.27342
 C844 C -0.07595 0.41593 0.25139
 C845 C -0.08496 0.40601 0.22989
 C846 C -0.10216 0.38717 0.23031
 C847 C -0.12987 0.36081 0.20832
 C848 C -0.11188 0.37865 0.20861
 H849 H -0.13712 0.35515 0.19107
 H850 H -0.10581 0.38624 0.19158
 H851 H -0.16425 0.32724 0.21135
 H852 H -0.16152 0.31934 0.28845
 H853 H -0.07751 0.41356 0.29032
 H854 H -0.07879 0.41315 0.21270
 H855 H -0.13026 0.35003 0.29080
 H856 H -0.10614 0.38042 0.29154
 C857 C 0.13600 0.36654 0.74938
 C858 C 0.12983 0.34384 0.73925
 C859 C 0.14661 0.32478 0.73973
 C860 C 0.16941 0.32780 0.75066
 C861 C 0.17533 0.35021 0.76093
 C862 C 0.15894 0.36934 0.76028
 C863 C 0.11763 0.38643 0.74845
 C864 C 0.12241 0.40990 0.75714
 C865 C 0.10455 0.42764 0.75645
 C866 C 0.08137 0.42257 0.74716
 C867 C 0.07659 0.39942 0.73788
 C868 C 0.09454 0.38141 0.73835
 C869 C 0.10683 0.34018 0.72905
 C870 C 0.08949 0.35849 0.72881
 H871 H 0.10205 0.32278 0.72136
 H872 H 0.07187 0.35465 0.72095
 H873 H 0.14167 0.30744 0.73204
 H874 H 0.19282 0.35314 0.76934
 H875 H 0.10900 0.44553 0.76309
 H876 H 0.05876 0.39525 0.73067
 H877 H 0.16458 0.38606 0.76859
 H878 H 0.13982 0.41502 0.76446
 C879 C 0.12580 0.64371 0.24126
 C880 C 0.13469 0.65273 0.26343
 C881 C 0.15262 0.67096 0.26362
 C882 C 0.16242 0.67993 0.24196
 C883 C 0.15381 0.67074 0.22005
 C884 C 0.13570 0.65297 0.21964
 C885 C 0.10681 0.62414 0.24182
 C886 C 0.09604 0.61473 0.22080
 C887 C 0.07932 0.59571 0.22217
 C888 C 0.07285 0.58547 0.24446
 C889 C 0.08276 0.59535 0.26559
 C890 C 0.09950 0.61463 0.26443
 C891 C 0.12607 0.64312 0.28525
 C892 C 0.10908 0.62428 0.28573
 H893 H 0.13291 0.64995 0.30223
 H894 H 0.10335 0.61716 0.30307
 H895 H 0.15942 0.67767 0.28067
 H896 H 0.16094 0.67744 0.20307
 H897 H 0.07144 0.58893 0.20563
 H898 H 0.07798 0.58761 0.28294
 H899 H 0.12999 0.64655 0.20221
 H900 H 0.10027 0.62175 0.20313
 C901 C 0.75473 -0.13002 0.63783
 C902 C 0.73275 -0.13767 0.64895
 C903 C 0.73314 -0.15528 0.66718
 C904 C 0.75508 -0.16612 0.67392
 C905 C 0.77672 -0.15906 0.66237
 C906 C 0.77663 -0.14117 0.64465
 C907 C 0.75361 -0.11092 0.61874
 C908 C 0.77457 -0.10077 0.60796
 C909 C 0.77259 -0.08374 0.58957
 C910 C 0.74972 -0.07642 0.58125
 C911 C 0.72871 -0.08573 0.59255
 C912 C 0.73051 -0.10264 0.61135
 C913 C 0.71050 -0.12810 0.64145
 C914 C 0.70937 -0.11128 0.62276
 H915 H 0.69364 -0.13406 0.64983
 H916 H 0.69167 -0.10479 0.61729
 H917 H 0.71626 -0.16101 0.67569
 H918 H 0.79389 -0.16714 0.66728
 H919 H 0.78914 -0.07628 0.58182
 H920 H 0.71090 -0.08026 0.58639
 H921 H 0.79384 -0.13659 0.63635
 H922 H 0.79266 -0.10563 0.61352
 C923 C 0.25198 -0.12957 0.36034
 C924 C 0.24268 -0.15305 0.36507
 C925 C 0.24155 -0.17028 0.34654
 C926 C 0.24989 -0.16468 0.32326
 C927 C 0.25958 -0.14160 0.31872
 C928 C 0.26058 -0.12423 0.33695
 C929 C 0.25226 -0.11150 0.38050
 C930 C 0.26012 -0.08736 0.37749
 C931 C 0.25964 -0.07116 0.39680
 C932 C 0.25142 -0.07858 0.41962
 C933 C 0.24381 -0.10266 0.42283
 C934 C 0.24391 -0.11900 0.40351
 C935 C 0.23465 -0.15926 0.38826
 C936 C 0.23543 -0.14266 0.40710
 H937 H 0.22767 -0.17728 0.39191
 H938 H 0.22901 -0.14837 0.42473
 H939 H 0.23443 -0.18819 0.35040
 H940 H 0.26608 -0.13674 0.30090
 H941 H 0.26531 -0.05262 0.39371
 H942 H 0.23780 -0.10877 0.44046
 H943 H 0.26814 -0.10679 0.33231
 H944 H 0.26640 -0.08050 0.36035
 C945 C 0.74194 0.12645 0.35798
 C946 C 0.76483 0.13648 0.35148
 C947 C 0.76638 0.15440 0.33364
 C948 C 0.74549 0.16217 0.32160
 C949 C 0.72295 0.15162 0.32740
 C950 C 0.72112 0.13406 0.34543
 C951 C 0.74099 0.10817 0.37794
 C952 C 0.71902 0.09845 0.38708
 C953 C 0.71910 0.08211 0.40628
 C954 C 0.74105 0.07485 0.41675
 C955 C 0.76303 0.08406 0.40739
 C956 C 0.76314 0.10089 0.38850
 C957 C 0.78607 0.12853 0.36272
 C958 C 0.78527 0.11088 0.38061
 H959 H 0.80361 0.13603 0.35757
 H960 H 0.80223 0.10533 0.38874
 H961 H 0.78397 0.16208 0.32889
 H962 H 0.70656 0.15729 0.31831
 H963 H 0.70183 0.07565 0.41335
 H964 H 0.78018 0.07833 0.41500
 H965 H 0.70328 0.12670 0.34920
 H966 H 0.70155 0.10363 0.38007
 C967 C 0.24436 0.12579 0.64145
 C968 C 0.23372 0.14857 0.63680
 C969 C 0.23272 0.16618 0.65498
 C970 C 0.24260 0.16172 0.67779
 C971 C 0.25334 0.13925 0.68231
 C972 C 0.25417 0.12148 0.66445
 C973 C 0.24497 0.10746 0.62152
 C974 C 0.25442 0.08400 0.62444
 C975 C 0.25465 0.06766 0.60524
 C976 C 0.24553 0.07425 0.58262
 C977 C 0.23608 0.09757 0.57958
 C978 C 0.23554 0.11405 0.59879
 C979 C 0.22444 0.15380 0.61396
 C980 C 0.22550 0.13698 0.59531
 H981 H 0.21639 0.17126 0.61037
 H982 H 0.21821 0.14198 0.57791
 H983 H 0.22471 0.18360 0.65112
 H984 H 0.26100 0.13526 0.69978
 H985 H 0.26169 0.04967 0.60822
 H986 H 0.22931 0.10306 0.56212
 H987 H 0.26270 0.10460 0.66902
 H988 H 0.26153 0.07780 0.64140
   
