data_POSCAR
  _audit_creation_date              2014-09-24
  _audit_creation_method            'ToBaCCo'
  _symmetry_space_group_name_H-M    'P1'
  _symmetry_Int_Tables_number       1
  _symmetry_cell_setting            triclinic
  loop_
  _symmetry_equiv_pos_as_xyz
 x,y,z
_cell_length_a 30.4758
_cell_length_b 30.9654
_cell_length_c 30.9460
_cell_angle_alpha 89.892300
_cell_angle_beta 89.310500
_cell_angle_gamma 95.219700
loop_
  _atom_site_label
  _atom_site_type_symbol
  _atom_site_fract_x
  _atom_site_fract_y
  _atom_site_fract_z
N1 N 0.31886 0.22978 0.20245
 N2 N 0.30142 0.25900 0.17882
 C3 C 0.32423 0.26441 0.14138
 C4 C 0.35771 0.23703 0.14157
 C5 C 0.35318 0.21537 0.18070
 H6 H 0.31716 0.28669 0.11600
 H7 H 0.37406 0.19180 0.19294
 Cu8 Cu 0.25169 0.28842 0.20001
 Cu9 Cu 0.29771 0.21559 0.26105
 Cu10 Cu 0.19303 0.24574 0.28428
 N11 N 0.20173 0.31613 0.22338
 N12 N 0.17951 0.29969 0.25715
 C13 C 0.14680 0.32458 0.26680
 C14 C 0.14863 0.35847 0.23740
 C15 C 0.18367 0.35196 0.21015
 H16 H 0.12303 0.31793 0.29274
 H17 H 0.19513 0.37198 0.18289
 N18 N 0.22149 0.20288 0.31870
 N19 N 0.26192 0.19254 0.31097
 C20 C 0.27218 0.16342 0.34079
 C21 C 0.23636 0.15516 0.36854
 C22 C 0.20490 0.18060 0.35349
 H23 H 0.30294 0.14858 0.34150
 H24 H 0.17229 0.18276 0.36704
 H25 H 0.23613 0.22022 0.23947
 H26 H 0.25771 0.26558 0.27515
 N27 N 0.70150 -0.25420 0.18305
 N28 N 0.71805 -0.28794 0.16561
 C29 C 0.69386 -0.30095 0.13102
 C30 C 0.66096 -0.27342 0.12618
 C31 C 0.66687 -0.24404 0.15980
 H32 H 0.69983 -0.32816 0.11059
 H33 H 0.64691 -0.21794 0.16762
 Cu34 Cu 0.77020 -0.31072 0.18946
 Cu35 Cu 0.72442 -0.22712 0.23584
 Cu36 Cu 0.81523 -0.26886 0.28072
 N37 N 0.82113 -0.33400 0.21527
 N38 N 0.83784 -0.31804 0.25148
 C39 C 0.87144 -0.34067 0.26321
 C40 C 0.87630 -0.37247 0.23247
 C41 C 0.84398 -0.36710 0.20243
 H42 H 0.89087 -0.33412 0.29183
 H43 H 0.83723 -0.38645 0.17381
 N44 N 0.78762 -0.21922 0.30559
 N45 N 0.75226 -0.20411 0.28917
 C46 C 0.74076 -0.17099 0.31378
 C47 C 0.77060 -0.16480 0.34697
 C48 C 0.79996 -0.19564 0.34067
 H49 H 0.71347 -0.15200 0.30741
 H50 H 0.82822 -0.20042 0.36033
 H51 H 0.78854 -0.24225 0.22691
 H52 H 0.75126 -0.28125 0.25956
 N53 N 0.67687 0.20087 0.79505
 N54 N 0.69574 0.23786 0.80934
 C55 C 0.67146 0.25170 0.84235
 C56 C 0.63569 0.22137 0.84924
 C57 C 0.64037 0.18948 0.81884
 H58 H 0.67975 0.28106 0.86049
 H59 H 0.61869 0.16025 0.81423
 Cu60 Cu 0.75155 0.26299 0.78496
 Cu61 Cu 0.70140 0.17018 0.74700
 Cu62 Cu 0.78154 0.23056 0.68601
 N63 N 0.79729 0.29603 0.75123
 N64 N 0.80753 0.28436 0.71182
 C65 C 0.83905 0.31342 0.69553
 C66 C 0.84954 0.34467 0.72657
 C67 C 0.82226 0.33260 0.76162
 H68 H 0.85408 0.31144 0.66383
 H69 H 0.82022 0.34922 0.79216
 N70 N 0.75156 0.17487 0.66620
 N71 N 0.72098 0.15217 0.68948
 C72 C 0.70671 0.11616 0.66759
 C73 C 0.72992 0.11567 0.62909
 C74 C 0.75812 0.15337 0.62916
 H75 H 0.68160 0.09173 0.67898
 H76 H 0.78145 0.16437 0.60402
 H77 H 0.76626 0.19859 0.74258
 H78 H 0.72193 0.22898 0.71950
 N79 N 0.31398 -0.20821 0.82005
 N80 N 0.29733 -0.24625 0.83438
 C81 C 0.32422 -0.26027 0.86466
 C82 C 0.35926 -0.22889 0.86959
 C83 C 0.35151 -0.19633 0.84099
 H84 H 0.31795 -0.29019 0.88270
 H85 H 0.37154 -0.16602 0.83603
 Cu86 Cu 0.24021 -0.27143 0.81453
 Cu87 Cu 0.28508 -0.17616 0.77658
 Cu88 Cu 0.20124 -0.23484 0.72084
 N89 N 0.19139 -0.30277 0.78480
 N90 N 0.17719 -0.28950 0.74751
 C91 C 0.14381 -0.31779 0.73419
 C92 C 0.13660 -0.35027 0.76518
 C93 C 0.16735 -0.33956 0.79673
 H94 H 0.12553 -0.31421 0.70488
 H95 H 0.17189 -0.35740 0.82619
 N96 N 0.23002 -0.17838 0.70024
 N97 N 0.26204 -0.15665 0.72169
 C98 C 0.27635 -0.12071 0.69937
 C99 C 0.25172 -0.11906 0.66253
 C100 C 0.22246 -0.15606 0.66394
 H101 H 0.30306 -0.09746 0.70901
 H102 H 0.19838 -0.16641 0.63983
 H103 H 0.22032 -0.20593 0.77704
 H104 H 0.26331 -0.23406 0.74783
 N105 N 0.68233 -0.24500 0.79992
 N106 N 0.70420 -0.27562 0.81648
 C107 C 0.68364 -0.29065 0.85300
 C108 C 0.64743 -0.26770 0.85991
 C109 C 0.64749 -0.23903 0.82559
 H110 H 0.69446 -0.31599 0.87332
 H111 H 0.62365 -0.21603 0.81937
 Cu112 Cu 0.75816 -0.29200 0.78973
 Cu113 Cu 0.69995 -0.21586 0.74600
 Cu114 Cu 0.78730 -0.25430 0.69022
 N115 N 0.80259 -0.31738 0.75507
 N116 N 0.81305 -0.30345 0.71580
 C117 C 0.84385 -0.32733 0.69908
 C118 C 0.85357 -0.35746 0.72970
 C119 C 0.82669 -0.35027 0.76494
 H120 H 0.85867 -0.32271 0.66727
 H121 H 0.82429 -0.36776 0.79525
 N122 N 0.75678 -0.20477 0.67003
 N123 N 0.72285 -0.19075 0.69093
 C124 C 0.70825 -0.15766 0.66864
 C125 C 0.73457 -0.15014 0.63241
 C126 C 0.76506 -0.18054 0.63416
 H127 H 0.68061 -0.14006 0.67805
 H128 H 0.79075 -0.18518 0.61069
 H129 H 0.72783 -0.26961 0.72192
 H130 H 0.76627 -0.22589 0.74623
 N131 N 0.30443 0.25638 0.80566
 N132 N 0.28753 0.28935 0.82421
 C133 C 0.31340 0.30372 0.85708
 C134 C 0.34790 0.27795 0.85969
 C135 C 0.34130 0.24819 0.82654
 H136 H 0.30727 0.33047 0.87806
 H137 H 0.36200 0.22290 0.81792
 Cu138 Cu 0.23236 0.30932 0.80527
 Cu139 Cu 0.27789 0.22748 0.75527
 Cu140 Cu 0.18695 0.27104 0.71270
 N141 N 0.18505 0.33665 0.77786
 N142 N 0.16785 0.32213 0.74134
 C143 C 0.13555 0.34669 0.73006
 C144 C 0.13235 0.37813 0.76140
 C145 C 0.16410 0.37073 0.79126
 H146 H 0.11515 0.34124 0.70190
 H147 H 0.17108 0.38865 0.82072
 N148 N 0.21127 0.21936 0.68850
 N149 N 0.24629 0.20312 0.70440
 C150 C 0.25529 0.16858 0.68061
 C151 C 0.22430 0.16275 0.64834
 C152 C 0.19681 0.19528 0.65444
 H153 H 0.28209 0.14887 0.68662
 H154 H 0.16857 0.20108 0.63515
 H155 H 0.25102 0.28269 0.73416
 H156 H 0.21375 0.24230 0.76539
 N157 N 0.34542 -0.21991 0.22240
 N158 N 0.32362 -0.25350 0.20410
 C159 C 0.34480 -0.26345 0.16756
 C160 C 0.38172 -0.23432 0.16273
 C161 C 0.38107 -0.20709 0.19796
 H162 H 0.33368 -0.28923 0.14568
 H163 H 0.40476 -0.18002 0.20531
 Cu164 Cu 0.26919 -0.28022 0.22928
 Cu165 Cu 0.32660 -0.19644 0.27722
 Cu166 Cu 0.21770 -0.22686 0.30549
 N167 N 0.21802 -0.30730 0.26011
 N168 N 0.19836 -0.28640 0.29060
 C169 C 0.16318 -0.31152 0.30570
 C170 C 0.16048 -0.35002 0.28316
 C171 C 0.19583 -0.34642 0.25448
 H172 H 0.14043 -0.30189 0.33021
 H173 H 0.20444 -0.37020 0.23106
 N174 N 0.25211 -0.17685 0.33086
 N175 N 0.29411 -0.16632 0.32161
 C176 C 0.30886 -0.13234 0.34617
 C177 C 0.27441 -0.12099 0.37188
 C178 C 0.23890 -0.14990 0.36141
 H179 H 0.34215 -0.11689 0.34540
 H180 H 0.20626 -0.15215 0.37576
 H181 H 0.27938 -0.24512 0.29930
 H182 H 0.26384 -0.20686 0.25661
 N183 N 0.67323 0.21964 0.19347
 N184 N 0.68990 0.25689 0.17712
 C185 C 0.66463 0.26797 0.14425
 C186 C 0.63047 0.23579 0.13962
 C187 C 0.63703 0.20555 0.17122
 H188 H 0.67116 0.29673 0.12453
 H189 H 0.61701 0.17546 0.17736
 Cu190 Cu 0.74381 0.28681 0.19907
 Cu191 Cu 0.70000 0.19204 0.24204
 Cu192 Cu 0.79458 0.24624 0.28359
 N193 N 0.79638 0.31702 0.22363
 N194 N 0.81516 0.30137 0.25754
 C195 C 0.85041 0.32819 0.26836
 C196 C 0.85411 0.36241 0.23949
 C197 C 0.81953 0.35427 0.21135
 H198 H 0.87254 0.32244 0.29436
 H199 H 0.81210 0.37393 0.18394
 N200 N 0.76904 0.19015 0.30586
 N201 N 0.73234 0.16979 0.29107
 C202 C 0.72321 0.13279 0.31380
 C203 C 0.75611 0.12989 0.34385
 C204 C 0.78457 0.16649 0.33776
 H205 H 0.69530 0.10937 0.30840
 H206 H 0.81432 0.17524 0.35563
 H207 H 0.72888 0.24885 0.26741
 H208 H 0.76325 0.21858 0.22967
 O209 O 0.28991 0.05696 0.47345
 O210 O 0.27265 -0.02777 0.55752
 O211 O 0.27980 -0.02692 0.47363
 O212 O 0.28517 0.05647 0.55803
 O213 O 0.21321 0.05954 0.55421
 O214 O 0.20774 -0.02441 0.46966
 O215 O 0.20063 -0.02548 0.55312
 O216 O 0.21792 0.05982 0.46984
 Cu217 Cu 0.28909 0.01451 0.51618
 Cu218 Cu 0.20264 0.01782 0.51146
 C219 C 0.25673 0.07246 0.45697
 C220 C 0.23370 -0.04134 0.56933
 C221 C 0.24295 -0.03985 0.45722
 C222 C 0.25024 0.07224 0.57052
 O223 O 0.71465 0.02120 0.52610
 O224 O 0.70657 -0.06569 0.44412
 O225 O 0.71672 -0.06259 0.52787
 O226 O 0.70128 0.01740 0.44279
 O227 O 0.77338 0.02643 0.43249
 O228 O 0.78883 -0.05375 0.51760
 O229 O 0.77880 -0.05707 0.43464
 O230 O 0.78663 0.03049 0.51508
 Cu231 Cu 0.70257 -0.02336 0.48635
 Cu232 Cu 0.78913 -0.01252 0.47392
 C233 C 0.75214 0.04073 0.53439
 C234 C 0.74144 -0.07620 0.42554
 C235 C 0.75523 -0.07188 0.53721
 C236 C 0.73477 0.03560 0.42317
 O237 O 0.45575 0.29655 0.03013
 O238 O 0.54379 0.29345 -0.05176
 O239 O 0.45770 0.28992 -0.05320
 O240 O 0.54140 0.29743 0.03200
 O241 O 0.53639 0.22597 0.03681
 O242 O 0.45305 0.21846 -0.04851
 O243 O 0.53869 0.22195 -0.04754
 O244 O 0.45112 0.22515 0.03589
 Cu245 Cu 0.50018 0.30148 -0.01123
 Cu246 Cu 0.49431 0.21570 -0.00540
 C247 C 0.43857 0.26161 0.04710
 C248 C 0.55623 0.25730 -0.06370
 C249 C 0.44098 0.25284 -0.06519
 C250 C 0.55307 0.26296 0.04897
 O251 O 0.55120 0.71387 0.04216
 O252 O 0.45972 0.70633 -0.03537
 O253 O 0.54588 0.71573 -0.04157
 O254 O 0.46523 0.70575 0.04836
 O255 O 0.46508 0.77706 0.05000
 O256 O 0.54459 0.78693 -0.04029
 O257 O 0.45932 0.77760 -0.03390
 O258 O 0.54986 0.78507 0.04395
 Cu259 Cu 0.50562 0.70323 0.00319
 Cu260 Cu 0.50469 0.78881 0.00497
 C261 C 0.56581 0.75079 0.05647
 C262 C 0.44397 0.74076 -0.04783
 C263 C 0.55890 0.75314 -0.05622
 C264 C 0.45170 0.73979 0.06465
 O265 O 0.05334 0.45643 0.30126
 O266 O -0.02174 0.54271 0.29916
 O267 O -0.03138 0.45828 0.30225
 O268 O 0.06295 0.54100 0.29561
 O269 O 0.06161 0.53731 0.22433
 O270 O -0.03289 0.45511 0.23095
 O271 O -0.02413 0.53904 0.22792
 O272 O 0.05263 0.45320 0.22996
 Cu273 Cu 0.01601 0.49996 0.30672
 Cu274 Cu 0.01423 0.49585 0.22109
 C275 C 0.06580 0.44009 0.26615
 C276 C -0.03600 0.55538 0.26340
 C277 C -0.04822 0.44270 0.26769
 C278 C 0.07818 0.55334 0.25877
 O279 O 0.02464 0.55063 0.70433
 O280 O -0.06116 0.45846 0.71340
 O281 O -0.06040 0.54321 0.71471
 O282 O 0.02402 0.46593 0.70323
 O283 O 0.03176 0.46560 0.77409
 O284 O -0.05263 0.54247 0.78558
 O285 O -0.05370 0.45874 0.78430
 O286 O 0.03283 0.54965 0.77511
 Cu287 Cu -0.01902 0.50459 0.70179
 Cu288 Cu -0.00958 0.50407 0.78683
 C289 C 0.04336 0.56581 0.73822
 C290 C -0.07204 0.44298 0.75049
 C291 C -0.07077 0.55605 0.75213
 C292 C 0.04221 0.45256 0.73679
 C293 C 0.39206 0.23261 0.10828
 C294 C 0.40342 0.26430 0.07973
 H295 H 0.40965 0.20374 0.10865
 H296 H 0.38790 0.29436 0.08147
 C297 C 0.62856 0.72378 0.09443
 C298 C 0.60086 0.75450 0.08883
 H299 H 0.62661 0.69592 0.07314
 H300 H 0.60428 0.78404 0.10761
 C301 C 0.60043 0.22127 -0.11768
 C302 C 0.59174 0.25714 -0.09641
 H303 H 0.58029 0.19112 -0.11179
 H304 H 0.61027 0.28778 -0.10401
 C305 C 0.39585 0.77264 -0.09968
 C306 C 0.40732 0.73769 -0.07862
 H307 H 0.41459 0.80372 -0.09512
 H308 H 0.39024 0.70611 -0.08468
 C309 C 0.11921 0.39358 0.23438
 C310 C 0.09531 0.40511 0.26828
 H311 H 0.11841 0.41115 0.20413
 H312 H 0.09841 0.38938 0.29925
 C313 C 0.10489 0.61407 0.76673
 C314 C 0.07721 0.60294 0.73441
 H315 H 0.10328 0.59433 0.79578
 H316 H 0.07956 0.62076 0.70421
 C317 C -0.09360 0.59598 0.23128
 C318 C -0.06643 0.58963 0.26398
 H319 H -0.09354 0.57507 0.20322
 H320 H -0.06777 0.60843 0.29333
 C321 C -0.11855 0.38002 0.72229
 C322 C -0.10644 0.40652 0.75515
 H323 H -0.10218 0.38512 0.69116
 H324 H -0.12054 0.40054 0.78711
 C325 C 0.23053 0.12450 0.40513
 C326 C 0.26376 0.10478 0.42191
 H327 H 0.19758 0.11811 0.41857
 H328 H 0.29698 0.11201 0.40946
 C329 C 0.72486 0.08152 0.59589
 C330 C 0.75636 0.07587 0.56651
 H331 H 0.69530 0.05926 0.59709
 H332 H 0.78708 0.09641 0.56704
 C333 C 0.25830 -0.08544 0.62878
 C334 C 0.22641 -0.07605 0.60199
 H335 H 0.28992 -0.06636 0.62753
 H336 H 0.19380 -0.09297 0.60512
 C337 C 0.77306 -0.13117 0.38063
 C338 C 0.73814 -0.11062 0.39269
 H339 H 0.80434 -0.12394 0.39656
 H340 H 0.70616 -0.11977 0.37888
 C341 C 0.61574 0.72668 -0.10385
 C342 C 0.59055 0.75803 -0.09242
 H343 H 0.61431 0.69682 -0.08536
 H344 H 0.59414 0.78894 -0.10913
 C345 C 0.38345 0.28211 -0.10842
 C346 C 0.40705 0.24914 -0.09869
 H347 H 0.38867 0.31242 -0.09097
 H348 H 0.39982 0.21791 -0.11397
 C349 C 0.41404 0.76904 0.12700
 C350 C 0.41987 0.73572 0.10076
 H351 H 0.43423 0.79947 0.12295
 H352 H 0.40187 0.70441 0.10649
 C353 C 0.59561 0.23255 0.10693
 C354 C 0.58679 0.26647 0.08267
 H355 H 0.57656 0.20153 0.10314
 H356 H 0.60437 0.29798 0.08780
 C357 C -0.11552 0.61218 0.72493
 C358 C -0.10423 0.58698 0.75746
 H359 H -0.09925 0.61016 0.69375
 H360 H -0.11815 0.59017 0.78951
 C361 C -0.11084 0.39817 0.23691
 C362 C -0.08533 0.40918 0.27071
 H363 H -0.10610 0.41575 0.20665
 H364 H -0.09182 0.39339 0.30169
 C365 C 0.10044 0.41089 0.76499
 C366 C 0.07526 0.42106 0.73205
 H367 H 0.09796 0.42724 0.79574
 H368 H 0.07899 0.40622 0.70072
 C369 C 0.12550 0.61437 0.28771
 C370 C 0.11530 0.58683 0.25543
 H371 H 0.10589 0.61263 0.31722
 H372 H 0.13278 0.59055 0.22477
 C373 C 0.72917 -0.11742 0.59888
 C374 C 0.76136 -0.10430 0.57082
 H375 H 0.69810 -0.10299 0.59814
 H376 H 0.79331 -0.11682 0.57303
 C377 C 0.27662 -0.08658 0.40467
 C378 C 0.24049 -0.07339 0.42364
 H379 H 0.30889 -0.07156 0.41304
 H380 H 0.20810 -0.08707 0.41411
 C381 C 0.76174 0.09567 0.37568
 C382 C 0.72844 0.06787 0.38946
 H383 H 0.79403 0.09499 0.38983
 H384 H 0.69550 0.07011 0.37739
 C385 C 0.22037 0.12928 0.61448
 C386 C 0.25347 0.10537 0.60459
 H387 H 0.18999 0.12524 0.59650
 H388 H 0.28459 0.11091 0.62110
   
