data_POSCAR
  _audit_creation_date              2014-09-24
  _audit_creation_method            'ToBaCCo'
  _symmetry_space_group_name_H-M    'P1'
  _symmetry_Int_Tables_number       1
  _symmetry_cell_setting            triclinic
  loop_
  _symmetry_equiv_pos_as_xyz
 x,y,z
_cell_length_a 45.9146
_cell_length_b 45.9011
_cell_length_c 45.9228
_cell_angle_alpha 89.968700
_cell_angle_beta 89.998300
_cell_angle_gamma 89.992700
loop_
  _atom_site_label
  _atom_site_type_symbol
  _atom_site_fract_x
  _atom_site_fract_y
  _atom_site_fract_z
C1 C 0.27068 0.25025 0.22900
 N2 N 0.27055 0.22930 0.24989
 C3 C 0.24962 0.22916 0.27079
 N4 N 0.22875 0.25013 0.27073
 C5 C 0.22874 0.27117 0.24991
 N6 N 0.24974 0.27115 0.22909
 C7 C 0.72851 -0.25052 0.22840
 N8 N 0.74958 -0.27133 0.22844
 C9 C 0.77063 -0.27139 0.24925
 N10 N 0.77049 -0.25043 0.27014
 C11 C 0.74954 -0.22956 0.27030
 N12 N 0.72860 -0.22967 0.24941
 C13 C 0.72969 0.25048 0.77051
 N14 N 0.72986 0.22955 0.74962
 C15 C 0.75075 0.22948 0.72869
 N16 N 0.77157 0.25051 0.72873
 C17 C 0.77159 0.27155 0.74954
 N18 N 0.75058 0.27142 0.77039
 C19 C 0.27171 -0.25031 0.77217
 N20 N 0.27170 -0.22950 0.75110
 C21 C 0.25079 -0.22936 0.73018
 N22 N 0.22979 -0.25019 0.73037
 C23 C 0.22961 -0.27107 0.75132
 N24 N 0.25059 -0.27106 0.77216
 C25 C 0.72850 -0.25037 0.77203
 N26 N 0.72858 -0.22953 0.75099
 C27 C 0.74945 -0.22947 0.73003
 N28 N 0.77036 -0.25040 0.73016
 C29 C 0.77052 -0.27135 0.75109
 N30 N 0.74953 -0.27122 0.77197
 C31 C 0.27075 0.25012 0.77067
 N32 N 0.27068 0.22923 0.74973
 C33 C 0.24977 0.22913 0.72879
 N34 N 0.22886 0.25007 0.72888
 C35 C 0.22878 0.27104 0.74975
 N36 N 0.24977 0.27098 0.77060
 C37 C 0.27122 -0.25089 0.22815
 N38 N 0.27118 -0.23008 0.24920
 C39 C 0.25026 -0.22994 0.27011
 N40 N 0.22926 -0.25077 0.26992
 C41 C 0.22906 -0.27170 0.24899
 N42 N 0.25010 -0.27165 0.22816
 C43 C 0.73006 0.25083 0.22919
 N44 N 0.75095 0.27178 0.22930
 C45 C 0.77196 0.27190 0.25016
 N46 N 0.77192 0.25084 0.27099
 C47 C 0.75110 0.22981 0.27103
 N48 N 0.73021 0.22989 0.25009
 O49 O 0.27416 0.02766 0.47139
 O50 O 0.27449 -0.02899 0.52819
 O51 O 0.27438 -0.02908 0.47146
 O52 O 0.27423 0.02774 0.52808
 O53 O 0.22611 0.02755 0.52816
 O54 O 0.22626 -0.02926 0.47154
 O55 O 0.22637 -0.02918 0.52827
 O56 O 0.22604 0.02747 0.47146
 Cu57 Cu 0.27915 -0.00065 0.49977
 Cu58 Cu 0.22136 -0.00088 0.49986
 C59 C 0.25004 0.03721 0.46178
 C60 C 0.25049 -0.03870 0.53790
 C61 C 0.25034 -0.03882 0.46186
 C62 C 0.25015 0.03731 0.53775
 O63 O 0.72642 0.02807 0.52822
 O64 O 0.72612 -0.02864 0.47155
 O65 O 0.72608 -0.02866 0.52828
 O66 O 0.72648 0.02810 0.47153
 O67 O 0.77459 0.02780 0.47157
 O68 O 0.77419 -0.02896 0.52831
 O69 O 0.77423 -0.02894 0.47158
 O70 O 0.77454 0.02778 0.52826
 Cu71 Cu 0.72144 -0.00026 0.49989
 Cu72 Cu 0.77923 -0.00062 0.49993
 C73 C 0.75053 0.03758 0.53787
 C74 C 0.75012 -0.03843 0.46192
 C75 C 0.75007 -0.03845 0.53796
 C76 C 0.75060 0.03761 0.46191
 O77 O 0.47202 0.27457 0.02827
 O78 O 0.52869 0.27456 -0.02846
 O79 O 0.47198 0.27451 -0.02844
 O80 O 0.52874 0.27463 0.02824
 O81 O 0.52879 0.22650 0.02833
 O82 O 0.47203 0.22637 -0.02835
 O83 O 0.52874 0.22642 -0.02838
 O84 O 0.47207 0.22644 0.02835
 Cu85 Cu 0.50035 0.27940 -0.00011
 Cu86 Cu 0.50042 0.22160 -0.00000
 C87 C 0.46240 0.25051 0.03795
 C88 C 0.53835 0.25049 -0.03807
 C89 C 0.46235 0.25042 -0.03804
 C90 C 0.53842 0.25059 0.03792
 O91 O 0.52844 0.72523 0.02867
 O92 O 0.47178 0.72525 -0.02809
 O93 O 0.52850 0.72530 -0.02805
 O94 O 0.47171 0.72515 0.02862
 O95 O 0.47165 0.77328 0.02867
 O96 O 0.52844 0.77343 -0.02801
 O97 O 0.47172 0.77338 -0.02804
 O98 O 0.52838 0.77336 0.02871
 Cu99 Cu 0.50011 0.72040 0.00029
 Cu100 Cu 0.50004 0.77820 0.00034
 C101 C 0.53804 0.74929 0.03834
 C102 C 0.46211 0.74932 -0.03771
 C103 C 0.53813 0.74939 -0.03767
 C104 C 0.46202 0.74919 0.03828
 O105 O 0.02801 0.47269 0.27356
 O106 O -0.02870 0.52942 0.27336
 O107 O -0.02869 0.47268 0.27362
 O108 O 0.02804 0.52942 0.27330
 O109 O 0.02799 0.52923 0.22519
 O110 O -0.02874 0.47249 0.22551
 O111 O -0.02875 0.52923 0.22525
 O112 O 0.02796 0.47250 0.22545
 Cu113 Cu -0.00033 0.50108 0.27829
 Cu114 Cu -0.00039 0.50085 0.22052
 C115 C 0.03762 0.46294 0.24954
 C116 C -0.03839 0.53896 0.24927
 C117 C -0.03835 0.46292 0.24962
 C118 C 0.03768 0.53896 0.24919
 O119 O 0.02759 0.52902 0.72674
 O120 O -0.02911 0.47230 0.72630
 O121 O -0.02915 0.52904 0.72666
 O122 O 0.02759 0.47230 0.72638
 O123 O 0.02752 0.47197 0.77449
 O124 O -0.02922 0.52872 0.77477
 O125 O -0.02918 0.47198 0.77441
 O126 O 0.02752 0.52870 0.77485
 Cu127 Cu -0.00077 0.50071 0.72169
 Cu128 Cu -0.00085 0.50032 0.77947
 C129 C 0.03721 0.53849 0.75087
 C130 C -0.03878 0.46248 0.75028
 C131 C -0.03884 0.53853 0.75076
 C132 C 0.03720 0.46248 0.75039
 N133 N 0.31423 0.27124 0.16500
 C134 C 0.33518 0.25042 0.16483
 N135 N 0.33495 0.22955 0.18572
 N136 N 0.31438 0.22950 0.20619
 C137 C 0.29336 0.25031 0.20644
 N138 N 0.29366 0.27119 0.18547
 C139 C 0.35732 0.25046 0.14278
 C140 C 0.37591 0.25049 0.12426
 C141 C 0.39803 0.25050 0.10220
 N142 N 0.40865 0.22502 0.09169
 N143 N 0.42919 0.22502 0.07120
 C144 C 0.43980 0.25051 0.06054
 N145 N 0.42912 0.27598 0.07111
 N146 N 0.40857 0.27598 0.09161
 N147 N 0.68619 0.72863 0.16545
 C148 C 0.66516 0.74935 0.16535
 N149 N 0.66529 0.77011 0.18633
 N150 N 0.68586 0.77016 0.20681
 C151 C 0.70700 0.74943 0.20701
 N152 N 0.70676 0.72866 0.18592
 C153 C 0.64303 0.74932 0.14329
 C154 C 0.62445 0.74931 0.12475
 C155 C 0.60234 0.74930 0.10267
 N156 N 0.59174 0.77477 0.09212
 N157 N 0.57122 0.77477 0.07160
 C158 C 0.56063 0.74929 0.06095
 N159 N 0.57130 0.72381 0.07157
 N160 N 0.59182 0.72382 0.09209
 N161 N 0.68622 0.27131 -0.16542
 C162 C 0.66532 0.25045 -0.16519
 N163 N 0.66557 0.22959 -0.18609
 N164 N 0.68609 0.22960 -0.20660
 C165 C 0.70706 0.25046 -0.20689
 N166 N 0.70675 0.27132 -0.18593
 C167 C 0.64323 0.25044 -0.14311
 C168 C 0.62468 0.25044 -0.12454
 C169 C 0.60260 0.25045 -0.10244
 N170 N 0.59207 0.22498 -0.09182
 N171 N 0.57157 0.22499 -0.07128
 C172 C 0.56093 0.25047 -0.06068
 N173 N 0.57153 0.27595 -0.07137
 N174 N 0.59203 0.27593 -0.09191
 N175 N 0.33494 0.77023 -0.18575
 C176 C 0.33500 0.74950 -0.16472
 N177 N 0.31392 0.72883 -0.16478
 N178 N 0.29337 0.72889 -0.18527
 C179 C 0.29320 0.74962 -0.20641
 N180 N 0.31439 0.77029 -0.20625
 C181 C 0.35712 0.74944 -0.14265
 C182 C 0.37569 0.74940 -0.12410
 C183 C 0.39780 0.74938 -0.10203
 N184 N 0.40839 0.72389 -0.09149
 N185 N 0.42891 0.72387 -0.07097
 C186 C 0.43952 0.74934 -0.06032
 N187 N 0.42887 0.77483 -0.07092
 N188 N 0.40835 0.77484 -0.09144
 N189 N 0.16455 0.31457 0.27064
 C190 C 0.16446 0.33560 0.24990
 N191 N 0.18548 0.33547 0.22917
 N192 N 0.20598 0.31492 0.22917
 C193 C 0.20614 0.29381 0.24991
 N194 N 0.18505 0.29402 0.27065
 C195 C 0.14240 0.35773 0.24988
 C196 C 0.12387 0.37633 0.24984
 C197 C 0.10182 0.39848 0.24977
 N198 N 0.09125 0.40897 0.22427
 N199 N 0.07077 0.42954 0.22419
 C200 C 0.06019 0.44030 0.24962
 N201 N 0.07082 0.42974 0.27512
 N202 N 0.09130 0.40917 0.27519
 N203 N 0.18583 0.66505 0.77230
 C204 C 0.16487 0.66497 0.75151
 N205 N 0.16517 0.68590 0.73067
 N206 N 0.18581 0.70630 0.73062
 C207 C 0.20685 0.70645 0.75141
 N208 N 0.20648 0.68545 0.77226
 C209 C 0.14266 0.64299 0.75152
 C210 C 0.12400 0.62453 0.75146
 C211 C 0.10179 0.60256 0.75132
 N212 N 0.09119 0.59221 0.72579
 N213 N 0.07058 0.57178 0.72564
 C214 C 0.05987 0.56103 0.75103
 N215 N 0.07053 0.57145 0.77658
 N216 N 0.09114 0.59188 0.77671
 N217 N -0.16611 0.68658 0.26985
 C218 C -0.16590 0.66564 0.24906
 N219 N -0.18690 0.66574 0.22832
 N220 N -0.20751 0.68618 0.22837
 C221 C -0.20783 0.70723 0.24917
 N222 N -0.18671 0.70702 0.26992
 C223 C -0.14372 0.64362 0.24902
 C224 C -0.12508 0.62512 0.24903
 C225 C -0.10290 0.60311 0.24908
 N226 N -0.09226 0.59267 0.27457
 N227 N -0.07167 0.57222 0.27464
 C228 C -0.06103 0.56152 0.24920
 N229 N -0.07174 0.57203 0.22370
 N230 N -0.09233 0.59248 0.22365
 N231 N -0.16547 0.31399 0.72878
 C232 C -0.16542 0.33499 0.74953
 N233 N -0.18642 0.33477 0.77028
 N234 N -0.20687 0.31418 0.77028
 C235 C -0.20703 0.29308 0.74952
 N236 N -0.18592 0.29340 0.72877
 C237 C -0.14339 0.35715 0.74957
 C238 C -0.12490 0.37578 0.74966
 C239 C -0.10289 0.39795 0.74981
 N240 N -0.09240 0.40840 0.77535
 N241 N -0.07195 0.42899 0.77550
 C242 C -0.06132 0.43983 0.75011
 N243 N -0.07188 0.42932 0.72457
 N244 N -0.09233 0.40873 0.72442
 N245 N 0.22873 0.18554 0.33480
 C246 C 0.24954 0.16458 0.33494
 N247 N 0.27036 0.16483 0.31401
 N248 N 0.27038 0.18542 0.29355
 C249 C 0.24958 0.20646 0.29334
 N250 N 0.22875 0.20614 0.31434
 C251 C 0.24955 0.14242 0.35698
 C252 C 0.24960 0.12381 0.37550
 C253 C 0.24971 0.10165 0.39754
 N254 N 0.27523 0.09115 0.40805
 N255 N 0.27534 0.07058 0.42853
 C256 C 0.24992 0.05983 0.43919
 N257 N 0.22439 0.07040 0.42861
 N258 N 0.22429 0.09097 0.40812
 N259 N 0.73013 0.16514 0.68551
 C260 C 0.75093 0.16496 0.66456
 N261 N 0.77168 0.18597 0.66467
 N262 N 0.77163 0.20656 0.68512
 C263 C 0.75083 0.20680 0.70615
 N264 N 0.73008 0.18571 0.70597
 C265 C 0.75095 0.14282 0.64253
 C266 C 0.75092 0.12421 0.62402
 C267 C 0.75084 0.10205 0.60200
 N268 N 0.77626 0.09131 0.59150
 N269 N 0.77617 0.07073 0.57104
 C270 C 0.75064 0.06022 0.56042
 N271 N 0.72522 0.07102 0.57099
 N272 N 0.72532 0.09160 0.59145
 N273 N 0.23008 -0.18612 0.66588
 C274 C 0.25097 -0.16526 0.66556
 N275 N 0.27182 -0.16545 0.68646
 N276 N 0.27178 -0.18589 0.70708
 C277 C 0.25087 -0.20682 0.70746
 N278 N 0.23003 -0.20656 0.68648
 C279 C 0.25099 -0.14324 0.64338
 C280 C 0.25095 -0.12475 0.62473
 C281 C 0.25084 -0.10276 0.60252
 N282 N 0.22532 -0.09235 0.59193
 N283 N 0.22520 -0.07192 0.57131
 C284 C 0.25061 -0.06123 0.56058
 N285 N 0.27615 -0.07172 0.57123
 N286 N 0.27625 -0.09215 0.59186
 N287 N 0.72869 -0.16550 0.31383
 C288 C 0.74956 -0.16530 0.33471
 N289 N 0.77042 -0.18621 0.33443
 N290 N 0.77041 -0.20670 0.31389
 C291 C 0.74953 -0.20697 0.29294
 N292 N 0.72867 -0.18599 0.29328
 C293 C 0.74960 -0.14323 0.35682
 C294 C 0.74967 -0.12470 0.37540
 C295 C 0.74978 -0.10265 0.39752
 N296 N 0.77530 -0.09226 0.40813
 N297 N 0.77542 -0.07178 0.42868
 C298 C 0.75000 -0.06101 0.43931
 N299 N 0.72447 -0.07146 0.42864
 N300 N 0.72437 -0.09194 0.40809
 N301 N 0.66541 0.77039 -0.18575
 C302 C 0.66528 0.74963 -0.16474
 N303 N 0.68628 0.72887 -0.16487
 N304 N 0.70681 0.72887 -0.18539
 C305 C 0.70704 0.74964 -0.20650
 N306 N 0.68593 0.77040 -0.20627
 C307 C 0.64316 0.74961 -0.14265
 C308 C 0.62460 0.74958 -0.12408
 C309 C 0.60249 0.74954 -0.10198
 N310 N 0.59195 0.72404 -0.09143
 N311 N 0.57142 0.72399 -0.07091
 C312 C 0.56075 0.74944 -0.06026
 N313 N 0.57136 0.77494 -0.07088
 N314 N 0.59189 0.77499 -0.09140
 N315 N 0.31419 0.27096 -0.16521
 C316 C 0.33517 0.25018 -0.16505
 N317 N 0.33500 0.22938 -0.18600
 N318 N 0.31446 0.22936 -0.20650
 C319 C 0.29340 0.25014 -0.20673
 N320 N 0.29364 0.27095 -0.18571
 C321 C 0.35729 0.25020 -0.14296
 C322 C 0.37587 0.25022 -0.12441
 C323 C 0.39799 0.25027 -0.10233
 N324 N 0.40859 0.22482 -0.09172
 N325 N 0.42913 0.22487 -0.07121
 C326 C 0.43973 0.25037 -0.06063
 N327 N 0.42906 0.27582 -0.07130
 N328 N 0.40853 0.27577 -0.09181
 N329 N 0.33449 0.76970 0.18611
 C330 C 0.33459 0.74899 0.16508
 N331 N 0.31351 0.72831 0.16513
 N332 N 0.29294 0.72834 0.18560
 C333 C 0.29273 0.74906 0.20674
 N334 N 0.31392 0.76974 0.20658
 C335 C 0.35674 0.74897 0.14302
 C336 C 0.37536 0.74899 0.12450
 C337 C 0.39752 0.74903 0.10246
 N338 N 0.40815 0.72358 0.09189
 N339 N 0.42873 0.72363 0.07142
 C340 C 0.43936 0.74914 0.06084
 N341 N 0.42867 0.77459 0.07147
 N342 N 0.40809 0.77453 0.09194
 N343 N 0.68655 0.27168 0.16508
 C344 C 0.66566 0.25081 0.16488
 N345 N 0.66591 0.22995 0.18579
 N346 N 0.68645 0.22996 0.20630
 C347 C 0.70742 0.25083 0.20658
 N348 N 0.70709 0.27169 0.18559
 C349 C 0.64355 0.25079 0.14279
 C350 C 0.62496 0.25076 0.12424
 C351 C 0.60283 0.25072 0.10217
 N352 N 0.59223 0.27618 0.09157
 N353 N 0.57168 0.27614 0.07108
 C354 C 0.56105 0.25064 0.06050
 N355 N 0.57173 0.22518 0.07117
 N356 N 0.59228 0.22523 0.09166
 N357 N -0.16637 0.68644 0.73034
 C358 C -0.16615 0.66550 0.75117
 N359 N -0.18709 0.66568 0.77198
 N360 N -0.20765 0.68617 0.77196
 C361 C -0.20798 0.70722 0.75113
 N362 N -0.18693 0.70694 0.73032
 C363 C -0.14402 0.64342 0.75117
 C364 C -0.12542 0.62487 0.75113
 C365 C -0.10328 0.60279 0.75104
 N366 N -0.09273 0.59207 0.77646
 N367 N -0.07217 0.57158 0.77638
 C368 C -0.06147 0.56112 0.75086
 N369 N -0.07208 0.57191 0.72545
 N370 N -0.09264 0.59241 0.72554
 N371 N -0.18603 0.33515 0.22943
 C372 C -0.16504 0.33535 0.25018
 N373 N -0.16511 0.31434 0.27094
 N374 N -0.18556 0.29374 0.27094
 C375 C -0.20665 0.29344 0.25018
 N376 N -0.20648 0.31456 0.22942
 C377 C -0.14300 0.35753 0.25016
 C378 C -0.12450 0.37617 0.25009
 C379 C -0.10249 0.39837 0.24998
 N380 N -0.09193 0.40908 0.27538
 N381 N -0.07148 0.42968 0.27527
 C382 C -0.06091 0.44026 0.24975
 N383 N -0.07154 0.42948 0.22434
 N384 N -0.09199 0.40888 0.22446
 N385 N 0.16451 0.31439 0.72906
 C386 C 0.16435 0.33535 0.74986
 N387 N 0.18535 0.33518 0.77061
 N388 N 0.20590 0.31468 0.77057
 C389 C 0.20613 0.29365 0.74978
 N390 N 0.18505 0.29388 0.72902
 C391 C 0.14222 0.35744 0.74991
 C392 C 0.12364 0.37600 0.74998
 C393 C 0.10153 0.39811 0.75008
 N394 N 0.09100 0.40885 0.72467
 N395 N 0.07048 0.42939 0.72476
 C396 C 0.05981 0.43986 0.75028
 N397 N 0.07041 0.42905 0.77570
 N398 N 0.09093 0.40851 0.77559
 N399 N 0.18642 0.66556 0.22801
 C400 C 0.16543 0.66547 0.24877
 N401 N 0.16571 0.68638 0.26960
 N402 N 0.18636 0.70678 0.26967
 C403 C 0.20746 0.70697 0.24890
 N404 N 0.20707 0.68595 0.22807
 C405 C 0.14320 0.64348 0.24874
 C406 C 0.12452 0.62502 0.24877
 C407 C 0.10229 0.60304 0.24887
 N408 N 0.09165 0.59243 0.22346
 N409 N 0.07103 0.57200 0.22355
 C410 C 0.06035 0.56151 0.24907
 N411 N 0.07106 0.57219 0.27449
 N412 N 0.09168 0.59262 0.27438
 N413 N 0.77024 -0.18621 0.66573
 C414 C 0.74943 -0.16525 0.66547
 N415 N 0.72862 -0.16539 0.68642
 N416 N 0.72862 -0.18586 0.70701
 C417 C 0.74943 -0.20689 0.70733
 N418 N 0.77024 -0.20668 0.68631
 C419 C 0.74945 -0.14320 0.64330
 C420 C 0.74952 -0.12468 0.62467
 C421 C 0.74965 -0.10264 0.60249
 N422 N 0.72425 -0.09194 0.59187
 N423 N 0.72438 -0.07148 0.57128
 C424 C 0.74992 -0.06102 0.56062
 N425 N 0.77532 -0.07179 0.57130
 N426 N 0.77519 -0.09225 0.59189
 N427 N 0.22954 -0.18662 0.33434
 C428 C 0.25045 -0.16577 0.33463
 N429 N 0.27131 -0.16599 0.31372
 N430 N 0.27125 -0.18646 0.29315
 C431 C 0.25034 -0.20738 0.29279
 N432 N 0.22949 -0.20709 0.31377
 C433 C 0.25049 -0.14371 0.35677
 C434 C 0.25049 -0.12518 0.37537
 C435 C 0.25046 -0.10312 0.39751
 N436 N 0.27591 -0.09247 0.40803
 N437 N 0.27588 -0.07197 0.42857
 C438 C 0.25039 -0.06144 0.43927
 N439 N 0.22494 -0.07215 0.42867
 N440 N 0.22498 -0.09266 0.40814
 N441 N 0.73043 0.16542 0.31422
 C442 C 0.75121 0.16521 0.33519
 N443 N 0.77197 0.18622 0.33509
 N444 N 0.77195 0.20682 0.31463
 C445 C 0.75116 0.20710 0.29359
 N446 N 0.73040 0.18602 0.29376
 C447 C 0.75121 0.14303 0.35724
 C448 C 0.75115 0.12439 0.37574
 C449 C 0.75102 0.10219 0.39776
 N450 N 0.77642 0.09142 0.40831
 N451 N 0.77629 0.07081 0.42876
 C452 C 0.75075 0.06028 0.43935
 N453 N 0.72535 0.07111 0.42873
 N454 N 0.72548 0.09172 0.40828
 N455 N 0.22900 0.18564 0.66468
 C456 C 0.24983 0.16470 0.66452
 N457 N 0.27064 0.16493 0.68547
 N458 N 0.27062 0.18547 0.70596
 C459 C 0.24979 0.20648 0.70619
 N460 N 0.22898 0.20619 0.68518
 C461 C 0.24985 0.14257 0.64246
 C462 C 0.24989 0.12397 0.62394
 C463 C 0.24996 0.10181 0.60189
 N464 N 0.27546 0.09132 0.59132
 N465 N 0.27552 0.07074 0.57086
 C466 C 0.25008 0.05997 0.56029
 N467 N 0.22458 0.07054 0.57093
 N468 N 0.22452 0.09111 0.59139
   
