data_POSCAR
  _audit_creation_date              2014-09-24
  _audit_creation_method            'ToBaCCo'
  _symmetry_space_group_name_H-M    'P1'
  _symmetry_Int_Tables_number       1
  _symmetry_cell_setting            triclinic
  loop_
  _symmetry_equiv_pos_as_xyz
 x,y,z
_cell_length_a 39.3006
_cell_length_b 39.9195
_cell_length_c 40.0185
_cell_angle_alpha 93.633600
_cell_angle_beta 88.652100
_cell_angle_gamma 91.622200
loop_
  _atom_site_label
  _atom_site_type_symbol
  _atom_site_fract_x
  _atom_site_fract_y
  _atom_site_fract_z
C1 C 0.17790 0.20423 0.17875
 N2 N 0.17562 0.23359 0.16371
 C3 C 0.20281 0.24586 0.14611
 N4 N 0.23269 0.22925 0.14474
 C5 C 0.23486 0.19998 0.16004
 N6 N 0.20732 0.18752 0.17647
 C7 C 0.67400 0.69168 0.72567
 N8 N 0.66905 0.71913 0.70821
 C9 C 0.69316 0.72963 0.68607
 N10 N 0.72247 0.71247 0.68144
 C11 C 0.72764 0.68503 0.69895
 N12 N 0.70335 0.67476 0.72102
 C13 C 0.28163 0.74750 0.73353
 N14 N 0.26660 0.73511 0.70504
 C15 C 0.24200 0.75250 0.69102
 N16 N 0.23236 0.78255 0.70571
 C17 C 0.24743 0.79523 0.73425
 N18 N 0.27209 0.77757 0.74791
 C19 C 0.82000 0.27459 0.22354
 N20 N 0.80438 0.26505 0.19452
 C21 C 0.77706 0.28146 0.18460
 N22 N 0.76522 0.30801 0.20392
 C23 C 0.78075 0.31794 0.23309
 N24 N 0.80806 0.30108 0.24291
 C25 C 0.82106 0.72606 0.29271
 N26 N 0.79720 0.70209 0.29999
 C27 C 0.78040 0.70365 0.33005
 N28 N 0.78730 0.72948 0.35265
 C29 C 0.81094 0.75360 0.34570
 N30 N 0.82797 0.75185 0.31567
 C31 C 0.33531 0.19683 -0.22422
 N32 N 0.30888 0.17610 -0.21585
 C33 C 0.28588 0.18603 -0.19159
 N34 N 0.28947 0.21695 -0.17566
 C35 C 0.31569 0.23793 -0.18390
 N36 N 0.33855 0.22779 -0.20820
 C37 C 0.70890 0.26979 -0.23175
 N38 N 0.72001 0.24649 -0.21153
 C39 C 0.75257 0.24748 -0.20140
 N40 N 0.77391 0.27231 -0.21092
 C41 C 0.76310 0.29672 -0.22989
 N42 N 0.73033 0.29544 -0.24069
 C43 C 0.18916 0.78861 0.27645
 N44 N 0.19939 0.77209 0.30296
 C45 C 0.21705 0.78863 0.32787
 N46 N 0.22418 0.82186 0.32636
 C47 C 0.21499 0.83855 0.29964
 N48 N 0.19749 0.82182 0.27446
 C49 C 0.44719 0.43132 0.51694
 N50 N 0.41746 0.44464 0.50897
 C51 C 0.41609 0.46560 0.48368
 N52 N 0.44498 0.47321 0.46581
 C53 C 0.47503 0.45962 0.47374
 N54 N 0.47581 0.43873 0.49920
 C55 C -0.03276 -0.05567 0.98922
 N56 N -0.01999 -0.04422 0.96011
 C57 C -0.03771 -0.02231 0.94315
 N58 N -0.06816 -0.01151 0.95574
 C59 C -0.08113 -0.02281 0.98489
 N60 N -0.06341 -0.04509 1.00142
 C61 C 1.03542 0.59053 0.95354
 N62 N 1.02215 0.57544 0.92526
 C63 C 1.03861 0.55006 0.90817
 N64 N 1.06859 0.53950 0.91964
 C65 C 1.08211 0.55460 0.94792
 N66 N 1.06546 0.58010 0.96465
 C67 C 0.53289 0.06416 0.44349
 N68 N 0.51102 0.05428 0.41859
 C69 C 0.51003 0.02195 0.40598
 N70 N 0.53120 -0.00021 0.41804
 C71 C 0.55379 0.00924 0.44212
 N72 N 0.55447 0.04160 0.45523
 C73 C -0.02622 0.05698 0.52382
 N74 N -0.05464 0.04164 0.53617
 C75 C -0.05538 0.03032 0.56740
 N76 N -0.02705 0.03367 0.58608
 C77 C 0.00180 0.04845 0.57389
 N78 N 0.00214 0.06054 0.54278
 C79 C 0.49129 0.58327 0.05466
 N80 N 0.46693 0.55848 0.05120
 C81 C 0.46734 0.53188 0.07093
 N82 N 0.49217 0.53019 0.09385
 C83 C 0.51663 0.55474 0.09700
 N84 N 0.51594 0.58112 0.07745
 C85 C 0.51832 -0.06420 -0.02177
 N86 N 0.49484 -0.07054 0.00270
 C87 C 0.48903 -0.04733 0.02825
 N88 N 0.50662 -0.01762 0.02922
 C89 C 0.53046 -0.01122 0.00528
 N90 N 0.53646 -0.03462 -0.02016
 C91 C 1.05681 0.39624 0.51171
 N92 N 1.06355 0.42381 0.49404
 C93 C 1.05667 0.45494 0.50819
 N94 N 1.04203 0.45827 0.53932
 C95 C 1.03584 0.43080 0.55699
 N96 N 1.04376 0.40018 0.54325
 C97 C 0.38351 0.01104 0.15833
 H98 H 0.37545 0.03669 0.15886
 C99 C 0.40148 -0.00216 0.13040
 H100 H 0.40649 0.01340 0.10955
 C101 C 0.38758 -0.04000 0.18501
 H102 H 0.38252 -0.05433 0.20672
 C103 C 0.40519 -0.05447 0.15718
 H104 H 0.41372 -0.07998 0.15759
 N105 N 0.37660 -0.00798 0.18481
 C106 C 0.35255 0.08435 0.22210
 H107 H 0.37232 0.08518 0.24039
 C108 C 0.34197 0.11427 0.20961
 H109 H 0.35340 0.13799 0.21876
 C110 C 0.31292 0.05283 0.18819
 H111 H 0.30217 0.02868 0.17950
 C112 C 0.30124 0.08197 0.17560
 H113 H 0.28111 0.08011 0.15750
 Zn114 Zn 0.35244 0.01178 0.22211
 N115 N 0.33817 0.05441 0.21088
 C116 C 0.41053 0.03293 0.26127
 N117 N 0.38137 0.01362 0.25985
 C118 C 0.37316 -0.00755 0.28432
 C119 C 0.39430 -0.00987 0.31142
 C120 C 0.43221 0.03187 0.28853
 C121 C 0.30540 -0.04481 0.21717
 C122 C 0.28033 -0.06581 0.23084
 C123 C 0.26815 -0.02162 0.27311
 C124 C 0.29321 -0.00147 0.25857
 N125 N 0.31260 -0.01403 0.23238
 H126 H 0.41746 0.04848 0.24089
 H127 H 0.35084 -0.02383 0.28237
 H128 H 0.38750 -0.02737 0.33024
 H129 H 0.45562 0.04685 0.28914
 H130 H 0.32037 -0.05400 0.19574
 H131 H 0.27685 -0.09122 0.22013
 H132 H 0.25471 -0.01206 0.29550
 H133 H 0.29914 0.02329 0.26984
 C134 C 0.31594 0.11312 0.18613
 C135 C 0.41237 -0.03533 0.12952
 C136 C 0.26272 -0.05480 0.26026
 C137 C 0.42429 0.00980 0.31367
 C138 C 0.08846 -0.00662 0.70874
 H139 H 0.07964 -0.02902 0.72053
 C140 C 0.07404 0.00189 0.67891
 H141 H 0.05441 -0.01442 0.66767
 C142 C 0.12403 0.04230 0.70962
 H143 H 0.14267 0.05870 0.72208
 C144 C 0.11066 0.05149 0.67960
 H145 H 0.11944 0.07475 0.66938
 N146 N 0.11291 0.01360 0.72355
 C147 C 0.16910 -0.04511 0.79149
 H148 H 0.16643 -0.02881 0.81400
 C149 C 0.18855 -0.07376 0.79175
 H150 H 0.20019 -0.07933 0.81490
 C151 C 0.15652 -0.05723 0.73435
 H152 H 0.14427 -0.05044 0.71195
 C153 C 0.17588 -0.08625 0.73348
 H154 H 0.17834 -0.10145 0.71023
 Zn155 Zn 0.12867 0.00286 0.76608
 N156 N 0.15341 -0.03744 0.76318
 C157 C 0.08512 -0.02808 0.81414
 N158 N 0.09014 -0.00106 0.79535
 C159 C 0.06819 0.02476 0.79757
 C160 C 0.04069 0.02474 0.82032
 C161 C 0.05803 -0.02904 0.83737
 C162 C 0.18791 0.04427 0.76675
 C163 C 0.20894 0.07156 0.77723
 C164 C 0.16971 0.08360 0.82345
 C165 C 0.14936 0.05626 0.81195
 N166 N 0.15817 0.03786 0.78347
 H167 H 0.10236 -0.04870 0.81161
 H168 H 0.07265 0.04587 0.78221
 H169 H 0.02429 0.04611 0.82230
 H170 H 0.05476 -0.05060 0.85234
 H171 H 0.19472 0.02880 0.74456
 H172 H 0.23179 0.07666 0.76267
 H173 H 0.16162 0.09785 0.84593
 H174 H 0.12628 0.05014 0.82566
 C175 C 0.19240 -0.09476 0.76245
 C176 C 0.08505 0.03140 0.66407
 C177 C 0.19957 0.09221 0.80557
 C178 C 0.03560 -0.00220 0.84099
 C179 C 0.58251 0.50935 0.24899
 H180 H 0.56594 0.50145 0.26908
 C181 C 0.56849 0.51773 0.21886
 H182 H 0.54112 0.51671 0.21623
 C183 C 0.63815 0.52081 0.22790
 H184 H 0.66530 0.52156 0.23127
 C185 C 0.62529 0.52961 0.19766
 H186 H 0.64286 0.53716 0.17813
 N187 N 0.61679 0.51191 0.25323
 C188 C 0.69486 0.46840 0.30913
 H189 H 0.69743 0.48732 0.32956
 C190 C 0.71827 0.44273 0.30506
 H191 H 0.73889 0.44267 0.32244
 C192 C 0.66470 0.44630 0.26178
 H193 H 0.64357 0.44776 0.24515
 C194 C 0.68746 0.42009 0.25686
 H195 H 0.68337 0.40161 0.23631
 Zn196 Zn 0.63754 0.50494 0.29447
 N197 N 0.66878 0.46976 0.28760
 C198 C 0.61070 0.46585 0.34499
 N199 N 0.60482 0.49363 0.32824
 C200 C 0.57793 0.51346 0.33696
 C201 C 0.55681 0.50649 0.36454
 C202 C 0.59062 0.45826 0.37275
 C203 C 0.69259 0.55170 0.29247
 C204 C 0.71156 0.58087 0.30139
 C205 C 0.66893 0.59507 0.34391
 C206 C 0.65075 0.56565 0.33414
 N207 N 0.66253 0.54478 0.30853
 H208 H 0.63175 0.45004 0.33761
 H209 H 0.57359 0.53541 0.32327
 H210 H 0.53633 0.52314 0.37201
 H211 H 0.59640 0.43646 0.38615
 H212 H 0.70226 0.53429 0.27301
 H213 H 0.73547 0.58563 0.28835
 H214 H 0.65856 0.61148 0.36391
 H215 H 0.62715 0.55977 0.34702
 C216 C 0.71477 0.41797 0.27868
 C217 C 0.59004 0.52891 0.19314
 C218 C 0.69973 0.60309 0.32739
 C219 C 0.56385 0.47914 0.38335
 C220 C 0.92998 0.50898 0.68190
 H221 H 0.93165 0.53515 0.69068
 C222 C 0.95461 0.49584 0.65936
 H223 H 0.97488 0.51208 0.65034
 C224 C 0.90327 0.45524 0.68505
 H225 H 0.88446 0.43901 0.69623
 C226 C 0.92762 0.44104 0.66315
 H227 H 0.92625 0.41428 0.65675
 N228 N 0.90494 0.48862 0.69424
 C229 C 0.83491 0.55996 0.74479
 H230 H 0.83289 0.55021 0.76939
 C231 C 0.81646 0.58800 0.73766
 H232 H 0.80050 0.59994 0.75709
 C233 C 0.85770 0.55580 0.68939
 H234 H 0.87288 0.54260 0.67026
 C235 C 0.84008 0.58395 0.68134
 H236 H 0.84218 0.59212 0.65608
 Zn237 Zn 0.87778 0.50533 0.73091
 N238 N 0.85509 0.54455 0.72077
 C239 C 0.91522 0.54273 0.78356
 N240 N 0.90942 0.51297 0.76585
 C241 C 0.92850 0.48582 0.77045
 C242 C 0.95470 0.48779 0.79333
 C243 C 0.94127 0.54577 0.80706
 C244 C 0.82438 0.45634 0.71935
 C245 C 0.80847 0.42528 0.72519
 C246 C 0.83172 0.42940 0.78068
 C247 C 0.84708 0.46008 0.77383
 N248 N 0.84524 0.47169 0.74277
 H249 H 0.90013 0.56418 0.77913
 H250 H 0.92347 0.46248 0.75596
 H251 H 0.96919 0.46562 0.79651
 H252 H 0.94592 0.56969 0.82068
 H253 H 0.82302 0.46634 0.69493
 H254 H 0.79493 0.41145 0.70525
 H255 H 0.83589 0.41912 0.80462
 H256 H 0.86264 0.47325 0.79257
 C257 C 0.81900 0.60032 0.70556
 C258 C 0.95399 0.46130 0.65058
 C259 C 0.81397 0.41076 0.75551
 C260 C 0.96165 0.51808 0.81182
 C261 C 0.24181 0.47455 -0.00809
 H262 H 0.26462 0.48099 0.00564
 C263 C 0.21784 0.49916 -0.01140
 H264 H 0.22333 0.52432 -0.00094
 C265 C 0.20676 0.43392 -0.03727
 H266 H 0.20217 0.40828 -0.04663
 C267 C 0.18198 0.45785 -0.04112
 H268 H 0.15858 0.45022 -0.05352
 N269 N 0.23594 0.44254 -0.02075
 C270 C 0.26217 0.35000 0.02280
 H271 H 0.28442 0.34306 0.00779
 C272 C 0.24920 0.32865 0.04664
 H273 H 0.26145 0.30507 0.04929
 C274 C 0.21957 0.38945 0.03743
 H275 H 0.20854 0.41350 0.03416
 C276 C 0.20579 0.36889 0.06157
 H277 H 0.18416 0.37758 0.07655
 Zn278 Zn 0.26776 0.40921 -0.01161
 N279 N 0.24736 0.37981 0.01878
 C280 C 0.31564 0.42135 0.03960
 N281 N 0.30698 0.43018 0.00871
 C282 C 0.32579 0.45361 -0.00747
 C283 C 0.35501 0.46842 0.00705
 C284 C 0.34460 0.43545 0.05496
 C285 C 0.31359 0.38485 -0.06301
 C286 C 0.32425 0.36371 -0.09013
 C287 C 0.26764 0.33878 -0.09233
 C288 C 0.25795 0.36065 -0.06530
 N289 N 0.28088 0.38315 -0.05115
 H290 H 0.30016 0.40327 0.05249
 H291 H 0.31819 0.46059 -0.03184
 H292 H 0.36990 0.48651 -0.00654
 H293 H 0.35068 0.42803 0.07960
 H294 H 0.33192 0.40191 -0.05102
 H295 H 0.35060 0.36516 -0.09846
 H296 H 0.24906 0.32089 -0.10297
 H297 H 0.23242 0.35881 -0.05485
 C298 C 0.22071 0.33806 0.06659
 C299 C 0.18714 0.49088 -0.02755
 C300 C 0.30126 0.34006 -0.10498
 C301 C 0.36496 0.45905 0.03855
 C302 C 0.68034 0.08116 -0.02399
 H303 H 0.69831 0.07314 -0.04358
 C304 C 0.64819 0.06542 -0.02204
 H305 H 0.64154 0.04548 -0.04050
 C306 C 0.66759 0.11662 0.02412
 H307 H 0.67546 0.13596 0.04261
 C308 C 0.63531 0.10163 0.02701
 H309 H 0.61900 0.10985 0.04788
 N310 N 0.68926 0.10643 -0.00123
 C311 C 0.77172 0.16280 -0.04766
 H312 H 0.78939 0.16368 -0.02728
 C313 C 0.78064 0.17787 -0.07715
 H314 H 0.80508 0.19086 -0.07892
 C315 C 0.71796 0.14538 -0.06925
 H316 H 0.69351 0.13284 -0.06592
 C317 C 0.72577 0.16038 -0.09921
 H318 H 0.70723 0.15904 -0.11886
 Zn319 Zn 0.73345 0.12609 -0.00371
 N320 N 0.74112 0.14650 -0.04446
 C321 C 0.78636 0.08393 -0.02723
 N322 N 0.76534 0.09169 -0.00055
 C323 C 0.76632 0.07459 0.02772
 C324 C 0.79052 0.04997 0.03065
 C325 C 0.81067 0.05941 -0.02550
 C326 C 0.71893 0.18773 0.02973
 C327 C 0.72089 0.21383 0.05462
 C328 C 0.76457 0.18395 0.08081
 C329 C 0.76182 0.15849 0.05538
 N330 N 0.73878 0.16047 0.03086
 H331 H 0.78432 0.09662 -0.05008
 H332 H 0.74870 0.08056 0.04828
 H333 H 0.79138 0.03760 0.05385
 H334 H 0.82698 0.05401 -0.04718
 H335 H 0.70126 0.18898 0.00955
 H336 H 0.70469 0.23507 0.05303
 H337 H 0.78270 0.18125 0.10029
 H338 H 0.77810 0.13717 0.05542
 C339 C 0.75762 0.17661 -0.10348
 C340 C 0.62518 0.07564 0.00377
 C341 C 0.74371 0.21205 0.08090
 C342 C 0.81349 0.04239 0.00393
 C343 C 0.19012 0.55855 0.46374
 H344 H 0.21436 0.54846 0.45556
 C345 C 0.16088 0.53777 0.46228
 H346 H 0.16307 0.51182 0.45309
 C347 C 0.15792 0.60440 0.48575
 H348 H 0.15680 0.63020 0.49535
 C349 C 0.12808 0.58459 0.48459
 H350 H 0.10463 0.59568 0.49381
 N351 N 0.18835 0.59097 0.47631
 C352 C 0.26125 0.67107 0.45468
 H353 H 0.27884 0.66906 0.47481
 C354 C 0.26392 0.69837 0.43468
 H355 H 0.28434 0.71673 0.43912
 C356 C 0.21261 0.64981 0.42556
 H357 H 0.19212 0.63126 0.42284
 C358 C 0.21430 0.67682 0.40496
 H359 H 0.19498 0.67867 0.38640
 Zn360 Zn 0.22924 0.61698 0.48353
 N361 N 0.23553 0.64789 0.45023
 C362 C 0.29358 0.59016 0.46177
 N363 N 0.26645 0.58752 0.48339
 C364 C 0.26335 0.56171 0.50391
 C365 C 0.28715 0.53641 0.50210
 C366 C 0.31852 0.56565 0.45970
 C367 C 0.20652 0.67121 0.52408
 C368 C 0.20311 0.69313 0.55240
 C369 C 0.23897 0.65748 0.58203
 C370 C 0.24176 0.63616 0.55296
 N371 N 0.22538 0.64323 0.52477
 H372 H 0.29542 0.61060 0.44533
 H373 H 0.24144 0.55999 0.52065
 H374 H 0.28366 0.51554 0.51798
 H375 H 0.33950 0.56746 0.44181
 H376 H 0.19460 0.67698 0.50113
 H377 H 0.18845 0.71542 0.55060
 H378 H 0.25206 0.65124 0.60418
 H379 H 0.25718 0.61421 0.55296
 C380 C 0.23966 0.70205 0.41007
 C381 C 0.12943 0.55051 0.47360
 C382 C 0.21943 0.68650 0.58200
 C383 C 0.31480 0.53793 0.47940
 C384 C 0.68874 0.94512 0.53294
 H385 H 0.69386 0.94986 0.55928
 C386 C 0.66011 0.95891 0.51923
 H387 H 0.64299 0.97397 0.53512
 C388 C 0.70381 0.91860 0.48025
 H389 H 0.72087 0.90326 0.46482
 C390 C 0.67555 0.93142 0.46577
 H391 H 0.67103 0.92536 0.43945
 N392 N 0.70914 0.92430 0.51359
 C393 C 0.75036 0.84968 0.57634
 H394 H 0.77682 0.85060 0.56828
 C395 C 0.73924 0.82661 0.59934
 H396 H 0.75755 0.81025 0.60911
 C397 C 0.69459 0.86993 0.57296
 H398 H 0.67708 0.88635 0.56217
 C399 C 0.68236 0.84722 0.59584
 H400 H 0.65547 0.84671 0.60218
 Zn401 Zn 0.74519 0.90109 0.53220
 N402 N 0.72818 0.87112 0.56403
 C403 C 0.78890 0.92878 0.58285
 N404 N 0.77673 0.93258 0.55184
 C405 C 0.78900 0.95737 0.53279
 C406 C 0.81651 0.97778 0.54358
 C407 C 0.81653 0.94851 0.59457
 C408 C 0.74964 0.84795 0.48355
 C409 C 0.76329 0.82883 0.45635
 C410 C 0.81433 0.86390 0.45941
 C411 C 0.79969 0.88236 0.48665
 N412 N 0.76753 0.87466 0.49759
 H413 H 0.77831 0.90946 0.59799
 H414 H 0.77852 0.96011 0.50838
 H415 H 0.82647 0.99653 0.52736
 H416 H 0.82675 0.94360 0.61855
 H417 H 0.72424 0.84217 0.49291
 H418 H 0.74793 0.80847 0.44502
 H419 H 0.83978 0.87073 0.45094
 H420 H 0.81395 0.90310 0.49859
 C421 C 0.70481 0.82527 0.60957
 C422 C 0.65278 0.95096 0.48549
 C423 C 0.79586 0.83706 0.44351
 C424 C 0.83156 0.97260 0.57431
 C425 C 0.02486 0.16870 0.40132
 H426 H 0.04934 0.18179 0.40132
 C427 C 0.01850 0.14285 0.42294
 H428 H 0.03836 0.13589 0.43925
 C429 C -0.03109 0.16246 0.38068
 H430 H -0.05084 0.17077 0.36511
 C431 C -0.03840 0.13644 0.40156
 H432 H -0.06375 0.12517 0.40144
 N433 N 0.00021 0.17784 0.38061
 C434 C 0.04811 0.22940 0.29812
 H435 H 0.03414 0.25243 0.30037
 C436 C 0.07056 0.22332 0.27109
 H437 H 0.07392 0.24201 0.25277
 C438 C 0.05914 0.17648 0.31869
 H439 H 0.05402 0.15805 0.33693
 C440 C 0.08186 0.16935 0.29203
 H441 H 0.09470 0.14570 0.29078
 Zn442 Zn 0.00842 0.21494 0.35366
 N443 N 0.04287 0.20613 0.32120
 C444 C 0.05023 0.27032 0.37857
 N445 N 0.02069 0.25215 0.38251
 C446 C 0.00021 0.25727 0.41004
 C447 C 0.00997 0.28025 0.43585
 C448 C 0.06062 0.29426 0.40360
 C449 C -0.03911 0.19813 0.30600
 C450 C -0.06535 0.20217 0.28404
 C451 C -0.07382 0.25770 0.31001
 C452 C -0.04739 0.25245 0.33182
 N453 N -0.03060 0.22303 0.32922
 H454 H 0.06645 0.26539 0.35675
 H455 H -0.02291 0.24220 0.41261
 H456 H -0.00593 0.28313 0.45827
 H457 H 0.08466 0.30787 0.40092
 H458 H -0.02501 0.17518 0.30428
 H459 H -0.07159 0.18164 0.26613
 H460 H -0.08636 0.28155 0.31183
 H461 H -0.03968 0.27214 0.35011
 C462 C 0.08758 0.19283 0.26761
 C463 C -0.01349 0.12628 0.42308
 C464 C -0.08272 0.23248 0.28534
 C465 C 0.04077 0.29850 0.43298
 C466 C -0.02196 0.72855 0.07000
 H467 H -0.04131 0.74733 0.07286
 C468 C -0.02220 0.70549 0.04238
 H469 H -0.04193 0.70716 0.02427
 C470 C 0.02762 0.70503 0.09021
 H471 H 0.04731 0.70531 0.10859
 C472 C 0.02826 0.68130 0.06297
 H473 H 0.04838 0.66333 0.06127
 N474 N 0.00251 0.72783 0.09334
 C475 C -0.04854 0.77627 0.18119
 H476 H -0.03337 0.79898 0.18624
 C477 C -0.07678 0.76905 0.20189
 H478 H -0.08338 0.78664 0.22256
 C479 C -0.05788 0.72541 0.14860
 H480 H -0.05000 0.70778 0.12855
 C481 C -0.08610 0.71728 0.16848
 H482 H -0.09927 0.69350 0.16301
 Zn483 Zn 0.00019 0.76189 0.12837
 N484 N -0.03977 0.75454 0.15501
 C485 C -0.02550 0.82469 0.10896
 N486 N 0.00001 0.80232 0.10634
 C487 C 0.02643 0.80581 0.08423
 C488 C 0.02792 0.83236 0.06332
 C489 C -0.02502 0.85185 0.08839
 C490 C 0.04370 0.73361 0.17277
 C491 C 0.07217 0.73172 0.19271
 C492 C 0.08932 0.78775 0.17861
 C493 C 0.06056 0.78852 0.15885
 N494 N 0.03872 0.76148 0.15589
 H495 H -0.04663 0.82103 0.12625
 H496 H 0.04599 0.78720 0.08222
 H497 H 0.04884 0.83359 0.04541
 H498 H -0.04569 0.86923 0.09057
 H499 H 0.02558 0.71271 0.17050
 H500 H 0.07535 0.70930 0.20599
 H501 H 0.10656 0.80938 0.18024
 H502 H 0.05579 0.81079 0.14591
 C503 C -0.09599 0.73913 0.19561
 C504 C 0.00309 0.68128 0.03850
 C505 C 0.09560 0.75896 0.19566
 C506 C 0.00182 0.85572 0.06486
 C507 C 0.49997 0.20921 0.55915
 H508 H 0.47955 0.22674 0.56307
 C509 C 0.50164 0.18867 0.52971
 H510 H 0.48214 0.19055 0.51133
 C511 C 0.54930 0.18499 0.57917
 H512 H 0.56778 0.18369 0.59859
 C513 C 0.55166 0.16352 0.55011
 H514 H 0.57213 0.14590 0.54730
 N515 N 0.52357 0.20714 0.58315
 C516 C 0.47938 0.23252 0.68181
 H517 H 0.49586 0.25357 0.68972
 C518 C 0.45307 0.22202 0.70304
 H519 H 0.44989 0.23490 0.72747
 C520 C 0.46362 0.19061 0.64003
 H521 H 0.46758 0.17876 0.61526
 C522 C 0.43700 0.17921 0.66052
 H523 H 0.42063 0.15872 0.65102
 Zn524 Zn 0.51738 0.23603 0.62225
 N525 N 0.48371 0.21726 0.65071
 C526 C 0.47035 0.28760 0.62034
 N527 N 0.50168 0.27772 0.60924
 C528 C 0.52041 0.29606 0.58759
 C529 C 0.50778 0.32576 0.57651
 C530 C 0.45676 0.31691 0.60989
 C531 C 0.56570 0.21578 0.66531
 C532 C 0.59041 0.21973 0.68973
 C533 C 0.60003 0.27714 0.67533
 C534 C 0.57448 0.27231 0.65152
 N535 N 0.55758 0.24209 0.64738
 H536 H 0.45523 0.27239 0.63671
 H537 H 0.54498 0.28735 0.57856
 H538 H 0.52318 0.33983 0.55926
 H539 H 0.43150 0.32337 0.61881
 H540 H 0.55152 0.19223 0.66195
 H541 H 0.59559 0.19884 0.70468
 H542 H 0.61244 0.30159 0.67935
 H543 H 0.56719 0.29316 0.63759
 C544 C 0.43108 0.19536 0.69229
 C545 C 0.52767 0.16538 0.52486
 C546 C 0.60729 0.25092 0.69548
 C547 C 0.47534 0.33646 0.58751
 C548 C 0.47939 0.71741 0.93657
 H549 H 0.48442 0.74405 0.93712
 C550 C 0.48100 0.70155 0.96639
 H551 H 0.48608 0.71671 0.98919
 C552 C 0.46820 0.66547 0.90649
 H553 H 0.46450 0.65131 0.88291
 C554 C 0.47000 0.64841 0.93597
 H555 H 0.46738 0.62130 0.93472
 N556 N 0.47358 0.69940 0.90715
 C557 C 0.51835 0.71532 0.80861
 H558 H 0.50006 0.73189 0.79911
 C559 C 0.54680 0.70598 0.78905
 H560 H 0.54991 0.71510 0.76424
 C561 C 0.53681 0.68421 0.85301
 H562 H 0.53338 0.67669 0.87836
 C563 C 0.56553 0.67409 0.83423
 H564 H 0.58380 0.65871 0.84547
 Zn565 Zn 0.47813 0.72279 0.86689
 N566 N 0.51417 0.70477 0.84011
 C567 C 0.52094 0.78137 0.87092
 N568 N 0.48941 0.76869 0.87862
 C569 C 0.46641 0.78762 0.89673
 C570 C 0.47518 0.82014 0.90887
 C571 C 0.53068 0.81393 0.88235
 C572 C 0.42388 0.74866 0.83237
 C573 C 0.39540 0.74762 0.81222
 C574 C 0.39616 0.68710 0.80980
 C575 C 0.42462 0.68930 0.83029
 N576 N 0.43777 0.71980 0.84136
 H577 H 0.53908 0.76590 0.85690
 H578 H 0.44158 0.77692 0.90276
 H579 H 0.45666 0.83450 0.92371
 H580 H 0.55626 0.82311 0.87688
 H581 H 0.43538 0.77271 0.83987
 H582 H 0.38533 0.77102 0.80507
 H583 H 0.38610 0.66259 0.80135
 H584 H 0.43656 0.66664 0.83673
 C585 C 0.57111 0.68549 0.80202
 C586 C 0.47748 0.66653 0.96626
 C587 C 0.38122 0.71657 0.80050
 C588 C 0.50788 0.83346 0.90215
 N589 N 0.12298 0.15504 0.22940
 N590 N 0.14641 0.15819 0.20557
 C591 C 0.14984 0.19079 0.19906
 C592 C 0.12759 0.20932 0.21954
 C593 C 0.11130 0.18571 0.23890
 H594 H 0.12592 0.23638 0.22206
 H595 H 0.11597 0.13220 0.23926
 H596 H 0.16064 0.13840 0.19486
 N597 N 0.62329 0.65195 0.78822
 N598 N 0.65042 0.65373 0.76820
 C599 C 0.64791 0.68058 0.74976
 C600 C 0.61780 0.69646 0.75818
 C601 C 0.60289 0.67762 0.78284
 H602 H 0.60877 0.71927 0.74859
 H603 H 0.61911 0.63339 0.80521
 H604 H 0.67042 0.63700 0.76757
 N605 N 0.34401 0.68941 0.75572
 N606 N 0.31802 0.69773 0.73785
 C607 C 0.30869 0.72892 0.74832
 C608 C 0.32955 0.74099 0.77394
 C609 C 0.35185 0.71526 0.77783
 H610 H 0.32892 0.76541 0.78728
 H611 H 0.35669 0.66681 0.75188
 H612 H 0.30731 0.68241 0.71851
 N613 N -0.11207 0.21891 0.23122
 N614 N -0.13920 0.23083 0.21415
 C615 C -0.15217 0.25677 0.23297
 C616 C -0.13383 0.26204 0.26223
 C617 C -0.10901 0.23768 0.26030
 H618 H -0.13832 0.28086 0.28239
 H619 H -0.09668 0.19948 0.22180
 H620 H -0.14739 0.22096 0.19081
 N621 N -0.14936 0.70605 0.20870
 N622 N -0.17072 0.70246 0.23425
 C623 C -0.16132 0.72401 0.25978
 C624 C -0.13264 0.74236 0.25001
 C625 C -0.12559 0.72993 0.21736
 H626 H -0.11834 0.76110 0.26500
 H627 H -0.15145 0.69221 0.18580
 H628 H -0.19135 0.68537 0.23406
 N629 N 0.38429 0.15572 0.71006
 N630 N 0.35739 0.15638 0.73346
 C631 C 0.35870 0.18649 0.75069
 C632 C 0.38616 0.20538 0.73905
 C633 C 0.40151 0.18540 0.71356
 H634 H 0.39336 0.23084 0.74747
 H635 H 0.38962 0.13534 0.69330
 H636 H 0.33954 0.13683 0.73634
 N637 N 0.62334 0.24238 0.75378
 N638 N 0.64975 0.24817 0.77318
 C639 C 0.67368 0.26599 0.75675
 C640 C 0.66170 0.27231 0.72541
 C641 C 0.62979 0.25627 0.72444
 H642 H 0.67549 0.28369 0.70512
 H643 H 0.60175 0.22816 0.76029
 H644 H 0.65192 0.23856 0.79670
 N645 N 0.13832 0.72910 0.22770
 N646 N 0.16317 0.73703 0.24863
 C647 C 0.16737 0.77066 0.25148
 C648 C 0.14426 0.78486 0.23134
 C649 C 0.12588 0.75758 0.21694
 H650 H 0.13978 0.81130 0.22956
 H651 H 0.12991 0.70450 0.22154
 H652 H 0.17630 0.71960 0.26145
 N653 N 0.31979 0.17301 0.16969
 N654 N 0.29824 0.19588 0.16139
 C655 C 0.26668 0.18180 0.16071
 C656 C 0.26826 0.14869 0.16837
 C657 C 0.30220 0.14405 0.17408
 H658 H 0.24717 0.13114 0.17194
 H659 H 0.34582 0.17752 0.17308
 H660 H 0.30483 0.22103 0.15828
 N661 N 0.80764 0.65008 0.67255
 N662 N 0.78363 0.67241 0.67086
 C663 C 0.75923 0.66629 0.69404
 C664 C 0.76820 0.63908 0.71143
 C665 C 0.79907 0.62941 0.69699
 H666 H 0.75377 0.62744 0.73116
 H667 H 0.82949 0.64929 0.65721
 H668 H 0.78390 0.69120 0.65384
 N669 N 0.83219 0.35569 0.77147
 N670 N 0.81817 0.32381 0.77497
 C671 C 0.78569 0.32362 0.76481
 C672 C 0.77851 0.35509 0.75367
 C673 C 0.80820 0.37453 0.75914
 H674 H 0.75429 0.36353 0.74556
 H675 H 0.85677 0.36341 0.77845
 H676 H 0.83071 0.30447 0.78559
 N677 N 0.24700 -0.07796 0.31451
 N678 N 0.23520 -0.10867 0.32540
 C679 C 0.22450 -0.12764 0.29844
 C680 C 0.22903 -0.10965 0.26993
 C681 C 0.24409 -0.07897 0.28097
 H682 H 0.22542 -0.11902 0.24425
 H683 H 0.25996 -0.05970 0.32954
 H684 H 0.23645 -0.11577 0.35001
 N685 N 0.23756 -0.12927 0.78551
 N686 N 0.25273 -0.15994 0.77751
 C687 C 0.23826 -0.17377 0.74955
 C688 C 0.21376 -0.15241 0.73909
 C689 C 0.21399 -0.12481 0.76233
 H690 H 0.19771 -0.15662 0.71755
 H691 H 0.24464 -0.11278 0.80557
 H692 H 0.27203 -0.16978 0.79114
 N693 N 0.76322 0.38339 0.29612
 N694 N 0.78049 0.35721 0.28406
 C695 C 0.76797 0.34666 0.25409
 C696 C 0.74159 0.36699 0.24668
 C697 C 0.73927 0.39019 0.27400
 H698 H 0.72654 0.36510 0.22432
 H699 H 0.76788 0.39585 0.31933
 H700 H 0.80039 0.34676 0.29637
 N701 N 0.71570 0.65192 0.36702
 N702 N 0.73690 0.67820 0.36760
 C703 C 0.75457 0.67794 0.33836
 C704 C 0.74425 0.65019 0.31822
 C705 C 0.71940 0.63426 0.33733
 H706 H 0.75330 0.64300 0.29312
 H707 H 0.69945 0.64622 0.38699
 H708 H 0.73915 0.69593 0.38784
 N709 N 0.21022 0.14663 0.83944
 N710 N 0.23435 0.17292 0.83989
 C711 C 0.25838 0.16498 0.81644
 C712 C 0.25049 0.13375 0.80089
 C713 C 0.21999 0.12305 0.81570
 H714 H 0.26480 0.12114 0.78064
 H715 H 0.18801 0.14685 0.85423
 H716 H 0.23292 0.19499 0.85528
 N717 N 0.17551 0.31852 0.10700
 N718 N 0.17102 0.29450 0.12804
 C719 C 0.19931 0.27623 0.12760
 C720 C 0.22290 0.28917 0.10527
 C721 C 0.20681 0.31604 0.09253
 H722 H 0.24795 0.27983 0.09890
 H723 H 0.15687 0.33559 0.10221
 H724 H 0.14862 0.29042 0.14194
 N725 N 0.66229 0.80321 0.65123
 N726 N 0.65935 0.77815 0.67121
 C727 C 0.68739 0.75957 0.66753
 C728 C 0.70924 0.77342 0.64416
 C729 C 0.69236 0.80120 0.63427
 H730 H 0.73380 0.76432 0.63556
 H731 H 0.64404 0.82154 0.64993
 H732 H 0.63847 0.77409 0.68722
 N733 N 0.83500 0.82962 0.39294
 N734 N 0.83892 0.80771 0.36700
 C735 C 0.81649 0.78197 0.37037
 C736 C 0.79763 0.78764 0.39966
 C737 C 0.80987 0.81827 0.41329
 H738 H 0.77715 0.77192 0.40906
 H739 H 0.84858 0.85243 0.39577
 H740 H 0.85609 0.81084 0.34705
 N741 N 0.34049 0.32089 -0.15241
 N742 N 0.34433 0.29399 -0.17300
 C743 C 0.31926 0.27145 -0.16664
 C744 C 0.29837 0.28465 -0.14102
 C745 C 0.31278 0.31609 -0.13251
 H746 H 0.27644 0.27258 -0.12958
 H747 H 0.35667 0.34209 -0.15228
 H748 H 0.36400 0.29116 -0.19089
 N749 N 0.79849 0.20137 -0.14466
 N750 N 0.79706 0.21997 -0.17068
 C751 C 0.76417 0.22384 -0.17784
 C752 C 0.74369 0.20676 -0.15567
 C753 C 0.76647 0.19325 -0.13460
 H754 H 0.71621 0.20687 -0.15331
 H755 H 0.82114 0.19524 -0.13368
 H756 H 0.81829 0.23081 -0.18244
 N757 N 0.25482 0.76241 0.40200
 N758 N 0.24838 0.78521 0.38069
 C759 C 0.22904 0.77084 0.35615
 C760 C 0.22286 0.73739 0.36199
 C761 C 0.23970 0.73296 0.39145
 H762 H 0.20810 0.71907 0.34695
 H763 H 0.26860 0.76752 0.42380
 H764 H 0.25698 0.81022 0.38318
 N765 N 0.19440 0.73529 0.61628
 N766 N 0.20046 0.75270 0.64483
 C767 C 0.22677 0.73915 0.65953
 C768 C 0.23793 0.71186 0.63955
 C769 C 0.21688 0.71027 0.61208
 H770 H 0.25923 0.69625 0.64396
 H771 H 0.17509 0.74079 0.60021
 H772 H 0.18687 0.77363 0.65383
 N773 N 0.72319 0.26379 0.11416
 N774 N 0.73199 0.28214 0.14146
 C775 C 0.76021 0.26944 0.15354
 C776 C 0.76986 0.24200 0.13309
 C777 C 0.74570 0.23896 0.10833
 H778 H 0.79131 0.22624 0.13642
 H779 H 0.70161 0.26802 0.10049
 H780 H 0.71846 0.30256 0.15184
 N781 N 0.43031 0.37986 0.58564
 N782 N 0.42288 0.40454 0.56685
 C783 C 0.44792 0.40799 0.54377
 C784 C 0.47250 0.38458 0.54801
 C785 C 0.46024 0.36677 0.57471
 H786 H 0.49506 0.38014 0.53254
 H787 H 0.41459 0.37221 0.60524
 H788 H 0.40074 0.41841 0.56962
 N789 N 0.02882 0.89094 0.02099
 N790 N 0.01948 0.91375 0.00081
 C791 C -0.01333 0.92076 0.00746
 C792 C -0.02550 0.90168 0.03312
 C793 C 0.00200 0.88271 0.04090
 H794 H -0.05115 0.90084 0.04351
 H795 H 0.05326 0.88137 0.02072
 H796 H 0.03542 0.92416 -0.01729
 N797 N -0.02156 0.65273 -0.01371
 N798 N -0.01222 0.62744 -0.03750
 C799 C 0.01810 0.61625 -0.02881
 C800 C 0.02878 0.63389 0.00023
 C801 C 0.00335 0.65658 0.00903
 H802 H 0.05224 0.63050 0.01307
 H803 H -0.04436 0.66544 -0.01405
 H804 H -0.02679 0.61894 -0.05799
 N805 N 0.51491 0.15027 0.46477
 N806 N 0.51640 0.12370 0.44349
 C807 C 0.53158 0.09887 0.45826
 C808 C 0.54050 0.11029 0.49048
 C809 C 0.52893 0.14300 0.49381
 H810 H 0.55114 0.09596 0.50959
 H811 H 0.50374 0.17270 0.45948
 H812 H 0.50617 0.12238 0.41957
 N813 N -0.04698 0.07604 0.44080
 N814 N -0.05026 0.05808 0.46729
 C815 C -0.02698 0.06906 0.48986
 C816 C -0.00769 0.09516 0.47705
 C817 C -0.02164 0.09916 0.44592
 H818 H 0.01184 0.11055 0.48960
 H819 H -0.06237 0.07258 0.41989
 H820 H -0.06874 0.03906 0.47003
 N821 N 0.50590 0.66313 1.02083
 N822 N 0.50968 0.64123 1.04363
 C823 C 0.49129 0.61319 1.03509
 C824 C 0.47495 0.61734 1.00528
 C825 C 0.48503 0.64958 0.99701
 H826 H 0.45892 0.59926 0.99129
 H827 H 0.51866 0.68644 1.02122
 H828 H 0.52512 0.64542 1.06446
 N829 N 0.54342 0.88675 0.90474
 N830 N 0.54631 0.91550 0.92635
 C831 C 0.52336 0.91218 0.95156
 C832 C 0.50545 0.88194 0.94665
 C833 C 0.51858 0.86678 0.91717
 H834 H 0.48564 0.87204 0.96281
 H835 H 0.55785 0.88238 0.88275
 H836 H 0.56341 0.93558 0.92306
 N837 N 0.05111 0.30856 0.49327
 N838 N 0.05543 0.33640 0.51554
 C839 C 0.05973 0.36365 0.49748
 C840 C 0.05948 0.35383 0.46347
 C841 C 0.05289 0.31932 0.46210
 H842 H 0.05893 0.37002 0.44280
 H843 H 0.04410 0.28447 0.50011
 H844 H 0.05233 0.33591 0.54151
 N845 N 0.32731 0.47729 0.47769
 N846 N 0.35412 0.45823 0.47795
 C847 C 0.38253 0.47763 0.47543
 C848 C 0.37339 0.51077 0.47314
 C849 C 0.33797 0.50940 0.47524
 H850 H 0.38995 0.53293 0.47385
 H851 H 0.30221 0.46846 0.48055
 H852 H 0.35291 0.43256 0.48171
 N853 N 0.84307 -0.00316 0.03186
 N854 N 0.87279 -0.02123 0.02641
 C855 C 0.88788 -0.01119 -0.00196
 C856 C 0.86847 0.01301 -0.01515
 C857 C 0.84068 0.01760 0.00671
 H858 H 0.87464 0.02627 -0.03735
 H859 H 0.82627 -0.00586 0.05214
 H860 H 0.88144 -0.03894 0.04213
 N861 N 0.56561 0.07051 0.02711
 N862 N 0.54082 0.04752 0.02752
 C863 C 0.55015 0.02055 0.00792
 C864 C 0.58223 0.02659 -0.00576
 C865 C 0.59145 0.05852 0.00743
 H866 H 0.59748 0.00923 -0.02113
 H867 H 0.56464 0.09371 0.04060
 H868 H 0.51822 0.05013 0.04159
 N869 N 0.06697 0.53843 0.48282
 N870 N 0.04763 0.51281 0.49189
 C871 C 0.06663 0.48527 0.49120
 C872 C 0.09956 0.49366 0.48124
 C873 C 0.09900 0.52789 0.47675
 H874 H 0.12162 0.47809 0.48181
 H875 H 0.05843 0.56293 0.48261
 H876 H 0.02236 0.51471 0.50034
 N877 N 0.15812 0.54351 -0.00689
 N878 N 0.13058 0.55996 -0.01325
 C879 C 0.11447 0.54370 -0.03905
 C880 C 0.13258 0.51547 -0.04964
 C881 C 0.16025 0.51623 -0.02847
 H882 H 0.12620 0.49690 -0.06954
 H883 H 0.17441 0.55062 0.01269
 H884 H 0.12286 0.58178 0.00027
 N885 N 0.60283 0.93705 0.45058
 N886 N 0.57527 0.95332 0.43864
 C887 C 0.57623 0.98527 0.45180
 C888 C 0.60391 0.98992 0.47302
 C889 C 0.62011 0.95916 0.47099
 H890 H 0.61237 1.01299 0.48632
 H891 H 0.60899 0.91221 0.44384
 H892 H 0.55810 0.94237 0.42137
 N893 N 0.87941 0.98850 0.61344
 N894 N 0.91154 1.00404 0.61101
 C895 C 0.91517 1.01491 0.57994
 C896 C 0.88587 1.00704 0.56217
 C897 C 0.86415 0.99012 0.58371
 H898 H 0.88194 1.01140 0.53616
 H899 H 0.87012 0.97704 0.63464
 H900 H 0.92943 1.00584 0.62998
 N901 N 0.41311 0.45907 0.07849
 N902 N 0.43994 0.47815 0.08682
 C903 C 0.44103 0.50499 0.06806
 C904 C 0.41370 0.50292 0.04670
 C905 C 0.39643 0.47336 0.05419
 H906 H 0.40717 0.52067 0.02870
 H907 H 0.40691 0.43642 0.08912
 H908 H 0.45717 0.47269 0.10507
 N909 N 0.56040 0.46021 0.44127
 N910 N 0.53724 0.45561 0.46498
 C911 C 0.50695 0.46555 0.45472
 C912 C 0.51109 0.47753 0.42294
 C913 C 0.54550 0.47318 0.41520
 H914 H 0.49164 0.48602 0.40700
 H915 H 0.58596 0.45417 0.44300
 H916 H 0.54214 0.44498 0.48751
 N917 N -0.02036 0.01689 0.86611
 N918 N -0.03948 0.01167 0.89300
 C919 C -0.02410 -0.01046 0.91126
 C920 C 0.00607 -0.01990 0.89522
 C921 C 0.00762 -0.00192 0.86660
 H922 H 0.02449 -0.03699 0.90362
 H923 H -0.02680 0.03288 0.84774
 H924 H -0.06264 0.02317 0.89862
 N925 N 0.08382 0.06175 0.61088
 N926 N 0.06188 0.06635 0.58710
 C927 C 0.03256 0.04977 0.59422
 C928 C 0.03606 0.03373 0.62356
 C929 C 0.06894 0.04187 0.63341
 H930 H 0.01709 0.01855 0.63614
 H931 H 0.10862 0.07182 0.61127
 H932 H 0.06700 0.08064 0.56650
 N933 N 0.59201 0.56578 0.14513
 N934 N 0.57257 0.57278 0.12022
 C935 C 0.54417 0.55318 0.12096
 C936 C 0.54540 0.53282 0.14770
 C937 C 0.57630 0.54168 0.16246
 H938 H 0.52643 0.51455 0.15547
 H939 H 0.61519 0.57814 0.15054
 H940 H 0.57873 0.59088 0.10316
 N941 N 0.43123 -0.08172 0.08855
 N942 N 0.45092 -0.08475 0.06131
 C943 C 0.46448 -0.05429 0.05528
 C944 C 0.45286 -0.03091 0.07944
 C945 C 0.43176 -0.04922 0.10006
 H946 H 0.45926 -0.00433 0.08187
 H947 H 0.41741 -0.10154 0.09867
 H948 H 0.45521 -0.10735 0.04745
 N949 N 0.99222 0.41445 0.63343
 N950 N 1.01432 0.40673 0.60907
 C951 C 1.01810 0.43297 0.58962
 C952 C 0.99787 0.45883 0.60239
 C953 C 0.98146 0.44574 0.62993
 H954 H 0.99344 0.48245 0.59157
 H955 H 0.98419 0.39811 0.65159
 H956 H 1.02548 0.38332 0.60517
 N957 N 1.01712 0.50002 0.83377
 N958 N 1.03733 0.50836 0.85907
 C959 C 1.02375 0.53420 0.87751
 C960 C 0.99365 0.54285 0.86324
 C961 C 0.99022 0.52043 0.83554
 H962 H 0.97641 0.56225 0.87221
 H963 H 1.02214 0.48082 0.81554
 H964 H 1.05993 0.49641 0.86353
 N965 N 0.45413 -0.02619 0.35127
 N966 N 0.47672 -0.02299 0.37516
 C967 C 0.48545 0.00974 0.38055
 C968 C 0.46786 0.02834 0.35873
 C969 C 0.44821 0.00439 0.34058
 H970 H 0.46907 0.05522 0.35648
 H971 H 0.44338 -0.04912 0.34220
 H972 H 0.48576 -0.04301 0.38768
   
