data_POSCAR
  _audit_creation_date              2014-09-24
  _audit_creation_method            'ToBaCCo'
  _symmetry_space_group_name_H-M    'P1'
  _symmetry_Int_Tables_number       1
  _symmetry_cell_setting            triclinic
  loop_
  _symmetry_equiv_pos_as_xyz
 x,y,z
_cell_length_a 47.4968
_cell_length_b 47.7239
_cell_length_c 14.4894
_cell_angle_alpha 90.010000
_cell_angle_beta 89.993700
_cell_angle_gamma 119.889100
loop_
  _atom_site_label
  _atom_site_type_symbol
  _atom_site_fract_x
  _atom_site_fract_y
  _atom_site_fract_z
C1 C 0.16209 0.44255 0.41755
 C2 C 0.14910 0.44357 0.50387
 C3 C 0.16264 0.44197 0.58865
 C4 C 0.19241 0.44168 0.58687
 C5 C 0.20743 0.44270 0.50085
 C6 C 0.19184 0.44219 0.41621
 C7 C 0.20619 0.44056 0.33279
 C8 C 0.23610 0.44202 0.33150
 C9 C 0.25298 0.44480 0.41348
 C10 C 0.23815 0.44406 0.49940
 C11 C 0.20719 0.43941 0.66847
 C12 C 0.23708 0.44077 0.66696
 C13 C 0.25384 0.44448 0.58373
 C14 C 0.28523 0.44750 0.58193
 C15 C 0.29996 0.45056 0.49537
 C16 C 0.28413 0.44789 0.41169
 H17 H 0.19449 0.43774 0.26687
 H18 H 0.24570 0.44070 0.26498
 H19 H 0.19574 0.43600 0.73509
 H20 H 0.24640 0.43834 0.73258
 H21 H 0.13006 0.44962 0.50533
 H22 H 0.32533 0.45750 0.49192
 C23 C 0.54977 -0.28302 0.58969
 C24 C 0.54773 -0.29853 0.50595
 C25 C 0.54968 -0.28428 0.41934
 C26 C 0.55090 -0.25383 0.41761
 C27 C 0.55091 -0.23849 0.50216
 C28 C 0.55127 -0.25272 0.58800
 C29 C 0.55344 -0.23612 0.67000
 C30 C 0.55332 -0.20708 0.66885
 C31 C 0.55066 -0.19339 0.58551
 C32 C 0.55064 -0.20873 0.50095
 C33 C 0.55300 -0.23774 0.33421
 C34 C 0.55259 -0.20883 0.33306
 C35 C 0.55044 -0.19440 0.41512
 C36 C 0.54840 -0.16587 0.41353
 C37 C 0.54642 -0.15240 0.49740
 C38 C 0.54891 -0.16445 0.58388
 H39 H 0.55550 -0.24527 0.73645
 H40 H 0.55570 -0.19559 0.73477
 H41 H 0.55531 -0.24686 0.26821
 H42 H 0.55425 -0.19783 0.26657
 H43 H 0.54204 -0.32341 0.50941
 H44 H 0.54033 -0.13344 0.49433
 C45 C 1.16504 0.71352 0.58431
 C46 C 1.15332 0.69845 0.49828
 C47 C 1.16590 0.71399 0.41404
 C48 C 1.19357 0.74519 0.41468
 C49 C 1.20788 0.76031 0.50003
 C50 C 1.19313 0.74488 0.58498
 C51 C 1.20637 0.76185 0.66766
 C52 C 1.23459 0.79177 0.66799
 C53 C 1.25115 0.80639 0.58570
 C54 C 1.23690 0.79109 0.50028
 C55 C 1.20706 0.76183 0.33212
 C56 C 1.23516 0.79181 0.33224
 C57 C 1.25137 0.80645 0.41502
 C58 C 1.28110 0.83631 0.41509
 C59 C 1.29547 0.84960 0.50076
 C60 C 1.28093 0.83623 0.58622
 H61 H 1.19502 0.75265 0.73374
 H62 H 1.24278 0.80338 0.73427
 H63 H 1.19593 0.75200 0.26603
 H64 H 1.24358 0.80331 0.26596
 H65 H 1.13527 0.67310 0.49578
 H66 H 1.32042 0.86879 0.50093
 C67 C 0.71842 0.55300 0.58748
 C68 C 0.70315 0.55062 0.50221
 C69 C 0.71764 0.55179 0.41712
 C70 C 0.74800 0.55309 0.41619
 C71 C 0.76323 0.55320 0.50087
 C72 C 0.74885 0.55389 0.58657
 C73 C 0.76595 0.55651 0.66840
 C74 C 0.79496 0.55599 0.66719
 C75 C 0.80846 0.55282 0.58406
 C76 C 0.79301 0.55271 0.49961
 C77 C 0.76363 0.55445 0.33265
 C78 C 0.79262 0.55402 0.33143
 C79 C 0.80725 0.55221 0.41369
 C80 C 0.83586 0.55012 0.41212
 C81 C 0.84940 0.54814 0.49590
 C82 C 0.83739 0.55075 0.58244
 H83 H 0.75757 0.55950 0.73495
 H84 H 0.80671 0.55864 0.73292
 H85 H 0.75374 0.55601 0.26689
 H86 H 0.80343 0.55522 0.26482
 H87 H 0.67818 0.54516 0.50130
 H88 H 0.86839 0.54199 0.49253
 C89 C 0.45850 0.28889 0.41334
 C90 C 0.46150 0.30446 0.49775
 C91 C 0.45847 0.28928 0.58293
 C92 C 0.45504 0.25806 0.58387
 C93 C 0.45426 0.24261 0.49921
 C94 C 0.45526 0.25778 0.41376
 C95 C 0.45265 0.24128 0.33114
 C96 C 0.45088 0.21134 0.33170
 C97 C 0.45164 0.19660 0.41491
 C98 C 0.45242 0.21188 0.49991
 C99 C 0.45194 0.24166 0.66698
 C100 C 0.45000 0.21161 0.66780
 C101 C 0.45139 0.19661 0.58545
 C102 C 0.45090 0.16652 0.58571
 C103 C 0.45225 0.15327 0.50004
 C104 C 0.45153 0.16696 0.41523
 H105 H 0.45190 0.25127 0.26481
 H106 H 0.44877 0.19987 0.26573
 H107 H 0.45075 0.25173 0.73272
 H108 H 0.44706 0.20036 0.73441
 H109 H 0.46736 0.32947 0.49694
 H110 H 0.45663 0.13314 0.49844
 C111 C 0.71102 0.16820 0.58616
 C112 C 0.69556 0.15565 0.50148
 C113 C 0.71069 0.16833 0.41656
 C114 C 0.74163 0.19657 0.41608
 C115 C 0.75702 0.21107 0.50108
 C116 C 0.74203 0.19638 0.58617
 C117 C 0.75864 0.21003 0.66882
 C118 C 0.78847 0.23848 0.66882
 C119 C 0.80297 0.25486 0.58608
 C120 C 0.78750 0.24031 0.50095
 C121 C 0.75775 0.21056 0.33300
 C122 C 0.78747 0.23909 0.33273
 C123 C 0.80235 0.25486 0.41554
 C124 C 0.83173 0.28470 0.41508
 C125 C 0.84552 0.29938 0.49954
 C126 C 0.83279 0.28477 0.58553
 H127 H 0.74892 0.19879 0.73482
 H128 H 0.79992 0.24706 0.73512
 H129 H 0.74766 0.19963 0.26694
 H130 H 0.79864 0.24852 0.26644
 H131 H 0.67062 0.13613 0.50166
 H132 H 0.86531 0.32403 0.49745
 N133 N 0.96675 0.53174 0.09771
 N134 N 0.94788 0.54358 0.12213
 N135 N 1.03446 0.54522 0.16382
 N136 N 1.05295 0.56158 0.23416
 N137 N 1.03522 0.56506 0.09963
 N138 N 1.05464 0.59544 0.12472
 N139 N 0.96656 0.51217 0.16191
 N140 N 0.94799 0.51059 0.23156
 C141 C 0.93581 0.52951 0.20492
 C142 C 1.06604 0.59275 0.20799
 N143 N 1.03379 0.46439 0.10359
 N144 N 1.05278 0.45295 0.13030
 N145 N 0.96573 0.45125 0.16421
 N146 N 0.94676 0.43512 0.23403
 N147 N 0.96534 0.43120 0.10128
 N148 N 0.94568 0.40091 0.12667
 N149 N 1.03365 0.48434 0.16593
 N150 N 1.05216 0.48667 0.23652
 Mn151 Mn 1.00010 0.49824 0.16412
 C152 C 1.06458 0.46771 0.21253
 C153 C 0.93376 0.40388 0.20875
 N154 N 1.03596 0.56469 -0.10010
 N155 N 1.05551 0.59491 -0.12663
 N156 N 0.96783 0.51147 -0.16427
 N157 N 0.94922 0.50886 -0.23484
 N158 N 0.96748 0.53135 -0.10211
 N159 N 0.94828 0.54254 -0.12906
 N160 N 1.03579 0.54444 -0.16184
 N161 N 1.05490 0.56024 -0.23159
 Mn162 Mn 1.00135 0.54846 -0.00121
 C163 C 1.06767 0.59156 -0.20792
 C164 C 0.93655 0.52762 -0.21119
 N165 N 0.96611 0.43081 -0.09851
 N166 N 0.94656 0.40052 -0.12448
 N167 N 1.03494 0.48378 -0.15968
 N168 N 1.05362 0.48560 -0.22922
 N169 N 1.03460 0.46398 -0.09609
 N170 N 1.05340 0.45209 -0.12102
 N171 N 0.96698 0.45088 -0.16201
 N172 N 0.94842 0.43489 -0.23248
 Mn173 Mn 0.99995 0.44734 0.00262
 Mn174 Mn 1.00140 0.49765 -0.16196
 Cl175 Cl 1.00069 0.49792 0.00096
 C176 C 0.93519 0.40365 -0.20741
 C177 C 1.06566 0.46650 -0.20338
 N178 N 0.46951 0.43474 0.09773
 N179 N 0.45845 0.40431 0.12252
 N180 N 0.45378 0.48736 0.16198
 N181 N 0.43679 0.48884 0.23180
 N182 N 0.43437 0.46805 0.09739
 N183 N 0.40363 0.45626 0.12169
 N184 N 0.48871 0.45445 0.16200
 N185 N 0.49082 0.43801 0.23202
 C186 C 0.47266 0.40691 0.20562
 C187 C 0.40566 0.47011 0.20488
 N188 N 0.53387 0.56853 0.10355
 N189 N 0.54448 0.59867 0.13069
 N190 N 0.54883 0.51524 0.16547
 N191 N 0.56512 0.51294 0.23588
 N192 N 0.56888 0.53512 0.10290
 N193 N 0.59935 0.54646 0.12909
 N194 N 0.51384 0.54810 0.16515
 N195 N 0.51059 0.56372 0.23550
 Mn196 Mn 0.50129 0.50129 0.16373
 C197 C 0.52907 0.59510 0.21228
 C198 C 0.59650 0.53178 0.21132
 N199 N 0.43547 0.46915 -0.10238
 N200 N 0.40507 0.45783 -0.12955
 N201 N 0.49027 0.45613 -0.16444
 N202 N 0.49329 0.44034 -0.23480
 N203 N 0.47058 0.43582 -0.10208
 N204 N 0.46006 0.40564 -0.12845
 N205 N 0.45569 0.48944 -0.16390
 N206 N 0.43968 0.49218 -0.23419
 Mn207 Mn 0.45224 0.45169 -0.00236
 C208 C 0.40824 0.47309 -0.21104
 C209 C 0.47509 0.40900 -0.21053
 N210 N 0.56997 0.53625 -0.09690
 N211 N 0.60063 0.54785 -0.12196
 N212 N 0.51583 0.55009 -0.16077
 N213 N 0.51382 0.56669 -0.23058
 N214 N 0.53494 0.56969 -0.09621
 N215 N 0.54605 0.60017 -0.12050
 N216 N 0.55035 0.51672 -0.16076
 N217 N 0.56703 0.51479 -0.23055
 Mn218 Mn 0.55217 0.55265 0.00337
 Mn219 Mn 0.50303 0.50310 -0.16253
 Cl220 Cl 0.50218 0.50218 0.00057
 C221 C 0.59824 0.53353 -0.20468
 C222 C 0.53199 0.59777 -0.20368
 N223 N 0.43003 -0.03501 0.10098
 N224 N 0.39954 -0.05407 0.12691
 N225 N 0.48372 0.03255 0.16535
 N226 N 0.48598 0.05107 0.23568
 N227 N 0.46424 0.03313 0.10187
 N228 N 0.45314 0.05248 0.12735
 N229 N 0.45005 -0.03503 0.16362
 N230 N 0.43376 -0.05372 0.23355
 C231 C 0.40241 -0.06608 0.20888
 C232 C 0.46755 0.06399 0.21015
 N233 N 0.56450 0.03318 0.10088
 N234 N 0.59500 0.05250 0.12635
 N235 N 0.51085 -0.03495 0.16303
 N236 N 0.50883 -0.05362 0.23269
 N237 N 0.53051 -0.03502 0.09925
 N238 N 0.54196 -0.05415 0.12389
 N239 N 0.54450 0.03263 0.16452
 N240 N 0.56080 0.05109 0.23485
 Mn241 Mn 0.49727 -0.00121 0.16425
 C242 C 0.59214 0.06401 0.20925
 C243 C 0.52757 -0.06611 0.20644
 N244 N 0.46412 0.03355 -0.09798
 N245 N 0.45284 0.05275 -0.12365
 N246 N 0.44990 -0.03430 -0.16202
 N247 N 0.43358 -0.05285 -0.23216
 N248 N 0.42991 -0.03465 -0.09873
 N249 N 0.39939 -0.05381 -0.12438
 N250 N 0.48390 0.03335 -0.16108
 N251 N 0.48631 0.05202 -0.23099
 Mn252 Mn 0.44683 -0.00073 0.00156
 C253 C 0.46761 0.06465 -0.20592
 C254 C 0.40222 -0.06553 -0.20696
 N255 N 0.53045 -0.03454 -0.10051
 N256 N 0.54176 -0.05361 -0.12733
 N257 N 0.54444 0.03331 -0.16213
 N258 N 0.56072 0.05199 -0.23215
 N259 N 0.56447 0.03364 -0.09900
 N260 N 0.59496 0.05296 -0.12452
 N261 N 0.51048 -0.03427 -0.16282
 N262 N 0.50794 -0.05277 -0.23333
 Mn263 Mn 0.54774 -0.00067 0.00016
 Mn264 Mn 0.49717 -0.00048 -0.16204
 Cl265 Cl 0.49726 -0.00077 0.00103
 C266 C 0.52681 -0.06532 -0.20949
 C267 C 0.59207 0.06476 -0.20687
 C268 C 1.14687 0.44523 0.33582
 C269 C 1.11569 0.43803 0.33328
 C270 C 1.10194 0.44786 0.25736
 C271 C 1.08160 0.45849 0.27944
 H272 H 1.09967 0.42639 0.39124
 H273 H 1.10897 0.44751 0.18641
 H274 H 1.16087 0.45483 0.27334
 H275 H 1.07732 0.46109 0.35169
 C276 C 0.54772 0.69814 0.33778
 C277 C 0.55493 0.67426 0.33649
 C278 C 0.54659 0.65144 0.25930
 C279 C 0.53733 0.62080 0.27999
 H280 H 0.56583 0.66965 0.39593
 H281 H 0.54675 0.65897 0.18867
 H282 H 0.53907 0.70293 0.27408
 H283 H 0.53480 0.61362 0.35194
 C284 C 0.29841 -0.14858 0.33264
 C285 C 0.32166 -0.11732 0.32911
 C286 C 0.34520 -0.10353 0.25319
 C287 C 0.37607 -0.08306 0.27545
 H288 H 0.32563 -0.10132 0.38675
 H289 H 0.33796 -0.11068 0.18227
 H290 H 0.29424 -0.16268 0.27057
 H291 H 0.38285 -0.07868 0.34776
 C292 C 0.85066 0.54675 0.32475
 C293 C 0.88270 0.55833 0.31791
 C294 C 0.89712 0.54811 0.24489
 C295 C 0.91887 0.53959 0.26968
 H296 H 0.89858 0.57268 0.37366
 H297 H 0.88913 0.54607 0.17393
 H298 H 0.83498 0.53218 0.26906
 H299 H 0.92407 0.53907 0.34238
 C300 C 0.46105 0.30690 0.32661
 C301 C 0.44902 0.32695 0.32191
 C302 C 0.45760 0.35090 0.24777
 C303 C 0.46328 0.38031 0.27096
 H304 H 0.43515 0.32833 0.37943
 H305 H 0.46110 0.34539 0.17759
 H306 H 0.47498 0.30568 0.26915
 H307 H 0.46256 0.38592 0.34320
 C308 C 0.69234 0.15263 0.33030
 C309 C 0.67228 0.12064 0.32598
 C310 C 0.64825 0.10514 0.25185
 C311 C 0.61873 0.08136 0.27493
 H312 H 0.67106 0.10554 0.38346
 H313 H 0.65378 0.11404 0.18161
 H314 H 0.69332 0.16756 0.27272
 H315 H 0.61304 0.07508 0.34715
 C316 C 0.45200 0.15092 -0.33165
 C317 C 0.44297 0.11939 -0.32852
 C318 C 0.45120 0.10459 -0.25170
 C319 C 0.45829 0.08158 -0.27270
 H320 H 0.43093 0.10380 -0.38692
 H321 H 0.45328 0.11334 -0.18162
 H322 H 0.46164 0.16472 -0.26897
 H323 H 0.45884 0.07557 -0.34468
 C324 C 0.70166 0.55161 -0.32959
 C325 C 0.67832 0.55971 -0.32650
 C326 C 0.65513 0.55102 -0.24976
 C327 C 0.62475 0.54327 -0.27105
 H328 H 0.67418 0.57125 -0.38518
 H329 H 0.66194 0.54919 -0.17960
 H330 H 0.70652 0.54255 -0.26678
 H331 H 0.61819 0.54257 -0.34311
 C332 C 0.84862 0.30167 -0.33226
 C333 C 0.88014 0.32458 -0.33018
 C334 C 0.89509 0.34748 -0.25328
 C335 C 0.91794 0.37758 -0.27432
 H336 H 0.89561 0.32846 -0.38931
 H337 H 0.88664 0.34066 -0.18300
 H338 H 0.83501 0.29723 -0.26895
 H339 H 0.92367 0.38424 -0.34634
 C340 C 0.54691 -0.14890 -0.33448
 C341 C 0.55385 -0.11796 -0.33322
 C342 C 0.54522 -0.10362 -0.25613
 C343 C 0.53581 -0.08229 -0.27698
 H344 H 0.56461 -0.10255 -0.39277
 H345 H 0.54510 -0.11117 -0.18555
 H346 H 0.53840 -0.16229 -0.27074
 H347 H 0.53355 -0.07746 -0.34898
 C348 C 0.30315 0.45011 -0.33650
 C349 C 0.32824 0.44456 -0.33559
 C350 C 0.35120 0.45356 -0.25823
 C351 C 0.38230 0.46425 -0.27879
 H352 H 0.33371 0.43454 -0.39544
 H353 H 0.34333 0.45261 -0.18754
 H354 H 0.29757 0.45792 -0.27249
 H355 H 0.38966 0.46741 -0.35070
 C356 C 1.14996 0.69597 -0.33361
 C357 C 1.11932 0.67109 -0.33222
 C358 C 1.10543 0.64831 -0.25474
 C359 C 1.08514 0.61736 -0.27538
 H360 H 1.10378 0.66564 -0.39201
 H361 H 1.11215 0.65619 -0.18402
 H362 H 1.16345 0.70170 -0.26974
 H363 H 1.08115 0.61004 -0.34731
 C364 C 0.85292 0.54857 -0.33590
 C365 C 0.88385 0.55488 -0.33482
 C366 C 0.89813 0.54611 -0.25775
 C367 C 0.91932 0.53641 -0.27864
 H368 H 0.89935 0.56536 -0.39443
 H369 H 0.89077 0.54632 -0.18709
 H370 H 0.83948 0.54039 -0.27205
 H371 H 0.92396 0.53391 -0.35065
 C372 C 0.46125 0.30779 -0.33103
 C373 C 0.45048 0.32891 -0.32797
 C374 C 0.45917 0.35280 -0.25360
 C375 C 0.46676 0.38282 -0.27682
 H376 H 0.43737 0.33100 -0.38633
 H377 H 0.46068 0.34652 -0.18264
 H378 H 0.47437 0.30596 -0.27238
 H379 H 0.46782 0.38903 -0.34926
 C380 C 0.69292 0.15249 -0.32727
 C381 C 0.67256 0.12055 -0.32322
 C382 C 0.64850 0.10519 -0.24910
 C383 C 0.61863 0.08223 -0.27257
 H384 H 0.67099 0.10543 -0.38108
 H385 H 0.65439 0.11351 -0.17841
 H386 H 0.69426 0.16743 -0.26927
 H387 H 0.61272 0.07660 -0.34501
 C388 C 1.14790 0.44413 -0.32791
 C389 C 1.11655 0.43628 -0.32316
 C390 C 1.10305 0.44640 -0.24717
 C391 C 1.08225 0.45645 -0.26947
 H392 H 1.10026 0.42424 -0.38038
 H393 H 1.11076 0.44698 -0.17649
 H394 H 1.16241 0.45394 -0.26633
 H395 H 1.07740 0.45820 -0.34181
 C396 C 0.54704 0.69916 -0.32282
 C397 C 0.55899 0.67905 -0.31660
 C398 C 0.54925 0.65456 -0.24354
 C399 C 0.54147 0.62461 -0.26833
 H400 H 0.57333 0.67772 -0.37284
 H401 H 0.54700 0.66034 -0.17258
 H402 H 0.53256 0.70018 -0.26656
 H403 H 0.54114 0.61901 -0.34103
 C404 C 0.29813 -0.14875 -0.33103
 C405 C 0.32148 -0.11750 -0.32725
 C406 C 0.34505 -0.10366 -0.25125
 C407 C 0.37579 -0.08254 -0.27338
 H408 H 0.32545 -0.10147 -0.38480
 H409 H 0.33797 -0.11127 -0.18052
 H410 H 0.29378 -0.16293 -0.26904
 H411 H 0.38245 -0.07770 -0.34568
 C412 C 0.54504 -0.15108 0.32615
 C413 C 0.55622 -0.11924 0.31981
 C414 C 0.54595 -0.10490 0.24668
 C415 C 0.53720 -0.08336 0.27137
 H416 H 0.57041 -0.10343 0.37581
 H417 H 0.54429 -0.11260 0.17557
 H418 H 0.53072 -0.16667 0.27002
 H419 H 0.53636 -0.07840 0.34410
 C420 C 0.30236 0.45148 0.32422
 C421 C 0.32355 0.44077 0.31797
 C422 C 0.34823 0.45126 0.24486
 C423 C 0.37858 0.46000 0.26958
 H424 H 0.32554 0.42687 0.37418
 H425 H 0.34220 0.45319 0.17390
 H426 H 0.30066 0.46552 0.26802
 H427 H 0.38432 0.46055 0.34228
 C428 C 1.15103 0.69553 0.32719
 C429 C 1.11922 0.67406 0.32238
 C430 C 1.10492 0.64966 0.24893
 C431 C 1.08340 0.61941 0.27326
 H432 H 1.10348 0.67185 0.37948
 H433 H 1.11256 0.65585 0.17782
 H434 H 1.16658 0.69746 0.27000
 H435 H 1.07846 0.61349 0.34593
 C436 C 0.45414 0.15124 0.32885
 C437 C 0.44150 0.11917 0.32324
 C438 C 0.45079 0.10390 0.25041
 C439 C 0.45849 0.08164 0.27527
 H440 H 0.42678 0.10380 0.37925
 H441 H 0.45282 0.11168 0.17927
 H442 H 0.46905 0.16624 0.27261
 H443 H 0.45911 0.07655 0.34799
 C444 C 0.69875 0.54834 0.33112
 C445 C 0.67804 0.55964 0.32600
 C446 C 0.65352 0.54985 0.25275
 C447 C 0.62310 0.54094 0.27709
 H448 H 0.67651 0.57378 0.38229
 H449 H 0.65978 0.54866 0.18150
 H450 H 0.69968 0.53399 0.27453
 H451 H 0.61704 0.53962 0.34975
 C452 C 0.84709 0.30294 0.32833
 C453 C 0.87922 0.32281 0.32226
 C454 C 0.89415 0.34724 0.24923
 C455 C 0.91589 0.37736 0.27400
 H456 H 0.89489 0.32388 0.37814
 H457 H 0.88674 0.34119 0.17791
 H458 H 0.83174 0.30239 0.27225
 H459 H 0.92059 0.38323 0.34676
   
