data_POSCAR
  _audit_creation_date              2014-09-24
  _audit_creation_method            'ToBaCCo'
  _symmetry_space_group_name_H-M    'P1'
  _symmetry_Int_Tables_number       1
  _symmetry_cell_setting            triclinic
  loop_
  _symmetry_equiv_pos_as_xyz
 x,y,z
_cell_length_a 47.7325
_cell_length_b 47.1033
_cell_length_c 14.5379
_cell_angle_alpha 90.373900
_cell_angle_beta 89.285800
_cell_angle_gamma 119.674200
loop_
  _atom_site_label
  _atom_site_type_symbol
  _atom_site_fract_x
  _atom_site_fract_y
  _atom_site_fract_z
C1 C 0.24016 0.48374 0.55080
 C2 C 0.24920 0.49552 0.46355
 C3 C 0.22678 0.49878 0.40019
 C4 C 0.28245 0.50698 0.42840
 C5 C 0.26288 0.48166 0.61622
 C6 C 0.20727 0.47315 0.58807
 C7 C 0.19633 0.47222 0.37953
 C8 C 0.17444 0.47681 0.32723
 C9 C 0.18270 0.50815 0.29407
 C10 C 0.21417 0.53411 0.31034
 C11 C 0.23581 0.52944 0.36266
 C12 C 0.28714 0.49154 0.35182
 C13 C 0.31827 0.49996 0.32242
 C14 C 0.34536 0.52425 0.36864
 C15 C 0.34059 0.54081 0.44266
 C16 C 0.30939 0.53229 0.47220
 C17 C 0.26605 0.49487 0.70487
 C18 C 0.28655 0.49274 0.76849
 C19 C 0.30476 0.47783 0.74439
 C20 C 0.30168 0.46451 0.65588
 C21 C 0.28045 0.46587 0.59284
 C22 C 0.19488 0.49468 0.59351
 C23 C 0.16531 0.48510 0.63801
 C24 C 0.14804 0.45407 0.67910
 C25 C 0.16021 0.43243 0.67148
 C26 C 0.18947 0.44186 0.62647
 H27 H 0.18922 0.44812 0.40598
 H28 H 0.15092 0.45587 0.31534
 H29 H 0.22200 0.55855 0.28522
 H30 H 0.25932 0.55018 0.37683
 H31 H 0.26663 0.47220 0.31660
 H32 H 0.32096 0.48708 0.26417
 H33 H 0.30620 0.54487 0.53056
 H34 H 0.25262 0.50696 0.72485
 H35 H 0.28846 0.50313 0.83637
 H36 H 0.31505 0.45235 0.63622
 H37 H 0.27766 0.45452 0.52608
 H38 H 0.20856 0.51919 0.56600
 H39 H 0.15675 0.50246 0.64354
 H40 H 0.14744 0.40836 0.70227
 H41 H 0.19869 0.42497 0.62347
 H42 H 0.36096 0.55980 0.47915
 C43 C 0.52319 -0.24417 0.51745
 C44 C 0.52350 -0.23637 0.42682
 C45 C 0.52842 -0.25557 0.35365
 C46 C 0.51886 -0.20875 0.39703
 C47 C 0.52517 -0.22158 0.59350
 C48 C 0.52325 -0.27477 0.54218
 C49 C 0.55921 -0.24418 0.31476
 C50 C 0.56439 -0.26255 0.24809
 C51 C 0.53920 -0.29328 0.22240
 C52 C 0.50850 -0.30508 0.26264
 C53 C 0.50304 -0.28612 0.32704
 C54 C 0.54043 -0.18519 0.33438
 C55 C 0.53777 -0.15777 0.31324
 C56 C 0.51351 -0.15328 0.35431
 C57 C 0.49103 -0.17749 0.41364
 C58 C 0.49342 -0.20516 0.43381
 C59 C 0.50593 -0.23341 0.67359
 C60 C 0.50672 -0.21183 0.74155
 C61 C 0.52619 -0.17803 0.72986
 C62 C 0.54628 -0.16609 0.65213
 C63 C 0.54651 -0.18768 0.58617
 C64 C 0.49490 -0.30241 0.57276
 C65 C 0.49465 -0.33167 0.59125
 C66 C 0.52228 -0.33445 0.57401
 C67 C 0.55030 -0.30694 0.54007
 C68 C 0.55100 -0.27725 0.52681
 H69 H 0.57945 -0.22139 0.33757
 H70 H 0.58838 -0.25336 0.21929
 H71 H 0.48880 -0.32888 0.24399
 H72 H 0.47929 -0.29549 0.35767
 H73 H 0.56020 -0.18703 0.30408
 H74 H 0.55546 -0.13958 0.26728
 H75 H 0.47599 -0.22331 0.48048
 H76 H 0.48967 -0.25918 0.68348
 H77 H 0.49133 -0.22146 0.80186
 H78 H 0.56209 -0.14007 0.64309
 H79 H 0.56296 -0.17774 0.52817
 H80 H 0.47275 -0.30155 0.58086
 H81 H 0.47243 -0.35241 0.61547
 H82 H 0.57211 -0.30799 0.52612
 H83 H 0.57301 -0.25634 0.50216
 H84 H 0.47181 -0.17485 0.44542
 C85 C 1.25563 0.74197 0.54260
 C86 C 1.25797 0.75573 0.45824
 C87 C 1.28318 0.78993 0.43573
 C88 C 1.23413 0.73737 0.38487
 C89 C 1.22721 0.71014 0.56665
 C90 C 1.27837 0.75946 0.61895
 C91 C 1.28971 0.81614 0.49507
 C92 C 1.31514 0.84749 0.47593
 C93 C 1.33318 0.85386 0.39378
 C94 C 1.32488 0.82803 0.33111
 C95 C 1.30050 0.79640 0.35256
 C96 C 1.21808 0.75165 0.34108
 C97 C 1.19466 0.73421 0.27509
 C98 C 1.18643 0.70197 0.25315
 C99 C 1.20302 0.68794 0.29490
 C100 C 1.22719 0.70578 0.35863
 C101 C 1.23016 0.68213 0.57446
 C102 C 1.20331 0.65218 0.59772
 C103 C 1.17344 0.65012 0.61828
 C104 C 1.17088 0.67858 0.61154
 C105 C 1.19739 0.70815 0.58444
 C106 C 1.31198 0.77599 0.60549
 C107 C 1.33239 0.79713 0.67326
 C108 C 1.31956 0.80110 0.75712
 C109 C 1.28628 0.78150 0.77397
 C110 C 1.26595 0.76125 0.70550
 H111 H 1.27568 0.81222 0.55753
 H112 H 1.32031 0.86684 0.52499
 H113 H 1.33801 0.83169 0.26707
 H114 H 1.29553 0.77677 0.30473
 H115 H 1.22327 0.77610 0.35928
 H116 H 1.18224 0.74555 0.24332
 H117 H 1.24025 0.69478 0.38815
 H118 H 1.25315 0.68343 0.56123
 H119 H 1.20627 0.63086 0.60231
 H120 H 1.14832 0.67810 0.62529
 H121 H 1.19488 0.72971 0.57890
 H122 H 1.32228 0.77401 0.54060
 H123 H 1.35798 0.81090 0.65846
 H124 H 1.27545 0.78322 0.83818
 H125 H 1.24024 0.74836 0.71899
 H126 H 1.19754 0.66335 0.27747
 C127 C 0.74548 0.48853 0.52685
 C128 C 0.75282 0.49679 0.43664
 C129 C 0.78594 0.51029 0.39966
 C130 C 0.72945 0.49809 0.37302
 C131 C 0.71355 0.48135 0.56435
 C132 C 0.76962 0.48905 0.59235
 C133 C 0.80695 0.54412 0.40250
 C134 C 0.83703 0.55781 0.35856
 C135 C 0.84676 0.53774 0.31303
 C136 C 0.82597 0.50377 0.31184
 C137 C 0.79544 0.49022 0.35309
 C138 C 0.71947 0.52131 0.38585
 C139 C 0.69828 0.52322 0.32427
 C140 C 0.68787 0.50292 0.24654
 C141 C 0.69861 0.48036 0.23206
 C142 C 0.71905 0.47777 0.29534
 C143 C 0.68627 0.45055 0.55216
 C144 C 0.65586 0.44476 0.58218
 C145 C 0.65229 0.46965 0.62576
 C146 C 0.67993 0.50045 0.63776
 C147 C 0.71000 0.50627 0.60638
 C148 C 0.78670 0.47241 0.57289
 C149 C 0.81120 0.47538 0.63117
 C150 C 0.81817 0.49399 0.71237
 C151 C 0.79927 0.50841 0.73494
 C152 C 0.77567 0.50626 0.67554
 H153 H 0.79962 0.55997 0.43654
 H154 H 0.85265 0.58407 0.35971
 H155 H 0.83279 0.48789 0.27571
 H156 H 0.77911 0.46416 0.34794
 H157 H 0.72855 0.53839 0.44253
 H158 H 0.69096 0.54136 0.33568
 H159 H 0.72697 0.46011 0.28336
 H160 H 0.68848 0.43121 0.51820
 H161 H 0.63520 0.42077 0.57118
 H162 H 0.67855 0.52061 0.66901
 H163 H 0.73042 0.53069 0.61241
 H164 H 0.78120 0.45717 0.51246
 H165 H 0.82448 0.46306 0.61243
 H166 H 0.80343 0.52262 0.79729
 H167 H 0.76293 0.51897 0.69473
 H168 H 0.69102 0.46462 0.17214
 C169 C 0.46807 0.23020 0.57104
 C170 C 0.47566 0.24062 0.48226
 C171 C 0.48506 0.27436 0.45286
 C172 C 0.47414 0.21799 0.40929
 C173 C 0.46253 0.19728 0.59610
 C174 C 0.46372 0.25027 0.64379
 C175 C 0.46837 0.27940 0.38171
 C176 C 0.47629 0.31093 0.35547
 C177 C 0.50125 0.33822 0.39938
 C178 C 0.51843 0.33323 0.46940
 C179 C 0.51046 0.30158 0.49574
 C180 C 0.44545 0.19967 0.36089
 C181 C 0.44373 0.17842 0.29138
 C182 C 0.47041 0.17448 0.27100
 C183 C 0.49903 0.19246 0.32064
 C184 C 0.50096 0.21436 0.38900
 C185 C 0.48776 0.19352 0.63088
 C186 C 0.48343 0.16233 0.64701
 C187 C 0.45401 0.13418 0.62572
 C188 C 0.42894 0.13824 0.58963
 C189 C 0.43303 0.16944 0.57625
 C190 C 0.47620 0.25283 0.73241
 C191 C 0.47392 0.27345 0.79818
 C192 C 0.45997 0.29274 0.77585
 C193 C 0.44604 0.28885 0.68872
 C194 C 0.44698 0.26711 0.62489
 H195 H 0.44864 0.25900 0.34746
 H196 H 0.46266 0.31374 0.30091
 H197 H 0.53791 0.35379 0.50425
 H198 H 0.52391 0.29827 0.55006
 H199 H 0.42434 0.20175 0.37733
 H200 H 0.42128 0.16449 0.25494
 H201 H 0.52317 0.22825 0.42656
 H202 H 0.51100 0.21477 0.64412
 H203 H 0.50354 0.16050 0.67360
 H204 H 0.40593 0.11730 0.57237
 H205 H 0.41346 0.17193 0.54802
 H206 H 0.48851 0.23964 0.75048
 H207 H 0.48447 0.27539 0.86508
 H208 H 0.43383 0.30209 0.66981
 H209 H 0.43515 0.26402 0.55961
 H210 H 0.51993 0.18983 0.30605
 C211 C 0.74516 0.25443 0.56002
 C212 C 0.74955 0.26256 0.46895
 C213 C 0.72835 0.23967 0.39665
 C214 C 0.77746 0.29337 0.43617
 C215 C 0.76911 0.27423 0.63209
 C216 C 0.71671 0.22376 0.59093
 C217 C 0.74205 0.22900 0.32845
 C218 C 0.72273 0.20619 0.26264
 C219 C 0.68913 0.19321 0.26388
 C220 C 0.67537 0.20448 0.33062
 C221 C 0.69490 0.22789 0.39562
 C222 C 0.80865 0.29750 0.43496
 C223 C 0.83497 0.32741 0.40825
 C224 C 0.83044 0.35374 0.38452
 C225 C 0.79916 0.34938 0.38500
 C226 C 0.77278 0.31920 0.40894
 C227 C 0.78224 0.30827 0.63928
 C228 C 0.80678 0.32641 0.70204
 C229 C 0.81753 0.31071 0.76276
 C230 C 0.80254 0.27642 0.76018
 C231 C 0.77905 0.25853 0.69494
 C232 C 0.68982 0.22472 0.62684
 C233 C 0.66172 0.19576 0.64883
 C234 C 0.66071 0.16564 0.63896
 C235 C 0.68810 0.16473 0.60701
 C236 C 0.71585 0.19367 0.58163
 H237 H 0.76774 0.23778 0.32729
 H238 H 0.73409 0.19811 0.21200
 H239 H 0.64963 0.19537 0.33232
 H240 H 0.68387 0.23661 0.44536
 H241 H 0.81256 0.27769 0.45567
 H242 H 0.85891 0.33027 0.40868
 H243 H 0.74879 0.31628 0.40944
 H244 H 0.77376 0.32096 0.59604
 H245 H 0.81684 0.35265 0.70361
 H246 H 0.80984 0.26331 0.80618
 H247 H 0.76918 0.23233 0.69248
 H248 H 0.69023 0.24782 0.63429
 H249 H 0.64072 0.19680 0.67334
 H250 H 0.68754 0.14160 0.59835
 H251 H 0.73651 0.19267 0.55385
 H252 H 0.79512 0.36929 0.36636
 N253 N 0.98136 0.55548 0.06676
 N254 N 0.95966 0.56507 0.07157
 N255 N 1.04907 0.56752 0.11470
 N256 N 1.07549 0.58832 0.15864
 N257 N 1.04737 0.57978 0.03542
 N258 N 1.07225 0.60935 0.02352
 N259 N 0.98225 0.54186 0.14439
 N260 N 0.96081 0.54122 0.20379
 C261 C 0.94722 0.55601 0.15734
 C262 C 1.08971 0.61402 0.10024
 N263 N 1.03742 0.47928 0.12996
 N264 N 1.06293 0.47530 0.13651
 N265 N 0.97602 0.48067 0.20149
 N266 N 0.95309 0.47479 0.26272
 N267 N 0.97072 0.45347 0.16095
 N268 N 0.94426 0.42828 0.19391
 N269 N 1.04282 0.50646 0.17103
 N270 N 1.07209 0.52192 0.20511
 Mn271 Mn 1.01252 0.52415 0.15901
 C272 C 1.08399 0.50195 0.18492
 C273 C 0.93384 0.44199 0.25778
 N274 N 1.03451 0.55641 -0.15187
 N275 N 1.06144 0.58098 -0.18502
 N276 N 0.96124 0.50450 -0.16058
 N277 N 0.93145 0.49064 -0.19279
 N278 N 0.96853 0.53213 -0.11890
 N279 N 0.94419 0.53775 -0.12087
 N280 N 1.02804 0.52896 -0.19318
 N281 N 1.05068 0.53395 -0.25439
 Mn282 Mn 1.00807 0.55623 -0.04273
 C283 C 1.07089 0.56651 -0.24940
 C284 C 0.92158 0.51218 -0.16821
 N285 N 0.95784 0.43032 -0.02605
 N286 N 0.93278 0.40086 -0.01343
 N287 N 1.02190 0.46792 -0.13635
 N288 N 1.04174 0.46645 -0.19814
 N289 N 1.02395 0.45555 -0.05758
 N290 N 1.04461 0.44471 -0.06379
 N291 N 0.95524 0.44293 -0.10376
 N292 N 0.92824 0.42254 -0.14583
 Mn293 Mn 0.99752 0.45435 0.05224
 Mn294 Mn 0.99144 0.48593 -0.14974
 Cl295 Cl 1.00240 0.50514 0.00466
 C296 C 0.91447 0.39666 -0.08809
 C297 C 1.05556 0.45187 -0.15136
 N298 N 0.48180 0.45143 0.15984
 N299 N 0.47771 0.42402 0.19664
 N300 N 0.47855 0.51564 0.18364
 N301 N 0.47125 0.53394 0.23703
 N302 N 0.45227 0.49047 0.15200
 N303 N 0.42634 0.49091 0.18243
 N304 N 0.50786 0.47665 0.19224
 N305 N 0.52228 0.46731 0.25184
 C306 C 0.50320 0.43455 0.25378
 C307 C 0.43861 0.51809 0.23521
 N308 N 0.54829 0.57586 0.01792
 N309 N 0.55476 0.60605 0.00085
 N310 N 0.56565 0.52785 0.11042
 N311 N 0.58470 0.52065 0.15806
 N312 N 0.57608 0.53515 0.02509
 N313 N 0.60226 0.53281 0.01183
 N314 N 0.53648 0.56708 0.10152
 N315 N 0.53431 0.59077 0.14366
 Mn316 Mn 0.52226 0.52203 0.14782
 C317 C 0.54592 0.61482 0.08014
 C318 C 0.60747 0.52422 0.09563
 N319 N 0.42819 0.46561 -0.02787
 N320 N 0.39971 0.46336 -0.01617
 N321 N 0.46699 0.43465 -0.10698
 N322 N 0.46834 0.41069 -0.15074
 N323 N 0.45756 0.42636 -0.02120
 N324 N 0.45270 0.39677 -0.00370
 N325 N 0.43882 0.47463 -0.11251
 N326 N 0.41764 0.47826 -0.16131
 Mn327 Mn 0.45465 0.45810 0.06608
 C328 C 0.39351 0.47115 -0.09992
 C329 C 0.45913 0.38731 -0.08549
 N330 N 0.55188 0.51051 -0.15579
 N331 N 0.57726 0.50895 -0.18624
 N332 N 0.49765 0.52697 -0.19568
 N333 N 0.48823 0.53740 -0.26716
 N334 N 0.52433 0.55103 -0.16165
 N335 N 0.53358 0.57821 -0.20790
 N336 N 0.52518 0.48606 -0.18816
 N337 N 0.53155 0.46694 -0.24074
 Mn338 Mn 0.55047 0.54335 -0.06884
 Mn339 Mn 0.48192 0.48049 -0.15192
 Cl340 Cl 0.50226 0.50098 -0.00185
 C341 C 0.56408 0.48168 -0.23894
 C342 C 0.51052 0.56966 -0.27156
 N343 N 0.44037 -0.02404 0.12270
 N344 N 0.41325 -0.04757 0.15806
 N345 N 0.49072 0.05075 0.11279
 N346 N 0.49690 0.07919 0.14777
 N347 N 0.46676 0.04005 0.05451
 N348 N 0.45621 0.06102 0.04717
 N349 N 0.46350 -0.01279 0.18364
 N350 N 0.45262 -0.02801 0.26317
 C351 C 0.42137 -0.04963 0.24543
 C352 C 0.47545 0.08533 0.10480
 N353 N 0.57050 0.04902 0.05314
 N354 N 0.60053 0.07312 0.04687
 N355 N 0.52590 -0.00781 0.18200
 N356 N 0.51660 -0.02767 0.25320
 N357 N 0.54180 -0.01564 0.12184
 N358 N 0.54354 -0.04129 0.15099
 N359 N 0.55404 0.05612 0.11309
 N360 N 0.57267 0.08516 0.15043
 Mn361 Mn 0.50873 0.02189 0.14860
 C362 C 0.60140 0.09551 0.10704
 C363 C 0.52820 -0.04794 0.23375
 N364 N 0.45646 0.01544 -0.12904
 N365 N 0.44666 0.03504 -0.16169
 N366 N 0.44690 -0.05453 -0.12469
 N367 N 0.43028 -0.08484 -0.15537
 N368 N 0.43027 -0.04875 -0.06207
 N369 N 0.40197 -0.07495 -0.04763
 N370 N 0.47357 0.01001 -0.19077
 N371 N 0.47579 0.02577 -0.26803
 Mn372 Mn 0.44816 -0.00446 -0.00339
 C373 C 0.45902 0.04133 -0.24783
 C374 C 0.40247 -0.09713 -0.10603
 N375 N 0.53232 -0.03992 -0.06507
 N376 N 0.54120 -0.06225 -0.05642
 N377 N 0.53660 0.01557 -0.19174
 N378 N 0.54538 0.03607 -0.26142
 N379 N 0.56027 0.02478 -0.13281
 N380 N 0.58591 0.05189 -0.16159
 N381 N 0.50987 -0.04876 -0.12762
 N382 N 0.50318 -0.07711 -0.16453
 Mn383 Mn 0.55157 0.00449 -0.00561
 Mn384 Mn 0.49173 -0.01951 -0.15982
 Cl385 Cl 0.50011 0.00065 -0.00511
 C386 C 0.52271 -0.08521 -0.11861
 C387 C 0.57629 0.05808 -0.24264
 N388 N 1.14046 0.54188 0.19589
 N389 N 1.16764 0.54435 0.22556
 C390 C 1.16112 0.51415 0.25147
 C391 C 1.12864 0.49275 0.23429
 N392 N 1.11690 0.51121 0.20026
 H393 H 1.11437 0.46701 0.25032
 N394 N 0.56723 0.67273 0.04839
 N395 N 0.56619 0.69805 0.08506
 C396 C 0.54557 0.68648 0.15742
 C397 C 0.53423 0.65345 0.16458
 N398 N 0.54832 0.64589 0.09560
 H399 H 0.51837 0.63682 0.21695
 N400 N 0.39751 -0.06546 0.39873
 N401 N 0.37320 -0.09091 0.44001
 C402 C 0.35925 -0.11477 0.37614
 C403 C 0.37576 -0.10283 0.29387
 N404 N 0.39928 -0.07224 0.31117
 H405 H 0.37111 -0.11478 0.22750
 N406 N 0.91610 0.58405 0.17091
 N407 N 0.88965 0.58025 0.21289
 C408 C 0.87765 0.55240 0.26226
 C409 C 0.89768 0.53934 0.24991
 N410 N 0.92129 0.55983 0.19275
 H411 H 0.89496 0.51683 0.27766
 N412 N 0.53425 0.42419 0.36651
 N413 N 0.53455 0.39918 0.40665
 C414 C 0.50945 0.37174 0.37270
 C415 C 0.49365 0.38085 0.31040
 N416 N 0.50989 0.41363 0.30876
 H417 H 0.47258 0.36546 0.26996
 N418 N 0.65767 0.13505 0.08087
 N419 N 0.68156 0.16095 0.12049
 C420 C 0.66918 0.16776 0.19590
 C421 C 0.63654 0.14502 0.20087
 N422 N 0.63050 0.12508 0.12792
 H423 H 0.61941 0.14206 0.25461
 N424 N 0.42571 0.05005 -0.35481
 N425 N 0.42286 0.07481 -0.38636
 C426 C 0.44932 0.10258 -0.35981
 C427 C 0.46870 0.09375 -0.31148
 N428 N 0.45326 0.06089 -0.31090
 H429 H 0.49041 0.10934 -0.27365
 N430 N 0.57026 0.44041 -0.32505
 N431 N 0.59364 0.43633 -0.36151
 C432 C 0.62175 0.46400 -0.34501
 C433 C 0.61464 0.48510 -0.29654
 N434 N 0.58248 0.46950 -0.28582
 H435 H 0.63092 0.50935 -0.27089
 N436 N 0.87741 0.33855 -0.06872
 N437 N 0.85155 0.31474 -0.10852
 C438 C 0.84298 0.32845 -0.17603
 C439 C 0.86468 0.36171 -0.17606
 N440 N 0.88569 0.36682 -0.10857
 H441 H 0.86614 0.38018 -0.22285
 N442 N 0.53000 -0.13080 -0.07286
 N443 N 0.53057 -0.15623 -0.11063
 C444 C 0.52568 -0.15520 -0.20144
 C445 C 0.52180 -0.12857 -0.21824
 N446 N 0.52459 -0.11410 -0.13631
 H447 H 0.51782 -0.12028 -0.28354
 N448 N 0.34534 0.47333 -0.05626
 N449 N 0.32147 0.47537 -0.09523
 C450 C 0.32616 0.47568 -0.18705
 C451 C 0.35387 0.47398 -0.20323
 N452 N 0.36501 0.47258 -0.11989
 H453 H 0.36499 0.47406 -0.26865
 N454 N 1.11745 0.56886 -0.32671
 N455 N 1.14571 0.59102 -0.36112
 C456 C 1.14698 0.62027 -0.35425
 C457 C 1.11848 0.61521 -0.31384
 N458 N 1.10093 0.58300 -0.29787
 H459 H 1.11146 0.63307 -0.29461
 N460 N 0.87823 0.52125 -0.12151
 N461 N 0.85050 0.51708 -0.15182
 C462 C 0.84398 0.49969 -0.23053
 C463 C 0.86879 0.49277 -0.24663
 N464 N 0.88963 0.50698 -0.17716
 H465 H 0.87275 0.48114 -0.30592
 N466 N 0.46662 0.34234 -0.03518
 N467 N 0.46771 0.31696 -0.07108
 C468 C 0.46043 0.31568 -0.16110
 C469 C 0.45511 0.34143 -0.17918
 N470 N 0.45923 0.35731 -0.09916
 H471 H 0.45002 0.34884 -0.24432
 N472 N 0.58015 0.09976 -0.34684
 N473 N 0.60182 0.12884 -0.37845
 C474 C 0.63039 0.13532 -0.34343
 C475 C 0.62568 0.10941 -0.28892
 N476 N 0.59397 0.08781 -0.29298
 H477 H 0.64326 0.10687 -0.24875
 N478 N 1.08362 0.42092 -0.15619
 N479 N 1.10784 0.42058 -0.20037
 C480 C 1.11890 0.44468 -0.26367
 C481 C 1.10031 0.45974 -0.25724
 N482 N 1.07868 0.44412 -0.18942
 H483 H 1.10290 0.48062 -0.29520
 N484 N 0.54107 0.60319 -0.39878
 N485 N 0.54632 0.63070 -0.43785
 C486 C 0.52260 0.63637 -0.40881
 C487 C 0.50219 0.61076 -0.35145
 N488 N 0.51461 0.59061 -0.34713
 H489 H 0.48291 0.60918 -0.30783
 N490 N 0.34982 -0.14183 -0.06397
 N491 N 0.32693 -0.16950 -0.09918
 C492 C 0.33852 -0.17446 -0.17933
 C493 C 0.36974 -0.14888 -0.19124
 N494 N 0.37556 -0.12909 -0.11833
 H495 H 0.38568 -0.14359 -0.25006
 N496 N 0.50036 -0.08500 0.35993
 N497 N 0.49531 -0.11328 0.39296
 C498 C 0.51222 -0.12298 0.33907
 C499 C 0.52796 -0.09955 0.27165
 N500 N 0.51990 -0.07636 0.28746
 H501 H 0.54324 -0.09949 0.21594
 N502 N 0.43016 0.55435 0.33861
 N503 N 0.40583 0.55677 0.37525
 C504 C 0.37837 0.53166 0.34187
 C505 C 0.38676 0.51371 0.28370
 N506 N 0.41910 0.52861 0.28369
 H507 H 0.37106 0.49155 0.24658
 N508 N 1.12708 0.67189 0.07718
 N509 N 1.15274 0.69612 0.11656
 C510 C 1.16030 0.68305 0.18779
 C511 C 1.13836 0.65003 0.19123
 N512 N 1.11808 0.64414 0.12122
 H513 H 1.13661 0.63230 0.24135
 N514 N 0.44765 0.11630 0.08958
 N515 N 0.44543 0.13995 0.13269
 C516 C 0.46760 0.15087 0.19994
 C517 C 0.48361 0.13325 0.19656
 N518 N 0.47034 0.11193 0.12709
 H519 H 0.50142 0.13417 0.24373
 N520 N 0.64699 0.50841 0.04942
 N521 N 0.66824 0.50184 0.08741
 C522 C 0.66694 0.50619 0.17888
 C523 C 0.64410 0.51546 0.19593
 N524 N 0.63233 0.51657 0.11351
 H525 H 0.63679 0.52091 0.26146
 N526 N 0.88805 0.43776 0.34508
 N527 N 0.85993 0.41480 0.37831
 C528 C 0.85818 0.38581 0.36041
 C529 C 0.88605 0.39168 0.31486
 N530 N 0.90396 0.42430 0.30673
 H531 H 0.89234 0.37403 0.28813
   
