data_POSCAR
  _audit_creation_date              2014-09-24
  _audit_creation_method            'ToBaCCo'
  _symmetry_space_group_name_H-M    'P1'
  _symmetry_Int_Tables_number       1
  _symmetry_cell_setting            triclinic
  loop_
  _symmetry_equiv_pos_as_xyz
 x,y,z
_cell_length_a 40.3884
_cell_length_b 40.3913
_cell_length_c 43.5965
_cell_angle_alpha 89.962500
_cell_angle_beta 89.963400
_cell_angle_gamma 90.228300
loop_
  _atom_site_label
  _atom_site_type_symbol
  _atom_site_fract_x
  _atom_site_fract_y
  _atom_site_fract_z
O1 O -0.03299 0.26761 0.02960
 O2 O 0.03123 0.26752 -0.03022
 O3 O -0.03303 0.26758 -0.03011
 O4 O 0.03128 0.26749 0.02949
 O5 O 0.03110 0.21273 0.02961
 O6 O -0.03339 0.21282 -0.03016
 O7 O 0.03106 0.21277 -0.03027
 O8 O -0.03335 0.21286 0.02972
 Cu9 Cu -0.00085 0.27307 -0.00031
 Cu10 Cu -0.00118 0.20724 -0.00027
 C11 C -0.04393 0.24029 0.03986
 C12 C 0.04191 0.24018 -0.04045
 C13 C -0.04397 0.24025 -0.04030
 C14 C 0.04196 0.24015 0.03971
 O15 O 0.46711 0.76896 0.53005
 O16 O 0.53141 0.76893 0.47029
 O17 O 0.46710 0.76902 0.47031
 O18 O 0.53142 0.76886 0.53005
 O19 O 0.53123 0.71411 0.53011
 O20 O 0.46675 0.71427 0.47022
 O21 O 0.53122 0.71417 0.47019
 O22 O 0.46676 0.71420 0.53012
 Cu23 Cu 0.49930 0.77445 0.50018
 Cu24 Cu 0.49896 0.70865 0.50016
 C25 C 0.45617 0.74163 0.54026
 C26 C 0.54207 0.74160 0.46004
 C27 C 0.45616 0.74171 0.46009
 C28 C 0.54209 0.74150 0.54026
 O29 O 0.96703 0.73098 -0.03091
 O30 O 1.03119 0.73118 0.02897
 O31 O 0.96689 0.73111 0.02883
 O32 O 1.03133 0.73112 -0.03079
 O33 O 1.03158 0.78586 -0.03098
 O34 O 0.96697 0.78587 0.02880
 O35 O 1.03143 0.78593 0.02894
 O36 O 0.96711 0.78573 -0.03110
 Cu37 Cu 0.99910 0.72559 -0.00096
 Cu38 Cu 0.99929 0.79139 -0.00110
 C39 C 0.95632 0.75828 -0.04121
 C40 C 1.04205 0.75854 0.03917
 C41 C 0.95613 0.75845 0.03897
 C42 C 1.04225 0.75844 -0.04106
 O43 O 0.46614 0.23208 0.47048
 O44 O 0.53040 0.23213 0.53012
 O45 O 0.46613 0.23207 0.53019
 O46 O 0.53040 0.23216 0.47040
 O47 O 0.53067 0.28692 0.47030
 O48 O 0.46623 0.28683 0.53026
 O49 O 0.53068 0.28689 0.53019
 O50 O 0.46624 0.28684 0.47037
 Cu51 Cu 0.49825 0.22659 0.50030
 Cu52 Cu 0.49847 0.29242 0.50028
 C53 C 0.45544 0.25941 0.46024
 C54 C 0.54130 0.25947 0.54032
 C55 C 0.45542 0.25939 0.54042
 C56 C 0.54129 0.25950 0.46015
 O57 O 0.73300 0.03130 -0.02956
 O58 O 0.73317 -0.03281 0.03035
 O59 O 0.73285 0.03141 0.03018
 O60 O 0.73336 -0.03290 -0.02939
 O61 O 0.78813 -0.03250 -0.02939
 O62 O 0.78761 0.03201 0.03037
 O63 O 0.78793 -0.03240 0.03054
 O64 O 0.78776 0.03190 -0.02956
 Cu65 Cu 0.72758 -0.00080 0.00039
 Cu66 Cu 0.79341 -0.00020 0.00051
 C67 C 0.76029 0.04230 -0.03980
 C68 C 0.76052 -0.04332 0.04069
 C69 C 0.76010 0.04245 0.04045
 C70 C 0.76078 -0.04343 -0.03958
 O71 O 0.23210 0.53183 0.47026
 O72 O 0.23201 0.46756 0.53001
 O73 O 0.23203 0.53181 0.53003
 O74 O 0.23209 0.46759 0.47023
 O75 O 0.28685 0.46770 0.47017
 O76 O 0.28679 0.53210 0.53015
 O77 O 0.28677 0.46767 0.53014
 O78 O 0.28686 0.53213 0.47019
 Cu79 Cu 0.22655 0.49968 0.50013
 Cu80 Cu 0.29236 0.49992 0.50016
 C81 C 0.25945 0.54271 0.46000
 C82 C 0.25932 0.45690 0.54030
 C83 C 0.25935 0.54268 0.54032
 C84 C 0.25943 0.45693 0.45997
 O85 O 0.27107 1.03334 0.03000
 O86 O 0.27086 0.96906 -0.02979
 O87 O 0.27093 1.03342 -0.02973
 O88 O 0.27095 0.96898 0.02993
 O89 O 0.21618 0.96879 0.03011
 O90 O 0.21618 1.03336 -0.02967
 O91 O 0.21610 0.96886 -0.02974
 O92 O 0.21632 1.03328 0.03019
 Cu93 Cu 0.27646 1.00122 0.00009
 Cu94 Cu 0.21066 1.00106 0.00023
 C95 C 0.24377 1.04411 0.04026
 C96 C 0.24348 0.95815 -0.03991
 C97 C 0.24359 1.04422 -0.03984
 C98 C 0.24360 0.95805 0.04014
 O99 O 0.77026 0.46806 0.46999
 O100 O 0.77038 0.53234 0.52964
 O101 O 0.77032 0.46802 0.52968
 O102 O 0.77030 0.53238 0.46995
 O103 O 0.71554 0.53228 0.46997
 O104 O 0.71556 0.46777 0.52983
 O105 O 0.71561 0.53224 0.52980
 O106 O 0.71549 0.46781 0.47001
 Cu107 Cu 0.77584 0.50022 0.49981
 Cu108 Cu 0.71000 0.50001 0.49991
 C109 C 0.74290 0.45713 0.45987
 C110 C 0.74306 0.54309 0.53985
 C111 C 0.74298 0.45708 0.53989
 C112 C 0.74295 0.54314 0.45982
 C113 C 0.25068 0.22663 0.22564
 C114 C 0.22605 0.25124 0.22559
 C115 C 0.22545 0.27513 0.24886
 C116 C 0.24941 0.27481 0.27205
 C117 C 0.27436 0.25053 0.27181
 C118 C 0.27481 0.22648 0.24868
 H119 H 0.29389 0.20766 0.24864
 H120 H 0.20634 0.29393 0.24892
 C121 C 0.74935 0.77540 0.22693
 C122 C 0.77406 0.75088 0.22704
 C123 C 0.77430 0.72677 0.25013
 C124 C 0.75022 0.72708 0.27324
 C125 C 0.72581 0.75191 0.27341
 C126 C 0.72541 0.77589 0.25019
 H127 H 0.70650 0.79488 0.25021
 H128 H 0.79321 0.70776 0.25010
 C129 C 0.77366 0.24946 0.22755
 C130 C 0.74856 0.22514 0.22734
 C131 C 0.72449 0.22481 0.25048
 C132 C 0.72513 0.24876 0.27368
 C133 C 0.74990 0.27343 0.27357
 C134 C 0.77413 0.27358 0.25059
 H135 H 0.79331 0.29245 0.25063
 H136 H 0.70530 0.20594 0.25043
 C137 C 0.22557 0.74864 0.22593
 C138 C 0.25018 0.77347 0.22613
 C139 C 0.27428 0.77374 0.24922
 C140 C 0.27385 0.74958 0.27227
 C141 C 0.24892 0.72508 0.27237
 C142 C 0.22499 0.72463 0.24913
 H143 H 0.20592 0.70564 0.24911
 H144 H 0.29333 0.79274 0.24925
 C145 C 0.72536 0.24811 0.72616
 C146 C 0.75006 0.27284 0.72617
 C147 C 0.77431 0.27303 0.74910
 C148 C 0.77392 0.24890 0.77216
 C149 C 0.74889 0.22450 0.77246
 C150 C 0.72480 0.22413 0.74938
 H151 H 0.70565 0.20523 0.74949
 H152 H 0.79345 0.29195 0.74901
 C153 C 0.27384 0.74965 0.72805
 C154 C 0.24890 0.72515 0.72787
 C155 C 0.22487 0.72471 0.75105
 C156 C 0.22539 0.74869 0.77425
 C157 C 0.25001 0.77351 0.77413
 C158 C 0.27420 0.77378 0.75110
 H159 H 0.29328 0.79276 0.75111
 H160 H 0.20578 0.70575 0.75102
 C161 C 0.24844 0.27491 0.72831
 C162 C 0.27348 0.25073 0.72859
 C163 C 0.27395 0.22670 0.75175
 C164 C 0.24976 0.22678 0.77478
 C165 C 0.22502 0.25128 0.77478
 C166 C 0.22440 0.27516 0.75148
 H167 H 0.20524 0.29390 0.75137
 H168 H 0.29310 0.20795 0.75185
 C169 C 0.75101 0.72649 0.72643
 C170 C 0.72646 0.75118 0.72638
 C171 C 0.72603 0.77506 0.74964
 C172 C 0.75006 0.77463 0.77279
 C173 C 0.77493 0.75027 0.77254
 C174 C 0.77521 0.72623 0.74942
 H175 H 0.79421 0.70733 0.74933
 H176 H 0.70701 0.79395 0.74975
 C177 C 0.24913 0.15686 0.15741
 C178 C 0.27871 0.14361 0.14517
 C179 C 0.27725 0.12089 0.12031
 C180 C 0.24623 0.11176 0.10767
 C181 C 0.21668 0.12540 0.11963
 C182 C 0.21809 0.14755 0.14492
 C183 C 0.18815 0.16013 0.15703
 C184 C 0.15776 0.15196 0.14388
 C185 C 0.15644 0.13082 0.11878
 C186 C 0.18546 0.11744 0.10682
 C187 C 0.30717 0.10785 0.10857
 C188 C 0.33763 0.11704 0.12098
 C189 C 0.33904 0.13930 0.14525
 C190 C 0.31000 0.15251 0.15730
 C191 C 0.24477 0.08772 0.08293
 C192 C 0.24404 0.06737 0.06270
 C193 C 0.25062 0.18092 0.18210
 C194 C 0.25123 0.20143 0.20218
 H195 H 0.18791 0.17671 0.17649
 H196 H 0.13515 0.16225 0.15314
 H197 H 0.13278 0.12464 0.10857
 H198 H 0.18317 0.10097 0.08736
 H199 H 0.30737 0.09053 0.08965
 H200 H 0.36027 0.10685 0.11170
 H201 H 0.36277 0.14635 0.15482
 H202 H 0.31235 0.16967 0.17623
 C203 C 0.74901 0.65683 0.65827
 C204 C 0.77850 0.64349 0.64596
 C205 C 0.77689 0.62087 0.62106
 C206 C 0.74579 0.61194 0.60848
 C207 C 0.71632 0.62565 0.62051
 C208 C 0.71789 0.64771 0.64584
 C209 C 0.68804 0.66039 0.65805
 C210 C 0.65758 0.65241 0.64495
 C211 C 0.65610 0.63136 0.61978
 C212 C 0.68504 0.61788 0.60774
 C213 C 0.80672 0.60773 0.60922
 C214 C 0.83725 0.61673 0.62160
 C215 C 0.83882 0.63890 0.64592
 C216 C 0.80986 0.65221 0.65806
 C217 C 0.74417 0.58798 0.58373
 C218 C 0.74334 0.56767 0.56351
 C219 C 0.75067 0.68082 0.68295
 C220 C 0.75141 0.70131 0.70301
 H221 H 0.68792 0.67692 0.67756
 H222 H 0.63504 0.66277 0.65428
 H223 H 0.63239 0.62532 0.60961
 H224 H 0.68263 0.60148 0.58824
 H225 H 0.80680 0.59046 0.59025
 H226 H 0.85982 0.60646 0.61224
 H227 H 0.86260 0.64582 0.65546
 H228 H 0.81233 0.66930 0.67704
 C229 C 0.75088 0.84354 0.15730
 C230 C 0.74240 0.87706 0.16228
 C231 C 0.74551 0.90038 0.13801
 C232 C 0.75732 0.89007 0.10896
 C233 C 0.76625 0.85662 0.10411
 C234 C 0.76250 0.83318 0.12819
 C235 C 0.77086 0.79972 0.12257
 C236 C 0.78356 0.78991 0.09429
 C237 C 0.78778 0.81296 0.07092
 C238 C 0.77907 0.84593 0.07558
 C239 C 0.73675 0.93376 0.14353
 C240 C 0.72530 0.94380 0.17220
 C241 C 0.72231 0.92099 0.19593
 C242 C 0.73072 0.88797 0.19116
 C243 C 0.75936 0.91373 0.08393
 C244 C 0.76029 0.93373 0.06341
 C245 C 0.74899 0.81996 0.18238
 C246 C 0.74846 0.80003 0.20296
 H247 H 0.76809 0.78089 0.14005
 H248 H 0.79031 0.76431 0.09057
 H249 H 0.79776 0.80524 0.04903
 H250 H 0.78268 0.86294 0.05667
 H251 H 0.73873 0.95246 0.12583
 H252 H 0.71872 0.96940 0.17602
 H253 H 0.71340 0.92892 0.21816
 H254 H 0.72790 0.87113 0.21031
 C255 C 0.24944 0.34272 0.65841
 C256 C 0.24060 0.37619 0.66320
 C257 C 0.24367 0.39942 0.63885
 C258 C 0.25580 0.38908 0.60992
 C259 C 0.26505 0.35569 0.60525
 C260 C 0.26133 0.33232 0.62941
 C261 C 0.27000 0.29891 0.62396
 C262 C 0.28298 0.28908 0.59580
 C263 C 0.28717 0.31206 0.57237
 C264 C 0.27815 0.34497 0.57684
 C265 C 0.23456 0.43274 0.64418
 C266 C 0.22280 0.44280 0.67273
 C267 C 0.21986 0.42008 0.69654
 C268 C 0.22862 0.38712 0.69196
 C269 C 0.25793 0.41267 0.58484
 C270 C 0.25898 0.43262 0.56429
 C271 C 0.24770 0.31927 0.68359
 C272 C 0.24733 0.29943 0.70425
 H273 H 0.26727 0.28014 0.64150
 H274 H 0.28997 0.26352 0.59222
 H275 H 0.29736 0.30432 0.55056
 H276 H 0.28174 0.36192 0.55789
 H277 H 0.23649 0.45137 0.62641
 H278 H 0.21594 0.46836 0.67640
 H279 H 0.21071 0.42802 0.71868
 H280 H 0.22582 0.37034 0.71116
 C281 C 0.84344 0.24696 0.15936
 C282 C 0.85212 0.21576 0.14699
 C283 C 0.87394 0.21398 0.12147
 C284 C 0.88789 0.24334 0.10917
 C285 C 0.87946 0.27452 0.12175
 C286 C 0.85706 0.27634 0.14684
 C287 C 0.84884 0.30777 0.15890
 C288 C 0.86241 0.33662 0.14656
 C289 C 0.88436 0.33486 0.12206
 C290 C 0.89288 0.30424 0.10970
 C291 C 0.88123 0.18262 0.10875
 C292 C 0.86751 0.15379 0.12103
 C293 C 0.84670 0.15547 0.14637
 C294 C 0.83919 0.18601 0.15942
 C295 C 0.91156 0.24153 0.08416
 C296 C 0.93166 0.24060 0.06373
 C297 C 0.81950 0.24884 0.18412
 C298 C 0.79898 0.24973 0.20419
 H299 H 0.83194 0.31040 0.17801
 H300 H 0.85587 0.36047 0.15608
 H301 H 0.89484 0.35734 0.11255
 H302 H 0.90999 0.30417 0.09060
 H303 H 0.89742 0.18006 0.08911
 H304 H 0.87317 0.13002 0.11089
 H305 H 0.83616 0.13301 0.15588
 H306 H 0.82283 0.18605 0.17907
 C307 C 0.34347 0.74765 0.65974
 C308 C 0.35220 0.71653 0.64722
 C309 C 0.37401 0.71492 0.62168
 C310 C 0.38790 0.74437 0.60952
 C311 C 0.37942 0.77547 0.62223
 C312 C 0.35702 0.77712 0.64733
 C313 C 0.34874 0.80848 0.65953
 C314 C 0.36226 0.83741 0.64731
 C315 C 0.38420 0.83582 0.62279
 C316 C 0.39277 0.80528 0.61030
 C317 C 0.38136 0.68364 0.60882
 C318 C 0.36771 0.65472 0.62099
 C319 C 0.34691 0.65623 0.64635
 C320 C 0.33935 0.68669 0.65954
 C321 C 0.41160 0.74272 0.58452
 C322 C 0.43172 0.74188 0.56410
 C323 C 0.31957 0.74935 0.68454
 C324 C 0.29910 0.75009 0.70464
 H325 H 0.33185 0.81097 0.67866
 H326 H 0.35568 0.86120 0.65693
 H327 H 0.39463 0.85837 0.61338
 H328 H 0.40988 0.80534 0.59119
 H329 H 0.39754 0.68121 0.58917
 H330 H 0.37341 0.63101 0.61075
 H331 H 0.33643 0.63371 0.65578
 H332 H 0.32301 0.68660 0.67920
 C333 C 0.15721 0.74975 0.15648
 C334 C 0.16731 0.76180 0.12739
 C335 C 0.14372 0.76523 0.10342
 C336 C 0.11040 0.75558 0.10836
 C337 C 0.10037 0.74331 0.13738
 C338 C 0.12382 0.74051 0.16153
 C339 C 0.11317 0.72838 0.19038
 C340 C 0.08028 0.71922 0.19523
 C341 C 0.05735 0.72191 0.17161
 C342 C 0.06713 0.73380 0.14298
 C343 C 0.15415 0.77844 0.07492
 C344 C 0.18700 0.78785 0.07018
 C345 C 0.21019 0.78395 0.09343
 C346 C 0.20064 0.77086 0.12167
 C347 C 0.08657 0.75745 0.08347
 C348 C 0.06645 0.75833 0.06306
 C349 C 0.18093 0.74811 0.18145
 C350 C 0.20092 0.74772 0.20197
 H351 H 0.13012 0.72577 0.20943
 H352 H 0.07256 0.70997 0.21743
 H353 H 0.03182 0.71478 0.17550
 H354 H 0.04835 0.73551 0.12537
 H355 H 0.13703 0.78182 0.05610
 H356 H 0.19451 0.79812 0.04830
 H357 H 0.23568 0.79123 0.08963
 H358 H 0.21956 0.76836 0.13906
 C359 C 0.65672 0.24966 0.65710
 C360 C 0.66684 0.26161 0.62800
 C361 C 0.64319 0.26535 0.60414
 C362 C 0.60980 0.25608 0.60923
 C363 C 0.59974 0.24391 0.63827
 C364 C 0.62326 0.24081 0.66231
 C365 C 0.61261 0.22877 0.69119
 C366 C 0.57964 0.22000 0.69618
 C367 C 0.55663 0.22299 0.67266
 C368 C 0.56641 0.23479 0.64400
 C369 C 0.65363 0.27849 0.57561
 C370 C 0.68656 0.28752 0.57073
 C371 C 0.70981 0.28330 0.59388
 C372 C 0.70025 0.27029 0.62214
 C373 C 0.58592 0.25818 0.58445
 C374 C 0.56575 0.25918 0.56411
 C375 C 0.68050 0.24780 0.68196
 C376 C 0.70058 0.24727 0.70237
 H377 H 0.62963 0.22593 0.71017
 H378 H 0.57192 0.21083 0.71840
 H379 H 0.53104 0.21616 0.67664
 H380 H 0.54757 0.23674 0.62646
 H381 H 0.63646 0.28210 0.55687
 H382 H 0.69408 0.29773 0.54884
 H383 H 0.73538 0.29029 0.58998
 H384 H 0.71923 0.26753 0.63944
 C385 C 0.75010 0.15654 0.84223
 C386 C 0.76216 0.16695 0.87118
 C387 C 0.76597 0.14357 0.89528
 C388 C 0.75662 0.11013 0.89061
 C389 C 0.74430 0.09977 0.86174
 C390 C 0.74116 0.12303 0.83745
 C391 C 0.72898 0.11208 0.80874
 C392 C 0.72010 0.07908 0.80417
 C393 C 0.72311 0.05634 0.82793
 C394 C 0.73507 0.06642 0.85642
 C395 C 0.77925 0.15431 0.92363
 C396 C 0.78835 0.18727 0.92810
 C397 C 0.78406 0.21027 0.90473
 C398 C 0.77091 0.20041 0.87663
 C399 C 0.75882 0.08652 0.91565
 C400 C 0.75991 0.06656 0.93619
 C401 C 0.74827 0.18002 0.81709
 C402 C 0.74784 0.19990 0.79647
 H403 H 0.72611 0.12888 0.78959
 H404 H 0.71080 0.07113 0.78208
 H405 H 0.71615 0.03076 0.82427
 H406 H 0.73704 0.04777 0.87415
 H407 H 0.78292 0.13734 0.94253
 H408 H 0.79868 0.19503 0.94986
 H409 H 0.79111 0.23586 0.90832
 H410 H 0.76811 0.21920 0.85914
 C411 C 0.24989 0.65702 0.34206
 C412 C 0.26168 0.66745 0.37110
 C413 C 0.26534 0.64406 0.39521
 C414 C 0.25615 0.61060 0.39046
 C415 C 0.24413 0.60022 0.36148
 C416 C 0.24111 0.62349 0.33718
 C417 C 0.22924 0.61252 0.30838
 C418 C 0.22053 0.57949 0.30371
 C419 C 0.22342 0.55674 0.32747
 C420 C 0.23507 0.56683 0.35607
 C421 C 0.27834 0.65482 0.42367
 C422 C 0.28731 0.68781 0.42823
 C423 C 0.28316 0.71081 0.40484
 C424 C 0.27029 0.70093 0.37664
 C425 C 0.25820 0.58697 0.41549
 C426 C 0.25918 0.56700 0.43603
 C427 C 0.24817 0.68053 0.31693
 C428 C 0.24781 0.70044 0.29634
 H429 H 0.22648 0.62932 0.28921
 H430 H 0.21147 0.57152 0.28154
 H431 H 0.21661 0.53112 0.32374
 H432 H 0.23697 0.54817 0.37380
 H433 H 0.28189 0.63785 0.44259
 H434 H 0.29742 0.69558 0.45007
 H435 H 0.29011 0.73642 0.40849
 H436 H 0.26758 0.71972 0.35914
 C437 C 0.24846 0.84359 0.84208
 C438 C 0.21746 0.85267 0.85467
 C439 C 0.21610 0.87497 0.87984
 C440 C 0.24568 0.88897 0.89159
 C441 C 0.27667 0.88008 0.87884
 C442 C 0.27806 0.85722 0.85410
 C443 C 0.30932 0.84857 0.84185
 C444 C 0.33839 0.86216 0.85369
 C445 C 0.33703 0.88454 0.87785
 C446 C 0.30661 0.89349 0.89037
 C447 C 0.18492 0.88270 0.89275
 C448 C 0.15587 0.86896 0.88100
 C449 C 0.15714 0.84767 0.85600
 C450 C 0.18749 0.83973 0.84276
 C451 C 0.24428 0.91310 0.91625
 C452 C 0.24362 0.93350 0.93643
 C453 C 0.24991 0.81940 0.81750
 C454 C 0.25051 0.79881 0.79751
 H455 H 0.31163 0.83132 0.82300
 H456 H 0.36208 0.85529 0.84404
 H457 H 0.35969 0.89503 0.88696
 H458 H 0.30685 0.91094 0.90919
 H459 H 0.18268 0.89927 0.91213
 H460 H 0.13225 0.87497 0.89128
 H461 H 0.13452 0.83711 0.84690
 H462 H 0.18721 0.82302 0.82339
 C463 C 0.74834 0.34328 0.34155
 C464 C 0.71726 0.35242 0.35393
 C465 C 0.71578 0.37451 0.37923
 C466 C 0.74533 0.38823 0.39130
 C467 C 0.77639 0.37929 0.37876
 C468 C 0.77790 0.35663 0.35389
 C469 C 0.80922 0.34790 0.34184
 C470 C 0.83825 0.36122 0.35400
 C471 C 0.83679 0.38342 0.37830
 C472 C 0.80629 0.39245 0.39063
 C473 C 0.68453 0.38230 0.39196
 C474 C 0.65552 0.36880 0.37989
 C475 C 0.65690 0.34772 0.35475
 C476 C 0.68733 0.33973 0.34169
 C477 C 0.74382 0.41222 0.41602
 C478 C 0.74308 0.43254 0.43623
 C479 C 0.74988 0.31923 0.31692
 C480 C 0.75049 0.29869 0.29691
 H481 H 0.81161 0.33078 0.32289
 H482 H 0.86200 0.35429 0.34450
 H483 H 0.85941 0.39371 0.38767
 H484 H 0.80645 0.40974 0.40957
 H485 H 0.68219 0.39871 0.41144
 H486 H 0.63183 0.37484 0.39003
 H487 H 0.63431 0.33735 0.34540
 H488 H 0.68714 0.32318 0.32220
 C489 C 0.15627 0.24953 0.84392
 C490 C 0.12284 0.25820 0.83864
 C491 C 0.09926 0.25519 0.86270
 C492 C 0.10920 0.24330 0.89184
 C493 C 0.14255 0.23419 0.89698
 C494 C 0.16627 0.23782 0.87310
 C495 C 0.19963 0.22931 0.87903
 C496 C 0.20908 0.21656 0.90739
 C497 C 0.18577 0.21245 0.93055
 C498 C 0.15289 0.22132 0.92561
 C499 C 0.06599 0.26414 0.85690
 C500 C 0.05630 0.27568 0.82815
 C501 C 0.07937 0.27857 0.80463
 C502 C 0.11230 0.26997 0.80968
 C503 C 0.08526 0.24133 0.91664
 C504 C 0.06505 0.24042 0.93699
 C505 C 0.18013 0.25139 0.81906
 C506 C 0.20024 0.25197 0.79863
 H507 H 0.21865 0.23199 0.86171
 H508 H 0.23461 0.20969 0.91134
 H509 H 0.19322 0.20245 0.95252
 H510 H 0.13567 0.21781 0.94436
 H511 H 0.04710 0.26225 0.87444
 H512 H 0.03075 0.28238 0.82412
 H513 H 0.07173 0.28754 0.78234
 H514 H 0.12935 0.27272 0.79068
 C515 C 0.65744 0.75081 0.34286
 C516 C 0.62409 0.75988 0.33778
 C517 C 0.60059 0.75699 0.36192
 C518 C 0.61055 0.74479 0.39094
 C519 C 0.64382 0.73532 0.39591
 C520 C 0.66746 0.73885 0.37195
 C521 C 0.70076 0.72996 0.37769
 C522 C 0.71022 0.71695 0.40595
 C523 C 0.68698 0.71295 0.42919
 C524 C 0.65416 0.72218 0.42443
 C525 C 0.56739 0.76634 0.35631
 C526 C 0.55769 0.77815 0.32766
 C527 C 0.58068 0.78093 0.30405
 C528 C 0.61353 0.77194 0.30892
 C529 C 0.58668 0.74282 0.41581
 C530 C 0.56652 0.74187 0.43620
 C531 C 0.68117 0.75247 0.31789
 C532 C 0.70117 0.75287 0.29737
 H533 H 0.71972 0.73254 0.36031
 H534 H 0.73569 0.70980 0.40976
 H535 H 0.69442 0.70274 0.45108
 H536 H 0.63700 0.71873 0.44324
 H537 H 0.54857 0.76455 0.37391
 H538 H 0.53220 0.78516 0.32377
 H539 H 0.57302 0.79013 0.28184
 H540 H 0.63052 0.77463 0.28987
 C541 C 0.84470 0.75231 0.84076
 C542 C 0.85354 0.78340 0.85341
 C543 C 0.87544 0.78498 0.87888
 C544 C 0.88931 0.75554 0.89084
 C545 C 0.88072 0.72447 0.87799
 C546 C 0.85823 0.72285 0.85296
 C547 C 0.84985 0.69152 0.84062
 C548 C 0.86335 0.66259 0.85263
 C549 C 0.88538 0.66416 0.87707
 C550 C 0.89405 0.69467 0.88969
 C551 C 0.88291 0.81623 0.89187
 C552 C 0.86929 0.84514 0.87991
 C553 C 0.84840 0.84367 0.85462
 C554 C 0.84072 0.81325 0.84131
 C555 C 0.91307 0.75717 0.91581
 C556 C 0.93322 0.75799 0.93620
 C557 C 0.82072 0.75062 0.81600
 C558 C 0.80022 0.74987 0.79593
 H559 H 0.83289 0.68904 0.82155
 H560 H 0.85669 0.63883 0.84291
 H561 H 0.89580 0.64161 0.88632
 H562 H 0.91123 0.69459 0.90873
 H563 H 0.89916 0.81863 0.91147
 H564 H 0.87508 0.86882 0.89024
 H565 H 0.83794 0.86619 0.84535
 H566 H 0.82432 0.81337 0.82170
 C567 C 0.34360 0.25288 0.34031
 C568 C 0.35226 0.28406 0.35289
 C569 C 0.37385 0.28579 0.37856
 C570 C 0.38758 0.25642 0.39079
 C571 C 0.37916 0.22527 0.37803
 C572 C 0.35699 0.22350 0.35279
 C573 C 0.34876 0.19209 0.34052
 C574 C 0.36211 0.16323 0.35282
 C575 C 0.38384 0.16495 0.37748
 C576 C 0.39236 0.19554 0.39003
 C577 C 0.38114 0.31712 0.39148
 C578 C 0.36765 0.34595 0.37924
 C579 C 0.34707 0.34433 0.35375
 C580 C 0.33957 0.31383 0.34050
 C581 C 0.41109 0.25821 0.41590
 C582 C 0.43109 0.25912 0.43638
 C583 C 0.31988 0.25104 0.31542
 C584 C 0.29952 0.25019 0.29525
 H585 H 0.33203 0.18950 0.32128
 H586 H 0.35558 0.13941 0.34315
 H587 H 0.39415 0.14246 0.38695
 H588 H 0.40929 0.19558 0.40925
 H589 H 0.39715 0.31964 0.41124
 H590 H 0.37330 0.36969 0.38952
 H591 H 0.33670 0.36679 0.34426
 H592 H 0.32341 0.31382 0.32073
 C593 C 0.75136 0.84243 0.84254
 C594 C 0.74261 0.87590 0.83768
 C595 C 0.74568 0.89914 0.86198
 C596 C 0.75772 0.88878 0.89093
 C597 C 0.76691 0.85538 0.89566
 C598 C 0.76320 0.83202 0.87155
 C599 C 0.77180 0.79859 0.87705
 C600 C 0.78472 0.78875 0.90523
 C601 C 0.78891 0.81173 0.92863
 C602 C 0.77995 0.84466 0.92410
 C603 C 0.73665 0.93248 0.85659
 C604 C 0.72497 0.94255 0.82801
 C605 C 0.72202 0.91982 0.80425
 C606 C 0.73070 0.88684 0.80889
 C607 C 0.75974 0.91234 0.91597
 C608 C 0.76065 0.93229 0.93649
 C609 C 0.74955 0.81897 0.81742
 C610 C 0.74909 0.79914 0.79681
 H611 H 0.76907 0.77982 0.85954
 H612 H 0.79166 0.76319 0.90886
 H613 H 0.79905 0.80399 0.95045
 H614 H 0.78353 0.86162 0.94302
 H615 H 0.73858 0.95112 0.87432
 H616 H 0.71818 0.96812 0.82430
 H617 H 0.71293 0.92777 0.78209
 H618 H 0.72789 0.87006 0.78972
 C619 C 0.25025 0.34268 0.34191
 C620 C 0.24134 0.37612 0.33706
 C621 C 0.24423 0.39937 0.36139
 C622 C 0.25625 0.38908 0.39037
 C623 C 0.26558 0.35571 0.39510
 C624 C 0.26204 0.33233 0.37096
 C625 C 0.27078 0.29895 0.37647
 C626 C 0.28366 0.28916 0.40468
 C627 C 0.28768 0.31215 0.42810
 C628 C 0.27858 0.34504 0.42356
 C629 C 0.23503 0.43266 0.35599
 C630 C 0.22337 0.44268 0.32739
 C631 C 0.22061 0.41995 0.30361
 C632 C 0.22945 0.38702 0.30825
 C633 C 0.25822 0.41270 0.41543
 C634 C 0.25916 0.43266 0.43598
 C635 C 0.24862 0.31919 0.31674
 C636 C 0.24830 0.29934 0.29610
 H637 H 0.26819 0.28017 0.35895
 H638 H 0.29071 0.26362 0.40832
 H639 H 0.29779 0.30445 0.44994
 H640 H 0.28204 0.36200 0.44250
 H641 H 0.23682 0.45130 0.37374
 H642 H 0.21645 0.46822 0.32367
 H643 H 0.21154 0.42787 0.28143
 H644 H 0.22679 0.37023 0.28906
 C645 C 0.24847 0.15708 0.84308
 C646 C 0.27811 0.14399 0.85530
 C647 C 0.27676 0.12128 0.88018
 C648 C 0.24577 0.11200 0.89285
 C649 C 0.21615 0.12548 0.88091
 C650 C 0.21747 0.14764 0.85560
 C651 C 0.18746 0.16007 0.84350
 C652 C 0.15711 0.15176 0.85668
 C653 C 0.15588 0.13061 0.88181
 C654 C 0.18497 0.11737 0.89376
 C655 C 0.30674 0.10839 0.89192
 C656 C 0.33716 0.11772 0.87947
 C657 C 0.33847 0.13998 0.85517
 C658 C 0.30936 0.15304 0.84313
 C659 C 0.24442 0.08793 0.91757
 C660 C 0.24377 0.06754 0.93776
 C661 C 0.24985 0.18113 0.81836
 C662 C 0.25038 0.20162 0.79826
 H663 H 0.18715 0.17665 0.82401
 H664 H 0.13446 0.16193 0.84742
 H665 H 0.13225 0.12432 0.89205
 H666 H 0.18275 0.10090 0.91324
 H667 H 0.30701 0.09106 0.91086
 H668 H 0.35984 0.10764 0.88874
 H669 H 0.36216 0.14715 0.84557
 H670 H 0.31163 0.17021 0.82417
 C671 C 0.74838 0.65723 0.34140
 C672 C 0.77792 0.64376 0.35347
 C673 C 0.77643 0.62104 0.37834
 C674 C 0.74541 0.61214 0.39115
 C675 C 0.71589 0.62599 0.37935
 C676 C 0.71734 0.64815 0.35405
 C677 C 0.68742 0.66094 0.34210
 C678 C 0.65705 0.65299 0.35541
 C679 C 0.65569 0.63184 0.38054
 C680 C 0.68468 0.61824 0.39234
 C681 C 0.80632 0.60778 0.38993
 C682 C 0.83678 0.61675 0.37733
 C683 C 0.83823 0.63900 0.35304
 C684 C 0.80921 0.65244 0.34115
 C685 C 0.74391 0.58811 0.41590
 C686 C 0.74317 0.56776 0.43613
 C687 C 0.74993 0.68131 0.31672
 C688 C 0.75062 0.70184 0.29666
 H689 H 0.68721 0.67755 0.32262
 H690 H 0.63447 0.66345 0.34627
 H691 H 0.63205 0.62583 0.39087
 H692 H 0.68237 0.60178 0.41183
 H693 H 0.80649 0.59044 0.40886
 H694 H 0.85939 0.60638 0.38650
 H695 H 0.86195 0.64589 0.34334
 H696 H 0.81159 0.66959 0.32219
 C697 C 0.15671 0.74971 0.84343
 C698 C 0.16666 0.76168 0.87256
 C699 C 0.14294 0.76509 0.89643
 C700 C 0.10965 0.75549 0.89134
 C701 C 0.09976 0.74329 0.86229
 C702 C 0.12335 0.74051 0.83823
 C703 C 0.11286 0.72844 0.80934
 C704 C 0.07999 0.71933 0.80435
 C705 C 0.05692 0.72200 0.82788
 C706 C 0.06655 0.73382 0.85656
 C707 C 0.15322 0.77823 0.92498
 C708 C 0.18604 0.78759 0.92986
 C709 C 0.20936 0.78371 0.90670
 C710 C 0.19997 0.77070 0.87841
 C711 C 0.08568 0.75734 0.91612
 C712 C 0.06544 0.75819 0.93643
 C713 C 0.18055 0.74812 0.81856
 C714 C 0.20065 0.74775 0.79812
 H715 H 0.12992 0.72585 0.79035
 H716 H 0.07239 0.71014 0.78212
 H717 H 0.03141 0.71490 0.82389
 H718 H 0.04766 0.73552 0.87409
 H719 H 0.13599 0.78158 0.94373
 H720 H 0.19344 0.79779 0.95178
 H721 H 0.23485 0.79096 0.91061
 H722 H 0.21899 0.76821 0.86110
 C723 C 0.65659 0.25020 0.34298
 C724 C 0.66671 0.26212 0.37207
 C725 C 0.64310 0.26571 0.39601
 C726 C 0.60972 0.25633 0.39103
 C727 C 0.59965 0.24420 0.36200
 C728 C 0.62314 0.24125 0.33788
 C729 C 0.61247 0.22925 0.30902
 C730 C 0.57952 0.22038 0.30413
 C731 C 0.55655 0.22321 0.32772
 C732 C 0.56635 0.23497 0.35637
 C733 C 0.65356 0.27881 0.42452
 C734 C 0.68646 0.28795 0.42930
 C735 C 0.70968 0.28388 0.40608
 C736 C 0.70010 0.27091 0.37783
 C737 C 0.58587 0.25831 0.41589
 C738 C 0.56572 0.25924 0.43629
 C739 C 0.68034 0.24843 0.31805
 C740 C 0.70039 0.24794 0.29757
 H741 H 0.62944 0.22653 0.28998
 H742 H 0.57178 0.21123 0.28192
 H743 H 0.53097 0.21629 0.32381
 H744 H 0.54754 0.23680 0.37396
 H745 H 0.63641 0.28230 0.44332
 H746 H 0.69400 0.29813 0.45119
 H747 H 0.73523 0.29096 0.40991
 H748 H 0.71905 0.26827 0.36047
 C749 C 0.84361 0.24665 0.84027
 C750 C 0.85713 0.27607 0.85273
 C751 C 0.87946 0.27433 0.87784
 C752 C 0.88789 0.24317 0.89050
 C753 C 0.87404 0.21377 0.87827
 C754 C 0.85229 0.21547 0.85272
 C755 C 0.83946 0.18568 0.84034
 C756 C 0.84698 0.15517 0.85348
 C757 C 0.86771 0.15357 0.87885
 C758 C 0.88134 0.18244 0.89108
 C759 C 0.89280 0.30409 0.88983
 C760 C 0.88427 0.33467 0.87739
 C761 C 0.86238 0.33636 0.85286
 C762 C 0.84889 0.30747 0.84057
 C763 C 0.91152 0.24143 0.91550
 C764 C 0.93161 0.24054 0.93590
 C765 C 0.81971 0.24845 0.81552
 C766 C 0.79922 0.24927 0.79547
 H767 H 0.82316 0.18567 0.82066
 H768 H 0.83650 0.13269 0.84400
 H769 H 0.87338 0.12982 0.88905
 H770 H 0.89747 0.17993 0.91075
 H771 H 0.90986 0.30407 0.90896
 H772 H 0.89469 0.35719 0.88686
 H773 H 0.85584 0.36018 0.84327
 H774 H 0.83204 0.31004 0.82143
 C775 C 0.34334 0.74765 0.34071
 C776 C 0.35687 0.77713 0.35306
 C777 C 0.37928 0.77552 0.37813
 C778 C 0.38782 0.74444 0.39089
 C779 C 0.37394 0.71498 0.37879
 C780 C 0.35211 0.71654 0.35329
 C781 C 0.33928 0.68668 0.34105
 C782 C 0.34688 0.65624 0.35428
 C783 C 0.36770 0.65477 0.37961
 C784 C 0.38133 0.68371 0.39169
 C785 C 0.39261 0.80536 0.38998
 C786 C 0.38400 0.83588 0.37745
 C787 C 0.36203 0.83743 0.35297
 C788 C 0.34855 0.80847 0.34082
 C789 C 0.41156 0.74283 0.41587
 C790 C 0.43170 0.74200 0.43626
 C791 C 0.31946 0.74930 0.31589
 C792 C 0.29904 0.75002 0.29575
 H793 H 0.32293 0.68656 0.32141
 H794 H 0.33641 0.63370 0.34491
 H795 H 0.37344 0.63108 0.38988
 H796 H 0.39753 0.68131 0.41132
 H797 H 0.40973 0.80544 0.40906
 H798 H 0.39441 0.85844 0.38681
 H799 H 0.35542 0.86120 0.34332
 H800 H 0.33163 0.81094 0.32172
 C801 C 0.24873 0.84356 0.15820
 C802 C 0.21772 0.85259 0.14563
 C803 C 0.21635 0.87485 0.12041
 C804 C 0.24593 0.88884 0.10861
 C805 C 0.27692 0.87999 0.12133
 C806 C 0.27832 0.85717 0.14612
 C807 C 0.30958 0.84855 0.15835
 C808 C 0.33865 0.86213 0.14645
 C809 C 0.33729 0.88448 0.12224
 C810 C 0.30686 0.89340 0.10973
 C811 C 0.18517 0.88254 0.10750
 C812 C 0.15613 0.86880 0.11932
 C813 C 0.15740 0.84756 0.14437
 C814 C 0.18775 0.83965 0.15760
 C815 C 0.24451 0.91296 0.08394
 C816 C 0.24381 0.93337 0.06377
 C817 C 0.25017 0.81939 0.18279
 C818 C 0.25075 0.79878 0.20278
 H819 H 0.31190 0.83133 0.17724
 H820 H 0.36235 0.85528 0.15609
 H821 H 0.35994 0.89496 0.11308
 H822 H 0.30709 0.91082 0.09087
 H823 H 0.18292 0.89908 0.08808
 H824 H 0.13250 0.87478 0.10904
 H825 H 0.13478 0.83700 0.15352
 H826 H 0.18747 0.82297 0.17702
 C827 C 0.74842 0.34282 0.65813
 C828 C 0.77798 0.35624 0.64581
 C829 C 0.77649 0.37900 0.62098
 C830 C 0.74544 0.38798 0.60846
 C831 C 0.71589 0.37418 0.62051
 C832 C 0.71735 0.35199 0.64577
 C833 C 0.68742 0.33923 0.65798
 C834 C 0.65700 0.34726 0.64495
 C835 C 0.65563 0.36845 0.61985
 C836 C 0.68465 0.38201 0.60780
 C837 C 0.80640 0.39221 0.60913
 C838 C 0.83689 0.38316 0.62144
 C839 C 0.83833 0.36086 0.64569
 C840 C 0.80930 0.34747 0.65783
 C841 C 0.74395 0.41205 0.58375
 C842 C 0.74321 0.43243 0.56355
 C843 C 0.74994 0.31869 0.68276
 C844 C 0.75058 0.29812 0.70278
 H845 H 0.68721 0.32261 0.67744
 H846 H 0.63440 0.33684 0.65428
 H847 H 0.63195 0.37452 0.60974
 H848 H 0.68232 0.39850 0.58836
 H849 H 0.80657 0.40958 0.59023
 H850 H 0.85952 0.39349 0.61208
 H851 H 0.86208 0.35391 0.65517
 H852 H 0.81168 0.33029 0.67674
 C853 C 0.74951 0.15713 0.15777
 C854 C 0.76177 0.16741 0.12883
 C855 C 0.76561 0.14393 0.10485
 C856 C 0.75609 0.11056 0.10963
 C857 C 0.74351 0.10035 0.13848
 C858 C 0.74034 0.12370 0.16266
 C859 C 0.72791 0.11292 0.19135
 C860 C 0.71879 0.07999 0.19601
 C861 C 0.72181 0.05716 0.17235
 C862 C 0.73403 0.06707 0.14387
 C863 C 0.77910 0.15452 0.07650
 C864 C 0.78835 0.18743 0.07192
 C865 C 0.78402 0.21053 0.09517
 C866 C 0.77068 0.20082 0.12327
 C867 C 0.75840 0.08685 0.08473
 C868 C 0.75959 0.06680 0.06431
 C869 C 0.74776 0.18066 0.18282
 C870 C 0.74741 0.20056 0.20339
 H871 H 0.72501 0.12979 0.21043
 H872 H 0.70928 0.07216 0.21808
 H873 H 0.71465 0.03163 0.17607
 H874 H 0.73601 0.04835 0.12623
 H875 H 0.78280 0.13747 0.05768
 H876 H 0.79883 0.19507 0.05017
 H877 H 0.79118 0.23608 0.09150
 H878 H 0.76784 0.21968 0.14067
 C879 C 0.24993 0.65708 0.65819
 C880 C 0.26183 0.66744 0.62914
 C881 C 0.26542 0.64403 0.60505
 C882 C 0.25605 0.61061 0.60983
 C883 C 0.24393 0.60030 0.63882
 C884 C 0.24099 0.62358 0.66310
 C885 C 0.22901 0.61266 0.69191
 C886 C 0.22013 0.57968 0.69661
 C887 C 0.22295 0.55691 0.67287
 C888 C 0.23470 0.56695 0.64427
 C889 C 0.27851 0.65473 0.57659
 C890 C 0.28766 0.68767 0.57200
 C891 C 0.28359 0.71069 0.59536
 C892 C 0.27062 0.70087 0.62357
 C893 C 0.25806 0.58695 0.58481
 C894 C 0.25904 0.56697 0.56429
 C895 C 0.24823 0.68062 0.68330
 C896 C 0.24785 0.70053 0.70389
 H897 H 0.22630 0.62948 0.71106
 H898 H 0.21098 0.57175 0.71879
 H899 H 0.21600 0.53133 0.67664
 H900 H 0.23652 0.54829 0.62656
 H901 H 0.28201 0.63775 0.55768
 H902 H 0.29784 0.69540 0.55015
 H903 H 0.29067 0.73627 0.59169
 H904 H 0.26799 0.71968 0.64105
 C905 C 0.84344 0.75269 0.15849
 C906 C 0.85663 0.72319 0.14609
 C907 C 0.87899 0.72476 0.12095
 C908 C 0.88779 0.75584 0.10818
 C909 C 0.87423 0.78532 0.12032
 C910 C 0.85245 0.78379 0.14590
 C911 C 0.83995 0.81367 0.15819
 C912 C 0.84781 0.84410 0.14494
 C913 C 0.86857 0.84554 0.11954
 C914 C 0.88188 0.81659 0.10740
 C915 C 0.89200 0.69492 0.10904
 C916 C 0.88313 0.66440 0.12159
 C917 C 0.86122 0.66288 0.14615
 C918 C 0.84804 0.69185 0.15836
 C919 C 0.91150 0.75742 0.08318
 C920 C 0.93165 0.75822 0.06278
 C921 C 0.81960 0.75107 0.18336
 C922 C 0.79921 0.75038 0.20354
 H923 H 0.82365 0.81381 0.17789
 H924 H 0.83758 0.86666 0.15435
 H925 H 0.87450 0.86923 0.10925
 H926 H 0.89805 0.81896 0.08771
 H927 H 0.90907 0.69481 0.08990
 H928 H 0.89330 0.64182 0.11219
 H929 H 0.85440 0.63912 0.15582
 H930 H 0.83116 0.68941 0.17752
 C931 C 0.34300 0.25309 0.66016
 C932 C 0.35168 0.28423 0.64746
 C933 C 0.37344 0.28589 0.62186
 C934 C 0.38731 0.25651 0.60982
 C935 C 0.37886 0.22539 0.62271
 C936 C 0.35653 0.22368 0.64788
 C937 C 0.34830 0.19231 0.66027
 C938 C 0.36179 0.16343 0.64817
 C939 C 0.38368 0.16509 0.62359
 C940 C 0.39220 0.19564 0.61092
 C941 C 0.38074 0.31718 0.60882
 C942 C 0.36712 0.34604 0.62087
 C943 C 0.34638 0.34448 0.64628
 C944 C 0.33886 0.31402 0.65964
 C945 C 0.41094 0.25823 0.58475
 C946 C 0.43102 0.25911 0.56430
 C947 C 0.31915 0.25131 0.68501
 C948 C 0.29872 0.25045 0.70515
 H949 H 0.33145 0.18977 0.67944
 H950 H 0.35525 0.13964 0.65793
 H951 H 0.39410 0.14258 0.61428
 H952 H 0.40926 0.19563 0.59178
 H953 H 0.39687 0.31965 0.58912
 H954 H 0.37279 0.36975 0.61049
 H955 H 0.33591 0.36696 0.65561
 H956 H 0.32256 0.31407 0.67934
 C957 C 0.15751 0.24970 0.15644
 C958 C 0.12410 0.25847 0.16168
 C959 C 0.10055 0.25544 0.13764
 C960 C 0.11053 0.24342 0.10856
 C961 C 0.14387 0.23423 0.10344
 C962 C 0.16754 0.23790 0.12730
 C963 C 0.20090 0.22931 0.12142
 C964 C 0.21038 0.21646 0.09311
 C965 C 0.18710 0.21232 0.06996
 C966 C 0.15422 0.22126 0.07487
 C967 C 0.06729 0.26448 0.14339
 C968 C 0.05758 0.27612 0.17209
 C969 C 0.08062 0.27904 0.19561
 C970 C 0.11354 0.27036 0.19060
 C971 C 0.08663 0.24138 0.08379
 C972 C 0.06644 0.24041 0.06347
 C973 C 0.18129 0.25151 0.18130
 C974 C 0.20135 0.25203 0.20173
 H975 H 0.21990 0.23202 0.13873
 H976 H 0.23590 0.20953 0.08919
 H977 H 0.19456 0.20223 0.04803
 H978 H 0.13703 0.21772 0.05612
 H979 H 0.04843 0.26257 0.12586
 H980 H 0.03204 0.28290 0.17610
 H981 H 0.07296 0.28811 0.21786
 H982 H 0.13057 0.27314 0.20958
 C983 C 0.65779 0.75012 0.65718
 C984 C 0.62446 0.75922 0.66239
 C985 C 0.60089 0.75647 0.63832
 C986 C 0.61074 0.74440 0.60922
 C987 C 0.64399 0.73488 0.60413
 C988 C 0.66770 0.73827 0.62802
 C989 C 0.70096 0.72935 0.62213
 C990 C 0.71032 0.71644 0.59381
 C991 C 0.68701 0.71258 0.57064
 C992 C 0.65423 0.72185 0.57554
 C993 C 0.56772 0.76585 0.64408
 C994 C 0.55812 0.77755 0.67279
 C995 C 0.58118 0.78019 0.69633
 C996 C 0.61400 0.77117 0.69132
 C997 C 0.58678 0.74257 0.58442
 C998 C 0.56658 0.74171 0.56408
 C999 C 0.68163 0.75171 0.68206
 C1000 C 0.70172 0.75209 0.70251
 H1001 H 0.71998 0.73182 0.63945
 H1002 H 0.73577 0.70926 0.58989
 H1003 H 0.69438 0.70246 0.54870
 H1004 H 0.63701 0.71852 0.55678
 H1005 H 0.54886 0.76417 0.62654
 H1006 H 0.53265 0.78458 0.67680
 H1007 H 0.57360 0.78929 0.71859
 H1008 H 0.63105 0.77373 0.71032
   
