data_POSCAR
  _audit_creation_date              2014-09-24
  _audit_creation_method            'ToBaCCo'
  _symmetry_space_group_name_H-M    'P1'
  _symmetry_Int_Tables_number       1
  _symmetry_cell_setting            triclinic
  loop_
  _symmetry_equiv_pos_as_xyz
 x,y,z
_cell_length_a 52.4831
_cell_length_b 51.8363
_cell_length_c 52.5596
_cell_angle_alpha 89.970100
_cell_angle_beta 89.987000
_cell_angle_gamma 89.965000
loop_
  _atom_site_label
  _atom_site_type_symbol
  _atom_site_fract_x
  _atom_site_fract_y
  _atom_site_fract_z
C1 C 0.60578 0.62472 0.64497
 C2 C 0.58683 0.64382 0.64469
 C3 C 0.58673 0.66276 0.62567
 C4 C 0.60557 0.66278 0.60678
 C5 C 0.62467 0.64384 0.60677
 C6 C 0.62481 0.62470 0.62594
 C7 C 0.60605 0.60565 0.66392
 C8 C 0.62508 0.58665 0.66401
 C9 C 0.64397 0.58660 0.64514
 C10 C 0.64397 0.60554 0.62606
 C11 C 0.66279 0.60566 0.60710
 C12 C 0.66260 0.62465 0.58813
 C13 C 0.64363 0.64367 0.58795
 H14 H 0.57215 0.64398 0.65922
 H15 H 0.60532 0.67753 0.59214
 H16 H 0.59148 0.60559 0.67857
 H17 H 0.65865 0.57184 0.64532
 H18 H 0.67756 0.59102 0.60705
 H19 H 0.64366 0.65829 0.57318
 C20 C 0.89468 0.37478 0.14424
 C21 C 0.91364 0.35569 0.14393
 C22 C 0.91373 0.33675 0.12490
 C23 C 0.89485 0.33677 0.10603
 C24 C 0.87575 0.35571 0.10606
 C25 C 0.87563 0.37482 0.12523
 C26 C 0.89441 0.39382 0.16319
 C27 C 0.87538 0.41279 0.16331
 C28 C 0.85648 0.41288 0.14450
 C29 C 0.85646 0.39398 0.12540
 C30 C 0.83762 0.39388 0.10647
 C31 C 0.83779 0.37492 0.08749
 C32 C 0.85677 0.35591 0.08728
 H33 H 0.92831 0.35558 0.15849
 H34 H 0.89503 0.32206 0.09135
 H35 H 0.90895 0.39393 0.17785
 H36 H 0.84183 0.42765 0.14476
 H37 H 0.82283 0.40851 0.10646
 H38 H 0.85672 0.34131 0.07250
 C39 C 0.39410 0.12467 -0.14480
 C40 C 0.41309 0.14371 -0.14450
 C41 C 0.41321 0.16262 -0.12547
 C42 C 0.39437 0.16266 -0.10659
 C43 C 0.37524 0.14377 -0.10659
 C44 C 0.37507 0.12467 -0.12577
 C45 C 0.39380 0.10565 -0.16377
 C46 C 0.37473 0.08671 -0.16388
 C47 C 0.35584 0.08667 -0.14502
 C48 C 0.35587 0.10556 -0.12592
 C49 C 0.33706 0.10570 -0.10695
 C50 C 0.33727 0.12466 -0.08796
 C51 C 0.35628 0.14362 -0.08777
 H52 H 0.42777 0.14385 -0.15903
 H53 H 0.39464 0.17739 -0.09194
 H54 H 0.40837 0.10557 -0.17842
 H55 H 0.34114 0.07196 -0.14522
 H56 H 0.32225 0.09111 -0.10692
 H57 H 0.35627 0.15821 -0.07299
 C58 C 0.10504 0.87466 0.35599
 C59 C 0.08612 0.85556 0.35625
 C60 C 0.08601 0.83661 0.37529
 C61 C 0.10483 0.83664 0.39422
 C62 C 0.12390 0.85560 0.39423
 C63 C 0.12404 0.87471 0.37504
 C64 C 0.10533 0.89371 0.33702
 C65 C 0.12432 0.91269 0.33694
 C66 C 0.14317 0.91279 0.35581
 C67 C 0.14317 0.89389 0.37492
 C68 C 0.16195 0.89379 0.39390
 C69 C 0.16177 0.87482 0.41289
 C70 C 0.14283 0.85580 0.41306
 H71 H 0.07149 0.85544 0.34165
 H72 H 0.10464 0.82192 0.40891
 H73 H 0.09083 0.89380 0.32232
 H74 H 0.15779 0.92757 0.35557
 H75 H 0.17671 0.90844 0.39394
 H76 H 0.14286 0.84120 0.42786
 N77 N 0.09522 0.16609 0.11321
 N78 N 0.08524 0.15558 0.13371
 C79 C 0.06458 0.16929 0.14073
 C80 C 0.06162 0.18929 0.12370
 C81 C 0.08127 0.18681 0.10649
 H82 H 0.05257 0.16511 0.15694
 H83 H 0.08510 0.19914 0.09032
 Cu84 Cu 0.10030 0.12503 0.14912
 Cu85 Cu 0.12550 0.15215 0.09676
 Cu86 Cu 0.15263 0.09768 0.12396
 N87 N 0.11567 0.09449 0.16422
 N88 N 0.13616 0.08389 0.15426
 C89 C 0.14285 0.06318 0.16823
 C90 C 0.12562 0.06081 0.18788
 C91 C 0.10863 0.08086 0.18490
 H92 H 0.15899 0.05079 0.16442
 H93 H 0.09242 0.08512 0.19690
 N94 N 0.16648 0.11448 0.09329
 N95 N 0.15615 0.13523 0.08293
 C96 C 0.16989 0.14205 0.06234
 C97 C 0.18966 0.12477 0.05977
 C98 C 0.18706 0.10756 0.07955
 H99 H 0.16588 0.15832 0.05010
 H100 H 0.19928 0.09126 0.08358
 H101 H 0.12038 0.11448 0.10860
 H102 H 0.14088 0.13541 0.12898
 N103 N 0.40444 0.83467 0.61345
 N104 N 0.41471 0.84554 0.63361
 C105 C 0.43541 0.83188 0.64064
 C106 C 0.43808 0.81155 0.62396
 C107 C 0.41824 0.81378 0.60696
 H108 H 0.44761 0.83630 0.65663
 H109 H 0.41416 0.80115 0.59109
 Cu110 Cu 0.40000 0.87640 0.64871
 Cu111 Cu 0.37398 0.84837 0.59718
 Cu112 Cu 0.34674 0.90275 0.62431
 N113 N 0.38415 0.90657 0.66404
 N114 N 0.36332 0.91678 0.65440
 C115 C 0.35640 0.93729 0.66853
 C116 C 0.37383 0.93993 0.68794
 C117 C 0.39118 0.92026 0.68467
 H118 H 0.33996 0.94935 0.66497
 H119 H 0.40762 0.91627 0.69644
 N120 N 0.33277 0.88577 0.59383
 N121 N 0.34316 0.86505 0.58349
 C122 C 0.32935 0.85811 0.56299
 C123 C 0.30948 0.87527 0.56046
 C124 C 0.31208 0.89255 0.58018
 H125 H 0.33340 0.84184 0.55077
 H126 H 0.29982 0.90881 0.58420
 H127 H 0.37889 0.88623 0.60849
 H128 H 0.35914 0.86526 0.62961
 N129 N 0.90473 0.66595 0.38700
 N130 N 0.91468 0.65547 0.36648
 C131 C 0.93534 0.66916 0.35945
 C132 C 0.93831 0.68912 0.37649
 C133 C 0.91869 0.68664 0.39373
 H134 H 0.94731 0.66501 0.34321
 H135 H 0.91487 0.69894 0.40990
 Cu136 Cu 0.89958 0.62499 0.35104
 Cu137 Cu 0.87444 0.65205 0.40345
 Cu138 Cu 0.84724 0.59770 0.37620
 N139 N 0.88417 0.59451 0.33592
 N140 N 0.86368 0.58394 0.34588
 C141 C 0.85697 0.56327 0.33190
 C142 C 0.87419 0.56089 0.31225
 C143 C 0.89120 0.58090 0.31523
 H144 H 0.84083 0.55089 0.33572
 H145 H 0.90741 0.58515 0.30323
 N146 N 0.83342 0.61446 0.40690
 N147 N 0.84378 0.63516 0.41728
 C148 C 0.83005 0.64197 0.43789
 C149 C 0.81026 0.62474 0.44044
 C150 C 0.81283 0.60757 0.42063
 H151 H 0.83408 0.65821 0.45014
 H152 H 0.80058 0.59131 0.41658
 H153 H 0.87951 0.61439 0.39156
 H154 H 0.85902 0.63541 0.37122
 N155 N 0.59622 0.33357 -0.11408
 N156 N 0.58657 0.34379 -0.13487
 C157 C 0.56591 0.33011 -0.14191
 C158 C 0.56264 0.31041 -0.12460
 C159 C 0.58209 0.31305 -0.10719
 H160 H 0.55412 0.33411 -0.15831
 H161 H 0.58565 0.30098 -0.09078
 Cu162 Cu 0.60190 0.37398 -0.15067
 Cu163 Cu 0.62634 0.34761 -0.09750
 Cu164 Cu 0.65346 0.40204 -0.12463
 N165 N 0.61701 0.40487 -0.16532
 N166 N 0.63718 0.41575 -0.15504
 C167 C 0.64368 0.43666 -0.16880
 C168 C 0.62666 0.43888 -0.18863
 C169 C 0.60998 0.41854 -0.18599
 H170 H 0.65955 0.44929 -0.16470
 H171 H 0.59398 0.41411 -0.19819
 N172 N 0.66718 0.38534 -0.09386
 N173 N 0.65684 0.36459 -0.08352
 C174 C 0.67051 0.35780 -0.06287
 C175 C 0.69023 0.37510 -0.06023
 C176 C 0.68770 0.39228 -0.08005
 H177 H 0.66650 0.34152 -0.05065
 H178 H 0.69992 0.40857 -0.08407
 H179 H 0.62100 0.38511 -0.10985
 H180 H 0.64218 0.36419 -0.12958
 C181 C -0.06778 0.31829 0.12473
 C182 C -0.05142 0.30195 0.12460
 C183 C -0.03188 0.28247 0.12445
 C184 C -0.02297 0.27251 0.10132
 C185 C -0.00398 0.25357 0.10117
 C186 C 0.00618 0.24451 0.12415
 C187 C -0.00273 0.25447 0.14728
 C188 C -0.02172 0.27341 0.14743
 C189 C 0.02572 0.22502 0.12400
 C190 C 0.04210 0.20871 0.12387
 H191 H -0.03070 0.27938 0.08344
 H192 H 0.00278 0.24600 0.08318
 H193 H 0.00500 0.24760 0.16517
 H194 H -0.02847 0.28098 0.16542
 C195 C 0.56721 0.68227 0.62551
 C196 C 0.55086 0.69862 0.62536
 C197 C 0.53135 0.71813 0.62514
 C198 C 0.52317 0.72929 0.64801
 C199 C 0.50422 0.74827 0.64779
 C200 C 0.49337 0.75617 0.62470
 C201 C 0.50155 0.74501 0.60184
 C202 C 0.52050 0.72603 0.60206
 C203 C 0.47387 0.77570 0.62447
 C204 C 0.45754 0.79206 0.62425
 H205 H 0.53143 0.72332 0.66596
 H206 H 0.49803 0.75677 0.66558
 H207 H 0.49329 0.75097 0.58389
 H208 H 0.52669 0.71753 0.58427
 C209 C 1.06756 0.81814 0.37542
 C210 C 1.05122 0.80179 0.37554
 C211 C 1.03172 0.78229 0.37570
 C212 C 1.02310 0.77203 0.39881
 C213 C 1.00413 0.75309 0.39897
 C214 C 0.99371 0.74432 0.37601
 C215 C 1.00234 0.75458 0.35289
 C216 C 1.02130 0.77353 0.35273
 C217 C 0.97418 0.72484 0.37617
 C218 C 0.95782 0.70854 0.37631
 H219 H 1.03102 0.77867 0.41668
 H220 H 0.99760 0.74529 0.41695
 H221 H 0.99441 0.74794 0.33502
 H222 H 1.02783 0.78133 0.33475
 C223 C 0.43278 0.18205 -0.12531
 C224 C 0.44919 0.19832 -0.12520
 C225 C 0.46880 0.21771 -0.12508
 C226 C 0.49292 0.21215 -0.13510
 C227 C 0.51198 0.23100 -0.13500
 C228 C 0.50699 0.25549 -0.12488
 C229 C 0.48286 0.26105 -0.11485
 C230 C 0.46381 0.24220 -0.11495
 C231 C 0.52660 0.27487 -0.12477
 C232 C 0.54304 0.29110 -0.12469
 H233 H 0.49698 0.19328 -0.14298
 H234 H 0.53057 0.22649 -0.14280
 H235 H 0.47880 0.27992 -0.10697
 H236 H 0.44522 0.24670 -0.10715
 C237 C 0.12447 -0.06785 0.31740
 C238 C 0.12460 -0.05156 0.30102
 C239 C 0.12477 -0.03212 0.28147
 C240 C 0.12635 -0.03931 0.25582
 C241 C 0.12651 -0.02042 0.23681
 C242 C 0.12509 0.00573 0.24337
 C243 C 0.12351 0.01292 0.26902
 C244 C 0.12335 -0.00597 0.28803
 C245 C 0.12527 0.02517 0.22381
 C246 C 0.12543 0.04144 0.20741
 H247 H 0.12746 -0.05949 0.25054
 H248 H 0.12774 -0.02620 0.21704
 H249 H 0.12240 0.03309 0.27430
 H250 H 0.12213 -0.00020 0.30780
 C251 C 0.62520 0.56819 -0.31754
 C252 C 0.62533 0.55183 -0.30122
 C253 C 0.62550 0.53230 -0.28175
 C254 C 0.62686 0.50618 -0.28846
 C255 C 0.62706 0.48720 -0.26954
 C256 C 0.62591 0.49426 -0.24383
 C257 C 0.62454 0.52038 -0.23713
 C258 C 0.62433 0.53937 -0.25605
 C259 C 0.62615 0.47473 -0.22436
 C260 C 0.62638 0.45837 -0.20806
 H261 H 0.62777 0.50051 -0.30827
 H262 H 0.62812 0.46706 -0.27493
 H263 H 0.62364 0.52606 -0.21731
 H264 H 0.62328 0.55951 -0.25066
 C265 C 0.37457 1.06831 0.81762
 C266 C 0.37445 1.05204 0.80123
 C267 C 0.37431 1.03264 0.78166
 C268 C 0.37479 1.03991 0.75599
 C269 C 0.37468 1.02106 0.73696
 C270 C 0.37409 0.99486 0.74352
 C271 C 0.37361 0.98760 0.76920
 C272 C 0.37372 1.00645 0.78823
 C273 C 0.37399 0.97547 0.72394
 C274 C 0.37392 0.95925 0.70752
 H275 H 0.37525 1.06011 0.75070
 H276 H 0.37505 1.02689 0.71716
 H277 H 0.37316 0.96740 0.77449
 H278 H 0.37335 1.00062 0.80803
 C279 C 0.87525 0.43225 0.18283
 C280 C 0.87515 0.44854 0.19919
 C281 C 0.87503 0.46798 0.21872
 C282 C 0.87801 0.46092 0.24429
 C283 C 0.87786 0.47981 0.26328
 C284 C 0.87473 0.50584 0.25679
 C285 C 0.87175 0.51290 0.23122
 C286 C 0.87190 0.49401 0.21223
 C287 C 0.87455 0.52527 0.27633
 C288 C 0.87439 0.54153 0.29271
 H289 H 0.88045 0.44085 0.24952
 H290 H 0.88018 0.47414 0.28299
 H291 H 0.86931 0.53297 0.22599
 H292 H 0.86957 0.49968 0.19252
 C293 C 0.31790 0.12464 -0.06858
 C294 C 0.30168 0.12463 -0.05233
 C295 C 0.28232 0.12465 -0.03295
 C296 C 0.26177 0.10748 -0.03453
 C297 C 0.24295 0.10749 -0.01569
 C298 C 0.24460 0.12467 0.00482
 C299 C 0.26514 0.14184 0.00640
 C300 C 0.28397 0.14183 -0.01244
 C301 C 0.22522 0.12469 0.02420
 C302 C 0.20900 0.12472 0.04043
 H303 H 0.26031 0.09411 -0.05030
 H304 H 0.22714 0.09413 -0.01710
 H305 H 0.26660 0.15521 0.02217
 H306 H 0.29978 0.15518 -0.01103
 C307 C 0.68198 0.62463 0.56875
 C308 C 0.69821 0.62462 0.55252
 C309 C 0.71759 0.62463 0.53314
 C310 C 0.71333 0.61192 0.51001
 C311 C 0.73217 0.61193 0.49117
 C312 C 0.75533 0.62465 0.49539
 C313 C 0.75959 0.63736 0.51852
 C314 C 0.74075 0.63735 0.53736
 C315 C 0.77470 0.62466 0.47601
 C316 C 0.79093 0.62469 0.45978
 H317 H 0.69549 0.60202 0.50655
 H318 H 0.72868 0.60204 0.47336
 H319 H 0.77743 0.64726 0.52199
 H320 H 0.74424 0.64724 0.55518
 C321 C 0.81839 0.37497 0.06814
 C322 C 0.80216 0.37501 0.05191
 C323 C 0.78279 0.37506 0.03254
 C324 C 0.76273 0.35726 0.03364
 C325 C 0.74391 0.35729 0.01479
 C326 C 0.74508 0.37512 -0.00522
 C327 C 0.76514 0.39291 -0.00632
 C328 C 0.78395 0.39288 0.01253
 C329 C 0.72573 0.37513 -0.02462
 C330 C 0.70953 0.37513 -0.04087
 H331 H 0.76165 0.34339 0.04903
 H332 H 0.72849 0.34344 0.01582
 H333 H 0.76622 0.40678 -0.02171
 H334 H 0.79938 0.40672 0.01149
 C335 C 0.18112 0.87488 0.43229
 C336 C 0.19734 0.87493 0.44853
 C337 C 0.21671 0.87501 0.46790
 C338 C 0.21342 0.86044 0.49012
 C339 C 0.23226 0.86050 0.50895
 C340 C 0.25445 0.87513 0.50563
 C341 C 0.25774 0.88970 0.48341
 C342 C 0.23890 0.88964 0.46458
 C343 C 0.27384 0.87518 0.52498
 C344 C 0.29010 0.87522 0.54118
 H345 H 0.19634 0.84905 0.49288
 H346 H 0.22953 0.84916 0.52606
 H347 H 0.27483 0.90107 0.48064
 H348 H 0.24163 0.90097 0.44747
   
