data_POSCAR
  _audit_creation_date              2014-09-24
  _audit_creation_method            'ToBaCCo'
  _symmetry_space_group_name_H-M    'P1'
  _symmetry_Int_Tables_number       1
  _symmetry_cell_setting            triclinic
  loop_
  _symmetry_equiv_pos_as_xyz
 x,y,z
_cell_length_a 27.9482
_cell_length_b 27.9677
_cell_length_c 68.5417
_cell_angle_alpha 85.088500
_cell_angle_beta 92.145100
_cell_angle_gamma 119.821500
loop_
  _atom_site_label
  _atom_site_type_symbol
  _atom_site_fract_x
  _atom_site_fract_y
  _atom_site_fract_z
C1 C 0.00158 0.10532 0.52294
 H2 H 0.04153 0.10884 0.52114
 C3 C -0.00347 0.14178 0.53415
 H4 H 0.03274 0.17304 0.54114
 C5 C -0.09411 0.06000 0.51597
 H6 H -0.12903 0.02842 0.50862
 C7 C -0.10119 0.09535 0.52735
 H8 H -0.14174 0.09082 0.52874
 N9 N -0.04324 0.06557 0.51409
 C10 C -0.01066 -0.06825 0.50636
 H11 H -0.01116 -0.06849 0.49058
 C12 C -0.00956 -0.11120 0.51804
 H13 H -0.00912 -0.14430 0.51109
 C14 C -0.01516 -0.02703 0.53452
 H15 H -0.01889 0.00491 0.54093
 C16 C -0.01375 -0.06885 0.54672
 H17 H -0.01498 -0.06763 0.56243
 Zn18 Zn -0.02816 0.02209 0.49847
 N19 N -0.01435 -0.02783 0.51473
 C20 C 0.07919 0.06678 0.48112
 N21 N 0.03368 0.07198 0.48279
 C22 C 0.03051 0.11519 0.47347
 C23 C 0.07375 0.15501 0.46166
 C24 C 0.12352 0.10570 0.46928
 C25 C -0.13436 -0.06441 0.49028
 C26 C -0.17488 -0.10281 0.47849
 C27 C -0.12027 -0.04912 0.45009
 C28 C -0.08103 -0.01210 0.46242
 N29 N -0.08802 -0.02085 0.48213
 H30 H 0.08102 0.03237 0.48884
 H31 H -0.00591 0.11865 0.47529
 H32 H 0.07041 0.18939 0.45464
 H33 H 0.15898 0.10040 0.46776
 H34 H -0.13845 -0.07108 0.50606
 H35 H -0.20870 -0.13844 0.48603
 H36 H -0.11279 -0.03855 0.43456
 H37 H -0.04402 0.02274 0.45612
 C38 C -0.01236 -0.11250 0.53853
 C39 C -0.05526 0.13719 0.53642
 C40 C -0.16775 -0.09729 0.45786
 C41 C 0.12094 0.15042 0.45926
 C42 C 1.14119 0.05316 0.14327
 H43 H 1.14391 0.09295 0.14392
 C44 C 1.17972 0.04883 0.13237
 H45 H 1.21173 0.08544 0.12447
 C46 C 1.09562 -0.04290 0.15274
 H47 H 1.06317 -0.07829 0.16093
 C48 C 1.13314 -0.04924 0.14179
 H49 H 1.12926 -0.08968 0.14156
 N50 N 1.10011 0.00775 0.15311
 C51 C 0.96620 0.04271 0.15835
 H52 H 0.96298 0.04154 0.17408
 C53 C 0.92584 0.04515 0.14632
 H54 H 0.89170 0.04587 0.15296
 C55 C 1.01219 0.03833 0.13079
 H56 H 1.04485 0.03394 0.12479
 C57 C 0.97307 0.04113 0.11823
 H58 H 0.97710 0.04033 0.10263
 Zn59 Zn 1.05283 0.02173 0.16766
 N60 N 1.00765 0.03830 0.15047
 C61 C 1.09798 0.12966 0.18162
 N62 N 1.09914 0.08147 0.18264
 C63 C 1.13624 0.07429 0.19404
 C64 C 1.17394 0.11629 0.20520
 C65 C 1.13519 0.17302 0.19259
 C66 C 0.96593 -0.08679 0.17652
 C67 C 0.92396 -0.12941 0.18823
 C68 C 0.96298 -0.07525 0.21612
 C69 C 1.00423 -0.03392 0.20395
 N70 N 1.00461 -0.03997 0.18448
 H71 H 1.06865 0.13469 0.17219
 H72 H 1.13640 0.03562 0.19442
 H73 H 1.20243 0.10916 0.21443
 H74 H 1.13426 0.21139 0.19148
 H75 H 0.96623 -0.08993 0.16091
 H76 H 0.89228 -0.16552 0.18156
 H77 H 0.96269 -0.06913 0.23150
 H78 H 1.03429 0.00402 0.20997
 C79 C 0.92823 0.04299 0.12599
 C80 C 1.17599 -0.00283 0.13151
 C81 C 0.92146 -0.12319 0.20822
 C82 C 1.17401 0.16663 0.20452
 C83 C 0.04783 0.92834 0.86091
 H84 H 0.00964 0.88934 0.86102
 C85 C 0.09211 0.93249 0.87212
 H86 H 0.08723 0.89656 0.88111
 C87 C 0.09961 1.02259 0.84918
 H88 H 0.10230 1.05727 0.84000
 C89 C 0.14523 1.02860 0.86020
 H90 H 0.18299 1.06811 0.85939
 N91 N 0.05215 0.97298 0.84983
 C92 C -0.11919 0.93379 0.84398
 H93 H -0.12591 0.93035 0.82840
 C94 C -0.15994 0.93164 0.85589
 H95 H -0.19737 0.92672 0.84896
 C96 C -0.05945 0.95021 0.87105
 H97 H -0.01980 0.95890 0.87691
 C98 C -0.09850 0.94906 0.88341
 H99 H -0.08842 0.95405 0.89876
 Zn100 Zn -0.01071 0.95961 0.83480
 N101 N -0.06987 0.94362 0.85166
 C102 C -0.07544 0.85460 0.81804
 N103 N -0.02528 0.90066 0.81953
 C104 C 0.01963 0.90744 0.80996
 C105 C 0.01512 0.86782 0.79793
 C106 C -0.08197 0.81385 0.80593
 C107 C 0.00668 1.06706 0.82630
 C108 C 0.00692 1.11053 0.81451
 C109 C -0.00112 1.06171 0.78606
 C110 C -0.00162 1.01911 0.79837
 N111 N 0.00154 1.02214 0.81811
 H112 H -0.11046 0.84966 0.82600
 H113 H 0.05917 0.94414 0.81164
 H114 H 0.05176 0.87414 0.79066
 H115 H -0.12241 0.77812 0.80446
 H116 H 0.00809 1.06794 0.84206
 H117 H 0.00855 1.14477 0.82136
 H118 H -0.00421 1.05814 0.77040
 H119 H -0.00657 0.98279 0.79211
 C120 C -0.14937 0.94136 0.87591
 C121 C 0.14181 0.98299 0.87181
 C122 C 0.00175 1.10759 0.79411
 C123 C -0.03631 0.82056 0.79550
 C124 C 0.38416 0.01071 0.01100
 C125 C 0.38158 0.01022 -0.00900
 C126 C 0.42236 -0.00027 -0.01467
 N127 N 0.44966 -0.00624 0.00120
 C128 C 0.42679 0.00101 0.01691
 C129 C 0.43136 -0.00733 -0.03412
 C130 C 0.47410 -0.01645 -0.03984
 C131 C 0.47683 -0.03450 -0.05777
 C132 C 0.52476 -0.03691 -0.05786
 C133 C 0.55018 -0.02021 -0.03999
 N134 N 0.51926 -0.00718 -0.02921
 C135 C 0.60215 -0.01443 -0.03465
 C136 C 0.62480 -0.00366 -0.01564
 C137 C 0.67766 0.00723 -0.01064
 C138 C 0.68276 0.01298 0.00911
 C139 C 0.63268 0.00478 0.01563
 N140 N 0.59725 -0.00577 0.00050
 C141 C 0.61975 0.00393 0.03546
 C142 C 0.56880 -0.00372 0.04194
 C143 C 0.55107 -0.01610 0.06128
 C144 C 0.50061 -0.01881 0.06158
 C145 C 0.48889 -0.00779 0.04241
 N146 N 0.53100 0.00192 0.03059
 C147 C 0.44177 -0.00380 0.03661
 H148 H 0.35744 0.01718 0.02014
 H149 H 0.35247 0.01618 -0.01826
 H150 H 0.53653 0.01739 0.01607
 H151 H 0.44738 -0.04482 -0.06959
 H152 H 0.53939 -0.04905 -0.06987
 H153 H 0.70929 0.01035 -0.02014
 H154 H 0.71897 0.02132 0.01773
 H155 H 0.47572 -0.02731 0.07451
 H156 H 0.53100 0.01246 -0.01631
 H157 H 0.57229 -0.02251 0.07389
 C158 C -0.02775 0.33557 0.67630
 C159 C -0.03182 0.33757 0.65628
 C160 C -0.04318 0.37973 0.65069
 N161 N -0.04709 0.40280 0.66666
 C162 C -0.03719 0.37625 0.68233
 C163 C -0.05212 0.39431 0.63117
 C164 C -0.05797 0.44096 0.62537
 C165 C -0.07275 0.45233 0.60672
 C166 C -0.07020 0.50275 0.60661
 C167 C -0.05412 0.52080 0.62520
 N168 N -0.04623 0.48320 0.63645
 C169 C -0.04469 0.57214 0.63095
 C170 C -0.03935 0.58564 0.65063
 C171 C -0.02883 0.63628 0.65641
 C172 C -0.02964 0.63184 0.67648
 C173 C -0.04018 0.57877 0.68235
 N174 N -0.04678 0.55045 0.66651
 C175 C -0.04588 0.55688 0.70206
 C176 C -0.05103 0.50478 0.70800
 C177 C -0.06291 0.48017 0.72697
 C178 C -0.06062 0.43214 0.72702
 C179 C -0.04760 0.42856 0.70807
 N180 N -0.04128 0.47323 0.69665
 C181 C -0.03941 0.38598 0.70210
 H182 H -0.01946 0.30691 0.68537
 H183 H -0.02716 0.31081 0.64696
 H184 H -0.02502 0.48456 0.68260
 H185 H -0.08347 0.42734 0.59435
 H186 H -0.07891 0.52383 0.59420
 H187 H -0.02195 0.67250 0.64714
 H188 H -0.02340 0.66406 0.68566
 H189 H -0.06747 0.40332 0.73962
 H190 H -0.02778 0.48915 0.65009
 H191 H -0.07156 0.49552 0.73957
 C192 C 0.35660 0.38761 0.32218
 C193 C 0.35285 0.38667 0.34210
 C194 C 0.40365 0.42729 0.34835
 N195 N 0.43844 0.45242 0.33294
 C196 C 0.40968 0.42849 0.31690
 C197 C 0.41793 0.43801 0.36814
 C198 C 0.46781 0.48301 0.37420
 C199 C 0.48606 0.48962 0.39340
 C200 C 0.53416 0.53961 0.39336
 C201 C 0.54401 0.56224 0.37414
 N202 N 0.50312 0.52772 0.36260
 C203 C 0.58881 0.61456 0.36792
 C204 C 0.60496 0.63193 0.34809
 C205 C 0.64604 0.68432 0.34145
 C206 C 0.65180 0.68321 0.32175
 C207 C 0.61356 0.63041 0.31690
 N208 N 0.58533 0.59903 0.33305
 C209 C 0.60775 0.61130 0.29805
 C210 C 0.56407 0.56001 0.29266
 C211 C 0.56136 0.53748 0.27511
 C212 C 0.51134 0.48947 0.27494
 C213 C 0.48492 0.48387 0.29241
 N214 N 0.51706 0.52732 0.30301
 C215 C 0.43150 0.44047 0.29771
 H216 H 0.32416 0.36067 0.31270
 H217 H 0.31691 0.35885 0.35097
 H218 H 0.50502 0.53713 0.31551
 H219 H 0.46655 0.46158 0.40617
 H220 H 0.55899 0.55731 0.40607
 H221 H 0.66986 0.71961 0.34994
 H222 H 0.68099 0.71741 0.31213
 H223 H 0.49612 0.46191 0.26325
 H224 H 0.49656 0.53698 0.34811
 H225 H 0.59192 0.55418 0.26350
 C226 C -0.06260 0.24983 0.57355
 C227 C -0.10223 0.19320 0.57545
 C228 C -0.10131 0.15674 0.56289
 C229 C -0.06049 0.17612 0.54833
 C230 C -0.02218 0.23288 0.54597
 C231 C -0.02338 0.26935 0.55836
 C232 C -0.06040 0.28803 0.58783
 C233 C -0.00918 0.32980 0.59423
 C234 C -0.00666 0.36488 0.60804
 C235 C -0.05521 0.35859 0.61585
 C236 C -0.10643 0.31731 0.60953
 C237 C -0.10904 0.28240 0.59558
 H238 H -0.13103 0.11307 0.56509
 H239 H 0.00918 0.24897 0.53463
 H240 H 0.03315 0.39636 0.61292
 H241 H -0.14425 0.31209 0.61548
 H242 H 0.00685 0.31284 0.55615
 H243 H 0.02908 0.33462 0.58892
 H244 H -0.13265 0.17667 0.58711
 H245 H -0.14909 0.25117 0.59081
 C246 C 0.78320 0.75835 0.24411
 C247 C 0.80850 0.74034 0.23149
 C248 C 0.85327 0.77865 0.21970
 C249 C 0.87396 0.83563 0.22054
 C250 C 0.84853 0.85349 0.23315
 C251 C 0.80360 0.81530 0.24476
 C252 C 0.73639 0.71828 0.25693
 C253 C 0.69048 0.72530 0.25916
 C254 C 0.64794 0.68962 0.27217
 C255 C 0.65086 0.64668 0.28325
 C256 C 0.69599 0.63881 0.28083
 C257 C 0.73835 0.67418 0.26768
 H258 H 0.87218 0.76382 0.21012
 H259 H 0.86310 0.89713 0.23389
 H260 H 0.61324 0.69606 0.27392
 H261 H 0.69874 0.60583 0.28936
 H262 H 0.78528 0.83037 0.25449
 H263 H 0.68768 0.75860 0.25090
 H264 H 0.79333 0.69662 0.23064
 H265 H 0.77347 0.66816 0.26638
 C266 C 0.27359 -0.00849 -0.09127
 C267 C 0.26409 0.03652 -0.09368
 C268 C 0.22224 0.03450 -0.10605
 C269 C 0.18921 -0.01252 -0.11629
 C270 C 0.20021 -0.05660 -0.11440
 C271 C 0.24177 -0.05468 -0.10199
 C272 C 0.31494 -0.00840 -0.07705
 C273 C 0.30199 -0.05573 -0.06446
 C274 C 0.34007 -0.05549 -0.05063
 C275 C 0.39179 -0.00808 -0.04925
 C276 C 0.40528 0.03903 -0.06190
 C277 C 0.36703 0.03898 -0.07566
 H278 H 0.21449 0.06890 -0.10705
 H279 H 0.17638 -0.09287 -0.12244
 H280 H 0.32914 -0.09205 -0.04088
 H281 H 0.44516 0.07591 -0.06095
 H282 H 0.24889 -0.08950 -0.10070
 H283 H 0.26192 -0.09255 -0.06502
 H284 H 0.28773 0.07247 -0.08547
 H285 H 0.37822 0.07580 -0.08529
 C286 C -0.02801 0.74745 0.57550
 C287 C -0.05772 0.77378 0.57964
 C288 C -0.05249 0.81907 0.56765
 C289 C -0.01711 0.83953 0.55127
 C290 C 0.01258 0.81318 0.54707
 C291 C 0.00721 0.76765 0.55906
 C292 C -0.03308 0.69993 0.58860
 C293 C 0.01365 0.69486 0.59347
 C294 C 0.00943 0.65222 0.60681
 C295 C -0.04146 0.61406 0.61551
 C296 C -0.08843 0.61800 0.61041
 C297 C -0.08435 0.66045 0.59701
 H298 H -0.07673 0.83770 0.57114
 H299 H 0.04039 0.82809 0.53462
 H300 H 0.04609 0.64978 0.61077
 H301 H -0.12797 0.58873 0.61705
 H302 H 0.03033 0.74801 0.55538
 H303 H 0.05381 0.72490 0.58747
 H304 H -0.08458 0.75986 0.59233
 H305 H -0.12127 0.66261 0.59333
 C306 C 0.28927 0.29186 0.24099
 C307 C 0.30562 0.26100 0.23071
 C308 C 0.26864 0.22149 0.21849
 C309 C 0.21431 0.21165 0.21635
 C310 C 0.19840 0.24364 0.22620
 C311 C 0.23554 0.28340 0.23838
 C312 C 0.32750 0.33117 0.25495
 C313 C 0.33174 0.38318 0.25588
 C314 C 0.36654 0.41926 0.26952
 C315 C 0.39722 0.40368 0.28249
 C316 C 0.39357 0.35216 0.28151
 C317 C 0.35913 0.31624 0.26781
 H318 H 0.28257 0.19842 0.21076
 H319 H 0.15671 0.23667 0.22501
 H320 H 0.36899 0.45897 0.27017
 H321 H 0.41689 0.33959 0.29154
 H322 H 0.22165 0.30621 0.24628
 H323 H 0.30823 0.39592 0.24604
 H324 H 0.34707 0.26737 0.23216
 H325 H 0.35617 0.27618 0.26760
 C326 C 0.73910 -0.04133 -0.08856
 C327 C 0.79568 -0.01414 -0.08462
 C328 C 0.83198 -0.02059 -0.09607
 C329 C 0.81294 -0.05397 -0.11211
 C330 C 0.75573 -0.08100 -0.11601
 C331 C 0.71930 -0.07520 -0.10424
 C332 C 0.70122 -0.03442 -0.07608
 C333 C 0.65408 -0.08078 -0.06775
 C334 C 0.62121 -0.07423 -0.05453
 C335 C 0.63454 -0.02123 -0.04974
 C336 C 0.68038 0.02519 -0.05860
 C337 C 0.71372 0.01864 -0.07155
 H338 H 0.87539 0.00307 -0.09272
 H339 H 0.73836 -0.10830 -0.12771
 H340 H 0.58597 -0.11043 -0.04775
 H341 H 0.69109 0.06633 -0.05503
 H342 H 0.67564 -0.09677 -0.10749
 H343 H 0.64389 -0.12207 -0.07092
 H344 H 0.81191 0.01210 -0.07255
 H345 H 0.74965 0.05498 -0.07791
 C346 C 0.29294 -0.01022 0.09455
 C347 C 0.31061 0.03033 0.10806
 C348 C 0.27280 0.03171 0.12041
 C349 C 0.21647 -0.00765 0.11967
 C350 C 0.19894 -0.04954 0.10675
 C351 C 0.23675 -0.05070 0.09426
 C352 C 0.33257 -0.00880 0.08029
 C353 C 0.32824 -0.05803 0.07466
 C354 C 0.36420 -0.05638 0.06063
 C355 C 0.40527 -0.00554 0.05212
 C356 C 0.41042 0.04364 0.05786
 C357 C 0.37429 0.04207 0.07177
 H358 H 0.28753 0.06393 0.13048
 H359 H 0.15567 -0.08008 0.10576
 H360 H 0.35987 -0.09468 0.05630
 H361 H 0.44177 0.08316 0.05129
 H362 H 0.22159 -0.08213 0.08388
 H363 H 0.29712 -0.09781 0.08111
 H364 H 0.35372 0.06133 0.10900
 H365 H 0.37821 0.08072 0.07547
 C366 C 0.72472 0.77668 0.42196
 C367 C 0.70730 0.77985 0.44047
 C368 C 0.74242 0.82180 0.45235
 C369 C 0.79642 0.86263 0.44605
 C370 C 0.81253 0.85905 0.42706
 C371 C 0.77745 0.81696 0.41537
 C372 C 0.68839 0.73179 0.40938
 C373 C 0.71024 0.70579 0.39892
 C374 C 0.67739 0.66646 0.38593
 C375 C 0.62218 0.65261 0.38305
 C376 C 0.59960 0.67697 0.39394
 C377 C 0.63243 0.71619 0.40705
 H378 H 0.72546 0.82252 0.46615
 H379 H 0.85345 0.88636 0.42122
 H380 H 0.69528 0.64766 0.37775
 H381 H 0.55701 0.66665 0.39188
 H382 H 0.79189 0.81588 0.40105
 H383 H 0.75296 0.71628 0.40068
 H384 H 0.66654 0.74942 0.44589
 H385 H 0.61460 0.73574 0.41483
 C386 C -0.01685 0.23026 0.75720
 C387 C 0.02033 0.24608 0.77293
 C388 C 0.02667 0.20648 0.78490
 C389 C -0.00396 0.15023 0.78136
 C390 C -0.04123 0.13453 0.76567
 C391 C -0.04746 0.17402 0.75372
 C392 C -0.02319 0.27204 0.74417
 C393 C -0.07539 0.26026 0.73687
 C394 C -0.08089 0.29792 0.72355
 C395 C -0.03440 0.34811 0.71743
 C396 C 0.01750 0.36086 0.72503
 C397 C 0.02311 0.32314 0.73830
 H398 H 0.05594 0.21996 0.79679
 H399 H -0.06622 0.09149 0.76273
 H400 H -0.12120 0.28767 0.71777
 H401 H 0.05377 0.39941 0.72029
 H402 H -0.07585 0.16047 0.74157
 H403 H -0.11198 0.22173 0.74135
 H404 H 0.04419 0.28903 0.77610
 H405 H 0.06391 0.33320 0.74345
 C406 C 0.79307 0.02685 0.08914
 C407 C 0.82062 -0.00229 0.08591
 C408 C 0.86458 0.00342 0.09775
 C409 C 0.88247 0.03871 0.11309
 C410 C 0.85517 0.06817 0.11629
 C411 C 0.81097 0.06234 0.10443
 C412 C 0.74628 0.02039 0.07641
 C413 C 0.74031 0.06636 0.07010
 C414 C 0.69816 0.06065 0.05719
 C415 C 0.66143 0.00900 0.05038
 C416 C 0.66629 -0.03720 0.05694
 C417 C 0.70822 -0.03162 0.06991
 H418 H 0.88397 -0.02065 0.09507
 H419 H 0.86813 0.09595 0.12790
 H420 H 0.69496 0.09670 0.05211
 H421 H 0.63808 -0.07733 0.05179
 H422 H 0.79036 0.08506 0.10739
 H423 H 0.76924 0.10704 0.07464
 H424 H 0.80849 -0.02931 0.07408
 H425 H 0.71103 -0.06800 0.07476
 C426 C 0.25288 0.27505 0.42222
 C427 C 0.19757 0.25581 0.41703
 C428 C 0.15503 0.21475 0.42886
 C429 C 0.16669 0.19220 0.44630
 C430 C 0.22213 0.21088 0.45135
 C431 C 0.26482 0.25180 0.43938
 C432 C 0.29762 0.31900 0.40956
 C433 C 0.34327 0.31415 0.40456
 C434 C 0.38328 0.35371 0.39146
 C435 C 0.37847 0.39888 0.38336
 C436 C 0.33399 0.40483 0.38877
 C437 C 0.29378 0.36512 0.40173
 H438 H 0.11287 0.20041 0.42427
 H439 H 0.23254 0.19483 0.46478
 H440 H 0.41734 0.34856 0.38728
 H441 H 0.32980 0.43950 0.38257
 H442 H 0.30715 0.26612 0.44376
 H443 H 0.34699 0.27883 0.41026
 H444 H 0.18719 0.27215 0.40366
 H445 H 0.25936 0.37017 0.40552
 C446 C -0.04582 0.70192 0.75706
 C447 C -0.07825 0.68390 0.77417
 C448 C -0.07597 0.72225 0.78658
 C449 C -0.04157 0.77931 0.78200
 C450 C -0.01060 0.79703 0.76453
 C451 C -0.01245 0.75883 0.75229
 C452 C -0.04615 0.66195 0.74413
 C453 C 0.00381 0.66952 0.73694
 C454 C 0.00381 0.63419 0.72374
 C455 C -0.04611 0.59104 0.71739
 C456 C -0.09607 0.58247 0.72484
 C457 C -0.09610 0.61751 0.73824
 H458 H -0.09998 0.70719 0.79999
 H459 H 0.01516 0.84062 0.76025
 H460 H 0.04264 0.64122 0.71808
 H461 H -0.13492 0.54935 0.71998
 H462 H 0.01203 0.77381 0.73897
 H463 H 0.04287 0.70310 0.74143
 H464 H -0.10421 0.64016 0.77817
 H465 H -0.13510 0.61107 0.74348
   
