data_POSCAR
  _audit_creation_date              2014-09-24
  _audit_creation_method            'ToBaCCo'
  _symmetry_space_group_name_H-M    'P1'
  _symmetry_Int_Tables_number       1
  _symmetry_cell_setting            triclinic
  loop_
  _symmetry_equiv_pos_as_xyz
 x,y,z
_cell_length_a 23.0787
_cell_length_b 21.4864
_cell_length_c 26.6315
_cell_angle_alpha 90.324800
_cell_angle_beta 89.933200
_cell_angle_gamma 90.619200
loop_
  _atom_site_label
  _atom_site_type_symbol
  _atom_site_fract_x
  _atom_site_fract_y
  _atom_site_fract_z
B1 B 0.27963 0.22144 0.29691
 B2 B 0.21071 0.20338 0.28251
 B3 B 0.22897 0.27648 0.29853
 B4 B 0.29523 0.29330 0.27511
 B5 B 0.31793 0.22857 0.24386
 B6 B 0.26517 0.17229 0.24874
 B7 B 0.21992 0.27014 0.19756
 B8 B 0.28863 0.28833 0.21204
 B9 B 0.27067 0.21489 0.19649
 B10 B 0.20419 0.19811 0.21957
 B11 B 0.18172 0.26292 0.25080
 B12 B 0.23451 0.31929 0.24613
 B13 B 0.72893 0.78936 0.20326
 B14 B 0.70915 0.71632 0.21791
 B15 B 0.77772 0.73200 0.20029
 B16 B 0.79717 0.80276 0.22357
 B17 B 0.73894 0.82992 0.25627
 B18 B 0.68417 0.77594 0.25250
 B19 B 0.77449 0.72273 0.30116
 B20 B 0.79405 0.79562 0.28651
 B21 B 0.72561 0.77974 0.30368
 B22 B 0.70652 0.70929 0.28068
 B23 B 0.76449 0.68195 0.24774
 B24 B 0.81919 0.73615 0.25183
 B25 B 0.72414 0.22494 -0.30215
 B26 B 0.79337 0.20943 -0.28793
 B27 B 0.77303 0.28260 -0.29832
 B28 B 0.70609 0.29308 -0.27492
 B29 B 0.68514 0.22382 -0.24943
 B30 B 0.73947 0.17137 -0.25810
 B31 B 0.78083 0.26606 -0.19844
 B32 B 0.71183 0.28130 -0.21262
 B33 B 0.73197 0.20771 -0.20269
 B34 B 0.79911 0.19770 -0.22586
 B35 B 0.81992 0.26708 -0.25121
 B36 B 0.76560 0.31945 -0.24288
 B37 B 0.27833 0.77705 -0.29954
 B38 B 0.20895 0.79376 -0.28624
 B39 B 0.22781 0.72099 -0.30193
 B40 B 0.29325 0.70539 -0.27713
 B41 B 0.31488 0.77092 -0.24551
 B42 B 0.26240 0.82620 -0.25175
 B43 B 0.21525 0.72702 -0.20148
 B44 B 0.28420 0.71049 -0.21440
 B45 B 0.26615 0.78349 -0.19920
 B46 B 0.20044 0.79863 -0.22359
 B47 B 0.17904 0.73326 -0.25563
 B48 B 0.23126 0.67822 -0.24947
 B49 B 1.20694 1.25897 0.80605
 B50 B 1.27432 1.28279 0.79356
 B51 B 1.26082 1.20744 0.80482
 B52 B 1.19565 1.18816 0.77989
 B53 B 1.17025 1.25375 0.75183
 B54 B 1.21936 1.31262 0.76079
 B55 B 1.27144 1.22163 0.70506
 B56 B 1.20311 1.19880 0.71746
 B57 B 1.21798 1.27371 0.70582
 B58 B 1.28244 1.29299 0.73122
 B59 B 1.30798 1.22757 0.75892
 B60 B 1.25851 1.16846 0.75030
 B61 B 0.78503 0.73401 0.79862
 B62 B 0.71647 0.71490 0.78441
 B63 B 0.73347 0.78844 0.80020
 B64 B 0.79971 0.80622 0.77690
 B65 B 0.82286 0.74164 0.74553
 B66 B 0.77087 0.68478 0.75008
 B67 B 0.72415 0.78228 0.69985
 B68 B 0.79300 0.80100 0.71412
 B69 B 0.77543 0.72785 0.69790
 B70 B 0.70953 0.71011 0.72146
 B71 B 0.68624 0.77436 0.75297
 B72 B 0.73832 0.83137 0.74812
 B73 B 1.23047 0.71386 0.29885
 B74 B 1.21034 0.78698 0.28788
 B75 B 1.27954 0.77163 0.30201
 B76 B 1.29730 0.70287 0.27514
 B77 B 1.23736 0.67633 0.24356
 B78 B 1.18334 0.72906 0.25188
 B79 B 1.27103 0.78740 0.20236
 B80 B 1.29099 0.71375 0.21251
 B81 B 1.22181 0.72943 0.19889
 B82 B 1.20421 0.79806 0.22591
 B83 B 1.26417 0.82446 0.25748
 B84 B 1.31827 0.77167 0.24892
 B85 B 0.78408 1.27119 0.20110
 B86 B 0.71538 1.28891 0.21351
 B87 B 0.73270 1.21530 0.19948
 B88 B 0.79818 1.20007 0.22424
 B89 B 0.82007 1.26595 0.25532
 B90 B 0.76845 1.32134 0.24832
 B91 B 0.72037 1.22420 0.29971
 B92 B 0.78967 1.20658 0.28672
 B93 B 0.77139 1.27978 0.30139
 B94 B 0.70614 1.29554 0.27619
 B95 B 0.68394 1.22953 0.24547
 B96 B 0.73595 1.17381 0.25269
 N97 N 0.39765 1.06815 0.05144
 N98 N 0.35591 1.08771 0.08159
 N99 N 0.43862 1.10468 -0.05456
 N100 N 0.42599 1.15011 -0.08542
 N101 N 0.39598 1.06370 -0.05280
 N102 N 0.35270 1.08098 -0.08196
 N103 N 0.44023 1.10922 0.05016
 N104 N 0.42931 1.15686 0.07971
 C105 C 0.37702 1.14285 0.09914
 C106 C 0.37272 1.13467 -0.10231
 N107 N 0.60511 1.06350 -0.05394
 N108 N 0.64601 1.07855 -0.08662
 N109 N 0.56411 1.10919 0.04943
 N110 N 0.57553 1.15570 0.08026
 N111 N 0.60576 1.06801 0.05039
 N112 N 0.64738 1.08633 0.08153
 N113 N 0.56290 1.10400 -0.05524
 N114 N 0.57318 1.14689 -0.08905
 Mn115 Mn 0.50154 1.10683 -0.00264
 C116 C 0.62470 1.13039 -0.10827
 C117 C 0.62726 1.14097 0.09998
 N118 N 0.39517 0.92808 -0.05039
 N119 N 0.35285 0.90961 -0.08072
 N120 N 0.43860 0.89114 0.05401
 N121 N 0.42832 0.84749 0.08716
 N122 N 0.39692 0.93227 0.05390
 N123 N 0.35620 0.91675 0.08660
 N124 N 0.43723 0.88730 -0.05055
 N125 N 0.42516 0.84075 -0.08115
 Mn126 Mn 0.39581 0.99799 0.00061
 C127 C 0.37279 0.85521 -0.09974
 C128 C 0.37725 0.86406 0.10712
 N129 N 0.60429 0.93202 0.05320
 N130 N 0.64439 0.91730 0.08645
 N131 N 0.56187 0.88722 -0.05117
 N132 N 0.57318 0.84059 -0.08174
 N133 N 0.60443 0.92832 -0.05138
 N134 N 0.64629 0.91015 -0.08191
 N135 N 0.56182 0.89086 0.05375
 N136 N 0.57094 0.84804 0.08779
 Mn137 Mn 0.60559 0.99797 -0.00036
 Mn138 Mn 0.49987 0.88901 0.00139
 Cl139 Cl 0.50067 0.99798 -0.00029
 C140 C 0.62225 0.86500 0.10783
 C141 C 0.62559 0.85557 -0.10075
 N142 N 1.10752 0.56488 0.55307
 N143 N 1.14822 0.60673 0.56433
 N144 N 1.05968 0.43901 0.59073
 N145 N 1.06702 0.40170 0.62890
 N146 N 1.10281 0.43457 0.55869
 N147 N 1.14156 0.39427 0.57531
 N148 N 1.06403 0.56915 0.58465
 N149 N 1.07284 0.61427 0.61718
 C150 C 1.12496 0.63754 0.60412
 C151 C 1.11748 0.37364 0.61894
 N152 N 0.89400 0.44086 0.55781
 N153 N 0.85425 0.39940 0.57164
 N154 N 0.94099 0.57272 0.58456
 N155 N 0.93269 0.61503 0.61941
 N156 N 0.89737 0.57082 0.55296
 N157 N 0.85722 0.61141 0.56662
 N158 N 0.93681 0.44254 0.59021
 N159 N 0.92846 0.40190 0.62606
 Mn160 Mn 1.00039 0.50592 0.58758
 C161 C 0.87731 0.37533 0.61412
 C162 C 0.88101 0.63927 0.60777
 N163 N 1.10369 0.42742 0.44827
 N164 N 1.14518 0.38956 0.43238
 N165 N 1.06431 0.55661 0.41177
 N166 N 1.07327 0.59685 0.37570
 N167 N 1.10752 0.55730 0.44382
 N168 N 1.14801 0.59775 0.42954
 N169 N 1.06002 0.42628 0.41661
 N170 N 1.06961 0.38692 0.37984
 Mn171 Mn 1.10641 0.49588 0.50101
 C172 C 1.12207 0.36374 0.39006
 C173 C 1.12510 0.62228 0.38715
 N174 N 0.89770 0.56339 0.44371
 N175 N 0.85753 0.60209 0.42742
 N176 N 0.93703 0.42971 0.41669
 N177 N 0.92765 0.38593 0.38310
 N178 N 0.89364 0.43332 0.44845
 N179 N 0.85239 0.39253 0.43614
 N180 N 0.94061 0.56003 0.41138
 N181 N 0.93135 0.59649 0.37293
 Mn182 Mn 0.89472 0.50206 0.50074
 Mn183 Mn 1.00050 0.49323 0.41409
 Cl184 Cl 1.00055 0.49920 0.50081
 C185 C 0.88017 0.62300 0.38348
 C186 C 0.87529 0.36286 0.39561
 N187 N 1.11091 0.56449 0.04202
 N188 N 1.16001 0.59409 0.05257
 N189 N 1.06278 0.44542 0.08952
 N190 N 1.07411 0.41171 0.12912
 N191 N 1.10046 0.43497 0.05345
 N192 N 1.13931 0.39384 0.06865
 N193 N 1.07223 0.57518 0.07731
 N194 N 1.09395 0.61327 0.11171
 C195 C 1.14806 0.62620 0.09512
 C196 C 1.12086 0.37883 0.11575
 N197 N 0.89650 0.44843 0.06825
 N198 N 0.86146 0.40234 0.08235
 N199 N 0.94775 0.58377 0.08686
 N200 N 0.94216 0.62897 0.12016
 N201 N 0.90152 0.57950 0.05832
 N202 N 0.86289 0.62152 0.07210
 N203 N 0.94081 0.45334 0.09892
 N204 N 0.93760 0.41087 0.13421
 Mn205 Mn 1.00582 0.51489 0.08820
 C206 C 0.88832 0.37921 0.12358
 C207 C 0.88954 0.65285 0.11018
 N208 N 1.08867 0.42105 -0.05628
 N209 N 1.12485 0.37640 -0.07005
 N210 N 1.05166 0.55110 -0.09584
 N211 N 1.05708 0.59236 -0.13191
 N212 N 1.09717 0.55246 -0.06621
 N213 N 1.13489 0.59546 -0.08165
 N214 N 1.04325 0.42081 -0.08593
 N215 N 1.04656 0.37587 -0.11952
 Mn216 Mn 1.10013 0.49287 -0.00694
 C217 C 1.09698 0.34782 -0.10904
 C218 C 1.10868 0.62020 -0.12264
 N219 N 0.89017 0.56576 -0.04941
 N220 N 0.84787 0.60318 -0.06284
 N221 N 0.92086 0.42863 -0.07635
 N222 N 0.90116 0.38913 -0.11054
 N223 N 0.88268 0.43604 -0.04023
 N224 N 0.83525 0.40304 -0.05024
 N225 N 0.92757 0.55928 -0.08629
 N226 N 0.91160 0.59222 -0.12541
 Mn227 Mn 0.89215 0.50730 0.00940
 Mn228 Mn 0.98599 0.49011 -0.08626
 Cl229 Cl 0.99612 0.50138 0.00108
 C230 C 0.86310 0.62109 -0.10973
 C231 C 0.84843 0.37209 -0.09322
 N232 N 0.61011 0.95650 0.55395
 N233 N 0.65322 0.95148 0.58612
 N234 N 0.57884 0.90424 0.44900
 N235 N 0.60196 0.86167 0.41917
 N236 N 0.61049 0.95552 0.44858
 N237 N 0.65504 0.94954 0.41798
 N238 N 0.57810 0.90550 0.55366
 N239 N 0.59936 0.86407 0.58502
 C240 C 0.64587 0.89383 0.60528
 C241 C 0.64915 0.89111 0.39980
 N242 N 0.40712 0.91600 0.44880
 N243 N 0.36726 0.89278 0.41815
 N244 N 0.45347 0.88269 0.55428
 N245 N 0.44719 0.83759 0.58755
 N246 N 0.40709 0.91770 0.55358
 N247 N 0.36782 0.89667 0.58553
 N248 N 0.45365 0.88115 0.44830
 N249 N 0.44677 0.83401 0.41658
 Mn250 Mn 0.51596 0.89297 0.50128
 C251 C 0.39275 0.84196 0.39797
 C252 C 0.39358 0.84704 0.60676
 N253 N 0.59067 1.08815 0.44835
 N254 N 0.62996 1.10862 0.41621
 N255 N 0.54492 1.12502 0.55354
 N256 N 0.55343 1.17270 0.58449
 N257 N 0.59076 1.08918 0.55295
 N258 N 0.63153 1.11181 0.58273
 N259 N 0.54452 1.12346 0.44762
 N260 N 0.55104 1.16837 0.41417
 Mn261 Mn 0.60055 1.02228 0.50097
 C262 C 0.60456 1.15834 0.39485
 C263 C 0.60762 1.16351 0.60250
 N264 N 0.38733 1.05115 0.55359
 N265 N 0.34417 1.05673 0.58578
 N266 N 0.41991 1.10063 0.44848
 N267 N 0.40011 1.14125 0.41575
 N268 N 0.38790 1.04959 0.44795
 N269 N 0.34618 1.05384 0.41435
 N270 N 0.41944 1.10215 0.55338
 N271 N 0.39809 1.14402 0.58494
 Mn272 Mn 0.39712 0.98369 0.50096
 Mn273 Mn 0.48216 1.11331 0.50082
 Cl274 Cl 0.49889 1.00305 0.50102
 C275 C 0.35135 1.11460 0.60515
 C276 C 0.35439 1.11108 0.39457
 N277 N 1.08300 0.90342 0.44760
 N278 N 1.09962 0.86548 0.41127
 N279 N 1.11498 0.95851 0.55185
 N280 N 1.15504 0.95853 0.58720
 N281 N 1.08307 0.90763 0.55369
 N282 N 1.10036 0.87178 0.59078
 N283 N 1.11431 0.95477 0.44690
 N284 N 1.15306 0.95333 0.41059
 C285 C 1.14312 0.89774 0.38845
 C286 C 1.14497 0.90457 0.61160
 N287 N 1.04435 1.12275 0.54934
 N288 N 1.04469 1.15980 0.58924
 N289 N 1.09065 1.08460 0.44390
 N290 N 1.12492 1.09685 0.40560
 N291 N 1.04406 1.11908 0.44263
 N292 N 1.04555 1.15592 0.40292
 N293 N 1.09093 1.08822 0.54891
 N294 N 1.12395 1.10038 0.58797
 Mn295 Mn 1.10308 1.02177 0.49786
 C296 C 1.09482 1.14501 0.61281
 C297 C 1.09636 1.14121 0.38017
 N298 N 0.95980 0.88124 0.55474
 N299 N 0.95893 0.84656 0.59571
 N300 N 0.91347 0.91148 0.44789
 N301 N 0.87958 0.89739 0.40983
 N302 N 0.95970 0.87647 0.44807
 N303 N 0.95820 0.83702 0.40966
 N304 N 0.91317 0.91554 0.55279
 N305 N 0.87944 0.90534 0.59172
 Mn306 Mn 1.02155 0.89101 0.50105
 C307 C 0.90829 0.86239 0.61828
 C308 C 0.90782 0.85108 0.38615
 N309 N 0.92051 1.09237 0.44375
 N310 N 0.90155 1.12908 0.40784
 N311 N 0.88937 1.04487 0.55010
 N312 N 0.85063 1.04590 0.58644
 N313 N 0.92084 1.09610 0.54994
 N314 N 0.90429 1.13357 0.58667
 N315 N 0.88912 1.04109 0.44528
 N316 N 0.84787 1.04160 0.41106
 Mn317 Mn 0.98232 1.10878 0.49640
 Mn318 Mn 0.90100 0.97799 0.49896
 Cl319 Cl 1.00200 0.99992 0.49853
 C320 C 0.85660 1.09627 0.38751
 C321 C 0.86066 1.10112 0.60919
 N322 N 0.60362 0.56366 0.05689
 N323 N 0.64537 0.60370 0.06779
 N324 N 0.54823 0.43933 0.09443
 N325 N 0.55178 0.40330 0.13414
 N326 N 0.59408 0.43376 0.06552
 N327 N 0.63085 0.39439 0.08593
 N328 N 0.56012 0.56907 0.08840
 N329 N 0.57195 0.61215 0.12260
 C330 C 0.62485 0.63383 0.10850
 C331 C 0.60307 0.37510 0.12828
 N332 N 0.39048 0.44492 0.04414
 N333 N 0.34764 0.40506 0.05338
 N334 N 0.43563 0.57697 0.07641
 N335 N 0.41881 0.61514 0.11230
 N336 N 0.39812 0.57601 0.03914
 N337 N 0.35501 0.61444 0.04920
 N338 N 0.42603 0.44767 0.08264
 N339 N 0.40850 0.41026 0.11880
 Mn340 Mn 0.49252 0.50853 0.08557
 C341 C 0.35989 0.38355 0.10004
 C342 C 0.36921 0.63912 0.09467
 N343 N 0.60787 0.42383 -0.04369
 N344 N 0.64811 0.38146 -0.05176
 N345 N 0.58100 0.55509 -0.08718
 N346 N 0.59768 0.59401 -0.12248
 N347 N 0.61786 0.55494 -0.04980
 N348 N 0.66068 0.59501 -0.05848
 N349 N 0.57206 0.42559 -0.08187
 N350 N 0.58647 0.38481 -0.11652
 Mn351 Mn 0.60649 0.49371 0.00735
 C352 C 0.63329 0.35692 -0.09710
 C353 C 0.64711 0.61908 -0.10401
 N354 N 0.41241 0.56701 -0.07049
 N355 N 0.37406 0.60416 -0.09128
 N356 N 0.45118 0.43279 -0.09409
 N357 N 0.44366 0.39230 -0.13070
 N358 N 0.40468 0.43701 -0.06584
 N359 N 0.36330 0.39997 -0.08394
 N360 N 0.45850 0.56283 -0.09936
 N361 N 0.45312 0.59761 -0.13970
 Mn362 Mn 0.40057 0.50616 -0.01328
 Mn363 Mn 0.51566 0.49429 -0.09053
 Cl364 Cl 0.50361 0.50076 -0.00264
 C365 C 0.40071 0.62365 -0.13399
 C366 C 0.38920 0.37176 -0.12391
 C367 C 0.29332 1.18015 0.14807
 C368 C 0.34934 1.18348 0.13579
 H369 H 0.26461 1.14768 0.12892
 H370 H 0.37786 1.21653 0.15452
 C371 C 0.79783 0.69507 0.64759
 C372 C 0.85445 0.68396 0.64212
 H373 H 0.76669 0.67486 0.62169
 H374 H 0.88461 0.70137 0.66984
 C375 C 0.70510 0.82609 0.15648
 C376 C 0.64811 0.82997 0.14861
 H377 H 0.73542 0.85041 0.13229
 H378 H 0.61797 0.80364 0.17159
 C379 C 1.19593 0.30889 0.65690
 C380 C 1.14254 0.33246 0.65655
 H381 H 1.22538 0.31711 0.62592
 H382 H 1.11433 0.32487 0.68848
 C383 C 0.70862 1.16842 -0.15700
 C384 C 0.65168 1.16598 -0.14810
 H385 H 0.73856 1.14209 -0.13442
 H386 H 0.62205 1.19407 -0.16955
 C387 C 1.20836 0.67655 0.34670
 C388 C 1.15147 0.66803 0.35379
 H389 H 1.23939 0.65267 0.36995
 H390 H 1.12082 0.68927 0.32864
 C391 C 0.28850 0.81789 -0.14994
 C392 C 0.34481 0.81663 -0.13810
 H393 H 0.25915 0.84757 -0.12930
 H394 H 0.37393 0.78664 -0.15850
 C395 C 0.79174 0.31385 0.35173
 C396 C 0.84790 0.31544 0.36391
 H397 H 0.76144 0.34357 0.37127
 H398 H 0.87854 0.28952 0.34170
 C399 C 1.18853 0.29768 0.14909
 C400 C 1.15313 0.34617 0.15479
 H401 H 1.19577 0.27741 0.11236
 H402 H 1.14400 0.36323 0.19231
 C403 C 0.69054 0.80744 0.65215
 C404 C 0.68373 0.86856 0.64427
 H405 H 0.66873 0.77384 0.62809
 H406 H 0.70621 0.90244 0.66756
 C407 C 1.18403 0.69646 -0.15352
 C408 C 1.13405 0.66455 -0.15889
 H409 H 1.20713 0.69504 -0.11821
 H410 H 1.11075 0.66715 -0.19406
 C411 C 0.68935 1.19778 0.34855
 C412 C 0.63163 1.19600 0.35480
 H413 H 0.71646 1.17598 0.37630
 H414 H 0.60354 1.22008 0.32899
 C415 C 0.80501 0.70296 0.15026
 C416 C 0.86249 0.69928 0.14362
 H417 H 0.77728 0.67499 0.12634
 H418 H 0.89136 0.72394 0.16906
 C419 C 0.30680 1.19996 0.65632
 C420 C 0.31338 1.13929 0.64500
 H421 H 0.32944 1.23505 0.63459
 H422 H 0.29008 1.10435 0.66629
 C423 C 0.81417 0.28785 -0.14891
 C424 C 0.80510 0.34284 -0.12631
 H425 H 0.85121 0.26065 -0.13774
 H426 H 0.76978 0.37208 -0.13782
 C427 C 0.30845 0.79783 0.35232
 C428 C 0.36610 0.80157 0.35902
 H429 H 0.28039 0.82045 0.37919
 H430 H 0.39495 0.77736 0.33364
 C431 C 1.17452 1.16100 0.31997
 C432 C 1.12056 1.17308 0.33583
 H433 H 1.19793 1.12346 0.33723
 H434 H 1.09538 1.20922 0.31860
 C435 C 0.67741 0.67059 -0.18179
 C436 C 0.68327 0.66389 -0.13190
 H437 H 0.64497 0.64315 -0.20157
 H438 H 0.71545 0.69033 -0.11120
 C439 C 0.83628 1.17752 0.67384
 C440 C 0.82447 1.12400 0.65051
 H441 H 0.87597 1.20216 0.66474
 H442 H 0.78590 1.09741 0.66008
 C443 C 0.33302 0.67683 0.17587
 C444 C 0.33080 0.67835 0.12538
 H445 H 0.36464 0.64760 0.19397
 H446 H 0.29879 0.70598 0.10635
 C447 C 1.16718 0.83123 0.67815
 C448 C 1.18242 0.88149 0.65199
 H449 H 1.12374 0.81278 0.67353
 H450 H 1.22401 0.90405 0.65812
 C451 C 0.68453 0.33152 0.17356
 C452 C 0.62757 0.33488 0.16717
 H453 H 0.71227 0.35989 0.14994
 H454 H 0.59833 0.31060 0.19238
 C455 C 0.83309 0.83611 0.32282
 C456 C 0.88332 0.81752 0.34271
 H457 H 0.81409 0.87921 0.33565
 H458 H 0.90416 0.77559 0.32974
 C459 C 0.30474 0.32629 -0.16611
 C460 C 0.36173 0.32963 -0.16037
 H461 H 0.27753 0.35549 -0.14293
 H462 H 0.38984 0.30411 -0.18554
 C463 C 1.17618 0.28241 -0.14359
 C464 C 1.12140 0.30204 -0.14438
 H465 H 1.20292 0.29252 -0.11114
 H466 H 1.09455 0.29148 -0.17672
 C467 C 0.69493 0.80434 0.35325
 C468 C 0.68884 0.86538 0.36211
 H469 H 0.67206 0.77084 0.37641
 H470 H 0.71229 0.89910 0.33966
 C471 C 0.81837 0.70871 -0.15370
 C472 C 0.82243 0.64753 -0.14544
 H473 H 0.84273 0.74141 -0.13068
 H474 H 0.79967 0.61436 -0.16920
 C475 C 0.31229 1.19658 0.34517
 C476 C 0.31837 1.13558 0.35397
 H477 H 0.33343 1.23043 0.36945
 H478 H 0.29659 1.10143 0.33045
 C479 C 1.18698 0.70861 0.15002
 C480 C 1.19288 0.65276 0.12822
 H481 H 1.15128 0.73773 0.13874
 H482 H 1.22739 0.62212 0.13931
 C483 C 0.69424 1.20076 0.64768
 C484 C 0.63673 1.20351 0.64010
 H485 H 0.72046 1.17379 0.62208
 H486 H 0.60977 1.23166 0.66436
 C487 C 0.81544 0.30040 0.15296
 C488 C 0.86555 0.33187 0.15830
 H489 H 0.79153 0.30333 0.11813
 H490 H 0.88967 0.32817 0.19297
 C491 C 0.30920 0.80460 0.65194
 C492 C 0.36692 0.80883 0.64661
 H493 H 0.28189 0.82473 0.62350
 H494 H 0.39534 0.78608 0.67294
 C495 C 0.28595 1.17195 -0.14799
 C496 C 0.34318 1.17231 -0.13952
 H497 H 0.25719 1.14323 -0.12558
 H498 H 0.37179 1.20149 -0.16143
 C499 C 0.79953 0.68751 0.34891
 C500 C 0.85205 0.66170 0.34597
 H501 H 0.77322 0.68240 0.38233
 H502 H 0.87752 0.66662 0.31209
 C503 C 0.71067 1.17998 0.15051
 C504 C 0.65422 1.17937 0.13905
 H505 H 0.74074 1.15174 0.12933
 H506 H 0.62442 1.20817 0.15981
 C507 C 1.20797 0.68745 0.64745
 C508 C 1.15202 0.68620 0.63473
 H509 H 1.23819 0.65695 0.62861
 H510 H 1.12131 0.71284 0.65628
 C511 C 0.70992 0.82195 -0.15099
 C512 C 0.65394 0.81679 -0.13842
 H513 H 0.73804 0.85461 -0.13139
 H514 H 0.62597 0.78369 -0.15768
 C515 C 1.20609 0.30911 0.34895
 C516 C 1.14990 0.32348 0.35282
 H517 H 1.23667 0.32414 0.37743
 H518 H 1.12061 0.31038 0.32292
 C519 C 0.29383 0.82622 0.15632
 C520 C 0.35055 0.82780 0.14662
 H521 H 0.26386 0.85350 0.13452
 H522 H 0.38020 0.79892 0.16736
 C523 C 0.79483 0.32033 0.65416
 C524 C 0.85161 0.32888 0.64700
 H525 H 0.76369 0.34448 0.63121
 H526 H 0.88244 0.30756 0.67195
 C527 C 1.16836 1.15855 0.67778
 C528 C 1.11744 1.17572 0.65816
 H529 H 1.19010 1.11812 0.66288
 H530 H 1.09413 1.21506 0.67312
 C531 C 0.66475 0.67553 0.18639
 C532 C 0.65989 0.67889 0.13660
 H533 H 0.63915 0.64133 0.20666
 H534 H 0.68682 0.71048 0.11516
 C535 C 1.16775 0.81960 0.32570
 C536 C 1.17929 0.87408 0.34756
 H537 H 1.12841 0.79483 0.33566
 H538 H 1.21763 0.90065 0.33729
 C539 C 0.66927 0.31770 -0.17688
 C540 C 0.66971 0.31484 -0.12655
 H541 H 0.63971 0.34891 -0.19545
 H542 H 0.70003 0.28562 -0.10696
 C543 C 0.83183 1.17015 0.32245
 C544 C 0.81756 1.11968 0.34852
 H545 H 0.87520 1.18899 0.32659
 H546 H 0.77606 1.09669 0.34290
 C547 C 0.31673 0.66812 -0.17534
 C548 C 0.37399 0.66201 -0.17303
 H549 H 0.29017 0.64307 -0.14854
 H550 H 0.40166 0.68396 -0.20080
 C551 C 0.82900 0.84322 0.67681
 C552 C 0.88423 0.83306 0.66359
 H553 H 0.80453 0.87776 0.65680
 H554 H 0.91034 0.79978 0.68339
 C555 C 0.32852 0.33235 0.17826
 C556 C 0.32311 0.33935 0.12830
 H557 H 0.36121 0.35932 0.19814
 H558 H 0.29097 0.31321 0.10747
   
