data_POSCAR
  _audit_creation_date              2014-09-24
  _audit_creation_method            'ToBaCCo'
  _symmetry_space_group_name_H-M    'P1'
  _symmetry_Int_Tables_number       1
  _symmetry_cell_setting            triclinic
  loop_
  _symmetry_equiv_pos_as_xyz
 x,y,z
_cell_length_a 25.0382
_cell_length_b 24.8675
_cell_length_c 25.8135
_cell_angle_alpha 89.540500
_cell_angle_beta 90.333700
_cell_angle_gamma 89.777600
loop_
  _atom_site_label
  _atom_site_type_symbol
  _atom_site_fract_x
  _atom_site_fract_y
  _atom_site_fract_z
C1 C 0.17621 0.14662 0.22545
 C2 C 0.22668 0.14704 0.20157
 C3 C 0.23579 0.17774 0.15652
 C4 C 0.19432 0.21023 0.13696
 C5 C 0.14339 0.20865 0.15895
 C6 C 0.13401 0.17596 0.20233
 H7 H 0.25899 0.12354 0.21835
 H8 H 0.20058 0.23478 0.10267
 H9 H 0.09460 0.17616 0.21935
 C10 C -0.17425 0.85560 0.22858
 C11 C -0.22611 0.85366 0.20765
 C12 C -0.24010 0.81537 0.17079
 C13 C -0.20211 0.77819 0.15394
 C14 C -0.14922 0.78074 0.17241
 C15 C -0.13551 0.81943 0.20981
 H16 H -0.25640 0.88201 0.21999
 H17 H -0.21302 0.74967 0.12423
 H18 H -0.09484 0.82085 0.22416
 C19 C -0.17466 0.15857 -0.23310
 C20 C -0.15738 0.21140 -0.22359
 C21 C -0.16926 0.23630 -0.17639
 C22 C -0.19716 0.20792 -0.13817
 C23 C -0.21839 0.15702 -0.14847
 C24 C -0.20822 0.13331 -0.19657
 H25 H -0.13376 0.23288 -0.25195
 H26 H -0.20546 0.22721 -0.10156
 H27 H -0.22318 0.09322 -0.20380
 C28 C 0.14918 0.82504 -0.22611
 C29 C 0.18387 0.86501 -0.20763
 C30 C 0.22001 0.85361 -0.16669
 C31 C 0.21971 0.80192 -0.14381
 C32 C 0.18255 0.76356 -0.15972
 C33 C 0.14776 0.77509 -0.20080
 H34 H 0.18474 0.90385 -0.22690
 H35 H 0.24618 0.79196 -0.11181
 H36 H 0.12018 0.74442 -0.21376
 C37 C 0.18060 1.14120 0.77514
 C38 C 0.14117 1.17688 0.79296
 C39 C 0.15342 1.21502 0.83122
 C40 C 0.20552 1.21739 0.85159
 C41 C 0.24417 1.18032 0.83589
 C42 C 0.23159 1.14248 0.79793
 H43 H 0.10126 1.17587 0.77665
 H44 H 0.21516 1.24566 0.88193
 H45 H 0.26204 1.11419 0.78589
 C46 C 0.82829 0.86104 0.77296
 C47 C 0.77837 0.86122 0.79753
 C48 C 0.76918 0.82913 0.84115
 C49 C 0.80921 0.79459 0.85975
 C50 C 0.86010 0.79415 0.83662
 C51 C 0.86975 0.82907 0.79429
 H52 H 0.74606 0.88623 0.78272
 H53 H 0.80066 0.76926 0.89295
 H54 H 0.90847 0.82838 0.77589
 C55 C 0.14035 0.82417 1.22581
 C56 C 0.17328 0.86306 1.20209
 C57 C 0.20830 0.84840 1.16193
 C58 C 0.20928 0.79503 1.14456
 C59 C 0.17560 0.75679 1.16685
 C60 C 0.14184 0.77122 1.20721
 H61 H 0.17283 0.90428 1.21524
 H62 H 0.23501 0.78358 1.11285
 H63 H 0.11622 0.74053 1.22369
 C64 C 0.85422 1.18218 1.22829
 C65 C 0.85355 1.23103 1.20000
 C66 C 0.81893 1.23866 1.15719
 C67 C 0.78265 1.19754 1.14485
 C68 C 0.78350 1.14829 1.17170
 C69 C 0.82007 1.14040 1.21243
 H70 H 0.88044 1.26290 1.21122
 H71 H 0.75531 1.20260 1.11246
 H72 H 0.81986 1.10228 1.23294
 O73 O 0.44481 1.10899 1.09468
 O74 O 0.37885 1.07374 1.04311
 C75 C 0.39599 1.10715 1.07759
 O76 O 0.60020 1.07867 0.92250
 O77 O 0.64357 1.01572 0.97299
 C78 C 0.64319 1.05551 0.94030
 O79 O 0.45435 1.11674 0.91831
 O80 O 0.38342 1.07585 0.95802
 C81 C 0.40362 1.11187 0.92753
 O82 O 0.58986 1.06951 1.10651
 O83 O 0.63779 1.00796 1.05991
 C84 C 0.63391 1.04447 1.09525
 Zr85 Zr 0.51173 1.06077 1.07509
 O86 O 0.53489 1.14156 1.08606
 O87 O 0.50027 1.05237 1.15598
 Zr88 Zr 0.51922 1.06746 0.94362
 O89 O 0.54311 1.14897 0.94391
 O90 O 0.51792 1.06852 0.86156
 O91 O 0.47207 1.08559 1.00753
 O92 O 0.56206 1.06341 1.01222
 O93 O 0.54708 0.88341 1.09760
 O94 O 0.61743 0.92185 1.05466
 C95 C 0.59766 0.88760 1.08730
 O96 O 0.41023 0.92354 0.90864
 O97 O 0.36272 0.98683 0.95344
 C98 C 0.36636 0.94909 0.91934
 O99 O 0.55760 0.89363 0.91146
 O100 O 0.62335 0.92698 0.96442
 C101 C 0.60688 0.89630 0.92715
 O102 O 0.40018 0.91563 1.08730
 O103 O 0.35804 0.98251 1.04088
 C104 C 0.35775 0.94240 1.07322
 Zr105 Zr 0.48149 0.92882 1.06773
 O106 O 0.46751 0.84503 1.06407
 O107 O 0.47237 0.92753 1.14922
 Zr108 Zr 0.48896 0.93555 0.93702
 O109 O 0.47582 0.85180 0.93106
 O110 O 0.48847 0.94308 0.85524
 Zr111 Zr 0.42336 1.01690 1.00197
 Zr112 Zr 0.57756 0.98015 1.00967
 O113 O 0.52818 0.91208 1.00407
 O114 O 0.43650 0.93314 0.99954
 O115 O 0.54262 0.98325 1.08373
 O116 O 0.45945 1.01275 0.92866
 O117 O 0.45077 1.00537 1.07847
 O118 O 0.55139 0.99099 0.93253
 H119 H 0.59157 1.08961 1.01550
 H120 H 0.43751 1.01980 0.89724
 H121 H 0.54449 0.87573 1.00342
 H122 H 0.42522 1.01014 1.10726
 H123 H 0.54828 1.04638 0.84957
 H124 H 0.52428 0.95557 0.84466
 H125 H 0.44487 0.84296 0.95312
 H126 H 0.43677 0.83948 1.04051
 H127 H 0.50659 0.93931 1.16467
 H128 H 0.53021 1.03049 1.16996
 H129 H 0.52120 1.16220 1.05589
 H130 H 0.52014 1.16784 0.96900
 O131 O 0.11462 0.55201 -0.08786
 O132 O 0.07638 0.61984 -0.04101
 C133 C 0.11060 0.60195 -0.07422
 O134 O -0.10388 0.45344 -0.10697
 O135 O -0.07480 0.38230 -0.05703
 C136 C -0.10226 0.40255 -0.09524
 O137 O -0.06860 0.59934 -0.09995
 O138 O -0.00996 0.64251 -0.04598
 C139 C -0.04424 0.64207 -0.08382
 O140 O 0.08111 0.40522 -0.09081
 O141 O 0.01278 0.35972 -0.05151
 C142 C 0.05374 0.36187 -0.08180
 Zr143 Zr 0.06839 0.48500 -0.06451
 O144 O 0.07260 0.48325 -0.14640
 O145 O 0.15137 0.46915 -0.05847
 Zr146 Zr -0.06274 0.51893 -0.07298
 O147 O -0.06089 0.51998 -0.15492
 O148 O -0.14388 0.54336 -0.07360
 O149 O 0.01503 0.54876 -0.07686
 O150 O -0.00738 0.45762 -0.08048
 O151 O 0.06938 0.39848 0.08718
 O152 O 0.00721 0.35594 0.03661
 C153 C 0.04418 0.35588 0.07192
 O154 O -0.08041 0.59137 0.08896
 O155 O -0.01479 0.63816 0.04658
 C156 C -0.05335 0.63488 0.07978
 O157 O -0.11970 0.44618 0.07823
 O158 O -0.08180 0.37888 0.03030
 C159 C -0.11638 0.39649 0.06328
 O160 O 0.10137 0.54537 0.09813
 O161 O 0.07123 0.61677 0.04913
 C162 C 0.10063 0.59613 0.08578
 Zr163 Zr 0.05876 0.48005 0.06561
 O164 O 0.04886 0.47199 0.14673
 O165 O 0.14146 0.46420 0.07398
 Zr166 Zr -0.07204 0.51346 0.05694
 O167 O -0.08118 0.50584 0.13810
 O168 O -0.15224 0.53968 0.04878
 Zr169 Zr 0.01749 0.57715 -0.00019
 Zr170 Zr -0.02106 0.42178 -0.00756
 O171 O -0.01832 0.45120 0.06866
 O172 O 0.00422 0.54282 0.07363
 O173 O 0.06214 0.43328 -0.00102
 O174 O -0.06530 0.56425 -0.00632
 O175 O 0.08417 0.52536 0.00322
 O176 O -0.08911 0.47186 -0.01107
 H177 H -0.00998 0.43612 -0.11252
 H178 H -0.08958 0.59581 -0.00675
 H179 H -0.02594 0.42656 0.09804
 H180 H 0.12058 0.54055 0.00609
 H181 H -0.16561 0.51218 -0.06260
 H182 H -0.17155 0.51233 0.02839
 H183 H -0.05013 0.52358 0.15438
 H184 H 0.04034 0.50799 0.16055
 H185 H 0.15093 0.43648 0.04836
 H186 H 0.15598 0.43485 -0.03926
 H187 H 0.06093 0.51889 -0.15957
 H188 H -0.02792 0.53889 -0.16527
 O189 O 1.06875 -0.11661 0.56828
 O190 O 1.03533 -0.05713 0.62746
 C191 C 1.06046 -0.10091 0.61541
 O192 O 1.12022 0.07373 0.43185
 O193 O 1.05895 0.04422 0.37221
 C194 C 1.10337 0.06753 0.38467
 O195 O 1.12127 0.05917 0.57583
 O196 O 1.05616 0.02921 0.63101
 C197 C 1.10267 0.04997 0.62185
 O198 O 1.06223 -0.11356 0.42303
 O199 O 1.03479 -0.04642 0.36740
 C200 C 1.05501 -0.09360 0.37694
 Zr201 Zr 1.04916 -0.07938 0.49649
 O202 O 1.13144 -0.09846 0.49089
 O203 O 1.03173 -0.16250 0.49849
 Zr204 Zr 1.08392 0.05175 0.50263
 O205 O 1.16708 0.03754 0.49968
 O206 O 1.09875 0.13489 0.51213
 O207 O 1.07637 -0.01925 0.54549
 O208 O 1.07669 -0.01435 0.45461
 O209 O 0.88674 -0.05970 0.42113
 O210 O 0.94881 -0.02290 0.36634
 C211 C 0.90475 -0.04845 0.37530
 O212 O 0.91982 0.10872 0.57400
 O213 O 0.96127 0.04919 0.62940
 C214 C 0.92738 0.08747 0.61967
 O215 O 0.93824 0.12701 0.43003
 O216 O 0.97074 0.06683 0.37106
 C217 C 0.94711 0.11151 0.38290
 O218 O 0.88174 -0.06189 0.56687
 O219 O 0.94509 -0.03628 0.62624
 C220 C 0.89931 -0.05689 0.61404
 Zr221 Zr 0.91926 -0.04385 0.49533
 O222 O 0.83719 -0.02372 0.49000
 O223 O 0.89972 -0.12665 0.49705
 Zr224 Zr 0.95475 0.08767 0.50185
 O225 O 0.87694 0.12043 0.49591
 O226 O 0.98344 0.16645 0.51489
 Zr227 Zr 1.00082 -0.00042 0.57621
 Zr228 Zr 1.00260 0.00782 0.42163
 O229 O 0.92793 0.02701 0.45379
 O230 O 0.92633 0.02174 0.54363
 O231 O 0.98197 -0.06941 0.44923
 O232 O 1.02103 0.07670 0.54876
 O233 O 0.98103 -0.07359 0.54054
 O234 O 1.02264 0.08208 0.45581
 H235 H 1.10709 -0.02239 0.43149
 H236 H 1.02765 0.10463 0.57519
 H237 H 0.89768 0.03670 0.43059
 H238 H 0.97254 -0.10530 0.56243
 H239 H 1.09194 0.15287 0.47838
 H240 H 0.99974 0.17923 0.48223
 H241 H 0.85225 0.08964 0.49345
 H242 H 0.83011 0.00405 0.51636
 H243 H 0.91131 -0.14243 0.46387
 H244 H 0.99830 -0.16739 0.47860
 H245 H 1.14864 -0.08868 0.52410
 H246 H 1.17244 -0.00088 0.50832
 N247 N 1.18983 0.08000 0.34483
 N248 N 1.21054 0.09980 0.30170
 C249 C 1.16955 0.11902 0.27262
 C250 C 1.12264 0.10961 0.29939
 N251 N 1.13733 0.08550 0.34402
 H252 H 1.08202 0.11961 0.28835
 N253 N 0.82172 -0.04900 0.32756
 N254 N 0.79926 -0.07453 0.28843
 C255 C 0.83677 -0.10724 0.26802
 C256 C 0.88377 -0.09999 0.29585
 N257 N 0.87232 -0.06345 0.33235
 H258 H 0.92143 -0.12111 0.29230
 N259 N 0.85693 0.06020 0.67619
 N260 N 0.82838 0.07784 0.71538
 C261 C 0.84312 0.12915 0.72397
 C262 C 0.88194 0.14267 0.68764
 N263 N 0.88924 0.09819 0.65909
 H264 H 0.90480 0.17934 0.68418
 N265 N 1.07998 -0.18808 0.65353
 N266 N 1.10266 -0.20903 0.69548
 C267 C 1.11759 -0.16765 0.72578
 C268 C 1.10282 -0.12027 0.70102
 N269 N 1.07952 -0.13502 0.65624
 H270 H 1.10993 -0.07933 0.71317
 N271 N 0.34152 1.18676 1.06898
 N272 N 0.29667 1.20600 1.08852
 C273 C 0.28433 1.17474 1.12975
 C274 C 0.32382 1.13593 1.13509
 N275 N 0.35860 1.14514 1.09669
 H276 H 0.32449 1.10107 1.16048
 N277 N 0.29012 0.97106 0.86429
 N278 N 0.25093 0.94626 0.83948
 C279 C 0.25533 0.89331 0.85106
 C280 C 0.29919 0.88655 0.88350
 N281 N 0.31938 0.93583 0.89071
 H282 H 0.31555 0.84977 0.89986
 N283 N 0.62369 0.80397 1.13178
 N284 N 0.66728 0.78221 1.15292
 C285 C 0.70669 0.81856 1.14694
 C286 C 0.68615 0.86310 1.12213
 N287 N 0.63450 0.85251 1.11326
 H288 H 0.70642 0.90033 1.11286
 N289 N 0.71728 1.11139 0.96321
 N290 N 0.75319 1.14211 0.94020
 C291 C 0.75133 1.13048 0.88927
 C292 C 0.71280 1.09138 0.88186
 N293 N 0.69283 1.08057 0.92900
 H294 H 0.69757 1.07579 0.84565
 N295 N 0.02479 0.26531 0.10363
 N296 N 0.04970 0.22539 0.12830
 C297 C 0.10041 0.24174 0.13621
 C298 C 0.10581 0.29277 0.11603
 N299 N 0.05797 0.30591 0.09605
 H300 H 0.14118 0.31770 0.11537
 N301 N -0.13955 0.37649 -0.17847
 N302 N -0.15518 0.33221 -0.20241
 C303 C -0.15355 0.29228 -0.16677
 C304 C -0.13684 0.31341 -0.12028
 N305 N -0.12866 0.36600 -0.12919
 H306 H -0.12954 0.29231 -0.08405
 N307 N 0.19604 0.63015 -0.11035
 N308 N 0.21731 0.67343 -0.13228
 C309 C 0.17877 0.71148 -0.13310
 C310 C 0.13343 0.69053 -0.11115
 N311 N 0.14587 0.63991 -0.09740
 H312 H 0.09468 0.70952 -0.10722
 N313 N -0.03185 0.72050 0.11975
 N314 N -0.05579 0.75957 0.14553
 C315 C -0.10758 0.74560 0.15023
 C316 C -0.11453 0.69631 0.12672
 N317 N -0.06642 0.68224 0.10822
 H318 H -0.15100 0.67353 0.12234
 N319 N 1.18814 0.05438 0.66583
 N320 N 1.21012 0.07812 0.70632
 C321 C 1.17067 0.10406 0.73151
 C322 C 1.12326 0.09468 0.70518
 N323 N 1.13612 0.06356 0.66467
 H324 H 1.08408 0.11143 0.71245
 N325 N 0.81351 -0.06755 0.65603
 N326 N 0.79351 -0.08814 0.69916
 C327 C 0.83463 -0.10983 0.72647
 C328 C 0.88094 -0.10111 0.69854
 N329 N 0.86578 -0.07489 0.65509
 H330 H 0.92147 -0.11304 0.70800
 N331 N 1.05613 -0.17890 0.33351
 N332 N 1.07868 -0.20218 0.29334
 C333 C 1.10719 -0.16420 0.26812
 C334 C 1.10037 -0.11597 0.29415
 N335 N 1.06841 -0.12732 0.33455
 H336 H 1.11887 -0.07746 0.28657
 N337 N 0.93698 0.19743 0.33768
 N338 N 0.91300 0.21736 0.29577
 C339 C 0.88747 0.17626 0.27231
 C340 C 0.89756 0.13002 0.30128
 N341 N 0.92834 0.14513 0.34140
 H342 H 0.88342 0.08954 0.29483
 N343 N 0.03447 0.27477 -0.11952
 N344 N 0.05938 0.23541 -0.14396
 C345 C 0.11106 0.24995 -0.14791
 C346 C 0.11702 0.29979 -0.12530
 N347 N 0.06839 0.31368 -0.10807
 H348 H 0.15311 0.32320 -0.12094
 N349 N -0.19439 0.33910 0.06139
 N350 N -0.21196 0.29529 0.08524
 C351 C -0.17870 0.28523 0.12567
 C352 C -0.14018 0.32520 0.12580
 N353 N -0.15179 0.35798 0.08553
 H354 H -0.10475 0.32802 0.14982
 N355 N -0.02265 0.72070 -0.13634
 N356 N -0.04769 0.76156 -0.15933
 C357 C -0.09969 0.75866 -0.14570
 C358 C -0.10557 0.71408 -0.11373
 N359 N -0.05681 0.69189 -0.10895
 H360 H -0.14172 0.69785 -0.09710
 N361 N 0.16951 0.61591 0.15000
 N362 N 0.19239 0.65839 0.17132
 C363 C 0.17231 0.70210 0.14672
 C364 C 0.13545 0.68533 0.11067
 N365 N 0.13499 0.63142 0.11377
 H366 H 0.10875 0.71001 0.08732
 N367 N 0.37525 1.19752 0.88827
 N368 N 0.33245 1.21775 0.86436
 C369 C 0.29641 1.17760 0.86183
 C370 C 0.31797 1.13257 0.88491
 N371 N 0.36695 1.14655 0.90094
 H372 H 0.30005 1.09321 0.88909
 N373 N 0.26813 0.96348 1.10282
 N374 N 0.22795 0.94037 1.12758
 C375 C 0.24271 0.88900 1.13702
 C376 C 0.29346 0.88136 1.11743
 N377 N 0.30773 0.92877 1.09641
 H378 H 0.31757 0.84514 1.11843
 N379 N 0.72013 1.02530 1.13587
 N380 N 0.76063 1.05167 1.15696
 C381 C 0.74736 1.10435 1.15599
 C382 C 0.69707 1.10933 1.13412
 N383 N 0.68157 1.05922 1.12230
 H384 H 0.67471 1.14581 1.12593
 N385 N 0.63235 0.81972 0.87456
 N386 N 0.67532 0.79953 0.85202
 C387 C 0.71664 0.83098 0.86583
 C388 C 0.69772 0.87152 0.89701
 N389 N 0.64502 0.86283 0.90170
 H390 H 0.71936 0.90572 0.91197
   
