data_POSCAR
  _audit_creation_date              2014-09-24
  _audit_creation_method            'ToBaCCo'
  _symmetry_space_group_name_H-M    'P1'
  _symmetry_Int_Tables_number       1
  _symmetry_cell_setting            triclinic
  loop_
  _symmetry_equiv_pos_as_xyz
 x,y,z
_cell_length_a 25.4462
_cell_length_b 26.3170
_cell_length_c 26.9300
_cell_angle_alpha 89.711500
_cell_angle_beta 89.978600
_cell_angle_gamma 90.207700
loop_
  _atom_site_label
  _atom_site_type_symbol
  _atom_site_fract_x
  _atom_site_fract_y
  _atom_site_fract_z
O1 O 0.33529 0.39662 0.06137
 O2 O 0.41919 0.33879 -0.03419
 O3 O 0.35177 0.41193 -0.03297
 O4 O 0.40651 0.32527 0.06092
 O5 O 0.34454 0.26843 0.04617
 O6 O 0.28793 0.35666 -0.04624
 O7 O 0.35683 0.28221 -0.04885
 O8 O 0.27353 0.33935 0.04700
 Cu9 Cu 0.38452 0.37369 0.01558
 Cu10 Cu 0.30955 0.30595 -0.00229
 C11 C 0.28991 0.37814 0.07006
 C12 C 0.40221 0.30039 -0.05763
 C13 C 0.30978 0.39940 -0.05513
 C14 C 0.38559 0.28216 0.06935
 O15 O 0.67523 0.59932 0.04023
 O16 O 0.59142 0.65320 -0.05782
 O17 O 0.67580 0.59867 -0.05657
 O18 O 0.59149 0.65558 0.03966
 O19 O 0.64202 0.72395 0.03976
 O20 O 0.72502 0.66787 -0.05787
 O21 O 0.63922 0.72345 -0.05680
 O22 O 0.72614 0.66743 0.03853
 Cu23 Cu 0.62846 0.61986 -0.00844
 Cu24 Cu 0.68792 0.70270 -0.00931
 C25 C 0.71517 0.62366 0.05573
 C26 C 0.60094 0.69767 -0.07377
 C27 C 0.71502 0.62342 -0.07351
 C28 C 0.60258 0.69941 0.05629
 O29 O 0.67484 0.39963 0.94491
 O30 O 0.59367 0.34780 1.04524
 O31 O 0.67709 0.40187 1.03987
 O32 O 0.59117 0.34256 0.94749
 O33 O 0.63810 0.27219 0.95244
 O34 O 0.72902 0.33485 1.03882
 O35 O 0.64436 0.27982 1.04812
 O36 O 0.72170 0.32912 0.94276
 Cu37 Cu 0.62875 0.37973 0.99390
 Cu38 Cu 0.68818 0.29688 0.99561
 C39 C 0.71223 0.37370 0.92706
 C40 C 0.60605 0.30556 1.06464
 C41 C 0.71810 0.37892 1.05466
 C42 C 0.59978 0.29703 0.93469
 O43 O 0.40062 0.66965 1.05339
 O44 O 0.32830 0.59598 0.95805
 O45 O 0.40873 0.65885 0.95773
 O46 O 0.32509 0.60203 1.05452
 O47 O 0.26539 0.66132 1.04218
 O48 O 0.35594 0.72514 0.95370
 O49 O 0.27684 0.66223 0.94546
 O50 O 0.33974 0.72921 1.04919
 Cu51 Cu 0.37130 0.62531 1.00673
 Cu52 Cu 0.30379 0.70072 0.99673
 C53 C 0.38157 0.71164 1.06800
 C54 C 0.29073 0.61736 0.93490
 C55 C 0.39756 0.70228 0.94023
 C56 C 0.28046 0.62105 1.06423
 O57 O 0.03704 0.35905 0.42453
 O58 O -0.06781 0.42213 0.35528
 O59 O -0.06404 0.34126 0.41099
 O60 O 0.03535 0.42703 0.35414
 O61 O 0.04839 0.36975 0.29576
 O62 O -0.05191 0.28638 0.35037
 O63 O -0.05578 0.36980 0.29253
 O64 O 0.04635 0.30238 0.36497
 Cu65 Cu -0.01595 0.39265 0.39228
 Cu66 Cu -0.00344 0.32776 0.31973
 C67 C 0.05954 0.32024 0.40709
 C68 C -0.07910 0.40762 0.31189
 C69 C -0.07500 0.29902 0.39009
 C70 C 0.05907 0.41246 0.31503
 O71 O 0.06024 0.64447 0.57592
 O72 O -0.04055 0.56375 0.63713
 O73 O -0.04113 0.63414 0.56963
 O74 O 0.06229 0.56643 0.63827
 O75 O 0.05385 0.61948 0.70099
 O76 O -0.04263 0.69300 0.62772
 O77 O -0.04755 0.62180 0.69564
 O78 O 0.05862 0.69663 0.63998
 Cu79 Cu 0.01116 0.59655 0.59920
 Cu80 Cu 0.00499 0.66329 0.67208
 C81 C 0.07644 0.68428 0.59790
 C82 C -0.06145 0.57968 0.67699
 C83 C -0.05871 0.67570 0.58626
 C84 C 0.07449 0.58019 0.68186
 O85 O 1.04452 0.59772 0.31698
 O86 O 0.94424 0.66108 0.39332
 O87 O 0.94311 0.60131 0.31488
 O88 O 1.04530 0.65075 0.39739
 O89 O 1.04634 0.72180 0.35343
 O90 O 0.95277 0.66690 0.26424
 O91 O 0.94574 0.72635 0.34128
 O92 O 1.05491 0.66848 0.27341
 Cu93 Cu 0.99316 0.62070 0.36033
 Cu94 Cu 1.00042 0.70279 0.30321
 C95 C 1.06765 0.62301 0.28303
 C96 C 0.92804 0.70468 0.37994
 C97 C 0.93189 0.62429 0.27473
 C98 C 1.06237 0.69544 0.39018
 O99 O 0.94524 0.31967 0.61132
 O100 O 1.05287 0.38468 0.67772
 O101 O 1.04753 0.31531 0.60709
 O102 O 0.95175 0.38738 0.68175
 O103 O 0.95011 0.32457 0.73655
 O104 O 1.04799 0.25440 0.66373
 O105 O 1.05325 0.32258 0.73327
 O106 O 0.94665 0.25743 0.66664
 Cu107 Cu 0.99956 0.35788 0.63868
 Cu108 Cu 0.99966 0.28382 0.70589
 C109 C 0.92786 0.27735 0.62754
 C110 C 1.07083 0.36477 0.71722
 C111 C 1.06370 0.27227 0.62246
 C112 C 0.93441 0.36778 0.72173
 O113 O 0.39894 0.05853 0.32751
 O114 O 0.33167 -0.04167 0.40122
 O115 O 0.41267 -0.03911 0.34117
 O116 O 0.32521 0.05643 0.39476
 O117 O 0.26692 0.04298 0.33553
 O118 O 0.35882 -0.04746 0.27742
 O119 O 0.27926 -0.05550 0.33720
 O120 O 0.34027 0.04887 0.26784
 Cu121 Cu 0.37280 0.00974 0.37227
 Cu122 Cu 0.30563 -0.00388 0.29846
 C123 C 0.38068 0.07073 0.28503
 C124 C 0.29424 -0.06603 0.38085
 C125 C 0.40128 -0.05896 0.29977
 C126 C 0.28090 0.06541 0.37515
 O127 O 0.68552 -0.04936 0.60475
 O128 O 0.59573 0.04367 0.65899
 O129 O 0.67780 0.04719 0.60555
 O130 O 0.61173 -0.05533 0.67676
 O131 O 0.67088 -0.04750 0.73626
 O132 O 0.73442 0.05537 0.66727
 O133 O 0.64805 0.04992 0.72409
 O134 O 0.74042 -0.04120 0.66771
 Cu135 Cu 0.63667 -0.00599 0.63139
 Cu136 Cu 0.70252 0.00610 0.70510
 C137 C 0.72863 -0.06034 0.62585
 C138 C 0.60633 0.06249 0.70097
 C139 C 0.71786 0.06863 0.62480
 C140 C 0.63003 -0.06846 0.71901
 O141 O 0.32317 1.05810 0.60449
 O142 O 0.39223 0.95466 0.67173
 O143 O 0.34202 0.95927 0.58969
 O144 O 0.39453 1.05067 0.67818
 O145 O 0.32529 1.03992 0.72652
 O146 O 0.26971 0.95146 0.63454
 O147 O 0.31973 0.94018 0.71495
 O148 O 0.25422 1.04582 0.65290
 Cu149 Cu 0.36879 1.00819 0.63073
 Cu150 Cu 0.28611 0.99466 0.68737
 C151 C 0.27631 1.06910 0.61735
 C152 C 0.36696 0.92957 0.70471
 C153 C 0.29728 0.93943 0.59688
 C154 C 0.37033 1.05942 0.71831
 O155 O 0.60451 0.95403 0.32660
 O156 O 0.67529 1.05388 0.39782
 O157 O 0.60930 1.05155 0.32519
 O158 O 0.66084 0.95459 0.40924
 O159 O 0.73287 0.94920 0.36387
 O160 O 0.67606 1.04038 0.27402
 O161 O 0.74301 1.04632 0.34722
 O162 O 0.67665 0.94152 0.28274
 Cu163 Cu 0.63093 1.00396 0.36994
 Cu164 Cu 0.71401 0.99331 0.31225
 C165 C 0.62903 0.93104 0.29214
 C166 C 0.72099 1.06798 0.38358
 C167 C 0.63284 1.06184 0.28492
 C168 C 0.70593 0.93605 0.40170
 C169 C 0.86293 0.78308 0.48151
 C170 C 0.85820 0.78243 0.53408
 C171 C 0.82361 0.81666 0.55698
 C172 C 0.79474 0.85267 0.52940
 C173 C 0.80094 0.85392 0.47713
 C174 C 0.83474 0.81952 0.45426
 H175 H 0.84054 0.82265 0.41447
 H176 H 0.81921 0.81477 0.59694
 C177 C 0.15030 0.22179 0.46728
 C178 C 0.15334 0.22581 0.51978
 C179 C 0.19250 0.19818 0.54500
 C180 C 0.22643 0.16487 0.52002
 C181 C 0.22318 0.16111 0.46770
 C182 C 0.18518 0.18975 0.44219
 H183 H 0.18269 0.18748 0.40208
 H184 H 0.19664 0.20230 0.58479
 C185 C 0.14246 0.78117 0.51171
 C186 C 0.14599 0.78956 0.45981
 C187 C 0.18025 0.82691 0.44152
 C188 C 0.21093 0.85726 0.47312
 C189 C 0.20484 0.85111 0.52511
 C190 C 0.17146 0.81287 0.54350
 H191 H 0.16636 0.80937 0.58334
 H192 H 0.18100 0.83378 0.40182
 C193 C 0.82523 0.23749 0.53028
 C194 C 0.82584 0.23933 0.47776
 C195 C 0.79370 0.20529 0.45091
 C196 C 0.76114 0.16952 0.47542
 C197 C 0.76014 0.16855 0.52796
 C198 C 0.79106 0.20349 0.55441
 H199 H 0.78876 0.20417 0.59455
 H200 H 0.79351 0.20698 0.41072
 C201 C 0.46950 0.85187 0.77692
 C202 C 0.52452 0.84427 0.77469
 C203 C 0.54867 0.81253 0.81006
 C204 C 0.51980 0.78982 0.84857
 C205 C 0.46476 0.79668 0.85066
 C206 C 0.44053 0.82782 0.81510
 H207 H 0.39885 0.83473 0.81890
 H208 H 0.59084 0.80692 0.80893
 C209 C 0.48198 0.16414 0.23167
 C210 C 0.53724 0.15855 0.22826
 C211 C 0.56470 0.18492 0.19102
 C212 C 0.53881 0.21687 0.15756
 C213 C 0.48381 0.22368 0.16143
 C214 C 0.45608 0.19715 0.19854
 H215 H 0.41402 0.20249 0.20190
 H216 H 0.60693 0.18098 0.18787
 C217 C 0.52725 0.13732 0.79691
 C218 C 0.47199 0.13952 0.78970
 C219 C 0.44227 0.17248 0.81969
 C220 C 0.46564 0.20167 0.85707
 C221 C 0.52068 0.19924 0.86369
 C222 C 0.55049 0.16710 0.83378
 H223 H 0.59252 0.16432 0.84015
 H224 H 0.40021 0.17547 0.81454
 C225 C 0.52873 0.86056 0.20926
 C226 C 0.47321 0.85828 0.20413
 C227 C 0.45078 0.82455 0.16990
 C228 C 0.48151 0.79291 0.13966
 C229 C 0.53702 0.79647 0.14319
 C230 C 0.55958 0.82991 0.17784
 H231 H 0.60196 0.83346 0.17841
 H232 H 0.40849 0.82491 0.16535
 C233 C 0.78574 0.47380 0.84944
 C234 C 0.77963 0.52687 0.84295
 C235 C 0.81180 0.55249 0.80863
 C236 C 0.84952 0.52672 0.78029
 C237 C 0.85565 0.47341 0.78632
 C238 C 0.82411 0.44818 0.82171
 H239 H 0.83174 0.40883 0.83018
 H240 H 0.80734 0.59313 0.80350
 C241 C 0.22950 0.47258 0.16115
 C242 C 0.22566 0.52610 0.15758
 C243 C 0.18655 0.55101 0.18505
 C244 C 0.15074 0.52395 0.21540
 C245 C 0.15479 0.47025 0.21856
 C246 C 0.19412 0.44561 0.19151
 H247 H 0.19708 0.40458 0.19402
 H248 H 0.18332 0.59176 0.18155
 C249 C 0.77304 0.52813 0.14837
 C250 C 0.77513 0.47450 0.14422
 C251 C 0.81067 0.44730 0.17395
 C252 C 0.84418 0.47193 0.20715
 C253 C 0.84292 0.52567 0.21096
 C254 C 0.80677 0.55295 0.18170
 H255 H 0.80360 0.59374 0.18560
 H256 H 0.81184 0.40622 0.17247
 C257 C 0.21474 0.51625 0.85988
 C258 C 0.21222 0.46234 0.85799
 C259 C 0.17918 0.43892 0.82316
 C260 C 0.14867 0.46681 0.78906
 C261 C 0.15149 0.52068 0.79060
 C262 C 0.18376 0.54430 0.82606
 H263 H 0.18263 0.58532 0.82829
 H264 H 0.17589 0.39801 0.82477
 C265 C 0.25448 0.40249 0.10576
 C266 C 0.26821 0.44404 0.13109
 H267 H 0.21479 0.38769 0.10863
 H268 H 0.30763 0.45897 0.12705
 C269 C 0.75025 0.60018 0.09280
 C270 C 0.73581 0.55839 0.11792
 H271 H 0.78948 0.61567 0.09719
 H272 H 0.69610 0.54440 0.11354
 C273 C 0.74532 0.39618 0.88816
 C274 C 0.75488 0.44627 0.88811
 H275 H 0.76142 0.37135 0.86020
 H276 H 0.73897 0.46822 0.91847
 C277 C 0.26320 0.59090 0.89452
 C278 C 0.24467 0.54336 0.89962
 H279 H 0.25658 0.61234 0.86077
 H280 H 0.25081 0.52421 0.93480
 C281 C 0.10152 0.29653 0.43641
 C282 C 0.10893 0.24638 0.43698
 H283 H 0.12558 0.32094 0.45940
 H284 H 0.08603 0.22253 0.41235
 C285 C 0.11592 0.71726 0.57473
 C286 C 0.10492 0.74392 0.53363
 H287 H 0.15276 0.72277 0.59410
 H288 H 0.06705 0.73856 0.51598
 C289 C 0.88860 0.73120 0.40935
 C290 C 0.90016 0.75007 0.45416
 H291 H 0.85127 0.73933 0.39181
 H292 H 0.93829 0.74224 0.47035
 C293 C 0.88652 0.24961 0.60061
 C294 C 0.86238 0.26856 0.56040
 H295 H 0.87771 0.21132 0.61311
 H296 H 0.87278 0.30639 0.54800
 C297 C 0.40705 0.10897 0.25360
 C298 C 0.45076 0.13333 0.26755
 H299 H 0.39210 0.11420 0.21625
 H300 H 0.46591 0.12685 0.30453
 C301 C 0.56952 0.09886 0.72311
 C302 C 0.56213 0.10035 0.77218
 H303 H 0.54734 0.12357 0.69869
 H304 H 0.58585 0.07627 0.79598
 C305 C 0.39217 0.88825 0.73252
 C306 C 0.44351 0.88919 0.74315
 H307 H 0.36690 0.85865 0.74716
 H308 H 0.46690 0.92014 0.72818
 C309 C 0.60283 0.89165 0.26226
 C310 C 0.55472 0.89821 0.24288
 H311 H 0.62543 0.85809 0.25374
 H312 H 0.53430 0.93317 0.25119
 C313 C 0.43633 0.27664 0.90525
 C314 C 0.43005 0.22821 0.89178
 H315 H 0.46774 0.29929 0.88984
 H316 H 0.39656 0.20691 0.90571
 C317 C 0.56757 0.71908 0.88702
 C318 C 0.54963 0.76654 0.88965
 H319 H 0.55610 0.69500 0.85632
 H320 H 0.55885 0.78988 0.92154
 C321 C 0.40745 0.74039 0.10760
 C322 C 0.45524 0.76096 0.10127
 H323 H 0.38537 0.74660 0.14134
 H324 H 0.47524 0.75461 0.06636
 C325 C 0.57546 0.28677 0.10695
 C326 C 0.57021 0.23717 0.11590
 H327 H 0.55631 0.31429 0.13051
 H328 H 0.59151 0.21010 0.09339
 C329 C 0.24552 0.10786 0.59063
 C330 C 0.26225 0.13161 0.54944
 H331 H 0.20582 0.11432 0.60370
 H332 H 0.30113 0.12337 0.53553
 C333 C 0.74848 0.10686 0.40785
 C334 C 0.72893 0.13270 0.44641
 H335 H 0.78818 0.11512 0.39549
 H336 H 0.68948 0.12426 0.45906
 C337 C 0.76590 0.90477 0.60176
 C338 C 0.75872 0.88852 0.55509
 H339 H 0.80047 0.89376 0.62252
 H340 H 0.72531 0.90289 0.53486
 C341 C 0.26794 0.89210 0.40679
 C342 C 0.24435 0.89800 0.45082
 H343 H 0.26394 0.85685 0.38659
 H344 H 0.24817 0.93402 0.46980
 C345 C 0.11264 0.39033 0.74518
 C346 C 0.10992 0.43989 0.75654
 H347 H 0.14424 0.36664 0.75844
 H348 H 0.07626 0.46086 0.74307
 C349 C 0.11028 0.59971 0.25488
 C350 C 0.10730 0.55118 0.24064
 H351 H 0.14427 0.62302 0.24667
 H352 H 0.07135 0.53055 0.24854
 C353 C 0.88093 0.43608 0.28415
 C354 C 0.88190 0.43980 0.23472
 H355 H 0.85254 0.45791 0.30507
 H356 H 0.90958 0.41745 0.21350
 C357 C 0.89908 0.54820 0.70287
 C358 C 0.88491 0.55873 0.74961
 H359 H 0.88375 0.51479 0.68444
 H360 H 0.89901 0.59342 0.76669
 C361 C 0.74875 0.60140 0.89167
 C362 C 0.73977 0.55525 0.87227
 H363 H 0.78460 0.62164 0.88235
 H364 H 0.70339 0.53575 0.88124
 C365 C 0.28751 0.43360 0.91114
 C366 C 0.23864 0.42741 0.89359
 H367 H 0.31039 0.46660 0.90031
 H368 H 0.21686 0.39346 0.90397
 C369 C 0.24706 0.59727 0.09864
 C370 C 0.26151 0.55551 0.12419
 H371 H 0.20794 0.61259 0.10320
 H372 H 0.30079 0.54106 0.11881
 C373 C 0.75177 0.40219 0.08847
 C374 C 0.74011 0.44710 0.10912
 H375 H 0.78820 0.38310 0.09727
 H376 H 0.70333 0.46472 0.09921
 C377 C 0.90524 0.70260 0.55736
 C378 C 0.89098 0.75041 0.56750
 H379 H 0.89042 0.68429 0.52428
 H380 H 0.90386 0.76764 0.60194
 C381 C 0.88815 0.26541 0.41087
 C382 C 0.86021 0.27671 0.45152
 H383 H 0.88342 0.22841 0.39392
 H384 H 0.86477 0.31397 0.46774
 C385 C 0.09874 0.24338 0.59438
 C386 C 0.11561 0.25716 0.54897
 H387 H 0.11138 0.20746 0.61008
 H388 H 0.10025 0.29160 0.53287
 C389 C 0.09803 0.71574 0.42390
 C390 C 0.11158 0.76487 0.42276
 H391 H 0.11339 0.69102 0.45264
 H392 H 0.09774 0.78883 0.39261
 C393 C 0.60289 0.89380 0.75037
 C394 C 0.55725 0.87208 0.73764
 H395 H 0.61851 0.88798 0.78737
 H396 H 0.54097 0.87964 0.70120
 C397 C 0.43839 0.90488 0.27749
 C398 C 0.43630 0.89333 0.22924
 H399 H 0.46875 0.88881 0.30089
 H400 H 0.40443 0.90841 0.20695
 C401 C 0.60894 0.09812 0.25004
 C402 C 0.56616 0.12471 0.26287
 H403 H 0.62531 0.10098 0.21304
 H404 H 0.55099 0.12035 0.30012
 C405 C 0.39491 0.09161 0.75634
 C406 C 0.44507 0.10717 0.75230
 H407 H 0.37185 0.10048 0.78889
 H408 H 0.46725 0.09449 0.72064
 C409 C 0.56845 0.72196 0.09453
 C410 C 0.57343 0.77059 0.10838
 H411 H 0.53748 0.69854 0.11019
 H412 H 0.60624 0.79280 0.09436
 C413 C 0.40973 0.24716 0.10569
 C414 C 0.45547 0.25865 0.12751
 H415 H 0.39109 0.21075 0.11272
 H416 H 0.47351 0.29469 0.11879
 C417 C 0.56562 0.27314 0.89795
 C418 C 0.54863 0.22552 0.90385
 H419 H 0.55435 0.29500 0.86547
 H420 H 0.56029 0.20359 0.93616
 C421 C 0.43370 0.72547 0.90375
 C422 C 0.43081 0.77431 0.89003
 H423 H 0.46290 0.70110 0.88719
 H424 H 0.39957 0.79770 0.90481
 C425 C 0.72676 0.89884 0.43742
 C426 C 0.77834 0.89367 0.44466
 H427 H 0.69917 0.87579 0.45840
 H428 H 0.80552 0.91587 0.42230
 C429 C 0.27735 0.90258 0.56068
 C430 C 0.22766 0.88621 0.56202
 H431 H 0.30378 0.88960 0.53192
 H432 H 0.20249 0.89753 0.59249
 C433 C 0.24481 0.10143 0.39913
 C434 C 0.25913 0.12728 0.43979
 H435 H 0.20545 0.10493 0.38428
 H436 H 0.29849 0.12224 0.45401
 C437 C 0.74664 0.10866 0.59794
 C438 C 0.72907 0.12968 0.55573
 H439 H 0.78418 0.12017 0.61321
 H440 H 0.69208 0.11661 0.54065
 C441 C 0.89509 0.60082 0.23936
 C442 C 0.87842 0.55286 0.24580
 H443 H 0.88401 0.62243 0.20673
 H444 H 0.89320 0.53229 0.27752
 C445 C 0.89439 0.39441 0.75077
 C446 C 0.89697 0.44460 0.75895
 H447 H 0.86240 0.37154 0.76509
 H448 H 0.93088 0.46494 0.74483
 C449 C 0.11175 0.54887 0.71062
 C450 C 0.11793 0.55443 0.75969
 H451 H 0.13221 0.51868 0.69152
 H452 H 0.09892 0.58588 0.77822
 C453 C 0.09880 0.44591 0.29162
 C454 C 0.11680 0.43707 0.24562
 H455 H 0.11213 0.47893 0.31194
 H456 H 0.10469 0.40261 0.22687
   
