data_POSCAR
  _audit_creation_date              2014-09-24
  _audit_creation_method            'ToBaCCo'
  _symmetry_space_group_name_H-M    'P1'
  _symmetry_Int_Tables_number       1
  _symmetry_cell_setting            triclinic
  loop_
  _symmetry_equiv_pos_as_xyz
 x,y,z
_cell_length_a 57.5529
_cell_length_b 56.7369
_cell_length_c 57.5523
_cell_angle_alpha 89.997200
_cell_angle_beta 89.992600
_cell_angle_gamma 89.968000
loop_
  _atom_site_label
  _atom_site_type_symbol
  _atom_site_fract_x
  _atom_site_fract_y
  _atom_site_fract_z
C1 C 0.60745 0.62466 0.64262
 C2 C 0.59013 0.64209 0.64235
 C3 C 0.58989 0.65956 0.62502
 C4 C 0.60726 0.65943 0.60784
 C5 C 0.62469 0.64215 0.60790
 C6 C 0.62483 0.62473 0.62540
 C7 C 0.60768 0.60730 0.65998
 C8 C 0.62510 0.58969 0.66059
 C9 C 0.64239 0.59011 0.64310
 C10 C 0.64235 0.60739 0.62566
 C11 C 0.65953 0.60747 0.60835
 C12 C 0.65950 0.62473 0.59081
 C13 C 0.64199 0.64202 0.59074
 H14 H 0.57697 0.64223 0.65583
 H15 H 0.60704 0.67263 0.59421
 H16 H 0.59466 0.60832 0.67351
 H17 H 0.65551 0.57647 0.64225
 H18 H 0.67279 0.59390 0.60836
 H19 H 0.64201 0.65559 0.57747
 C20 C 0.89277 0.37477 0.14246
 C21 C 0.91013 0.35740 0.14225
 C22 C 0.91073 0.33977 0.12485
 C23 C 0.89322 0.34018 0.10759
 C24 C 0.87577 0.35745 0.10763
 C25 C 0.87550 0.37479 0.12513
 C26 C 0.89250 0.39220 0.15975
 C27 C 0.87511 0.40963 0.16003
 C28 C 0.85788 0.40946 0.14271
 C29 C 0.85796 0.39217 0.12529
 C30 C 0.84080 0.39205 0.10799
 C31 C 0.84088 0.37476 0.09050
 C32 C 0.85844 0.35751 0.09047
 H33 H 0.92367 0.35843 0.15525
 H34 H 0.89237 0.32653 0.09448
 H35 H 0.90566 0.39202 0.17323
 H36 H 0.84458 0.42298 0.14261
 H37 H 0.82752 0.40561 0.10798
 H38 H 0.85846 0.34394 0.07721
 C39 C 0.39254 0.12494 -0.14279
 C40 C 0.40987 0.14234 -0.14247
 C41 C 0.41015 0.15972 -0.12504
 C42 C 0.39283 0.15951 -0.10781
 C43 C 0.37543 0.14222 -0.10789
 C44 C 0.37532 0.12482 -0.12541
 C45 C 0.39235 0.10760 -0.16016
 C46 C 0.37509 0.08984 -0.16065
 C47 C 0.35795 0.09007 -0.14301
 C48 C 0.35799 0.10732 -0.12554
 C49 C 0.34077 0.10740 -0.10826
 C50 C 0.34071 0.12471 -0.09077
 C51 C 0.35814 0.14206 -0.09072
 H52 H 0.42332 0.14220 -0.15565
 H53 H 0.39272 0.17303 -0.09450
 H54 H 0.40637 0.10759 -0.17268
 H55 H 0.34385 0.07747 -0.14318
 H56 H 0.32723 0.09413 -0.10858
 H57 H 0.35842 0.15527 -0.07712
 C58 C 0.10733 0.87458 0.35750
 C59 C 0.09000 0.85720 0.35772
 C60 C 0.08940 0.83961 0.37515
 C61 C 0.10688 0.84005 0.39244
 C62 C 0.12430 0.85733 0.39239
 C63 C 0.12452 0.87469 0.37490
 C64 C 0.10758 0.89199 0.34018
 C65 C 0.12489 0.90948 0.33995
 C66 C 0.14204 0.90941 0.35735
 C67 C 0.14196 0.89216 0.37481
 C68 C 0.15910 0.89208 0.39213
 C69 C 0.15907 0.87476 0.40960
 C70 C 0.14159 0.85744 0.40958
 H71 H 0.07649 0.85819 0.34469
 H72 H 0.10774 0.82641 0.40556
 H73 H 0.09413 0.89210 0.32700
 H74 H 0.15563 0.92263 0.35714
 H75 H 0.17266 0.90532 0.39183
 H76 H 0.14126 0.84422 0.42318
 N77 N 0.09847 0.16231 0.11415
 N78 N 0.08945 0.15277 0.13289
 C79 C 0.07063 0.16530 0.13930
 C80 C 0.06765 0.18371 0.12374
 C81 C 0.08572 0.18118 0.10800
 H82 H 0.05980 0.16118 0.15409
 H83 H 0.08949 0.19232 0.09325
 Cu84 Cu 0.10319 0.12487 0.14697
 Cu85 Cu 0.12609 0.14960 0.09911
 Cu86 Cu 0.15084 0.09984 0.12390
 N87 N 0.11725 0.09697 0.16074
 N88 N 0.13585 0.08726 0.15159
 C89 C 0.14193 0.06834 0.16431
 C90 C 0.12632 0.06600 0.18251
 C91 C 0.11089 0.08455 0.17963
 H92 H 0.15676 0.05726 0.16064
 H93 H 0.09601 0.08860 0.19036
 N94 N 0.16344 0.11519 0.09587
 N95 N 0.15405 0.13414 0.08647
 C96 C 0.16659 0.14039 0.06770
 C97 C 0.18479 0.12461 0.06508
 C98 C 0.18218 0.10888 0.08331
 H99 H 0.16263 0.15523 0.05663
 H100 H 0.19323 0.09402 0.08728
 H101 H 0.12142 0.11520 0.10993
 H102 H 0.14017 0.13431 0.12852
 N103 N 0.40198 0.83791 0.61376
 N104 N 0.41137 0.84783 0.63212
 C105 C 0.43022 0.83534 0.63850
 C106 C 0.43285 0.81656 0.62330
 C107 C 0.41453 0.81883 0.60782
 H108 H 0.44129 0.83971 0.65303
 H109 H 0.41045 0.80737 0.59339
 Cu110 Cu 0.39806 0.87610 0.64591
 Cu111 Cu 0.37417 0.85041 0.59895
 Cu112 Cu 0.34943 0.90014 0.62370
 N113 N 0.38356 0.90363 0.65994
 N114 N 0.36460 0.91296 0.65116
 C115 C 0.35831 0.93167 0.66407
 C116 C 0.37416 0.93429 0.68202
 C117 C 0.38995 0.91610 0.67880
 H118 H 0.34318 0.94243 0.66070
 H119 H 0.40506 0.91231 0.68928
 N120 N 0.33664 0.88460 0.59588
 N121 N 0.34603 0.86565 0.58649
 C122 C 0.33338 0.85928 0.56783
 C123 C 0.31512 0.87499 0.56528
 C124 C 0.31780 0.89080 0.58343
 H125 H 0.33734 0.84442 0.55678
 H126 H 0.30674 0.90565 0.58741
 H127 H 0.37872 0.88500 0.60922
 H128 H 0.36075 0.86589 0.62859
 N129 N 0.90132 0.66268 0.38554
 N130 N 0.91009 0.65341 0.36656
 C131 C 0.92896 0.66587 0.36020
 C132 C 0.93220 0.68399 0.37603
 C133 C 0.91425 0.68135 0.39188
 H134 H 0.93943 0.66211 0.34507
 H135 H 0.91089 0.69206 0.40704
 Cu136 Cu 0.89602 0.62595 0.35198
 Cu137 Cu 0.87382 0.64987 0.40067
 Cu138 Cu 0.84893 0.60036 0.37571
 N139 N 0.88219 0.59777 0.33859
 N140 N 0.86378 0.58789 0.34791
 C141 C 0.85782 0.56886 0.33531
 C142 C 0.87336 0.56657 0.31704
 C143 C 0.88860 0.58529 0.31974
 H144 H 0.84335 0.55744 0.33933
 H145 H 0.90318 0.58962 0.30872
 N146 N 0.83645 0.61556 0.40386
 N147 N 0.84596 0.63437 0.41339
 C148 C 0.83353 0.64050 0.43227
 C149 C 0.81526 0.62482 0.43481
 C150 C 0.81772 0.60925 0.41642
 H151 H 0.83738 0.65545 0.44324
 H152 H 0.80678 0.59429 0.41255
 H153 H 0.87861 0.61565 0.38923
 H154 H 0.85934 0.63493 0.37131
 N155 N 0.59791 0.33800 -0.11362
 N156 N 0.58858 0.34789 -0.13203
 C157 C 0.56973 0.33542 -0.13843
 C158 C 0.56704 0.31669 -0.12319
 C159 C 0.58532 0.31896 -0.10766
 H160 H 0.55871 0.33976 -0.15301
 H161 H 0.58935 0.30753 -0.09319
 Cu162 Cu 0.60196 0.37608 -0.14588
 Cu163 Cu 0.62572 0.35045 -0.09879
 Cu164 Cu 0.65066 0.39997 -0.12371
 N165 N 0.61653 0.40353 -0.15995
 N166 N 0.63552 0.41279 -0.15120
 C167 C 0.64186 0.43146 -0.16414
 C168 C 0.62600 0.43412 -0.18209
 C169 C 0.61017 0.41600 -0.17882
 H170 H 0.65701 0.44216 -0.16079
 H171 H 0.59503 0.41226 -0.18929
 N172 N 0.66339 0.38445 -0.09585
 N173 N 0.65387 0.36563 -0.08634
 C174 C 0.66644 0.35931 -0.06761
 C175 C 0.68482 0.37487 -0.06517
 C176 C 0.68228 0.39056 -0.08344
 H177 H 0.66258 0.34435 -0.05667
 H178 H 0.69324 0.40551 -0.08730
 H179 H 0.62130 0.38503 -0.10920
 H180 H 0.63922 0.36575 -0.12848
 C181 C -0.03646 0.28720 0.12448
 C182 C -0.04290 0.29803 0.14529
 C183 C -0.06022 0.31531 0.14547
 C184 C -0.07160 0.32218 0.12473
 C185 C -0.06476 0.31092 0.10385
 C186 C -0.04740 0.29368 0.10379
 C187 C -0.01860 0.26943 0.12435
 C188 C -0.00364 0.25455 0.12425
 C189 C 0.01423 0.23680 0.12413
 C190 C 0.02870 0.23425 0.10476
 C191 C 0.04607 0.21701 0.10461
 C192 C 0.04921 0.20204 0.12388
 C193 C 0.03453 0.20479 0.14327
 C194 C 0.01719 0.22205 0.14337
 H195 H -0.03466 0.29299 0.16147
 H196 H -0.06517 0.32243 0.16217
 H197 H -0.07199 0.31593 0.08724
 H198 H -0.04239 0.28553 0.08752
 H199 H 0.02653 0.24556 0.08975
 H200 H 0.05684 0.21538 0.08931
 H201 H 0.03648 0.19378 0.15849
 H202 H 0.00610 0.22390 0.15848
 C203 C 0.53662 0.71272 0.62451
 C204 C 0.55969 0.71882 0.61976
 C205 C 0.57702 0.70155 0.61991
 C206 C 0.57149 0.67792 0.62485
 C207 C 0.54824 0.67197 0.62962
 C208 C 0.53093 0.68927 0.62943
 C209 C 0.51879 0.73051 0.62433
 C210 C 0.50386 0.74542 0.62416
 C211 C 0.48605 0.76323 0.62396
 C212 C 0.48355 0.77851 0.64287
 C213 C 0.46628 0.79584 0.64268
 C214 C 0.45120 0.79814 0.62354
 C215 C 0.45388 0.78264 0.60462
 C216 C 0.47118 0.76533 0.60485
 H217 H 0.56429 0.73694 0.61599
 H218 H 0.59480 0.70673 0.61647
 H219 H 0.54340 0.65389 0.63318
 H220 H 0.51311 0.68434 0.63307
 H221 H 0.49495 0.77702 0.65778
 H222 H 0.46470 0.80726 0.65764
 H223 H 0.44279 0.78391 0.58951
 H224 H 0.47298 0.75361 0.59010
 C225 C 1.03663 0.78705 0.37554
 C226 C 1.04310 0.79783 0.35472
 C227 C 1.06041 0.81510 0.35453
 C228 C 1.07176 0.82201 0.37528
 C229 C 1.06490 0.81078 0.39616
 C230 C 1.04754 0.79356 0.39623
 C231 C 1.01876 0.76932 0.37568
 C232 C 1.00377 0.75448 0.37578
 C233 C 0.98587 0.73679 0.37588
 C234 C 0.96684 0.73897 0.39085
 C235 C 0.94941 0.72182 0.39093
 C236 C 0.95075 0.70220 0.37600
 C237 C 0.97000 0.70020 0.36102
 C238 C 0.98741 0.71738 0.36098
 H239 H 1.03488 0.79276 0.33854
 H240 H 1.06539 0.82218 0.33782
 H241 H 1.07210 0.81582 0.41278
 H242 H 1.04250 0.78544 0.41251
 H243 H 0.96545 0.75396 0.40243
 H244 H 0.93484 0.72412 0.40259
 H245 H 0.97179 0.68533 0.34940
 H246 H 1.00209 0.71550 0.34934
 C247 C 0.46335 0.21289 -0.12448
 C248 C 0.45299 0.20618 -0.14545
 C249 C 0.43570 0.18888 -0.14566
 C250 C 0.42853 0.17808 -0.12485
 C251 C 0.43905 0.18497 -0.10385
 C252 C 0.45635 0.20225 -0.10369
 C253 C 0.48115 0.23069 -0.12428
 C254 C 0.49606 0.24561 -0.12411
 C255 C 0.51386 0.26341 -0.12389
 C256 C 0.51648 0.27858 -0.14287
 C257 C 0.53375 0.29590 -0.14267
 C258 C 0.54869 0.29829 -0.12344
 C259 C 0.54588 0.28291 -0.10444
 C260 C 0.52859 0.26562 -0.10468
 H261 H 0.45824 0.21435 -0.16164
 H262 H 0.42772 0.18418 -0.16205
 H263 H 0.43411 0.17676 -0.08759
 H264 H 0.46431 0.20728 -0.08736
 H265 H 0.50518 0.27700 -0.15785
 H266 H 0.53543 0.30722 -0.15768
 H267 H 0.55686 0.28427 -0.08925
 H268 H 0.52668 0.25399 -0.08987
 C269 C 0.12537 -0.03744 0.28662
 C270 C 0.12051 -0.06091 0.28095
 C271 C 0.12035 -0.07818 0.29828
 C272 C 0.12506 -0.07218 0.32153
 C273 C 0.12993 -0.04853 0.32705
 C274 C 0.13007 -0.03129 0.30969
 C275 C 0.12552 -0.01968 0.26877
 C276 C 0.12566 -0.00480 0.25381
 C277 C 0.12583 0.01295 0.23595
 C278 C 0.11157 0.03281 0.23792
 C279 C 0.11170 0.05006 0.22057
 C280 C 0.12615 0.04769 0.20096
 C281 C 0.14044 0.02761 0.19918
 C282 C 0.14025 0.01038 0.21656
 H283 H 0.11691 -0.06587 0.26313
 H284 H 0.11683 -0.09628 0.29345
 H285 H 0.13333 -0.04333 0.34482
 H286 H 0.13378 -0.01316 0.31428
 H287 H 0.10036 0.03500 0.25290
 H288 H 0.10061 0.06529 0.22271
 H289 H 0.15166 0.02501 0.18433
 H290 H 0.15134 -0.00496 0.21483
 C291 C 0.62550 0.53717 -0.28658
 C292 C 0.64619 0.54366 -0.29751
 C293 C 0.64612 0.56087 -0.31488
 C294 C 0.62523 0.57211 -0.32175
 C295 C 0.60449 0.56522 -0.31039
 C296 C 0.60468 0.54796 -0.29306
 C297 C 0.62563 0.51944 -0.26869
 C298 C 0.62573 0.50461 -0.25370
 C299 C 0.62584 0.48691 -0.23578
 C300 C 0.64082 0.48908 -0.21677
 C301 C 0.64091 0.47193 -0.19932
 C302 C 0.62596 0.45233 -0.20064
 C303 C 0.61096 0.45035 -0.21987
 C304 C 0.61092 0.46752 -0.23729
 H305 H 0.66247 0.53553 -0.29247
 H306 H 0.66273 0.56589 -0.32210
 H307 H 0.58778 0.57231 -0.31536
 H308 H 0.58850 0.54291 -0.28483
 H309 H 0.65242 0.50405 -0.21540
 H310 H 0.65257 0.47422 -0.18477
 H311 H 0.59934 0.43549 -0.22165
 H312 H 0.59927 0.46565 -0.25196
 C313 C 0.37474 1.03738 0.78645
 C314 C 0.36476 1.03269 0.80808
 C315 C 0.36483 1.04988 0.82548
 C316 C 0.37497 1.07229 0.82165
 C317 C 0.38499 1.07660 0.79958
 C318 C 0.38483 1.05934 0.78225
 C319 C 0.37461 1.01966 0.76857
 C320 C 0.37451 1.00482 0.75357
 C321 C 0.37440 0.98712 0.73566
 C322 C 0.35955 0.98940 0.71656
 C323 C 0.35944 0.97224 0.69913
 C324 C 0.37423 0.95251 0.70055
 C325 C 0.38910 0.95042 0.71987
 C326 C 0.38916 0.96760 0.73728
 H327 H 0.35706 1.01564 0.81159
 H328 H 0.35771 1.04499 0.84218
 H329 H 0.39219 1.09359 0.79508
 H330 H 0.39243 1.06323 0.76546
 H331 H 0.34807 1.00448 0.71511
 H332 H 0.34788 0.97462 0.68450
 H333 H 0.40060 0.93546 0.72173
 H334 H 0.40071 0.96564 0.75203
 C335 C 0.87461 0.46280 0.21326
 C336 C 0.85380 0.45222 0.20625
 C337 C 0.85395 0.43493 0.18894
 C338 C 0.87494 0.42799 0.17842
 C339 C 0.89576 0.43874 0.18561
 C340 C 0.89558 0.45604 0.20291
 C341 C 0.87443 0.48060 0.23107
 C342 C 0.87427 0.49551 0.24600
 C343 C 0.87405 0.51331 0.26381
 C344 C 0.85485 0.51553 0.27854
 C345 C 0.85460 0.53282 0.29585
 C346 C 0.87361 0.54818 0.29867
 C347 C 0.89284 0.54576 0.28373
 C348 C 0.89304 0.52845 0.26644
 H349 H 0.83748 0.45728 0.21420
 H350 H 0.83768 0.42677 0.18399
 H351 H 0.91215 0.43399 0.17763
 H352 H 0.91177 0.46417 0.20817
 H353 H 0.84003 0.50392 0.27662
 H354 H 0.83942 0.53419 0.30683
 H355 H 0.90786 0.55707 0.28542
 H356 H 0.90803 0.52685 0.25515
 C357 C 0.28782 0.12457 -0.03798
 C358 C 0.29799 0.10336 -0.04511
 C359 C 0.31518 0.10338 -0.06228
 C360 C 0.32243 0.12466 -0.07254
 C361 C 0.31210 0.14589 -0.06524
 C362 C 0.29491 0.14582 -0.04808
 C363 C 0.27014 0.12454 -0.02030
 C364 C 0.25532 0.12453 -0.00549
 C365 C 0.23764 0.12454 0.01218
 C366 C 0.23490 0.10496 0.02670
 C367 C 0.21774 0.10496 0.04390
 C368 C 0.20303 0.12458 0.04682
 C369 C 0.20595 0.14418 0.03209
 C370 C 0.22314 0.14413 0.01491
 H371 H 0.29268 0.08682 -0.03736
 H372 H 0.32301 0.08679 -0.06732
 H373 H 0.31710 0.16251 -0.07302
 H374 H 0.28710 0.16234 -0.04274
 H375 H 0.24602 0.08968 0.02471
 H376 H 0.21596 0.08948 0.05471
 H377 H 0.19515 0.15967 0.03387
 H378 H 0.22514 0.15941 0.00379
 C379 C 0.71235 0.62465 0.53799
 C380 C 0.68919 0.62917 0.53206
 C381 C 0.67199 0.62920 0.54922
 C382 C 0.67775 0.62469 0.57257
 C383 C 0.70109 0.62015 0.57834
 C384 C 0.71826 0.62014 0.56116
 C385 C 0.73004 0.62464 0.52032
 C386 C 0.74485 0.62465 0.50550
 C387 C 0.76251 0.62466 0.48780
 C388 C 0.76005 0.61046 0.46810
 C389 C 0.77718 0.61047 0.45088
 C390 C 0.79706 0.62475 0.45311
 C391 C 0.79935 0.63897 0.47303
 C392 C 0.78219 0.63890 0.49024
 H393 H 0.68442 0.63262 0.51417
 H394 H 0.65415 0.63246 0.54419
 H395 H 0.70610 0.61691 0.59620
 H396 H 0.73615 0.61669 0.56595
 H397 H 0.74485 0.59939 0.46602
 H398 H 0.77466 0.59944 0.43577
 H399 H 0.81443 0.65004 0.47552
 H400 H 0.78430 0.64995 0.50545
 C401 C 0.78805 0.37466 0.03767
 C402 C 0.81122 0.37016 0.03175
 C403 C 0.82841 0.37017 0.04891
 C404 C 0.82264 0.37471 0.07225
 C405 C 0.79929 0.37922 0.07802
 C406 C 0.78213 0.37918 0.06083
 C407 C 0.77037 0.37465 0.02000
 C408 C 0.75555 0.37466 0.00520
 C409 C 0.73785 0.37468 -0.01246
 C410 C 0.74027 0.38891 -0.03215
 C411 C 0.72306 0.38899 -0.04930
 C412 C 0.70314 0.37478 -0.04699
 C413 C 0.70091 0.36051 -0.02709
 C414 C 0.71814 0.36049 -0.00997
 H415 H 0.81600 0.36670 0.01387
 H416 H 0.84626 0.36694 0.04389
 H417 H 0.79426 0.38247 0.09586
 H418 H 0.76423 0.38262 0.06561
 H419 H 0.75549 0.39995 -0.03427
 H420 H 0.72555 0.40006 -0.06439
 H421 H 0.68580 0.34949 -0.02455
 H422 H 0.71606 0.34942 0.00524
 C423 C 0.21185 0.87476 0.46248
 C424 C 0.20474 0.85353 0.45237
 C425 C 0.18757 0.85350 0.43519
 C426 C 0.17729 0.87476 0.42788
 C427 C 0.18456 0.89601 0.43816
 C428 C 0.20172 0.89599 0.45535
 C429 C 0.22953 0.87477 0.48015
 C430 C 0.24436 0.87479 0.49495
 C431 C 0.26207 0.87482 0.51260
 C432 C 0.27662 0.85526 0.51532
 C433 C 0.29386 0.85529 0.53243
 C434 C 0.29679 0.87492 0.54711
 C435 C 0.28202 0.89449 0.54421
 C436 C 0.26480 0.89442 0.52708
 H437 H 0.21251 0.83700 0.45772
 H438 H 0.18255 0.83690 0.42739
 H439 H 0.17677 0.91262 0.43312
 H440 H 0.20705 0.91252 0.46312
 H441 H 0.27462 0.83997 0.50423
 H442 H 0.30470 0.83982 0.53420
 H443 H 0.28380 0.91000 0.55499
 H444 H 0.25365 0.90968 0.52509
   
