data_POSCAR
  _audit_creation_date              2014-09-24
  _audit_creation_method            'ToBaCCo'
  _symmetry_space_group_name_H-M    'P1'
  _symmetry_Int_Tables_number       1
  _symmetry_cell_setting            triclinic
  loop_
  _symmetry_equiv_pos_as_xyz
 x,y,z
_cell_length_a 43.9253
_cell_length_b 46.2875
_cell_length_c 34.4529
_cell_angle_alpha 89.973300
_cell_angle_beta 89.308300
_cell_angle_gamma 89.970100
loop_
  _atom_site_label
  _atom_site_type_symbol
  _atom_site_fract_x
  _atom_site_fract_y
  _atom_site_fract_z
C1 C 0.27449 0.27957 0.23259
 C2 C 0.25020 0.26432 0.24982
 C3 C 0.22594 0.27962 0.26702
 C4 C 0.22613 0.30987 0.26736
 C5 C 0.25024 0.32494 0.24977
 C6 C 0.27433 0.30983 0.23221
 C7 C 0.25018 0.23245 0.24985
 C8 C 0.27440 0.21715 0.26642
 C9 C 0.27420 0.18690 0.26685
 C10 C 0.25013 0.17182 0.24995
 C11 C 0.22608 0.18694 0.23300
 C12 C 0.22594 0.21720 0.23333
 H13 H 0.29315 0.26789 0.21894
 H14 H 0.20726 0.26798 0.28068
 H15 H 0.29305 0.22880 0.27955
 H16 H 0.20731 0.22888 0.22016
 H17 H 0.25025 0.34837 0.24976
 H18 H 0.25010 0.14839 0.25000
 C19 C 0.77415 0.78085 0.23256
 C20 C 0.74995 0.76557 0.24988
 C21 C 0.72572 0.78080 0.26726
 C22 C 0.72586 0.81107 0.26771
 C23 C 0.74991 0.82620 0.25001
 C24 C 0.77398 0.81113 0.23224
 C25 C 0.74998 0.73369 0.24984
 C26 C 0.77416 0.71842 0.26651
 C27 C 0.77402 0.68816 0.26685
 C28 C 0.75004 0.67307 0.24977
 C29 C 0.72602 0.68818 0.23272
 C30 C 0.72582 0.71843 0.23313
 H31 H 0.79276 0.76913 0.21881
 H32 H 0.70713 0.76904 0.28097
 H33 H 0.79274 0.73008 0.27978
 H34 H 0.70722 0.73010 0.21989
 H35 H 0.74989 0.84966 0.25006
 H36 H 0.75006 0.64964 0.24974
 C37 C 0.77422 0.27962 0.73398
 C38 C 0.74997 0.26438 0.75126
 C39 C 0.72570 0.27966 0.76846
 C40 C 0.72585 0.30995 0.76875
 C41 C 0.74997 0.32500 0.75108
 C42 C 0.77405 0.30987 0.73352
 C43 C 0.74998 0.23250 0.75132
 C44 C 0.77417 0.21724 0.76800
 C45 C 0.77403 0.18696 0.76840
 C46 C 0.74999 0.17186 0.75135
 C47 C 0.72598 0.18698 0.73431
 C48 C 0.72580 0.21723 0.73467
 H49 H 0.79288 0.26793 0.72033
 H50 H 0.70706 0.26795 0.78214
 H51 H 0.79275 0.22897 0.78119
 H52 H 0.70720 0.22890 0.72143
 H53 H 0.75004 0.34845 0.75095
 H54 H 0.74993 0.14842 0.75130
 C55 C 0.27467 0.78050 0.73230
 C56 C 0.25039 0.76522 0.74950
 C57 C 0.22610 0.78048 0.76669
 C58 C 0.22624 0.81073 0.76707
 C59 C 0.25033 0.82585 0.74952
 C60 C 0.27448 0.81078 0.73193
 C61 C 0.25041 0.73335 0.74949
 C62 C 0.27465 0.71806 0.76602
 C63 C 0.27449 0.68780 0.76638
 C64 C 0.25042 0.67272 0.74948
 C65 C 0.22635 0.68783 0.73257
 C66 C 0.22617 0.71809 0.73295
 H67 H 0.29333 0.76878 0.71868
 H68 H 0.20744 0.76881 0.78033
 H69 H 0.29329 0.72971 0.77916
 H70 H 0.20753 0.72976 0.71981
 H71 H 0.25024 0.84930 0.74959
 H72 H 0.25043 0.64929 0.74947
 C73 C 0.04087 0.04561 0.01440
 H74 H 0.04109 0.04713 -0.01694
 C75 C 0.05946 0.06372 0.03618
 H76 H 0.07413 0.07922 0.02162
 C77 C 0.02161 0.02347 0.07174
 H78 H 0.00664 0.00796 0.08552
 C79 C 0.03985 0.04120 0.09463
 H80 H 0.03910 0.03908 0.12594
 N81 N 0.02285 0.02563 0.03234
 C82 C 0.01186 -0.04260 -0.05382
 H83 H -0.01269 -0.04394 -0.05522
 C84 C 0.02994 -0.06115 -0.07631
 H85 H 0.01935 -0.07677 -0.09526
 C86 C 0.05579 -0.02095 -0.02702
 H87 H 0.06584 -0.00564 -0.00733
 C88 C 0.07467 -0.03907 -0.04896
 H89 H 0.09917 -0.03742 -0.04639
 Zn90 Zn -0.00075 0.00143 0.00017
 N91 N 0.02498 -0.02275 -0.03015
 C92 C -0.02309 0.02371 -0.07132
 N93 N -0.02436 0.02574 -0.03190
 C94 C -0.04240 0.04567 -0.01389
 C95 C -0.06097 0.06388 -0.03561
 C96 C -0.04131 0.04154 -0.09414
 C97 C -0.01332 -0.04275 0.05396
 C98 C -0.03138 -0.06136 0.07640
 C99 C -0.07613 -0.03917 0.04919
 C100 C -0.05727 -0.02100 0.02730
 N101 N -0.02646 -0.02283 0.03039
 H102 H -0.00811 0.00824 -0.08516
 H103 H -0.04264 0.04709 0.01745
 H104 H -0.07565 0.07935 -0.02099
 H105 H -0.04054 0.03952 -0.12547
 H106 H 0.01124 -0.04411 0.05534
 H107 H -0.02076 -0.07704 0.09528
 H108 H -0.10063 -0.03749 0.04665
 H109 H -0.06734 -0.00563 0.00768
 C110 C 0.06164 -0.05928 -0.07391
 C111 C 0.05911 0.06133 0.07664
 C112 C -0.06308 -0.05946 0.07404
 C113 C -0.06059 0.06163 -0.07607
 C114 C 0.04155 0.54574 0.51425
 H115 H 0.04175 0.54720 0.48290
 C116 C 0.06011 0.56393 0.53595
 H117 H 0.07475 0.57942 0.52132
 C118 C 0.02231 0.52372 0.57169
 H119 H 0.00737 0.50822 0.58553
 C120 C 0.04053 0.54152 0.59450
 H121 H 0.03979 0.53948 0.62582
 N122 N 0.02355 0.52579 0.53227
 C123 C 0.01241 0.45741 0.44638
 H124 H -0.01214 0.45608 0.44506
 C125 C 0.03044 0.43879 0.42392
 H126 H 0.01980 0.42313 0.40509
 C127 C 0.05641 0.47911 0.47294
 H128 H 0.06651 0.49446 0.49252
 C129 C 0.07524 0.46091 0.45102
 H130 H 0.09974 0.46256 0.45351
 Zn131 Zn -0.00008 0.50153 0.50022
 N132 N 0.02560 0.47731 0.46991
 C133 C -0.02245 0.52373 0.42872
 N134 N -0.02374 0.52578 0.46813
 C135 C -0.04178 0.54573 0.48610
 C136 C -0.06032 0.56394 0.46436
 C137 C -0.04065 0.54155 0.40586
 C138 C -0.01251 0.45741 0.55411
 C139 C -0.03050 0.43876 0.57658
 C140 C -0.07534 0.46087 0.54948
 C141 C -0.05655 0.47909 0.52755
 N142 N -0.02573 0.47730 0.53056
 H143 H -0.00747 0.50824 0.41491
 H144 H -0.04202 0.54717 0.51745
 H145 H -0.07499 0.57943 0.47894
 H146 H -0.03986 0.53953 0.37454
 H147 H 0.01205 0.45609 0.55542
 H148 H -0.01983 0.42310 0.59542
 H149 H -0.09985 0.46251 0.54700
 H150 H -0.06667 0.49444 0.50795
 C151 C 0.06215 0.44065 0.42622
 C152 C 0.05976 0.56164 0.57641
 C153 C -0.06221 0.44061 0.57429
 C154 C -0.05991 0.56167 0.42389
 C155 C 0.54198 0.04498 0.51473
 H156 H 0.54230 0.04645 0.48339
 C157 C 0.56048 0.06316 0.53655
 H158 H 0.57518 0.07864 0.52202
 C159 C 0.52253 0.02295 0.57205
 H160 H 0.50753 0.00746 0.58580
 C161 C 0.54068 0.04074 0.59498
 H162 H 0.53982 0.03868 0.62629
 N163 N 0.52391 0.02503 0.53264
 C164 C 0.51304 -0.04330 0.44659
 H165 H 0.48849 -0.04464 0.44517
 C166 C 0.53114 -0.06186 0.42413
 H167 H 0.52056 -0.07748 0.40519
 C168 C 0.55695 -0.02162 0.47340
 H169 H 0.56699 -0.00629 0.49307
 C170 C 0.57585 -0.03975 0.45149
 H171 H 0.60035 -0.03808 0.45406
 Zn172 Zn 0.50038 0.00079 0.50044
 N173 N 0.52615 -0.02343 0.47024
 C174 C 0.47819 0.02299 0.42883
 N175 N 0.47683 0.02507 0.46824
 C176 C 0.45875 0.04502 0.48614
 C177 C 0.44022 0.06319 0.46432
 C178 C 0.46001 0.04077 0.40590
 C179 C 0.48769 -0.04331 0.55430
 C180 C 0.46957 -0.06189 0.57673
 C181 C 0.42488 -0.03974 0.54929
 C182 C 0.44380 -0.02160 0.52742
 N183 N 0.47460 -0.02342 0.53063
 H184 H 0.49320 0.00750 0.41508
 H185 H 0.45845 0.04648 0.51748
 H186 H 0.42550 0.07866 0.47885
 H187 H 0.46084 0.03872 0.37458
 H188 H 0.51224 -0.04467 0.55578
 H189 H 0.48014 -0.07754 0.59568
 H190 H 0.40039 -0.03806 0.54666
 H191 H 0.43378 -0.00625 0.50772
 C192 C 0.56284 -0.05997 0.42655
 C193 C 0.55998 0.06085 0.57702
 C194 C 0.43788 -0.05998 0.57425
 C195 C 0.44068 0.06088 0.42386
 C196 C 0.54230 0.54552 0.01346
 H197 H 0.54258 0.54693 -0.01789
 C198 C 0.56078 0.56376 0.03520
 H199 H 0.57546 0.57924 0.02059
 C200 C 0.52291 0.52358 0.07088
 H201 H 0.50793 0.50811 0.08470
 C202 C 0.54105 0.54144 0.09372
 H203 H 0.54022 0.53945 0.12505
 N204 N 0.52426 0.52559 0.03146
 C205 C 0.51323 0.45712 -0.05433
 H206 H 0.48868 0.45581 -0.05572
 C207 C 0.53128 0.43844 -0.07667
 H208 H 0.52066 0.42275 -0.09548
 C209 C 0.55720 0.47882 -0.02770
 H210 H 0.56728 0.49420 -0.00813
 C211 C 0.57605 0.46057 -0.04950
 H212 H 0.60055 0.46219 -0.04693
 Zn213 Zn 0.50068 0.50131 -0.00062
 N214 N 0.52639 0.47705 -0.03081
 C215 C 0.47836 0.52344 -0.07220
 N216 N 0.47707 0.52554 -0.03280
 C217 C 0.45904 0.54551 -0.01487
 C218 C 0.44050 0.56370 -0.03666
 C219 C 0.46017 0.54124 -0.09510
 C220 C 0.48814 0.45724 0.05332
 C221 C 0.47010 0.43863 0.07578
 C222 C 0.42532 0.46072 0.04850
 C223 C 0.44416 0.47891 0.02659
 N224 N 0.47497 0.47712 0.02970
 H225 H 0.49333 0.50792 -0.08597
 H226 H 0.45879 0.54699 0.01648
 H227 H 0.42583 0.57921 -0.02211
 H228 H 0.46096 0.53917 -0.12642
 H229 H 0.51270 0.45592 0.05471
 H230 H 0.48073 0.42298 0.09468
 H231 H 0.40082 0.46236 0.04594
 H232 H 0.43408 0.49424 0.00694
 C233 C 0.56298 0.44027 -0.07427
 C234 C 0.56031 0.56154 0.07567
 C235 C 0.43840 0.44048 0.07338
 C236 C 0.44091 0.56138 -0.07712
 C237 C 0.15944 -0.14369 -0.17701
 N238 N 0.14918 -0.11848 -0.19209
 N239 N 0.12892 -0.10251 -0.17255
 C240 C 0.11832 -0.11127 -0.13733
 N241 N 0.12854 -0.13651 -0.12229
 N242 N 0.14879 -0.15248 -0.14183
 C243 C 0.18234 -0.16016 -0.19718
 C244 C 0.20208 -0.17362 -0.21371
 C245 C 0.09768 -0.09339 -0.11546
 C246 C 0.08093 -0.07802 -0.09671
 C247 C 0.15951 0.35570 0.32327
 N248 N 0.14906 0.34712 0.35864
 N249 N 0.12890 0.36320 0.37817
 C250 C 0.11859 0.38834 0.36292
 N251 N 0.12900 0.39688 0.32752
 N252 N 0.14916 0.38080 0.30799
 C253 C 0.18233 0.33912 0.30311
 C254 C 0.20202 0.32558 0.28658
 C255 C 0.09804 0.40635 0.38476
 C256 C 0.08136 0.42181 0.40347
 C257 C 0.66050 -0.14428 0.32307
 N258 N 0.64989 -0.11924 0.30786
 N259 N 0.62968 -0.10330 0.32751
 C260 C 0.61948 -0.11191 0.36298
 N261 N 0.63004 -0.13697 0.37817
 N262 N 0.65025 -0.15292 0.35851
 C263 C 0.68335 -0.16071 0.30276
 C264 C 0.70307 -0.17414 0.28609
 C265 C 0.59887 -0.09405 0.38494
 C266 C 0.58213 -0.07869 0.40373
 C267 C 0.66044 0.35497 -0.17657
 N268 N 0.64979 0.37984 -0.19222
 N269 N 0.62961 0.39597 -0.17281
 C270 C 0.61948 0.38773 -0.13715
 N271 N 0.63009 0.36284 -0.12153
 N272 N 0.65026 0.34670 -0.14094
 C273 C 0.68329 0.33837 -0.19662
 C274 C 0.70303 0.32482 -0.21308
 C275 C 0.59892 0.40582 -0.11546
 C276 C 0.58222 0.42135 -0.09687
 C277 C -0.16041 0.14265 -0.17807
 N278 N -0.15251 0.11585 -0.19052
 N279 N -0.13202 0.10036 -0.17130
 C280 C -0.11881 0.11120 -0.13905
 N281 N -0.12667 0.13802 -0.12664
 N282 N -0.14716 0.15351 -0.14586
 C283 C -0.18341 0.15883 -0.19780
 C284 C -0.20319 0.17216 -0.21390
 C285 C -0.09774 0.09403 -0.11742
 C286 C -0.08053 0.07938 -0.09881
 C287 C -0.15932 0.64292 0.32156
 N288 N -0.14614 0.65373 0.35385
 N289 N -0.12574 0.63818 0.37316
 C290 C -0.11791 0.61136 0.36075
 N291 N -0.13104 0.60056 0.32842
 N292 N -0.15145 0.61611 0.30912
 C293 C -0.18223 0.65914 0.30175
 C294 C -0.20194 0.67252 0.28558
 C295 C -0.09693 0.59414 0.38245
 C296 C -0.07978 0.57946 0.40112
 C297 C 0.34101 0.14173 0.32140
 N298 N 0.34854 0.11473 0.30940
 N299 N 0.36900 0.09926 0.32869
 C300 C 0.38255 0.11032 0.36057
 N301 N 0.37506 0.13734 0.37254
 N302 N 0.35460 0.15282 0.35324
 C303 C 0.31803 0.15790 0.30162
 C304 C 0.29829 0.17125 0.28549
 C305 C 0.40360 0.09320 0.38231
 C306 C 0.42078 0.07859 0.40101
 C307 C 0.34133 0.64255 -0.17927
 N308 N 0.34886 0.61558 -0.19142
 N309 N 0.36932 0.60005 -0.17220
 C310 C 0.38285 0.61101 -0.14024
 N311 N 0.37535 0.63799 -0.12813
 N312 N 0.35490 0.65353 -0.14736
 C313 C 0.31835 0.65878 -0.19897
 C314 C 0.29860 0.67215 -0.21503
 C315 C 0.40387 0.59381 -0.11858
 C316 C 0.42103 0.57914 -0.09992
 C317 C -0.16068 -0.14405 0.17714
 N318 N -0.15021 -0.11900 0.19240
 N319 N -0.13000 -0.10300 0.17283
 C320 C -0.11966 -0.11157 0.13742
 N321 N -0.13009 -0.13665 0.12219
 N322 N -0.15029 -0.15265 0.14176
 C323 C -0.18353 -0.16054 0.19736
 C324 C -0.20324 -0.17402 0.21394
 C325 C -0.09906 -0.09365 0.11554
 C326 C -0.08234 -0.07824 0.09681
 C327 C -0.15938 0.35558 0.67739
 N328 N -0.14876 0.38051 0.69284
 N329 N -0.12864 0.39659 0.67326
 C330 C -0.11853 0.38824 0.63765
 N331 N -0.12912 0.36328 0.62223
 N332 N -0.14924 0.34720 0.64181
 C333 C -0.18217 0.33903 0.69762
 C334 C -0.20185 0.32551 0.71421
 C335 C -0.09804 0.40627 0.61578
 C336 C -0.08139 0.42175 0.59705
 C337 C 0.34000 -0.14443 0.67712
 N338 N 0.35025 -0.11925 0.69225
 N339 N 0.37051 -0.10328 0.67274
 C340 C 0.38114 -0.11201 0.63752
 N341 N 0.37093 -0.13721 0.62244
 N342 N 0.35066 -0.15319 0.64194
 C343 C 0.31709 -0.16090 0.69725
 C344 C 0.29732 -0.17437 0.71375
 C345 C 0.40180 -0.09411 0.61569
 C346 C 0.41857 -0.07874 0.59699
 C347 C 0.34099 0.35556 0.17628
 N348 N 0.35146 0.38057 0.19165
 N349 N 0.37162 0.39664 0.17212
 C350 C 0.38193 0.38818 0.13664
 N351 N 0.37150 0.36314 0.12130
 N352 N 0.35133 0.34707 0.14083
 C353 C 0.31816 0.33901 0.19644
 C354 C 0.29846 0.32549 0.21297
 C355 C 0.40248 0.40618 0.11482
 C356 C 0.41917 0.42164 0.09612
 C357 C 0.15912 0.14190 0.17871
 N358 N 0.15172 0.11485 0.19062
 N359 N 0.13119 0.09942 0.17142
 C360 C 0.11744 0.11060 0.13972
 N361 N 0.12480 0.13767 0.12785
 N362 N 0.14534 0.15310 0.14706
 C363 C 0.18216 0.15803 0.19840
 C364 C 0.20195 0.17134 0.21444
 C365 C 0.09633 0.09353 0.11807
 C366 C 0.07908 0.07897 0.09942
 C367 C 0.15949 0.64268 0.67827
 N368 N 0.14612 0.65358 0.64615
 N369 N 0.12564 0.63807 0.62696
 C370 C 0.11792 0.61121 0.63933
 N371 N 0.13126 0.60033 0.67149
 N372 N 0.15173 0.61583 0.69068
 C373 C 0.18248 0.65887 0.69795
 C374 C 0.20224 0.67221 0.71400
 C375 C 0.09687 0.59403 0.61772
 C376 C 0.07968 0.57938 0.59913
 C377 C 0.65933 0.14183 0.67958
 N378 N 0.64601 0.15279 0.64745
 N379 N 0.62561 0.13729 0.62812
 C380 C 0.61792 0.11037 0.64033
 N381 N 0.63121 0.09944 0.67250
 N382 N 0.65161 0.11494 0.69183
 C383 C 0.68224 0.15802 0.69941
 C384 C 0.70194 0.17136 0.71559
 C385 C 0.59695 0.09322 0.61858
 C386 C 0.57983 0.07858 0.59986
 C387 C 0.65947 0.64293 0.17796
 N388 N 0.64653 0.65360 0.14541
 N389 N 0.62617 0.63804 0.12611
 C390 C 0.61814 0.61133 0.13878
 N391 N 0.63105 0.60067 0.17137
 N392 N 0.65140 0.61624 0.19067
 C393 C 0.68234 0.65917 0.19778
 C394 C 0.70201 0.67254 0.21397
 C395 C 0.59722 0.59408 0.11709
 C396 C 0.58013 0.57936 0.09843
   
