data_POSCAR
  _audit_creation_date              2014-09-24
  _audit_creation_method            'ToBaCCo'
  _symmetry_space_group_name_H-M    'P1'
  _symmetry_Int_Tables_number       1
  _symmetry_cell_setting            triclinic
  loop_
  _symmetry_equiv_pos_as_xyz
 x,y,z
_cell_length_a 59.6958
_cell_length_b 59.6758
_cell_length_c 59.7135
_cell_angle_alpha 90.012700
_cell_angle_beta 90.014400
_cell_angle_gamma 90.013900
loop_
  _atom_site_label
  _atom_site_type_symbol
  _atom_site_fract_x
  _atom_site_fract_y
  _atom_site_fract_z
O1 O 0.32371 0.35500 0.02151
 O2 O 0.35447 0.32432 -0.02219
 O3 O 0.32359 0.35521 -0.02198
 O4 O 0.35467 0.32421 0.02129
 O5 O 0.32858 0.29795 0.02132
 O6 O 0.29742 0.32905 -0.02202
 O7 O 0.32836 0.29807 -0.02223
 O8 O 0.29755 0.32881 0.02152
 Cu9 Cu 0.34173 0.34231 -0.00035
 Cu10 Cu 0.31035 0.31083 -0.00036
 C11 C 0.30533 0.34721 0.02885
 C12 C 0.34674 0.30591 -0.02954
 C13 C 0.30512 0.34753 -0.02927
 C14 C 0.34701 0.30575 0.02857
 O15 O 0.67633 0.64505 0.02146
 O16 O 0.64559 0.67577 -0.02224
 O17 O 0.67641 0.64482 -0.02203
 O18 O 0.64543 0.67591 0.02125
 O19 O 0.67158 0.70212 0.02126
 O20 O 0.70263 0.67093 -0.02209
 O21 O 0.67175 0.70197 -0.02229
 O22 O 0.70254 0.67119 0.02146
 Cu23 Cu 0.65832 0.65777 -0.00039
 Cu24 Cu 0.68976 0.68918 -0.00042
 C25 C 0.69473 0.65281 0.02879
 C26 C 0.65335 0.69417 -0.02958
 C27 C 0.69489 0.65246 -0.02933
 C28 C 0.65314 0.69436 0.02853
 O29 O 0.64553 0.32429 1.02221
 O30 O 0.67631 0.35503 0.97858
 O31 O 0.64538 0.32422 0.97872
 O32 O 0.67638 0.35521 1.02206
 O33 O 0.70257 0.32909 1.02211
 O34 O 0.67149 0.29798 0.97870
 O35 O 0.70250 0.32887 0.97857
 O36 O 0.67166 0.29808 1.02226
 Cu37 Cu 0.65828 0.34231 1.00040
 Cu38 Cu 0.68968 0.31087 1.00042
 C39 C 0.65327 0.30589 1.02955
 C40 C 0.69471 0.34727 0.97125
 C41 C 0.65307 0.30577 0.97143
 C42 C 0.69484 0.34755 1.02937
 O43 O 0.32387 0.64479 0.97870
 O44 O 0.35471 0.67559 1.02231
 O45 O 0.32385 0.64465 1.02219
 O46 O 0.35481 0.67562 0.97882
 O47 O 0.32870 0.70185 0.97881
 O48 O 0.29766 0.67077 1.02224
 O49 O 0.32858 0.70179 1.02236
 O50 O 0.29769 0.67096 0.97870
 Cu51 Cu 0.34193 0.65754 1.00051
 Cu52 Cu 0.31053 0.68898 1.00054
 C53 C 0.30547 0.65255 0.97139
 C54 C 0.34698 0.69400 1.02964
 C55 C 0.30539 0.65231 1.02950
 C56 C 0.34712 0.69407 0.97154
 O57 O -0.02210 0.35449 0.32406
 O58 O 0.02164 0.32387 0.35483
 O59 O 0.02140 0.35480 0.32400
 O60 O -0.02186 0.32364 0.35496
 O61 O -0.02180 0.29743 0.32885
 O62 O 0.02152 0.32866 0.29779
 O63 O 0.02176 0.29766 0.32869
 O64 O -0.02204 0.32833 0.29787
 Cu65 Cu -0.00024 0.34182 0.34208
 Cu66 Cu -0.00013 0.31039 0.31067
 C67 C -0.02941 0.34671 0.30566
 C68 C 0.02903 0.30549 0.34708
 C69 C 0.02872 0.34713 0.30557
 C70 C -0.02910 0.30514 0.34729
 O71 O 0.02173 0.67588 0.64508
 O72 O -0.02205 0.64533 0.67586
 O73 O -0.02177 0.67611 0.64490
 O74 O 0.02145 0.64501 0.67597
 O75 O 0.02158 0.67120 0.70212
 O76 O -0.02171 0.70238 0.67096
 O77 O -0.02199 0.67153 0.70200
 O78 O 0.02185 0.70214 0.67117
 Cu79 Cu -0.00017 0.65795 0.65784
 Cu80 Cu -0.00006 0.68945 0.68919
 C81 C 0.02912 0.69428 0.65279
 C82 C -0.02937 0.65315 0.69423
 C83 C -0.02901 0.69463 0.65252
 C84 C 0.02876 0.65272 0.69439
 O85 O 1.02205 0.64547 0.32401
 O86 O 0.97838 0.67613 0.35483
 O87 O 0.97855 0.64523 0.32397
 O88 O 1.02187 0.67627 0.35496
 O89 O 1.02185 0.70251 0.32889
 O90 O 0.97845 0.67139 0.29780
 O91 O 0.97829 0.70236 0.32873
 O92 O 1.02202 0.67165 0.29786
 Cu93 Cu 1.00022 0.65814 0.34206
 Cu94 Cu 1.00014 0.68961 0.31069
 C95 C 1.02936 0.65325 0.30563
 C96 C 0.97101 0.69453 0.34712
 C97 C 0.97123 0.65293 0.30555
 C98 C 1.02915 0.69476 0.34732
 O99 O 0.97810 0.32398 0.64482
 O100 O 1.02179 0.35462 0.67571
 O101 O 1.02160 0.32382 0.64475
 O102 O 0.97828 0.35488 0.67571
 O103 O 0.97815 0.32870 0.70187
 O104 O 1.02153 0.29756 0.67081
 O105 O 1.02171 0.32842 0.70186
 O106 O 0.97797 0.29774 0.67091
 Cu107 Cu 0.99995 0.34195 0.65764
 Cu108 Cu 0.99983 0.31047 0.68899
 C109 C 0.97072 0.30558 0.65252
 C110 C 1.02908 0.34682 0.69411
 C111 C 1.02884 0.30532 0.65238
 C112 C 0.97095 0.34717 0.69413
 O113 O 0.35468 0.02207 0.32407
 O114 O 0.32393 -0.02167 0.35475
 O115 O 0.35487 -0.02145 0.32396
 O116 O 0.32385 0.02185 0.35499
 O117 O 0.29764 0.02189 0.32887
 O118 O 0.32876 -0.02147 0.29773
 O119 O 0.29775 -0.02169 0.32860
 O120 O 0.32853 0.02211 0.29788
 Cu121 Cu 0.34196 0.00020 0.34207
 Cu122 Cu 0.31053 0.00022 0.31064
 C123 C 0.34692 0.02942 0.30569
 C124 C 0.30554 -0.02901 0.34698
 C125 C 0.34719 -0.02872 0.30551
 C126 C 0.30541 0.02913 0.34731
 O127 O 0.64533 0.02200 0.67594
 O128 O 0.67613 -0.02171 0.64529
 O129 O 0.64518 -0.02151 0.67607
 O130 O 0.67615 0.02180 0.64501
 O131 O 0.70237 0.02192 0.67113
 O132 O 0.67129 -0.02146 0.70230
 O133 O 0.70231 -0.02166 0.67145
 O134 O 0.67148 0.02212 0.70213
 Cu135 Cu 0.65807 0.00014 0.65795
 Cu136 Cu 0.68949 0.00024 0.68939
 C137 C 0.65307 0.02939 0.69432
 C138 C 0.69453 -0.02902 0.65307
 C139 C 0.65287 -0.02875 0.69453
 C140 C 0.69459 0.02912 0.65268
 O141 O 0.32363 1.02162 0.64545
 O142 O 0.35448 0.97802 0.67621
 O143 O 0.32366 0.97811 0.64528
 O144 O 0.35458 1.02153 0.67623
 O145 O 0.32847 1.02153 0.70246
 O146 O 0.29744 0.97804 0.67139
 O147 O 0.32833 0.97795 0.70239
 O148 O 0.29745 1.02162 0.67160
 Cu149 Cu 0.34171 0.99982 0.65817
 Cu150 Cu 0.31029 0.99978 0.68959
 C151 C 0.30523 1.02894 0.65321
 C152 C 0.34674 0.97067 0.69460
 C153 C 0.30523 0.97079 0.65296
 C154 C 0.34689 1.02882 0.69467
 O155 O 0.64553 0.97841 0.32421
 O156 O 0.67641 1.02198 0.35504
 O157 O 0.64544 1.02192 0.32424
 O158 O 0.67636 0.97847 0.35515
 O159 O 0.70258 0.97843 0.32904
 O160 O 0.67155 1.02195 0.29803
 O161 O 0.70257 1.02201 0.32891
 O162 O 0.67168 0.97837 0.29803
 Cu163 Cu 0.65832 1.00019 0.34228
 Cu164 Cu 0.68973 1.00019 0.31087
 C165 C 0.65327 0.97108 0.30580
 C166 C 0.69484 1.02932 0.34733
 C167 C 0.65313 1.02923 0.30581
 C168 C 0.69479 0.97116 0.34746
 O169 O 0.82426 0.85453 0.52237
 O170 O 0.85501 0.82379 0.47870
 O171 O 0.82419 0.85472 0.47888
 O172 O 0.85520 0.82370 0.52219
 O173 O 0.82908 0.79746 0.52220
 O174 O 0.79797 0.82858 0.47883
 O175 O 0.82886 0.79758 0.47865
 O176 O 0.79806 0.82837 0.52238
 Cu177 Cu 0.84229 0.84181 0.50054
 Cu178 Cu 0.81086 0.81036 0.50052
 C179 C 0.80586 0.84677 0.52969
 C180 C 0.84725 0.80539 0.47135
 C181 C 0.80575 0.84702 0.47159
 C182 C 0.84751 0.80524 0.52946
 O183 O 0.14500 0.17622 0.47864
 O184 O 0.17569 0.14544 0.52233
 O185 O 0.14476 0.17629 0.52213
 O186 O 0.17582 0.14529 0.47884
 O187 O 0.20204 0.17142 0.47886
 O188 O 0.17089 0.20251 0.52222
 O189 O 0.20189 0.17159 0.52241
 O190 O 0.17115 0.20242 0.47867
 Cu191 Cu 0.15769 0.15819 0.50048
 Cu192 Cu 0.18913 0.18962 0.50055
 C193 C 0.15277 0.19462 0.47132
 C194 C 0.19408 0.15319 0.52969
 C195 C 0.15244 0.19474 0.52943
 C196 C 0.19427 0.15299 0.47159
 O197 O 0.14519 0.82354 0.52130
 O198 O 0.17598 0.85440 0.47775
 O199 O 0.14505 0.82355 0.47781
 O200 O 0.17600 0.85448 0.52123
 O201 O 0.20222 0.82836 0.52124
 O202 O 0.17117 0.79733 0.47775
 O203 O 0.20218 0.82825 0.47769
 O204 O 0.17134 0.79734 0.52130
 Cu205 Cu 0.15793 0.84162 0.49952
 Cu206 Cu 0.18936 0.81018 0.49949
 C207 C 0.15295 0.80513 0.52861
 C208 C 0.19439 0.84666 0.47042
 C209 C 0.15274 0.80512 0.47050
 C210 C 0.19444 0.84678 0.52853
 O211 O 0.82398 0.14519 0.47734
 O212 O 0.85478 0.17607 0.52091
 O213 O 0.82396 0.14513 0.52083
 O214 O 0.85493 0.17604 0.47742
 O215 O 0.82881 0.20226 0.47735
 O216 O 0.79774 0.17126 0.52082
 O217 O 0.82864 0.20227 0.52090
 O218 O 0.79779 0.17134 0.47726
 Cu219 Cu 0.84204 0.15798 0.49912
 Cu220 Cu 0.81061 0.18942 0.49907
 C221 C 0.80558 0.15291 0.47001
 C222 C 0.84703 0.19449 0.52822
 C223 C 0.80552 0.15284 0.52811
 C224 C 0.84725 0.19448 0.47011
 O225 O 0.47805 0.85450 0.82406
 O226 O 0.52177 0.82373 0.85473
 O227 O 0.52155 0.85470 0.82396
 O228 O 0.47826 0.82365 0.85496
 O229 O 0.47820 0.79744 0.82883
 O230 O 0.52155 0.82860 0.79772
 O231 O 0.52177 0.79755 0.82856
 O232 O 0.47799 0.82837 0.79785
 Cu233 Cu 0.49991 0.84177 0.84205
 Cu234 Cu 0.49987 0.81035 0.81060
 C235 C 0.47070 0.84676 0.80567
 C236 C 0.52910 0.80534 0.84694
 C237 C 0.52882 0.84703 0.80551
 C238 C 0.47097 0.80520 0.84727
 O239 O 0.52183 0.17639 0.14551
 O240 O 0.47815 0.14563 0.17624
 O241 O 0.47833 0.17642 0.14527
 O242 O 0.52165 0.14549 0.17635
 O243 O 0.52165 0.17165 0.20253
 O244 O 0.47825 0.20268 0.17136
 O245 O 0.47808 0.17182 0.20240
 O246 O 0.52182 0.20263 0.17162
 Cu247 Cu 0.49999 0.15835 0.15822
 Cu248 Cu 0.49994 0.18983 0.18961
 C249 C 0.52915 0.19481 0.15325
 C250 C 0.47080 0.15340 0.19461
 C251 C 0.47103 0.19488 0.15293
 C252 C 0.52892 0.15321 0.19478
 O253 O 0.47827 0.17640 0.85462
 O254 O 0.52187 0.14558 0.82383
 O255 O 0.52177 0.17641 0.85477
 O256 O 0.47837 0.14545 0.82383
 O257 O 0.47834 0.17157 0.79761
 O258 O 0.52181 0.20264 0.82866
 O259 O 0.52190 0.17174 0.79765
 O260 O 0.47824 0.20260 0.82847
 Cu261 Cu 0.50007 0.15834 0.84189
 Cu262 Cu 0.50008 0.18977 0.81047
 C263 C 0.47094 0.19481 0.84686
 C264 C 0.52919 0.15333 0.80544
 C265 C 0.52907 0.19486 0.84709
 C266 C 0.47107 0.15314 0.80540
 O267 O 0.47851 0.82390 0.14529
 O268 O 0.52212 0.85480 0.17604
 O269 O 0.52201 0.82394 0.14512
 O270 O 0.47862 0.85488 0.17608
 O271 O 0.47864 0.82878 0.20231
 O272 O 0.52209 0.79773 0.17124
 O273 O 0.52220 0.82866 0.20224
 O274 O 0.47853 0.79773 0.17145
 Cu275 Cu 0.50032 0.84200 0.15801
 Cu276 Cu 0.50038 0.81059 0.18944
 C277 C 0.47120 0.80549 0.15306
 C278 C 0.52947 0.84707 0.19444
 C279 C 0.52933 0.80551 0.15281
 C280 C 0.47135 0.84719 0.19452
 O281 O 0.82392 0.47841 0.85469
 O282 O 0.85453 0.52215 0.82389
 O283 O 0.82376 0.52192 0.85487
 O284 O 0.85477 0.47863 0.82379
 O285 O 0.82859 0.47855 0.79764
 O286 O 0.79749 0.52191 0.82880
 O287 O 0.82832 0.52213 0.79776
 O288 O 0.79766 0.47833 0.82861
 Cu289 Cu 0.84188 0.50028 0.84193
 Cu290 Cu 0.81038 0.50022 0.81057
 C291 C 0.80552 0.47104 0.84698
 C292 C 0.84672 0.52947 0.80552
 C293 C 0.80529 0.52918 0.84722
 C294 C 0.84705 0.47133 0.80537
 O295 O 0.14546 0.52213 0.17605
 O296 O 0.17608 0.47837 0.14530
 O297 O 0.14517 0.47862 0.17613
 O298 O 0.17629 0.52188 0.14514
 O299 O 0.20251 0.52186 0.17125
 O300 O 0.17130 0.47852 0.20233
 O301 O 0.20229 0.47828 0.17143
 O302 O 0.17161 0.52210 0.20224
 Cu303 Cu 0.15812 0.50026 0.15803
 Cu304 Cu 0.18956 0.50018 0.18945
 C305 C 0.15324 0.52945 0.19444
 C306 C 0.19446 0.47099 0.15304
 C307 C 0.15285 0.47131 0.19457
 C308 C 0.19475 0.52913 0.15282
 O309 O 0.82392 0.52158 0.14526
 O310 O 0.85457 0.47789 0.17608
 O311 O 0.82378 0.47807 0.14513
 O312 O 0.85481 0.52141 0.17612
 O313 O 0.82866 0.52151 0.20230
 O314 O 0.79753 0.47810 0.17122
 O315 O 0.82840 0.47793 0.20224
 O316 O 0.79770 0.52168 0.17137
 Cu317 Cu 0.84190 0.49973 0.15803
 Cu318 Cu 0.81044 0.49981 0.18941
 C319 C 0.80553 0.52895 0.15298
 C320 C 0.84679 0.47058 0.19447
 C321 C 0.80531 0.47081 0.15281
 C322 C 0.84711 0.52873 0.19454
 O323 O 0.14521 0.47776 0.82406
 O324 O 0.17591 0.52143 0.85492
 O325 O 0.14502 0.52128 0.82405
 O326 O 0.17601 0.47791 0.85502
 O327 O 0.20226 0.47793 0.82894
 O328 O 0.17117 0.52136 0.79787
 O329 O 0.20214 0.52151 0.82881
 O330 O 0.17138 0.47779 0.79791
 Cu331 Cu 0.15791 0.49959 0.84213
 Cu332 Cu 0.18937 0.49965 0.81076
 C333 C 0.15298 0.47046 0.80567
 C334 C 0.19432 0.52879 0.84721
 C335 C 0.15272 0.52859 0.80563
 C336 C 0.19447 0.47065 0.84735
 N337 N 0.28876 0.39190 0.06790
 C338 C 0.26864 0.38442 0.07532
 N339 N 0.26076 0.36448 0.06779
 N340 N 0.27262 0.35242 0.05322
 C341 C 0.29273 0.35992 0.04568
 N342 N 0.30061 0.37985 0.05334
 C343 C 0.25542 0.39800 0.09008
 C344 C 0.24430 0.40989 0.10202
 C345 C 0.23109 0.42459 0.11567
 N346 N 0.23900 0.43207 0.13560
 N347 N 0.22716 0.44660 0.14772
 C348 C 0.20703 0.45416 0.14029
 N349 N 0.19912 0.44656 0.12036
 N350 N 0.21096 0.43203 0.10825
 N351 N 0.71126 0.60811 0.06783
 C352 C 0.73140 0.61555 0.07523
 N353 N 0.73931 0.63547 0.06770
 N354 N 0.72746 0.64755 0.05314
 C355 C 0.70732 0.64008 0.04561
 N356 N 0.69941 0.62017 0.05327
 C357 C 0.74461 0.60195 0.08999
 C358 C 0.75571 0.59005 0.10192
 C359 C 0.76892 0.57533 0.11558
 N360 N 0.78905 0.56789 0.10817
 N361 N 0.80088 0.55336 0.12029
 C362 C 0.79296 0.54577 0.14021
 N363 N 0.77283 0.55333 0.14763
 N364 N 0.76099 0.56786 0.13550
 N365 N 0.71128 0.39197 0.93222
 C366 C 0.73140 0.38450 0.92480
 N367 N 0.73929 0.36458 0.93233
 N368 N 0.72743 0.35251 0.94690
 C369 C 0.70731 0.35999 0.95443
 N370 N 0.69943 0.37991 0.94678
 C371 C 0.74461 0.39809 0.91003
 C372 C 0.75572 0.40997 0.89808
 C373 C 0.76892 0.42467 0.88441
 N374 N 0.78907 0.43209 0.89179
 N375 N 0.80090 0.44662 0.87966
 C376 C 0.79296 0.45422 0.85976
 N377 N 0.77280 0.44667 0.85235
 N378 N 0.76097 0.43214 0.86449
 N379 N 0.26080 0.63518 0.93255
 C380 C 0.26867 0.61524 0.92503
 N381 N 0.28880 0.60778 0.93243
 N382 N 0.30069 0.61986 0.94696
 C383 C 0.29282 0.63980 0.95459
 N384 N 0.27269 0.64728 0.94708
 C385 C 0.25543 0.60164 0.91029
 C386 C 0.24429 0.58975 0.89835
 C387 C 0.23105 0.57507 0.88468
 N388 N 0.21090 0.56765 0.89208
 N389 N 0.19903 0.55316 0.87994
 C390 C 0.20693 0.54557 0.86001
 N391 N 0.22708 0.55311 0.85259
 N392 N 0.23895 0.56761 0.86474
 N393 N 0.06796 0.28900 0.39190
 C394 C 0.07541 0.26887 0.38448
 N395 N 0.06795 0.26095 0.36454
 N396 N 0.05342 0.27279 0.35241
 C397 C 0.04585 0.29292 0.35985
 N398 N 0.05344 0.30084 0.37978
 C399 C 0.09011 0.25565 0.39814
 C400 C 0.10199 0.24454 0.41009
 C401 C 0.11557 0.23132 0.42485
 N402 N 0.10811 0.21118 0.43225
 N403 N 0.12016 0.19933 0.44681
 C404 C 0.14006 0.20723 0.45449
 N405 N 0.14755 0.22736 0.44697
 N406 N 0.13548 0.23922 0.43240
 N407 N 0.06806 0.73880 0.63529
 C408 C 0.07551 0.73085 0.61537
 N409 N 0.06806 0.71071 0.60798
 N410 N 0.05353 0.69888 0.62010
 C411 C 0.04595 0.70683 0.64002
 N412 N 0.05352 0.72697 0.64743
 C413 C 0.09021 0.74405 0.60170
 C414 C 0.10210 0.75517 0.58975
 C415 C 0.11568 0.76839 0.57499
 N416 N 0.10823 0.78852 0.56759
 N417 N 0.12029 0.80039 0.55305
 C418 C 0.14021 0.79250 0.54540
 N419 N 0.14768 0.77237 0.55292
 N420 N 0.13560 0.76050 0.56747
 N421 N 0.93215 0.73911 0.36462
 C422 C 0.92469 0.73118 0.38455
 N423 N 0.93212 0.71104 0.39194
 N424 N 0.94663 0.69919 0.37982
 C425 C 0.95422 0.70711 0.35990
 N426 N 0.94667 0.72726 0.35248
 C427 C 0.90999 0.74440 0.39820
 C428 C 0.89811 0.75551 0.41015
 C429 C 0.88451 0.76872 0.42490
 N430 N 0.86459 0.76082 0.43241
 N431 N 0.85251 0.77267 0.44697
 C432 C 0.85998 0.79280 0.45452
 N433 N 0.87990 0.80070 0.44689
 N434 N 0.89197 0.78885 0.43234
 N435 N 0.93190 0.28905 0.60760
 C436 C 0.92446 0.26890 0.61498
 N437 N 0.93188 0.26098 0.63493
 N438 N 0.94637 0.27284 0.64710
 C439 C 0.95393 0.29299 0.63970
 N440 N 0.94638 0.30090 0.61976
 C441 C 0.90978 0.25567 0.60129
 C442 C 0.89791 0.24454 0.58933
 C443 C 0.88432 0.23130 0.57458
 N444 N 0.89177 0.21116 0.56719
 N445 N 0.87970 0.19927 0.55265
 C446 C 0.85978 0.20714 0.54500
 N447 N 0.85231 0.22728 0.55251
 N448 N 0.86439 0.23917 0.56705
 N449 N 0.36429 0.06832 0.26110
 C450 C 0.38424 0.07581 0.26898
 N451 N 0.39169 0.06840 0.28910
 N452 N 0.37960 0.05387 0.30097
 C453 C 0.35967 0.04624 0.29309
 N454 N 0.35219 0.05378 0.27296
 C455 C 0.39785 0.09053 0.25575
 C456 C 0.40976 0.10244 0.24461
 C457 C 0.42446 0.11606 0.23136
 N458 N 0.43188 0.10860 0.21125
 N459 N 0.44640 0.12069 0.19937
 C460 C 0.45400 0.14065 0.20723
 N461 N 0.44646 0.14814 0.22735
 N462 N 0.43194 0.13603 0.23923
 N463 N 0.60825 0.06829 0.71090
 C464 C 0.61570 0.07574 0.73102
 N465 N 0.63566 0.06829 0.73889
 N466 N 0.64778 0.05377 0.72703
 C467 C 0.64031 0.04620 0.70691
 N468 N 0.62035 0.05377 0.69904
 C469 C 0.60207 0.09045 0.74425
 C470 C 0.59017 0.10235 0.75539
 C471 C 0.57546 0.11597 0.76864
 N472 N 0.56798 0.13593 0.76078
 N473 N 0.55348 0.14804 0.77267
 C474 C 0.54597 0.14057 0.79280
 N475 N 0.55357 0.12062 0.80066
 N476 N 0.56807 0.10852 0.78877
 N477 N 0.39156 0.93179 0.71124
 C478 C 0.38411 0.92437 0.73136
 N479 N 0.36416 0.93185 0.73923
 N480 N 0.35205 0.94636 0.72735
 C481 C 0.35951 0.95389 0.70723
 N482 N 0.37946 0.94630 0.69936
 C483 C 0.39774 0.90966 0.74460
 C484 C 0.40964 0.89775 0.75573
 C485 C 0.42435 0.88412 0.76896
 N486 N 0.43177 0.89156 0.78909
 N487 N 0.44629 0.87946 0.80096
 C488 C 0.45389 0.85952 0.79307
 N489 N 0.44635 0.85206 0.77294
 N490 N 0.43183 0.86418 0.76107
 N491 N 0.60842 0.93223 0.28907
 C492 C 0.61587 0.92484 0.26894
 N493 N 0.63583 0.93231 0.26110
 N494 N 0.64795 0.94681 0.27301
 C495 C 0.64049 0.95432 0.29314
 N496 N 0.62053 0.94672 0.30098
 C497 C 0.60225 0.91013 0.25567
 C498 C 0.59036 0.89821 0.24452
 C499 C 0.57568 0.88456 0.23125
 N500 N 0.56824 0.86458 0.23911
 N501 N 0.55376 0.85243 0.22721
 C502 C 0.54623 0.85988 0.20708
 N503 N 0.55380 0.87985 0.19923
 N504 N 0.56827 0.89199 0.21112
 N505 N 0.39156 0.28934 0.93158
 C506 C 0.38416 0.26917 0.92420
 N507 N 0.36423 0.26126 0.93168
 N508 N 0.35209 0.27313 0.94617
 C509 C 0.35951 0.29330 0.95367
 N510 N 0.37943 0.30121 0.94607
 C511 C 0.39783 0.25593 0.90953
 C512 C 0.40977 0.24479 0.89767
 C513 C 0.42453 0.23155 0.88410
 N514 N 0.43204 0.23943 0.86417
 N515 N 0.44659 0.22755 0.85210
 C516 C 0.45413 0.20743 0.85959
 N517 N 0.44650 0.19956 0.87952
 N518 N 0.43195 0.21143 0.89157
 N519 N 0.63591 0.73882 0.93163
 C520 C 0.61596 0.73094 0.92416
 N521 N 0.60853 0.71079 0.93155
 N522 N 0.62064 0.69890 0.94603
 C523 C 0.64059 0.70678 0.95363
 N524 N 0.64804 0.72693 0.94612
 C525 C 0.60230 0.74420 0.90950
 C526 C 0.59035 0.75535 0.89764
 C527 C 0.57559 0.76859 0.88409
 N528 N 0.56818 0.78871 0.89158
 N529 N 0.55361 0.80058 0.87955
 C530 C 0.54594 0.79272 0.85963
 N531 N 0.55348 0.77260 0.85212
 N532 N 0.56805 0.76072 0.86416
 N533 N 0.36452 0.73874 0.06833
 C534 C 0.38448 0.73087 0.07578
 N535 N 0.39189 0.71071 0.06841
 N536 N 0.37974 0.69879 0.05396
 C537 C 0.35979 0.70666 0.04639
 N538 N 0.35236 0.72682 0.05388
 C539 C 0.39816 0.74416 0.09042
 C540 C 0.41010 0.75533 0.10227
 C541 C 0.42485 0.76861 0.11583
 N542 N 0.43223 0.78874 0.10835
 N543 N 0.44676 0.80066 0.12040
 C544 C 0.45441 0.79282 0.14033
 N545 N 0.44690 0.77269 0.14784
 N546 N 0.43237 0.76077 0.13577
 N547 N 0.60846 0.28929 0.06844
 C548 C 0.61588 0.26914 0.07584
 N549 N 0.63582 0.26124 0.06836
 N550 N 0.64794 0.27312 0.05385
 C551 C 0.64050 0.29327 0.04633
 N552 N 0.62057 0.30116 0.05394
 C553 C 0.60224 0.25590 0.09052
 C554 C 0.59031 0.24477 0.10241
 C555 C 0.57557 0.23153 0.11600
 N556 N 0.56817 0.21139 0.10856
 N557 N 0.55362 0.19952 0.12062
 C558 C 0.54597 0.20742 0.14052
 N559 N 0.55348 0.22757 0.14799
 N560 N 0.56803 0.23944 0.13591
 N561 N 0.26059 0.06783 0.63593
 C562 C 0.26846 0.07536 0.61600
 N563 N 0.28858 0.06795 0.60853
 N564 N 0.30045 0.05340 0.62057
 C565 C 0.29260 0.04575 0.64049
 N566 N 0.27248 0.05327 0.64799
 C567 C 0.25522 0.09012 0.60244
 C568 C 0.24407 0.10207 0.59058
 C569 C 0.23083 0.11574 0.57593
 N570 N 0.21068 0.10833 0.56852
 N571 N 0.19880 0.12046 0.55404
 C572 C 0.20669 0.14041 0.54647
 N573 N 0.22684 0.14785 0.55399
 N574 N 0.23872 0.13570 0.56848
 N575 N 0.71094 0.06742 0.39144
 C576 C 0.73100 0.07493 0.38390
 N577 N 0.73879 0.06749 0.36391
 N578 N 0.72691 0.05291 0.35186
 C579 C 0.70685 0.04523 0.35943
 N580 N 0.69906 0.05285 0.37941
 C581 C 0.74426 0.08971 0.39745
 C582 C 0.75542 0.10167 0.40928
 C583 C 0.76870 0.11537 0.42391
 N584 N 0.78886 0.10796 0.43128
 N585 N 0.80078 0.12012 0.44572
 C586 C 0.79292 0.14009 0.45328
 N587 N 0.77276 0.14752 0.44578
 N588 N 0.76084 0.13534 0.43134
 N589 N 0.73918 0.93208 0.63587
 C590 C 0.73133 0.92452 0.61594
 N591 N 0.71120 0.93190 0.60845
 N592 N 0.69931 0.94646 0.62047
 C593 C 0.70716 0.95414 0.64039
 N594 N 0.72729 0.94664 0.64790
 C595 C 0.74459 0.90976 0.60239
 C596 C 0.75575 0.89782 0.59055
 C597 C 0.76903 0.88417 0.57590
 N598 N 0.78918 0.89160 0.56854
 N599 N 0.80109 0.87948 0.55407
 C600 C 0.79322 0.85953 0.54646
 N601 N 0.77306 0.85208 0.55394
 N602 N 0.76116 0.86421 0.56842
 N603 N 0.26095 0.93203 0.36424
 C604 C 0.26882 0.92450 0.38416
 N605 N 0.28894 0.93193 0.39164
 N606 N 0.30081 0.94649 0.37960
 C607 C 0.29294 0.95414 0.35968
 N608 N 0.27282 0.94660 0.35218
 C609 C 0.25559 0.90974 0.39773
 C610 C 0.24444 0.89779 0.40958
 C611 C 0.23119 0.88413 0.42424
 N612 N 0.23907 0.86417 0.43170
 N613 N 0.22717 0.85202 0.44617
 C614 C 0.20702 0.85946 0.45367
 N615 N 0.19915 0.87941 0.44609
 N616 N 0.21104 0.89154 0.43162
 N617 N 0.06808 0.39151 0.71088
 C618 C 0.07543 0.38403 0.73101
 N619 N 0.06788 0.36408 0.73884
 N620 N 0.05335 0.35202 0.72691
 C621 C 0.04588 0.35953 0.70678
 N622 N 0.05356 0.37946 0.69895
 C623 C 0.09015 0.39761 0.74431
 C624 C 0.10205 0.40948 0.75549
 C625 C 0.11567 0.42417 0.76878
 N626 N 0.10822 0.43153 0.78892
 N627 N 0.12030 0.44603 0.80084
 C628 C 0.14024 0.45367 0.79301
 N629 N 0.14772 0.44618 0.77286
 N630 N 0.13562 0.43168 0.76094
 N631 N 0.06839 0.60858 0.28898
 C632 C 0.07577 0.61605 0.26885
 N633 N 0.06822 0.63598 0.26099
 N634 N 0.05368 0.64805 0.27287
 C635 C 0.04618 0.64055 0.29300
 N636 N 0.05385 0.62063 0.30086
 C637 C 0.09049 0.60246 0.25560
 C638 C 0.10240 0.59057 0.24445
 C639 C 0.11601 0.57587 0.23119
 N640 N 0.10856 0.56849 0.21105
 N641 N 0.12062 0.55395 0.19917
 C642 C 0.14053 0.54628 0.20706
 N643 N 0.14800 0.55378 0.22720
 N644 N 0.13593 0.56832 0.23908
 N645 N 0.93174 0.36401 0.26101
 C646 C 0.92418 0.38393 0.26891
 N647 N 0.93154 0.39138 0.28905
 N648 N 0.94607 0.37932 0.30093
 C649 C 0.95376 0.35941 0.29304
 N650 N 0.94628 0.35194 0.27290
 C651 C 0.90947 0.39754 0.25565
 C652 C 0.89758 0.40944 0.24450
 C653 C 0.88399 0.42417 0.23124
 N654 N 0.89146 0.43155 0.21112
 N655 N 0.87941 0.44609 0.19924
 C656 C 0.85949 0.45376 0.20710
 N657 N 0.85200 0.44626 0.22723
 N658 N 0.86407 0.43171 0.23911
 N659 N 0.93173 0.63595 0.73887
 C660 C 0.92416 0.61602 0.73101
 N661 N 0.93153 0.60852 0.71089
 N662 N 0.94609 0.62055 0.69900
 C663 C 0.95378 0.64048 0.70686
 N664 N 0.94629 0.64800 0.72698
 C665 C 0.90943 0.60245 0.74428
 C666 C 0.89753 0.59057 0.75544
 C667 C 0.88393 0.57587 0.76871
 N668 N 0.89141 0.56849 0.78884
 N669 N 0.87935 0.55396 0.80073
 C670 C 0.85942 0.54630 0.79288
 N671 N 0.85192 0.55379 0.77276
 N672 N 0.86399 0.56833 0.76086
 N673 N 0.71090 0.60808 0.93283
 C674 C 0.73100 0.61552 0.92533
 N675 N 0.73886 0.63553 0.93269
 N676 N 0.72701 0.64769 0.94719
 C677 C 0.70691 0.64023 0.95486
 N678 N 0.69905 0.62022 0.94732
 C679 C 0.74419 0.60186 0.91057
 C680 C 0.75528 0.58994 0.89862
 C681 C 0.76848 0.57524 0.88491
 N682 N 0.76053 0.56776 0.86499
 N683 N 0.77241 0.55332 0.85278
 C684 C 0.79261 0.54585 0.86012
 N685 N 0.80055 0.55345 0.88004
 N686 N 0.78868 0.56789 0.89223
 N687 N 0.26108 0.36435 0.93276
 C688 C 0.26890 0.38437 0.92539
 N689 N 0.28899 0.39185 0.93288
 N690 N 0.30087 0.37974 0.94737
 C691 C 0.29306 0.35973 0.95492
 N692 N 0.27297 0.35222 0.94726
 C693 C 0.25567 0.39800 0.91064
 C694 C 0.24455 0.40990 0.89869
 C695 C 0.23132 0.42458 0.88499
 N696 N 0.21113 0.43193 0.89232
 N697 N 0.19924 0.44637 0.88014
 C698 C 0.20716 0.45396 0.86022
 N699 N 0.22736 0.44650 0.85287
 N700 N 0.23925 0.43206 0.86506
 N701 N 0.26141 0.63545 0.06750
 C702 C 0.26925 0.61544 0.07487
 N703 N 0.28933 0.60798 0.06737
 N704 N 0.30120 0.62011 0.05287
 C705 C 0.29337 0.64011 0.04533
 N706 N 0.27327 0.64759 0.05300
 C707 C 0.25603 0.60179 0.08961
 C708 C 0.24491 0.58988 0.10155
 C709 C 0.23167 0.57518 0.11522
 N710 N 0.23958 0.56770 0.13516
 N711 N 0.22767 0.55326 0.14734
 C712 C 0.20747 0.54580 0.13996
 N713 N 0.19957 0.55340 0.12003
 N714 N 0.21148 0.56783 0.10787
 N715 N 0.73881 0.36440 0.06741
 C716 C 0.73097 0.38441 0.07480
 N717 N 0.71088 0.39187 0.06728
 N718 N 0.69903 0.37975 0.05277
 C719 C 0.70687 0.35975 0.04521
 N720 N 0.72695 0.35226 0.05289
 C721 C 0.74417 0.39805 0.08956
 C722 C 0.75527 0.40996 0.10151
 C723 C 0.76849 0.42467 0.11520
 N724 N 0.76055 0.43217 0.13512
 N725 N 0.77244 0.44664 0.14730
 C726 C 0.79263 0.45411 0.13994
 N727 N 0.80056 0.44649 0.12003
 N728 N 0.78868 0.43203 0.10787
 N729 N 0.93309 0.71069 0.60822
 C730 C 0.92564 0.73082 0.61565
 N731 N 0.93308 0.73869 0.63563
 N732 N 0.94758 0.72681 0.64776
 C733 C 0.95519 0.70668 0.64031
 N734 N 0.94759 0.69882 0.62034
 C735 C 0.91088 0.74403 0.60203
 C736 C 0.89892 0.75514 0.59014
 C737 C 0.88520 0.76837 0.57547
 N738 N 0.86525 0.76044 0.56801
 N739 N 0.85304 0.77234 0.55359
 C740 C 0.86040 0.79254 0.54612
 N741 N 0.88035 0.80046 0.55369
 N742 N 0.89254 0.78856 0.56811
 N743 N 0.93293 0.26106 0.36405
 C744 C 0.92548 0.26890 0.38402
 N745 N 0.93294 0.28901 0.39150
 N746 N 0.94746 0.30090 0.37943
 C747 C 0.95507 0.29307 0.35946
 N748 N 0.94745 0.27295 0.35196
 C749 C 0.91070 0.25566 0.39760
 C750 C 0.89871 0.24454 0.40946
 C751 C 0.88497 0.23131 0.42411
 N752 N 0.86501 0.23923 0.43152
 N753 N 0.85279 0.22734 0.44594
 C754 C 0.86014 0.20715 0.45343
 N755 N 0.88009 0.19924 0.44590
 N756 N 0.89230 0.21112 0.43149
 N757 N 0.06681 0.26127 0.63555
 C758 C 0.07426 0.26914 0.61559
 N759 N 0.06681 0.28926 0.60815
 N760 N 0.05229 0.30113 0.62025
 C761 C 0.04468 0.29327 0.64020
 N762 N 0.05229 0.27315 0.64766
 C763 C 0.08903 0.25592 0.60198
 C764 C 0.10100 0.24481 0.59009
 C765 C 0.11472 0.23159 0.57543
 N766 N 0.13469 0.23951 0.56802
 N767 N 0.14691 0.22762 0.55360
 C768 C 0.13954 0.20743 0.54609
 N769 N 0.11959 0.19952 0.55362
 N770 N 0.10738 0.21140 0.56804
 N771 N 0.06715 0.71076 0.39156
 C772 C 0.07463 0.73087 0.38412
 N773 N 0.06719 0.73875 0.36416
 N774 N 0.05264 0.72690 0.35204
 C775 C 0.04500 0.70678 0.35950
 N776 N 0.05260 0.69891 0.37946
 C777 C 0.08942 0.74407 0.39774
 C778 C 0.10140 0.75516 0.40964
 C779 C 0.11511 0.76836 0.42434
 N780 N 0.10777 0.78854 0.43174
 N781 N 0.11995 0.80040 0.44620
 C782 C 0.13988 0.79247 0.45378
 N783 N 0.14724 0.77228 0.44626
 N784 N 0.13504 0.76042 0.43179
 N785 N 0.60794 0.93244 0.71114
 C786 C 0.61528 0.92509 0.73132
 N787 N 0.63520 0.93260 0.73926
 N788 N 0.64738 0.94708 0.72740
 C789 C 0.64001 0.95454 0.70720
 N790 N 0.62010 0.94691 0.69927
 C791 C 0.60161 0.91034 0.74451
 C792 C 0.58967 0.89839 0.75559
 C793 C 0.57495 0.88469 0.76876
 N794 N 0.56747 0.86476 0.76081
 N795 N 0.55300 0.85256 0.77267
 C796 C 0.54551 0.85992 0.79285
 N797 N 0.55311 0.87984 0.80079
 N798 N 0.56757 0.89203 0.78894
 N799 N 0.36488 0.93261 0.26079
 C800 C 0.38481 0.92514 0.26872
 N801 N 0.39216 0.93253 0.28890
 N802 N 0.37999 0.94699 0.30076
 C803 C 0.36006 0.95458 0.29283
 N804 N 0.35269 0.94708 0.27265
 C805 C 0.39849 0.91041 0.25553
 C806 C 0.41044 0.89847 0.24445
 C807 C 0.42517 0.88478 0.23127
 N808 N 0.43254 0.89213 0.21109
 N809 N 0.44702 0.87996 0.19924
 C810 C 0.45463 0.86005 0.20718
 N811 N 0.44715 0.85268 0.22736
 N812 N 0.43267 0.86486 0.23921
 N813 N 0.63545 0.06794 0.26114
 C814 C 0.61552 0.07541 0.26908
 N815 N 0.60818 0.06802 0.28925
 N816 N 0.62036 0.05355 0.30110
 C817 C 0.64028 0.04596 0.29317
 N818 N 0.64764 0.05346 0.27300
 C819 C 0.60182 0.09012 0.25589
 C820 C 0.58987 0.10204 0.24480
 C821 C 0.57512 0.11569 0.23160
 N822 N 0.56762 0.13563 0.23951
 N823 N 0.55313 0.14778 0.22764
 C824 C 0.54563 0.14037 0.20747
 N825 N 0.55325 0.12044 0.19957
 N826 N 0.56773 0.10830 0.21144
 N827 N 0.36452 0.06761 0.73931
 C828 C 0.38443 0.07513 0.73135
 N829 N 0.39177 0.06773 0.71118
 N830 N 0.37963 0.05321 0.69935
 C831 C 0.35972 0.04558 0.70730
 N832 N 0.35236 0.05309 0.72747
 C833 C 0.39810 0.08989 0.74451
 C834 C 0.41005 0.10186 0.75557
 C835 C 0.42480 0.11555 0.76873
 N836 N 0.43229 0.13547 0.76077
 N837 N 0.44680 0.14765 0.77260
 C838 C 0.45433 0.14029 0.79277
 N839 N 0.44672 0.12037 0.80072
 N840 N 0.43221 0.10821 0.78890
 N841 N 0.63556 0.73911 0.06722
 C842 C 0.61563 0.73119 0.07470
 N843 N 0.60823 0.71102 0.06731
 N844 N 0.62037 0.69915 0.05283
 C845 C 0.64030 0.70705 0.04523
 N846 N 0.64771 0.72722 0.05273
 C847 C 0.60199 0.74440 0.08946
 C848 C 0.59009 0.75550 0.10142
 C849 C 0.57540 0.76871 0.11513
 N850 N 0.56798 0.76078 0.13508
 N851 N 0.55354 0.77266 0.14729
 C852 C 0.54602 0.79284 0.13993
 N853 N 0.55357 0.80076 0.11999
 N854 N 0.56800 0.78889 0.10780
 N855 N 0.39198 0.28920 0.06734
 C856 C 0.38464 0.26902 0.07474
 N857 N 0.36471 0.26106 0.06727
 N858 N 0.35252 0.27291 0.05278
 C859 C 0.35989 0.29309 0.04527
 N860 N 0.37981 0.30104 0.05286
 C861 C 0.39831 0.25585 0.08950
 C862 C 0.41024 0.24478 0.10147
 C863 C 0.42494 0.23161 0.11519
 N864 N 0.43237 0.23957 0.13512
 N865 N 0.44682 0.22772 0.14735
 C866 C 0.45434 0.20752 0.14002
 N867 N 0.44679 0.19957 0.12009
 N868 N 0.43235 0.21142 0.10788
 N869 N 0.60817 0.28922 0.93257
 C870 C 0.61553 0.26905 0.92516
 N871 N 0.63545 0.26110 0.93266
 N872 N 0.64761 0.27295 0.94717
 C873 C 0.64022 0.29312 0.95470
 N874 N 0.62031 0.30106 0.94709
 C875 C 0.60188 0.25588 0.91039
 C876 C 0.58995 0.24480 0.89842
 C877 C 0.57524 0.23161 0.88472
 N878 N 0.56784 0.21142 0.89204
 N879 N 0.55337 0.19957 0.87986
 C880 C 0.54579 0.20751 0.85995
 N881 N 0.55329 0.22770 0.85260
 N882 N 0.56777 0.23956 0.86479
 N883 N 0.39203 0.71067 0.93273
 C884 C 0.38466 0.73084 0.92533
 N885 N 0.36474 0.73877 0.93282
 N886 N 0.35258 0.72691 0.94731
 C887 C 0.35996 0.70673 0.95481
 N888 N 0.37989 0.69881 0.94721
 C889 C 0.39832 0.74403 0.91058
 C890 C 0.41023 0.75513 0.89863
 C891 C 0.42493 0.76834 0.88493
 N892 N 0.43236 0.76042 0.86498
 N893 N 0.44680 0.77232 0.85278
 C894 C 0.45430 0.79251 0.86015
 N895 N 0.44675 0.80041 0.88010
 N896 N 0.43232 0.78853 0.89228
 N897 N 0.71136 0.93237 0.39239
 C898 C 0.73153 0.92497 0.38505
 N899 N 0.73948 0.93244 0.36513
 N900 N 0.72762 0.94692 0.35295
 C901 C 0.70744 0.95444 0.36031
 N902 N 0.69951 0.94685 0.38023
 C903 C 0.74472 0.91025 0.39874
 C904 C 0.75580 0.89831 0.41069
 C905 C 0.76899 0.88463 0.42543
 N906 N 0.78915 0.89200 0.43284
 N907 N 0.80101 0.87983 0.44731
 C908 C 0.79309 0.85989 0.45489
 N909 N 0.77291 0.85251 0.44736
 N910 N 0.76106 0.86469 0.43288
 N911 N 0.28870 0.93200 0.60800
 C912 C 0.26852 0.92458 0.61532
 N913 N 0.26057 0.93204 0.63525
 N914 N 0.27241 0.94653 0.64745
 C915 C 0.29259 0.95406 0.64010
 N916 N 0.30053 0.94648 0.62018
 C917 C 0.25535 0.90986 0.60162
 C918 C 0.24428 0.89793 0.58964
 C919 C 0.23111 0.88428 0.57486
 N920 N 0.23907 0.86436 0.56735
 N921 N 0.22723 0.85221 0.55281
 C922 C 0.20707 0.85960 0.54529
 N923 N 0.19913 0.87951 0.55291
 N924 N 0.21096 0.89165 0.56744
 N925 N 0.26065 0.06773 0.36506
 C926 C 0.26858 0.07517 0.38501
 N927 N 0.28876 0.06779 0.39235
 N928 N 0.30064 0.05336 0.38015
 C929 C 0.29272 0.04580 0.36021
 N930 N 0.27254 0.05329 0.35285
 C931 C 0.25537 0.08986 0.39872
 C932 C 0.24428 0.10177 0.41068
 C933 C 0.23108 0.11543 0.42543
 N934 N 0.21091 0.10805 0.43280
 N935 N 0.19904 0.12020 0.44728
 C936 C 0.20695 0.14013 0.45489
 N937 N 0.22713 0.14753 0.44740
 N938 N 0.23900 0.13537 0.43292
 N939 N 0.73930 0.06776 0.63488
 C940 C 0.73136 0.07516 0.61493
 N941 N 0.71118 0.06774 0.60761
 N942 N 0.69932 0.05331 0.61983
 C943 C 0.70725 0.04580 0.63977
 N944 N 0.72744 0.05332 0.64711
 C945 C 0.74455 0.08984 0.60119
 C946 C 0.75563 0.10174 0.58920
 C947 C 0.76881 0.11537 0.57441
 N948 N 0.76087 0.13529 0.56690
 N949 N 0.77272 0.14743 0.55237
 C950 C 0.79288 0.14002 0.54486
 N951 N 0.80080 0.12010 0.55249
 N952 N 0.78896 0.10798 0.56701
 N953 N 0.93251 0.63525 0.26087
 C954 C 0.92508 0.61528 0.26878
 N955 N 0.93251 0.60791 0.28892
 N956 N 0.94698 0.62009 0.30078
 C957 C 0.95453 0.64005 0.29289
 N958 N 0.94699 0.64744 0.27274
 C959 C 0.91036 0.60160 0.25558
 C960 C 0.89842 0.58965 0.24450
 C961 C 0.88474 0.57491 0.23130
 N962 N 0.89211 0.56747 0.21116
 N963 N 0.87994 0.55299 0.19930
 C964 C 0.85999 0.54544 0.20720
 N965 N 0.85259 0.55299 0.22735
 N966 N 0.86478 0.56747 0.23921
 N967 N 0.93229 0.36488 0.73883
 C968 C 0.92490 0.38486 0.73095
 N969 N 0.93233 0.39224 0.71080
 N970 N 0.94677 0.38005 0.69893
 C971 C 0.95427 0.36007 0.70680
 N972 N 0.94673 0.35267 0.72695
 C973 C 0.91021 0.39856 0.74416
 C974 C 0.89830 0.41051 0.75527
 C975 C 0.88464 0.42524 0.76849
 N976 N 0.86466 0.43266 0.76062
 N977 N 0.85249 0.44712 0.77252
 C978 C 0.85992 0.45465 0.79267
 N979 N 0.87989 0.44711 0.80053
 N980 N 0.89204 0.43265 0.78864
 N981 N 0.06739 0.63503 0.73914
 C982 C 0.07478 0.61503 0.73127
 N983 N 0.06736 0.60764 0.71112
 N984 N 0.05293 0.61983 0.69923
 C985 C 0.04542 0.63982 0.70709
 N986 N 0.05296 0.64723 0.72725
 C987 C 0.08949 0.60135 0.74449
 C988 C 0.10141 0.58941 0.75559
 C989 C 0.11509 0.57470 0.76881
 N990 N 0.13506 0.56727 0.76092
 N991 N 0.14725 0.55281 0.77280
 C992 C 0.13985 0.54529 0.79295
 N993 N 0.11989 0.55283 0.80083
 N994 N 0.10772 0.56728 0.78895
 N995 N 0.06738 0.36489 0.26089
 C996 C 0.07478 0.38487 0.26881
 N997 N 0.06734 0.39223 0.28896
 N998 N 0.05290 0.38002 0.30081
 C999 C 0.04539 0.36005 0.29291
 N1000 N 0.05293 0.35267 0.27275
 C1001 C 0.08950 0.39858 0.25563
 C1002 C 0.10144 0.41052 0.24455
 C1003 C 0.11513 0.42525 0.23136
 N1004 N 0.10778 0.43267 0.21120
 N1005 N 0.11997 0.44711 0.19934
 C1006 C 0.13994 0.45464 0.20724
 N1007 N 0.14731 0.44711 0.22740
 N1008 N 0.13510 0.43266 0.23927
   
