data_POSCAR
  _audit_creation_date              2014-09-24
  _audit_creation_method            'ToBaCCo'
  _symmetry_space_group_name_H-M    'P1'
  _symmetry_Int_Tables_number       1
  _symmetry_cell_setting            triclinic
  loop_
  _symmetry_equiv_pos_as_xyz
 x,y,z
_cell_length_a 25.2919
_cell_length_b 25.1760
_cell_length_c 25.7968
_cell_angle_alpha 89.661400
_cell_angle_beta 89.914300
_cell_angle_gamma 89.092300
loop_
  _atom_site_label
  _atom_site_type_symbol
  _atom_site_fract_x
  _atom_site_fract_y
  _atom_site_fract_z
C1 C 0.47299 0.99281 -0.54883
 C2 C 0.52415 1.01598 -0.55101
 C3 C 0.54819 1.03078 -0.50383
 C4 C 0.52761 1.01730 -0.45460
 C5 C 0.47735 0.99312 -0.45273
 C6 C 0.45201 0.98029 -0.49942
 H7 H 0.41268 0.96405 -0.49661
 H8 H 0.58685 1.04849 -0.50548
 C9 C -0.54462 1.46498 0.01810
 C10 C -0.55283 1.51596 -0.00424
 C11 C -0.50962 1.54863 -0.01403
 C12 C -0.45766 1.53339 -0.00090
 C13 C -0.44928 1.48211 0.02064
 C14 C -0.49258 1.44975 0.03123
 H15 H -0.48460 1.41022 0.04647
 H16 H -0.51762 1.58812 -0.02940
 C17 C 0.01327 0.46789 0.45195
 C18 C -0.00593 0.52122 0.44886
 C19 C -0.01482 0.54987 0.49476
 C20 C -0.00440 0.52805 0.54394
 C21 C 0.01504 0.47532 0.54734
 C22 C 0.02468 0.44682 0.50163
 H23 H 0.03808 0.40591 0.50559
 H24 H -0.02759 0.59111 0.49187
 O25 O -0.13644 1.01109 -0.07153
 O26 O 0.13598 0.99076 -0.07079
 O27 O 0.00170 1.07513 -0.13440
 O28 O -0.00126 0.92945 -0.13655
 O29 O -0.00484 0.86497 -0.07271
 O30 O 0.00447 1.13672 -0.06861
 O31 O 0.07285 0.99638 -0.13541
 O32 O -0.07270 1.00801 -0.13581
 Zr33 Zr -0.00011 1.00138 -0.09407
 O34 O 0.04526 0.94966 -0.04954
 O35 O -0.04613 1.05114 -0.04857
 C36 C -0.12153 1.01143 -0.11964
 C37 C 0.12151 0.99230 -0.11902
 C38 C 0.00313 1.12350 -0.11702
 C39 C -0.00283 0.88036 -0.12068
 H40 H 0.07343 1.06675 -0.06919
 O41 O 0.04968 1.04466 -0.04791
 H42 H -0.07371 0.93497 -0.07187
 O43 O -0.05027 0.95606 -0.04962
 O44 O 0.13537 0.99113 0.06863
 O45 O -0.13743 1.00430 0.06743
 O46 O 0.07601 1.13009 0.00315
 O47 O 0.06275 0.85919 -0.00536
 O48 O -0.07734 0.86839 -0.00171
 O49 O -0.06414 1.13949 -0.00157
 O50 O 0.00329 1.06931 0.13351
 O51 O -0.00592 0.92388 0.13152
 O52 O 0.00701 1.13356 0.06947
 O53 O -0.00902 0.86219 0.06580
 O54 O 0.13858 1.06256 0.00255
 O55 O -0.13280 1.08043 -0.00217
 O56 O -0.13987 0.93596 -0.00142
 O57 O 0.13149 0.91816 -0.00435
 O58 O 0.07151 0.99455 0.13280
 O59 O -0.07449 0.99877 0.13220
 Zr60 Zr 0.09239 0.99325 -0.00121
 Zr61 Zr -0.09359 1.00535 -0.00187
 Zr62 Zr 0.00373 1.09107 -0.00020
 Zr63 Zr -0.00504 0.90754 -0.00279
 Zr64 Zr -0.00120 0.99738 0.09109
 O65 O -0.05114 0.95381 0.04513
 O66 O 0.04921 1.04273 0.04675
 C67 C 0.12042 0.99275 0.11674
 C68 C -0.12318 1.00113 0.11562
 C69 C 0.12417 1.11223 0.00456
 C70 C 0.11234 0.87062 -0.00621
 C71 C -0.12552 0.88622 -0.00103
 C72 C -0.11373 1.12805 -0.00220
 C73 C 0.00655 1.11827 0.11748
 C74 C -0.00892 0.87557 0.11422
 H75 H -0.06804 1.07247 0.06850
 O76 O -0.04639 1.04872 0.04633
 H77 H 0.06612 0.92315 0.06686
 O78 O 0.04463 0.94787 0.04531
 N79 N 0.40902 1.01731 0.32611
 C80 C 0.36454 0.98815 0.33110
 N81 N 0.35801 0.95845 0.37441
 N82 N 0.39415 0.95855 0.41185
 C83 C 0.43870 0.98803 0.40779
 N84 N 0.44530 1.01731 0.36373
 C85 C 0.32322 0.99028 0.29255
 C86 C 0.28729 0.99136 0.26156
 C87 C 0.24419 0.99204 0.22490
 N88 N 0.19309 0.99384 0.24129
 N89 N 0.15338 0.99398 0.20718
 C90 C 0.16346 0.99223 0.15544
 N91 N 0.21467 0.99044 0.13932
 N92 N 0.25426 0.99030 0.17334
 N93 N -0.41428 0.98131 0.32536
 C94 C -0.37115 1.01284 0.32565
 N95 N -0.36556 1.04795 0.36460
 N96 N -0.40099 1.05060 0.40268
 C97 C -0.44392 1.01860 0.40361
 N98 N -0.44993 0.98411 0.36362
 C99 C -0.32971 1.00744 0.28746
 C100 C -0.29325 1.00431 0.25712
 C101 C -0.24933 1.00195 0.22139
 N102 N -0.19862 0.99984 0.23882
 N103 N -0.15810 0.99927 0.20553
 C104 C -0.16697 1.00094 0.15359
 N105 N -0.21779 1.00296 0.13645
 N106 N -0.25817 1.00351 0.16965
 N107 N -0.41243 0.99754 -0.32692
 C108 C -0.36656 1.02438 -0.33255
 N109 N -0.35801 1.05152 -0.37705
 N110 N -0.39340 1.05088 -0.41512
 C111 C -0.43909 1.02328 -0.41064
 N112 N -0.44800 0.99703 -0.36520
 C113 C -0.32556 1.02182 -0.29375
 C114 C -0.28952 1.02010 -0.26295
 C115 C -0.24608 1.01833 -0.22675
 N116 N -0.19519 1.01504 -0.24363
 N117 N -0.15516 1.01323 -0.20990
 C118 C -0.16472 1.01476 -0.15807
 N119 N -0.21571 1.01817 -0.14148
 N120 N -0.25562 1.01997 -0.17511
 N121 N 0.40222 1.02893 -0.33471
 C122 C 0.37009 0.98656 -0.32908
 N123 N 0.37670 0.94452 -0.36113
 N124 N 0.41331 0.94528 -0.39833
 C125 C 0.44514 0.98788 -0.40470
 N126 N 0.43892 1.02967 -0.37196
 C127 C 0.32704 0.98756 -0.29227
 C128 C 0.29021 0.98817 -0.26221
 C129 C 0.24654 0.98875 -0.22610
 N130 N 0.25586 0.98541 -0.17449
 N131 N 0.21585 0.98622 -0.14084
 C132 C 0.16493 0.99032 -0.15741
 N133 N 0.15558 0.99357 -0.20922
 N134 N 0.19572 0.99276 -0.24296
 N135 N 0.38971 1.34165 0.04868
 C136 C 0.34239 1.34905 0.02531
 N137 N 0.33130 1.39606 0.00160
 N138 N 0.36701 1.43436 0.00064
 C139 C 0.41509 1.42711 0.02333
 N140 N 0.42529 1.37992 0.04765
 C141 C 0.30584 1.30659 0.02331
 C142 C 0.27514 1.27084 0.02083
 C143 C 0.23737 1.22962 0.01713
 N144 N 0.18533 1.24245 0.01499
 N145 N 0.14961 1.20463 0.01085
 C146 C 0.16467 1.15271 0.00859
 N147 N 0.21695 1.13980 0.01074
 N148 N 0.25281 1.17780 0.01488
 N149 N 0.34379 0.60276 -0.05818
 C150 C 0.31258 0.61087 -0.01623
 N151 N 0.32213 0.58276 0.02783
 N152 N 0.36276 0.54856 0.03031
 C153 C 0.39492 0.54129 -0.01130
 N154 N 0.38439 0.56865 -0.05571
 C155 C 0.27575 0.65434 -0.01597
 C156 C 0.24684 0.69260 -0.01519
 C157 C 0.21309 0.73849 -0.01365
 N158 N 0.23360 0.78794 -0.01153
 N159 N 0.20180 0.83061 -0.00927
 C160 C 0.14854 0.82489 -0.00899
 N161 N 0.12835 0.77529 -0.01118
 N162 N 0.16005 0.73278 -0.01344
 N163 N -0.33372 0.60230 0.01650
 C164 C -0.34470 0.64935 -0.00720
 N165 N -0.39192 0.65682 -0.03073
 N166 N -0.42753 0.61859 -0.02991
 C167 C -0.41741 0.57133 -0.00572
 N168 N -0.36947 0.56402 0.01726
 C169 C -0.30785 0.69156 -0.00576
 C170 C -0.27700 0.72723 -0.00438
 C171 C -0.23912 0.76850 -0.00275
 N172 N -0.25444 0.82041 -0.00347
 N173 N -0.21845 0.85852 -0.00253
 C174 C -0.16615 0.84564 -0.00083
 N175 N -0.15121 0.79363 0.00002
 N176 N -0.18707 0.75569 -0.00090
 N177 N -0.32551 1.41828 -0.02068
 C178 C -0.31464 1.38626 0.02046
 N179 N -0.34452 1.39043 0.06386
 N180 N -0.38514 1.42458 0.06556
 C181 C -0.39701 1.45590 0.02402
 N182 N -0.36613 1.45250 -0.01897
 C183 C -0.27770 1.34321 0.01546
 C184 C -0.24868 1.30532 0.01102
 C185 C -0.21488 1.25975 0.00591
 N186 N -0.23509 1.21012 0.00636
 N187 N -0.20318 1.16763 0.00289
 C188 C -0.15012 1.17370 -0.00119
 N189 N -0.13025 1.22350 -0.00189
 N190 N -0.16206 1.26584 0.00155
 N191 N -0.00484 1.40949 0.32405
 C192 C 0.01783 1.36074 0.33111
 N193 N 0.04099 1.34903 0.37700
 N194 N 0.04078 1.38448 0.41496
 C195 C 0.01756 1.43328 0.40891
 N196 N -0.00493 1.44510 0.36224
 C197 C 0.01527 1.32046 0.29207
 C198 C 0.01356 1.28486 0.26107
 C199 C 0.01187 1.24188 0.22479
 N200 N 0.00876 1.19075 0.24151
 N201 N 0.00728 1.15094 0.20763
 C202 C 0.00896 1.16108 0.15589
 N203 N 0.01215 1.21233 0.13946
 N204 N 0.01362 1.25201 0.17325
 N205 N -0.02123 1.41114 -0.32928
 C206 C 0.01799 1.37407 -0.32415
 N207 N 0.05867 1.37398 -0.35831
 N208 N 0.05946 1.40890 -0.39723
 C209 C 0.01980 1.44545 -0.40327
 N210 N -0.02040 1.44619 -0.36825
 C211 C 0.01411 1.33197 -0.28663
 C212 C 0.01118 1.29520 -0.25664
 C213 C 0.00818 1.25100 -0.22138
 N214 N 0.00665 1.20042 -0.23927
 N215 N 0.00472 1.15944 -0.20630
 C216 C 0.00428 1.16783 -0.15434
 N217 N 0.00571 1.21855 -0.13672
 N218 N 0.00763 1.25941 -0.16961
 N219 N -0.04510 0.64129 -0.37432
 C220 C -0.00991 0.63803 -0.33489
 N221 N 0.02508 0.59664 -0.33329
 N222 N 0.02540 0.56010 -0.37054
 C223 C -0.00941 0.56359 -0.41056
 N224 N -0.04475 0.60484 -0.41149
 C225 C -0.00794 0.67971 -0.29720
 C226 C -0.00644 0.71550 -0.26637
 C227 C -0.00493 0.75802 -0.22955
 N228 N -0.00569 0.74709 -0.17812
 N229 N -0.00482 0.78629 -0.14375
 C230 C -0.00317 0.83783 -0.15951
 N231 N -0.00234 0.84875 -0.21113
 N232 N -0.00322 0.80944 -0.24558
 N233 N -0.05595 0.62023 0.35511
 C234 C -0.01441 0.62491 0.32230
 N235 N 0.02817 0.59197 0.32831
 N236 N 0.02956 0.55618 0.36665
 C237 C -0.01178 0.55188 0.40005
 N238 N -0.05455 0.58455 0.39340
 C239 C -0.01376 0.66751 0.28499
 C240 C -0.01337 0.70439 0.25490
 C241 C -0.01292 0.74854 0.21934
 N242 N -0.01015 0.79918 0.23690
 N243 N -0.00928 0.84000 0.20368
 C244 C -0.01120 0.83144 0.15177
 N245 N -0.01409 0.78068 0.13448
 N246 N -0.01497 0.73998 0.16763
   
