data_POSCAR
  _audit_creation_date              2014-09-24
  _audit_creation_method            'ToBaCCo'
  _symmetry_space_group_name_H-M    'P1'
  _symmetry_Int_Tables_number       1
  _symmetry_cell_setting            triclinic
  loop_
  _symmetry_equiv_pos_as_xyz
 x,y,z
_cell_length_a 52.0370
_cell_length_b 51.4480
_cell_length_c 52.0697
_cell_angle_alpha 90.011900
_cell_angle_beta 89.993600
_cell_angle_gamma 89.991600
loop_
  _atom_site_label
  _atom_site_type_symbol
  _atom_site_fract_x
  _atom_site_fract_y
  _atom_site_fract_z
C1 C 0.60595 0.62469 0.64507
 C2 C 0.58683 0.64392 0.64482
 C3 C 0.58674 0.66304 0.62567
 C4 C 0.60576 0.66310 0.60662
 C5 C 0.62502 0.64402 0.60657
 C6 C 0.62515 0.62470 0.62587
 C7 C 0.60621 0.60545 0.66415
 C8 C 0.62540 0.58632 0.66421
 C9 C 0.64446 0.58630 0.64519
 C10 C 0.64448 0.60541 0.62597
 C11 C 0.66346 0.60557 0.60684
 C12 C 0.66329 0.62474 0.58773
 C13 C 0.64415 0.64389 0.58759
 H14 H 0.57201 0.64404 0.65947
 H15 H 0.60551 0.67799 0.59187
 H16 H 0.59150 0.60535 0.67893
 H17 H 0.65927 0.57144 0.64534
 H18 H 0.67837 0.59083 0.60677
 H19 H 0.64419 0.65864 0.57271
 C20 C 0.89497 0.37474 0.14428
 C21 C 0.91407 0.35549 0.14405
 C22 C 0.91414 0.33633 0.12490
 C23 C 0.89511 0.33629 0.10584
 C24 C 0.87588 0.35540 0.10579
 C25 C 0.87577 0.37473 0.12508
 C26 C 0.89471 0.39400 0.16335
 C27 C 0.87555 0.41313 0.16339
 C28 C 0.85650 0.41317 0.14439
 C29 C 0.85647 0.39406 0.12517
 C30 C 0.83748 0.39390 0.10604
 C31 C 0.83764 0.37472 0.08695
 C32 C 0.85675 0.35554 0.08681
 H33 H 0.92885 0.35542 0.15876
 H34 H 0.89528 0.32141 0.09107
 H35 H 0.90937 0.39415 0.17816
 H36 H 0.84175 0.42807 0.14460
 H37 H 0.82260 0.40866 0.10597
 H38 H 0.85669 0.34078 0.07194
 C39 C 0.39424 0.12470 -0.14507
 C40 C 0.41334 0.14395 -0.14484
 C41 C 0.41340 0.16309 -0.12571
 C42 C 0.39439 0.16317 -0.10666
 C43 C 0.37515 0.14408 -0.10660
 C44 C 0.37504 0.12474 -0.12587
 C45 C 0.39399 0.10543 -0.16413
 C46 C 0.37482 0.08629 -0.16417
 C47 C 0.35575 0.08629 -0.14515
 C48 C 0.35573 0.10542 -0.12595
 C49 C 0.33674 0.10560 -0.10681
 C50 C 0.33690 0.12480 -0.08773
 C51 C 0.35602 0.14397 -0.08761
 H52 H 0.42815 0.14406 -0.15950
 H53 H 0.39462 0.17809 -0.09193
 H54 H 0.40870 0.10533 -0.17892
 H55 H 0.34096 0.07142 -0.14529
 H56 H 0.32185 0.09085 -0.10673
 H57 H 0.35597 0.15874 -0.07274
 C58 C 0.10518 0.87472 0.35571
 C59 C 0.08608 0.85548 0.35595
 C60 C 0.08600 0.83634 0.37512
 C61 C 0.10503 0.83631 0.39418
 C62 C 0.12427 0.85541 0.39420
 C63 C 0.12438 0.87472 0.37490
 C64 C 0.10544 0.89395 0.33662
 C65 C 0.12461 0.91307 0.33655
 C66 C 0.14366 0.91313 0.35556
 C67 C 0.14369 0.89404 0.37479
 C68 C 0.16268 0.89390 0.39392
 C69 C 0.16252 0.87474 0.41303
 C70 C 0.14341 0.85557 0.41318
 H71 H 0.07129 0.85539 0.34125
 H72 H 0.10487 0.82145 0.40896
 H73 H 0.09078 0.89409 0.32181
 H74 H 0.15841 0.92802 0.35533
 H75 H 0.17757 0.90865 0.39397
 H76 H 0.14346 0.84083 0.42807
 N77 N 0.09490 0.16645 0.11326
 N78 N 0.08484 0.15584 0.13394
 C79 C 0.06400 0.16964 0.14105
 C80 C 0.06102 0.18980 0.12389
 C81 C 0.08083 0.18733 0.10651
 H82 H 0.05190 0.16542 0.15741
 H83 H 0.08470 0.19977 0.09022
 Cu84 Cu 0.10004 0.12508 0.14947
 Cu85 Cu 0.12544 0.15245 0.09665
 Cu86 Cu 0.15283 0.09758 0.12404
 N87 N 0.11556 0.09431 0.16467
 N88 N 0.13623 0.08365 0.15460
 C89 C 0.14299 0.06279 0.16868
 C90 C 0.12562 0.06038 0.18851
 C91 C 0.10847 0.08056 0.18553
 H92 H 0.15928 0.05033 0.16482
 H93 H 0.09212 0.08482 0.19765
 N94 N 0.16679 0.11453 0.09310
 N95 N 0.15636 0.13543 0.08267
 C96 C 0.17022 0.14232 0.06189
 C97 C 0.19016 0.12493 0.05927
 C98 C 0.18755 0.10758 0.07923
 H99 H 0.16617 0.15872 0.04955
 H100 H 0.19988 0.09116 0.08327
 H101 H 0.12030 0.11449 0.10855
 H102 H 0.14097 0.13558 0.12915
 N103 N 0.40432 0.83330 0.61422
 N104 N 0.41407 0.84364 0.63518
 C105 C 0.43494 0.82988 0.64228
 C106 C 0.43825 0.81002 0.62483
 C107 C 0.41861 0.81263 0.60728
 H108 H 0.44684 0.83394 0.65882
 H109 H 0.41501 0.80043 0.59075
 Cu110 Cu 0.39856 0.87405 0.65110
 Cu111 Cu 0.37389 0.84737 0.59750
 Cu112 Cu 0.34643 0.90219 0.62486
 N113 N 0.38327 0.90516 0.66587
 N114 N 0.36288 0.91606 0.65551
 C115 C 0.35628 0.93712 0.66939
 C116 C 0.37347 0.93941 0.68938
 C117 C 0.39035 0.91895 0.68671
 H118 H 0.34023 0.94981 0.66527
 H119 H 0.40651 0.91453 0.69901
 N120 N 0.33259 0.88530 0.59384
 N121 N 0.34305 0.86441 0.58342
 C122 C 0.32925 0.85753 0.56260
 C123 C 0.30932 0.87491 0.55995
 C124 C 0.31186 0.89225 0.57993
 H125 H 0.33332 0.84111 0.55028
 H126 H 0.29950 0.90864 0.58398
 H127 H 0.37919 0.88517 0.60991
 H128 H 0.35792 0.86407 0.62989
 N129 N 0.90491 0.66686 0.38643
 N130 N 0.91466 0.65657 0.36544
 C131 C 0.93550 0.67037 0.35835
 C132 C 0.93879 0.69020 0.37582
 C133 C 0.91917 0.68753 0.39339
 H134 H 0.94740 0.66636 0.34178
 H135 H 0.91556 0.69970 0.40994
 Cu136 Cu 0.89918 0.62617 0.34948
 Cu137 Cu 0.87451 0.65272 0.40314
 Cu138 Cu 0.84711 0.59792 0.37571
 N139 N 0.88392 0.59508 0.33466
 N140 N 0.86356 0.58413 0.34501
 C141 C 0.85698 0.56309 0.33110
 C142 C 0.87416 0.56086 0.31109
 C143 C 0.89101 0.58133 0.31379
 H144 H 0.84094 0.55038 0.33521
 H145 H 0.90716 0.58579 0.30148
 N146 N 0.83327 0.61473 0.40677
 N147 N 0.84371 0.63561 0.41723
 C148 C 0.82992 0.64243 0.43808
 C149 C 0.81001 0.62502 0.44071
 C150 C 0.81256 0.60773 0.42070
 H151 H 0.83398 0.65883 0.45043
 H152 H 0.80022 0.59133 0.41663
 H153 H 0.87985 0.61494 0.39066
 H154 H 0.85854 0.63606 0.37073
 N155 N 0.59546 0.33368 -0.11393
 N156 N 0.58541 0.34434 -0.13459
 C157 C 0.56454 0.33060 -0.14170
 C158 C 0.56153 0.31042 -0.12457
 C159 C 0.58135 0.31282 -0.10720
 H160 H 0.55244 0.33487 -0.15805
 H161 H 0.58520 0.30036 -0.09092
 Cu162 Cu 0.60066 0.37510 -0.15008
 Cu163 Cu 0.62603 0.34759 -0.09731
 Cu164 Cu 0.65351 0.40244 -0.12464
 N165 N 0.61623 0.40586 -0.16525
 N166 N 0.63692 0.41645 -0.15518
 C167 C 0.64371 0.43732 -0.16923
 C168 C 0.62634 0.43980 -0.18904
 C169 C 0.60915 0.41966 -0.18608
 H170 H 0.66002 0.44974 -0.16535
 H171 H 0.59279 0.41545 -0.19819
 N172 N 0.66745 0.38542 -0.09374
 N173 N 0.65699 0.36452 -0.08333
 C174 C 0.67084 0.35757 -0.06257
 C175 C 0.69082 0.37490 -0.05995
 C176 C 0.68824 0.39229 -0.07987
 H177 H 0.66677 0.34116 -0.05026
 H178 H 0.70060 0.40868 -0.08390
 H179 H 0.62096 0.38559 -0.10916
 H180 H 0.64158 0.36448 -0.12981
 C181 C -0.03069 0.28122 0.12460
 C182 C -0.02560 0.26926 0.15112
 C183 C -0.00696 0.25065 0.15100
 C184 C 0.00477 0.24583 0.12436
 C185 C 0.01420 0.27258 0.11532
 C186 C -0.00444 0.29118 0.11544
 C187 C -0.03682 0.25805 0.10706
 C188 C -0.01818 0.23944 0.10694
 C189 C -0.05075 0.30125 0.12472
 C190 C -0.06724 0.31772 0.12481
 C191 C 0.02484 0.22581 0.12422
 C192 C 0.04134 0.20937 0.12408
 H193 H -0.03574 0.27491 0.16847
 H194 H -0.00113 0.24036 0.16824
 H195 H 0.03380 0.27655 0.10934
 H196 H -0.00081 0.31110 0.10957
 H197 H -0.05426 0.25640 0.09574
 H198 H -0.01965 0.22185 0.09551
 C199 C 0.53038 0.71903 0.62535
 C200 C 0.50321 0.70806 0.62911
 C201 C 0.48449 0.72659 0.62900
 C202 C 0.49478 0.75428 0.62515
 C203 C 0.51035 0.75313 0.60014
 C204 C 0.52906 0.73460 0.60024
 C205 C 0.53354 0.73951 0.64656
 C206 C 0.51482 0.75804 0.64646
 C207 C 0.55051 0.69908 0.62546
 C208 C 0.56704 0.68266 0.62555
 C209 C 0.47462 0.77421 0.62504
 C210 C 0.45803 0.79057 0.62495
 H211 H 0.49903 0.68754 0.63163
 H212 H 0.46429 0.72194 0.63144
 H213 H 0.50697 0.76577 0.58378
 H214 H 0.54172 0.73136 0.58397
 H215 H 0.54911 0.73946 0.66044
 H216 H 0.51436 0.77386 0.66025
 C217 C 1.03077 0.78132 0.37541
 C218 C 1.01204 0.78366 0.39807
 C219 C 0.99336 0.76511 0.39815
 C220 C 0.99523 0.74603 0.37556
 C221 C 1.02257 0.73492 0.37699
 C222 C 1.04126 0.75347 0.37691
 C223 C 1.01373 0.78172 0.35135
 C224 C 0.99504 0.76317 0.35143
 C225 C 1.05087 0.80130 0.37532
 C226 C 1.06737 0.81775 0.37523
 C227 C 0.97510 0.72607 0.37564
 C228 C 0.95854 0.70969 0.37572
 H229 H 1.01335 0.79858 0.41277
 H230 H 0.97865 0.76413 0.41291
 H231 H 1.02688 0.71429 0.37797
 H232 H 1.06157 0.74875 0.37783
 H233 H 1.01612 0.79538 0.33564
 H234 H 0.98143 0.76092 0.33578
 C235 C 0.46967 0.21918 -0.12536
 C236 C 0.47063 0.23542 -0.15007
 C237 C 0.48930 0.25399 -0.14993
 C238 C 0.50518 0.25450 -0.12509
 C239 C 0.51559 0.22674 -0.12210
 C240 C 0.49692 0.20817 -0.12224
 C241 C 0.46673 0.23907 -0.10358
 C242 C 0.48540 0.25764 -0.10344
 C243 C 0.44959 0.19918 -0.12551
 C244 C 0.43309 0.18274 -0.12561
 C245 C 0.52529 0.27449 -0.12493
 C246 C 0.54182 0.29089 -0.12478
 H247 H 0.45778 0.23258 -0.16626
 H248 H 0.49244 0.26707 -0.16599
 H249 H 0.53583 0.22208 -0.12005
 H250 H 0.50117 0.18760 -0.12032
 H251 H 0.45134 0.23860 -0.08951
 H252 H 0.48600 0.27309 -0.08924
 C253 C 0.12495 -0.03085 0.28032
 C254 C 0.10617 -0.00843 0.28543
 C255 C 0.10629 0.01014 0.26676
 C256 C 0.12518 0.00446 0.24482
 C257 C 0.11775 -0.02265 0.23499
 C258 C 0.11763 -0.04121 0.25366
 C259 C 0.15121 -0.01780 0.27662
 C260 C 0.15133 0.00077 0.25796
 C261 C 0.12482 -0.05084 0.30040
 C262 C 0.12472 -0.06729 0.31689
 C263 C 0.12531 0.02444 0.22473
 C264 C 0.12544 0.04085 0.20820
 H265 H 0.09386 -0.00724 0.30222
 H266 H 0.09408 0.02724 0.26757
 H267 H 0.11300 -0.02689 0.21513
 H268 H 0.11277 -0.06136 0.24978
 H269 H 0.16822 -0.02270 0.28769
 H270 H 0.16844 0.01177 0.25304
 C271 C 0.62573 0.53120 -0.28068
 C272 C 0.63765 0.50536 -0.28936
 C273 C 0.63776 0.48676 -0.27074
 C274 C 0.62594 0.49582 -0.24525
 C275 C 0.59892 0.50547 -0.25226
 C276 C 0.59881 0.52408 -0.27089
 C277 C 0.64087 0.53901 -0.25658
 C278 C 0.64098 0.52040 -0.23795
 C279 C 0.62561 0.55123 -0.30072
 C280 C 0.62551 0.56770 -0.31719
 C281 C 0.62606 0.47580 -0.22519
 C282 C 0.62618 0.45937 -0.20870
 H283 H 0.64533 0.50198 -0.30846
 H284 H 0.64554 0.46744 -0.27388
 H285 H 0.58142 0.49833 -0.24338
 H286 H 0.58121 0.53287 -0.27796
 H287 H 0.65065 0.55751 -0.25435
 H288 H 0.65085 0.52297 -0.21976
 C289 C 0.37442 1.03108 0.78079
 C290 C 0.38149 1.04137 0.75404
 C291 C 0.38132 1.02272 0.73544
 C292 C 0.37410 0.99562 0.74543
 C293 C 0.34802 0.99924 0.75875
 C294 C 0.34819 1.01788 0.77734
 C295 C 0.39334 1.00877 0.78584
 C296 C 0.39318 0.99012 0.76725
 C297 C 0.37459 1.05115 0.80080
 C298 C 0.37470 1.06765 0.81725
 C299 C 0.37390 0.97555 0.72541
 C300 C 0.37372 0.95906 0.70897
 H301 H 0.38622 1.06152 0.75005
 H302 H 0.38590 1.02690 0.71553
 H303 H 0.33093 0.98813 0.75400
 H304 H 0.33124 1.02275 0.78852
 H305 H 0.40578 1.00771 0.80255
 H306 H 0.40547 0.97309 0.76802
 C307 C 0.87512 0.46933 0.21954
 C308 C 0.89266 0.46305 0.24241
 C309 C 0.89249 0.48167 0.26103
 C310 C 0.87480 0.50475 0.25495
 C311 C 0.84831 0.49263 0.24994
 C312 C 0.84848 0.47401 0.23133
 C313 C 0.88400 0.49612 0.21006
 C314 C 0.88383 0.51474 0.22868
 C315 C 0.87530 0.44928 0.19950
 C316 C 0.87542 0.43281 0.18304
 C317 C 0.87461 0.52479 0.27499
 C318 C 0.87442 0.54125 0.29146
 H319 H 0.90420 0.44553 0.24386
 H320 H 0.90389 0.48010 0.27843
 H321 H 0.83095 0.49819 0.26013
 H322 H 0.83127 0.46362 0.22556
 H323 H 0.88990 0.50011 0.19045
 H324 H 0.88958 0.53468 0.22502
 C325 C 0.28109 0.12485 -0.03184
 C326 C 0.27394 0.09756 -0.02229
 C327 C 0.25545 0.09758 -0.00375
 C328 C 0.24592 0.12487 0.00342
 C329 C 0.23712 0.13703 -0.02203
 C330 C 0.25561 0.13702 -0.04056
 C331 C 0.28870 0.13997 -0.00759
 C332 C 0.27021 0.13998 0.01095
 C333 C 0.30100 0.12483 -0.05179
 C334 C 0.31736 0.12482 -0.06817
 C335 C 0.22601 0.12488 0.02337
 C336 C 0.20965 0.12490 0.03975
 H337 H 0.28263 0.07980 -0.02945
 H338 H 0.24830 0.07982 0.00496
 H339 H 0.21805 0.14496 -0.02520
 H340 H 0.25238 0.14493 -0.05962
 H341 H 0.30700 0.14981 -0.00519
 H342 H 0.27267 0.14983 0.02923
 C343 C 0.71910 0.62480 0.53185
 C344 C 0.74301 0.60888 0.53898
 C345 C 0.76151 0.60892 0.52045
 C346 C 0.75429 0.62487 0.49661
 C347 C 0.74780 0.65207 0.50687
 C348 C 0.72930 0.65203 0.52540
 C349 C 0.71003 0.61355 0.50610
 C350 C 0.72852 0.61358 0.48757
 C351 C 0.69919 0.62476 0.55179
 C352 C 0.68283 0.62475 0.56818
 C353 C 0.77420 0.62492 0.47666
 C354 C 0.79055 0.62496 0.46026
 H355 H 0.74522 0.59850 0.55699
 H356 H 0.77957 0.59857 0.52259
 H357 H 0.75692 0.66979 0.50018
 H358 H 0.72258 0.66972 0.53458
 H359 H 0.69077 0.60619 0.50271
 H360 H 0.72511 0.60626 0.46831
 C361 C 0.78181 0.37476 0.03109
 C362 C 0.75462 0.37002 0.04153
 C363 C 0.73612 0.37004 0.02301
 C364 C 0.74661 0.37480 -0.00414
 C365 C 0.76725 0.35385 -0.00807
 C366 C 0.78575 0.35382 0.01045
 C367 C 0.78001 0.40046 0.01623
 C368 C 0.76151 0.40049 -0.00229
 C369 C 0.80172 0.37473 0.05102
 C370 C 0.81809 0.37472 0.06740
 C371 C 0.72670 0.37483 -0.02407
 C372 C 0.71033 0.37486 -0.04045
 H373 H 0.75028 0.36691 0.06170
 H374 H 0.71593 0.36696 0.02731
 H375 H 0.76732 0.34023 -0.02400
 H376 H 0.80167 0.34019 0.01038
 H377 H 0.79220 0.41717 0.01993
 H378 H 0.75785 0.41722 -0.01445
 C379 C 0.21836 0.87480 0.46888
 C380 C 0.20798 0.88046 0.49591
 C381 C 0.22649 0.88049 0.51443
 C382 C 0.25356 0.87487 0.50410
 C383 C 0.25797 0.89520 0.48298
 C384 C 0.23946 0.89517 0.46447
 C385 C 0.23267 0.84883 0.47132
 C386 C 0.25118 0.84886 0.48984
 C387 C 0.19844 0.87477 0.44895
 C388 C 0.18207 0.87475 0.43257
 C389 C 0.27347 0.87490 0.52404
 C390 C 0.28983 0.87491 0.54042
 H391 H 0.18787 0.88412 0.50013
 H392 H 0.22223 0.88418 0.53451
 H393 H 0.27419 0.90846 0.48261
 H394 H 0.23983 0.90840 0.44823
 H395 H 0.22863 0.83190 0.45954
 H396 H 0.26298 0.83196 0.49392
   
