data_POSCAR
  _audit_creation_date              2014-09-24
  _audit_creation_method            'ToBaCCo'
  _symmetry_space_group_name_H-M    'P1'
  _symmetry_Int_Tables_number       1
  _symmetry_cell_setting            triclinic
  loop_
  _symmetry_equiv_pos_as_xyz
 x,y,z
_cell_length_a 45.0675
_cell_length_b 25.3829
_cell_length_c 18.9703
_cell_angle_alpha 90.513900
_cell_angle_beta 89.405700
_cell_angle_gamma 89.026900
loop_
  _atom_site_label
  _atom_site_type_symbol
  _atom_site_fract_x
  _atom_site_fract_y
  _atom_site_fract_z
O1 O 0.72281 0.29034 0.56750
 O2 O 0.77816 0.27378 0.42437
 O3 O 0.72137 0.29206 0.43060
 O4 O 0.78013 0.27187 0.56116
 O5 O 0.77238 0.18632 0.55992
 O6 O 0.71359 0.20648 0.42851
 O7 O 0.77062 0.18826 0.42202
 O8 O 0.71490 0.20484 0.56496
 Cu9 Cu 0.75145 0.29050 0.49640
 Cu10 Cu 0.74218 0.18787 0.49386
 C11 C 0.70897 0.25052 0.58986
 C12 C 0.78388 0.22835 0.39833
 C13 C 0.70732 0.25268 0.40736
 C14 C 0.78655 0.22580 0.58247
 O15 O 0.24013 0.82341 0.58641
 O16 O 0.28805 0.80484 0.43253
 O17 O 0.22914 0.82227 0.44539
 O18 O 0.29293 0.80190 0.56328
 O19 O 0.28068 0.71836 0.57212
 O20 O 0.22218 0.73655 0.44112
 O21 O 0.27904 0.71968 0.43329
 O22 O 0.22307 0.74284 0.57553
 Cu23 Cu 0.26219 0.82195 0.50453
 Cu24 Cu 0.25053 0.72061 0.50601
 C25 C 0.22332 0.78709 0.60743
 C26 C 0.29300 0.75874 0.40850
 C27 C 0.21500 0.78277 0.42248
 C28 C 0.29724 0.75640 0.58914
 O29 O 0.28351 0.26877 -0.43043
 O30 O 0.24144 0.19951 -0.56673
 O31 O 0.28287 0.26965 -0.56665
 O32 O 0.24448 0.19474 -0.42993
 O33 O 0.20873 0.25502 -0.42464
 O34 O 0.24743 0.33065 -0.56262
 O35 O 0.20571 0.25975 -0.56010
 O36 O 0.24805 0.32968 -0.42443
 Cu37 Cu 0.26654 0.22703 -0.49916
 Cu38 Cu 0.22404 0.30015 -0.49235
 C39 C 0.27289 0.31132 -0.40409
 C40 C 0.21624 0.21711 -0.58624
 C41 C 0.27197 0.31302 -0.58784
 C42 C 0.21996 0.21153 -0.40401
 O43 O -0.23918 0.80682 -0.55465
 O44 O -0.28201 0.73004 -0.42725
 O45 O -0.23506 0.79047 -0.41888
 O46 O -0.28428 0.74717 -0.56208
 O47 O -0.25626 0.67577 -0.57920
 O48 O -0.20609 0.72109 -0.44072
 O49 O -0.25169 0.66192 -0.44399
 O50 O -0.21031 0.73730 -0.57639
 Cu51 Cu -0.26303 0.77563 -0.48807
 Cu52 Cu -0.22807 0.69221 -0.51227
 C53 C -0.21792 0.78478 -0.58864
 C54 C -0.27418 0.68294 -0.41337
 C55 C -0.21214 0.76263 -0.40532
 C56 C -0.27857 0.70430 -0.59495
 O57 O 0.04236 0.89232 -0.11417
 O58 O 0.07335 0.93659 -0.04030
 C59 C 0.06856 0.90191 -0.08882
 O60 O -0.03093 1.09693 -0.13493
 O61 O -0.06886 1.05520 -0.07762
 C62 C -0.05888 1.08932 -0.12211
 O63 O 0.05110 1.07306 -0.12830
 O64 O 0.07815 1.02282 -0.05138
 C65 C 0.07604 1.05465 -0.10429
 O66 O -0.04151 0.90114 -0.11934
 O67 O -0.07388 0.96235 -0.07026
 C68 C -0.06799 0.92021 -0.10760
 Zr69 Zr 0.00018 0.92726 -0.08515
 O70 O 0.00531 0.92302 -0.19632
 O71 O -0.00291 0.84456 -0.07656
 Zr72 Zr 0.00720 1.05902 -0.09382
 O73 O 0.00790 1.05212 -0.20509
 O74 O 0.01573 1.14056 -0.10075
 O75 O 0.03040 0.98733 -0.09738
 O76 O -0.02179 0.99753 -0.10757
 O77 O -0.05118 0.91659 0.11864
 O78 O -0.07819 0.97115 0.04709
 C79 C -0.07612 0.93582 0.09583
 O80 O 0.04310 1.08632 0.13008
 O81 O 0.07408 1.02888 0.07002
 C82 C 0.06924 1.06548 0.11656
 O83 O -0.03961 1.10864 0.10550
 O84 O -0.07309 1.06144 0.04068
 C85 C -0.06632 1.09891 0.08447
 O86 O 0.03045 0.90325 0.14037
 O87 O 0.06836 0.94226 0.07971
 C88 C 0.05835 0.91075 0.12752
 Zr89 Zr -0.00722 0.93681 0.09216
 O90 O -0.01437 0.94518 0.20225
 O91 O -0.01019 0.85395 0.09943
 Zr92 Zr 0.00110 1.06865 0.08370
 O93 O -0.00654 1.07466 0.19379
 O94 O 0.00957 1.15034 0.07898
 Zr95 Zr 0.04382 0.98901 0.00854
 Zr96 Zr -0.04372 1.00697 -0.00972
 O97 O -0.02914 1.00878 0.09542
 O98 O 0.02258 0.99780 0.10741
 O99 O -0.03024 0.92742 -0.00124
 O100 O 0.03024 1.06825 -0.00086
 O101 O 0.02137 0.91720 0.00961
 O102 O -0.02148 1.07949 -0.01088
 H103 H -0.03410 0.99821 -0.15049
 H104 H 0.04546 1.09596 -0.00057
 H105 H -0.04393 1.01360 0.13405
 H106 H 0.03271 0.88363 0.01418
 H107 H 0.00038 1.15939 -0.07216
 H108 H -0.00501 1.16620 0.04649
 H109 H 0.00817 1.05138 0.21690
 H110 H 0.00356 0.96111 0.22248
 H111 H -0.02010 0.84156 0.05620
 H112 H -0.00101 0.83021 -0.12519
 H113 H -0.01359 0.93414 -0.21819
 H114 H 0.02105 1.02173 -0.21743
 O115 O 0.52870 0.39100 -0.12256
 O116 O 0.56662 0.42649 -0.05860
 C117 C 0.55645 0.39419 -0.10570
 O118 O 0.47276 0.61114 -0.12385
 O119 O 0.43364 0.57692 -0.06200
 C120 C 0.44479 0.60919 -0.10742
 O121 O 0.55304 0.56996 -0.12812
 O122 O 0.57826 0.51115 -0.05875
 C123 C 0.57718 0.54571 -0.10858
 O124 O 0.44715 0.42359 -0.11794
 O125 O 0.42179 0.48874 -0.05682
 C126 C 0.42293 0.44964 -0.10115
 Zr127 Zr 0.49147 0.43486 -0.08422
 O128 O 0.48919 0.43011 -0.19547
 O129 O 0.48193 0.35413 -0.07294
 Zr130 Zr 0.50875 0.56354 -0.09043
 O131 O 0.50567 0.55778 -0.20156
 O132 O 0.52254 0.64250 -0.09923
 O133 O 0.52606 0.48735 -0.10038
 O134 O 0.47504 0.51009 -0.10099
 O135 O 0.44619 0.42996 0.12664
 O136 O 0.42134 0.49164 0.06107
 C137 C 0.42209 0.45483 0.10805
 O138 O 0.55120 0.57975 0.12428
 O139 O 0.57768 0.51629 0.06201
 C140 C 0.57572 0.55556 0.10621
 O141 O 0.47067 0.61786 0.11776
 O142 O 0.43260 0.57980 0.05727
 C143 C 0.44292 0.61429 0.10092
 O144 O 0.52754 0.39790 0.13331
 O145 O 0.56605 0.42906 0.06620
 C146 C 0.55539 0.39948 0.11541
 Zr147 Zr 0.49074 0.44055 0.09318
 O148 O 0.48753 0.44687 0.20440
 O149 O 0.48249 0.35878 0.09700
 Zr150 Zr 0.50751 0.56943 0.08789
 O151 O 0.50365 0.57079 0.19927
 O152 O 0.52070 0.64906 0.08877
 Zr153 Zr 0.54292 0.48345 0.00283
 Zr154 Zr 0.45657 0.52146 0.00041
 O155 O 0.47388 0.51648 0.10278
 O156 O 0.52506 0.49410 0.10521
 O157 O 0.46392 0.43937 0.00426
 O158 O 0.53429 0.56515 -0.00108
 O159 O 0.51528 0.41746 0.00528
 O160 O 0.48378 0.58814 -0.00245
 H161 H 0.46222 0.51473 -0.14266
 H162 H 0.55090 0.59019 -0.00267
 H163 H 0.46056 0.52344 0.14383
 H164 H 0.52433 0.38164 0.00644
 H165 H 0.51109 0.66346 -0.06384
 H166 H 0.50814 0.66815 0.05467
 H167 H 0.51954 0.54767 0.21804
 H168 H 0.50687 0.45918 0.22168
 H169 H 0.46784 0.35098 0.05999
 H170 H 0.48005 0.33978 -0.12140
 H171 H 0.50676 0.44817 -0.21457
 H172 H 0.52198 0.53420 -0.21857
 C173 C 0.33372 0.35858 0.29271
 C174 C 0.32007 0.40001 0.25904
 C175 C 0.29071 0.41509 0.27282
 C176 C 0.27484 0.38630 0.32336
 C177 C 0.28844 0.34315 0.35844
 C178 C 0.31835 0.32927 0.34241
 O179 O 0.36189 0.35127 0.27361
 C180 C 0.36621 0.38886 0.22669
 C181 C 0.34133 0.41970 0.21556
 C182 C 0.34114 0.46159 0.16881
 C183 C 0.36769 0.47225 0.13250
 C184 C 0.39384 0.44143 0.14388
 C185 C 0.39282 0.39888 0.19155
 H186 H 0.28046 0.44804 0.24601
 H187 H 0.25202 0.39754 0.33498
 H188 H 0.32958 0.29700 0.36861
 H189 H 0.32133 0.48541 0.16086
 H190 H 0.36788 0.50499 0.09632
 H191 H 0.41222 0.37449 0.20171
 C192 C -0.15936 0.83018 0.28312
 C193 C -0.17427 0.87115 0.25129
 C194 C -0.20317 0.88597 0.26966
 C195 C -0.21727 0.85735 0.32294
 C196 C -0.20246 0.81456 0.35608
 C197 C -0.17310 0.80066 0.33541
 O198 O -0.13157 0.82413 0.26033
 C199 C -0.12892 0.86202 0.21303
 C200 C -0.15446 0.89165 0.20508
 C201 C -0.15635 0.93402 0.15930
 C202 C -0.13071 0.94692 0.12102
 C203 C -0.10377 0.91799 0.12996
 C204 C -0.10314 0.87436 0.17600
 H205 H -0.21436 0.91870 0.24442
 H206 H -0.23983 0.86822 0.33791
 H207 H -0.16114 0.76858 0.36023
 H208 H -0.17669 0.95687 0.15407
 H209 H -0.13166 0.98043 0.08619
 H210 H -0.08300 0.85148 0.18432
 C211 C 0.67097 0.62669 0.28715
 C212 C 0.66686 0.66236 0.23379
 C213 C 0.67959 0.71188 0.23385
 C214 C 0.69743 0.72521 0.29119
 C215 C 0.70255 0.68882 0.34605
 C216 C 0.68938 0.63862 0.34382
 O217 O 0.65474 0.58375 0.27968
 C218 C 0.64017 0.59247 0.22019
 C219 C 0.64713 0.63984 0.18984
 C220 C 0.63351 0.65851 0.12945
 C221 C 0.61125 0.62778 0.09999
 C222 C 0.60299 0.57967 0.13125
 C223 C 0.61790 0.56113 0.19159
 H224 H 0.67546 0.73966 0.19200
 H225 H 0.70744 0.76370 0.29282
 H226 H 0.69254 0.61068 0.38600
 H227 H 0.63910 0.69623 0.10721
 H228 H 0.59944 0.64249 0.05454
 H229 H 0.61121 0.52534 0.21752
 C230 C 0.15447 1.17208 0.30057
 C231 C 0.16814 1.12952 0.26816
 C232 C 0.19730 1.11428 0.28085
 C233 C 0.21320 1.14402 0.32955
 C234 C 0.19998 1.18875 0.36388
 C235 C 0.17008 1.20310 0.34833
 O236 O 0.12617 1.17833 0.28222
 C237 C 0.12205 1.13880 0.23700
 C238 C 0.14724 1.10824 0.22663
 C239 C 0.14850 1.06508 0.18170
 C240 C 0.12272 1.05254 0.14570
 C241 C 0.09589 1.08240 0.15566
 C242 C 0.09564 1.12649 0.20221
 H243 H 0.20737 1.08023 0.25482
 H244 H 0.23589 1.13202 0.34017
 H245 H 0.15903 1.23647 0.37382
 H246 H 0.16869 1.04187 0.17438
 H247 H 0.12387 1.01894 0.11019
 H248 H 0.07575 1.15027 0.21088
 C249 C 0.65603 0.31345 -0.27668
 C250 C 0.63716 0.27243 -0.26433
 C251 C 0.64127 0.22294 -0.29531
 C252 C 0.66560 0.21560 -0.34147
 C253 C 0.68506 0.25762 -0.35643
 C254 C 0.68023 0.30714 -0.32273
 O255 O 0.64769 0.35777 -0.24383
 C256 C 0.62294 0.34454 -0.21030
 C257 C 0.61542 0.29284 -0.22138
 C258 C 0.58931 0.27173 -0.19489
 C259 C 0.57016 0.30538 -0.15575
 C260 C 0.57762 0.35867 -0.14309
 C261 C 0.60451 0.37828 -0.17036
 H262 H 0.62604 0.19132 -0.28515
 H263 H 0.66874 0.17757 -0.36700
 H264 H 0.69442 0.34020 -0.33330
 H265 H 0.58356 0.23120 -0.20535
 H266 H 0.54948 0.29010 -0.13558
 H267 H 0.61017 0.41912 -0.16358
 C268 C 0.15841 0.79950 -0.27177
 C269 C 0.17178 0.82371 -0.21564
 C270 C 0.20163 0.83621 -0.21500
 C271 C 0.21850 0.82374 -0.27514
 C272 C 0.20587 0.79626 -0.33261
 C273 C 0.17548 0.78250 -0.33013
 O274 O 0.12888 0.80013 -0.26625
 C275 C 0.12371 0.82487 -0.20498
 C276 C 0.14944 0.83863 -0.17164
 C277 C 0.14992 0.86693 -0.10913
 C278 C 0.12278 0.88347 -0.08035
 C279 C 0.09560 0.87369 -0.11554
 C280 C 0.09603 0.84232 -0.17794
 H281 H 0.21122 0.85749 -0.17135
 H282 H 0.24162 0.83484 -0.27656
 H283 H 0.16496 0.76391 -0.37478
 H284 H 0.17057 0.87722 -0.08426
 H285 H 0.12334 0.90635 -0.03195
 H286 H 0.07588 0.83464 -0.20658
 C287 C 0.34815 0.69327 -0.27753
 C288 C 0.36918 0.73157 -0.27090
 C289 C 0.36777 0.77883 -0.30725
 C290 C 0.34369 0.78697 -0.35240
 C291 C 0.32184 0.74781 -0.36103
 C292 C 0.32414 0.70035 -0.32255
 O293 O 0.35418 0.65051 -0.24009
 C294 C 0.37966 0.66198 -0.20944
 C295 C 0.38982 0.71108 -0.22679
 C296 C 0.41694 0.72985 -0.20420
 C297 C 0.43455 0.69633 -0.16299
 C298 C 0.42463 0.64549 -0.14451
 C299 C 0.39653 0.62843 -0.16712
 H300 H 0.38474 0.80817 -0.30161
 H301 H 0.34239 0.82342 -0.38151
 H302 H 0.30794 0.66961 -0.32799
 H303 H 0.42464 0.76831 -0.21940
 H304 H 0.45610 0.70961 -0.14627
 H305 H 0.38878 0.58930 -0.15529
 C306 C -0.15904 1.16335 -0.29083
 C307 C -0.14031 1.20476 -0.27984
 C308 C -0.14470 1.25389 -0.31005
 C309 C -0.16931 1.26064 -0.35388
 C310 C -0.18877 1.21836 -0.36744
 C311 C -0.18356 1.16902 -0.33487
 O312 O -0.15045 1.11966 -0.25811
 C313 C -0.12567 1.13380 -0.22615
 C314 C -0.11846 1.18543 -0.23820
 C315 C -0.09268 1.20787 -0.21304
 C316 C -0.07339 1.17568 -0.17426
 C317 C -0.08033 1.12241 -0.16056
 C318 C -0.10707 1.10132 -0.18621
 H319 H -0.12955 1.28579 -0.30079
 H320 H -0.17279 1.29856 -0.37839
 H321 H -0.19786 1.13590 -0.34422
 H322 H -0.08734 1.24841 -0.22399
 H323 H -0.05300 1.19221 -0.15487
 H324 H -0.11262 1.06053 -0.17754
 C325 C 0.66560 0.64214 -0.29214
 C326 C 0.67777 0.59643 -0.26589
 C327 C 0.70546 0.57687 -0.28717
 C328 C 0.72126 0.60569 -0.33752
 C329 C 0.70961 0.65403 -0.36399
 C330 C 0.68132 0.67241 -0.34016
 O331 O 0.63831 0.65227 -0.26823
 C332 C 0.63323 0.61226 -0.22551
 C333 C 0.65682 0.57741 -0.22137
 C334 C 0.65643 0.53330 -0.17852
 C335 C 0.63047 0.52435 -0.13926
 C336 C 0.60521 0.55819 -0.14553
 C337 C 0.60692 0.60328 -0.18865
 H338 H 0.71437 0.54031 -0.26665
 H339 H 0.74278 0.59063 -0.35481
 H340 H 0.67134 0.70845 -0.35982
 H341 H 0.67545 0.50688 -0.17516
 H342 H 0.62995 0.49060 -0.10489
 H343 H 0.58830 0.63044 -0.19388
 C344 C 0.16153 1.16374 -0.28216
 C345 C 0.17529 1.11927 -0.25639
 C346 C 0.20384 1.10366 -0.27670
 C347 C 0.21874 1.13499 -0.32585
 C348 C 0.20513 1.18147 -0.35322
 C349 C 0.17608 1.19604 -0.32999
 O350 O 0.13388 1.17036 -0.25864
 C351 C 0.13014 1.12924 -0.21699
 C352 C 0.15486 1.09691 -0.21332
 C353 C 0.15558 1.05124 -0.17328
 C354 C 0.12968 1.03826 -0.13591
 C355 C 0.10368 1.07046 -0.14011
 C356 C 0.10410 1.11677 -0.18108
 H357 H 0.21411 1.06818 -0.25629
 H358 H 0.24088 1.12277 -0.34249
 H359 H 0.16468 1.23064 -0.34993
 H360 H 0.17525 1.02627 -0.17137
 H361 H 0.12968 1.00251 -0.10521
 H362 H 0.08467 1.14217 -0.18540
 C363 C 0.33503 0.35375 -0.28547
 C364 C 0.32134 0.39442 -0.24869
 C365 C 0.29201 0.40978 -0.25983
 C366 C 0.27613 0.38207 -0.31108
 C367 C 0.28971 0.33978 -0.34966
 C368 C 0.31962 0.32544 -0.33620
 O369 O 0.36326 0.34636 -0.26826
 C370 C 0.36750 0.38318 -0.21946
 C371 C 0.34251 0.41353 -0.20545
 C372 C 0.34210 0.45487 -0.15701
 C373 C 0.36858 0.46565 -0.12192
 C374 C 0.39488 0.43538 -0.13595
 C375 C 0.39411 0.39322 -0.18527
 H376 H 0.28178 0.44217 -0.23051
 H377 H 0.25329 0.39358 -0.32060
 H378 H 0.33077 0.29374 -0.36507
 H379 H 0.32220 0.47833 -0.14705
 H380 H 0.36857 0.49818 -0.08459
 H381 H 0.41369 0.36945 -0.19761
 C382 C -0.16556 0.84031 -0.27701
 C383 C -0.15250 0.79936 -0.24107
 C384 C -0.15843 0.74681 -0.25494
 C385 C -0.17852 0.73572 -0.30856
 C386 C -0.19245 0.77689 -0.34673
 C387 C -0.18624 0.83013 -0.32998
 O388 O -0.15483 0.88707 -0.25898
 C389 C -0.13456 0.87518 -0.21078
 C390 C -0.13251 0.82194 -0.19803
 C391 C -0.11152 0.79975 -0.15375
 C392 C -0.09132 0.83360 -0.12223
 C393 C -0.09243 0.88853 -0.13502
 C394 C -0.11479 0.91001 -0.17879
 H395 H -0.14742 0.71536 -0.22667
 H396 H -0.18309 0.69490 -0.32078
 H397 H -0.19609 0.86223 -0.35933
 H398 H -0.11010 0.75764 -0.14562
 H399 H -0.07421 0.81686 -0.08908
 H400 H -0.11556 0.95163 -0.19076
 C401 C 0.34390 0.69530 0.27133
 C402 C 0.36249 0.73646 0.25740
 C403 C 0.35881 0.78590 0.28844
 C404 C 0.33520 0.79312 0.33637
 C405 C 0.31606 0.75096 0.35318
 C406 C 0.32038 0.70144 0.31938
 O407 O 0.35204 0.65096 0.23833
 C408 C 0.37639 0.66440 0.20333
 C409 C 0.38384 0.71621 0.21357
 C410 C 0.40977 0.73750 0.18641
 C411 C 0.42897 0.70379 0.14774
 C412 C 0.42163 0.65037 0.13618
 C413 C 0.39475 0.63064 0.16349
 H414 H 0.37389 0.81753 0.27708
 H415 H 0.33240 0.83126 0.36181
 H416 H 0.30639 0.66837 0.33138
 H417 H 0.41543 0.77813 0.19643
 H418 H 0.44965 0.71899 0.12743
 H419 H 0.38913 0.58957 0.15712
 C420 C -0.16603 1.16828 0.26135
 C421 C -0.15122 1.21217 0.23928
 C422 C -0.15724 1.26223 0.26654
 C423 C -0.17937 1.26738 0.31887
 C424 C -0.19487 1.22265 0.34373
 C425 C -0.18807 1.17236 0.31358
 O426 O -0.15589 1.12399 0.23119
 C427 C -0.13411 1.14027 0.18945
 C428 C -0.13031 1.19393 0.19261
 C429 C -0.10728 1.21893 0.15761
 C430 C -0.08699 1.18723 0.11905
 C431 C -0.09033 1.13186 0.11532
 C432 C -0.11458 1.10815 0.14986
 H433 H -0.14505 1.29611 0.24884
 H434 H -0.18396 1.30628 0.34068
 H435 H -0.19907 1.13714 0.33113
 H436 H -0.10438 1.26106 0.16207
 H437 H -0.06820 1.20549 0.09360
 H438 H -0.11693 1.06578 0.14997
 C439 C 0.65408 0.31787 0.28119
 C440 C 0.63510 0.27714 0.26815
 C441 C 0.63912 0.22721 0.29648
 C442 C 0.66351 0.21909 0.34077
 C443 C 0.68304 0.26083 0.35652
 C444 C 0.67830 0.31083 0.32554
 O445 O 0.64591 0.36254 0.25044
 C446 C 0.62111 0.34984 0.21768
 C447 C 0.61342 0.29812 0.22727
 C448 C 0.58737 0.27723 0.20106
 C449 C 0.56838 0.31117 0.16388
 C450 C 0.57602 0.36441 0.15272
 C451 C 0.60293 0.38389 0.17928
 H452 H 0.62380 0.19583 0.28562
 H453 H 0.66673 0.18065 0.36407
 H454 H 0.69265 0.34363 0.33662
 H455 H 0.58165 0.23657 0.20995
 H456 H 0.54782 0.29605 0.14341
 H457 H 0.60898 0.42467 0.17233
 C458 C 0.15894 0.84315 0.29857
 C459 C 0.14008 0.80152 0.29068
 C460 C 0.14468 0.75321 0.32276
 C461 C 0.16975 0.74748 0.36508
 C462 C 0.18946 0.78993 0.37521
 C463 C 0.18393 0.83853 0.34121
 O464 O 0.15014 0.88579 0.26386
 C465 C 0.12513 0.87067 0.23383
 C466 C 0.11798 0.81952 0.24908
 C467 C 0.09216 0.79613 0.22596
 C468 C 0.07275 0.82685 0.18566
 C469 C 0.07967 0.87955 0.16854
 C470 C 0.10640 0.90164 0.19242
 H471 H 0.12942 0.72116 0.31580
 H472 H 0.17347 0.71012 0.39092
 H473 H 0.19847 0.87167 0.34797
 H474 H 0.08695 0.75595 0.23934
 H475 H 0.05236 0.80955 0.16749
 H476 H 0.11190 0.94199 0.18108
   
