data_POSCAR
  _audit_creation_date              2014-09-24
  _audit_creation_method            'ToBaCCo'
  _symmetry_space_group_name_H-M    'P1'
  _symmetry_Int_Tables_number       1
  _symmetry_cell_setting            triclinic
  loop_
  _symmetry_equiv_pos_as_xyz
 x,y,z
_cell_length_a 47.8711
_cell_length_b 40.7342
_cell_length_c 46.3233
_cell_angle_alpha 89.319500
_cell_angle_beta 88.744300
_cell_angle_gamma 89.137100
loop_
  _atom_site_label
  _atom_site_type_symbol
  _atom_site_fract_x
  _atom_site_fract_y
  _atom_site_fract_z
C1 C 0.30108 0.27008 0.21367
 H2 H 0.31191 0.25157 0.22618
 C3 C 0.31635 0.29005 0.19456
 H4 H 0.33888 0.28736 0.19350
 C5 C 0.25876 0.29565 0.19945
 H6 H 0.23624 0.29760 0.20142
 C7 C 0.27316 0.31600 0.17998
 H8 H 0.26148 0.33331 0.16685
 N9 N 0.27287 0.27397 0.21650
 C10 C 0.21120 0.26202 0.28624
 H11 H 0.21034 0.23549 0.28682
 C12 C 0.19400 0.28044 0.30478
 H13 H 0.18022 0.26777 0.31987
 C14 C 0.23106 0.31043 0.26639
 H15 H 0.24585 0.32201 0.25174
 C16 C 0.21404 0.32986 0.28441
 H17 H 0.21549 0.35632 0.28282
 Zn18 Zn 0.25118 0.24918 0.24360
 N19 N 0.22909 0.27715 0.26739
 C20 C 0.26602 0.19271 0.27689
 N21 N 0.27381 0.22358 0.26886
 C22 C 0.29643 0.23774 0.28061
 C23 C 0.31358 0.21978 0.29921
 C24 C 0.28220 0.17416 0.29598
 C25 C 0.20149 0.23444 0.21567
 C26 C 0.18356 0.21615 0.19901
 C27 C 0.21879 0.17320 0.19645
 C28 C 0.23641 0.19285 0.21227
 N29 N 0.22727 0.22246 0.22220
 H30 H 0.24699 0.18259 0.26893
 H31 H 0.30127 0.26300 0.27540
 H32 H 0.33188 0.23108 0.30791
 H33 H 0.27595 0.14951 0.30196
 H34 H 0.19501 0.25855 0.22298
 H35 H 0.16358 0.22692 0.19344
 H36 H 0.22632 0.14913 0.19014
 H37 H 0.25734 0.18427 0.21690
 C38 C 0.19510 0.31489 0.30391
 C39 C 0.30244 0.31380 0.17772
 C40 C 0.19188 0.18476 0.18935
 C41 C 0.30655 0.18754 0.30691
 C42 C 0.78609 0.79981 0.24346
 H43 H 0.78438 0.80379 0.26648
 C44 C 0.80534 0.81760 0.22670
 H45 H 0.81736 0.83587 0.23746
 C46 C 0.77108 0.77191 0.20226
 H47 H 0.75828 0.75339 0.19290
 C48 C 0.79006 0.78900 0.18468
 H49 H 0.79149 0.78235 0.16217
 N50 N 0.76906 0.77797 0.23099
 C51 C 0.69975 0.76949 0.29322
 H52 H 0.69939 0.74303 0.29546
 C53 C 0.68112 0.78881 0.30945
 H54 H 0.66680 0.77691 0.32449
 C55 C 0.71959 0.81683 0.27137
 H56 H 0.73435 0.82760 0.25620
 C57 C 0.70114 0.83714 0.28705
 H58 H 0.70194 0.86346 0.28370
 Zn59 Zn 0.74337 0.75464 0.25489
 N60 N 0.71884 0.78366 0.27507
 C61 C 0.76285 0.73596 0.31012
 N62 N 0.76438 0.72920 0.28145
 C63 C 0.78154 0.70494 0.27113
 C64 C 0.79699 0.68528 0.29007
 C65 C 0.77816 0.71718 0.32977
 C66 C 0.70483 0.74295 0.21208
 C67 C 0.68770 0.72484 0.19443
 C68 C 0.70255 0.67549 0.21951
 C69 C 0.71951 0.69456 0.23662
 N70 N 0.72071 0.72761 0.23230
 H71 H 0.74998 0.75614 0.31785
 H72 H 0.78282 0.70051 0.24815
 H73 H 0.80974 0.66538 0.28144
 H74 H 0.77680 0.72326 0.35245
 H75 H 0.70583 0.76933 0.20943
 H76 H 0.67591 0.73751 0.17790
 H77 H 0.70176 0.64926 0.22339
 H78 H 0.73147 0.68290 0.25348
 C79 C 0.68170 0.82318 0.30663
 C80 C 0.80754 0.81280 0.19654
 C81 C 0.68650 0.69058 0.19789
 C82 C 0.79527 0.69113 0.31991
 C83 C 0.79323 0.29204 0.72671
 H84 H 0.79457 0.29697 0.74953
 C85 C 0.80814 0.31125 0.70670
 H86 H 0.82033 0.33137 0.71441
 C87 C 0.77519 0.26019 0.68919
 H88 H 0.76265 0.24000 0.68237
 C89 C 0.79006 0.27841 0.66849
 H90 H 0.78878 0.27178 0.64601
 N91 N 0.77654 0.26763 0.71766
 C92 C 0.71071 0.25686 0.78397
 H93 H 0.70872 0.23050 0.78422
 C94 C 0.69269 0.27585 0.80123
 H95 H 0.67785 0.26362 0.81550
 C96 C 0.73185 0.30459 0.76449
 H97 H 0.74660 0.31593 0.74974
 C98 C 0.71408 0.32457 0.78124
 H99 H 0.71560 0.35098 0.77911
 Zn100 Zn 0.75515 0.24312 0.74525
 N101 N 0.73047 0.27129 0.76673
 C102 C 0.76916 0.20401 0.79396
 N103 N 0.77978 0.22018 0.77051
 C104 C 0.80771 0.21970 0.76462
 C105 C 0.82612 0.20296 0.78283
 C106 C 0.78671 0.18731 0.81295
 C107 C 0.71237 0.22559 0.70895
 C108 C 0.69600 0.20489 0.69283
 C109 C 0.72156 0.15837 0.71230
 C110 C 0.73765 0.18004 0.72788
 N111 N 0.73295 0.21297 0.72571
 H112 H 0.74692 0.20348 0.79787
 H113 H 0.81589 0.23231 0.74569
 H114 H 0.84813 0.20481 0.77757
 H115 H 0.77667 0.17374 0.83035
 H116 H 0.70916 0.25191 0.70763
 H117 H 0.68044 0.21565 0.67883
 H118 H 0.72555 0.13223 0.71436
 H119 H 0.75410 0.17056 0.74140
 C120 C 0.69445 0.31022 0.80032
 C121 C 0.80647 0.30475 0.67705
 C122 C 0.70055 0.17075 0.69422
 C123 C 0.81603 0.18639 0.80796
 C124 C 0.28425 0.79111 0.73656
 H125 H 0.28311 0.79792 0.75906
 C126 C 0.29990 0.80991 0.71681
 H127 H 0.31038 0.83148 0.72429
 C128 C 0.27124 0.75524 0.69947
 H129 H 0.26047 0.73359 0.69281
 C130 C 0.28681 0.77308 0.67911
 H131 H 0.28775 0.76486 0.65696
 N132 N 0.26959 0.76497 0.72745
 C133 C 0.20347 0.75597 0.79343
 H134 H 0.20511 0.72987 0.79781
 C135 C 0.18420 0.77517 0.80902
 H136 H 0.17141 0.76364 0.82570
 C137 C 0.21881 0.80257 0.76681
 H138 H 0.23194 0.81307 0.74997
 C139 C 0.19970 0.82269 0.78178
 H140 H 0.19846 0.84858 0.77631
 Zn141 Zn 0.24672 0.74154 0.75427
 N142 N 0.22076 0.76996 0.77329
 C143 C 0.26882 0.72931 0.80974
 N144 N 0.27024 0.72058 0.78149
 C145 C 0.28862 0.69705 0.77211
 C146 C 0.30531 0.67988 0.79172
 C147 C 0.28529 0.71303 0.83002
 C148 C 0.20806 0.72304 0.71412
 C149 C 0.19267 0.70220 0.69715
 C150 C 0.21206 0.65586 0.72332
 C151 C 0.22724 0.67766 0.73974
 N152 N 0.22546 0.71054 0.73441
 H153 H 0.25493 0.74896 0.81666
 H154 H 0.28976 0.69103 0.74942
 H155 H 0.31891 0.66030 0.78393
 H156 H 0.28380 0.72043 0.85238
 H157 H 0.20681 0.74932 0.71058
 H158 H 0.17989 0.71273 0.68031
 H159 H 0.21383 0.62976 0.72774
 H160 H 0.24046 0.66822 0.75659
 C161 C 0.18229 0.80911 0.80349
 C162 C 0.30093 0.80127 0.68750
 C163 C 0.19477 0.66805 0.70140
 C164 C 0.30350 0.68750 0.82123
 C165 C -0.02919 -0.01961 0.02346
 C166 C -0.01456 0.00200 0.00502
 C167 C -0.02927 0.02395 -0.01282
 C168 C -0.05860 0.02464 -0.01232
 C169 C -0.07299 0.00252 0.00586
 C170 C -0.05854 -0.01985 0.02362
 C171 C 0.01618 0.00089 0.00326
 C172 C 0.02963 -0.01248 -0.02115
 C173 C 0.05887 -0.01258 -0.02385
 C174 C 0.07444 0.00183 -0.00212
 C175 C 0.06132 0.01526 0.02267
 C176 C 0.03198 0.01419 0.02529
 H177 H -0.01772 -0.03696 0.03678
 H178 H -0.01777 0.04074 -0.02678
 H179 H 0.01722 -0.02264 -0.03808
 H180 H 0.02124 0.02389 0.04423
 H181 H -0.09562 0.00243 0.00600
 H182 H 0.09694 0.00246 -0.00462
 C183 C -0.02428 0.48428 0.51577
 C184 C -0.01014 0.50348 0.49508
 C185 C -0.02520 0.52098 0.47424
 C186 C -0.05453 0.51974 0.47408
 C187 C -0.06849 0.50020 0.49493
 C188 C -0.05355 0.48232 0.51588
 C189 C 0.02047 0.50572 0.49578
 C190 C 0.03715 0.49107 0.47421
 C191 C 0.06646 0.49173 0.47553
 C192 C 0.07878 0.50858 0.49826
 C193 C 0.06216 0.52406 0.51969
 C194 C 0.03297 0.52193 0.51848
 H195 H -0.01228 0.47043 0.53143
 H196 H -0.01402 0.53633 0.45877
 H197 H 0.02717 0.47885 0.45662
 H198 H 0.01982 0.53288 0.53522
 H199 H -0.09106 0.49905 0.49495
 H200 H 0.10131 0.50959 0.49934
 C201 C 0.46597 -0.01325 0.52549
 C202 C 0.47854 0.00765 0.50499
 C203 C 0.46195 0.02589 0.48591
 C204 C 0.43266 0.02332 0.48700
 C205 C 0.42039 0.00174 0.50741
 C206 C 0.43682 -0.01653 0.52682
 C207 C 0.50915 0.01046 0.50363
 C208 C 0.52447 -0.00275 0.48032
 C209 C 0.55381 -0.00143 0.47940
 C210 C 0.56748 0.01463 0.50172
 C211 C 0.55226 0.02856 0.52498
 C212 C 0.52304 0.02578 0.52594
 H213 H 0.47905 -0.02748 0.53995
 H214 H 0.47200 0.04268 0.47080
 H215 H 0.51343 -0.01436 0.46311
 H216 H 0.51096 0.03553 0.54403
 H217 H 0.39792 -0.00076 0.50835
 H218 H 0.59003 0.01617 0.50104
 C219 C 0.48280 0.48110 0.01866
 C220 C 0.49770 0.50156 -0.00046
 C221 C 0.48337 0.52095 -0.02064
 C222 C 0.45408 0.52017 -0.02182
 C223 C 0.43939 0.49921 -0.00271
 C224 C 0.45357 0.47953 0.01752
 C225 C 0.52843 0.50178 -0.00006
 C226 C 0.54392 0.48725 -0.02261
 C227 C 0.57325 0.48612 -0.02217
 C228 C 0.58688 0.50086 0.00083
 C229 C 0.57158 0.51614 0.02336
 C230 C 0.54223 0.51602 0.02291
 H231 H 0.49406 0.46620 0.03421
 H232 H 0.49512 0.53697 -0.03508
 H233 H 0.53297 0.47664 -0.04039
 H234 H 0.53004 0.52701 0.04036
 H235 H 0.41692 0.49739 -0.00418
 H236 H 0.60948 0.50044 0.00124
 C237 C 0.11899 -0.16252 -0.15224
 C238 C 0.12729 -0.13153 -0.14214
 C239 C 0.15346 -0.11955 -0.15215
 C240 C 0.17093 -0.13862 -0.17029
 C241 C 0.16285 -0.16982 -0.17910
 C242 C 0.13651 -0.18122 -0.17030
 C243 C 0.16241 -0.08883 -0.14363
 C244 C 0.14626 -0.06978 -0.12487
 C245 C 0.12045 -0.08090 -0.11344
 C246 C 0.11080 -0.11232 -0.12218
 C247 C 0.08545 -0.12393 -0.11000
 C248 C 0.07038 -0.10600 -0.08952
 C249 C 0.07962 -0.07558 -0.08055
 C250 C 0.10439 -0.06213 -0.09282
 C251 C 0.11223 -0.03064 -0.08348
 C252 C 0.09699 -0.01430 -0.06185
 C253 C 0.07336 -0.02851 -0.04883
 C254 C 0.06445 -0.05887 -0.05881
 H255 H 0.09913 -0.17317 -0.14665
 H256 H 0.19131 -0.12951 -0.17678
 H257 H 0.12935 -0.20483 -0.17741
 H258 H 0.18234 -0.07948 -0.15135
 H259 H 0.15508 -0.04664 -0.11919
 H260 H 0.07690 -0.14734 -0.11526
 H261 H 0.05136 -0.11630 -0.08034
 H262 H 0.13006 -0.01788 -0.09229
 H263 H 0.10389 0.00959 -0.05517
 H264 H 0.04621 -0.07017 -0.04888
 C265 C 0.13210 0.34280 0.34880
 C266 C 0.14170 0.37145 0.36219
 C267 C 0.16899 0.38213 0.35468
 C268 C 0.18623 0.36376 0.33575
 C269 C 0.17665 0.33487 0.32336
 C270 C 0.14929 0.32497 0.32978
 C271 C 0.17906 0.41099 0.36623
 C272 C 0.16260 0.42977 0.38498
 C273 C 0.13545 0.42001 0.39356
 C274 C 0.12515 0.38987 0.38260
 C275 C 0.09898 0.37869 0.39298
 C276 C 0.08320 0.39643 0.41300
 C277 C 0.09249 0.42633 0.42314
 C278 C 0.11849 0.43893 0.41328
 C279 C 0.12629 0.47002 0.42359
 C280 C 0.10935 0.48717 0.44340
 C281 C 0.08410 0.47404 0.45371
 C282 C 0.07584 0.44358 0.44332
 H283 H 0.11126 0.33371 0.35210
 H284 H 0.20737 0.37174 0.33108
 H285 H 0.14093 0.30341 0.31983
 H286 H 0.19992 0.41927 0.36060
 H287 H 0.17216 0.45151 0.39302
 H288 H 0.09032 0.35569 0.38665
 H289 H 0.06339 0.38663 0.42057
 H290 H 0.14511 0.48210 0.41646
 H291 H 0.11597 0.51103 0.45043
 H292 H 0.05652 0.43288 0.45130
 C293 C 0.61760 -0.14783 0.34929
 C294 C 0.62679 -0.11863 0.36211
 C295 C 0.65390 -0.10758 0.35429
 C296 C 0.67147 -0.12624 0.33590
 C297 C 0.66246 -0.15591 0.32446
 C298 C 0.63515 -0.16602 0.33088
 C299 C 0.66355 -0.07820 0.36521
 C300 C 0.64701 -0.05947 0.38393
 C301 C 0.62018 -0.06981 0.39311
 C302 C 0.61014 -0.10022 0.38245
 C303 C 0.58423 -0.11178 0.39323
 C304 C 0.56869 -0.09443 0.41373
 C305 C 0.57792 -0.06454 0.42394
 C306 C 0.60343 -0.05132 0.41335
 C307 C 0.61110 -0.02019 0.42366
 C308 C 0.59476 -0.00384 0.44448
 C309 C 0.57023 -0.01779 0.45582
 C310 C 0.56183 -0.04804 0.44508
 H311 H 0.59688 -0.15724 0.35277
 H312 H 0.69253 -0.11804 0.33117
 H313 H 0.62720 -0.18820 0.32159
 H314 H 0.68423 -0.06956 0.35927
 H315 H 0.65632 -0.03739 0.39156
 H316 H 0.57567 -0.13485 0.38696
 H317 H 0.54918 -0.10465 0.42174
 H318 H 0.62945 -0.00757 0.41592
 H319 H 0.60138 0.01997 0.45165
 H320 H 0.54302 -0.05933 0.45373
 C321 C 0.63194 0.34006 -0.15494
 C322 C 0.64240 0.36802 -0.14111
 C323 C 0.66995 0.37776 -0.14857
 C324 C 0.68661 0.35913 -0.16782
 C325 C 0.67624 0.33082 -0.18051
 C326 C 0.64860 0.32190 -0.17422
 C327 C 0.68095 0.40585 -0.13656
 C328 C 0.66526 0.42466 -0.11719
 C329 C 0.63793 0.41572 -0.10849
 C330 C 0.62655 0.38651 -0.12017
 C331 C 0.60006 0.37623 -0.10990
 C332 C 0.58514 0.39380 -0.08907
 C333 C 0.59562 0.42266 -0.07800
 C334 C 0.62189 0.43448 -0.08788
 C335 C 0.63093 0.46462 -0.07663
 C336 C 0.61502 0.48143 -0.05576
 C337 C 0.58959 0.46894 -0.04531
 C338 C 0.57997 0.43959 -0.05679
 H339 H 0.61086 0.33170 -0.15165
 H340 H 0.70798 0.36631 -0.17235
 H341 H 0.63968 0.30079 -0.18437
 H342 H 0.70201 0.41342 -0.14219
 H343 H 0.67557 0.44569 -0.10877
 H344 H 0.59049 0.35404 -0.11691
 H345 H 0.56508 0.38464 -0.08156
 H346 H 0.65000 0.47618 -0.08370
 H347 H 0.62263 0.50453 -0.04795
 H348 H 0.56044 0.42944 -0.04879
 C349 C -0.12207 0.14124 -0.16398
 C350 C -0.13072 0.13320 -0.13543
 C351 C -0.15721 0.14510 -0.12591
 C352 C -0.17461 0.16286 -0.14467
 C353 C -0.16642 0.16994 -0.17358
 C354 C -0.13938 0.15920 -0.18246
 C355 C -0.16643 0.13927 -0.09759
 C356 C -0.15008 0.12153 -0.07843
 C357 C -0.12376 0.10837 -0.08693
 C358 C -0.11407 0.11387 -0.11604
 C359 C -0.08842 0.09922 -0.12495
 C360 C -0.07287 0.07972 -0.10627
 C361 C -0.08189 0.07439 -0.07781
 C362 C -0.10715 0.08915 -0.06749
 C363 C -0.11477 0.08382 -0.03811
 C364 C -0.09871 0.06354 -0.02035
 C365 C -0.07443 0.04789 -0.03101
 C366 C -0.06590 0.05393 -0.05970
 H367 H -0.10199 0.13398 -0.17289
 H368 H -0.19412 0.17243 -0.13576
 H369 H -0.13162 0.16270 -0.20433
 H370 H -0.18668 0.14843 -0.09011
 H371 H -0.15914 0.11790 -0.05719
 H372 H -0.07999 0.10162 -0.14660
 H373 H -0.05355 0.06856 -0.11427
 H374 H -0.13293 0.09503 -0.02801
 H375 H -0.10535 0.06011 0.00198
 H376 H -0.04715 0.04195 -0.06823
 C377 C -0.18612 0.64311 0.38768
 C378 C -0.15881 0.63113 0.38121
 C379 C -0.14729 0.63836 0.35344
 C380 C -0.16216 0.65800 0.33370
 C381 C -0.18897 0.67023 0.34072
 C382 C -0.20083 0.66220 0.36777
 C383 C -0.12096 0.62604 0.34546
 C384 C -0.10582 0.60623 0.36425
 C385 C -0.11618 0.59849 0.39225
 C386 C -0.14272 0.61204 0.40119
 C387 C -0.15201 0.60667 0.42998
 C388 C -0.13629 0.58822 0.44923
 C389 C -0.11096 0.57378 0.44056
 C390 C -0.10065 0.57824 0.41187
 C391 C -0.07529 0.56196 0.40405
 C392 C -0.06062 0.54293 0.42409
 C393 C -0.07055 0.53942 0.45262
 C394 C -0.09583 0.55496 0.46060
 H395 H -0.19705 0.63764 0.40768
 H396 H -0.15260 0.66407 0.31293
 H397 H -0.22183 0.67035 0.37352
 H398 H -0.11199 0.63157 0.32429
 H399 H -0.08561 0.59801 0.35635
 H400 H -0.17115 0.61715 0.43865
 H401 H -0.14420 0.58504 0.47119
 H402 H -0.06642 0.56287 0.38249
 H403 H -0.04152 0.53056 0.41706
 H404 H -0.10367 0.55281 0.48267
 C405 C 0.36956 0.14383 0.33770
 C406 C 0.35855 0.12946 0.36345
 C407 C 0.33009 0.13603 0.37073
 C408 C 0.31318 0.15452 0.35200
 C409 C 0.32439 0.16801 0.32646
 C410 C 0.35271 0.16297 0.31968
 C411 C 0.31866 0.12427 0.39670
 C412 C 0.33497 0.10665 0.41605
 C413 C 0.36332 0.09912 0.40972
 C414 C 0.37488 0.10930 0.38237
 C415 C 0.40208 0.09827 0.37455
 C416 C 0.41771 0.07864 0.39307
 C417 C 0.40736 0.07019 0.42049
 C418 C 0.38030 0.08095 0.42951
 C419 C 0.37156 0.07357 0.45819
 C420 C 0.38862 0.05534 0.47665
 C421 C 0.41486 0.04335 0.46723
 C422 C 0.42403 0.05103 0.43898
 H423 H 0.39125 0.14143 0.33124
 H424 H 0.29132 0.15900 0.35753
 H425 H 0.36177 0.17358 0.30013
 H426 H 0.29688 0.12907 0.40232
 H427 H 0.32444 0.09823 0.43550
 H428 H 0.41156 0.10348 0.35372
 H429 H 0.43834 0.07036 0.38596
 H430 H 0.35202 0.08240 0.46735
 H431 H 0.38129 0.05112 0.49863
 H432 H 0.44417 0.04195 0.43118
 C433 C 0.32307 0.64290 -0.10959
 C434 C 0.35068 0.63161 -0.11562
 C435 C 0.36234 0.63877 -0.14335
 C436 C 0.34715 0.65730 -0.16362
 C437 C 0.31991 0.66852 -0.15715
 C438 C 0.30807 0.66092 -0.13000
 C439 C 0.38908 0.62731 -0.15082
 C440 C 0.40443 0.60825 -0.13163
 C441 C 0.39380 0.60028 -0.10378
 C442 C 0.36686 0.61309 -0.09531
 C443 C 0.35716 0.60734 -0.06671
 C444 C 0.37275 0.58895 -0.04730
 C445 C 0.39843 0.57510 -0.05557
 C446 C 0.40933 0.58028 -0.08395
 C447 C 0.43517 0.56480 -0.09131
 C448 C 0.44954 0.54549 -0.07123
 C449 C 0.43881 0.54090 -0.04311
 C450 C 0.41323 0.55595 -0.03548
 H451 H 0.31210 0.63763 -0.08957
 H452 H 0.35668 0.66313 -0.18445
 H453 H 0.28681 0.66838 -0.12462
 H454 H 0.39819 0.63287 -0.17192
 H455 H 0.42490 0.60059 -0.13920
 H456 H 0.33769 0.61726 -0.05835
 H457 H 0.36443 0.58529 -0.02555
 H458 H 0.44465 0.56648 -0.11256
 H459 H 0.46894 0.53359 -0.07798
 H460 H 0.40481 0.55292 -0.01371
 C461 C -0.13154 -0.13560 0.17274
 C462 C -0.13639 -0.13041 0.14300
 C463 C -0.16019 -0.14524 0.13145
 C464 C -0.17835 -0.16386 0.14906
 C465 C -0.17361 -0.16868 0.17876
 C466 C -0.14972 -0.15420 0.19011
 C467 C -0.16612 -0.14118 0.10231
 C468 C -0.14909 -0.12251 0.08421
 C469 C -0.12526 -0.10681 0.09456
 C470 C -0.11871 -0.11087 0.12444
 C471 C -0.09498 -0.09492 0.13478
 C472 C -0.07851 -0.07523 0.11684
 C473 C -0.08480 -0.07066 0.08782
 C474 C -0.10804 -0.08669 0.07611
 C475 C -0.11323 -0.08151 0.04641
 C476 C -0.09679 -0.06045 0.02958
 C477 C -0.07446 -0.04391 0.04149
 C478 C -0.06820 -0.04965 0.07053
 H479 H -0.11377 -0.12582 0.18338
 H480 H -0.19698 -0.17322 0.13944
 H481 H -0.14412 -0.15798 0.21240
 H482 H -0.18430 -0.15252 0.09332
 H483 H -0.15553 -0.12068 0.06214
 H484 H -0.08860 -0.09680 0.15688
 H485 H -0.06071 -0.06319 0.12590
 H486 H -0.12992 -0.09310 0.03536
 H487 H -0.10164 -0.05701 0.00700
 H488 H -0.05092 -0.03693 0.07992
 C489 C -0.17696 0.35167 0.60761
 C490 C -0.15044 0.36497 0.61286
 C491 C -0.13871 0.35880 0.64027
 C492 C -0.15252 0.33885 0.66083
 C493 C -0.17863 0.32546 0.65511
 C494 C -0.19074 0.33243 0.62840
 C495 C -0.11327 0.37262 0.64713
 C496 C -0.09938 0.39310 0.62762
 C497 C -0.11008 0.39995 0.59999
 C498 C -0.13542 0.38454 0.59207
 C499 C -0.14456 0.38859 0.56345
 C500 C -0.12992 0.40770 0.54346
 C501 C -0.10600 0.42422 0.55127
 C502 C -0.09596 0.42111 0.57976
 C503 C -0.07238 0.43971 0.58685
 C504 C -0.05898 0.45961 0.56627
 C505 C -0.06840 0.46165 0.53786
 C506 C -0.09204 0.44386 0.53060
 H507 H -0.18805 0.35637 0.58797
 H508 H -0.14273 0.33360 0.68128
 H509 H -0.21128 0.32345 0.62362
 H510 H -0.10409 0.36784 0.66798
 H511 H -0.07978 0.40251 0.63462
 H512 H -0.16265 0.37650 0.55549
 H513 H -0.13760 0.40980 0.52166
 H514 H -0.06412 0.44009 0.60829
 H515 H -0.04132 0.47383 0.57283
 H516 H -0.09951 0.44495 0.50869
 C517 C 0.31834 -0.15391 0.61736
 C518 C 0.34397 -0.13871 0.62320
 C519 C 0.35491 -0.14314 0.65121
 C520 C 0.34109 -0.16291 0.67193
 C521 C 0.31590 -0.17813 0.66559
 C522 C 0.30466 -0.17315 0.63818
 C523 C 0.37955 -0.12774 0.65848
 C524 C 0.39339 -0.10741 0.63880
 C525 C 0.38339 -0.10210 0.61064
 C526 C 0.35880 -0.11891 0.60241
 C527 C 0.35006 -0.11576 0.57358
 C528 C 0.36420 -0.09605 0.55370
 C529 C 0.38738 -0.07830 0.56170
 C530 C 0.39731 -0.08084 0.59028
 C531 C 0.42054 -0.06154 0.59729
 C532 C 0.43329 -0.04099 0.57673
 C533 C 0.42350 -0.03890 0.54848
 C534 C 0.40059 -0.05787 0.54115
 H535 H 0.30786 -0.15088 0.59715
 H536 H 0.35011 -0.16661 0.69300
 H537 H 0.28482 -0.18371 0.63288
 H538 H 0.38811 -0.13116 0.67980
 H539 H 0.41228 -0.09663 0.64625
 H540 H 0.33254 -0.12873 0.56540
 H541 H 0.35669 -0.09445 0.53180
 H542 H 0.42904 -0.06113 0.61861
 H543 H 0.45060 -0.02613 0.58320
 H544 H 0.39302 -0.05685 0.51926
 C545 C 0.32503 0.39143 0.13822
 C546 C 0.34918 0.38099 0.12244
 C547 C 0.35767 0.34763 0.12542
 C548 C 0.34222 0.32583 0.14301
 C549 C 0.31833 0.33661 0.15841
 C550 C 0.31001 0.36961 0.15582
 C551 C 0.38159 0.33610 0.11091
 C552 C 0.39766 0.35698 0.09372
 C553 C 0.39025 0.39044 0.09000
 C554 C 0.36527 0.40248 0.10411
 C555 C 0.35707 0.43549 0.09917
 C556 C 0.37277 0.45616 0.08145
 C557 C 0.39744 0.44507 0.06810
 C558 C 0.40679 0.41218 0.07235
 C559 C 0.43241 0.40260 0.05879
 C560 C 0.44756 0.42452 0.04139
 C561 C 0.43784 0.45670 0.03683
 C562 C 0.41280 0.46682 0.05042
 H563 H 0.31735 0.41639 0.13793
 H564 H 0.34878 0.30030 0.14457
 H565 H 0.29204 0.37889 0.16796
 H566 H 0.38811 0.31059 0.11300
 H567 H 0.41567 0.34585 0.08328
 H568 H 0.33825 0.44617 0.10837
 H569 H 0.36549 0.48125 0.07820
 H570 H 0.44151 0.37842 0.06123
 H571 H 0.46679 0.41602 0.03102
 H572 H 0.40535 0.49188 0.04740
 C573 C 0.12584 0.15058 0.15717
 C574 C 0.13652 0.12786 0.13674
 C575 C 0.16583 0.12263 0.13529
 C576 C 0.18363 0.14153 0.15190
 C577 C 0.17285 0.16464 0.17167
 C578 C 0.14368 0.16826 0.17446
 C579 C 0.17732 0.09862 0.11719
 C580 C 0.16030 0.07921 0.10080
 C581 C 0.13104 0.08411 0.10086
 C582 C 0.11914 0.10994 0.11797
 C583 C 0.09054 0.11790 0.11483
 C584 C 0.07415 0.10113 0.09565
 C585 C 0.08519 0.07478 0.07992
 C586 C 0.11347 0.06501 0.08326
 C587 C 0.12296 0.03636 0.06897
 C588 C 0.10565 0.01964 0.05049
 C589 C 0.07844 0.03110 0.04507
 C590 C 0.06820 0.05841 0.06050
 H591 H 0.10374 0.15444 0.16095
 H592 H 0.20599 0.13828 0.14897
 H593 H 0.13434 0.18458 0.19033
 H594 H 0.19974 0.09451 0.11592
 H595 H 0.17083 0.06147 0.08714
 H596 H 0.08053 0.13816 0.12593
 H597 H 0.05251 0.10874 0.09327
 H598 H 0.14348 0.02584 0.07216
 H599 H 0.11382 -0.00240 0.04034
 H600 H 0.04721 0.06766 0.05692
 C601 C 0.17934 0.59643 0.65290
 C602 C 0.15255 0.60476 0.64237
 C603 C 0.13954 0.63395 0.65277
 C604 C 0.15291 0.65366 0.67275
 C605 C 0.17971 0.64548 0.68236
 C606 C 0.19261 0.61652 0.67245
 C607 C 0.11341 0.64373 0.64288
 C608 C 0.10018 0.62592 0.62198
 C609 C 0.11250 0.59718 0.61025
 C610 C 0.13856 0.58567 0.62146
 C611 C 0.14970 0.55550 0.61140
 C612 C 0.13643 0.53772 0.59045
 C613 C 0.11180 0.54944 0.57826
 C614 C 0.09952 0.57942 0.58780
 C615 C 0.07503 0.59070 0.57399
 C616 C 0.06316 0.57270 0.55210
 C617 C 0.07509 0.54282 0.54312
 C618 C 0.09947 0.53134 0.55638
 H619 H 0.19106 0.57512 0.64585
 H620 H 0.14248 0.67573 0.68059
 H621 H 0.21349 0.60982 0.67911
 H622 H 0.10320 0.66578 0.65105
 H623 H 0.08001 0.63524 0.61572
 H624 H 0.16862 0.54460 0.61957
 H625 H 0.14580 0.51469 0.58342
 H626 H 0.06481 0.61371 0.57902
 H627 H 0.04473 0.58260 0.54176
 H628 H 0.10883 0.50815 0.54978
 C629 C 0.68189 0.10111 0.64476
 C630 C 0.65350 0.10798 0.63873
 C631 C 0.64077 0.13572 0.65208
 C632 C 0.65585 0.15523 0.67086
 C633 C 0.68409 0.14844 0.67617
 C634 C 0.69683 0.12107 0.66304
 C635 C 0.61313 0.14426 0.64633
 C636 C 0.59804 0.12670 0.62665
 C637 C 0.60990 0.09935 0.61220
 C638 C 0.63760 0.08890 0.61937
 C639 C 0.64840 0.05967 0.60706
 C640 C 0.63321 0.04202 0.58750
 C641 C 0.60692 0.05303 0.57891
 C642 C 0.59490 0.08194 0.59096
 C643 C 0.56864 0.09265 0.58063
 C644 C 0.55497 0.07522 0.55953
 C645 C 0.56676 0.04641 0.54801
 C646 C 0.59273 0.03536 0.55804
 H647 H 0.69352 0.08116 0.63497
 H648 H 0.64557 0.17603 0.68117
 H649 H 0.71875 0.11554 0.66619
 H650 H 0.60317 0.16518 0.65678
 H651 H 0.57683 0.13497 0.62358
 H652 H 0.66850 0.04939 0.61245
 H653 H 0.64239 0.01974 0.57860
 H654 H 0.55840 0.11496 0.58772
 H655 H 0.53529 0.08486 0.55172
 H656 H 0.60201 0.01293 0.54956
 C657 C 0.62657 0.66483 0.15129
 C658 C 0.63617 0.63435 0.14011
 C659 C 0.66232 0.62208 0.14962
 C660 C 0.67838 0.64024 0.16861
 C661 C 0.66889 0.67079 0.17880
 C662 C 0.64270 0.68261 0.17020
 C663 C 0.67256 0.59188 0.13991
 C664 C 0.65758 0.57348 0.12073
 C665 C 0.63168 0.58474 0.11010
 C666 C 0.62088 0.61582 0.11978
 C667 C 0.59549 0.62765 0.10834
 C668 C 0.58125 0.61005 0.08800
 C669 C 0.59141 0.57978 0.07841
 C670 C 0.61651 0.56633 0.08959
 C671 C 0.62540 0.53508 0.07951
 C672 C 0.61057 0.51873 0.05856
 C673 C 0.58633 0.53270 0.04692
 C674 C 0.57670 0.56310 0.05730
 H675 H 0.60667 0.67570 0.14603
 H676 H 0.69870 0.63087 0.17491
 H677 H 0.63447 0.70574 0.17828
 H678 H 0.69252 0.58235 0.14715
 H679 H 0.66729 0.55066 0.11424
 H680 H 0.58618 0.65090 0.11420
 H681 H 0.56204 0.62041 0.07957
 H682 H 0.64367 0.52243 0.08734
 H683 H 0.61812 0.49489 0.05148
 H684 H 0.55806 0.57430 0.04836
   
