data_POSCAR
  _audit_creation_date              2014-09-24
  _audit_creation_method            'ToBaCCo'
  _symmetry_space_group_name_H-M    'P1'
  _symmetry_Int_Tables_number       1
  _symmetry_cell_setting            triclinic
  loop_
  _symmetry_equiv_pos_as_xyz
 x,y,z
_cell_length_a 24.4717
_cell_length_b 25.4494
_cell_length_c 24.1700
_cell_angle_alpha 90.372800
_cell_angle_beta 90.282400
_cell_angle_gamma 90.309300
loop_
  _atom_site_label
  _atom_site_type_symbol
  _atom_site_fract_x
  _atom_site_fract_y
  _atom_site_fract_z
O1 O 0.53424 0.10577 0.00234
 O2 O 0.45780 -0.04365 -0.10632
 O3 O 0.60383 0.00988 -0.06761
 O4 O 0.37979 0.03817 0.02842
 O5 O 0.55701 -0.05905 -0.09648
 O6 O 0.44157 0.08987 0.00528
 O7 O 0.41675 0.01952 -0.06615
 O8 O 0.60750 0.06521 0.01834
 C9 C 0.58440 0.10375 -0.00171
 C10 C 0.42685 -0.00473 -0.10964
 C11 C 0.59087 -0.02183 -0.10535
 C12 C 0.39300 0.08393 0.01816
 O13 O 0.45243 0.03241 0.10231
 O14 O 0.53375 -0.11556 -0.00234
 O15 O 0.59971 -0.01675 0.07858
 O16 O 0.36583 -0.05386 -0.01778
 O17 O 0.43888 -0.10149 -0.01328
 O18 O 0.55059 0.05208 0.10106
 O19 O 0.42305 -0.04253 0.06881
 O20 O 0.60876 -0.07307 -0.00723
 Co21 Co 0.49535 0.06432 0.04910
 Co22 Co 0.49758 -0.07321 -0.05011
 Co23 Co 0.59567 -0.00373 0.00502
 Co24 Co 0.42375 -0.01300 0.00003
 O25 O 0.50608 -0.00375 0.00157
 C26 C 0.42956 -0.01194 0.10953
 C27 C 0.58382 -0.11418 0.00438
 C28 C 0.58400 0.01593 0.11404
 C29 C 0.38797 -0.09975 -0.02362
 O30 O -0.10442 0.44261 -0.02409
 O31 O 0.05129 0.54208 0.10695
 O32 O -0.04808 0.42277 0.06154
 O33 O -0.07453 0.60530 -0.00100
 O34 O 0.02815 0.44785 0.10134
 O35 O -0.11950 0.53311 -0.00746
 O36 O -0.01966 0.58990 0.08552
 O37 O -0.05437 0.37262 -0.02872
 C38 C -0.10107 0.39454 -0.03735
 C39 C 0.01405 0.57423 0.12057
 C40 C -0.01845 0.42566 0.10420
 C41 C -0.11819 0.58056 0.00336
 O42 O -0.05508 0.56176 -0.09482
 O43 O 0.09317 0.44165 0.00736
 O44 O 0.02457 0.42386 -0.06882
 O45 O 0.06883 0.60135 0.02907
 O46 O 0.11045 0.53073 0.01027
 O47 O -0.03804 0.46605 -0.11114
 O48 O 0.01449 0.60421 -0.05815
 O49 O 0.03739 0.38165 0.02358
 Co50 Co -0.07231 0.50122 -0.05439
 Co51 Co 0.06490 0.49147 0.05260
 Co52 Co -0.01309 0.42694 -0.00471
 Co53 Co -0.00278 0.59120 0.01271
 O54 O -0.00330 0.50568 0.00238
 C55 C -0.01749 0.59659 -0.09805
 C56 C 0.08553 0.39454 0.01722
 C57 C 0.00197 0.43559 -0.11300
 C58 C 0.10958 0.57914 0.01037
 O59 O 0.00297 -0.10122 0.45147
 O60 O 0.11023 0.06349 0.54554
 O61 O 0.08258 -0.01365 0.41262
 O62 O 0.00034 -0.04276 0.62165
 O63 O 0.10819 0.06008 0.44501
 O64 O 0.00372 -0.09822 0.55321
 O65 O 0.08585 -0.00653 0.58626
 O66 O -0.00367 -0.05047 0.38023
 C67 C 0.00257 -0.09537 0.40026
 C68 C 0.12220 0.02538 0.57536
 C69 C 0.11956 0.01844 0.41999
 C70 C 0.00294 -0.08917 0.60407
 O71 O -0.08783 -0.04105 0.55444
 O72 O 0.00769 0.10311 0.44237
 O73 O -0.05901 0.02862 0.40959
 O74 O 0.02866 0.06758 0.63075
 O75 O 0.01044 0.10623 0.55011
 O76 O -0.08943 -0.04399 0.44812
 O77 O -0.05699 0.03363 0.59017
 O78 O 0.02411 0.05867 0.36417
 Co79 Co -0.03833 -0.06527 0.50146
 Co80 Co 0.05480 0.07666 0.49599
 Co81 Co 0.01364 0.01032 0.41705
 Co82 Co 0.01601 0.01592 0.58147
 O83 O 0.01179 0.00222 0.49938
 C84 C -0.09463 -0.00034 0.58438
 C85 C 0.01517 0.10342 0.38963
 C86 C -0.09704 -0.00394 0.41787
 C87 C 0.02218 0.11052 0.60198
 C88 C -0.36542 0.24065 -0.03499
 C89 C -0.31174 0.22970 -0.05126
 C90 C -0.29465 0.17767 -0.05686
 C91 C -0.32983 0.13669 -0.04322
 C92 C -0.38277 0.14720 -0.02403
 C93 C -0.40113 0.19939 -0.02187
 C94 C -0.27144 0.27065 -0.05495
 C95 C -0.23460 0.30212 -0.05487
 C96 C -0.18910 0.33602 -0.05144
 C97 C -0.14910 0.36327 -0.04610
 H98 H -0.37882 0.28090 -0.03007
 H99 H -0.25315 0.16880 -0.06913
 H100 H -0.31495 0.09675 -0.04580
 H101 H -0.44176 0.20833 -0.00708
 C102 C 0.35082 0.76049 -0.03195
 C103 C 0.29401 0.76390 -0.03634
 C104 C 0.26906 0.81311 -0.03952
 C105 C 0.30056 0.85895 -0.03666
 C106 C 0.35777 0.85623 -0.03021
 C107 C 0.38258 0.80623 -0.02921
 C108 C 0.26056 0.71756 -0.03255
 C109 C 0.23025 0.68067 -0.02660
 C110 C 0.19169 0.64068 -0.01649
 C111 C 0.15580 0.61011 -0.00539
 H112 H 0.37046 0.72254 -0.02917
 H113 H 0.22500 0.81609 -0.04271
 H114 H 0.27976 0.89639 -0.03829
 H115 H 0.42643 0.80216 -0.02465
 C116 C 0.33154 0.21889 0.00165
 C117 C 0.27688 0.20886 0.01485
 C118 C 0.26023 0.15804 0.02897
 C119 C 0.29812 0.11728 0.03000
 C120 C 0.35311 0.12698 0.01687
 C121 C 0.36955 0.17812 0.00265
 C122 C 0.23768 0.25056 0.01428
 C123 C 0.20400 0.28480 0.01430
 C124 C 0.16365 0.32396 0.01485
 C125 C 0.12838 0.35664 0.01575
 H126 H 0.34476 0.25815 -0.00929
 H127 H 0.21799 0.14996 0.03928
 H128 H 0.28442 0.07823 0.04115
 H129 H 0.41172 0.18658 -0.00759
 C130 C -0.29865 0.79929 0.04557
 C131 C -0.32040 0.74917 0.03567
 C132 C -0.37543 0.74340 0.02046
 C133 C -0.40799 0.78794 0.01303
 C134 C -0.38534 0.83850 0.01998
 C135 C -0.33082 0.84366 0.03775
 C136 C -0.28388 0.70517 0.03463
 C137 C -0.24985 0.67136 0.03104
 C138 C -0.20661 0.63567 0.02392
 C139 C -0.16727 0.60860 0.01560
 H140 H -0.25605 0.80420 0.05704
 H141 H -0.39251 0.70476 0.01223
 H142 H -0.44988 0.78294 -0.00075
 H143 H -0.31249 0.88211 0.04386
 C144 C 0.06600 -0.34332 0.23881
 C145 C 0.01744 -0.31879 0.25500
 C146 C -0.03270 -0.33729 0.23463
 C147 C -0.03412 -0.37699 0.19463
 C148 C 0.01466 -0.39873 0.17458
 C149 C 0.06461 -0.38353 0.19895
 C150 C 0.01869 -0.27085 0.28680
 C151 C 0.01747 -0.22958 0.31144
 C152 C 0.01383 -0.18116 0.33988
 C153 C 0.00927 -0.14082 0.36574
 H154 H 0.10505 -0.32922 0.25432
 H155 H -0.07050 -0.31867 0.24693
 H156 H -0.07308 -0.38795 0.17632
 H157 H 0.10277 -0.39916 0.18361
 C158 C 0.06661 0.33589 0.79247
 C159 C 0.02863 0.33429 0.74899
 C160 C -0.01235 0.37240 0.74623
 C161 C -0.01773 0.40955 0.78885
 C162 C 0.01752 0.40855 0.83503
 C163 C 0.06122 0.37281 0.83515
 C164 C 0.02755 0.28961 0.71194
 C165 C 0.02582 0.25028 0.68375
 C166 C 0.02359 0.20257 0.65342
 C167 C 0.02226 0.16091 0.62925
 H168 H 0.09843 0.30656 0.79518
 H169 H -0.04211 0.37148 0.71291
 H170 H -0.05200 0.43627 0.78771
 H171 H 0.08894 0.37087 0.87016
 C172 C -0.07092 0.31418 0.19135
 C173 C -0.03446 0.31677 0.23619
 C174 C 0.00008 0.36045 0.24225
 C175 C 0.00124 0.39928 0.20160
 C176 C -0.03202 0.39481 0.15410
 C177 C -0.06996 0.35313 0.15065
 C178 C -0.02740 0.27198 0.27182
 C179 C -0.01899 0.23380 0.30000
 C180 C -0.00734 0.18859 0.33170
 C181 C 0.00311 0.14980 0.35817
 H182 H -0.09778 0.28052 0.18609
 H183 H 0.02850 0.36295 0.27670
 H184 H 0.03091 0.43085 0.20547
 H185 H -0.09575 0.34827 0.11441
 C186 C -0.04866 -0.33459 0.77179
 C187 C -0.00734 -0.29618 0.77266
 C188 C 0.03262 -0.29703 0.81385
 C189 C 0.03024 -0.33426 0.85558
 C190 C -0.01261 -0.37186 0.85736
 C191 C -0.05107 -0.37263 0.81360
 C192 C -0.00663 -0.25344 0.73402
 C193 C -0.00407 -0.21577 0.70418
 C194 C -0.00023 -0.17080 0.67059
 C195 C 0.00232 -0.13275 0.64130
 H196 H -0.07977 -0.33429 0.73976
 H197 H 0.06496 -0.26775 0.81473
 H198 H 0.06159 -0.33230 0.88738
 H199 H -0.08434 -0.40089 0.81283
 C200 C 0.33083 0.05553 0.79263
 C201 C 0.33645 0.02203 0.74686
 C202 C 0.37745 -0.01605 0.74698
 C203 C 0.41050 -0.02277 0.79383
 C204 C 0.40246 0.00810 0.84195
 C205 C 0.36367 0.04897 0.83962
 C206 C 0.29629 0.02304 0.70289
 C207 C 0.26014 0.02300 0.66865
 C208 C 0.21493 0.02276 0.63184
 C209 C 0.17392 0.02320 0.60380
 H210 H 0.29927 0.08523 0.79304
 H211 H 0.38230 -0.04219 0.71180
 H212 H 0.44020 -0.05420 0.79321
 H213 H 0.35635 0.07414 0.87515
 C214 C -0.33207 -0.03270 0.23387
 C215 C -0.32170 0.01394 0.26304
 C216 C -0.34825 0.06029 0.24749
 C217 C -0.38281 0.06044 0.20101
 C218 C -0.39021 0.01437 0.16936
 C219 C -0.36599 -0.03253 0.18737
 C220 C -0.27846 0.01466 0.30365
 C221 C -0.23949 0.01292 0.33429
 C222 C -0.19146 0.00862 0.36651
 C223 C -0.14896 0.00348 0.39129
 H224 H -0.31162 -0.06873 0.24532
 H225 H -0.34018 0.09672 0.26954
 H226 H -0.40072 0.09713 0.18780
 H227 H -0.37119 -0.06865 0.16392
 C228 C 0.38007 0.01030 0.25530
 C229 C 0.33454 -0.02314 0.25679
 C230 C 0.32555 -0.05896 0.21331
 C231 C 0.35979 -0.05894 0.16697
 C232 C 0.40317 -0.02264 0.16341
 C233 C 0.41423 0.01049 0.20906
 C234 C 0.29347 -0.01587 0.29889
 C235 C 0.25716 -0.00797 0.33159
 C236 C 0.21213 0.00217 0.36666
 C237 C 0.17132 0.01040 0.39324
 H238 H 0.38747 0.03831 0.28848
 H239 H 0.29029 -0.08488 0.21377
 H240 H 0.34989 -0.08457 0.13237
 H241 H 0.44733 0.03887 0.20761
 C242 C -0.33818 -0.05429 0.75967
 C243 C -0.31269 -0.00600 0.74845
 C244 C -0.32376 0.03774 0.78165
 C245 C -0.35777 0.03283 0.82743
 C246 C -0.38132 -0.01602 0.84087
 C247 C -0.37273 -0.05923 0.80555
 C248 C -0.27043 -0.00214 0.70735
 C249 C -0.23260 0.00145 0.67576
 C250 C -0.18602 0.00451 0.64159
 C251 C -0.14480 0.00452 0.61445
 H252 H -0.32957 -0.08854 0.73441
 H253 H -0.30420 0.07521 0.77359
 H254 H -0.36404 0.06697 0.85360
 H255 H -0.39017 -0.09729 0.81509
   
