data_POSCAR
  _audit_creation_date              2014-09-24
  _audit_creation_method            'ToBaCCo'
  _symmetry_space_group_name_H-M    'P1'
  _symmetry_Int_Tables_number       1
  _symmetry_cell_setting            triclinic
  loop_
  _symmetry_equiv_pos_as_xyz
 x,y,z
_cell_length_a 43.2593
_cell_length_b 37.2875
_cell_length_c 23.6587
_cell_angle_alpha 89.999900
_cell_angle_beta 89.844700
_cell_angle_gamma 89.895600
loop_
  _atom_site_label
  _atom_site_type_symbol
  _atom_site_fract_x
  _atom_site_fract_y
  _atom_site_fract_z
C1 C 0.68565 0.31043 0.50132
 C2 C 0.70050 0.30216 0.55193
 C3 C 0.72613 0.27913 0.55180
 C4 C 0.73623 0.26238 0.50118
 C5 C 0.72016 0.27057 0.45066
 C6 C 0.69565 0.29513 0.45074
 C7 C 0.76313 0.23664 0.50112
 C8 C 0.77932 0.22836 0.45055
 C9 C 0.80382 0.20370 0.45064
 C10 C 0.81361 0.18845 0.50137
 C11 C 0.79860 0.19684 0.55185
 C12 C 0.77305 0.21991 0.55171
 H13 H 0.66618 0.32887 0.50120
 H14 H 0.73796 0.27479 0.59138
 H15 H 0.72616 0.25803 0.41097
 H16 H 0.77338 0.24096 0.41090
 H17 H 0.83304 0.16997 0.50169
 H18 H 0.76120 0.22426 0.59136
 C19 C 0.18612 0.81118 0.50331
 C20 C 0.20100 0.80301 0.55392
 C21 C 0.22664 0.78001 0.55391
 C22 C 0.23673 0.76318 0.50340
 C23 C 0.22063 0.77125 0.45282
 C24 C 0.19610 0.79580 0.45277
 C25 C 0.26371 0.73755 0.50352
 C26 C 0.27990 0.72934 0.45298
 C27 C 0.30446 0.70486 0.45306
 C28 C 0.31439 0.68966 0.50366
 C29 C 0.29942 0.69796 0.55429
 C30 C 0.27374 0.72091 0.55417
 H31 H 0.16663 0.82959 0.50315
 H32 H 0.23848 0.77576 0.59350
 H33 H 0.22664 0.75863 0.41319
 H34 H 0.27394 0.74180 0.41326
 H35 H 0.33389 0.67127 0.50353
 H36 H 0.26182 0.72528 0.59377
 C37 C 0.31323 0.31063 -0.50108
 C38 C 0.29833 0.30227 -0.55150
 C39 C 0.27282 0.27923 -0.55119
 C40 C 0.26285 0.26254 -0.50046
 C41 C 0.27895 0.27085 -0.45004
 C42 C 0.30338 0.29542 -0.45036
 C43 C 0.23606 0.23675 -0.50023
 C44 C 0.21998 0.22845 -0.44958
 C45 C 0.19558 0.20376 -0.44955
 C46 C 0.18578 0.18850 -0.50024
 C47 C 0.20068 0.19691 -0.55078
 C48 C 0.22613 0.22000 -0.55077
 H49 H 0.33262 0.32907 -0.50131
 H50 H 0.26105 0.27485 -0.59077
 H51 H 0.27304 0.25838 -0.41026
 H52 H 0.22593 0.24105 -0.40995
 H53 H 0.16642 0.17000 -0.50047
 H54 H 0.23790 0.22437 -0.59048
 C55 C -0.18552 0.81117 -0.50218
 C56 C -0.20030 0.80298 -0.55286
 C57 C -0.22583 0.77994 -0.55298
 C58 C -0.23592 0.76308 -0.50252
 C59 C -0.21994 0.77118 -0.45186
 C60 C -0.19551 0.79576 -0.45169
 C61 C -0.26278 0.73740 -0.50281
 C62 C -0.27900 0.72907 -0.45238
 C63 C -0.30348 0.70456 -0.45270
 C64 C -0.31326 0.68945 -0.50344
 C65 C -0.29825 0.69785 -0.55388
 C66 C -0.27269 0.72082 -0.55357
 H67 H -0.16611 0.82960 -0.50193
 H68 H -0.23760 0.77567 -0.59263
 H69 H -0.22596 0.75856 -0.41225
 H70 H -0.27315 0.74146 -0.41257
 H71 H -0.33268 0.67106 -0.50367
 H72 H -0.26082 0.72522 -0.59317
 N73 N -0.03219 0.93604 -0.06074
 N74 N -0.05204 0.91049 -0.07400
 N75 N 0.03279 0.96160 -0.09912
 N76 N 0.05405 0.95527 -0.13787
 N77 N 0.03281 0.93626 -0.06053
 N78 N 0.05412 0.91187 -0.07221
 N79 N -0.03216 0.96129 -0.09948
 N80 N -0.05200 0.95365 -0.13994
 C81 C -0.06458 0.92233 -0.12290
 C82 C 0.06741 0.92457 -0.12005
 N83 N 0.03240 1.06402 -0.06069
 N84 N 0.05227 1.08959 -0.07395
 N85 N -0.03244 1.03845 -0.09917
 N86 N -0.05362 1.04473 -0.13788
 N87 N -0.03261 1.06380 -0.06058
 N88 N -0.05393 1.08814 -0.07222
 N89 N 0.03251 1.03877 -0.09942
 N90 N 0.05247 1.04643 -0.13988
 Mn91 Mn 0.00017 1.00003 -0.09970
 C92 C 0.06497 1.07776 -0.12284
 C93 C -0.06707 1.07541 -0.12005
 N94 N 0.03240 0.93605 0.06166
 N95 N 0.05232 0.91049 0.07495
 N96 N -0.03266 0.96160 0.10004
 N97 N -0.05389 0.95525 0.13881
 N98 N -0.03261 0.93625 0.06145
 N99 N -0.05382 0.91184 0.07315
 N100 N 0.03228 0.96129 0.10039
 N101 N 0.05214 0.95365 0.14088
 Mn102 Mn 0.00010 0.93577 0.00046
 C103 C 0.06480 0.92232 0.12385
 C104 C -0.06715 0.92454 0.12100
 N105 N -0.03261 1.06402 0.06161
 N106 N -0.05255 1.08959 0.07490
 N107 N 0.03232 1.03846 0.10008
 N108 N 0.05346 1.04475 0.13882
 N109 N 0.03240 1.06381 0.06150
 N110 N 0.05363 1.08816 0.07317
 N111 N -0.03263 1.03876 0.10034
 N112 N -0.05261 1.04642 0.14082
 Mn113 Mn -0.00011 1.06430 0.00046
 Mn114 Mn -0.00017 1.00003 0.10061
 Cl115 Cl -0.00000 1.00003 0.00046
 C116 C -0.06521 1.07776 0.12379
 C117 C 0.06680 1.07544 0.12100
 N118 N 0.46757 0.43612 -0.06157
 N119 N 0.44758 0.41065 -0.07450
 N120 N 0.53247 0.46153 -0.10068
 N121 N 0.55354 0.45509 -0.13975
 N122 N 0.53257 0.43618 -0.06210
 N123 N 0.55375 0.41169 -0.07409
 N124 N 0.46752 0.46135 -0.10034
 N125 N 0.44748 0.45378 -0.14051
 C126 C 0.43488 0.42252 -0.12322
 C127 C 0.56688 0.42432 -0.12213
 N128 N 0.53231 0.56392 -0.06213
 N129 N 0.55229 0.58938 -0.07537
 N130 N 0.46732 0.53852 -0.10013
 N131 N 0.44619 0.54498 -0.13887
 N132 N 0.46730 0.56387 -0.06155
 N133 N 0.44612 0.58838 -0.07322
 N134 N 0.53227 0.53870 -0.10089
 N135 N 0.55224 0.54625 -0.14138
 Mn136 Mn 0.49989 0.50002 -0.10092
 C137 C 0.56489 0.57750 -0.12430
 C138 C 0.43290 0.57577 -0.12105
 N139 N 0.53250 0.43602 0.06009
 N140 N 0.55244 0.41044 0.07312
 N141 N 0.46757 0.46163 0.09918
 N142 N 0.44647 0.45528 0.13820
 N143 N 0.46749 0.43628 0.06060
 N144 N 0.44630 0.41189 0.07254
 N145 N 0.53252 0.46125 0.09885
 N146 N 0.55250 0.45359 0.13910
 Mn147 Mn 0.50003 0.43577 -0.00075
 C148 C 0.56510 0.42227 0.12188
 C149 C 0.43314 0.42457 0.12056
 N150 N 0.46764 0.56403 0.06064
 N151 N 0.44770 0.58959 0.07398
 N152 N 0.53265 0.53842 0.09863
 N153 N 0.55380 0.54479 0.13732
 N154 N 0.53264 0.56377 0.06004
 N155 N 0.55383 0.58819 0.07166
 N156 N 0.46770 0.53880 0.09940
 N157 N 0.44778 0.54645 0.13997
 Mn158 Mn 0.49997 0.56428 -0.00075
 Mn159 Mn 0.50011 0.50002 0.09942
 Cl160 Cl 0.50000 0.50002 -0.00075
 C161 C 0.43514 0.57776 0.12295
 C162 C 0.56708 0.57551 0.11947
 C163 C 0.34080 0.34522 0.30906
 C164 C 0.37077 0.36244 0.33027
 C165 C 0.38813 0.37745 0.28863
 C166 C 0.37393 0.37387 0.22958
 C167 C 0.34144 0.39026 0.23495
 C168 C 0.32400 0.37517 0.27680
 C169 C 0.35113 0.31841 0.26344
 C170 C 0.36858 0.33349 0.22159
 C171 C 0.32298 0.32930 0.35553
 C172 C 0.31049 0.31674 0.39661
 C173 C 0.39347 0.39058 0.18619
 C174 C 0.41095 0.40546 0.15413
 H175 H 0.37778 0.36283 0.37431
 H176 H 0.40999 0.39066 0.29706
 H177 H 0.33287 0.41169 0.20815
 H178 H 0.30049 0.38368 0.28586
 H179 H 0.34518 0.29014 0.26385
 H180 H 0.37758 0.31815 0.18616
 C181 C -0.15888 0.84523 0.31017
 C182 C -0.17450 0.87764 0.28213
 C183 C -0.15725 0.89269 0.24002
 C184 C -0.12610 0.87380 0.23018
 C185 C -0.13428 0.83434 0.21932
 C186 C -0.15155 0.81929 0.26146
 C187 C -0.12733 0.85904 0.32990
 C188 C -0.11016 0.87401 0.28799
 C189 C -0.17646 0.82936 0.35691
 C190 C -0.18875 0.81679 0.39816
 C191 C -0.10674 0.89048 0.18657
 C192 C -0.08933 0.90538 0.15445
 H193 H -0.19713 0.88777 0.29411
 H194 H -0.16510 0.91572 0.21590
 H195 H -0.12725 0.81960 0.18185
 H196 H -0.15932 0.79164 0.26009
 H197 H -0.11916 0.85722 0.37317
 H198 H -0.08729 0.88498 0.29541
 C199 C 0.65944 0.65497 0.30691
 C200 C 0.67604 0.62458 0.27520
 C201 C 0.65860 0.60948 0.23352
 C202 C 0.62631 0.62630 0.22775
 C203 C 0.63214 0.66655 0.21915
 C204 C 0.64958 0.68165 0.26082
 C205 C 0.62919 0.63833 0.32826
 C206 C 0.61184 0.62331 0.28680
 C207 C 0.67723 0.67090 0.35323
 C208 C 0.68968 0.68344 0.39424
 C209 C 0.60678 0.60957 0.18457
 C210 C 0.58930 0.59466 0.15273
 H211 H 0.69942 0.61579 0.28448
 H212 H 0.66705 0.58775 0.20710
 H213 H 0.62345 0.68178 0.18344
 H214 H 0.65584 0.70983 0.26081
 H215 H 0.62199 0.63833 0.37228
 H216 H 0.58980 0.61047 0.29536
 C217 C 0.15862 1.15422 0.30967
 C218 C 0.12890 1.13628 0.33082
 C219 C 0.11169 1.12143 0.28903
 C220 C 0.12579 1.12587 0.22990
 C221 C 0.15848 1.10997 0.23442
 C222 C 0.17577 1.12491 0.27644
 C223 C 0.14791 1.18135 0.26490
 C224 C 0.13062 1.16642 0.22289
 C225 C 0.17625 1.16998 0.35629
 C226 C 0.18861 1.18245 0.39741
 C227 C 0.10641 1.10932 0.18640
 C228 C 0.08898 1.09451 0.15436
 H229 H 0.12194 1.13531 0.37494
 H230 H 0.09001 1.10775 0.29738
 H231 H 0.16729 1.08898 0.20694
 H232 H 0.19939 1.11671 0.28498
 H233 H 0.15351 1.20971 0.26598
 H234 H 0.12140 1.18197 0.18798
 C235 C 0.65885 0.34453 -0.31118
 C236 C 0.64849 0.31773 -0.26562
 C237 C 0.63114 0.33289 -0.22364
 C238 C 0.62589 0.37332 -0.23145
 C239 C 0.61164 0.37711 -0.29044
 C240 C 0.62890 0.36203 -0.33220
 C241 C 0.67578 0.37429 -0.27888
 C242 C 0.65843 0.38946 -0.23690
 C243 C 0.67655 0.32853 -0.35780
 C244 C 0.68892 0.31593 -0.39901
 C245 C 0.60645 0.39013 -0.18794
 C246 C 0.58903 0.40509 -0.15579
 H247 H 0.65437 0.28941 -0.26616
 H248 H 0.62214 0.31757 -0.18824
 H249 H 0.58981 0.39052 -0.29873
 H250 H 0.62184 0.36254 -0.37621
 H251 H 0.69930 0.38262 -0.28800
 H252 H 0.66709 0.41078 -0.21005
 C253 C 0.15948 0.84525 -0.30907
 C254 C 0.17589 0.87608 -0.27840
 C255 C 0.15856 0.89113 -0.23630
 C256 C 0.12659 0.87383 -0.22914
 C257 C 0.13307 0.83373 -0.22018
 C258 C 0.15040 0.81868 -0.26228
 C259 C 0.12883 0.86129 -0.32956
 C260 C 0.11160 0.87626 -0.28768
 C261 C 0.17713 0.82936 -0.35579
 C262 C 0.18945 0.81680 -0.39706
 C263 C 0.10716 0.89052 -0.18556
 C264 C 0.08968 0.90541 -0.15347
 H265 H 0.19906 0.88517 -0.28866
 H266 H 0.16690 0.91313 -0.21048
 H267 H 0.12490 0.81857 -0.18395
 H268 H 0.15708 0.79060 -0.26212
 H269 H 0.12129 0.86092 -0.37330
 H270 H 0.08931 0.88870 -0.29560
 C271 C 0.34093 0.65567 -0.30904
 C272 C 0.37072 0.63784 -0.33043
 C273 C 0.38798 0.62274 -0.28884
 C274 C 0.37388 0.62685 -0.22965
 C275 C 0.34123 0.61099 -0.23441
 C276 C 0.32388 0.62616 -0.27621
 C277 C 0.35157 0.68253 -0.26388
 C278 C 0.36891 0.66735 -0.22208
 C279 C 0.32325 0.67167 -0.35551
 C280 C 0.31093 0.68425 -0.39666
 C281 C 0.39331 0.61002 -0.18634
 C282 C 0.41074 0.59503 -0.15440
 H283 H 0.37768 0.63712 -0.37456
 H284 H 0.40970 0.60912 -0.29740
 H285 H 0.33248 0.58983 -0.20724
 H286 H 0.30029 0.61802 -0.28487
 H287 H 0.34588 0.71089 -0.26456
 H288 H 0.37808 0.68271 -0.18696
 C289 C -0.15925 1.15418 -0.30856
 C290 C -0.12893 1.13738 -0.32950
 C291 C -0.11167 1.12252 -0.28773
 C292 C -0.12629 1.12583 -0.22884
 C293 C -0.15853 1.10904 -0.23465
 C294 C -0.17589 1.12397 -0.27664
 C295 C -0.14955 1.18106 -0.26272
 C296 C -0.13219 1.16612 -0.22073
 C297 C -0.17694 1.16994 -0.35516
 C298 C -0.18933 1.18241 -0.39629
 C299 C -0.10683 1.10927 -0.18537
 C300 C -0.08934 1.09447 -0.15337
 H301 H -0.12164 1.13715 -0.37346
 H302 H -0.08959 1.10960 -0.29596
 H303 H -0.16701 1.08746 -0.20803
 H304 H -0.19923 1.11520 -0.28601
 H305 H -0.15585 1.20925 -0.26309
 H306 H -0.12361 1.18150 -0.18513
 C307 C 0.65089 0.66489 -0.31424
 C308 C 0.63741 0.69089 -0.27025
 C309 C 0.62090 0.67423 -0.22858
 C310 C 0.61958 0.63326 -0.23516
 C311 C 0.65346 0.62113 -0.23839
 C312 C 0.66994 0.63776 -0.27999
 C313 C 0.62309 0.64358 -0.33611
 C314 C 0.60668 0.62700 -0.29466
 C315 C 0.66820 0.68183 -0.36041
 C316 C 0.68157 0.69352 -0.40118
 C317 C 0.60135 0.61467 -0.19183
 C318 C 0.58528 0.59819 -0.15928
 H319 H 0.64059 0.71975 -0.27161
 H320 H 0.60995 0.68881 -0.19421
 H321 H 0.66364 0.60134 -0.21036
 H322 H 0.69424 0.63223 -0.28759
 H323 H 0.61680 0.64171 -0.38042
 H324 H 0.58634 0.61093 -0.30350
 C325 C 0.15094 1.16501 -0.31324
 C326 C 0.13700 1.19116 -0.26992
 C327 C 0.12050 1.17458 -0.22814
 C328 C 0.11962 1.13354 -0.23393
 C329 C 0.15364 1.12187 -0.23650
 C330 C 0.17012 1.13842 -0.27820
 C331 C 0.12345 1.14313 -0.33504
 C332 C 0.10704 1.12665 -0.29349
 C333 C 0.16824 1.18184 -0.35959
 C334 C 0.18153 1.19336 -0.40060
 C335 C 0.10139 1.11501 -0.19048
 C336 C 0.08533 1.09853 -0.15786
 H337 H 0.13990 1.22004 -0.27179
 H338 H 0.10926 1.18927 -0.19421
 H339 H 0.16392 1.10245 -0.20796
 H340 H 0.19451 1.13317 -0.28537
 H341 H 0.11735 1.14083 -0.37939
 H342 H 0.08691 1.11023 -0.30229
 C343 C 0.34885 0.33504 -0.31216
 C344 C 0.32965 0.36167 -0.27705
 C345 C 0.34612 0.37832 -0.23562
 C346 C 0.38015 0.36669 -0.23339
 C347 C 0.39272 0.37350 -0.29311
 C348 C 0.37631 0.35691 -0.33440
 C349 C 0.36283 0.30899 -0.26888
 C350 C 0.37932 0.32567 -0.22738
 C351 C 0.33157 0.31809 -0.35818
 C352 C 0.31824 0.30642 -0.39887
 C353 C 0.39838 0.38530 -0.19026
 C354 C 0.41446 0.40180 -0.15792
 H355 H 0.30526 0.36687 -0.28398
 H356 H 0.33584 0.39779 -0.20705
 H357 H 0.41283 0.38993 -0.30222
 H358 H 0.38238 0.35913 -0.37883
 H359 H 0.35996 0.28010 -0.27059
 H360 H 0.39060 0.31106 -0.19349
 C361 C -0.15025 0.83504 -0.31289
 C362 C -0.12019 0.85239 -0.33378
 C363 C -0.10383 0.86890 -0.29233
 C364 C -0.11903 0.86655 -0.23380
 C365 C -0.12387 0.82626 -0.22343
 C366 C -0.14032 0.80966 -0.26511
 C367 C -0.16805 0.86543 -0.28337
 C368 C -0.15164 0.88199 -0.24180
 C369 C -0.16749 0.81818 -0.35910
 C370 C -0.18076 0.80660 -0.39995
 C371 C -0.10086 0.88510 -0.19045
 C372 C -0.08486 0.90158 -0.15789
 H373 H -0.11238 0.85170 -0.37743
 H374 H -0.08202 0.88235 -0.30052
 H375 H -0.11522 0.81208 -0.18664
 H376 H -0.14577 0.78126 -0.26404
 H377 H -0.19153 0.87316 -0.29403
 H378 H -0.16106 0.90390 -0.21687
 C379 C 0.34974 0.66531 0.31399
 C380 C 0.33087 0.63746 0.28104
 C381 C 0.34720 0.62084 0.23919
 C382 C 0.38079 0.63370 0.23442
 C383 C 0.39448 0.62825 0.29355
 C384 C 0.37820 0.64483 0.33526
 C385 C 0.36221 0.69122 0.26895
 C386 C 0.37858 0.67457 0.22702
 C387 C 0.33258 0.68223 0.36042
 C388 C 0.31931 0.69388 0.40137
 C389 C 0.39888 0.61509 0.19082
 C390 C 0.41485 0.59856 0.15809
 H391 H 0.30677 0.63145 0.28967
 H392 H 0.33711 0.60058 0.21197
 H393 H 0.41523 0.61274 0.30195
 H394 H 0.38502 0.64349 0.37935
 H395 H 0.35846 0.72001 0.26983
 H396 H 0.38885 0.68909 0.19195
 C397 C -0.15136 1.16496 0.31436
 C398 C -0.17088 1.13999 0.27722
 C399 C -0.15436 1.12345 0.23548
 C400 C -0.11997 1.13352 0.23500
 C401 C -0.10846 1.12491 0.29474
 C402 C -0.12490 1.14138 0.33633
 C403 C -0.13600 1.19122 0.27296
 C404 C -0.11947 1.17466 0.23115
 C405 C -0.16870 1.18178 0.36074
 C406 C -0.18205 1.19329 0.40174
 C407 C -0.10170 1.11501 0.19150
 C408 C -0.08561 1.09853 0.15885
 H409 H -0.19551 1.13578 0.28305
 H410 H -0.16484 1.10508 0.20556
 H411 H -0.08900 1.10737 0.30365
 H412 H -0.11951 1.13794 0.38081
 H413 H -0.13800 1.22018 0.27609
 H414 H -0.10730 1.18944 0.19845
 C415 C 0.65053 0.33463 0.31192
 C416 C 0.62250 0.35583 0.33361
 C417 C 0.60622 0.37241 0.29207
 C418 C 0.61949 0.36626 0.23266
 C419 C 0.62106 0.32531 0.22597
 C420 C 0.63742 0.30864 0.26774
 C421 C 0.66962 0.36185 0.27791
 C422 C 0.65329 0.37849 0.23622
 C423 C 0.66767 0.31770 0.35820
 C424 C 0.68089 0.30607 0.39908
 C425 C 0.60140 0.38488 0.18926
 C426 C 0.58542 0.40143 0.15673
 H427 H 0.61595 0.35763 0.37787
 H428 H 0.58575 0.38841 0.30078
 H429 H 0.61037 0.31073 0.19146
 H430 H 0.64076 0.27979 0.26904
 H431 H 0.69385 0.36744 0.28573
 H432 H 0.66352 0.39834 0.20834
 C433 C 0.15065 0.83507 0.31402
 C434 C 0.12207 0.85530 0.33565
 C435 C 0.10568 0.87180 0.29417
 C436 C 0.11936 0.86655 0.23487
 C437 C 0.12182 0.82571 0.22732
 C438 C 0.13831 0.80912 0.26902
 C439 C 0.16933 0.86311 0.28094
 C440 C 0.15288 0.87966 0.23932
 C441 C 0.16794 0.81821 0.36025
 C442 C 0.18126 0.80663 0.40109
 C443 C 0.10116 0.88509 0.19148
 C444 C 0.08513 0.90156 0.15889
 H445 H 0.11525 0.85653 0.37982
 H446 H 0.08484 0.88715 0.30286
 H447 H 0.11162 0.81115 0.19232
 H448 H 0.14222 0.78036 0.26976
 H449 H 0.19340 0.86930 0.28931
 H450 H 0.16286 0.90003 0.21207
   
