data_POSCAR
  _audit_creation_date              2014-09-24
  _audit_creation_method            'ToBaCCo'
  _symmetry_space_group_name_H-M    'P1'
  _symmetry_Int_Tables_number       1
  _symmetry_cell_setting            triclinic
  loop_
  _symmetry_equiv_pos_as_xyz
 x,y,z
_cell_length_a 38.2792
_cell_length_b 40.6594
_cell_length_c 39.0721
_cell_angle_alpha 90.446300
_cell_angle_beta 91.333700
_cell_angle_gamma 89.290500
loop_
  _atom_site_label
  _atom_site_type_symbol
  _atom_site_fract_x
  _atom_site_fract_y
  _atom_site_fract_z
C1 C 0.20019 0.15185 0.21785
 C2 C 0.19269 0.14063 0.25065
 C3 C 0.17211 0.15955 0.27320
 C4 C 0.15968 0.19058 0.26184
 C5 C 0.16742 0.20219 0.22908
 C6 C 0.18800 0.18288 0.20704
 C7 C 0.21888 0.13176 0.19541
 C8 C 0.22694 0.14236 0.16228
 C9 C 0.21613 0.17431 0.15218
 C10 C 0.19570 0.19422 0.17396
 C11 C 0.18147 0.22454 0.16279
 C12 C 0.15962 0.24336 0.18421
 C13 C 0.15382 0.23240 0.21767
 H14 H 0.20124 0.11602 0.25750
 H15 H 0.14449 0.20623 0.27856
 H16 H 0.22819 0.10797 0.20438
 H17 H 0.22159 0.18287 0.12668
 H18 H 0.18599 0.23267 0.13694
 H19 H 0.13781 0.24707 0.23463
 C20 C -0.19891 0.82416 0.19763
 C21 C -0.18216 0.84121 0.22494
 C22 C -0.14653 0.83487 0.23362
 C23 C -0.12843 0.81068 0.21477
 C24 C -0.14489 0.79308 0.18841
 C25 C -0.18026 0.79943 0.18002
 C26 C -0.23330 0.83241 0.18654
 C27 C -0.24965 0.81562 0.15850
 C28 C -0.23148 0.78823 0.14453
 C29 C -0.19677 0.78118 0.15371
 C30 C -0.17785 0.75697 0.13580
 C31 C -0.14219 0.75177 0.14317
 C32 C -0.12608 0.76949 0.16992
 H33 H -0.19642 0.86043 0.23820
 H34 H -0.10159 0.80424 0.22147
 H35 H -0.24591 0.85320 0.19867
 H36 H -0.24380 0.77211 0.12589
 H37 H -0.19034 0.74338 0.11500
 H38 H -0.09868 0.76501 0.17616
 C39 C -0.19838 0.16155 -0.19208
 C40 C -0.18115 0.15480 -0.22277
 C41 C -0.15232 0.17349 -0.23232
 C42 C -0.14084 0.19913 -0.21071
 C43 C -0.15744 0.20574 -0.17979
 C44 C -0.18645 0.18701 -0.17046
 C45 C -0.22693 0.14270 -0.18258
 C46 C -0.24550 0.14950 -0.15223
 C47 C -0.23277 0.17540 -0.13084
 C48 C -0.20318 0.19349 -0.13932
 C49 C -0.18990 0.21801 -0.11709
 C50 C -0.16071 0.23627 -0.12622
 C51 C -0.14501 0.23043 -0.15776
 H52 H -0.18980 0.13456 -0.23895
 H53 H -0.11881 0.21387 -0.21789
 H54 H -0.23343 0.12210 -0.19897
 H55 H -0.24588 0.18270 -0.10782
 H56 H -0.20207 0.22287 -0.09275
 H57 H -0.12246 0.24463 -0.16466
 C58 C 0.18396 0.83790 -0.22095
 C59 C 0.16055 0.84792 -0.24704
 C60 C 0.12715 0.83379 -0.25068
 C61 C 0.11839 0.80795 -0.22868
 C62 C 0.14263 0.79610 -0.20400
 C63 C 0.17516 0.81174 -0.19953
 C64 C 0.21551 0.85452 -0.21522
 C65 C 0.23801 0.84621 -0.18749
 C66 C 0.22965 0.81904 -0.16715
 C67 C 0.19867 0.80156 -0.17329
 C68 C 0.19045 0.77455 -0.15302
 C69 C 0.15878 0.75782 -0.15822
 C70 C 0.13477 0.76910 -0.18346
 H71 H 0.16749 0.86849 -0.26290
 H72 H 0.09324 0.79616 -0.23161
 H73 H 0.22202 0.87459 -0.23189
 H74 H 0.24640 0.81223 -0.14558
 H75 H 0.20898 0.76625 -0.13344
 H76 H 0.10983 0.75701 -0.18689
 C77 C 0.17413 1.22403 0.77207
 C78 C 0.15488 1.21540 0.74229
 C79 C 0.15978 1.18443 0.72601
 C80 C 0.18455 1.16231 0.74076
 C81 C 0.20377 1.17054 0.77039
 C82 C 0.19889 1.20162 0.78579
 C83 C 0.16803 1.25424 0.78905
 C84 C 0.18694 1.26280 0.81949
 C85 C 0.21352 1.24070 0.83085
 C86 C 0.21833 1.20997 0.81542
 C87 C 0.24143 1.18697 0.83030
 C88 C 0.24534 1.15535 0.81608
 C89 C 0.22694 1.14758 0.78558
 H90 H 0.13680 1.23341 0.73154
 H91 H 0.18771 1.13763 0.73064
 H92 H 0.14715 1.26979 0.77913
 H93 H 0.23108 1.24687 0.85189
 H94 H 0.25491 1.19320 0.85412
 H95 H 0.23033 1.12353 0.77388
 C96 C 0.87122 0.81738 0.82158
 C97 C 0.88485 0.83624 0.79539
 C98 C 0.86452 0.86083 0.77889
 C99 C 0.82992 0.86643 0.78961
 C100 C 0.81641 0.84860 0.81694
 C101 C 0.83692 0.82339 0.83231
 C102 C 0.89177 0.79286 0.83744
 C103 C 0.87848 0.77354 0.86390
 C104 C 0.84385 0.77961 0.87413
 C105 C 0.82347 0.80473 0.85906
 C106 C 0.79051 0.81259 0.87170
 C107 C 0.77120 0.83963 0.85889
 C108 C 0.78358 0.85666 0.83044
 H109 H 0.91109 0.83073 0.78701
 H110 H 0.81418 0.88598 0.77820
 H111 H 0.91779 0.78816 0.82807
 H112 H 0.83327 0.76632 0.89537
 H113 H 0.78060 0.79867 0.89288
 H114 H 0.76880 0.87743 0.82026
 C115 C 0.15420 0.77868 1.20218
 C116 C 0.12983 0.79170 1.22534
 C117 C 0.13598 0.82202 1.24192
 C118 C 0.16676 0.83906 1.23545
 C119 C 0.19064 0.82696 1.21179
 C120 C 0.18428 0.79685 1.19487
 C121 C 0.14858 0.74830 1.18560
 C122 C 0.17225 0.73588 1.16113
 C123 C 0.20183 0.75501 1.15393
 C124 C 0.20775 0.78528 1.17023
 C125 C 0.23645 0.80453 1.16153
 C126 C 0.24269 0.83500 1.17788
 C127 C 0.22016 0.84522 1.20401
 H128 H 0.10618 0.77839 1.23050
 H129 H 0.17137 0.86262 1.24786
 H130 H 0.12480 0.73530 1.19080
 H131 H 0.22135 0.74607 1.13644
 H132 H 0.25302 0.79619 1.14105
 H133 H 0.22504 0.86786 1.21800
 C134 C 0.83180 1.21792 1.20077
 C135 C 0.83563 1.20971 1.23544
 C136 C 0.81156 1.18894 1.25125
 C137 C 0.78219 1.17825 1.23191
 C138 C 0.77874 1.18533 1.19693
 C139 C 0.80366 1.20511 1.18123
 C140 C 0.85648 1.23763 1.18497
 C141 C 0.85345 1.24444 1.14981
 C142 C 0.82580 1.23099 1.13032
 C143 C 0.80117 1.21107 1.14570
 C144 C 0.77498 1.19583 1.12587
 C145 C 0.75096 1.17517 1.14125
 C146 C 0.75219 1.17088 1.17686
 H147 H 0.85765 1.21944 1.25005
 H148 H 0.76373 1.16161 1.24297
 H149 H 0.87801 1.24776 1.19999
 H150 H 0.82396 1.23550 1.10302
 H151 H 0.77380 1.19922 1.09836
 H152 H 0.73382 1.15454 1.18856
 O153 O 0.52048 0.96360 0.93670
 O154 O 0.45173 0.97030 1.06777
 O155 O 0.56763 0.96144 1.04333
 O156 O 0.45511 0.94072 0.96700
 O157 O 0.51749 0.96666 1.07283
 O158 O 0.45648 0.97518 0.92834
 O159 O 0.45169 0.93795 1.02568
 O160 O 0.56173 0.96388 0.97639
 C161 C 0.55072 0.95534 0.94719
 C162 C 0.44601 0.94236 1.05619
 C163 C 0.54915 0.95553 1.07052
 C164 C 0.44922 0.94691 0.93681
 O165 O 0.46437 1.03486 0.95150
 O166 O 0.51663 1.03229 1.06094
 O167 O 0.56183 1.01427 0.99599
 O168 O 0.41644 0.99841 1.02752
 O169 O 0.45475 1.03248 1.04696
 O170 O 0.53010 1.02671 0.94950
 O171 O 0.42159 1.00342 0.96758
 O172 O 0.55812 1.01710 1.02771
 Co173 Co 0.49260 0.99937 0.94709
 Co174 Co 0.48539 0.99942 1.05632
 Co175 Co 0.53738 0.97810 1.01377
 Co176 Co 0.43988 0.97141 0.99717
 O177 O 0.48912 0.99055 1.00158
 C178 C 0.43247 1.03076 0.95652
 C179 C 0.54720 1.03544 1.05187
 C180 C 0.55724 1.03020 0.96764
 C181 C 0.42384 1.02654 1.03896
 O182 O 0.03857 0.45471 0.06446
 O183 O 0.03644 0.52961 -0.06891
 O184 O 0.07050 0.45186 -0.03903
 O185 O 0.07367 0.52913 0.03538
 O186 O 0.03262 0.46822 -0.07641
 O187 O 0.03819 0.51391 0.07369
 O188 O 0.07074 0.54690 -0.02704
 O189 O 0.07369 0.45069 0.02296
 C190 C 0.06795 0.44615 0.05362
 C191 C 0.06241 0.54613 -0.05823
 C192 C 0.06165 0.45508 -0.06947
 C193 C 0.06695 0.52645 0.06616
 O194 O -0.02798 0.51732 0.04610
 O195 O -0.03090 0.46910 -0.05170
 O196 O 0.00980 0.42270 0.02311
 O197 O 0.00572 0.56549 -0.01960
 O198 O -0.02866 0.53242 -0.04902
 O199 O -0.02734 0.45974 0.03527
 O200 O 0.00917 0.55525 0.04182
 O201 O 0.00448 0.42855 -0.03849
 Co202 Co 0.00694 0.48685 0.05033
 Co203 Co 0.00418 0.49892 -0.05565
 Co204 Co 0.03814 0.44307 -0.00723
 Co205 Co 0.03846 0.54382 0.00726
 O206 O 0.02200 0.49335 -0.00167
 C207 C -0.02161 0.54702 0.04651
 C208 C -0.02510 0.43898 -0.04901
 C209 C -0.02056 0.43030 0.03106
 C210 C -0.02171 0.56035 -0.03727
 O211 O 1.04274 0.03075 0.46742
 O212 O 0.90735 0.04476 0.52769
 O213 O 0.94012 0.01882 0.42537
 O214 O 1.01445 0.05355 0.53839
 O215 O 0.91430 0.04645 0.46436
 O216 O 1.05076 0.01648 0.52894
 O217 O 0.95576 0.06298 0.54852
 O218 O 0.99500 0.04535 0.44225
 C219 C 1.02608 0.05100 0.44914
 C220 C 0.92356 0.06494 0.54605
 C221 C 0.92254 0.04342 0.43380
 C222 C 1.04492 0.04450 0.53996
 O223 O 1.02115 -0.04032 0.51774
 O224 O 0.91004 -0.01995 0.46366
 O225 O 1.00146 -0.00924 0.41034
 O226 O 0.94557 0.00079 0.56794
 O227 O 0.90793 -0.01802 0.52876
 O228 O 1.02345 -0.03291 0.45615
 O229 O 1.00847 -0.01119 0.56282
 O230 O 0.96124 -0.03743 0.44954
 Co231 Co 1.02851 -0.00435 0.49286
 Co232 Co 0.91582 0.01294 0.49571
 Co233 Co 0.97896 0.00427 0.44829
 Co234 Co 0.98105 0.02508 0.54994
 O235 O 0.97320 0.01096 0.49871
 C236 C 1.01963 -0.03773 0.54952
 C237 C 0.92897 -0.04135 0.44960
 C238 C 1.02540 -0.02878 0.42398
 C239 C 0.91954 -0.01681 0.55932
 C240 C 1.13047 0.15483 0.32037
 C241 C 1.11893 0.13796 0.34922
 C242 C 1.14032 0.11323 0.36430
 C243 C 1.17346 0.10682 0.35135
 C244 C 1.18446 0.12308 0.32228
 C245 C 1.16274 0.14652 0.30539
 C246 C 1.12768 0.09421 0.39102
 C247 C 1.09332 0.09872 0.40196
 C248 C 1.07225 0.12422 0.38774
 C249 C 1.08543 0.14408 0.36191
 C250 C 1.03766 0.12820 0.39819
 C251 C 1.02327 0.10560 0.42044
 C252 C 1.04335 0.07897 0.43300
 C253 C 1.07889 0.07664 0.42506
 H254 H 1.11268 0.17222 0.30811
 H255 H 1.19052 0.08841 0.36304
 H256 H 1.21034 0.11721 0.31329
 H257 H 1.14387 0.07468 0.40193
 H258 H 1.06892 0.16308 0.35044
 H259 H 1.02120 0.14776 0.38782
 H260 H 0.99595 0.10812 0.42669
 H261 H 1.09451 0.05605 0.43450
 C262 C 0.85410 -0.13828 0.29059
 C263 C 0.87302 -0.12447 0.31841
 C264 C 0.90931 -0.11920 0.31573
 C265 C 0.92613 -0.12781 0.28559
 C266 C 0.90748 -0.14214 0.25848
 C267 C 0.87128 -0.14815 0.26052
 C268 C 0.92828 -0.10510 0.34307
 C269 C 0.91145 -0.09583 0.37312
 C270 C 0.87530 -0.10158 0.37625
 C271 C 0.85634 -0.11607 0.34897
 C272 C 0.85851 -0.09158 0.40616
 C273 C 0.87680 -0.07407 0.43162
 C274 C 0.91236 -0.06693 0.42794
 C275 C 0.92988 -0.07925 0.39931
 H276 H 0.82651 -0.14299 0.29330
 H277 H 0.95384 -0.12354 0.28296
 H278 H 0.92161 -0.14768 0.23541
 H279 H 0.95601 -0.10070 0.34068
 H280 H 0.82855 -0.12019 0.35126
 H281 H 0.83088 -0.09590 0.40916
 H282 H 0.86273 -0.06473 0.45345
 H283 H 0.95718 -0.07360 0.39604
 C284 C 0.84860 0.15597 0.70579
 C285 C 0.86686 0.14576 0.67672
 C286 C 0.90382 0.14537 0.67771
 C287 C 0.92185 0.15582 0.70736
 C288 C 0.90352 0.16547 0.73627
 C289 C 0.86677 0.16527 0.73600
 C290 C 0.92221 0.13336 0.64958
 C291 C 0.90416 0.12061 0.62092
 C292 C 0.86723 0.12163 0.61949
 C293 C 0.84879 0.13477 0.64718
 C294 C 0.84939 0.10794 0.59112
 C295 C 0.86787 0.09128 0.56568
 C296 C 0.90451 0.08871 0.56782
 C297 C 0.92251 0.10488 0.59472
 H298 H 0.82027 0.15614 0.70509
 H299 H 0.95016 0.15562 0.70854
 H300 H 0.91820 0.17213 0.75925
 H301 H 0.95056 0.13250 0.65066
 H302 H 0.82044 0.13504 0.64637
 H303 H 0.82110 0.10864 0.58949
 H304 H 0.85338 0.07910 0.54520
 H305 H 0.95076 0.10304 0.59678
 C306 C 1.11421 -0.14329 0.69260
 C307 C 1.09106 -0.12808 0.66919
 C308 C 1.05618 -0.12146 0.67833
 C309 C 1.04430 -0.13296 0.70971
 C310 C 1.06718 -0.14961 0.73235
 C311 C 1.10285 -0.15366 0.72476
 C312 C 1.03408 -0.10313 0.65614
 C313 C 1.04625 -0.09252 0.62442
 C314 C 1.08023 -0.10193 0.61427
 C315 C 1.10254 -0.11911 0.63688
 C316 C 1.09178 -0.09337 0.58188
 C317 C 1.07059 -0.07434 0.56023
 C318 C 1.03787 -0.06264 0.57084
 C319 C 1.02549 -0.07220 0.60284
 H320 H 1.14110 -0.14759 0.68544
 H321 H 1.01747 -0.12867 0.71699
 H322 H 1.05738 -0.15713 0.75682
 H323 H 1.00770 -0.09693 0.66365
 H324 H 1.12902 -0.12513 0.62948
 H325 H 1.11751 -0.10083 0.57355
 H326 H 1.08071 -0.06724 0.53575
 H327 H 1.00017 -0.06356 0.61102
 C328 C 0.27183 1.13213 1.11883
 C329 C 0.29363 1.10957 1.10152
 C330 C 0.28719 1.07545 1.10356
 C331 C 0.25924 1.06441 1.12255
 C332 C 0.23905 1.08665 1.14110
 C333 C 0.24537 1.12078 1.14025
 C334 C 0.30966 1.05268 1.08794
 C335 C 0.33980 1.06333 1.07194
 C336 C 0.34659 1.09739 1.06995
 C337 C 0.32296 1.12033 1.08393
 C338 C 0.37773 1.10777 1.05540
 C339 C 0.40256 1.08465 1.04451
 C340 C 0.39617 1.05082 1.04690
 C341 C 0.36423 1.04033 1.05962
 H342 H 0.27757 1.15815 1.11801
 H343 H 0.25375 1.03839 1.12414
 H344 H 0.21803 1.07695 1.15595
 H345 H 0.30467 1.02655 1.08983
 H346 H 0.32835 1.14642 1.08264
 H347 H 0.38346 1.13372 1.05364
 H348 H 0.42701 1.09317 1.03457
 H349 H 0.35937 1.01422 1.06192
 C350 C 0.29911 0.85387 0.83731
 C351 C 0.32613 0.87438 0.84934
 C352 C 0.32333 0.90876 0.84459
 C353 C 0.29371 0.92200 0.82784
 C354 C 0.26652 0.90160 0.81694
 C355 C 0.26861 0.86730 0.82171
 C356 C 0.34950 0.92949 0.85774
 C357 C 0.37779 0.91644 0.87687
 C358 C 0.38063 0.88206 0.88172
 C359 C 0.35522 0.86119 0.86725
 C360 C 0.40801 0.86925 0.90228
 C361 C 0.43130 0.89039 0.91921
 C362 C 0.42838 0.92456 0.91489
 C363 C 0.40222 0.93740 0.89282
 H364 H 0.30162 0.82753 0.84078
 H365 H 0.29101 0.94831 0.82420
 H366 H 0.24327 0.91302 0.80583
 H367 H 0.34709 0.95589 0.85432
 H368 H 0.35729 0.83486 0.87122
 H369 H 0.41054 0.84300 0.90639
 H370 H 0.45119 0.88013 0.93633
 H371 H 0.39942 0.96383 0.89000
 C372 C 0.69453 0.84880 1.15944
 C373 C 0.66445 0.86133 1.14204
 C374 C 0.65705 0.85094 1.10809
 C375 C 0.67917 0.82853 1.09211
 C376 C 0.70925 0.81713 1.10882
 C377 C 0.71799 0.82668 1.14294
 C378 C 0.62861 0.86425 1.08970
 C379 C 0.60810 0.88913 1.10408
 C380 C 0.61447 0.89949 1.13821
 C381 C 0.64228 0.88497 1.15735
 C382 C 0.59408 0.92541 1.15166
 C383 C 0.56978 0.94243 1.13055
 C384 C 0.56523 0.93321 1.09607
 C385 C 0.58314 0.90552 1.08366
 H386 H 0.69919 0.85652 1.18565
 H387 H 0.67406 0.82085 1.06584
 H388 H 0.72637 0.80228 1.09334
 H389 H 0.62364 0.85653 1.06339
 H390 H 0.64770 0.89323 1.18336
 H391 H 0.59838 0.93374 1.17780
 H392 H 0.55647 0.96403 1.14043
 H393 H 0.57970 0.89842 1.05696
 C394 C 0.71029 1.13163 0.88970
 C395 C 0.68121 1.11271 0.89801
 C396 C 0.66643 1.09108 0.87344
 C397 C 0.67955 1.09020 0.84044
 C398 C 0.70744 1.11005 0.83184
 C399 C 0.72445 1.13065 0.85640
 C400 C 0.63866 1.07078 0.88217
 C401 C 0.62469 1.07263 0.91498
 C402 C 0.63815 1.09567 0.93903
 C403 C 0.66668 1.11513 0.93063
 C404 C 0.62262 1.09897 0.97103
 C405 C 0.59492 1.07879 0.97950
 C406 C 0.58342 1.05406 0.95701
 C407 C 0.59758 1.05173 0.92426
 H408 H 0.72197 1.14606 0.91010
 H409 H 0.66785 1.07444 0.82094
 H410 H 0.71449 1.10931 0.80530
 H411 H 0.62790 1.05364 0.86342
 H412 H 0.67742 1.13226 0.94939
 H413 H 0.63168 1.11729 0.98937
 H414 H 0.58196 1.08287 1.00332
 H415 H 0.58802 1.03319 0.90639
 C416 C 0.15632 0.29626 0.15022
 C417 C 0.13732 0.32395 0.13815
 C418 C 0.10203 0.32844 0.14736
 C419 C 0.08632 0.30537 0.16825
 C420 C 0.10518 0.27797 0.17988
 C421 C 0.14038 0.27306 0.17126
 C422 C 0.08268 0.35554 0.13504
 C423 C 0.09778 0.37798 0.11291
 C424 C 0.13304 0.37371 0.10362
 C425 C 0.15275 0.34696 0.11666
 C426 C 0.14755 0.39567 0.08047
 C427 C 0.12687 0.42053 0.06544
 C428 C 0.09161 0.42448 0.07402
 C429 C 0.07758 0.40370 0.09864
 H430 H 0.18341 0.29286 0.14340
 H431 H 0.05923 0.30830 0.17527
 H432 H 0.09190 0.26023 0.19531
 H433 H 0.05554 0.35866 0.14194
 H434 H 0.17974 0.34359 0.10937
 H435 H 0.17451 0.39283 0.07298
 H436 H 0.13813 0.43609 0.04632
 H437 H 0.05021 0.40609 0.10493
 C438 C -0.14564 0.29422 -0.11286
 C439 C -0.12512 0.31722 -0.09494
 C440 C -0.10386 0.30702 -0.06679
 C441 C -0.10520 0.27425 -0.05584
 C442 C -0.12583 0.25146 -0.07388
 C443 C -0.14533 0.26117 -0.10300
 C444 C -0.08072 0.32938 -0.05100
 C445 C -0.07862 0.36172 -0.06316
 C446 C -0.10142 0.37220 -0.09007
 C447 C -0.12446 0.34993 -0.10576
 C448 C -0.10023 0.40466 -0.10157
 C449 C -0.07596 0.42637 -0.08736
 C450 C -0.05200 0.41594 -0.06178
 C451 C -0.05365 0.38359 -0.04947
 H452 H -0.16062 0.30161 -0.13549
 H453 H -0.08934 0.26599 -0.03417
 H454 H -0.12515 0.22591 -0.06623
 H455 H -0.06373 0.32139 -0.02998
 H456 H -0.14116 0.35782 -0.12704
 H457 H -0.11773 0.41314 -0.12194
 H458 H -0.07525 0.45117 -0.09722
 H459 H -0.03549 0.37548 -0.02948
 C460 C 0.13546 0.70061 -0.15160
 C461 C 0.12788 0.67333 -0.13127
 C462 C 0.13571 0.67436 -0.09573
 C463 C 0.15109 0.70242 -0.08117
 C464 C 0.15842 0.72942 -0.10151
 C465 C 0.15069 0.72890 -0.13686
 C466 C 0.12748 0.64761 -0.07513
 C467 C 0.11079 0.62006 -0.08941
 C468 C 0.10318 0.61875 -0.12495
 C469 C 0.11216 0.64525 -0.14576
 C470 C 0.08560 0.59142 -0.13880
 C471 C 0.07400 0.56655 -0.11738
 C472 C 0.08050 0.56821 -0.08186
 C473 C 0.10007 0.59454 -0.06831
 H474 H 0.12974 0.69977 -0.17889
 H475 H 0.15711 0.70364 -0.05396
 H476 H 0.16972 0.75099 -0.08943
 H477 H 0.13318 0.64864 -0.04781
 H478 H 0.10606 0.64440 -0.17300
 H479 H 0.07959 0.58993 -0.16600
 H480 H 0.05889 0.54662 -0.12845
 H481 H 0.10499 0.59640 -0.04092
 C482 C -0.13226 0.69654 0.11592
 C483 C -0.11041 0.67399 0.09905
 C484 C -0.07737 0.68419 0.08785
 C485 C -0.06706 0.71680 0.09301
 C486 C -0.08864 0.73884 0.11033
 C487 C -0.12107 0.72879 0.12242
 C488 C -0.05462 0.66143 0.07275
 C489 C -0.06399 0.62835 0.06960
 C490 C -0.09725 0.61817 0.08009
 C491 C -0.12046 0.64116 0.09436
 C492 C -0.10623 0.58492 0.07716
 C493 C -0.08194 0.56178 0.06536
 C494 C -0.04840 0.57159 0.05610
 C495 C -0.03999 0.60508 0.05736
 H496 H -0.15721 0.68866 0.12533
 H497 H -0.04194 0.72505 0.08442
 H498 H -0.07984 0.76378 0.11464
 H499 H -0.02912 0.66921 0.06463
 H500 H -0.14577 0.63329 0.10288
 H501 H -0.13166 0.57668 0.08487
 H502 H -0.08914 0.53612 0.06425
 H503 H -0.01431 0.61295 0.04990
 C504 C 1.15171 0.15038 0.67378
 C505 C 1.13009 0.13763 0.64756
 C506 C 1.09577 0.15013 0.64298
 C507 C 1.08407 0.17582 0.66400
 C508 C 1.10548 0.18798 0.69054
 C509 C 1.13939 0.17481 0.69672
 C510 C 1.07332 0.13602 0.61825
 C511 C 1.08453 0.10894 0.59872
 C512 C 1.11915 0.09686 0.60272
 C513 C 1.14192 0.11167 0.62672
 C514 C 1.12996 0.06933 0.58363
 C515 C 1.10618 0.05291 0.56204
 C516 C 1.07142 0.06409 0.55880
 C517 C 1.06112 0.09279 0.57643
 H518 H 1.17826 0.14102 0.67600
 H519 H 1.05779 0.18572 0.66078
 H520 H 1.09413 0.20621 0.70736
 H521 H 1.04674 0.14528 0.61515
 H522 H 1.16833 0.10208 0.63020
 H523 H 1.15644 0.05981 0.58630
 H524 H 1.11470 0.03092 0.54863
 H525 H 1.03433 0.10164 0.57416
 C526 C 0.85882 -0.11034 0.72377
 C527 C 0.87424 -0.09365 0.69669
 C528 C 0.90990 -0.08506 0.69932
 C529 C 0.92981 -0.09418 0.72821
 C530 C 0.91480 -0.11204 0.75421
 C531 C 0.87910 -0.12038 0.75258
 C532 C 0.92531 -0.06782 0.67287
 C533 C 0.90597 -0.06016 0.64310
 C534 C 0.87077 -0.06994 0.63956
 C535 C 0.85489 -0.08613 0.66667
 C536 C 0.85218 -0.06335 0.60892
 C537 C 0.86827 -0.04694 0.58224
 C538 C 0.90292 -0.03626 0.58611
 C539 C 0.92149 -0.04294 0.61671
 H540 H 0.83159 -0.11718 0.72135
 H541 H 0.95718 -0.08780 0.73056
 H542 H 0.93112 -0.11824 0.77629
 H543 H 0.95251 -0.06076 0.67526
 H544 H 0.82773 -0.09324 0.66423
 H545 H 0.82524 -0.07084 0.60561
 H546 H 0.85335 -0.04186 0.55895
 H547 H 0.94813 -0.03463 0.62009
 C548 C 1.12147 -0.14963 0.29667
 C549 C 1.09914 -0.12985 0.31619
 C550 C 1.06469 -0.12308 0.30416
 C551 C 1.05280 -0.13759 0.27335
 C552 C 1.07537 -0.15727 0.25393
 C553 C 1.11014 -0.16267 0.26501
 C554 C 1.04316 -0.10140 0.32274
 C555 C 1.05569 -0.08668 0.35328
 C556 C 1.08978 -0.09462 0.36567
 C557 C 1.11124 -0.11596 0.34705
 C558 C 1.10210 -0.08093 0.39653
 C559 C 1.08096 -0.05957 0.41512
 C560 C 1.04737 -0.05081 0.40299
 C561 C 1.03485 -0.06427 0.37179
 H562 H 1.14821 -0.15394 0.30546
 H563 H 1.02642 -0.13294 0.26379
 H564 H 1.06621 -0.16693 0.22947
 H565 H 1.01694 -0.09573 0.31327
 H566 H 1.13758 -0.12146 0.35638
 H567 H 1.12809 -0.08687 0.40640
 H568 H 1.09129 -0.04960 0.43885
 H569 H 1.00881 -0.05789 0.36237
 C570 C 0.85346 0.16799 0.29419
 C571 C 0.86070 0.14928 0.32347
 C572 C 0.83336 0.14013 0.34497
 C573 C 0.79904 0.15002 0.33659
 C574 C 0.79171 0.16704 0.30621
 C575 C 0.81876 0.17588 0.28421
 C576 C 0.84061 0.11994 0.37341
 C577 C 0.87447 0.10701 0.37906
 C578 C 0.90146 0.11568 0.35676
 C579 C 0.89469 0.13762 0.33001
 C580 C 0.93453 0.10108 0.36044
 C581 C 0.94068 0.07731 0.38527
 C582 C 0.91457 0.06895 0.40819
 C583 C 0.88156 0.08434 0.40550
 H584 H 0.87480 0.17328 0.27743
 H585 H 0.77766 0.14339 0.35278
 H586 H 0.76475 0.17346 0.30012
 H587 H 0.81965 0.11290 0.38995
 H588 H 0.91553 0.14412 0.31305
 H589 H 0.95534 0.10719 0.34333
 H590 H 0.96616 0.06556 0.38657
 H591 H 0.86117 0.07750 0.42278
 C592 C 0.15821 0.31803 -0.17407
 C593 C 0.14799 0.34465 -0.15307
 C594 C 0.15958 0.34577 -0.11852
 C595 C 0.18068 0.32056 -0.10537
 C596 C 0.18941 0.29367 -0.12569
 C597 C 0.17866 0.29151 -0.16064
 C598 C 0.14856 0.37119 -0.09694
 C599 C 0.12435 0.39468 -0.10881
 C600 C 0.11256 0.39404 -0.14333
 C601 C 0.12523 0.36949 -0.16559
 C602 C 0.08695 0.41691 -0.15432
 C603 C 0.07152 0.43849 -0.13073
 C604 C 0.08221 0.43810 -0.09606
 C605 C 0.10993 0.41724 -0.08580
 H606 H 0.14997 0.31850 -0.20069
 H607 H 0.18917 0.32083 -0.07870
 H608 H 0.20304 0.27397 -0.11251
 H609 H 0.15728 0.37160 -0.07031
 H610 H 0.11596 0.36872 -0.19202
 H611 H 0.07758 0.41696 -0.18070
 H612 H 0.05025 0.45444 -0.13931
 H613 H 0.11851 0.41663 -0.05916
 C614 C -0.13198 0.29104 0.11163
 C615 C -0.10769 0.31158 0.09649
 C616 C -0.07152 0.30594 0.10244
 C617 C -0.06032 0.27991 0.12349
 C618 C -0.08473 0.25996 0.13897
 C619 C -0.12068 0.26539 0.13322
 C620 C -0.04719 0.32686 0.08795
 C621 C -0.05860 0.35404 0.06866
 C622 C -0.09478 0.35982 0.06288
 C623 C -0.11907 0.33817 0.07629
 C624 C -0.10607 0.38784 0.04484
 C625 C -0.08181 0.41064 0.03388
 C626 C -0.04594 0.40514 0.03980
 C627 C -0.03441 0.37637 0.05633
 H628 H -0.15973 0.29554 0.10741
 H629 H -0.03272 0.27527 0.12834
 H630 H -0.07555 0.24007 0.15526
 H631 H -0.01945 0.32264 0.09265
 H632 H -0.14682 0.34264 0.07197
 H633 H -0.13366 0.39265 0.04018
 H634 H -0.09100 0.43269 0.02096
 H635 H -0.00669 0.37230 0.06127
 C636 C -0.11552 0.72024 -0.10687
 C637 C -0.09457 0.69533 -0.09214
 C638 C -0.05801 0.69939 -0.08928
 C639 C -0.04301 0.72809 -0.10142
 C640 C -0.06386 0.75238 -0.11691
 C641 C -0.10049 0.74895 -0.12000
 C642 C -0.03692 0.67436 -0.07510
 C643 C -0.05177 0.64474 -0.06507
 C644 C -0.08830 0.64039 -0.06838
 C645 C -0.10955 0.66598 -0.08126
 C646 C -0.10280 0.61012 -0.05977
 C647 C -0.08116 0.58404 -0.04914
 C648 C -0.04491 0.58823 -0.04594
 C649 C -0.03044 0.61886 -0.05313
 H650 H -0.14334 0.71614 -0.10984
 H651 H -0.01503 0.73166 -0.09927
 H652 H -0.05110 0.77441 -0.12528
 H653 H -0.00884 0.67751 -0.07295
 H654 H -0.13757 0.66266 -0.08381
 H655 H -0.13072 0.60633 -0.06220
 H656 H -0.09268 0.56054 -0.04354
 H657 H -0.00236 0.62199 -0.05109
 C658 C 0.14660 0.68005 0.15803
 C659 C 0.14021 0.65053 0.13995
 C660 C 0.15365 0.64614 0.10685
 C661 C 0.17356 0.67085 0.09257
 C662 C 0.17964 0.70008 0.11045
 C663 C 0.16627 0.70553 0.14351
 C664 C 0.14606 0.61760 0.08794
 C665 C 0.12419 0.59371 0.10121
 C666 C 0.11130 0.59748 0.13462
 C667 C 0.11990 0.62563 0.15406
 C668 C 0.08852 0.57386 0.14719
 C669 C 0.07630 0.54844 0.12582
 C670 C 0.08731 0.54581 0.09181
 C671 C 0.11298 0.56742 0.08050
 H672 H 0.13681 0.68254 0.18370
 H673 H 0.18372 0.66797 0.06704
 H674 H 0.19346 0.71893 0.09711
 H675 H 0.15588 0.61470 0.06224
 H676 H 0.10954 0.62882 0.17949
 H677 H 0.07852 0.57616 0.17282
 H678 H 0.05659 0.53215 0.13523
 H679 H 0.12180 0.56574 0.05436
 C680 C 0.29775 1.13944 0.85227
 C681 C 0.31673 1.11657 0.87207
 C682 C 0.30560 1.08359 0.87333
 C683 C 0.27546 1.07418 0.85490
 C684 C 0.25627 1.09731 0.83574
 C685 C 0.26710 1.13021 0.83432
 C686 C 0.32487 1.06058 0.89282
 C687 C 0.35525 1.07015 0.91083
 C688 C 0.36606 1.10329 0.90989
 C689 C 0.34664 1.12629 0.89066
 C690 C 0.39676 1.11270 0.92736
 C691 C 0.41757 1.08918 0.94411
 C692 C 0.40762 1.05608 0.94428
 C693 C 0.37583 1.04685 0.92861
 H694 H 0.30686 1.16452 0.85094
 H695 H 0.26646 1.04904 0.85566
 H696 H 0.23244 1.08957 0.82276
 H697 H 0.31657 1.03518 0.89350
 H698 H 0.35510 1.15163 0.88974
 H699 H 0.40531 1.13800 0.92702
 H700 H 0.44201 1.09667 0.95617
 H701 H 0.36828 1.02123 0.92833
 C702 C 0.30175 0.84445 1.15155
 C703 C 0.32697 0.86569 1.13869
 C704 C 0.32232 0.90009 1.14223
 C705 C 0.29238 0.91269 1.15765
 C706 C 0.26680 0.89156 1.16897
 C707 C 0.27107 0.85713 1.16644
 C708 C 0.34710 0.92148 1.12936
 C709 C 0.37567 0.90907 1.11142
 C710 C 0.38007 0.87475 1.10693
 C711 C 0.35615 0.85319 1.12139
 C712 C 0.40762 0.86275 1.08700
 C713 C 0.42981 0.88463 1.07083
 C714 C 0.42560 0.91868 1.07554
 C715 C 0.39897 0.93067 1.09650
 H716 H 0.30602 0.81815 1.14958
 H717 H 0.28818 0.93902 1.16003
 H718 H 0.24321 0.90254 1.17892
 H719 H 0.34344 0.94786 1.13221
 H720 H 0.35953 0.82684 1.11809
 H721 H 0.41128 0.83655 1.08302
 H722 H 0.45005 0.87504 1.05447
 H723 H 0.39510 0.95700 1.09952
 C724 C 0.69124 1.15455 1.12686
 C725 C 0.66923 1.13265 1.10915
 C726 C 0.68336 1.11075 1.08460
 C727 C 0.71888 1.11225 1.07700
 C728 C 0.74051 1.13442 1.09445
 C729 C 0.72700 1.15515 1.11994
 C730 C 0.66194 1.08731 1.06856
 C731 C 0.62646 1.08584 1.07633
 C732 C 0.61194 1.10879 1.09955
 C733 C 0.63349 1.13188 1.11606
 C734 C 0.57614 1.10803 1.10612
 C735 C 0.55494 1.08462 1.08998
 C736 C 0.56928 1.06130 1.06739
 C737 C 0.60526 1.06167 1.06127
 H738 H 0.68081 1.17072 1.14643
 H739 H 0.73007 1.09584 1.05809
 H740 H 0.76814 1.13447 1.08903
 H741 H 0.67290 1.07009 1.05024
 H742 H 0.62254 1.14900 1.13448
 H743 H 0.56455 1.12550 1.12373
 H744 H 0.52734 1.08457 1.09547
 H745 H 0.61667 1.04344 1.04432
 C746 C 0.71018 0.86430 0.86184
 C747 C 0.68256 0.87727 0.88124
 C748 C 0.68592 0.87808 0.91740
 C749 C 0.71626 0.86589 0.93358
 C750 C 0.74343 0.85330 0.91428
 C751 C 0.74084 0.85223 0.87831
 C752 C 0.65928 0.89171 0.93701
 C753 C 0.62933 0.90509 0.92113
 C754 C 0.62526 0.90402 0.88512
 C755 C 0.65190 0.88989 0.86531
 C756 C 0.59494 0.91778 0.86975
 C757 C 0.56966 0.93346 0.88985
 C758 C 0.57436 0.93551 0.92558
 C759 C 0.60391 0.92047 0.94095
 H760 H 0.70789 0.86362 0.83415
 H761 H 0.71924 0.86657 0.96124
 H762 H 0.76699 0.84502 0.92765
 H763 H 0.66223 0.89257 0.96470
 H764 H 0.64908 0.88930 0.83763
 H765 H 0.59118 0.91712 0.84218
 H766 H 0.54710 0.94490 0.87740
 H767 H 0.60771 0.92151 0.96853
   
