data_POSCAR
  _audit_creation_date              2014-09-24
  _audit_creation_method            'ToBaCCo'
  _symmetry_space_group_name_H-M    'P1'
  _symmetry_Int_Tables_number       1
  _symmetry_cell_setting            triclinic
  loop_
  _symmetry_equiv_pos_as_xyz
 x,y,z
_cell_length_a 23.7735
_cell_length_b 29.7985
_cell_length_c 22.8803
_cell_angle_alpha 92.139900
_cell_angle_beta 87.560600
_cell_angle_gamma 91.153800
loop_
  _atom_site_label
  _atom_site_type_symbol
  _atom_site_fract_x
  _atom_site_fract_y
  _atom_site_fract_z
C1 C 0.28559 0.28672 0.21129
 C2 C 0.24403 0.26408 0.24463
 C3 C 0.20231 0.28836 0.27621
 C4 C 0.20287 0.33538 0.27630
 C5 C 0.24407 0.35788 0.24171
 C6 C 0.28520 0.33363 0.20831
 C7 C 0.24565 0.21506 0.24877
 C8 C 0.28365 0.19626 0.28544
 C9 C 0.28474 0.14971 0.29177
 C10 C 0.24691 0.12190 0.26039
 C11 C 0.20918 0.14038 0.22246
 C12 C 0.20834 0.18732 0.21765
 H13 H 0.31781 0.26763 0.18704
 H14 H 0.17069 0.27064 0.30252
 H15 H 0.31204 0.21816 0.30968
 H16 H 0.17821 0.20267 0.19080
 H17 H 0.24421 0.39415 0.24119
 H18 H 0.24596 0.08597 0.26581
 C19 C 0.78772 0.78555 0.21878
 C20 C 0.74868 0.76285 0.25497
 C21 C 0.71060 0.78698 0.29148
 C22 C 0.71190 0.83409 0.29393
 C23 C 0.75050 0.85670 0.25601
 C24 C 0.78811 0.83271 0.21734
 C25 C 0.74782 0.71360 0.25611
 C26 C 0.78422 0.69201 0.29201
 C27 C 0.77846 0.64566 0.29956
 C28 C 0.73699 0.62094 0.27017
 C29 C 0.70233 0.64176 0.23165
 C30 C 0.70717 0.68852 0.22569
 H31 H 0.81680 0.76617 0.19063
 H32 H 0.68096 0.76866 0.31950
 H33 H 0.81507 0.71155 0.31614
 H34 H 0.67865 0.70577 0.19889
 H35 H 0.75128 0.89275 0.25665
 H36 H 0.73272 0.58508 0.27620
 C37 C 0.80262 0.29463 0.71997
 C38 C 0.76004 0.27429 0.75459
 C39 C 0.71982 0.30080 0.78558
 C40 C 0.72282 0.34812 0.78341
 C41 C 0.76589 0.36776 0.74817
 C42 C 0.80490 0.34130 0.71520
 C43 C 0.75767 0.22501 0.75795
 C44 C 0.79626 0.20318 0.79119
 C45 C 0.79608 0.15605 0.79332
 C46 C 0.75570 0.13121 0.76112
 C47 C 0.71695 0.15274 0.72729
 C48 C 0.71786 0.19991 0.72661
 H49 H 0.83312 0.27393 0.69556
 H50 H 0.68816 0.28404 0.81268
 H51 H 0.82675 0.22325 0.81520
 H52 H 0.68774 0.21755 0.70226
 H53 H 0.76925 0.40403 0.74646
 H54 H 0.75284 0.09505 0.76268
 C55 C 0.30253 0.79147 0.72129
 C56 C 0.26335 0.76933 0.75827
 C57 C 0.22724 0.79424 0.79647
 C58 C 0.23095 0.84136 0.79876
 C59 C 0.27073 0.86308 0.76203
 C60 C 0.30605 0.83870 0.72156
 C61 C 0.25956 0.71991 0.75628
 C62 C 0.30120 0.69478 0.78104
 C63 C 0.29724 0.64757 0.77964
 C64 C 0.25213 0.62605 0.75204
 C65 C 0.21084 0.65072 0.72641
 C66 C 0.21431 0.69787 0.72929
 H67 H 0.32948 0.77161 0.69140
 H68 H 0.19770 0.77665 0.82520
 H69 H 0.33641 0.71210 0.80098
 H70 H 0.18210 0.71752 0.71074
 H71 H 0.27327 0.89921 0.76622
 H72 H 0.24922 0.58965 0.75031
 C73 C 0.06965 0.06570 0.01480
 H74 H 0.06809 0.06805 -0.03217
 C75 C 0.10565 0.09423 0.04633
 H76 H 0.13156 0.11877 0.02335
 C77 C 0.03801 0.03065 0.10178
 H78 H 0.01149 0.00589 0.12330
 C79 C 0.07368 0.05831 0.13494
 H80 H 0.07312 0.05492 0.18187
 N81 N 0.03724 0.03433 0.04272
 C82 C 0.01592 -0.08525 -0.07090
 H83 H -0.02942 -0.08924 -0.07078
 C84 C 0.05004 -0.11665 -0.10150
 H85 H 0.03072 -0.14445 -0.12558
 C86 C 0.09623 -0.04440 -0.03935
 H87 H 0.11429 -0.01665 -0.01443
 C88 C 0.13182 -0.07506 -0.06892
 H89 H 0.17682 -0.07043 -0.06549
 Zn90 Zn -0.00766 -0.00601 -0.00258
 N91 N 0.03940 -0.04925 -0.04204
 C92 C -0.05371 0.01011 -0.11263
 N93 N -0.04758 0.02688 -0.05708
 C94 C -0.07214 0.06604 -0.03843
 C95 C -0.10591 0.08908 -0.07553
 C96 C -0.08754 0.03175 -0.15086
 C97 C -0.04137 -0.07186 0.07740
 C98 C -0.07841 -0.09486 0.11534
 C99 C -0.15218 -0.04512 0.09083
 C100 C -0.11396 -0.02341 0.05300
 N101 N -0.05959 -0.03676 0.04735
 H102 H -0.03364 -0.02069 -0.12717
 H103 H -0.06685 0.07868 0.00597
 H104 H -0.12679 0.11916 -0.05890
 H105 H -0.09320 0.01717 -0.19434
 H106 H 0.00219 -0.08164 0.07233
 H107 H -0.06269 -0.12193 0.13993
 H108 H -0.19516 -0.03366 0.09543
 H109 H -0.12773 0.00445 0.02877
 C110 C 0.10878 -0.11109 -0.10206
 C111 C 0.10883 0.09017 0.10699
 C112 C -0.13471 -0.08143 0.12231
 C113 C -0.11443 0.07156 -0.13246
 C114 C 0.07499 0.58290 0.51932
 H115 H 0.07749 0.58430 0.47210
 C116 C 0.10633 0.61333 0.55311
 H117 H 0.13344 0.63793 0.53170
 C118 C 0.03685 0.54881 0.60456
 H119 H 0.00894 0.52425 0.62452
 C120 C 0.06785 0.57837 0.64004
 H121 H 0.06344 0.57606 0.68711
 N122 N 0.04224 0.55075 0.54529
 C123 C 0.03464 0.44411 0.41015
 H124 H -0.01042 0.44032 0.40622
 C125 C 0.07120 0.41854 0.37361
 H126 H 0.05365 0.39553 0.34124
 C127 C 0.11173 0.48043 0.45571
 H128 H 0.12744 0.50439 0.48791
 C129 C 0.14976 0.45577 0.41993
 H130 H 0.19454 0.46117 0.42477
 Zn131 Zn 0.00356 0.51055 0.49462
 N132 N 0.05536 0.47477 0.44957
 C133 C -0.02235 0.54793 0.38688
 N134 N -0.03619 0.54672 0.44515
 C135 C -0.07693 0.57334 0.47037
 C136 C -0.10846 0.60019 0.43601
 C137 C -0.05174 0.57540 0.35112
 C138 C -0.02586 0.44475 0.57707
 C139 C -0.06228 0.41887 0.61244
 C140 C -0.14072 0.44773 0.56272
 C141 C -0.10292 0.47275 0.52823
 N142 N -0.04676 0.47213 0.53724
 H143 H 0.01165 0.52785 0.36808
 H144 H -0.08564 0.57291 0.51714
 H145 H -0.14192 0.62028 0.45629
 H146 H -0.04102 0.57578 0.30465
 H147 H 0.01907 0.44418 0.58270
 H148 H -0.04481 0.39907 0.64569
 H149 H -0.18544 0.44976 0.55605
 H150 H -0.11885 0.49304 0.49479
 C151 C 0.12972 0.42441 0.37823
 C152 C 0.10420 0.61042 0.61408
 C153 C -0.12073 0.42084 0.60597
 C154 C -0.09619 0.60090 0.37560
 C155 C 0.56652 0.08810 0.52296
 H156 H 0.56123 0.09391 0.47715
 C157 C 0.60029 0.11741 0.55617
 H158 H 0.62061 0.14600 0.53568
 C159 C 0.54808 0.04292 0.60488
 H160 H 0.52833 0.01345 0.62352
 C161 C 0.58129 0.07133 0.63962
 H162 H 0.58499 0.06385 0.68516
 N163 N 0.54204 0.05127 0.54747
 C164 C 0.54026 -0.06732 0.43019
 H165 H 0.49648 -0.07794 0.43330
 C166 C 0.57852 -0.09205 0.39464
 H167 H 0.56342 -0.12130 0.37017
 C168 C 0.61196 -0.01473 0.45572
 H169 H 0.62493 0.01563 0.47901
 C170 C 0.65148 -0.03823 0.42045
 H171 H 0.69456 -0.02572 0.41708
 Zn172 Zn 0.50344 0.00753 0.50097
 N173 N 0.55724 -0.02900 0.45910
 C174 C 0.45310 0.01759 0.39191
 N175 N 0.45770 0.03575 0.44702
 C176 C 0.42795 0.07264 0.46508
 C177 C 0.39062 0.09176 0.42787
 C178 C 0.41633 0.03555 0.35338
 C179 C 0.46845 -0.07058 0.56350
 C180 C 0.43361 -0.09463 0.60262
 C181 C 0.37539 -0.02932 0.61671
 C182 C 0.41123 -0.00665 0.57768
 N183 N 0.45649 -0.02746 0.55153
 H184 H 0.47710 -0.01137 0.37768
 H185 H 0.43259 0.08694 0.50877
 H186 H 0.36615 0.12005 0.44432
 H187 H 0.41272 0.02011 0.31005
 H188 H 0.50570 -0.08611 0.54387
 H189 H 0.44495 -0.12841 0.61228
 H190 H 0.33963 -0.01189 0.63699
 H191 H 0.40315 0.02786 0.56878
 C192 C 0.63493 -0.07720 0.38910
 C193 C 0.60929 0.10853 0.61486
 C194 C 0.38601 -0.07392 0.62959
 C195 C 0.38433 0.07299 0.37107
 C196 C 0.57620 0.56645 0.01735
 H197 H 0.57795 0.56820 -0.02984
 C198 C 0.60961 0.59554 0.05085
 H199 H 0.63764 0.61939 0.02919
 C200 C 0.53655 0.53382 0.10293
 H201 H 0.50700 0.51056 0.12315
 C202 C 0.56928 0.56225 0.13814
 H203 H 0.56412 0.56039 0.18519
 N204 N 0.54126 0.53589 0.04365
 C205 C 0.51414 0.42529 -0.08335
 H206 H 0.46863 0.42298 -0.08212
 C207 C 0.54585 0.39382 -0.11682
 H208 H 0.52461 0.36738 -0.14164
 C209 C 0.59739 0.46186 -0.05145
 H210 H 0.61755 0.48765 -0.02493
 C211 C 0.63058 0.43168 -0.08500
 H212 H 0.67599 0.43467 -0.08372
 Zn213 Zn 0.49558 0.49953 -0.00523
 N214 N 0.54024 0.45863 -0.05181
 C215 C 0.45763 0.53384 -0.11124
 N216 N 0.45814 0.53929 -0.05201
 C217 C 0.43301 0.57487 -0.02341
 C218 C 0.40431 0.60604 -0.05428
 C219 C 0.42899 0.56413 -0.14388
 C220 C 0.46057 0.43425 0.07523
 C221 C 0.42235 0.41007 0.11062
 C222 C 0.34673 0.45142 0.07205
 C223 C 0.38631 0.47473 0.03747
 N224 N 0.44213 0.46632 0.04026
 H225 H 0.47910 0.50594 -0.13317
 H226 H 0.43490 0.57872 0.02367
 H227 H 0.38366 0.63373 -0.03070
 H228 H 0.42906 0.55925 -0.19098
 H229 H 0.50519 0.42804 0.07636
 H230 H 0.43845 0.38590 0.13946
 H231 H 0.30251 0.45899 0.06975
 H232 H 0.37226 0.49974 0.00871
 C233 C 0.60478 0.39733 -0.11862
 C234 C 0.60706 0.59320 0.11195
 C235 C 0.36442 0.41864 0.10925
 C236 C 0.40098 0.60036 -0.11506
 C237 C 0.19547 -0.13028 -0.16044
 C238 C 0.14467 -0.14264 -0.13808
 H239 H 0.21045 -0.09617 -0.15233
 H240 H 0.12674 -0.17514 -0.15032
 C241 C 0.16004 0.35997 0.31303
 C242 C 0.17099 0.39998 0.33926
 H243 H 0.12013 0.34297 0.32208
 H244 H 0.21300 0.41453 0.33473
 C245 C 0.67398 -0.14358 0.33370
 C246 C 0.67650 -0.09950 0.34832
 H247 H 0.64188 -0.16388 0.35576
 H248 H 0.71133 -0.07867 0.33294
 C249 C 0.68618 0.37702 -0.18377
 C250 C 0.63880 0.36439 -0.15414
 H251 H 0.69654 0.41265 -0.18344
 H252 H 0.62252 0.33032 -0.15773
 C253 C -0.16470 0.13595 -0.17139
 C254 C -0.15409 0.09174 -0.17197
 H255 H -0.14024 0.15801 -0.14307
 H256 H -0.17262 0.06900 -0.20393
 C257 C -0.18640 0.62274 0.33998
 C258 C -0.13036 0.62714 0.33771
 H259 H -0.20673 0.59883 0.36899
 H260 H -0.10935 0.64703 0.30429
 C261 C 0.32431 0.13206 0.33342
 C262 C 0.34384 0.09012 0.32992
 H263 H 0.34013 0.15562 0.36620
 H264 H 0.33205 0.06782 0.29388
 C265 C 0.33904 0.61921 -0.19407
 C266 C 0.36684 0.63197 -0.14640
 H267 H 0.34219 0.58486 -0.21090
 H268 H 0.35940 0.66479 -0.12589
 C269 C -0.17357 -0.14609 0.17781
 C270 C -0.17546 -0.10265 0.16401
 H271 H -0.14210 -0.16683 0.15501
 H272 H -0.20981 -0.08184 0.18013
 C273 C -0.15154 0.36200 0.67597
 C274 C -0.16234 0.39816 0.64544
 H275 H -0.11144 0.34556 0.66967
 H276 H -0.20461 0.41127 0.64795
 C277 C 0.34424 -0.14054 0.68126
 C278 C 0.34739 -0.09601 0.67289
 H279 H 0.37101 -0.16234 0.65395
 H280 H 0.31879 -0.07360 0.69650
 C281 C 0.32924 0.35620 0.17143
 C282 C 0.32142 0.39571 0.14703
 H283 H 0.36778 0.33823 0.16157
 H284 H 0.28071 0.41131 0.15255
 C285 C 0.16969 0.11008 0.19049
 C286 C 0.14785 0.12039 0.13957
 H287 H 0.16076 0.07740 0.20820
 H288 H 0.16125 0.15114 0.11893
 C289 C 0.16511 0.62573 0.69706
 C290 C 0.14191 0.63985 0.64891
 H291 H 0.15520 0.59219 0.71160
 H292 H 0.15616 0.67131 0.63059
 C293 C 0.67548 0.12459 0.69474
 C294 C 0.64816 0.13828 0.64851
 H295 H 0.67005 0.09015 0.70762
 H296 H 0.65724 0.17125 0.63184
 C297 C 0.66116 0.61363 0.19946
 C298 C 0.64381 0.62366 0.14664
 H299 H 0.64890 0.58174 0.21775
 H300 H 0.66059 0.65341 0.12582
   
