data_POSCAR
  _audit_creation_date              2014-09-24
  _audit_creation_method            'ToBaCCo'
  _symmetry_space_group_name_H-M    'P1'
  _symmetry_Int_Tables_number       1
  _symmetry_cell_setting            triclinic
  loop_
  _symmetry_equiv_pos_as_xyz
 x,y,z
_cell_length_a 28.1660
_cell_length_b 28.0773
_cell_length_c 28.0628
_cell_angle_alpha 89.997700
_cell_angle_beta 89.866400
_cell_angle_gamma 89.894800
loop_
  _atom_site_label
  _atom_site_type_symbol
  _atom_site_fract_x
  _atom_site_fract_y
  _atom_site_fract_z
C1 C 0.35090 0.98481 -0.47413
 C2 C 0.35163 0.98479 -0.52287
 C3 C 0.39391 1.00625 -0.53657
 N4 N 0.41947 1.01844 -0.49782
 C5 C 0.39306 1.00548 -0.45973
 C6 C 0.40721 1.01669 -0.58408
 C7 C 0.45523 1.02619 -0.59657
 C8 C 0.46998 1.04668 -0.63898
 C9 C 0.51868 1.04682 -0.63852
 C10 C 0.53295 1.02789 -0.59500
 N11 N 0.49379 1.01514 -0.56985
 C12 C 0.58075 1.01793 -0.58156
 C13 C 0.59384 1.00730 -0.53379
 C14 C 0.63885 0.99367 -0.51871
 C15 C 0.63758 0.99192 -0.46987
 C16 C 0.59226 1.00554 -0.45635
 N17 N 0.56570 1.01504 -0.49538
 C18 C 0.57703 1.01236 -0.40872
 C19 C 0.52945 1.02295 -0.39670
 C20 C 0.51457 1.04171 -0.35340
 C21 C 0.46575 1.04273 -0.35437
 C22 C 0.45231 1.02448 -0.39817
 N23 N 0.49129 1.01272 -0.42383
 C24 C 0.40520 1.01523 -0.41214
 H25 H 0.32270 0.97102 -0.45182
 H26 H 0.32409 0.97066 -0.54565
 H27 H 0.49164 0.99325 -0.45537
 H28 H 0.44806 1.05974 -0.66779
 H29 H 0.54047 1.05882 -0.66783
 H30 H 0.67002 0.98684 -0.54019
 H31 H 0.66709 0.98275 -0.44701
 H32 H 0.44280 1.05475 -0.32580
 H33 H 0.49344 0.99498 -0.53875
 H34 H 0.53658 1.05295 -0.32392
 C35 C -0.47597 1.35384 0.00808
 C36 C -0.52463 1.35192 0.00991
 C37 C -0.54133 1.39441 -0.00907
 N38 N -0.50423 1.42272 -0.02101
 C39 C -0.46431 1.39809 -0.01029
 C40 C -0.58983 1.40671 -0.01618
 C41 C -0.60289 1.45372 -0.02935
 C42 C -0.64429 1.46613 -0.05319
 C43 C -0.64552 1.51501 -0.05539
 C44 C -0.60472 1.53105 -0.03319
 N45 N -0.57860 1.49355 -0.01793
 C46 C -0.59425 1.57917 -0.02368
 C47 C -0.54836 1.59402 -0.01103
 C48 C -0.53762 1.63697 0.01055
 C49 C -0.48913 1.63918 0.01286
 C50 C -0.47196 1.59784 -0.00828
 N51 N -0.50834 1.56998 -0.02234
 C52 C -0.42353 1.58731 -0.01682
 C53 C -0.40844 1.53991 -0.02639
 C54 C -0.36521 1.52719 -0.04657
 C55 C -0.36364 1.47827 -0.04747
 C56 C -0.40640 1.46221 -0.02887
 N57 N -0.43348 1.50000 -0.01609
 C58 C -0.41764 1.41393 -0.01993
 H59 H -0.45206 1.32594 0.01956
 H60 H -0.54506 1.32253 0.02400
 H61 H -0.46498 1.49845 0.00332
 H62 H -0.67110 1.44236 -0.06712
 H63 H -0.67355 1.53631 -0.07095
 H64 H -0.56218 1.66379 0.02334
 H65 H -0.46885 1.66803 0.02821
 H66 H -0.33404 1.45714 -0.06009
 H67 H -0.54899 1.49521 0.00419
 H68 H -0.33747 1.55062 -0.05926
 C69 C 0.05861 0.35552 0.53012
 C70 C 0.06003 0.35522 0.48129
 C71 C 0.03829 0.39691 0.46623
 N72 N 0.02405 0.42293 0.50438
 C73 C 0.03605 0.39739 0.54352
 C74 C 0.03143 0.41040 0.41797
 C75 C 0.02080 0.45827 0.40567
 C76 C -0.00001 0.47275 0.36325
 C77 C 0.00029 0.52160 0.36311
 C78 C 0.02000 0.53581 0.40602
 N79 N 0.03223 0.49699 0.43191
 C80 C 0.02935 0.58354 0.41871
 C81 C 0.03779 0.59810 0.46599
 C82 C 0.04864 0.64417 0.47971
 C83 C 0.04793 0.64468 0.52848
 C84 C 0.03687 0.59872 0.54317
 N85 N 0.03028 0.57056 0.50472
 C86 C 0.02620 0.58490 0.59058
 C87 C 0.01459 0.53710 0.60263
 C88 C -0.00646 0.52255 0.64502
 C89 C -0.00732 0.47376 0.64452
 C90 C 0.01490 0.45928 0.60281
 N91 N 0.02742 0.49806 0.57708
 C92 C 0.02636 0.41134 0.59121
 H93 H 0.07349 0.32842 0.55311
 H94 H 0.07622 0.32787 0.45944
 H95 H 0.04908 0.49760 0.54697
 H96 H -0.01351 0.45046 0.33492
 H97 H -0.01238 0.54387 0.33438
 H98 H 0.05443 0.67484 0.45711
 H99 H 0.05260 0.67614 0.55015
 H100 H -0.02163 0.45149 0.67254
 H101 H 0.05235 0.49682 0.46299
 H102 H -0.01911 0.54417 0.67423
 O103 O -0.12982 1.00373 -0.05781
 O104 O 0.11381 0.98700 -0.06272
 O105 O -0.00747 1.05979 -0.11814
 O106 O -0.00953 0.93111 -0.11816
 O107 O -0.01290 0.87331 -0.05980
 O108 O -0.00313 1.11838 -0.06071
 O109 O 0.05534 0.99146 -0.11987
 O110 O -0.07252 1.00163 -0.11668
 Zr111 Zr -0.00806 0.99566 -0.07940
 O112 O 0.03355 0.95019 -0.04007
 O113 O -0.04832 1.04087 -0.03773
 C114 C -0.11613 1.00492 -0.10209
 C115 C 0.09930 0.98755 -0.10648
 C116 C -0.00556 1.10395 -0.10471
 C117 C -0.01137 0.88715 -0.10387
 H118 H 0.05820 1.05569 -0.06064
 O119 O 0.03737 1.03660 -0.03969
 H120 H -0.07401 0.93563 -0.05789
 O121 O -0.05239 0.95480 -0.03790
 O122 O 0.11712 0.99077 0.06485
 O123 O -0.12712 0.99942 0.07195
 O124 O 0.06403 1.11489 0.00414
 O125 O 0.05116 0.87000 0.00152
 O126 O -0.07573 0.87651 0.00785
 O127 O -0.06552 1.12131 0.00377
 O128 O 0.00010 1.05913 0.12677
 O129 O -0.00664 0.93119 0.12694
 O130 O 0.00235 1.11798 0.06946
 O131 O -0.01339 0.87357 0.06876
 O132 O 0.11848 1.05344 0.00194
 O133 O -0.12571 1.06555 0.00707
 O134 O -0.13175 0.93644 0.00823
 O135 O 0.11198 0.92475 -0.00091
 O136 O 0.06122 0.99484 0.12480
 O137 O -0.06760 0.99507 0.12822
 Zr138 Zr 0.07666 0.99129 0.00211
 Zr139 Zr -0.09017 0.99945 0.00621
 Zr140 Zr -0.00255 1.07977 0.00431
 Zr141 Zr -0.01054 0.91222 0.00433
 Zr142 Zr -0.00433 0.99537 0.08788
 O143 O -0.05063 0.95455 0.04856
 O144 O 0.03959 1.03672 0.04630
 C145 C 0.10472 0.99298 0.10928
 C146 C -0.11186 0.99665 0.11553
 C147 C 0.10717 1.09827 0.00295
 C148 C 0.09566 0.88148 -0.00081
 C149 C -0.11909 0.89186 0.00930
 C150 C -0.10997 1.10893 0.00549
 C151 C 0.00273 1.10326 0.11346
 C152 C -0.01102 0.88743 0.11279
 H153 H -0.06512 1.06142 0.06926
 O154 O -0.04626 1.04042 0.04818
 H155 H 0.05523 0.92903 0.06602
 O156 O 0.03540 0.95031 0.04624
 C157 C 0.32807 1.04304 0.39023
 C158 C 0.29112 1.04274 0.35725
 C159 C 0.29624 1.01887 0.31392
 C160 C 0.33941 0.99594 0.30330
 C161 C 0.37651 0.99607 0.33636
 C162 C 0.37113 1.01901 0.38073
 N163 N 0.25677 1.01769 0.28192
 N164 N 0.25933 0.99784 0.24127
 C165 C 0.21970 0.99613 0.20951
 C166 C 0.22677 0.97867 0.16344
 C167 C 0.18926 0.97731 0.13111
 C168 C 0.14366 0.99299 0.14453
 C169 C 0.13634 1.00967 0.19120
 C170 C 0.17415 1.01147 0.22342
 H171 H 0.32300 1.06224 0.42335
 H172 H 0.25818 1.06088 0.36564
 H173 H 0.34415 0.97716 0.26994
 H174 H 0.40866 0.97653 0.32800
 H175 H 0.26163 0.96654 0.15243
 H176 H 0.19604 0.96390 0.09555
 H177 H 0.10169 1.02214 0.20250
 H178 H 0.16781 1.02490 0.25903
 C179 C -0.37252 1.06254 0.35968
 C180 C -0.33847 1.06361 0.32338
 C181 C -0.31356 1.02231 0.31089
 C182 C -0.32320 0.97957 0.33508
 C183 C -0.35802 0.97819 0.37067
 C184 C -0.38334 1.01962 0.38320
 N185 N -0.27940 1.02444 0.27305
 N186 N -0.24776 0.99250 0.26749
 C187 C -0.21445 0.99394 0.22887
 C188 C -0.17219 0.96798 0.23255
 C189 C -0.13865 0.96919 0.19580
 C190 C -0.14756 0.99539 0.15408
 C191 C -0.19052 1.02053 0.14990
 C192 C -0.22351 1.02031 0.18727
 H193 H -0.39058 1.09526 0.36935
 H194 H -0.33117 1.09682 0.30517
 H195 H -0.30457 0.94711 0.32578
 H196 H -0.36580 0.94456 0.38793
 H197 H -0.16495 0.94731 0.26430
 H198 H -0.10597 0.94917 0.19971
 H199 H -0.19818 1.04099 0.11811
 H200 H -0.25621 1.04026 0.18351
 C201 C -0.39485 0.97558 -0.33248
 C202 C -0.36325 0.97320 -0.29423
 C203 C -0.32397 1.00354 -0.29232
 C204 C -0.31677 1.03679 -0.32916
 C205 C -0.34873 1.03962 -0.36716
 C206 C -0.38792 1.00886 -0.36923
 N207 N -0.29194 0.99977 -0.25287
 N208 N -0.25244 1.02166 -0.25233
 C209 C -0.21986 1.01822 -0.21337
 C210 C -0.17382 1.03558 -0.21965
 C211 C -0.14037 1.03135 -0.18332
 C212 C -0.15264 1.01039 -0.13948
 C213 C -0.19931 0.99409 -0.13261
 C214 C -0.23265 0.99757 -0.16949
 H215 H -0.42498 0.95167 -0.33334
 H216 H -0.36921 0.94745 -0.26612
 H217 H -0.28678 1.06083 -0.32837
 H218 H -0.34310 1.06593 -0.39482
 H219 H -0.16362 1.05172 -0.25318
 H220 H -0.10483 1.04462 -0.18952
 H221 H -0.20967 0.97771 -0.09924
 H222 H -0.26821 0.98415 -0.16377
 C223 C 0.32755 1.04649 -0.38178
 C224 C 0.28958 1.04490 -0.34977
 C225 C 0.29032 1.01319 -0.31136
 C226 C 0.32989 0.98323 -0.30489
 C227 C 0.36776 0.98456 -0.33710
 C228 C 0.36669 1.01598 -0.37595
 N229 N 0.25047 1.01189 -0.27968
 N230 N 0.25041 0.98607 -0.24246
 C231 C 0.21091 0.98458 -0.21041
 C232 C 0.21680 0.96234 -0.16631
 C233 C 0.18007 0.96256 -0.13293
 C234 C 0.13641 0.98444 -0.14349
 C235 C 0.12984 1.00524 -0.18853
 C236 C 0.16701 1.00566 -0.22170
 H237 H 0.32617 1.07097 -0.41158
 H238 H 0.25938 1.06822 -0.35501
 H239 H 0.33126 0.95839 -0.27542
 H240 H 0.39750 0.96054 -0.33227
 H241 H 0.25038 0.94579 -0.15737
 H242 H 0.18599 0.94592 -0.09863
 H243 H 0.09660 1.02248 -0.19748
 H244 H 0.16163 1.02280 -0.25583
 C245 C 0.33109 1.38440 0.01338
 C246 C 0.29414 1.35164 0.01794
 C247 C 0.29857 1.30583 -0.00087
 C248 C 0.34072 1.29296 -0.02456
 C249 C 0.37773 1.32586 -0.02951
 C250 C 0.37359 1.37222 -0.01054
 N251 N 0.25949 1.27353 0.00393
 N252 N 0.26231 1.23009 -0.00871
 C253 C 0.22301 1.19798 -0.00460
 C254 C 0.23029 1.14982 -0.01481
 C255 C 0.19280 1.11747 -0.01177
 C256 C 0.14693 1.13283 0.00118
 C257 C 0.13964 1.18135 0.01143
 C258 C 0.17741 1.21366 0.00877
 H259 H 0.32663 1.41930 0.02925
 H260 H 0.26190 1.36198 0.03635
 H261 H 0.34476 1.25783 -0.03993
 H262 H 0.40887 1.31547 -0.04973
 H263 H 0.26519 1.13731 -0.02525
 H264 H 0.19973 1.08047 -0.02023
 H265 H 0.10483 1.19434 0.02159
 H266 H 0.17087 1.25082 0.01673
 C267 C 0.37442 0.65572 -0.05704
 C268 C 0.34068 0.69218 -0.05792
 C269 C 0.29963 0.68904 -0.03000
 C270 C 0.29219 0.64846 -0.00155
 C271 C 0.32617 0.61215 -0.00029
 C272 C 0.36778 0.61576 -0.02765
 N273 N 0.26695 0.72812 -0.02995
 N274 N 0.22711 0.72593 -0.00865
 C275 C 0.19498 0.76543 -0.00734
 C276 C 0.14903 0.75821 0.01000
 C277 C 0.11675 0.79592 0.01196
 C278 C 0.13022 0.84185 -0.00281
 C279 C 0.17667 0.84919 -0.01966
 C280 C 0.20875 0.81120 -0.02222
 H281 H 0.40623 0.65906 -0.07853
 H282 H 0.34675 0.72323 -0.07998
 H283 H 0.26074 0.64532 0.02046
 H284 H 0.32058 0.58175 0.02281
 H285 H 0.13815 0.72316 0.02181
 H286 H 0.08135 0.78915 0.02548
 H287 H 0.18804 0.88413 -0.03129
 H288 H 0.24429 0.81766 -0.03546
 C289 C -0.40091 0.66870 -0.04012
 C290 C -0.36952 0.70706 -0.03824
 C291 C -0.32658 0.70297 -0.01386
 C292 C -0.31487 0.65953 0.00818
 C293 C -0.34631 0.62108 0.00649
 C294 C -0.39020 0.62524 -0.01717
 N295 N -0.29553 0.74328 -0.01200
 N296 N -0.25519 0.74088 0.00811
 C297 C -0.22319 0.78032 0.01021
 C298 C -0.17730 0.77209 0.02690
 C299 C -0.14402 0.80868 0.02728
 C300 C -0.15620 0.85471 0.01161
 C301 C -0.20288 0.86347 -0.00376
 C302 C -0.23616 0.82638 -0.00479
 H303 H -0.43359 0.67294 -0.05998
 H304 H -0.37871 0.74014 -0.05583
 H305 H -0.28177 0.65547 0.02729
 H306 H -0.33703 0.58869 0.02529
 H307 H -0.16699 0.73682 0.03865
 H308 H -0.10844 0.80066 0.03938
 H309 H -0.21321 0.89849 -0.01624
 H310 H -0.27167 0.83353 -0.01766
 C311 C -0.35928 1.36309 -0.06455
 C312 C -0.32150 1.33068 -0.06545
 C313 C -0.30332 1.31206 -0.02294
 C314 C -0.32287 1.32694 0.02078
 C315 C -0.35988 1.36024 0.02173
 C316 C -0.37853 1.37831 -0.02094
 N317 N -0.26531 1.27805 -0.02498
 N318 N -0.25621 1.25058 0.00991
 C319 C -0.21828 1.21653 0.00874
 C320 C -0.22034 1.17740 0.03949
 C321 C -0.18499 1.14250 0.03825
 C322 C -0.14609 1.14696 0.00720
 C323 C -0.14308 1.18701 -0.02264
 C324 C -0.17934 1.22132 -0.02239
 H325 H -0.37323 1.37677 -0.09780
 H326 H -0.30678 1.31953 -0.09934
 H327 H -0.30918 1.31328 0.05411
 H328 H -0.37416 1.37183 0.05568
 H329 H -0.25002 1.17344 0.06377
 H330 H -0.18786 1.11207 0.06180
 H331 H -0.11341 1.19103 -0.04694
 H332 H -0.17689 1.25157 -0.04618
 C333 C 0.05771 1.38604 0.33771
 C334 C 0.05763 1.35347 0.30006
 C335 C 0.03477 1.30963 0.30479
 C336 C 0.01273 1.29815 0.34831
 C337 C 0.01260 1.33075 0.38602
 C338 C 0.03442 1.37567 0.38111
 N339 N 0.03348 1.27794 0.26472
 N340 N 0.01459 1.23692 0.26755
 C341 C 0.01203 1.20480 0.22798
 C342 C -0.00500 1.15884 0.23609
 C343 C -0.00806 1.12620 0.19881
 C344 C 0.00548 1.13902 0.15222
 C345 C 0.02206 1.18553 0.14387
 C346 C 0.02556 1.21817 0.18156
 H347 H 0.07618 1.41951 0.33287
 H348 H 0.07513 1.36261 0.26691
 H349 H -0.00531 1.26444 0.35287
 H350 H -0.00651 1.32157 0.41826
 H351 H -0.01574 1.14822 0.27161
 H352 H -0.02136 1.09085 0.20654
 H353 H 0.03290 1.19641 0.10846
 H354 H 0.03865 1.25369 0.17443
 C355 C 0.04926 1.38720 -0.32757
 C356 C 0.04760 1.35474 -0.28989
 C357 C 0.02470 1.31100 -0.29525
 C358 C 0.00414 1.29954 -0.33939
 C359 C 0.00560 1.33204 -0.37716
 C360 C 0.02754 1.37681 -0.37166
 N361 N 0.02221 1.27927 -0.25528
 N362 N 0.00325 1.23830 -0.25842
 C363 C 0.00014 1.20624 -0.21883
 C364 C -0.01587 1.15993 -0.22705
 C365 C -0.01820 1.12707 -0.18984
 C366 C -0.00509 1.14009 -0.14325
 C367 C 0.00999 1.18707 -0.13476
 C368 C 0.01285 1.21987 -0.17233
 H369 H 0.06775 1.42058 -0.32226
 H370 H 0.06401 1.36383 -0.25624
 H371 H -0.01384 1.26588 -0.34445
 H372 H -0.01225 1.32287 -0.41004
 H373 H -0.02592 1.14907 -0.26265
 H374 H -0.03005 1.09129 -0.19775
 H375 H 0.02050 1.19818 -0.09938
 H376 H 0.02512 1.25566 -0.16510
 C377 C 0.06668 0.64567 -0.36236
 C378 C 0.06543 0.68258 -0.32901
 C379 C 0.02300 0.69432 -0.30585
 C380 C -0.01862 0.66917 -0.31690
 C381 C -0.01767 0.63293 -0.35102
 C382 C 0.02513 0.62039 -0.37379
 N383 N 0.02288 0.73232 -0.27188
 N384 N -0.01051 0.73741 -0.24169
 C385 C -0.01109 0.77590 -0.20831
 C386 C -0.03868 0.77172 -0.16704
 C387 C -0.03875 0.80798 -0.13298
 C388 C -0.01220 0.84963 -0.14049
 C389 C 0.01441 0.85445 -0.18257
 C390 C 0.01543 0.81757 -0.21605
 H391 H 0.10009 0.63691 -0.37950
 H392 H 0.09768 0.70185 -0.32088
 H393 H -0.05200 0.67822 -0.29995
 H394 H -0.05056 0.61534 -0.36037
 H395 H -0.05940 0.73986 -0.16084
 H396 H -0.05978 0.80365 -0.10090
 H397 H 0.03529 0.88620 -0.18897
 H398 H 0.03669 0.82165 -0.24798
 C399 C 0.07000 0.64141 0.36475
 C400 C 0.06853 0.67807 0.33114
 C401 C 0.02504 0.69358 0.31273
 C402 C -0.01730 0.67250 0.32882
 C403 C -0.01592 0.63665 0.36331
 C404 C 0.02776 0.62064 0.38117
 N405 N 0.02467 0.73118 0.27837
 N406 N -0.01076 0.73849 0.25131
 C407 C -0.01136 0.77682 0.21778
 C408 C -0.04138 0.77398 0.17826
 C409 C -0.04130 0.81004 0.14397
 C410 C -0.01221 0.85018 0.14962
 C411 C 0.01677 0.85377 0.19008
 C412 C 0.01766 0.81705 0.22368
 H413 H 0.10394 0.62968 0.37858
 H414 H 0.10133 0.69422 0.31912
 H415 H -0.05133 0.68435 0.31540
 H416 H -0.04883 0.62134 0.37614
 H417 H -0.06405 0.74324 0.17351
 H418 H -0.06415 0.80676 0.11321
 H419 H 0.03962 0.88437 0.19503
 H420 H 0.04079 0.82011 0.25428
   
