data_POSCAR
  _audit_creation_date              2014-09-24
  _audit_creation_method            'ToBaCCo'
  _symmetry_space_group_name_H-M    'P1'
  _symmetry_Int_Tables_number       1
  _symmetry_cell_setting            triclinic
  loop_
  _symmetry_equiv_pos_as_xyz
 x,y,z
_cell_length_a 57.6708
_cell_length_b 57.7296
_cell_length_c 40.5925
_cell_angle_alpha 90.038300
_cell_angle_beta 89.714100
_cell_angle_gamma 120.698100
loop_
  _atom_site_label
  _atom_site_type_symbol
  _atom_site_fract_x
  _atom_site_fract_y
  _atom_site_fract_z
C1 C -0.07380 0.46873 -0.02712
 C2 C -0.07291 0.44550 -0.02815
 C3 C -0.04592 0.45315 -0.02652
 N4 N -0.03023 0.48022 -0.02421
 C5 C -0.04729 0.48978 -0.02517
 C6 C -0.03583 0.43566 -0.03154
 C7 C -0.01133 0.44129 -0.01659
 C8 C 0.00378 0.42945 -0.02429
 C9 C 0.02583 0.44080 -0.00375
 C10 C 0.02388 0.45965 0.01532
 N11 N 0.00112 0.45964 0.00761
 C12 C 0.04249 0.47603 0.03957
 C13 C 0.04413 0.49990 0.05119
 C14 C 0.05909 0.51452 0.07817
 C15 C 0.05867 0.53804 0.07832
 C16 C 0.04344 0.53700 0.05144
 N17 N 0.03440 0.51358 0.03496
 C18 C 0.04089 0.55874 0.04016
 C19 C 0.02174 0.55551 0.01638
 C20 C 0.02265 0.57608 -0.00222
 C21 C 0.00014 0.56444 -0.02195
 C22 C -0.01415 0.53716 -0.01431
 N23 N -0.00075 0.53196 0.00904
 C24 C -0.03879 0.51739 -0.02856
 H25 H -0.09177 0.47014 -0.02874
 H26 H -0.09003 0.42529 -0.03077
 H27 H -0.00762 0.51364 0.02114
 H28 H -0.00022 0.41462 -0.04311
 H29 H 0.04183 0.43621 -0.00348
 H30 H 0.06982 0.50912 0.09541
 H31 H 0.06897 0.55437 0.09572
 H32 H -0.00470 0.57491 -0.04026
 H33 H -0.00646 0.47028 0.01985
 H34 H 0.03820 0.59716 -0.00209
 C35 C 0.51976 0.47124 -0.08546
 C36 C 0.54379 0.49500 -0.08342
 C37 C 0.54373 0.50631 -0.05334
 N38 N 0.52051 0.49021 -0.03680
 C39 C 0.50589 0.46858 -0.05632
 C40 C 0.56595 0.52990 -0.04052
 C41 C 0.56365 0.54459 -0.01417
 C42 C 0.58515 0.56570 0.00200
 C43 C 0.57433 0.57552 0.02444
 C44 C 0.54648 0.55988 0.02165
 N45 N 0.54022 0.54133 -0.00228
 C46 C 0.52774 0.56396 0.03959
 C47 C 0.49968 0.54495 0.04081
 C48 C 0.48079 0.54896 0.05703
 C49 C 0.45648 0.52553 0.05420
 C50 C 0.46116 0.50776 0.03649
 N51 N 0.48765 0.51958 0.02863
 C52 C 0.44149 0.48049 0.03044
 C53 C 0.44662 0.46264 0.01234
 C54 C 0.43075 0.43479 0.01345
 C55 C 0.44206 0.42491 -0.00805
 C56 C 0.46407 0.44698 -0.02264
 N57 N 0.46673 0.46992 -0.00991
 C58 C 0.48085 0.44566 -0.04742
 H59 H 0.51326 0.45739 -0.10601
 H60 H 0.55960 0.50303 -0.10192
 H61 H 0.47982 0.48941 -0.01826
 H62 H 0.60642 0.57350 -0.00222
 H63 H 0.58581 0.59240 0.04072
 H64 H 0.48411 0.56666 0.07026
 H65 H 0.43766 0.52184 0.06489
 H66 H 0.43482 0.40379 -0.01224
 H67 H 0.52127 0.52905 -0.01238
 H68 H 0.41302 0.42266 0.02843
 C69 C 0.52250 1.06341 -0.06381
 C70 C 0.54620 1.06353 -0.06137
 C71 C 0.54631 1.05362 -0.03036
 N72 N 0.52361 1.04772 -0.01355
 C73 C 0.50910 1.05397 -0.03390
 C74 C 0.56804 1.05194 -0.01739
 C75 C 0.56533 1.03562 0.00990
 C76 C 0.58651 1.03560 0.02584
 C77 C 0.57522 1.01526 0.04889
 C78 C 0.54745 1.00367 0.04669
 N79 N 0.54165 1.01608 0.02266
 C80 C 0.52826 0.98101 0.06491
 C81 C 0.50066 0.97304 0.06725
 C82 C 0.48127 0.95045 0.08406
 C83 C 0.45774 0.95083 0.08235
 C84 C 0.46342 0.97363 0.06448
 N85 N 0.48975 0.98733 0.05562
 C86 C 0.44494 0.98245 0.05898
 C87 C 0.45077 1.00499 0.03920
 C88 C 0.43614 1.01799 0.03955
 C89 C 0.44741 1.03794 0.01606
 C90 C 0.46824 1.03620 0.00128
 N91 N 0.47018 1.01609 0.01569
 C92 C 0.48455 1.05261 -0.02522
 H93 H 0.51591 1.06963 -0.08522
 H94 H 0.56155 1.06999 -0.08033
 H95 H 0.48219 1.00855 0.00764
 H96 H 0.60786 1.04849 0.02091
 H97 H 0.58631 1.00955 0.06508
 H98 H 0.48386 0.93550 0.09689
 H99 H 0.43878 0.93622 0.09362
 H100 H 0.44096 1.05213 0.01064
 H101 H 0.52270 1.00954 0.01285
 H102 H 0.41918 1.01374 0.05523
 C103 C 0.91886 0.44406 0.52909
 C104 C 0.92045 0.46855 0.52939
 C105 C 0.94568 0.48714 0.51700
 N106 N 0.95937 0.47473 0.50860
 C107 C 0.94298 0.44833 0.51595
 C108 C 0.95690 0.51538 0.51775
 C109 C 0.98135 0.53363 0.50178
 C110 C 0.99650 0.56099 0.50831
 C111 C 1.01852 0.57152 0.48758
 C112 C 1.01603 0.55035 0.46863
 N113 N 0.99328 0.52732 0.47747
 C114 C 1.03438 0.55239 0.44383
 C115 C 1.03407 0.52920 0.43176
 C116 C 1.04464 0.52775 0.40158
 C117 C 1.04284 0.50322 0.40054
 C118 C 1.03122 0.49042 0.43011
 N119 N 1.02548 0.50617 0.44908
 C120 C 1.02795 0.46540 0.44008
 C121 C 1.00880 0.44936 0.46456
 C122 C 1.00814 0.42807 0.48126
 C123 C 0.98623 0.41762 0.50207
 C124 C 0.97443 0.43321 0.49822
 N125 N 0.98813 0.45231 0.47502
 C126 C 0.95094 0.42888 0.51492
 H127 H 0.90207 0.42548 0.53844
 H128 H 0.90514 0.47238 0.53883
 H129 H 0.98242 0.46519 0.46483
 H130 H 0.99238 0.57215 0.52652
 H131 H 1.03471 0.59234 0.48702
 H132 H 1.05294 0.54293 0.38241
 H133 H 1.04948 0.49567 0.38040
 H134 H 0.97994 0.40055 0.51828
 H135 H 0.98527 0.50874 0.46577
 H136 H 1.02208 0.42084 0.47900
 C137 C 0.55107 0.48040 0.55591
 C138 C 0.52722 0.45643 0.55376
 C139 C 0.50951 0.46152 0.53668
 N140 N 0.52182 0.48794 0.52856
 C141 C 0.54740 0.49948 0.53986
 C142 C 0.48202 0.44216 0.53104
 C143 C 0.46402 0.44782 0.51431
 C144 C 0.43613 0.43189 0.51539
 C145 C 0.42620 0.44400 0.49530
 C146 C 0.44830 0.46667 0.48193
 N147 N 0.47124 0.46873 0.49353
 C148 C 0.44692 0.48393 0.45829
 C149 C 0.46965 0.50840 0.44787
 C150 C 0.47030 0.52290 0.42033
 C151 C 0.49493 0.54619 0.42024
 C152 C 0.50851 0.54522 0.44782
 N153 N 0.49302 0.52208 0.46466
 C154 C 0.53381 0.56652 0.45839
 C155 C 0.54891 0.56380 0.48380
 C156 C 0.57125 0.58505 0.49863
 C157 C 0.58067 0.57396 0.52102
 C158 C 0.56371 0.54621 0.51944
 N159 N 0.54464 0.54023 0.49635
 C160 C 0.56708 0.52728 0.53775
 H161 H 0.56890 0.48336 0.56842
 H162 H 0.52325 0.43756 0.56441
 H163 H 0.53128 0.52121 0.48718
 H164 H 0.42408 0.41351 0.52925
 H165 H 0.40510 0.43667 0.49077
 H166 H 0.45459 0.51734 0.40226
 H167 H 0.50191 0.56215 0.40213
 H168 H 0.59817 0.58516 0.53649
 H169 H 0.49066 0.48189 0.48508
 H170 H 0.57998 0.60634 0.49372
 C171 C 0.45058 -0.06560 0.43498
 C172 C 0.47416 -0.06577 0.43543
 C173 C 0.48662 -0.05421 0.46503
 N174 N 0.47160 -0.04664 0.48261
 C175 C 0.44934 -0.05396 0.46433
 C176 C 0.51048 -0.05278 0.47637
 C177 C 0.52725 -0.03335 0.49988
 C178 C 0.54759 -0.03374 0.51753
 C179 C 0.55881 -0.01136 0.53750
 C180 C 0.54488 0.00196 0.53169
 N181 N 0.52583 -0.01146 0.50857
 C182 C 0.55040 0.02625 0.54695
 C183 C 0.53213 0.03579 0.54664
 C184 C 0.53813 0.06101 0.55755
 C185 C 0.51444 0.06112 0.55749
 C186 C 0.49472 0.03612 0.54602
 N187 N 0.50558 0.02062 0.53946
 C188 C 0.46683 0.02697 0.54522
 C189 C 0.44767 0.00261 0.53004
 C190 C 0.41995 -0.00999 0.53435
 C191 C 0.40860 -0.03244 0.51455
 C192 C 0.42966 -0.03265 0.49816
 N193 N 0.45337 -0.01116 0.50769
 C194 C 0.42690 -0.05206 0.47472
 H195 H 0.43590 -0.07328 0.41535
 H196 H 0.48132 -0.07364 0.41624
 H197 H 0.47218 -0.00494 0.49726
 H198 H 0.55349 -0.04876 0.51655
 H199 H 0.57511 -0.00576 0.55469
 H200 H 0.55745 0.07743 0.56558
 H201 H 0.51204 0.07761 0.56570
 H202 H 0.38726 -0.04696 0.51263
 H203 H 0.51397 -0.00491 0.49741
 H204 H 0.40894 -0.00380 0.55016
 O205 O 0.18502 0.40707 0.21757
 O206 O 0.23180 0.40924 0.28090
 O207 O 0.18808 0.41283 0.28127
 O208 O 0.22953 0.40468 0.21749
 O209 O 0.25331 0.44891 0.21146
 O210 O 0.21338 0.45694 0.27574
 O211 O 0.25639 0.45343 0.27521
 O212 O 0.20973 0.45126 0.21233
 Cu213 Cu 0.20605 0.40397 0.24984
 Cu214 Cu 0.23566 0.45702 0.24314
 C215 C 0.18928 0.42887 0.20435
 C216 C 0.25225 0.43173 0.28859
 C217 C 0.19376 0.43646 0.28928
 C218 C 0.24862 0.42561 0.20381
 O219 O 0.58003 0.77060 0.21696
 O220 O 0.58105 0.81567 0.28238
 O221 O 0.57847 0.76917 0.28110
 O222 O 0.58137 0.81716 0.21841
 O223 O 0.53683 0.79506 0.21716
 O224 O 0.53401 0.74835 0.28007
 O225 O 0.53658 0.79420 0.28125
 O226 O 0.53554 0.74976 0.21584
 Cu227 Cu 0.58476 0.79528 0.24961
 Cu228 Cu 0.53132 0.76971 0.24845
 C229 C 0.55758 0.75249 0.20538
 C230 C 0.55885 0.81243 0.29312
 C231 C 0.55555 0.75074 0.29153
 C232 C 0.55944 0.81420 0.20730
 O233 O 0.22422 0.82312 0.21639
 O234 O 0.17675 0.77443 0.27813
 O235 O 0.22215 0.82084 0.28056
 O236 O 0.17785 0.77693 0.21413
 O237 O 0.20045 0.75552 0.21321
 O238 O 0.24432 0.79900 0.27896
 O239 O 0.19967 0.75337 0.27684
 O240 O 0.24569 0.80055 0.21475
 Cu241 Cu 0.19802 0.80109 0.24732
 Cu242 Cu 0.22483 0.77505 0.24583
 C243 C 0.24297 0.81989 0.20504
 C244 C 0.18024 0.75551 0.28796
 C245 C 0.24075 0.81721 0.29119
 C246 C 0.18147 0.75852 0.20263
 O247 O 0.76413 0.56123 0.78164
 O248 O 0.81177 0.56311 0.71877
 O249 O 0.76715 0.56532 0.71738
 O250 O 0.80815 0.55831 0.78230
 O251 O 0.78309 0.51407 0.77774
 O252 O 0.74426 0.52108 0.71169
 O253 O 0.78803 0.51863 0.71616
 O254 O 0.73986 0.51704 0.77645
 Cu255 Cu 0.79006 0.56650 0.75040
 Cu256 Cu 0.76092 0.51328 0.74491
 C257 C 0.74396 0.53866 0.78994
 C258 C 0.80858 0.54095 0.70814
 C259 C 0.74893 0.54423 0.70325
 C260 C 0.80297 0.53481 0.79026
 O261 O 0.42343 0.23564 0.71775
 O262 O 0.43513 0.19572 0.77940
 O263 O 0.43407 0.24045 0.78009
 O264 O 0.42537 0.19079 0.71630
 O265 O 0.46893 0.21492 0.70495
 O266 O 0.47770 0.26334 0.76904
 O267 O 0.47866 0.21910 0.76805
 O268 O 0.46707 0.25863 0.70657
 Cu269 Cu 0.42504 0.21317 0.74933
 Cu270 Cu 0.47742 0.24124 0.73602
 C271 C 0.44339 0.25419 0.70202
 C272 C 0.45901 0.20082 0.78447
 C273 C 0.45754 0.26042 0.78538
 C274 C 0.44580 0.19455 0.69977
 O275 O 0.75590 0.18848 0.72358
 O276 O 0.80812 0.24279 0.77535
 O277 O 0.76239 0.19832 0.78656
 O278 O 0.80170 0.23393 0.71224
 O279 O 0.77717 0.25311 0.70689
 O280 O 0.74309 0.22293 0.78528
 O281 O 0.78768 0.26597 0.76857
 O282 O 0.73273 0.20935 0.72452
 Cu283 Cu 0.78425 0.21361 0.74956
 Cu284 Cu 0.75805 0.24011 0.74584
 C285 C 0.73483 0.18923 0.71663
 C286 C 0.80701 0.26397 0.78011
 C287 C 0.74621 0.20488 0.79881
 C288 C 0.79599 0.24954 0.69689
 C289 C 0.10969 0.48362 0.06085
 C290 C 0.10227 0.46107 0.08149
 C291 C 0.07438 0.44175 0.08474
 C292 C 0.05492 0.44605 0.06982
 C293 C 0.06278 0.46946 0.05152
 C294 C 0.09022 0.48769 0.04631
 C295 C 0.06601 0.41865 0.10366
 C296 C 0.08458 0.41458 0.12042
 C297 C 0.11246 0.43382 0.11946
 C298 C 0.12145 0.45744 0.09958
 C299 C 0.14917 0.47719 0.09954
 C300 C 0.16736 0.47454 0.11900
 C301 C 0.15890 0.45195 0.13888
 C302 C 0.13155 0.43081 0.13871
 C303 C 0.12449 0.40786 0.15847
 C304 C 0.14345 0.40683 0.17880
 C305 C 0.17000 0.42854 0.18019
 C306 C 0.17768 0.45075 0.15956
 H307 H 0.13032 0.49871 0.05566
 H308 H 0.03361 0.43174 0.07348
 H309 H 0.09658 0.50563 0.03158
 H310 H 0.04475 0.40368 0.10597
 H311 H 0.07624 0.39641 0.13489
 H312 H 0.15750 0.49557 0.08553
 H313 H 0.18830 0.49062 0.11882
 H314 H 0.10447 0.39044 0.15906
 H315 H 0.13705 0.38928 0.19425
 H316 H 0.19834 0.46746 0.15999
 C317 C 0.55962 0.61552 0.10783
 C318 C 0.55309 0.63520 0.09869
 C319 C 0.53864 0.63111 0.06898
 C320 C 0.53195 0.60874 0.04897
 C321 C 0.53797 0.58920 0.05890
 C322 C 0.55182 0.59274 0.08839
 C323 C 0.53020 0.64892 0.05987
 C324 C 0.53442 0.66991 0.08048
 C325 C 0.54814 0.67447 0.11065
 C326 C 0.55930 0.65805 0.11870
 C327 C 0.57632 0.66510 0.14637
 C328 C 0.58103 0.68652 0.16658
 C329 C 0.56817 0.70105 0.16081
 C330 C 0.55120 0.69498 0.13301
 C331 C 0.53697 0.70884 0.12959
 C332 C 0.53946 0.72775 0.15290
 C333 C 0.55674 0.73405 0.17975
 C334 C 0.57147 0.72105 0.18329
 H335 H 0.56959 0.61650 0.13063
 H336 H 0.52085 0.60574 0.02633
 H337 H 0.55619 0.57753 0.09664
 H338 H 0.51947 0.64612 0.03698
 H339 H 0.52720 0.68272 0.07174
 H340 H 0.58684 0.65474 0.15262
 H341 H 0.59424 0.69120 0.18757
 H342 H 0.52275 0.70460 0.11005
 H343 H 0.52767 0.73740 0.15008
 H344 H 0.58438 0.72548 0.20456
 C345 C 0.38868 0.96205 0.12140
 C346 C 0.36877 0.93621 0.11007
 C347 C 0.37436 0.92650 0.08074
 C348 C 0.39859 0.94234 0.06342
 C349 C 0.41819 0.96746 0.07550
 C350 C 0.41310 0.97723 0.10447
 C351 C 0.35610 0.90074 0.06930
 C352 C 0.33307 0.88364 0.08733
 C353 C 0.32705 0.89196 0.11726
 C354 C 0.34416 0.91923 0.12758
 C355 C 0.33610 0.92851 0.15505
 C356 C 0.31308 0.91127 0.17313
 C357 C 0.29770 0.88398 0.16529
 C358 C 0.30456 0.87386 0.13734
 C359 C 0.28950 0.84574 0.13166
 C360 C 0.26899 0.82852 0.15322
 C361 C 0.26224 0.83869 0.18051
 C362 C 0.27614 0.86650 0.18602
 H363 H 0.38650 0.97058 0.14400
 H364 H 0.40280 0.93467 0.04117
 H365 H 0.42831 0.99650 0.11432
 H366 H 0.36003 0.89339 0.04661
 H367 H 0.32005 0.86404 0.07683
 H368 H 0.34705 0.94923 0.16291
 H369 H 0.30779 0.91924 0.19419
 H370 H 0.29400 0.83622 0.11181
 H371 H 0.25862 0.80699 0.14889
 H372 H 0.27131 0.87431 0.20764
 C373 C 0.91767 0.54830 0.54605
 C374 C 0.91312 0.54105 0.57985
 C375 C 0.92504 0.52678 0.59292
 C376 C 0.94064 0.52015 0.57291
 C377 C 0.94366 0.52618 0.53927
 C378 C 0.93258 0.54076 0.52609
 C379 C 0.92066 0.51838 0.62566
 C380 C 0.90316 0.52211 0.64533
 C381 C 0.88970 0.53495 0.63311
 C382 C 0.89625 0.54633 0.60074
 C383 C 0.88561 0.56241 0.59047
 C384 C 0.86809 0.56610 0.61054
 C385 C 0.85958 0.55303 0.64092
 C386 C 0.86994 0.53685 0.65232
 C387 C 0.85918 0.52215 0.68186
 C388 C 0.83931 0.52378 0.69943
 C389 C 0.82984 0.54043 0.68869
 C390 C 0.84025 0.55539 0.65967
 H391 H 0.90895 0.55867 0.53398
 H392 H 0.94942 0.50901 0.58313
 H393 H 0.93478 0.54557 0.50005
 H394 H 0.93024 0.50803 0.63594
 H395 H 0.90091 0.51508 0.67039
 H396 H 0.89090 0.57286 0.56718
 H397 H 0.86047 0.57866 0.60169
 H398 H 0.86483 0.50831 0.69136
 H399 H 0.83128 0.51195 0.72176
 H400 H 0.83252 0.56793 0.65109
 C401 C 0.47399 0.37377 0.54336
 C402 C 0.46057 0.36565 0.57419
 C403 C 0.45064 0.38150 0.58803
 C404 C 0.45668 0.40599 0.57326
 C405 C 0.47173 0.41456 0.54404
 C406 C 0.47945 0.39787 0.52864
 C407 C 0.43549 0.37326 0.61705
 C408 C 0.43057 0.34998 0.63328
 C409 C 0.44163 0.33454 0.62178
 C410 C 0.45732 0.34283 0.59208
 C411 C 0.47069 0.32913 0.58234
 C412 C 0.46956 0.30868 0.60147
 C413 C 0.45426 0.30030 0.63034
 C414 C 0.43894 0.31210 0.64008
 C415 C 0.42211 0.30128 0.66823
 C416 C 0.42239 0.28125 0.68729
 C417 C 0.43954 0.27164 0.67905
 C418 C 0.45487 0.28070 0.65010
 H419 H 0.48063 0.36202 0.53004
 H420 H 0.45045 0.41885 0.58497
 H421 H 0.49074 0.40410 0.50572
 H422 H 0.42759 0.38513 0.62756
 H423 H 0.41921 0.34542 0.65591
 H424 H 0.48353 0.33476 0.56090
 H425 H 0.48108 0.29952 0.59374
 H426 H 0.40859 0.30791 0.67622
 H427 H 0.41009 0.27418 0.70940
 H428 H 0.46773 0.27279 0.64330
 C429 C 0.62448 0.06929 0.56892
 C430 C 0.62328 0.07561 0.60242
 C431 C 0.59747 0.06390 0.61753
 C432 C 0.57414 0.04659 0.59981
 C433 C 0.57563 0.04166 0.56635
 C434 C 0.60094 0.05274 0.55119
 C435 C 0.59490 0.07014 0.64999
 C436 C 0.61720 0.08917 0.66729
 C437 C 0.64319 0.10228 0.65296
 C438 C 0.64658 0.09398 0.62099
 C439 C 0.67306 0.10439 0.60877
 C440 C 0.69538 0.12332 0.62646
 C441 C 0.69216 0.13345 0.65628
 C442 C 0.66594 0.12336 0.66966
 C443 C 0.66338 0.13568 0.69849
 C444 C 0.68591 0.15689 0.71340
 C445 C 0.71175 0.16618 0.70067
 C446 C 0.71492 0.15415 0.67240
 H447 H 0.64317 0.07781 0.55533
 H448 H 0.55451 0.03785 0.61161
 H449 H 0.60243 0.04916 0.52527
 H450 H 0.57527 0.06083 0.66185
 H451 H 0.61352 0.09286 0.69226
 H452 H 0.67721 0.09785 0.58577
 H453 H 0.71534 0.13073 0.61616
 H454 H 0.64414 0.13021 0.70933
 H455 H 0.68314 0.16616 0.73512
 H456 H 0.73494 0.16173 0.66218
 C457 C 0.44383 0.07339 0.92460
 C458 C 0.46338 0.10012 0.91545
 C459 C 0.48968 0.11100 0.92844
 C460 C 0.49596 0.09566 0.94925
 C461 C 0.47682 0.06874 0.95685
 C462 C 0.45051 0.05805 0.94484
 C463 C 0.50991 0.13703 0.92012
 C464 C 0.50511 0.15220 0.89777
 C465 C 0.47961 0.14203 0.88303
 C466 C 0.45804 0.11613 0.89324
 C467 C 0.43196 0.10718 0.88085
 C468 C 0.42728 0.12253 0.85844
 C469 C 0.44841 0.14704 0.84678
 C470 C 0.47495 0.15701 0.85858
 C471 C 0.49589 0.18129 0.84473
 C472 C 0.49054 0.19520 0.82079
 C473 C 0.46421 0.18563 0.80981
 C474 C 0.44318 0.16152 0.82303
 H475 H 0.42346 0.06333 0.91555
 H476 H 0.51616 0.10462 0.95921
 H477 H 0.43528 0.03725 0.94974
 H478 H 0.52993 0.14560 0.93048
 H479 H 0.52186 0.17213 0.89289
 H480 H 0.41454 0.08846 0.88839
 H481 H 0.40691 0.11485 0.84968
 H482 H 0.51677 0.18980 0.85119
 H483 H 0.50722 0.21367 0.81087
 H484 H 0.42276 0.15373 0.81439
 C485 C 0.63042 0.56767 0.90943
 C486 C 0.63964 0.54909 0.90901
 C487 C 0.62529 0.52542 0.92842
 C488 C 0.60261 0.52056 0.94676
 C489 C 0.59293 0.53833 0.94528
 C490 C 0.60726 0.56217 0.92714
 C491 C 0.63293 0.50611 0.92848
 C492 C 0.65342 0.50876 0.90797
 C493 C 0.66741 0.53116 0.88680
 C494 C 0.66167 0.55249 0.88891
 C495 C 0.67793 0.57624 0.87060
 C496 C 0.69815 0.57853 0.84961
 C497 C 0.70241 0.55700 0.84522
 C498 C 0.68692 0.53290 0.86353
 C499 C 0.69081 0.51106 0.85678
 C500 C 0.70936 0.51321 0.83308
 C501 C 0.72497 0.53720 0.81555
 C502 C 0.72167 0.55920 0.82204
 H503 H 0.63983 0.58595 0.89509
 H504 H 0.59140 0.50205 0.96082
 H505 H 0.59986 0.57602 0.92560
 H506 H 0.62239 0.48828 0.94384
 H507 H 0.65805 0.49292 0.90954
 H508 H 0.67575 0.59366 0.87227
 H509 H 0.71008 0.59712 0.83596
 H510 H 0.67915 0.49166 0.86848
 H511 H 0.71146 0.49588 0.82842
 H512 H 0.73341 0.57772 0.80819
 C513 C 0.92966 0.36618 0.93207
 C514 C 0.91779 0.36967 0.90338
 C515 C 0.92319 0.39601 0.89636
 C516 C 0.93933 0.41749 0.91727
 C517 C 0.95011 0.41372 0.94637
 C518 C 0.94550 0.38783 0.95312
 C519 C 0.91214 0.40092 0.86873
 C520 C 0.89452 0.38000 0.84859
 C521 C 0.88734 0.35315 0.85520
 C522 C 0.90022 0.34803 0.88195
 C523 C 0.89501 0.32151 0.88629
 C524 C 0.87710 0.30056 0.86601
 C525 C 0.86305 0.30497 0.84127
 C526 C 0.86774 0.33129 0.83578
 C527 C 0.85190 0.33452 0.81176
 C528 C 0.83254 0.31266 0.79386
 C529 C 0.82833 0.28681 0.79886
 C530 C 0.84388 0.28310 0.82238
 H531 H 0.92633 0.34681 0.93958
 H532 H 0.94341 0.43750 0.91088
 H533 H 0.95295 0.38392 0.97562
 H534 H 0.91673 0.42117 0.86292
 H535 H 0.88714 0.38569 0.82764
 H536 H 0.90477 0.31633 0.90501
 H537 H 0.87375 0.28054 0.87027
 H538 H 0.85324 0.35350 0.80688
 H539 H 0.82072 0.31605 0.77594
 H540 H 0.84044 0.26305 0.82675
 C541 C 0.50025 0.88198 0.44605
 C542 C 0.52480 0.88979 0.42947
 C543 C 0.54607 0.91689 0.43301
 C544 C 0.54208 0.93559 0.45076
 C545 C 0.51666 0.92795 0.46422
 C546 C 0.49629 0.90073 0.46271
 C547 C 0.57081 0.92548 0.41753
 C548 C 0.57456 0.90825 0.39719
 C549 C 0.55353 0.88155 0.39133
 C550 C 0.52848 0.87196 0.40850
 C551 C 0.50752 0.84516 0.40311
 C552 C 0.51026 0.82874 0.38049
 C553 C 0.53400 0.83811 0.36252
 C554 C 0.55632 0.86432 0.36815
 C555 C 0.58016 0.87227 0.34961
 C556 C 0.58122 0.85524 0.32585
 C557 C 0.55862 0.82990 0.31961
 C558 C 0.53526 0.82135 0.33847
 H559 H 0.48326 0.86174 0.44592
 H560 H 0.55809 0.95653 0.45172
 H561 H 0.47677 0.89398 0.47397
 H562 H 0.58730 0.94604 0.42046
 H563 H 0.59412 0.91676 0.38576
 H564 H 0.48831 0.83619 0.41547
 H565 H 0.49332 0.80855 0.37664
 H566 H 0.59825 0.89159 0.35252
 H567 H 0.59961 0.86223 0.31173
 H568 H 0.51780 0.80154 0.33424
 C569 C 0.38762 0.49056 0.43301
 C570 C 0.37319 0.46836 0.41164
 C571 C 0.38180 0.44936 0.40919
 C572 C 0.40537 0.45396 0.42519
 C573 C 0.42029 0.47701 0.44446
 C574 C 0.41074 0.49472 0.44905
 C575 C 0.36721 0.42623 0.39020
 C576 C 0.34443 0.42164 0.37307
 C577 C 0.33581 0.44057 0.37334
 C578 C 0.35082 0.46461 0.39236
 C579 C 0.34383 0.48471 0.39024
 C580 C 0.32316 0.48167 0.37001
 C581 C 0.30805 0.45821 0.35180
 C582 C 0.31343 0.43687 0.35406
 C583 C 0.29628 0.41287 0.33657
 C584 C 0.27582 0.41092 0.31631
 C585 C 0.27192 0.43279 0.31259
 C586 C 0.28782 0.45621 0.33085
 H587 H 0.38158 0.50506 0.43796
 H588 H 0.41256 0.44002 0.42198
 H589 H 0.42174 0.51233 0.46451
 H590 H 0.37356 0.41154 0.38839
 H591 H 0.33466 0.40349 0.35859
 H592 H 0.35478 0.50371 0.40285
 H593 H 0.31905 0.49799 0.36847
 H594 H 0.29803 0.39520 0.33813
 H595 H 0.26354 0.39247 0.30270
 H596 H 0.28451 0.47302 0.32861
 C597 C 0.10073 0.60815 0.41368
 C598 C 0.09446 0.62747 0.40233
 C599 C 0.06764 0.62176 0.40682
 C600 C 0.04803 0.59749 0.42175
 C601 C 0.05437 0.57802 0.43158
 C602 C 0.08110 0.58403 0.42782
 C603 C 0.06031 0.63994 0.39551
 C604 C 0.07867 0.66319 0.37863
 C605 C 0.10539 0.66939 0.37260
 C606 C 0.11365 0.65171 0.38572
 C607 C 0.14074 0.65860 0.38132
 C608 C 0.15869 0.68087 0.36295
 C609 C 0.15056 0.69735 0.34832
 C610 C 0.12404 0.69237 0.35338
 C611 C 0.11727 0.71024 0.33813
 C612 C 0.13574 0.73130 0.31782
 C613 C 0.16146 0.73524 0.31201
 C614 C 0.16885 0.71852 0.32801
 H615 H 0.12044 0.61056 0.41135
 H616 H 0.02742 0.59311 0.42396
 H617 H 0.08695 0.56987 0.43598
 H618 H 0.03992 0.63586 0.39912
 H619 H 0.07116 0.67585 0.37039
 H620 H 0.14889 0.64710 0.39163
 H621 H 0.17912 0.68496 0.35967
 H622 H 0.09771 0.70817 0.34070
 H623 H 0.12954 0.74401 0.30582
 H624 H 0.18886 0.72161 0.32408
 C625 C 0.92434 0.55126 0.94108
 C626 C 0.91128 0.53588 0.91268
 C627 C 0.91607 0.51488 0.90413
 C628 C 0.93347 0.51005 0.92275
 C629 C 0.94561 0.52465 0.95159
 C630 C 0.94104 0.54560 0.96023
 C631 C 0.90321 0.49840 0.87719
 C632 C 0.88452 0.50132 0.85930
 C633 C 0.87843 0.52144 0.86719
 C634 C 0.89320 0.54007 0.89292
 C635 C 0.88966 0.56234 0.89751
 C636 C 0.87199 0.56600 0.87791
 C637 C 0.85620 0.54698 0.85414
 C638 C 0.85856 0.52393 0.84939
 C639 C 0.84053 0.50391 0.82741
 C640 C 0.82216 0.50745 0.80938
 C641 C 0.82107 0.53103 0.81235
 C642 C 0.83802 0.55074 0.83502
 H643 H 0.92116 0.56705 0.94990
 H644 H 0.93749 0.49450 0.91468
 H645 H 0.94939 0.55692 0.98270
 H646 H 0.90721 0.48261 0.87023
 H647 H 0.87575 0.48796 0.83861
 H648 H 0.90101 0.57781 0.91541
 H649 H 0.87033 0.58368 0.88180
 H650 H 0.83968 0.48497 0.82409
 H651 H 0.80913 0.49176 0.79232
 H652 H 0.83693 0.56883 0.83793
 C653 C 0.44071 0.38081 0.90666
 C654 C 0.45991 0.37273 0.90170
 C655 C 0.48584 0.38909 0.91551
 C656 C 0.49210 0.41241 0.93313
 C657 C 0.47323 0.42075 0.93696
 C658 C 0.44731 0.40437 0.92394
 C659 C 0.50571 0.38242 0.91131
 C660 C 0.50099 0.36055 0.89224
 C661 C 0.47594 0.34420 0.87669
 C662 C 0.45463 0.34955 0.88281
 C663 C 0.42890 0.33163 0.86971
 C664 C 0.42441 0.30998 0.85009
 C665 C 0.44543 0.30561 0.84210
 C666 C 0.47154 0.32271 0.85516
 C667 C 0.49244 0.31817 0.84514
 C668 C 0.48757 0.29771 0.82306
 C669 C 0.46175 0.28082 0.81037
 C670 C 0.44062 0.28459 0.82042
 H671 H 0.42067 0.36990 0.89662
 H672 H 0.51200 0.42438 0.94383
 H673 H 0.43237 0.41039 0.92585
 H674 H 0.52541 0.39460 0.92238
 H675 H 0.51745 0.35685 0.89047
 H676 H 0.41162 0.33364 0.87440
 H677 H 0.40435 0.29685 0.84044
 H678 H 0.51303 0.33059 0.85294
 H679 H 0.50427 0.29527 0.81565
 H680 H 0.42063 0.27181 0.81037
 C681 C 0.63047 0.07250 0.93091
 C682 C 0.64221 0.10086 0.92884
 C683 C 0.63003 0.11270 0.94745
 C684 C 0.60689 0.09667 0.96647
 C685 C 0.59489 0.06865 0.96681
 C686 C 0.60708 0.05671 0.94950
 C687 C 0.64040 0.14038 0.94614
 C688 C 0.66155 0.15657 0.92507
 C689 C 0.67337 0.14565 0.90449
 C690 C 0.66468 0.11768 0.90786
 C691 C 0.67841 0.10744 0.88966
 C692 C 0.69861 0.12342 0.86722
 C693 C 0.70561 0.15004 0.86153
 C694 C 0.69326 0.16165 0.88022
 C695 C 0.70037 0.18844 0.87265
 C696 C 0.71821 0.20259 0.84700
 C697 C 0.72997 0.19085 0.82831
 C698 C 0.72417 0.16482 0.83632
 H699 H 0.63815 0.06175 0.91739
 H700 H 0.59734 0.10586 0.97992
 H701 H 0.59788 0.03500 0.94941
 H702 H 0.63153 0.14957 0.96091
 H703 H 0.66823 0.17772 0.92554
 H704 H 0.67402 0.08701 0.89221
 H705 H 0.70826 0.11454 0.85339
 H706 H 0.69164 0.19871 0.88502
 H707 H 0.72240 0.22271 0.84132
 H708 H 0.73298 0.15547 0.82175
 C709 C 0.05247 0.42354 0.39937
 C710 C 0.08038 0.44237 0.39518
 C711 C 0.09034 0.46865 0.40784
 C712 C 0.07300 0.47574 0.42306
 C713 C 0.04526 0.45719 0.42617
 C714 C 0.03534 0.43085 0.41464
 C715 C 0.11758 0.48802 0.40503
 C716 C 0.13523 0.48236 0.38870
 C717 C 0.12631 0.45694 0.37424
 C718 C 0.09859 0.43633 0.37835
 C719 C 0.09002 0.41059 0.36503
 C720 C 0.10749 0.40544 0.34709
 C721 C 0.13417 0.42566 0.34149
 C722 C 0.14409 0.45162 0.35529
 C723 C 0.17125 0.47149 0.34858
 C724 C 0.18732 0.46606 0.32811
 C725 C 0.17721 0.44065 0.31380
 C726 C 0.15078 0.42028 0.32129
 H727 H 0.04307 0.40312 0.39060
 H728 H 0.08122 0.49595 0.43278
 H729 H 0.01400 0.41608 0.41621
 H730 H 0.12533 0.50801 0.41518
 H731 H 0.15586 0.49862 0.38777
 H732 H 0.06972 0.39389 0.36777
 H733 H 0.09984 0.38548 0.33690
 H734 H 0.18066 0.49173 0.35791
 H735 H 0.20776 0.48212 0.32298
 H736 H 0.14274 0.40055 0.31023
 C737 C 0.57385 0.62851 0.40509
 C738 C 0.55812 0.64098 0.40708
 C739 C 0.53554 0.62938 0.42871
 C740 C 0.52897 0.60620 0.44694
 C741 C 0.54387 0.59342 0.44322
 C742 C 0.56664 0.60497 0.42279
 C743 C 0.51899 0.64034 0.43125
 C744 C 0.52316 0.66154 0.41117
 C745 C 0.54440 0.67288 0.38790
 C746 C 0.56321 0.66368 0.38734
 C747 C 0.58619 0.67728 0.36681
 C748 C 0.58987 0.69810 0.34612
 C749 C 0.57049 0.70568 0.34432
 C750 C 0.54737 0.69306 0.36505
 C751 C 0.52753 0.70030 0.36101
 C752 C 0.53056 0.71916 0.33742
 C753 C 0.55354 0.73178 0.31732
 C754 C 0.57370 0.72531 0.32126
 H755 H 0.59108 0.63568 0.38898
 H756 H 0.51132 0.59717 0.46286
 H757 H 0.57829 0.59519 0.41963
 H758 H 0.50208 0.63191 0.44830
 H759 H 0.50944 0.66880 0.41472
 H760 H 0.60193 0.67245 0.36641
 H761 H 0.60774 0.70785 0.33064
 H762 H 0.50889 0.69103 0.37474
 H763 H 0.51467 0.72379 0.33478
 H764 H 0.59139 0.73475 0.30543
 C765 C 0.36999 0.88362 0.44313
 C766 C 0.35400 0.89209 0.42672
 C767 C 0.36121 0.91942 0.43023
 C768 C 0.38441 0.93764 0.44793
 C769 C 0.40127 0.92927 0.46162
 C770 C 0.39317 0.90188 0.45990
 C771 C 0.34587 0.92869 0.41492
 C772 C 0.32428 0.91184 0.39484
 C773 C 0.31719 0.88487 0.38907
 C774 C 0.33187 0.87465 0.40598
 C775 C 0.32462 0.84760 0.40063
 C776 C 0.30488 0.83152 0.37824
 C777 C 0.29125 0.84148 0.36051
 C778 C 0.29651 0.86798 0.36618
 C779 C 0.28128 0.87653 0.34793
 C780 C 0.26263 0.85983 0.32427
 C781 C 0.25867 0.83423 0.31789
 C782 C 0.27269 0.82505 0.33659
 H783 H 0.36571 0.86317 0.44292
 H784 H 0.39037 0.95874 0.44891
 H785 H 0.40520 0.89457 0.47129
 H786 H 0.35102 0.94945 0.41784
 H787 H 0.31392 0.92085 0.38353
 H788 H 0.33421 0.83817 0.41281
 H789 H 0.30056 0.81110 0.37436
 H790 H 0.28348 0.89608 0.35097
 H791 H 0.25184 0.86729 0.31026
 H792 H 0.26935 0.80503 0.33225
 C793 C 0.55985 0.95773 0.12862
 C794 C 0.55330 0.93204 0.11655
 C795 C 0.53824 0.92298 0.08699
 C796 C 0.53099 0.93944 0.06991
 C797 C 0.53750 0.96461 0.08239
 C798 C 0.55181 0.97358 0.11186
 C799 C 0.53005 0.89735 0.07488
 C800 C 0.53524 0.87984 0.09231
 C801 C 0.54956 0.88760 0.12227
 C802 C 0.56026 0.91468 0.13340
 C803 C 0.57761 0.92346 0.16087
 C804 C 0.58294 0.90592 0.17816
 C805 C 0.57052 0.87880 0.16949
 C806 C 0.55347 0.86916 0.14154
 C807 C 0.53990 0.84116 0.13504
 C808 C 0.54272 0.82357 0.15589
 C809 C 0.55971 0.83330 0.18319
 C810 C 0.57415 0.86099 0.18944
 H811 H 0.57028 0.96570 0.15153
 H812 H 0.51958 0.93242 0.04724
 H813 H 0.55662 0.99289 0.12200
 H814 H 0.51889 0.89048 0.05204
 H815 H 0.52822 0.86040 0.08127
 H816 H 0.58779 0.94403 0.16931
 H817 H 0.59624 0.91351 0.19924
 H818 H 0.52580 0.83199 0.11514
 H819 H 0.53111 0.80212 0.15105
 H820 H 0.58679 0.86842 0.21112
 C821 C 0.37244 0.47067 0.04577
 C822 C 0.36433 0.45561 0.07545
 C823 C 0.38099 0.44621 0.08796
 C824 C 0.40594 0.45397 0.07300
 C825 C 0.41416 0.47007 0.04467
 C826 C 0.39696 0.47769 0.03070
 C827 C 0.37293 0.42962 0.11569
 C828 C 0.34889 0.42251 0.13184
 C829 C 0.33243 0.43270 0.12162
 C830 C 0.34062 0.45003 0.09339
 C831 C 0.32576 0.46247 0.08516
 C832 C 0.30424 0.45890 0.10442
 C833 C 0.29596 0.44200 0.13185
 C834 C 0.30897 0.42753 0.13991
 C835 C 0.29827 0.40903 0.16653
 C836 C 0.27726 0.40703 0.18602
 C837 C 0.26649 0.42344 0.17967
 C838 C 0.27532 0.44026 0.15201
 H839 H 0.36026 0.47721 0.03346
 H840 H 0.41923 0.44785 0.08360
 H841 H 0.40293 0.48980 0.00846
 H842 H 0.38545 0.42216 0.12518
 H843 H 0.34447 0.41007 0.15344
 H844 H 0.33119 0.47640 0.06493
 H845 H 0.29417 0.46980 0.09798
 H846 H 0.30584 0.39602 0.17305
 H847 H 0.27040 0.39366 0.20716
 H848 H 0.26656 0.45260 0.14673
 C849 C 0.10700 0.62123 0.06120
 C850 C 0.09877 0.63614 0.08075
 C851 C 0.07069 0.62619 0.08365
 C852 C 0.05187 0.60141 0.06944
 C853 C 0.06054 0.58623 0.05211
 C854 C 0.08814 0.59670 0.04727
 C855 C 0.06152 0.64062 0.10145
 C856 C 0.07949 0.66432 0.11753
 C857 C 0.10754 0.67435 0.11698
 C858 C 0.11734 0.66007 0.09815
 C859 C 0.14526 0.66948 0.09853
 C860 C 0.16285 0.69127 0.11766
 C861 C 0.15356 0.70496 0.13671
 C862 C 0.12602 0.69746 0.13582
 C863 C 0.11814 0.71306 0.15463
 C864 C 0.13648 0.73380 0.17512
 C865 C 0.16312 0.73963 0.17753
 C866 C 0.17168 0.72566 0.15750
 H867 H 0.12781 0.62773 0.05632
 H868 H 0.03043 0.59345 0.07275
 H869 H 0.09513 0.58546 0.03319
 H870 H 0.04011 0.63328 0.10344
 H871 H 0.07057 0.67383 0.13121
 H872 H 0.15421 0.65985 0.08522
 H873 H 0.18397 0.69717 0.11797
 H874 H 0.09794 0.70958 0.15447
 H875 H 0.12947 0.74456 0.19012
 H876 H 0.19247 0.73047 0.15871
 C877 C 0.43776 0.04993 0.61278
 C878 C 0.44276 0.07513 0.60083
 C879 C 0.45517 0.08368 0.56939
 C880 C 0.46156 0.06722 0.55063
 C881 C 0.45712 0.04278 0.56335
 C882 C 0.44515 0.03424 0.59441
 C883 C 0.46192 0.10897 0.55727
 C884 C 0.45821 0.12674 0.57649
 C885 C 0.44679 0.11953 0.60836
 C886 C 0.43712 0.09266 0.61966
 C887 C 0.42228 0.08431 0.64943
 C888 C 0.41873 0.10217 0.66873
 C889 C 0.43056 0.12920 0.65973
 C890 C 0.44488 0.13834 0.62946
 C891 C 0.45802 0.16626 0.62244
 C892 C 0.45748 0.18424 0.64495
 C893 C 0.44322 0.17502 0.67462
 C894 C 0.42914 0.14740 0.68151
 H895 H 0.42936 0.04238 0.63687
 H896 H 0.47116 0.07394 0.52670
 H897 H 0.44196 0.01551 0.60470
 H898 H 0.47099 0.11545 0.53306
 H899 H 0.46411 0.14596 0.56544
 H900 H 0.41277 0.06384 0.65824
 H901 H 0.40742 0.09494 0.69156
 H902 H 0.47014 0.17504 0.60065
 H903 H 0.46872 0.20561 0.63942
 H904 H 0.41857 0.14032 0.70486
 C905 C 0.61912 0.55776 0.60543
 C906 C 0.63819 0.55047 0.59577
 C907 C 0.63381 0.53643 0.56559
 C908 C 0.61156 0.53055 0.54586
 C909 C 0.59247 0.53705 0.55647
 C910 C 0.59646 0.55081 0.58619
 C911 C 0.65111 0.52748 0.55578
 C912 C 0.67169 0.53055 0.57625
 C913 C 0.67628 0.54350 0.60705
 C914 C 0.66061 0.55539 0.61578
 C915 C 0.66782 0.57165 0.64425
 C916 C 0.68844 0.57466 0.66472
 C917 C 0.70198 0.56085 0.65832
 C918 C 0.69594 0.54486 0.62952
 C919 C 0.70876 0.52968 0.62530
 C920 C 0.72641 0.53010 0.64898
 C921 C 0.73251 0.54620 0.67703
 C922 C 0.72079 0.56207 0.68124
 H923 H 0.62040 0.56760 0.62848
 H924 H 0.60820 0.51959 0.52297
 H925 H 0.58164 0.55565 0.59485
 H926 H 0.64814 0.51716 0.53248
 H927 H 0.68408 0.52294 0.56700
 H928 H 0.65812 0.58272 0.65107
 H929 H 0.69317 0.58720 0.68644
 H930 H 0.70450 0.51617 0.60487
 H931 H 0.73511 0.51747 0.64558
 H932 H 0.72505 0.57408 0.70339
 C933 C 0.93220 0.37993 0.58583
 C934 C 0.90556 0.35955 0.57801
 C935 C 0.89420 0.36236 0.54843
 C936 C 0.90958 0.38408 0.52697
 C937 C 0.93569 0.40427 0.53554
 C938 C 0.94676 0.40208 0.56513
 C939 C 0.86731 0.34396 0.54099
 C940 C 0.85095 0.32373 0.56319
 C941 C 0.86125 0.32045 0.59317
 C942 C 0.88943 0.33731 0.59940
 C943 C 0.90055 0.33137 0.62672
 C944 C 0.88435 0.31087 0.64863
 C945 C 0.85641 0.29624 0.64489
 C946 C 0.84437 0.30091 0.61725
 C947 C 0.81584 0.28692 0.61585
 C948 C 0.80013 0.26961 0.64128
 C949 C 0.81226 0.26496 0.66820
 C950 C 0.84038 0.27773 0.66942
 H951 H 0.94181 0.38002 0.60858
 H952 H 0.90085 0.38605 0.50430
 H953 H 0.96672 0.41784 0.57241
 H954 H 0.85856 0.34578 0.51827
 H955 H 0.83032 0.31049 0.55586
 H956 H 0.92192 0.34193 0.63141
 H957 H 0.89372 0.30713 0.66943
 H958 H 0.80510 0.29010 0.59639
 H959 H 0.77839 0.26015 0.64020
 H960 H 0.84981 0.27465 0.69070
   
