data_POSCAR
  _audit_creation_date              2014-09-24
  _audit_creation_method            'ToBaCCo'
  _symmetry_space_group_name_H-M    'P1'
  _symmetry_Int_Tables_number       1
  _symmetry_cell_setting            triclinic
  loop_
  _symmetry_equiv_pos_as_xyz
 x,y,z
_cell_length_a 49.0620
_cell_length_b 47.0371
_cell_length_c 46.9948
_cell_angle_alpha 89.865200
_cell_angle_beta 89.744200
_cell_angle_gamma 89.916100
loop_
  _atom_site_label
  _atom_site_type_symbol
  _atom_site_fract_x
  _atom_site_fract_y
  _atom_site_fract_z
N1 N 0.20346 1.26106 0.18146
 N2 N 0.18636 1.26234 0.20307
 C3 C 0.16763 1.28268 0.19799
 C4 C 0.17356 1.29470 0.17190
 C5 C 0.19627 1.28058 0.16187
 H6 H 0.15060 1.28773 0.21179
 H7 H 0.20627 1.28364 0.14153
 Cu8 Cu 0.18932 1.23626 0.23498
 Cu9 Cu 0.23257 1.23290 0.17942
 Cu10 Cu 0.23243 1.18072 0.23156
 N11 N 0.18629 1.20440 0.26113
 N12 N 0.20328 1.18276 0.25981
 C13 C 0.19599 1.16323 0.27939
 C14 C 0.17332 1.17333 0.29359
 C15 C 0.16754 1.19939 0.28155
 H16 H 0.20588 1.14289 0.28245
 H17 H 0.15057 1.21322 0.28663
 N18 N 0.26014 1.18255 0.20108
 N19 N 0.26021 1.20248 0.18122
 C20 C 0.28068 1.19725 0.16275
 C21 C 0.29400 1.17300 0.17154
 C22 C 0.28058 1.16411 0.19577
 H23 H 0.28508 1.20958 0.14384
 H24 H 0.28489 1.14517 0.20804
 H25 H 0.21010 1.20312 0.20179
 H26 H 0.23607 1.22356 0.22231
 N27 N 0.79757 0.74087 0.18347
 N28 N 0.81448 0.73947 0.20508
 C29 C 0.83315 0.71905 0.20005
 C30 C 0.82745 0.70709 0.17400
 C31 C 0.80486 0.72133 0.16396
 H32 H 0.84997 0.71381 0.21393
 H33 H 0.79496 0.71822 0.14369
 Cu34 Cu 0.81128 0.76533 0.23705
 Cu35 Cu 0.76838 0.76893 0.18155
 Cu36 Cu 0.76791 0.82068 0.23385
 N37 N 0.81397 0.79704 0.26323
 N38 N 0.79688 0.81859 0.26200
 C39 C 0.80385 0.83794 0.28175
 C40 C 0.82640 0.82781 0.29594
 C41 C 0.83246 0.80192 0.28374
 H42 H 0.79374 0.85814 0.28500
 H43 H 0.84938 0.78807 0.28886
 N44 N 0.74042 0.81893 0.20344
 N45 N 0.74061 0.79920 0.18348
 C46 C 0.72008 0.80434 0.16521
 C47 C 0.70647 0.82833 0.17423
 C48 C 0.71977 0.83715 0.19839
 H49 H 0.71575 0.79205 0.14635
 H50 H 0.71514 0.85585 0.21087
 H51 H 0.79060 0.79863 0.20400
 H52 H 0.76457 0.77787 0.22447
 N53 N 0.79579 1.25934 -0.18182
 N54 N 0.81249 1.26129 -0.20372
 C55 C 0.83104 1.28171 -0.19863
 C56 C 0.82547 1.29310 -0.17224
 C57 C 0.80310 1.27852 -0.16205
 H58 H 0.84778 1.28721 -0.21264
 H59 H 0.79344 1.28103 -0.14147
 Cu60 Cu 0.80961 1.23579 -0.23592
 Cu61 Cu 0.76706 1.23081 -0.17983
 Cu62 Cu 0.76771 1.17942 -0.23249
 N63 N 0.81328 1.20420 -0.26209
 N64 N 0.79678 1.18220 -0.26076
 C65 C 0.80454 1.16289 -0.28030
 C66 C 0.82699 1.17352 -0.29446
 C67 C 0.83218 1.19965 -0.28246
 H68 H 0.79512 1.14234 -0.28332
 H69 H 0.84886 1.21385 -0.28749
 N70 N 0.74008 1.18051 -0.20194
 N71 N 0.73984 1.20009 -0.18182
 C72 C 0.71938 1.19440 -0.16345
 C73 C 0.70628 1.17024 -0.17259
 C74 C 0.71980 1.16187 -0.19691
 H75 H 0.71479 1.20643 -0.14444
 H76 H 0.71561 1.14317 -0.20949
 H77 H 0.78991 1.20187 -0.20279
 H78 H 0.76328 1.22213 -0.22278
 N79 N 0.20378 0.74080 -0.18369
 N80 N 0.18734 0.73939 -0.20568
 C81 C 0.16861 0.71900 -0.20098
 C82 C 0.17379 0.70705 -0.17473
 C83 C 0.19612 0.72128 -0.16425
 H84 H 0.15201 0.71388 -0.21514
 H85 H 0.20550 0.71830 -0.14367
 Cu86 Cu 0.19089 0.76550 -0.23749
 Cu87 Cu 0.23257 0.76917 -0.18107
 Cu88 Cu 0.23297 0.82163 -0.23293
 N89 N 0.18786 0.79754 -0.26332
 N90 N 0.20440 0.81946 -0.26154
 C91 C 0.19704 0.83913 -0.28093
 C92 C 0.17481 0.82880 -0.29546
 C93 C 0.16935 0.80249 -0.28382
 H94 H 0.20656 0.85971 -0.28359
 H95 H 0.15271 0.78844 -0.28919
 N96 N 0.26007 0.81985 -0.20211
 N97 N 0.25993 0.79981 -0.18235
 C98 C 0.28003 0.80505 -0.16364
 C99 C 0.29331 0.82942 -0.17216
 C100 C 0.28026 0.83837 -0.19648
 H101 H 0.28420 0.79262 -0.14477
 H102 H 0.28466 0.85738 -0.20862
 H103 H 0.21024 0.79873 -0.20376
 H104 H 0.23708 0.77877 -0.22387
 C105 C 0.50016 0.99844 0.00102
 C106 C -0.00006 0.49982 0.99915
 C107 C 0.99987 0.00015 0.49973
 C108 C 0.15861 0.31443 1.15764
 C109 C 0.14532 0.33158 1.14455
 C110 C 0.12938 0.35158 1.12842
 C111 C 0.12783 0.38010 1.13672
 C112 C 0.11236 0.39943 1.12088
 C113 C 0.09828 0.39046 1.09646
 C114 C 0.09999 0.36173 1.08833
 C115 C 0.11543 0.34246 1.10421
 C116 C 0.08176 0.41084 1.07957
 C117 C 0.08192 0.40966 1.04965
 C118 C 0.06579 0.42828 1.03374
 C119 C 0.04931 0.44835 1.04747
 C120 C 0.04919 0.44991 1.07721
 C121 C 0.06534 0.43131 1.09318
 C122 C 0.03213 0.46685 1.03097
 C123 C 0.01763 0.48195 1.01679
 H124 H 0.13863 0.38740 1.15539
 H125 H 0.11169 0.42146 1.12749
 H126 H 0.08908 0.35408 1.06990
 H127 H 0.11643 0.32042 1.09762
 H128 H 0.09462 0.39442 1.03854
 H129 H 0.06607 0.42693 1.01073
 H130 H 0.03642 0.46530 1.08805
 H131 H 0.06453 0.43253 1.11618
 C132 C -0.15692 0.68585 1.15925
 C133 C -0.14365 0.66836 1.14657
 C134 C -0.12758 0.64788 1.13113
 C135 C -0.10012 0.65346 1.12526
 C136 C -0.08455 0.63396 1.10975
 C137 C -0.09626 0.60856 1.09984
 C138 C -0.12387 0.60308 1.10596
 C139 C -0.13941 0.62262 1.12151
 C140 C -0.07978 0.58814 1.08288
 C141 C -0.09101 0.57458 1.05898
 C142 C -0.07518 0.55607 1.04251
 C143 C -0.04799 0.55082 1.04972
 C144 C -0.03673 0.56395 1.07361
 C145 C -0.05250 0.58248 1.09010
 C146 C -0.03142 0.53256 1.03222
 C147 C -0.01735 0.51758 1.01739
 H148 H -0.09080 0.67301 1.13247
 H149 H -0.06348 0.63900 1.10504
 H150 H -0.13338 0.58358 1.09892
 H151 H -0.16065 0.61808 1.12596
 H152 H -0.11183 0.57877 1.05266
 H153 H -0.08407 0.54611 1.02397
 H154 H -0.01571 0.56000 1.07941
 H155 H -0.04338 0.59228 1.10857
 C156 C -0.15865 0.31382 0.84272
 C157 C -0.14505 0.33085 0.85545
 C158 C -0.12854 0.35076 0.87089
 C159 C -0.10664 0.34093 0.88717
 C160 C -0.09061 0.36010 0.90238
 C161 C -0.09628 0.38942 0.90150
 C162 C -0.11833 0.39911 0.88503
 C163 C -0.13433 0.37988 0.86981
 C164 C -0.07936 0.40972 0.91790
 C165 C -0.09154 0.43251 0.93260
 C166 C -0.07563 0.45120 0.94858
 C167 C -0.04737 0.44740 0.95002
 C168 C -0.03505 0.42495 0.93530
 C169 C -0.05090 0.40623 0.91933
 C170 C -0.03104 0.46616 0.96702
 C171 C -0.01716 0.48155 0.98143
 H172 H -0.10203 0.31842 0.88822
 H173 H -0.07405 0.35193 0.91518
 H174 H -0.12301 0.42157 0.88367
 H175 H -0.15120 0.38771 0.85720
 H176 H -0.11341 0.43555 0.93221
 H177 H -0.08538 0.46844 0.96000
 H178 H -0.01318 0.42184 0.93624
 H179 H -0.04089 0.38914 0.90796
 C180 C 0.15766 0.68614 0.83992
 C181 C 0.14396 0.66894 0.85253
 C182 C 0.12743 0.64882 0.86792
 C183 C 0.13600 0.62058 0.87091
 C184 C 0.12011 0.60124 0.88635
 C185 C 0.09541 0.60991 0.89898
 C186 C 0.08694 0.63833 0.89574
 C187 C 0.10286 0.65762 0.88032
 C188 C 0.07866 0.58957 0.91577
 C189 C 0.05005 0.58986 0.91372
 C190 C 0.03427 0.57122 0.93009
 C191 C 0.04683 0.55204 0.94869
 C192 C 0.07527 0.55139 0.95071
 C193 C 0.09111 0.57001 0.93435
 C194 C 0.03050 0.53345 0.96611
 C195 C 0.01674 0.51813 0.98092
 H196 H 0.15498 0.61354 0.86137
 H197 H 0.12702 0.57944 0.88820
 H198 H 0.06825 0.64577 0.90555
 H199 H 0.09610 0.67947 0.87825
 H200 H 0.03989 0.60440 0.89935
 H201 H 0.01226 0.57186 0.92833
 H202 H 0.08519 0.53670 0.96513
 H203 H 0.11305 0.56951 0.93668
 C204 C 1.15821 0.15920 0.31337
 C205 C 1.14460 0.14642 0.33057
 C206 C 1.12808 0.13085 0.35061
 C207 C 1.13868 0.12285 0.37705
 C208 C 1.12274 0.10712 0.39616
 C209 C 1.09600 0.09914 0.38900
 C210 C 1.08548 0.10752 0.36246
 C211 C 1.10143 0.12325 0.34342
 C212 C 1.07923 0.08184 0.40891
 C213 C 1.06284 0.05964 0.39859
 C214 C 1.04700 0.04335 0.41725
 C215 C 1.04731 0.04898 0.44646
 C216 C 1.06355 0.07098 0.45698
 C217 C 1.07945 0.08730 0.43835
 C218 C 1.03089 0.03213 0.46551
 C219 C 1.01697 0.01779 0.48114
 H220 H 1.15932 0.12855 0.38279
 H221 H 1.13151 0.10074 0.41629
 H222 H 1.06485 0.10208 0.35650
 H223 H 1.09300 0.12939 0.32303
 H224 H 1.06253 0.05464 0.37612
 H225 H 1.03456 0.02631 0.40889
 H226 H 1.06387 0.07556 0.47956
 H227 H 1.09161 0.10444 0.44690
 C228 C 1.15967 -0.15710 0.68488
 C229 C 1.14598 -0.14445 0.66777
 C230 C 1.12934 -0.12913 0.64778
 C231 C 1.10577 -0.11520 0.65720
 C232 C 1.08962 -0.10007 0.63797
 C233 C 1.09686 -0.09865 0.60899
 C234 C 1.12057 -0.11280 0.59970
 C235 C 1.13668 -0.12795 0.61899
 C236 C 1.07987 -0.08222 0.58868
 C237 C 1.09212 -0.06517 0.56757
 C238 C 1.07610 -0.04908 0.54897
 C239 C 1.04766 -0.04987 0.55117
 C240 C 1.03527 -0.06698 0.57189
 C241 C 1.05124 -0.08306 0.59053
 C242 C 1.03117 -0.03262 0.53268
 C243 C 1.01716 -0.01793 0.51757
 H244 H 1.09995 -0.11590 0.67946
 H245 H 1.07173 -0.08907 0.64586
 H246 H 1.12649 -0.11238 0.57748
 H247 H 1.15486 -0.13873 0.61146
 H248 H 1.11409 -0.06379 0.56584
 H249 H 1.08590 -0.03581 0.53308
 H250 H 1.01326 -0.06776 0.57376
 H251 H 1.04120 -0.09626 0.60629
 C252 C 0.84099 -0.15839 0.31616
 C253 C 0.85408 -0.14593 0.33383
 C254 C 0.86992 -0.13077 0.35453
 C255 C 0.85716 -0.11216 0.37359
 C256 C 0.87269 -0.09667 0.39302
 C257 C 0.90124 -0.09960 0.39360
 C258 C 0.91383 -0.11861 0.37453
 C259 C 0.89826 -0.13405 0.35513
 C260 C 0.91791 -0.08246 0.41352
 C261 C 0.94059 -0.09452 0.42728
 C262 C 0.95678 -0.07807 0.44528
 C263 C 0.95052 -0.04939 0.44977
 C264 C 0.92786 -0.03727 0.43641
 C265 C 0.91164 -0.05367 0.41842
 C266 C 0.96766 -0.03223 0.46758
 C267 C 0.98214 -0.01769 0.48223
 H268 H 0.83522 -0.10947 0.37332
 H269 H 0.86237 -0.08248 0.40765
 H270 H 0.93578 -0.12105 0.37417
 H271 H 0.90836 -0.14831 0.34038
 H272 H 0.94574 -0.11670 0.42422
 H273 H 0.97425 -0.08768 0.45555
 H274 H 0.92291 -0.01506 0.43965
 H275 H 0.89456 -0.04366 0.40785
 C276 C 0.84241 0.15979 0.68578
 C277 C 0.85623 0.14733 0.66858
 C278 C 0.87288 0.13209 0.64846
 C279 C 0.86184 0.12286 0.62268
 C280 C 0.87785 0.10729 0.60356
 C281 C 0.90512 0.10070 0.61004
 C282 C 0.91608 0.11031 0.63591
 C283 C 0.90005 0.12589 0.65497
 C284 C 0.92193 0.08344 0.59018
 C285 C 0.93948 0.06223 0.60069
 C286 C 0.95514 0.04577 0.58205
 C287 C 0.95351 0.05027 0.55267
 C288 C 0.93616 0.07134 0.54196
 C289 C 0.92044 0.08782 0.56058
 C290 C 0.96956 0.03309 0.53363
 C291 C 0.98316 0.01838 0.51808
 H292 H 0.84079 0.12744 0.61750
 H293 H 0.86873 0.09990 0.58399
 H294 H 0.93709 0.10591 0.64134
 H295 H 0.90881 0.13296 0.67486
 H296 H 0.94078 0.05804 0.62331
 H297 H 0.96843 0.02944 0.59055
 H298 H 0.93478 0.07502 0.51925
 H299 H 0.90734 0.10418 0.55186
 C300 C 0.31543 1.15831 0.15669
 C301 C 0.33300 1.14576 0.14381
 C302 C 0.35348 1.13054 0.12796
 C303 C 0.37895 1.12482 0.14002
 C304 C 0.39859 1.10959 0.12464
 C305 C 0.39298 1.09993 0.09695
 C306 C 0.36735 1.10591 0.08501
 C307 C 0.34777 1.12110 0.10042
 C308 C 0.41354 1.08332 0.08066
 C309 C 0.41710 1.08793 0.05128
 C310 C 0.43558 1.07147 0.03568
 C311 C 0.45078 1.05022 0.04920
 C312 C 0.44772 1.04575 0.07850
 C313 C 0.42925 1.06222 0.09416
 C314 C 0.46870 1.03237 0.03276
 C315 C 0.48320 1.01717 0.01861
 H316 H 0.38361 1.13208 0.16132
 H317 H 0.41823 1.10560 0.13429
 H318 H 0.36224 1.09840 0.06393
 H319 H 0.32808 1.12531 0.09091
 H320 H 0.40561 1.10427 0.04036
 H321 H 0.43780 1.07512 0.01302
 H322 H 0.45930 1.02927 0.08915
 H323 H 0.42676 1.05793 0.11667
 C324 C 0.68475 1.15523 -0.15824
 C325 C 0.66705 1.14226 -0.14602
 C326 C 0.64637 1.12633 -0.13117
 C327 C 0.62974 1.13968 -0.11094
 C328 C 0.61044 1.12390 -0.09566
 C329 C 0.60760 1.09452 -0.10040
 C330 C 0.62418 1.08140 -0.12107
 C331 C 0.64343 1.09722 -0.13632
 C332 C 0.58792 1.07750 -0.08337
 C333 C 0.59521 1.05038 -0.07320
 C334 C 0.57698 1.03455 -0.05665
 C335 C 0.55123 1.04556 -0.05003
 C336 C 0.54369 1.07244 -0.06015
 C337 C 0.56191 1.08833 -0.07671
 C338 C 0.53283 1.02938 -0.03245
 C339 C 0.51784 1.01556 -0.01746
 H340 H 0.63193 1.16219 -0.10670
 H341 H 0.59823 1.13454 -0.07966
 H342 H 0.62223 1.05891 -0.12548
 H343 H 0.65618 1.08669 -0.15197
 H344 H 0.61522 1.04163 -0.07758
 H345 H 0.58307 1.01382 -0.04881
 H346 H 0.52378 1.08114 -0.05517
 H347 H 0.55560 1.10900 -0.08448
 C348 C 0.31436 0.84415 -0.15703
 C349 C 0.33159 0.85677 -0.14395
 C350 C 0.35164 0.87213 -0.12788
 C351 C 0.34321 0.89132 -0.10691
 C352 C 0.36249 0.90622 -0.09106
 C353 C 0.39053 0.90212 -0.09597
 C354 C 0.39883 0.88287 -0.11720
 C355 C 0.37948 0.86794 -0.13303
 C356 C 0.41094 0.91792 -0.07896
 C357 C 0.43437 0.92943 -0.09195
 C358 C 0.45310 0.94503 -0.07597
 C359 C 0.44869 0.94923 -0.04683
 C360 C 0.42564 0.93756 -0.03367
 C361 C 0.40689 0.92200 -0.04959
 C362 C 0.46733 0.96612 -0.03047
 C363 C 0.48243 0.98056 -0.01641
 H364 H 0.32171 0.89480 -0.10282
 H365 H 0.35545 0.92121 -0.07519
 H366 H 0.42026 0.87905 -0.12128
 H367 H 0.38623 0.85308 -0.14918
 H368 H 0.43789 0.92691 -0.11456
 H369 H 0.47083 0.95408 -0.08639
 H370 H 0.42206 0.94064 -0.01112
 H371 H 0.38928 0.91306 -0.03889
 C372 C 0.68462 0.84271 0.15990
 C373 C 0.66663 0.85507 0.14760
 C374 C 0.64559 0.87018 0.13259
 C375 C 0.64193 0.89933 0.13712
 C376 C 0.62227 0.91434 0.12173
 C377 C 0.60602 0.90037 0.10152
 C378 C 0.60963 0.87098 0.09737
 C379 C 0.62929 0.85600 0.11281
 C380 C 0.58592 0.91657 0.08435
 C381 C 0.58295 0.91103 0.05511
 C382 C 0.56480 0.92699 0.03869
 C383 C 0.54934 0.94865 0.05124
 C384 C 0.55188 0.95411 0.08037
 C385 C 0.57005 0.93819 0.09684
 C386 C 0.53158 0.96584 0.03402
 C387 C 0.51714 0.98046 0.01928
 H388 H 0.65453 0.91054 0.15228
 H389 H 0.62025 0.93700 0.12515
 H390 H 0.59720 0.85957 0.08224
 H391 H 0.63193 0.83343 0.10916
 H392 H 0.59514 0.89482 0.04479
 H393 H 0.56309 0.92269 0.01613
 H394 H 0.53999 0.97083 0.09030
 H395 H 0.57163 0.94273 0.11934
   
