data_POSCAR
  _audit_creation_date              2014-09-24
  _audit_creation_method            'ToBaCCo'
  _symmetry_space_group_name_H-M    'P1'
  _symmetry_Int_Tables_number       1
  _symmetry_cell_setting            triclinic
  loop_
  _symmetry_equiv_pos_as_xyz
 x,y,z
_cell_length_a 33.7535
_cell_length_b 33.7350
_cell_length_c 33.8141
_cell_angle_alpha 89.919800
_cell_angle_beta 89.936300
_cell_angle_gamma 90.014300
loop_
  _atom_site_label
  _atom_site_type_symbol
  _atom_site_fract_x
  _atom_site_fract_y
  _atom_site_fract_z
C1 C 0.25020 0.28002 0.21992
 C2 C 0.27975 0.27982 0.19071
 C3 C 0.30906 0.25043 0.19080
 C4 C 0.30908 0.22100 0.22008
 C5 C 0.27975 0.22074 0.24952
 C6 C 0.25015 0.25036 0.24949
 C7 C 0.22069 0.30931 0.22012
 C8 C 0.19132 0.30921 0.24943
 C9 C 0.19121 0.27984 0.27877
 C10 C 0.22049 0.25033 0.27903
 C11 C 0.22066 0.22077 0.30827
 C12 C 0.25004 0.19144 0.30823
 C13 C 0.27947 0.19141 0.27898
 H14 H 0.28000 0.30247 0.16791
 H15 H 0.33190 0.19837 0.21988
 H16 H 0.22052 0.33217 0.19753
 H17 H 0.16834 0.28002 0.30134
 H18 H 0.19801 0.22053 0.33104
 H19 H 0.30209 0.16858 0.27921
 C20 C 0.74951 -0.27982 0.21988
 C21 C 0.71990 -0.27969 0.19078
 C22 C 0.69043 -0.25039 0.19096
 C23 C 0.69039 -0.22102 0.22025
 C24 C 0.71978 -0.22073 0.24956
 C25 C 0.74950 -0.25024 0.24943
 C26 C 0.77912 -0.30901 0.21997
 C27 C 0.80857 -0.30889 0.24918
 C28 C 0.80861 -0.27956 0.27851
 C29 C 0.77921 -0.25016 0.27884
 C30 C 0.77898 -0.22067 0.30807
 C31 C 0.74950 -0.19145 0.30815
 C32 C 0.72001 -0.19147 0.27902
 H33 H 0.71978 -0.30235 0.16803
 H34 H 0.66751 -0.19842 0.22024
 H35 H 0.77924 -0.33180 0.19734
 H36 H 0.83147 -0.27961 0.30104
 H37 H 0.80168 -0.22040 0.33075
 H38 H 0.69731 -0.16872 0.27934
 C39 C 0.75027 0.28039 0.77969
 C40 C 0.72076 0.28009 0.80895
 C41 C 0.69147 0.25061 0.80897
 C42 C 0.69149 0.22122 0.77969
 C43 C 0.72078 0.22109 0.75021
 C44 C 0.75033 0.25079 0.75016
 C45 C 0.77971 0.30976 0.77942
 C46 C 0.80907 0.30980 0.75006
 C47 C 0.80918 0.28045 0.72074
 C48 C 0.77994 0.25087 0.72058
 C49 C 0.77978 0.22136 0.69137
 C50 C 0.75046 0.19196 0.69149
 C51 C 0.72107 0.19182 0.72078
 H52 H 0.72059 0.30276 0.83169
 H53 H 0.66874 0.19848 0.77985
 H54 H 0.77979 0.33255 0.80204
 H55 H 0.83198 0.28063 0.69808
 H56 H 0.80240 0.22121 0.66856
 H57 H 0.69850 0.16893 0.72061
 C58 C 0.24922 -0.28075 0.78070
 C59 C 0.27866 -0.28056 0.80996
 C60 C 0.30812 -0.25128 0.80981
 C61 C 0.30838 -0.22197 0.78042
 C62 C 0.27917 -0.22171 0.75093
 C63 C 0.24943 -0.25121 0.75102
 C64 C 0.21959 -0.30993 0.78057
 C65 C 0.19031 -0.30984 0.75118
 C66 C 0.19047 -0.28055 0.72172
 C67 C 0.21989 -0.25117 0.72142
 C68 C 0.22032 -0.22173 0.69208
 C69 C 0.24983 -0.19251 0.69205
 C70 C 0.27914 -0.19249 0.72135
 H71 H 0.27872 -0.30312 0.83285
 H72 H 0.33130 -0.19943 0.78056
 H73 H 0.21931 -0.33268 0.80329
 H74 H 0.16774 -0.28064 0.69905
 H75 H 0.19776 -0.22148 0.66926
 H76 H 0.30186 -0.16974 0.72108
 C77 C 0.75024 -0.28008 0.78033
 C78 C 0.72079 -0.27985 0.80963
 C79 C 0.69143 -0.25052 0.80955
 C80 C 0.69125 -0.22118 0.78018
 C81 C 0.72046 -0.22097 0.75065
 C82 C 0.75013 -0.25053 0.75067
 C83 C 0.77978 -0.30932 0.78013
 C84 C 0.80906 -0.30928 0.75070
 C85 C 0.80901 -0.27998 0.72125
 C86 C 0.77967 -0.25054 0.72103
 C87 C 0.77934 -0.22108 0.69170
 C88 C 0.74991 -0.19181 0.69176
 C89 C 0.72058 -0.19174 0.72110
 H90 H 0.72066 -0.30243 0.83251
 H91 H 0.66837 -0.19860 0.78038
 H92 H 0.77998 -0.33208 0.80285
 H93 H 0.83176 -0.28011 0.69855
 H94 H 0.80191 -0.22087 0.66884
 H95 H 0.69793 -0.16894 0.72088
 C96 C 0.25009 0.27949 0.77928
 C97 C 0.27969 0.27932 0.80836
 C98 C 0.30908 0.25000 0.80817
 C99 C 0.30912 0.22063 0.77893
 C100 C 0.27974 0.22035 0.74962
 C101 C 0.25006 0.24989 0.74975
 C102 C 0.22053 0.30870 0.77918
 C103 C 0.19111 0.30857 0.74999
 C104 C 0.19100 0.27927 0.72068
 C105 C 0.22035 0.24983 0.72033
 C106 C 0.22054 0.22034 0.69113
 C107 C 0.25000 0.19110 0.69108
 C108 C 0.27949 0.19108 0.72020
 H109 H 0.27993 0.30193 0.83114
 H110 H 0.33201 0.19806 0.77905
 H111 H 0.22034 0.33152 0.80174
 H112 H 0.16809 0.27944 0.69821
 H113 H 0.19784 0.22008 0.66845
 H114 H 0.30216 0.16830 0.71989
 C115 C 0.24966 -0.28040 0.21972
 C116 C 0.27932 -0.28031 0.19062
 C117 C 0.30891 -0.25114 0.19088
 C118 C 0.30906 -0.22186 0.22026
 C119 C 0.27962 -0.22154 0.24957
 C120 C 0.24976 -0.25091 0.24936
 C121 C 0.21991 -0.30945 0.21973
 C122 C 0.19041 -0.30927 0.24895
 C123 C 0.19046 -0.28003 0.27837
 C124 C 0.21999 -0.25078 0.27878
 C125 C 0.22032 -0.22139 0.30809
 C126 C 0.24995 -0.19232 0.30823
 C127 C 0.27949 -0.19237 0.27910
 H128 H 0.27937 -0.30289 0.16779
 H129 H 0.33205 -0.19937 0.22031
 H130 H 0.21971 -0.33217 0.19704
 H131 H 0.16755 -0.28006 0.30092
 H132 H 0.19758 -0.22107 0.33078
 H133 H 0.30230 -0.16972 0.27948
 C134 C 0.75104 0.28085 0.22020
 C135 C 0.72167 0.28051 0.19088
 C136 C 0.69246 0.25102 0.19091
 C137 C 0.69234 0.22163 0.22022
 C138 C 0.72149 0.22152 0.24976
 C139 C 0.75100 0.25124 0.24981
 C140 C 0.78044 0.31024 0.22045
 C141 C 0.80965 0.31030 0.24988
 C142 C 0.80967 0.28095 0.27929
 C143 C 0.78048 0.25135 0.27946
 C144 C 0.78021 0.22183 0.30873
 C145 C 0.75091 0.19241 0.30860
 C146 C 0.72166 0.19224 0.27925
 H147 H 0.72148 0.30313 0.16805
 H148 H 0.66958 0.19893 0.21997
 H149 H 0.78059 0.33304 0.19777
 H150 H 0.83237 0.28116 0.30199
 H151 H 0.80272 0.22169 0.33159
 H152 H 0.69912 0.16932 0.27942
 O153 O 0.28279 0.03786 0.46126
 O154 O 0.28288 -0.03938 0.53840
 O155 O 0.28286 -0.03935 0.46136
 O156 O 0.28279 0.03782 0.53828
 O157 O 0.21727 0.03774 0.53836
 O158 O 0.21733 -0.03943 0.46144
 O159 O 0.21736 -0.03946 0.53848
 O160 O 0.21727 0.03778 0.46134
 Cu161 Cu 0.28944 -0.00076 0.49982
 Cu162 Cu 0.21070 -0.00086 0.49991
 C163 C 0.25001 0.05086 0.44829
 C164 C 0.25013 -0.05245 0.55148
 C165 C 0.25010 -0.05241 0.44841
 C166 C 0.25002 0.05080 0.55130
 O167 O 0.78302 0.03852 0.53848
 O168 O 0.78269 -0.03856 0.46138
 O169 O 0.78306 0.03865 0.46146
 O170 O 0.78274 -0.03868 0.53843
 O171 O 0.71722 -0.03844 0.53851
 O172 O 0.71753 0.03891 0.46154
 O173 O 0.71717 -0.03830 0.46146
 O174 O 0.71750 0.03877 0.53855
 Cu175 Cu 0.78949 -0.00005 0.49993
 Cu176 Cu 0.71075 0.00025 0.50002
 C177 C 0.75031 0.05167 0.55152
 C178 C 0.74987 -0.05143 0.44840
 C179 C 0.75035 0.05184 0.44852
 C180 C 0.74993 -0.05160 0.55147
 O181 O 0.46250 0.28323 0.03761
 O182 O 0.53972 0.28322 -0.03948
 O183 O 0.46256 0.28313 -0.03940
 O184 O 0.53966 0.28334 0.03755
 O185 O 0.53973 0.21778 0.03774
 O186 O 0.46262 0.21757 -0.03922
 O187 O 0.53979 0.21767 -0.03930
 O188 O 0.46257 0.21768 0.03780
 Cu189 Cu 0.50111 0.28985 -0.00095
 Cu190 Cu 0.50119 0.21106 -0.00073
 C191 C 0.44950 0.25046 0.05072
 C192 C 0.55279 0.25044 -0.05240
 C193 C 0.44957 0.25031 -0.05229
 C194 C 0.55269 0.25060 0.05064
 O195 O 0.53829 0.78193 0.03990
 O196 O 0.46114 0.78170 -0.03710
 O197 O 0.46110 0.78169 0.03992
 O198 O 0.53830 0.78194 -0.03713
 O199 O 0.53848 0.71638 -0.03704
 O200 O 0.46128 0.71613 0.04001
 O201 O 0.46132 0.71614 -0.03701
 O202 O 0.53848 0.71638 0.03999
 Cu203 Cu 0.49969 0.78843 0.00140
 Cu204 Cu 0.49991 0.70964 0.00150
 C205 C 0.55141 0.74920 0.05294
 C206 C 0.44821 0.74888 -0.05006
 C207 C 0.44815 0.74887 0.05295
 C208 C 0.55141 0.74920 -0.05010
 O209 O 0.03801 0.46264 0.28191
 O210 O -0.03923 0.53980 0.28181
 O211 O -0.03914 0.46259 0.28208
 O212 O 0.03796 0.53984 0.28169
 O213 O 0.03792 0.53973 0.21629
 O214 O -0.03919 0.46248 0.21668
 O215 O -0.03928 0.53969 0.21641
 O216 O 0.03796 0.46254 0.21651
 Cu217 Cu -0.00060 0.50124 0.28847
 Cu218 Cu -0.00066 0.50111 0.20987
 C219 C 0.05102 0.44956 0.24922
 C220 C -0.05230 0.55276 0.24909
 C221 C -0.05216 0.44948 0.24945
 C222 C 0.05098 0.55280 0.24893
 O223 O 0.03783 0.53881 0.78351
 O224 O -0.03945 0.46166 0.78312
 O225 O 0.03770 0.46162 0.78321
 O226 O -0.03936 0.53889 0.78336
 O227 O -0.03918 0.53920 0.71795
 O228 O 0.03787 0.46194 0.71780
 O229 O -0.03928 0.46198 0.71772
 O230 O 0.03800 0.53913 0.71811
 Cu231 Cu -0.00084 0.50022 0.78990
 Cu232 Cu -0.00064 0.50060 0.71130
 C233 C 0.05098 0.55197 0.75088
 C234 C -0.05240 0.44879 0.75035
 C235 C 0.05079 0.44874 0.75048
 C236 C -0.05227 0.55208 0.75068
 C237 C 0.33927 0.25044 0.16069
 C238 C 0.36455 0.25044 0.13548
 C239 C 0.39415 0.25043 0.10595
 C240 C 0.41943 0.25045 0.08074
 C241 C 0.66178 0.74953 0.16258
 C242 C 0.63644 0.74946 0.13746
 C243 C 0.60680 0.74937 0.10803
 C244 C 0.58150 0.74929 0.08289
 C245 C 0.66291 0.25053 -0.16250
 C246 C 0.63766 0.25048 -0.13725
 C247 C 0.60809 0.25044 -0.10768
 C248 C 0.58285 0.25044 -0.08244
 C249 C 0.33821 0.74870 -0.16004
 C250 C 0.36342 0.74870 -0.13480
 C251 C 0.39295 0.74874 -0.10527
 C252 C 0.41818 0.74879 -0.08006
 C253 C 0.16115 0.33937 0.24938
 C254 C 0.13589 0.36464 0.24935
 C255 C 0.10634 0.39424 0.24929
 C256 C 0.08109 0.41951 0.24926
 C257 C 0.16163 0.66171 0.75122
 C258 C 0.13624 0.63655 0.75121
 C259 C 0.10652 0.60710 0.75113
 C260 C 0.08115 0.58194 0.75103
 C261 C -0.16278 0.66263 0.24909
 C262 C -0.13743 0.63745 0.24905
 C263 C -0.10776 0.60796 0.24904
 C264 C -0.08243 0.58277 0.24905
 C265 C -0.16242 0.33842 0.75004
 C266 C -0.13720 0.36374 0.75006
 C267 C -0.10767 0.39339 0.75013
 C268 C -0.08244 0.41869 0.75021
 C269 C 0.24999 0.16122 0.33834
 C270 C 0.24997 0.13591 0.36355
 C271 C 0.24996 0.10627 0.39306
 C272 C 0.24998 0.08096 0.41827
 C273 C 0.75050 0.16180 0.66140
 C274 C 0.75051 0.13654 0.63620
 C275 C 0.75048 0.10696 0.60671
 C276 C 0.75042 0.08171 0.58151
 C277 C 0.25000 -0.16240 0.66182
 C278 C 0.25009 -0.13720 0.63651
 C279 C 0.25014 -0.10769 0.60687
 C280 C 0.25015 -0.08248 0.58157
 C281 C 0.74951 -0.16132 0.33828
 C282 C 0.74956 -0.13612 0.36352
 C283 C 0.74964 -0.10661 0.39309
 C284 C 0.74974 -0.08142 0.41835
 C285 C 0.66133 0.74947 -0.16027
 C286 C 0.63614 0.74943 -0.13500
 C287 C 0.60663 0.74936 -0.10540
 C288 C 0.58142 0.74929 -0.08014
 C289 C 0.33932 0.25006 -0.16187
 C290 C 0.36463 0.25011 -0.13676
 C291 C 0.39424 0.25017 -0.10736
 C292 C 0.41951 0.25024 -0.08222
 C293 C 0.33760 0.74877 0.16251
 C294 C 0.36297 0.74874 0.13740
 C295 C 0.39267 0.74875 0.10800
 C296 C 0.41802 0.74879 0.08288
 C297 C 0.66244 0.25091 0.16072
 C298 C 0.63730 0.25083 0.13546
 C299 C 0.60784 0.25075 0.10589
 C300 C 0.58267 0.25068 0.08065
 C301 C -0.16236 0.66221 0.75071
 C302 C -0.13709 0.63697 0.75072
 C303 C -0.10753 0.60741 0.75073
 C304 C -0.08229 0.58215 0.75072
 C305 C -0.16189 0.33894 0.24989
 C306 C -0.13672 0.36430 0.24983
 C307 C -0.10727 0.39399 0.24972
 C308 C -0.08212 0.41933 0.24960
 C309 C 0.16091 0.33867 0.75011
 C310 C 0.13563 0.36389 0.75021
 C311 C 0.10606 0.39343 0.75032
 C312 C 0.08082 0.41868 0.75041
 C313 C 0.16166 0.66238 0.24881
 C314 C 0.13623 0.63729 0.24875
 C315 C 0.10648 0.60790 0.24874
 C316 C 0.08111 0.58277 0.24880
 C317 C 0.74982 -0.16170 0.66157
 C318 C 0.74979 -0.13647 0.63630
 C319 C 0.74979 -0.10692 0.60673
 C320 C 0.74983 -0.08167 0.58149
 C321 C 0.25003 -0.16227 0.33839
 C322 C 0.25008 -0.13709 0.36365
 C323 C 0.25011 -0.10761 0.39320
 C324 C 0.25012 -0.08242 0.41842
 C325 C 0.75085 0.16224 0.33872
 C326 C 0.75076 0.13694 0.36392
 C327 C 0.75061 0.10730 0.39341
 C328 C 0.75048 0.08198 0.41857
 C329 C 0.24996 0.16095 0.66102
 C330 C 0.24995 0.13570 0.63585
 C331 C 0.24996 0.10612 0.60639
 C332 C 0.24998 0.08086 0.58124
   
