data_POSCAR
  _audit_creation_date              2014-09-24
  _audit_creation_method            'ToBaCCo'
  _symmetry_space_group_name_H-M    'P1'
  _symmetry_Int_Tables_number       1
  _symmetry_cell_setting            triclinic
  loop_
  _symmetry_equiv_pos_as_xyz
 x,y,z
_cell_length_a 39.0604
_cell_length_b 39.1148
_cell_length_c 32.7524
_cell_angle_alpha 90.018500
_cell_angle_beta 90.063100
_cell_angle_gamma 85.477500
loop_
  _atom_site_label
  _atom_site_type_symbol
  _atom_site_fract_x
  _atom_site_fract_y
  _atom_site_fract_z
O1 O 0.03121 0.29226 -0.04079
 O2 O -0.03832 0.30210 0.03526
 O3 O 0.02941 0.29855 0.03835
 O4 O -0.03567 0.29360 -0.04305
 O5 O -0.03282 0.23730 -0.03580
 O6 O 0.03089 0.24234 0.04565
 O7 O -0.03555 0.24598 0.04294
 O8 O 0.03305 0.23602 -0.03368
 Cu9 Cu -0.00348 0.30233 -0.00312
 Cu10 Cu -0.00082 0.23482 0.00568
 C11 C 0.04362 0.26242 -0.05064
 C12 C -0.04915 0.27565 0.05187
 C13 C 0.04124 0.27108 0.05582
 C14 C -0.04515 0.26444 -0.05336
 O15 O 0.46553 0.77884 0.53979
 O16 O 0.53258 0.77802 0.46014
 O17 O 0.46523 0.77877 0.46041
 O18 O 0.53260 0.77783 0.53967
 O19 O 0.53596 0.72123 0.53966
 O20 O 0.46955 0.72215 0.46011
 O21 O 0.53588 0.72143 0.45995
 O22 O 0.46979 0.72222 0.53989
 Cu23 Cu 0.49862 0.78406 0.49994
 Cu24 Cu 0.50316 0.71613 0.49984
 C25 C 0.45641 0.75058 0.55359
 C26 C 0.54563 0.74950 0.44643
 C27 C 0.45594 0.75052 0.44676
 C28 C 0.54561 0.74929 0.55336
 O29 O 1.04198 0.67865 0.03948
 O30 O 0.97501 0.67655 -0.04014
 O31 O 1.04241 0.67838 -0.03946
 O32 O 0.97476 0.67641 0.03916
 O33 O 0.96912 0.73301 0.03919
 O34 O 1.03558 0.73484 -0.03984
 O35 O 0.96945 0.73315 -0.04020
 O36 O 1.03504 0.73511 0.03977
 Cu37 Cu 1.00912 0.67179 -0.00027
 Cu38 Cu 1.00170 0.73963 -0.00032
 C39 C 1.05007 0.70738 0.05320
 C40 C 0.96073 0.70465 -0.05359
 C41 C 1.05077 0.70705 -0.05295
 C42 C 0.96041 0.70449 0.05253
 O43 O 0.53724 0.18670 0.53764
 O44 O 0.46757 0.18887 0.46162
 O45 O 0.53484 0.18667 0.45859
 O46 O 0.46973 0.19251 0.54079
 O47 O 0.46934 0.24897 0.53856
 O48 O 0.53302 0.24322 0.45682
 O49 O 0.46686 0.24534 0.45906
 O50 O 0.53562 0.24326 0.53612
 Cu51 Cu 0.50241 0.18297 0.49988
 Cu52 Cu 0.50103 0.25083 0.49746
 C53 C 0.54836 0.21460 0.54975
 C54 C 0.45546 0.21744 0.44723
 C55 C 0.54505 0.21419 0.44385
 C56 C 0.45858 0.22199 0.55366
 O57 O 0.70270 0.03508 -0.03029
 O58 O 0.71524 -0.03684 0.04209
 O59 O 0.71012 0.03013 0.04802
 O60 O 0.71118 -0.03196 -0.03732
 O61 O 0.76733 -0.02968 -0.04213
 O62 O 0.76648 0.03075 0.04307
 O63 O 0.77133 -0.03490 0.03756
 O64 O 0.75895 0.03638 -0.03550
 Cu65 Cu 0.70414 -0.00120 0.00608
 Cu66 Cu 0.77162 0.00065 0.00009
 C67 C 0.72873 0.04815 -0.04501
 C68 C 0.74538 -0.04785 0.05285
 C69 C 0.73833 0.04091 0.05999
 C70 C 0.73965 -0.04112 -0.05446
 O71 O 0.18876 0.47396 0.54384
 O72 O 0.17948 0.54153 0.46438
 O73 O 0.18362 0.47407 0.46460
 O74 O 0.18198 0.54147 0.54317
 O75 O 0.23843 0.54144 0.53958
 O76 O 0.24001 0.47435 0.46043
 O77 O 0.23597 0.54072 0.46045
 O78 O 0.24510 0.47489 0.54009
 Cu79 Cu 0.17779 0.50762 0.50439
 Cu80 Cu 0.24550 0.50772 0.49981
 C81 C 0.21872 0.46305 0.55555
 C82 C 0.20636 0.55279 0.44917
 C83 C 0.21204 0.46276 0.44903
 C84 C 0.20984 0.55331 0.55437
 O85 O 0.29355 1.04042 0.04134
 O86 O 0.30084 0.97091 -0.03507
 O87 O 0.29169 1.03808 -0.03767
 O88 O 0.30128 0.97275 0.04413
 O89 O 0.24496 0.97081 0.04551
 O90 O 0.23564 1.03480 -0.03636
 O91 O 0.24453 0.96878 -0.03404
 O92 O 0.23751 1.03728 0.04330
 Cu93 Cu 0.30249 1.00580 0.00316
 Cu94 Cu 0.23509 1.00269 0.00484
 C95 C 0.26423 1.05098 0.05526
 C96 C 0.27387 0.95808 -0.04768
 C97 C 0.26186 1.04757 -0.05113
 C98 C 0.27460 0.96049 0.05852
 O99 O 0.80487 0.53061 0.54118
 O100 O 0.81139 0.46132 0.46425
 O101 O 0.80583 0.52878 0.46186
 O102 O 0.80942 0.46345 0.54335
 O103 O 0.75285 0.46404 0.54199
 O104 O 0.74932 0.52839 0.46057
 O105 O 0.75479 0.46224 0.46267
 O106 O 0.74838 0.53008 0.54012
 Cu107 Cu 0.81362 0.49606 0.50275
 Cu108 Cu 0.74569 0.49625 0.50115
 C109 C 0.77542 0.54191 0.55395
 C110 C 0.78406 0.45001 0.45041
 C111 C 0.77681 0.53965 0.44734
 C112 C 0.78164 0.45263 0.55650
 O113 O 0.23582 0.29297 0.28773
 O114 O 0.25326 0.21452 0.22670
 O115 O 0.28424 0.24350 0.28724
 O116 O 0.20583 0.26414 0.22677
 O117 O 0.23546 0.29288 0.18299
 O118 O 0.31366 0.27310 0.24409
 O119 O 0.28418 0.24284 0.18377
 O120 O 0.26567 0.32173 0.24417
 Cu121 Cu 0.24184 0.25090 0.26150
 Cu122 Cu 0.27761 0.28546 0.20915
 C123 C 0.24826 0.32058 0.27683
 C124 C 0.27143 0.21536 0.19466
 C125 C 0.31216 0.25554 0.27654
 C126 C 0.20734 0.28159 0.19421
 O127 O 0.76158 0.80572 0.24500
 O128 O 0.78526 0.73147 0.31122
 O129 O 0.81253 0.76059 0.24883
 O130 O 0.73363 0.77822 0.30900
 O131 O 0.70644 0.74399 0.26884
 O132 O 0.78515 0.72764 0.20723
 O133 O 0.75780 0.69853 0.26971
 O134 O 0.73247 0.77292 0.20496
 Cu135 Cu 0.77584 0.77234 0.28285
 Cu136 Cu 0.74269 0.73252 0.23349
 C137 C 0.74358 0.80175 0.21329
 C138 C 0.77533 0.70231 0.30181
 C139 C 0.81218 0.74174 0.21730
 C140 C 0.70678 0.76355 0.29980
 O141 O 0.71871 0.23344 0.29584
 O142 O 0.79774 0.24106 0.23773
 O143 O 0.76636 0.27680 0.29680
 O144 O 0.74908 0.20063 0.23578
 O145 O 0.71960 0.23411 0.19176
 O146 O 0.73714 0.30968 0.25205
 O147 O 0.76938 0.27486 0.19310
 O148 O 0.68970 0.26740 0.25193
 Cu149 Cu 0.76100 0.23487 0.27120
 Cu150 Cu 0.72625 0.27499 0.21767
 C151 C 0.69070 0.24886 0.28385
 C152 C 0.79695 0.25836 0.20497
 C153 C 0.75395 0.30623 0.28514
 C154 C 0.73131 0.20449 0.20333
 O155 O 0.25389 0.70420 0.26278
 O156 O 0.26520 0.78451 0.20756
 O157 O 0.29634 0.75114 0.26821
 O158 O 0.22197 0.73686 0.20287
 O159 O 0.18787 0.76649 0.24612
 O160 O 0.26208 0.78001 0.31185
 O161 O 0.23064 0.81290 0.25129
 O162 O 0.21885 0.73237 0.30616
 Cu163 Cu 0.26279 0.74143 0.23087
 Cu164 Cu 0.22150 0.77573 0.28341
 C165 C 0.23471 0.70457 0.29408
 C166 C 0.24943 0.81235 0.21962
 C167 C 0.29183 0.76757 0.30148
 C168 C 0.19233 0.74969 0.21314
 O169 O 0.76449 0.28071 0.70727
 O170 O 0.75630 0.20109 0.76363
 O171 O 0.72115 0.23338 0.70490
 O172 O 0.79665 0.24989 0.76789
 O173 O 0.76256 0.27937 0.81122
 O174 O 0.68755 0.26147 0.74985
 O175 O 0.72268 0.22889 0.80877
 O176 O 0.72946 0.30907 0.75056
 Cu177 Cu 0.76288 0.23834 0.73137
 Cu178 Cu 0.72204 0.27231 0.78467
 C179 C 0.74838 0.30841 0.71896
 C180 C 0.73910 0.20142 0.79644
 C181 C 0.69149 0.24540 0.71635
 C182 C 0.79235 0.26764 0.80028
 O183 O 0.30041 0.75193 0.73721
 O184 O 0.22546 0.73579 0.80100
 O185 O 0.25900 0.70417 0.74123
 O186 O 0.26842 0.78373 0.79875
 O187 O 0.23397 0.81253 0.75521
 O188 O 0.22400 0.73272 0.69802
 O189 O 0.19162 0.76582 0.75778
 O190 O 0.26619 0.78126 0.69386
 Cu191 Cu 0.26676 0.74115 0.77405
 Cu192 Cu 0.22564 0.77591 0.72166
 C193 C 0.29593 0.76877 0.70420
 C194 C 0.19585 0.74866 0.79051
 C195 C 0.24022 0.70492 0.70955
 C196 C 0.25227 0.81156 0.78734
 O197 O 0.19343 0.24413 0.75995
 O198 O 0.26662 0.22007 0.69249
 O199 O 0.24129 0.19572 0.75931
 O200 O 0.21746 0.26997 0.69311
 O201 O 0.25050 0.30148 0.72971
 O202 O 0.27471 0.22715 0.79566
 O203 O 0.29899 0.25228 0.72908
 O204 O 0.22587 0.27635 0.79655
 Cu205 Cu 0.22649 0.22941 0.72219
 Cu206 Cu 0.26578 0.26756 0.76636
 C207 C 0.19739 0.26364 0.79030
 C208 C 0.29537 0.23210 0.69928
 C209 C 0.26155 0.19896 0.78918
 C210 C 0.23000 0.29843 0.70004
 O211 O 0.75595 0.70041 0.73212
 O212 O 0.73026 0.77393 0.79796
 O213 O 0.70448 0.74543 0.73362
 O214 O 0.78360 0.72926 0.79465
 O215 O 0.81011 0.76341 0.75377
 O216 O 0.73124 0.77993 0.69342
 O217 O 0.75775 0.80768 0.75762
 O218 O 0.78318 0.73392 0.69114
 Cu219 Cu 0.74090 0.73395 0.76884
 Cu220 Cu 0.77322 0.77463 0.71985
 C221 C 0.77333 0.70462 0.70006
 C222 C 0.74004 0.80328 0.78944
 C223 C 0.70460 0.76501 0.70266
 C224 C 0.81030 0.74393 0.78477
 C225 C 0.22962 0.08704 0.10313
 C226 C 0.26117 0.07820 0.08347
 C227 C 0.28918 0.09786 0.09171
 C228 C 0.28537 0.12637 0.11791
 C229 C 0.25367 0.13449 0.13777
 C230 C 0.22609 0.11452 0.13041
 C231 C 0.24980 0.16295 0.16392
 C232 C 0.27672 0.18432 0.16917
 C233 C 0.30795 0.17650 0.14878
 C234 C 0.31244 0.14744 0.12385
 H235 H 0.31362 0.09187 0.07663
 H236 H 0.20155 0.12054 0.14521
 H237 H 0.22542 0.16922 0.17906
 H238 H 0.33685 0.14179 0.10865
 H239 H 0.20754 0.07253 0.09774
 H240 H 0.32895 0.19275 0.15244
 C241 C 0.74440 0.57040 0.61252
 C242 C 0.77222 0.56899 0.58531
 C243 C 0.79608 0.59401 0.58761
 C244 C 0.79156 0.62082 0.61617
 C245 C 0.76354 0.62178 0.64355
 C246 C 0.74030 0.59634 0.64170
 C247 C 0.75867 0.64863 0.67173
 C248 C 0.78070 0.67531 0.67220
 C249 C 0.80837 0.67439 0.64475
 C250 C 0.81401 0.64712 0.61725
 H251 H 0.81741 0.59325 0.56638
 H252 H 0.71863 0.59681 0.66239
 H253 H 0.73692 0.64938 0.69236
 H254 H 0.83552 0.64692 0.59638
 H255 H 0.72584 0.55125 0.61133
 H256 H 0.82562 0.69475 0.64459
 C257 C 0.78294 0.91703 0.09862
 C258 C 0.75009 0.92596 0.08216
 C259 C 0.72208 0.90853 0.09620
 C260 C 0.72688 0.88261 0.12578
 C261 C 0.75984 0.87476 0.14276
 C262 C 0.78765 0.89206 0.12895
 C263 C 0.76461 0.84925 0.17271
 C264 C 0.73719 0.83042 0.18464
 C265 C 0.70469 0.83770 0.16704
 C266 C 0.69941 0.86404 0.13830
 H267 H 0.69661 0.91463 0.08369
 H268 H 0.81314 0.88609 0.14140
 H269 H 0.78993 0.84309 0.18564
 H270 H 0.67402 0.86949 0.12538
 H271 H 0.80509 0.92984 0.08871
 H272 H 0.68340 0.82312 0.17574
 C273 C 0.25258 0.43480 0.61242
 C274 C 0.22343 0.43613 0.58713
 C275 C 0.20012 0.41068 0.59090
 C276 C 0.20658 0.38352 0.61872
 C277 C 0.23604 0.38252 0.64396
 C278 C 0.25864 0.40848 0.64088
 C279 C 0.24292 0.35517 0.67121
 C280 C 0.22131 0.32812 0.67288
 C281 C 0.19213 0.32924 0.64760
 C282 C 0.18464 0.35686 0.62104
 H283 H 0.17779 0.41131 0.57116
 H284 H 0.28138 0.40807 0.65992
 H285 H 0.26570 0.35444 0.69024
 H286 H 0.16201 0.35708 0.60185
 H287 H 0.27080 0.45421 0.61010
 H288 H 0.17505 0.30875 0.64841
 C289 C 0.90392 0.31054 0.08496
 C290 C 0.92340 0.27894 0.07966
 C291 C 0.91424 0.25027 0.10196
 C292 C 0.88605 0.25289 0.12847
 C293 C 0.86576 0.28430 0.13211
 C294 C 0.87512 0.31305 0.11049
 C295 C 0.83645 0.28628 0.15717
 C296 C 0.82811 0.25751 0.17963
 C297 C 0.84923 0.22684 0.17692
 C298 C 0.87772 0.22441 0.15122
 H299 H 0.92913 0.22580 0.09896
 H300 H 0.86011 0.33745 0.11320
 H301 H 0.82037 0.31009 0.15947
 H302 H 0.89315 0.20021 0.14902
 H303 H 0.91023 0.33318 0.06842
 H304 H 0.84308 0.20434 0.19386
 C305 C 0.42970 0.72236 0.61259
 C306 C 0.43003 0.75044 0.58589
 C307 C 0.40464 0.77780 0.58976
 C308 C 0.37862 0.77663 0.61924
 C309 C 0.37870 0.74830 0.64608
 C310 C 0.40451 0.72146 0.64270
 C311 C 0.35244 0.74679 0.67507
 C312 C 0.32531 0.77257 0.67665
 C313 C 0.32535 0.80057 0.64980
 C314 C 0.35202 0.80283 0.62170
 H315 H 0.40451 0.79941 0.56902
 H316 H 0.40488 0.69950 0.66290
 H317 H 0.35231 0.72480 0.69521
 H318 H 0.35143 0.82466 0.60129
 H319 H 0.44911 0.70109 0.61030
 H320 H 0.30463 0.82067 0.65047
 C321 C 0.09747 0.67928 0.09295
 C322 C 0.07602 0.70873 0.08280
 C323 C 0.08160 0.73999 0.10220
 C324 C 0.10818 0.74193 0.13067
 C325 C 0.13052 0.71258 0.13910
 C326 C 0.12474 0.68132 0.12035
 C327 C 0.15824 0.71510 0.16606
 C328 C 0.16291 0.74628 0.18579
 C329 C 0.13975 0.77489 0.17848
 C330 C 0.11286 0.77288 0.15073
 H331 H 0.06509 0.76291 0.09549
 H332 H 0.14137 0.65846 0.12679
 H333 H 0.17590 0.69287 0.17204
 H334 H 0.09579 0.79555 0.14489
 H335 H 0.09391 0.65479 0.07878
 H336 H 0.14310 0.79913 0.19339
 C337 C 0.60278 0.18716 0.57945
 C338 C 0.57657 0.21390 0.57974
 C339 C 0.57784 0.24055 0.60823
 C340 C 0.60517 0.24075 0.63598
 C341 C 0.63219 0.21446 0.63455
 C342 C 0.63060 0.18763 0.60635
 C343 C 0.66039 0.21569 0.66111
 C344 C 0.66132 0.24237 0.68976
 C345 C 0.63368 0.26760 0.69180
 C346 C 0.60602 0.26698 0.66495
 H347 H 0.55744 0.26102 0.60892
 H348 H 0.65090 0.16712 0.60496
 H349 H 0.68149 0.19600 0.65954
 H350 H 0.58542 0.28718 0.66663
 H351 H 0.60222 0.16641 0.55761
 H352 H 0.63394 0.28852 0.71346
 C353 C 0.69517 0.10118 0.92994
 C354 C 0.72403 0.07752 0.92678
 C355 C 0.74904 0.08254 0.89714
 C356 C 0.74556 0.11108 0.87121
 C357 C 0.71709 0.13550 0.87546
 C358 C 0.69186 0.13013 0.90473
 C359 C 0.71460 0.16495 0.85066
 C360 C 0.73987 0.16977 0.82114
 C361 C 0.76739 0.14466 0.81637
 C362 C 0.77034 0.11573 0.84134
 H363 H 0.77117 0.06415 0.89421
 H364 H 0.66975 0.14841 0.90831
 H365 H 0.69318 0.18405 0.85440
 H366 H 0.79220 0.09717 0.83752
 H367 H 0.67562 0.09776 0.95268
 H368 H 0.78730 0.14785 0.79402
 C369 C 0.17575 0.60578 0.41946
 C370 C 0.20371 0.58089 0.41895
 C371 C 0.23073 0.58443 0.39138
 C372 C 0.23051 0.61304 0.36561
 C373 C 0.20310 0.63884 0.36764
 C374 C 0.17554 0.63466 0.39418
 C375 C 0.20414 0.66860 0.34372
 C376 C 0.23198 0.67250 0.31733
 C377 C 0.25832 0.64598 0.31445
 C378 C 0.25771 0.61663 0.33853
 H379 H 0.25226 0.56516 0.39050
 H380 H 0.15417 0.65402 0.39596
 H381 H 0.18354 0.68877 0.34589
 H382 H 0.27880 0.59698 0.33643
 H383 H 0.15472 0.60359 0.44059
 H384 H 0.28004 0.64839 0.29442
 C385 C 0.30543 0.90648 0.92099
 C386 C 0.27651 0.93021 0.92184
 C387 C 0.24960 0.92662 0.89408
 C388 C 0.25127 0.89935 0.86613
 C389 C 0.27984 0.87478 0.86655
 C390 C 0.30695 0.87879 0.89384
 C391 C 0.28053 0.84642 0.84012
 C392 C 0.25334 0.84274 0.81269
 C393 C 0.22578 0.86809 0.81143
 C394 C 0.22461 0.89600 0.83811
 H395 H 0.22739 0.94510 0.89422
 H396 H 0.32917 0.86037 0.89442
 H397 H 0.30202 0.82712 0.84112
 H398 H 0.20265 0.91472 0.83717
 H399 H 0.32644 0.90882 0.94217
 H400 H 0.20445 0.86571 0.79073
 C401 C 0.81242 0.39583 0.42107
 C402 C 0.78585 0.42218 0.41998
 C403 C 0.75972 0.42105 0.39072
 C404 C 0.75957 0.39356 0.36335
 C405 C 0.78551 0.36628 0.36569
 C406 C 0.81209 0.36789 0.39436
 C407 C 0.78406 0.33777 0.33974
 C408 C 0.75742 0.33674 0.31093
 C409 C 0.73263 0.36469 0.30794
 C410 C 0.73353 0.39271 0.33409
 H411 H 0.73936 0.44156 0.38942
 H412 H 0.83236 0.34739 0.39644
 H413 H 0.80344 0.31644 0.34204
 H414 H 0.71361 0.41352 0.33173
 H415 H 0.83277 0.39628 0.44351
 H416 H 0.71179 0.36444 0.28612
 C417 C 0.07428 0.22755 0.89501
 C418 C 0.07027 0.25818 0.91751
 C419 C 0.09168 0.28457 0.90919
 C420 C 0.11722 0.28016 0.87909
 C421 C 0.12065 0.24939 0.85627
 C422 C 0.09903 0.22331 0.86439
 C423 C 0.14610 0.24489 0.82624
 C424 C 0.16902 0.27021 0.81956
 C425 C 0.16578 0.30056 0.84263
 C426 C 0.13977 0.30570 0.87183
 H427 H 0.08894 0.30817 0.92667
 H428 H 0.10146 0.19951 0.84730
 H429 H 0.14887 0.22112 0.80906
 H430 H 0.13765 0.32937 0.88917
 H431 H 0.05791 0.20697 0.90077
 H432 H 0.18333 0.32030 0.83800
 C433 C 0.57785 0.71991 0.38898
 C434 C 0.57255 0.74866 0.41462
 C435 C 0.59378 0.77587 0.41042
 C436 C 0.62069 0.77387 0.38181
 C437 C 0.62570 0.74480 0.35619
 C438 C 0.60394 0.71815 0.35977
 C439 C 0.65299 0.74239 0.32821
 C440 C 0.67613 0.76810 0.32635
 C441 C 0.67096 0.79691 0.35191
 C442 C 0.64325 0.79997 0.37906
 H443 H 0.59011 0.79802 0.43031
 H444 H 0.60748 0.69564 0.34047
 H445 H 0.65702 0.71982 0.30906
 H446 H 0.63990 0.82239 0.39852
 H447 H 0.56172 0.69873 0.39151
 H448 H 0.68848 0.81702 0.35103
 C449 C 0.91156 0.67761 0.91358
 C450 C 0.93318 0.70462 0.91552
 C451 C 0.92713 0.73282 0.88927
 C452 C 0.89933 0.73456 0.86208
 C453 C 0.87677 0.70800 0.86147
 C454 C 0.88340 0.67940 0.88697
 C455 C 0.84779 0.71082 0.83582
 C456 C 0.84159 0.73953 0.81023
 C457 C 0.86495 0.76508 0.81011
 C458 C 0.89341 0.76275 0.83599
 H459 H 0.94392 0.75361 0.89028
 H460 H 0.86657 0.65867 0.88673
 H461 H 0.83007 0.69084 0.83586
 H462 H 0.91057 0.78321 0.83592
 H463 H 0.91575 0.65567 0.93365
 H464 H 0.86067 0.78747 0.79077
 C465 C 0.40368 0.19353 0.41689
 C466 C 0.42776 0.21836 0.41654
 C467 C 0.42500 0.24444 0.38701
 C468 C 0.39825 0.24597 0.35834
 C469 C 0.37336 0.22161 0.35978
 C470 C 0.37648 0.19532 0.38898
 C471 C 0.34559 0.22427 0.33238
 C472 C 0.34277 0.25060 0.30307
 C473 C 0.36841 0.27382 0.30093
 C474 C 0.39577 0.27167 0.32848
 H475 H 0.44380 0.26341 0.38624
 H476 H 0.35780 0.17630 0.39040
 H477 H 0.32607 0.20610 0.33410
 H478 H 0.41474 0.29039 0.32677
 H479 H 0.40542 0.17321 0.43944
 H480 H 0.36671 0.29442 0.27876
 C481 C 0.76740 0.93567 0.88191
 C482 C 0.74111 0.93459 0.91102
 C483 C 0.71767 0.90924 0.90793
 C484 C 0.72147 0.88424 0.87708
 C485 C 0.74825 0.88544 0.84819
 C486 C 0.77071 0.91156 0.85051
 C487 C 0.75296 0.85982 0.81835
 C488 C 0.73207 0.83221 0.81776
 C489 C 0.70530 0.83134 0.84630
 C490 C 0.69978 0.85735 0.87542
 H491 H 0.69752 0.90808 0.93051
 H492 H 0.79139 0.91284 0.82866
 H493 H 0.77396 0.86054 0.79681
 H494 H 0.67917 0.85593 0.89732
 H495 H 0.78558 0.95515 0.88359
 H496 H 0.68884 0.81031 0.84636
 C497 C 0.18745 0.41183 0.41771
 C498 C 0.21264 0.43556 0.41774
 C499 C 0.23873 0.43274 0.38816
 C500 C 0.23991 0.40626 0.35914
 C501 C 0.21515 0.38178 0.36028
 C502 C 0.18886 0.38498 0.38946
 C503 C 0.21743 0.35424 0.33263
 C504 C 0.24380 0.35118 0.30337
 C505 C 0.26744 0.37643 0.30148
 C506 C 0.26566 0.40360 0.32928
 H507 H 0.25802 0.45122 0.38767
 H508 H 0.16954 0.36658 0.39063
 H509 H 0.19892 0.33503 0.33417
 H510 H 0.28469 0.42227 0.32777
 H511 H 0.16712 0.41355 0.44027
 H512 H 0.28808 0.37454 0.27934
 C513 C 0.22516 0.07936 0.89926
 C514 C 0.25755 0.07237 0.91782
 C515 C 0.28505 0.09116 0.90517
 C516 C 0.27994 0.11710 0.87556
 C517 C 0.24737 0.12334 0.85698
 C518 C 0.22028 0.10420 0.86883
 C519 C 0.24212 0.14925 0.82756
 C520 C 0.26856 0.17006 0.81762
 C521 C 0.30073 0.16415 0.83659
 C522 C 0.30655 0.13750 0.86488
 H523 H 0.31012 0.08651 0.91925
 H524 H 0.19511 0.10883 0.85504
 H525 H 0.21703 0.15414 0.81356
 H526 H 0.33164 0.13329 0.87898
 H527 H 0.20342 0.06541 0.90796
 H528 H 0.32136 0.18007 0.82937
 C529 C 0.74769 0.56651 0.38645
 C530 C 0.77457 0.56587 0.41499
 C531 C 0.79801 0.59133 0.41361
 C532 C 0.79377 0.61798 0.38487
 C533 C 0.76656 0.61836 0.35632
 C534 C 0.74395 0.59229 0.35703
 C535 C 0.76169 0.64533 0.32830
 C536 C 0.78291 0.67268 0.32916
 C537 C 0.80992 0.67219 0.35758
 C538 C 0.81556 0.64485 0.38492
 H539 H 0.81857 0.59116 0.43590
 H540 H 0.72291 0.59227 0.33544
 H541 H 0.74049 0.64567 0.30686
 H542 H 0.83647 0.64508 0.40666
 H543 H 0.72947 0.54702 0.38696
 H544 H 0.82658 0.69303 0.35873
 C545 C 0.09869 0.67870 0.90839
 C546 C 0.07726 0.70828 0.91813
 C547 C 0.08343 0.73950 0.89906
 C548 C 0.11055 0.74128 0.87131
 C549 C 0.13281 0.71178 0.86327
 C550 C 0.12646 0.68057 0.88173
 C551 C 0.16098 0.71412 0.83696
 C552 C 0.16616 0.74528 0.81745
 C553 C 0.14311 0.77403 0.82447
 C554 C 0.11580 0.77220 0.85157
 H555 H 0.06700 0.76252 0.90546
 H556 H 0.14301 0.65760 0.87561
 H557 H 0.17856 0.69178 0.83125
 H558 H 0.09881 0.79499 0.85713
 H559 H 0.09471 0.65422 0.92234
 H560 H 0.14683 0.79828 0.80977
 C561 C 0.59671 0.18508 0.40985
 C562 C 0.57181 0.21292 0.41210
 C563 C 0.57404 0.24099 0.38573
 C564 C 0.60157 0.24194 0.35851
 C565 C 0.62746 0.21459 0.35787
 C566 C 0.62447 0.18598 0.38308
 C567 C 0.65626 0.21671 0.33275
 C568 C 0.65924 0.24559 0.30783
 C569 C 0.63263 0.27190 0.30733
 C570 C 0.60411 0.27021 0.33268
 H571 H 0.55468 0.26242 0.38698
 H572 H 0.64395 0.16468 0.38273
 H573 H 0.67650 0.19608 0.33290
 H574 H 0.58434 0.29126 0.33261
 H575 H 0.59545 0.16324 0.42998
 H576 H 0.63444 0.29434 0.28832
 C577 C 0.92949 0.23217 0.89000
 C578 C 0.92896 0.26180 0.91430
 C579 C 0.90264 0.28798 0.90885
 C580 C 0.87629 0.28398 0.88048
 C581 C 0.87705 0.25403 0.85615
 C582 C 0.90400 0.22849 0.86079
 C583 C 0.85026 0.24958 0.82858
 C584 C 0.82204 0.27404 0.82617
 C585 C 0.82148 0.30371 0.85041
 C586 C 0.84860 0.30887 0.87697
 H587 H 0.90188 0.31072 0.92787
 H588 H 0.90493 0.20534 0.84252
 H589 H 0.85061 0.22641 0.81034
 H590 H 0.84752 0.33191 0.89546
 H591 H 0.94968 0.21177 0.89369
 H592 H 0.79994 0.32289 0.84889
 C593 C 0.42881 0.72289 0.38763
 C594 C 0.42897 0.75039 0.41519
 C595 C 0.40265 0.77702 0.41319
 C596 C 0.37588 0.77563 0.38470
 C597 C 0.37612 0.74790 0.35694
 C598 C 0.40284 0.72184 0.35844
 C599 C 0.34919 0.74621 0.32884
 C600 C 0.32132 0.77121 0.32897
 C601 C 0.32114 0.79856 0.35679
 C602 C 0.34840 0.80100 0.38410
 H603 H 0.40240 0.79813 0.43468
 H604 H 0.40335 0.70034 0.33752
 H605 H 0.34930 0.72473 0.30788
 H606 H 0.34768 0.82235 0.40525
 H607 H 0.44892 0.70219 0.38858
 H608 H 0.29989 0.81810 0.35738
 C609 C 0.30630 0.90923 0.09067
 C610 C 0.27767 0.93332 0.08990
 C611 C 0.25065 0.92990 0.11749
 C612 C 0.25160 0.90216 0.14469
 C613 C 0.27970 0.87706 0.14392
 C614 C 0.30720 0.88116 0.11727
 C615 C 0.27939 0.84800 0.16914
 C616 C 0.25162 0.84412 0.19563
 C617 C 0.22464 0.87006 0.19739
 C618 C 0.22450 0.89869 0.17196
 H619 H 0.22861 0.94860 0.11736
 H620 H 0.32909 0.86234 0.11646
 H621 H 0.30047 0.82827 0.16782
 H622 H 0.20289 0.91782 0.17313
 H623 H 0.32735 0.91136 0.06957
 H624 H 0.20293 0.86761 0.21744
 C625 C 0.81112 0.40206 0.59207
 C626 C 0.78256 0.42601 0.58838
 C627 C 0.75403 0.42333 0.61396
 C628 C 0.75354 0.39638 0.64209
 C629 C 0.78174 0.37148 0.64424
 C630 C 0.81062 0.37484 0.61960
 C631 C 0.78025 0.34323 0.67030
 C632 C 0.75114 0.33978 0.69468
 C633 C 0.72393 0.36546 0.69377
 C634 C 0.72502 0.39346 0.66746
 H635 H 0.73207 0.44199 0.61161
 H636 H 0.83256 0.35611 0.62111
 H637 H 0.80152 0.32368 0.67121
 H638 H 0.70330 0.41247 0.66640
 H639 H 0.83333 0.40370 0.57261
 H640 H 0.70126 0.36324 0.71230
 C641 C 0.76695 0.06493 0.12017
 C642 C 0.73883 0.06605 0.09332
 C643 C 0.71290 0.09286 0.09641
 C644 C 0.71600 0.11941 0.12471
 C645 C 0.74460 0.11823 0.15137
 C646 C 0.76958 0.09055 0.14937
 C647 C 0.74853 0.14542 0.17841
 C648 C 0.72498 0.17444 0.17808
 C649 C 0.69649 0.17531 0.15176
 C650 C 0.69179 0.14782 0.12565
 H651 H 0.69142 0.09404 0.07532
 H652 H 0.79169 0.08928 0.16949
 H653 H 0.77079 0.14474 0.19830
 H654 H 0.66977 0.14922 0.10538
 H655 H 0.78713 0.04435 0.11819
 H656 H 0.67796 0.19742 0.15119
 C657 C 0.18002 0.60550 0.58623
 C658 C 0.20897 0.58186 0.58393
 C659 C 0.23761 0.58660 0.60866
 C660 C 0.23757 0.61493 0.63496
 C661 C 0.20884 0.63932 0.63590
 C662 C 0.18005 0.63415 0.61173
 C663 C 0.20958 0.66861 0.66062
 C664 C 0.23834 0.67338 0.68516
 C665 C 0.26620 0.64834 0.68511
 C666 C 0.26596 0.61952 0.65998
 H667 H 0.25992 0.56829 0.60735
 H668 H 0.15772 0.65243 0.61225
 H669 H 0.18785 0.68766 0.66077
 H670 H 0.28810 0.60100 0.65985
 H671 H 0.15772 0.60238 0.56731
 H672 H 0.28870 0.65157 0.70367
 C673 C 0.91126 0.67738 0.08516
 C674 C 0.93293 0.70435 0.08344
 C675 C 0.92728 0.73220 0.11031
 C676 C 0.89991 0.73353 0.13806
 C677 C 0.87733 0.70699 0.13853
 C678 C 0.88348 0.67882 0.11225
 C679 C 0.84881 0.70938 0.16485
 C680 C 0.84312 0.73761 0.19128
 C681 C 0.86652 0.76313 0.19151
 C682 C 0.89449 0.76125 0.16496
 H683 H 0.94413 0.75293 0.10949
 H684 H 0.86662 0.65811 0.11234
 H685 H 0.83104 0.68944 0.16467
 H686 H 0.91167 0.78169 0.16515
 H687 H 0.91516 0.65571 0.06464
 H688 H 0.86259 0.78520 0.21143
 C689 C 0.43254 0.25330 0.61339
 C690 C 0.43259 0.22552 0.58622
 C691 C 0.40647 0.20289 0.58873
 C692 C 0.37968 0.20890 0.61708
 C693 C 0.37983 0.23711 0.64409
 C694 C 0.40663 0.25883 0.64240
 C695 C 0.35271 0.24380 0.67159
 C696 C 0.32477 0.22330 0.67186
 C697 C 0.32479 0.19525 0.64502
 C698 C 0.35218 0.18791 0.61810
 H699 H 0.40618 0.18165 0.56748
 H700 H 0.40709 0.28058 0.66284
 H701 H 0.35287 0.26569 0.69189
 H702 H 0.35154 0.16624 0.59758
 H703 H 0.45254 0.27094 0.61196
 H704 H 0.30358 0.17901 0.64479
 C705 C 0.06964 0.24685 0.11863
 C706 C 0.06766 0.27198 0.08791
 C707 C 0.09237 0.29622 0.08661
 C708 C 0.11973 0.29431 0.11465
 C709 C 0.12159 0.26866 0.14518
 C710 C 0.09612 0.24545 0.14731
 C711 C 0.14951 0.26580 0.17219
 C712 C 0.17636 0.28746 0.16839
 C713 C 0.17422 0.31309 0.13821
 C714 C 0.14596 0.31673 0.11184
 H715 H 0.09120 0.31543 0.06268
 H716 H 0.09719 0.22562 0.17048
 H717 H 0.15103 0.24568 0.19504
 H718 H 0.14505 0.33648 0.08859
 H719 H 0.05077 0.22804 0.12023
 H720 H 0.19459 0.33011 0.13475
 C721 C 0.57803 0.71940 0.61047
 C722 C 0.57227 0.74848 0.58546
 C723 C 0.59264 0.77622 0.59072
 C724 C 0.61916 0.77450 0.61983
 C725 C 0.62469 0.74510 0.64483
 C726 C 0.60378 0.71786 0.64016
 C727 C 0.65166 0.74297 0.67325
 C728 C 0.67401 0.76930 0.67608
 C729 C 0.66831 0.79846 0.65120
 C730 C 0.64087 0.80123 0.62365
 H731 H 0.58858 0.79864 0.57134
 H732 H 0.60772 0.69510 0.65897
 H733 H 0.65617 0.72014 0.69189
 H734 H 0.63711 0.82391 0.60467
 H735 H 0.56252 0.69781 0.60713
 H736 H 0.68527 0.81903 0.65288
   
