data_POSCAR
  _audit_creation_date              2014-09-24
  _audit_creation_method            'ToBaCCo'
  _symmetry_space_group_name_H-M    'P1'
  _symmetry_Int_Tables_number       1
  _symmetry_cell_setting            triclinic
  loop_
  _symmetry_equiv_pos_as_xyz
 x,y,z
_cell_length_a 48.5259
_cell_length_b 48.4988
_cell_length_c 55.9526
_cell_angle_alpha 90.052900
_cell_angle_beta 89.973200
_cell_angle_gamma 120.023300
loop_
  _atom_site_label
  _atom_site_type_symbol
  _atom_site_fract_x
  _atom_site_fract_y
  _atom_site_fract_z
O1 O 0.03035 0.53719 1.27296
 O2 O -0.03110 0.50636 1.22598
 O3 O -0.03158 0.50624 1.27252
 O4 O 0.03082 0.53748 1.22642
 O5 O 0.03054 0.49187 1.22615
 O6 O -0.03128 0.46092 1.27275
 O7 O -0.03138 0.46079 1.22621
 O8 O 0.03065 0.49186 1.27269
 Cu9 Cu -0.00038 0.52637 1.24947
 Cu10 Cu -0.00037 0.47181 1.24945
 C11 C 0.04106 0.51980 1.28085
 C12 C -0.04186 0.47825 1.21802
 C13 C -0.04204 0.47828 1.28061
 C14 C 0.04130 0.52000 1.21832
 O15 O 0.46176 0.49249 1.27369
 O16 O 0.49257 0.46173 1.22673
 O17 O 0.49263 0.46142 1.27328
 O18 O 0.46148 0.49258 1.22713
 O19 O 0.50708 0.53794 1.22691
 O20 O 0.53794 0.50706 1.27357
 O21 O 0.53817 0.50708 1.22702
 O22 O 0.50702 0.53809 1.27347
 Cu23 Cu 0.47256 0.47250 1.25021
 Cu24 Cu 0.52710 0.52710 1.25025
 C25 C 0.47908 0.52061 1.28166
 C26 C 0.52068 0.47913 1.21885
 C27 C 0.52058 0.47892 1.28140
 C28 C 0.47897 0.52055 1.21904
 O29 O 0.50703 0.96842 1.27408
 O30 O 0.53795 1.02996 1.22714
 O31 O 0.53821 1.03041 1.27369
 O32 O 0.50694 0.96798 1.22752
 O33 O 0.46169 0.96837 1.22726
 O34 O 0.49270 1.03020 1.27396
 O35 O 0.49271 1.03035 1.22740
 O36 O 0.46152 0.96821 1.27381
 Cu37 Cu 0.52707 0.99918 1.25061
 Cu38 Cu 0.47262 0.99929 1.25061
 C39 C 0.47892 0.95768 1.28202
 C40 C 0.52063 1.04072 1.21924
 C41 C 0.52082 1.04098 1.28186
 C42 C 0.47901 0.95756 1.21940
 O43 O 0.96959 0.50683 0.72611
 O44 O 1.03142 0.53779 0.77275
 O45 O 1.03155 0.53794 0.72619
 O46 O 0.96947 0.50685 0.77268
 O47 O 0.96977 0.46153 0.77288
 O48 O 1.03127 0.49237 0.72589
 O49 O 1.03172 0.49247 0.77245
 O50 O 0.96932 0.46122 0.72631
 Cu51 Cu 1.00050 0.52690 0.74943
 Cu52 Cu 1.00052 0.47235 0.74938
 C53 C 0.95883 0.47870 0.71824
 C54 C 1.04218 0.52043 0.78058
 C55 C 1.04203 0.52049 0.71795
 C56 C 0.95906 0.47891 0.78081
 O57 O 0.49277 0.46105 0.72652
 O58 O 0.46195 0.49203 0.77317
 O59 O 0.46177 0.49198 0.72663
 O60 O 0.49280 0.46095 0.77307
 O61 O 0.53814 0.50657 0.77329
 O62 O 0.50739 0.53731 0.72638
 O63 O 0.50729 0.53765 0.77292
 O64 O 0.53839 0.50639 0.72675
 Cu65 Cu 0.47276 0.47194 0.74985
 Cu66 Cu 0.52736 0.52654 0.74984
 C67 C 0.52088 0.47841 0.71866
 C68 C 0.47933 0.52017 0.78103
 C69 C 0.47929 0.51991 0.71848
 C70 C 0.52074 0.47847 0.78120
 O71 O 0.53818 0.02981 0.72613
 O72 O 0.50733 -0.03196 0.77277
 O73 O 0.50726 -0.03216 0.72622
 O74 O 0.53837 0.03000 0.77267
 O75 O 0.49278 0.02970 0.77296
 O76 O 0.46200 -0.03188 0.72600
 O77 O 0.46173 -0.03226 0.77255
 O78 O 0.49286 0.03008 0.72641
 Cu79 Cu 0.52734 -0.00108 0.74944
 Cu80 Cu 0.47279 -0.00109 0.74948
 C81 C 0.52081 0.04055 0.71830
 C82 C 0.47922 -0.04271 0.78064
 C83 C 0.47932 -0.04266 0.71803
 C84 C 0.52088 0.04042 0.78085
 O85 O 0.37995 0.66785 0.97240
 O86 O 0.38136 0.72156 0.97999
 C87 C 0.36154 0.72578 0.96794
 O88 O 0.33197 0.71108 0.97238
 O89 O 0.27826 0.65877 0.97985
 C90 C 0.27405 0.63470 0.96780
 O91 O 0.28873 0.61983 0.97227
 O92 O 0.34098 0.61841 0.97991
 C93 C 0.36508 0.63827 0.96792
 O94 O 0.38125 0.65877 1.01991
 O95 O 0.37983 0.71106 1.02749
 C96 C 0.36496 0.72576 1.03195
 O97 O 0.34092 0.72153 1.01989
 O98 O 0.28862 0.66779 1.02737
 C99 C 0.27391 0.63821 1.03179
 O100 O 0.27816 0.61837 1.01975
 O101 O 0.33183 0.61979 1.02740
 C102 C 0.36138 0.63468 1.03190
 Cr103 Cr 0.37887 0.68895 0.99994
 Cr104 Cr 0.31081 0.68893 0.99987
 Cr105 Cr 0.31079 0.62083 0.99983
 O106 O 0.33349 0.66623 0.99989
 O107 O 0.62049 0.33114 0.97262
 O108 O 0.61910 0.27738 0.97998
 C109 C 0.63889 0.27297 0.96805
 O110 O 0.66844 0.28758 0.97257
 O111 O 0.72220 0.33998 0.97990
 C112 C 0.72663 0.36422 0.96801
 O113 O 0.71205 0.37919 0.97258
 O114 O 0.65969 0.38055 0.97997
 C115 C 0.63545 0.36070 0.96807
 O116 O 0.61915 0.34002 1.02018
 O117 O 0.62053 0.28765 1.02755
 C118 C 0.63548 0.27305 1.03208
 O119 O 0.65968 0.27744 1.02014
 O120 O 0.71208 0.33122 1.02747
 C121 C 0.72666 0.36079 1.03202
 O122 O 0.72224 0.38060 1.02014
 O123 O 0.66851 0.37924 1.02754
 C124 C 0.63896 0.36427 1.03208
 Cr125 Cr 0.62158 0.30993 1.00008
 Cr126 Cr 0.68972 0.30994 1.00002
 Cr127 Cr 0.68974 0.37813 1.00006
 O128 O 0.66702 0.33267 1.00006
 O129 O 0.66817 0.37881 0.52722
 O130 O 0.72187 0.38026 0.51962
 C131 C 0.72611 0.36042 0.53162
 O132 O 0.71139 0.33084 0.52714
 O133 O 0.65910 0.27712 0.51954
 C134 C 0.63500 0.27286 0.53155
 O135 O 0.62012 0.28754 0.52709
 O136 O 0.61876 0.33987 0.51961
 C137 C 0.63861 0.36393 0.53167
 O138 O 0.65914 0.38030 0.47973
 O139 O 0.71139 0.37886 0.47213
 C140 C 0.72606 0.36398 0.46763
 O141 O 0.72183 0.33989 0.47963
 O142 O 0.66813 0.28756 0.47205
 C143 C 0.63857 0.27287 0.46757
 O144 O 0.61874 0.27714 0.47957
 O145 O 0.62020 0.33089 0.47209
 C146 C 0.63507 0.36048 0.46768
 Cr147 Cr 0.68928 0.37783 0.49967
 Cr148 Cr 0.68925 0.30972 0.49959
 Cr149 Cr 0.62118 0.30972 0.49959
 O150 O 0.66657 0.33242 0.49962
 O151 O 0.33177 0.61959 0.52719
 O152 O 0.27802 0.61821 0.51994
 C153 C 0.27360 0.63802 0.53186
 O154 O 0.28818 0.66758 0.52732
 O155 O 0.34057 0.72135 0.51998
 C156 C 0.36484 0.72579 0.53182
 O157 O 0.37980 0.71122 0.52721
 O158 O 0.38112 0.65881 0.51980
 C159 C 0.36133 0.63457 0.53171
 O160 O 0.34045 0.61819 0.47959
 O161 O 0.28809 0.61958 0.47236
 C162 C 0.27354 0.63457 0.46784
 O163 O 0.27799 0.65882 0.47975
 O164 O 0.33173 0.71124 0.47240
 C165 C 0.36127 0.72581 0.46781
 O166 O 0.38108 0.72134 0.47965
 O167 O 0.37966 0.66757 0.47225
 C168 C 0.36468 0.63800 0.46769
 Cr169 Cr 0.31047 0.62066 0.49977
 Cr170 Cr 0.31050 0.68886 0.49986
 Cr171 Cr 0.37865 0.68885 0.49973
 O172 O 0.33321 0.66613 0.49979
 C173 C 0.44404 0.55598 0.33607
 C174 C 0.42525 0.52485 0.32726
 C175 C 0.43670 0.51321 0.30924
 C176 C 0.46737 0.53239 0.29961
 C177 C 0.48612 0.56360 0.30846
 C178 C 0.47457 0.57523 0.32640
 C179 C 0.43198 0.56825 0.35532
 N180 N 0.44928 0.59894 0.36283
 N181 N 0.43856 0.60991 0.38021
 C182 C 0.41009 0.59067 0.39087
 N183 N 0.39277 0.55998 0.38335
 N184 N 0.40347 0.54902 0.36594
 C185 C 0.39829 0.60284 0.41037
 C186 C 0.36999 0.58229 0.42260
 C187 C 0.35908 0.59369 0.44115
 C188 C 0.37615 0.62594 0.44790
 C189 C 0.40434 0.64653 0.43557
 C190 C 0.41530 0.63510 0.41707
 H191 H 0.40159 0.50937 0.33425
 H192 H 0.42146 0.48908 0.30298
 H193 H 0.50982 0.57920 0.30157
 H194 H 0.48973 0.59931 0.33277
 H195 H 0.35627 0.55731 0.41793
 H196 H 0.33723 0.57718 0.45021
 H197 H 0.41809 0.67151 0.44027
 H198 H 0.43715 0.65163 0.40803
 C199 C 0.44340 0.88728 0.33638
 C200 C 0.42422 0.89864 0.32671
 C201 C 0.43590 0.92180 0.30878
 C202 C 0.46709 0.93421 0.29996
 C203 C 0.48619 0.92264 0.30960
 C204 C 0.47450 0.89955 0.32759
 C205 C 0.43108 0.86294 0.35561
 N206 N 0.45025 0.85359 0.36621
 N207 N 0.43926 0.83192 0.38359
 C208 C 0.40860 0.81863 0.39111
 N209 N 0.38942 0.82793 0.38048
 N210 N 0.40042 0.84963 0.36313
 C211 C 0.39642 0.79465 0.41060
 C212 C 0.36419 0.77946 0.41733
 C213 C 0.35276 0.75705 0.43579
 C214 C 0.37331 0.74937 0.44806
 C215 C 0.40552 0.76449 0.44129
 C216 C 0.41692 0.78681 0.42276
 H217 H 0.40016 0.88975 0.33306
 H218 H 0.42036 0.92997 0.30189
 H219 H 0.51031 0.93148 0.30335
 H220 H 0.48993 0.89132 0.33459
 H221 H 0.34770 0.78485 0.40833
 H222 H 0.32781 0.74586 0.44052
 H223 H 0.42200 0.75909 0.45029
 H224 H 0.44188 0.79803 0.41808
 C225 C 0.11245 0.55536 0.33619
 C226 C 0.09932 0.57372 0.32801
 C227 C 0.07627 0.56226 0.30998
 C228 C 0.06574 0.53213 0.29976
 C229 C 0.07890 0.51379 0.30789
 C230 C 0.10201 0.52528 0.32586
 C231 C 0.13672 0.56739 0.35545
 N232 N 0.15060 0.55041 0.36255
 N233 N 0.17224 0.56110 0.37995
 C234 C 0.18091 0.58921 0.39104
 N235 N 0.16705 0.60621 0.38393
 N236 N 0.14544 0.59554 0.36650
 C237 C 0.20482 0.60098 0.41056
 C238 C 0.21229 0.62906 0.42302
 C239 C 0.23457 0.63996 0.44157
 C240 C 0.25001 0.62309 0.44808
 C241 C 0.24267 0.59510 0.43553
 C242 C 0.22032 0.58415 0.41702
 H243 H 0.10681 0.59700 0.33552
 H244 H 0.06661 0.57699 0.30413
 H245 H 0.07134 0.49049 0.30038
 H246 H 0.11157 0.51047 0.33172
 H247 H 0.20082 0.64263 0.41853
 H248 H 0.23970 0.66165 0.45080
 H249 H 0.25412 0.58151 0.44004
 H250 H 0.21522 0.56247 0.40780
 C251 C 0.55617 0.44278 0.33638
 C252 C 0.57451 0.47435 0.32830
 C253 C 0.56304 0.48603 0.31038
 C254 C 0.53292 0.46645 0.30017
 C255 C 0.51461 0.43488 0.30819
 C256 C 0.52611 0.42317 0.32605
 C257 C 0.56819 0.43045 0.35554
 N258 N 0.55125 0.39953 0.36252
 N259 N 0.56192 0.38850 0.37987
 C260 C 0.58997 0.40793 0.39100
 N261 N 0.60692 0.43885 0.38400
 N262 N 0.59628 0.44987 0.36664
 C263 C 0.60168 0.39573 0.41047
 C264 C 0.62964 0.41636 0.42302
 C265 C 0.64048 0.40493 0.44155
 C266 C 0.62366 0.37256 0.44794
 C267 C 0.59581 0.35188 0.43529
 C268 C 0.58492 0.36334 0.41681
 H269 H 0.59778 0.49011 0.33581
 H270 H 0.57774 0.51047 0.30461
 H271 H 0.49132 0.41917 0.30068
 H272 H 0.51133 0.39875 0.33184
 H273 H 0.64315 0.44144 0.41862
 H274 H 0.66207 0.42150 0.45087
 H275 H 0.58228 0.32681 0.43972
 H276 H 0.56333 0.34675 0.40750
 C277 C 0.55645 0.11165 0.33601
 C278 C 0.57561 0.10027 0.32635
 C279 C 0.56391 0.07702 0.30848
 C280 C 0.53269 0.06457 0.29970
 C281 C 0.51361 0.07618 0.30931
 C282 C 0.52533 0.09936 0.32725
 C283 C 0.56877 0.13602 0.35520
 N284 N 0.54959 0.14533 0.36585
 N285 N 0.56059 0.16700 0.38325
 C286 C 0.59126 0.18034 0.39072
 N287 N 0.61047 0.17109 0.38002
 N288 N 0.59945 0.14939 0.36265
 C289 C 0.60344 0.20426 0.41022
 C290 C 0.63570 0.21952 0.41686
 C291 C 0.64713 0.24187 0.43538
 C292 C 0.62654 0.24940 0.44777
 C293 C 0.59430 0.23421 0.44109
 C294 C 0.58290 0.21195 0.42251
 H295 H 0.59969 0.10918 0.33268
 H296 H 0.57943 0.06881 0.30160
 H297 H 0.48948 0.06731 0.30309
 H298 H 0.50992 0.10763 0.33424
 H299 H 0.65221 0.21423 0.40775
 H300 H 0.67210 0.25312 0.44005
 H301 H 0.57780 0.23952 0.45020
 H302 H 0.55792 0.20067 0.41789
 C303 C 0.88637 0.44266 0.33569
 C304 C 0.89678 0.47271 0.32538
 C305 C 0.91994 0.48422 0.30747
 C306 C 0.93316 0.46591 0.29939
 C307 C 0.92263 0.43578 0.30956
 C308 C 0.89953 0.42430 0.32753
 C309 C 0.86214 0.43066 0.35494
 N310 N 0.85353 0.40259 0.36602
 N311 N 0.83199 0.39198 0.38348
 C312 C 0.81810 0.40896 0.39059
 N313 N 0.82666 0.43699 0.37947
 N314 N 0.84823 0.44763 0.36203
 C315 C 0.79434 0.39729 0.41017
 C316 C 0.77879 0.41408 0.41663
 C317 C 0.75658 0.40322 0.43520
 C318 C 0.74945 0.37538 0.44782
 C319 C 0.76493 0.35854 0.44132
 C320 C 0.78708 0.36934 0.42270
 H321 H 0.88718 0.48751 0.33123
 H322 H 0.92751 0.50752 0.29998
 H323 H 0.93235 0.42108 0.30373
 H324 H 0.89205 0.40103 0.33503
 H325 H 0.78375 0.43566 0.40734
 H326 H 0.74508 0.41677 0.43972
 H327 H 0.75995 0.33695 0.45062
 H328 H 0.79859 0.35582 0.41821
 C329 C 0.55675 0.44361 1.16358
 C330 C 0.52524 0.42522 1.17175
 C331 C 0.51358 0.43667 1.18975
 C332 C 0.53312 0.46683 1.19996
 C333 C 0.56463 0.48520 1.19184
 C334 C 0.57632 0.47371 1.17390
 C335 C 0.56907 0.43158 1.14435
 N336 N 0.59994 0.44858 1.13725
 N337 N 0.61095 0.43788 1.11989
 C338 C 0.59156 0.40973 1.10883
 N339 N 0.56069 0.39272 1.11593
 N340 N 0.54969 0.40339 1.13332
 C341 C 0.60376 0.39794 1.08934
 C342 C 0.58318 0.36982 1.07690
 C343 C 0.59459 0.35890 1.05837
 C344 C 0.62691 0.37578 1.05185
 C345 C 0.64754 0.40380 1.06438
 C346 C 0.63610 0.41477 1.08286
 H347 H 0.50949 0.40192 1.16425
 H348 H 0.48918 0.42192 1.19559
 H349 H 0.58033 0.50852 1.19934
 H350 H 0.60070 0.48854 1.16805
 H351 H 0.55814 0.35625 1.08139
 H352 H 0.57804 0.33719 1.04916
 H353 H 0.67257 0.41739 1.05985
 H354 H 0.65266 0.43648 1.09206
 C355 C 0.88785 0.44283 1.16360
 C356 C 0.89914 0.42361 1.17327
 C357 C 0.92228 0.43525 1.19122
 C358 C 0.93469 0.46646 1.20007
 C359 C 0.92318 0.48560 1.19044
 C360 C 0.90013 0.47395 1.17242
 C361 C 0.86355 0.43055 1.14435
 N362 N 0.85426 0.44977 1.13374
 N363 N 0.83263 0.43880 1.11633
 C364 C 0.81932 0.40812 1.10880
 N365 N 0.82856 0.38889 1.11944
 N366 N 0.85022 0.39987 1.13683
 C367 C 0.79539 0.39595 1.08929
 C368 C 0.78018 0.36370 1.08257
 C369 C 0.75781 0.35227 1.06408
 C370 C 0.75019 0.37285 1.05178
 C371 C 0.76534 0.40509 1.05854
 C372 C 0.78762 0.41649 1.07709
 H373 H 0.89025 0.39953 1.16689
 H374 H 0.93040 0.41967 1.19811
 H375 H 0.93204 0.50973 1.19671
 H376 H 0.89193 0.48941 1.16542
 H377 H 0.78552 0.34718 1.09160
 H378 H 0.74660 0.32730 1.05936
 H379 H 0.75997 0.42159 1.04951
 H380 H 0.79886 0.44147 1.08177
 C381 C 0.55625 0.11211 1.16388
 C382 C 0.52622 0.10174 1.17421
 C383 C 0.51471 0.07864 1.19219
 C384 C 0.53298 0.06542 1.20034
 C385 C 0.56308 0.07589 1.19011
 C386 C 0.57456 0.09892 1.17207
 C387 C 0.56829 0.13636 1.14459
 N388 N 0.59639 0.14501 1.13353
 N389 N 0.60707 0.16660 1.11609
 C390 C 0.59013 0.18051 1.10897
 N391 N 0.56206 0.17191 1.12006
 N392 N 0.55137 0.15030 1.13748
 C393 C 0.60190 0.20440 1.08942
 C394 C 0.58514 0.21996 1.08295
 C395 C 0.59608 0.24229 1.06443
 C396 C 0.62401 0.24954 1.05186
 C397 C 0.64082 0.23405 1.05838
 C398 C 0.62993 0.21179 1.07695
 H399 H 0.51145 0.11134 1.16835
 H400 H 0.49143 0.07113 1.19970
 H401 H 0.57776 0.06618 1.19597
 H402 H 0.59781 0.10636 1.16456
 H403 H 0.56350 0.21492 1.09218
 H404 H 0.58253 0.25377 1.05991
 H405 H 0.66247 0.23911 1.04913
 H406 H 0.64345 0.20028 1.08144
 C407 C 0.44300 0.55607 1.16389
 C408 C 0.47450 0.57446 1.17206
 C409 C 0.48612 0.56302 1.19005
 C410 C 0.46654 0.53289 1.20023
 C411 C 0.43502 0.51453 1.19214
 C412 C 0.42337 0.52601 1.17420
 C413 C 0.43076 0.56803 1.14462
 N414 N 0.39989 0.55104 1.13752
 N415 N 0.38896 0.56165 1.12008
 C416 C 0.40842 0.58970 1.10896
 N417 N 0.43928 0.60672 1.11608
 N418 N 0.45021 0.59612 1.13354
 C419 C 0.39632 0.60136 1.08938
 C420 C 0.41700 0.62933 1.07686
 C421 C 0.40567 0.64013 1.05823
 C422 C 0.37336 0.62327 1.05172
 C423 C 0.35264 0.59541 1.06433
 C424 C 0.36400 0.58455 1.08291
 H425 H 0.49028 0.59773 1.16456
 H426 H 0.51053 0.57775 1.19589
 H427 H 0.41930 0.49123 1.19963
 H428 H 0.39899 0.51119 1.16835
 H429 H 0.44204 0.64287 1.08135
 H430 H 0.42228 0.66173 1.04895
 H431 H 0.32761 0.58185 1.05980
 H432 H 0.34738 0.56296 1.09219
 C433 C 0.11301 0.55612 1.16333
 C434 C 0.10255 0.57573 1.17364
 C435 C 0.07934 0.56403 1.19152
 C436 C 0.06612 0.53247 1.19955
 C437 C 0.07669 0.51290 1.18937
 C438 C 0.09984 0.52458 1.17143
 C439 C 0.13732 0.56842 1.14413
 N440 N 0.14599 0.54900 1.13304
 N441 N 0.16761 0.55999 1.11564
 C442 C 0.18153 0.59089 1.10860
 N443 N 0.17291 0.61033 1.11973
 N444 N 0.15126 0.59933 1.13711
 C445 C 0.20539 0.60305 1.08909
 C446 C 0.22097 0.63542 1.08271
 C447 C 0.24327 0.64685 1.06419
 C448 C 0.25044 0.62615 1.05155
 C449 C 0.23493 0.59380 1.05797
 C450 C 0.21270 0.58240 1.07654
 H451 H 0.11216 0.60014 1.16783
 H452 H 0.07174 0.57973 1.19902
 H453 H 0.06697 0.48847 1.19516
 H454 H 0.10736 0.50882 1.16392
 H455 H 0.21597 0.65202 1.09201
 H456 H 0.25479 0.67191 1.05972
 H457 H 0.23995 0.57722 1.04867
 H458 H 0.20116 0.55733 1.08097
 C459 C 0.44343 0.88604 1.16416
 C460 C 0.47343 0.89638 1.17453
 C461 C 0.48492 0.91951 1.19250
 C462 C 0.46664 0.93278 1.20057
 C463 C 0.43657 0.92231 1.19033
 C464 C 0.42511 0.89925 1.17231
 C465 C 0.43146 0.86183 1.14485
 N466 N 0.40345 0.85328 1.13370
 N467 N 0.39286 0.83176 1.11620
 C468 C 0.40981 0.81783 1.10911
 N469 N 0.43779 0.82633 1.12030
 N470 N 0.44839 0.84787 1.13778
 C471 C 0.39817 0.79406 1.08950
 C472 C 0.41493 0.77847 1.08307
 C473 C 0.40411 0.75626 1.06447
 C474 C 0.37632 0.74917 1.05178
 C475 C 0.35951 0.76469 1.05825
 C476 C 0.37029 0.78684 1.07690
 H477 H 0.48819 0.88675 1.16870
 H478 H 0.50817 0.92702 1.20003
 H479 H 0.42190 0.93207 1.19614
 H480 H 0.40189 0.89182 1.16475
 H481 H 0.43647 0.78340 1.09241
 H482 H 0.41763 0.74473 1.05998
 H483 H 0.33797 0.75973 1.04891
 H484 H 0.35678 0.79839 1.08136
 C485 C 0.55684 0.44274 0.66355
 C486 C 0.52532 0.42439 0.67170
 C487 C 0.51370 0.43588 0.68967
 C488 C 0.53330 0.46603 0.69986
 C489 C 0.56484 0.48434 0.69178
 C490 C 0.57649 0.47281 0.67387
 C491 C 0.56909 0.43072 0.64431
 N492 N 0.59998 0.44766 0.63725
 N493 N 0.61092 0.43701 0.61983
 C494 C 0.59145 0.40896 0.60869
 N495 N 0.56057 0.39199 0.61576
 N496 N 0.54963 0.40263 0.63321
 C497 C 0.60357 0.39726 0.58913
 C498 C 0.58290 0.36931 0.57656
 C499 C 0.59426 0.35850 0.55794
 C500 C 0.62659 0.37532 0.55148
 C501 C 0.64730 0.40317 0.56415
 C502 C 0.63592 0.41403 0.58272
 H503 H 0.50954 0.40110 0.66419
 H504 H 0.48929 0.42119 0.69549
 H505 H 0.58056 0.50765 0.69929
 H506 H 0.60088 0.48760 0.66803
 H507 H 0.55784 0.35579 0.58101
 H508 H 0.57766 0.33691 0.54862
 H509 H 0.67235 0.41671 0.55966
 H510 H 0.65254 0.43562 0.59203
 C511 C 0.55633 0.11218 0.66324
 C512 C 0.57470 0.09902 0.67135
 C513 C 0.56325 0.07591 0.68930
 C514 C 0.53314 0.06535 0.69951
 C515 C 0.51481 0.07856 0.69147
 C516 C 0.52629 0.10173 0.67357
 C517 C 0.56831 0.13645 0.64402
 N518 N 0.55134 0.15036 0.63698
 N519 N 0.56196 0.17198 0.61958
 C520 C 0.59000 0.18059 0.60844
 N521 N 0.60699 0.16670 0.61549
 N522 N 0.59638 0.14512 0.63292
 C523 C 0.60167 0.20442 0.58890
 C524 C 0.62962 0.21173 0.57636
 C525 C 0.64043 0.23393 0.55778
 C526 C 0.62359 0.24941 0.55132
 C527 C 0.59574 0.24224 0.56396
 C528 C 0.58488 0.21997 0.58249
 H529 H 0.59796 0.10654 0.66382
 H530 H 0.57796 0.06620 0.69510
 H531 H 0.49152 0.07096 0.69899
 H532 H 0.51149 0.11132 0.66776
 H533 H 0.64315 0.20022 0.58081
 H534 H 0.66203 0.23895 0.54847
 H535 H 0.58219 0.25373 0.55947
 H536 H 0.56329 0.21496 0.59179
 C537 C 0.88712 0.44255 0.66319
 C538 C 0.89759 0.42295 0.67348
 C539 C 0.92079 0.43467 0.69137
 C540 C 0.93401 0.46622 0.69945
 C541 C 0.92344 0.48578 0.68929
 C542 C 0.90029 0.47410 0.67135
 C543 C 0.86280 0.43024 0.64399
 N544 N 0.85411 0.44965 0.63293
 N545 N 0.83248 0.43866 0.61553
 C546 C 0.81856 0.40776 0.60845
 N547 N 0.82719 0.38832 0.61954
 N548 N 0.84886 0.39933 0.63692
 C549 C 0.79467 0.39557 0.58894
 C550 C 0.77908 0.36320 0.58251
 C551 C 0.75676 0.35178 0.56399
 C552 C 0.74958 0.37247 0.55139
 C553 C 0.76510 0.40482 0.55787
 C554 C 0.78734 0.41622 0.57644
 H555 H 0.88799 0.39855 0.66764
 H556 H 0.92840 0.41896 0.69884
 H557 H 0.93315 0.51021 0.69512
 H558 H 0.89277 0.48985 0.66386
 H559 H 0.78409 0.34661 0.59178
 H560 H 0.74524 0.32671 0.55949
 H561 H 0.76008 0.42140 0.54860
 H562 H 0.79888 0.44129 0.58090
 C563 C 0.44336 0.55541 0.66321
 C564 C 0.47486 0.57379 0.67140
 C565 C 0.48647 0.56235 0.68940
 C566 C 0.46689 0.53222 0.69960
 C567 C 0.43538 0.51386 0.69146
 C568 C 0.42374 0.52534 0.67351
 C569 C 0.43109 0.56743 0.64396
 N570 N 0.40022 0.55045 0.63686
 N571 N 0.38925 0.56112 0.61948
 C572 C 0.40867 0.58924 0.60842
 N573 N 0.43954 0.60624 0.61554
 N574 N 0.45050 0.59558 0.63294
 C575 C 0.39650 0.60099 0.58893
 C576 C 0.41711 0.62907 0.57649
 C577 C 0.40571 0.63997 0.55796
 C578 C 0.37339 0.62310 0.55145
 C579 C 0.35275 0.59511 0.56398
 C580 C 0.36417 0.58417 0.58246
 H581 H 0.49064 0.59707 0.66390
 H582 H 0.51087 0.57709 0.69525
 H583 H 0.41966 0.49056 0.69895
 H584 H 0.39937 0.51052 0.66765
 H585 H 0.44215 0.64264 0.58098
 H586 H 0.42227 0.66165 0.54874
 H587 H 0.32771 0.58153 0.55946
 H588 H 0.34760 0.56249 0.59167
 C589 C 0.44429 0.88698 0.66359
 C590 C 0.42549 0.89927 0.67243
 C591 C 0.43695 0.92234 0.69045
 C592 C 0.46761 0.93386 0.70008
 C593 C 0.48636 0.92143 0.69122
 C594 C 0.47482 0.89828 0.67325
 C595 C 0.43223 0.86267 0.64432
 N596 N 0.44955 0.84934 0.63676
 N597 N 0.43883 0.82768 0.61935
 C598 C 0.41035 0.81843 0.60871
 N599 N 0.39302 0.83175 0.61628
 N600 N 0.40372 0.85338 0.63371
 C601 C 0.39855 0.79451 0.58918
 C602 C 0.37023 0.78673 0.57700
 C603 C 0.35930 0.76445 0.55842
 C604 C 0.37636 0.74931 0.55161
 C605 C 0.40458 0.75694 0.56389
 C606 C 0.41556 0.77930 0.58241
 H607 H 0.40184 0.89107 0.66543
 H608 H 0.42170 0.93121 0.69673
 H609 H 0.51007 0.92956 0.69810
 H610 H 0.48998 0.88937 0.66687
 H611 H 0.35651 0.79796 0.58171
 H612 H 0.33742 0.75909 0.54940
 H613 H 0.41832 0.74573 0.55914
 H614 H 0.43743 0.78465 0.59142
 C615 C 0.11235 0.55593 0.66350
 C616 C 0.10104 0.57515 0.67322
 C617 C 0.07791 0.56350 0.69118
 C618 C 0.06549 0.53229 0.69999
 C619 C 0.07700 0.51315 0.69031
 C620 C 0.10006 0.52481 0.67229
 C621 C 0.13665 0.56822 0.64424
 N622 N 0.14595 0.54901 0.63359
 N623 N 0.16758 0.55999 0.61618
 C624 C 0.18091 0.59067 0.60868
 N625 N 0.17166 0.60989 0.61937
 N626 N 0.15000 0.59890 0.63676
 C627 C 0.20485 0.60285 0.58917
 C628 C 0.22007 0.63511 0.58248
 C629 C 0.24245 0.64654 0.56399
 C630 C 0.25008 0.62596 0.55164
 C631 C 0.23492 0.59372 0.55837
 C632 C 0.21263 0.58232 0.57692
 H633 H 0.10994 0.59923 0.66688
 H634 H 0.06979 0.57908 0.69810
 H635 H 0.06815 0.48902 0.69655
 H636 H 0.10825 0.50935 0.66525
 H637 H 0.21474 0.65162 0.59154
 H638 H 0.25366 0.67151 0.55930
 H639 H 0.24028 0.57722 0.54930
 H640 H 0.20139 0.55734 0.58157
 C641 C 0.44381 0.55630 0.83612
 C642 C 0.42543 0.52476 0.82797
 C643 C 0.43688 0.51308 0.81000
 C644 C 0.46701 0.53265 0.79982
 C645 C 0.48535 0.56420 0.80790
 C646 C 0.47387 0.57591 0.82581
 C647 C 0.43183 0.56859 0.85535
 N648 N 0.44881 0.59949 0.86243
 N649 N 0.43818 0.61048 0.87985
 C650 C 0.41013 0.59103 0.89096
 N651 N 0.39313 0.56014 0.88387
 N652 N 0.40374 0.54917 0.86643
 C653 C 0.39845 0.60319 0.91051
 C654 C 0.37048 0.58252 0.92303
 C655 C 0.35966 0.59390 0.94163
 C656 C 0.37650 0.62624 0.94812
 C657 C 0.40437 0.64695 0.93552
 C658 C 0.41524 0.63555 0.91696
 H659 H 0.40215 0.50900 0.83547
 H660 H 0.42215 0.48865 0.80418
 H661 H 0.50866 0.57991 0.80041
 H662 H 0.48869 0.60031 0.83165
 H663 H 0.35694 0.55746 0.91855
 H664 H 0.33805 0.57731 0.95091
 H665 H 0.41792 0.67201 0.94003
 H666 H 0.43684 0.65215 0.90768
 C667 C 0.11373 0.55602 0.83575
 C668 C 0.10057 0.57438 0.82762
 C669 C 0.07749 0.56292 0.80963
 C670 C 0.06697 0.53280 0.79939
 C671 C 0.08019 0.51448 0.80744
 C672 C 0.10334 0.52598 0.82538
 C673 C 0.13796 0.56801 0.85502
 N674 N 0.15188 0.55105 0.86208
 N675 N 0.17344 0.56168 0.87953
 C676 C 0.18199 0.58971 0.89070
 N677 N 0.16810 0.60669 0.88363
 N678 N 0.14656 0.59608 0.86616
 C679 C 0.20577 0.60138 0.91029
 C680 C 0.21302 0.62932 0.92287
 C681 C 0.23517 0.64013 0.94150
 C682 C 0.25066 0.62330 0.94797
 C683 C 0.24354 0.59546 0.93530
 C684 C 0.22133 0.58461 0.91671
 H685 H 0.10805 0.59764 0.83516
 H686 H 0.06778 0.57762 0.80383
 H687 H 0.07264 0.49119 0.79991
 H688 H 0.11293 0.51118 0.83120
 H689 H 0.20150 0.64285 0.91841
 H690 H 0.24015 0.66171 0.95083
 H691 H 0.25504 0.58192 0.93978
 H692 H 0.21637 0.56303 0.90739
 C693 C 0.44329 0.88585 0.83583
 C694 C 0.47479 0.89900 0.82767
 C695 C 0.48640 0.92203 0.80966
 C696 C 0.46681 0.93253 0.79945
 C697 C 0.43528 0.91932 0.80754
 C698 C 0.42364 0.89621 0.82549
 C699 C 0.43106 0.86168 0.85513
 N700 N 0.40019 0.84777 0.86221
 N701 N 0.38925 0.82625 0.87968
 C702 C 0.40873 0.81775 0.89085
 N703 N 0.43959 0.83163 0.88375
 N704 N 0.45052 0.85312 0.86626
 C705 C 0.39661 0.79402 0.91045
 C706 C 0.41728 0.78680 0.92303
 C707 C 0.40591 0.76468 0.94167
 C708 C 0.37359 0.74918 0.94813
 C709 C 0.35289 0.75627 0.93547
 C710 C 0.36427 0.77846 0.91688
 H711 H 0.49057 0.89154 0.83519
 H712 H 0.51081 0.93175 0.80383
 H713 H 0.41955 0.92686 0.80003
 H714 H 0.39926 0.88663 0.83134
 H715 H 0.44233 0.79833 0.91857
 H716 H 0.42250 0.75971 0.95100
 H717 H 0.32784 0.74476 0.93996
 H718 H 0.34766 0.78339 0.90755
 C719 C 0.55625 0.44256 0.83648
 C720 C 0.57463 0.47406 0.82828
 C721 C 0.56318 0.48567 0.81027
 C722 C 0.53304 0.46608 0.80009
 C723 C 0.51469 0.43457 0.80824
 C724 C 0.52617 0.42293 0.82619
 C725 C 0.56827 0.43030 0.85573
 N726 N 0.55129 0.39943 0.86285
 N727 N 0.56197 0.38848 0.88023
 C728 C 0.59009 0.40792 0.89128
 N729 N 0.60709 0.43878 0.88415
 N730 N 0.59643 0.44973 0.86674
 C731 C 0.60186 0.39577 0.91079
 C732 C 0.62994 0.41641 0.92322
 C733 C 0.64084 0.40504 0.94176
 C734 C 0.62397 0.37273 0.94831
 C735 C 0.59599 0.35205 0.93579
 C736 C 0.58504 0.36344 0.91729
 H737 H 0.59792 0.48984 0.83576
 H738 H 0.57792 0.51006 0.80440
 H739 H 0.49138 0.41884 0.80076
 H740 H 0.51135 0.39856 0.83206
 H741 H 0.64351 0.44146 0.91871
 H742 H 0.66253 0.42163 0.95097
 H743 H 0.58240 0.32701 0.94033
 H744 H 0.56335 0.34684 0.90809
 C745 C 0.88767 0.44339 0.83621
 C746 C 0.89811 0.47345 0.82590
 C747 C 0.92120 0.48493 0.80791
 C748 C 0.93437 0.46659 0.79974
 C749 C 0.92383 0.43647 0.80994
 C750 C 0.90080 0.42502 0.82798
 C751 C 0.86341 0.43137 0.85550
 N752 N 0.85469 0.40322 0.86653
 N753 N 0.83309 0.39257 0.88396
 C754 C 0.81923 0.40956 0.89112
 N755 N 0.82790 0.43767 0.88006
 N756 N 0.84953 0.44835 0.86264
 C757 C 0.79532 0.39780 0.91066
 C758 C 0.77981 0.41461 0.91717
 C759 C 0.75747 0.40367 0.93569
 C760 C 0.75015 0.37570 0.94822
 C761 C 0.76559 0.35883 0.94166
 C762 C 0.78787 0.36973 0.92309
 H763 H 0.88856 0.48827 0.83179
 H764 H 0.92876 0.50823 0.80043
 H765 H 0.93349 0.42174 0.80406
 H766 H 0.89331 0.40174 0.83547
 H767 H 0.78490 0.43629 0.90797
 H768 H 0.74602 0.41726 0.94024
 H769 H 0.76048 0.33715 0.95087
 H770 H 0.79933 0.35616 0.91857
 C771 C 0.55684 0.11187 0.83622
 C772 C 0.57644 0.10143 0.82588
 C773 C 0.56479 0.07831 0.80789
 C774 C 0.53329 0.06514 0.79976
 C775 C 0.51372 0.07568 0.80999
 C776 C 0.52534 0.09874 0.82803
 C777 C 0.56911 0.13615 0.85551
 N778 N 0.54971 0.14486 0.86658
 N779 N 0.56067 0.16647 0.88403
 C780 C 0.59153 0.18034 0.89115
 N781 N 0.61095 0.17167 0.88005
 N782 N 0.59998 0.15004 0.86262
 C783 C 0.60370 0.20425 0.91070
 C784 C 0.63603 0.21977 0.91717
 C785 C 0.64746 0.24213 0.93570
 C786 C 0.62682 0.24943 0.94827
 C787 C 0.59451 0.23397 0.94175
 C788 C 0.58310 0.21169 0.92317
 H789 H 0.60081 0.11099 0.83174
 H790 H 0.58051 0.07074 0.80038
 H791 H 0.48933 0.06602 0.80414
 H792 H 0.50958 0.10624 0.83555
 H793 H 0.65260 0.21469 0.90794
 H794 H 0.67249 0.25359 0.94022
 H795 H 0.57795 0.23908 0.95099
 H796 H 0.55806 0.20021 0.91868
   
