data_POSCAR
  _audit_creation_date              2014-09-24
  _audit_creation_method            'ToBaCCo'
  _symmetry_space_group_name_H-M    'P1'
  _symmetry_Int_Tables_number       1
  _symmetry_cell_setting            triclinic
  loop_
  _symmetry_equiv_pos_as_xyz
 x,y,z
_cell_length_a 57.8332
_cell_length_b 57.8326
_cell_length_c 20.4470
_cell_angle_alpha 90.000000
_cell_angle_beta 90.000000
_cell_angle_gamma 120.000000
loop_
  _atom_site_label
  _atom_site_type_symbol
  _atom_site_fract_x
  _atom_site_fract_y
  _atom_site_fract_z
C1 C 0.18382 0.50007 0.50011
 C2 C 0.19661 0.50012 0.43445
 C3 C 0.22300 0.50000 0.43549
 C4 C 0.23634 0.50000 0.49975
 C5 C 0.22304 0.49997 0.56419
 C6 C 0.19652 0.50012 0.56620
 C7 C 0.26355 0.50000 0.49982
 C8 C 0.27687 0.50002 0.56439
 C9 C 0.30325 0.50000 0.56709
 C10 C 0.31434 0.49906 0.50408
 C11 C 0.30286 0.49972 0.43450
 C12 C 0.27669 0.50008 0.43521
 H13 H 0.16399 0.50001 0.50014
 H14 H 0.23283 0.50000 0.38693
 H15 H 0.23298 0.49999 0.61254
 H16 H 0.26697 0.49999 0.61263
 H17 H 0.30306 0.48771 0.47380
 H18 H 0.26705 0.50001 0.38685
 C19 C 0.49936 -0.31607 0.50143
 C20 C 0.49963 -0.30331 0.43422
 C21 C 0.49994 -0.27695 0.43543
 C22 C 0.49994 -0.26367 0.49976
 C23 C 0.50002 -0.27690 0.56423
 C24 C 0.50026 -0.30332 0.56641
 C25 C 0.49998 -0.23647 0.49983
 C26 C 0.50096 -0.22273 0.56367
 C27 C 0.51021 -0.19320 0.55706
 C28 C 0.50166 -0.18346 0.49717
 C29 C 0.49993 -0.19676 0.43361
 C30 C 0.50001 -0.22312 0.43534
 H31 H 0.49923 -0.33633 0.50197
 H32 H 0.50000 -0.26714 0.38690
 H33 H 0.50000 -0.26700 0.61256
 H34 H 0.50023 -0.23282 0.61251
 H35 H 0.50024 -0.16404 0.49923
 H36 H 0.49999 -0.23293 0.38693
 C37 C 1.31617 0.81613 0.49999
 C38 C 1.30341 0.80341 0.43438
 C39 C 1.27699 0.77697 0.43548
 C40 C 1.26364 0.76364 0.49974
 C41 C 1.27694 0.77686 0.56424
 C42 C 1.30359 0.80315 0.56643
 C43 C 1.23640 0.73641 0.49980
 C44 C 1.22310 0.72312 0.56414
 C45 C 1.19668 0.69662 0.56551
 C46 C 1.18386 0.68382 0.50002
 C47 C 1.19665 0.69660 0.43445
 C48 C 1.22307 0.72309 0.43552
 H49 H 1.33601 0.83598 0.50008
 H50 H 1.26715 0.76715 0.38693
 H51 H 1.26700 0.76700 0.61256
 H52 H 1.23299 0.73301 0.61257
 H53 H 1.16403 0.66403 0.50007
 H54 H 1.23290 0.73291 0.38696
 C55 C 0.81610 0.49998 0.50011
 C56 C 0.80336 0.50004 0.43426
 C57 C 0.77698 0.50002 0.43546
 C58 C 0.76365 0.50001 0.49974
 C59 C 0.77694 0.50005 0.56422
 C60 C 0.80344 0.50003 0.56642
 C61 C 0.73641 0.50001 0.49980
 C62 C 0.72311 0.50000 0.56414
 C63 C 0.69669 0.50010 0.56550
 C64 C 0.68386 0.50005 0.50002
 C65 C 0.69667 0.50010 0.43446
 C66 C 0.72308 0.50000 0.43552
 H67 H 0.83595 0.50021 0.50012
 H68 H 0.76715 0.50000 0.38692
 H69 H 0.76701 0.50001 0.61255
 H70 H 0.73300 0.50001 0.61257
 H71 H 0.66403 0.50000 0.50007
 H72 H 0.73291 0.50000 0.38697
 C73 C 0.49981 0.31596 0.49968
 C74 C 0.49995 0.30335 0.43427
 C75 C 0.49997 0.27696 0.43546
 C76 C 0.49998 0.26363 0.49975
 C77 C 0.49990 0.27683 0.56425
 C78 C 0.49959 0.30307 0.56647
 C79 C 0.50000 0.23639 0.49982
 C80 C 0.50001 0.22308 0.56424
 C81 C 0.50029 0.19663 0.56627
 C82 C 0.50005 0.18386 0.50012
 C83 C 0.50028 0.19678 0.43448
 C84 C 0.50002 0.22309 0.43553
 H85 H 0.49989 0.33592 0.49984
 H86 H 0.50000 0.26715 0.38692
 H87 H 0.49999 0.26700 0.61257
 H88 H 0.49998 0.23299 0.61258
 H89 H 0.49999 0.16402 0.50006
 H90 H 0.49999 0.23290 0.38697
 C91 C 0.68385 0.18380 0.50008
 C92 C 0.69663 0.19649 0.43445
 C93 C 0.72301 0.22301 0.43549
 C94 C 0.73635 0.23636 0.49974
 C95 C 0.72305 0.22311 0.56421
 C96 C 0.69653 0.19657 0.56639
 C97 C 0.76361 0.26359 0.49982
 C98 C 0.77694 0.27684 0.56429
 C99 C 0.80357 0.30313 0.56648
 C100 C 0.81613 0.31599 0.50012
 C101 C 0.80342 0.30300 0.43430
 C102 C 0.77692 0.27686 0.43550
 H103 H 0.66399 0.16406 0.49989
 H104 H 0.73284 0.23284 0.38693
 H105 H 0.73299 0.23299 0.61255
 H106 H 0.76700 0.26698 0.61260
 H107 H 0.83596 0.33593 0.50006
 H108 H 0.76708 0.26708 0.38695
 O109 O 0.96842 0.50026 -0.11677
 O110 O 1.01869 0.52567 0.14796
 O111 O 0.93805 0.48525 0.07153
 O112 O 1.04785 0.53859 -0.04922
 O113 O 0.96805 0.50012 0.14753
 O114 O 1.01753 0.52560 -0.11549
 O115 O 1.04765 0.53813 0.07234
 O116 O 0.93757 0.48522 -0.05137
 C117 C 0.94992 0.50380 -0.10560
 C118 C 1.04374 0.55015 0.11847
 C119 C 0.95124 0.50431 0.11550
 C120 C 1.04430 0.55011 -0.10717
 O121 O 1.01754 0.48281 -0.11752
 O122 O 0.96929 0.45851 0.14174
 O123 O 0.92528 0.43596 -0.04945
 O124 O 1.04796 0.49657 0.06836
 O125 O 1.01895 0.48262 0.14797
 O126 O 0.96900 0.45858 -0.11752
 O127 O 1.04850 0.49645 -0.04824
 O128 O 0.93916 0.44495 0.07192
 Co129 Co 0.93889 0.42055 0.01446
 Co130 Co 0.93277 0.41369 0.23402
 Co131 Co 0.89048 0.39823 0.09410
 Co132 Co 0.98333 0.43554 0.10828
 O133 O 0.98420 0.48252 0.02956
 C134 C 1.04448 0.49100 -0.10871
 C135 C 0.95030 0.44237 0.11675
 C136 C 0.94703 0.44123 -0.10650
 C137 C 1.04507 0.49121 0.12201
 O138 O 0.47489 0.45531 -0.12403
 O139 O 0.45332 0.48177 0.14425
 O140 O 0.48968 0.44051 0.06848
 O141 O 0.43625 0.49652 -0.04824
 O142 O 0.47837 0.45691 0.14696
 O143 O 0.44959 0.47870 -0.12286
 O144 O 0.43602 0.49641 0.06929
 O145 O 0.49073 0.44045 -0.04854
 C146 C 0.48944 0.44391 -0.10969
 C147 C 0.44314 0.49315 0.11999
 C148 C 0.49171 0.44545 0.12207
 C149 C 0.44295 0.49381 -0.10940
 O150 O 0.49186 0.52296 -0.12162
 O151 O 0.52065 0.49907 0.14605
 O152 O 0.53258 0.48327 -0.05040
 O153 O 0.47745 0.53908 0.07435
 O154 O 0.49492 0.52466 0.14637
 O155 O 0.51770 0.49764 -0.12116
 O156 O 0.47787 0.53918 -0.05031
 O157 O 0.53257 0.48302 0.07377
 Co158 Co 0.36405 0.41125 -0.01336
 Co159 Co 0.38565 0.42237 0.21556
 Co160 Co 0.39173 0.38616 0.10678
 Co161 Co 0.33901 0.44016 0.10859
 O162 O 0.46893 0.48192 0.02684
 C163 C 0.50075 0.54990 -0.10553
 C164 C 0.54796 0.50346 0.11746
 C165 C 0.54724 0.50277 -0.10773
 C166 C 0.50070 0.54942 0.11529
 O167 O 0.52354 0.00859 -0.14276
 O168 O 0.50503 -0.03785 0.16055
 O169 O 0.54113 0.03590 0.08484
 O170 O 0.47791 -0.07133 -0.05106
 O171 O 0.53151 0.01263 0.16005
 O172 O 0.49506 -0.04366 -0.14813
 O173 O 0.47751 -0.06888 0.07494
 O174 O 0.54275 0.03611 -0.03656
 C175 C 0.54884 0.03889 -0.11054
 C176 C 0.50334 -0.05140 0.11294
 C177 C 0.55295 0.04188 0.12900
 C178 C 0.50165 -0.05290 -0.10496
 O179 O 0.45433 -0.04574 -0.14494
 O180 O 0.48875 0.01371 0.15920
 O181 O 0.49928 0.03609 -0.03815
 O182 O 0.39844 -0.04887 0.05561
 O183 O 0.44976 -0.04199 0.11499
 O184 O 0.48016 0.00850 -0.14295
 O185 O 0.41403 -0.09669 0.00582
 O186 O 0.50151 0.03534 0.08944
 Co187 Co 0.40492 -0.13716 -0.14349
 Co188 Co 0.48878 -0.10519 0.34902
 Co189 Co 0.43831 -0.08625 0.15199
 Co190 Co 0.33833 -0.20051 0.10062
 O191 O 0.47972 -0.03484 0.02434
 C192 C 0.43971 -0.05430 -0.08773
 C193 C 0.49065 0.04150 0.12602
 C194 C 0.49093 0.03889 -0.10923
 C195 C 0.41779 -0.04575 0.02245
 C196 C 1.15064 0.51553 0.29912
 C197 C 1.13456 0.48788 0.27073
 C198 C 1.14141 0.46621 0.28724
 C199 C 1.16459 0.47231 0.33280
 C200 C 1.18107 0.49973 0.36391
 C201 C 1.17431 0.52161 0.34586
 O202 O 1.13942 0.53212 0.27447
 C203 C 1.11639 0.51540 0.23075
 C204 C 1.11282 0.48785 0.22732
 C205 C 1.09061 0.46618 0.18563
 C206 C 1.07182 0.47220 0.14730
 C207 C 1.07390 0.49895 0.15093
 C208 C 1.09680 0.52077 0.19134
 H209 H 1.12905 0.44529 0.26540
 H210 H 1.16956 0.45590 0.34512
 H211 H 1.18678 0.54243 0.36803
 H212 H 1.08803 0.44528 0.18335
 H213 H 1.05506 0.45582 0.11604
 H214 H 1.10169 0.53802 0.18638
 C215 C 0.49143 0.64769 0.26280
 C216 C 0.50668 0.63684 0.29903
 C217 C 0.51870 0.64777 0.36621
 C218 C 0.51558 0.66969 0.39664
 C219 C 0.50026 0.68102 0.36471
 C220 C 0.48803 0.67031 0.29545
 O221 O 0.48225 0.63328 0.19927
 C222 C 0.49145 0.61342 0.19429
 C223 C 0.50670 0.61512 0.25557
 C224 C 0.51871 0.59703 0.26475
 C225 C 0.51544 0.57712 0.21211
 C226 C 0.50050 0.57440 0.15058
 C227 C 0.48806 0.59274 0.14034
 H228 H 0.53024 0.63948 0.39349
 H229 H 0.52577 0.67811 0.44572
 H230 H 0.47653 0.67871 0.26871
 H231 H 0.53023 0.59847 0.31148
 H232 H 0.52436 0.56341 0.21910
 H233 H 0.47651 0.59118 0.09370
 C234 C 0.35320 -0.13389 0.30959
 C235 C 0.36240 -0.14776 0.26334
 C236 C 0.35019 -0.17805 0.26501
 C237 C 0.32848 -0.19464 0.31463
 C238 C 0.31888 -0.18127 0.36387
 C239 C 0.33109 -0.15087 0.36015
 O240 O 0.36795 -0.10488 0.29461
 C241 C 0.38534 -0.09986 0.23641
 C242 C 0.38372 -0.12615 0.22008
 C243 C 0.39965 -0.12849 0.16633
 C244 C 0.39789 -0.12278 0.11212
 C245 C 0.28680 -0.13143 -0.00695
 C246 C 0.38661 -0.08232 0.17506
 H247 H 0.35737 -0.18833 0.22913
 H248 H 0.31949 -0.21737 0.31589
 H249 H 0.32375 -0.14079 0.39614
 H250 H 0.39836 -0.14766 0.14860
 H251 H 0.42754 -0.10816 0.09333
 H252 H 0.40649 -0.05737 0.21192
 C253 C 0.85943 0.49401 0.32015
 C254 C 0.85761 0.50467 0.25428
 C255 C 0.83674 0.51300 0.24151
 C256 C 0.81744 0.51064 0.29561
 C257 C 0.81889 0.50005 0.36381
 C258 C 0.83975 0.49166 0.37482
 O259 O 0.88136 0.48763 0.31811
 C260 C 0.89360 0.49404 0.25180
 C261 C 0.87934 0.50467 0.21081
 C262 C 0.88757 0.51303 0.13977
 C263 C 0.91033 0.51075 0.10956
 C264 C 0.92537 0.50064 0.14960
 C265 C 0.91690 0.49204 0.22085
 H266 H 0.83557 0.52107 0.19123
 H267 H 0.80192 0.51699 0.28535
 H268 H 0.84071 0.48354 0.42501
 H269 H 0.87660 0.52107 0.10914
 H270 H 0.91647 0.51700 0.05618
 H271 H 0.92819 0.48434 0.25204
 C272 C 0.51098 0.36633 0.31388
 C273 C 0.49145 0.35223 0.25921
 C274 C 0.47615 0.32173 0.25516
 C275 C 0.48047 0.30517 0.30672
 C276 C 0.49989 0.31877 0.36381
 C277 C 0.51528 0.34933 0.36621
 O278 O 0.52271 0.39564 0.30511
 C279 C 0.51100 0.40053 0.24553
 C280 C 0.49145 0.37395 0.21577
 C281 C 0.47614 0.37248 0.15358
 C282 C 0.48047 0.39779 0.12127
 C283 C 0.49946 0.42500 0.15078
 C284 C 0.51529 0.42658 0.21214
 H285 H 0.46136 0.31126 0.21339
 H286 H 0.46884 0.28231 0.30321
 H287 H 0.52998 0.35953 0.40831
 H288 H 0.46135 0.35227 0.13132
 H289 H 0.46872 0.39653 0.07430
 H290 H 0.52995 0.44695 0.23352
 C291 C 0.65105 0.13535 0.29783
 C292 C 0.63422 0.14648 0.27172
 C293 C 0.64051 0.17467 0.29005
 C294 C 0.66385 0.19185 0.33509
 C295 C 0.68106 0.18135 0.36393
 C296 C 0.67489 0.15304 0.34407
 O297 O 0.64028 0.10779 0.27184
 C298 C 0.61685 0.10116 0.22940
 C299 C 0.61248 0.12473 0.22825
 C300 C 0.58965 0.12373 0.18819
 C301 C 0.57123 0.09835 0.14864
 C302 C 0.57445 0.07362 0.15109
 C303 C 0.59774 0.07579 0.18964
 H304 H 0.62760 0.18292 0.26998
 H305 H 0.66839 0.21298 0.34881
 H306 H 0.68790 0.14501 0.36448
 H307 H 0.58658 0.14186 0.18782
 H308 H 0.55624 0.09587 0.10926
 H309 H 0.60052 0.05758 0.18969
 C310 C 0.51607 0.15395 -0.28694
 C311 C 0.48746 0.13195 -0.28019
 C312 C 0.46500 0.13416 -0.31372
 C313 C 0.47128 0.15860 -0.35444
 C314 C 0.49959 0.18117 -0.36485
 C315 C 0.52238 0.17899 -0.32919
 O316 O 0.53325 0.14622 -0.24920
 C317 C 0.51602 0.11954 -0.21819
 C318 C 0.48747 0.11018 -0.23665
 C319 C 0.46509 0.08330 -0.21194
 C320 C 0.47129 0.06553 -0.16838
 C321 C 0.49891 0.07202 -0.14718
 C322 C 0.52217 0.10089 -0.17317
 H323 H 0.44334 0.11734 -0.30832
 H324 H 0.45431 0.16010 -0.37968
 H325 H 0.54395 0.19588 -0.33478
 H326 H 0.44338 0.07632 -0.22624
 H327 H 0.45432 0.04553 -0.15051
 H328 H 0.54392 0.10833 -0.15971
 C329 C 0.65009 0.51528 -0.30070
 C330 C 0.63495 0.48809 -0.26944
 C331 C 0.64255 0.46677 -0.28374
 C332 C 0.66554 0.47277 -0.32996
 C333 C 0.68109 0.49975 -0.36390
 C334 C 0.67356 0.52125 -0.34807
 O335 O 0.63827 0.53159 -0.27774
 C336 C 0.61575 0.51525 -0.23205
 C337 C 0.61319 0.48810 -0.22593
 C338 C 0.59169 0.46682 -0.18203
 C339 C 0.57250 0.47277 -0.14377
 C340 C 0.57313 0.49966 -0.14802
 C341 C 0.59583 0.52114 -0.19268
 H342 H 0.63092 0.44619 -0.25974
 H343 H 0.67106 0.45662 -0.34056
 H344 H 0.68533 0.54173 -0.37241
 H345 H 0.58989 0.44622 -0.17768
 H346 H 0.55653 0.45657 -0.11132
 H347 H 0.59783 0.54174 -0.19737
 C348 C 0.85651 0.34355 -0.27097
 C349 C 0.85983 0.36995 -0.29275
 C350 C 0.84298 0.37124 -0.34864
 C351 C 0.82269 0.34597 -0.38289
 C352 C 0.81860 0.31904 -0.36533
 C353 C 0.83556 0.31747 -0.30691
 O354 O 0.87543 0.34857 -0.21616
 C355 C 0.89073 0.37774 -0.20262
 C356 C 0.88156 0.39168 -0.24934
 C357 C 0.89376 0.42202 -0.24723
 C358 C 0.91538 0.43842 -0.19780
 C359 C 0.92505 0.42483 -0.15182
 C360 C 0.91280 0.39470 -0.15229
 H361 H 0.84562 0.39134 -0.36489
 H362 H 0.81005 0.34703 -0.42513
 H363 H 0.83285 0.29737 -0.29092
 H364 H 0.88664 0.43236 -0.28288
 H365 H 0.92456 0.46047 -0.19445
 H366 H 0.92026 0.38483 -0.11589
 C367 C 0.50287 -0.15710 -0.27181
 C368 C 0.51609 -0.12765 -0.29558
 C369 C 0.53174 -0.12305 -0.35566
 C370 C 0.53521 -0.14703 -0.39067
 C371 C 0.52892 -0.16664 -0.38736
 C372 C 0.48875 -0.19989 -0.32022
 O373 O 0.48544 -0.15480 -0.19951
 C374 C 0.50004 -0.12063 -0.16977
 C375 C 0.51913 -0.10237 -0.24224
 C376 C 0.52509 -0.07614 -0.25622
 C377 C 0.52008 -0.06096 -0.20530
 C378 C 0.50190 -0.07373 -0.14745
 C379 C 0.49187 -0.10171 -0.12941
 H380 H 0.53956 -0.10642 -0.38271
 H381 H 0.53348 -0.15044 -0.44211
 H382 H 0.44472 -0.25941 -0.49455
 H383 H 0.53874 -0.06690 -0.29900
 H384 H 0.53112 -0.03818 -0.20870
 H385 H 0.47177 -0.11405 -0.09982
 C386 C 0.36216 0.49500 -0.31836
 C387 C 0.35791 0.50457 -0.25450
 C388 C 0.33682 0.51294 -0.24164
 C389 C 0.31747 0.51060 -0.29581
 C390 C 0.31879 0.49997 -0.36483
 C391 C 0.33976 0.49075 -0.37704
 O392 O 0.40383 0.50196 -0.26766
 C393 C 0.39754 0.49432 -0.23637
 C394 C 0.37974 0.50428 -0.20851
 C395 C 0.38737 0.51303 -0.13919
 C396 C 0.41008 0.51102 -0.10975
 C397 C 0.42524 0.49998 -0.14680
 C398 C 0.41749 0.49075 -0.21529
 H399 H 0.33558 0.52104 -0.19129
 H400 H 0.30194 0.51698 -0.28538
 H401 H 0.33422 0.46793 -0.43655
 H402 H 0.37654 0.52112 -0.10907
 H403 H 0.41608 0.51741 -0.05642
 H404 H 0.42849 0.48318 -0.25060
 C405 C 1.14888 0.63431 -0.30414
 C406 C 1.13591 0.64727 -0.26676
 C407 C 1.14521 0.67689 -0.27627
 C408 C 1.16772 0.69368 -0.32389
 C409 C 1.18111 0.68132 -0.36388
 C410 C 1.17186 0.65159 -0.35281
 O411 O 1.13575 0.60565 -0.28489
 C412 C 1.11460 0.60016 -0.23548
 C413 C 1.11417 0.62555 -0.22324
 C414 C 1.09432 0.62598 -0.17457
 C415 C 1.07467 0.60065 -0.13787
 C416 C 1.07320 0.57404 -0.14804
 C417 C 1.09419 0.57476 -0.19749
 H418 H 1.13520 0.68651 -0.24764
 H419 H 1.17451 0.71588 -0.33081
 H420 H 1.18201 0.64222 -0.38179
 H421 H 1.09416 0.64546 -0.16557
 H422 H 1.05993 0.60132 -0.10160
 H423 H 1.09223 0.55925 -0.21390
 C424 C 0.85942 0.49402 -0.32016
 C425 C 0.85761 0.50467 -0.25430
 C426 C 0.83673 0.51299 -0.24155
 C427 C 0.81739 0.51061 -0.29573
 C428 C 0.81873 0.50007 -0.36465
 C429 C 0.83974 0.49168 -0.37490
 O430 O 0.88137 0.48763 -0.31809
 C431 C 0.89364 0.49405 -0.25176
 C432 C 0.87935 0.50467 -0.21082
 C433 C 0.88758 0.51303 -0.13982
 C434 C 0.91030 0.51072 -0.10962
 C435 C 0.92548 0.50056 -0.14878
 C436 C 0.91705 0.49206 -0.22065
 H437 H 0.83557 0.52107 -0.19125
 H438 H 0.80191 0.51699 -0.28535
 H439 H 0.84072 0.48353 -0.42501
 H440 H 0.87660 0.52107 -0.10915
 H441 H 0.91641 0.51699 -0.05618
 H442 H 0.92822 0.48433 -0.25204
 C443 C 0.48905 0.34345 -0.26649
 C444 C 0.50856 0.37006 -0.29620
 C445 C 0.52390 0.37152 -0.35832
 C446 C 0.51975 0.34626 -0.39064
 C447 C 0.50036 0.31909 -0.36552
 C448 C 0.48472 0.31729 -0.30066
 O449 O 0.47731 0.34838 -0.20687
 C450 C 0.48906 0.37773 -0.19799
 C451 C 0.50856 0.39180 -0.25273
 C452 C 0.52387 0.42229 -0.25671
 C453 C 0.51944 0.43886 -0.20541
 C454 C 0.49949 0.42570 -0.15001
 C455 C 0.48472 0.39484 -0.14558
 H456 H 0.53866 0.39175 -0.38061
 H457 H 0.53153 0.34760 -0.43740
 H458 H 0.47000 0.29705 -0.27872
 H459 H 0.53865 0.43276 -0.29855
 H460 H 0.53106 0.46170 -0.20901
 H461 H 0.47000 0.38454 -0.10370
 C462 C 0.64159 0.13420 -0.31885
 C463 C 0.64157 0.14734 -0.25526
 C464 C 0.66104 0.17710 -0.24433
 C465 C 0.68079 0.19390 -0.29798
 C466 C 0.68127 0.18135 -0.36466
 C467 C 0.66168 0.15141 -0.37316
 O468 O 0.62072 0.10544 -0.31531
 C469 C 0.60727 0.09991 -0.25020
 C470 C 0.61979 0.12554 -0.21172
 C471 C 0.60999 0.12601 -0.14250
 C472 C 0.58729 0.10027 -0.11137
 C473 C 0.57315 0.07236 -0.14751
 C474 C 0.58412 0.07382 -0.21807
 H475 H 0.66082 0.18685 -0.19576
 H476 H 0.69518 0.21617 -0.28899
 H477 H 0.66211 0.14185 -0.42176
 H478 H 0.61973 0.14574 -0.11369
 H479 H 0.58058 0.10155 -0.05961
 H480 H 0.57470 0.05447 -0.24717
 C481 C 1.15064 0.51552 -0.29913
 C482 C 1.13456 0.48788 -0.27073
 C483 C 1.14142 0.46622 -0.28726
 C484 C 1.16463 0.47233 -0.33287
 C485 C 1.18127 0.49974 -0.36470
 C486 C 1.17431 0.52159 -0.34601
 O487 O 1.13939 0.53211 -0.27443
 C488 C 1.11632 0.51538 -0.23065
 C489 C 1.11280 0.48785 -0.22729
 C490 C 1.09057 0.46621 -0.18563
 C491 C 1.07166 0.47221 -0.14719
 C492 C 1.07331 0.49890 -0.14922
 C493 C 1.09664 0.52074 -0.19070
 H494 H 1.12906 0.44530 -0.26541
 H495 H 1.16956 0.45590 -0.34512
 H496 H 1.18678 0.54243 -0.36804
 H497 H 1.08803 0.44529 -0.18335
 H498 H 1.05505 0.45581 -0.11602
 H499 H 1.10172 0.53803 -0.18633
 C500 C 0.51608 0.65396 -0.28696
 C501 C 0.48746 0.63196 -0.28021
 C502 C 0.46500 0.63416 -0.31372
 C503 C 0.47128 0.65860 -0.35444
 C504 C 0.49959 0.68118 -0.36483
 C505 C 0.52238 0.67900 -0.32920
 O506 O 0.53327 0.64627 -0.24928
 C507 C 0.51608 0.61964 -0.21839
 C508 C 0.48747 0.61022 -0.23673
 C509 C 0.46501 0.58336 -0.21220
 C510 C 0.47121 0.56578 -0.16894
 C511 C 0.49943 0.57379 -0.14877
 C512 C 0.52231 0.60133 -0.17372
 H513 H 0.44334 0.61734 -0.30832
 H514 H 0.45431 0.66010 -0.37968
 H515 H 0.54395 0.69588 -0.33478
 H516 H 0.44334 0.57632 -0.22629
 H517 H 0.45439 0.54580 -0.15073
 H518 H 0.54394 0.60837 -0.15962
 C519 C 0.35689 -0.15595 -0.27020
 C520 C 0.36016 -0.12979 -0.29206
 C521 C 0.34309 -0.12872 -0.34846
 C522 C 0.32273 -0.15402 -0.38282
 C523 C 0.31864 -0.18093 -0.36525
 C524 C 0.33573 -0.18238 -0.30666
 O525 O 0.37577 -0.14983 -0.21316
 C526 C 0.39088 -0.11948 -0.18939
 C527 C 0.38187 -0.10767 -0.24656
 C528 C 0.39372 -0.07804 -0.24645
 C529 C 0.41452 -0.06265 -0.19511
 C530 C 0.42521 -0.07552 -0.13669
 C531 C 0.41358 -0.09948 -0.09814
 H532 H 0.34563 -0.10866 -0.36486
 H533 H 0.31006 -0.15296 -0.42510
 H534 H 0.33287 -0.20260 -0.29087
 H535 H 0.38672 -0.06766 -0.28281
 H536 H 0.42431 -0.03904 -0.19603
 H537 H 0.40698 -0.07395 -0.02554
 C538 C 0.51102 -0.13368 0.31387
 C539 C 0.49146 -0.14778 0.25928
 C540 C 0.47615 -0.17827 0.25517
 C541 C 0.48045 -0.19484 0.30667
 C542 C 0.49984 -0.18126 0.36369
 C543 C 0.51528 -0.15068 0.36619
 O544 O 0.52282 -0.10435 0.30502
 C545 C 0.51092 -0.09948 0.24573
 C546 C 0.49145 -0.12611 0.21598
 C547 C 0.47610 -0.12785 0.15407
 C548 C 0.48042 -0.10324 0.12142
 C549 C 0.50006 -0.07581 0.14842
 C550 C 0.51528 -0.07368 0.21168
 H551 H 0.46136 -0.18874 0.21339
 H552 H 0.46884 -0.21769 0.30321
 H553 H 0.52998 -0.14047 0.40829
 H554 H 0.46131 -0.14783 0.13142
 H555 H 0.46819 -0.10570 0.07444
 H556 H 0.52995 -0.05311 0.23334
 C557 C 0.34461 0.49475 0.25958
 C558 C 0.36916 0.50406 0.30140
 C559 C 0.36902 0.51132 0.37300
 C560 C 0.34457 0.50981 0.40133
 C561 C 0.31921 0.50011 0.36464
 C562 C 0.31893 0.49267 0.29099
 O563 O 0.35067 0.48902 0.19264
 C564 C 0.37871 0.49456 0.19049
 C565 C 0.39087 0.50411 0.25781
 C566 C 0.41972 0.51147 0.27193
 C567 C 0.43658 0.50958 0.21858
 C568 C 0.42496 0.50003 0.15279
 C569 C 0.39574 0.49129 0.13481
 H570 H 0.38771 0.51853 0.40464
 H571 H 0.35355 0.53103 0.41372
 H572 H 0.30019 0.48563 0.26000
 H573 H 0.42869 0.51850 0.32275
 H574 H 0.45838 0.51495 0.22859
 H575 H 0.38754 0.47638 0.08145
 C576 C 1.14888 0.63432 0.30415
 C577 C 1.13591 0.64728 0.26677
 C578 C 1.14521 0.67689 0.27628
 C579 C 1.16772 0.69368 0.32389
 C580 C 1.18110 0.68131 0.36387
 C581 C 1.17187 0.65159 0.35281
 O582 O 1.13577 0.60566 0.28491
 C583 C 1.11465 0.60019 0.23553
 C584 C 1.11418 0.62556 0.22325
 C585 C 1.09435 0.62602 0.17454
 C586 C 1.07474 0.60073 0.13794
 C587 C 1.07336 0.57433 0.14953
 C588 C 1.09430 0.57485 0.19781
 H589 H 1.13520 0.68651 0.24764
 H590 H 1.17451 0.71588 0.33081
 H591 H 1.18201 0.64222 0.38179
 H592 H 1.09417 0.64547 0.16556
 H593 H 1.05992 0.60130 0.10164
 H594 H 1.09222 0.55926 0.21397
 C595 C 0.51607 0.15396 0.28695
 C596 C 0.48745 0.13196 0.28021
 C597 C 0.46499 0.13415 0.31371
 C598 C 0.47127 0.15858 0.35436
 C599 C 0.49961 0.18098 0.36410
 C600 C 0.52239 0.17898 0.32906
 O601 O 0.53324 0.14626 0.24928
 C602 C 0.51593 0.11964 0.21844
 C603 C 0.48743 0.11022 0.23674
 C604 C 0.46500 0.08336 0.21204
 C605 C 0.47123 0.06580 0.16867
 C606 C 0.49913 0.07327 0.14984
 C607 C 0.52187 0.10130 0.17458
 H608 H 0.44334 0.11734 0.30832
 H609 H 0.45432 0.16010 0.37968
 H610 H 0.54395 0.19587 0.33477
 H611 H 0.44334 0.07632 0.22627
 H612 H 0.45417 0.04562 0.15068
 H613 H 0.54159 0.11112 0.16993
 C614 C 0.65010 0.51528 0.30071
 C615 C 0.63496 0.48809 0.26944
 C616 C 0.64256 0.46677 0.28374
 C617 C 0.66554 0.47277 0.32996
 C618 C 0.68109 0.49975 0.36390
 C619 C 0.67356 0.52125 0.34807
 O620 O 0.63830 0.53160 0.27778
 C621 C 0.61581 0.51527 0.23213
 C622 C 0.61321 0.48810 0.22595
 C623 C 0.59170 0.46681 0.18203
 C624 C 0.57252 0.47279 0.14402
 C625 C 0.57356 0.49985 0.14946
 C626 C 0.59603 0.52122 0.19305
 H627 H 0.63092 0.44619 0.25974
 H628 H 0.67106 0.45662 0.34056
 H629 H 0.68533 0.54173 0.37241
 H630 H 0.58989 0.44621 0.17767
 H631 H 0.55651 0.45660 0.11144
 H632 H 0.59785 0.54174 0.19745
 C633 C 0.85651 0.34356 0.27093
 C634 C 0.85983 0.36996 0.29271
 C635 C 0.84298 0.37125 0.34863
 C636 C 0.82268 0.34597 0.38282
 C637 C 0.81877 0.31919 0.36448
 C638 C 0.83561 0.31751 0.30681
 O639 O 0.87542 0.34852 0.21619
 C640 C 0.89081 0.37762 0.20255
 C641 C 0.88157 0.39166 0.24924
 C642 C 0.89376 0.42200 0.24711
 C643 C 0.91563 0.43837 0.19800
 C644 C 0.92663 0.42497 0.15381
 C645 C 0.91388 0.39437 0.15338
 H646 H 0.84562 0.39135 0.36489
 H647 H 0.81005 0.34702 0.42512
 H648 H 0.83285 0.29738 0.29091
 H649 H 0.88663 0.43236 0.28279
 H650 H 0.92453 0.46043 0.19458
 H651 H 0.92047 0.38469 0.11575
   
