data_POSCAR
  _audit_creation_date              2014-09-24
  _audit_creation_method            'ToBaCCo'
  _symmetry_space_group_name_H-M    'P1'
  _symmetry_Int_Tables_number       1
  _symmetry_cell_setting            triclinic
  loop_
  _symmetry_equiv_pos_as_xyz
 x,y,z
_cell_length_a 51.9033
_cell_length_b 48.0002
_cell_length_c 8.9161
_cell_angle_alpha 89.940100
_cell_angle_beta 90.008100
_cell_angle_gamma 89.962000
loop_
  _atom_site_label
  _atom_site_type_symbol
  _atom_site_fract_x
  _atom_site_fract_y
  _atom_site_fract_z
O1 O 0.27350 0.27654 0.30143
 O2 O 0.22401 0.22249 0.25084
 O3 O 0.27360 0.22225 0.29707
 O4 O 0.22398 0.27649 0.25402
 O5 O 0.23043 0.27702 0.00961
 O6 O 0.28028 0.22291 0.05316
 O7 O 0.23061 0.22298 0.00657
 O8 O 0.28003 0.27719 0.05713
 Cu9 Cu 0.24814 0.24937 0.29999
 Cu10 Cu 0.25609 0.25008 0.00767
 C11 C 0.28526 0.28614 0.18762
 C12 C 0.21862 0.21367 0.12030
 C13 C 0.28557 0.21329 0.18243
 C14 C 0.21850 0.28585 0.12456
 O15 O 0.77833 0.27603 0.45504
 O16 O 0.72880 0.22171 0.50134
 O17 O 0.77839 0.22177 0.45175
 O18 O 0.72882 0.27576 0.50467
 O19 O 0.72192 0.27632 0.26065
 O20 O 0.77145 0.22230 0.20782
 O21 O 0.72191 0.22232 0.25757
 O22 O 0.77137 0.27653 0.21112
 Cu23 Cu 0.75437 0.24874 0.50230
 Cu24 Cu 0.74597 0.24940 0.21021
 C25 C 0.78335 0.28557 0.32533
 C26 C 0.71660 0.21289 0.38717
 C27 C 0.78351 0.21286 0.32102
 C28 C 0.71671 0.28513 0.39149
 O29 O 0.73152 0.77823 0.49923
 O30 O 0.78100 0.72387 0.54595
 O31 O 0.73153 0.72418 0.49427
 O32 O 0.78108 0.77813 0.54955
 O33 O 0.77393 0.77746 0.79302
 O34 O 0.72445 0.72351 0.73809
 O35 O 0.77385 0.72320 0.78968
 O36 O 0.72442 0.77753 0.74301
 Cu37 Cu 0.75708 0.75119 0.49820
 Cu38 Cu 0.74846 0.75037 0.79008
 C39 C 0.71929 0.78698 0.61328
 C40 C 0.78593 0.71423 0.67557
 C41 C 0.71934 0.71476 0.60699
 C42 C 0.78612 0.78703 0.68053
 O43 O 0.27864 0.77700 0.94440
 O44 O 0.22944 0.72249 0.99271
 O45 O 0.27885 0.72273 0.93952
 O46 O 0.22917 0.77656 0.99751
 O47 O 0.22179 0.77716 0.75422
 O48 O 0.27136 0.72339 0.69614
 O49 O 0.22200 0.72317 0.74923
 O50 O 0.27119 0.77767 0.70098
 Cu51 Cu 0.25486 0.74962 0.99253
 Cu52 Cu 0.24585 0.75044 0.70102
 C53 C 0.28342 0.78662 0.81461
 C54 C 0.21711 0.71367 0.87915
 C55 C 0.28365 0.71386 0.80827
 C56 C 0.21671 0.78592 0.88543
 C57 C 0.99925 0.07307 0.08207
 C58 C 1.02202 0.05987 0.03600
 C59 C 1.02157 0.03128 0.00345
 C60 C 0.99894 0.01544 0.02229
 C61 C 0.97638 0.02916 0.07009
 C62 C 0.97626 0.05798 0.09727
 C63 C 0.99898 -0.01522 -0.00780
 C64 C 0.97649 -0.02890 -0.05696
 C65 C 0.97642 -0.05772 -0.08421
 C66 C 0.99939 -0.07284 -0.06750
 C67 C 1.02213 -0.05966 -0.02090
 C68 C 1.02160 -0.03107 0.01197
 H69 H 0.99942 0.09519 0.10597
 H70 H 1.03892 0.02159 -0.03904
 H71 H 0.95887 0.01748 0.08933
 H72 H 0.95901 -0.01720 -0.07730
 H73 H 0.99957 -0.09498 -0.09082
 H74 H 1.03888 -0.02141 0.05554
 C75 C 0.50007 0.57498 0.54822
 C76 C 0.52290 0.56109 0.50998
 C77 C 0.52221 0.53225 0.48468
 C78 C 0.49928 0.51690 0.50353
 C79 C 0.47672 0.53131 0.54556
 C80 C 0.47684 0.56036 0.56440
 C81 C 0.49899 0.48605 0.47832
 C82 C 0.47646 0.47235 0.42982
 C83 C 0.47617 0.44340 0.40692
 C84 C 0.49893 0.42810 0.42780
 C85 C 0.52170 0.44128 0.47349
 C86 C 0.52142 0.47003 0.50146
 H87 H 0.50045 0.59721 0.56894
 H88 H 0.53965 0.52203 0.44762
 H89 H 0.45887 0.52012 0.56226
 H90 H 0.45913 0.48410 0.40645
 H91 H 0.49893 0.40584 0.40796
 H92 H 0.53878 0.47969 0.54358
 C93 C -0.00223 0.42657 0.10086
 C94 C -0.02514 0.44198 0.10919
 C95 C -0.02472 0.47049 0.07379
 C96 C -0.00189 0.48354 0.02477
 C97 C 0.02071 0.46734 0.01346
 C98 C 0.02083 0.43909 0.05449
 C99 C -0.00155 0.51396 -0.01271
 C100 C 0.02111 0.52979 0.00521
 C101 C 0.02176 0.55820 -0.03197
 C102 C -0.00083 0.57124 -0.08224
 C103 C -0.02380 0.55615 -0.09785
 C104 C -0.02388 0.52750 -0.06578
 H105 H -0.00247 0.40452 0.12704
 H106 H -0.04222 0.48246 0.08795
 H107 H 0.03845 0.47662 -0.02572
 H108 H 0.03830 0.52033 0.05111
 H109 H -0.00056 0.59326 -0.10874
 H110 H -0.04141 0.51584 -0.08468
 C111 C 0.49874 0.92638 0.57329
 C112 C 0.47577 0.94156 0.58862
 C113 C 0.47589 0.97035 0.56021
 C114 C 0.49842 0.98395 0.51114
 C115 C 0.52107 0.96808 0.49356
 C116 C 0.52155 0.93953 0.52754
 C117 C 0.49842 1.01455 0.47877
 C118 C 0.52102 1.03042 0.49749
 C119 C 0.52147 1.05900 0.46438
 C120 C 0.49870 1.07213 0.41742
 C121 C 0.47580 1.05694 0.40025
 C122 C 0.47591 1.02815 0.42887
 H123 H 0.49885 0.90425 0.59700
 H124 H 0.45840 0.98210 0.57926
 H125 H 0.53843 0.97769 0.45079
 H126 H 0.53835 1.02080 0.54078
 H127 H 0.49878 1.09429 0.39449
 H128 H 0.45844 1.01641 0.40946
 C129 C 1.15617 0.15603 0.06375
 C130 C 1.16980 0.16559 -0.06156
 C131 C 1.19052 0.18390 -0.04330
 C132 C 1.19781 0.19292 0.10076
 C133 C 1.18426 0.18276 0.22608
 C134 C 1.16359 0.16446 0.20752
 C135 C 1.13400 0.13841 0.04549
 C136 C 1.11508 0.12402 0.03367
 C137 C 1.09218 0.10724 0.02418
 C138 C 1.09218 0.08011 0.08159
 C139 C 1.06947 0.06449 0.08251
 C140 C 1.04644 0.07584 0.02566
 C141 C 1.04678 0.10289 -0.03520
 C142 C 1.06950 0.11852 -0.03535
 H143 H 1.16419 0.15920 -0.17342
 H144 H 1.20053 0.19135 -0.14203
 H145 H 1.18935 0.18928 0.33848
 H146 H 1.15315 0.15722 0.30528
 H147 H 1.10961 0.07123 0.12851
 H148 H 1.06973 0.04386 0.13181
 H149 H 1.02944 0.11201 -0.08192
 H150 H 1.06929 0.13953 -0.07977
 C151 C 0.65749 0.65649 0.54570
 C152 C 0.66474 0.66472 0.69008
 C153 C 0.68518 0.68327 0.71013
 C154 C 0.69867 0.69389 0.58570
 C155 C 0.69154 0.68510 0.44095
 C156 C 0.67104 0.66654 0.42119
 C157 C 0.63545 0.63868 0.52615
 C158 C 0.61658 0.62424 0.51348
 C159 C 0.59362 0.60758 0.50275
 C160 C 0.57139 0.61869 0.43700
 C161 C 0.54852 0.60333 0.43579
 C162 C 0.54758 0.57663 0.50085
 C163 C 0.57020 0.56537 0.56360
 C164 C 0.59304 0.58080 0.56484
 H165 H 0.65435 0.65712 0.78721
 H166 H 0.69017 0.68960 0.82300
 H167 H 0.70150 0.69291 0.34289
 H168 H 0.66554 0.66035 0.30887
 H169 H 0.57162 0.63942 0.38876
 H170 H 0.53152 0.61238 0.38479
 H171 H 0.57002 0.54501 0.61590
 H172 H 0.61010 0.57206 0.61689
 C173 C -0.15673 0.34645 0.27073
 C174 C -0.17052 0.33700 0.14590
 C175 C -0.19028 0.31749 0.16378
 C176 C -0.19646 0.30711 0.30696
 C177 C -0.18272 0.31705 0.43201
 C178 C -0.16297 0.33657 0.41381
 C179 C -0.13543 0.36528 0.25127
 C180 C -0.11715 0.38045 0.23429
 C181 C -0.09482 0.39773 0.21214
 C182 C -0.09475 0.41809 0.09959
 C183 C -0.07229 0.43316 0.06924
 C184 C -0.04959 0.42794 0.15090
 C185 C -0.05010 0.40806 0.26698
 C186 C -0.07258 0.39307 0.29732
 H187 H -0.16575 0.34444 0.03457
 H188 H -0.20047 0.31025 0.06533
 H189 H -0.18698 0.30949 0.54370
 H190 H -0.15234 0.34366 0.51109
 H191 H -0.11185 0.42184 0.03285
 H192 H -0.07240 0.44816 -0.02164
 H193 H -0.03301 0.40387 0.33306
 H194 H -0.07244 0.37744 0.38508
 C195 C 0.34379 0.84685 0.75760
 C196 C 0.33783 0.83680 0.90080
 C197 C 0.31788 0.81756 0.91984
 C198 C 0.30366 0.80806 0.79553
 C199 C 0.30952 0.81867 0.65234
 C200 C 0.32947 0.83792 0.63364
 C201 C 0.36537 0.86526 0.73679
 C202 C 0.38385 0.88006 0.71804
 C203 C 0.40635 0.89695 0.69353
 C204 C 0.42899 0.89149 0.77370
 C205 C 0.45145 0.90646 0.74244
 C206 C 0.45153 0.92712 0.63043
 C207 C 0.42851 0.93299 0.55326
 C208 C 0.40609 0.91792 0.58434
 H209 H 0.34884 0.84351 0.99745
 H210 H 0.31386 0.80982 1.03157
 H211 H 0.29893 0.81181 0.55442
 H212 H 0.33399 0.84551 0.52218
 H213 H 0.42939 0.87532 0.85862
 H214 H 0.46879 0.90175 0.80507
 H215 H 0.42807 0.94859 0.46549
 H216 H 0.38871 0.92223 0.52106
 C217 C -0.15414 0.65332 -0.26988
 C218 C -0.16832 0.66232 -0.14553
 C219 C -0.18808 0.68184 -0.16340
 C220 C -0.19389 0.69268 -0.30617
 C221 C -0.17979 0.68316 -0.43091
 C222 C -0.16002 0.66364 -0.41270
 C223 C -0.13286 0.63446 -0.24973
 C224 C -0.11467 0.61922 -0.23110
 C225 C -0.09252 0.60177 -0.20642
 C226 C -0.09314 0.58099 -0.09623
 C227 C -0.07099 0.56546 -0.06462
 C228 C -0.04789 0.57069 -0.14214
 C229 C -0.04765 0.59108 -0.25559
 C230 C -0.06984 0.60653 -0.28729
 H231 H -0.16387 0.65452 -0.03443
 H232 H -0.19859 0.68870 -0.06519
 H233 H -0.18378 0.69106 -0.54233
 H234 H -0.14911 0.65688 -0.50968
 H235 H -0.11056 0.57723 -0.03232
 H236 H -0.07168 0.55006 0.02412
 H237 H -0.03025 0.59528 -0.31868
 H238 H -0.06916 0.62255 -0.37289
 C239 C 0.34489 1.15366 0.23363
 C240 C 0.33095 1.16275 0.35861
 C241 C 0.31110 1.18219 0.34164
 C242 C 0.30488 1.19294 0.19882
 C243 C 0.31880 1.18322 0.07333
 C244 C 0.33867 1.16379 0.09094
 C245 C 0.36626 1.13487 0.25308
 C246 C 0.38453 1.11970 0.27122
 C247 C 0.40680 1.10237 0.29503
 C248 C 0.40626 1.08121 0.40310
 C249 C 0.42849 1.06572 0.43336
 C250 C 0.45163 1.07144 0.35711
 C251 C 0.45178 1.09224 0.24584
 C252 C 0.42950 1.10759 0.21507
 H253 H 0.33564 1.15508 0.46970
 H254 H 0.30087 1.18898 0.44104
 H255 H 0.31464 1.19085 -0.03854
 H256 H 0.34939 1.15695 -0.00660
 H257 H 0.38884 1.07709 0.46630
 H258 H 0.42785 1.04996 0.52018
 H259 H 0.46920 1.09682 0.18375
 H260 H 0.43011 1.12387 0.13089
 C261 C 1.15573 -0.15685 -0.05237
 C262 C 1.16224 -0.16588 -0.19650
 C263 C 1.18268 -0.18442 -0.21731
 C264 C 1.19697 -0.19437 -0.09375
 C265 C 1.19050 -0.18470 0.05086
 C266 C 1.17001 -0.16612 0.07110
 C267 C 1.13382 -0.13886 -0.03189
 C268 C 1.11507 -0.12422 -0.01862
 C269 C 1.09228 -0.10724 -0.00793
 C270 C 1.06952 -0.11849 0.05043
 C271 C 1.04680 -0.10283 0.04946
 C272 C 1.04656 -0.07567 -0.01010
 C273 C 1.06968 -0.06431 -0.06534
 C274 C 1.09238 -0.08001 -0.06417
 H275 H 1.15129 -0.15887 -0.29292
 H276 H 1.18697 -0.19123 -0.33037
 H277 H 1.20099 -0.19175 0.14886
 H278 H 1.16510 -0.15926 0.18323
 H279 H 1.06922 -0.13955 0.09430
 H280 H 1.02938 -0.11201 0.09436
 H281 H 1.07002 -0.04361 -0.11383
 H282 H 1.10987 -0.07114 -0.11017
 C283 C 0.65486 0.34347 0.45158
 C284 C 0.66199 0.33501 0.30734
 C285 C 0.68243 0.31643 0.28750
 C286 C 0.69603 0.30603 0.41207
 C287 C 0.68902 0.31505 0.55662
 C288 C 0.66852 0.33364 0.57615
 C289 C 0.63293 0.36145 0.47079
 C290 C 0.61419 0.37613 0.48248
 C291 C 0.59148 0.39323 0.49102
 C292 C 0.56868 0.38237 0.55111
 C293 C 0.54611 0.39829 0.54999
 C294 C 0.54601 0.42516 0.48674
 C295 C 0.56915 0.43607 0.42918
 C296 C 0.59173 0.42021 0.43157
 H297 H 0.65150 0.34248 0.21021
 H298 H 0.68733 0.30995 0.17477
 H299 H 0.69911 0.30743 0.65472
 H300 H 0.66313 0.34004 0.68835
 H301 H 0.56826 0.36144 0.59652
 H302 H 0.52870 0.38952 0.59755
 H303 H 0.56960 0.45654 0.37803
 H304 H 0.60924 0.42874 0.38395
 C305 C 0.84541 -0.15379 -0.25692
 C306 C 0.83141 -0.16361 -0.13371
 C307 C 0.81155 -0.18291 -0.15427
 C308 C 0.80542 -0.19278 -0.29896
 C309 C 0.81944 -0.18234 -0.42240
 C310 C 0.83928 -0.16305 -0.40123
 C311 C 0.86678 -0.13514 -0.23459
 C312 C 0.88507 -0.12010 -0.21519
 C313 C 0.90740 -0.10294 -0.19055
 C314 C 0.90677 -0.08165 -0.08347
 C315 C 0.92905 -0.06633 -0.05216
 C316 C 0.95227 -0.07227 -0.12696
 C317 C 0.95251 -0.09320 -0.23732
 C318 C 0.93021 -0.10842 -0.26880
 H319 H 0.83605 -0.15664 -0.02136
 H320 H 0.80127 -0.19031 -0.05630
 H321 H 0.81537 -0.18929 -0.53554
 H322 H 0.85006 -0.15565 -0.49739
 H323 H 0.88922 -0.07728 -0.02199
 H324 H 0.92833 -0.05049 0.03405
 H325 H 0.97000 -0.09794 -0.29843
 H326 H 0.93089 -0.12478 -0.35238
 C327 C 0.34515 0.34689 0.24521
 C328 C 0.33145 0.33709 0.36971
 C329 C 0.31170 0.31761 0.35089
 C330 C 0.30543 0.30764 0.20710
 C331 C 0.31904 0.31797 0.08238
 C332 C 0.33879 0.33744 0.10152
 C333 C 0.36646 0.36567 0.26548
 C334 C 0.38473 0.38081 0.28291
 C335 C 0.40705 0.39808 0.30504
 C336 C 0.40643 0.41992 0.40887
 C337 C 0.42874 0.43529 0.43839
 C338 C 0.45198 0.42888 0.36489
 C339 C 0.45221 0.40742 0.25748
 C340 C 0.42989 0.39212 0.22800
 H341 H 0.33628 0.34422 0.48152
 H342 H 0.30157 0.31010 0.44907
 H343 H 0.31470 0.31076 -0.02984
 H344 H 0.34933 0.34483 0.00448
 H345 H 0.38888 0.42464 0.46955
 H346 H 0.42805 0.45152 0.52260
 H347 H 0.46972 0.40228 0.19752
 H348 H 0.43056 0.37529 0.14722
 C349 C 0.15540 0.65511 -0.06360
 C350 C 0.16962 0.66399 0.06082
 C351 C 0.19008 0.68263 0.04206
 C352 C 0.19652 0.69265 -0.10154
 C353 C 0.18238 0.68318 -0.22615
 C354 C 0.16197 0.66456 -0.20708
 C355 C 0.13345 0.63718 -0.04444
 C356 C 0.11465 0.62263 -0.03196
 C357 C 0.09182 0.60577 -0.02162
 C358 C 0.06896 0.61728 0.03399
 C359 C 0.04629 0.60159 0.03460
 C360 C 0.04617 0.57420 -0.02142
 C361 C 0.06938 0.56259 -0.07382
 C362 C 0.09204 0.57831 -0.07416
 H363 H 0.16467 0.65683 0.17245
 H364 H 0.20057 0.68953 0.14017
 H365 H 0.18681 0.69048 -0.33821
 H366 H 0.15105 0.65785 -0.30413
 H367 H 0.06858 0.63854 0.07467
 H368 H 0.02882 0.61093 0.07805
 H369 H 0.06983 0.54165 -0.11888
 H370 H 0.10959 0.56926 -0.11830
 C371 C 0.65537 1.15571 0.43884
 C372 C 0.66950 1.16431 0.56406
 C373 C 0.69010 1.18282 0.54710
 C374 C 0.69684 1.19310 0.40411
 C375 C 0.68275 1.18375 0.27856
 C376 C 0.66219 1.16527 0.29610
 C377 C 0.63329 1.13788 0.45653
 C378 C 0.61444 1.12338 0.46828
 C379 C 0.59158 1.10653 0.47785
 C380 C 0.59172 1.07928 0.42224
 C381 C 0.56903 1.06362 0.42087
 C382 C 0.54586 1.07503 0.47536
 C383 C 0.54606 1.10219 0.53454
 C384 C 0.56878 1.11783 0.53550
 H385 H 0.66436 1.15703 0.67509
 H386 H 0.70044 1.18938 0.64648
 H387 H 0.68728 1.19102 0.16659
 H388 H 0.65137 1.15874 0.19834
 H389 H 0.60925 1.07035 0.37713
 H390 H 0.56942 1.04290 0.37295
 H391 H 0.52863 1.11138 0.57930
 H392 H 0.56846 1.13889 0.57910
 C393 C 0.15596 0.34378 0.07619
 C394 C 0.16398 0.33531 0.21894
 C395 C 0.18467 0.31693 0.23481
 C396 C 0.19765 0.30670 0.10774
 C397 C 0.18979 0.31577 -0.03536
 C398 C 0.16902 0.33416 -0.05095
 C399 C 0.13361 0.36133 0.06153
 C400 C 0.11443 0.37546 0.05464
 C401 C 0.09110 0.39164 0.05295
 C402 C 0.07370 0.38916 0.17200
 C403 C 0.05085 0.40451 0.17163
 C404 C 0.04510 0.42270 0.05251
 C405 C 0.06277 0.42521 -0.06648
 C406 C 0.08562 0.40969 -0.06639
 H407 H 0.15397 0.34259 0.31803
 H408 H 0.19024 0.31040 0.34653
 H409 H 0.19938 0.30826 -0.13531
 H410 H 0.16293 0.34053 -0.16204
 H411 H 0.07781 0.37539 0.26544
 H412 H 0.03781 0.40244 0.26565
 H413 H 0.05876 0.43887 -0.16030
 H414 H 0.09895 0.41171 -0.15929
 C415 C 0.65663 0.84454 0.55882
 C416 C 0.67062 0.83565 0.43353
 C417 C 0.69144 0.81742 0.45133
 C418 C 0.69846 0.80780 0.59483
 C419 C 0.68461 0.81737 0.72028
 C420 C 0.66383 0.83559 0.70219
 C421 C 0.63427 0.86195 0.54084
 C422 C 0.61517 0.87610 0.52929
 C423 C 0.59207 0.89259 0.51997
 C424 C 0.59183 0.91981 0.57593
 C425 C 0.56899 0.93525 0.57552
 C426 C 0.54606 0.92363 0.51922
 C427 C 0.54660 0.89644 0.46055
 C428 C 0.56947 0.88100 0.46146
 H429 H 0.66519 0.84245 0.32201
 H430 H 0.70173 0.81046 0.35259
 H431 H 0.68952 0.81042 0.83229
 H432 H 0.65312 0.84235 0.79990
 H433 H 0.60917 0.92891 0.62245
 H434 H 0.56910 0.95600 0.62302
 H435 H 0.52936 0.88710 0.41429
 H436 H 0.56944 0.85991 0.41839
 C437 C 0.84429 0.15313 0.26150
 C438 C 0.83778 0.16234 0.40537
 C439 C 0.81773 0.18144 0.42498
 C440 C 0.80394 0.19166 0.30061
 C441 C 0.81039 0.18197 0.15649
 C442 C 0.83046 0.16285 0.13720
 C443 C 0.86586 0.13469 0.24102
 C444 C 0.88434 0.11983 0.22322
 C445 C 0.90683 0.10285 0.19991
 C446 C 0.92948 0.10841 0.27964
 C447 C 0.95193 0.09335 0.24904
 C448 C 0.95201 0.07253 0.13813
 C449 C 0.92898 0.06661 0.06125
 C450 C 0.90655 0.08171 0.09194
 H451 H 0.84843 0.15503 0.50223
 H452 H 0.81325 0.18846 0.53734
 H453 H 0.80015 0.18941 0.05849
 H454 H 0.83541 0.15593 0.02523
 H455 H 0.92990 0.12470 0.36365
 H456 H 0.96929 0.09811 0.31129
 H457 H 0.92854 0.05094 -0.02601
 H458 H 0.88915 0.07733 0.02920
 C459 C 0.34411 0.65400 0.74117
 C460 C 0.33844 0.66349 0.88581
 C461 C 0.31846 0.68262 0.90810
 C462 C 0.30395 0.69257 0.78577
 C463 C 0.30951 0.68249 0.64125
 C464 C 0.32947 0.66335 0.61932
 C465 C 0.36583 0.63595 0.71573
 C466 C 0.38445 0.62164 0.69097
 C467 C 0.40720 0.60563 0.65789
 C468 C 0.41221 0.58058 0.73314
 C469 C 0.43483 0.56567 0.70295
 C470 C 0.45267 0.57574 0.59722
 C471 C 0.44729 0.60079 0.52143
 C472 C 0.42471 0.61558 0.55141
 H473 H 0.34971 0.65648 0.98097
 H474 H 0.31466 0.68994 1.02074
 H475 H 0.29870 0.68967 0.54473
 H476 H 0.33377 0.65621 0.50686
 H477 H 0.39876 0.57269 0.81575
 H478 H 0.43857 0.54657 0.76395
 H479 H 0.46047 0.60883 0.43784
 H480 H 0.42096 0.63485 0.49175
   
