data_POSCAR
  _audit_creation_date              2014-09-24
  _audit_creation_method            'ToBaCCo'
  _symmetry_space_group_name_H-M    'P1'
  _symmetry_Int_Tables_number       1
  _symmetry_cell_setting            triclinic
  loop_
  _symmetry_equiv_pos_as_xyz
 x,y,z
_cell_length_a 44.1281
_cell_length_b 44.0994
_cell_length_c 45.3634
_cell_angle_alpha 90.037500
_cell_angle_beta 89.964700
_cell_angle_gamma 90.001900
loop_
  _atom_site_label
  _atom_site_type_symbol
  _atom_site_fract_x
  _atom_site_fract_y
  _atom_site_fract_z
C1 C -0.06498 0.31195 -0.02732
 C2 C -0.08044 0.31181 -0.00042
 C3 C -0.06477 0.31206 0.02634
 C4 C -0.03269 0.31272 0.02647
 C5 C -0.01673 0.31294 -0.00071
 C6 C -0.03291 0.31260 -0.02775
 C7 C -0.01659 0.31256 -0.05441
 C8 C 0.01495 0.31249 -0.05455
 C9 C 0.03147 0.31247 -0.02802
 C10 C 0.01547 0.31288 -0.00086
 C11 C -0.01615 0.31282 0.05300
 C12 C 0.01539 0.31278 0.05284
 C13 C 0.03164 0.31263 0.02617
 C14 C 0.06365 0.31187 0.02579
 C15 C 0.07915 0.31152 -0.00104
 C16 C 0.06354 0.31169 -0.02784
 H17 H -0.02811 0.31243 -0.07548
 H18 H 0.02633 0.31231 -0.07571
 H19 H -0.02750 0.31280 0.07417
 H20 H 0.02696 0.31272 0.07388
 H21 H -0.10505 0.31089 -0.00031
 H22 H 0.10375 0.31049 -0.00100
 C23 C 0.43605 0.81357 0.47371
 C24 C 0.42044 0.81325 0.50050
 C25 C 0.43596 0.81353 0.52733
 C26 C 0.46797 0.81435 0.52765
 C27 C 0.48408 0.81476 0.50058
 C28 C 0.46807 0.81442 0.47346
 C29 C 0.48449 0.81456 0.44688
 C30 C 0.51604 0.81468 0.44692
 C31 C 0.53237 0.81466 0.47354
 C32 C 0.51625 0.81486 0.50062
 C33 C 0.48429 0.81438 0.55427
 C34 C 0.51585 0.81446 0.55431
 C35 C 0.53227 0.81453 0.52773
 C36 C 0.56429 0.81389 0.52748
 C37 C 0.57990 0.81377 0.50069
 C38 C 0.56438 0.81405 0.47386
 H39 H 0.47304 0.81444 0.42578
 H40 H 0.52757 0.81465 0.42585
 H41 H 0.47277 0.81420 0.57535
 H42 H 0.52729 0.81434 0.57542
 H43 H 0.39587 0.81215 0.50047
 H44 H 0.60448 0.81283 0.50071
 C45 C 1.06413 0.68707 0.02647
 C46 C 1.07982 0.68733 -0.00026
 C47 C 1.06440 0.68713 -0.02716
 C48 C 1.03233 0.68643 -0.02757
 C49 C 1.01615 0.68610 -0.00051
 C50 C 1.03212 0.68637 0.02663
 C51 C 1.01566 0.68630 0.05319
 C52 C 0.98412 0.68632 0.05311
 C53 C 0.96783 0.68641 0.02648
 C54 C 0.98396 0.68612 -0.00059
 C55 C 1.01599 0.68643 -0.05421
 C56 C 0.98445 0.68646 -0.05428
 C57 C 0.96794 0.68650 -0.02772
 C58 C 0.93587 0.68726 -0.02747
 C59 C 0.92028 0.68746 -0.00063
 C60 C 0.93582 0.68715 0.02617
 H61 H 1.02707 0.68637 0.07431
 H62 H 0.97258 0.68640 0.07418
 H63 H 1.02751 0.68654 -0.07529
 H64 H 0.97305 0.68660 -0.07542
 H65 H 1.10442 0.68831 -0.00006
 H66 H 0.89569 0.68849 -0.00055
 C67 C 0.43598 0.18706 0.47288
 C68 C 0.42040 0.18731 0.49969
 C69 C 0.43595 0.18706 0.52650
 C70 C 0.46796 0.18631 0.52678
 C71 C 0.48404 0.18602 0.49968
 C72 C 0.46799 0.18635 0.47259
 C73 C 0.48438 0.18636 0.44598
 C74 C 0.51594 0.18638 0.44598
 C75 C 0.53229 0.18637 0.47258
 C76 C 0.51622 0.18601 0.49967
 C77 C 0.48432 0.18624 0.55337
 C78 C 0.51588 0.18621 0.55337
 C79 C 0.53226 0.18626 0.52676
 C80 C 0.56428 0.18696 0.52648
 C81 C 0.57986 0.18727 0.49967
 C82 C 0.56431 0.18710 0.47286
 H83 H 0.47290 0.18650 0.42489
 H84 H 0.52743 0.18653 0.42489
 H85 H 0.47282 0.18633 0.57446
 H86 H 0.52735 0.18628 0.57446
 H87 H 0.39582 0.18832 0.49969
 H88 H 0.60444 0.18827 0.49967
 C89 C 0.68753 0.06418 0.02597
 C90 C 0.68786 0.07956 -0.00093
 C91 C 0.68774 0.06379 -0.02766
 C92 C 0.68702 0.03169 -0.02771
 C93 C 0.68666 0.01583 -0.00048
 C94 C 0.68687 0.03216 0.02648
 C95 C 0.68680 0.01605 0.05322
 C96 C 0.68688 -0.01551 0.05351
 C97 C 0.68701 -0.03221 0.02706
 C98 C 0.68670 -0.01639 -0.00020
 C99 C 0.68702 0.01501 -0.05417
 C100 C 0.68702 -0.01655 -0.05390
 C101 C 0.68704 -0.03273 -0.02716
 C102 C 0.68777 -0.06481 -0.02660
 C103 C 0.68803 -0.08013 0.00036
 C104 C 0.68779 -0.06430 0.02706
 H105 H 0.68683 0.02774 0.07421
 H106 H 0.68697 -0.02674 0.07472
 H107 H 0.68716 0.02627 -0.07537
 H108 H 0.68715 -0.02820 -0.07492
 H109 H 0.68882 0.10417 -0.00099
 H110 H 0.68903 -0.10476 0.00056
 C111 C 0.18599 0.56379 0.52728
 C112 C 0.18625 0.57955 0.50058
 C113 C 0.18592 0.56416 0.47367
 C114 C 0.18515 0.53213 0.47314
 C115 C 0.18479 0.51587 0.50011
 C116 C 0.18514 0.53175 0.52733
 C117 C 0.18502 0.51519 0.55380
 C118 C 0.18490 0.48361 0.55356
 C119 C 0.18493 0.46742 0.52684
 C120 C 0.18471 0.48368 0.49987
 C121 C 0.18513 0.51594 0.44642
 C122 C 0.18511 0.48436 0.44618
 C123 C 0.18507 0.46779 0.47265
 C124 C 0.18578 0.43575 0.47270
 C125 C 0.18589 0.42000 0.49940
 C126 C 0.18556 0.43538 0.52632
 H127 H 0.18515 0.52653 0.57498
 H128 H 0.18494 0.47197 0.57457
 H129 H 0.18528 0.52758 0.42541
 H130 H 0.18525 0.47302 0.42500
 H131 H 0.18733 0.60414 0.50076
 H132 H 0.18687 0.39540 0.49923
 C133 C 0.31311 0.93568 -0.02716
 C134 C 0.31302 0.92004 -0.00037
 C135 C 0.31341 0.93555 0.02648
 C136 C 0.31412 0.96757 0.02688
 C137 C 0.31432 0.98376 -0.00014
 C138 C 0.31388 0.96778 -0.02732
 C139 C 0.31386 0.98434 -0.05383
 C140 C 0.31390 1.01591 -0.05366
 C141 C 0.31395 1.03216 -0.02698
 C142 C 0.31432 1.01597 0.00004
 C143 C 0.31425 0.98383 0.05356
 C144 C 0.31420 1.01539 0.05374
 C145 C 0.31405 1.03195 0.02722
 C146 C 0.31328 1.06405 0.02707
 C147 C 0.31302 1.07969 0.00028
 C148 C 0.31325 1.06419 -0.02657
 H149 H 0.31367 0.97298 -0.07500
 H150 H 0.31375 1.02749 -0.07469
 H151 H 0.31423 0.97224 0.07460
 H152 H 0.31415 1.02675 0.07491
 H153 H 0.31200 0.89543 -0.00035
 H154 H 0.31201 1.10430 0.00027
 C155 C 0.81349 0.43596 0.47356
 C156 C 0.81316 0.42052 0.50042
 C157 C 0.81330 0.43622 0.52718
 C158 C 0.81403 0.46826 0.52733
 C159 C 0.81438 0.48420 0.50017
 C160 C 0.81413 0.46800 0.47314
 C161 C 0.81415 0.48425 0.44647
 C162 C 0.81406 0.51583 0.44634
 C163 C 0.81398 0.53234 0.47286
 C164 C 0.81434 0.51640 0.50003
 C165 C 0.81403 0.48477 0.55386
 C166 C 0.81405 0.51635 0.55372
 C167 C 0.81402 0.53260 0.52705
 C168 C 0.81330 0.56463 0.52664
 C169 C 0.81297 0.58008 0.49977
 C170 C 0.81318 0.56438 0.47302
 H171 H 0.81408 0.47265 0.42542
 H172 H 0.81392 0.52721 0.42520
 H173 H 0.81390 0.47338 0.57499
 H174 H 0.81393 0.52795 0.57477
 H175 H 0.81218 0.39592 0.50051
 H176 H 0.81194 0.60467 0.49968
 O177 O 0.21967 0.26089 0.28461
 O178 O 0.24699 0.20477 0.23059
 O179 O 0.26130 0.21927 0.28466
 O180 O 0.20536 0.24641 0.23054
 O181 O 0.23865 0.27969 0.21377
 O182 O 0.29459 0.25256 0.26790
 O183 O 0.28027 0.23806 0.21382
 O184 O 0.25295 0.29418 0.26784
 Cu185 Cu 0.22997 0.22948 0.25929
 Cu186 Cu 0.26997 0.26948 0.23914
 C187 C 0.23186 0.28693 0.28550
 C188 C 0.26808 0.21203 0.21293
 C189 C 0.28730 0.23150 0.28557
 C190 C 0.21265 0.26746 0.21286
 O191 O 0.70536 0.74833 0.26857
 O192 O 0.76109 0.72067 0.21439
 O193 O 0.74669 0.70640 0.26849
 O194 O 0.71976 0.76260 0.21445
 O195 O 0.75328 0.79569 0.23114
 O196 O 0.78021 0.73949 0.28518
 O197 O 0.79462 0.75376 0.23109
 O198 O 0.73889 0.78143 0.28526
 Cu199 Cu 0.72984 0.73117 0.23979
 Cu200 Cu 0.77013 0.77093 0.25985
 C201 C 0.71280 0.76937 0.28623
 C202 C 0.78718 0.73272 0.21344
 C203 C 0.76783 0.71355 0.28611
 C204 C 0.73215 0.78854 0.21351
 O205 O 0.79535 0.24719 0.23061
 O206 O 0.73936 0.22007 0.28478
 O207 O 0.75351 0.20578 0.23062
 O208 O 0.78120 0.26147 0.28481
 O209 O 0.74805 0.29501 0.26828
 O210 O 0.72036 0.23932 0.21410
 O211 O 0.70621 0.25360 0.26826
 O212 O 0.76220 0.28072 0.21409
 Cu213 Cu 0.77070 0.23025 0.25937
 Cu214 Cu 0.73087 0.27055 0.23952
 C215 C 0.78813 0.26835 0.21304
 C216 C 0.71341 0.23242 0.28581
 C217 C 0.73243 0.21323 0.21306
 C218 C 0.76912 0.28755 0.28586
 O219 O 0.28039 0.76107 0.21490
 O220 O 0.25263 0.70547 0.26909
 O221 O 0.23853 0.71968 0.21493
 O222 O 0.29449 0.74688 0.26906
 O223 O 0.26134 0.78044 0.28559
 O224 O 0.20538 0.75325 0.23146
 O225 O 0.21948 0.73904 0.28562
 O226 O 0.24724 0.79464 0.23142
 Cu227 Cu 0.26986 0.72989 0.24033
 Cu228 Cu 0.23001 0.77023 0.26019
 C229 C 0.26833 0.78716 0.21386
 C230 C 0.23154 0.71296 0.28666
 C231 C 0.21260 0.73204 0.21390
 C232 C 0.28727 0.76809 0.28661
 O233 O 0.70548 0.25224 0.73166
 O234 O 0.76131 0.27958 0.78583
 O235 O 0.74689 0.29409 0.73180
 O236 O 0.71994 0.23770 0.78568
 O237 O 0.75339 0.20464 0.76878
 O238 O 0.78035 0.26103 0.71491
 O239 O 0.79477 0.24652 0.76893
 O240 O 0.73894 0.21917 0.71476
 Cu241 Cu 0.73003 0.26924 0.76045
 Cu242 Cu 0.77024 0.22950 0.74014
 C243 C 0.71287 0.23126 0.71391
 C244 C 0.78738 0.26749 0.78669
 C245 C 0.76800 0.28699 0.71410
 C246 C 0.73229 0.21174 0.78648
 O247 O 0.24660 0.79480 0.76947
 O248 O 0.21951 0.73863 0.71541
 O249 O 0.20511 0.75303 0.76950
 O250 O 0.26101 0.78040 0.71538
 O251 O 0.29439 0.74720 0.73211
 O252 O 0.23849 0.71983 0.78622
 O253 O 0.25289 0.70544 0.73213
 O254 O 0.27998 0.76160 0.78619
 Cu255 Cu 0.22969 0.77006 0.74075
 Cu256 Cu 0.26980 0.73017 0.76085
 C257 C 0.26770 0.78760 0.78711
 C258 C 0.23179 0.71264 0.71449
 C259 C 0.21245 0.73198 0.78715
 C260 C 0.28706 0.76825 0.71445
 O261 O 0.20438 0.24614 0.76853
 O262 O 0.26061 0.21927 0.71444
 O263 O 0.24642 0.20493 0.76856
 O264 O 0.21858 0.26049 0.71440
 O265 O 0.25154 0.29418 0.73103
 O266 O 0.27938 0.23862 0.78519
 O267 O 0.29357 0.25296 0.73106
 O268 O 0.23734 0.27982 0.78515
 Cu269 Cu 0.22917 0.22931 0.73980
 Cu270 Cu 0.26878 0.26980 0.75978
 C271 C 0.21146 0.26735 0.78613
 C272 C 0.28650 0.23175 0.71347
 C273 C 0.26743 0.21248 0.78617
 C274 C 0.23054 0.28663 0.71341
 O275 O 0.73905 0.78079 0.71548
 O276 O 0.79514 0.75349 0.76939
 O277 O 0.78083 0.73933 0.71525
 O278 O 0.75334 0.79494 0.76964
 O279 O 0.72019 0.76141 0.78621
 O280 O 0.74768 0.70580 0.73183
 O281 O 0.76199 0.71997 0.78597
 O282 O 0.70590 0.74726 0.73205
 Cu283 Cu 0.77043 0.77052 0.74077
 Cu284 Cu 0.73059 0.73023 0.76068
 C285 C 0.71309 0.76847 0.71451
 C286 C 0.78795 0.73229 0.78694
 C287 C 0.76872 0.71326 0.71420
 C288 C 0.73230 0.78748 0.78726
 C289 C 0.31118 0.08070 0.05245
 C290 C 0.30862 0.09585 0.07444
 C291 C 0.30462 0.11451 0.10019
 C292 C 0.28677 0.10423 0.12371
 C293 C 0.28094 0.12330 0.14771
 C294 C 0.29294 0.15271 0.14830
 C295 C 0.31126 0.16277 0.12504
 C296 C 0.31709 0.14372 0.10104
 C297 C 0.28501 0.17317 0.17181
 C298 C 0.27766 0.19071 0.19092
 H299 H 0.27687 0.08175 0.12320
 H300 H 0.26660 0.11534 0.16549
 H301 H 0.32051 0.18553 0.12517
 H302 H 0.33076 0.15196 0.08289
 C303 C 0.81126 0.58244 0.55330
 C304 C 0.80880 0.59770 0.57522
 C305 C 0.80495 0.61640 0.60094
 C306 C 0.78829 0.60563 0.62507
 C307 C 0.78260 0.62462 0.64915
 C308 C 0.79356 0.65444 0.64920
 C309 C 0.81071 0.66501 0.62532
 C310 C 0.81639 0.64603 0.60124
 C311 C 0.78569 0.67475 0.67283
 C312 C 0.77835 0.69214 0.69206
 H313 H 0.77920 0.58281 0.62498
 H314 H 0.76915 0.61628 0.66742
 H315 H 0.81913 0.68809 0.62504
 H316 H 0.82915 0.65463 0.58262
 C317 C 0.68986 0.91921 0.05252
 C318 C 0.69239 0.90420 0.07459
 C319 C 0.69631 0.88570 0.10043
 C320 C 0.68340 0.85669 0.10158
 C321 C 0.68910 0.83776 0.12566
 C322 C 0.70774 0.84773 0.14871
 C323 C 0.72019 0.87695 0.14782
 C324 C 0.71448 0.89590 0.12373
 C325 C 0.71552 0.82735 0.17230
 C326 C 0.72273 0.80985 0.19146
 H327 H 0.66946 0.84851 0.08360
 H328 H 0.67950 0.81515 0.12603
 H329 H 0.73479 0.88483 0.16543
 H330 H 0.72472 0.91821 0.12298
 C331 C 0.18756 0.41752 0.55293
 C332 C 0.19001 0.40222 0.57480
 C333 C 0.19387 0.38348 0.60046
 C334 C 0.21008 0.39442 0.62480
 C335 C 0.21583 0.37541 0.64882
 C336 C 0.20538 0.34540 0.64860
 C337 C 0.18867 0.33466 0.62450
 C338 C 0.18293 0.35366 0.60048
 C339 C 0.21335 0.32511 0.67217
 C340 C 0.22079 0.30774 0.69134
 H341 H 0.21878 0.41739 0.62493
 H342 H 0.22893 0.38389 0.66726
 H343 H 0.18065 0.31144 0.62402
 H344 H 0.17053 0.34493 0.58170
 C345 C 0.91863 0.31014 0.05174
 C346 C 0.90354 0.30775 0.07379
 C347 C 0.88501 0.30398 0.09964
 C348 C 0.89550 0.28656 0.12336
 C349 C 0.87658 0.28096 0.14750
 C350 C 0.84710 0.29276 0.14802
 C351 C 0.83682 0.31065 0.12456
 C352 C 0.85573 0.31625 0.10041
 C353 C 0.82679 0.28502 0.17169
 C354 C 0.80936 0.27781 0.19092
 H355 H 0.91804 0.27683 0.12290
 H356 H 0.88470 0.26695 0.16544
 H357 H 0.81401 0.31973 0.12464
 H358 H 0.84733 0.32959 0.08212
 C359 C 0.41824 0.81134 0.55403
 C360 C 0.40300 0.80875 0.57595
 C361 C 0.38431 0.80475 0.60164
 C362 C 0.39477 0.78736 0.62539
 C363 C 0.37573 0.78155 0.64940
 C364 C 0.34616 0.79313 0.64975
 C365 C 0.33590 0.81099 0.62625
 C366 C 0.35493 0.81679 0.60225
 C367 C 0.32577 0.78521 0.67328
 C368 C 0.30829 0.77786 0.69242
 H369 H 0.41739 0.77779 0.62506
 H370 H 0.38383 0.76756 0.66736
 H371 H 0.31302 0.81990 0.62622
 H372 H 0.34655 0.83011 0.58393
 C373 C 0.08169 0.68921 0.05327
 C374 C 0.09683 0.69176 0.07525
 C375 C 0.11544 0.69572 0.10100
 C376 C 0.14466 0.68334 0.10179
 C377 C 0.16365 0.68911 0.12582
 C378 C 0.15350 0.70729 0.14916
 C379 C 0.12407 0.71921 0.14863
 C380 C 0.10507 0.71343 0.12459
 C381 C 0.17388 0.71518 0.17271
 C382 C 0.19135 0.72249 0.19185
 H383 H 0.15297 0.66976 0.08358
 H384 H 0.18643 0.67993 0.12591
 H385 H 0.11605 0.73346 0.16647
 H386 H 0.08258 0.72327 0.12413
 C387 C 0.58194 0.18898 0.55321
 C388 C 0.59714 0.19143 0.57516
 C389 C 0.61578 0.19526 0.60089
 C390 C 0.64517 0.18324 0.60142
 C391 C 0.66416 0.18890 0.62546
 C392 C 0.65386 0.20660 0.64909
 C393 C 0.62427 0.21814 0.64882
 C394 C 0.60527 0.21248 0.62477
 C395 C 0.67422 0.21441 0.67267
 C396 C 0.69167 0.22170 0.69184
 H397 H 0.65359 0.17005 0.58299
 H398 H 0.68706 0.18002 0.62536
 H399 H 0.61613 0.23201 0.66689
 H400 H 0.58264 0.22202 0.62451
 C401 C 0.68986 0.08033 0.94692
 C402 C 0.69242 0.09542 0.92489
 C403 C 0.69636 0.11403 0.89913
 C404 C 0.71472 0.10401 0.87586
 C405 C 0.72045 0.12308 0.85186
 C406 C 0.70784 0.15223 0.85102
 C407 C 0.68903 0.16202 0.87403
 C408 C 0.68330 0.14296 0.89803
 C409 C 0.71563 0.17274 0.82753
 C410 C 0.72286 0.19033 0.80845
 H411 H 0.72508 0.08175 0.87657
 H412 H 0.73518 0.11534 0.83428
 H413 H 0.67931 0.18458 0.87371
 H414 H 0.66923 0.15101 0.91599
 C415 C 0.18807 0.58201 0.44706
 C416 C 0.19063 0.59732 0.42520
 C417 C 0.19461 0.61604 0.39954
 C418 C 0.18340 0.64576 0.39936
 C419 C 0.18923 0.66477 0.37536
 C420 C 0.20630 0.65413 0.35144
 C421 C 0.21704 0.62423 0.35137
 C422 C 0.21119 0.60521 0.37538
 C423 C 0.21432 0.67444 0.32788
 C424 C 0.22179 0.69183 0.30872
 H425 H 0.17070 0.65441 0.41800
 H426 H 0.18099 0.68791 0.37572
 H427 H 0.23042 0.61584 0.33307
 H428 H 0.22011 0.58232 0.37537
 C429 C 0.31089 0.91903 0.94748
 C430 C 0.30823 0.90387 0.92550
 C431 C 0.30415 0.88519 0.89979
 C432 C 0.31677 0.85605 0.89884
 C433 C 0.31092 0.83698 0.87487
 C434 C 0.29243 0.84696 0.85173
 C435 C 0.28026 0.87631 0.85241
 C436 C 0.28612 0.89539 0.87639
 C437 C 0.28452 0.82649 0.82823
 C438 C 0.27721 0.80894 0.80912
 H439 H 0.33059 0.84787 0.91690
 H440 H 0.32029 0.81427 0.87466
 H441 H 0.26579 0.88419 0.83472
 H442 H 0.27611 0.91781 0.87698
 C443 C 0.81151 0.41816 0.44688
 C444 C 0.80910 0.40292 0.42494
 C445 C 0.80530 0.38428 0.39918
 C446 C 0.81681 0.35468 0.39881
 C447 C 0.81116 0.33573 0.37469
 C448 C 0.79399 0.34632 0.35086
 C449 C 0.78297 0.37612 0.35098
 C450 C 0.78862 0.39507 0.37510
 C451 C 0.78613 0.32605 0.32720
 C452 C 0.77878 0.30868 0.30798
 H453 H 0.82958 0.34605 0.41739
 H454 H 0.81962 0.31267 0.37491
 H455 H 0.76950 0.38448 0.33275
 H456 H 0.77948 0.41787 0.37524
 C457 C 0.08020 0.30959 0.94681
 C458 C 0.09534 0.30705 0.92481
 C459 C 0.11398 0.30314 0.89905
 C460 C 0.14306 0.31586 0.89813
 C461 C 0.16209 0.31017 0.87409
 C462 C 0.15213 0.29173 0.85087
 C463 C 0.12284 0.27947 0.85153
 C464 C 0.10380 0.28517 0.87557
 C465 C 0.17258 0.28396 0.82732
 C466 C 0.19012 0.27675 0.80817
 H467 H 0.15122 0.32963 0.91624
 H468 H 0.18476 0.31961 0.87390
 H469 H 0.11497 0.26504 0.83378
 H470 H 0.08142 0.27508 0.87614
 C471 C 0.58210 0.81204 0.44714
 C472 C 0.59731 0.80959 0.42519
 C473 C 0.61595 0.80573 0.39943
 C474 C 0.60526 0.78883 0.37543
 C475 C 0.62423 0.78312 0.35134
 C476 C 0.65395 0.79430 0.35116
 C477 C 0.66444 0.81169 0.37491
 C478 C 0.64548 0.81739 0.39900
 C479 C 0.67425 0.78640 0.32753
 C480 C 0.69165 0.77903 0.30833
 H481 H 0.58252 0.77956 0.37562
 H482 H 0.61595 0.76949 0.33317
 H483 H 0.68744 0.82028 0.37509
 H484 H 0.65404 0.83034 0.41752
 C485 C 0.91919 0.68936 0.94721
 C486 C 0.90402 0.69191 0.92526
 C487 C 0.88536 0.69587 0.89955
 C488 C 0.89572 0.71350 0.87591
 C489 C 0.87667 0.71929 0.85192
 C490 C 0.84720 0.70747 0.85149
 C491 C 0.83706 0.68936 0.87487
 C492 C 0.85610 0.68358 0.89885
 C493 C 0.82677 0.71537 0.82800
 C494 C 0.80925 0.72271 0.80891
 H495 H 0.91825 0.72326 0.87631
 H496 H 0.88468 0.73347 0.83405
 H497 H 0.81425 0.68026 0.87484
 H498 H 0.84780 0.67007 0.91709
 C499 C 0.41831 0.18916 0.44615
 C500 C 0.40312 0.19166 0.42421
 C501 C 0.38448 0.19554 0.39849
 C502 C 0.39489 0.21303 0.37478
 C503 C 0.37588 0.21872 0.35074
 C504 C 0.34639 0.20693 0.35033
 C505 C 0.33619 0.18896 0.37379
 C506 C 0.35520 0.18328 0.39782
 C507 C 0.32601 0.21473 0.32677
 C508 C 0.30854 0.22200 0.30762
 H509 H 0.41743 0.22276 0.37515
 H510 H 0.38393 0.23279 0.33280
 H511 H 0.31338 0.17989 0.37378
 H512 H 0.34686 0.16988 0.41611
 C513 C 0.68975 0.91825 0.94821
 C514 C 0.69219 0.90294 0.92631
 C515 C 0.69603 0.88422 0.90061
 C516 C 0.71216 0.89519 0.87623
 C517 C 0.71786 0.87621 0.85214
 C518 C 0.70744 0.84620 0.85234
 C519 C 0.69083 0.83541 0.87649
 C520 C 0.68514 0.85438 0.90057
 C521 C 0.71533 0.82594 0.82867
 C522 C 0.72268 0.80858 0.80942
 H523 H 0.72083 0.91818 0.87611
 H524 H 0.73089 0.88473 0.83366
 H525 H 0.68283 0.81218 0.87695
 H526 H 0.67280 0.84562 0.91938
 C527 C 0.18810 0.41823 0.44586
 C528 C 0.19082 0.40310 0.42387
 C529 C 0.19498 0.38446 0.39813
 C530 C 0.21333 0.39457 0.37491
 C531 C 0.21927 0.37551 0.35093
 C532 C 0.20687 0.34627 0.35006
 C533 C 0.18805 0.33638 0.37301
 C534 C 0.18212 0.35544 0.39699
 C535 C 0.21486 0.32580 0.32658
 C536 C 0.22225 0.30826 0.30749
 H537 H 0.22354 0.41691 0.37565
 H538 H 0.23400 0.38333 0.33339
 H539 H 0.17849 0.31376 0.37266
 H540 H 0.16804 0.34732 0.41491
 C541 C 0.31109 0.08194 0.94677
 C542 C 0.30851 0.09717 0.92486
 C543 C 0.30449 0.11581 0.89915
 C544 C 0.31582 0.14548 0.89881
 C545 C 0.30996 0.16442 0.87477
 C546 C 0.29274 0.15376 0.85098
 C547 C 0.28190 0.12390 0.85107
 C548 C 0.28777 0.10495 0.87512
 C549 C 0.28469 0.17401 0.82740
 C550 C 0.27721 0.19138 0.80823
 H551 H 0.32863 0.15416 0.91736
 H552 H 0.31829 0.18753 0.87500
 H553 H 0.26841 0.11549 0.83287
 H554 H 0.27876 0.08210 0.87524
 C555 C 0.81090 0.58195 0.44623
 C556 C 0.80824 0.59714 0.42429
 C557 C 0.80416 0.61584 0.39861
 C558 C 0.78605 0.60571 0.37523
 C559 C 0.78021 0.62481 0.35129
 C560 C 0.79246 0.65413 0.35063
 C561 C 0.81102 0.66404 0.37376
 C562 C 0.81686 0.64495 0.39770
 C563 C 0.78458 0.67462 0.32717
 C564 C 0.77730 0.69219 0.30809
 H565 H 0.77598 0.58331 0.37580
 H566 H 0.76568 0.61697 0.33361
 H567 H 0.82046 0.68672 0.37357
 H568 H 0.83074 0.65308 0.41574
 C569 C 0.08122 0.68917 0.94759
 C570 C 0.09647 0.69167 0.92567
 C571 C 0.11518 0.69559 0.89997
 C572 C 0.10462 0.71266 0.87606
 C573 C 0.12367 0.71842 0.85204
 C574 C 0.15335 0.70712 0.85186
 C575 C 0.16371 0.68956 0.87553
 C576 C 0.14466 0.68381 0.89954
 C577 C 0.17374 0.71502 0.82832
 C578 C 0.19121 0.72237 0.80918
 H579 H 0.08192 0.72202 0.87625
 H580 H 0.11549 0.73218 0.83394
 H581 H 0.18667 0.68086 0.87570
 H582 H 0.15312 0.67073 0.91800
 C583 C 0.58201 0.18933 0.44613
 C584 C 0.59725 0.19196 0.42422
 C585 C 0.61597 0.19600 0.39854
 C586 C 0.64525 0.18374 0.39784
 C587 C 0.66432 0.18956 0.37387
 C588 C 0.65419 0.20766 0.35049
 C589 C 0.62471 0.21946 0.35094
 C590 C 0.60563 0.21364 0.37491
 C591 C 0.67463 0.21556 0.32698
 C592 C 0.69214 0.22288 0.30785
 H593 H 0.65353 0.17022 0.41607
 H594 H 0.68713 0.18047 0.37383
 H595 H 0.61671 0.23364 0.33306
 H596 H 0.58309 0.22337 0.37531
 C597 C 0.91821 0.30994 0.94743
 C598 C 0.90299 0.30748 0.92550
 C599 C 0.88434 0.30361 0.89978
 C600 C 0.89500 0.28670 0.87576
 C601 C 0.87602 0.28100 0.85170
 C602 C 0.84631 0.29221 0.85156
 C603 C 0.83584 0.30961 0.87533
 C604 C 0.85482 0.31530 0.89939
 C605 C 0.82599 0.28436 0.82796
 C606 C 0.80857 0.27706 0.80877
 H607 H 0.91773 0.27741 0.87591
 H608 H 0.88428 0.26736 0.83351
 H609 H 0.81285 0.31823 0.87554
 H610 H 0.84628 0.32826 0.91792
 C611 C 0.41843 0.81134 0.44696
 C612 C 0.40324 0.80872 0.42502
 C613 C 0.38458 0.80467 0.39933
 C614 C 0.39492 0.78693 0.37574
 C615 C 0.37588 0.78107 0.35175
 C616 C 0.34643 0.79295 0.35126
 C617 C 0.33630 0.81116 0.37460
 C618 C 0.35533 0.81700 0.39858
 C619 C 0.32602 0.78501 0.32776
 C620 C 0.30853 0.77766 0.30864
 H621 H 0.41743 0.77713 0.37618
 H622 H 0.38388 0.76682 0.33392
 H623 H 0.31351 0.82030 0.37453
 H624 H 0.34704 0.83060 0.41678
 C625 C 0.31141 0.91779 0.05316
 C626 C 0.30895 0.90256 0.07508
 C627 C 0.30506 0.88392 0.10081
 C628 C 0.28842 0.89475 0.12493
 C629 C 0.28265 0.87579 0.14899
 C630 C 0.29350 0.84593 0.14901
 C631 C 0.31064 0.83529 0.12514
 C632 C 0.31641 0.85425 0.10108
 C633 C 0.28552 0.82565 0.17260
 C634 C 0.27807 0.80827 0.19178
 H635 H 0.27940 0.91760 0.12485
 H636 H 0.26922 0.88418 0.16725
 H637 H 0.31898 0.81219 0.12485
 H638 H 0.32914 0.84559 0.08247
 C639 C 0.81103 0.41864 0.55397
 C640 C 0.80836 0.40347 0.57592
 C641 C 0.80429 0.38479 0.60162
 C642 C 0.81718 0.35577 0.60264
 C643 C 0.81135 0.33668 0.62659
 C644 C 0.79260 0.34651 0.64962
 C645 C 0.78015 0.37574 0.64887
 C646 C 0.78599 0.39484 0.62491
 C647 C 0.78473 0.32600 0.67309
 C648 C 0.77746 0.30840 0.69215
 H649 H 0.83121 0.34770 0.58466
 H650 H 0.82095 0.31407 0.62685
 H651 H 0.76548 0.38351 0.66647
 H652 H 0.77576 0.41716 0.62427
 C653 C 0.68953 0.08208 0.05258
 C654 C 0.69198 0.09741 0.07446
 C655 C 0.69585 0.11616 0.10013
 C656 C 0.68461 0.14587 0.10030
 C657 C 0.69035 0.16491 0.12432
 C658 C 0.70735 0.15431 0.14827
 C659 C 0.71811 0.12442 0.14835
 C660 C 0.71236 0.10537 0.12433
 C661 C 0.71530 0.17466 0.17183
 C662 C 0.72272 0.19208 0.19100
 H663 H 0.67197 0.15449 0.08163
 H664 H 0.68209 0.18804 0.12395
 H665 H 0.73143 0.11606 0.16667
 H666 H 0.72130 0.08249 0.12434
 C667 C 0.18829 0.58130 0.55413
 C668 C 0.19100 0.59644 0.57612
 C669 C 0.19513 0.61507 0.60186
 C670 C 0.18223 0.64407 0.60302
 C671 C 0.18813 0.66313 0.62700
 C672 C 0.20697 0.65327 0.64992
 C673 C 0.21943 0.62405 0.64903
 C674 C 0.21352 0.60499 0.62504
 C675 C 0.21491 0.67374 0.67340
 C676 C 0.22225 0.69129 0.69250
 H677 H 0.16813 0.65217 0.58513
 H678 H 0.17852 0.68573 0.62737
 H679 H 0.23417 0.61626 0.66654
 H680 H 0.22376 0.58267 0.62428
 C681 C 0.91811 0.68929 0.05289
 C682 C 0.90289 0.69185 0.07483
 C683 C 0.88423 0.69585 0.10055
 C684 C 0.85478 0.68399 0.10109
 C685 C 0.83577 0.68984 0.12512
 C686 C 0.84614 0.70755 0.14869
 C687 C 0.87579 0.71893 0.14840
 C688 C 0.89480 0.71308 0.12437
 C689 C 0.82579 0.71556 0.17224
 C690 C 0.80836 0.72300 0.19139
 H691 H 0.84631 0.67079 0.08271
 H692 H 0.81283 0.68108 0.12503
 H693 H 0.88398 0.73281 0.16643
 H694 H 0.91748 0.72250 0.12409
 C695 C 0.41825 0.18922 0.55323
 C696 C 0.40300 0.19178 0.57515
 C697 C 0.38425 0.19575 0.60082
 C698 C 0.35509 0.18322 0.60157
 C699 C 0.33597 0.18895 0.62553
 C700 C 0.34593 0.20726 0.64885
 C701 C 0.37530 0.21934 0.64836
 C702 C 0.39443 0.21359 0.62440
 C703 C 0.32543 0.21507 0.67235
 C704 C 0.30786 0.22231 0.69146
 H705 H 0.34693 0.16954 0.58338
 H706 H 0.31325 0.17965 0.62560
 H707 H 0.38317 0.23367 0.66619
 H708 H 0.41687 0.22354 0.62396
 C709 C 0.08139 0.30982 0.05248
 C710 C 0.09664 0.30734 0.07438
 C711 C 0.11535 0.30347 0.10006
 C712 C 0.10487 0.28626 0.12394
 C713 C 0.12392 0.28056 0.14794
 C714 C 0.15352 0.29207 0.14816
 C715 C 0.16379 0.30977 0.12453
 C716 C 0.14474 0.31546 0.10054
 C717 C 0.17392 0.28425 0.17169
 C718 C 0.19140 0.27698 0.19083
 H719 H 0.08223 0.27674 0.12371
 H720 H 0.11581 0.26670 0.16600
 H721 H 0.18669 0.31863 0.12439
 H722 H 0.15313 0.32865 0.08212
 C723 C 0.58192 0.81168 0.55423
 C724 C 0.59710 0.80906 0.57616
 C725 C 0.61575 0.80502 0.60187
 C726 C 0.60544 0.78719 0.62538
 C727 C 0.62447 0.78136 0.64937
 C728 C 0.65388 0.79333 0.64994
 C729 C 0.66398 0.81162 0.62668
 C730 C 0.64496 0.81745 0.60269
 C731 C 0.67429 0.78540 0.67343
 C732 C 0.69180 0.77805 0.69253
 H733 H 0.58296 0.77732 0.62489
 H734 H 0.61650 0.76703 0.66715
 H735 H 0.68674 0.82085 0.62680
 H736 H 0.65322 0.83112 0.58455
   
