data_POSCAR
  _audit_creation_date              2014-09-24
  _audit_creation_method            'ToBaCCo'
  _symmetry_space_group_name_H-M    'P1'
  _symmetry_Int_Tables_number       1
  _symmetry_cell_setting            triclinic
  loop_
  _symmetry_equiv_pos_as_xyz
 x,y,z
_cell_length_a 26.8975
_cell_length_b 27.0557
_cell_length_c 9.0621
_cell_angle_alpha 89.712100
_cell_angle_beta 90.383900
_cell_angle_gamma 120.501200
loop_
  _atom_site_label
  _atom_site_type_symbol
  _atom_site_fract_x
  _atom_site_fract_y
  _atom_site_fract_z
C1 C 0.17382 0.43009 0.36590
 C2 C 0.15093 0.40245 0.50119
 C3 C 0.17314 0.43127 0.63574
 C4 C 0.23193 0.47491 0.63886
 C5 C 0.26234 0.49533 0.50338
 C6 C 0.23277 0.47450 0.36587
 C7 C 0.26439 0.49482 0.23454
 C8 C 0.32367 0.53323 0.23735
 C9 C 0.35358 0.55332 0.37123
 C10 C 0.32258 0.53554 0.50567
 C11 C 0.26237 0.49459 0.77253
 C12 C 0.32161 0.53226 0.77427
 C13 C 0.35265 0.55242 0.64264
 C14 C 0.41350 0.58565 0.64493
 C15 C 0.44265 0.60602 0.51039
 C16 C 0.41430 0.58716 0.37411
 H17 H 0.24472 0.47795 0.12880
 H18 H 0.34659 0.54616 0.13385
 H19 H 0.24173 0.47753 0.87697
 H20 H 0.34356 0.54460 0.87965
 H21 H 0.10896 0.36375 0.50107
 H22 H 0.48949 0.62761 0.51146
 C23 C 0.42099 -0.17248 0.34485
 C24 C 0.39971 -0.16392 0.47784
 C25 C 0.41791 -0.17285 0.61621
 C26 C 0.45135 -0.19968 0.62083
 C27 C 0.47008 -0.21227 0.48714
 C28 C 0.45450 -0.19880 0.34924
 C29 C 0.47634 -0.20780 0.21877
 C30 C 0.51438 -0.22817 0.22242
 C31 C 0.53201 -0.24044 0.35693
 C32 C 0.50983 -0.23216 0.49139
 C33 C 0.46953 -0.21086 0.75565
 C34 C 0.50673 -0.23262 0.76025
 C35 C 0.52837 -0.24256 0.62986
 C36 C 0.57216 -0.25718 0.63223
 C37 C 0.60190 -0.25069 0.49929
 C38 C 0.57530 -0.25549 0.36229
 H39 H 0.46533 -0.19737 0.11280
 H40 H 0.53321 -0.22973 0.11927
 H41 H 0.45559 -0.20184 0.85847
 H42 H 0.52164 -0.23729 0.86712
 H43 H 0.37777 -0.13958 0.47438
 H44 H 0.64035 -0.25398 0.50151
 C45 C 1.17668 0.58738 0.37771
 C46 C 1.16702 0.55989 0.51501
 C47 C 1.17334 0.58895 0.64800
 C48 C 1.19810 0.64909 0.64404
 C49 C 1.21290 0.67864 0.50663
 C50 C 1.20283 0.64763 0.37338
 C51 C 1.21477 0.67687 0.23836
 C52 C 1.23486 0.73554 0.23298
 C53 C 1.24271 0.76713 0.36270
 C54 C 1.23134 0.73806 0.50155
 C55 C 1.20439 0.67962 0.77401
 C56 C 1.22333 0.73775 0.76985
 C57 C 1.23702 0.76787 0.63555
 C58 C 1.25132 0.82577 0.63067
 C59 C 1.24999 0.84869 0.49162
 C60 C 1.25659 0.82541 0.35865
 H61 H 1.20755 0.65393 0.13566
 H62 H 1.23998 0.75456 0.12535
 H63 H 1.19292 0.65809 0.87981
 H64 H 1.22310 0.75787 0.87219
 H65 H 1.14267 0.51328 0.51657
 H66 H 1.25471 0.89080 0.48875
 C67 C 0.74265 0.57237 0.63384
 C68 C 0.74753 0.59991 0.49772
 C69 C 0.74907 0.57569 0.36217
 C70 C 0.76399 0.53254 0.36462
 C71 C 0.77127 0.51146 0.50279
 C72 C 0.75953 0.53057 0.63768
 C73 C 0.76985 0.51112 0.77190
 C74 C 0.79196 0.47458 0.77491
 C75 C 0.80379 0.45522 0.64405
 C76 C 0.79143 0.47201 0.50623
 C77 C 0.77593 0.51302 0.23396
 C78 C 0.79621 0.47483 0.23775
 C79 C 0.80503 0.45450 0.37219
 C80 C 0.83087 0.42032 0.37582
 C81 C 0.84000 0.40203 0.51394
 C82 C 0.83085 0.42221 0.64861
 H83 H 0.76509 0.52716 0.87614
 H84 H 0.80077 0.46210 0.88089
 H85 H 0.77324 0.52989 0.12811
 H86 H 0.80639 0.46217 0.13463
 H87 H 0.74034 0.63567 0.49521
 H88 H 0.86416 0.37989 0.51597
 C89 C 0.58057 0.41013 0.37423
 C90 C 0.59773 0.43735 0.51247
 C91 C 0.57567 0.40720 0.64553
 C92 C 0.54224 0.34700 0.64164
 C93 C 0.52792 0.31800 0.50391
 C94 C 0.54759 0.34961 0.37009
 C95 C 0.53089 0.32025 0.23525
 C96 C 0.49389 0.26092 0.23069
 C97 C 0.47100 0.22914 0.36092
 C98 C 0.48861 0.25797 0.49942
 C99 C 0.51962 0.31558 0.77194
 C100 C 0.48245 0.25661 0.76814
 C101 C 0.46608 0.22690 0.63357
 C102 C 0.42370 0.16796 0.62758
 C103 C 0.39796 0.14582 0.49009
 C104 C 0.42733 0.17046 0.35801
 H105 H 0.54594 0.34348 0.13236
 H106 H 0.48032 0.24106 0.12382
 H107 H 0.52956 0.33687 0.87775
 H108 H 0.46328 0.23538 0.87089
 H109 H 0.61957 0.48383 0.51507
 H110 H 0.36030 0.10327 0.48632
 C111 C 0.58852 0.17103 0.34861
 C112 C 0.55931 0.16444 0.48131
 C113 C 0.58719 0.17327 0.61822
 C114 C 0.64795 0.19976 0.62186
 C115 C 0.67894 0.21092 0.48793
 C116 C 0.64892 0.19636 0.35100
 C117 C 0.67923 0.20335 0.22007
 C118 C 0.73800 0.22319 0.22277
 C119 C 0.76855 0.23655 0.35659
 C120 C 0.73894 0.23042 0.49145
 C121 C 0.67787 0.21175 0.75628
 C122 C 0.73731 0.23360 0.76016
 C123 C 0.76887 0.24270 0.62950
 C124 C 0.82819 0.25904 0.63156
 C125 C 0.85199 0.25395 0.49777
 C126 C 0.82702 0.25195 0.35990
 H127 H 0.65712 0.19205 0.11476
 H128 H 0.75848 0.22435 0.11977
 H129 H 0.65500 0.20366 0.85944
 H130 H 0.75723 0.23938 0.86709
 H131 H 0.51245 0.14024 0.47913
 H132 H 0.89537 0.26127 0.49810
 O133 O 1.08184 0.53923 0.29548
 O134 O 1.14760 0.53144 0.15174
 C135 C 1.13379 0.55171 0.26436
 O136 O 0.92039 0.29102 0.25539
 O137 O 0.85522 0.30707 0.13292
 C138 C 0.86845 0.28171 0.23525
 O139 O 1.07985 0.37945 0.27584
 O140 O 1.14724 0.45400 0.13845
 C141 C 1.13308 0.41931 0.25053
 O142 O 0.92430 0.46643 0.28461
 O143 O 0.85706 0.38845 0.15213
 C144 C 0.87202 0.42578 0.25902
 Zr145 Zr 1.00273 0.48004 0.19949
 O146 O 1.00953 0.47399 0.42973
 O147 O 1.00514 0.55919 0.21506
 Zr148 Zr 1.00076 0.35300 0.16466
 O149 O 0.99907 0.31496 0.37025
 O150 O 1.00423 0.28118 0.08660
 O151 O 1.05117 0.44028 0.21370
 O152 O 0.95304 0.39185 0.21238
 O153 O 0.92286 0.47171 -0.26162
 O154 O 0.85602 0.39262 -0.13260
 C155 C 0.87034 0.43058 -0.23767
 O156 O 1.07986 0.38123 -0.27820
 O157 O 1.14606 0.45794 -0.14344
 C158 C 1.13220 0.42233 -0.25328
 O159 O 0.92076 0.30077 -0.27429
 O160 O 0.85512 0.31278 -0.14435
 C161 C 0.86851 0.29002 -0.25254
 O162 O 1.07988 0.54227 -0.27441
 O163 O 1.14728 0.53624 -0.13159
 C164 C 1.13272 0.55646 -0.24370
 Zr165 Zr 1.00187 0.49157 -0.15880
 O166 O 1.00043 0.53124 -0.35958
 O167 O 1.00490 0.56608 -0.07580
 Zr168 Zr 1.00097 0.36508 -0.19181
 O169 O 0.99789 0.37529 -0.42158
 O170 O 1.00544 0.28978 -0.22145
 Zr171 Zr 1.08939 0.46620 0.00370
 Zr172 Zr 0.91327 0.37868 0.00292
 O173 O 0.95306 0.40463 -0.20564
 O174 O 1.05108 0.45369 -0.20684
 O175 O 0.94815 0.46823 0.02235
 O176 O 1.05395 0.37694 -0.01392
 O177 O 1.05559 0.52103 0.02157
 O178 O 0.94648 0.32278 -0.01622
 H179 H 0.93079 0.37953 0.30501
 H180 H 1.08195 0.36336 -0.01728
 H181 H 0.93133 0.39392 -0.29955
 H182 H 1.08417 0.56270 0.02661
 H183 H 0.96609 0.24694 0.10705
 H184 H 0.97139 0.25750 -0.17351
 H185 H 1.03490 0.40891 -0.45257
 H186 H 1.00854 0.57063 -0.33895
 H187 H 0.96676 0.56181 -0.09752
 H188 H 1.00661 0.56777 0.32176
 H189 H 0.97133 0.44629 0.47062
 H190 H 1.00434 0.28172 0.35321
 O191 O 0.46008 0.53972 0.28913
 O192 O 0.47099 0.61570 0.14991
 C193 C 0.44933 0.58021 0.26034
 O194 O 0.71166 0.63009 0.25278
 O195 O 0.69372 0.54832 0.13348
 C196 C 0.71989 0.58712 0.23496
 O197 O 0.62460 0.70059 0.27625
 O198 O 0.55021 0.69343 0.13734
 C199 C 0.58530 0.71406 0.24939
 O200 O 0.53429 0.45709 0.28453
 O201 O 0.61179 0.46859 0.15024
 C202 C 0.57455 0.44560 0.25750
 Zr203 Zr 0.52109 0.52181 0.19907
 O204 O 0.53502 0.52785 0.42914
 O205 O 0.44060 0.44489 0.21689
 Zr206 Zr 0.64956 0.64829 0.16403
 O207 O 0.68887 0.68435 0.36905
 O208 O 0.72211 0.72446 0.08524
 O209 O 0.56169 0.61048 0.21383
 O210 O 0.60970 0.56134 0.21157
 O211 O 0.52724 0.45127 -0.25961
 O212 O 0.60695 0.46418 -0.13131
 C213 C 0.56823 0.44025 -0.23520
 O214 O 0.62232 0.70133 -0.27546
 O215 O 0.54459 0.68887 -0.14467
 C216 C 0.58074 0.71142 -0.25364
 O217 O 0.70106 0.62257 -0.27589
 O218 O 0.68814 0.54462 -0.14432
 C219 C 0.71142 0.58127 -0.25255
 O220 O 0.45875 0.53831 -0.27545
 O221 O 0.46559 0.61113 -0.13229
 C222 C 0.44507 0.57678 -0.24499
 Zr223 Zr 0.50892 0.51077 -0.15940
 O224 O 0.46827 0.47019 -0.36011
 O225 O 0.43347 0.43861 -0.07584
 Zr226 Zr 0.63704 0.63739 -0.19271
 O227 O 0.62609 0.62326 -0.42207
 O228 O 0.71335 0.71760 -0.22542
 Zr229 Zr 0.53608 0.62342 0.00292
 Zr230 Zr 0.62219 0.53536 0.00239
 O231 O 0.59622 0.54948 -0.20644
 O232 O 0.54804 0.59842 -0.20801
 O233 O 0.53205 0.47987 0.02165
 O234 O 0.62595 0.67792 -0.01477
 O235 O 0.48020 0.53419 0.02089
 O236 O 0.67927 0.62500 -0.01676
 H237 H 0.62191 0.55121 0.30454
 H238 H 0.64003 0.71966 -0.01770
 H239 H 0.60651 0.53836 -0.29996
 H240 H 0.43837 0.52081 0.02489
 H241 H 0.75637 0.72085 0.10537
 H242 H 0.74543 0.71655 -0.17424
 H243 H 0.59937 0.63560 -0.45849
 H244 H 0.42871 0.43821 -0.33914
 H245 H 0.43706 0.40466 -0.09709
 H246 H 0.43311 0.43688 0.32384
 H247 H 0.52600 0.55633 0.46843
 H248 H 0.72267 0.72312 0.35167
 O249 O 0.37702 0.07628 0.26198
 O250 O 0.45514 0.14226 0.13123
 C251 C 0.41860 0.12832 0.23873
 O252 O 0.47017 -0.07962 0.24903
 O253 O 0.39041 -0.14645 0.12047
 C254 C 0.42884 -0.13176 0.22493
 O255 O 0.54042 0.07659 0.26378
 O256 O 0.53313 0.14313 0.12217
 C257 C 0.55387 0.12882 0.23365
 O258 O 0.29645 -0.08289 0.26199
 O259 O 0.31036 -0.14749 0.13424
 C260 C 0.28688 -0.13454 0.24183
 Zr261 Zr 0.36131 -0.00310 0.18033
 O262 O 0.36990 -0.00738 0.41067
 O263 O 0.28304 -0.00315 0.20176
 Zr264 Zr 0.48918 -0.00111 0.14928
 O265 O 0.52779 -0.00250 0.35248
 O266 O 0.56513 0.00319 0.06991
 O267 O 0.45038 0.04730 0.19695
 O268 O 0.40181 -0.05009 0.19499
 O269 O 0.28974 -0.08270 -0.27394
 O270 O 0.30410 -0.14742 -0.14570
 C271 C 0.27976 -0.13446 -0.25213
 O272 O 0.54039 0.07898 -0.29773
 O273 O 0.52901 0.14355 -0.15995
 C274 C 0.55134 0.13036 -0.26901
 O275 O 0.46367 -0.07889 -0.29693
 O276 O 0.38668 -0.14588 -0.16073
 C277 C 0.42376 -0.13116 -0.26841
 O278 O 0.37459 0.07442 -0.28623
 O279 O 0.44936 0.14176 -0.14819
 C280 C 0.41399 0.12734 -0.25955
 Zr281 Zr 0.34974 -0.00356 -0.17620
 O282 O 0.30949 -0.00513 -0.37881
 O283 O 0.27647 -0.00333 -0.09273
 Zr284 Zr 0.47801 -0.00071 -0.20979
 O285 O 0.46346 -0.00644 -0.43957
 O286 O 0.55962 0.00634 -0.23560
 Zr287 Zr 0.46311 0.08523 -0.01424
 Zr288 Zr 0.37623 -0.08978 -0.01390
 O289 O 0.38952 -0.05030 -0.22308
 O290 O 0.43778 0.04742 -0.22534
 O291 O 0.31947 -0.05753 0.00417
 O292 O 0.51855 0.05190 -0.03077
 O293 O 0.37322 0.04942 0.00228
 O294 O 0.46648 -0.05455 -0.03217
 H295 H 0.39144 -0.07159 0.28903
 H296 H 0.56046 0.08049 -0.03387
 H297 H 0.37794 -0.07229 -0.31629
 H298 H 0.35900 0.07684 0.00438
 H299 H 0.56142 -0.03443 0.09224
 H300 H 0.55767 -0.02809 -0.19107
 H301 H 0.47357 0.03180 -0.47750
 H302 H 0.27592 -0.00040 -0.35884
 H303 H 0.24254 -0.04130 -0.11621
 H304 H 0.27583 -0.00361 0.30906
 H305 H 0.39726 0.03158 0.44724
 H306 H 0.56738 0.00511 0.33400
   
