data_POSCAR
  _audit_creation_date              2014-09-24
  _audit_creation_method            'ToBaCCo'
  _symmetry_space_group_name_H-M    'P1'
  _symmetry_Int_Tables_number       1
  _symmetry_cell_setting            triclinic
  loop_
  _symmetry_equiv_pos_as_xyz
 x,y,z
_cell_length_a 35.2093
_cell_length_b 34.8354
_cell_length_c 26.5560
_cell_angle_alpha 89.103700
_cell_angle_beta 89.522400
_cell_angle_gamma 91.431500
loop_
  _atom_site_label
  _atom_site_type_symbol
  _atom_site_fract_x
  _atom_site_fract_y
  _atom_site_fract_z
O1 O -0.03620 0.29155 0.04882
 O2 O 0.02689 0.29003 -0.06289
 O3 O -0.04733 0.29478 -0.04763
 O4 O 0.03770 0.29122 0.03271
 O5 O 0.03532 0.22784 0.03033
 O6 O -0.05153 0.23133 -0.04574
 O7 O 0.02007 0.22733 -0.06486
 O8 O -0.03725 0.22811 0.04957
 Cu9 Cu -0.00452 0.29836 -0.00738
 Cu10 Cu -0.00876 0.22239 -0.00750
 C11 C -0.04733 0.25957 0.06812
 C12 C 0.03485 0.25824 -0.08277
 C13 C -0.06413 0.26361 -0.05960
 C14 C 0.05171 0.25894 0.04372
 O15 O 0.47101 0.78264 0.53989
 O16 O 0.53682 0.78544 0.43063
 O17 O 0.46278 0.78002 0.44237
 O18 O 0.54603 0.78248 0.52727
 O19 O 0.54694 0.71911 0.52541
 O20 O 0.46183 0.71679 0.44749
 O21 O 0.53428 0.72204 0.42966
 O22 O 0.47324 0.71941 0.54258
 Cu23 Cu 0.50397 0.78906 0.48533
 Cu24 Cu 0.50418 0.71312 0.48668
 C25 C 0.46059 0.75056 0.55949
 C26 C 0.54673 0.75400 0.41154
 C27 C 0.44814 0.74762 0.43052
 C28 C 0.56153 0.75094 0.53872
 O29 O 1.04326 0.72733 0.03088
 O30 O 0.96548 0.72882 -0.06186
 O31 O 1.04037 0.73040 -0.06601
 O32 O 0.96942 0.72004 0.03697
 O33 O 0.96807 0.78309 0.04253
 O34 O 1.03917 0.79316 -0.05999
 O35 O 0.96481 0.79189 -0.05595
 O36 O 1.04075 0.79000 0.03681
 Cu37 Cu 1.00442 0.72029 -0.01570
 Cu38 Cu 1.00259 0.79573 -0.00893
 C39 C 1.05603 0.75860 0.04893
 C40 C 0.95235 0.76107 -0.07523
 C41 C 1.05279 0.76351 -0.08005
 C42 C 0.95758 0.74983 0.05841
 O43 O 0.52564 0.20878 0.54390
 O44 O 0.45302 0.21314 0.44315
 O45 O 0.52671 0.20270 0.44554
 O46 O 0.45123 0.20651 0.54092
 O47 O 0.45607 0.26984 0.53970
 O48 O 0.53366 0.26556 0.44612
 O49 O 0.46038 0.27626 0.44184
 O50 O 0.52962 0.27205 0.54239
 Cu51 Cu 0.48866 0.20156 0.49331
 Cu52 Cu 0.49524 0.27707 0.49214
 C53 C 0.54033 0.24013 0.55983
 C54 C 0.44452 0.24602 0.42545
 C55 C 0.54415 0.23300 0.43066
 C56 C 0.44068 0.23870 0.55658
 O57 O 0.69552 0.03290 -0.03345
 O58 O 0.71045 -0.05014 0.05254
 O59 O 0.70802 0.02494 0.06334
 O60 O 0.69346 -0.04252 -0.04136
 O61 O 0.75467 -0.03812 -0.06035
 O62 O 0.76943 0.02592 0.04657
 O63 O 0.77032 -0.05031 0.02752
 O64 O 0.75665 0.03324 -0.05308
 Cu65 Cu 0.69563 -0.00854 0.01228
 Cu66 Cu 0.76895 -0.00547 -0.00937
 C67 C 0.72383 0.04672 -0.05838
 C68 C 0.74252 -0.06625 0.05099
 C69 C 0.74153 0.03662 0.07303
 C70 C 0.72187 -0.05303 -0.06714
 O71 O 0.18440 0.53462 0.45514
 O72 O 0.18959 0.46183 0.55695
 O73 O 0.19211 0.53692 0.55318
 O74 O 0.18633 0.45894 0.45936
 O75 O 0.24886 0.46201 0.45169
 O76 O 0.25458 0.53680 0.54662
 O77 O 0.25169 0.46220 0.54885
 O78 O 0.24678 0.53669 0.45018
 Cu79 Cu 0.18180 0.49806 0.50668
 Cu80 Cu 0.25664 0.49955 0.49859
 C81 C 0.21480 0.54899 0.43617
 C82 C 0.22141 0.44876 0.56963
 C83 C 0.22464 0.55030 0.56552
 C84 C 0.21703 0.44693 0.44026
 O85 O 0.30667 1.04059 0.05788
 O86 O 0.29803 0.96491 -0.03975
 O87 O 0.30197 1.04312 -0.03695
 O88 O 0.33032 0.96953 0.05314
 O89 O 0.27002 0.95802 0.07228
 O90 O 0.24133 1.03296 -0.01940
 O91 O 0.23758 0.95622 -0.01928
 O92 O 0.24686 1.02725 0.07769
 Cu93 Cu 0.31445 1.00434 0.00567
 Cu94 Cu 0.24373 0.99223 0.02902
 C95 C 0.27695 1.04692 0.08437
 C96 C 0.26588 0.94749 -0.04570
 C97 C 0.26782 1.05283 -0.04153
 C98 C 0.30525 0.95093 0.07838
 O99 O 0.78287 0.45235 0.45762
 O100 O 0.80054 0.53240 0.54645
 O101 O 0.81470 0.45833 0.54812
 O102 O 0.79102 0.52784 0.44894
 O103 O 0.73040 0.52508 0.47100
 O104 O 0.75429 0.45460 0.57092
 O105 O 0.73997 0.52724 0.56837
 O106 O 0.72237 0.45010 0.48005
 Cu107 Cu 0.80258 0.49295 0.49812
 Cu108 Cu 0.73117 0.48881 0.52469
 C109 C 0.74935 0.43757 0.45388
 C110 C 0.77241 0.54303 0.57299
 C111 C 0.78864 0.44407 0.57629
 C112 C 0.75724 0.53851 0.44275
 C113 C 0.20716 0.20056 0.13978
 C114 C 0.23897 0.18787 0.16557
 C115 C 0.25510 0.21044 0.20310
 C116 C 0.24113 0.24716 0.21387
 C117 C 0.20928 0.25985 0.18648
 C118 C 0.19185 0.23619 0.15047
 C119 C 0.25912 0.27084 0.25463
 C120 C 0.23920 0.30017 0.27914
 C121 C 0.25591 0.32039 0.31898
 C122 C 0.29188 0.31054 0.33605
 C123 C 0.31187 0.28163 0.31270
 C124 C 0.29629 0.26303 0.27121
 H125 H 0.19387 0.18234 0.11189
 H126 H 0.27776 0.19806 0.22459
 H127 H 0.19754 0.28774 0.19283
 H128 H 0.21051 0.30698 0.26877
 H129 H 0.30418 0.32517 0.36801
 H130 H 0.31366 0.24228 0.25272
 C131 C 0.81480 0.79159 0.16083
 C132 C 0.77589 0.79808 0.16105
 C133 C 0.75190 0.77491 0.19160
 C134 C 0.76651 0.74516 0.22228
 C135 C 0.80556 0.73663 0.21668
 C136 C 0.82932 0.75946 0.18495
 C137 C 0.74059 0.72335 0.25867
 C138 C 0.74950 0.68653 0.27804
 C139 C 0.72467 0.66678 0.31186
 C140 C 0.69038 0.68327 0.32536
 C141 C 0.68076 0.71926 0.30643
 C142 C 0.70628 0.73975 0.27499
 H143 H 0.83359 0.80968 0.13755
 H144 H 0.72175 0.77979 0.18987
 H145 H 0.81796 0.71282 0.23655
 H146 H 0.77532 0.67266 0.26708
 H147 H 0.67117 0.66817 0.35143
 H148 H 0.69880 0.76850 0.26372
 C149 C 0.81237 0.18407 0.17299
 C150 C 0.82389 0.22094 0.18709
 C151 C 0.80094 0.24198 0.21907
 C152 C 0.76759 0.22531 0.24087
 C153 C 0.75694 0.18742 0.22697
 C154 C 0.77887 0.16717 0.19241
 C155 C 0.74477 0.24709 0.27843
 C156 C 0.70637 0.23660 0.28913
 C157 C 0.68614 0.25498 0.32712
 C158 C 0.70299 0.28598 0.35171
 C159 C 0.74001 0.29829 0.33999
 C160 C 0.76127 0.27837 0.30480
 H161 H 0.82946 0.16861 0.14629
 H162 H 0.80976 0.27123 0.22653
 H163 H 0.73208 0.17295 0.24300
 H164 H 0.69186 0.21400 0.26894
 H165 H 0.68704 0.30084 0.38026
 H166 H 0.79055 0.28747 0.29915
 C167 C 0.20786 0.81348 0.15084
 C168 C 0.18599 0.78311 0.17160
 C169 C 0.19957 0.76223 0.21296
 C170 C 0.23713 0.76821 0.23012
 C171 C 0.25988 0.79667 0.20493
 C172 C 0.24521 0.81966 0.16626
 C173 C 0.25293 0.74427 0.27245
 C174 C 0.28681 0.75579 0.29716
 C175 C 0.30303 0.73218 0.33376
 C176 C 0.28374 0.69883 0.35014
 C177 C 0.25004 0.68689 0.32731
 C178 C 0.23534 0.70881 0.28759
 H179 H 0.19642 0.83106 0.12080
 H180 H 0.18069 0.74074 0.22993
 H181 H 0.28942 0.80127 0.21409
 H182 H 0.30177 0.78235 0.28768
 H183 H 0.29615 0.68097 0.37918
 H184 H 0.21070 0.69725 0.26861
 C185 C 0.68781 0.30713 0.66049
 C186 C 0.66858 0.27577 0.68336
 C187 C 0.68468 0.25694 0.72481
 C188 C 0.72191 0.26667 0.74072
 C189 C 0.74208 0.29578 0.71335
 C190 C 0.72513 0.31635 0.67408
 C191 C 0.74044 0.24573 0.78372
 C192 C 0.77318 0.26136 0.80750
 C193 C 0.79224 0.24045 0.84461
 C194 C 0.77727 0.20506 0.86129
 C195 C 0.74444 0.18954 0.83976
 C196 C 0.72659 0.20922 0.80055
 H197 H 0.67447 0.32292 0.63022
 H198 H 0.66800 0.23425 0.74306
 H199 H 0.77150 0.30257 0.72124
 H200 H 0.78480 0.28941 0.79731
 H201 H 0.79197 0.18886 0.89005
 H202 H 0.70271 0.19500 0.78291
 C203 C 0.30787 0.69138 0.66202
 C204 C 0.32601 0.72492 0.67842
 C205 C 0.30794 0.74793 0.71370
 C206 C 0.27272 0.73620 0.73602
 C207 C 0.25575 0.70117 0.71999
 C208 C 0.27240 0.67984 0.68161
 C209 C 0.25370 0.76042 0.77503
 C210 C 0.21422 0.75576 0.78590
 C211 C 0.19653 0.77814 0.82238
 C212 C 0.21811 0.80565 0.84779
 C213 C 0.25646 0.81234 0.83614
 C214 C 0.27450 0.78924 0.80111
 H215 H 0.32119 0.67451 0.63312
 H216 H 0.32183 0.77484 0.72292
 H217 H 0.22942 0.69013 0.73630
 H218 H 0.19650 0.73572 0.76552
 H219 H 0.20452 0.82317 0.87581
 H220 H 0.30454 0.79431 0.79486
 C221 C 0.29102 0.29530 0.65423
 C222 C 0.25839 0.31008 0.67595
 C223 C 0.24072 0.28998 0.71606
 C224 C 0.25190 0.25257 0.73012
 C225 C 0.28495 0.23815 0.70730
 C226 C 0.30521 0.26036 0.67106
 C227 C 0.22910 0.22995 0.76892
 C228 C 0.24470 0.19992 0.79806
 C229 C 0.22374 0.18244 0.83810
 C230 C 0.18763 0.19586 0.84967
 C231 C 0.17128 0.22451 0.82026
 C232 C 0.19101 0.23948 0.77834
 H233 H 0.30593 0.31136 0.62450
 H234 H 0.21780 0.30385 0.73538
 H235 H 0.29544 0.21022 0.71747
 H236 H 0.27318 0.19039 0.79090
 H237 H 0.17201 0.18375 0.88178
 H238 H 0.17644 0.25946 0.75416
 C239 C 0.71152 0.69304 0.64578
 C240 C 0.74284 0.68046 0.67245
 C241 C 0.75875 0.70347 0.70976
 C242 C 0.74499 0.74064 0.71850
 C243 C 0.71470 0.75378 0.68853
 C244 C 0.69790 0.73004 0.65229
 C245 C 0.76280 0.76584 0.75752
 C246 C 0.74236 0.79588 0.77951
 C247 C 0.75955 0.81988 0.81502
 C248 C 0.79674 0.81341 0.83010
 C249 C 0.81685 0.78293 0.81074
 C250 C 0.80041 0.75988 0.77378
 H251 H 0.69862 0.67431 0.61814
 H252 H 0.78170 0.69183 0.73146
 H253 H 0.70462 0.78269 0.69194
 H254 H 0.71297 0.80050 0.77023
 H255 H 0.80988 0.83171 0.85784
 H256 H 0.81759 0.73780 0.75784
 C257 C 0.24663 0.07954 0.15565
 C258 C 0.27536 0.07794 0.11759
 C259 C 0.29709 0.11138 0.10616
 C260 C 0.28605 0.14686 0.12423
 C261 C 0.25383 0.14955 0.15516
 C262 C 0.23516 0.11576 0.17346
 C263 C 0.22941 0.04586 0.17696
 C264 C 0.20024 0.04805 0.21258
 C265 C 0.18793 0.08363 0.22817
 C266 C 0.20526 0.11727 0.20910
 H267 H 0.23900 0.01761 0.16732
 H268 H 0.18729 0.02199 0.22836
 H269 H 0.16525 0.08516 0.25579
 H270 H 0.19551 0.14435 0.22313
 H271 H 0.31996 0.11102 0.07864
 H272 H 0.30119 0.17266 0.11128
 C273 C 0.75797 0.57391 0.65592
 C274 C 0.77593 0.57541 0.60785
 C275 C 0.78958 0.61068 0.58831
 C276 C 0.78154 0.64466 0.61272
 C277 C 0.76001 0.64414 0.65739
 C278 C 0.74964 0.60866 0.68071
 C279 C 0.74720 0.53856 0.67922
 C280 C 0.72811 0.53760 0.72549
 C281 C 0.71934 0.57168 0.74925
 C282 C 0.72988 0.60699 0.72713
 H283 H 0.75386 0.51149 0.66214
 H284 H 0.72004 0.51029 0.74297
 H285 H 0.70439 0.57074 0.78504
 H286 H 0.72276 0.63286 0.74679
 H287 H 0.80318 0.61231 0.55155
 H288 H 0.78948 0.67177 0.59450
 C289 C 0.76868 0.86825 0.05058
 C290 C 0.74707 0.89751 0.07370
 C291 C 0.72922 0.88953 0.12033
 C292 C 0.73718 0.85619 0.14759
 C293 C 0.76103 0.82864 0.12746
 C294 C 0.77392 0.83294 0.07694
 C295 C 0.78316 0.87191 0.00069
 C296 C 0.80222 0.84208 -0.02191
 C297 C 0.80593 0.80724 0.00329
 C298 C 0.79147 0.80239 0.05192
 H299 H 0.77909 0.89698 -0.02255
 H300 H 0.81348 0.84587 -0.05961
 H301 H 0.81979 0.78377 -0.01507
 H302 H 0.79374 0.77432 0.06949
 H303 H 0.71167 0.91074 0.13793
 H304 H 0.72619 0.85287 0.18568
 C305 C 0.19589 0.38718 0.61552
 C306 C 0.22445 0.41654 0.60704
 C307 C 0.26021 0.41211 0.62908
 C308 C 0.26955 0.37838 0.65383
 C309 C 0.24385 0.34719 0.65682
 C310 C 0.20633 0.35154 0.63850
 C311 C 0.15759 0.39143 0.60096
 C312 C 0.13108 0.36125 0.60651
 C313 C 0.14201 0.32594 0.62557
 C314 C 0.17926 0.32086 0.64090
 H315 H 0.14674 0.41789 0.58651
 H316 H 0.10193 0.36518 0.59528
 H317 H 0.12149 0.30233 0.62854
 H318 H 0.18630 0.29256 0.65433
 H319 H 0.28209 0.43441 0.62506
 H320 H 0.29800 0.37590 0.66862
 C321 C 0.92797 0.23037 0.14945
 C322 C 0.92511 0.25792 0.11000
 C323 C 0.89140 0.27794 0.10400
 C324 C 0.85921 0.26761 0.13236
 C325 C 0.86019 0.23721 0.16737
 C326 C 0.89514 0.21980 0.17833
 C327 C 0.96267 0.21266 0.16020
 C328 C 0.96476 0.18484 0.19837
 C329 C 0.93251 0.17431 0.22651
 C330 C 0.89797 0.19161 0.21683
 H331 H 0.98848 0.22062 0.13976
 H332 H 0.99156 0.17154 0.20630
 H333 H 0.93430 0.15279 0.25619
 H334 H 0.87369 0.18310 0.24004
 H335 H 0.88885 0.29908 0.07392
 H336 H 0.83264 0.28135 0.12412
 C337 C 0.43025 0.72064 0.63851
 C338 C 0.43087 0.74887 0.59938
 C339 C 0.39944 0.77246 0.59337
 C340 C 0.36638 0.76599 0.62182
 C341 C 0.36383 0.73578 0.65709
 C342 C 0.39629 0.71377 0.66717
 C343 C 0.46263 0.69915 0.64997
 C344 C 0.46123 0.67088 0.68776
 C345 C 0.42782 0.66367 0.71505
 C346 C 0.39562 0.68494 0.70514
 H347 H 0.48947 0.70453 0.63071
 H348 H 0.48629 0.65464 0.69613
 H349 H 0.42696 0.64175 0.74441
 H350 H 0.37043 0.67897 0.72785
 H351 H 0.39938 0.79429 0.56385
 H352 H 0.34179 0.78311 0.61396
 C353 C 0.11658 0.73178 0.08353
 C354 C 0.08715 0.75956 0.08221
 C355 C 0.09027 0.79158 0.11390
 C356 C 0.12119 0.79723 0.14502
 C357 C 0.15061 0.77131 0.14595
 C358 C 0.14840 0.73795 0.11596
 C359 C 0.11742 0.69985 0.05092
 C360 C 0.14716 0.67423 0.05205
 C361 C 0.17742 0.68001 0.08433
 C362 C 0.17842 0.71170 0.11547
 H363 H 0.09635 0.69412 0.02286
 H364 H 0.14702 0.65002 0.02695
 H365 H 0.20065 0.66023 0.08454
 H366 H 0.20329 0.71545 0.13857
 H367 H 0.06854 0.81308 0.11452
 H368 H 0.12288 0.82299 0.16735
 C369 C 0.60389 0.21856 0.59549
 C370 C 0.57074 0.24102 0.59827
 C371 C 0.56928 0.27056 0.63364
 C372 C 0.60041 0.27993 0.66335
 C373 C 0.63407 0.25991 0.65903
 C374 C 0.63581 0.22828 0.62609
 C375 C 0.60709 0.18798 0.56145
 C376 C 0.64034 0.16719 0.55839
 C377 C 0.67137 0.17682 0.58799
 C378 C 0.66939 0.20719 0.62126
 H379 H 0.58431 0.17947 0.53695
 H380 H 0.64213 0.14349 0.53274
 H381 H 0.69720 0.16076 0.58501
 H382 H 0.69445 0.21390 0.64299
 H383 H 0.54436 0.28808 0.63639
 H384 H 0.59885 0.30426 0.68814
 C385 C 0.73691 0.08141 0.85907
 C386 C 0.71974 0.08009 0.90756
 C387 C 0.70493 0.11352 0.92767
 C388 C 0.71057 0.14876 0.90290
 C389 C 0.73072 0.15127 0.85724
 C390 C 0.74272 0.11740 0.83382
 C391 C 0.74907 0.04774 0.83557
 C392 C 0.76717 0.04965 0.78864
 C393 C 0.77357 0.08500 0.76441
 C394 C 0.76159 0.11867 0.78669
 H395 H 0.74427 0.01974 0.85298
 H396 H 0.77629 0.02359 0.77102
 H397 H 0.78778 0.08632 0.72811
 H398 H 0.76698 0.14554 0.76660
 H399 H 0.69188 0.11292 0.96478
 H400 H 0.70145 0.17461 0.92114
 C401 C 0.18900 0.61235 0.40012
 C402 C 0.21449 0.58111 0.39846
 C403 C 0.24538 0.58342 0.36471
 C404 C 0.25419 0.61702 0.33797
 C405 C 0.23253 0.64971 0.34401
 C406 C 0.19868 0.64720 0.37319
 C407 C 0.15503 0.61088 0.42900
 C408 C 0.13160 0.64248 0.43135
 C409 C 0.14176 0.67658 0.40636
 C410 C 0.17507 0.67914 0.37779
 H411 H 0.14532 0.58559 0.44944
 H412 H 0.10548 0.64059 0.45315
 H413 H 0.12368 0.70115 0.40903
 H414 H 0.18185 0.70625 0.35909
 H415 H 0.26461 0.55975 0.36153
 H416 H 0.27995 0.61846 0.31529
 C417 C 0.27120 0.87737 0.94597
 C418 C 0.26308 0.91255 0.92314
 C419 C 0.26038 0.91488 0.87072
 C420 C 0.26314 0.88229 0.84042
 C421 C 0.27501 0.84627 0.85864
 C422 C 0.28812 0.84294 0.90794
 C423 C 0.27983 0.87723 1.00846
 C424 C 0.32543 0.82340 1.03417
 C425 C 0.33666 0.79623 0.98246
 C426 C 0.31813 0.80621 0.92417
 H427 H 0.26494 0.89803 1.03058
 H428 H 0.33756 0.81556 1.07052
 H429 H 0.35533 0.77226 0.98699
 H430 H 0.32620 0.78725 0.89427
 H431 H 0.25385 0.94212 0.85303
 H432 H 0.25411 0.88481 0.80162
 C433 C 0.75092 0.36709 0.44994
 C434 C 0.74340 0.40167 0.42536
 C435 C 0.73977 0.40227 0.37300
 C436 C 0.74189 0.36870 0.34446
 C437 C 0.75427 0.33337 0.36422
 C438 C 0.76665 0.33085 0.41395
 C439 C 0.75954 0.36872 0.51233
 C440 C 0.80294 0.31394 0.54139
 C441 C 0.81319 0.28463 0.49139
 C442 C 0.79517 0.29344 0.43247
 H443 H 0.74563 0.39107 0.53310
 H444 H 0.81475 0.30689 0.57820
 H445 H 0.83093 0.26012 0.49739
 H446 H 0.80272 0.27326 0.40375
 H447 H 0.73367 0.42910 0.35393
 H448 H 0.73311 0.37022 0.30549
 C449 C 0.08910 0.28612 0.86561
 C450 C 0.06271 0.25570 0.87874
 C451 C 0.06938 0.21892 0.85973
 C452 C 0.10381 0.21037 0.83762
 C453 C 0.13306 0.23803 0.83381
 C454 C 0.12562 0.27671 0.84612
 C455 C 0.08102 0.32528 0.87245
 C456 C 0.10898 0.35385 0.86476
 C457 C 0.14547 0.34420 0.85021
 C458 C 0.15389 0.30607 0.84108
 H459 H 0.05292 0.33469 0.88181
 H460 H 0.10233 0.38365 0.87041
 H461 H 0.16728 0.36644 0.84539
 H462 H 0.18270 0.30016 0.83009
 H463 H 0.04901 0.19539 0.86551
 H464 H 0.10860 0.18105 0.82656
 C465 C 0.57502 0.72582 0.33301
 C466 C 0.57606 0.75366 0.37125
 C467 C 0.60948 0.77569 0.37796
 C468 C 0.64295 0.76648 0.35287
 C469 C 0.64365 0.73504 0.32067
 C470 C 0.60916 0.71594 0.30807
 C471 C 0.54065 0.70755 0.31924
 C472 C 0.54003 0.67910 0.28285
 C473 C 0.57364 0.66862 0.25934
 C474 C 0.60796 0.68693 0.27152
 H475 H 0.51411 0.71618 0.33547
 H476 H 0.51337 0.66539 0.27253
 H477 H 0.57304 0.64659 0.23103
 H478 H 0.63333 0.67870 0.25152
 H479 H 0.61080 0.79742 0.40668
 H480 H 0.66912 0.78161 0.36233
 C481 C 0.92072 0.79227 0.84952
 C482 C 0.92130 0.76322 0.88767
 C483 C 0.88969 0.73836 0.89413
 C484 C 0.85673 0.74385 0.86652
 C485 C 0.85446 0.77435 0.83177
 C486 C 0.88682 0.79822 0.82193
 C487 C 0.95321 0.81532 0.83781
 C488 C 0.95196 0.84435 0.80114
 C489 C 0.91849 0.85078 0.77514
 C490 C 0.88617 0.82788 0.78515
 H491 H 0.97999 0.81057 0.85603
 H492 H 0.97716 0.86179 0.79268
 H493 H 0.91768 0.87331 0.74667
 H494 H 0.86090 0.83326 0.76346
 H495 H 0.88969 0.71593 0.92287
 H496 H 0.83205 0.72543 0.87430
 C497 C 0.41668 0.27770 0.34795
 C498 C 0.41412 0.25004 0.38782
 C499 C 0.37957 0.23030 0.39708
 C500 C 0.34707 0.23986 0.37062
 C501 C 0.34825 0.26928 0.33408
 C502 C 0.38332 0.28770 0.32129
 C503 C 0.45169 0.29562 0.33392
 C504 C 0.45351 0.32344 0.29555
 C505 C 0.42070 0.33379 0.27033
 C506 C 0.38585 0.31611 0.28289
 H507 H 0.47799 0.28784 0.35173
 H508 H 0.48054 0.33694 0.28522
 H509 H 0.42232 0.35541 0.24062
 H510 H 0.36104 0.32460 0.26207
 H511 H 0.37708 0.20915 0.42737
 H512 H 0.32033 0.22544 0.38039
 C513 C 0.70888 0.87678 0.91517
 C514 C 0.71866 0.91460 0.89770
 C515 C 0.73530 0.91979 0.84988
 C516 C 0.74501 0.88842 0.82102
 C517 C 0.73875 0.85095 0.83940
 C518 C 0.71948 0.84473 0.88590
 C519 C 0.69142 0.86977 0.96268
 C520 C 0.68483 0.83240 0.98082
 C521 C 0.69535 0.80124 0.95221
 C522 C 0.71248 0.80719 0.90516
 H523 H 0.68286 0.89276 0.98662
 H524 H 0.67171 0.82761 1.01746
 H525 H 0.69031 0.77231 0.96662
 H526 H 0.72033 0.78219 0.88414
 H527 H 0.74351 0.94833 0.83637
 H528 H 0.76028 0.89344 0.78584
 C529 C 0.20676 0.37631 0.42175
 C530 C 0.21689 0.41424 0.40549
 C531 C 0.23419 0.42013 0.35820
 C532 C 0.24350 0.38920 0.32825
 C533 C 0.23609 0.35145 0.34493
 C534 C 0.21651 0.34468 0.39112
 C535 C 0.18918 0.36882 0.46898
 C536 C 0.18094 0.33122 0.48517
 C537 C 0.19020 0.30044 0.45504
 C538 C 0.20792 0.30695 0.40847
 H539 H 0.18170 0.39175 0.49380
 H540 H 0.16739 0.32584 0.52134
 H541 H 0.18378 0.27135 0.46795
 H542 H 0.21484 0.28227 0.38619
 H543 H 0.24258 0.44888 0.34562
 H544 H 0.25900 0.39469 0.29335
 C545 C 0.28335 0.11960 0.92674
 C546 C 0.25917 0.08583 0.92962
 C547 C 0.22463 0.08582 0.90373
 C548 C 0.21486 0.11663 0.87302
 C549 C 0.23832 0.14963 0.86834
 C550 C 0.27256 0.15168 0.89605
 C551 C 0.31611 0.12403 0.95709
 C552 C 0.33824 0.15773 0.95550
 C553 C 0.32789 0.18843 0.92515
 C554 C 0.29514 0.18581 0.89634
 H555 H 0.32460 0.10261 0.98410
 H556 H 0.36313 0.16037 0.97899
 H557 H 0.34482 0.21481 0.92487
 H558 H 0.28740 0.21125 0.87552
 H559 H 0.20539 0.06104 0.90570
 H560 H 0.18826 0.11482 0.85285
 C561 C 0.71840 0.56549 0.37021
 C562 C 0.74962 0.56802 0.40357
 C563 C 0.77436 0.60016 0.40046
 C564 C 0.76719 0.63078 0.36788
 C565 C 0.73514 0.63024 0.33708
 C566 C 0.71113 0.59687 0.33673
 C567 C 0.69471 0.53222 0.36846
 C568 C 0.66422 0.53021 0.33533
 C569 C 0.65697 0.56094 0.30299
 C570 C 0.68026 0.59388 0.30330
 H571 H 0.69983 0.50721 0.39178
 H572 H 0.64632 0.50452 0.33441
 H573 H 0.63344 0.55906 0.27709
 H574 H 0.67426 0.61665 0.27659
 H575 H 0.79861 0.60240 0.42521
 H576 H 0.78573 0.65606 0.36877
 C577 C 0.09442 0.80197 0.85914
 C578 C 0.08342 0.76693 0.88481
 C579 C 0.10652 0.73479 0.87839
 C580 C 0.14196 0.73818 0.85465
 C581 C 0.15537 0.77351 0.83524
 C582 C 0.13068 0.80507 0.83450
 C583 C 0.07003 0.83360 0.85536
 C584 C 0.08146 0.86742 0.83024
 C585 C 0.11704 0.87050 0.80737
 C586 C 0.14133 0.83961 0.80893
 H587 H 0.04139 0.83252 0.86981
 H588 H 0.06230 0.89120 0.82783
 H589 H 0.12558 0.89671 0.78746
 H590 H 0.16815 0.84274 0.78892
 H591 H 0.09888 0.70728 0.89574
 H592 H 0.16017 0.71356 0.85467
 C593 C 0.60510 0.20181 0.39751
 C594 C 0.57757 0.23136 0.39601
 C595 C 0.58434 0.26350 0.36441
 C596 C 0.61850 0.26877 0.33847
 C597 C 0.64742 0.24225 0.34329
 C598 C 0.64055 0.20782 0.37140
 C599 C 0.59953 0.16722 0.42569
 C600 C 0.62755 0.13971 0.42790
 C601 C 0.66219 0.14621 0.40360
 C602 C 0.66889 0.17997 0.37597
 H603 H 0.57387 0.16014 0.44623
 H604 H 0.62250 0.11332 0.44925
 H605 H 0.68405 0.12498 0.40625
 H606 H 0.69645 0.18375 0.35823
 H607 H 0.56366 0.28594 0.36168
 H608 H 0.62341 0.29518 0.31702
 C609 C 0.89948 0.25250 0.86028
 C610 C 0.90064 0.26434 0.91098
 C611 C 0.86681 0.27247 0.93626
 C612 C 0.83180 0.26683 0.91303
 C613 C 0.82974 0.25337 0.86368
 C614 C 0.86374 0.24701 0.83634
 C615 C 0.93315 0.24537 0.83314
 C616 C 0.93161 0.23300 0.78350
 C617 C 0.89669 0.22728 0.76019
 C618 C 0.86300 0.23401 0.78624
 H619 H 0.96083 0.24951 0.84995
 H620 H 0.95764 0.22774 0.76304
 H621 H 0.89571 0.21754 0.72171
 H622 H 0.83653 0.22903 0.76674
 H623 H 0.86741 0.28122 0.97524
 H624 H 0.80602 0.27130 0.93448
 C625 C 0.40699 0.71553 0.36360
 C626 C 0.41379 0.74554 0.39854
 C627 C 0.38578 0.77295 0.40600
 C628 C 0.35049 0.76952 0.38281
 C629 C 0.34247 0.73897 0.35081
 C630 C 0.37126 0.71279 0.33902
 C631 C 0.43473 0.68826 0.35196
 C632 C 0.42761 0.65953 0.31708
 C633 C 0.39297 0.65738 0.29258
 C634 C 0.36505 0.68373 0.30315
 H635 H 0.46229 0.68861 0.36899
 H636 H 0.44925 0.63896 0.30877
 H637 H 0.38772 0.63526 0.26515
 H638 H 0.33875 0.68135 0.28251
 H639 H 0.39042 0.79604 0.43228
 H640 H 0.32872 0.78984 0.39169
 C641 C 0.31881 0.88280 0.08072
 C642 C 0.31537 0.91643 0.10873
 C643 C 0.29996 0.91392 0.15727
 C644 C 0.28042 0.88108 0.17528
 C645 C 0.26913 0.85099 0.14370
 C646 C 0.28184 0.85068 0.09318
 C647 C 0.34483 0.88943 0.02672
 C648 C 0.33304 0.86330 -0.02888
 C649 C 0.27396 0.81724 -0.00956
 C650 C 0.25977 0.82020 0.05191
 H651 H 0.34245 0.87786 -0.00550
 H652 H 0.34910 0.86592 -0.06959
 H653 H 0.25812 0.79712 -0.03319
 H654 H 0.23682 0.80114 0.06403
 H655 H 0.29980 0.93940 0.18015
 H656 H 0.26990 0.88119 0.21376
 C657 C 0.79856 0.37521 0.58431
 C658 C 0.79597 0.41024 0.60955
 C659 C 0.77946 0.41058 0.65752
 C660 C 0.75889 0.37910 0.67769
 C661 C 0.74736 0.34767 0.64850
 C662 C 0.76038 0.34492 0.59838
 C663 C 0.82493 0.37889 0.53024
 C664 C 0.81215 0.35146 0.47618
 C665 C 0.75140 0.30834 0.49769
 C666 C 0.73726 0.31389 0.55878
 H667 H 0.82207 0.36635 0.49874
 H668 H 0.82835 0.35213 0.43547
 H669 H 0.73484 0.28808 0.47512
 H670 H 0.71351 0.29622 0.57167
 H671 H 0.77977 0.43712 0.67826
 H672 H 0.74826 0.38110 0.71595
 C673 C 0.78039 0.06425 0.14497
 C674 C 0.74811 0.06493 0.11331
 C675 C 0.72348 0.09585 0.11616
 C676 C 0.73236 0.12757 0.14554
 C677 C 0.76609 0.12930 0.17306
 C678 C 0.78949 0.09676 0.17493
 C679 C 0.80369 0.03188 0.14791
 C680 C 0.83559 0.03192 0.17873
 C681 C 0.84466 0.06385 0.20754
 C682 C 0.82179 0.09594 0.20602
 H683 H 0.79711 0.00601 0.12742
 H684 H 0.85317 0.00690 0.18060
 H685 H 0.86930 0.06359 0.23163
 H686 H 0.82925 0.11978 0.22994
 H687 H 0.69849 0.09675 0.09266
 H688 H 0.71412 0.15215 0.14384
 C689 C 0.20900 0.61701 0.59820
 C690 C 0.22901 0.58208 0.60183
 C691 C 0.25862 0.57916 0.63660
 C692 C 0.27033 0.61040 0.66499
 C693 C 0.25287 0.64582 0.65976
 C694 C 0.22119 0.64915 0.62739
 C695 C 0.17852 0.62166 0.56452
 C696 C 0.16007 0.65651 0.56055
 C697 C 0.17209 0.68773 0.58873
 C698 C 0.20255 0.68436 0.62148
 H699 H 0.16841 0.59880 0.54089
 H700 H 0.13640 0.65945 0.53525
 H701 H 0.15788 0.71481 0.58497
 H702 H 0.21120 0.70963 0.64190
 H703 H 0.27420 0.55281 0.64005
 H704 H 0.29468 0.60751 0.68934
 C705 C 0.93162 0.77104 0.14305
 C706 C 0.93031 0.74607 0.10128
 C707 C 0.90018 0.71917 0.09796
 C708 C 0.86930 0.72010 0.13116
 C709 C 0.86765 0.74801 0.16850
 C710 C 0.89980 0.77227 0.17646
 C711 C 0.96364 0.79504 0.15228
 C712 C 0.96369 0.82048 0.19235
 C713 C 0.93208 0.82243 0.22400
 C714 C 0.90035 0.79855 0.21628
 H715 H 0.98912 0.79390 0.12939
 H716 H 0.98844 0.83872 0.19894
 H717 H 0.93230 0.84227 0.25496
 H718 H 0.87649 0.80029 0.24208
 H719 H 0.89894 0.69938 0.06690
 H720 H 0.84474 0.70165 0.12412
 C721 C 0.40995 0.26431 0.63551
 C722 C 0.40901 0.24004 0.59320
 C723 C 0.37597 0.21820 0.58331
 C724 C 0.34300 0.22271 0.61173
 C725 C 0.34237 0.24892 0.65101
 C726 C 0.37623 0.26894 0.66446
 C727 C 0.44363 0.28391 0.64993
 C728 C 0.44379 0.30820 0.69119
 C729 C 0.41062 0.31329 0.71891
 C730 C 0.37710 0.29386 0.70589
 H731 H 0.47022 0.28019 0.63015
 H732 H 0.46983 0.32300 0.70183
 H733 H 0.41093 0.33214 0.75094
 H734 H 0.35206 0.29810 0.72887
 H735 H 0.37497 0.19924 0.55136
 H736 H 0.31718 0.20748 0.60098
 C737 C 0.12177 0.27654 0.05477
 C738 C 0.08785 0.25719 0.07168
 C739 C 0.08883 0.23349 0.11470
 C740 C 0.12249 0.22859 0.14096
 C741 C 0.15633 0.24714 0.12503
 C742 C 0.15621 0.27159 0.08194
 C743 C 0.12280 0.29924 0.01017
 C744 C 0.15652 0.31729 -0.00642
 C745 C 0.18989 0.31288 0.02055
 C746 C 0.18992 0.29014 0.06421
 H747 H 0.09792 0.30292 -0.01273
 H748 H 0.15682 0.33466 -0.04055
 H749 H 0.21596 0.32690 0.00733
 H750 H 0.21655 0.28706 0.08376
 H751 H 0.06335 0.21818 0.12773
 H752 H 0.12238 0.20928 0.17336
 C753 C 0.63188 0.73918 0.54027
 C754 C 0.59830 0.75083 0.56501
 C755 C 0.59966 0.76060 0.61592
 C756 C 0.63299 0.75616 0.64341
 C757 C 0.66613 0.74311 0.62021
 C758 C 0.66639 0.73726 0.56746
 C759 C 0.63194 0.72907 0.48901
 C760 C 0.66539 0.71892 0.46472
 C761 C 0.69957 0.71959 0.49047
 C762 C 0.70026 0.72893 0.54127
 H763 H 0.60624 0.72869 0.46735
 H764 H 0.66484 0.71088 0.42562
 H765 H 0.72561 0.71255 0.47112
 H766 H 0.72752 0.72958 0.55981
 H767 H 0.57420 0.76955 0.63517
 H768 H 0.63233 0.76100 0.68360
   
