data_POSCAR
  _audit_creation_date              2014-09-24
  _audit_creation_method            'ToBaCCo'
  _symmetry_space_group_name_H-M    'P1'
  _symmetry_Int_Tables_number       1
  _symmetry_cell_setting            triclinic
  loop_
  _symmetry_equiv_pos_as_xyz
 x,y,z
_cell_length_a 20.6218
_cell_length_b 18.0047
_cell_length_c 22.3101
_cell_angle_alpha 89.974600
_cell_angle_beta 89.800200
_cell_angle_gamma 109.206800
loop_
  _atom_site_label
  _atom_site_type_symbol
  _atom_site_fract_x
  _atom_site_fract_y
  _atom_site_fract_z
O1 O 0.31305 0.54089 0.30172
 O2 O 0.19988 0.57260 0.31799
 C3 C 0.17016 0.62205 0.33047
 O4 O 0.18111 0.68622 0.30211
 O5 O 0.29716 0.79877 0.31766
 C6 C 0.36052 0.82010 0.32982
 O7 O 0.40314 0.79602 0.30121
 O8 O 0.40009 0.65184 0.31743
 C9 C 0.36655 0.58091 0.32988
 O10 O 0.29651 0.54822 0.18203
 O11 O 0.18084 0.57423 0.19835
 C12 C 0.17036 0.63041 0.16994
 O13 O 0.20023 0.70212 0.18232
 O14 O 0.31383 0.81850 0.19788
 C15 C 0.36726 0.81849 0.16939
 O16 O 0.40049 0.77251 0.18161
 O17 O 0.40270 0.63029 0.19783
 C18 C 0.35989 0.57427 0.16948
 Cr19 Cr 0.24958 0.56352 0.25002
 Cr20 Cr 0.25008 0.74836 0.24998
 Cr21 Cr 0.39757 0.71115 0.24953
 O22 O 0.29907 0.67434 0.24984
 O23 O 0.59706 0.36923 0.69734
 O24 O 0.60007 0.22740 0.68085
 C25 C 0.63363 0.18182 0.66829
 O26 O 0.68719 0.18210 0.69635
 O27 O 0.80028 0.29927 0.68002
 C28 C 0.83000 0.37113 0.66751
 O29 O 0.81905 0.42674 0.69649
 O30 O 0.70305 0.45193 0.68095
 C31 C 0.63970 0.42551 0.66877
 O32 O 0.59973 0.34729 0.81692
 O33 O 0.59763 0.20352 0.80043
 C34 C 0.64050 0.17971 0.82868
 O35 O 0.70387 0.20143 0.81603
 O36 O 0.81958 0.31474 0.79968
 C37 C 0.83005 0.37859 0.82826
 O38 O 0.79982 0.42765 0.81626
 O39 O 0.68635 0.45865 0.80073
 C40 C 0.63296 0.41828 0.82921
 Cr41 Cr 0.60265 0.28839 0.74887
 Cr42 Cr 0.75071 0.25240 0.74804
 Cr43 Cr 0.75008 0.43670 0.74861
 O44 O 0.70113 0.32583 0.74852
 C45 C 0.38532 -0.12352 0.37907
 C46 C 0.45244 -0.10241 0.40038
 C47 C 0.47697 -0.04593 0.44965
 N48 N 0.54048 -0.03302 0.47281
 N49 N 0.56337 0.01800 0.51742
 C50 C 0.52361 0.05820 0.54036
 N51 N 0.46023 0.04553 0.51702
 N52 N 0.43727 -0.00567 0.47256
 C53 C 0.54801 0.11498 0.58943
 C54 C 0.60974 0.12508 0.61908
 H55 H 0.48790 -0.12882 0.38104
 H56 H 0.51579 0.14892 0.60311
 H57 H 0.34930 -0.09896 0.39974
 H58 H 0.64109 0.08966 0.60652
 C59 C 0.12020 0.60501 0.38010
 C60 C 0.09879 0.53257 0.40952
 C61 C 0.04938 0.51548 0.45953
 N62 N 0.02419 0.44137 0.48188
 N63 N -0.02046 0.42490 0.52728
 C64 C -0.04134 0.48208 0.55219
 N65 N -0.01587 0.55630 0.53005
 N66 N 0.02856 0.57270 0.48448
 C67 C -0.09041 0.46500 0.60252
 C68 C -0.12489 0.38812 0.62195
 H69 H 0.11802 0.48629 0.39496
 H70 H -0.10040 0.51433 0.62370
 H71 H 0.09917 0.65036 0.39327
 H72 H -0.11547 0.33980 0.59861
 C73 C 0.39043 0.54208 0.37907
 C74 C 0.45210 0.57856 0.40880
 C75 C 0.47653 0.54024 0.45791
 N76 N 0.53984 0.57550 0.48132
 N77 N 0.56285 0.54172 0.52584
 C78 C 0.52326 0.47147 0.54875
 N79 N 0.45981 0.43633 0.52552
 N80 N 0.43688 0.47001 0.48084
 C81 C 0.54782 0.43358 0.59809
 C82 C 0.61488 0.46323 0.61950
 H83 H 0.48424 0.63684 0.39515
 H84 H 0.51243 0.38034 0.61738
 H85 H 0.35912 0.48298 0.39159
 H86 H 0.65085 0.51504 0.59889
 C87 C 0.39138 -0.12470 0.12008
 C88 C 0.45305 -0.11487 0.08998
 C89 C 0.47756 -0.05814 0.04071
 N90 N 0.54089 -0.04569 0.01690
 N91 N 0.56392 0.00543 -0.02778
 C92 C 0.52433 0.04582 -0.05046
 N93 N 0.46087 0.03313 -0.02683
 N94 N 0.43792 -0.01780 0.01800
 C95 C 0.54885 0.10220 -0.09998
 C96 C 0.61591 0.12326 -0.12187
 H97 H 0.48509 -0.14904 0.10343
 H98 H 0.51338 0.12866 -0.11903
 H99 H 0.36023 -0.08902 0.10775
 H100 H 0.65199 0.09871 -0.10152
 C101 C 0.12052 0.61231 0.12057
 C102 C 0.09042 0.53622 0.09865
 C103 C 0.04095 0.51868 0.04896
 N104 N 0.01840 0.44539 0.02502
 N105 N -0.02635 0.42869 -0.02002
 C106 C -0.05038 0.48467 -0.04263
 N107 N -0.02806 0.55784 -0.01851
 N108 N 0.01686 0.57460 0.02637
 C109 C -0.10009 0.46732 -0.09210
 C110 C -0.11988 0.39574 -0.12253
 H111 H 0.10430 0.48819 0.11769
 H112 H -0.12098 0.51272 -0.10534
 H113 H 0.10825 0.66065 0.10018
 H114 H -0.09756 0.35114 -0.11042
 C115 C 0.38452 0.53640 0.12006
 C116 C 0.45166 0.56564 0.09835
 C117 C 0.47614 0.52759 0.04892
 N118 N 0.53968 0.56249 0.02538
 N119 N 0.56257 0.52871 -0.01938
 C120 C 0.52278 0.45860 -0.04209
 N121 N 0.45937 0.42355 -0.01836
 N122 N 0.43640 0.45745 0.02624
 C123 C 0.54721 0.42023 -0.09132
 C124 C 0.60890 0.45681 -0.12140
 H125 H 0.48722 0.61868 0.11748
 H126 H 0.51508 0.36198 -0.10480
 H127 H 0.34838 0.48481 0.09961
 H128 H 0.64013 0.51592 -0.10906
   
