data_POSCAR
  _audit_creation_date              2014-09-24
  _audit_creation_method            'ToBaCCo'
  _symmetry_space_group_name_H-M    'P1'
  _symmetry_Int_Tables_number       1
  _symmetry_cell_setting            triclinic
  loop_
  _symmetry_equiv_pos_as_xyz
 x,y,z
_cell_length_a 58.2915
_cell_length_b 58.6542
_cell_length_c 58.3111
_cell_angle_alpha 90.396800
_cell_angle_beta 89.878300
_cell_angle_gamma 89.567500
loop_
  _atom_site_label
  _atom_site_type_symbol
  _atom_site_fract_x
  _atom_site_fract_y
  _atom_site_fract_z
N1 N 0.17555 0.22893 0.23379
 N2 N 0.18173 0.21031 0.24470
 C3 C 0.16743 0.20719 0.26259
 C4 C 0.15164 0.22481 0.26276
 C5 C 0.15716 0.23829 0.24434
 H6 H 0.16829 0.19316 0.27449
 H7 H 0.14837 0.25364 0.23895
 Cu8 Cu 0.20775 0.19197 0.23429
 Cu9 Cu 0.19163 0.23961 0.20665
 Cu10 Cu 0.23749 0.20674 0.18728
 N11 N 0.23328 0.17348 0.22296
 N12 N 0.24480 0.17936 0.20452
 C13 C 0.26169 0.16403 0.20064
 C14 C 0.26060 0.14777 0.21752
 C15 C 0.24249 0.15415 0.23144
 H16 H 0.27399 0.16478 0.18676
 H17 H 0.23668 0.14549 0.24667
 N18 N 0.22751 0.23502 0.17214
 N19 N 0.21005 0.24758 0.17953
 C20 C 0.20767 0.26582 0.16577
 C21 C 0.22441 0.26455 0.14911
 C22 C 0.23668 0.24494 0.15351
 H23 H 0.19479 0.27906 0.16771
 H24 H 0.25123 0.23846 0.14388
 H25 H 0.20310 0.20783 0.19603
 H26 H 0.22302 0.22493 0.21421
 N27 N 0.67288 0.72583 0.73260
 N28 N 0.67987 0.70785 0.74409
 C29 C 0.66511 0.70396 0.76141
 C30 C 0.64812 0.72035 0.76062
 C31 C 0.65344 0.73400 0.74223
 H32 H 0.66663 0.69036 0.77376
 H33 H 0.64399 0.74880 0.73643
 Cu34 Cu 0.70771 0.69149 0.73548
 Cu35 Cu 0.68973 0.73746 0.70629
 Cu36 Cu 0.73925 0.70808 0.69039
 N37 N 0.73529 0.67499 0.72625
 N38 N 0.74758 0.68155 0.70857
 C39 C 0.76560 0.66726 0.70591
 C40 C 0.76441 0.65103 0.72283
 C41 C 0.74507 0.65630 0.73544
 H42 H 0.77854 0.66853 0.69266
 H43 H 0.73864 0.64714 0.75012
 N44 N 0.72801 0.73533 0.67418
 N45 N 0.70916 0.74652 0.68020
 C46 C 0.70618 0.76431 0.66596
 C47 C 0.72399 0.76417 0.65039
 C48 C 0.73751 0.74569 0.65596
 H49 H 0.69218 0.77648 0.66682
 H50 H 0.75309 0.74026 0.64736
 H51 H 0.70437 0.70663 0.69678
 H52 H 0.72161 0.72539 0.71602
 N53 N 0.32521 0.77454 0.73390
 N54 N 0.31858 0.79299 0.74513
 C55 C 0.33325 0.79689 0.76252
 C56 C 0.34980 0.78002 0.76203
 C57 C 0.34432 0.76610 0.74374
 H58 H 0.33200 0.81086 0.77468
 H59 H 0.35349 0.75097 0.73809
 Cu60 Cu 0.29135 0.80999 0.73611
 Cu61 Cu 0.30847 0.76279 0.70752
 Cu62 Cu 0.25928 0.79228 0.69163
 N63 N 0.26344 0.82599 0.72731
 N64 N 0.25095 0.81901 0.70988
 C65 C 0.23274 0.83307 0.70750
 C66 C 0.23402 0.84957 0.72437
 C67 C 0.25360 0.84473 0.73664
 H68 H 0.21966 0.83146 0.69447
 H69 H 0.26017 0.85420 0.75117
 N70 N 0.27048 0.76486 0.67530
 N71 N 0.28921 0.75360 0.68134
 C72 C 0.29228 0.73576 0.66693
 C73 C 0.27465 0.73591 0.65125
 C74 C 0.26115 0.75447 0.65691
 H75 H 0.30626 0.72357 0.66773
 H76 H 0.24572 0.75997 0.64822
 H77 H 0.29422 0.79353 0.69765
 H78 H 0.27686 0.77567 0.71748
 N79 N 0.82679 0.27142 0.23212
 N80 N 0.81939 0.28841 0.24510
 C81 C 0.83330 0.29052 0.26342
 C82 C 0.85012 0.27398 0.26169
 C83 C 0.84563 0.26213 0.24172
 H84 H 0.83140 0.30312 0.27694
 H85 H 0.85533 0.24790 0.23471
 Cu86 Cu 0.79233 0.30607 0.23678
 Cu87 Cu 0.81143 0.26263 0.20379
 Cu88 Cu 0.76353 0.29438 0.18829
 N89 N 0.76568 0.32397 0.22768
 N90 N 0.75449 0.31929 0.20867
 C91 C 0.73696 0.33418 0.20636
 C92 C 0.73728 0.34884 0.22490
 C93 C 0.75564 0.34205 0.23811
 H94 H 0.72499 0.33442 0.19222
 H95 H 0.76128 0.34979 0.25399
 N96 N 0.77530 0.26853 0.16990
 N97 N 0.79354 0.25641 0.17578
 C98 C 0.79696 0.23980 0.16002
 C99 C 0.78012 0.24170 0.14360
 C100 C 0.76666 0.25996 0.15026
 H101 H 0.81051 0.22711 0.16053
 H102 H 0.75158 0.26632 0.14156
 H103 H 0.79794 0.29452 0.19691
 H104 H 0.77920 0.27444 0.21293
 N105 N 0.82677 0.72541 0.26686
 N106 N 0.82028 0.70710 0.25551
 C107 C 0.83515 0.70305 0.23820
 C108 C 0.85168 0.71970 0.23888
 C109 C 0.84597 0.73363 0.25718
 H110 H 0.83402 0.68919 0.22595
 H111 H 0.85501 0.74865 0.26291
 Cu112 Cu 0.79283 0.69066 0.26433
 Cu113 Cu 0.80971 0.73738 0.29316
 Cu114 Cu 0.76096 0.70787 0.30935
 N115 N 0.76559 0.67413 0.27362
 N116 N 0.75319 0.68097 0.29128
 C117 C 0.73532 0.66680 0.29393
 C118 C 0.73671 0.65033 0.27702
 C119 C 0.75602 0.65534 0.26442
 H120 H 0.72229 0.66839 0.30708
 H121 H 0.76250 0.64604 0.24967
 N122 N 0.77162 0.73547 0.32543
 N123 N 0.79016 0.74675 0.31927
 C124 C 0.79288 0.76470 0.33355
 C125 C 0.77521 0.76460 0.34927
 C126 C 0.76207 0.74595 0.34378
 H127 H 0.80668 0.77688 0.33269
 H128 H 0.74676 0.74043 0.35258
 H129 H 0.79584 0.70662 0.30291
 H130 H 0.77810 0.72481 0.28357
 N131 N 0.32789 0.22480 -0.23349
 N132 N 0.32153 0.20635 -0.24470
 C133 C 0.33640 0.20230 -0.26202
 C134 C 0.35279 0.21909 -0.26146
 C135 C 0.34700 0.23312 -0.24326
 H136 H 0.33532 0.18836 -0.27421
 H137 H 0.35588 0.24831 -0.23768
 Cu138 Cu 0.29418 0.18978 -0.23584
 Cu139 Cu 0.31069 0.23686 -0.20734
 Cu140 Cu 0.26188 0.20743 -0.19127
 N141 N 0.26677 0.17344 -0.22670
 N142 N 0.25419 0.18046 -0.20923
 C143 C 0.23622 0.16640 -0.20671
 C144 C 0.23771 0.14981 -0.22350
 C145 C 0.25720 0.15465 -0.23591
 H146 H 0.22303 0.16814 -0.19373
 H147 H 0.26379 0.14523 -0.25054
 N148 N 0.27245 0.23509 -0.17524
 N149 N 0.29102 0.24634 -0.18136
 C150 C 0.29367 0.26434 -0.16713
 C151 C 0.27593 0.26430 -0.15149
 C152 C 0.26281 0.24564 -0.15698
 H153 H 0.30749 0.27650 -0.16795
 H154 H 0.24747 0.24014 -0.14822
 H155 H 0.29682 0.20617 -0.19740
 H156 H 0.27923 0.22410 -0.21710
 N157 N 0.67152 0.27672 -0.23180
 N158 N 0.67913 0.29365 -0.24431
 C159 C 0.66607 0.29558 -0.26324
 C160 C 0.64948 0.27899 -0.26237
 C161 C 0.65325 0.26734 -0.24225
 H162 H 0.66809 0.30845 -0.27628
 H163 H 0.64318 0.25352 -0.23541
 Cu164 Cu 0.70418 0.31269 -0.23388
 Cu165 Cu 0.68495 0.26932 -0.20219
 Cu166 Cu 0.73794 0.29371 -0.19124
 N167 N 0.73374 0.32631 -0.22755
 N168 N 0.74703 0.31871 -0.21103
 C169 C 0.76601 0.33163 -0.20992
 C170 C 0.76442 0.34801 -0.22669
 C171 C 0.74381 0.34427 -0.23757
 H172 H 0.77959 0.32967 -0.19747
 H173 H 0.73651 0.35417 -0.25137
 N174 N 0.72547 0.26840 -0.17308
 N175 N 0.70514 0.25937 -0.17703
 C176 C 0.70130 0.24287 -0.16155
 C177 C 0.72006 0.24163 -0.14726
 C178 C 0.73505 0.25794 -0.15493
 H179 H 0.68605 0.23252 -0.16073
 H180 H 0.75162 0.26194 -0.14770
 H181 H 0.70336 0.29865 -0.19423
 H182 H 0.71648 0.27794 -0.21489
 N183 N 0.17582 0.77494 0.26743
 N184 N 0.18206 0.79375 0.25703
 C185 C 0.16737 0.79802 0.23973
 C186 C 0.15121 0.78099 0.23944
 C187 C 0.15696 0.76662 0.25714
 H188 H 0.16830 0.81236 0.22822
 H189 H 0.14810 0.75130 0.26215
 Cu190 Cu 0.20879 0.81076 0.26707
 Cu191 Cu 0.19258 0.76263 0.29348
 Cu192 Cu 0.24084 0.79211 0.31111
 N193 N 0.23621 0.82680 0.27688
 N194 N 0.24868 0.81941 0.29412
 C195 C 0.26652 0.83354 0.29734
 C196 C 0.26501 0.85055 0.28123
 C197 C 0.24570 0.84591 0.26850
 H198 H 0.27953 0.83161 0.31040
 H199 H 0.23909 0.85572 0.25429
 N200 N 0.23019 0.76415 0.32615
 N201 N 0.21180 0.75289 0.31947
 C202 C 0.20891 0.73478 0.33327
 C203 C 0.22631 0.73476 0.34921
 C204 C 0.23948 0.75350 0.34434
 H205 H 0.19510 0.72263 0.33198
 H206 H 0.25456 0.75902 0.35354
 H207 H 0.20594 0.79321 0.30478
 H208 H 0.22393 0.77607 0.28438
 N209 N 0.47823 0.42374 0.48671
 N210 N 0.45977 0.43062 0.49787
 C211 C 0.45659 0.41705 0.51617
 C212 C 0.47402 0.40101 0.51631
 C213 C 0.48742 0.40563 0.49747
 H214 H 0.44265 0.41858 0.52836
 H215 H 0.50260 0.39640 0.49193
 Cu216 Cu 0.44174 0.45653 0.48712
 Cu217 Cu 0.48896 0.43849 0.45894
 Cu218 Cu 0.45718 0.48460 0.43946
 N219 N 0.42405 0.48248 0.47596
 N220 N 0.43024 0.49335 0.45730
 C221 C 0.41529 0.51049 0.45338
 C222 C 0.39897 0.51028 0.47049
 C223 C 0.40491 0.49238 0.48456
 H224 H 0.41621 0.52224 0.43920
 H225 H 0.39596 0.48706 0.49985
 N226 N 0.48498 0.47318 0.42378
 N227 N 0.49710 0.45560 0.43120
 C228 C 0.51499 0.45200 0.41691
 C229 C 0.51395 0.46807 0.39984
 C230 C 0.49484 0.48122 0.40458
 H231 H 0.52782 0.43873 0.41872
 H232 H 0.48864 0.49555 0.39474
 H233 H 0.47516 0.47030 0.46631
 H234 H 0.45725 0.45065 0.44863
 N235 N -0.02046 -0.07726 0.98607
 N236 N -0.03926 -0.07127 0.99717
 C237 C -0.04200 -0.08516 1.01528
 C238 C -0.02395 -0.10049 1.01538
 C239 C -0.01061 -0.09511 0.99669
 H240 H -0.05611 -0.08438 1.02735
 H241 H 0.00494 -0.10369 0.99113
 Cu242 Cu -0.05837 -0.04612 0.98657
 Cu243 Cu -0.01034 -0.06181 0.95845
 Cu244 Cu -0.04413 -0.01698 0.93922
 N245 N -0.07719 -0.02091 0.97562
 N246 N -0.07149 -0.00959 0.95708
 C247 C -0.08717 0.00696 0.95338
 C248 C -0.10344 0.00584 0.97049
 C249 C -0.09671 -0.01192 0.98435
 H250 H -0.08671 0.01896 0.93939
 H251 H -0.10534 -0.01771 0.99965
 N252 N -0.01580 -0.02705 0.92351
 N253 N -0.00292 -0.04413 0.93086
 C254 C 0.01504 -0.04695 0.91650
 C255 C 0.01328 -0.03091 0.89947
 C256 C -0.00635 -0.01857 0.90429
 H257 H 0.02836 -0.05976 0.91819
 H258 H -0.01324 -0.00454 0.89445
 H259 H -0.02557 -0.03069 0.96598
 H260 H -0.04252 -0.05098 0.94809
 N261 N 1.02267 0.57620 0.98528
 N262 N 1.04114 0.56929 0.99623
 C263 C 1.04451 0.58297 1.01458
 C264 C 1.02722 0.59914 1.01497
 C265 C 1.01367 0.59446 0.99623
 H266 H 1.05847 0.58141 1.02666
 H267 H 0.99850 0.60372 0.99092
 Cu268 Cu 1.05899 0.54319 0.98528
 Cu269 Cu 1.01168 0.56116 0.95762
 Cu270 Cu 1.04248 0.51402 0.93831
 N271 N 1.07578 0.51636 0.97449
 N272 N 1.06922 0.50504 0.95611
 C273 C 1.08375 0.48744 0.95238
 C274 C 1.10017 0.48783 0.96933
 C275 C 1.09473 0.50630 0.98309
 H276 H 1.08253 0.47532 0.93837
 H277 H 1.10395 0.51197 0.99813
 N278 N 1.01495 0.52573 0.92263
 N279 N 1.00322 0.54372 0.92998
 C280 C 0.98542 0.54742 0.91574
 C281 C 0.98609 0.53099 0.89878
 C282 C 1.00491 0.51751 0.90353
 H283 H 0.97286 0.56098 0.91755
 H284 H 1.01076 0.50283 0.89379
 H285 H 1.02509 0.52937 0.96528
 H286 H 1.04306 0.54822 0.94697
 N287 N 0.52165 0.07601 0.48379
 N288 N 0.54020 0.06972 0.49499
 C289 C 0.54356 0.08426 0.51266
 C290 C 0.52619 0.10033 0.51237
 C291 C 0.51259 0.09471 0.49392
 H292 H 0.55746 0.08323 0.52486
 H293 H 0.49722 0.10350 0.48837
 Cu294 Cu 0.55789 0.04298 0.48546
 Cu295 Cu 0.51038 0.05934 0.45716
 Cu296 Cu 0.54197 0.01202 0.43956
 N297 N 0.57572 0.01664 0.47510
 N298 N 0.56933 0.00461 0.45712
 C299 C 0.58437 -0.01261 0.45368
 C300 C 0.60097 -0.01122 0.47038
 C301 C 0.59511 0.00744 0.48372
 H302 H 0.58330 -0.02522 0.44011
 H303 H 0.60425 0.01374 0.49856
 N304 N 0.51379 0.02220 0.42399
 N305 N 0.50176 0.04026 0.43064
 C306 C 0.48358 0.04275 0.41661
 C307 C 0.48433 0.02544 0.40055
 C308 C 0.50359 0.01274 0.40558
 H309 H 0.47078 0.05614 0.41790
 H310 H 0.50969 -0.00223 0.39643
 H311 H 0.52417 0.02807 0.46590
 H312 H 0.54194 0.04655 0.44703
 N313 N -0.02737 0.07961 0.51667
 N314 N -0.04585 0.07252 0.50593
 C315 C -0.05003 0.08633 0.48799
 C316 C -0.03327 0.10278 0.48765
 C317 C -0.01917 0.09812 0.50598
 H318 H -0.06408 0.08454 0.47605
 H319 H -0.00408 0.10747 0.51110
 Cu320 Cu -0.06252 0.04588 0.51639
 Cu321 Cu -0.01518 0.06431 0.54357
 Cu322 Cu -0.04378 0.01618 0.56194
 N323 N -0.07800 0.01845 0.52663
 N324 N -0.07056 0.00692 0.54444
 C325 C -0.08424 -0.01115 0.54782
 C326 C -0.10101 -0.01085 0.53122
 C327 C -0.09668 0.00805 0.51803
 H328 H -0.08217 -0.02355 0.56131
 H329 H -0.10641 0.01374 0.50335
 N330 N -0.01638 0.02818 0.57742
 N331 N -0.00546 0.04654 0.57043
 C332 C 0.01244 0.05040 0.58449
 C333 C 0.01266 0.03368 0.60096
 C334 C -0.00572 0.01988 0.59609
 H335 H 0.02441 0.06430 0.58294
 H336 H -0.01090 0.00496 0.60551
 H337 H -0.02763 0.03247 0.53510
 H338 H -0.04581 0.05056 0.55448
 N339 N 0.47640 0.57682 0.01567
 N340 N 0.45799 0.57011 0.00458
 C341 C 0.45482 0.58363 -0.01379
 C342 C 0.47219 0.59947 -0.01403
 C343 C 0.48556 0.59477 0.00481
 H344 H 0.44096 0.58216 -0.02599
 H345 H 0.50074 0.60380 0.01024
 Cu346 Cu 0.43998 0.54444 0.01533
 Cu347 Cu 0.48717 0.56192 0.04336
 Cu348 Cu 0.45624 0.51549 0.06232
 N349 N 0.42319 0.51790 0.02590
 N350 N 0.42964 0.50670 0.04430
 C351 C 0.41527 0.48918 0.04774
 C352 C 0.39906 0.48949 0.03060
 C353 C 0.40446 0.50784 0.01700
 H354 H 0.41654 0.47708 0.06161
 H355 H 0.39546 0.51334 0.00179
 N356 N 0.48364 0.52696 0.07825
 N357 N 0.49543 0.54467 0.07101
 C358 C 0.51322 0.54817 0.08530
 C359 C 0.51246 0.53191 0.10218
 C360 C 0.49362 0.51872 0.09733
 H361 H 0.52586 0.56145 0.08354
 H362 H 0.48774 0.50418 0.10694
 H363 H 0.47375 0.53027 0.03547
 H364 H 0.45569 0.54960 0.05376
 N365 N 0.52090 -0.07404 0.01312
 N366 N 0.54052 -0.06993 0.00283
 C367 C 0.54390 -0.08561 -0.01388
 C368 C 0.52538 -0.10010 -0.01393
 C369 C 0.51109 -0.09237 0.00333
 H370 H 0.55861 -0.08639 -0.02521
 H371 H 0.49476 -0.09946 0.00832
 Cu372 Cu 0.55948 -0.04422 0.01189
 Cu373 Cu 0.50918 -0.05497 0.03790
 Cu374 Cu 0.54660 -0.01503 0.06037
 N375 N 0.57892 -0.01985 0.02332
 N376 N 0.57404 -0.00882 0.04247
 C377 C 0.59008 0.00719 0.04620
 C378 C 0.60574 0.00600 0.02850
 C379 C 0.59827 -0.01124 0.01425
 H380 H 0.59008 0.01912 0.06043
 H381 H 0.60616 -0.01683 -0.00164
 N382 N 0.51775 -0.02355 0.07564
 N383 N 0.50330 -0.03843 0.06678
 C384 C 0.48496 -0.04017 0.08073
 C385 C 0.48807 -0.02564 0.09908
 C386 C 0.50892 -0.01535 0.09545
 H387 H 0.47044 -0.05118 0.07780
 H388 H 0.51690 -0.00270 0.10633
 H389 H 0.52803 -0.02521 0.03263
 H390 H 0.54191 -0.04853 0.04945
 N391 N 1.02617 0.42220 0.51406
 N392 N 1.04463 0.42925 0.50328
 C393 C 1.04880 0.41534 0.48521
 C394 C 1.03204 0.39887 0.48482
 C395 C 1.01798 0.40362 0.50327
 H396 H 1.06295 0.41694 0.47332
 H397 H 1.00302 0.39418 0.50852
 Cu398 Cu 1.06144 0.45577 0.51413
 Cu399 Cu 1.01425 0.43732 0.54143
 Cu400 Cu 1.04327 0.48512 0.56061
 N401 N 1.07717 0.48301 0.52481
 N402 N 1.06996 0.49439 0.54300
 C403 C 1.08381 0.51232 0.54666
 C404 C 1.10046 0.51207 0.52988
 C405 C 1.09587 0.49335 0.51627
 H406 H 1.08194 0.52457 0.56050
 H407 H 1.10547 0.48773 0.50135
 N408 N 1.01591 0.47310 0.57612
 N409 N 1.00482 0.45489 0.56880
 C410 C 0.98707 0.45091 0.58303
 C411 C 0.98711 0.46740 0.59994
 C412 C 1.00549 0.48119 0.59518
 H413 H 0.97506 0.43704 0.58133
 H414 H 1.01089 0.49593 0.60497
 H415 H 1.02679 0.46923 0.53359
 H416 H 1.04505 0.45084 0.55230
 C417 C 0.37373 -0.00089 0.24901
 C418 C 0.12497 0.00120 0.74971
 C419 C 0.62580 0.50038 0.25048
 C420 C 0.87427 0.49900 0.74943
 C421 C 0.25095 0.37663 -0.00012
 C422 C 0.74985 0.12401 -0.00231
 C423 C 0.24925 0.62377 0.50023
 C424 C 0.75092 0.87636 0.50116
 C425 C -0.00080 0.24910 0.37394
 C426 C 0.00182 0.74995 0.12727
 C427 C 0.50055 0.25016 0.62624
 C428 C 0.49887 0.74886 0.87469
 C429 C 0.06157 0.23604 0.35547
 C430 C 0.06124 0.24117 0.33210
 C431 C 0.04119 0.24976 0.32221
 C432 C 0.02132 0.25254 0.33538
 C433 C 0.13285 0.22816 0.27844
 C434 C 0.04171 0.23881 0.36870
 C435 C 0.08136 0.23765 0.31814
 C436 C 0.09788 0.23463 0.30599
 C437 C 0.11688 0.23110 0.29131
 C438 C 0.02082 0.24602 0.35869
 H439 H 0.07716 0.22984 0.36345
 H440 H 0.04092 0.25442 0.30426
 H441 H 0.00655 0.26011 0.32716
 H442 H 0.04249 0.23493 0.38681
 C443 C 0.56140 0.74871 0.85150
 C444 C 0.55962 0.73360 0.83297
 C445 C 0.53899 0.72229 0.82901
 C446 C 0.51991 0.72687 0.84287
 C447 C 0.62911 0.72292 0.77616
 C448 C 0.54234 0.75334 0.86539
 C449 C 0.57877 0.73015 0.81771
 C450 C 0.59469 0.72766 0.80469
 C451 C 0.61325 0.72505 0.78930
 C452 C 0.52078 0.74353 0.86049
 H453 H 0.57752 0.75706 0.85514
 H454 H 0.53753 0.71017 0.81499
 H455 H 0.50409 0.71796 0.83934
 H456 H 0.54474 0.76460 0.87991
 C457 C 0.43681 0.76164 0.85546
 C458 C 0.43954 0.76595 0.83208
 C459 C 0.46151 0.76619 0.82250
 C460 C 0.48064 0.76118 0.83598
 C461 C 0.36879 0.77745 0.77747
 C462 C 0.45594 0.75666 0.86900
 C463 C 0.41986 0.76970 0.81770
 C464 C 0.40360 0.77241 0.80525
 C465 C 0.38477 0.77522 0.79036
 C466 C 0.47813 0.75497 0.85926
 H467 H 0.41990 0.76191 0.86319
 H468 H 0.46388 0.77018 0.80454
 H469 H 0.49731 0.76239 0.82796
 H470 H 0.45338 0.75343 0.88709
 C471 C -0.05867 0.27254 0.35055
 C472 C -0.06279 0.25734 0.33249
 C473 C -0.04777 0.23903 0.32866
 C474 C -0.02827 0.23642 0.34228
 C475 C -0.13229 0.27030 0.27652
 C476 C -0.03915 0.26997 0.36422
 C477 C -0.08219 0.26069 0.31762
 C478 C -0.09817 0.26361 0.30486
 C479 C -0.11664 0.26716 0.28964
 C480 C -0.02287 0.25253 0.35956
 H481 H -0.07054 0.28644 0.35407
 H482 H -0.05101 0.22686 0.31501
 H483 H -0.01694 0.22205 0.33896
 H484 H -0.03711 0.28164 0.37847
 C485 C -0.06092 0.74963 0.14991
 C486 C -0.05907 0.73445 0.16818
 C487 C -0.03819 0.72342 0.17237
 C488 C -0.01901 0.72823 0.15889
 C489 C -0.12930 0.72230 0.22343
 C490 C -0.04176 0.75449 0.13640
 C491 C -0.07846 0.73055 0.18292
 C492 C -0.09458 0.72766 0.19553
 C493 C -0.11333 0.72464 0.21052
 C494 C -0.02004 0.74482 0.14143
 H495 H -0.07720 0.75779 0.14611
 H496 H -0.03665 0.71127 0.18619
 H497 H -0.00304 0.71942 0.16249
 H498 H -0.04422 0.76570 0.12198
 C499 C 0.46093 0.22280 0.67118
 C500 C 0.44010 0.23413 0.66760
 C501 C 0.43810 0.24973 0.64970
 C502 C 0.45711 0.25472 0.63601
 C503 C 0.37064 0.22167 0.72376
 C504 C 0.47995 0.22774 0.65752
 C505 C 0.42092 0.23014 0.68260
 C506 C 0.40499 0.22719 0.69543
 C507 C 0.38645 0.22409 0.71067
 C508 C 0.47881 0.24477 0.64050
 H509 H 0.46257 0.21033 0.68471
 H510 H 0.42185 0.25813 0.64635
 H511 H 0.45452 0.26629 0.62191
 H512 H 0.49589 0.21871 0.66068
 C513 C 0.56287 0.26167 0.64503
 C514 C 0.56050 0.26545 0.66861
 C515 C 0.53866 0.26575 0.67851
 C516 C 0.51933 0.26134 0.66514
 C517 C 0.63170 0.27618 0.72283
 C518 C 0.54354 0.25728 0.63160
 C519 C 0.58040 0.26873 0.68281
 C520 C 0.59681 0.27118 0.69511
 C521 C 0.61575 0.27386 0.70991
 C522 C 0.52149 0.25569 0.64160
 H523 H 0.57967 0.26192 0.63706
 H524 H 0.53655 0.26935 0.69665
 H525 H 0.50277 0.26257 0.67343
 H526 H 0.54585 0.25444 0.61336
 C527 C 0.03925 0.76740 0.17942
 C528 C 0.06119 0.76697 0.16975
 C529 C 0.06386 0.76234 0.14635
 C530 C 0.04472 0.75729 0.13288
 C531 C 0.13222 0.77868 0.22395
 C532 C 0.02011 0.76234 0.16601
 C533 C 0.08092 0.77086 0.18402
 C534 C 0.09725 0.77367 0.19634
 C535 C 0.11618 0.77653 0.21111
 C536 C 0.02257 0.75591 0.14269
 H537 H 0.03692 0.77162 0.19740
 H538 H 0.08074 0.76242 0.13855
 H539 H 0.04725 0.75386 0.11478
 H540 H 0.00345 0.76372 0.17408
 C541 C 0.34965 0.06104 0.24896
 C542 C 0.33161 0.05905 0.23335
 C543 C 0.32805 0.03836 0.22196
 C544 C 0.34191 0.01948 0.22682
 C545 C 0.27582 0.12866 0.22049
 C546 C 0.36354 0.04218 0.25386
 C547 C 0.31655 0.07815 0.22932
 C548 C 0.30376 0.09408 0.22630
 C549 C 0.28869 0.11271 0.22307
 C550 C 0.35914 0.02064 0.24381
 H551 H 0.35297 0.07719 0.25740
 H552 H 0.31441 0.03673 0.20947
 H553 H 0.33879 0.00365 0.21773
 H554 H 0.37776 0.04476 0.26542
 C555 C 0.85205 0.55669 0.72549
 C556 C 0.83367 0.56131 0.74026
 C557 C 0.82909 0.54657 0.75838
 C558 C 0.84236 0.52687 0.76127
 C559 C 0.77986 0.63223 0.72648
 C560 C 0.86534 0.53699 0.72832
 C561 C 0.81939 0.58107 0.73667
 C562 C 0.80716 0.59739 0.73349
 C563 C 0.79257 0.61628 0.72969
 C564 C 0.86002 0.52103 0.74559
 H565 H 0.85614 0.56834 0.71176
 H566 H 0.81517 0.55021 0.77023
 H567 H 0.83853 0.51581 0.77555
 H568 H 0.87990 0.53461 0.71704
 C569 C 0.82272 0.45751 0.74770
 C570 C 0.83267 0.43761 0.75634
 C571 C 0.85597 0.43725 0.76189
 C572 C 0.86911 0.45692 0.75944
 C573 C 0.77991 0.36651 0.76935
 C574 C 0.83580 0.47720 0.74525
 C575 C 0.81885 0.41766 0.75960
 C576 C 0.80693 0.40123 0.76253
 C577 C 0.79255 0.38234 0.76613
 C578 C 0.85905 0.47765 0.75215
 H579 H 0.80481 0.45779 0.74277
 H580 H 0.86399 0.42179 0.76817
 H581 H 0.88717 0.45611 0.76365
 H582 H 0.82757 0.49186 0.73763
 C583 C 0.32225 -0.03895 0.26583
 C584 C 0.33238 -0.06060 0.26549
 C585 C 0.35582 -0.06292 0.26090
 C586 C 0.36891 -0.04370 0.25590
 C587 C 0.27946 -0.13158 0.27854
 C588 C 0.33528 -0.01973 0.26081
 C589 C 0.31854 -0.08038 0.26961
 C590 C 0.30653 -0.09671 0.27270
 C591 C 0.29207 -0.11561 0.27598
 C592 C 0.35867 -0.02182 0.25453
 H593 H 0.30423 -0.03689 0.27001
 H594 H 0.36397 -0.07958 0.26107
 H595 H 0.38708 -0.04594 0.25261
 H596 H 0.32686 -0.00330 0.26219
 C597 C 0.17628 -0.04132 0.75103
 C598 C 0.16628 -0.06101 0.74207
 C599 C 0.14295 -0.06099 0.73664
 C600 C 0.12986 -0.04110 0.73943
 C601 C 0.21935 -0.13263 0.72793
 C602 C 0.16326 -0.02141 0.75380
 C603 C 0.18011 -0.08112 0.73834
 C604 C 0.19212 -0.09764 0.73507
 C605 C 0.20663 -0.11665 0.73119
 C606 C 0.14001 -0.02053 0.74689
 H607 H 0.19421 -0.04134 0.75592
 H608 H 0.13488 -0.07631 0.73015
 H609 H 0.11178 -0.04159 0.73526
 H610 H 0.17155 -0.00690 0.76162
 C611 C 0.67800 0.45894 0.25199
 C612 C 0.66839 0.43897 0.24322
 C613 C 0.64508 0.43850 0.23773
 C614 C 0.63160 0.45816 0.24032
 C615 C 0.72205 0.36775 0.22921
 C616 C 0.66458 0.47862 0.25457
 C617 C 0.68258 0.41907 0.23974
 C618 C 0.69479 0.40267 0.23659
 C619 C 0.70939 0.38374 0.23269
 C620 C 0.64132 0.47898 0.24766
 H621 H 0.69591 0.45931 0.25691
 H622 H 0.63733 0.42297 0.23136
 H623 H 0.61353 0.45727 0.23616
 H624 H 0.67258 0.49335 0.26228
 C625 C 0.67063 0.54736 0.24114
 C626 C 0.66639 0.56223 0.25950
 C627 C 0.64821 0.55799 0.27449
 C628 C 0.63482 0.53850 0.27167
 C629 C 0.72120 0.63178 0.27322
 C630 C 0.65729 0.52788 0.23827
 C631 C 0.68092 0.58164 0.26312
 C632 C 0.69341 0.59764 0.26626
 C633 C 0.70831 0.61613 0.27001
 C634 C 0.63989 0.52238 0.25419
 H635 H 0.68439 0.55071 0.22913
 H636 H 0.64437 0.56975 0.28841
 H637 H 0.62045 0.53637 0.28317
 H638 H 0.66092 0.51667 0.22386
 C639 C 0.14835 0.05840 0.77376
 C640 C 0.16668 0.06229 0.75886
 C641 C 0.17080 0.04728 0.74058
 C642 C 0.15712 0.02804 0.73769
 C643 C 0.22213 0.13134 0.77263
 C644 C 0.13464 0.03914 0.77092
 C645 C 0.18146 0.08152 0.76245
 C646 C 0.19410 0.09740 0.76559
 C647 C 0.20914 0.11577 0.76937
 C648 C 0.13951 0.02289 0.75349
 H649 H 0.14462 0.07027 0.78762
 H650 H 0.18468 0.05036 0.72864
 H651 H 0.16064 0.01674 0.72332
 H652 H 0.12016 0.03730 0.78233
 C653 C 0.22727 0.35401 0.05771
 C654 C 0.24244 0.33598 0.06194
 C655 C 0.26090 0.33200 0.04711
 C656 C 0.26366 0.34543 0.02762
 C657 C 0.22832 0.28038 0.13085
 C658 C 0.22999 0.36748 0.03822
 C659 C 0.23880 0.32126 0.08124
 C660 C 0.23556 0.30861 0.09710
 C661 C 0.23166 0.29349 0.11540
 C662 C 0.24753 0.36263 0.02205
 H663 H 0.21326 0.35765 0.06945
 H664 H 0.27305 0.31836 0.05045
 H665 H 0.27812 0.34196 0.01640
 H666 H 0.21832 0.38170 0.03611
 C667 C 0.72688 0.85366 0.55882
 C668 C 0.74185 0.83545 0.56300
 C669 C 0.76027 0.83133 0.54814
 C670 C 0.76319 0.84481 0.52871
 C671 C 0.72774 0.77997 0.63206
 C672 C 0.72975 0.86718 0.53939
 C673 C 0.73812 0.82075 0.58230
 C674 C 0.73487 0.80813 0.59820
 C675 C 0.73100 0.79305 0.61655
 C676 C 0.74727 0.86224 0.52322
 H677 H 0.71291 0.85740 0.57058
 H678 H 0.77228 0.81756 0.55144
 H679 H 0.77762 0.84124 0.51749
 H680 H 0.71825 0.88154 0.53735
 C681 C 0.74937 0.82463 0.45927
 C682 C 0.75786 0.83428 0.43917
 C683 C 0.76299 0.85751 0.43871
 C684 C 0.76039 0.87084 0.45853
 C685 C 0.77151 0.78030 0.36795
 C686 C 0.74678 0.83790 0.47910
 C687 C 0.76143 0.82019 0.41915
 C688 C 0.76456 0.80796 0.40272
 C689 C 0.76832 0.79321 0.38384
 C690 C 0.75342 0.86106 0.47950
 H691 H 0.74472 0.80679 0.45964
 H692 H 0.76911 0.86530 0.42308
 H693 H 0.76436 0.88882 0.45768
 H694 H 0.73933 0.82984 0.49393
 C695 C 0.26315 0.35749 -0.06245
 C696 C 0.25827 0.33421 -0.06183
 C697 C 0.24994 0.32460 -0.04164
 C698 C 0.24726 0.33797 -0.02189
 C699 C 0.27216 0.28004 -0.13285
 C700 C 0.26047 0.37092 -0.04271
 C701 C 0.26190 0.32005 -0.08179
 C702 C 0.26510 0.30777 -0.09816
 C703 C 0.26892 0.29298 -0.11700
 C704 C 0.25364 0.36120 -0.02166
 H705 H 0.26915 0.36525 -0.07814
 H706 H 0.24547 0.30671 -0.04115
 H707 H 0.23991 0.32993 -0.00700
 H708 H 0.26422 0.38894 -0.04369
 C709 C 0.71869 0.15940 -0.04909
 C710 C 0.73698 0.17129 -0.05871
 C711 C 0.75905 0.16843 -0.04985
 C712 C 0.76292 0.15331 -0.03182
 C713 C 0.72335 0.22655 -0.12820
 C714 C 0.72249 0.14426 -0.03106
 C715 C 0.73308 0.18654 -0.07759
 C716 C 0.72989 0.19920 -0.09350
 C717 C 0.72628 0.21395 -0.11220
 C718 C 0.74491 0.14011 -0.02270
 H719 H 0.70140 0.16195 -0.05542
 H720 H 0.77331 0.17789 -0.05684
 H721 H 0.78014 0.15166 -0.02509
 H722 H 0.70768 0.13622 -0.02355
 C723 C 0.23728 0.64218 0.43794
 C724 C 0.24258 0.66537 0.43850
 C725 C 0.25114 0.67513 0.45862
 C726 C 0.25365 0.66201 0.47836
 C727 C 0.22966 0.71901 0.36769
 C728 C 0.23979 0.62900 0.45767
 C729 C 0.23914 0.67932 0.41856
 C730 C 0.23614 0.69145 0.40221
 C731 C 0.23261 0.70612 0.38344
 C732 C 0.24685 0.63890 0.47867
 H733 H 0.23109 0.63430 0.42230
 H734 H 0.25593 0.69294 0.45906
 H735 H 0.26117 0.67013 0.49320
 H736 H 0.23570 0.61104 0.45674
 C737 C 0.27285 0.64657 0.55824
 C738 C 0.25793 0.66488 0.56252
 C739 C 0.23975 0.66911 0.54754
 C740 C 0.23698 0.65561 0.52793
 C741 C 0.27114 0.72016 0.63263
 C742 C 0.27013 0.63303 0.53862
 C743 C 0.26144 0.67952 0.58209
 C744 C 0.26449 0.69210 0.59823
 C745 C 0.26809 0.70712 0.61687
 C746 C 0.25284 0.63804 0.52238
 H747 H 0.28663 0.64275 0.57008
 H748 H 0.22779 0.68296 0.55090
 H749 H 0.22270 0.65923 0.51665
 H750 H 0.28155 0.61858 0.53651
 C751 C 0.78094 0.16020 0.04399
 C752 C 0.76260 0.17236 0.05367
 C753 C 0.74051 0.16956 0.04488
 C754 C 0.73668 0.15417 0.02692
 C755 C 0.77666 0.22710 0.12404
 C756 C 0.77717 0.14479 0.02604
 C757 C 0.76648 0.18766 0.07266
 C758 C 0.76976 0.20025 0.08873
 C759 C 0.77355 0.21479 0.10772
 C760 C 0.75474 0.14062 0.01784
 H761 H 0.79823 0.16271 0.05025
 H762 H 0.72621 0.17924 0.05194
 H763 H 0.71944 0.15251 0.02028
 H764 H 0.79202 0.13650 0.01851
 C765 C 0.50085 0.29218 0.57507
 C766 C 0.49209 0.31200 0.58536
 C767 C 0.48729 0.31225 0.60885
 C768 C 0.49044 0.29250 0.62180
 C769 C 0.47735 0.38270 0.53224
 C770 C 0.50398 0.27242 0.58795
 C771 C 0.48799 0.33194 0.57167
 C772 C 0.48450 0.34828 0.55970
 C773 C 0.48051 0.36702 0.54514
 C774 C 0.49764 0.27179 0.61138
 H775 H 0.50529 0.29199 0.55701
 H776 H 0.48097 0.32765 0.61714
 H777 H 0.48667 0.29318 0.63998
 H778 H 0.51158 0.25782 0.57939
 C779 C -0.01122 0.81161 0.10836
 C780 C -0.00594 0.81091 0.08498
 C781 C 0.00294 0.79088 0.07523
 C782 C 0.00578 0.77137 0.08856
 C783 C -0.02019 0.88112 0.03109
 C784 C -0.00837 0.79212 0.12175
 C785 C -0.00971 0.83061 0.07087
 C786 C -0.01300 0.84681 0.05867
 C787 C -0.01691 0.86545 0.04397
 C788 C -0.00098 0.77122 0.11188
 H789 H -0.01766 0.82718 0.11623
 H790 H 0.00771 0.79034 0.05726
 H791 H 0.01351 0.75659 0.08043
 H792 H -0.01246 0.79317 0.13985
 C793 C -0.00721 0.70239 0.08232
 C794 C 0.01113 0.68756 0.08656
 C795 C 0.02606 0.69207 0.10473
 C796 C 0.02316 0.71175 0.11812
 C797 C 0.02413 0.61750 0.03114
 C798 C -0.01015 0.72206 0.09567
 C799 C 0.01476 0.66791 0.07205
 C800 C 0.01781 0.65175 0.05950
 C801 C 0.02131 0.63314 0.04438
 C802 C 0.00567 0.72781 0.11309
 H803 H -0.01917 0.69885 0.06857
 H804 H 0.03997 0.68036 0.10856
 H805 H 0.03459 0.71406 0.13249
 H806 H -0.02457 0.73321 0.09205
 C807 C 0.49106 0.20359 0.58031
 C808 C 0.50947 0.18869 0.58401
 C809 C 0.52457 0.19281 0.60213
 C810 C 0.52178 0.21216 0.61601
 C811 C 0.52274 0.11899 0.52813
 C812 C 0.48823 0.22295 0.59415
 C813 C 0.51299 0.16932 0.56909
 C814 C 0.51606 0.15330 0.55636
 C815 C 0.51970 0.13473 0.54122
 C816 C 0.50423 0.22832 0.61152
 H817 H 0.47896 0.20034 0.56661
 H818 H 0.53853 0.18102 0.60556
 H819 H 0.53335 0.21413 0.63031
 H820 H 0.47376 0.23416 0.59094
 C821 C -0.02823 0.21040 0.41940
 C822 C -0.01732 0.18946 0.41538
 C823 C -0.00178 0.18721 0.39720
 C824 C 0.00347 0.20600 0.38359
 C825 C -0.03078 0.12101 0.47152
 C826 C -0.02303 0.22920 0.40583
 C827 C -0.02168 0.17045 0.43021
 C828 C -0.02494 0.15470 0.44296
 C829 C -0.02829 0.13645 0.45823
 C830 C -0.00616 0.22773 0.38841
 H831 H -0.04063 0.21226 0.43317
 H832 H 0.00633 0.17090 0.39355
 H833 H 0.01492 0.20323 0.36924
 H834 H -0.03181 0.24520 0.40927
 C835 C 0.50793 0.70126 0.91909
 C836 C 0.48951 0.68675 0.91476
 C837 C 0.47461 0.69142 0.89662
 C838 C 0.47756 0.71098 0.88340
 C839 C 0.47553 0.61755 0.96984
 C840 C 0.51092 0.72081 0.90591
 C841 C 0.48571 0.66731 0.92918
 C842 C 0.48242 0.65134 0.94164
 C843 C 0.47862 0.63298 0.95666
 C844 C 0.49507 0.72678 0.88859
 H845 H 0.51988 0.69757 0.93281
 H846 H 0.46065 0.67995 0.89270
 H847 H 0.46614 0.71339 0.86905
 H848 H 0.52537 0.73172 0.90961
 C849 C 0.51145 0.81050 0.89413
 C850 C 0.50657 0.80987 0.91759
 C851 C 0.49801 0.78993 0.92724
 C852 C 0.49512 0.77041 0.91373
 C853 C 0.52150 0.88086 0.97098
 C854 C 0.50856 0.79101 0.88057
 C855 C 0.51048 0.82960 0.93183
 C856 C 0.51394 0.84591 0.94399
 C857 C 0.51806 0.86482 0.95846
 C858 C 0.50153 0.77017 0.89030
 H859 H 0.51762 0.82601 0.88634
 H860 H 0.49353 0.78945 0.94528
 H861 H 0.48764 0.75569 0.92180
 H862 H 0.51238 0.79199 0.86242
 C863 C 0.01177 0.31117 0.39206
 C864 C 0.01662 0.30901 0.41540
 C865 C 0.01683 0.28744 0.42540
 C866 C 0.01148 0.26815 0.41235
 C867 C 0.02981 0.38019 0.46895
 C868 C 0.00645 0.29189 0.37894
 C869 C 0.02100 0.32888 0.42929
 C870 C 0.02422 0.34530 0.44137
 C871 C 0.02748 0.36425 0.45602
 C872 C 0.00499 0.27010 0.38907
 H873 H 0.01200 0.32775 0.38400
 H874 H 0.02116 0.28550 0.44335
 H875 H 0.01276 0.25178 0.42065
 H876 H 0.00298 0.29401 0.36084
 C877 C 0.28669 0.57112 0.48364
 C878 C 0.30868 0.58039 0.48413
 C879 C 0.31140 0.60369 0.48842
 C880 C 0.29225 0.61745 0.49312
 C881 C 0.37978 0.52560 0.47310
 C882 C 0.26753 0.58482 0.48836
 C883 C 0.32839 0.56584 0.48059
 C884 C 0.34471 0.55334 0.47801
 C885 C 0.36367 0.53843 0.47529
 C886 C 0.27002 0.60806 0.49451
 H887 H 0.28432 0.55322 0.47966
 H888 H 0.32832 0.61119 0.48834
 H889 H 0.29482 0.63546 0.49631
 H890 H 0.25086 0.57703 0.48696
 C891 C 0.79690 0.08760 -0.03287
 C892 C 0.80632 0.07576 -0.01438
 C893 C 0.79717 0.07891 0.00758
 C894 C 0.77908 0.09428 0.01114
 C895 C 0.87693 0.02053 -0.02646
 C896 C 0.77879 0.10300 -0.02936
 C897 C 0.82539 0.06038 -0.01791
 C898 C 0.84152 0.04767 -0.02071
 C899 C 0.86056 0.03296 -0.02386
 C900 C 0.77018 0.10746 -0.00705
 H901 H 0.80348 0.08483 -0.05007
 H902 H 0.80403 0.06950 0.02198
 H903 H 0.77218 0.09622 0.02831
 H904 H 0.77147 0.11105 -0.04429
 C905 C 0.70298 0.07880 -0.01129
 C906 C 0.69411 0.07616 0.01080
 C907 C 0.70346 0.08854 0.02903
 C908 C 0.72125 0.10391 0.02515
 C909 C 0.62506 0.02064 0.02490
 C910 C 0.72075 0.09414 -0.01523
 C911 C 0.67548 0.06068 0.01477
 C912 C 0.65973 0.04789 0.01804
 C913 C 0.64111 0.03310 0.02179
 C914 C 0.72962 0.10778 0.00272
 H915 H 0.69618 0.06898 -0.02550
 H916 H 0.69712 0.08619 0.04633
 H917 H 0.72858 0.11232 0.03993
 H918 H 0.72750 0.09560 -0.03247
 C919 C 0.20882 0.57961 0.52710
 C920 C 0.18819 0.58365 0.51563
 C921 C 0.18657 0.60165 0.50013
 C922 C 0.20576 0.61498 0.49536
 C923 C 0.11894 0.52790 0.52724
 C924 C 0.22801 0.59289 0.52237
 C925 C 0.16890 0.56894 0.51931
 C926 C 0.15297 0.55625 0.52205
 C927 C 0.13455 0.54106 0.52494
 C928 C 0.22727 0.61001 0.50542
 H929 H 0.21017 0.56599 0.53950
 H930 H 0.17047 0.60534 0.49162
 H931 H 0.20348 0.62916 0.48385
 H932 H 0.24380 0.58935 0.53148
 C933 C 0.21266 0.42837 -0.01676
 C934 C 0.19086 0.41868 -0.01641
 C935 C 0.18854 0.39541 -0.01209
 C936 C 0.20790 0.38207 -0.00729
 C937 C 0.11925 0.47243 -0.02808
 C938 C 0.23203 0.41510 -0.01194
 C939 C 0.17093 0.43280 -0.02015
 C940 C 0.15445 0.44501 -0.02291
 C941 C 0.13538 0.45967 -0.02580
 C942 C 0.22993 0.39190 -0.00582
 H943 H 0.21472 0.44626 -0.02074
 H944 H 0.17176 0.38758 -0.01226
 H945 H 0.20564 0.36406 -0.00410
 H946 H 0.24856 0.42320 -0.01326
 C947 C 0.71349 0.92886 0.48495
 C948 C 0.69152 0.91952 0.48519
 C949 C 0.68883 0.89624 0.48928
 C950 C 0.70797 0.88255 0.49397
 C951 C 0.62028 0.97373 0.47333
 C952 C 0.73263 0.91524 0.48965
 C953 C 0.67182 0.93396 0.48151
 C954 C 0.65547 0.94635 0.47875
 C955 C 0.63647 0.96108 0.47578
 C956 C 0.73016 0.89201 0.49555
 H957 H 0.71584 0.94674 0.48112
 H958 H 0.67193 0.88869 0.48901
 H959 H 0.70542 0.86455 0.49698
 H960 H 0.74929 0.92308 0.48840
 C961 C 0.81353 0.89871 0.50090
 C962 C 0.81185 0.91680 0.51655
 C963 C 0.79123 0.92080 0.52820
 C964 C 0.77209 0.90738 0.52350
 C965 C 0.88064 0.97316 0.52838
 C966 C 0.79439 0.88526 0.49615
 C967 C 0.83106 0.93165 0.52022
 C968 C 0.84688 0.94449 0.52298
 C969 C 0.86517 0.95985 0.52597
 C970 C 0.77288 0.89019 0.50640
 H971 H 0.82962 0.89506 0.49224
 H972 H 0.78984 0.93450 0.54070
 H973 H 0.75630 0.91091 0.53272
 H974 H 0.79672 0.87104 0.48450
 C975 C 0.31328 0.39971 -0.00043
 C976 C 0.31139 0.41787 0.01512
 C977 C 0.29068 0.42176 0.02665
 C978 C 0.27169 0.40814 0.02196
 C979 C 0.38044 0.47387 0.02752
 C980 C 0.29429 0.38606 -0.00517
 C981 C 0.33054 0.43279 0.01891
 C982 C 0.34638 0.44557 0.02179
 C983 C 0.36479 0.46078 0.02493
 C984 C 0.27270 0.39082 0.00499
 H985 H 0.32944 0.39614 -0.00898
 H986 H 0.28913 0.43549 0.03910
 H987 H 0.25584 0.41156 0.03112
 H988 H 0.29679 0.37178 -0.01672
 C989 C 0.60695 0.48798 0.31259
 C990 C 0.58362 0.48330 0.31002
 C991 C 0.57392 0.48299 0.28815
 C992 C 0.58723 0.48814 0.26897
 C993 C 0.52952 0.47064 0.38095
 C994 C 0.62032 0.49312 0.29342
 C995 C 0.56945 0.47919 0.32977
 C996 C 0.55717 0.47616 0.34609
 C997 C 0.54240 0.47303 0.36497
 C998 C 0.61046 0.49455 0.27133
 H999 H 0.61478 0.48780 0.32943
 H1000 H 0.55599 0.47876 0.28590
 H1001 H 0.57915 0.48682 0.25236
 H1002 H 0.63839 0.49652 0.29586
 C1003 C 0.07262 -0.01505 0.78730
 C1004 C 0.08231 -0.01501 0.80919
 C1005 C 0.10574 -0.01086 0.81178
 C1006 C 0.11924 -0.00598 0.79262
 C1007 C 0.02854 -0.02789 0.88039
 C1008 C 0.08606 -0.01016 0.76813
 C1009 C 0.06809 -0.01902 0.82893
 C1010 C 0.05585 -0.02204 0.84530
 C1011 C 0.04123 -0.02528 0.86429
 C1012 C 0.10945 -0.00431 0.77052
 H1013 H 0.05461 -0.01889 0.78503
 H1014 H 0.11356 -0.01126 0.82861
 H1015 H 0.13738 -0.00298 0.79508
 H1016 H 0.07797 -0.01126 0.75152
 C1017 C 0.08030 0.02907 0.70990
 C1018 C 0.08439 0.01799 0.68900
 C1019 C 0.10247 0.00231 0.68707
 C1020 C 0.11587 -0.00297 0.70618
 C1021 C 0.02863 0.03112 0.61949
 C1022 C 0.09367 0.02384 0.72903
 C1023 C 0.06967 0.02227 0.66969
 C1024 C 0.05700 0.02542 0.65371
 C1025 C 0.04183 0.02867 0.63518
 C1026 C 0.11091 0.00677 0.72792
 H1027 H 0.06662 0.04159 0.71151
 H1028 H 0.10618 -0.00592 0.67077
 H1029 H 0.13014 -0.01457 0.70367
 H1030 H 0.09015 0.03270 0.74502
 C1031 C 0.58034 0.52727 0.21092
 C1032 C 0.58446 0.51619 0.19003
 C1033 C 0.60282 0.50085 0.18800
 C1034 C 0.61648 0.49589 0.20702
 C1035 C 0.52826 0.52904 0.12081
 C1036 C 0.59397 0.52237 0.22995
 C1037 C 0.56954 0.52021 0.17083
 C1038 C 0.55672 0.52324 0.15493
 C1039 C 0.54145 0.52648 0.13649
 C1040 C 0.61153 0.50563 0.22875
 H1041 H 0.56644 0.53954 0.21260
 H1042 H 0.60655 0.49263 0.17170
 H1043 H 0.63095 0.48453 0.20444
 H1044 H 0.59040 0.53121 0.24594
 C1045 C 0.39810 -0.02411 0.19125
 C1046 C 0.41603 -0.00893 0.18734
 C1047 C 0.41941 0.00934 0.20241
 C1048 C 0.40548 0.01191 0.22178
 C1049 C 0.47254 -0.02180 0.11790
 C1050 C 0.38413 -0.02159 0.21064
 C1051 C 0.43117 -0.01224 0.16805
 C1052 C 0.44411 -0.01514 0.15212
 C1053 C 0.45943 -0.01868 0.13364
 C1054 C 0.38835 -0.00420 0.22700
 H1055 H 0.39492 -0.03797 0.17931
 H1056 H 0.43295 0.02150 0.19932
 H1057 H 0.40848 0.02624 0.23318
 H1058 H 0.37001 -0.03324 0.21251
 C1059 C 0.92663 0.48138 0.71190
 C1060 C 0.91700 0.48154 0.68999
 C1061 C 0.89359 0.48606 0.68737
 C1062 C 0.88005 0.49124 0.70653
 C1063 C 0.97146 0.46965 0.61888
 C1064 C 0.91315 0.48658 0.73108
 C1065 C 0.93133 0.47755 0.67023
 C1066 C 0.94370 0.47469 0.65386
 C1067 C 0.95853 0.47180 0.63491
 C1068 C 0.88980 0.49288 0.72866
 H1069 H 0.94464 0.47728 0.71417
 H1070 H 0.88584 0.48579 0.67050
 H1071 H 0.86194 0.49459 0.70405
 H1072 H 0.92118 0.48543 0.74771
 C1073 C 0.89659 0.50026 0.81215
 C1074 C 0.91482 0.51547 0.81031
 C1075 C 0.91907 0.52623 0.78945
 C1076 C 0.90571 0.52112 0.77027
 C1077 C 0.97036 0.52832 0.88006
 C1078 C 0.88319 0.49510 0.79297
 C1079 C 0.92952 0.51961 0.82965
 C1080 C 0.94217 0.52267 0.84568
 C1081 C 0.95728 0.52586 0.86428
 C1082 C 0.88831 0.50448 0.77129
 H1083 H 0.89276 0.49229 0.82841
 H1084 H 0.93287 0.53840 0.78792
 H1085 H 0.90936 0.52972 0.75432
 H1086 H 0.86881 0.48385 0.79540
 C1087 C 0.39160 0.01176 0.31147
 C1088 C 0.41510 0.00688 0.31108
 C1089 C 0.42525 -0.00166 0.29105
 C1090 C 0.41221 -0.00452 0.27121
 C1091 C 0.46861 0.02158 0.38203
 C1092 C 0.37849 0.00890 0.29163
 C1093 C 0.42897 0.01077 0.33109
 C1094 C 0.44107 0.01417 0.34747
 C1095 C 0.45573 0.01820 0.36625
 C1096 C 0.38877 0.00189 0.27071
 H1097 H 0.38343 0.01792 0.32705
 H1098 H 0.44333 -0.00612 0.29076
 H1099 H 0.42067 -0.01198 0.25642
 H1100 H 0.36030 0.01268 0.29241
   
