data_POSCAR
  _audit_creation_date              2014-09-24
  _audit_creation_method            'ToBaCCo'
  _symmetry_space_group_name_H-M    'P1'
  _symmetry_Int_Tables_number       1
  _symmetry_cell_setting            triclinic
  loop_
  _symmetry_equiv_pos_as_xyz
 x,y,z
_cell_length_a 47.8903
_cell_length_b 47.8168
_cell_length_c 43.8804
_cell_angle_alpha 90.022000
_cell_angle_beta 90.023000
_cell_angle_gamma 120.108800
loop_
  _atom_site_label
  _atom_site_type_symbol
  _atom_site_fract_x
  _atom_site_fract_y
  _atom_site_fract_z
O1 O 0.04028 0.49267 0.00776
 O2 O 0.00187 0.52789 -0.03916
 O3 O 0.04040 0.54699 0.00805
 O4 O 0.00172 0.47356 -0.03944
 O5 O -0.04054 0.45228 -0.00869
 O6 O -0.00187 0.52571 0.03880
 O7 O -0.04040 0.50660 -0.00840
 O8 O -0.00199 0.47139 0.03852
 Cu9 Cu 0.02533 0.51242 -0.01880
 Cu10 Cu -0.02547 0.48685 0.01816
 C11 C 0.02577 0.47638 0.03124
 C12 C -0.02589 0.52290 -0.03188
 C13 C 0.02594 0.54860 0.03162
 C14 C -0.02609 0.45067 -0.03227
 O15 O 0.54712 0.50629 -0.00852
 O16 O 0.47360 0.47128 0.03859
 O17 O 0.49289 0.45192 -0.00849
 O18 O 0.52783 0.52566 0.03854
 O19 O 0.50669 0.54667 0.00764
 O20 O 0.47176 0.47292 -0.03939
 O21 O 0.45247 0.49229 0.00769
 O22 O 0.52599 0.52730 -0.03942
 Cu23 Cu 0.51249 0.48667 0.01815
 Cu24 Cu 0.48709 0.51191 -0.01899
 C25 C 0.54882 0.52241 -0.03210
 C26 C 0.45077 0.47617 0.03127
 C27 C 0.47672 0.45012 -0.03206
 C28 C 0.52287 0.54847 0.03120
 O29 O 0.45225 0.96018 0.00811
 O30 O 0.52576 0.99871 -0.03902
 O31 O 0.50637 0.96008 0.00809
 O32 O 0.47163 0.99880 -0.03905
 O33 O 0.49289 1.04112 -0.00823
 O34 O 0.52763 1.00240 0.03892
 O35 O 0.54702 1.04103 -0.00819
 O36 O 0.47351 1.00251 0.03893
 Cu37 Cu 0.48685 0.97518 -0.01858
 Cu38 Cu 0.51240 1.02603 0.01847
 C39 C 0.45063 0.97469 0.03167
 C40 C 0.54865 1.02652 -0.03173
 C41 C 0.52258 0.97456 0.03164
 C42 C 0.47669 1.02665 -0.03179
 O43 O 0.96029 0.50773 0.50775
 O44 O 0.99874 0.47270 0.46062
 O45 O 0.96018 0.45342 0.50776
 O46 O 0.99888 0.52702 0.46062
 O47 O 1.04112 0.54819 0.49145
 O48 O 1.00244 0.47459 0.53859
 O49 O 1.04099 0.49387 0.49145
 O50 O 1.00254 0.52890 0.53858
 Cu51 Cu 0.97526 0.48809 0.48108
 Cu52 Cu 1.02604 0.51353 0.51813
 C53 C 0.97477 0.52393 0.53131
 C54 C 1.02650 0.47766 0.46791
 C55 C 0.97463 0.45173 0.53131
 C56 C 1.02669 0.54989 0.46789
 O57 O 0.52776 0.52577 0.46086
 O58 O 0.49289 0.45231 0.50822
 O59 O 0.47349 0.47144 0.46105
 O60 O 0.54717 0.50664 0.50801
 O61 O 0.52622 0.52789 0.53881
 O62 O 0.45253 0.49270 0.49185
 O63 O 0.47193 0.47357 0.53902
 O64 O 0.50680 0.54702 0.49167
 Cu65 Cu 0.51244 0.48689 0.48143
 Cu66 Cu 0.48725 0.51244 0.51845
 C67 C 0.52288 0.54865 0.46810
 C68 C 0.47682 0.45069 0.53179
 C69 C 0.45073 0.47643 0.46833
 C70 C 0.54899 0.52292 0.53151
 O71 O 0.50630 -0.04068 0.49174
 O72 O 0.47123 -0.00232 0.53894
 O73 O 0.45202 -0.04090 0.49170
 O74 O 0.52553 -0.00208 0.53893
 O75 O 0.54660 0.04026 0.50818
 O76 O 0.47309 0.00145 0.46096
 O77 O 0.49231 0.04002 0.50819
 O78 O 0.52737 0.00166 0.46099
 Cu79 Cu 0.48664 -0.02577 0.51843
 Cu80 Cu 0.51196 0.02512 0.48148
 C81 C 0.52246 -0.02613 0.46822
 C82 C 0.47615 0.02548 0.53172
 C83 C 0.45029 -0.02643 0.46817
 C84 C 0.54833 0.02578 0.53171
 C85 C 0.30181 0.43071 0.23410
 C86 C 0.30180 0.43075 0.26537
 C87 C 0.27090 0.42268 0.27439
 N88 N 0.25199 0.41732 0.24968
 C89 C 0.27090 0.42261 0.22502
 C90 C 0.26044 0.41932 0.30495
 C91 C 0.22982 0.41406 0.31386
 C92 C 0.21718 0.40565 0.34304
 C93 C 0.18849 0.40576 0.34302
 C94 C 0.18437 0.41423 0.31381
 N95 N 0.20970 0.41930 0.29627
 C96 C 0.15914 0.41967 0.30485
 C97 C 0.15210 0.42301 0.27426
 C98 C 0.12937 0.43119 0.26515
 C99 C 0.12933 0.43107 0.23388
 C100 C 0.15204 0.42283 0.22489
 N101 N 0.16559 0.41752 0.24961
 C102 C 0.15902 0.41927 0.19433
 C103 C 0.18428 0.41385 0.18544
 C104 C 0.18838 0.40527 0.15628
 C105 C 0.21711 0.40525 0.15630
 C106 C 0.22979 0.41381 0.18548
 N107 N 0.20965 0.41906 0.20302
 C108 C 0.26044 0.41916 0.19443
 H109 H 0.32224 0.43602 0.21971
 H110 H 0.32224 0.43609 0.27979
 H111 H 0.21502 0.42980 0.22436
 H112 H 0.22782 0.40057 0.36250
 H113 H 0.17276 0.40077 0.36245
 H114 H 0.11435 0.43665 0.27952
 H115 H 0.11428 0.43643 0.21944
 H116 H 0.22776 0.40011 0.13689
 H117 H 0.21506 0.42994 0.27490
 H118 H 0.17262 0.40016 0.13684
 C119 C 0.56828 0.69777 0.26510
 C120 C 0.56828 0.69780 0.23383
 C121 C 0.57638 0.72878 0.22483
 N122 N 0.58172 0.74769 0.24955
 C123 C 0.57638 0.72872 0.27420
 C124 C 0.57979 0.73929 0.19427
 C125 C 0.58509 0.76998 0.18538
 C126 C 0.59355 0.78267 0.15621
 C127 C 0.59350 0.81143 0.15625
 C128 C 0.58501 0.81554 0.18545
 N129 N 0.57988 0.79014 0.20298
 C130 C 0.57963 0.84083 0.19442
 C131 C 0.57623 0.84785 0.22501
 C132 C 0.56808 0.87063 0.23411
 C133 C 0.56812 0.87061 0.26538
 C134 C 0.57629 0.84782 0.27438
 N135 N 0.58163 0.83428 0.24967
 C136 C 0.57976 0.84077 0.30494
 C137 C 0.58513 0.81546 0.31383
 C138 C 0.59365 0.81131 0.34300
 C139 C 0.59366 0.78252 0.34296
 C140 C 0.58515 0.76986 0.31376
 N141 N 0.57994 0.79006 0.29623
 C142 C 0.57980 0.73917 0.30479
 H143 H 0.56294 0.67728 0.27947
 H144 H 0.56294 0.67735 0.21940
 H145 H 0.56926 0.78471 0.27488
 H146 H 0.59863 0.77201 0.13676
 H147 H 0.59853 0.82721 0.13684
 H148 H 0.56269 0.88571 0.21974
 H149 H 0.56276 0.88568 0.27982
 H150 H 0.59875 0.77183 0.36237
 H151 H 0.56924 0.78475 0.22434
 H152 H 0.59873 0.82707 0.36245
 C153 C 0.30242 0.87092 0.26621
 C154 C 0.30233 0.87094 0.23493
 C155 C 0.27137 0.84807 0.22591
 N156 N 0.25250 0.83443 0.25062
 C157 C 0.27150 0.84803 0.27529
 C158 C 0.26082 0.84102 0.19535
 C159 C 0.23013 0.81561 0.18644
 C160 C 0.21742 0.81143 0.15728
 C161 C 0.18867 0.78256 0.15727
 C162 C 0.18458 0.76988 0.18643
 N163 N 0.20999 0.79015 0.20399
 C164 C 0.15930 0.73912 0.19534
 C165 C 0.15229 0.72864 0.22592
 C166 C 0.12949 0.69764 0.23496
 C167 C 0.12953 0.69766 0.26623
 C168 C 0.15235 0.72866 0.27529
 N169 N 0.16590 0.74762 0.25060
 C170 C 0.15943 0.73917 0.30586
 C171 C 0.18480 0.76990 0.31480
 C172 C 0.18902 0.78256 0.34400
 C173 C 0.21783 0.81138 0.34400
 C174 C 0.23043 0.81556 0.31481
 N175 N 0.21017 0.79014 0.29723
 C176 C 0.26110 0.84093 0.30587
 H177 H 0.32291 0.88604 0.28059
 H178 H 0.32275 0.88610 0.22051
 H179 H 0.21546 0.78481 0.27586
 H180 H 0.22806 0.82724 0.13785
 H181 H 0.17287 0.77183 0.13784
 H182 H 0.11438 0.67714 0.22056
 H183 H 0.11444 0.67717 0.28064
 H184 H 0.22857 0.82716 0.36345
 H185 H 0.21537 0.78482 0.22532
 H186 H 0.17329 0.77184 0.36344
 C187 C 0.87106 0.56900 0.76544
 C188 C 0.87111 0.56905 0.73417
 C189 C 0.84831 0.57715 0.72510
 N190 N 0.83469 0.58243 0.74978
 C191 C 0.84824 0.57706 0.77448
 C192 C 0.84130 0.58061 0.69453
 C193 C 0.81599 0.58593 0.68559
 C194 C 0.81187 0.59447 0.65642
 C195 C 0.78310 0.59442 0.65640
 C196 C 0.77041 0.58584 0.68556
 N197 N 0.79059 0.58066 0.70312
 C198 C 0.73972 0.58039 0.69445
 C199 C 0.72920 0.57687 0.72501
 C200 C 0.69824 0.56862 0.73401
 C201 C 0.69818 0.56854 0.76528
 C202 C 0.72911 0.57674 0.77438
 N203 N 0.74809 0.58221 0.74973
 C204 C 0.73952 0.58011 0.80497
 C205 C 0.77020 0.58553 0.81394
 C206 C 0.78280 0.59400 0.84315
 C207 C 0.81159 0.59409 0.84317
 C208 C 0.81580 0.58568 0.81397
 N209 N 0.79043 0.58045 0.79638
 C210 C 0.84114 0.58041 0.80505
 H211 H 0.88614 0.56365 0.77985
 H212 H 0.88622 0.56375 0.71977
 H213 H 0.78514 0.56981 0.77499
 H214 H 0.82765 0.59961 0.63701
 H215 H 0.77243 0.59951 0.63697
 H216 H 0.67781 0.56325 0.71957
 H217 H 0.67770 0.56309 0.77965
 H218 H 0.82733 0.59917 0.86262
 H219 H 0.78522 0.56993 0.72445
 H220 H 0.77208 0.59900 0.86258
 C221 C 0.43141 0.12902 0.76634
 C222 C 0.43129 0.12896 0.73507
 C223 C 0.42315 0.15176 0.72605
 N224 N 0.41791 0.16539 0.75075
 C225 C 0.42334 0.15186 0.77542
 C226 C 0.41964 0.15876 0.69549
 C227 C 0.41430 0.18409 0.68658
 C228 C 0.40573 0.18820 0.65741
 C229 C 0.40580 0.21702 0.65741
 C230 C 0.41440 0.22975 0.68657
 N231 N 0.41959 0.20955 0.70413
 C232 C 0.41985 0.26049 0.69549
 C233 C 0.42334 0.27101 0.72606
 C234 C 0.43152 0.30200 0.73511
 C235 C 0.43157 0.30202 0.76638
 C236 C 0.42342 0.27105 0.77543
 N237 N 0.41801 0.25208 0.75075
 C238 C 0.42004 0.26060 0.80601
 C239 C 0.41471 0.22991 0.81494
 C240 C 0.40629 0.21728 0.84414
 C241 C 0.40630 0.18850 0.84414
 C242 C 0.41471 0.18431 0.81495
 N243 N 0.41985 0.20968 0.79737
 C244 C 0.42004 0.15897 0.80601
 H245 H 0.43680 0.11394 0.78073
 H246 H 0.43657 0.11382 0.72065
 H247 H 0.43046 0.21501 0.77600
 H248 H 0.40057 0.17238 0.63799
 H249 H 0.40070 0.22769 0.63799
 H250 H 0.43688 0.32246 0.72071
 H251 H 0.43697 0.32252 0.78078
 H252 H 0.40128 0.17275 0.86359
 H253 H 0.43033 0.21493 0.72546
 H254 H 0.40127 0.22800 0.86358
 C255 C 0.69782 0.13000 0.76567
 C256 C 0.69777 0.12995 0.73440
 C257 C 0.72873 0.15274 0.72533
 N258 N 0.74771 0.16635 0.75000
 C259 C 0.72880 0.15281 0.77470
 C260 C 0.73917 0.15974 0.69475
 C261 C 0.76988 0.18504 0.68581
 C262 C 0.78250 0.18913 0.65663
 C263 C 0.81134 0.21791 0.65661
 C264 C 0.81557 0.23063 0.68579
 N265 N 0.79017 0.21047 0.70336
 C266 C 0.84099 0.26134 0.69470
 C267 C 0.84810 0.27188 0.72526
 C268 C 0.87099 0.30288 0.73428
 C269 C 0.87102 0.30294 0.76555
 C270 C 0.84814 0.27198 0.77463
 N271 N 0.83449 0.25298 0.74997
 C272 C 0.84109 0.26156 0.80522
 C273 C 0.81570 0.23086 0.81416
 C274 C 0.81153 0.21823 0.84335
 C275 C 0.78271 0.18943 0.84337
 C276 C 0.77004 0.18525 0.81418
 N277 N 0.79028 0.21063 0.79661
 C278 C 0.73932 0.15990 0.80527
 H279 H 0.67736 0.11492 0.78009
 H280 H 0.67728 0.11484 0.72001
 H281 H 0.78495 0.21595 0.77525
 H282 H 0.77174 0.17333 0.63720
 H283 H 0.82710 0.22856 0.63717
 H284 H 0.88613 0.32332 0.71986
 H285 H 0.88618 0.32344 0.77994
 H286 H 0.77200 0.17368 0.86281
 H287 H 0.78490 0.21587 0.72471
 H288 H 0.82732 0.22895 0.86278
 C289 C 0.08256 0.40921 0.10469
 C290 C 0.05760 0.41965 0.11288
 C291 C 0.07314 0.44678 0.08908
 C292 C 0.09780 0.43650 0.08050
 C293 C 0.10563 0.43293 0.12872
 C294 C 0.12113 0.46006 0.10492
 C295 C 0.08097 0.44322 0.13725
 C296 C 0.09623 0.47043 0.11316
 C297 C 0.05556 0.45581 0.06762
 C298 C 0.04165 0.46452 0.05063
 C299 C 0.12415 0.42651 0.15139
 C300 C 0.13978 0.42254 0.17063
 H301 H 0.07718 0.38395 0.10148
 H302 H 0.03127 0.40313 0.11590
 H303 H 0.10451 0.43383 0.05691
 H304 H 0.14745 0.47660 0.10189
 H305 H 0.07426 0.44591 0.16084
 H306 H 0.10167 0.49570 0.11644
 C307 C 0.53795 0.65916 0.10594
 C308 C 0.56086 0.66016 0.08050
 C309 C 0.55231 0.62561 0.08905
 C310 C 0.52930 0.62426 0.11415
 C311 C 0.56612 0.67207 0.12868
 C312 C 0.55756 0.63750 0.13718
 C313 C 0.58921 0.67352 0.10362
 C314 C 0.58049 0.63848 0.11178
 C315 C 0.54332 0.59894 0.06760
 C316 C 0.53465 0.57626 0.05061
 C317 C 0.57254 0.69707 0.15134
 C318 C 0.57651 0.71673 0.17057
 H319 H 0.52053 0.66794 0.10378
 H320 H 0.56212 0.66918 0.05695
 H321 H 0.50457 0.60374 0.11828
 H322 H 0.55627 0.62847 0.16074
 H323 H 0.61392 0.69408 0.09957
 H324 H 0.59789 0.62968 0.11393
 C325 C 0.33937 0.87913 0.10589
 C326 C 0.33893 0.90222 0.08138
 C327 C 0.37391 0.92719 0.08981
 C328 C 0.37468 0.90434 0.11398
 C329 C 0.32774 0.89463 0.12964
 C330 C 0.36273 0.91960 0.13803
 C331 C 0.32687 0.91745 0.10552
 C332 C 0.36231 0.94273 0.11356
 C333 C 0.40041 0.94481 0.06824
 C334 C 0.42296 0.95876 0.05116
 C335 C 0.30289 0.87606 0.15239
 C336 C 0.28332 0.86036 0.17166
 H337 H 0.32967 0.85278 0.10298
 H338 H 0.32945 0.89529 0.05783
 H339 H 0.39461 0.89913 0.11726
 H340 H 0.37223 0.92653 0.16158
 H341 H 0.30689 0.92260 0.10232
 H342 H 0.37204 0.96908 0.11647
 C343 C 0.91949 0.55679 0.63748
 C344 C 0.90426 0.52961 0.61332
 C345 C 0.92733 0.55330 0.58930
 C346 C 0.94284 0.58041 0.61316
 C347 C 0.89480 0.56705 0.62897
 C348 C 0.91784 0.59082 0.60499
 C349 C 0.87932 0.53995 0.60510
 C350 C 0.90264 0.56355 0.58074
 C351 C 0.94494 0.54435 0.56781
 C352 C 0.95888 0.53570 0.55077
 C353 C 0.87625 0.57342 0.65164
 C354 C 0.86058 0.57736 0.67086
 H355 H 0.92621 0.55408 0.66106
 H356 H 0.89885 0.50434 0.61654
 H357 H 0.96917 0.59695 0.61623
 H358 H 0.92319 0.61606 0.60184
 H359 H 0.85300 0.52338 0.60203
 H360 H 0.89592 0.56623 0.55716
 C361 C 0.44491 0.36292 0.63821
 C362 C 0.47138 0.37411 0.61348
 C363 C 0.44745 0.37390 0.59001
 C364 C 0.42106 0.36306 0.61445
 C365 C 0.43361 0.32762 0.62982
 C366 C 0.40960 0.32731 0.60639
 C367 C 0.46000 0.33849 0.60537
 C368 C 0.43616 0.33861 0.58156
 C369 C 0.45643 0.40045 0.56844
 C370 C 0.46508 0.42302 0.55134
 C371 C 0.42718 0.30270 0.65255
 C372 C 0.42317 0.28306 0.67180
 H373 H 0.44844 0.37263 0.66176
 H374 H 0.49688 0.39363 0.61618
 H375 H 0.40514 0.37347 0.61794
 H376 H 0.38412 0.30775 0.60376
 H377 H 0.47593 0.32811 0.60188
 H378 H 0.43265 0.32892 0.55801
 C379 C 0.65975 0.12156 0.60584
 C380 C 0.66015 0.09868 0.58105
 C381 C 0.62532 0.07348 0.58965
 C382 C 0.62458 0.09612 0.61410
 C383 C 0.67179 0.10613 0.62926
 C384 C 0.63696 0.08093 0.63781
 C385 C 0.67263 0.08352 0.60485
 C386 C 0.63734 0.05801 0.61307
 C387 C 0.59868 0.05580 0.56819
 C388 C 0.57604 0.04179 0.55117
 C389 C 0.69683 0.12473 0.65189
 C390 C 0.71653 0.14043 0.67109
 H391 H 0.66924 0.14789 0.60311
 H392 H 0.66938 0.10577 0.55746
 H393 H 0.60456 0.10112 0.61770
 H394 H 0.62770 0.07385 0.66140
 H395 H 0.69271 0.07858 0.60132
 H396 H 0.62782 0.03167 0.61579
 C397 C 0.44433 0.08102 0.86309
 C398 C 0.47149 0.09638 0.88721
 C399 C 0.44792 0.07326 0.91127
 C400 C 0.42082 0.05762 0.88744
 C401 C 0.43398 0.10568 0.87158
 C402 C 0.41033 0.08258 0.89560
 C403 C 0.46107 0.12128 0.89542
 C404 C 0.43758 0.09791 0.91982
 C405 C 0.45695 0.05570 0.93276
 C406 C 0.46564 0.04177 0.94977
 C407 C 0.42749 0.12415 0.84890
 C408 C 0.42343 0.13976 0.82968
 H409 H 0.44703 0.07428 0.83951
 H410 H 0.49674 0.10188 0.88397
 H411 H 0.40437 0.03124 0.88441
 H412 H 0.38509 0.07714 0.89877
 H413 H 0.47754 0.14766 0.89845
 H414 H 0.43490 0.10465 0.94340
 C415 C 0.66055 0.53886 0.89419
 C416 C 0.66075 0.56234 0.91865
 C417 C 0.62578 0.55202 0.91003
 C418 C 0.62525 0.52845 0.88591
 C419 C 0.67221 0.56604 0.87044
 C420 C 0.63724 0.55571 0.86187
 C421 C 0.67285 0.58968 0.89452
 C422 C 0.63741 0.57921 0.88628
 C423 C 0.59916 0.54295 0.93147
 C424 C 0.57653 0.53423 0.94847
 C425 C 0.69722 0.57258 0.84781
 C426 C 0.71691 0.57667 0.82862
 H427 H 0.67034 0.52234 0.89719
 H428 H 0.67011 0.56496 0.94225
 H429 H 0.60541 0.50317 0.88257
 H430 H 0.62785 0.55306 0.83827
 H431 H 0.69273 0.61495 0.89778
 H432 H 0.62760 0.59570 0.88328
 C433 C 0.91755 0.32814 0.89493
 C434 C 0.94271 0.36363 0.88682
 C435 C 0.92722 0.37528 0.91056
 C436 C 0.90237 0.34026 0.91906
 C437 C 0.89466 0.32888 0.87081
 C438 C 0.87921 0.34056 0.89456
 C439 C 0.91952 0.36391 0.86236
 C440 C 0.90431 0.37591 0.88641
 C441 C 0.94484 0.40189 0.93210
 C442 C 0.95879 0.42451 0.94919
 C443 C 0.87609 0.30388 0.84811
 C444 C 0.86040 0.28419 0.82888
 H445 H 0.92276 0.30818 0.89816
 H446 H 0.96903 0.37341 0.88388
 H447 H 0.89553 0.33084 0.94263
 H448 H 0.85290 0.33080 0.89751
 H449 H 0.92635 0.37335 0.83880
 H450 H 0.89904 0.39583 0.88311
 C451 C 0.58961 0.91716 0.39468
 C452 C 0.57922 0.94220 0.38651
 C453 C 0.55206 0.92658 0.41024
 C454 C 0.56229 0.90185 0.41879
 C455 C 0.56598 0.89414 0.37057
 C456 C 0.53883 0.87856 0.39430
 C457 C 0.55574 0.91887 0.36206
 C458 C 0.52851 0.90354 0.38608
 C459 C 0.54302 0.94414 0.43173
 C460 C 0.53430 0.95802 0.44876
 C461 C 0.57244 0.87564 0.34789
 C462 C 0.57645 0.86001 0.32865
 H463 H 0.61481 0.92253 0.39793
 H464 H 0.59573 0.96858 0.38356
 H465 H 0.56488 0.89506 0.44238
 H466 H 0.52229 0.85219 0.39726
 H467 H 0.55313 0.92566 0.33848
 H468 H 0.50329 0.89811 0.38275
 C469 C 0.32341 0.41359 0.39979
 C470 C 0.35579 0.41486 0.39273
 C471 C 0.37379 0.44688 0.41037
 C472 C 0.34189 0.44575 0.41780
 C473 C 0.32750 0.43304 0.37062
 C474 C 0.34554 0.46503 0.38828
 C475 C 0.35941 0.43418 0.36321
 C476 C 0.37777 0.46627 0.38117
 C477 C 0.40037 0.45589 0.43188
 C478 C 0.42299 0.46459 0.44891
 C479 C 0.30258 0.42661 0.34791
 C480 C 0.28297 0.42262 0.32865
 H481 H 0.30074 0.39184 0.40716
 H482 H 0.36030 0.39433 0.39482
 H483 H 0.33499 0.45061 0.44050
 H484 H 0.34107 0.48560 0.38621
 H485 H 0.36632 0.42935 0.34050
 H486 H 0.40039 0.48803 0.37372
 C487 C 0.08129 0.63682 0.36286
 C488 C 0.09651 0.62496 0.38703
 C489 C 0.07339 0.62544 0.41102
 C490 C 0.05789 0.63694 0.38714
 C491 C 0.10595 0.67189 0.37140
 C492 C 0.08286 0.67248 0.39535
 C493 C 0.12141 0.66036 0.39529
 C494 C 0.09804 0.66051 0.41962
 C495 C 0.05576 0.59879 0.43248
 C496 C 0.04181 0.57611 0.44947
 C497 C 0.12451 0.69690 0.34875
 C498 C 0.14017 0.71657 0.32953
 H499 H 0.07462 0.62736 0.33927
 H500 H 0.10195 0.60515 0.38382
 H501 H 0.03157 0.62701 0.38404
 H502 H 0.07748 0.69234 0.39849
 H503 H 0.14773 0.67027 0.39839
 H504 H 0.10472 0.66995 0.44321
 C505 C 0.87888 0.53919 0.89420
 C506 C 0.90400 0.52910 0.88597
 C507 C 0.92682 0.55259 0.91028
 C508 C 0.90195 0.56259 0.91886
 C509 C 0.89443 0.56656 0.87064
 C510 C 0.91722 0.59013 0.89491
 C511 C 0.91931 0.55656 0.86211
 C512 C 0.94241 0.57997 0.88673
 C513 C 0.94436 0.54352 0.93174
 C514 C 0.95824 0.53477 0.94873
 C515 C 0.87596 0.57305 0.84797
 C516 C 0.86035 0.57708 0.82874
 H517 H 0.85255 0.52250 0.89702
 H518 H 0.89873 0.50391 0.88249
 H519 H 0.89502 0.56497 0.94244
 H520 H 0.92243 0.61530 0.89831
 H521 H 0.92623 0.55415 0.83853
 H522 H 0.96874 0.59664 0.88391
 C523 C 0.41053 0.32692 0.89608
 C524 C 0.43835 0.33963 0.91974
 C525 C 0.44782 0.37444 0.91115
 C526 C 0.42016 0.36220 0.88788
 C527 C 0.43389 0.32793 0.87154
 C528 C 0.44337 0.36275 0.86300
 C529 C 0.46154 0.34020 0.89482
 C530 C 0.47110 0.37534 0.88657
 C531 C 0.45687 0.40113 0.93258
 C532 C 0.46561 0.42384 0.94955
 C533 C 0.42742 0.30290 0.84889
 C534 C 0.42339 0.28321 0.82968
 H535 H 0.38554 0.30669 0.89971
 H536 H 0.43637 0.33044 0.94333
 H537 H 0.40325 0.37154 0.88527
 H538 H 0.44537 0.37197 0.83942
 H539 H 0.47848 0.33088 0.89743
 H540 H 0.49611 0.39552 0.88286
 C541 C 0.63707 0.08177 0.86224
 C542 C 0.63715 0.05838 0.88660
 C543 C 0.62564 0.07396 0.91039
 C544 C 0.62520 0.09706 0.88633
 C545 C 0.67208 0.10648 0.87080
 C546 C 0.66054 0.12201 0.89460
 C547 C 0.67263 0.08340 0.89483
 C548 C 0.66064 0.09866 0.91901
 C549 C 0.59901 0.05636 0.93184
 C550 C 0.57637 0.04242 0.94884
 C551 C 0.69708 0.12501 0.84816
 C552 C 0.71674 0.14066 0.82895
 H553 H 0.62766 0.07504 0.83864
 H554 H 0.62724 0.03201 0.88356
 H555 H 0.60542 0.10251 0.88304
 H556 H 0.67043 0.14838 0.89764
 H557 H 0.69245 0.07802 0.89804
 H558 H 0.67003 0.10540 0.94261
 C559 C 0.08311 0.41031 0.39453
 C560 C 0.09846 0.43778 0.41857
 C561 C 0.07373 0.44797 0.40998
 C562 C 0.05807 0.42066 0.38633
 C563 C 0.10603 0.43387 0.37035
 C564 C 0.08130 0.44407 0.36181
 C565 C 0.12164 0.46117 0.39401
 C566 C 0.09667 0.47145 0.38577
 C567 C 0.05623 0.45708 0.43145
 C568 C 0.04236 0.46582 0.44846
 C569 C 0.12444 0.42728 0.34770
 C570 C 0.13999 0.42315 0.32850
 H571 H 0.07777 0.38509 0.39785
 H572 H 0.10531 0.43529 0.44216
 H573 H 0.03173 0.40410 0.38341
 H574 H 0.07445 0.44658 0.33823
 H575 H 0.14798 0.47775 0.39693
 H576 H 0.10207 0.49669 0.38237
 C577 C 0.58961 0.67286 0.39465
 C578 C 0.56205 0.66044 0.41854
 C579 C 0.55225 0.62553 0.40999
 C580 C 0.57965 0.63748 0.38649
 C581 C 0.56607 0.67191 0.37031
 C582 C 0.55627 0.63699 0.36182
 C583 C 0.53869 0.65992 0.39382
 C584 C 0.52880 0.62468 0.38562
 C585 C 0.54328 0.59893 0.43151
 C586 C 0.53463 0.57633 0.44857
 C587 C 0.57250 0.69689 0.34765
 C588 C 0.57649 0.71656 0.32844
 H589 H 0.61470 0.69299 0.39809
 H590 H 0.56434 0.66978 0.44211
 H591 H 0.59640 0.62796 0.38373
 H592 H 0.55396 0.62763 0.33824
 H593 H 0.52192 0.66942 0.39659
 H594 H 0.50369 0.60459 0.38211
 C595 C 0.36347 0.91903 0.36299
 C596 C 0.36339 0.94246 0.38733
 C597 C 0.37484 0.92686 0.41117
 C598 C 0.37527 0.90372 0.38712
 C599 C 0.32843 0.89437 0.37147
 C600 C 0.33991 0.87881 0.39531
 C601 C 0.32790 0.91749 0.39548
 C602 C 0.33981 0.90220 0.41971
 C603 C 0.40146 0.94446 0.43268
 C604 C 0.42410 0.95842 0.44971
 C605 C 0.30343 0.87584 0.34878
 C606 C 0.28374 0.86020 0.32955
 H607 H 0.37291 0.92574 0.33941
 H608 H 0.37335 0.96883 0.38430
 H609 H 0.39502 0.89823 0.38389
 H610 H 0.32997 0.85244 0.39835
 H611 H 0.30810 0.92291 0.39864
 H612 H 0.33039 0.89549 0.44328
 C613 C 0.55534 0.91888 0.13763
 C614 C 0.57892 0.94249 0.11343
 C615 C 0.55194 0.92695 0.08948
 C616 C 0.52829 0.90363 0.11338
 C617 C 0.56581 0.89435 0.12901
 C618 C 0.53884 0.87886 0.10505
 C619 C 0.58954 0.91765 0.10515
 C620 C 0.56241 0.90243 0.08081
 C621 C 0.54296 0.94461 0.06806
 C622 C 0.53431 0.95859 0.05107
 C623 C 0.57226 0.87577 0.15161
 C624 C 0.57628 0.86010 0.17078
 H625 H 0.55250 0.92544 0.16124
 H626 H 0.59531 0.96885 0.11663
 H627 H 0.50300 0.89805 0.11656
 H628 H 0.52243 0.85249 0.10185
 H629 H 0.61481 0.92317 0.10205
 H630 H 0.56522 0.89587 0.05720
 C631 C 0.36283 0.44439 0.13739
 C632 C 0.36314 0.42043 0.11382
 C633 C 0.37389 0.44671 0.08923
 C634 C 0.37393 0.47075 0.11251
 C635 C 0.32756 0.43287 0.12889
 C636 C 0.33834 0.45914 0.10430
 C637 C 0.32742 0.40875 0.10565
 C638 C 0.33864 0.43519 0.08067
 C639 C 0.40047 0.45571 0.06775
 C640 C 0.42307 0.46438 0.05072
 C641 C 0.30262 0.42644 0.15156
 C642 C 0.28299 0.42245 0.17077
 H643 H 0.37249 0.44811 0.16096
 H644 H 0.37364 0.40461 0.11749
 H645 H 0.39333 0.49634 0.11513
 H646 H 0.32787 0.47498 0.10063
 H647 H 0.30798 0.38318 0.10311
 H648 H 0.32900 0.43150 0.05710
 C649 C 0.08300 0.67255 0.10555
 C650 C 0.09824 0.66049 0.08142
 C651 C 0.07341 0.62545 0.08988
 C652 C 0.05786 0.63704 0.11362
 C653 C 0.10588 0.67182 0.12968
 C654 C 0.08105 0.63677 0.13809
 C655 C 0.12139 0.66019 0.10593
 C656 C 0.09631 0.62482 0.11405
 C657 C 0.05582 0.59887 0.06830
 C658 C 0.04188 0.57627 0.05119
 C659 C 0.12439 0.69680 0.15241
 C660 C 0.14003 0.71648 0.17166
 H661 H 0.07777 0.69249 0.10233
 H662 H 0.10510 0.66994 0.05786
 H663 H 0.03154 0.62723 0.11653
 H664 H 0.07419 0.62730 0.16164
 H665 H 0.14770 0.66999 0.10302
 H666 H 0.10161 0.60492 0.11734
 C667 C 0.41088 0.08545 0.60335
 C668 C 0.44048 0.10038 0.58170
 C669 C 0.44680 0.07281 0.58991
 C670 C 0.41736 0.05755 0.61118
 C671 C 0.43310 0.10527 0.62976
 C672 C 0.43943 0.07769 0.63793
 C673 C 0.46253 0.12047 0.60849
 C674 C 0.46895 0.09266 0.61636
 C675 C 0.45573 0.05524 0.56833
 C676 C 0.46438 0.04134 0.55123
 C677 C 0.42676 0.12379 0.65252
 C678 C 0.42285 0.13945 0.67179
 H679 H 0.38693 0.08272 0.59829
 H680 H 0.44100 0.10950 0.55833
 H681 H 0.39888 0.03148 0.61202
 H682 H 0.43894 0.06858 0.66131
 H683 H 0.48104 0.14654 0.60762
 H684 H 0.49292 0.09545 0.62150
 C685 C 0.66079 0.53937 0.60514
 C686 C 0.62552 0.52905 0.61342
 C687 C 0.62609 0.55262 0.58930
 C688 C 0.66102 0.56284 0.58068
 C689 C 0.67254 0.56658 0.62889
 C690 C 0.67321 0.59023 0.60482
 C691 C 0.63760 0.55635 0.63746
 C692 C 0.63780 0.57984 0.61305
 C693 C 0.59943 0.54355 0.56787
 C694 C 0.57676 0.53480 0.55090
 C695 C 0.69753 0.57306 0.65153
 C696 C 0.71718 0.57708 0.67076
 H697 H 0.67052 0.52280 0.60214
 H698 H 0.60564 0.50380 0.61676
 H699 H 0.67034 0.56542 0.55708
 H700 H 0.69313 0.61546 0.60156
 H701 H 0.62825 0.55375 0.66106
 H702 H 0.62805 0.59639 0.61605
 C703 C 0.87906 0.34005 0.60522
 C704 C 0.90410 0.37543 0.61340
 C705 C 0.92707 0.37479 0.58933
 C706 C 0.90228 0.33975 0.58081
 C707 C 0.89451 0.32846 0.62906
 C708 C 0.91746 0.32772 0.60503
 C709 C 0.91931 0.36351 0.63752
 C710 C 0.94256 0.36323 0.61316
 C711 C 0.94470 0.40139 0.56782
 C712 C 0.95867 0.42401 0.55077
 C713 C 0.87595 0.30351 0.65176
 C714 C 0.86028 0.28389 0.67100
 H715 H 0.85274 0.33024 0.60221
 H716 H 0.89878 0.39532 0.61663
 H717 H 0.89549 0.33028 0.55724
 H718 H 0.92272 0.30778 0.60187
 H719 H 0.92610 0.37300 0.66109
 H720 H 0.96888 0.37307 0.61617
   
