data_POSCAR
  _audit_creation_date              2014-09-24
  _audit_creation_method            'ToBaCCo'
  _symmetry_space_group_name_H-M    'P1'
  _symmetry_Int_Tables_number       1
  _symmetry_cell_setting            triclinic
  loop_
  _symmetry_equiv_pos_as_xyz
 x,y,z
_cell_length_a 34.8859
_cell_length_b 34.8761
_cell_length_c 29.2571
_cell_angle_alpha 89.981700
_cell_angle_beta 90.030400
_cell_angle_gamma 89.949400
loop_
  _atom_site_label
  _atom_site_type_symbol
  _atom_site_fract_x
  _atom_site_fract_y
  _atom_site_fract_z
C1 C 1.27984 0.21023 0.27420
 C2 C 1.25061 0.23005 0.25161
 C3 C 1.22193 0.20986 0.22884
 C4 C 1.22258 0.16970 0.22741
 C5 C 1.25170 0.14980 0.25096
 C6 C 1.28064 0.16972 0.27534
 C7 C 1.25053 0.27222 0.25106
 C8 C 1.27954 0.29207 0.22823
 C9 C 1.28004 0.33257 0.22673
 C10 C 1.25109 0.35249 0.25115
 C11 C 1.22220 0.33255 0.27500
 C12 C 1.22181 0.29238 0.27383
 H13 H 1.30240 0.22704 0.28972
 H14 H 1.19933 0.22561 0.21164
 H15 H 1.30214 0.27527 0.21273
 H16 H 1.19937 0.27659 0.29117
 H17 H 1.25090 0.11883 0.25079
 H18 H 1.25009 0.38346 0.25110
 C19 C 0.77910 -0.29151 0.27101
 C20 C 0.74981 -0.27169 0.24857
 C21 C 0.72094 -0.29187 0.22612
 C22 C 0.72145 -0.33203 0.22488
 C23 C 0.75060 -0.35195 0.24838
 C24 C 0.77971 -0.33202 0.27250
 C25 C 0.74965 -0.22954 0.24821
 C26 C 0.77837 -0.20953 0.22504
 C27 C 0.77835 -0.16927 0.22404
 C28 C 0.74975 -0.14919 0.24820
 C29 C 0.72110 -0.16916 0.27237
 C30 C 0.72096 -0.20942 0.27132
 H31 H 0.80178 -0.27470 0.28627
 H32 H 0.69827 -0.27609 0.20909
 H33 H 0.80066 -0.22549 0.20760
 H34 H 0.69871 -0.22530 0.28890
 H35 H 0.74967 -0.38292 0.24843
 H36 H 0.74983 -0.11814 0.24826
 C37 C 0.77893 0.20908 -0.22805
 C38 C 0.74912 0.22812 -0.25060
 C39 C 0.71977 0.20700 -0.27123
 C40 C 0.72016 0.16673 -0.26998
 C41 C 0.75004 0.14787 -0.24661
 C42 C 0.77939 0.16890 -0.22513
 C43 C 0.74856 0.27029 -0.25218
 C44 C 0.77782 0.29025 -0.27448
 C45 C 0.77824 0.33077 -0.27592
 C46 C 0.74887 0.35058 -0.25209
 C47 C 0.71974 0.33057 -0.22878
 C48 C 0.71945 0.29041 -0.23002
 H49 H 0.80163 0.22576 -0.21243
 H50 H 0.69731 0.22208 -0.28948
 H51 H 0.80074 0.27355 -0.28945
 H52 H 0.69691 0.27457 -0.21292
 H53 H 0.74987 0.11689 -0.24414
 H54 H 0.74780 0.38154 -0.25208
 C55 C 1.27971 -0.29267 -0.22785
 C56 C 1.24984 -0.27177 -0.24779
 C57 C 1.21949 -0.29091 -0.26880
 C58 C 1.21908 -0.33103 -0.27123
 C59 C 1.24887 -0.35196 -0.25037
 C60 C 1.27964 -0.33320 -0.22804
 C61 C 1.25081 -0.22958 -0.24778
 C62 C 1.28059 -0.21037 -0.27007
 C63 C 1.28114 -0.17017 -0.27220
 C64 C 1.25205 -0.14929 -0.25004
 C65 C 1.22225 -0.16833 -0.22685
 C66 C 1.22169 -0.20861 -0.22645
 H67 H 1.30173 -0.27669 -0.21015
 H68 H 1.19651 -0.27435 -0.28408
 H69 H 1.30306 -0.22693 -0.28635
 H70 H 1.19920 -0.22381 -0.20848
 H71 H 1.24890 -0.38280 -0.25413
 H72 H 1.25193 -0.11828 -0.25195
 C73 C 0.20903 0.27947 0.73003
 C74 C 0.22868 0.24966 0.75156
 C75 C 0.20826 0.21992 0.77240
 C76 C 0.16773 0.21960 0.77262
 C77 C 0.14846 0.24987 0.74978
 C78 C 0.16890 0.27951 0.72802
 C79 C 0.27091 0.24929 0.75155
 C80 C 0.29138 0.27894 0.77250
 C81 C 0.33191 0.27917 0.77278
 C82 C 0.35112 0.24892 0.74988
 C83 C 0.33063 0.21937 0.72802
 C84 C 0.29051 0.21949 0.72997
 H85 H 0.22522 0.30239 0.71413
 H86 H 0.22462 0.19836 0.79049
 H87 H 0.27507 0.30049 0.79062
 H88 H 0.27428 0.19663 0.71400
 H89 H 0.11760 0.24954 0.74640
 H90 H 0.38198 0.24920 0.74653
 C91 C 0.70730 0.78180 0.73092
 C92 C 0.72807 0.75221 0.75140
 C93 C 0.70892 0.72205 0.77281
 C94 C 0.66857 0.72119 0.77530
 C95 C 0.64799 0.75108 0.75343
 C96 C 0.66688 0.78158 0.73069
 C97 C 0.77024 0.75250 0.74984
 C98 C 0.79066 0.78142 0.77216
 C99 C 0.83093 0.78133 0.77238
 C100 C 0.85058 0.75251 0.74808
 C101 C 0.83023 0.72368 0.72466
 C102 C 0.79000 0.72362 0.72654
 H103 H 0.72333 0.80353 0.71276
 H104 H 0.72611 0.69894 0.78657
 H105 H 0.77501 0.80378 0.78989
 H106 H 0.77385 0.70114 0.70971
 H107 H 0.61724 0.75236 0.75723
 H108 H 0.88162 0.75244 0.74751
 C109 C 0.70900 0.27825 0.22637
 C110 C 0.72913 0.24956 0.24955
 C111 C 0.70914 0.22084 0.27273
 C112 C 0.66890 0.22088 0.27379
 C113 C 0.64880 0.24948 0.24957
 C114 C 0.66875 0.27813 0.22535
 C115 C 0.77124 0.24966 0.24973
 C116 C 0.79113 0.27860 0.27266
 C117 C 0.83137 0.27851 0.27410
 C118 C 0.85156 0.24964 0.25052
 C119 C 0.83172 0.22078 0.22656
 C120 C 0.79146 0.22071 0.22719
 H121 H 0.72487 0.30056 0.20887
 H122 H 0.72512 0.19860 0.29029
 H123 H 0.77509 0.30103 0.28975
 H124 H 0.77567 0.19824 0.20988
 H125 H 0.61776 0.24945 0.24959
 H126 H 0.88260 0.24963 0.25083
 C127 C 0.20719 0.78077 0.23032
 C128 C 0.22783 0.75100 0.25059
 C129 C 0.20856 0.72095 0.27207
 C130 C 0.16821 0.72042 0.27488
 C131 C 0.14775 0.75050 0.25320
 C132 C 0.16676 0.78089 0.23040
 C133 C 0.27002 0.75118 0.24908
 C134 C 0.29043 0.77996 0.27168
 C135 C 0.33069 0.77989 0.27190
 C136 C 0.35036 0.75123 0.24736
 C137 C 0.33002 0.72251 0.22370
 C138 C 0.28978 0.72243 0.22555
 H139 H 0.22329 0.80243 0.21215
 H140 H 0.22565 0.69771 0.28571
 H141 H 0.27477 0.80222 0.28957
 H142 H 0.27364 0.70006 0.20852
 H143 H 0.11704 0.75204 0.25725
 H144 H 0.38140 0.75121 0.24679
 O145 O 1.06695 0.02014 0.05749
 O146 O 0.93594 -0.02035 0.05650
 O147 O 0.98229 0.06561 0.05771
 O148 O 1.02062 -0.06583 0.05730
 O149 O 0.92904 0.04430 0.03301
 O150 O 1.07411 -0.04439 0.03359
 O151 O 0.95647 -0.07332 0.03068
 O152 O 1.04668 0.07324 0.03176
 C153 C 1.06471 0.05511 0.06155
 C154 C 0.93815 -0.05535 0.06032
 C155 C 0.94739 0.06264 0.06242
 C156 C 1.05543 -0.06270 0.06273
 O157 O 1.06717 -0.02051 -0.05555
 O158 O 0.93654 0.02110 -0.05621
 O159 O 1.02147 0.06572 -0.05599
 O160 O 0.98218 -0.06538 -0.05684
 O161 O 0.92893 -0.04352 -0.03278
 O162 O 1.07468 0.04391 -0.03167
 O163 O 1.04638 -0.07351 -0.03021
 O164 O 0.95723 0.07386 -0.03008
 Co165 Co 1.06398 -0.00019 0.00093
 Co166 Co 0.93938 0.00035 0.00017
 Co167 Co 1.00190 0.06262 0.00083
 Co168 Co 1.00145 -0.06254 0.00026
 O169 O 1.00168 0.00006 0.00056
 C170 C 1.06458 -0.05543 -0.05984
 C171 C 0.93906 0.05608 -0.05999
 C172 C 1.05631 0.06243 -0.06098
 C173 C 0.94733 -0.06207 -0.06196
 O174 O 1.06439 0.52086 0.55791
 O175 O 0.93355 0.48065 0.55716
 O176 O 0.97847 0.56620 0.55645
 O177 O 1.01981 0.43541 0.55799
 O178 O 0.92565 0.54490 0.53100
 O179 O 1.07280 0.45645 0.53285
 O180 O 0.95549 0.42745 0.53314
 O181 O 1.04296 0.57381 0.53254
 C182 C 1.06114 0.55576 0.56235
 C183 C 0.93666 0.44577 0.56212
 C184 C 0.94352 0.56354 0.56047
 C185 C 1.05472 0.43817 0.56244
 O186 O 1.06535 0.48089 0.44455
 O187 O 0.93389 0.51951 0.44318
 O188 O 1.01949 0.56568 0.44358
 O189 O 0.97988 0.43447 0.44450
 O190 O 0.92659 0.45528 0.46924
 O191 O 1.07251 0.54537 0.46968
 O192 O 1.04431 0.42765 0.46939
 O193 O 0.95484 0.57296 0.46747
 Co194 Co 1.06183 0.50086 0.50120
 Co195 Co 0.93685 0.50013 0.50020
 Co196 Co 0.99899 0.56284 0.50006
 Co197 Co 0.99983 0.43807 0.50120
 O198 O 0.99937 0.50047 0.50066
 C199 C 1.06276 0.44595 0.44006
 C200 C 0.93666 0.55439 0.43815
 C201 C 1.05448 0.56324 0.43964
 C202 C 0.94495 0.43695 0.43993
 O203 O 0.56550 0.01928 0.55776
 O204 O 0.43473 -0.02126 0.55626
 O205 O 0.47997 0.06457 0.55766
 O206 O 0.52010 -0.06641 0.55656
 O207 O 0.42706 0.04335 0.53213
 O208 O 0.57340 -0.04496 0.53259
 O209 O 0.45604 -0.07407 0.53062
 O210 O 0.54451 0.07257 0.53307
 C211 C 0.56265 0.05416 0.56258
 C212 C 0.43776 -0.05619 0.56041
 C213 C 0.44505 0.06157 0.56192
 C214 C 0.55491 -0.06331 0.56182
 O215 O 0.56632 -0.02005 0.44406
 O216 O 0.43512 0.01978 0.44338
 O217 O 0.52035 0.06556 0.44450
 O218 O 0.48115 -0.06569 0.44265
 O219 O 0.42778 -0.04487 0.46734
 O220 O 0.57343 0.04423 0.46953
 O221 O 0.54542 -0.07335 0.46856
 O222 O 0.45582 0.07275 0.46924
 Co223 Co 0.56283 -0.00040 0.50090
 Co224 Co 0.43802 -0.00074 0.49983
 Co225 Co 0.50019 0.06196 0.50104
 Co226 Co 0.50066 -0.06299 0.49965
 O227 O 0.50043 -0.00054 0.50034
 C228 C 0.56375 -0.05495 0.43930
 C229 C 0.43774 0.05475 0.43937
 C230 C 0.55527 0.06276 0.44012
 C231 C 0.44623 -0.06300 0.43787
 O232 O 0.56485 0.51935 0.05591
 O233 O 0.43353 0.48077 0.05540
 O234 O 0.47870 0.56557 0.05464
 O235 O 0.51947 0.43455 0.05576
 O236 O 0.42584 0.54491 0.02871
 O237 O 0.57257 0.45492 0.03027
 O238 O 0.45503 0.42733 0.03155
 O239 O 0.54339 0.57260 0.03120
 C240 C 0.56189 0.55427 0.06056
 C241 C 0.43656 0.44592 0.06063
 C242 C 0.44371 0.56328 0.05839
 C243 C 0.55443 0.43680 0.05993
 O244 O 0.56518 0.47988 -0.05770
 O245 O 0.43407 0.51909 -0.05873
 O246 O 0.52018 0.56505 -0.05802
 O247 O 0.47906 0.43426 -0.05745
 O248 O 0.42596 0.45497 -0.03229
 O249 O 0.57299 0.54427 -0.03192
 O250 O 0.54342 0.42677 -0.03317
 O251 O 0.45553 0.57250 -0.03474
 Co252 Co 0.56192 0.49962 -0.00090
 Co253 Co 0.43682 0.49991 -0.00167
 Co254 Co 0.49943 0.56215 -0.00167
 Co255 Co 0.49924 0.43750 -0.00087
 O256 O 0.49936 0.49980 -0.00127
 C257 C 0.56202 0.44499 -0.06246
 C258 C 0.43727 0.55391 -0.06402
 C259 C 0.55515 0.56247 -0.06183
 C260 C 0.44413 0.43674 -0.06184
 C261 C 1.13698 0.11096 0.14818
 C262 C 1.15451 0.14406 0.13122
 C263 C 1.18237 0.16291 0.15699
 C264 C 1.19315 0.14898 0.20028
 C265 C 1.17543 0.11561 0.21714
 C266 C 1.14749 0.09670 0.19117
 C267 C 1.10969 0.09097 0.12003
 C268 C 1.08816 0.07459 0.09440
 H269 H 1.14695 0.15509 0.09778
 H270 H 1.19592 0.18815 0.14273
 H271 H 1.18288 0.10442 0.25051
 H272 H 1.13425 0.07093 0.20449
 C273 C 1.13170 0.61203 0.65044
 C274 C 1.14360 0.59651 0.69227
 C275 C 1.17185 0.61505 0.71812
 C276 C 1.18852 0.64931 0.70229
 C277 C 1.17614 0.66466 0.66030
 C278 C 1.14796 0.64617 0.63466
 C279 C 1.10479 0.59200 0.62185
 C280 C 1.08378 0.57548 0.59577
 H281 H 1.13139 0.56990 0.70462
 H282 H 1.18058 0.60271 0.75046
 H283 H 1.18889 0.69056 0.64671
 H284 H 1.13934 0.65817 0.60206
 C285 C 0.63429 0.10644 0.65304
 C286 C 0.67215 0.09312 0.65379
 C287 C 0.69984 0.11204 0.67990
 C288 C 0.69003 0.14466 0.70561
 C289 C 0.65164 0.15722 0.70565
 C290 C 0.62397 0.13825 0.67944
 C291 C 0.60689 0.08860 0.62305
 C292 C 0.58556 0.07325 0.59629
 H293 H 0.68049 0.06864 0.63327
 H294 H 0.72919 0.10195 0.67866
 H295 H 0.64308 0.18193 0.72558
 H296 H 0.59476 0.14881 0.67913
 C297 C 0.63468 0.60975 0.14686
 C298 C 0.64545 0.59548 0.18976
 C299 C 0.67383 0.61417 0.21531
 C300 C 0.69173 0.64732 0.19811
 C301 C 0.68073 0.66122 0.15489
 C302 C 0.65244 0.64260 0.12955
 C303 C 0.60701 0.58995 0.11904
 C304 C 0.58530 0.57370 0.09351
 H305 H 0.63207 0.56988 0.20334
 H306 H 0.68145 0.60300 0.24863
 H307 H 0.69440 0.68628 0.14036
 H308 H 0.64471 0.65362 0.09615
 C309 C 0.86484 -0.11111 0.14568
 C310 C 0.85419 -0.09684 0.18859
 C311 C 0.82590 -0.11554 0.21421
 C312 C 0.80799 -0.14871 0.19711
 C313 C 0.81887 -0.16263 0.15387
 C314 C 0.84707 -0.14398 0.12843
 C315 C 0.89251 -0.09131 0.11792
 C316 C 0.91435 -0.07496 0.09267
 H317 H 0.86759 -0.07124 0.20211
 H318 H 0.81837 -0.10435 0.24754
 H319 H 0.80517 -0.18769 0.13940
 H320 H 0.85474 -0.15500 0.09503
 C321 C 0.86457 0.38957 0.64869
 C322 C 0.85453 0.35207 0.63734
 C323 C 0.82634 0.33280 0.66214
 C324 C 0.80730 0.35058 0.69929
 C325 C 0.81803 0.38863 0.71032
 C326 C 0.84634 0.40781 0.68525
 C327 C 0.89175 0.40982 0.62062
 C328 C 0.91324 0.42630 0.59504
 H329 H 0.86791 0.33790 0.60849
 H330 H 0.81847 0.30455 0.65021
 H331 H 0.80570 0.40357 0.73915
 H332 H 0.85386 0.43698 0.69429
 C333 C 0.36742 -0.11284 0.64833
 C334 C 0.35629 -0.09770 0.69062
 C335 C 0.32838 -0.11637 0.71681
 C336 C 0.31129 -0.15037 0.70087
 C337 C 0.32288 -0.16535 0.65841
 C338 C 0.35073 -0.14672 0.63241
 C339 C 0.39411 -0.09271 0.61961
 C340 C 0.41504 -0.07606 0.59358
 H341 H 0.36887 -0.07131 0.70311
 H342 H 0.32028 -0.10434 0.74953
 H343 H 0.30980 -0.19106 0.64477
 H344 H 0.35878 -0.15843 0.59947
 C345 C 0.36534 0.39073 0.14905
 C346 C 0.34781 0.40919 0.18595
 C347 C 0.31980 0.39024 0.21176
 C348 C 0.30871 0.35222 0.20114
 C349 C 0.32698 0.33425 0.16356
 C350 C 0.35486 0.35328 0.13805
 C351 C 0.39223 0.41064 0.12030
 C352 C 0.41347 0.42680 0.09414
 H353 H 0.35565 0.43834 0.19469
 H354 H 0.30800 0.40532 0.24080
 H355 H 0.31872 0.30605 0.15188
 H356 H 0.36768 0.33896 0.10894
 C357 C 0.86707 0.11232 -0.14670
 C358 C 0.85517 0.09671 -0.18846
 C359 C 0.82676 0.11510 -0.21425
 C360 C 0.80991 0.14930 -0.19847
 C361 C 0.82225 0.16475 -0.15654
 C362 C 0.85060 0.14639 -0.13092
 C363 C 0.89436 0.09246 -0.11837
 C364 C 0.91579 0.07594 -0.09273
 H365 H 0.86756 0.07018 -0.20084
 H366 H 0.81812 0.10272 -0.24658
 H367 H 0.80940 0.19064 -0.14302
 H368 H 0.85924 0.15846 -0.09838
 C369 C 0.86539 0.60972 0.34971
 C370 C 0.84770 0.59127 0.31292
 C371 C 0.81960 0.61027 0.28723
 C372 C 0.80858 0.64833 0.29786
 C373 C 0.82707 0.66630 0.33528
 C374 C 0.85504 0.64722 0.36068
 C375 C 0.89231 0.58972 0.37844
 C376 C 0.91356 0.57352 0.40460
 H377 H 0.85545 0.56209 0.30420
 H378 H 0.80765 0.59519 0.25828
 H379 H 0.81890 0.69454 0.34696
 H380 H 0.86800 0.66154 0.38970
 C381 C 0.36646 0.11122 0.35200
 C382 C 0.34893 0.09303 0.31492
 C383 C 0.32080 0.11213 0.28941
 C384 C 0.30957 0.15003 0.30052
 C385 C 0.32793 0.16777 0.33819
 C386 C 0.35594 0.14858 0.36343
 C387 C 0.39338 0.09101 0.38048
 C388 C 0.41463 0.07446 0.40633
 H389 H 0.35684 0.06397 0.30583
 H390 H 0.30900 0.09727 0.26022
 H391 H 0.31961 0.19588 0.35018
 H392 H 0.36879 0.16268 0.39267
 C393 C 0.36620 0.60661 -0.15485
 C394 C 0.37398 0.64269 -0.17320
 C395 C 0.34601 0.66205 -0.19847
 C396 C 0.30927 0.64582 -0.20570
 C397 C 0.30261 0.60856 -0.18830
 C398 C 0.33072 0.58937 -0.16303
 C399 C 0.39336 0.58837 -0.12486
 C400 C 0.41454 0.57292 -0.09799
 H401 H 0.40152 0.65620 -0.16740
 H402 H 0.35384 0.68950 -0.21285
 H403 H 0.27497 0.59480 -0.19140
 H404 H 0.32427 0.56149 -0.14858
 C405 C 1.13659 -0.10829 -0.14932
 C406 C 1.17454 -0.09530 -0.14958
 C407 C 1.20220 -0.11419 -0.17578
 C408 C 1.19224 -0.14644 -0.20204
 C409 C 1.15378 -0.15870 -0.20248
 C410 C 1.12616 -0.13976 -0.17620
 C411 C 1.10914 -0.09032 -0.11955
 C412 C 1.08771 -0.07481 -0.09307
 H413 H 1.18296 -0.07107 -0.12870
 H414 H 1.23160 -0.10435 -0.17426
 H415 H 1.14513 -0.18312 -0.22285
 H416 H 1.09686 -0.15004 -0.17626
 C417 C 1.13584 0.39069 0.35381
 C418 C 1.15390 0.35793 0.37102
 C419 C 1.18207 0.33934 0.34544
 C420 C 1.19265 0.35319 0.30207
 C421 C 1.17448 0.38627 0.28498
 C422 C 1.14621 0.40492 0.31076
 C423 C 1.10817 0.41039 0.38175
 C424 C 1.08639 0.42657 0.40727
 H425 H 1.14647 0.34694 0.40451
 H426 H 1.19597 0.31434 0.35989
 H427 H 1.18177 0.39740 0.25155
 H428 H 1.13259 0.43045 0.29725
 C429 C 0.63581 -0.11045 0.35212
 C430 C 0.65339 -0.14362 0.36891
 C431 C 0.68116 -0.16247 0.34299
 C432 C 0.69178 -0.14847 0.29969
 C433 C 0.67403 -0.11501 0.28303
 C434 C 0.64618 -0.09610 0.30915
 C435 C 0.60860 -0.09050 0.38042
 C436 C 0.58714 -0.07422 0.40621
 H437 H 0.64594 -0.15471 0.40235
 H438 H 0.69475 -0.18775 0.35715
 H439 H 0.68138 -0.10374 0.24968
 H440 H 0.63291 -0.07027 0.29597
 C441 C 0.63374 0.38903 -0.14970
 C442 C 0.65138 0.35593 -0.13279
 C443 C 0.67932 0.33716 -0.15853
 C444 C 0.69009 0.35116 -0.20178
 C445 C 0.67226 0.38451 -0.21861
 C446 C 0.64422 0.40335 -0.19266
 C447 C 0.60651 0.40904 -0.12143
 C448 C 0.58514 0.42544 -0.09561
 H449 H 0.64386 0.34486 -0.09936
 H450 H 0.69296 0.31196 -0.14425
 H451 H 0.67971 0.39577 -0.25193
 H452 H 0.63093 0.42914 -0.20594
 C453 C 1.10893 0.13350 -0.15189
 C454 C 1.14505 0.12584 -0.17023
 C455 C 1.16397 0.15367 -0.19616
 C456 C 1.14726 0.19013 -0.20413
 C457 C 1.11002 0.19667 -0.18662
 C458 C 1.09127 0.16872 -0.16067
 C459 C 1.09092 0.10639 -0.12164
 C460 C 1.07551 0.08521 -0.09476
 H461 H 1.15888 0.09851 -0.16399
 H462 H 1.19143 0.14589 -0.21052
 H463 H 1.09591 0.22411 -0.19023
 H464 H 1.06336 0.17507 -0.14628
 C465 C 1.11064 0.63398 0.35142
 C466 C 1.14863 0.64329 0.36127
 C467 C 1.16763 0.67133 0.33589
 C468 C 1.14901 0.69099 0.29974
 C469 C 1.11059 0.68073 0.28998
 C470 C 1.09171 0.65258 0.31561
 C471 C 1.09059 0.60727 0.38033
 C472 C 1.07411 0.58622 0.40642
 H473 H 1.16338 0.62954 0.38947
 H474 H 1.19630 0.67872 0.34673
 H475 H 1.09507 0.69349 0.26182
 H476 H 1.06219 0.64558 0.30768
 C477 C 0.61085 0.13505 0.35335
 C478 C 0.64384 0.15284 0.37022
 C479 C 0.66245 0.18081 0.34438
 C480 C 0.64839 0.19144 0.30109
 C481 C 0.61510 0.17351 0.28435
 C482 C 0.59643 0.14545 0.31039
 C483 C 0.59108 0.10768 0.38157
 C484 C 0.57479 0.08614 0.40725
 H485 H 0.65498 0.14538 0.40365
 H486 H 0.68760 0.19455 0.35859
 H487 H 0.60379 0.18086 0.25101
 H488 H 0.57072 0.13203 0.29716
 C489 C 0.61141 0.63396 -0.14904
 C490 C 0.64921 0.64369 -0.13874
 C491 C 0.66806 0.67202 -0.16380
 C492 C 0.64949 0.69156 -0.20007
 C493 C 0.61126 0.68091 -0.21026
 C494 C 0.59252 0.65247 -0.18496
 C495 C 0.59146 0.60694 -0.12048
 C496 C 0.57495 0.58565 -0.09468
 H497 H 0.66391 0.63003 -0.11043
 H498 H 0.69657 0.67971 -0.15262
 H499 H 0.59581 0.69357 -0.23853
 H500 H 0.56315 0.64514 -0.19322
 C501 C 0.89086 -0.13335 -0.14914
 C502 C 0.85779 -0.15067 -0.13182
 C503 C 0.83852 -0.17839 -0.15737
 C504 C 0.85197 -0.18924 -0.20082
 C505 C 0.88531 -0.17172 -0.21806
 C506 C 0.90465 -0.14392 -0.19230
 C507 C 0.91130 -0.10631 -0.12109
 C508 C 0.92789 -0.08507 -0.09530
 H509 H 0.84712 -0.14308 -0.09824
 H510 H 0.81338 -0.19181 -0.14274
 H511 H 0.89618 -0.17925 -0.25153
 H512 H 0.93040 -0.13086 -0.20590
 C513 C 0.88953 0.36454 0.35319
 C514 C 0.85628 0.34716 0.36992
 C515 C 0.83758 0.31918 0.34419
 C516 C 0.85182 0.30813 0.30117
 C517 C 0.88533 0.32570 0.28454
 C518 C 0.90409 0.35377 0.31046
 C519 C 0.90940 0.39188 0.38134
 C520 C 0.92566 0.41344 0.40700
 H521 H 0.84503 0.35493 0.40317
 H522 H 0.81225 0.30573 0.35832
 H523 H 0.89678 0.31803 0.25138
 H524 H 0.92998 0.36688 0.29733
 C525 C 0.39029 -0.13482 0.35079
 C526 C 0.35736 -0.15242 0.36809
 C527 C 0.33823 -0.18017 0.34244
 C528 C 0.35168 -0.19077 0.29889
 C529 C 0.38491 -0.17301 0.28170
 C530 C 0.40410 -0.14517 0.30755
 C531 C 0.41052 -0.10763 0.37885
 C532 C 0.42694 -0.08623 0.40462
 H533 H 0.34668 -0.14500 0.40172
 H534 H 0.31318 -0.19379 0.35703
 H535 H 0.39577 -0.18035 0.24816
 H536 H 0.42974 -0.13189 0.29396
 C537 C 0.39108 0.36505 -0.15176
 C538 C 0.35494 0.37280 -0.17001
 C539 C 0.33587 0.34503 -0.19587
 C540 C 0.35247 0.30854 -0.20389
 C541 C 0.38971 0.30187 -0.18639
 C542 C 0.40861 0.32977 -0.16051
 C543 C 0.40932 0.39221 -0.12175
 C544 C 0.42487 0.41355 -0.09517
 H545 H 0.34121 0.40019 -0.16379
 H546 H 0.30839 0.35289 -0.21019
 H547 H 0.40374 0.27439 -0.19001
 H548 H 0.43654 0.32334 -0.14619
 C549 C 1.10748 -0.13333 0.15475
 C550 C 1.14339 -0.12539 0.17350
 C551 C 1.16242 -0.15308 0.19959
 C552 C 1.14603 -0.18968 0.20731
 C553 C 1.10894 -0.19650 0.18948
 C554 C 1.09008 -0.16868 0.16337
 C555 C 1.08953 -0.10643 0.12414
 C556 C 1.07428 -0.08539 0.09692
 H557 H 1.15701 -0.09795 0.16739
 H558 H 1.18975 -0.14513 0.21420
 H559 H 1.09511 -0.22408 0.19291
 H560 H 1.06234 -0.17525 0.14866
 C561 C 1.11090 0.36637 0.64955
 C562 C 1.09578 0.35465 0.69165
 C563 C 1.11458 0.32646 0.71744
 C564 C 1.14871 0.30968 0.70132
 C565 C 1.16357 0.32178 0.65899
 C566 C 1.14483 0.34988 0.63340
 C567 C 1.09081 0.39357 0.62127
 C568 C 1.07433 0.41495 0.59550
 H569 H 1.06936 0.36703 0.70432
 H570 H 1.10260 0.31796 0.75003
 H571 H 1.18936 0.30895 0.64518
 H572 H 1.15653 0.35836 0.60062
 C573 C 0.60732 -0.13347 0.65406
 C574 C 0.59018 -0.16894 0.66271
 C575 C 0.60912 -0.19648 0.68913
 C576 C 0.64603 -0.18926 0.70727
 C577 C 0.66215 -0.15255 0.69949
 C578 C 0.64304 -0.12513 0.67307
 C579 C 0.58926 -0.10680 0.62325
 C580 C 0.57392 -0.08591 0.59596
 H581 H 0.56258 -0.17581 0.64781
 H582 H 0.59551 -0.22417 0.69259
 H583 H 0.68932 -0.14431 0.71430
 H584 H 0.65645 -0.09759 0.66695
 C585 C 0.61015 0.36408 0.14628
 C586 C 0.64318 0.34643 0.12927
 C587 C 0.66198 0.31842 0.15494
 C588 C 0.64806 0.30761 0.19820
 C589 C 0.61472 0.32540 0.21508
 C590 C 0.59587 0.35350 0.18921
 C591 C 0.59023 0.39155 0.11825
 C592 C 0.57389 0.41322 0.09271
 H593 H 0.65422 0.35403 0.09586
 H594 H 0.68717 0.30481 0.14063
 H595 H 0.60352 0.31792 0.24841
 H596 H 0.57014 0.36681 0.20256
 C597 C 0.89105 0.13457 0.14888
 C598 C 0.90505 0.14544 0.19183
 C599 C 0.88591 0.17355 0.21731
 C600 C 0.85256 0.19107 0.19999
 C601 C 0.83887 0.17990 0.15676
 C602 C 0.85796 0.15187 0.13148
 C603 C 0.91136 0.10727 0.12108
 C604 C 0.92791 0.08583 0.09551
 H605 H 0.93083 0.13240 0.20547
 H606 H 0.89693 0.18131 0.25064
 H607 H 0.81369 0.19330 0.14210
 H608 H 0.84714 0.14403 0.09804
 C609 C 0.88768 0.63668 0.64612
 C610 C 0.85439 0.65410 0.62940
 C611 C 0.83594 0.68243 0.65491
 C612 C 0.85048 0.69380 0.69768
 C613 C 0.88403 0.67620 0.71428
 C614 C 0.90252 0.64779 0.68859
 C615 C 0.90739 0.60901 0.61819
 C616 C 0.92376 0.58721 0.59287
 H617 H 0.84292 0.64609 0.59633
 H618 H 0.81056 0.69587 0.64081
 H619 H 0.89570 0.68408 0.74726
 H620 H 0.92845 0.63467 0.70170
 C621 C 0.38856 0.13271 0.64935
 C622 C 0.35463 0.14924 0.63322
 C623 C 0.33589 0.17727 0.65889
 C624 C 0.35077 0.18924 0.70128
 C625 C 0.38488 0.17239 0.71738
 C626 C 0.40367 0.14428 0.69151
 C627 C 0.40870 0.10568 0.62095
 C628 C 0.42527 0.08450 0.59508
 H629 H 0.34293 0.14088 0.60038
 H630 H 0.31011 0.19016 0.64509
 H631 H 0.39686 0.18079 0.75002
 H632 H 0.43010 0.13186 0.70417
 C633 C 0.38778 0.63618 0.14436
 C634 C 0.40257 0.64707 0.18694
 C635 C 0.38397 0.67524 0.21289
 C636 C 0.35034 0.69282 0.19647
 C637 C 0.33583 0.68165 0.15360
 C638 C 0.35441 0.65356 0.12782
 C639 C 0.40757 0.60869 0.11624
 C640 C 0.42397 0.58698 0.09082
 H641 H 0.42855 0.63397 0.19994
 H642 H 0.39561 0.68296 0.24593
 H643 H 0.31039 0.69507 0.13963
 H644 H 0.34295 0.64571 0.09469
   
