data_POSCAR
  _audit_creation_date              2014-09-24
  _audit_creation_method            'ToBaCCo'
  _symmetry_space_group_name_H-M    'P1'
  _symmetry_Int_Tables_number       1
  _symmetry_cell_setting            triclinic
  loop_
  _symmetry_equiv_pos_as_xyz
 x,y,z
_cell_length_a 23.8898
_cell_length_b 25.0964
_cell_length_c 41.7900
_cell_angle_alpha 80.725200
_cell_angle_beta 98.791000
_cell_angle_gamma 82.846400
loop_
  _atom_site_label
  _atom_site_type_symbol
  _atom_site_fract_x
  _atom_site_fract_y
  _atom_site_fract_z
O1 O -0.06462 0.56254 0.95493
 O2 O -0.08555 0.44275 1.01266
 O3 O -0.08664 0.54597 1.01449
 O4 O -0.06097 0.45808 0.95355
 O5 O 0.03151 0.44442 0.97384
 O6 O 0.00572 0.52928 1.03532
 O7 O 0.00695 0.42668 1.03282
 O8 O 0.02760 0.54823 0.97592
 Cu9 Cu -0.08368 0.50385 0.98174
 Cu10 Cu 0.02721 0.48561 1.00642
 C11 C -0.01516 0.57645 0.95582
 C12 C -0.04302 0.41407 1.03270
 C13 C -0.04463 0.55231 1.03547
 C14 C -0.01011 0.43607 0.95342
 O15 O 0.54975 0.05690 0.45985
 O16 O 0.45577 0.05909 0.52218
 O17 O 0.56335 0.06243 0.52226
 O18 O 0.43954 0.05444 0.45970
 O19 O 0.45729 -0.03550 0.47225
 O20 O 0.58108 -0.02756 0.53460
 O21 O 0.47343 -0.03094 0.53442
 O22 O 0.56634 -0.03299 0.47215
 Cu23 Cu 0.50032 0.06726 0.48946
 Cu24 Cu 0.52137 -0.04073 0.50439
 C25 C 0.57476 0.01145 0.45556
 C26 C 0.44904 0.01431 0.53919
 C27 C 0.59287 0.01878 0.53950
 C28 C 0.42657 0.00807 0.45571
 C29 C -0.04914 -0.11480 0.22478
 C30 C -0.09647 -0.10994 0.24563
 C31 C -0.09724 -0.06655 0.26157
 C32 C -0.04905 -0.03236 0.25571
 C33 C -0.05707 -0.05895 0.20217
 C34 C -0.05672 -0.01582 0.21810
 C35 C 0.00603 -0.11683 0.24940
 C36 C 0.00708 -0.07340 0.26520
 H37 H -0.12438 -0.14010 0.24961
 H38 H -0.04954 0.00322 0.26832
 H39 H -0.05920 -0.05460 0.17578
 H40 H 0.04121 -0.15027 0.25378
 C41 C 0.12809 0.04519 0.74338
 C42 C 0.12728 -0.00711 0.76802
 C43 C 0.07925 -0.00709 0.78193
 C44 C 0.03595 0.04601 0.76989
 C45 C 0.07239 0.05251 0.71862
 C46 C 0.02412 0.05339 0.73209
 C47 C 0.11929 0.09078 0.76346
 C48 C 0.07097 0.09161 0.77718
 H49 H 0.16260 -0.04045 0.77487
 H50 H -0.00311 0.04662 0.78122
 H51 H 0.07165 0.05624 0.69236
 H52 H 0.14896 0.11952 0.76672
 C53 C -0.10657 -0.37970 0.05808
 C54 C -0.11362 -0.34496 0.08070
 C55 C -0.06803 -0.34255 0.10572
 C56 C -0.01593 -0.37745 0.10858
 C57 C -0.00880 -0.41186 0.08594
 C58 C -0.05374 -0.41288 0.06018
 C59 C -0.07604 -0.30333 0.12828
 C60 C -0.03225 -0.28275 0.14348
 C61 C -0.03872 -0.24118 0.16468
 C62 C 0.00544 -0.21003 0.16995
 C63 C 0.00155 -0.17013 0.18950
 C64 C -0.04616 -0.16082 0.20500
 C65 C -0.09060 -0.19219 0.19968
 C66 C -0.08669 -0.23219 0.17999
 H67 H -0.14211 -0.37982 0.03862
 H68 H -0.15441 -0.31902 0.07820
 H69 H 0.01946 -0.37864 0.12834
 H70 H 0.03212 -0.43765 0.08861
 H71 H -0.11954 -0.28841 0.13041
 H72 H 0.01044 -0.29409 0.13864
 H73 H 0.04289 -0.21600 0.15846
 H74 H 0.03591 -0.14595 0.19232
 H75 H -0.12909 -0.18579 0.20997
 H76 H -0.12122 -0.25603 0.17706
 C77 C -0.10654 0.35396 0.05480
 C78 C -0.11475 0.30786 0.07614
 C79 C -0.06836 0.27495 0.09804
 C80 C -0.01314 0.28905 0.09804
 C81 C -0.00483 0.33524 0.07673
 C82 C -0.05138 0.36824 0.05465
 C83 C -0.07899 0.22467 0.11877
 C84 C -0.04281 0.19759 0.14592
 C85 C -0.05132 0.14476 0.16488
 C86 C -0.02057 0.12700 0.19709
 C87 C -0.02380 0.07558 0.21485
 C88 C -0.05761 0.04065 0.20064
 C89 C -0.08935 0.05878 0.16870
 C90 C -0.08605 0.11005 0.15092
 H91 H -0.14360 0.37811 0.03825
 H92 H -0.15764 0.29768 0.07540
 H93 H 0.02412 0.26392 0.11373
 H94 H 0.03836 0.34453 0.07730
 H95 H -0.11897 0.21030 0.11139
 H96 H -0.00547 0.21468 0.15508
 H97 H 0.00696 0.15259 0.20832
 H98 H 0.00201 0.06242 0.23917
 H99 H -0.11609 0.03290 0.15717
 H100 H -0.10926 0.12114 0.12592
 C101 C 0.40063 -0.03483 0.58144
 C102 C 0.36678 -0.03497 0.60585
 C103 C 0.34496 0.01405 0.61467
 C104 C 0.35688 0.06365 0.59808
 C105 C 0.39053 0.06383 0.57345
 C106 C 0.41287 0.01456 0.56493
 C107 C 0.30791 0.01151 0.64006
 C108 C 0.29954 0.05017 0.65833
 C109 C 0.26034 0.04735 0.68265
 C110 C 0.23395 0.09608 0.68979
 C111 C 0.19330 0.09523 0.71057
 C112 C 0.17916 0.04542 0.72555
 C113 C 0.20674 -0.00342 0.71876
 C114 C 0.24745 -0.00254 0.69811
 H115 H 0.41698 -0.07349 0.57539
 H116 H 0.35777 -0.07367 0.61802
 H117 H 0.33939 0.10243 0.60343
 H118 H 0.39899 0.10257 0.56106
 H119 H 0.28684 -0.02418 0.64360
 H120 H 0.32004 0.08621 0.65463
 H121 H 0.24302 0.13509 0.67815
 H122 H 0.17128 0.13385 0.71378
 H123 H 0.19555 -0.04261 0.72820
 H124 H 0.26797 -0.04116 0.69403
 C125 C -0.32557 -0.02591 0.58477
 C126 C -0.28090 -0.02293 0.60992
 C127 C -0.26849 0.02782 0.61653
 C128 C -0.30266 0.07578 0.59785
 C129 C -0.34732 0.07281 0.57266
 C130 C -0.35915 0.02194 0.56576
 C131 C -0.21996 0.02880 0.64308
 C132 C -0.19156 0.07150 0.64430
 C133 C -0.13898 0.06954 0.66863
 C134 C -0.09758 0.10122 0.65966
 C135 C -0.04535 0.09719 0.68074
 C136 C -0.03363 0.06177 0.71147
 C137 C -0.07643 0.03265 0.72131
 C138 C -0.12863 0.03630 0.70009
 H139 H -0.33379 -0.06575 0.58024
 H140 H -0.25554 -0.06049 0.62407
 H141 H -0.29578 0.11565 0.60283
 H142 H -0.37290 0.11042 0.55876
 H143 H -0.20433 -0.00876 0.66065
 H144 H -0.20346 0.10724 0.62497
 H145 H -0.10489 0.12786 0.63581
 H146 H -0.01377 0.12134 0.67279
 H147 H -0.06900 0.00553 0.74483
 H148 H -0.16047 0.01279 0.70829
 C149 C -0.05459 -0.34228 0.91122
 C150 C -0.04794 -0.29444 0.89084
 C151 C 0.00559 -0.27650 0.89247
 C152 C 0.05292 -0.30839 0.91449
 C153 C 0.04627 -0.35634 0.93486
 C154 C -0.00762 -0.37367 0.93359
 C155 C 0.01028 -0.22555 0.87010
 C156 C 0.05247 -0.19562 0.87536
 C157 C 0.05746 -0.14571 0.85222
 C158 C 0.11182 -0.13055 0.85140
 C159 C 0.11880 -0.08507 0.82908
 C160 C 0.07136 -0.05331 0.80716
 C161 C 0.01661 -0.06699 0.80914
 C162 C 0.00962 -0.11269 0.83134
 H163 H -0.09668 -0.35453 0.90952
 H164 H -0.08497 -0.27104 0.87389
 H165 H 0.09535 -0.29722 0.91579
 H166 H 0.08341 -0.37982 0.95165
 H167 H -0.02288 -0.21238 0.84851
 H168 H 0.08596 -0.20864 0.89676
 H169 H 0.14925 -0.15461 0.86767
 H170 H 0.16149 -0.07483 0.82912
 H171 H -0.02092 -0.04326 0.79313
 H172 H -0.03331 -0.12167 0.83214
 C173 C 0.05791 0.38090 0.92705
 C174 C 0.06929 0.34503 0.90577
 C175 C 0.02448 0.32649 0.88693
 C176 C -0.03246 0.34612 0.88904
 C177 C -0.04390 0.38244 0.91024
 C178 C 0.00122 0.39975 0.92973
 C179 C 0.03956 0.28733 0.86540
 C180 C 0.00532 0.25279 0.85490
 C181 C 0.02326 0.21152 0.83521
 C182 C -0.01887 0.19182 0.81497
 C183 C -0.00347 0.15275 0.79619
 C184 C 0.05445 0.13228 0.79748
 C185 C 0.09656 0.15106 0.81828
 C186 C 0.08122 0.19000 0.83704
 H187 H 0.09369 0.39367 0.94154
 H188 H 0.11349 0.33097 0.90443
 H189 H -0.06828 0.33413 0.87421
 H190 H -0.08805 0.39651 0.91162
 H191 H 0.08185 0.28597 0.85899
 H192 H -0.03733 0.25429 0.86077
 H193 H -0.06382 0.20725 0.81336
 H194 H -0.03689 0.13940 0.78020
 H195 H 0.14146 0.13495 0.82053
 H196 H 0.11494 0.20211 0.85342
 C197 C -0.37402 0.05856 0.41566
 C198 C -0.33513 0.05660 0.39382
 C199 C -0.31002 0.00634 0.38796
 C200 C -0.32348 -0.04213 0.40493
 C201 C -0.36166 -0.04032 0.42705
 C202 C -0.38766 0.01004 0.43275
 C203 C -0.26855 0.00515 0.36500
 C204 C -0.26386 -0.03348 0.34644
 C205 C -0.22196 -0.03719 0.32390
 C206 C -0.23505 -0.06203 0.29655
 C207 C -0.19526 -0.07005 0.27592
 C208 C -0.14062 -0.05455 0.28255
 C209 C -0.12783 -0.02880 0.30970
 C210 C -0.16808 -0.02013 0.33018
 H211 H -0.39273 0.09815 0.41944
 H212 H -0.32498 0.09446 0.38123
 H213 H -0.30361 -0.08162 0.40170
 H214 H -0.37052 -0.07867 0.43977
 H215 H -0.24327 0.03804 0.36238
 H216 H -0.29348 -0.06286 0.34677
 H217 H -0.27628 -0.07548 0.29117
 H218 H -0.20749 -0.08861 0.25477
 H219 H -0.08619 -0.01689 0.31588
 H220 H -0.15610 -0.00200 0.35154
 C221 C 0.33596 0.05177 0.41660
 C222 C 0.28556 0.04789 0.39567
 C223 C 0.27315 -0.00310 0.38951
 C224 C 0.31183 -0.05038 0.40513
 C225 C 0.36199 -0.04654 0.42615
 C226 C 0.37464 0.00454 0.43218
 C227 C 0.21883 -0.00594 0.36772
 C228 C 0.21311 -0.04585 0.35020
 C229 C 0.15947 -0.04996 0.32828
 C230 C 0.16337 -0.07858 0.30237
 C231 C 0.11410 -0.08555 0.28181
 C232 C 0.05933 -0.06490 0.28700
 C233 C 0.05536 -0.03592 0.31288
 C234 C 0.10488 -0.02857 0.33339
 H235 H 0.34419 0.09171 0.42094
 H236 H 0.25623 0.08485 0.38418
 H237 H 0.30291 -0.09057 0.40186
 H238 H 0.39056 -0.08377 0.43801
 H239 H 0.18375 0.02718 0.36495
 H240 H 0.25012 -0.07577 0.35057
 H241 H 0.20485 -0.09543 0.29788
 H242 H 0.11922 -0.10675 0.26162
 H243 H 0.01411 -0.01994 0.31788
 H244 H 0.10014 -0.00748 0.35367
   
