data_POSCAR
  _audit_creation_date              2014-09-24
  _audit_creation_method            'ToBaCCo'
  _symmetry_space_group_name_H-M    'P1'
  _symmetry_Int_Tables_number       1
  _symmetry_cell_setting            triclinic
  loop_
  _symmetry_equiv_pos_as_xyz
 x,y,z
_cell_length_a 47.2089
_cell_length_b 50.9832
_cell_length_c 47.8039
_cell_angle_alpha 90.061000
_cell_angle_beta 90.394600
_cell_angle_gamma 89.853100
loop_
  _atom_site_label
  _atom_site_type_symbol
  _atom_site_fract_x
  _atom_site_fract_y
  _atom_site_fract_z
C1 C 0.29391 0.33764 0.02174
 C2 C 0.29428 0.33659 -0.00794
 C3 C 0.31426 0.31994 -0.02092
 C4 C 0.33485 0.30579 -0.00534
 C5 C 0.33486 0.30849 0.02423
 C6 C 0.31445 0.32404 0.03718
 H7 H 0.31430 0.32513 0.05985
 H8 H 0.31298 0.31737 -0.04318
 C9 C 0.71808 0.67104 0.02170
 C10 C 0.71751 0.67007 -0.00786
 C11 C 0.70078 0.68850 -0.02254
 C12 C 0.68481 0.70805 -0.00858
 C13 C 0.68558 0.70854 0.02120
 C14 C 0.70257 0.69046 0.03566
 H15 H 0.70344 0.69139 0.05832
 H16 H 0.70064 0.68764 -0.04502
 C17 C 0.68828 0.34929 0.97926
 C18 C 0.68816 0.34695 1.00883
 C19 C 0.67154 0.32685 1.02075
 C20 C 0.65560 0.30933 1.00409
 C21 C 0.65651 0.31179 0.97462
 C22 C 0.67271 0.33173 0.96275
 H23 H 0.67269 0.33405 0.94018
 H24 H 0.67026 0.32484 1.04310
 C25 C 0.31001 0.65530 0.98457
 C26 C 0.30677 0.65406 1.01410
 C27 C 0.32342 0.67116 1.03073
 C28 C 0.34242 0.68936 1.01907
 C29 C 0.34569 0.68977 0.98959
 C30 C 0.32930 0.67294 0.97297
 H31 H 0.33240 0.67287 0.95049
 H32 H 0.32228 0.67036 1.05325
 C33 C 0.01627 0.31150 0.35498
 C34 C -0.01356 0.31336 0.35464
 C35 C -0.02678 0.33110 0.33635
 C36 C -0.01107 0.34684 0.31789
 C37 C 0.01893 0.34502 0.31853
 C38 C 0.03208 0.32728 0.33694
 H39 H 0.05503 0.32637 0.33792
 H40 H -0.04961 0.33298 0.33717
 C41 C 0.01630 0.69398 0.65112
 C42 C -0.01361 0.69213 0.65220
 C43 C -0.02567 0.67289 0.66946
 C44 C -0.00920 0.65608 0.68660
 C45 C 0.02081 0.65868 0.68563
 C46 C 0.03291 0.67747 0.66796
 H47 H 0.05581 0.67852 0.66642
 H48 H -0.04839 0.67092 0.66862
 C49 C 0.97248 0.70236 0.33069
 C50 C 1.00220 0.70566 0.33047
 C51 C 1.01831 0.69033 0.31195
 C52 C 1.00589 0.67119 0.29443
 C53 C 0.97586 0.66842 0.29461
 C54 C 0.95987 0.68400 0.31287
 H55 H 0.93696 0.68233 0.31278
 H56 H 1.04117 0.69191 0.31252
 C57 C 0.98247 0.29545 0.66996
 C58 C 1.01253 0.29643 0.66763
 C59 C 1.02738 0.31443 0.68487
 C60 C 1.01321 0.33104 0.70385
 C61 C 0.98339 0.32942 0.70603
 C62 C 0.96855 0.31185 0.68895
 H63 H 0.94571 0.31052 0.69074
 H64 H 1.04984 0.31689 0.68246
 C65 C 0.33718 0.01380 0.29258
 C66 C 0.32928 -0.01276 0.28838
 C67 C 0.30692 -0.02321 0.30416
 C68 C 0.29419 -0.00906 0.32631
 C69 C 0.30223 0.01760 0.33014
 C70 C 0.32338 0.02846 0.31333
 H71 H 0.32835 0.04904 0.31600
 H72 H 0.30061 -0.04310 0.29961
 C73 C 0.65137 0.01656 0.69575
 C74 C 0.65780 -0.01022 0.70038
 C75 C 0.68035 -0.02164 0.68555
 C76 C 0.69563 -0.00745 0.66541
 C77 C 0.68902 0.01938 0.66118
 C78 C 0.66668 0.03077 0.67594
 H79 H 0.66136 0.05120 0.67223
 H80 H 0.68631 -0.04171 0.69001
 C81 C 0.32665 0.97773 0.71572
 C82 C 0.32371 1.00546 0.71698
 C83 C 0.30541 1.01782 0.69745
 C84 C 0.29197 1.00394 0.67545
 C85 C 0.29530 0.97624 0.67469
 C86 C 0.31229 0.96374 0.69473
 H87 H 0.31421 0.94255 0.69394
 H88 H 0.30077 1.03831 0.70004
 C89 C 0.68834 0.98722 0.27545
 C90 C 0.68621 1.01454 0.28022
 C91 C 0.70428 1.02639 0.30008
 C92 C 0.72466 1.01177 0.31529
 C93 C 0.72634 0.98432 0.31030
 C94 C 0.70841 0.97255 0.29050
 H95 H 0.71059 0.95172 0.28645
 H96 H 0.70123 1.04686 0.30451
 O97 O 0.83274 0.88084 0.52991
 O98 O 0.87778 0.85244 0.47497
 O99 O 0.83262 0.88102 0.47517
 O100 O 0.87863 0.85159 0.52917
 O101 O 0.85210 0.81598 0.52855
 O102 O 0.80547 0.84579 0.47541
 O103 O 0.85073 0.81713 0.47451
 O104 O 0.80644 0.84508 0.52989
 Cu105 Cu 0.85802 0.87016 0.50256
 Cu106 Cu 0.82595 0.82745 0.50222
 C107 C 0.81186 0.86785 0.53913
 C108 C 0.87175 0.82993 0.46530
 C109 C 0.81150 0.86826 0.46580
 C110 C 0.87356 0.82848 0.53754
 O111 O 0.12366 0.15887 0.48186
 O112 O 0.16705 0.12526 0.53552
 O113 O 0.13084 0.16476 0.53560
 O114 O 0.15913 0.12015 0.48175
 O115 O 0.19409 0.14786 0.47402
 O116 O 0.16650 0.19192 0.52882
 O117 O 0.20204 0.15295 0.52783
 O118 O 0.15824 0.18734 0.47544
 Cu119 Cu 0.14168 0.13948 0.50961
 Cu120 Cu 0.18377 0.17272 0.50070
 C121 C 0.13351 0.17900 0.46978
 C122 C 0.19204 0.13328 0.54060
 C123 C 0.14370 0.18602 0.54121
 C124 C 0.18134 0.12649 0.46861
 O125 O 0.11515 0.84509 0.51635
 O126 O 0.15824 0.87809 0.46256
 O127 O 0.12055 0.84017 0.46233
 O128 O 0.15113 0.88321 0.51636
 O129 O 0.18539 0.85437 0.52367
 O130 O 0.15569 0.81197 0.46824
 O131 O 0.19258 0.84933 0.46983
 O132 O 0.14910 0.81561 0.52195
 Cu133 Cu 0.13282 0.86453 0.48857
 Cu134 Cu 0.17418 0.83000 0.49670
 C135 C 0.12480 0.82456 0.52808
 C136 C 0.18284 0.86928 0.45718
 C137 C 0.13284 0.81878 0.45609
 C138 C 0.17330 0.87603 0.52940
 O139 O 0.89552 0.13922 0.52776
 O140 O 0.85179 0.11182 0.47032
 O141 O 0.89452 0.14420 0.47364
 O142 O 0.85453 0.10548 0.52455
 O143 O 0.82316 0.13749 0.52834
 O144 O 0.86464 0.17723 0.47884
 O145 O 0.82204 0.14509 0.47439
 O146 O 0.86429 0.17120 0.53260
 Cu147 Cu 0.87709 0.12185 0.49853
 Cu148 Cu 0.84041 0.16097 0.50398
 C149 C 0.88720 0.15999 0.53994
 C150 C 0.82955 0.12399 0.46251
 C151 C 0.88675 0.16742 0.46791
 C152 C 0.83210 0.11481 0.53512
 O153 O 0.48038 0.85886 0.82966
 O154 O 0.53749 0.82295 0.86725
 O155 O 0.53518 0.85775 0.82694
 O156 O 0.48204 0.82627 0.87133
 O157 O 0.47974 0.79279 0.84203
 O158 O 0.53138 0.82564 0.79610
 O159 O 0.53442 0.79112 0.83600
 O160 O 0.47667 0.82569 0.80009
 Cu161 Cu 0.50920 0.84464 0.85197
 Cu162 Cu 0.50517 0.80551 0.81561
 C163 C 0.46895 0.84823 0.80831
 C164 C 0.54576 0.80093 0.85767
 C165 C 0.54190 0.84744 0.80372
 C166 C 0.47188 0.80423 0.86434
 O167 O 0.53347 0.17255 0.13058
 O168 O 0.48254 0.13410 0.17253
 O169 O 0.47863 0.16653 0.13066
 O170 O 0.53730 0.13770 0.17057
 O171 O 0.53504 0.16974 0.20163
 O172 O 0.47678 0.19966 0.16042
 O173 O 0.48006 0.16693 0.20261
 O174 O 0.53180 0.20417 0.16218
 Cu175 Cu 0.50823 0.14951 0.14798
 Cu176 Cu 0.50552 0.18840 0.18474
 C177 C 0.54149 0.19484 0.13962
 C178 C 0.47280 0.14412 0.19489
 C179 C 0.46784 0.18805 0.13850
 C180 C 0.54604 0.14850 0.19293
 O181 O 0.51136 0.11859 0.85123
 O182 O 0.46128 0.16694 0.88023
 O183 O 0.45732 0.12756 0.84501
 O184 O 0.51499 0.15721 0.88651
 O185 O 0.52385 0.18432 0.85165
 O186 O 0.46606 0.15490 0.81033
 O187 O 0.47015 0.19376 0.84511
 O188 O 0.51979 0.14551 0.81610
 Cu189 Cu 0.48522 0.13985 0.86925
 Cu190 Cu 0.49595 0.17232 0.82730
 C191 C 0.52397 0.12385 0.82857
 C192 C 0.45739 0.18865 0.86770
 C193 C 0.45199 0.13609 0.82057
 C194 C 0.52913 0.17593 0.87617
 O195 O 0.47262 0.84958 0.11537
 O196 O 0.53131 0.87944 0.15556
 O197 O 0.52715 0.84799 0.11231
 O198 O 0.47589 0.88146 0.15808
 O199 O 0.47736 0.84785 0.18719
 O200 O 0.52829 0.81419 0.14120
 O201 O 0.53195 0.84526 0.18393
 O202 O 0.47330 0.81566 0.14407
 Cu203 Cu 0.50167 0.86812 0.13257
 Cu204 Cu 0.50259 0.82733 0.16696
 C205 C 0.46338 0.82726 0.12260
 C206 C 0.54163 0.86736 0.17656
 C207 C 0.53628 0.82536 0.11886
 C208 C 0.46818 0.87046 0.18060
 O209 O 0.86794 0.52804 0.81806
 O210 O 0.83441 0.47966 0.86397
 O211 O 0.86641 0.47717 0.82034
 O212 O 0.83330 0.53104 0.86088
 O213 O 0.79679 0.53066 0.83172
 O214 O 0.82859 0.47599 0.79290
 O215 O 0.79630 0.47970 0.83687
 O216 O 0.83082 0.52684 0.78970
 Cu217 Cu 0.85422 0.50421 0.84373
 Cu218 Cu 0.80935 0.50316 0.81006
 C219 C 0.85532 0.53538 0.79587
 C220 C 0.80976 0.47138 0.85823
 C221 C 0.85291 0.46740 0.79971
 C222 C 0.80945 0.54015 0.85288
 O223 O 0.11400 0.52754 0.15353
 O224 O 0.16348 0.47723 0.12835
 O225 O 0.11641 0.47682 0.15592
 O226 O 0.16155 0.52811 0.12509
 O227 O 0.18550 0.53113 0.16482
 O228 O 0.14096 0.47961 0.19530
 O229 O 0.18825 0.48033 0.16759
 O230 O 0.13862 0.53050 0.19287
 Cu231 Cu 0.13644 0.50227 0.13668
 Cu232 Cu 0.16576 0.50569 0.18413
 C233 C 0.11775 0.53737 0.17765
 C234 C 0.18423 0.47020 0.14366
 C235 C 0.12106 0.46948 0.18090
 C236 C 0.18133 0.53819 0.13969
 O237 O 0.81228 0.51970 0.15000
 O238 O 0.85157 0.46827 0.18798
 O239 O 0.81157 0.46859 0.14920
 O240 O 0.85113 0.51927 0.18856
 O241 O 0.81842 0.51832 0.22137
 O242 O 0.77872 0.46852 0.18187
 O243 O 0.81812 0.46729 0.22005
 O244 O 0.77944 0.51955 0.18269
 Cu245 Cu 0.83495 0.49383 0.16561
 Cu246 Cu 0.79539 0.49336 0.20476
 C247 C 0.78932 0.52855 0.16001
 C248 C 0.84161 0.45917 0.21059
 C249 C 0.78823 0.46016 0.15877
 C250 C 0.84136 0.52740 0.21172
 O251 O 0.12938 0.46867 0.83074
 O252 O 0.15809 0.51894 0.87824
 O253 O 0.12009 0.51852 0.83872
 O254 O 0.16756 0.46911 0.87023
 O255 O 0.20046 0.47846 0.83919
 O256 O 0.15276 0.52759 0.80737
 O257 O 0.19102 0.52825 0.84723
 O258 O 0.16254 0.47757 0.79982
 Cu259 Cu 0.14048 0.49285 0.85758
 Cu260 Cu 0.17996 0.50403 0.82027
 C261 C 0.14114 0.46440 0.80734
 C262 C 0.17950 0.53213 0.87083
 C263 C 0.12834 0.53146 0.81765
 C264 C 0.19203 0.46530 0.86004
 C265 C 0.27218 0.35268 0.03722
 C266 C 0.27902 0.36851 0.06003
 C267 C 0.25779 0.38529 0.07346
 N268 N 0.26489 0.39962 0.09635
 N269 N 0.24608 0.41567 0.10806
 C270 C 0.21953 0.41799 0.09719
 N271 N 0.21243 0.40363 0.07434
 N272 N 0.23120 0.38753 0.06270
 C273 C 0.19891 0.43639 0.10899
 C274 C 0.20418 0.45033 0.13351
 H275 H 0.30071 0.36954 0.06748
 H276 H 0.17913 0.43929 0.09775
 H277 H 0.25041 0.35181 0.03005
 H278 H 0.22340 0.44677 0.14543
 C279 C 0.73523 0.65218 0.03833
 C280 C 0.72513 0.64100 0.06293
 C281 C 0.74091 0.62062 0.07826
 N282 N 0.72966 0.60990 0.10164
 N283 N 0.74339 0.59102 0.11546
 C284 C 0.76887 0.58215 0.10636
 N285 N 0.78014 0.59291 0.08302
 N286 N 0.76642 0.61179 0.06921
 C287 C 0.78419 0.56114 0.12116
 C288 C 0.77379 0.54952 0.14538
 H289 H 0.70441 0.64649 0.07062
 H290 H 0.80426 0.55467 0.11269
 H291 H 0.75550 0.64586 0.03025
 H292 H 0.75385 0.55609 0.15405
 C293 C 0.70249 0.37117 0.96483
 C294 C 0.72207 0.36658 0.94378
 C295 C 0.73425 0.38809 0.92749
 N296 N 0.75993 0.38509 0.91536
 N297 N 0.77092 0.40429 0.90003
 C298 C 0.75641 0.42701 0.89592
 N299 N 0.73054 0.42988 0.90772
 N300 N 0.71972 0.41082 0.92339
 C301 C 0.76818 0.44800 0.87857
 C302 C 0.79729 0.45138 0.87634
 H303 H 0.72903 0.34671 0.93957
 H304 H 0.75384 0.46165 0.86837
 H305 H 0.69763 0.39109 0.97113
 H306 H 0.81146 0.43949 0.88900
 C307 C 0.29566 0.63749 0.96454
 C308 C 0.26638 0.63430 0.96322
 C309 C 0.25320 0.61666 0.94255
 N310 N 0.22569 0.60948 0.94522
 N311 N 0.21388 0.59290 0.92700
 C312 C 0.22912 0.58304 0.90537
 N313 N 0.25650 0.59047 0.90253
 N314 N 0.26834 0.60689 0.92082
 C315 C 0.21672 0.56433 0.88536
 C316 C 0.19090 0.55201 0.89010
 H317 H 0.25298 0.64429 0.97816
 H318 H 0.22893 0.55921 0.86703
 H319 H 0.30868 0.62845 0.94861
 H320 H 0.17922 0.55625 0.90900
 C321 C 0.03156 0.29557 0.37597
 C322 C 0.05079 0.27628 0.36801
 C323 C 0.06728 0.26136 0.38874
 N324 N 0.07593 0.23655 0.38296
 N325 N 0.09145 0.22310 0.40143
 C326 C 0.09928 0.23419 0.42615
 N327 N 0.09092 0.25911 0.43177
 N328 N 0.07503 0.27239 0.41350
 C329 C 0.11719 0.21994 0.44628
 C330 C 0.11593 0.19280 0.44904
 H331 H 0.05307 0.27147 0.34606
 H332 H 0.13035 0.23121 0.46052
 H333 H 0.02662 0.29829 0.39788
 H334 H 0.10027 0.18177 0.43730
 C335 C 0.03102 0.70907 0.62933
 C336 C 0.04993 0.72900 0.63612
 C337 C 0.06496 0.74354 0.61430
 N338 N 0.07238 0.76895 0.61848
 N339 N 0.08629 0.78214 0.59884
 C340 C 0.09361 0.77024 0.57449
 N341 N 0.08650 0.74475 0.57047
 N342 N 0.07222 0.73169 0.58992
 C343 C 0.10999 0.78414 0.55316
 C344 C 0.10766 0.81110 0.54915
 H345 H 0.05261 0.73486 0.65776
 H346 H 0.12321 0.77265 0.53930
 H347 H 0.02574 0.70523 0.60762
 H348 H 0.09204 0.82225 0.56068
 C349 C 0.95343 0.71673 0.34975
 C350 C 0.95478 0.74375 0.35389
 C351 C 0.93595 0.75700 0.37376
 N352 N 0.94016 0.78258 0.38043
 N353 N 0.92371 0.79443 0.39917
 C354 C 0.90246 0.78112 0.41182
 N355 N 0.89813 0.75564 0.40496
 N356 N 0.91460 0.74378 0.38633
 C357 C 0.88444 0.79349 0.43294
 C358 C 0.88948 0.81861 0.44325
 H359 H 0.97046 0.75527 0.34299
 H360 H 0.86710 0.78206 0.44122
 H361 H 0.93646 0.70571 0.35931
 H362 H 0.90704 0.83001 0.43542
 C363 C 0.96395 0.27893 0.65215
 C364 C 0.96698 0.25181 0.64968
 C365 C 0.94826 0.23656 0.63111
 N366 N 0.95496 0.21151 0.62404
 N367 N 0.93864 0.19806 0.60625
 C368 C 0.91497 0.20919 0.59504
 N369 N 0.90813 0.23408 0.60239
 N370 N 0.92449 0.24753 0.62002
 C371 C 0.89704 0.19534 0.57466
 C372 C 0.90454 0.17147 0.56250
 H373 H 0.98413 0.24186 0.66051
 H374 H 0.87780 0.20515 0.56787
 H375 H 0.94587 0.28846 0.64242
 H376 H 0.92398 0.16169 0.56869
 C377 C 0.35657 0.02747 0.27301
 C378 C 0.37366 0.04847 0.28113
 C379 C 0.39174 0.06270 0.26135
 N380 N 0.40487 0.08500 0.26974
 N381 N 0.42109 0.09838 0.25214
 C382 C 0.42490 0.08993 0.22547
 N383 N 0.41193 0.06749 0.21710
 N384 N 0.39556 0.05416 0.23469
 C385 C 0.44300 0.10458 0.20599
 C386 C 0.45328 0.12940 0.21277
 H387 H 0.37377 0.05497 0.30269
 H388 H 0.44824 0.09576 0.18606
 H389 H 0.35738 0.02076 0.25153
 H390 H 0.44712 0.13845 0.23233
 C391 C 0.62806 0.03052 0.70979
 C392 C 0.62785 0.03458 0.73860
 C393 C 0.60752 0.05260 0.75169
 N394 N 0.60480 0.05325 0.77993
 N395 N 0.58692 0.07005 0.79194
 C396 C 0.57133 0.08694 0.77612
 N397 N 0.57417 0.08637 0.74793
 N398 N 0.59185 0.06946 0.73593
 C399 C 0.55206 0.10609 0.78886
 C400 C 0.54354 0.10447 0.81663
 H401 H 0.64358 0.02506 0.75174
 H402 H 0.54360 0.12151 0.77562
 H403 H 0.61328 0.04128 0.69667
 H404 H 0.55039 0.08814 0.82951
 C405 C 0.34467 0.96281 0.73587
 C406 C 0.36172 0.94191 0.72737
 C407 C 0.38035 0.92738 0.74670
 N408 N 0.39364 0.90538 0.73766
 N409 N 0.41107 0.89217 0.75455
 C410 C 0.41601 0.90051 0.78113
 N411 N 0.40279 0.92259 0.79018
 N412 N 0.38521 0.93576 0.77331
 C413 C 0.43595 0.88636 0.79959
 C414 C 0.44696 0.86198 0.79205
 H415 H 0.36184 0.93613 0.70556
 H416 H 0.44230 0.89537 0.81918
 H417 H 0.34473 0.96833 0.75772
 H418 H 0.43966 0.85268 0.77294
 C419 C 0.67009 0.97389 0.25439
 C420 C 0.65868 0.94906 0.25894
 C421 C 0.63815 0.93696 0.23957
 N422 N 0.62729 0.91304 0.24557
 N423 N 0.60797 0.90212 0.22884
 C424 C 0.59873 0.91472 0.20546
 N425 N 0.60967 0.93862 0.19937
 N426 N 0.62903 0.94955 0.21612
 C427 C 0.57673 0.90313 0.18729
 C428 C 0.56485 0.87877 0.19316
 H429 H 0.66375 0.93862 0.27805
 H430 H 0.56936 0.91422 0.16933
 H431 H 0.66416 0.98446 0.23560
 H432 H 0.57241 0.86771 0.21106
 C433 C 0.35481 0.28914 0.98148
 C434 C 0.35828 0.28620 0.95256
 C435 C 0.37694 0.26587 0.94084
 N436 N 0.38276 0.26584 0.91310
 N437 N 0.39906 0.24719 0.90207
 C438 C 0.40996 0.22776 0.91835
 N439 N 0.40400 0.22769 0.94607
 N440 N 0.38781 0.24640 0.95712
 C441 C 0.42797 0.20705 0.90648
 C442 C 0.43811 0.20846 0.87924
 H443 H 0.34771 0.29887 0.93772
 H444 H 0.43422 0.19084 0.91981
 H445 H 0.36886 0.27754 0.99440
 H446 H 0.43292 0.22528 0.86634
 C447 C 0.66928 0.72723 0.97626
 C448 C 0.66076 0.72478 0.94826
 C449 C 0.64131 0.74358 0.93468
 N450 N 0.63158 0.73848 0.90850
 N451 N 0.61283 0.75435 0.89626
 C452 C 0.60302 0.77600 0.90970
 N453 N 0.61297 0.78131 0.93582
 N454 N 0.63174 0.76537 0.94811
 C455 C 0.58135 0.79298 0.89657
 C456 C 0.56865 0.78595 0.87125
 H457 H 0.66588 0.70749 0.93624
 H458 H 0.57460 0.81059 0.90736
 H459 H 0.66222 0.74462 0.98712
 H460 H 0.57519 0.76799 0.86100
 C461 C 0.35737 0.70572 0.03794
 C462 C 0.36865 0.73034 0.03160
 C463 C 0.38451 0.74581 0.05249
 N464 N 0.39256 0.77070 0.04647
 N465 N 0.40746 0.78471 0.06493
 C466 C 0.41487 0.77433 0.09012
 N467 N 0.40680 0.74947 0.09614
 N468 N 0.39187 0.73548 0.07771
 C469 C 0.43255 0.78899 0.11020
 C470 C 0.44170 0.81450 0.10507
 H471 H 0.36448 0.73951 0.01164
 H472 H 0.43973 0.77887 0.12888
 H473 H 0.35808 0.69988 0.05974
 H474 H 0.43432 0.82475 0.08656
 C475 C 0.63638 0.29017 0.01763
 C476 C 0.64259 0.27815 0.04316
 C477 C 0.62319 0.25942 0.05637
 N478 N 0.62624 0.25385 0.08395
 N479 N 0.60858 0.23736 0.09648
 C480 C 0.58739 0.22556 0.08184
 N481 N 0.58463 0.23076 0.05411
 N482 N 0.60214 0.24748 0.04162
 C483 C 0.56724 0.20807 0.09592
 C484 C 0.56257 0.21037 0.12454
 H485 H 0.66204 0.28277 0.05419
 H486 H 0.55454 0.19470 0.08350
 H487 H 0.61679 0.28512 0.00703
 H488 H 0.57348 0.22557 0.13621
 C489 C 0.27592 0.01726 0.65461
 C490 C 0.27536 0.04453 0.65078
 C491 C 0.25685 0.05731 0.62989
 N492 N 0.26079 0.08299 0.62364
 N493 N 0.24399 0.09508 0.60521
 C494 C 0.22245 0.08200 0.59246
 N495 N 0.21836 0.05635 0.59884
 N496 N 0.23527 0.04421 0.61718
 C497 C 0.20367 0.09525 0.57214
 C498 C 0.21002 0.11997 0.56146
 H499 H 0.28953 0.05727 0.66222
 H500 H 0.18496 0.08500 0.56480
 H501 H 0.26401 0.00601 0.63949
 H502 H 0.22951 0.12955 0.56773
 C503 C 0.74227 0.02361 0.33591
 C504 C 0.74359 0.05042 0.34233
 C505 C 0.76273 0.06047 0.36433
 N506 N 0.76084 0.08589 0.37256
 N507 N 0.77782 0.09518 0.39259
 C508 C 0.79744 0.07945 0.40507
 N509 N 0.79950 0.05410 0.39669
 N510 N 0.78244 0.04478 0.37674
 C511 C 0.81609 0.08938 0.42747
 C512 C 0.81190 0.11397 0.43947
 H513 H 0.73068 0.06475 0.33160
 H514 H 0.83285 0.07675 0.43526
 H515 H 0.75604 0.01120 0.34825
 H516 H 0.79448 0.12615 0.43230
 C517 C 0.71757 0.97909 0.64837
 C518 C 0.71654 0.95243 0.64178
 C519 C 0.73781 0.93996 0.62373
 N520 N 0.73490 0.91443 0.61630
 N521 N 0.75366 0.90304 0.59947
 C522 C 0.77604 0.91676 0.58950
 N523 N 0.77905 0.94225 0.59707
 N524 N 0.76029 0.95365 0.61388
 C525 C 0.79639 0.90474 0.57016
 C526 C 0.79322 0.87914 0.56047
 H527 H 0.69912 0.94046 0.64887
 H528 H 0.81367 0.91667 0.56260
 H529 H 0.73424 0.99051 0.63913
 H530 H 0.77583 0.86726 0.56788
 C531 C 0.27506 0.97870 0.34499
 C532 C 0.26902 0.95180 0.34578
 C533 C 0.24953 0.94043 0.36639
 N534 N 0.24994 0.91419 0.37102
 N535 N 0.23272 0.90346 0.38972
 C536 C 0.21425 0.91852 0.40438
 N537 N 0.21356 0.94475 0.39950
 N538 N 0.23095 0.95553 0.38091
 C539 C 0.19542 0.90675 0.42533
 C540 C 0.20063 0.88172 0.43589
 H541 H 0.27988 0.93796 0.33255
 H542 H 0.17799 0.91829 0.43340
 H543 H 0.26547 0.99027 0.36129
 H544 H 0.21922 0.87104 0.42909
 C545 C 0.02873 0.35169 0.71981
 C546 C 0.05782 0.35207 0.72523
 C547 C 0.07012 0.37285 0.74292
 N548 N 0.09819 0.37844 0.74178
 N549 N 0.10916 0.39744 0.75768
 C550 C 0.09247 0.41131 0.77547
 N551 N 0.06454 0.40546 0.77685
 N552 N 0.05356 0.38668 0.76080
 C553 C 0.10400 0.43209 0.79349
 C554 C 0.13013 0.44379 0.78873
 H555 H 0.07180 0.33723 0.71688
 H556 H 0.09094 0.43903 0.81053
 H557 H 0.01650 0.36798 0.72784
 H558 H 0.14252 0.43811 0.77071
 C559 C 0.02486 0.65570 0.27863
 C560 C 0.01951 0.63085 0.26741
 C561 C 0.04134 0.61626 0.25212
 N562 N 0.03378 0.59604 0.23523
 N563 N 0.05340 0.58227 0.22170
 C564 C 0.08130 0.58809 0.22482
 N565 N 0.08888 0.60816 0.24189
 N566 N 0.06924 0.62212 0.25517
 C567 C 0.10315 0.57212 0.21133
 C568 C 0.09708 0.55630 0.18835
 H569 H -0.00010 0.62066 0.27087
 H570 H 0.12447 0.57264 0.21986
 H571 H 0.04640 0.66280 0.27669
 H572 H 0.07647 0.55743 0.17829
 C573 C 0.97389 0.36626 0.29991
 C574 C 0.94660 0.36194 0.28946
 C575 C 0.93131 0.38127 0.27225
 N576 N 0.90292 0.37886 0.26855
 N577 N 0.88856 0.39617 0.25312
 C578 C 0.90212 0.41639 0.24056
 N579 N 0.93059 0.41863 0.24397
 N580 N 0.94493 0.40145 0.25964
 C581 C 0.88642 0.43566 0.22360
 C582 C 0.85725 0.43901 0.22630
 H583 H 0.93568 0.34387 0.29418
 H584 H 0.89822 0.44847 0.20990
 H585 H 0.98448 0.38438 0.29468
 H586 H 0.84584 0.42774 0.24175
 C587 C 0.97775 0.63643 0.70310
 C588 C 0.94867 0.63529 0.70886
 C589 C 0.93597 0.61495 0.72651
 N590 N 0.90735 0.61314 0.72782
 N591 N 0.89516 0.59541 0.74418
 C592 C 0.91114 0.57892 0.76003
 N593 N 0.93980 0.58077 0.75885
 N594 N 0.95202 0.59843 0.74232
 C595 C 0.89780 0.55971 0.77866
 C596 C 0.86894 0.55410 0.77696
 H597 H 0.93409 0.65003 0.70136
 H598 H 0.91103 0.54948 0.79372
 H599 H 0.99070 0.62119 0.71227
 H600 H 0.85604 0.56313 0.76078
 C601 C 0.73322 0.64898 0.97695
 C602 C 0.74214 0.65079 0.94919
 C603 C 0.75791 0.62943 0.93542
 N604 N 0.75957 0.62873 0.90711
 N605 N 0.77359 0.60949 0.89430
 C606 C 0.78678 0.59036 0.90931
 N607 N 0.78548 0.59126 0.93766
 N608 N 0.77120 0.61036 0.95047
 C609 C 0.80199 0.56881 0.89524
 C610 C 0.79594 0.56220 0.86755
 H611 H 0.73756 0.66810 0.93692
 H612 H 0.81682 0.55703 0.90723
 H613 H 0.73820 0.63109 0.98811
 H614 H 0.77929 0.57269 0.85652
 C615 C 0.27542 0.35246 0.97616
 C616 C 0.27732 0.35755 0.94743
 C617 C 0.25770 0.37610 0.93362
 N618 N 0.26394 0.38609 0.90809
 N619 N 0.24683 0.40361 0.89596
 C620 C 0.22278 0.41170 0.90888
 N621 N 0.21636 0.40145 0.93420
 N622 N 0.23352 0.38405 0.94637
 C623 C 0.20381 0.43135 0.89615
 C624 C 0.21102 0.44539 0.87226
 H625 H 0.29454 0.34995 0.93504
 H626 H 0.18387 0.43536 0.90643
 H627 H 0.25922 0.36336 0.98696
 H628 H 0.23126 0.44194 0.86236
 C629 C 0.28836 0.63546 0.02644
 C630 C 0.28021 0.63524 0.05460
 C631 C 0.25999 0.61603 0.06581
 N632 N 0.25515 0.61527 0.09374
 N633 N 0.23671 0.59833 0.10437
 C634 C 0.22222 0.58159 0.08745
 N635 N 0.22691 0.58243 0.05948
 N636 N 0.24548 0.59931 0.04884
 C637 C 0.20191 0.56267 0.09904
 C638 C 0.20006 0.55818 0.12774
 H639 H 0.28763 0.64983 0.06923
 H640 H 0.18904 0.55129 0.08467
 H641 H 0.27937 0.62025 0.01343
 H642 H 0.21400 0.56864 0.14195
 C643 C 0.70502 0.36403 0.02544
 C644 C 0.70491 0.36548 0.05472
 C645 C 0.72395 0.38320 0.07034
 N646 N 0.72054 0.38639 0.09829
 N647 N 0.73744 0.40239 0.11277
 C648 C 0.75852 0.41572 0.09986
 N649 N 0.76208 0.41239 0.07194
 N650 N 0.74511 0.39645 0.05744
 C651 C 0.77700 0.43385 0.11557
 C652 C 0.77148 0.44063 0.14326
 H653 H 0.69016 0.35433 0.06705
 H654 H 0.79457 0.44286 0.10477
 H655 H 0.71931 0.37726 0.01494
 H656 H 0.75326 0.43233 0.15363
 C657 C 0.96738 0.70792 0.63660
 C658 C 0.97288 0.73309 0.62641
 C659 C 0.95120 0.74799 0.61078
 N660 N 0.95585 0.77340 0.60378
 N661 N 0.93635 0.78699 0.58958
 C662 C 0.91147 0.77562 0.58188
 N663 N 0.90687 0.75023 0.58884
 N664 N 0.92633 0.73668 0.60305
 C665 C 0.89002 0.78987 0.56542
 C666 C 0.89339 0.81588 0.55724
 H667 H 0.99234 0.74312 0.63153
 H668 H 0.87144 0.77911 0.55863
 H669 H 0.94575 0.70105 0.63448
 H670 H 0.91182 0.82681 0.56410
 C671 C 0.96815 0.29768 0.37324
 C672 C 0.97201 0.27080 0.37710
 C673 C 0.95282 0.25500 0.39432
 N674 N 0.95759 0.22891 0.39734
 N675 N 0.94046 0.21431 0.41291
 C676 C 0.91787 0.22525 0.42599
 N677 N 0.91306 0.25134 0.42293
 N678 N 0.93021 0.26596 0.40738
 C679 C 0.89904 0.20945 0.44364
 C680 C 0.90409 0.18292 0.44864
 H681 H 0.98921 0.26084 0.36661
 H682 H 0.88128 0.21913 0.45356
 H683 H 0.94953 0.30708 0.38184
 H684 H 0.92209 0.17335 0.43904
 C685 C 0.02674 0.28061 0.64767
 C686 C 0.05614 0.27708 0.64565
 C687 C 0.06855 0.25810 0.62581
 N688 N 0.09697 0.25755 0.62168
 N689 N 0.10848 0.24014 0.60426
 C690 C 0.09200 0.22245 0.59049
 N691 N 0.06362 0.22289 0.59476
 N692 N 0.05211 0.24038 0.61204
 C693 C 0.10427 0.20300 0.57120
 C694 C 0.13220 0.20443 0.56203
 H695 H 0.07078 0.28732 0.65918
 H696 H 0.09052 0.18779 0.56302
 H697 H 0.01421 0.26984 0.63266
 H698 H 0.14555 0.22044 0.56900
 C699 C 0.01650 0.72305 0.35124
 C700 C 0.04317 0.73423 0.34737
 C701 C 0.05582 0.75190 0.36831
 N702 N 0.08416 0.75631 0.36838
 N703 N 0.09585 0.77233 0.38720
 C704 C 0.07957 0.78478 0.40644
 N705 N 0.05119 0.78064 0.40614
 N706 N 0.03954 0.76440 0.38752
 C707 C 0.09210 0.80266 0.42722
 C708 C 0.12068 0.80149 0.43456
 H709 H 0.05523 0.73020 0.32871
 H710 H 0.07819 0.81611 0.43809
 H711 H 0.00560 0.72731 0.37056
 H712 H 0.13412 0.78652 0.42549
 C713 C 0.64086 0.97355 0.71993
 C714 C 0.63647 0.94668 0.71608
 C715 C 0.61963 0.93099 0.73572
 N716 N 0.61368 0.90554 0.72980
 N717 N 0.59832 0.89117 0.74733
 C718 C 0.58846 0.90172 0.77149
 N719 N 0.59455 0.92712 0.77747
 N720 N 0.60984 0.94149 0.75993
 C721 C 0.57098 0.88648 0.79092
 C722 C 0.56165 0.86111 0.78506
 H723 H 0.64478 0.93690 0.69777
 H724 H 0.56430 0.89605 0.81002
 H725 H 0.63032 0.98297 0.73721
 H726 H 0.56779 0.85157 0.76577
 C727 C 0.34320 0.97027 0.26955
 C728 C 0.37243 0.97085 0.26519
 C729 C 0.38664 0.95231 0.24634
 N730 N 0.41302 0.94343 0.25270
 N731 N 0.42657 0.92729 0.23538
 C732 C 0.41443 0.91980 0.21082
 N733 N 0.38817 0.92893 0.20428
 N734 N 0.37439 0.94473 0.22185
 C735 C 0.43007 0.90332 0.19090
 C736 C 0.44935 0.88439 0.19999
 H737 H 0.38570 0.98341 0.27799
 H738 H 0.42619 0.90596 0.16872
 H739 H 0.33182 0.95341 0.26145
 H740 H 0.45074 0.87967 0.22205
 C741 C 0.66360 0.03015 0.26605
 C742 C 0.66456 0.05726 0.26201
 C743 C 0.64163 0.07113 0.24716
 N744 N 0.63952 0.09765 0.24870
 N745 N 0.61880 0.11030 0.23519
 C746 C 0.59963 0.09685 0.21949
 N747 N 0.60192 0.07039 0.21777
 N748 N 0.62245 0.05775 0.23143
 C749 C 0.57696 0.11024 0.20394
 C750 C 0.56912 0.13617 0.20902
 H751 H 0.68234 0.06870 0.26944
 H752 H 0.56535 0.09888 0.18852
 H753 H 0.64511 0.01983 0.25838
 H754 H 0.57931 0.14721 0.22562
 C755 C 0.33942 0.02035 0.73679
 C756 C 0.34289 0.04765 0.73606
 C757 C 0.36130 0.06150 0.75618
 N758 N 0.36881 0.08672 0.75122
 N759 N 0.38625 0.09928 0.76864
 C760 C 0.39672 0.08712 0.79179
 N761 N 0.38891 0.06201 0.79697
 N762 N 0.37157 0.04940 0.77946
 C763 C 0.41688 0.10041 0.81061
 C764 C 0.42958 0.12407 0.80340
 H765 H 0.33419 0.05936 0.71926
 H766 H 0.42311 0.09057 0.82977
 H767 H 0.35146 0.01026 0.75274
 H768 H 0.42420 0.13336 0.78369
 C769 C 0.66865 0.72673 0.03879
 C770 C 0.63982 0.73139 0.03441
 C771 C 0.62305 0.74756 0.05369
 N772 N 0.59914 0.75969 0.04446
 N773 N 0.58352 0.77407 0.06183
 C774 C 0.59106 0.77658 0.08918
 N775 N 0.61479 0.76421 0.09849
 N776 N 0.63062 0.75011 0.08103
 C777 C 0.57336 0.79151 0.10878
 C778 C 0.55572 0.81179 0.09977
 H779 H 0.62918 0.72319 0.01628
 H780 H 0.57475 0.78687 0.13086
 H781 H 0.67848 0.73427 0.05770
 H782 H 0.55644 0.81816 0.07818
 C783 C 0.35637 0.29659 0.04290
 C784 C 0.35811 0.26963 0.04710
 C785 C 0.37795 0.25816 0.06756
 N786 N 0.38189 0.23182 0.06839
 N787 N 0.40015 0.22123 0.08652
 C788 C 0.41502 0.23658 0.10462
 N789 N 0.41086 0.26290 0.10400
 N790 N 0.39270 0.27350 0.08577
 C791 C 0.43594 0.22519 0.12409
 C792 C 0.44489 0.19929 0.12144
 H793 H 0.34480 0.25665 0.03483
 H794 H 0.44569 0.23780 0.13964
 H795 H 0.36861 0.30967 0.05611
 H796 H 0.43605 0.18713 0.10497
 C797 C 0.63967 0.29537 0.95509
 C798 C 0.63701 0.26824 0.95754
 C799 C 0.61909 0.25311 0.93812
 N800 N 0.61208 0.22796 0.94417
 N801 N 0.59489 0.21448 0.92727
 C802 C 0.58423 0.22562 0.90361
 N803 N 0.59156 0.25063 0.89739
 N804 N 0.60859 0.26414 0.91436
 C805 C 0.56436 0.21152 0.88524
 C806 C 0.55151 0.18815 0.89322
 H807 H 0.64750 0.25797 0.97451
 H808 H 0.55829 0.22071 0.86566
 H809 H 0.63044 0.30505 0.93701
 H810 H 0.55669 0.17943 0.91327
 C811 C 0.36874 0.70401 0.97545
 C812 C 0.36307 0.72056 0.95294
 C813 C 0.38571 0.73260 0.93646
 N814 N 0.38078 0.75543 0.92271
 N815 N 0.40077 0.76607 0.90682
 C816 C 0.42624 0.75399 0.90371
 N817 N 0.43105 0.73099 0.91720
 N818 N 0.41120 0.72055 0.93344
 C819 C 0.44810 0.76534 0.88566
 C820 C 0.45033 0.79234 0.88224
 H821 H 0.34129 0.72510 0.94751
 H822 H 0.46360 0.75244 0.87620
 H823 H 0.39026 0.70160 0.98304
 H824 H 0.43699 0.80527 0.89446
 C825 C 0.74648 0.96735 0.32579
 C826 C 0.73707 0.94574 0.34087
 C827 C 0.75485 0.93311 0.36235
 N828 N 0.74445 0.91285 0.37749
 N829 N 0.75965 0.90236 0.39826
 C830 C 0.78573 0.91189 0.40474
 N831 N 0.79617 0.93206 0.38953
 N832 N 0.78101 0.94250 0.36874
 C833 C 0.80253 0.90110 0.42802
 C834 C 0.79386 0.87932 0.44328
 H835 H 0.71524 0.93949 0.33875
 H836 H 0.82258 0.91036 0.43297
 H837 H 0.76825 0.97368 0.32803
 H838 H 0.77433 0.86940 0.43779
 C839 C 0.28340 0.95927 0.65242
 C840 C 0.25441 0.95699 0.64743
 C841 C 0.24308 0.93903 0.62601
 N842 N 0.21549 0.94067 0.61811
 N843 N 0.20512 0.92477 0.59843
 C844 C 0.22193 0.90653 0.58604
 N845 N 0.24946 0.90473 0.59413
 N846 N 0.25987 0.92074 0.61368
 C847 C 0.21083 0.88894 0.56417
 C848 C 0.18460 0.89322 0.55147
 H849 H 0.23973 0.96908 0.65910
 H850 H 0.22399 0.87275 0.55733
 H851 H 0.29787 0.94615 0.64181
 H852 H 0.17206 0.91013 0.55743
 C853 C 0.29043 0.03510 0.35200
 C854 C 0.26151 0.04011 0.35469
 C855 C 0.25051 0.05874 0.37559
 N856 N 0.22243 0.05925 0.38150
 N857 N 0.21228 0.07585 0.40056
 C858 C 0.22980 0.09269 0.41428
 N859 N 0.25783 0.09235 0.40817
 N860 N 0.26801 0.07563 0.38927
 C861 C 0.21896 0.11113 0.43544
 C862 C 0.19203 0.10861 0.44688
 H863 H 0.24652 0.02975 0.34147
 H864 H 0.23296 0.12643 0.44297
 H865 H 0.30531 0.04656 0.36426
 H866 H 0.17865 0.09242 0.44048
 C867 C 0.70365 0.03611 0.64066
 C868 C 0.73261 0.04101 0.64239
 C869 C 0.74715 0.05797 0.62225
 N870 N 0.77577 0.05700 0.62028
 N871 N 0.78926 0.07185 0.60176
 C872 C 0.77462 0.08838 0.58468
 N873 N 0.74601 0.08961 0.58689
 N874 N 0.73250 0.07458 0.60525
 C875 C 0.78932 0.10470 0.56403
 C876 C 0.81685 0.09893 0.55568
 H877 H 0.74517 0.03142 0.65846
 H878 H 0.77793 0.12085 0.55442
 H879 H 0.69080 0.04684 0.62567
 H880 H 0.82742 0.08168 0.56392
 C881 C 0.96005 0.65121 0.27504
 C882 C 0.93804 0.63539 0.28450
 C883 C 0.92301 0.61642 0.26666
 N884 N 0.90105 0.60274 0.27741
 N885 N 0.88740 0.58503 0.26197
 C886 C 0.89525 0.58023 0.23518
 N887 N 0.91727 0.59390 0.22438
 N888 N 0.93092 0.61170 0.23983
 C889 C 0.88041 0.56041 0.21813
 C890 C 0.85649 0.54747 0.22802
 H891 H 0.93204 0.63629 0.30632
 H892 H 0.88834 0.55606 0.19742
 H893 H 0.96663 0.65006 0.25341
 H894 H 0.84822 0.55239 0.24844
 C895 C 0.96755 0.34572 0.72648
 C896 C 0.94188 0.35791 0.71985
 C897 C 0.92831 0.37700 0.73869
 N898 N 0.90339 0.38834 0.73113
 N899 N 0.89137 0.40641 0.74739
 C900 C 0.90387 0.41388 0.77180
 N901 N 0.92877 0.40249 0.77940
 N902 N 0.94076 0.38438 0.76317
 C903 C 0.89124 0.43441 0.78957
 C904 C 0.86527 0.44602 0.78303
 H905 H 0.93217 0.35455 0.69958
 H906 H 0.90281 0.44068 0.80804
 H907 H 0.97728 0.34964 0.74663
 H908 H 0.85349 0.43937 0.76484
 C909 C 0.04090 0.64107 0.70048
 C910 C 0.03987 0.63609 0.72913
 C911 C 0.05994 0.61787 0.74272
 N912 N 0.05526 0.60948 0.76923
 N913 N 0.07284 0.59237 0.78137
 C914 C 0.09582 0.58310 0.76749
 N915 N 0.10064 0.59169 0.74111
 N916 N 0.08299 0.60867 0.72892
 C917 C 0.11532 0.56395 0.78035
 C918 C 0.10914 0.55113 0.80529
 H919 H 0.02336 0.64495 0.74164
 H920 H 0.13465 0.55920 0.76933
 H921 H 0.05847 0.63334 0.68852
 H922 H 0.08934 0.55513 0.81581
 C923 C 0.03779 0.36264 0.30265
 C924 C 0.03444 0.36836 0.27430
 C925 C 0.05359 0.38671 0.26004
 N926 N 0.04922 0.39303 0.23276
 N927 N 0.06612 0.41011 0.21998
 C928 C 0.08802 0.42147 0.23404
 N929 N 0.09242 0.41506 0.26124
 N930 N 0.07553 0.39804 0.27400
 C931 C 0.10667 0.44076 0.22070
 C932 C 0.10290 0.44917 0.19319
 H933 H 0.01732 0.35951 0.26245
 H934 H 0.12364 0.44900 0.23326
 H935 H 0.05629 0.37004 0.31361
 H936 H 0.08596 0.44106 0.18050
   
