data_POSCAR
  _audit_creation_date              2014-09-24
  _audit_creation_method            'ToBaCCo'
  _symmetry_space_group_name_H-M    'P1'
  _symmetry_Int_Tables_number       1
  _symmetry_cell_setting            triclinic
  loop_
  _symmetry_equiv_pos_as_xyz
 x,y,z
_cell_length_a 67.5265
_cell_length_b 67.4673
_cell_length_c 39.0140
_cell_angle_alpha 89.998400
_cell_angle_beta 89.927000
_cell_angle_gamma 90.002600
loop_
  _atom_site_label
  _atom_site_type_symbol
  _atom_site_fract_x
  _atom_site_fract_y
  _atom_site_fract_z
C1 C -0.00059 0.26418 -0.01665
 C2 C -0.00018 0.26417 0.01831
 C3 C -0.01867 0.26503 0.03898
 C4 C 0.01873 0.26283 0.03759
 C5 C 0.01789 0.26505 -0.03732
 C6 C -0.01951 0.26286 -0.03593
 C7 C -0.03258 0.28019 0.03399
 C8 C -0.05032 0.28033 0.05247
 C9 C -0.05454 0.26534 0.07674
 C10 C -0.04008 0.25054 0.08231
 C11 C -0.02240 0.25046 0.06371
 C12 C 0.02336 0.27718 0.06231
 C13 C 0.04127 0.27628 0.08016
 C14 C 0.05486 0.26089 0.07380
 C15 C 0.04996 0.24629 0.04949
 C16 C 0.03203 0.24720 0.03171
 C17 C 0.02160 0.25047 -0.06212
 C18 C 0.03928 0.25060 -0.08074
 C19 C 0.05357 0.26541 -0.07507
 C20 C 0.04955 0.28034 -0.05085
 C21 C 0.03183 0.28021 -0.03228
 C22 C -0.03282 0.24723 -0.03009
 C23 C -0.05072 0.24632 -0.04793
 C24 C -0.05559 0.26093 -0.07226
 C25 C -0.04200 0.27632 -0.07856
 C26 C -0.02411 0.27721 -0.06066
 H27 H -0.02977 0.29182 0.01548
 H28 H -0.06074 0.29217 0.04735
 H29 H -0.04240 0.23876 0.10075
 H30 H -0.01177 0.23871 0.06811
 H31 H 0.01321 0.28926 0.06741
 H32 H 0.04450 0.28772 0.09878
 H33 H 0.02855 0.23574 0.01323
 H34 H 0.01098 0.23872 -0.06653
 H35 H 0.04182 0.23893 -0.09928
 H36 H 0.06014 0.29204 -0.04600
 H37 H 0.02907 0.29182 -0.01372
 H38 H -0.02935 0.23577 -0.01161
 H39 H -0.06075 0.23419 -0.04258
 H40 H -0.04520 0.28776 -0.09720
 H41 H -0.01396 0.28930 -0.06572
 H42 H 0.05998 0.23416 0.04410
 C43 C 0.49970 0.76580 0.48293
 C44 C 0.50022 0.76581 0.51788
 C45 C 0.48181 0.76670 0.53871
 C46 C 0.51919 0.76445 0.53700
 C47 C 0.51812 0.76668 0.46210
 C48 C 0.48073 0.76443 0.46382
 C49 C 0.46786 0.78187 0.53377
 C50 C 0.45018 0.78200 0.55244
 C51 C 0.44620 0.76707 0.57668
 C52 C 0.46051 0.75227 0.58228
 C53 C 0.47815 0.75213 0.56355
 C54 C 0.52389 0.77877 0.56173
 C55 C 0.54182 0.77781 0.57950
 C56 C 0.55535 0.76239 0.57306
 C57 C 0.55039 0.74783 0.54872
 C58 C 0.53245 0.74880 0.53100
 C59 C 0.52176 0.75210 0.43727
 C60 C 0.53939 0.75223 0.41851
 C61 C 0.55370 0.76703 0.42408
 C62 C 0.54974 0.78197 0.44831
 C63 C 0.53207 0.78184 0.46701
 C64 C 0.46747 0.74879 0.46984
 C65 C 0.44953 0.74782 0.45212
 C66 C 0.44457 0.76237 0.42774
 C67 C 0.45811 0.77778 0.42129
 C68 C 0.47604 0.77874 0.43906
 H69 H 0.47059 0.79347 0.51517
 H70 H 0.43958 0.79371 0.54764
 H71 H 0.45800 0.74060 0.60083
 H72 H 0.48878 0.74038 0.56789
 H73 H 0.51377 0.79086 0.56691
 H74 H 0.54509 0.78922 0.59816
 H75 H 0.52891 0.73736 0.51252
 H76 H 0.51113 0.74035 0.43295
 H77 H 0.54189 0.74056 0.39996
 H78 H 0.56034 0.79368 0.45308
 H79 H 0.52935 0.79345 0.48560
 H80 H 0.47101 0.73736 0.48834
 H81 H 0.43954 0.73567 0.45759
 H82 H 0.45484 0.78918 0.40261
 H83 H 0.48616 0.79084 0.43387
 H84 H 0.56038 0.73567 0.54326
 C85 C 1.00048 0.73498 -0.01796
 C86 C 0.99999 0.73497 0.01699
 C87 C 1.01842 0.73411 0.03772
 C88 C 0.98103 0.73631 0.03622
 C89 C 0.98205 0.73412 -0.03868
 C90 C 1.01944 0.73636 -0.03718
 C91 C 1.03238 0.71896 0.03271
 C92 C 1.05006 0.71885 0.05132
 C93 C 1.05401 0.73377 0.07557
 C94 C 1.03968 0.74856 0.08122
 C95 C 1.02205 0.74868 0.06255
 C96 C 0.97634 0.72197 0.06093
 C97 C 0.95841 0.72290 0.07878
 C98 C 0.94487 0.73832 0.07245
 C99 C 0.94982 0.75291 0.04814
 C100 C 0.96777 0.75197 0.03034
 C101 C 0.97839 0.74872 -0.06346
 C102 C 0.96075 0.74863 -0.08208
 C103 C 0.94643 0.73383 -0.07644
 C104 C 0.95041 0.71887 -0.05227
 C105 C 0.96810 0.71897 -0.03370
 C106 C 1.03269 0.75201 -0.03127
 C107 C 1.05064 0.75298 -0.04902
 C108 C 1.05569 0.73840 -0.07344
 C109 C 1.04207 0.72298 -0.07975
 C110 C 1.02414 0.72204 -0.06191
 H111 H 1.02968 0.70736 0.01412
 H112 H 1.06067 0.70715 0.04649
 H113 H 1.04217 0.76022 0.09978
 H114 H 1.01141 0.76042 0.06694
 H115 H 0.98646 0.70986 0.06601
 H116 H 0.95514 0.71146 0.09742
 H117 H 0.97130 0.76342 0.01187
 H118 H 0.98903 0.76048 -0.06783
 H119 H 0.95824 0.76032 -0.10058
 H120 H 0.93980 0.70717 -0.04744
 H121 H 0.97082 0.70734 -0.01516
 H122 H 1.02913 0.76345 -0.01278
 H123 H 1.06053 0.76520 -0.04345
 H124 H 1.04523 0.71150 -0.09837
 H125 H 1.01402 0.70994 -0.06702
 H126 H 0.93983 0.76507 0.04276
 C127 C 0.50033 0.23499 0.48184
 C128 C 0.49981 0.23495 0.51680
 C129 C 0.51822 0.23404 0.53755
 C130 C 0.48083 0.23627 0.53600
 C131 C 0.48192 0.23409 0.46108
 C132 C 0.51931 0.23637 0.46266
 C133 C 0.53216 0.21888 0.53253
 C134 C 0.54982 0.21871 0.55118
 C135 C 0.55379 0.23361 0.57547
 C136 C 0.53949 0.24842 0.58113
 C137 C 0.52187 0.24859 0.56243
 C138 C 0.47616 0.22192 0.56073
 C139 C 0.45822 0.22283 0.57857
 C140 C 0.44465 0.23822 0.57220
 C141 C 0.44958 0.25280 0.54786
 C142 C 0.46753 0.25189 0.53008
 C143 C 0.47824 0.24867 0.43629
 C144 C 0.46061 0.24852 0.41761
 C145 C 0.44633 0.23368 0.42321
 C146 C 0.45033 0.21874 0.44741
 C147 C 0.46800 0.21889 0.46603
 C148 C 0.53258 0.25200 0.46867
 C149 C 0.55055 0.25296 0.45093
 C150 C 0.55551 0.23841 0.42654
 C151 C 0.54196 0.22302 0.42007
 C152 C 0.52401 0.22207 0.43787
 H153 H 0.52945 0.20729 0.51391
 H154 H 0.56042 0.20700 0.54633
 H155 H 0.54199 0.26006 0.59973
 H156 H 0.51124 0.26034 0.56684
 H157 H 0.48630 0.20985 0.56585
 H158 H 0.45497 0.21140 0.59722
 H159 H 0.47105 0.26334 0.51160
 H160 H 0.48885 0.26045 0.43195
 H161 H 0.45809 0.26020 0.39909
 H162 H 0.43975 0.20701 0.45220
 H163 H 0.47074 0.20727 0.48458
 H164 H 0.52904 0.26342 0.48720
 H165 H 0.56054 0.26509 0.45641
 H166 H 0.54524 0.21162 0.40138
 H167 H 0.51389 0.20999 0.43268
 H168 H 0.43957 0.26494 0.54246
 C169 C 0.73551 -0.00041 -0.01813
 C170 C 0.73555 -0.00004 0.01683
 C171 C 0.73472 -0.01855 0.03743
 C172 C 0.73691 0.01888 0.03618
 C173 C 0.73462 0.01810 -0.03871
 C174 C 0.73685 -0.01933 -0.03749
 C175 C 0.71960 -0.03251 0.03245
 C176 C 0.71950 -0.05026 0.05094
 C177 C 0.73446 -0.05437 0.07513
 C178 C 0.74924 -0.03995 0.08071
 C179 C 0.74931 -0.02226 0.06213
 C180 C 0.72259 0.02350 0.06099
 C181 C 0.72351 0.04140 0.07892
 C182 C 0.73890 0.05499 0.07257
 C183 C 0.75346 0.05010 0.04817
 C184 C 0.75253 0.03218 0.03030
 C185 C 0.74915 0.02184 -0.06357
 C186 C 0.74902 0.03954 -0.08211
 C187 C 0.73425 0.05394 -0.07635
 C188 C 0.71934 0.04980 -0.05201
 C189 C 0.71949 0.03205 -0.03355
 C190 C 0.75249 -0.03260 -0.03178
 C191 C 0.75342 -0.05052 -0.04964
 C192 C 0.73879 -0.05552 -0.07394
 C193 C 0.72338 -0.04186 -0.08006
 C194 C 0.72249 -0.02396 -0.06212
 H195 H 0.70797 -0.02974 0.01396
 H196 H 0.70774 -0.06078 0.04597
 H197 H 0.76096 -0.04235 0.09915
 H198 H 0.76104 -0.01160 0.06652
 H199 H 0.71051 0.01334 0.06607
 H200 H 0.71210 0.04462 0.09761
 H201 H 0.76396 0.02870 0.01175
 H202 H 0.76087 0.01119 -0.06809
 H203 H 0.76071 0.04196 -0.10067
 H204 H 0.70758 0.06032 -0.04690
 H205 H 0.70790 0.02926 -0.01495
 H206 H 0.76396 -0.02909 -0.01338
 H207 H 0.76563 -0.06044 -0.04422
 H208 H 0.71186 -0.04498 -0.09859
 H209 H 0.71039 -0.01382 -0.06707
 H210 H 0.76559 0.06013 0.04278
 C211 C 0.23466 0.49967 0.48308
 C212 C 0.23466 0.50025 0.51803
 C213 C 0.23374 0.48185 0.53890
 C214 C 0.23601 0.51927 0.53711
 C215 C 0.23379 0.51807 0.46221
 C216 C 0.23599 0.48065 0.46400
 C217 C 0.21857 0.46791 0.53403
 C218 C 0.21842 0.45024 0.55273
 C219 C 0.23335 0.44626 0.57691
 C220 C 0.24816 0.46057 0.58244
 C221 C 0.24831 0.47820 0.56369
 C222 C 0.22171 0.52399 0.56187
 C223 C 0.22265 0.54196 0.57961
 C224 C 0.23804 0.55552 0.57311
 C225 C 0.25259 0.55053 0.54873
 C226 C 0.25163 0.53255 0.53104
 C227 C 0.24837 0.52169 0.43737
 C228 C 0.24826 0.53932 0.41861
 C229 C 0.23347 0.55365 0.42417
 C230 C 0.21853 0.54970 0.44841
 C231 C 0.21864 0.53204 0.46712
 C232 C 0.25159 0.46734 0.47001
 C233 C 0.25252 0.44936 0.45231
 C234 C 0.23798 0.44441 0.42796
 C235 C 0.22262 0.45799 0.42151
 C236 C 0.22169 0.47595 0.43927
 H237 H 0.20697 0.47063 0.51548
 H238 H 0.20671 0.43964 0.54798
 H239 H 0.25983 0.45806 0.60095
 H240 H 0.26007 0.48883 0.56797
 H241 H 0.20963 0.51386 0.56710
 H242 H 0.21125 0.54525 0.59830
 H243 H 0.26306 0.52899 0.51253
 H244 H 0.26012 0.51105 0.43306
 H245 H 0.25994 0.54180 0.40006
 H246 H 0.20683 0.56032 0.45318
 H247 H 0.20703 0.52933 0.48571
 H248 H 0.26301 0.47088 0.48849
 H249 H 0.26464 0.43934 0.45777
 H250 H 0.21122 0.45472 0.40285
 H251 H 0.20963 0.48610 0.43408
 H252 H 0.26472 0.56053 0.54322
 C253 C 0.26448 1.00043 -0.01789
 C254 C 0.26449 1.00007 0.01707
 C255 C 0.26533 1.01859 0.03764
 C256 C 0.26317 0.98116 0.03646
 C257 C 0.26531 0.98190 -0.03846
 C258 C 0.26316 1.01934 -0.03728
 C259 C 0.28045 1.03256 0.03253
 C260 C 0.28056 1.05031 0.05101
 C261 C 0.26562 1.05442 0.07531
 C262 C 0.25085 1.04000 0.08101
 C263 C 0.25077 1.02230 0.06244
 C264 C 0.27754 0.97656 0.06112
 C265 C 0.27665 0.95866 0.07908
 C266 C 0.26125 0.94507 0.07291
 C267 C 0.24663 0.94995 0.04866
 C268 C 0.24753 0.96786 0.03075
 C269 C 0.25072 0.97818 -0.06314
 C270 C 0.25078 0.96046 -0.08165
 C271 C 0.26554 0.94604 -0.07601
 C272 C 0.28051 0.95017 -0.05185
 C273 C 0.28043 0.96794 -0.03343
 C274 C 0.24754 1.03263 -0.03148
 C275 C 0.24662 1.05055 -0.04936
 C276 C 0.26124 1.05552 -0.07376
 C277 C 0.27663 1.04183 -0.07997
 C278 C 0.27750 1.02394 -0.06200
 H279 H 0.29206 1.02978 0.01397
 H280 H 0.29232 1.06083 0.04595
 H281 H 0.23914 1.04240 0.09953
 H282 H 0.23905 1.01165 0.06692
 H283 H 0.28962 0.98671 0.06607
 H284 H 0.28810 0.95545 0.09766
 H285 H 0.23606 0.97134 0.01233
 H286 H 0.23900 0.98883 -0.06756
 H287 H 0.23905 0.95804 -0.10008
 H288 H 0.29227 0.93965 -0.04684
 H289 H 0.29206 0.97073 -0.01495
 H290 H 0.23608 1.02915 -0.01299
 H291 H 0.23443 1.06049 -0.04387
 H292 H 0.28814 1.04492 -0.09857
 H293 H 0.28958 1.01377 -0.06702
 H294 H 0.23449 0.93992 0.04341
 C295 C 0.76534 0.50033 0.48273
 C296 C 0.76532 0.49974 0.51768
 C297 C 0.76620 0.51814 0.53855
 C298 C 0.76397 0.48072 0.53675
 C299 C 0.76627 0.48193 0.46185
 C300 C 0.76398 0.51935 0.46366
 C301 C 0.78137 0.53209 0.53364
 C302 C 0.78149 0.54976 0.55233
 C303 C 0.76655 0.55373 0.57655
 C304 C 0.75174 0.53941 0.58212
 C305 C 0.75162 0.52178 0.56337
 C306 C 0.77824 0.47601 0.56152
 C307 C 0.77729 0.45804 0.57926
 C308 C 0.76192 0.44447 0.57276
 C309 C 0.74741 0.44943 0.54838
 C310 C 0.74837 0.46742 0.53069
 C311 C 0.75174 0.47829 0.43700
 C312 C 0.75192 0.46068 0.41820
 C313 C 0.76674 0.44638 0.42374
 C314 C 0.78163 0.45035 0.44800
 C315 C 0.78145 0.46800 0.46674
 C316 C 0.74836 0.53262 0.46972
 C317 C 0.74739 0.55061 0.45204
 C318 C 0.76193 0.55560 0.42765
 C319 C 0.77733 0.54205 0.42115
 C320 C 0.77829 0.52408 0.43890
 H321 H 0.79299 0.52938 0.51506
 H322 H 0.79320 0.56038 0.54756
 H323 H 0.74006 0.54191 0.60066
 H324 H 0.73986 0.51114 0.56769
 H325 H 0.79030 0.48615 0.56674
 H326 H 0.78867 0.45477 0.59795
 H327 H 0.73697 0.47096 0.51218
 H328 H 0.73998 0.48892 0.43270
 H329 H 0.74028 0.45818 0.39964
 H330 H 0.79335 0.43975 0.45275
 H331 H 0.79303 0.47071 0.48534
 H332 H 0.73693 0.52906 0.48823
 H333 H 0.73525 0.56060 0.45754
 H334 H 0.78873 0.54535 0.40247
 H335 H 0.79037 0.51396 0.43367
 H336 H 0.73529 0.43942 0.54287
 O337 O 0.23302 0.25918 0.20721
 O338 O 0.28185 0.25344 0.24800
 O339 O 0.26040 0.23205 0.20681
 O340 O 0.25462 0.28072 0.24838
 O341 O 0.24047 0.26632 0.29298
 O342 O 0.24624 0.21764 0.25140
 O343 O 0.26769 0.23903 0.29259
 O344 O 0.21887 0.24478 0.25181
 Cu345 Cu 0.25887 0.25782 0.22312
 Cu346 Cu 0.24187 0.24052 0.27668
 C347 C 0.21766 0.25284 0.22248
 C348 C 0.28307 0.24524 0.27723
 C349 C 0.25432 0.21657 0.22204
 C350 C 0.24667 0.28179 0.27784
 O351 O 0.75377 0.78240 0.25116
 O352 O 0.75942 0.73371 0.29277
 O353 O 0.78104 0.75515 0.25141
 O354 O 0.73229 0.76110 0.29253
 O355 O 0.71803 0.74672 0.24806
 O356 O 0.76680 0.74078 0.20693
 O357 O 0.74517 0.71934 0.24829
 O358 O 0.73952 0.76801 0.20669
 Cu359 Cu 0.75809 0.75951 0.27644
 Cu360 Cu 0.74097 0.74224 0.22303
 C361 C 0.74567 0.78348 0.22186
 C362 C 0.75315 0.71825 0.27769
 C363 C 0.78220 0.74707 0.22208
 C364 C 0.71687 0.75494 0.27728
 O365 O 0.78254 0.24617 0.25131
 O366 O 0.73375 0.24057 0.29254
 O367 O 0.75530 0.21890 0.25142
 O368 O 0.76115 0.26770 0.29243
 O369 O 0.74694 0.28197 0.24780
 O370 O 0.74110 0.23315 0.20678
 O371 O 0.71956 0.25483 0.24790
 O372 O 0.76834 0.26043 0.20668
 Cu373 Cu 0.75959 0.24188 0.27641
 Cu374 Cu 0.74253 0.25900 0.22281
 C375 C 0.78374 0.25427 0.22199
 C376 C 0.71837 0.24686 0.27732
 C377 C 0.74732 0.21774 0.22204
 C378 C 0.75505 0.28313 0.27708
 O379 O 0.25377 0.71816 0.24853
 O380 O 0.25952 0.76698 0.20745
 O381 O 0.28104 0.74541 0.24868
 O382 O 0.23240 0.73958 0.20731
 O383 O 0.21802 0.75381 0.25187
 O384 O 0.26667 0.75963 0.29325
 O385 O 0.24515 0.78119 0.25202
 O386 O 0.23939 0.73239 0.29309
 Cu387 Cu 0.25815 0.74113 0.22352
 Cu388 Cu 0.24089 0.75821 0.27704
 C389 C 0.24558 0.71698 0.27778
 C390 C 0.25319 0.78237 0.22266
 C391 C 0.28212 0.75340 0.27808
 C392 C 0.21694 0.74569 0.22256
 O393 O 0.76660 0.25898 0.79293
 O394 O 0.71789 0.25320 0.75171
 O395 O 0.73928 0.23178 0.79295
 O396 O 0.74508 0.28054 0.75168
 O397 O 0.75938 0.26624 0.70712
 O398 O 0.75359 0.21747 0.74840
 O399 O 0.73221 0.23890 0.70716
 O400 O 0.78090 0.24468 0.74837
 Cu401 Cu 0.74080 0.25759 0.77679
 Cu402 Cu 0.75798 0.24041 0.72329
 C403 C 0.78202 0.25269 0.77776
 C404 C 0.71677 0.24505 0.72243
 C405 C 0.74544 0.21633 0.77769
 C406 C 0.75310 0.28167 0.72229
 O407 O 0.28172 0.74681 0.75229
 O408 O 0.23292 0.74092 0.79333
 O409 O 0.25458 0.71942 0.75210
 O410 O 0.26020 0.76816 0.79351
 O411 O 0.24598 0.78248 0.74895
 O412 O 0.24037 0.73373 0.70754
 O413 O 0.21871 0.75523 0.74876
 O414 O 0.26749 0.76112 0.70773
 Cu415 Cu 0.25876 0.74236 0.77729
 Cu416 Cu 0.24168 0.75955 0.72377
 C417 C 0.28290 0.75499 0.72304
 C418 C 0.21753 0.74718 0.77812
 C419 C 0.24663 0.71830 0.72269
 C420 C 0.25406 0.78361 0.77826
 O421 O 0.25357 0.28160 0.75204
 O422 O 0.25941 0.23275 0.79291
 O423 O 0.28092 0.25443 0.75173
 O424 O 0.23221 0.26006 0.79319
 O425 O 0.21792 0.24585 0.74859
 O426 O 0.26664 0.24023 0.70713
 O427 O 0.24512 0.21855 0.74830
 O428 O 0.23928 0.26739 0.70744
 Cu429 Cu 0.25799 0.25861 0.77695
 Cu430 Cu 0.24083 0.24155 0.72338
 C431 C 0.24541 0.28280 0.72280
 C432 C 0.25314 0.21735 0.77765
 C433 C 0.28205 0.24649 0.72229
 C434 C 0.21678 0.25393 0.77793
 O435 O 0.74636 0.71838 0.75181
 O436 O 0.74065 0.76723 0.79280
 O437 O 0.71908 0.74562 0.75171
 O438 O 0.76778 0.73985 0.79287
 O439 O 0.78209 0.75405 0.74821
 O440 O 0.73337 0.75982 0.70705
 O441 O 0.75495 0.78142 0.74813
 O442 O 0.76066 0.73259 0.70715
 Cu443 Cu 0.74200 0.74137 0.77679
 Cu444 Cu 0.75917 0.75842 0.72315
 C445 C 0.75450 0.71718 0.72253
 C446 C 0.74694 0.78262 0.77753
 C447 C 0.71795 0.75359 0.72229
 C448 C 0.78322 0.74595 0.77753
 N449 N 0.25005 0.09393 0.13252
 C450 C 0.26401 0.10792 0.12644
 N451 N 0.27865 0.10404 0.10361
 N452 N 0.27926 0.08670 0.08728
 C453 C 0.26526 0.07258 0.09312
 N454 N 0.25068 0.07660 0.11619
 C455 C 0.26302 0.12675 0.14345
 C456 C 0.26191 0.14258 0.15763
 C457 C 0.26031 0.16145 0.17437
 N458 N 0.26686 0.17814 0.15863
 N459 N 0.26502 0.19571 0.17390
 C460 C 0.25656 0.19718 0.20540
 N461 N 0.25004 0.18044 0.22110
 N462 N 0.25188 0.16287 0.20583
 N463 N 0.75081 0.59408 0.63468
 C464 C 0.76466 0.60817 0.62845
 N465 N 0.77928 0.60437 0.60556
 N466 N 0.78000 0.58701 0.58931
 C467 C 0.76612 0.57283 0.59535
 N468 N 0.75154 0.57673 0.61844
 C469 C 0.76353 0.62703 0.64529
 C470 C 0.76233 0.64292 0.65926
 C471 C 0.76064 0.66186 0.67569
 N472 N 0.76723 0.67847 0.65979
 N473 N 0.76534 0.69611 0.67479
 C474 C 0.75676 0.69773 0.70617
 N475 N 0.75020 0.68106 0.72205
 N476 N 0.75209 0.66342 0.70704
 N477 N 0.72144 0.89602 0.10355
 C478 C 0.73610 0.89214 0.12627
 N479 N 0.75007 0.90612 0.13224
 N480 N 0.74943 0.92345 0.11591
 C481 C 0.73483 0.92748 0.09294
 N482 N 0.72082 0.91336 0.08722
 C483 C 0.73709 0.87331 0.14329
 C484 C 0.73820 0.85747 0.15746
 C485 C 0.73978 0.83860 0.17419
 N486 N 0.74825 0.83717 0.20558
 N487 N 0.75006 0.81959 0.22085
 C488 C 0.74347 0.80287 0.20522
 N489 N 0.73498 0.80435 0.17378
 N490 N 0.73317 0.82193 0.15852
 N491 N 0.24901 0.40591 0.63502
 C492 C 0.23517 0.39183 0.62882
 N493 N 0.22057 0.39563 0.60595
 N494 N 0.21987 0.41299 0.58970
 C495 C 0.23375 0.42717 0.59572
 N496 N 0.24831 0.42325 0.61877
 C497 C 0.23628 0.37296 0.64565
 C498 C 0.23748 0.35707 0.65961
 C499 C 0.23918 0.33813 0.67604
 N500 N 0.23261 0.32152 0.66015
 N501 N 0.23452 0.30387 0.67513
 C502 C 0.24310 0.30226 0.70647
 N503 N 0.24965 0.31893 0.72233
 N504 N 0.24773 0.33657 0.70735
 N505 N 0.89653 0.27844 0.10444
 C506 C 0.89259 0.26377 0.12715
 N507 N 0.90653 0.24977 0.13316
 N508 N 0.92386 0.25038 0.11686
 C509 C 0.92798 0.26500 0.09385
 N510 N 0.91387 0.27905 0.08814
 C511 C 0.87374 0.26278 0.14408
 C512 C 0.85788 0.26169 0.15816
 C513 C 0.83897 0.26012 0.17475
 N514 N 0.83743 0.25165 0.20615
 N515 N 0.81982 0.24986 0.22129
 C516 C 0.80316 0.25645 0.20550
 N517 N 0.80476 0.26495 0.17406
 N518 N 0.82237 0.26675 0.15893
 N519 N 0.39559 0.77984 0.60571
 C520 C 0.39179 0.76524 0.62865
 N521 N 0.40587 0.75140 0.63490
 N522 N 0.42321 0.75211 0.61862
 C523 C 0.42711 0.76667 0.59550
 N524 N 0.41294 0.78054 0.58943
 C525 C 0.37294 0.76413 0.64553
 C526 C 0.35707 0.76294 0.65955
 C527 C 0.33815 0.76124 0.67605
 N528 N 0.33662 0.75267 0.70738
 N529 N 0.31900 0.75075 0.72244
 C530 C 0.30233 0.75730 0.70664
 N531 N 0.30392 0.76590 0.67527
 N532 N 0.32155 0.76782 0.66023
 N533 N 0.09425 0.74941 0.13383
 C534 C 0.10834 0.73558 0.12757
 N535 N 0.10458 0.72100 0.10458
 N536 N 0.08726 0.72031 0.08829
 C537 C 0.07308 0.73417 0.09437
 N538 N 0.07694 0.74872 0.11753
 C539 C 0.12715 0.73667 0.14450
 C540 C 0.14298 0.73785 0.15859
 C541 C 0.16185 0.73952 0.17521
 N542 N 0.16328 0.74803 0.20660
 N543 N 0.18084 0.74993 0.22177
 C544 C 0.19757 0.74340 0.20603
 N545 N 0.19608 0.73487 0.17461
 N546 N 0.17851 0.73297 0.15944
 N547 N 0.59405 0.24912 0.63381
 C548 C 0.60811 0.23525 0.62754
 N549 N 0.60432 0.22069 0.60453
 N550 N 0.58701 0.22006 0.58821
 C551 C 0.57285 0.23395 0.59430
 N552 N 0.57674 0.24848 0.61750
 C553 C 0.62692 0.23629 0.64449
 C554 C 0.64276 0.23741 0.65858
 C555 C 0.66163 0.23903 0.67518
 N556 N 0.66310 0.24754 0.70655
 N557 N 0.68068 0.24939 0.72169
 C558 C 0.69738 0.24280 0.70594
 N559 N 0.69585 0.23426 0.67454
 N560 N 0.67827 0.23241 0.65940
 N561 N 0.74975 0.09352 0.86653
 C562 C 0.73580 0.10750 0.87269
 N563 N 0.72118 0.10359 0.89554
 N564 N 0.72058 0.08623 0.91181
 C565 C 0.73458 0.07212 0.90589
 N566 N 0.74915 0.07618 0.88280
 C567 C 0.73678 0.12636 0.85577
 C568 C 0.73787 0.14222 0.84167
 C569 C 0.73946 0.16112 0.82504
 N570 N 0.73283 0.17776 0.84081
 N571 N 0.73466 0.19537 0.82564
 C572 C 0.74320 0.19692 0.79421
 N573 N 0.74980 0.18022 0.77847
 N574 N 0.74797 0.16261 0.79365
 N575 N 0.24919 0.59395 0.36592
 C576 C 0.23536 0.60805 0.37214
 N577 N 0.22074 0.60427 0.39507
 N578 N 0.22002 0.58692 0.41136
 C579 C 0.23389 0.57273 0.40533
 N580 N 0.24847 0.57661 0.38221
 C581 C 0.23649 0.62690 0.35526
 C582 C 0.23770 0.64277 0.34124
 C583 C 0.23939 0.66170 0.32475
 N584 N 0.23277 0.67832 0.34058
 N585 N 0.23468 0.69595 0.32554
 C586 C 0.24330 0.69754 0.29419
 N587 N 0.24990 0.68086 0.27839
 N588 N 0.24799 0.66323 0.29344
 N589 N 0.24986 0.90644 0.86713
 C590 C 0.26380 0.89245 0.87317
 N591 N 0.27847 0.89635 0.89585
 N592 N 0.27913 0.91372 0.91208
 C593 C 0.26514 0.92785 0.90628
 N594 N 0.25052 0.92380 0.88335
 C595 C 0.26276 0.87358 0.85628
 C596 C 0.26163 0.85771 0.84222
 C597 C 0.26001 0.83881 0.82562
 N598 N 0.26659 0.82216 0.84139
 N599 N 0.26476 0.80456 0.82623
 C600 C 0.25627 0.80302 0.79480
 N601 N 0.24971 0.81972 0.77906
 N602 N 0.25155 0.83733 0.79423
 N603 N 0.75121 0.40609 0.36539
 C604 C 0.76507 0.39202 0.37158
 N605 N 0.77963 0.39581 0.39453
 N606 N 0.78029 0.41315 0.41086
 C607 C 0.76639 0.42731 0.40486
 N608 N 0.75187 0.42341 0.38172
 C609 C 0.76401 0.37318 0.35465
 C610 C 0.76285 0.35731 0.34061
 C611 C 0.76120 0.33840 0.32408
 N612 N 0.76775 0.32176 0.33994
 N613 N 0.76586 0.30414 0.32488
 C614 C 0.75734 0.30257 0.29348
 N615 N 0.75082 0.31926 0.27765
 N616 N 0.75271 0.33688 0.29272
 N617 N 0.09397 0.24981 0.86676
 C618 C 0.10802 0.26367 0.87302
 N619 N 0.10419 0.27826 0.89598
 N620 N 0.08684 0.27892 0.91225
 C621 C 0.07269 0.26503 0.90617
 N622 N 0.07663 0.25048 0.88303
 C623 C 0.12686 0.26263 0.85609
 C624 C 0.14272 0.26149 0.84199
 C625 C 0.16161 0.25988 0.82536
 N626 N 0.17824 0.26645 0.84114
 N627 N 0.19583 0.26462 0.82596
 C628 C 0.19738 0.25614 0.79450
 N629 N 0.18069 0.24959 0.77875
 N630 N 0.16310 0.25142 0.79394
 N631 N 0.60429 0.77981 0.39491
 C632 C 0.60807 0.76521 0.37196
 N633 N 0.59399 0.75137 0.36576
 N634 N 0.57667 0.75207 0.38208
 C635 C 0.57278 0.76663 0.40521
 N636 N 0.58695 0.78051 0.41123
 C637 C 0.62690 0.76410 0.35503
 C638 C 0.64276 0.76291 0.34096
 C639 C 0.66166 0.76121 0.32440
 N640 N 0.66317 0.75261 0.29310
 N641 N 0.68078 0.75068 0.27800
 C642 C 0.69746 0.75727 0.29372
 N643 N 0.69589 0.76590 0.32506
 N644 N 0.67828 0.76783 0.34015
 N645 N 0.90609 0.74958 0.86559
 C646 C 0.89200 0.73574 0.87186
 N647 N 0.89580 0.72111 0.89475
 N648 N 0.91315 0.72039 0.91094
 C649 C 0.92733 0.73426 0.90485
 N650 N 0.92343 0.74885 0.88179
 C651 C 0.87316 0.73686 0.85504
 C652 C 0.85730 0.73807 0.84105
 C653 C 0.83840 0.73977 0.82456
 N654 N 0.82176 0.73324 0.84044
 N655 N 0.80416 0.73514 0.82538
 C656 C 0.80262 0.74367 0.79396
 N657 N 0.81932 0.75017 0.77811
 N658 N 0.83692 0.74826 0.79318
 N659 N 0.40600 0.24928 0.36510
 C660 C 0.39196 0.23539 0.37132
 N661 N 0.39578 0.22078 0.39422
 N662 N 0.41312 0.22012 0.41047
 C663 C 0.42725 0.23405 0.40443
 N664 N 0.42332 0.24862 0.38135
 C665 C 0.37312 0.23645 0.35447
 C666 C 0.35726 0.23759 0.34048
 C667 C 0.33834 0.23921 0.32403
 N668 N 0.32175 0.23254 0.33989
 N669 N 0.30413 0.23439 0.32490
 C670 C 0.30251 0.24299 0.29355
 N671 N 0.31915 0.24964 0.27772
 N672 N 0.33678 0.24779 0.29272
 N673 N 0.72595 0.90406 0.86872
 C674 C 0.74073 0.89098 0.87496
 N675 N 0.75490 0.89572 0.89809
 N676 N 0.75431 0.91302 0.91451
 C677 C 0.73951 0.92626 0.90846
 N678 N 0.72535 0.92136 0.88515
 C679 C 0.74132 0.87228 0.85747
 C680 C 0.74192 0.85652 0.84295
 C681 C 0.74279 0.83770 0.82588
 N682 N 0.75094 0.83617 0.79421
 N683 N 0.75211 0.81863 0.77866
 C684 C 0.74517 0.80202 0.79426
 N685 N 0.73697 0.80361 0.82595
 N686 N 0.73580 0.82116 0.84150
 N687 N 0.22539 0.40302 0.36965
 C688 C 0.24012 0.38992 0.37614
 N689 N 0.25419 0.39466 0.39948
 N690 N 0.25354 0.41198 0.41586
 C691 C 0.23879 0.42519 0.40951
 N692 N 0.22474 0.42033 0.38605
 C693 C 0.24081 0.37122 0.35861
 C694 C 0.24147 0.35549 0.34400
 C695 C 0.24241 0.33671 0.32678
 N696 N 0.23552 0.32009 0.34228
 N697 N 0.23673 0.30259 0.32656
 C698 C 0.24487 0.30114 0.29480
 N699 N 0.25171 0.31782 0.27932
 N700 N 0.25050 0.33531 0.29504
 N701 N 0.27412 0.09589 0.86876
 C702 C 0.25936 0.10900 0.87509
 N703 N 0.24519 0.10429 0.89831
 N704 N 0.24577 0.08699 0.91475
 C705 C 0.26054 0.07373 0.90862
 N706 N 0.27469 0.07859 0.88521
 C707 C 0.25879 0.12770 0.85758
 C708 C 0.25820 0.14345 0.84304
 C709 C 0.25734 0.16227 0.82597
 N710 N 0.26432 0.17881 0.84155
 N711 N 0.26314 0.19636 0.82601
 C712 C 0.25495 0.19795 0.79436
 N713 N 0.24801 0.18134 0.77878
 N714 N 0.24919 0.16379 0.79433
 N715 N 0.77448 0.59703 0.36935
 C716 C 0.75971 0.61010 0.37589
 N717 N 0.74564 0.60532 0.39926
 N718 N 0.74632 0.58800 0.41563
 C719 C 0.76109 0.57482 0.40923
 N720 N 0.77516 0.57971 0.38573
 C721 C 0.75900 0.62880 0.35838
 C722 C 0.75832 0.64455 0.34380
 C723 C 0.75737 0.66333 0.32660
 N724 N 0.76431 0.67994 0.34204
 N725 N 0.76310 0.69743 0.32633
 C726 C 0.75492 0.69891 0.29464
 N727 N 0.74803 0.68224 0.27922
 N728 N 0.74923 0.66474 0.29494
 N729 N 0.09618 0.72573 0.86920
 C730 C 0.10923 0.74053 0.87561
 N731 N 0.10444 0.75465 0.89887
 N732 N 0.08713 0.75399 0.91525
 C733 C 0.07393 0.73918 0.90903
 N734 N 0.07887 0.72508 0.88559
 C735 C 0.12793 0.74120 0.85814
 C736 C 0.14369 0.74186 0.84362
 C737 C 0.16249 0.74281 0.82653
 N738 N 0.17904 0.73586 0.84209
 N739 N 0.19657 0.73709 0.82653
 C740 C 0.19814 0.74533 0.79488
 N741 N 0.18154 0.75225 0.77933
 N742 N 0.16400 0.75101 0.79490
 N743 N 0.60526 0.25463 0.39819
 C744 C 0.61003 0.24054 0.37485
 N745 N 0.59695 0.22579 0.36831
 N746 N 0.57962 0.22515 0.38464
 C747 C 0.57473 0.23923 0.40812
 N748 N 0.58793 0.25398 0.41452
 C749 C 0.62875 0.24120 0.35742
 C750 C 0.64452 0.24183 0.34291
 C751 C 0.66334 0.24274 0.32583
 N752 N 0.66486 0.25086 0.29415
 N753 N 0.68239 0.25203 0.27856
 C754 C 0.69899 0.24511 0.29413
 N755 N 0.69740 0.23694 0.32583
 N756 N 0.67987 0.23577 0.34142
 N757 N 0.90319 0.27371 0.86934
 C758 C 0.89007 0.25896 0.87571
 N759 N 0.89475 0.24481 0.89900
 N760 N 0.91202 0.24541 0.91544
 C761 C 0.92526 0.26017 0.90920
 N762 N 0.92046 0.27430 0.88578
 C763 C 0.87141 0.25835 0.85817
 C764 C 0.85569 0.25775 0.84358
 C765 C 0.83693 0.25687 0.82641
 N766 N 0.82036 0.26385 0.84193
 N767 N 0.80287 0.26268 0.82628
 C768 C 0.80136 0.25448 0.79460
 N769 N 0.81800 0.24754 0.77910
 N770 N 0.83549 0.24872 0.79475
 N771 N 0.40323 0.77491 0.36945
 C772 C 0.39017 0.76013 0.37597
 N773 N 0.39492 0.74605 0.39931
 N774 N 0.41221 0.74673 0.41568
 C775 C 0.42539 0.76152 0.40931
 N776 N 0.42052 0.77559 0.38583
 C777 C 0.37150 0.75942 0.35848
 C778 C 0.35577 0.75874 0.34392
 C779 C 0.33701 0.75776 0.32677
 N780 N 0.33560 0.74962 0.29510
 N781 N 0.31812 0.74837 0.27945
 C782 C 0.30145 0.75524 0.29495
 N783 N 0.30292 0.76343 0.32665
 N784 N 0.32041 0.76467 0.34229
 N785 N 0.24518 0.89536 0.10179
 C786 C 0.25935 0.89066 0.12497
 N787 N 0.27410 0.90378 0.13125
 N788 N 0.27467 0.92108 0.11480
 C789 C 0.26051 0.92590 0.09148
 N790 N 0.24576 0.91266 0.08535
 C791 C 0.25878 0.87197 0.14250
 C792 C 0.25820 0.85622 0.15705
 C793 C 0.25734 0.83741 0.17417
 N794 N 0.26437 0.82087 0.15862
 N795 N 0.26320 0.80333 0.17422
 C796 C 0.25497 0.80176 0.20588
 N797 N 0.24799 0.81837 0.22141
 N798 N 0.24915 0.83591 0.20581
 N799 N 0.77446 0.40304 0.63103
 C800 C 0.75972 0.38995 0.62449
 N801 N 0.74567 0.39471 0.60112
 N802 N 0.74634 0.41203 0.58477
 C803 C 0.76109 0.42524 0.59118
 N804 N 0.77512 0.42037 0.61467
 C805 C 0.75902 0.37124 0.64197
 C806 C 0.75835 0.35548 0.65651
 C807 C 0.75740 0.33668 0.67365
 N808 N 0.74922 0.33522 0.70531
 N809 N 0.74800 0.31770 0.72094
 C810 C 0.75492 0.30105 0.70544
 N811 N 0.76314 0.30257 0.67376
 N812 N 0.76436 0.32009 0.65813
 N813 N 0.72617 0.09630 0.13099
 C814 C 0.74091 0.10942 0.12454
 N815 N 0.75503 0.10471 0.10121
 N816 N 0.75442 0.08740 0.08480
 C817 C 0.73968 0.07417 0.09110
 N818 N 0.72557 0.07899 0.11456
 C819 C 0.74153 0.12812 0.14203
 C820 C 0.74214 0.14387 0.15656
 C821 C 0.74305 0.16268 0.17365
 N822 N 0.75116 0.16418 0.20531
 N823 N 0.75237 0.18171 0.22088
 C824 C 0.74550 0.19834 0.20529
 N825 N 0.73734 0.19679 0.17361
 N826 N 0.73613 0.17925 0.15805
 N827 N 0.22546 0.59696 0.63136
 C828 C 0.24021 0.61005 0.62481
 N829 N 0.25430 0.60527 0.60145
 N830 N 0.25363 0.58794 0.58511
 C831 C 0.23887 0.57474 0.59152
 N832 N 0.22480 0.57963 0.61501
 C833 C 0.24090 0.62876 0.64228
 C834 C 0.24155 0.64451 0.65682
 C835 C 0.24248 0.66332 0.67397
 N836 N 0.25059 0.66477 0.70564
 N837 N 0.25177 0.68228 0.72130
 C838 C 0.24487 0.69893 0.70580
 N839 N 0.23672 0.69742 0.67410
 N840 N 0.23554 0.67990 0.65845
 N841 N 0.89519 0.75455 0.10108
 C842 C 0.89043 0.74042 0.12436
 N843 N 0.90349 0.72564 0.13077
 N844 N 0.92080 0.72500 0.11436
 C845 C 0.92568 0.73912 0.09095
 N846 N 0.91250 0.75391 0.08468
 C847 C 0.87174 0.74108 0.14187
 C848 C 0.85599 0.74173 0.15642
 C849 C 0.83720 0.74268 0.17355
 N850 N 0.83571 0.75091 0.20516
 N851 N 0.81819 0.75215 0.22077
 C852 C 0.80157 0.74521 0.20529
 N853 N 0.80312 0.73693 0.17366
 N854 N 0.82065 0.73569 0.15806
 N855 N 0.39494 0.25437 0.60083
 C856 C 0.39020 0.24025 0.62414
 N857 N 0.40330 0.22550 0.63057
 N858 N 0.42061 0.22488 0.61415
 C859 C 0.42546 0.23900 0.59071
 N860 N 0.41224 0.25375 0.58442
 C861 C 0.37152 0.24088 0.64168
 C862 C 0.35578 0.24150 0.65627
 C863 C 0.33699 0.24239 0.67347
 N864 N 0.33554 0.25048 0.70518
 N865 N 0.31803 0.25164 0.72087
 C866 C 0.30140 0.24474 0.70537
 N867 N 0.30293 0.23660 0.67364
 N868 N 0.32043 0.23544 0.65795
 N869 N 0.09619 0.27373 0.13192
 C870 C 0.10931 0.25899 0.12546
 N871 N 0.10459 0.24483 0.10222
 N872 N 0.08728 0.24541 0.08591
 C873 C 0.07405 0.26015 0.09223
 N874 N 0.07888 0.27429 0.11560
 C875 C 0.12802 0.25841 0.14286
 C876 C 0.14378 0.25783 0.15731
 C877 C 0.16260 0.25697 0.17431
 N878 N 0.16415 0.24878 0.20593
 N879 N 0.18168 0.24762 0.22142
 C880 C 0.19826 0.25462 0.20581
 N881 N 0.19665 0.26286 0.17418
 N882 N 0.17911 0.26402 0.15869
 N883 N 0.59672 0.77497 0.63128
 C884 C 0.60978 0.76019 0.62477
 N885 N 0.60502 0.74609 0.60146
 N886 N 0.58772 0.74677 0.58512
 C887 C 0.57454 0.76155 0.59149
 N888 N 0.57942 0.77564 0.61493
 C889 C 0.62847 0.75951 0.64222
 C890 C 0.64421 0.75884 0.65673
 C891 C 0.66300 0.75789 0.67381
 N892 N 0.66445 0.74976 0.70550
 N893 N 0.68195 0.74854 0.72108
 C894 C 0.69859 0.75540 0.70550
 N895 N 0.69708 0.76357 0.67379
 N896 N 0.67957 0.76479 0.65821
   
