data_POSCAR
  _audit_creation_date              2014-09-24
  _audit_creation_method            'ToBaCCo'
  _symmetry_space_group_name_H-M    'P1'
  _symmetry_Int_Tables_number       1
  _symmetry_cell_setting            triclinic
  loop_
  _symmetry_equiv_pos_as_xyz
 x,y,z
_cell_length_a 34.8747
_cell_length_b 37.9113
_cell_length_c 35.9973
_cell_angle_alpha 89.999800
_cell_angle_beta 90.140300
_cell_angle_gamma 89.856200
loop_
  _atom_site_label
  _atom_site_type_symbol
  _atom_site_fract_x
  _atom_site_fract_y
  _atom_site_fract_z
C1 C 0.24987 0.24973 0.24921
 C2 C 0.74985 0.75010 0.24980
 C3 C 0.75010 0.25092 0.74973
 C4 C 0.25009 0.75040 0.74976
 C5 C 0.05073 0.05474 0.01160
 H6 H 0.05077 0.05585 -0.01843
 C7 C 0.07263 0.07871 0.03204
 H8 H 0.08975 0.09825 0.01775
 C9 C 0.02807 0.02818 0.06700
 H10 H 0.01029 0.00879 0.08053
 C11 C 0.04956 0.05167 0.08849
 H12 H 0.04854 0.05007 0.11852
 N13 N 0.02940 0.02985 0.02924
 C14 C 0.01589 -0.05504 -0.05147
 H15 H -0.01498 -0.05782 -0.05122
 C16 C 0.03809 -0.07670 -0.07428
 H17 H 0.02435 -0.09628 -0.09170
 C18 C 0.07161 -0.02617 -0.02906
 H19 H 0.08461 -0.00670 -0.01115
 C20 C 0.09489 -0.04731 -0.05146
 H21 H 0.12572 -0.04391 -0.05093
 Zn22 Zn 0.00024 -0.00114 -0.00088
 N23 N 0.03281 -0.03000 -0.02992
 C24 C -0.02803 0.02474 -0.06982
 N25 N -0.03088 0.02714 -0.03218
 C26 C -0.05493 0.05083 -0.01591
 C27 C -0.07806 0.07275 -0.03772
 C28 C -0.05063 0.04617 -0.09263
 C29 C -0.01233 -0.05493 0.05116
 C30 C -0.03354 -0.07863 0.07255
 C31 C -0.09166 -0.05410 0.04641
 C32 C -0.06938 -0.03086 0.02552
 N33 N -0.03045 -0.03143 0.02851
 H34 H -0.00805 0.00650 -0.08229
 H35 H -0.05612 0.05262 0.01406
 H36 H -0.09725 0.09145 -0.02458
 H37 H -0.04825 0.04407 -0.12255
 H38 H 0.01866 -0.05528 0.05249
 H39 H -0.01890 -0.09715 0.09062
 H40 H -0.12261 -0.05343 0.04392
 H41 H -0.08327 -0.01270 0.00668
 C42 C 0.07792 -0.07261 -0.07446
 C43 C 0.07213 0.07707 0.07083
 C44 C -0.07358 -0.07816 0.07016
 C45 C -0.07592 0.07029 -0.07642
 C46 C 0.05583 0.55258 0.51650
 H47 H 0.05715 0.55451 0.48654
 C48 C 0.07862 0.57448 0.53855
 H49 H 0.09770 0.59331 0.52560
 C50 C 0.02895 0.52610 0.57014
 H51 H 0.00910 0.50771 0.58241
 C52 C 0.05121 0.54750 0.59317
 H53 H 0.04872 0.54522 0.62307
 N54 N 0.03195 0.52869 0.53253
 C55 C 0.01452 0.44674 0.44890
 H56 H -0.01647 0.44625 0.44760
 C57 C 0.03597 0.42310 0.42756
 H58 H 0.02151 0.40447 0.40954
 C59 C 0.07132 0.47111 0.47449
 H60 H 0.08502 0.48935 0.49330
 C61 C 0.09383 0.44792 0.45364
 H62 H 0.12478 0.44872 0.45613
 Zn63 Zn 0.00129 0.50034 0.50099
 N64 N 0.03240 0.47035 0.47152
 C65 C -0.02706 0.52955 0.43322
 N66 N -0.02835 0.53118 0.47098
 C67 C -0.05017 0.55577 0.48868
 C68 C -0.07268 0.57940 0.46830
 C69 C -0.04915 0.55272 0.41178
 C70 C -0.01360 0.44603 0.55120
 C71 C -0.03551 0.42396 0.57373
 C72 C -0.09273 0.45290 0.55090
 C73 C -0.06975 0.47447 0.52878
 N74 N -0.03089 0.47105 0.52979
 H75 H -0.00891 0.51040 0.41964
 H76 H -0.05019 0.55684 0.51871
 H77 H -0.09023 0.59867 0.48263
 H78 H -0.04821 0.55110 0.38175
 H79 H 0.01731 0.44358 0.55105
 H80 H -0.02150 0.40441 0.59105
 H81 H -0.12362 0.45598 0.55027
 H82 H -0.08302 0.49391 0.51097
 C83 C 0.07599 0.42372 0.42996
 C84 C 0.07633 0.57181 0.57723
 C85 C -0.07541 0.42761 0.57375
 C86 C -0.07228 0.57775 0.42950
 C87 C 0.55394 0.05163 0.51635
 H88 H 0.55501 0.05337 0.48637
 C89 C 0.57693 0.07364 0.53805
 H90 H 0.59591 0.09238 0.52482
 C91 C 0.52751 0.02547 0.57037
 H92 H 0.50777 0.00715 0.58293
 C93 C 0.54998 0.04700 0.59308
 H94 H 0.54777 0.04490 0.62302
 N95 N 0.53020 0.02784 0.53273
 C96 C 0.51277 -0.05452 0.44956
 H97 H 0.48179 -0.05507 0.44818
 C98 C 0.53435 -0.07807 0.42821
 H99 H 0.51999 -0.09669 0.41011
 C100 C 0.56945 -0.03005 0.47528
 H101 H 0.58307 -0.01179 0.49413
 C102 C 0.59208 -0.05314 0.45443
 H103 H 0.62302 -0.05224 0.45696
 Zn104 Zn 0.49943 -0.00069 0.50150
 N105 N 0.53054 -0.03088 0.47222
 C106 C 0.47124 0.02826 0.43353
 N107 N 0.46990 0.03005 0.47128
 C108 C 0.44822 0.05485 0.48883
 C109 C 0.42595 0.07856 0.46830
 C110 C 0.44940 0.05150 0.41195
 C111 C 0.48431 -0.05456 0.55227
 C112 C 0.46227 -0.07635 0.57500
 C113 C 0.40520 -0.04740 0.55182
 C114 C 0.42831 -0.02612 0.52951
 N115 N 0.46716 -0.02968 0.53058
 H116 H 0.48929 0.00896 0.42006
 H117 H 0.44816 0.05605 0.51885
 H118 H 0.40854 0.09801 0.48252
 H119 H 0.45041 0.04979 0.38192
 H120 H 0.51521 -0.05713 0.55217
 H121 H 0.47618 -0.09581 0.59252
 H122 H 0.37433 -0.04423 0.55111
 H123 H 0.41514 -0.00680 0.51149
 C124 C 0.57437 -0.07732 0.43065
 C125 C 0.57499 0.07120 0.57676
 C126 C 0.42239 -0.07255 0.57494
 C127 C 0.42644 0.07678 0.42951
 C128 C 0.54978 0.55611 0.01188
 H129 H 0.54985 0.55711 -0.01816
 C130 C 0.57188 0.57996 0.03225
 H131 H 0.58918 0.59934 0.01790
 C132 C 0.52690 0.52986 0.06736
 H133 H 0.50897 0.51062 0.08095
 C134 C 0.54859 0.55325 0.08878
 H135 H 0.54757 0.55172 0.11882
 N136 N 0.52825 0.53141 0.02959
 C137 C 0.51445 0.44607 -0.05044
 H138 H 0.48357 0.44342 -0.05015
 C139 C 0.53652 0.42412 -0.07306
 H140 H 0.52268 0.40447 -0.09029
 C141 C 0.57033 0.47491 -0.02834
 H142 H 0.58342 0.49447 -0.01062
 C143 C 0.59348 0.45347 -0.05055
 H144 H 0.62433 0.45676 -0.05010
 Zn145 Zn 0.49901 0.50038 -0.00039
 N146 N 0.53151 0.47123 -0.02915
 C147 C 0.47124 0.52590 -0.06960
 N148 N 0.46805 0.52850 -0.03200
 C149 C 0.44383 0.55228 -0.01609
 C150 C 0.42089 0.57406 -0.03825
 C151 C 0.44885 0.54717 -0.09274
 C152 C 0.48646 0.44675 0.05172
 C153 C 0.46533 0.42292 0.07301
 C154 C 0.40714 0.44738 0.04695
 C155 C 0.42934 0.47075 0.02615
 N156 N 0.46827 0.47025 0.02912
 H157 H 0.49136 0.50761 -0.08179
 H158 H 0.44237 0.55424 0.01386
 H159 H 0.40156 0.59282 -0.02540
 H160 H 0.45151 0.54490 -0.12263
 H161 H 0.51745 0.44646 0.05302
 H162 H 0.48003 0.40436 0.09098
 H163 H 0.37618 0.44795 0.04443
 H164 H 0.41540 0.48892 0.00734
 C165 C 0.57636 0.42805 -0.07329
 C166 C 0.57139 0.57842 0.07105
 C167 C 0.42530 0.42326 0.07058
 C168 C 0.42339 0.57138 -0.07692
 C169 C 0.17363 -0.18370 -0.22024
 C170 C 0.18498 -0.17601 -0.18392
 C171 C 0.21853 -0.19092 -0.16965
 C172 C 0.23993 -0.21452 -0.19101
 C173 C 0.22738 -0.22520 -0.22688
 C174 C 0.19497 -0.20730 -0.24174
 C175 C 0.16221 -0.15296 -0.16110
 C176 C 0.14308 -0.13413 -0.14151
 C177 C 0.12058 -0.11252 -0.11824
 C178 C 0.10123 -0.09427 -0.09825
 H179 H 0.14822 -0.17150 -0.23197
 H180 H 0.22827 -0.18425 -0.14193
 H181 H 0.26644 -0.22427 -0.17915
 H182 H 0.18566 -0.21205 -0.27001
 C183 C 0.21403 0.33026 0.30619
 C184 C 0.18342 0.31557 0.32572
 C185 C 0.17550 0.27961 0.32208
 C186 C 0.19727 0.25874 0.29797
 C187 C 0.22655 0.27363 0.27588
 C188 C 0.23579 0.30949 0.28207
 C189 C 0.16009 0.33764 0.34917
 C190 C 0.14062 0.35674 0.36819
 C191 C 0.11795 0.37968 0.38995
 C192 C 0.09874 0.39962 0.40826
 H193 H 0.22114 0.35788 0.30962
 H194 H 0.15237 0.26773 0.33769
 H195 H 0.19069 0.23091 0.29584
 H196 H 0.26003 0.32180 0.26873
 C197 C 0.71346 -0.16952 0.30675
 C198 C 0.68288 -0.18438 0.32619
 C199 C 0.67518 -0.22037 0.32250
 C200 C 0.69713 -0.24112 0.29844
 C201 C 0.72640 -0.22608 0.27644
 C202 C 0.73542 -0.19018 0.28266
 C203 C 0.65933 -0.16248 0.34960
 C204 C 0.63964 -0.14358 0.36865
 C205 C 0.61670 -0.12092 0.39046
 C206 C 0.59728 -0.10121 0.40884
 H207 H 0.72040 -0.14187 0.31021
 H208 H 0.65207 -0.23237 0.33804
 H209 H 0.69069 -0.26897 0.29626
 H210 H 0.75962 -0.17776 0.26938
 C211 C 0.66454 0.30615 -0.21294
 C212 C 0.68200 0.32443 -0.18377
 C213 C 0.72123 0.32023 -0.17721
 C214 C 0.74267 0.29697 -0.19895
 C215 C 0.72511 0.27642 -0.22697
 C216 C 0.68592 0.28283 -0.23474
 C217 C 0.65964 0.34729 -0.16039
 C218 C 0.64082 0.36609 -0.14050
 C219 C 0.61865 0.38779 -0.11704
 C220 C 0.59951 0.40618 -0.09701
 H221 H 0.63434 0.30996 -0.21889
 H222 H 0.73524 0.33480 -0.15515
 H223 H 0.77307 0.29437 -0.19338
 H224 H 0.67154 0.27032 -0.25784
 C225 C -0.21343 0.19542 -0.16672
 C226 C -0.18321 0.17674 -0.18287
 C227 C -0.17535 0.18101 -0.22064
 C228 C -0.19696 0.20464 -0.24193
 C229 C -0.22608 0.22550 -0.22563
 C230 C -0.23507 0.21907 -0.18791
 C231 C -0.16036 0.15323 -0.16056
 C232 C -0.14116 0.13391 -0.14149
 C233 C -0.11861 0.11162 -0.11888
 C234 C -0.09923 0.09274 -0.09950
 H235 H -0.22044 0.19157 -0.13769
 H236 H -0.15249 0.16610 -0.23365
 H237 H -0.19057 0.20714 -0.27123
 H238 H -0.25914 0.23176 -0.17454
 C239 C -0.21330 0.66971 0.30662
 C240 C -0.18256 0.68455 0.32597
 C241 C -0.17491 0.72055 0.32229
 C242 C -0.19706 0.74131 0.29832
 C243 C -0.22650 0.72628 0.27639
 C244 C -0.23547 0.69038 0.28262
 C245 C -0.15876 0.66264 0.34924
 C246 C -0.13882 0.64375 0.36814
 C247 C -0.11552 0.62113 0.38976
 C248 C -0.09573 0.60150 0.40795
 H249 H -0.22020 0.64205 0.31008
 H250 H -0.15166 0.73255 0.33776
 H251 H -0.19064 0.76916 0.29613
 H252 H -0.25977 0.67796 0.26940
 C253 C 0.28655 0.16934 0.30612
 C254 C 0.31736 0.18412 0.32542
 C255 C 0.32518 0.22008 0.32163
 C256 C 0.30309 0.24087 0.29761
 C257 C 0.27356 0.22589 0.27576
 C258 C 0.26445 0.19003 0.28209
 C259 C 0.34101 0.16216 0.34879
 C260 C 0.36076 0.14319 0.36778
 C261 C 0.38378 0.12043 0.38952
 C262 C 0.40331 0.10066 0.40782
 H263 H 0.27952 0.14172 0.30967
 H264 H 0.34848 0.23203 0.33706
 H265 H 0.30961 0.26869 0.29537
 H266 H 0.24007 0.17766 0.26894
 C267 C 0.27945 0.68452 -0.17571
 C268 C 0.31717 0.67670 -0.18564
 C269 C 0.33276 0.69155 -0.21770
 C270 C 0.31123 0.71521 -0.23905
 C271 C 0.27392 0.72593 -0.22792
 C272 C 0.25784 0.70813 -0.19694
 C273 C 0.33984 0.65349 -0.16280
 C274 C 0.35884 0.63441 -0.14328
 C275 C 0.38114 0.61237 -0.12016
 C276 C 0.40031 0.59367 -0.10038
 H277 H 0.26670 0.67240 -0.15146
 H278 H 0.36160 0.68476 -0.22631
 H279 H 0.32406 0.72491 -0.26439
 H280 H 0.22848 0.71303 -0.18865
 C281 C -0.21942 -0.18075 0.17725
 C282 C -0.18014 -0.18717 0.17371
 C283 C -0.16333 -0.21517 0.19310
 C284 C -0.18536 -0.23588 0.21704
 C285 C -0.22458 -0.22818 0.22311
 C286 C -0.24151 -0.20140 0.20113
 C287 C -0.15702 -0.16467 0.15065
 C288 C -0.13769 -0.14535 0.13182
 C289 C -0.11517 -0.12229 0.11019
 C290 C -0.09610 -0.10230 0.09191
 H291 H -0.23296 -0.15958 0.16179
 H292 H -0.13310 -0.22101 0.18977
 H293 H -0.17139 -0.25798 0.23036
 H294 H -0.27190 -0.19586 0.20330
 C295 C -0.16388 0.30520 0.71249
 C296 C -0.18117 0.32371 0.68334
 C297 C -0.22041 0.31989 0.67668
 C298 C -0.24203 0.29681 0.69834
 C299 C -0.22467 0.27607 0.72639
 C300 C -0.18545 0.28206 0.73422
 C301 C -0.15865 0.34652 0.66015
 C302 C -0.13975 0.36533 0.64043
 C303 C -0.11753 0.38709 0.61717
 C304 C -0.09842 0.40558 0.59731
 H305 H -0.13368 0.30872 0.71853
 H306 H -0.23429 0.33464 0.65463
 H307 H -0.27245 0.29453 0.69273
 H308 H -0.17119 0.26939 0.75734
 C309 C 0.32685 -0.18427 0.71995
 C310 C 0.31553 -0.17638 0.68366
 C311 C 0.28196 -0.19102 0.66932
 C312 C 0.26047 -0.21453 0.69060
 C313 C 0.27295 -0.22538 0.72645
 C314 C 0.30543 -0.20777 0.74137
 C315 C 0.33833 -0.15332 0.66098
 C316 C 0.35746 -0.13445 0.64154
 C317 C 0.37993 -0.11274 0.61843
 C318 C 0.39922 -0.09438 0.59859
 H319 H 0.35228 -0.17227 0.73174
 H320 H 0.27224 -0.18419 0.64162
 H321 H 0.23394 -0.22405 0.67869
 H322 H 0.31471 -0.21266 0.76963
 C323 C 0.28021 0.31895 0.17663
 C324 C 0.31954 0.31277 0.17314
 C325 C 0.33651 0.28481 0.19247
 C326 C 0.31459 0.26394 0.21636
 C327 C 0.27533 0.27144 0.22242
 C328 C 0.25824 0.29815 0.20046
 C329 C 0.34253 0.33555 0.15026
 C330 C 0.36169 0.35515 0.13161
 C331 C 0.38399 0.37857 0.11019
 C332 C 0.40290 0.39884 0.09210
 H333 H 0.26656 0.34010 0.16123
 H334 H 0.36678 0.27916 0.18918
 H335 H 0.32868 0.24189 0.22968
 H336 H 0.22782 0.30355 0.20264
 C337 C 0.16251 0.21471 0.19306
 C338 C 0.17921 0.18674 0.17360
 C339 C 0.21856 0.18047 0.17690
 C340 C 0.24084 0.20121 0.20062
 C341 C 0.22406 0.22796 0.22266
 C342 C 0.18474 0.23552 0.21684
 C343 C 0.15594 0.16409 0.15073
 C344 C 0.13654 0.14464 0.13205
 C345 C 0.11395 0.12140 0.11058
 C346 C 0.09480 0.10129 0.09243
 H347 H 0.13222 0.22043 0.18991
 H348 H 0.23201 0.15931 0.16140
 H349 H 0.27127 0.19577 0.20261
 H350 H 0.17084 0.25760 0.23022
 C351 C 0.22038 0.68477 0.67525
 C352 C 0.18266 0.67722 0.68525
 C353 C 0.16716 0.69223 0.71730
 C354 C 0.18878 0.71576 0.73860
 C355 C 0.22613 0.72618 0.72743
 C356 C 0.24209 0.70826 0.69642
 C357 C 0.15992 0.65405 0.66254
 C358 C 0.14087 0.63497 0.64315
 C359 C 0.11853 0.61290 0.62020
 C360 C 0.09937 0.59416 0.60056
 H361 H 0.23307 0.67252 0.65100
 H362 H 0.13831 0.68564 0.72596
 H363 H 0.17601 0.72556 0.76394
 H364 H 0.27146 0.71292 0.68810
 C365 C 0.71307 0.19569 0.66632
 C366 C 0.68273 0.17737 0.68256
 C367 C 0.67494 0.18182 0.72032
 C368 C 0.69676 0.20526 0.74153
 C369 C 0.72603 0.22575 0.72515
 C370 C 0.73491 0.21915 0.68743
 C371 C 0.65971 0.15400 0.66037
 C372 C 0.64040 0.13475 0.64142
 C373 C 0.61773 0.11251 0.61897
 C374 C 0.59830 0.09365 0.59971
 H375 H 0.72002 0.19169 0.63730
 H376 H 0.65200 0.16719 0.73340
 H377 H 0.69043 0.20789 0.77083
 H378 H 0.75905 0.23155 0.67401
 C379 C 0.66262 0.71535 0.19331
 C380 C 0.67929 0.68735 0.17390
 C381 C 0.71860 0.68094 0.17733
 C382 C 0.74087 0.70160 0.20115
 C383 C 0.72409 0.72838 0.22316
 C384 C 0.68483 0.73607 0.21719
 C385 C 0.65598 0.66481 0.15093
 C386 C 0.63647 0.64549 0.13221
 C387 C 0.61369 0.62243 0.11072
 C388 C 0.59433 0.60248 0.09258
 H389 H 0.63236 0.72118 0.19006
 H390 H 0.73203 0.65976 0.16185
 H391 H 0.77128 0.69608 0.20324
 H392 H 0.67095 0.75817 0.23054
   
