data_POSCAR
  _audit_creation_date              2014-09-24
  _audit_creation_method            'ToBaCCo'
  _symmetry_space_group_name_H-M    'P1'
  _symmetry_Int_Tables_number       1
  _symmetry_cell_setting            triclinic
  loop_
  _symmetry_equiv_pos_as_xyz
 x,y,z
_cell_length_a 41.2494
_cell_length_b 43.1225
_cell_length_c 42.1782
_cell_angle_alpha 93.872500
_cell_angle_beta 92.994000
_cell_angle_gamma 91.508300
loop_
  _atom_site_label
  _atom_site_type_symbol
  _atom_site_fract_x
  _atom_site_fract_y
  _atom_site_fract_z
C1 C 0.19781 1.21706 0.24515
 C2 C 0.18314 1.24481 0.23739
 C3 C 0.19640 1.26393 0.21498
 C4 C 0.22576 1.25486 0.20160
 C5 C 0.24036 1.22704 0.20879
 C6 C 0.22625 1.20799 0.23050
 C7 C 0.18354 1.19758 0.26630
 C8 C 0.19702 1.16869 0.27286
 C9 C 0.22586 1.16034 0.25815
 C10 C 0.24026 1.17953 0.23703
 C11 C 0.26804 1.17016 0.22161
 C12 C 0.28187 1.18872 0.19944
 C13 C 0.26829 1.21747 0.19365
 H14 H 0.16026 1.25019 0.24758
 H15 H 0.23791 1.26951 0.18579
 H16 H 0.16085 1.20440 0.27608
 H17 H 0.23788 1.13916 0.26352
 H18 H 0.27861 1.14808 0.22638
 H19 H 0.27858 1.23168 0.17624
 C20 C 0.79457 0.76764 0.20515
 C21 C 0.80802 0.73941 0.19472
 C22 C 0.79700 0.72323 0.16565
 C23 C 0.77112 0.73589 0.14782
 C24 C 0.75728 0.76392 0.15811
 C25 C 0.76917 0.77991 0.18679
 C26 C 0.80651 0.78392 0.23354
 C27 C 0.79382 0.81286 0.24389
 C28 C 0.76817 0.82458 0.22506
 C29 C 0.75596 0.80845 0.19684
 C30 C 0.73120 0.82098 0.17808
 C31 C 0.71942 0.80542 0.14929
 C32 C 0.73235 0.77670 0.13959
 H33 H 0.82667 0.72994 0.20992
 H34 H 0.76264 0.72514 0.12487
 H35 H 0.82525 0.77339 0.24777
 H36 H 0.75860 0.84721 0.23108
 H37 H 0.72103 0.84296 0.18589
 H38 H 0.72360 0.76475 0.11722
 C39 C 0.82229 1.23414 -0.22453
 C40 C 0.83283 1.26164 -0.20693
 C41 C 0.81755 1.27165 -0.17925
 C42 C 0.79065 1.25468 -0.16980
 C43 C 0.78001 1.22694 -0.18699
 C44 C 0.79609 1.21652 -0.21433
 C45 C 0.83845 1.22352 -0.25144
 C46 C 0.83008 1.19446 -0.26796
 C47 C 0.80358 1.17717 -0.25720
 C48 C 0.78664 1.18803 -0.23086
 C49 C 0.76124 1.17002 -0.21995
 C50 C 0.74540 1.17990 -0.19247
 C51 C 0.75466 1.20866 -0.17637
 H52 H 0.85363 1.27484 -0.21412
 H53 H 0.77911 1.26226 -0.14821
 H54 H 0.85731 1.23855 -0.25937
 H55 H 0.79687 1.15424 -0.26779
 H56 H 0.75404 1.14802 -0.23265
 H57 H 0.74309 1.21619 -0.15480
 C58 C 0.14512 0.77071 -0.21871
 C59 C 0.13059 0.74620 -0.20382
 C60 C 0.14466 0.73520 -0.17552
 C61 C 0.17491 0.74876 -0.16361
 C62 C 0.19011 0.77270 -0.17886
 C63 C 0.17497 0.78403 -0.20624
 C64 C 0.12967 0.78262 -0.24549
 C65 C 0.14281 0.80873 -0.25920
 C66 C 0.17313 0.82139 -0.24701
 C67 C 0.18941 0.80901 -0.22087
 C68 C 0.21951 0.82176 -0.20860
 C69 C 0.23508 0.81039 -0.18141
 C70 C 0.21990 0.78605 -0.16654
 H71 H 0.10842 0.73561 -0.21494
 H72 H 0.18627 0.74213 -0.14150
 H73 H 0.10689 0.77192 -0.25516
 H74 H 0.18357 0.84163 -0.25697
 H75 H 0.23088 0.84041 -0.22043
 H76 H 0.23104 0.77774 -0.14500
 C77 C 0.55434 1.04268 -0.03930
 H78 H 0.56586 1.02551 -0.02543
 C79 C 0.57366 1.06262 -0.05547
 H80 H 0.59980 1.06081 -0.05327
 C81 C 0.50665 1.06590 -0.05899
 H82 H 0.48043 1.06669 -0.06072
 C83 C 0.52514 1.08637 -0.07564
 H84 H 0.51297 1.10283 -0.09009
 N85 N 0.52143 1.04446 -0.04132
 C86 C 0.45835 1.01634 0.03242
 H87 H 0.46524 0.99238 0.03279
 C88 C 0.43679 1.02812 0.05422
 H89 H 0.42724 1.01294 0.07115
 C90 C 0.46353 1.06537 0.01079
 H91 H 0.47401 1.07991 -0.00604
 C92 C 0.44181 1.07811 0.03211
 H93 H 0.43541 1.10221 0.03093
 Zn94 Zn 0.49713 1.01494 -0.01968
 N95 N 0.47069 1.03474 0.01075
 C96 C 0.54134 1.00349 0.02984
 N97 N 0.52660 0.99025 0.00249
 C98 C 0.53404 0.96124 -0.00909
 C99 C 0.55774 0.94458 0.00685
 C100 C 0.56502 0.98769 0.04651
 C101 C 0.46572 0.99597 -0.08004
 C102 C 0.44195 0.98000 -0.10013
 C103 C 0.42848 0.94912 -0.05673
 C104 C 0.45218 0.96594 -0.03737
 N105 N 0.46966 0.98945 -0.04896
 H106 H 0.53502 1.02664 0.03840
 H107 H 0.52224 0.95138 -0.03111
 H108 H 0.56408 0.92189 -0.00312
 H109 H 0.57642 0.99869 0.06826
 H110 H 0.48024 1.01416 -0.08918
 H111 H 0.43836 0.98614 -0.12451
 H112 H 0.41396 0.93132 -0.04670
 H113 H 0.45605 0.96066 -0.01285
 C114 C 0.42764 1.05921 0.05381
 C115 C 0.55913 1.08463 -0.07422
 C116 C 0.42254 0.95669 -0.08828
 C117 C 0.57387 0.95801 0.03483
 C118 C 0.00265 0.52392 1.09015
 H119 H 0.02166 0.51119 1.10156
 C120 C -0.01576 0.54432 1.10851
 H121 H -0.01115 0.54667 1.13408
 C122 C -0.02561 0.53746 1.04291
 H123 H -0.02868 0.53517 1.01722
 C124 C -0.04468 0.55792 1.06033
 H125 H -0.06236 0.57141 1.04782
 N126 N -0.00248 0.52102 1.05794
 C127 C 0.08678 0.47628 1.05225
 H128 H 0.09640 0.49230 1.03627
 C129 C 0.10775 0.45635 1.06737
 H130 H 0.13346 0.45783 1.06345
 C131 C 0.04156 0.45355 1.07538
 H132 H 0.01556 0.45203 1.07758
 C133 C 0.06166 0.43322 1.09102
 H134 H 0.05090 0.41605 1.10519
 Zn135 Zn 0.02470 0.49714 1.03184
 N136 N 0.05430 0.47442 1.05632
 C137 C 0.06832 0.54640 1.02279
 N138 N 0.04699 0.52523 1.00733
 C139 C 0.04065 0.52503 0.97532
 C140 C 0.05675 0.54613 0.95749
 C141 C 0.08530 0.56766 1.00580
 C142 C -0.03190 0.46162 1.00716
 C143 C -0.04803 0.43781 0.98778
 C144 C 0.00265 0.42653 0.96381
 C145 C 0.01781 0.45011 0.98391
 N146 N 0.00046 0.46728 1.00481
 H147 H 0.07230 0.54659 1.04836
 H148 H 0.02281 0.50878 0.96357
 H149 H 0.05164 0.54550 0.93200
 H150 H 0.10233 0.58426 1.01843
 H151 H -0.04506 0.47500 1.02457
 H152 H -0.07358 0.43309 0.99061
 H153 H 0.01699 0.41376 0.94688
 H154 H 0.04361 0.45485 0.98286
 C155 C 0.09517 0.43409 1.08663
 C156 C -0.03959 0.56185 1.09355
 C157 C -0.03067 0.41975 0.96578
 C158 C 0.07957 0.56763 0.97272
 C159 C 1.05185 -0.03551 0.50952
 H160 H 1.05872 -0.03192 0.48561
 C161 C 1.07118 -0.05327 0.52915
 H162 H 1.09277 -0.06348 0.51994
 C163 C 1.01433 -0.02788 0.54976
 H164 H 0.99170 -0.01874 0.55746
 C165 C 1.03316 -0.04494 0.57031
 H166 H 1.02518 -0.04758 0.59405
 N167 N 1.02402 -0.02324 0.52009
 C168 C 1.03892 0.05129 0.48502
 H169 H 1.03659 0.05601 0.51021
 C170 C 1.05718 0.07188 0.46838
 H171 H 1.06881 0.09221 0.48107
 C172 C 1.02738 0.01891 0.43798
 H173 H 1.01611 -0.00192 0.42616
 C174 C 1.04545 0.03881 0.42047
 H175 H 1.04718 0.03333 0.39519
 Zn176 Zn 0.99730 -0.00107 0.49211
 N177 N 1.02390 0.02567 0.46959
 C178 C 0.97999 0.04018 0.54258
 N179 N 0.96775 0.02303 0.51620
 C180 C 0.93537 0.02244 0.50800
 C181 C 0.91411 0.03971 0.52642
 C182 C 0.95954 0.05712 0.56208
 C183 C 0.97863 -0.06114 0.46500
 C184 C 0.96353 -0.08289 0.44259
 C185 C 0.93899 -0.04071 0.41610
 C186 C 0.95490 -0.01973 0.43877
 N187 N 0.97434 -0.03018 0.46261
 H188 H 1.00558 0.03967 0.54936
 H189 H 0.92577 0.00850 0.48729
 H190 H 0.88861 0.03927 0.51891
 H191 H 0.96997 0.06927 0.58365
 H192 H 0.99406 -0.06908 0.48411
 H193 H 0.96738 -0.10743 0.44470
 H194 H 0.92403 -0.03199 0.39699
 H195 H 0.95225 0.00500 0.43704
 C196 C 1.06038 0.06589 0.43558
 C197 C 1.06188 -0.05828 0.56006
 C198 C 0.94352 -0.07272 0.41770
 C199 C 0.92601 0.05719 0.55415
 C200 C 0.18456 0.30190 1.17484
 C201 C 0.16753 0.32735 1.16437
 C202 C 0.14534 0.34230 1.18418
 C203 C 0.14113 0.33191 1.21447
 C204 C 0.15824 0.30657 1.22485
 C205 C 0.18011 0.29074 1.20518
 C206 C 0.12744 0.36708 1.17323
 C207 C 0.13140 0.37694 1.14257
 C208 C 0.15409 0.36226 1.12299
 C209 C 0.17199 0.33761 1.13400
 C210 C 0.15821 0.37216 1.09247
 C211 C 0.13955 0.39596 1.08109
 C212 C 0.11641 0.41038 1.09999
 C213 C 0.11270 0.40091 1.13092
 H214 H 0.19985 0.28994 1.15822
 H215 H 0.12451 0.34335 1.23019
 H216 H 0.15473 0.30020 1.24881
 H217 H 0.11014 0.37836 1.18835
 H218 H 0.18912 0.32619 1.11879
 H219 H 0.17549 0.36115 1.07718
 H220 H 0.14257 0.40248 1.05705
 H221 H 0.09514 0.41207 1.14581
 C222 C -0.15504 0.68997 1.16287
 C223 C -0.13942 0.66395 1.14973
 C224 C -0.15656 0.64287 1.12744
 C225 C -0.18927 0.64766 1.11937
 C226 C -0.20470 0.67357 1.13247
 C227 C -0.18784 0.69567 1.15405
 C228 C -0.14061 0.61766 1.11313
 C229 C -0.10756 0.61344 1.12065
 C230 C -0.09056 0.63412 1.14354
 C231 C -0.10660 0.65918 1.15798
 C232 C -0.05758 0.62974 1.15114
 C233 C -0.04132 0.60566 1.13554
 C234 C -0.05771 0.58551 1.11206
 C235 C -0.09104 0.58927 1.10512
 H236 H -0.14064 0.70657 1.17845
 H237 H -0.20296 0.63142 1.10271
 H238 H -0.23023 0.67557 1.12602
 H239 H -0.15373 0.60173 1.09569
 H240 H -0.09339 0.67527 1.17521
 H241 H -0.04419 0.64532 1.16867
 H242 H -0.01559 0.60345 1.14110
 H243 H -0.10400 0.57362 1.08732
 C244 C -0.13567 0.29713 0.85280
 C245 C -0.12170 0.32146 0.87310
 C246 C -0.14025 0.34755 0.88165
 C247 C -0.17279 0.34839 0.87020
 C248 C -0.18675 0.32364 0.85048
 C249 C -0.16817 0.29806 0.84142
 C250 C -0.12599 0.37218 0.90157
 C251 C -0.09364 0.37070 0.91349
 C252 C -0.07553 0.34417 0.90549
 C253 C -0.08956 0.31988 0.88518
 C254 C -0.04361 0.34226 0.91797
 C255 C -0.02947 0.36654 0.93792
 C256 C -0.04672 0.39355 0.94547
 C257 C -0.07904 0.39531 0.93326
 H258 H -0.12146 0.27711 0.84624
 H259 H -0.18746 0.36808 0.87664
 H260 H -0.21192 0.32457 0.84199
 H261 H -0.14007 0.39235 0.90790
 H262 H -0.07550 0.29969 0.87887
 H263 H -0.02957 0.32190 0.91240
 H264 H -0.00495 0.36399 0.94762
 H265 H -0.09267 0.41598 0.93862
 C266 C 0.14565 0.69342 0.86222
 C267 C 0.12941 0.67156 0.87941
 C268 C 0.09542 0.66716 0.87489
 C269 C 0.07822 0.68485 0.85353
 C270 C 0.09435 0.70699 0.83698
 C271 C 0.12846 0.71191 0.84088
 C272 C 0.07907 0.64539 0.89201
 C273 C 0.09627 0.62824 0.91403
 C274 C 0.13029 0.63282 0.91887
 C275 C 0.14669 0.65420 0.90130
 C276 C 0.14729 0.61609 0.94143
 C277 C 0.13075 0.59507 0.95907
 C278 C 0.09701 0.59012 0.95419
 C279 C 0.07992 0.60676 0.93153
 H280 H 0.17185 0.69509 0.86515
 H281 H 0.05206 0.68203 0.85005
 H282 H 0.07935 0.72108 0.82229
 H283 H 0.05295 0.64202 0.88842
 H284 H 0.17280 0.65763 0.90497
 H285 H 0.17335 0.61933 0.94550
 H286 H 0.14438 0.58231 0.97628
 H287 H 0.05382 0.60336 0.92793
 C288 C 1.16193 0.15939 0.31738
 C289 C 1.14649 0.13891 0.33677
 C290 C 1.15049 0.10656 0.33176
 C291 C 1.17000 0.09523 0.30774
 C292 C 1.18535 0.11563 0.28863
 C293 C 1.18166 0.14815 0.29291
 C294 C 1.13479 0.08596 0.35070
 C295 C 1.11508 0.09730 0.37469
 C296 C 1.11134 0.12969 0.38007
 C297 C 1.12710 0.15030 0.36110
 C298 C 1.09169 0.14088 0.40419
 C299 C 1.07554 0.12017 0.42251
 C300 C 1.07872 0.08789 0.41707
 C301 C 1.09884 0.07667 0.39322
 H302 H 1.15932 0.18413 0.32237
 H303 H 1.17310 0.07045 0.30341
 H304 H 1.19889 0.10538 0.26952
 H305 H 1.13776 0.06111 0.34663
 H306 H 1.12407 0.17515 0.36513
 H307 H 1.08852 0.16563 0.40866
 H308 H 1.05993 0.12941 0.44050
 H309 H 1.10189 0.05186 0.38911
 C310 C 1.13942 -0.16113 0.69133
 C311 C 1.12131 -0.14535 0.66862
 C312 C 1.08707 -0.14543 0.66922
 C313 C 1.07155 -0.16083 0.69261
 C314 C 1.08971 -0.17568 0.71557
 C315 C 1.12383 -0.17619 0.71527
 C316 C 1.06885 -0.12958 0.64686
 C317 C 1.08441 -0.11278 0.62445
 C318 C 1.11864 -0.11230 0.62396
 C319 C 1.13689 -0.12897 0.64576
 C320 C 1.13400 -0.09470 0.60198
 C321 C 1.11566 -0.07731 0.58112
 C322 C 1.08154 -0.07755 0.58146
 C323 C 1.06618 -0.09592 0.60294
 H324 H 1.16560 -0.16149 0.69039
 H325 H 1.04535 -0.16081 0.69359
 H326 H 1.07687 -0.18613 0.73408
 H327 H 1.04257 -0.12973 0.64739
 H328 H 1.16317 -0.12863 0.64538
 H329 H 1.16023 -0.09390 0.60134
 H330 H 1.12831 -0.06315 0.56520
 H331 H 1.03992 -0.09709 0.60310
 C332 C 0.83968 -0.17281 0.28286
 C333 C 0.85332 -0.15385 0.30883
 C334 C 0.83425 -0.13138 0.32433
 C335 C 0.80166 -0.12889 0.31429
 C336 C 0.78821 -0.14776 0.28851
 C337 C 0.80703 -0.16968 0.27171
 C338 C 0.84813 -0.11146 0.34934
 C339 C 0.88097 -0.11368 0.35905
 C340 C 0.89992 -0.13668 0.34410
 C341 C 0.88600 -0.15658 0.31906
 C342 C 0.93261 -0.13914 0.35421
 C343 C 0.94656 -0.11868 0.37855
 C344 C 0.92815 -0.09527 0.39301
 C345 C 0.89525 -0.09304 0.38328
 H346 H 0.85544 -0.18857 0.27042
 H347 H 0.78650 -0.11218 0.32631
 H348 H 0.76265 -0.14541 0.28245
 H349 H 0.83351 -0.09397 0.36095
 H350 H 0.90068 -0.17393 0.30734
 H351 H 0.94748 -0.15667 0.34310
 H352 H 0.97201 -0.12068 0.38558
 H353 H 0.88081 -0.07525 0.39461
 C354 C 0.83587 0.15834 0.68426
 C355 C 0.85500 0.14481 0.66075
 C356 C 0.88700 0.15623 0.65791
 C357 C 0.89942 0.18075 0.67873
 C358 C 0.88076 0.19337 0.70278
 C359 C 0.84853 0.18243 0.70639
 C360 C 0.90638 0.14250 0.63482
 C361 C 0.89456 0.11664 0.61527
 C362 C 0.86264 0.10494 0.61829
 C363 C 0.84282 0.11947 0.64055
 C364 C 0.85136 0.07840 0.59953
 C365 C 0.87177 0.06312 0.57857
 C366 C 0.90368 0.07446 0.57530
 C367 C 0.91454 0.10177 0.59340
 H368 H 0.81097 0.15000 0.68459
 H369 H 0.92409 0.18956 0.67711
 H370 H 0.89281 0.21069 0.71931
 H371 H 0.93099 0.15134 0.63273
 H372 H 0.81832 0.11045 0.64283
 H373 H 0.82703 0.06896 0.60169
 H374 H 0.86269 0.04190 0.56559
 H375 H 0.93870 0.11139 0.59084
 C376 C 0.30733 1.14625 0.16707
 C377 C 0.33192 1.13505 0.14808
 C378 C 0.35876 1.15469 0.14265
 C379 C 0.36043 1.18529 0.15641
 C380 C 0.33561 1.19637 0.17510
 C381 C 0.30889 1.17695 0.18061
 C382 C 0.38324 1.14350 0.12335
 C383 C 0.38097 1.11303 0.10918
 C384 C 0.35401 1.09353 0.11465
 C385 C 0.32977 1.10460 0.13413
 C386 C 0.35155 1.06325 0.10036
 C387 C 0.37550 1.05230 0.08071
 C388 C 0.40256 1.07130 0.07508
 C389 C 0.40511 1.10175 0.08948
 H390 H 0.28651 1.13127 0.17069
 H391 H 0.38080 1.20070 0.15252
 H392 H 0.33734 1.22009 0.18540
 H393 H 0.40383 1.15855 0.11915
 H394 H 0.30910 1.08959 0.13824
 H395 H 0.33095 1.04809 0.10416
 H396 H 0.37254 1.02900 0.06947
 H397 H 0.42596 1.11656 0.08559
 C398 C 0.69266 1.17135 -0.16633
 C399 C 0.67037 1.15179 -0.15254
 C400 C 0.67621 1.11965 -0.15202
 C401 C 0.70391 1.10756 -0.16550
 C402 C 0.72600 1.12715 -0.17895
 C403 C 0.72077 1.15921 -0.17941
 C404 C 0.65458 1.10012 -0.13758
 C405 C 0.62733 1.11232 -0.12330
 C406 C 0.62114 1.14435 -0.12408
 C407 C 0.64263 1.16389 -0.13885
 C408 C 0.59379 1.15630 -0.10963
 C409 C 0.57321 1.13684 -0.09394
 C410 C 0.57961 1.10510 -0.09246
 C411 C 0.60648 1.09297 -0.10773
 H412 H 0.68819 1.19597 -0.16679
 H413 H 0.70877 1.08300 -0.16520
 H414 H 0.74768 1.11725 -0.18833
 H415 H 0.65927 1.07552 -0.13700
 H416 H 0.63805 1.18852 -0.13925
 H417 H 0.58860 1.18078 -0.11002
 H418 H 0.55276 1.14677 -0.08224
 H419 H 0.61131 1.06840 -0.10732
 C420 C 0.27359 0.85636 -0.16840
 C421 C 0.30295 0.86955 -0.15469
 C422 C 0.32580 0.85047 -0.13998
 C423 C 0.31935 0.81841 -0.14017
 C424 C 0.29027 0.80540 -0.15422
 C425 C 0.26680 0.82422 -0.16805
 C426 C 0.35451 0.86378 -0.12499
 C427 C 0.36075 0.89594 -0.12464
 C428 C 0.33839 0.91488 -0.14028
 C429 C 0.30961 0.90159 -0.15510
 C430 C 0.34497 0.94692 -0.14038
 C431 C 0.37296 0.96025 -0.12438
 C432 C 0.39477 0.94183 -0.10784
 C433 C 0.38872 0.90956 -0.10843
 H434 H 0.25571 0.87133 -0.17857
 H435 H 0.33675 0.80337 -0.12934
 H436 H 0.28620 0.78050 -0.15425
 H437 H 0.37178 0.84918 -0.11326
 H438 H 0.29224 0.91622 -0.16665
 H439 H 0.32819 0.96176 -0.15235
 H440 H 0.37700 0.98520 -0.12400
 H441 H 0.40561 0.89517 -0.09597
 C442 C 0.69683 0.85163 0.12412
 C443 C 0.67264 0.86590 0.10620
 C444 C 0.64535 0.84816 0.09289
 C445 C 0.64309 0.81623 0.09739
 C446 C 0.66738 0.80216 0.11531
 C447 C 0.69425 0.81980 0.12913
 C448 C 0.62072 0.86267 0.07560
 C449 C 0.62308 0.89470 0.07153
 C450 C 0.65067 0.91224 0.08455
 C451 C 0.67526 0.89774 0.10170
 C452 C 0.65314 0.94415 0.08045
 C453 C 0.62832 0.95875 0.06403
 C454 C 0.60046 0.94180 0.05139
 C455 C 0.59818 0.90960 0.05497
 H456 H 0.71777 0.86531 0.13421
 H457 H 0.62240 0.80222 0.08732
 H458 H 0.66483 0.77762 0.11897
 H459 H 0.59965 0.84913 0.06557
 H460 H 0.69627 0.91131 0.11184
 H461 H 0.67422 0.95786 0.09008
 H462 H 0.63104 0.98341 0.06104
 H463 H 0.57675 0.89631 0.04552
   
