data_POSCAR
  _audit_creation_date              2014-09-24
  _audit_creation_method            'ToBaCCo'
  _symmetry_space_group_name_H-M    'P1'
  _symmetry_Int_Tables_number       1
  _symmetry_cell_setting            triclinic
  loop_
  _symmetry_equiv_pos_as_xyz
 x,y,z
_cell_length_a 23.0397
_cell_length_b 22.5370
_cell_length_c 24.2355
_cell_angle_alpha 90.300300
_cell_angle_beta 93.840100
_cell_angle_gamma 120.153200
loop_
  _atom_site_label
  _atom_site_type_symbol
  _atom_site_fract_x
  _atom_site_fract_y
  _atom_site_fract_z
C1 C 0.54380 0.11578 0.07460
 H2 H 0.59242 0.12170 0.08732
 C3 C 0.52311 0.15748 0.09949
 H4 H 0.55665 0.19582 0.13100
 C5 C 0.44163 0.05883 0.01761
 H6 H 0.40936 0.01956 -0.01362
 C7 C 0.41895 0.09918 0.04138
 H8 H 0.36931 0.08993 0.02782
 N9 N 0.50357 0.06847 0.03375
 C10 C 0.61212 -0.02487 0.06820
 H11 H 0.65366 0.01420 0.04751
 C12 C 0.62461 -0.06170 0.10867
 H13 H 0.67555 -0.05148 0.11756
 C14 C 0.49589 -0.08457 0.08248
 H15 H 0.44601 -0.09225 0.07265
 C16 C 0.50599 -0.12339 0.12277
 H17 H 0.46353 -0.16109 0.14369
 Zn18 Zn 0.53349 0.01367 -0.00012
 N19 N 0.54841 -0.03754 0.05519
 C20 C 0.63930 0.03489 -0.06180
 N21 N 0.61403 0.06882 -0.03470
 C22 C 0.64359 0.13840 -0.03510
 C23 C 0.70159 0.17663 -0.06302
 C24 C 0.69742 0.07105 -0.08970
 C25 C 0.43068 -0.11339 -0.05550
 C26 C 0.38196 -0.15175 -0.09864
 C27 C 0.41405 -0.04666 -0.14551
 C28 C 0.46134 -0.01052 -0.10131
 N29 N 0.46832 -0.04389 -0.05717
 H30 H 0.61395 -0.02058 -0.06176
 H31 H 0.62186 0.16434 -0.01449
 H32 H 0.72452 0.23195 -0.06282
 H33 H 0.71602 0.04269 -0.11139
 H34 H 0.43799 -0.13938 -0.02078
 H35 H 0.35292 -0.20686 -0.09568
 H36 H 0.40973 -0.01724 -0.17888
 H37 H 0.49224 0.04480 -0.10174
 C38 C 0.57110 -0.11216 0.13613
 C39 C 0.46011 0.14995 0.08246
 C40 C 0.37262 -0.11858 -0.14476
 C41 C 0.72930 0.14288 -0.09064
 C42 C -0.12863 0.44622 0.61161
 H43 H -0.12909 0.39847 0.60498
 C44 C -0.18335 0.45235 0.59102
 H45 H -0.22580 0.40925 0.56823
 C46 C -0.07348 0.55994 0.65060
 H47 H -0.03095 0.60147 0.67440
 C48 C -0.12798 0.56758 0.63211
 H49 H -0.12643 0.61552 0.64099
 N50 N -0.07434 0.50025 0.63944
 C51 C 0.09095 0.46169 0.62054
 H52 H 0.11254 0.47204 0.66294
 C53 C 0.12242 0.44726 0.57957
 H54 H 0.16802 0.44594 0.59080
 C55 C 0.00600 0.45237 0.55428
 H56 H -0.03798 0.45665 0.54403
 C57 C 0.03512 0.43641 0.51218
 H58 H 0.01273 0.42802 0.47008
 Zn59 Zn -0.00142 0.48893 0.66594
 N60 N 0.03372 0.46382 0.60741
 C61 C -0.03214 0.36135 0.71124
 N62 N -0.03449 0.41998 0.71830
 C63 C -0.06589 0.42855 0.76057
 C64 C -0.09762 0.37637 0.79743
 C65 C -0.06282 0.30805 0.74738
 C66 C 0.09793 0.62567 0.66402
 C67 C 0.15277 0.68867 0.68325
 C68 C 0.15070 0.64087 0.77254
 C69 C 0.09524 0.57880 0.75157
 N70 N 0.06998 0.57258 0.69821
 H71 H -0.00825 0.35492 0.67668
 H72 H -0.06765 0.47542 0.76477
 H73 H -0.12296 0.38396 0.83043
 H74 H -0.06194 0.26114 0.73996
 H75 H 0.07759 0.61875 0.62140
 H76 H 0.17336 0.72886 0.65409
 H77 H 0.16911 0.64383 0.81524
 H78 H 0.07302 0.53540 0.77775
 C79 C 0.09430 0.43423 0.52464
 C80 C -0.18326 0.51365 0.60133
 C81 C 0.18055 0.69753 0.73838
 C82 C -0.09693 0.31482 0.79071
 C83 C 0.51550 0.48861 0.45124
 H84 H 0.46737 0.48182 0.46022
 C85 C 0.56190 0.49693 0.49501
 H86 H 0.54893 0.49661 0.53718
 C87 C 0.59108 0.49686 0.38601
 H88 H 0.60238 0.49748 0.34334
 C89 C 0.63833 0.50371 0.42856
 H90 H 0.68609 0.51001 0.41835
 N91 N 0.53118 0.49011 0.39790
 C92 C 0.32993 0.40201 0.35172
 H93 H 0.33211 0.36466 0.32511
 C94 C 0.26871 0.38712 0.37166
 H95 H 0.22411 0.33801 0.36042
 C96 C 0.38537 0.51120 0.39908
 H97 H 0.43109 0.55977 0.40900
 C98 C 0.32560 0.49800 0.42063
 H99 H 0.32563 0.53690 0.44705
 Zn100 Zn 0.46970 0.48453 0.33864
 N101 N 0.38669 0.46309 0.36595
 C102 C 0.42418 0.41428 0.23453
 N103 N 0.45553 0.41617 0.28463
 C104 C 0.47651 0.37049 0.29585
 C105 C 0.46777 0.32168 0.25536
 C106 C 0.41415 0.36620 0.19299
 C107 C 0.45943 0.58343 0.27574
 C108 C 0.48127 0.64632 0.25115
 C109 C 0.59455 0.68257 0.28823
 C110 C 0.57046 0.61909 0.31232
 N111 N 0.50399 0.57071 0.30532
 H112 H 0.40727 0.45046 0.22655
 H113 H 0.49970 0.37145 0.33633
 H114 H 0.48475 0.28582 0.26524
 H115 H 0.39032 0.36690 0.15320
 H116 H 0.40652 0.54490 0.27175
 H117 H 0.44447 0.65497 0.22826
 H118 H 0.64785 0.71928 0.29390
 H119 H 0.60519 0.60879 0.33649
 C120 C 0.26631 0.43529 0.40692
 C121 C 0.62424 0.50494 0.48381
 C122 C 0.54980 0.69705 0.25704
 C123 C 0.43643 0.31928 0.20300
 N124 N 0.14072 0.38050 0.40344
 N125 N 0.09553 0.38081 0.43411
 C126 C 0.12759 0.42041 0.48040
 C127 C 0.19618 0.44679 0.47890
 C128 C 0.20250 0.42051 0.42932
 H129 H 0.23594 0.48102 0.50931
 H130 H 0.12915 0.35440 0.36495
 H131 H 0.04369 0.35393 0.42340
 N132 N 0.63694 0.81903 0.23996
 N133 N 0.64240 0.86881 0.20826
 C134 C 0.58344 0.84714 0.17810
 C135 C 0.53839 0.78051 0.19137
 C136 C 0.57433 0.76410 0.23061
 H137 H 0.48749 0.74801 0.17327
 H138 H 0.67593 0.82362 0.26748
 H139 H 0.68593 0.91692 0.20791
 N140 N 0.26312 0.81929 0.73014
 N141 N 0.31681 0.87108 0.76313
 C142 C 0.32329 0.84418 0.81123
 C143 C 0.27353 0.77490 0.80961
 C144 C 0.23665 0.76104 0.75837
 H145 H 0.26503 0.73917 0.84183
 H146 H 0.24694 0.82741 0.69120
 H147 H 0.34649 0.92090 0.75024
 N148 N 0.68412 0.55229 0.57720
 N149 N 0.73549 0.55565 0.60772
 C150 C 0.75933 0.52120 0.58040
 C151 C 0.72192 0.49526 0.53007
 C152 C 0.67484 0.51636 0.52957
 H153 H 0.72859 0.46599 0.49810
 H154 H 0.65710 0.57565 0.58850
 H155 H 0.75338 0.58078 0.64670
 N156 N 0.38190 0.24853 0.11474
 N157 N 0.38803 0.20424 0.08332
 C158 C 0.43751 0.19490 0.10670
 C159 C 0.46381 0.23526 0.15543
 C160 C 0.42723 0.26860 0.15901
 H161 H 0.50438 0.24037 0.18395
 H162 H 0.34669 0.26402 0.10567
 H163 H 0.35924 0.18219 0.04600
 N164 N -0.12295 0.20415 0.83414
 N165 N -0.16865 0.15900 0.86513
 C166 C -0.21021 0.18184 0.87834
 C167 C -0.18944 0.24475 0.85501
 C168 C -0.13426 0.25688 0.82686
 H169 H -0.21352 0.27538 0.85571
 H170 H -0.08500 0.19828 0.81832
 H171 H -0.17094 0.11336 0.87671
   
