data_POSCAR
  _audit_creation_date              2014-09-24
  _audit_creation_method            'ToBaCCo'
  _symmetry_space_group_name_H-M    'P1'
  _symmetry_Int_Tables_number       1
  _symmetry_cell_setting            triclinic
  loop_
  _symmetry_equiv_pos_as_xyz
 x,y,z
_cell_length_a 41.1711
_cell_length_b 40.5524
_cell_length_c 41.1396
_cell_angle_alpha 89.931900
_cell_angle_beta 89.971300
_cell_angle_gamma 90.030700
loop_
  _atom_site_label
  _atom_site_type_symbol
  _atom_site_fract_x
  _atom_site_fract_y
  _atom_site_fract_z
N1 N 0.58779 0.67720 0.61090
 N2 N 0.57546 0.66416 0.63741
 C3 C 0.54903 0.68154 0.64624
 C4 C 0.54453 0.70694 0.62410
 C5 C 0.56970 0.70332 0.60200
 H6 H 0.53432 0.67623 0.66736
 H7 H 0.57446 0.71835 0.58082
 Cu8 Cu 0.59511 0.62573 0.65784
 Cu9 Cu 0.62630 0.65938 0.58983
 Cu10 Cu 0.66103 0.59004 0.62476
 N11 N 0.61445 0.58628 0.67662
 N12 N 0.64018 0.57248 0.66359
 C13 C 0.64848 0.54581 0.68118
 C14 C 0.62674 0.54248 0.70685
 C15 C 0.60545 0.56881 0.70298
 H16 H 0.66889 0.53013 0.67549
 H17 H 0.58488 0.57494 0.71810
 N18 N 0.67858 0.61141 0.58545
 N19 N 0.66533 0.63777 0.57212
 C20 C 0.68277 0.64642 0.54576
 C21 C 0.70832 0.62449 0.54224
 C22 C 0.70482 0.60264 0.56792
 H23 H 0.67742 0.66737 0.53044
 H24 H 0.72010 0.58170 0.57334
 H25 H 0.61960 0.61147 0.60577
 H26 H 0.64646 0.63839 0.63092
 N27 N 0.91366 0.32314 0.10942
 N28 N 0.92682 0.33700 0.13506
 C29 C 0.95315 0.31953 0.14399
 C30 C 0.95687 0.29314 0.12275
 C31 C 0.93115 0.29643 0.10111
 H32 H 0.96834 0.32569 0.16449
 H33 H 0.92533 0.28069 0.08077
 Cu34 Cu 0.90822 0.37649 0.15441
 Cu35 Cu 0.87482 0.34066 0.08870
 Cu36 Cu 0.84024 0.41014 0.12338
 N37 N 0.88792 0.41494 0.17409
 N38 N 0.86142 0.42798 0.16183
 C39 C 0.85262 0.45411 0.17993
 C40 C 0.87477 0.45772 0.20505
 C41 C 0.89684 0.43232 0.20050
 H42 H 0.83147 0.46913 0.17524
 H43 H 0.91796 0.42700 0.21516
 N44 N 0.82239 0.38849 0.08443
 N45 N 0.83552 0.36201 0.07126
 C46 C 0.81786 0.35316 0.04514
 C47 C 0.79234 0.37512 0.04159
 C48 C 0.79606 0.39719 0.06701
 H49 H 0.82340 0.33242 0.02966
 H50 H 0.78061 0.41793 0.07259
 H51 H 0.88118 0.38904 0.10310
 H52 H 0.85605 0.36223 0.13019
 N53 N 0.41299 0.17658 -0.11010
 N54 N 0.42606 0.16277 -0.13584
 C55 C 0.45242 0.18024 -0.14480
 C56 C 0.45617 0.20643 -0.12349
 C57 C 0.43060 0.20323 -0.10178
 H58 H 0.46785 0.17417 -0.16517
 H59 H 0.42495 0.21920 -0.08155
 Cu60 Cu 0.40735 0.12331 -0.15517
 Cu61 Cu 0.37411 0.15911 -0.08934
 Cu62 Cu 0.33938 0.08968 -0.12402
 N63 N 0.38703 0.08486 -0.17481
 N64 N 0.36053 0.07182 -0.16249
 C65 C 0.35170 0.04567 -0.18056
 C66 C 0.37384 0.04203 -0.20570
 C67 C 0.39593 0.06745 -0.20121
 H68 H 0.33055 0.03063 -0.17581
 H69 H 0.41706 0.07275 -0.21589
 N70 N 0.32158 0.11135 -0.08504
 N71 N 0.33476 0.13780 -0.07188
 C72 C 0.31712 0.14667 -0.04574
 C73 C 0.29154 0.12475 -0.04218
 C74 C 0.29523 0.10269 -0.06760
 H75 H 0.32270 0.16741 -0.03026
 H76 H 0.27972 0.08196 -0.07318
 H77 H 0.38037 0.11074 -0.10380
 H78 H 0.35525 0.13760 -0.13080
 N79 N 0.08603 0.82276 0.39019
 N80 N 0.07283 0.83670 0.36460
 C81 C 0.04649 0.81924 0.35568
 C82 C 0.04280 0.79276 0.37688
 C83 C 0.06857 0.79599 0.39849
 H84 H 0.03126 0.82546 0.33522
 H85 H 0.07441 0.78018 0.41880
 Cu86 Cu 0.09139 0.87630 0.34528
 Cu87 Cu 0.12490 0.84025 0.41088
 Cu88 Cu 0.15940 0.90992 0.37626
 N89 N 0.11165 0.91485 0.32563
 N90 N 0.13816 0.92788 0.33787
 C91 C 0.14694 0.95408 0.31978
 C92 C 0.12476 0.95776 0.29470
 C93 C 0.10270 0.93232 0.29925
 H94 H 0.16810 0.96911 0.32446
 H95 H 0.08156 0.92702 0.28461
 N96 N 0.17731 0.88815 0.41515
 N97 N 0.16422 0.86160 0.42830
 C98 C 0.18191 0.85268 0.45439
 C99 C 0.20742 0.87467 0.45794
 C100 C 0.20365 0.89682 0.43256
 H101 H 0.17640 0.83187 0.46985
 H102 H 0.21909 0.91762 0.42698
 H103 H 0.11850 0.88868 0.39657
 H104 H 0.14359 0.86201 0.36940
 C105 C 0.10038 0.14883 0.12458
 N106 N 0.10051 0.12544 0.14820
 C107 C 0.12396 0.10194 0.14851
 N108 N 0.14729 0.10184 0.12520
 C109 C 0.14717 0.12522 0.10158
 N110 N 0.12371 0.14872 0.10127
 C111 C 0.39858 0.85100 0.62471
 N112 N 0.39834 0.87442 0.64825
 C113 C 0.37480 0.89782 0.64847
 N114 N 0.35149 0.89781 0.62516
 C115 C 0.35172 0.87439 0.60163
 N116 N 0.37527 0.85099 0.60140
 C117 C 0.89921 0.64837 0.37515
 N118 N 0.87589 0.64823 0.39846
 C119 C 0.85240 0.62474 0.39818
 N120 N 0.85224 0.60139 0.37458
 C121 C 0.87557 0.60153 0.35126
 N122 N 0.89905 0.62502 0.35155
 C123 C 0.60127 0.35152 -0.12523
 N124 N 0.60148 0.37499 -0.14878
 C125 C 0.62500 0.39844 -0.14902
 N126 N 0.64830 0.39844 -0.12570
 C127 C 0.64810 0.37498 -0.10215
 N128 N 0.62458 0.35152 -0.10192
 C129 C 0.02995 0.21954 0.12371
 C130 C 0.00573 0.21901 0.09994
 C131 C -0.01840 0.24324 0.09957
 C132 C -0.01878 0.26860 0.12309
 C133 C 0.00590 0.26872 0.14693
 C134 C 0.02998 0.24442 0.14718
 C135 C 0.05478 0.19458 0.12401
 C136 C 0.07560 0.17369 0.12427
 H137 H 0.00549 0.19983 0.08163
 H138 H -0.03661 0.24181 0.08072
 H139 H 0.00694 0.28745 0.16556
 H140 H 0.04865 0.24506 0.16572
 C141 C 0.46946 0.78074 0.62421
 C142 C 0.49616 0.78391 0.60340
 C143 C 0.52055 0.75993 0.60331
 C144 C 0.51859 0.73238 0.62410
 C145 C 0.49157 0.72947 0.64492
 C146 C 0.46721 0.75348 0.64494
 C147 C 0.44443 0.80550 0.62434
 C148 C 0.42348 0.82626 0.62449
 H149 H 0.49817 0.80496 0.58728
 H150 H 0.54099 0.76325 0.58712
 H151 H 0.48899 0.70858 0.66108
 H152 H 0.44661 0.75075 0.66112
 C153 C 0.96970 0.71910 0.37595
 C154 C 0.96964 0.74408 0.35253
 C155 C 0.99372 0.76839 0.35277
 C156 C 1.01845 0.76819 0.37656
 C157 C 1.01812 0.74274 0.40003
 C158 C 0.99397 0.71849 0.39967
 C159 C 0.94485 0.69413 0.37567
 C160 C 0.92402 0.67323 0.37543
 H161 H 0.95093 0.74479 0.33403
 H162 H 0.99265 0.78720 0.33417
 H163 H 1.03636 0.74124 0.41884
 H164 H 0.99425 0.69923 0.41795
 C165 C 0.53060 0.28097 -0.12445
 C166 C 0.52695 0.25978 -0.15100
 C167 C 0.50278 0.23555 -0.15072
 C168 C 0.48185 0.23218 -0.12384
 C169 C 0.48575 0.25368 -0.09727
 C170 C 0.50996 0.27788 -0.09761
 C171 C 0.55552 0.30587 -0.12475
 C172 C 0.57640 0.32672 -0.12498
 H173 H 0.54277 0.26199 -0.17194
 H174 H 0.50045 0.21971 -0.17172
 H175 H 0.47037 0.25177 -0.07605
 H176 H 0.51261 0.29413 -0.07689
 C177 C 0.12439 0.03172 0.21959
 C178 C 0.10369 0.00445 0.21741
 C179 C 0.10378 -0.01960 0.24179
 C180 C 0.12464 -0.01672 0.26876
 C181 C 0.14538 0.01083 0.27066
 C182 C 0.14522 0.03485 0.24625
 C183 C 0.12424 0.05648 0.19450
 C184 C 0.12411 0.07723 0.17349
 H185 H 0.08749 0.00175 0.19684
 H186 H 0.08766 -0.04049 0.23925
 H187 H 0.16160 0.01412 0.29107
 H188 H 0.16132 0.05590 0.24821
 C189 C 0.62574 0.46900 -0.21977
 C190 C 0.64959 0.46850 -0.24394
 C191 C 0.64997 0.49269 -0.26817
 C192 C 0.62639 0.51797 -0.26871
 C193 C 0.60246 0.51806 -0.24408
 C194 C 0.60220 0.49381 -0.21991
 C195 C 0.62545 0.44410 -0.19482
 C196 C 0.62523 0.42325 -0.17391
 H197 H 0.66796 0.44937 -0.24406
 H198 H 0.66889 0.49128 -0.28633
 H199 H 0.58377 0.53673 -0.24317
 H200 H 0.58359 0.49443 -0.20128
 C201 C 0.37418 0.96813 0.71932
 C202 C 0.35334 0.96498 0.74600
 C203 C 0.35318 0.98899 0.77036
 C204 C 0.37392 1.01655 0.76839
 C205 C 0.39478 1.01944 0.74139
 C206 C 0.39487 0.99539 0.71706
 C207 C 0.37437 0.94335 0.69430
 C208 C 0.37455 0.92257 0.67337
 H209 H 0.33725 0.94393 0.74802
 H210 H 0.33696 0.98570 0.79079
 H211 H 0.41091 1.04033 0.73880
 H212 H 0.41108 0.99810 0.69646
 C213 C 0.87509 0.53146 0.28020
 C214 C 0.89577 0.50420 0.28239
 C215 C 0.89569 0.48021 0.25800
 C216 C 0.87485 0.48315 0.23101
 C217 C 0.85412 0.51070 0.22911
 C218 C 0.85427 0.53465 0.25353
 C219 C 0.87525 0.55616 0.30529
 C220 C 0.87539 0.57686 0.32629
 H221 H 0.91196 0.50145 0.30297
 H222 H 0.91181 0.45933 0.26054
 H223 H 0.83793 0.51403 0.20868
 H224 H 0.83819 0.55569 0.25156
 C225 C 0.21738 0.12499 0.03157
 C226 C 0.22113 0.09761 0.01127
 C227 C 0.24520 0.09750 -0.01271
 C228 C 0.26593 0.12484 -0.01674
 C229 C 0.26190 0.15226 0.00384
 C230 C 0.23780 0.15230 0.02779
 C231 C 0.19260 0.12506 0.05625
 C232 C 0.17185 0.12513 0.07694
 H233 H 0.20548 0.07629 0.01402
 H234 H 0.24764 0.07584 -0.02782
 H235 H 0.27712 0.17386 0.00140
 H236 H 0.23507 0.17367 0.04334
 C237 C 0.78224 0.62449 0.46824
 C238 C 0.78555 0.60442 0.49571
 C239 C 0.76155 0.60438 0.51976
 C240 C 0.73383 0.62447 0.51668
 C241 C 0.73077 0.64456 0.48891
 C242 C 0.75481 0.64454 0.46489
 C243 C 0.80699 0.62454 0.44352
 C244 C 0.82772 0.62462 0.42282
 H245 H 0.80673 0.58884 0.49858
 H246 H 0.76497 0.58878 0.54082
 H247 H 0.70976 0.66015 0.48546
 H248 H 0.75197 0.66014 0.44368
 C249 C 0.71822 0.37500 -0.03213
 C250 C 0.73858 0.34766 -0.02838
 C251 C 0.76267 0.34766 -0.00444
 C252 C 0.76673 0.37507 0.01616
 C253 C 0.74606 0.40243 0.01216
 C254 C 0.72200 0.40236 -0.01182
 C255 C 0.69347 0.37498 -0.05682
 C256 C 0.67275 0.37497 -0.07751
 H257 H 0.73582 0.32631 -0.04395
 H258 H 0.77784 0.32605 -0.00201
 H259 H 0.74853 0.42407 0.02729
 H260 H 0.70640 0.42369 -0.01455
 C261 C 0.28159 0.87444 0.53161
 C262 C 0.26126 0.84707 0.52784
 C263 C 0.23716 0.84710 0.50391
 C264 C 0.23305 0.87457 0.48335
 C265 C 0.25370 0.90196 0.48736
 C266 C 0.27777 0.90186 0.51133
 C267 C 0.30635 0.87439 0.55630
 C268 C 0.32707 0.87438 0.57699
 H269 H 0.26405 0.82567 0.54339
 H270 H 0.22200 0.82547 0.50147
 H271 H 0.25120 0.92366 0.47227
 H272 H 0.29335 0.92322 0.51407
   
