data_POSCAR
  _audit_creation_date              2014-09-24
  _audit_creation_method            'ToBaCCo'
  _symmetry_space_group_name_H-M    'P1'
  _symmetry_Int_Tables_number       1
  _symmetry_cell_setting            triclinic
  loop_
  _symmetry_equiv_pos_as_xyz
 x,y,z
_cell_length_a 49.0535
_cell_length_b 49.0127
_cell_length_c 44.3006
_cell_angle_alpha 90.001100
_cell_angle_beta 90.064600
_cell_angle_gamma 90.028600
loop_
  _atom_site_label
  _atom_site_type_symbol
  _atom_site_fract_x
  _atom_site_fract_y
  _atom_site_fract_z
C1 C 0.08411 0.30062 0.01514
 C2 C 0.08418 0.30051 -0.01582
 C3 C 0.05767 0.29484 -0.02489
 N4 N 0.04153 0.29139 -0.00048
 C5 C 0.05758 0.29503 0.02401
 C6 C 0.04935 0.29062 -0.05509
 C7 C 0.02188 0.28672 -0.06398
 C8 C 0.01366 0.27757 -0.09223
 C9 C -0.01435 0.27749 -0.09225
 C10 C -0.02260 0.28659 -0.06401
 N11 N -0.00037 0.29245 -0.04706
 C12 C -0.05007 0.29034 -0.05516
 C13 C -0.05845 0.29441 -0.02498
 C14 C -0.08501 0.29986 -0.01598
 C15 C -0.08498 0.29987 0.01498
 C16 C -0.05843 0.29447 0.02393
 N17 N -0.04232 0.29103 -0.00051
 C18 C -0.05004 0.29055 0.05410
 C19 C -0.02261 0.28701 0.06302
 C20 C -0.01436 0.27823 0.09137
 C21 C 0.01367 0.27838 0.09139
 C22 C 0.02181 0.28724 0.06305
 N23 N -0.00043 0.29275 0.04603
 C24 C 0.04920 0.29107 0.05416
 H25 H 0.10168 0.30393 0.02948
 H26 H 0.10183 0.30371 -0.03003
 H27 H -0.00047 0.30247 0.02522
 H28 H 0.02652 0.27162 -0.11094
 H29 H -0.02720 0.27146 -0.11098
 H30 H -0.10266 0.30296 -0.03026
 H31 H -0.10260 0.30300 0.02926
 H32 H 0.02657 0.27265 0.11019
 H33 H -0.00040 0.30238 -0.02637
 H34 H -0.02719 0.27237 0.11015
 C35 C 0.41388 0.79081 0.48448
 C36 C 0.41394 0.79221 0.51538
 C37 C 0.44104 0.79300 0.52434
 N38 N 0.45743 0.79230 0.49987
 C39 C 0.44095 0.79087 0.47545
 C40 C 0.44995 0.79291 0.55472
 C41 C 0.47756 0.79254 0.56416
 C42 C 0.48587 0.78821 0.59374
 C43 C 0.51385 0.78819 0.59373
 C44 C 0.52208 0.79251 0.56415
 N45 N 0.49980 0.79574 0.54638
 C46 C 0.54967 0.79284 0.55468
 C47 C 0.55844 0.79300 0.52429
 C48 C 0.58550 0.79226 0.51525
 C49 C 0.58541 0.79096 0.48434
 C50 C 0.55830 0.79100 0.47539
 N51 N 0.54194 0.79234 0.49986
 C52 C 0.54938 0.79012 0.44504
 C53 C 0.52180 0.79096 0.43560
 C54 C 0.51350 0.79370 0.40579
 C55 C 0.48550 0.79363 0.40580
 C56 C 0.47730 0.79086 0.43561
 N57 N 0.49958 0.78889 0.45355
 C58 C 0.44974 0.78992 0.44508
 H59 H 0.39592 0.78985 0.47030
 H60 H 0.39601 0.79227 0.52961
 H61 H 0.49963 0.78414 0.47630
 H62 H 0.47310 0.78487 0.61331
 H63 H 0.52666 0.78483 0.61329
 H64 H 0.60349 0.79231 0.52943
 H65 H 0.60332 0.79006 0.47012
 H66 H 0.47265 0.79562 0.38604
 H67 H 0.49975 0.80150 0.52390
 H68 H 0.52630 0.79575 0.38602
 C69 C 0.91394 0.70811 0.01564
 C70 C 0.91376 0.70947 -0.01525
 C71 C 0.94082 0.70979 -0.02444
 N72 N 0.95739 0.70864 -0.00006
 C73 C 0.94108 0.70773 0.02448
 C74 C 0.94952 0.71095 -0.05490
 C75 C 0.97712 0.71019 -0.06444
 C76 C 0.98536 0.70779 -0.09431
 C77 C 1.01335 0.70771 -0.09432
 C78 C 1.02165 0.71008 -0.06448
 N79 N 0.99943 0.71189 -0.04648
 C80 C 1.04924 0.71072 -0.05505
 C81 C 1.05823 0.70965 -0.02472
 C82 C 1.08538 0.70926 -0.01592
 C83 C 1.08558 0.70801 0.01497
 C84 C 1.05853 0.70776 0.02420
 N85 N 1.04194 0.70867 -0.00016
 C86 C 1.04984 0.70821 0.05468
 C87 C 1.02221 0.70887 0.06415
 C88 C 1.01395 0.71363 0.09367
 C89 C 0.98598 0.71359 0.09368
 C90 C 0.97768 0.70881 0.06419
 N91 N 0.99991 0.70539 0.04644
 C92 C 0.95006 0.70812 0.05482
 H93 H 0.89607 0.70784 0.02995
 H94 H 0.89573 0.71018 -0.02933
 H95 H 0.99983 0.69922 0.02409
 H96 H 0.97252 0.70604 -0.11411
 H97 H 1.02614 0.70591 -0.11412
 H98 H 1.10324 0.70983 -0.03024
 H99 H 1.10363 0.70769 0.02904
 H100 H 0.97322 0.71718 0.11319
 H101 H 0.99953 0.71620 -0.02364
 H102 H 1.02675 0.71725 0.11318
 C103 C 0.41367 0.21038 0.51543
 C104 C 0.41378 0.20897 0.48453
 C105 C 0.44091 0.20824 0.47569
 N106 N 0.45725 0.20899 0.50024
 C107 C 0.44072 0.21038 0.52458
 C108 C 0.44987 0.20833 0.44536
 C109 C 0.47750 0.20876 0.43605
 C110 C 0.48587 0.21311 0.40652
 C111 C 0.51385 0.21315 0.40667
 C112 C 0.52202 0.20882 0.43628
 N113 N 0.49970 0.20557 0.45394
 C114 C 0.54959 0.20844 0.44587
 C115 C 0.55831 0.20828 0.47631
 C116 C 0.58535 0.20896 0.48549
 C117 C 0.58521 0.21024 0.51639
 C118 C 0.55808 0.21025 0.52521
 N119 N 0.54176 0.20897 0.50066
 C120 C 0.54910 0.21111 0.55553
 C121 C 0.52150 0.21032 0.56484
 C122 C 0.51314 0.20758 0.59461
 C123 C 0.48514 0.20766 0.59446
 C124 C 0.47699 0.21043 0.56461
 N125 N 0.49931 0.21239 0.54677
 C126 C 0.44945 0.21133 0.55501
 H127 H 0.39568 0.21130 0.52952
 H128 H 0.39589 0.20886 0.47020
 H129 H 0.49941 0.21712 0.52403
 H130 H 0.47314 0.21644 0.38689
 H131 H 0.52670 0.21652 0.38717
 H132 H 0.60337 0.20888 0.47139
 H133 H 0.60309 0.21109 0.53070
 H134 H 0.47225 0.20567 0.61416
 H135 H 0.49961 0.19978 0.47641
 H136 H 0.52590 0.20553 0.61443
 C137 C 0.72220 -0.08485 -0.01593
 C138 C 0.72217 -0.08500 0.01502
 C139 C 0.71522 -0.05881 0.02414
 N140 N 0.71075 -0.04283 -0.00025
 C141 C 0.71527 -0.05858 -0.02479
 C142 C 0.71183 -0.05049 0.05448
 C143 C 0.70719 -0.02316 0.06337
 C144 C 0.69929 -0.01501 0.09208
 C145 C 0.69917 0.01306 0.09213
 C146 C 0.70699 0.02132 0.06347
 N147 N 0.71191 -0.00086 0.04616
 C148 C 0.71141 0.04870 0.05477
 C149 C 0.71483 0.05731 0.02460
 C150 C 0.72161 0.08363 0.01590
 C151 C 0.72178 0.08382 -0.01506
 C152 C 0.71507 0.05759 -0.02430
 N153 N 0.71057 0.04155 0.00001
 C154 C 0.71190 0.04927 -0.05466
 C155 C 0.70737 0.02192 -0.06359
 C156 C 0.69949 0.01378 -0.09233
 C157 C 0.69947 -0.01428 -0.09242
 C158 C 0.70735 -0.02259 -0.06375
 N159 N 0.71218 -0.00039 -0.04640
 C160 C 0.71193 -0.04999 -0.05506
 H161 H 0.72667 -0.10216 -0.03027
 H162 H 0.72661 -0.10243 0.02919
 H163 H 0.72158 -0.00048 -0.02542
 H164 H 0.69454 -0.02796 0.11116
 H165 H 0.69432 0.02592 0.11125
 H166 H 0.72586 0.10095 0.03032
 H167 H 0.72617 0.10132 -0.02915
 H168 H 0.69466 -0.02712 -0.11159
 H169 H 0.72130 -0.00075 0.02520
 H170 H 0.69469 0.02674 -0.11139
 C171 C 0.21064 0.41381 0.48503
 C172 C 0.20922 0.41394 0.51593
 C173 C 0.20849 0.44110 0.52478
 N174 N 0.20926 0.45744 0.50024
 C175 C 0.21066 0.44088 0.47589
 C176 C 0.20856 0.45008 0.55512
 C177 C 0.20904 0.47774 0.56444
 C178 C 0.21337 0.48612 0.59399
 C179 C 0.21349 0.51413 0.59386
 C180 C 0.20922 0.52230 0.56424
 N181 N 0.20594 0.49996 0.54656
 C182 C 0.20896 0.54989 0.55466
 C183 C 0.20883 0.55859 0.52422
 C184 C 0.20962 0.58566 0.51506
 C185 C 0.21089 0.58549 0.48415
 C186 C 0.21078 0.55833 0.47532
 N187 N 0.20944 0.54202 0.49987
 C188 C 0.21157 0.54933 0.44500
 C189 C 0.21068 0.52169 0.43569
 C190 C 0.20783 0.51332 0.40592
 C191 C 0.20786 0.48529 0.40605
 C192 C 0.21071 0.47715 0.43590
 N193 N 0.21276 0.49950 0.45374
 C194 C 0.21161 0.44960 0.44548
 H195 H 0.21156 0.39580 0.47094
 H196 H 0.20910 0.39604 0.53024
 H197 H 0.21759 0.49960 0.47647
 H198 H 0.21665 0.47339 0.61363
 H199 H 0.21688 0.52699 0.61337
 H200 H 0.20961 0.60369 0.52916
 H201 H 0.21180 0.60337 0.46985
 H202 H 0.20579 0.47238 0.38636
 H203 H 0.20019 0.49987 0.52407
 H204 H 0.20574 0.52607 0.38611
 C205 C 0.30042 0.91576 0.01479
 C206 C 0.30037 0.91569 -0.01617
 C207 C 0.29472 0.94221 -0.02522
 N208 N 0.29124 0.95836 -0.00081
 C209 C 0.29482 0.94230 0.02367
 C210 C 0.29055 0.95054 -0.05542
 C211 C 0.28671 0.97803 -0.06425
 C212 C 0.27754 0.98629 -0.09248
 C213 C 0.27756 1.01433 -0.09245
 C214 C 0.28673 1.02254 -0.06420
 N215 N 0.29252 1.00028 -0.04730
 C216 C 0.29066 1.05001 -0.05532
 C217 C 0.29484 1.05837 -0.02513
 C218 C 0.30062 1.08489 -0.01615
 C219 C 0.30060 1.08491 0.01480
 C220 C 0.29482 1.05841 0.02379
 N221 N 0.29121 1.04230 -0.00067
 C222 C 0.29067 1.05006 0.05398
 C223 C 0.28687 1.02257 0.06281
 C224 C 0.27785 1.01425 0.09106
 C225 C 0.27790 0.98620 0.09098
 C226 C 0.28692 0.97809 0.06271
 N227 N 0.29262 1.00037 0.04581
 C228 C 0.29077 0.95068 0.05380
 H229 H 0.30368 0.89817 0.02912
 H230 H 0.30358 0.89802 -0.03040
 H231 H 0.30248 1.00039 0.02508
 H232 H 0.27153 0.97344 -0.11122
 H233 H 0.27157 1.02721 -0.11116
 H234 H 0.30397 1.10250 -0.03043
 H235 H 0.30394 1.10253 0.02907
 H236 H 0.27203 0.97327 0.10969
 H237 H 0.30248 1.00028 -0.02661
 H238 H 0.27193 1.02706 0.10984
 C239 C 0.78974 0.41399 0.51574
 C240 C 0.79111 0.41401 0.48484
 C241 C 0.79184 0.44113 0.47587
 N242 N 0.79112 0.45756 0.50034
 C243 C 0.78975 0.44109 0.52476
 C244 C 0.79170 0.45000 0.44549
 C245 C 0.79123 0.47762 0.43605
 C246 C 0.78683 0.48589 0.40647
 C247 C 0.78673 0.51389 0.40648
 C248 C 0.79108 0.52217 0.43605
 N249 N 0.79440 0.49990 0.45382
 C250 C 0.79139 0.54980 0.44551
 C251 C 0.79157 0.55862 0.47590
 C252 C 0.79080 0.58571 0.48494
 C253 C 0.78955 0.58566 0.51584
 C254 C 0.78966 0.55853 0.52480
 N255 N 0.79098 0.54213 0.50033
 C256 C 0.78887 0.54964 0.55516
 C257 C 0.78978 0.52205 0.56460
 C258 C 0.79262 0.51379 0.59440
 C259 C 0.79259 0.48576 0.59440
 C260 C 0.78975 0.47751 0.56459
 N261 N 0.78770 0.49979 0.54665
 C262 C 0.78883 0.44992 0.55514
 H263 H 0.78883 0.39603 0.52992
 H264 H 0.79118 0.39605 0.47061
 H265 H 0.78288 0.49980 0.52392
 H266 H 0.78348 0.47308 0.38691
 H267 H 0.78330 0.52668 0.38692
 H268 H 0.79079 0.60369 0.47075
 H269 H 0.78865 0.60359 0.53006
 H270 H 0.79466 0.47292 0.61415
 H271 H 0.80020 0.49990 0.47630
 H272 H 0.79470 0.52662 0.61416
 O273 O 0.24513 0.20705 0.23723
 O274 O 0.22835 0.26468 0.28727
 O275 O 0.20786 0.24468 0.23754
 O276 O 0.26559 0.22704 0.28700
 O277 O 0.29252 0.25394 0.26021
 O278 O 0.23477 0.27157 0.21074
 O279 O 0.25527 0.29157 0.26048
 O280 O 0.27206 0.23395 0.21045
 Cu281 Cu 0.23402 0.23315 0.26496
 Cu282 Cu 0.26637 0.26547 0.23276
 C283 C 0.26127 0.21082 0.21526
 C284 C 0.23915 0.28780 0.28246
 C285 C 0.21162 0.26094 0.21566
 C286 C 0.28875 0.23768 0.28210
 O287 O 0.75495 0.79270 0.23848
 O288 O 0.77175 0.73494 0.28831
 O289 O 0.79223 0.75509 0.23873
 O290 O 0.73442 0.77250 0.28804
 O291 O 0.70756 0.74567 0.26103
 O292 O 0.76536 0.72825 0.21175
 O293 O 0.74489 0.70810 0.26133
 O294 O 0.72809 0.76588 0.21147
 Cu295 Cu 0.76604 0.76652 0.26612
 Cu296 Cu 0.73376 0.73427 0.23367
 C297 C 0.73885 0.78899 0.21643
 C298 C 0.76102 0.71182 0.28335
 C299 C 0.78851 0.73886 0.21680
 C300 C 0.71128 0.76186 0.28299
 O301 O 0.79237 0.24439 0.23880
 O302 O 0.73489 0.22745 0.28891
 O303 O 0.75496 0.20688 0.23933
 O304 O 0.77238 0.26490 0.28848
 O305 O 0.74538 0.29163 0.26156
 O306 O 0.72796 0.23359 0.21238
 O307 O 0.70790 0.25416 0.26197
 O308 O 0.76536 0.27111 0.21188
 Cu309 Cu 0.76638 0.23321 0.26660
 Cu310 Cu 0.73392 0.26532 0.23423
 C311 C 0.78851 0.26045 0.21675
 C312 C 0.71173 0.23809 0.28401
 C313 C 0.73868 0.21049 0.21743
 C314 C 0.76167 0.28801 0.28345
 O315 O 0.27161 0.76513 0.21035
 O316 O 0.25468 0.70726 0.25990
 O317 O 0.23424 0.72755 0.21031
 O318 O 0.29198 0.74487 0.26000
 O319 O 0.26507 0.77162 0.28694
 O320 O 0.20733 0.75430 0.23726
 O321 O 0.22778 0.73401 0.28686
 O322 O 0.24470 0.79189 0.23729
 Cu323 Cu 0.26584 0.73351 0.23241
 Cu324 Cu 0.23350 0.76566 0.26480
 C325 C 0.26086 0.78823 0.21533
 C326 C 0.23854 0.71092 0.28188
 C327 C 0.21108 0.73815 0.21528
 C328 C 0.28822 0.76100 0.28200
 O329 O 0.77178 0.26492 0.71278
 O330 O 0.75502 0.20687 0.76220
 O331 O 0.73436 0.22742 0.71284
 O332 O 0.79237 0.24445 0.76223
 O333 O 0.76564 0.27115 0.78944
 O334 O 0.70765 0.25411 0.74009
 O335 O 0.72830 0.23356 0.78944
 O336 O 0.74506 0.29162 0.74000
 Cu337 Cu 0.76608 0.23322 0.73477
 Cu338 Cu 0.73397 0.26530 0.76749
 C339 C 0.76108 0.28801 0.71790
 C340 C 0.73898 0.21046 0.78428
 C341 C 0.71127 0.23806 0.71800
 C342 C 0.78874 0.26053 0.78430
 O343 O 0.29212 0.74634 0.73879
 O344 O 0.23428 0.72883 0.78803
 O345 O 0.25481 0.70871 0.73845
 O346 O 0.27163 0.76641 0.78843
 O347 O 0.24479 0.79328 0.76149
 O348 O 0.22797 0.73558 0.71149
 O349 O 0.20745 0.75569 0.76107
 O350 O 0.26528 0.77322 0.71184
 Cu351 Cu 0.26592 0.73486 0.76614
 Cu352 Cu 0.23367 0.76715 0.73375
 C353 C 0.28841 0.76259 0.71687
 C354 C 0.21115 0.73946 0.78299
 C355 C 0.23869 0.71245 0.71642
 C356 C 0.26090 0.78953 0.78353
 O357 O 0.25382 0.29232 0.73992
 O358 O 0.27128 0.23452 0.78941
 O359 O 0.29141 0.25502 0.73978
 O360 O 0.23367 0.27183 0.78953
 O361 O 0.20688 0.24489 0.76257
 O362 O 0.26463 0.22808 0.71282
 O363 O 0.24449 0.20758 0.76244
 O364 O 0.22703 0.26537 0.71296
 Cu365 Cu 0.26525 0.26614 0.76738
 Cu366 Cu 0.23306 0.23376 0.73498
 C367 C 0.23765 0.28855 0.71795
 C368 C 0.26067 0.21135 0.78441
 C369 C 0.28771 0.23889 0.71776
 C370 C 0.21058 0.26105 0.78457
 O371 O 0.73495 0.77275 0.71166
 O372 O 0.79262 0.75562 0.76149
 O373 O 0.77221 0.73510 0.71198
 O374 O 0.75537 0.79326 0.76114
 O375 O 0.72839 0.76667 0.78823
 O376 O 0.74523 0.70851 0.73907
 O377 O 0.76564 0.72903 0.78858
 O378 O 0.70797 0.74616 0.73874
 Cu379 Cu 0.76651 0.76686 0.73383
 Cu380 Cu 0.73409 0.73491 0.76639
 C381 C 0.71177 0.76221 0.71667
 C382 C 0.78882 0.73960 0.78359
 C383 C 0.76141 0.71204 0.71710
 C384 C 0.73919 0.78973 0.78311
 C385 C 0.28233 0.10947 0.11662
 C386 C 0.30560 0.11188 0.13968
 C387 C 0.30188 0.13229 0.16020
 C388 C 0.27527 0.14826 0.15561
 C389 C 0.25267 0.12659 0.15609
 C390 C 0.25638 0.10620 0.13560
 C391 C 0.28002 0.13789 0.10232
 C392 C 0.27631 0.15827 0.12280
 C393 C 0.28604 0.08764 0.09435
 C394 C 0.28849 0.06994 0.07564
 C395 C 0.27099 0.17033 0.17748
 C396 C 0.26688 0.18870 0.19500
 H397 H 0.32340 0.09872 0.13988
 H398 H 0.31650 0.13662 0.17799
 H399 H 0.23529 0.12717 0.17124
 H400 H 0.24220 0.08933 0.13320
 H401 H 0.28123 0.14168 0.07821
 H402 H 0.27434 0.17952 0.11624
 C403 C 0.78161 0.60998 0.61932
 C404 C 0.80461 0.61179 0.64277
 C405 C 0.80115 0.63233 0.66320
 C406 C 0.77504 0.64898 0.65812
 C407 C 0.75186 0.62793 0.65824
 C408 C 0.75532 0.60743 0.63785
 C409 C 0.78026 0.63844 0.60494
 C410 C 0.77680 0.65893 0.62533
 C411 C 0.78500 0.58809 0.59712
 C412 C 0.78711 0.57045 0.57832
 C413 C 0.77099 0.67119 0.67982
 C414 C 0.76698 0.68972 0.69714
 H415 H 0.82204 0.59815 0.64330
 H416 H 0.81562 0.63630 0.68124
 H417 H 0.73430 0.62901 0.67309
 H418 H 0.74072 0.59094 0.63523
 H419 H 0.78190 0.64216 0.58085
 H420 H 0.77549 0.68022 0.61870
 C421 C 0.71881 0.89056 0.11781
 C422 C 0.72186 0.86222 0.10348
 C423 C 0.72527 0.84181 0.12400
 C424 C 0.72531 0.85171 0.15686
 C425 C 0.69838 0.86733 0.16059
 C426 C 0.69497 0.88778 0.14003
 C427 C 0.74420 0.89407 0.13771
 C428 C 0.74762 0.87366 0.15824
 C429 C 0.71547 0.91237 0.09546
 C430 C 0.71343 0.92993 0.07652
 C431 C 0.72932 0.82960 0.17874
 C432 C 0.73330 0.81117 0.19623
 H433 H 0.72135 0.85850 0.07932
 H434 H 0.72768 0.82061 0.11741
 H435 H 0.68336 0.86275 0.17783
 H436 H 0.67702 0.90073 0.13966
 H437 H 0.75824 0.91112 0.13588
 H438 H 0.76459 0.87322 0.17398
 C439 C 0.21647 0.38996 0.61950
 C440 C 0.19192 0.38571 0.64045
 C441 C 0.19558 0.36531 0.66100
 C442 C 0.22343 0.35119 0.65853
 C443 C 0.24445 0.37428 0.66122
 C444 C 0.24079 0.39466 0.64071
 C445 C 0.22163 0.36195 0.60512
 C446 C 0.22529 0.34158 0.62563
 C447 C 0.21286 0.41173 0.59718
 C448 C 0.21056 0.42931 0.57833
 C449 C 0.22769 0.32912 0.68039
 C450 C 0.23187 0.31072 0.69783
 H451 H 0.17333 0.39768 0.63927
 H452 H 0.18013 0.35978 0.67743
 H453 H 0.26075 0.37462 0.67782
 H454 H 0.25394 0.41246 0.63973
 H455 H 0.22232 0.35842 0.58093
 H456 H 0.22911 0.32060 0.61900
 C457 C 0.88954 0.28184 0.11794
 C458 C 0.89294 0.25591 0.13700
 C459 C 0.87262 0.25212 0.15752
 C460 C 0.85088 0.27463 0.15699
 C461 C 0.84081 0.27557 0.12419
 C462 C 0.86112 0.27936 0.10367
 C463 C 0.88708 0.30514 0.14094
 C464 C 0.86673 0.30135 0.16149
 C465 C 0.91131 0.28563 0.09566
 C466 C 0.92897 0.28817 0.07697
 C467 C 0.82888 0.27027 0.17890
 C468 C 0.81057 0.26611 0.19645
 H469 H 0.90985 0.24179 0.13463
 H470 H 0.87213 0.23475 0.17272
 H471 H 0.81957 0.27348 0.11765
 H472 H 0.85729 0.28052 0.07956
 H473 H 0.90015 0.32302 0.14108
 H474 H 0.86237 0.31598 0.17924
 C475 C 0.38981 0.78444 0.61885
 C476 C 0.36166 0.79333 0.60734
 C477 C 0.34130 0.78951 0.62779
 C478 C 0.35107 0.77716 0.65775
 C479 C 0.37364 0.79643 0.66889
 C480 C 0.39404 0.80025 0.64840
 C481 C 0.38620 0.75458 0.62847
 C482 C 0.36585 0.75076 0.64891
 C483 C 0.41157 0.78825 0.59661
 C484 C 0.42915 0.79072 0.57783
 C485 C 0.32901 0.77273 0.67951
 C486 C 0.31061 0.76844 0.69688
 H487 H 0.35805 0.80190 0.58509
 H488 H 0.32023 0.79481 0.62306
 H489 H 0.37361 0.80618 0.69089
 H490 H 0.41149 0.81328 0.65285
 H491 H 0.39858 0.73790 0.62000
 H492 H 0.36079 0.73080 0.65795
 C493 C 0.10927 0.71644 0.11735
 C494 C 0.10493 0.74117 0.13805
 C495 C 0.12541 0.74497 0.15841
 C496 C 0.14825 0.72367 0.15610
 C497 C 0.15773 0.72489 0.12312
 C498 C 0.13725 0.72109 0.10276
 C499 C 0.11333 0.69218 0.13881
 C500 C 0.13385 0.69598 0.15920
 C501 C 0.08736 0.71268 0.09519
 C502 C 0.06966 0.71027 0.07646
 C503 C 0.17043 0.72807 0.17781
 C504 C 0.18888 0.73233 0.19518
 H505 H 0.08728 0.75449 0.13686
 H506 H 0.12532 0.76155 0.17466
 H507 H 0.17870 0.72838 0.11634
 H508 H 0.14069 0.72133 0.07856
 H509 H 0.10117 0.67368 0.13807
 H510 H 0.13927 0.68073 0.17594
 C511 C 0.60933 0.21813 0.61990
 C512 C 0.63764 0.22071 0.60548
 C513 C 0.65812 0.22407 0.62592
 C514 C 0.64831 0.22453 0.65879
 C515 C 0.63237 0.19781 0.66289
 C516 C 0.61185 0.19444 0.64241
 C517 C 0.60619 0.24376 0.63948
 C518 C 0.62668 0.24713 0.65993
 C519 C 0.58745 0.21484 0.59764
 C520 C 0.56984 0.21280 0.57879
 C521 C 0.67050 0.22849 0.68056
 C522 C 0.68900 0.23247 0.69794
 H523 H 0.64129 0.21992 0.58133
 H524 H 0.67932 0.22616 0.61927
 H525 H 0.63680 0.18288 0.68032
 H526 H 0.59868 0.17663 0.64229
 H527 H 0.58933 0.25800 0.63751
 H528 H 0.62737 0.26425 0.67546
 C529 C 0.71891 0.10838 0.88221
 C530 C 0.69536 0.11083 0.85951
 C531 C 0.69879 0.13138 0.83908
 C532 C 0.72543 0.14740 0.84339
 C533 C 0.74807 0.12581 0.84243
 C534 C 0.74464 0.10530 0.86283
 C535 C 0.72134 0.13673 0.89667
 C536 C 0.72476 0.15723 0.87628
 C537 C 0.71556 0.08648 0.90445
 C538 C 0.71351 0.06887 0.92333
 C539 C 0.72945 0.16963 0.82166
 C540 C 0.73343 0.18815 0.80432
 H541 H 0.67760 0.09761 0.85948
 H542 H 0.68396 0.13576 0.82153
 H543 H 0.76525 0.12653 0.82703
 H544 H 0.75889 0.08846 0.86491
 H545 H 0.72043 0.14039 0.92082
 H546 H 0.72678 0.17845 0.88296
 C547 C 0.21865 0.60939 0.38047
 C548 C 0.19554 0.61108 0.35715
 C549 C 0.19892 0.63151 0.33657
 C550 C 0.22507 0.64820 0.34138
 C551 C 0.24823 0.62714 0.34125
 C552 C 0.24485 0.60675 0.36180
 C553 C 0.22011 0.63792 0.39466
 C554 C 0.22348 0.65831 0.37412
 C555 C 0.21535 0.58761 0.40283
 C556 C 0.21328 0.57005 0.42173
 C557 C 0.22904 0.67029 0.31950
 C558 C 0.23300 0.68872 0.30203
 H559 H 0.17809 0.59745 0.35681
 H560 H 0.18437 0.63539 0.31859
 H561 H 0.26572 0.62813 0.32629
 H562 H 0.25944 0.59027 0.36444
 H563 H 0.21858 0.64178 0.41874
 H564 H 0.22485 0.67963 0.38060
 C565 C 0.28208 0.89105 0.88203
 C566 C 0.30585 0.88787 0.85979
 C567 C 0.30211 0.86742 0.83930
 C568 C 0.27496 0.85219 0.84310
 C569 C 0.25298 0.87445 0.84169
 C570 C 0.25673 0.89487 0.86215
 C571 C 0.27862 0.86279 0.89646
 C572 C 0.27488 0.84238 0.87600
 C573 C 0.28582 0.91291 0.90426
 C574 C 0.28831 0.93064 0.92295
 C575 C 0.27065 0.83009 0.82126
 C576 C 0.26651 0.81169 0.80377
 H577 H 0.32400 0.90056 0.86009
 H578 H 0.31705 0.86259 0.82205
 H579 H 0.23599 0.87421 0.82596
 H580 H 0.24295 0.91212 0.86394
 H581 H 0.27912 0.85913 0.92062
 H582 H 0.27216 0.82123 0.88266
 C583 C 0.78340 0.38970 0.38139
 C584 C 0.80788 0.38532 0.36036
 C585 C 0.80407 0.36487 0.33990
 C586 C 0.77617 0.35085 0.34252
 C587 C 0.75523 0.37399 0.33983
 C588 C 0.75904 0.39442 0.36026
 C589 C 0.77817 0.36175 0.39588
 C590 C 0.77437 0.34134 0.37546
 C591 C 0.78717 0.41152 0.40361
 C592 C 0.78958 0.42915 0.42239
 C593 C 0.77176 0.32873 0.32076
 C594 C 0.76749 0.31027 0.30342
 H595 H 0.82652 0.39723 0.36144
 H596 H 0.81945 0.35925 0.32343
 H597 H 0.73889 0.37433 0.32328
 H598 H 0.74596 0.41226 0.36122
 H599 H 0.77755 0.35829 0.42008
 H600 H 0.77049 0.32039 0.38217
 C601 C 0.10888 0.28221 0.88256
 C602 C 0.11253 0.30628 0.86074
 C603 C 0.13302 0.30255 0.84036
 C604 C 0.14781 0.27511 0.84382
 C605 C 0.12526 0.25345 0.84186
 C606 C 0.10480 0.25719 0.86222
 C607 C 0.13698 0.27815 0.89714
 C608 C 0.15743 0.27442 0.87679
 C609 C 0.08698 0.28594 0.90469
 C610 C 0.06925 0.28841 0.92332
 C611 C 0.16996 0.27081 0.82210
 C612 C 0.18839 0.26668 0.80470
 H613 H 0.10013 0.32461 0.86125
 H614 H 0.13817 0.31768 0.82340
 H615 H 0.12533 0.23668 0.82585
 H616 H 0.08734 0.24362 0.86364
 H617 H 0.14051 0.27824 0.92134
 H618 H 0.17848 0.27131 0.88357
 C619 C 0.60959 0.78266 0.38088
 C620 C 0.61147 0.80567 0.35745
 C621 C 0.63195 0.80212 0.33701
 C622 C 0.64849 0.77592 0.34207
 C623 C 0.62737 0.75281 0.34193
 C624 C 0.60692 0.75635 0.36233
 C625 C 0.63803 0.78120 0.39526
 C626 C 0.65847 0.77766 0.37487
 C627 C 0.58775 0.78614 0.40308
 C628 C 0.57014 0.78831 0.42187
 C629 C 0.67064 0.77176 0.32035
 C630 C 0.68908 0.76762 0.30301
 H631 H 0.59791 0.82317 0.35694
 H632 H 0.63596 0.81658 0.31899
 H633 H 0.62835 0.73522 0.32707
 H634 H 0.59039 0.74181 0.36494
 H635 H 0.64179 0.78284 0.41935
 H636 H 0.67975 0.77626 0.38149
 C637 C 0.89028 0.71873 0.88215
 C638 C 0.88864 0.69594 0.85842
 C639 C 0.86820 0.69956 0.83789
 C640 C 0.85146 0.72560 0.84314
 C641 C 0.87244 0.74884 0.84342
 C642 C 0.89284 0.74523 0.86392
 C643 C 0.86178 0.71986 0.89634
 C644 C 0.84138 0.72347 0.87585
 C645 C 0.91211 0.71516 0.90445
 C646 C 0.92975 0.71287 0.92326
 C647 C 0.82936 0.72980 0.82128
 C648 C 0.81097 0.73392 0.80379
 H649 H 0.90231 0.67854 0.85780
 H650 H 0.86436 0.68524 0.81967
 H651 H 0.87139 0.76657 0.82877
 H652 H 0.90927 0.75986 0.86682
 H653 H 0.85795 0.71797 0.92038
 H654 H 0.82008 0.72467 0.88234
 C655 C 0.38987 0.21638 0.38085
 C656 C 0.39335 0.19914 0.35217
 C657 C 0.37301 0.20282 0.33154
 C658 C 0.35124 0.22337 0.34166
 C659 C 0.36705 0.24957 0.34904
 C660 C 0.38735 0.24589 0.36963
 C661 C 0.36147 0.20906 0.39287
 C662 C 0.34116 0.21273 0.37227
 C663 C 0.41158 0.21274 0.40324
 C664 C 0.42912 0.21039 0.42213
 C665 C 0.32924 0.22766 0.31973
 C666 C 0.31088 0.23186 0.30224
 H667 H 0.41027 0.18529 0.34840
 H668 H 0.37249 0.19212 0.31009
 H669 H 0.36271 0.26928 0.33894
 H670 H 0.40040 0.26245 0.37716
 H671 H 0.35764 0.20162 0.41556
 H672 H 0.31993 0.20843 0.37731
 C673 C 0.71895 0.89141 0.88133
 C674 C 0.74446 0.89488 0.86167
 C675 C 0.74792 0.87450 0.84114
 C676 C 0.72553 0.85263 0.84227
 C677 C 0.69867 0.86833 0.83833
 C678 C 0.69521 0.88875 0.85890
 C679 C 0.72184 0.86304 0.89563
 C680 C 0.72529 0.84267 0.87511
 C681 C 0.71557 0.91315 0.90372
 C682 C 0.71352 0.93060 0.92275
 C683 C 0.72959 0.83052 0.82044
 C684 C 0.73361 0.81204 0.80308
 H685 H 0.75853 0.91189 0.86366
 H686 H 0.76496 0.87404 0.82553
 H687 H 0.68373 0.86383 0.82093
 H688 H 0.67731 0.90176 0.85913
 H689 H 0.72120 0.85929 0.91978
 H690 H 0.72761 0.82145 0.88168
 C691 C 0.21903 0.38919 0.38129
 C692 C 0.24558 0.39154 0.36318
 C693 C 0.24903 0.37115 0.34264
 C694 C 0.22560 0.35038 0.34221
 C695 C 0.19976 0.36741 0.33690
 C696 C 0.19630 0.38784 0.35746
 C697 C 0.21985 0.36061 0.39541
 C698 C 0.22330 0.34022 0.37488
 C699 C 0.21562 0.41102 0.40361
 C700 C 0.21346 0.42868 0.42241
 C701 C 0.22964 0.32830 0.32030
 C702 C 0.23362 0.30992 0.30275
 H703 H 0.26035 0.40782 0.36618
 H704 H 0.26677 0.36996 0.32806
 H705 H 0.18547 0.36376 0.31861
 H706 H 0.17905 0.40169 0.35680
 H707 H 0.21786 0.35673 0.41944
 H708 H 0.22427 0.31887 0.38133
 C709 C 0.28228 0.10957 0.88228
 C710 C 0.25671 0.10597 0.86269
 C711 C 0.25293 0.12645 0.84233
 C712 C 0.27511 0.14854 0.84355
 C713 C 0.30209 0.13313 0.83938
 C714 C 0.30587 0.11261 0.85977
 C715 C 0.27920 0.13781 0.89682
 C716 C 0.27543 0.15829 0.87647
 C717 C 0.28603 0.08766 0.90441
 C718 C 0.28848 0.06991 0.92305
 C719 C 0.27074 0.17070 0.82184
 C720 C 0.26650 0.18915 0.80447
 H721 H 0.24281 0.08880 0.86460
 H722 H 0.23580 0.12684 0.82681
 H723 H 0.31690 0.13789 0.82197
 H724 H 0.32391 0.09980 0.85984
 H725 H 0.27996 0.14142 0.92099
 H726 H 0.27295 0.17944 0.88321
 C727 C 0.78270 0.61018 0.38148
 C728 C 0.75802 0.60566 0.36075
 C729 C 0.75416 0.62610 0.34034
 C730 C 0.77536 0.64905 0.34265
 C731 C 0.80308 0.63476 0.33962
 C732 C 0.80694 0.61430 0.36006
 C733 C 0.77795 0.63820 0.39601
 C734 C 0.77409 0.65862 0.37561
 C735 C 0.78656 0.58832 0.40368
 C736 C 0.78909 0.57067 0.42243
 C737 C 0.77092 0.67118 0.32089
 C738 C 0.76671 0.68962 0.30348
 H739 H 0.74477 0.58794 0.36195
 H740 H 0.73759 0.62589 0.32407
 H741 H 0.81830 0.64022 0.32290
 H742 H 0.82547 0.60222 0.36085
 H743 H 0.77767 0.64169 0.42021
 H744 H 0.77051 0.67961 0.38235
 C745 C 0.10942 0.71833 0.88076
 C746 C 0.10714 0.74502 0.86283
 C747 C 0.12758 0.74864 0.84245
 C748 C 0.14833 0.72521 0.84198
 C749 C 0.13135 0.69936 0.83638
 C750 C 0.11086 0.69574 0.85680
 C751 C 0.13792 0.71909 0.89507
 C752 C 0.15836 0.72270 0.87469
 C753 C 0.08758 0.71478 0.90296
 C754 C 0.06998 0.71256 0.92175
 C755 C 0.17048 0.72944 0.82028
 C756 C 0.18894 0.73364 0.80297
 H757 H 0.09085 0.75977 0.86583
 H758 H 0.12882 0.76648 0.82799
 H759 H 0.13507 0.68519 0.81801
 H760 H 0.09701 0.67847 0.85593
 H761 H 0.14171 0.71694 0.91911
 H762 H 0.17967 0.72365 0.88127
 C763 C 0.61014 0.21677 0.38209
 C764 C 0.60581 0.24147 0.36135
 C765 C 0.62627 0.24522 0.34100
 C766 C 0.64908 0.22389 0.34337
 C767 C 0.63464 0.19622 0.34029
 C768 C 0.61414 0.19247 0.36068
 C769 C 0.63815 0.22140 0.39670
 C770 C 0.65860 0.22514 0.37635
 C771 C 0.58824 0.21305 0.40423
 C772 C 0.57053 0.21062 0.42289
 C773 C 0.67123 0.22821 0.32164
 C774 C 0.68963 0.23239 0.30422
 H775 H 0.58818 0.25483 0.36251
 H776 H 0.62618 0.26178 0.32473
 H777 H 0.64002 0.18094 0.32360
 H778 H 0.60196 0.17399 0.36144
 H779 H 0.64162 0.22168 0.42091
 H780 H 0.67959 0.22862 0.38314
 C781 C 0.89050 0.28187 0.88230
 C782 C 0.89437 0.25659 0.86232
 C783 C 0.87392 0.25283 0.84191
 C784 C 0.85160 0.27472 0.84346
 C785 C 0.86668 0.30198 0.83971
 C786 C 0.88715 0.30574 0.86016
 C787 C 0.86233 0.27823 0.89679
 C788 C 0.84189 0.27447 0.87638
 C789 C 0.91236 0.28562 0.90449
 C790 C 0.93007 0.28811 0.92318
 C791 C 0.82946 0.27039 0.82171
 C792 C 0.81100 0.26621 0.80433
 H793 H 0.91168 0.24288 0.86402
 H794 H 0.87372 0.23589 0.82612
 H795 H 0.86173 0.31697 0.82252
 H796 H 0.89975 0.32396 0.86050
 H797 H 0.85875 0.27862 0.92097
 H798 H 0.82080 0.27163 0.88308
 C799 C 0.38952 0.78210 0.38072
 C800 C 0.39722 0.76282 0.35480
 C801 C 0.37686 0.75916 0.33424
 C802 C 0.35080 0.77515 0.34161
 C803 C 0.36002 0.80497 0.34469
 C804 C 0.38040 0.80863 0.36528
 C805 C 0.36342 0.76995 0.39426
 C806 C 0.34308 0.76630 0.37372
 C807 C 0.41130 0.78571 0.40308
 C808 C 0.42890 0.78798 0.42192
 C809 C 0.32875 0.77089 0.31969
 C810 C 0.31037 0.76673 0.30219
 H811 H 0.41694 0.75296 0.35274
 H812 H 0.37914 0.74615 0.31456
 H813 H 0.35134 0.82170 0.33184
 H814 H 0.38919 0.82850 0.37007
 H815 H 0.36110 0.76472 0.41793
 H816 H 0.32334 0.75792 0.37980
 C817 C 0.28223 0.89001 0.11741
 C818 C 0.27984 0.86166 0.10294
 C819 C 0.27607 0.84120 0.12331
 C820 C 0.27506 0.85107 0.15617
 C821 C 0.25252 0.87277 0.15678
 C822 C 0.25629 0.89324 0.13641
 C823 C 0.30550 0.88746 0.14046
 C824 C 0.30173 0.86696 0.16086
 C825 C 0.28599 0.91191 0.09528
 C826 C 0.28848 0.92965 0.07665
 C827 C 0.27072 0.82891 0.17789
 C828 C 0.26654 0.81046 0.19526
 H829 H 0.28105 0.85798 0.07881
 H830 H 0.27404 0.81998 0.11662
 H831 H 0.23515 0.87215 0.17193
 H832 H 0.24216 0.91015 0.13411
 H833 H 0.32333 0.90058 0.14073
 H834 H 0.31633 0.86251 0.17862
 C835 C 0.78134 0.38966 0.61945
 C836 C 0.75499 0.39225 0.63787
 C837 C 0.75149 0.37185 0.65839
 C838 C 0.77469 0.35084 0.65850
 C839 C 0.80077 0.36758 0.66356
 C840 C 0.80427 0.38802 0.64301
 C841 C 0.78006 0.36112 0.60526
 C842 C 0.77657 0.34073 0.62577
 C843 C 0.78479 0.41147 0.59713
 C844 C 0.78698 0.42909 0.57829
 C845 C 0.77061 0.32873 0.68036
 C846 C 0.76661 0.31028 0.69780
 H847 H 0.74038 0.40869 0.63509
 H848 H 0.73388 0.37082 0.67318
 H849 H 0.81518 0.36374 0.68168
 H850 H 0.82168 0.40169 0.64352
 H851 H 0.78178 0.35727 0.58120
 H852 H 0.77529 0.31941 0.61928
 C853 C 0.71820 0.10860 0.11946
 C854 C 0.74327 0.10483 0.13979
 C855 C 0.74672 0.12530 0.16025
 C856 C 0.72476 0.14753 0.15837
 C857 C 0.69755 0.13232 0.16175
 C858 C 0.69410 0.11181 0.14126
 C859 C 0.72186 0.13681 0.10501
 C860 C 0.72531 0.15727 0.12545
 C861 C 0.71486 0.08676 0.09717
 C862 C 0.71289 0.06924 0.07821
 C863 C 0.72883 0.16971 0.18012
 C864 C 0.73293 0.18821 0.19746
 H865 H 0.75707 0.08757 0.13830
 H866 H 0.76347 0.12557 0.17627
 H867 H 0.68237 0.13720 0.17873
 H868 H 0.67597 0.09911 0.14068
 H869 H 0.72173 0.14041 0.08082
 H870 H 0.72812 0.17840 0.11877
 C871 C 0.21739 0.61054 0.61844
 C872 C 0.24230 0.60642 0.63893
 C873 C 0.24606 0.62694 0.65927
 C874 C 0.22453 0.64958 0.65714
 C875 C 0.19704 0.63490 0.66048
 C876 C 0.19328 0.61435 0.64011
 C877 C 0.22164 0.63861 0.60383
 C878 C 0.22539 0.65912 0.62416
 C879 C 0.21364 0.58860 0.59632
 C880 C 0.21118 0.57086 0.57765
 C881 C 0.22887 0.67179 0.67885
 C882 C 0.23303 0.69025 0.69625
 H883 H 0.25578 0.58890 0.63762
 H884 H 0.26276 0.62699 0.67537
 H885 H 0.18188 0.64015 0.67735
 H886 H 0.17491 0.60200 0.63953
 H887 H 0.22167 0.64208 0.57962
 H888 H 0.22864 0.68016 0.61736
 C889 C 0.88995 0.71670 0.11895
 C890 C 0.88590 0.69250 0.14050
 C891 C 0.86549 0.69642 0.16094
 C892 C 0.85119 0.72414 0.15777
 C893 C 0.84156 0.72529 0.12482
 C894 C 0.86193 0.72138 0.10442
 C895 C 0.89448 0.74147 0.13954
 C896 C 0.87410 0.74538 0.15995
 C897 C 0.91172 0.71282 0.09674
 C898 C 0.92930 0.71032 0.07796
 C899 C 0.82912 0.72865 0.17950
 C900 C 0.81071 0.73299 0.19683
 H901 H 0.89799 0.67397 0.13978
 H902 H 0.86009 0.68123 0.17774
 H903 H 0.82057 0.72883 0.11810
 H904 H 0.85838 0.72157 0.08023
 H905 H 0.91217 0.75474 0.13826
 H906 H 0.87433 0.76201 0.17615
 C907 C 0.38911 0.21873 0.61914
 C908 C 0.36344 0.23206 0.60592
 C909 C 0.34307 0.23553 0.62641
 C910 C 0.35033 0.22533 0.65818
 C911 C 0.37677 0.24032 0.66649
 C912 C 0.39716 0.23685 0.64597
 C913 C 0.37915 0.19194 0.63332
 C914 C 0.35874 0.19541 0.65386
 C915 C 0.41092 0.21532 0.59685
 C916 C 0.42856 0.21316 0.57807
 C917 C 0.32825 0.22938 0.68006
 C918 C 0.30986 0.23336 0.69755
 H919 H 0.36142 0.23821 0.58247
 H920 H 0.32362 0.24466 0.62052
 H921 H 0.37929 0.25255 0.68675
 H922 H 0.41714 0.24610 0.64865
 H923 H 0.38741 0.17202 0.62774
 H924 H 0.34951 0.17846 0.66588
 C925 C 0.10987 0.28268 0.11780
 C926 C 0.11251 0.30598 0.14080
 C927 C 0.13302 0.30219 0.16119
 C928 C 0.14883 0.27549 0.15654
 C929 C 0.15864 0.27646 0.12367
 C930 C 0.13816 0.28024 0.10331
 C931 C 0.10662 0.25673 0.13686
 C932 C 0.12710 0.25295 0.15722
 C933 C 0.08795 0.28643 0.09568
 C934 C 0.07021 0.28887 0.07704
 C935 C 0.17100 0.27110 0.17824
 C936 C 0.18944 0.26683 0.19560
 H937 H 0.09943 0.32384 0.14104
 H938 H 0.13753 0.31682 0.17891
 H939 H 0.17982 0.27441 0.11696
 H940 H 0.14180 0.28143 0.07917
 H941 H 0.08969 0.24260 0.13461
 H942 H 0.12772 0.23558 0.17240
 C943 C 0.61010 0.78417 0.61865
 C944 C 0.63826 0.78059 0.60413
 C945 C 0.65870 0.77670 0.62450
 C946 C 0.64901 0.77676 0.65743
 C947 C 0.62665 0.75488 0.65883
 C948 C 0.60620 0.75877 0.63845
 C949 C 0.61349 0.80790 0.64097
 C950 C 0.63398 0.80400 0.66138
 C951 C 0.58823 0.78805 0.59648
 C952 C 0.57056 0.79058 0.57775
 C953 C 0.67116 0.77228 0.67916
 C954 C 0.68959 0.76800 0.69655
 H955 H 0.64184 0.78111 0.57995
 H956 H 0.67979 0.77388 0.61777
 H957 H 0.62684 0.73784 0.67450
 H958 H 0.58887 0.74508 0.63667
 H959 H 0.60092 0.82612 0.64078
 H960 H 0.63896 0.81889 0.67868
   
