data_POSCAR
  _audit_creation_date              2014-09-24
  _audit_creation_method            'ToBaCCo'
  _symmetry_space_group_name_H-M    'P1'
  _symmetry_Int_Tables_number       1
  _symmetry_cell_setting            triclinic
  loop_
  _symmetry_equiv_pos_as_xyz
 x,y,z
_cell_length_a 47.4792
_cell_length_b 47.4737
_cell_length_c 22.9149
_cell_angle_alpha 89.876800
_cell_angle_beta 90.098400
_cell_angle_gamma 120.038400
loop_
  _atom_site_label
  _atom_site_type_symbol
  _atom_site_fract_x
  _atom_site_fract_y
  _atom_site_fract_z
C1 C 0.50231 0.99883 0.47145
 C2 C 0.50137 0.99962 0.53086
 C3 C 0.48537 0.96939 0.56626
 C4 C 0.51629 1.03057 0.56435
 C5 C 0.51781 1.02904 0.43564
 C6 C 0.48739 0.96765 0.43848
 C7 C 0.45912 0.96343 0.60186
 C8 C 0.44393 0.93554 0.63650
 C9 C 0.45490 0.91265 0.63784
 C10 C 0.48164 0.91930 0.60102
 C11 C 0.49655 0.94719 0.56600
 C12 C 0.50798 1.05465 0.55366
 C13 C 0.52244 1.08350 0.58604
 C14 C 0.54498 1.08852 0.63054
 C15 C 0.55265 1.06398 0.64173
 C16 C 0.53852 1.03542 0.60896
 C17 C 0.55027 1.05350 0.44450
 C18 C 0.56403 1.08180 0.41046
 C19 C 0.54580 1.08587 0.36610
 C20 C 0.51357 1.06090 0.35659
 C21 C 0.49976 1.03289 0.39101
 C22 C 0.50596 0.96271 0.39656
 C23 C 0.49220 0.93437 0.36308
 C24 C 0.45948 0.91014 0.37094
 C25 C 0.44093 0.91509 0.41328
 C26 C 0.45462 0.94373 0.44613
 H27 H 0.44996 0.98024 0.60206
 H28 H 0.42266 0.93190 0.65992
 H29 H 0.49277 0.90429 0.60067
 H30 H 0.51728 0.95180 0.53943
 H31 H 0.49036 1.05113 0.52025
 H32 H 0.51609 1.10191 0.57599
 H33 H 0.54498 1.01700 0.61844
 H34 H 0.56488 1.05075 0.47791
 H35 H 0.58884 1.10058 0.41924
 H36 H 0.49906 1.06274 0.32192
 H37 H 0.47482 1.01414 0.38295
 H38 H 0.53116 0.98103 0.38936
 H39 H 0.50705 0.93189 0.33001
 H40 H 0.41577 0.89690 0.42100
 H41 H 0.43951 0.94734 0.47709
 H42 H 0.56919 1.06655 0.67657
 C43 C -0.00015 0.50157 0.46914
 C44 C -0.00096 0.50253 0.52854
 C45 C 0.02924 0.51804 0.56435
 C46 C -0.03215 0.48762 0.56148
 C47 C -0.03036 0.48560 0.43379
 C48 C 0.03079 0.51644 0.43562
 C49 C 0.03304 0.50000 0.60906
 C50 C 0.06103 0.51381 0.64350
 C51 C 0.08602 0.54603 0.63390
 C52 C 0.08199 0.56425 0.58946
 C53 C 0.05371 0.55048 0.55540
 C54 C -0.05606 0.45485 0.55390
 C55 C -0.08470 0.44115 0.58680
 C56 C -0.08966 0.45970 0.62912
 C57 C -0.06544 0.49243 0.63690
 C58 C -0.03711 0.50621 0.60336
 C59 C -0.05229 0.49716 0.43342
 C60 C -0.08014 0.48231 0.39831
 C61 C -0.08683 0.45535 0.36245
 C62 C -0.06446 0.44389 0.36420
 C63 C -0.03658 0.45901 0.39882
 C64 C 0.03567 0.53864 0.39090
 C65 C 0.06423 0.55273 0.35811
 C66 C 0.08875 0.54505 0.36938
 C67 C 0.08371 0.52253 0.41396
 C68 C 0.05486 0.50812 0.44637
 H69 H 0.01428 0.47506 0.61719
 H70 H 0.06285 0.49931 0.67823
 H71 H 0.10078 0.58905 0.58061
 H72 H 0.05099 0.56508 0.52192
 H73 H -0.05244 0.43973 0.52300
 H74 H -0.10287 0.41598 0.57914
 H75 H -0.01880 0.53142 0.61051
 H76 H -0.04752 0.51809 0.45955
 H77 H -0.09535 0.49324 0.39784
 H78 H -0.06859 0.42251 0.34049
 H79 H -0.01997 0.44961 0.39903
 H80 H 0.01726 0.54511 0.38137
 H81 H 0.06682 0.56925 0.32321
 H82 H 0.10211 0.51617 0.42406
 H83 H 0.05132 0.49051 0.47986
 H84 H -0.06793 0.50729 0.66994
 C85 C 0.49962 0.49945 0.47125
 C86 C 0.49947 0.49966 0.53078
 C87 C 0.48409 0.51511 0.56455
 C88 C 0.51467 0.48446 0.56598
 C89 C 0.51491 0.48385 0.43752
 C90 C 0.48452 0.51482 0.43609
 C91 C 0.50251 0.53870 0.60633
 C92 C 0.48867 0.55325 0.63949
 C93 C 0.45571 0.54461 0.63209
 C94 C 0.43733 0.52053 0.58986
 C95 C 0.45129 0.50587 0.55697
 C96 C 0.54751 0.49367 0.55941
 C97 C 0.56128 0.47919 0.59353
 C98 C 0.54265 0.45531 0.63598
 C99 C 0.50966 0.44673 0.64240
 C100 C 0.49602 0.46111 0.60803
 C101 C 0.50621 0.45122 0.44664
 C102 C 0.52078 0.43712 0.41388
 C103 C 0.54380 0.45516 0.37041
 C104 C 0.55193 0.48765 0.36082
 C105 C 0.53771 0.50181 0.39407
 C106 C 0.46187 0.49654 0.39264
 C107 C 0.44778 0.51045 0.35817
 C108 C 0.45589 0.54301 0.36650
 C109 C 0.47878 0.56138 0.40993
 C110 C 0.49322 0.54752 0.44394
 H111 H 0.52777 0.54580 0.61352
 H112 H 0.50388 0.57023 0.67267
 H113 H 0.41235 0.51341 0.58032
 H114 H 0.43649 0.48736 0.52538
 H115 H 0.56248 0.51200 0.52762
 H116 H 0.58631 0.48625 0.58473
 H117 H 0.47072 0.45405 0.61445
 H118 H 0.48812 0.43665 0.47903
 H119 H 0.51408 0.41214 0.42279
 H120 H 0.56887 0.50207 0.32681
 H121 H 0.54448 0.52689 0.38577
 H122 H 0.45512 0.47139 0.38533
 H123 H 0.43093 0.49578 0.32425
 H124 H 0.48546 0.58643 0.41789
 H125 H 0.51119 0.56233 0.47632
 H126 H 0.49427 0.42992 0.67566
 O127 O 0.37936 0.66792 -0.07128
 O128 O 0.38139 0.72290 -0.05028
 C129 C 0.36086 0.72742 -0.07849
 O130 O 0.33066 0.71217 -0.06705
 O131 O 0.27581 0.65863 -0.04551
 C132 C 0.27131 0.63449 -0.07647
 O133 O 0.28699 0.61965 -0.06838
 O134 O 0.34031 0.61748 -0.05032
 C135 C 0.36444 0.63755 -0.08086
 O136 O 0.38214 0.65800 0.04409
 O137 O 0.38141 0.71174 0.06550
 C138 C 0.36692 0.72746 0.07634
 O139 O 0.34208 0.72322 0.04792
 O140 O 0.28887 0.66823 0.06979
 C141 C 0.27300 0.63779 0.07878
 O142 O 0.27660 0.61769 0.04758
 O143 O 0.33167 0.61896 0.06566
 C144 C 0.36216 0.63364 0.07439
 Cr145 Cr 0.37938 0.68931 -0.00290
 Cr146 Cr 0.31019 0.68969 0.00121
 Cr147 Cr 0.30975 0.62014 -0.00135
 O148 O 0.33314 0.66641 -0.00107
 O149 O 0.61886 0.33139 -0.06632
 O150 O 0.61761 0.27633 -0.04784
 C151 C 0.63773 0.27276 -0.07902
 O152 O 0.66816 0.28870 -0.07006
 O153 O 0.72311 0.34190 -0.04817
 C154 C 0.72745 0.36682 -0.07648
 O155 O 0.71174 0.38133 -0.06565
 O156 O 0.65790 0.38190 -0.04497
 C157 C 0.63359 0.36187 -0.07533
 O158 O 0.61714 0.34011 0.04939
 O159 O 0.61943 0.28685 0.06801
 C160 C 0.63428 0.27117 0.07620
 O161 O 0.65844 0.27566 0.04528
 O162 O 0.71198 0.33051 0.06676
 C163 C 0.72713 0.36069 0.07834
 O164 O 0.72254 0.38123 0.05028
 O165 O 0.66750 0.37915 0.07072
 C166 C 0.63711 0.36425 0.07995
 Cr167 Cr 0.61997 0.30953 0.00081
 Cr168 Cr 0.68954 0.31002 -0.00147
 Cr169 Cr 0.68909 0.37921 0.00251
 O170 O 0.66625 0.33297 0.00068
 C171 C 0.41174 0.83041 -0.25075
 C172 C 0.40641 0.85651 -0.24194
 C173 C 0.42055 0.88362 -0.27868
 C174 C 0.44054 0.88567 -0.32649
 C175 C 0.44519 0.85863 -0.33504
 C176 C 0.43118 0.83169 -0.29769
 C177 C 0.39791 0.80251 -0.20965
 C178 C 0.41733 0.79022 -0.18800
 C179 C 0.40510 0.76549 -0.14611
 C180 C 0.37308 0.75230 -0.12532
 C181 C 0.35334 0.76394 -0.14831
 C182 C 0.36570 0.78891 -0.18982
 H183 H 0.41687 0.90344 -0.26628
 H184 H 0.45847 0.85697 -0.37178
 H185 H 0.42089 0.75696 -0.12952
 H186 H 0.32857 0.75427 -0.13329
 H187 H 0.43521 0.81153 -0.30607
 H188 H 0.44232 0.80044 -0.20217
 H189 H 0.39212 0.85650 -0.20513
 H190 H 0.35012 0.79773 -0.20625
 C191 C 0.16976 0.58678 -0.25214
 C192 C 0.15535 0.55431 -0.27091
 C193 C 0.12882 0.54142 -0.30904
 C194 C 0.11573 0.56053 -0.32891
 C195 C 0.13061 0.59323 -0.31128
 C196 C 0.15738 0.60623 -0.27362
 C197 C 0.19667 0.59988 -0.20859
 C198 C 0.19841 0.62155 -0.16512
 C199 C 0.22288 0.63305 -0.12288
 C200 C 0.24604 0.62287 -0.12252
 C201 C 0.24450 0.60133 -0.16603
 C202 C 0.22020 0.59011 -0.20878
 H203 H 0.11840 0.51632 -0.32259
 H204 H 0.12107 0.60862 -0.32528
 H205 H 0.22323 0.64945 -0.08973
 H206 H 0.26217 0.59327 -0.16721
 H207 H 0.16822 0.63151 -0.26098
 H208 H 0.18038 0.62910 -0.16277
 H209 H 0.16397 0.53848 -0.25493
 H210 H 0.21995 0.57387 -0.24213
 C211 C 0.41398 0.58657 -0.25772
 C212 C 0.44749 0.60309 -0.26906
 C213 C 0.46104 0.58976 -0.30620
 C214 C 0.44156 0.55915 -0.33307
 C215 C 0.40765 0.54324 -0.32278
 C216 C 0.39417 0.55676 -0.28579
 C217 C 0.40004 0.59971 -0.21478
 C218 C 0.37548 0.57866 -0.17613
 C219 C 0.36356 0.59095 -0.13353
 C220 C 0.37605 0.62465 -0.12814
 C221 C 0.40023 0.64572 -0.16735
 C222 C 0.41201 0.63338 -0.21030
 H223 H 0.48687 0.60419 -0.31433
 H224 H 0.39124 0.51946 -0.34049
 H225 H 0.34501 0.57401 -0.10393
 H226 H 0.41019 0.67179 -0.16470
 H227 H 0.36813 0.54356 -0.27861
 H228 H 0.36607 0.55266 -0.17763
 H229 H 0.46354 0.62611 -0.24814
 H230 H 0.43055 0.65024 -0.23996
 C231 C 0.58661 0.17297 -0.25757
 C232 C 0.55483 0.16009 -0.27961
 C233 C 0.54155 0.13318 -0.31684
 C234 C 0.55983 0.11866 -0.33350
 C235 C 0.59206 0.13237 -0.31338
 C236 C 0.60520 0.15904 -0.27565
 C237 C 0.59970 0.19968 -0.21371
 C238 C 0.63292 0.22354 -0.21285
 C239 C 0.64534 0.24743 -0.16940
 C240 C 0.62476 0.24820 -0.12623
 C241 C 0.59149 0.22478 -0.12778
 C242 C 0.57916 0.20073 -0.17071
 H243 H 0.51660 0.12318 -0.33108
 H244 H 0.60710 0.12225 -0.32624
 H245 H 0.67105 0.26531 -0.16966
 H246 H 0.57499 0.22454 -0.09494
 H247 H 0.62963 0.16805 -0.25926
 H248 H 0.64935 0.22381 -0.24581
 H249 H 0.54000 0.17057 -0.26755
 H250 H 0.55363 0.18243 -0.16913
 C251 C 0.82755 0.41775 -0.25471
 C252 C 0.84063 0.39894 -0.27600
 C253 C 0.86704 0.41233 -0.31433
 C254 C 0.88081 0.44478 -0.33320
 C255 C 0.86690 0.46320 -0.31374
 C256 C 0.84076 0.44994 -0.27472
 C257 C 0.80123 0.40426 -0.21003
 C258 C 0.77694 0.41302 -0.20919
 C259 C 0.75297 0.40100 -0.16581
 C260 C 0.75252 0.37964 -0.12280
 C261 C 0.77656 0.37065 -0.12398
 C262 C 0.80071 0.38298 -0.16670
 H263 H 0.87721 0.39744 -0.32776
 H264 H 0.87640 0.48806 -0.32819
 H265 H 0.73462 0.40818 -0.16624
 H266 H 0.77710 0.35450 -0.09111
 H267 H 0.83156 0.46528 -0.25901
 H268 H 0.77627 0.42896 -0.24230
 H269 H 0.83069 0.37385 -0.26260
 H270 H 0.81939 0.37628 -0.16492
 C271 C 0.58373 0.41345 -0.25136
 C272 C 0.60369 0.44325 -0.27944
 C273 C 0.59043 0.45676 -0.31713
 C274 C 0.55657 0.44087 -0.32813
 C275 C 0.53692 0.41032 -0.30103
 C276 C 0.55026 0.39699 -0.26320
 C277 C 0.59749 0.40016 -0.20816
 C278 C 0.58555 0.36648 -0.20393
 C279 C 0.59739 0.35399 -0.16118
 C280 C 0.62159 0.37493 -0.12189
 C281 C 0.63396 0.40864 -0.12685
 C282 C 0.62198 0.42107 -0.16928
 H283 H 0.60694 0.48052 -0.33494
 H284 H 0.51112 0.39592 -0.30957
 H285 H 0.58753 0.32793 -0.15886
 H286 H 0.65252 0.42547 -0.09718
 H287 H 0.53410 0.37398 -0.24226
 H288 H 0.56705 0.34973 -0.23377
 H289 H 0.62970 0.45641 -0.27184
 H290 H 0.63135 0.44707 -0.17060
 C291 C 0.83026 0.41180 0.24997
 C292 C 0.83071 0.42974 0.29880
 C293 C 0.85765 0.44375 0.33611
 C294 C 0.88528 0.44055 0.32537
 C295 C 0.88432 0.42231 0.27582
 C296 C 0.85723 0.40809 0.23909
 C297 C 0.80228 0.39783 0.20914
 C298 C 0.78961 0.36604 0.18768
 C299 C 0.76456 0.35360 0.14638
 C300 C 0.75197 0.37288 0.12515
 C301 C 0.76425 0.40445 0.14755
 C302 C 0.78902 0.41673 0.18934
 H303 H 0.85594 0.45612 0.37429
 H304 H 0.90494 0.42000 0.26294
 H305 H 0.75563 0.32919 0.13002
 H306 H 0.75494 0.41985 0.13231
 H307 H 0.85781 0.39497 0.20091
 H308 H 0.79924 0.35088 0.20267
 H309 H 0.80995 0.43257 0.30859
 H310 H 0.79851 0.44139 0.20485
 C311 C 0.58655 0.16965 0.25209
 C312 C 0.60599 0.15726 0.27353
 C313 C 0.59299 0.13048 0.31121
 C314 C 0.56030 0.11560 0.32891
 C315 C 0.54119 0.12872 0.30910
 C316 C 0.55408 0.15525 0.27094
 C317 C 0.59963 0.19655 0.20847
 C318 C 0.58988 0.22009 0.20863
 C319 C 0.60111 0.24439 0.16583
 C320 C 0.62264 0.24591 0.12230
 C321 C 0.63279 0.22273 0.12269
 C322 C 0.62129 0.19826 0.16498
 H323 H 0.60837 0.12092 0.32517
 H324 H 0.51610 0.11830 0.32271
 H325 H 0.59305 0.26207 0.16698
 H326 H 0.64918 0.22306 0.08953
 H327 H 0.53826 0.16388 0.25499
 H328 H 0.57365 0.21985 0.24199
 H329 H 0.63126 0.16809 0.26083
 H330 H 0.62883 0.18022 0.16265
 C331 C 0.58549 0.41287 0.25745
 C332 C 0.55355 0.39396 0.27872
 C333 C 0.54024 0.40744 0.31611
 C334 C 0.55863 0.44010 0.33383
 C335 C 0.59098 0.45862 0.31438
 C336 C 0.60416 0.44527 0.27641
 C337 C 0.59872 0.39936 0.21369
 C338 C 0.63190 0.40862 0.21343
 C339 C 0.64444 0.39716 0.17025
 C340 C 0.62401 0.37586 0.12680
 C341 C 0.59077 0.36611 0.12771
 C342 C 0.57833 0.37787 0.17031
 H343 H 0.51518 0.39248 0.32973
 H344 H 0.60611 0.48365 0.32802
 H345 H 0.67012 0.40489 0.17098
 H346 H 0.57440 0.34993 0.09458
 H347 H 0.62871 0.46070 0.26063
 H348 H 0.64823 0.42468 0.24668
 H349 H 0.53864 0.36874 0.26601
 H350 H 0.55284 0.37073 0.16823
 C351 C 0.17323 0.58661 0.25748
 C352 C 0.16033 0.55483 0.27957
 C353 C 0.13341 0.54157 0.31681
 C354 C 0.11889 0.55987 0.33341
 C355 C 0.13263 0.59210 0.31324
 C356 C 0.15931 0.60523 0.27550
 C357 C 0.19996 0.59970 0.21363
 C358 C 0.22382 0.63292 0.21274
 C359 C 0.24770 0.64536 0.16925
 C360 C 0.24847 0.62479 0.12607
 C361 C 0.22508 0.59151 0.12768
 C362 C 0.20103 0.57917 0.17065
 H363 H 0.12339 0.51662 0.33110
 H364 H 0.12252 0.60715 0.32605
 H365 H 0.26557 0.67107 0.16947
 H366 H 0.22484 0.57502 0.09484
 H367 H 0.16834 0.62966 0.25907
 H368 H 0.22408 0.64936 0.24568
 H369 H 0.17080 0.53999 0.26755
 H370 H 0.18274 0.55363 0.16911
 C371 C 0.41762 0.82735 0.25486
 C372 C 0.44980 0.84057 0.27487
 C373 C 0.46303 0.86670 0.31387
 C374 C 0.44458 0.88058 0.33333
 C375 C 0.41214 0.86679 0.31449
 C376 C 0.39878 0.84039 0.27618
 C377 C 0.40418 0.80107 0.21013
 C378 C 0.38294 0.80059 0.16679
 C379 C 0.37068 0.77649 0.12400
 C380 C 0.37969 0.75247 0.12275
 C381 C 0.40101 0.75288 0.16577
 C382 C 0.41296 0.77680 0.20923
 H383 H 0.48788 0.87622 0.32830
 H384 H 0.39723 0.87694 0.32793
 H385 H 0.35455 0.77707 0.09112
 H386 H 0.40821 0.73454 0.16615
 H387 H 0.37370 0.83042 0.26278
 H388 H 0.37623 0.81926 0.16506
 H389 H 0.46516 0.83140 0.25915
 H390 H 0.42888 0.77610 0.24234
 C391 C 0.41421 0.58453 0.25105
 C392 C 0.39555 0.55224 0.27076
 C393 C 0.40876 0.53912 0.30939
 C394 C 0.44111 0.55778 0.32881
 C395 C 0.45953 0.59029 0.31018
 C396 C 0.44619 0.60354 0.27209
 C397 C 0.40083 0.59787 0.20706
 C398 C 0.42104 0.61919 0.16329
 C399 C 0.40850 0.63105 0.12086
 C400 C 0.37533 0.62158 0.12055
 C401 C 0.35504 0.60034 0.16426
 C402 C 0.36769 0.58878 0.20725
 H403 H 0.39362 0.51419 0.32368
 H404 H 0.48459 0.60534 0.32373
 H405 H 0.42475 0.64718 0.08752
 H406 H 0.32942 0.59282 0.16546
 H407 H 0.46109 0.62868 0.25877
 H408 H 0.44649 0.62620 0.16090
 H409 H 0.37097 0.53674 0.25516
 H410 H 0.35150 0.57284 0.24080
   
