data_POSCAR
  _audit_creation_date              2014-09-24
  _audit_creation_method            'ToBaCCo'
  _symmetry_space_group_name_H-M    'P1'
  _symmetry_Int_Tables_number       1
  _symmetry_cell_setting            triclinic
  loop_
  _symmetry_equiv_pos_as_xyz
 x,y,z
_cell_length_a 43.3883
_cell_length_b 42.2574
_cell_length_c 42.9192
_cell_angle_alpha 89.070200
_cell_angle_beta 88.970700
_cell_angle_gamma 84.147500
loop_
  _atom_site_label
  _atom_site_type_symbol
  _atom_site_fract_x
  _atom_site_fract_y
  _atom_site_fract_z
C1 C 1.21887 0.21841 0.20477
 C2 C 1.24627 0.23153 0.18711
 C3 C 1.26404 0.24835 0.20526
 C4 C 1.25315 0.25055 0.23942
 C5 C 1.23384 0.19932 0.23229
 C6 C 1.25184 0.21597 0.25023
 C7 C 1.20144 0.24805 0.21959
 C8 C 1.21915 0.26459 0.23799
 H9 H 1.24995 0.23064 0.16219
 H10 H 1.26773 0.26417 0.25420
 H11 H 1.23136 0.17433 0.23638
 H12 H 1.17682 0.25454 0.21681
 C13 C 0.72588 -0.26196 0.21152
 C14 C 0.74717 -0.24261 0.19188
 C15 C 0.76490 -0.22440 0.20870
 C16 C 0.75990 -0.22757 0.24427
 C17 C 0.74735 -0.28116 0.23445
 C18 C 0.76564 -0.26357 0.25115
 C19 C 0.70725 -0.23760 0.23223
 C20 C 0.72475 -0.21946 0.24908
 H21 H 0.74823 -0.24372 0.16669
 H22 H 0.77400 -0.21270 0.25823
 H23 H 0.74648 -0.30626 0.23919
 H24 H 0.68219 -0.23526 0.23405
 C25 C 0.72237 0.24166 -0.30093
 C26 C 0.74147 0.26270 -0.31795
 C27 C 0.76002 0.28041 -0.29849
 C28 C 0.75476 0.27398 -0.26503
 C29 C 0.74365 0.22197 -0.28119
 C30 C 0.76149 0.23943 -0.26107
 C31 C 0.70374 0.26304 -0.28004
 C32 C 0.72121 0.28055 -0.25943
 H33 H 0.73827 0.26837 -0.34243
 H34 H 0.76932 0.28674 -0.24986
 H35 H 0.74417 0.19627 -0.28011
 H36 H 0.67912 0.26891 -0.28331
 C37 C 1.24242 -0.29479 -0.29202
 C38 C 1.26428 -0.27391 -0.30895
 C39 C 1.27897 -0.25485 -0.29004
 C40 C 1.27075 -0.25892 -0.25520
 C41 C 1.26237 -0.31327 -0.26730
 C42 C 1.27706 -0.29470 -0.24806
 C43 C 1.22055 -0.27157 -0.27270
 C44 C 1.23512 -0.25272 -0.25341
 H45 H 1.26754 -0.27421 -0.33402
 H46 H 1.28288 -0.24375 -0.23962
 H47 H 1.26209 -0.33841 -0.26247
 H48 H 1.19564 -0.27202 -0.27258
 C49 C 0.23059 0.24559 0.79856
 C50 C 0.25290 0.26117 0.81618
 C51 C 0.27135 0.28094 0.79780
 C52 C 0.26408 0.28121 0.76472
 C53 C 0.21158 0.27320 0.78146
 C54 C 0.22914 0.29140 0.76332
 C55 C 0.24964 0.22764 0.77280
 C56 C 0.26732 0.24615 0.75532
 H57 H 0.25200 0.26226 0.84137
 H58 H 0.27829 0.29575 0.74954
 H59 H 0.18658 0.27756 0.78277
 H60 H 0.25004 0.20223 0.76953
 C61 C 0.72890 0.71897 0.79202
 C62 C 0.74279 0.74195 0.81050
 C63 C 0.75959 0.76384 0.79281
 C64 C 0.75897 0.75827 0.75899
 C65 C 0.70987 0.73759 0.76936
 C66 C 0.72576 0.76016 0.75146
 C67 C 0.75401 0.70345 0.77324
 C68 C 0.77103 0.72466 0.75482
 H69 H 0.74264 0.74067 0.83574
 H70 H 0.77186 0.77518 0.74554
 H71 H 0.68759 0.73090 0.76243
 H72 H 0.75563 0.67814 0.76889
 C73 C 0.75020 0.21468 0.30150
 C74 C 0.77550 0.23230 0.31602
 C75 C 0.79067 0.25047 0.29541
 C76 C 0.77899 0.24928 0.26168
 C77 C 0.72926 0.24131 0.28560
 C78 C 0.74381 0.25884 0.26407
 C79 C 0.76651 0.19587 0.27464
 C80 C 0.78144 0.21377 0.25379
 H81 H 0.77890 0.23347 0.34081
 H82 H 0.79129 0.26352 0.24445
 H83 H 0.70461 0.24524 0.29054
 H84 H 0.76547 0.17055 0.27191
 C85 C 0.22805 0.74486 0.29401
 C86 C 0.24745 0.76816 0.30967
 C87 C 0.26426 0.78517 0.28949
 C88 C 0.26045 0.77680 0.25495
 C89 C 0.20867 0.76494 0.27016
 C90 C 0.22523 0.78176 0.24969
 C91 C 0.25190 0.72413 0.27462
 C92 C 0.26838 0.74044 0.25363
 H93 H 0.25013 0.76912 0.33461
 H94 H 0.27404 0.79053 0.23841
 H95 H 0.18382 0.76444 0.26885
 H96 H 0.25563 0.69854 0.27764
 N97 N 1.05263 0.01960 0.01391
 N98 N 1.07541 0.03722 0.01877
 N99 N 1.02440 -0.04111 0.03788
 N100 N 1.03002 -0.05967 0.06250
 N101 N 1.04701 -0.04587 0.01711
 N102 N 1.06870 -0.06759 0.02753
 N103 N 1.03091 0.02444 0.03548
 N104 N 1.03848 0.04548 0.05573
 C105 C 1.06624 0.05346 0.04480
 C106 C 1.05738 -0.07650 0.05564
 N107 N 0.93695 -0.02392 0.01510
 N108 N 0.91378 -0.04102 0.02125
 N109 N 0.96446 0.03791 0.03458
 N110 N 0.95954 0.05969 0.05623
 N111 N 0.94273 0.04157 0.01350
 N112 N 0.92207 0.06568 0.02080
 N113 N 0.95766 -0.02772 0.03715
 N114 N 0.94896 -0.04757 0.05899
 Mn115 Mn 0.99432 -0.00163 0.03650
 C116 C 0.92160 -0.05589 0.04857
 C117 C 0.93332 0.07715 0.04720
 N118 N 1.04846 -0.04765 -0.05081
 N119 N 1.06993 -0.07081 -0.05861
 N120 N 1.03280 0.02181 -0.07451
 N121 N 1.03911 0.04410 -0.09478
 N122 N 1.05398 0.01804 -0.05296
 N123 N 1.07533 0.03777 -0.05799
 N124 N 1.02706 -0.04380 -0.07222
 N125 N 1.03329 -0.06437 -0.09479
 Mn126 Mn 1.05077 -0.01410 -0.01821
 C127 C 1.05978 -0.08145 -0.08586
 C128 C 1.06570 0.05389 -0.08420
 N129 N 0.94446 0.04020 -0.05436
 N130 N 0.92333 0.06286 -0.06406
 N131 N 0.96074 -0.03054 -0.07309
 N132 N 0.95349 -0.05061 -0.09431
 N133 N 0.93834 -0.02560 -0.05223
 N134 N 0.91520 -0.04238 -0.05879
 N135 N 0.96651 0.03486 -0.07561
 N136 N 0.96080 0.05352 -0.10016
 Mn137 Mn 0.94033 0.00816 -0.01948
 Mn138 Mn 0.99682 -0.00445 -0.07398
 Cl139 Cl 0.99553 -0.00307 -0.01875
 C140 C 0.93421 0.07135 -0.09246
 C141 C 0.92517 -0.05813 -0.08501
 N142 N 1.04079 0.46842 0.44014
 N143 N 1.06064 0.46303 0.41668
 N144 N 0.98392 0.43806 0.46611
 N145 N 0.96934 0.41267 0.46166
 N146 N 0.97757 0.45931 0.44389
 N147 N 0.95861 0.44874 0.42356
 N148 N 1.04705 0.44761 0.46277
 N149 N 1.07137 0.42764 0.45534
 C150 C 1.07992 0.43783 0.42670
 C151 C 0.95336 0.41970 0.43523
 N152 N 0.98015 0.46222 0.55364
 N153 N 0.95816 0.45515 0.57355
 N154 N 1.04865 0.44924 0.52996
 N155 N 1.07352 0.42993 0.53708
 N156 N 1.04344 0.47149 0.55092
 N157 N 1.06453 0.46797 0.57275
 N158 N 0.98538 0.43995 0.53270
 N159 N 0.96705 0.41733 0.53754
 Mn160 Mn 1.01641 0.44348 0.49792
 C161 C 0.95024 0.42697 0.56313
 C162 C 1.08344 0.44225 0.56364
 N163 N 0.96187 0.52781 0.44190
 N164 N 0.94222 0.53332 0.41889
 N165 N 1.02112 0.55872 0.45925
 N166 N 1.03875 0.58167 0.45249
 N167 N 1.02509 0.53625 0.43836
 N168 N 1.04546 0.54327 0.41685
 N169 N 0.95774 0.55075 0.46242
 N170 N 0.93531 0.57237 0.45359
 Mn171 Mn 1.00121 0.49797 0.44083
 C172 C 0.92540 0.56085 0.42671
 C173 C 1.05388 0.57161 0.42599
 N174 N 1.02814 0.53900 0.54849
 N175 N 1.05012 0.54674 0.56691
 N176 N 0.95947 0.55266 0.53014
 N177 N 0.93731 0.57444 0.53964
 N178 N 0.96470 0.53032 0.55163
 N179 N 0.94602 0.53608 0.57583
 N180 N 1.02272 0.56057 0.52639
 N181 N 1.04055 0.58382 0.52940
 Mn182 Mn 1.00403 0.50076 0.55143
 Mn183 Mn 0.99018 0.55597 0.49451
 Cl184 Cl 1.00285 0.49956 0.49615
 C185 C 1.05764 0.57474 0.55471
 C186 C 0.92868 0.56331 0.56796
 N187 N 0.54556 0.03098 0.54270
 N188 N 0.56645 0.05067 0.54836
 N189 N 0.52217 -0.03250 0.56594
 N190 N 0.52793 -0.05269 0.58938
 N191 N 0.54499 -0.03533 0.54529
 N192 N 0.56693 -0.05737 0.55436
 N193 N 0.52312 0.03386 0.56372
 N194 N 0.52819 0.05557 0.58427
 C195 C 0.55519 0.06607 0.57423
 C196 C 0.55574 -0.06837 0.58167
 N197 N 0.43526 -0.02216 0.54063
 N198 N 0.41424 -0.04223 0.54490
 N199 N 0.45638 0.04201 0.56119
 N200 N 0.44839 0.06404 0.58217
 N201 N 0.43644 0.04408 0.53842
 N202 N 0.41434 0.06731 0.54335
 N203 N 0.45517 -0.02465 0.56340
 N204 N 0.44804 -0.04658 0.58397
 Mn205 Mn 0.48920 0.00465 0.56391
 C206 C 0.42242 -0.05746 0.57192
 C207 C 0.42229 0.07991 0.57046
 N208 N 0.54851 -0.03716 0.47787
 N209 N 0.57231 -0.05800 0.47086
 N210 N 0.52912 0.03103 0.45304
 N211 N 0.53751 0.05004 0.43044
 N212 N 0.54935 0.02916 0.47557
 N213 N 0.57201 0.04688 0.46883
 N214 N 0.52819 -0.03513 0.45534
 N215 N 0.53790 -0.05437 0.43251
 Mn216 Mn 0.54733 -0.00312 0.51039
 C217 C 0.56513 -0.06898 0.44274
 C218 C 0.56411 0.06010 0.44077
 N219 N 0.43982 0.04240 0.47133
 N220 N 0.41791 0.06447 0.46236
 N221 N 0.46081 -0.02712 0.45269
 N222 N 0.45356 -0.04704 0.43107
 N223 N 0.43884 -0.02376 0.47416
 N224 N 0.41648 -0.04135 0.46806
 N225 N 0.46241 0.03931 0.45048
 N226 N 0.45657 0.05948 0.42698
 Mn227 Mn 0.43746 0.01022 0.50616
 Mn228 Mn 0.49515 0.00195 0.45264
 Cl229 Cl 0.49233 0.00337 0.50825
 C230 C 0.42891 0.07534 0.43493
 C231 C 0.42595 -0.05610 0.44139
 N232 N 0.46905 0.54988 -0.01361
 N233 N 0.46320 0.57260 -0.03472
 N234 N 0.44718 0.52695 0.05095
 N235 N 0.42447 0.53437 0.07113
 N236 N 0.46775 0.54765 0.05176
 N237 N 0.45932 0.56993 0.07236
 N238 N 0.44839 0.52930 -0.01444
 N239 N 0.42764 0.53774 -0.03598
 C240 C 0.43742 0.56467 -0.04865
 C241 C 0.43247 0.56099 0.08460
 N242 N 0.47212 0.43543 0.05014
 N243 N 0.46531 0.41252 0.06960
 N244 N 0.45113 0.46043 -0.01555
 N245 N 0.42933 0.45409 -0.03500
 N246 N 0.47347 0.43699 -0.01502
 N247 N 0.46743 0.41419 -0.03381
 N248 N 0.44977 0.45886 0.05014
 N249 N 0.42747 0.45273 0.06998
 Mn250 Mn 0.44883 0.49392 0.01767
 C251 C 0.43764 0.42392 0.08225
 C252 C 0.44020 0.42538 -0.04660
 N253 N 0.53495 0.54339 0.05149
 N254 N 0.54200 0.56580 0.07042
 N255 N 0.55777 0.52252 -0.01469
 N256 N 0.57890 0.52899 -0.03580
 N257 N 0.53510 0.54558 -0.01377
 N258 N 0.53989 0.56803 -0.03436
 N259 N 0.55738 0.52001 0.05065
 N260 N 0.57996 0.52580 0.06919
 Mn261 Mn 0.50170 0.54686 0.01910
 C262 C 0.56987 0.55419 0.08177
 C263 C 0.56710 0.55732 -0.04816
 N264 N 0.53969 0.43317 -0.01540
 N265 N 0.54487 0.41298 -0.03839
 N266 N 0.56015 0.45183 0.04966
 N267 N 0.58144 0.44365 0.07071
 N268 N 0.53909 0.43162 0.05005
 N269 N 0.54548 0.40915 0.07131
 N270 N 0.56042 0.45373 -0.01580
 N271 N 0.58053 0.44784 -0.03902
 Mn272 Mn 0.50617 0.43407 0.01755
 Mn273 Mn 0.55927 0.48698 0.01737
 Cl274 Cl 0.50396 0.49046 0.01797
 C275 C 0.57035 0.42238 -0.05300
 C276 C 0.57181 0.41711 0.08423
 C277 C 1.15031 0.17218 0.18597
 C278 C 1.15625 0.16232 0.15488
 C279 C 1.18394 0.17063 0.14028
 C280 C 1.20422 0.18856 0.15603
 C281 C 1.19758 0.19895 0.18660
 C282 C 1.17063 0.18993 0.20137
 C283 C 1.19147 0.16088 0.10999
 C284 C 1.17235 0.14279 0.09378
 C285 C 1.14453 0.13373 0.10716
 C286 C 1.13605 0.14415 0.13803
 C287 C 1.10761 0.13615 0.15093
 C288 C 1.08852 0.11796 0.13472
 C289 C 1.09687 0.10681 0.10506
 C290 C 1.12493 0.11456 0.09073
 C291 C 1.13233 0.10237 0.06067
 C292 C 1.11298 0.08310 0.04589
 C293 C 1.08550 0.07532 0.06028
 C294 C 1.07738 0.08758 0.08976
 H295 H 1.13039 0.16629 0.19931
 H296 H 1.22534 0.19370 0.14424
 H297 H 1.16523 0.19671 0.22524
 H298 H 1.21256 0.16721 0.09864
 H299 H 1.18011 0.13647 0.07054
 H300 H 1.09919 0.14379 0.17360
 H301 H 1.06701 0.11233 0.14570
 H302 H 1.15311 0.10676 0.04797
 H303 H 1.11979 0.07401 0.02306
 H304 H 1.05616 0.08164 0.10114
 C305 C 1.21423 0.63453 0.66517
 C306 C 1.18852 0.64912 0.64873
 C307 C 1.18364 0.68277 0.64858
 C308 C 1.20186 0.70054 0.66698
 C309 C 1.22534 0.68546 0.68577
 C310 C 1.23236 0.65240 0.68311
 C311 C 1.16023 0.69847 0.63056
 C312 C 1.14114 0.68147 0.61300
 C313 C 1.14406 0.64786 0.61362
 C314 C 1.16764 0.63147 0.63245
 C315 C 1.16866 0.59807 0.63568
 C316 C 1.14741 0.58119 0.62106
 C317 C 1.12484 0.59668 0.60196
 C318 C 1.12339 0.63009 0.59709
 C319 C 1.10113 0.64422 0.57595
 C320 C 1.08035 0.62608 0.56165
 C321 C 1.08087 0.59349 0.56812
 C322 C 1.10342 0.57887 0.58798
 H323 H 1.22128 0.60936 0.66425
 H324 H 1.19726 0.72624 0.66734
 H325 H 1.25195 0.63982 0.69461
 H326 H 1.15649 0.72424 0.63015
 H327 H 1.12335 0.69546 0.60017
 H328 H 1.18484 0.58431 0.65058
 H329 H 1.14862 0.55567 0.62485
 H330 H 1.09937 0.66912 0.56970
 H331 H 1.06337 0.63778 0.54595
 H332 H 1.10435 0.55347 0.59254
 C333 C 0.69770 0.19195 0.63305
 C334 C 0.66988 0.18119 0.64493
 C335 C 0.66022 0.19064 0.67536
 C336 C 0.67758 0.21009 0.69273
 C337 C 0.70434 0.22219 0.68017
 C338 C 0.71463 0.21166 0.65042
 C339 C 0.63332 0.18049 0.68862
 C340 C 0.61539 0.16133 0.67228
 C341 C 0.62375 0.15125 0.64181
 C342 C 0.65165 0.16103 0.62800
 C343 C 0.66048 0.15010 0.59790
 C344 C 0.64308 0.12998 0.58201
 C345 C 0.61588 0.12031 0.59510
 C346 C 0.60542 0.13123 0.62491
 C347 C 0.57702 0.12150 0.63651
 C348 C 0.56057 0.10095 0.61974
 C349 C 0.57169 0.08940 0.59089
 C350 C 0.59917 0.09952 0.57851
 H351 H 0.70730 0.18544 0.61048
 H352 H 0.67012 0.21566 0.71644
 H353 H 0.73623 0.21815 0.64043
 H354 H 0.62594 0.18751 0.71200
 H355 H 0.59521 0.15447 0.68455
 H356 H 0.68103 0.15639 0.58590
 H357 H 0.65105 0.12188 0.55913
 H358 H 0.56671 0.12930 0.65843
 H359 H 0.53920 0.09373 0.62968
 H360 H 0.60777 0.09098 0.55597
 C361 C 0.65846 0.71566 0.16298
 C362 C 0.66478 0.68228 0.16022
 C363 C 0.69356 0.66808 0.17135
 C364 C 0.71392 0.68631 0.18637
 C365 C 0.70584 0.71878 0.19185
 C366 C 0.67874 0.73346 0.17834
 C367 C 0.70183 0.63560 0.16790
 C368 C 0.68186 0.61651 0.15430
 C369 C 0.65243 0.62915 0.14375
 C370 C 0.64374 0.66261 0.14672
 C371 C 0.61413 0.67517 0.13661
 C372 C 0.59395 0.65600 0.12337
 C373 C 0.60225 0.62353 0.11981
 C374 C 0.63145 0.60948 0.13018
 C375 C 0.63843 0.57627 0.12625
 C376 C 0.61789 0.55833 0.11154
 C377 C 0.58961 0.57263 0.10054
 C378 C 0.58160 0.60510 0.10538
 H379 H 0.63807 0.72885 0.15364
 H380 H 0.73600 0.67482 0.19393
 H381 H 0.67281 0.75889 0.18016
 H382 H 0.72398 0.62469 0.17610
 H383 H 0.69027 0.59175 0.15268
 H384 H 0.60559 0.69987 0.13878
 H385 H 0.57156 0.66679 0.11572
 H386 H 0.65972 0.56335 0.13377
 H387 H 0.62449 0.53317 0.10825
 H388 H 0.55968 0.61635 0.09693
 C389 C 0.83494 -0.17934 0.19175
 C390 C 0.82773 -0.16457 0.16247
 C391 C 0.79878 -0.16937 0.14948
 C392 C 0.77838 -0.18816 0.16504
 C393 C 0.78615 -0.20316 0.19357
 C394 C 0.81443 -0.19827 0.20694
 C395 C 0.79019 -0.15558 0.12085
 C396 C 0.80991 -0.13753 0.10423
 C397 C 0.83928 -0.13235 0.11562
 C398 C 0.84812 -0.14551 0.14553
 C399 C 0.87694 -0.13904 0.15744
 C400 C 0.89650 -0.12056 0.14078
 C401 C 0.88847 -0.10807 0.11141
 C402 C 0.85992 -0.11409 0.09822
 C403 C 0.85330 -0.10167 0.06796
 C404 C 0.87360 -0.08332 0.05211
 C405 C 0.90132 -0.07670 0.06554
 C406 C 0.90882 -0.08944 0.09514
 H407 H 0.85641 -0.17721 0.20336
 H408 H 0.75621 -0.19108 0.15477
 H409 H 0.82115 -0.20976 0.22887
 H410 H 0.76794 -0.15896 0.11100
 H411 H 0.80109 -0.12766 0.08250
 H412 H 0.88504 -0.14770 0.17987
 H413 H 0.91827 -0.11609 0.15102
 H414 H 0.83276 -0.10576 0.05559
 H415 H 0.86735 -0.07412 0.02912
 H416 H 0.93037 -0.08465 0.10566
 C417 C 0.81369 0.34462 0.69356
 C418 C 0.82454 0.34108 0.66237
 C419 C 0.81338 0.31666 0.64487
 C420 C 0.79211 0.29723 0.65796
 C421 C 0.78126 0.30089 0.68892
 C422 C 0.79262 0.32488 0.70652
 C423 C 0.82356 0.31139 0.61427
 C424 C 0.84514 0.32943 0.60059
 C425 C 0.85745 0.35383 0.61697
 C426 C 0.84628 0.36048 0.64803
 C427 C 0.85707 0.38637 0.66351
 C428 C 0.87843 0.40472 0.64945
 C429 C 0.89045 0.39772 0.61970
 C430 C 0.88038 0.37195 0.60316
 C431 C 0.89417 0.36501 0.57359
 C432 C 0.91652 0.38308 0.56097
 C433 C 0.92602 0.40878 0.57713
 C434 C 0.91278 0.41614 0.60648
 H435 H 0.82118 0.36227 0.70876
 H436 H 0.78520 0.27819 0.64392
 H437 H 0.78473 0.32953 0.73015
 H438 H 0.81485 0.29291 0.60068
 H439 H 0.85128 0.32385 0.57676
 H440 H 0.84908 0.39343 0.68651
 H441 H 0.88592 0.42442 0.66222
 H442 H 0.88880 0.34537 0.55972
 H443 H 0.92647 0.37675 0.53831
 H444 H 0.92026 0.43582 0.61929
 C445 C 0.34384 -0.20098 0.70090
 C446 C 0.33724 -0.18556 0.67179
 C447 C 0.31062 -0.19334 0.65606
 C448 C 0.29182 -0.21544 0.66889
 C449 C 0.29890 -0.23085 0.69739
 C450 C 0.32490 -0.22318 0.71341
 C451 C 0.30269 -0.17910 0.62746
 C452 C 0.32080 -0.15751 0.61360
 C453 C 0.34784 -0.14909 0.62783
 C454 C 0.35597 -0.16288 0.65767
 C455 C 0.38236 -0.15338 0.67234
 C456 C 0.40020 -0.13126 0.65844
 C457 C 0.39284 -0.11796 0.62920
 C458 C 0.36676 -0.12700 0.61330
 C459 C 0.36078 -0.11357 0.58333
 C460 C 0.37916 -0.09152 0.57031
 C461 C 0.40436 -0.08197 0.58634
 C462 C 0.41134 -0.09556 0.61574
 H463 H 0.36360 -0.19672 0.71447
 H464 H 0.27129 -0.22045 0.65659
 H465 H 0.33105 -0.23483 0.73541
 H466 H 0.28219 -0.18480 0.61551
 H467 H 0.31254 -0.14759 0.59169
 H468 H 0.38978 -0.16240 0.69488
 H469 H 0.42009 -0.12456 0.67075
 H470 H 0.34220 -0.11962 0.56902
 H471 H 0.37341 -0.08180 0.54739
 H472 H 0.43096 -0.08852 0.62826
 C473 C 0.33477 0.26699 0.15841
 C474 C 0.33685 0.29937 0.16534
 C475 C 0.31432 0.31442 0.18608
 C476 C 0.29146 0.29726 0.19995
 C477 C 0.28958 0.26544 0.19241
 C478 C 0.31132 0.25050 0.17157
 C479 C 0.31425 0.34670 0.19236
 C480 C 0.33515 0.36487 0.17739
 C481 C 0.35768 0.35118 0.15612
 C482 C 0.35975 0.31756 0.15151
 C483 C 0.38470 0.30327 0.13339
 C484 C 0.40587 0.32136 0.11877
 C485 C 0.40257 0.35444 0.12083
 C486 C 0.37831 0.36992 0.13933
 C487 C 0.37497 0.40363 0.13921
 C488 C 0.39466 0.42098 0.12119
 C489 C 0.41868 0.40546 0.10326
 C490 C 0.42291 0.37217 0.10369
 H491 H 0.35017 0.25404 0.14205
 H492 H 0.27427 0.30908 0.21564
 H493 H 0.31011 0.22591 0.16537
 H494 H 0.29733 0.35827 0.20846
 H495 H 0.33348 0.38963 0.18349
 H496 H 0.38886 0.27790 0.13054
 H497 H 0.42458 0.30934 0.10499
 H498 H 0.35657 0.41734 0.15170
 H499 H 0.39083 0.44672 0.12099
 H500 H 0.44117 0.36000 0.08943
 C501 C 0.80703 0.22194 -0.18850
 C502 C 0.82182 0.19113 -0.19434
 C503 C 0.81772 0.17803 -0.22396
 C504 C 0.79757 0.19400 -0.24553
 C505 C 0.78230 0.22421 -0.23925
 C506 C 0.78802 0.23831 -0.21074
 C507 C 0.83372 0.14897 -0.23205
 C508 C 0.85413 0.13266 -0.21149
 C509 C 0.85839 0.14421 -0.18136
 C510 C 0.84075 0.17303 -0.17205
 C511 C 0.84170 0.18203 -0.14055
 C512 C 0.85936 0.16350 -0.11894
 C513 C 0.87801 0.13625 -0.12815
 C514 C 0.87878 0.12708 -0.15982
 C515 C 0.90022 0.10125 -0.16877
 C516 C 0.91867 0.08413 -0.14683
 C517 C 0.91612 0.09173 -0.11523
 C518 C 0.89591 0.11800 -0.10594
 H519 H 0.81016 0.23422 -0.16714
 H520 H 0.79485 0.18320 -0.26792
 H521 H 0.77657 0.26137 -0.20460
 H522 H 0.83064 0.13879 -0.25467
 H523 H 0.86519 0.11015 -0.21938
 H524 H 0.82782 0.20261 -0.13160
 H525 H 0.85869 0.17080 -0.09482
 H526 H 0.90379 0.09414 -0.19268
 H527 H 0.93449 0.06422 -0.15461
 H528 H 0.89444 0.12442 -0.08157
 C529 C 0.81154 0.71831 0.32497
 C530 C 0.82493 0.68669 0.31981
 C531 C 0.82040 0.67342 0.29033
 C532 C 0.80272 0.69071 0.26771
 C533 C 0.78807 0.72109 0.27384
 C534 C 0.79340 0.73514 0.30226
 C535 C 0.83293 0.64262 0.28357
 C536 C 0.84897 0.62389 0.30585
 C537 C 0.85333 0.63533 0.33600
 C538 C 0.84212 0.66761 0.34280
 C539 C 0.84855 0.67959 0.37226
 C540 C 0.86528 0.66078 0.39429
 C541 C 0.87564 0.62909 0.38825
 C542 C 0.86918 0.61567 0.35931
 C543 C 0.87882 0.58298 0.35496
 C544 C 0.89596 0.56516 0.37744
 C545 C 0.90382 0.57901 0.40517
 C546 C 0.89289 0.61081 0.41083
 H547 H 0.81386 0.73040 0.34656
 H548 H 0.79967 0.67999 0.24532
 H549 H 0.78264 0.75871 0.30750
 H550 H 0.82990 0.63263 0.26085
 H551 H 0.85811 0.60054 0.29842
 H552 H 0.84139 0.70372 0.37889
 H553 H 0.87007 0.67118 0.41639
 H554 H 0.87349 0.57031 0.33450
 H555 H 0.90360 0.54046 0.37275
 H556 H 0.89857 0.62165 0.43244
 C557 C 0.27269 0.16800 0.32326
 C558 C 0.30474 0.17108 0.32597
 C559 C 0.31891 0.18955 0.30296
 C560 C 0.30122 0.20516 0.27910
 C561 C 0.26969 0.20143 0.27667
 C562 C 0.25563 0.18273 0.29882
 C563 C 0.35075 0.19175 0.30345
 C564 C 0.36920 0.17488 0.32547
 C565 C 0.35630 0.15586 0.34864
 C566 C 0.32336 0.15554 0.35001
 C567 C 0.31011 0.13992 0.37548
 C568 C 0.32846 0.12361 0.39788
 C569 C 0.36068 0.12140 0.39538
 C570 C 0.37518 0.13724 0.37061
 C571 C 0.40795 0.13274 0.36826
 C572 C 0.42533 0.11314 0.38945
 C573 C 0.41079 0.09793 0.41398
 C574 C 0.37848 0.10267 0.41714
 H575 H 0.26035 0.15342 0.33896
 H576 H 0.31228 0.21919 0.26158
 H577 H 0.23126 0.17948 0.29718
 H578 H 0.36167 0.20607 0.28612
 H579 H 0.39358 0.17778 0.32416
 H580 H 0.28543 0.14044 0.37914
 H581 H 0.31724 0.11189 0.41698
 H582 H 0.42079 0.14297 0.34959
 H583 H 0.45028 0.10959 0.38642
 H584 H 0.36699 0.09056 0.43580
 C585 C 0.29131 0.65464 -0.17595
 C586 C 0.32287 0.65741 -0.16999
 C587 C 0.33787 0.68002 -0.18797
 C588 C 0.32235 0.69714 -0.21248
 C589 C 0.29200 0.69184 -0.21952
 C590 C 0.27634 0.67140 -0.20043
 C591 C 0.36852 0.68473 -0.18200
 C592 C 0.38494 0.66709 -0.15898
 C593 C 0.37149 0.64338 -0.14129
 C594 C 0.34003 0.63824 -0.14717
 C595 C 0.32707 0.61331 -0.13089
 C596 C 0.34401 0.59422 -0.10942
 C597 C 0.37441 0.59928 -0.10292
 C598 C 0.38858 0.62414 -0.11838
 C599 C 0.41929 0.62861 -0.11012
 C600 C 0.43503 0.60913 -0.08775
 C601 C 0.42094 0.58442 -0.07301
 C602 C 0.39067 0.57954 -0.08082
 H603 H 0.27746 0.63958 -0.16237
 H604 H 0.33433 0.71336 -0.22701
 H605 H 0.25244 0.66787 -0.20492
 H606 H 0.38009 0.70207 -0.19549
 H607 H 0.40857 0.67208 -0.15625
 H608 H 0.30396 0.60724 -0.13474
 H609 H 0.33311 0.57522 -0.09774
 H610 H 0.43173 0.64720 -0.12009
 H611 H 0.45841 0.61349 -0.08194
 H612 H 0.37948 0.56067 -0.06924
 C613 C 1.21256 -0.20758 -0.17927
 C614 C 1.18247 -0.19295 -0.18596
 C615 C 1.17068 -0.19784 -0.21591
 C616 C 1.18838 -0.21627 -0.23796
 C617 C 1.21782 -0.23106 -0.23076
 C618 C 1.22978 -0.22633 -0.20130
 C619 C 1.14109 -0.18459 -0.22379
 C620 C 1.12244 -0.16704 -0.20241
 C621 C 1.13277 -0.16165 -0.17213
 C622 C 1.16360 -0.17402 -0.16402
 C623 C 1.17457 -0.16670 -0.13445
 C624 C 1.15618 -0.14799 -0.11355
 C625 C 1.12591 -0.13632 -0.12087
 C626 C 1.11350 -0.14358 -0.14996
 C627 C 1.08221 -0.13236 -0.15565
 C628 C 1.06482 -0.11322 -0.13427
 C629 C 1.07768 -0.10472 -0.10633
 C630 C 1.10807 -0.11697 -0.09941
 H631 H 1.22320 -0.20572 -0.15699
 H632 H 1.17899 -0.21930 -0.26083
 H633 H 1.25216 -0.23796 -0.19475
 H634 H 1.13209 -0.18804 -0.24676
 H635 H 1.10010 -0.15745 -0.21073
 H636 H 1.19767 -0.17453 -0.12691
 H637 H 1.16583 -0.14260 -0.09136
 H638 H 1.07033 -0.13794 -0.17635
 H639 H 1.04119 -0.10458 -0.13998
 H640 H 1.11814 -0.11081 -0.07766
 C641 C 1.16976 0.33924 0.26230
 C642 C 1.17604 0.34077 0.29449
 C643 C 1.19815 0.31724 0.30722
 C644 C 1.21336 0.29354 0.28823
 C645 C 1.20598 0.29186 0.25675
 C646 C 1.18434 0.31500 0.24392
 C647 C 1.20422 0.31680 0.33902
 C648 C 1.18756 0.33805 0.35892
 C649 C 1.16451 0.36118 0.34762
 C650 C 1.16011 0.36386 0.31468
 C651 C 1.13974 0.38934 0.30308
 C652 C 1.12251 0.41009 0.32301
 C653 C 1.12436 0.40594 0.35523
 C654 C 1.14547 0.38156 0.36811
 C655 C 1.14553 0.37769 0.40097
 C656 C 1.12492 0.39663 0.41991
 C657 C 1.10394 0.42035 0.40693
 C658 C 1.10439 0.42544 0.37462
 H659 H 1.15276 0.35556 0.25085
 H660 H 1.22976 0.27533 0.29837
 H661 H 1.17836 0.31410 0.21957
 H662 H 1.22143 0.29920 0.34881
 H663 H 1.19353 0.33592 0.38317
 H664 H 1.13678 0.39412 0.27853
 H665 H 1.10683 0.42904 0.31303
 H666 H 1.16024 0.35935 0.41272
 H667 H 1.12496 0.39222 0.44485
 H668 H 1.08804 0.44361 0.36434
 C669 C 0.66801 -0.15240 0.27618
 C670 C 0.67043 -0.15484 0.30899
 C671 C 0.69519 -0.17559 0.32130
 C672 C 0.71475 -0.19511 0.30142
 C673 C 0.70990 -0.19433 0.26930
 C674 C 0.68721 -0.17212 0.25682
 C675 C 0.69948 -0.17768 0.35341
 C676 C 0.67933 -0.16022 0.37376
 C677 C 0.65345 -0.14042 0.36279
 C678 C 0.64876 -0.13803 0.32985
 C679 C 0.62183 -0.12001 0.31886
 C680 C 0.60034 -0.10460 0.33914
 C681 C 0.60489 -0.10600 0.37116
 C682 C 0.63164 -0.12350 0.38359
 C683 C 0.63536 -0.12308 0.41634
 C684 C 0.61349 -0.10595 0.43557
 C685 C 0.58707 -0.08909 0.42296
 C686 C 0.58279 -0.08955 0.39077
 H687 H 0.65122 -0.13592 0.26464
 H688 H 0.73235 -0.21233 0.31110
 H689 H 0.68358 -0.17086 0.23188
 H690 H 0.71846 -0.19332 0.36298
 H691 H 0.68417 -0.16362 0.39817
 H692 H 0.61607 -0.11799 0.29457
 H693 H 0.57989 -0.09130 0.32955
 H694 H 0.65520 -0.13509 0.42782
 H695 H 0.61741 -0.10567 0.46042
 H696 H 0.56262 -0.07617 0.38073
 C697 C 0.70792 0.34281 -0.19771
 C698 C 0.67682 0.34006 -0.18838
 C699 C 0.66117 0.31697 -0.20343
 C700 C 0.67600 0.29783 -0.22665
 C701 C 0.70686 0.30072 -0.23603
 C702 C 0.72257 0.32351 -0.22095
 C703 C 0.63069 0.31267 -0.19520
 C704 C 0.61528 0.33041 -0.17186
 C705 C 0.62981 0.35339 -0.15557
 C706 C 0.66082 0.35892 -0.16445
 C707 C 0.67469 0.38305 -0.14912
 C708 C 0.65917 0.40064 -0.12547
 C709 C 0.62941 0.39473 -0.11581
 C710 C 0.61429 0.37099 -0.13067
 C711 C 0.58439 0.36541 -0.11950
 C712 C 0.57037 0.38249 -0.09472
 C713 C 0.58537 0.40583 -0.08015
 C714 C 0.61480 0.41214 -0.09100
 H715 H 0.72174 0.35954 -0.18745
 H716 H 0.66333 0.27965 -0.23634
 H717 H 0.74605 0.32749 -0.22732
 H718 H 0.61853 0.29519 -0.20690
 H719 H 0.59175 0.32553 -0.16739
 H720 H 0.69761 0.38912 -0.15497
 H721 H 0.67082 0.41884 -0.11433
 H722 H 0.57126 0.34759 -0.12884
 H723 H 0.54760 0.37713 -0.08678
 H724 H 0.62665 0.43009 -0.07968
 C725 C 1.20779 0.18476 -0.14000
 C726 C 1.17808 0.17823 -0.14958
 C727 C 1.16610 0.19398 -0.17685
 C728 C 1.18291 0.21588 -0.19305
 C729 C 1.21173 0.22325 -0.18250
 C730 C 1.22430 0.20651 -0.15634
 C731 C 1.13754 0.18755 -0.18816
 C732 C 1.12057 0.16552 -0.17326
 C733 C 1.13140 0.14904 -0.14606
 C734 C 1.16031 0.15604 -0.13361
 C735 C 1.17040 0.14075 -0.10555
 C736 C 1.15349 0.11862 -0.09068
 C737 C 1.12588 0.11070 -0.10307
 C738 C 1.11430 0.12580 -0.13086
 C739 C 1.08619 0.11664 -0.14243
 C740 C 1.07055 0.09357 -0.12708
 C741 C 1.08222 0.07876 -0.09976
 C742 C 1.10983 0.08755 -0.08777
 H743 H 1.21941 0.17289 -0.12047
 H744 H 1.17365 0.22667 -0.21442
 H745 H 1.24740 0.20962 -0.14865
 H746 H 1.12823 0.19958 -0.20898
 H747 H 1.09879 0.16219 -0.18369
 H748 H 1.19126 0.14560 -0.09412
 H749 H 1.16227 0.10741 -0.06926
 H750 H 1.07573 0.12646 -0.16347
 H751 H 1.04923 0.08716 -0.13686
 H752 H 1.11903 0.07619 -0.06659
 C753 C 1.17918 0.71763 0.36331
 C754 C 1.16721 0.69038 0.35140
 C755 C 1.17595 0.68146 0.32056
 C756 C 1.19541 0.69931 0.30264
 C757 C 1.20778 0.72577 0.31492
 C758 C 1.19888 0.73504 0.34531
 C759 C 1.16512 0.65486 0.30748
 C760 C 1.14599 0.63642 0.32442
 C761 C 1.13657 0.64404 0.35528
 C762 C 1.14677 0.67187 0.36880
 C763 C 1.13584 0.68046 0.39901
 C764 C 1.11566 0.66262 0.41545
 C765 C 1.10602 0.63515 0.40286
 C766 C 1.11677 0.62507 0.37285
 C767 C 1.10731 0.59625 0.36178
 C768 C 1.08726 0.57899 0.37927
 C769 C 1.07592 0.58969 0.40835
 C770 C 1.08558 0.61767 0.42017
 H771 H 1.17382 0.72627 0.38643
 H772 H 1.20092 0.69257 0.27875
 H773 H 1.20640 0.75617 0.35532
 H774 H 1.17159 0.64812 0.28379
 H775 H 1.13849 0.61658 0.31224
 H776 H 1.14203 0.70126 0.41057
 H777 H 1.10761 0.67038 0.43841
 H778 H 1.11516 0.58606 0.33986
 H779 H 1.08044 0.55720 0.36978
 H780 H 1.07722 0.62588 0.44289
 C781 C 0.72027 0.16872 0.37243
 C782 C 0.69321 0.15740 0.36059
 C783 C 0.68641 0.16408 0.32886
 C784 C 0.70574 0.18146 0.31024
 C785 C 0.73167 0.19385 0.32258
 C786 C 0.73908 0.18654 0.35376
 C787 C 0.66014 0.15375 0.31576
 C788 C 0.63979 0.13750 0.33360
 C789 C 0.64503 0.13063 0.36549
 C790 C 0.67262 0.13995 0.37902
 C791 C 0.67871 0.13140 0.41043
 C792 C 0.65862 0.11448 0.42805
 C793 C 0.63135 0.10588 0.41543
 C794 C 0.62382 0.11428 0.38415
 C795 C 0.59520 0.10605 0.37295
 C796 C 0.57573 0.08914 0.39161
 C797 C 0.58391 0.07990 0.42203
 C798 C 0.61159 0.08872 0.43395
 H799 H 0.72744 0.16464 0.39616
 H800 H 0.70013 0.18616 0.28596
 H801 H 0.75942 0.19427 0.36417
 H802 H 0.65504 0.15855 0.29139
 H803 H 0.62027 0.13025 0.32143
 H804 H 0.69916 0.13703 0.42212
 H805 H 0.66448 0.10817 0.45197
 H806 H 0.58695 0.11245 0.34997
 H807 H 0.55428 0.08295 0.38195
 H808 H 0.61796 0.08197 0.45764
 C809 C 0.71341 0.64909 -0.15611
 C810 C 0.68100 0.65395 -0.15088
 C811 C 0.66511 0.68220 -0.16325
 C812 C 0.68087 0.70368 -0.18112
 C813 C 0.71265 0.69730 -0.18852
 C814 C 0.72882 0.67044 -0.17422
 C815 C 0.63343 0.68905 -0.15781
 C816 C 0.61688 0.66835 -0.14055
 C817 C 0.63139 0.63962 -0.12801
 C818 C 0.66397 0.63219 -0.13337
 C819 C 0.67836 0.60321 -0.12122
 C820 C 0.66184 0.58270 -0.10354
 C821 C 0.63029 0.58996 -0.09743
 C822 C 0.61445 0.61827 -0.10994
 C823 C 0.58230 0.62419 -0.10342
 C824 C 0.56709 0.60372 -0.08423
 C825 C 0.58311 0.57649 -0.07109
 C826 C 0.61457 0.56927 -0.07836
 H827 H 0.72771 0.62920 -0.14635
 H828 H 0.66806 0.72553 -0.18921
 H829 H 0.75371 0.66573 -0.17706
 H830 H 0.62118 0.71072 -0.16708
 H831 H 0.59257 0.67579 -0.13753
 H832 H 0.70254 0.59551 -0.12497
 H833 H 0.67400 0.56094 -0.09436
 H834 H 0.56813 0.64460 -0.11229
 H835 H 0.54263 0.60961 -0.07925
 H836 H 0.62709 0.54813 -0.06832
 C837 C 0.78025 -0.17961 -0.14688
 C838 C 0.80719 -0.16789 -0.15952
 C839 C 0.81745 -0.17863 -0.18947
 C840 C 0.80106 -0.20006 -0.20590
 C841 C 0.77489 -0.21242 -0.19248
 C842 C 0.76469 -0.20138 -0.16291
 C843 C 0.84448 -0.16851 -0.20258
 C844 C 0.86210 -0.14878 -0.18633
 C845 C 0.85314 -0.13782 -0.15624
 C846 C 0.82460 -0.14654 -0.14314
 C847 C 0.81442 -0.13362 -0.11411
 C848 C 0.83187 -0.11376 -0.09793
 C849 C 0.86039 -0.10619 -0.10965
 C850 C 0.87161 -0.11823 -0.13887
 C851 C 0.90116 -0.11052 -0.14916
 C852 C 0.91831 -0.09135 -0.13148
 C853 C 0.90681 -0.07906 -0.10296
 C854 C 0.87779 -0.08664 -0.09216
 H855 H 0.77078 -0.17307 -0.12427
 H856 H 0.81017 -0.20853 -0.22824
 H857 H 0.74395 -0.20891 -0.15197
 H858 H 0.85243 -0.17637 -0.22555
 H859 H 0.88258 -0.14221 -0.19829
 H860 H 0.79267 -0.13800 -0.10326
 H861 H 0.82301 -0.10446 -0.07576
 H862 H 0.91196 -0.11927 -0.17055
 H863 H 0.94078 -0.08606 -0.14034
 H864 H 0.86874 -0.07743 -0.07002
 C865 C 0.83406 0.32342 0.30423
 C866 C 0.85167 0.31586 0.33135
 C867 C 0.85051 0.28509 0.34471
 C868 C 0.83199 0.26345 0.33182
 C869 C 0.81347 0.27191 0.30596
 C870 C 0.81531 0.30179 0.29191
 C871 C 0.86728 0.27614 0.37134
 C872 C 0.88432 0.29743 0.38596
 C873 C 0.88543 0.32879 0.37442
 C874 C 0.86977 0.33784 0.34604
 C875 C 0.87263 0.36854 0.33348
 C876 C 0.88960 0.38988 0.34835
 C877 C 0.90400 0.38186 0.37659
 C878 C 0.90189 0.35132 0.39022
 C879 C 0.91598 0.34479 0.41944
 C880 C 0.93215 0.36721 0.43386
 C881 C 0.93489 0.39697 0.41992
 C882 C 0.92054 0.40427 0.39133
 H883 H 0.83345 0.34616 0.29246
 H884 H 0.83149 0.24008 0.34250
 H885 H 0.80132 0.30914 0.27203
 H886 H 0.86685 0.25246 0.38136
 H887 H 0.89663 0.28833 0.40628
 H888 H 0.86220 0.37682 0.31188
 H889 H 0.89120 0.41312 0.33773
 H890 H 0.91469 0.32277 0.43212
 H891 H 0.94269 0.36103 0.45612
 H892 H 0.92232 0.42736 0.38045
 C893 C 0.33490 -0.17001 0.30018
 C894 C 0.32772 -0.15419 0.32869
 C895 C 0.29800 -0.15683 0.34221
 C896 C 0.27700 -0.17489 0.32808
 C897 C 0.28511 -0.19193 0.30095
 C898 C 0.31389 -0.18861 0.28666
 C899 C 0.28944 -0.14207 0.37024
 C900 C 0.31029 -0.12609 0.38629
 C901 C 0.34069 -0.12397 0.37475
 C902 C 0.34905 -0.13663 0.34471
 C903 C 0.37831 -0.13120 0.33187
 C904 C 0.39882 -0.11441 0.34803
 C905 C 0.39156 -0.10340 0.37805
 C906 C 0.36271 -0.10890 0.39210
 C907 C 0.35719 -0.09960 0.42333
 C908 C 0.37837 -0.08353 0.43907
 C909 C 0.40596 -0.07619 0.42456
 C910 C 0.41283 -0.08678 0.39417
 H911 H 0.35696 -0.16948 0.28836
 H912 H 0.25441 -0.17644 0.33888
 H913 H 0.32079 -0.20138 0.26568
 H914 H 0.26648 -0.14343 0.38026
 H915 H 0.30158 -0.11502 0.40756
 H916 H 0.38579 -0.13906 0.30895
 H917 H 0.42080 -0.11037 0.33705
 H918 H 0.33694 -0.10484 0.43654
 H919 H 0.37279 -0.07646 0.46283
 H920 H 0.43439 -0.08171 0.38292
 C921 C 0.31715 0.34905 -0.18672
 C922 C 0.33087 0.33980 -0.15789
 C923 C 0.32640 0.30918 -0.14584
 C924 C 0.30672 0.29011 -0.16063
 C925 C 0.29220 0.29997 -0.18861
 C926 C 0.29851 0.32926 -0.20198
 C927 C 0.34142 0.29768 -0.11892
 C928 C 0.36120 0.31579 -0.10374
 C929 C 0.36578 0.34680 -0.11427
 C930 C 0.34909 0.35965 -0.14076
 C931 C 0.35016 0.39217 -0.14839
 C932 C 0.36716 0.41141 -0.13078
 C933 C 0.38500 0.39865 -0.10599
 C934 C 0.38556 0.36581 -0.09831
 C935 C 0.40627 0.35316 -0.07517
 C936 C 0.42428 0.37268 -0.05918
 C937 C 0.42198 0.40543 -0.06528
 C938 C 0.40242 0.41840 -0.08880
 H939 H 0.32078 0.37125 -0.19827
 H940 H 0.30357 0.26689 -0.15065
 H941 H 0.28776 0.33802 -0.22341
 H942 H 0.33800 0.27428 -0.10956
 H943 H 0.37147 0.30538 -0.08280
 H944 H 0.33687 0.40379 -0.16707
 H945 H 0.36665 0.43644 -0.13691
 H946 H 0.40969 0.32812 -0.06947
 H947 H 0.43969 0.36212 -0.04141
 H948 H 0.40125 0.44368 -0.09407
 C949 C 1.20841 -0.18159 0.16955
 C950 C 1.17746 -0.16752 0.17324
 C951 C 1.16358 -0.16911 0.20331
 C952 C 1.17999 -0.18402 0.22822
 C953 C 1.21006 -0.19894 0.22393
 C954 C 1.22431 -0.19713 0.19451
 C955 C 1.13311 -0.15630 0.20848
 C956 C 1.11545 -0.14286 0.18422
 C957 C 1.12774 -0.14123 0.15363
 C958 C 1.15962 -0.15248 0.14825
 C959 C 1.17253 -0.14793 0.11825
 C960 C 1.15496 -0.13294 0.09438
 C961 C 1.12360 -0.12280 0.09905
 C962 C 1.10935 -0.12774 0.12849
 C963 C 1.07710 -0.11903 0.13154
 C964 C 1.06038 -0.10375 0.10729
 C965 C 1.07494 -0.09682 0.07900
 C966 C 1.10645 -0.10723 0.07465
 H967 H 1.22063 -0.18197 0.14747
 H968 H 1.16892 -0.18454 0.25104
 H969 H 1.24739 -0.20877 0.19039
 H970 H 1.12258 -0.15708 0.23155
 H971 H 1.09228 -0.13317 0.19047
 H972 H 1.19653 -0.15494 0.11266
 H973 H 1.16606 -0.12935 0.07195
 H974 H 1.06395 -0.12380 0.15231
 H975 H 1.03590 -0.09670 0.11104
 H976 H 1.11785 -0.10241 0.05265
 C977 C 1.17829 0.36219 0.73253
 C978 C 1.18437 0.36058 0.70001
 C979 C 1.20658 0.33612 0.68911
 C980 C 1.22251 0.31489 0.71020
 C981 C 1.21540 0.31638 0.74207
 C982 C 1.19334 0.34012 0.75309
 C983 C 1.21192 0.33222 0.65719
 C984 C 1.19433 0.35081 0.63568
 C985 C 1.17138 0.37488 0.64538
 C986 C 1.16799 0.38132 0.67794
 C987 C 1.14824 0.40817 0.68738
 C988 C 1.13046 0.42661 0.66602
 C989 C 1.13103 0.41855 0.63464
 C990 C 1.15150 0.39265 0.62371
 C991 C 1.15004 0.38471 0.59183
 C992 C 1.12856 0.40133 0.57209
 C993 C 1.10835 0.42668 0.58326
 C994 C 1.11035 0.43570 0.61434
 H995 H 1.16092 0.37919 0.74266
 H996 H 1.23919 0.29601 0.70166
 H997 H 1.18745 0.34131 0.77772
 H998 H 1.22914 0.31383 0.64871
 H999 H 1.19958 0.34607 0.61146
 H1000 H 1.14637 0.41585 0.71122
 H1001 H 1.11530 0.44679 0.67438
 H1002 H 1.16414 0.36486 0.58180
 H1003 H 1.12734 0.39389 0.54814
 H1004 H 1.09463 0.45518 0.62329
 C1005 C 0.70898 -0.18302 0.68400
 C1006 C 0.67617 -0.17814 0.68491
 C1007 C 0.66074 -0.19304 0.70951
 C1008 C 0.67739 -0.21277 0.73121
 C1009 C 0.70994 -0.21864 0.72957
 C1010 C 0.72545 -0.20266 0.70597
 C1011 C 0.62859 -0.18832 0.71258
 C1012 C 0.61114 -0.16889 0.69181
 C1013 C 0.62516 -0.15345 0.66671
 C1014 C 0.65815 -0.15877 0.66269
 C1015 C 0.67188 -0.14494 0.63641
 C1016 C 0.65419 -0.12605 0.61517
 C1017 C 0.62222 -0.11968 0.61943
 C1018 C 0.60721 -0.13306 0.64537
 C1019 C 0.57486 -0.12496 0.64913
 C1020 C 0.55836 -0.10450 0.62813
 C1021 C 0.57327 -0.09156 0.60252
 C1022 C 0.60519 -0.09954 0.59807
 H1023 H 0.72272 -0.17182 0.66670
 H1024 H 0.66445 -0.22270 0.75014
 H1025 H 0.75033 -0.20573 0.70341
 H1026 H 0.61667 -0.19981 0.73135
 H1027 H 0.58648 -0.16699 0.69588
 H1028 H 0.69635 -0.14867 0.63128
 H1029 H 0.66578 -0.11600 0.59533
 H1030 H 0.56156 -0.13331 0.66843
 H1031 H 0.53374 -0.09857 0.63215
 H1032 H 0.61700 -0.08931 0.57846
 C1033 C 0.72137 0.32930 0.21004
 C1034 C 0.69119 0.32364 0.20081
 C1035 C 0.67926 0.29578 0.21264
 C1036 C 0.69668 0.27498 0.23282
 C1037 C 0.72618 0.28124 0.24228
 C1038 C 0.73849 0.30834 0.23035
 C1039 C 0.64995 0.28856 0.20434
 C1040 C 0.63185 0.30840 0.18448
 C1041 C 0.64237 0.33654 0.17195
 C1042 C 0.67254 0.34434 0.18021
 C1043 C 0.68302 0.37245 0.16754
 C1044 C 0.66498 0.39204 0.14719
 C1045 C 0.63573 0.38462 0.13870
 C1046 C 0.62381 0.35696 0.15114
 C1047 C 0.59380 0.35080 0.14198
 C1048 C 0.57698 0.37069 0.12079
 C1049 C 0.58919 0.39750 0.10810
 C1050 C 0.61843 0.40462 0.11748
 H1051 H 0.73248 0.34967 0.20209
 H1052 H 0.68721 0.25347 0.24084
 H1053 H 0.76127 0.31371 0.23696
 H1054 H 0.64082 0.26721 0.21334
 H1055 H 0.60963 0.30072 0.17937
 H1056 H 0.70527 0.38005 0.17276
 H1057 H 0.67415 0.41323 0.13787
 H1058 H 0.58254 0.33075 0.15045
 H1059 H 0.55432 0.36480 0.11409
 H1060 H 0.62802 0.42544 0.10782
 C1061 C 0.79257 0.16728 0.17924
 C1062 C 0.82300 0.17261 0.16957
 C1063 C 0.83944 0.19232 0.18836
 C1064 C 0.82538 0.20671 0.21512
 C1065 C 0.79554 0.20051 0.22457
 C1066 C 0.77929 0.18083 0.20638
 C1067 C 0.87006 0.19692 0.18075
 C1068 C 0.88537 0.18106 0.15592
 C1069 C 0.87026 0.16055 0.13703
 C1070 C 0.83804 0.15798 0.14271
 C1071 C 0.82198 0.14084 0.12139
 C1072 C 0.83728 0.12481 0.09667
 C1073 C 0.86928 0.12445 0.09267
 C1074 C 0.88630 0.14231 0.11277
 C1075 C 0.91892 0.13978 0.10877
 C1076 C 0.93385 0.11957 0.08655
 C1077 C 0.91689 0.10191 0.06700
 C1078 C 0.88452 0.10520 0.06948
 H1079 H 0.77881 0.15181 0.16702
 H1080 H 0.83813 0.22170 0.22936
 H1081 H 0.75609 0.17587 0.21324
 H1082 H 0.88266 0.21229 0.19470
 H1083 H 0.90904 0.18577 0.15176
 H1084 H 0.79730 0.13972 0.12294
 H1085 H 0.82403 0.11165 0.08114
 H1086 H 0.93373 0.15174 0.12353
 H1087 H 0.95894 0.11713 0.08516
 H1088 H 0.87133 0.09110 0.05478
 C1089 C 0.81954 0.71487 0.68165
 C1090 C 0.83182 0.68252 0.68423
 C1091 C 0.82636 0.66643 0.71267
 C1092 C 0.80831 0.68156 0.73644
 C1093 C 0.79374 0.71262 0.73264
 C1094 C 0.80097 0.72962 0.70549
 C1095 C 0.83827 0.63490 0.71725
 C1096 C 0.85411 0.61810 0.69355
 C1097 C 0.85881 0.63225 0.66409
 C1098 C 0.84881 0.66537 0.65971
 C1099 C 0.85608 0.67995 0.63101
 C1100 C 0.87244 0.66281 0.60746
 C1101 C 0.88136 0.63027 0.61107
 C1102 C 0.87388 0.61440 0.63915
 C1103 C 0.88156 0.58109 0.64106
 C1104 C 0.89813 0.56480 0.61724
 C1105 C 0.90734 0.58080 0.59042
 C1106 C 0.89812 0.61347 0.58699
 H1107 H 0.82292 0.72912 0.66107
 H1108 H 0.80538 0.66852 0.75807
 H1109 H 0.79093 0.75371 0.70141
 H1110 H 0.83477 0.62277 0.73930
 H1111 H 0.86282 0.59399 0.69934
 H1112 H 0.84984 0.70485 0.62620
 H1113 H 0.87796 0.67514 0.58605
 H1114 H 0.87498 0.56675 0.66056
 H1115 H 0.90426 0.53943 0.62014
 H1116 H 0.90483 0.62599 0.56610
 C1117 C 0.34168 0.22010 0.71218
 C1118 C 0.33150 0.20062 0.68865
 C1119 C 0.29909 0.19980 0.68549
 C1120 C 0.27823 0.21532 0.70694
 C1121 C 0.28895 0.23286 0.73105
 C1122 C 0.32057 0.23609 0.73294
 C1123 C 0.28765 0.18293 0.66141
 C1124 C 0.30764 0.16633 0.64045
 C1125 C 0.34011 0.16499 0.64347
 C1126 C 0.35224 0.18165 0.66850
 C1127 C 0.38449 0.17744 0.67354
 C1128 C 0.40416 0.15716 0.65517
 C1129 C 0.39273 0.14129 0.63031
 C1130 C 0.36077 0.14612 0.62323
 C1131 C 0.35077 0.13153 0.59630
 C1132 C 0.37116 0.11109 0.57872
 C1133 C 0.40212 0.10438 0.58734
 C1134 C 0.41299 0.12011 0.61276
 H1135 H 0.36572 0.22356 0.71506
 H1136 H 0.25356 0.21350 0.70516
 H1137 H 0.32908 0.25008 0.75127
 H1138 H 0.26290 0.18239 0.65881
 H1139 H 0.29681 0.15337 0.62300
 H1140 H 0.39512 0.18831 0.69258
 H1141 H 0.42859 0.15378 0.66059
 H1142 H 0.32738 0.13558 0.58802
 H1143 H 0.36234 0.09976 0.55874
 H1144 H 0.43715 0.11562 0.61907
 C1145 C 0.33870 0.71846 0.20146
 C1146 C 0.33307 0.68800 0.19077
 C1147 C 0.30467 0.67647 0.19992
 C1148 C 0.28350 0.69434 0.21926
 C1149 C 0.29003 0.72369 0.23079
 C1150 C 0.31744 0.73594 0.22111
 C1151 C 0.29748 0.64691 0.19013
 C1152 C 0.31826 0.62778 0.17211
 C1153 C 0.34730 0.63749 0.16301
 C1154 C 0.35452 0.66847 0.17169
 C1155 C 0.38284 0.67879 0.16094
 C1156 C 0.40341 0.65960 0.14243
 C1157 C 0.39698 0.62914 0.13437
 C1158 C 0.36911 0.61740 0.14502
 C1159 C 0.36430 0.58586 0.13728
 C1160 C 0.38535 0.56761 0.11841
 C1161 C 0.41210 0.57982 0.10683
 C1162 C 0.41815 0.61041 0.11538
 H1163 H 0.35954 0.72923 0.19564
 H1164 H 0.26180 0.68508 0.22561
 H1165 H 0.32297 0.75864 0.22940
 H1166 H 0.27556 0.63827 0.19675
 H1167 H 0.31050 0.60553 0.16538
 H1168 H 0.38971 0.70189 0.16608
 H1169 H 0.42469 0.66870 0.13442
 H1170 H 0.34461 0.57435 0.14546
 H1171 H 0.38041 0.54380 0.11260
 H1172 H 0.43900 0.61993 0.10674
   
