data_POSCAR
  _audit_creation_date              2014-09-24
  _audit_creation_method            'ToBaCCo'
  _symmetry_space_group_name_H-M    'P1'
  _symmetry_Int_Tables_number       1
  _symmetry_cell_setting            triclinic
  loop_
  _symmetry_equiv_pos_as_xyz
 x,y,z
_cell_length_a 28.8708
_cell_length_b 28.7456
_cell_length_c 54.0411
_cell_angle_alpha 87.053800
_cell_angle_beta 91.448200
_cell_angle_gamma 120.303200
loop_
  _atom_site_label
  _atom_site_type_symbol
  _atom_site_fract_x
  _atom_site_fract_y
  _atom_site_fract_z
C1 C 0.01898 0.08944 0.53343
 H2 H 0.05639 0.08936 0.53307
 C3 C 0.01447 0.12592 0.54775
 H4 H 0.04842 0.15394 0.55857
 C5 C -0.07049 0.05407 0.51914
 H6 H -0.10302 0.02668 0.50757
 C7 C -0.07669 0.09010 0.53323
 H8 H -0.11420 0.09014 0.53267
 N9 N -0.02314 0.05443 0.51956
 C10 C 0.01305 -0.07253 0.50757
 H11 H 0.01546 -0.07031 0.48756
 C12 C 0.01648 -0.11335 0.52116
 H13 H 0.02203 -0.14244 0.51162
 C14 C -0.00035 -0.03936 0.54441
 H15 H -0.00873 -0.01166 0.55335
 C16 C 0.00286 -0.07954 0.55869
 H17 H -0.00233 -0.08216 0.57859
 Zn18 Zn -0.00951 0.01084 0.49944
 N19 N 0.00443 -0.03680 0.51931
 C20 C 0.09707 0.05843 0.48011
 N21 N 0.05005 0.05873 0.47947
 C22 C 0.04468 0.09658 0.46561
 C23 C 0.08757 0.13617 0.45153
 C24 C 0.14114 0.09748 0.46627
 C25 C -0.11478 -0.07122 0.49112
 C26 C -0.15753 -0.10977 0.47749
 C27 C -0.10604 -0.06815 0.44001
 C28 C -0.06427 -0.03043 0.45437
 N29 N -0.06918 -0.03290 0.47945
 H30 H 0.10081 0.02871 0.49168
 H31 H 0.00709 0.09634 0.46580
 H32 H 0.08300 0.16641 0.44072
 H33 H 0.17868 0.09750 0.46702
 H34 H -0.11709 -0.07297 0.51113
 H35 H -0.19306 -0.14096 0.48709
 H36 H -0.10102 -0.06663 0.42011
 H37 H -0.02721 -0.00069 0.44550
 C38 C 0.01067 -0.11725 0.54692
 C39 C -0.03365 0.12646 0.54757
 C40 C -0.15282 -0.10869 0.45171
 C41 C 0.13630 0.13682 0.45196
 C42 C 1.10655 0.04494 0.13088
 H43 H 1.10622 0.08241 0.13086
 C44 C 1.14432 0.04147 0.11673
 H45 H 1.17308 0.07629 0.10566
 C46 C 1.07049 -0.04575 0.14598
 H47 H 1.04232 -0.07918 0.15780
 C48 C 1.10777 -0.05092 0.13208
 H49 H 1.10799 -0.08855 0.13305
 N50 N 1.07060 0.00172 0.14508
 C51 C 0.94229 0.03600 0.15671
 H52 H 0.94296 0.03730 0.17669
 C53 C 0.90211 0.03923 0.14313
 H54 H 0.87200 0.04356 0.15264
 C55 C 0.97857 0.02524 0.11997
 H56 H 1.00720 0.01783 0.11110
 C57 C 0.93909 0.02829 0.10571
 H58 H 0.93793 0.02398 0.08587
 Zn59 Zn 1.02522 0.01377 0.16503
 N60 N 0.97918 0.02866 0.14502
 C61 C 1.07018 0.11930 0.18395
 N62 N 1.07085 0.07223 0.18467
 C63 C 1.10742 0.06592 0.19856
 C64 C 1.14518 0.10781 0.21261
 C65 C 1.10743 0.16240 0.19776
 C66 C 0.94311 -0.09274 0.17399
 C67 C 0.90355 -0.13663 0.18788
 C68 C 0.94147 -0.08741 0.22500
 C69 C 0.98030 -0.04442 0.21043
 N70 N 0.98014 -0.04765 0.18538
 H71 H 1.04149 0.12380 0.17237
 H72 H 1.10751 0.02834 0.19846
 H73 H 1.17436 0.10248 0.22348
 H74 H 1.10713 0.19997 0.19699
 H75 H 0.94314 -0.09372 0.15400
 H76 H 0.87329 -0.17175 0.17861
 H77 H 0.94089 -0.08392 0.24485
 H78 H 1.00900 -0.00774 0.21908
 C79 C 0.90009 0.03456 0.11744
 C80 C 1.14514 -0.00676 0.11743
 C81 C 0.90231 -0.13357 0.21358
 C82 C 1.14536 0.15654 0.21214
 C83 C 0.04241 0.94563 0.86912
 H84 H 0.00447 0.90818 0.86864
 C85 C 0.08459 0.94825 0.88331
 H86 H 0.07914 0.91280 0.89391
 C87 C 0.09641 1.03712 0.85521
 H88 H 0.10106 1.07121 0.84380
 C89 C 0.13980 1.04146 0.86917
 H90 H 0.17775 1.07909 0.86867
 N91 N 0.04893 0.98964 0.85548
 C92 C -0.11465 0.95550 0.84290
 H93 H -0.11631 0.95541 0.82288
 C94 C -0.15741 0.95140 0.85629
 H95 H -0.19234 0.94761 0.84654
 C96 C -0.06562 0.96414 0.87996
 H97 H -0.02906 0.97108 0.88904
 C98 C -0.10745 0.96018 0.89406
 H99 H -0.10311 0.96333 0.91398
 Zn100 Zn -0.00965 0.97875 0.83519
 N101 N -0.06974 0.96225 0.85484
 C102 C -0.07100 0.87452 0.81480
 N103 N -0.02337 0.92185 0.81472
 C104 C 0.01897 0.92941 0.80102
 C105 C 0.01443 0.88853 0.78656
 C106 C -0.07723 0.83238 0.80056
 C107 C 0.01440 1.08558 0.82777
 C108 C 0.01834 1.13043 0.81448
 C109 C 0.00530 1.08409 0.77660
 C110 C 0.00156 1.04009 0.79058
 N111 N 0.00573 1.04146 0.81572
 H112 H -0.10372 0.86898 0.82624
 H113 H 0.05659 0.96715 0.80165
 H114 H 0.04858 0.89481 0.77591
 H115 H -0.11494 0.79453 0.80089
 H116 H 0.01630 1.08508 0.84779
 H117 H 0.02379 1.16482 0.82425
 H118 H 0.00046 1.08212 0.75666
 H119 H -0.00688 1.00414 0.78139
 C120 C -0.15343 0.95459 0.88208
 C121 C 0.13381 0.99646 0.88323
 C122 C 0.01301 1.12933 0.78869
 C123 C -0.03395 0.83949 0.78643
 C124 C 0.46379 -0.00901 -0.01343
 C125 C 0.46699 -0.00541 0.01264
 C126 C 0.51137 -0.00264 0.02518
 C127 C 0.55222 -0.00429 0.01244
 C128 C 0.54799 -0.00999 -0.01351
 C129 C 0.50408 -0.01176 -0.02612
 H130 H 0.50124 -0.01526 -0.04606
 H131 H 0.51418 0.00090 0.04512
 C132 C -0.02159 0.44717 0.65447
 C133 C -0.02300 0.44420 0.68069
 C134 C -0.02604 0.48409 0.69327
 C135 C -0.02486 0.52833 0.68040
 C136 C -0.02018 0.53295 0.65425
 C137 C -0.01910 0.49206 0.64164
 H138 H -0.01764 0.49461 0.62156
 H139 H -0.02728 0.48181 0.71335
 C140 C 0.55488 0.55655 0.32037
 C141 C 0.54919 0.55931 0.34612
 C142 C 0.50423 0.51752 0.35859
 C143 C 0.46453 0.47344 0.34597
 C144 C 0.46858 0.47243 0.31998
 C145 C 0.51429 0.51333 0.30763
 H146 H 0.51761 0.51243 0.28774
 H147 H 0.50103 0.51852 0.37848
 C148 C -0.07031 0.30785 0.63097
 C149 C -0.03258 0.31916 0.61245
 C150 C 0.00873 0.37232 0.60763
 C151 C 0.01238 0.41405 0.62130
 C152 C -0.03756 0.16571 0.56149
 C153 C -0.06674 0.34952 0.64464
 C154 C -0.03590 0.27624 0.59851
 C155 C -0.03783 0.24068 0.58684
 C156 C -0.03863 0.19976 0.57316
 C157 C -0.02513 0.40294 0.64003
 H158 H -0.10249 0.26689 0.63482
 H159 H 0.03818 0.38150 0.59335
 H160 H 0.04474 0.45491 0.61744
 H161 H -0.09658 0.34017 0.65873
 C162 C 0.67808 0.62218 0.27937
 C163 C 0.69237 0.67651 0.27930
 C164 C 0.66136 0.69173 0.29252
 C165 C 0.61632 0.65278 0.30582
 C166 C 0.85871 0.82420 0.22795
 C167 C 0.63313 0.58323 0.29267
 C168 C 0.73850 0.71650 0.26546
 C169 C 0.77688 0.75004 0.25374
 C170 C 0.82135 0.78970 0.23989
 C171 C 0.60213 0.59825 0.30615
 H172 H 0.70168 0.60993 0.26916
 H173 H 0.67191 0.73364 0.29248
 H174 H 0.59252 0.66509 0.31581
 H175 H 0.62277 0.54138 0.29268
 C176 C 0.32410 -0.04732 -0.03609
 C177 C 0.33573 -0.00642 -0.05430
 C178 C 0.38915 0.03247 -0.05958
 C179 C 0.43076 0.03092 -0.04651
 C180 C 0.17827 -0.00142 -0.10316
 C181 C 0.36572 -0.04895 -0.02302
 C182 C 0.29294 -0.00425 -0.06755
 C183 C 0.25709 -0.00257 -0.07870
 C184 C 0.21485 -0.00131 -0.09185
 C185 C 0.41936 -0.00941 -0.02793
 H186 H 0.28291 -0.07777 -0.03194
 H187 H 0.39860 0.06419 -0.07367
 H188 H 0.47187 0.06176 -0.05055
 H189 H 0.35616 -0.08071 -0.00895
 C190 C 0.03231 0.65568 0.61029
 C191 C -0.00723 0.66982 0.61223
 C192 C -0.05173 0.63860 0.62764
 C193 C -0.05647 0.59360 0.64118
 C194 C 0.00912 0.83818 0.56107
 C195 C 0.02766 0.61078 0.62382
 C196 C -0.00215 0.71626 0.59835
 C197 C 0.00205 0.75505 0.58665
 C198 C 0.00639 0.80015 0.57288
 C199 C -0.01650 0.57967 0.63955
 H200 H 0.06683 0.67946 0.59838
 H201 H -0.08269 0.64905 0.62919
 H202 H -0.09116 0.56973 0.65296
 H203 H 0.05886 0.60066 0.62231
 C204 C 0.39303 0.36231 0.27449
 C205 C 0.34066 0.35254 0.27706
 C206 C 0.33020 0.38210 0.29355
 C207 C 0.37187 0.42118 0.30746
 C208 C 0.18556 0.20051 0.22591
 C209 C 0.43478 0.40139 0.28842
 C210 C 0.29763 0.31189 0.26293
 C211 C 0.26176 0.27742 0.25118
 C212 C 0.22027 0.23638 0.23751
 C213 C 0.42445 0.43086 0.30517
 H214 H 0.40155 0.33963 0.26178
 H215 H 0.28987 0.37497 0.29564
 H216 H 0.36317 0.44405 0.31997
 H217 H 0.47500 0.40825 0.28635
 C218 C 0.61013 -0.06557 -0.05519
 C219 C 0.66431 -0.02540 -0.05472
 C220 C 0.68049 0.02053 -0.04110
 C221 C 0.64268 0.02607 -0.02785
 C222 C 0.80778 -0.04385 -0.10475
 C223 C 0.57233 -0.06010 -0.04194
 C224 C 0.70317 -0.03130 -0.06829
 C225 C 0.73576 -0.03607 -0.07971
 C226 C 0.77427 -0.04091 -0.09318
 C227 C 0.58836 -0.01450 -0.02798
 H228 H 0.59715 -0.10119 -0.06571
 H229 H 0.72229 0.05197 -0.04071
 H230 H 0.65573 0.06184 -0.01745
 H231 H 0.53063 -0.09179 -0.04227
 C232 C 0.36895 0.03372 0.03581
 C233 C 0.34138 -0.00704 0.05410
 C234 C 0.35592 -0.04620 0.05922
 C235 C 0.39742 -0.04502 0.04592
 C236 C 0.18561 -0.00974 0.10375
 C237 C 0.41053 0.03499 0.02252
 C238 C 0.29821 -0.00872 0.06761
 C239 C 0.26220 -0.00991 0.07897
 C240 C 0.22051 -0.01050 0.09231
 C241 C 0.42462 -0.00480 0.02728
 H242 H 0.35818 0.06438 0.03178
 H243 H 0.33497 -0.07782 0.07337
 H244 H 0.40774 -0.07602 0.04986
 H245 H 0.43146 0.06668 0.00841
 C246 C 0.68142 0.66121 0.37453
 C247 C 0.66566 0.69163 0.38773
 C248 C 0.61185 0.67829 0.38754
 C249 C 0.57400 0.63494 0.37411
 C250 C 0.80978 0.85278 0.43884
 C251 C 0.64357 0.61778 0.36110
 C252 C 0.70458 0.73627 0.40159
 C253 C 0.73730 0.77346 0.41327
 C254 C 0.77604 0.81655 0.42702
 C255 C 0.58962 0.60463 0.36061
 H256 H 0.72292 0.67102 0.37465
 H257 H 0.59919 0.70145 0.39774
 H258 H 0.53258 0.62537 0.37398
 H259 H 0.65629 0.59445 0.35109
 C260 C -0.04887 0.33181 0.72819
 C261 C -0.00621 0.32341 0.72345
 C262 C 0.03083 0.35445 0.70478
 C263 C 0.02529 0.39370 0.69087
 C264 C 0.01155 0.17268 0.77483
 C265 C -0.05449 0.37107 0.71427
 C266 C -0.00049 0.28287 0.73767
 C267 C 0.00409 0.24866 0.74946
 C268 C 0.00873 0.20807 0.76317
 C269 C -0.01765 0.40208 0.69537
 H270 H -0.07777 0.30800 0.74261
 H271 H 0.06407 0.34842 0.70100
 H272 H 0.05470 0.41779 0.67669
 H273 H -0.08779 0.37696 0.71807
 C274 C 0.67455 0.05193 0.05386
 C275 C 0.68861 0.01199 0.05332
 C276 C 0.65749 -0.03398 0.03970
 C277 C 0.61264 -0.03980 0.02655
 C278 C 0.85598 0.03223 0.10341
 C279 C 0.62981 0.04619 0.04070
 C280 C 0.73484 0.01817 0.06684
 C281 C 0.77343 0.02330 0.07827
 C282 C 0.81824 0.02869 0.09177
 C283 C 0.59878 0.00053 0.02677
 H284 H 0.69825 0.08757 0.06437
 H285 H 0.66788 -0.06525 0.03926
 H286 H 0.58885 -0.07560 0.01616
 H287 H 0.61974 0.07769 0.04110
 C288 C 0.34908 0.39305 0.39083
 C289 C 0.33903 0.34057 0.38804
 C290 C 0.37014 0.33162 0.37161
 C291 C 0.41104 0.37490 0.35799
 C292 C 0.18135 0.17897 0.43830
 C293 C 0.39000 0.43642 0.37719
 C294 C 0.29660 0.29587 0.40189
 C295 C 0.26078 0.25854 0.41342
 C296 C 0.21829 0.21526 0.42685
 C297 C 0.42105 0.42763 0.36050
 H298 H 0.32522 0.40042 0.40350
 H299 H 0.36282 0.29122 0.36935
 H300 H 0.43507 0.36731 0.34553
 H301 H 0.39708 0.47673 0.37943
 C302 C 0.01074 0.66247 0.70638
 C303 C -0.03336 0.64726 0.72181
 C304 C -0.07413 0.59314 0.72395
 C305 C -0.07101 0.55443 0.71059
 C306 C -0.03784 0.79635 0.77246
 C307 C 0.01393 0.62379 0.69303
 C308 C -0.03643 0.68714 0.73560
 C309 C -0.03823 0.72093 0.74719
 C310 C -0.03894 0.76117 0.76080
 C311 C -0.02721 0.56953 0.69485
 H312 H 0.04267 0.70420 0.70469
 H313 H -0.10833 0.58089 0.73590
 H314 H -0.10306 0.51277 0.71227
 H315 H 0.04840 0.63612 0.68126
   
