data_POSCAR
  _audit_creation_date              2014-09-24
  _audit_creation_method            'ToBaCCo'
  _symmetry_space_group_name_H-M    'P1'
  _symmetry_Int_Tables_number       1
  _symmetry_cell_setting            triclinic
  loop_
  _symmetry_equiv_pos_as_xyz
 x,y,z
_cell_length_a 22.7643
_cell_length_b 22.4130
_cell_length_c 26.4939
_cell_angle_alpha 89.422800
_cell_angle_beta 89.425900
_cell_angle_gamma 80.591600
loop_
  _atom_site_label
  _atom_site_type_symbol
  _atom_site_fract_x
  _atom_site_fract_y
  _atom_site_fract_z
C1 C 1.21243 0.20869 0.18927
 C2 C 1.24742 0.24930 0.15876
 C3 C 1.27884 0.28267 0.18736
 C4 C 1.27166 0.27316 0.24447
 C5 C 1.25809 0.17094 0.22345
 C6 C 1.28837 0.20463 0.25275
 C7 C 1.17315 0.25098 0.22520
 C8 C 1.20389 0.28442 0.25453
 H9 H 1.24821 0.25054 0.11785
 H10 H 1.29703 0.30056 0.26813
 H11 H 1.26037 0.12271 0.22936
 H12 H 1.12605 0.24994 0.23048
 C13 C 0.70605 -0.27691 0.19897
 C14 C 0.74565 -0.24018 0.16953
 C15 C 0.77779 -0.20814 0.19872
 C16 C 0.76726 -0.21596 0.25611
 C17 C 0.74795 -0.31638 0.23493
 C18 C 0.77974 -0.28521 0.26553
 C19 C 0.66757 -0.23144 0.23307
 C20 C 0.69912 -0.20009 0.26362
 H21 H 0.74879 -0.24041 0.12867
 H22 H 0.79340 -0.18993 0.28028
 H23 H 0.74864 -0.36471 0.23827
 H24 H 0.61975 -0.22871 0.23651
 C25 C 0.70321 0.20797 -0.30283
 C26 C 0.73747 0.24180 -0.33533
 C27 C 0.77375 0.27803 -0.30909
 C28 C 0.76858 0.27225 -0.25329
 C29 C 0.74710 0.17201 -0.27076
 C30 C 0.78256 0.20673 -0.24223
 C31 C 0.66925 0.25246 -0.26994
 C32 C 0.70455 0.28723 -0.24132
 H33 H 0.73544 0.23991 -0.37616
 H34 H 0.79661 0.29967 -0.23235
 H35 H 0.74899 0.12385 -0.26480
 H36 H 0.62194 0.25395 -0.26316
 C37 C 1.21731 -0.30099 -0.30429
 C38 C 1.24721 -0.25708 -0.33579
 C39 C 1.27828 -0.22218 -0.30847
 C40 C 1.27655 -0.23425 -0.25126
 C41 C 1.26720 -0.33752 -0.27338
 C42 C 1.29766 -0.30279 -0.24493
 C43 C 1.17906 -0.26186 -0.26571
 C44 C 1.20971 -0.22694 -0.23782
 H45 H 1.24461 -0.25456 -0.37662
 H46 H 1.30176 -0.20574 -0.22856
 H47 H 1.27241 -0.38619 -0.26879
 H48 H 1.13236 -0.26407 -0.25931
 C49 C 0.20849 0.22729 0.80427
 C50 C 0.24819 0.25432 0.83517
 C51 C 0.28367 0.29134 0.80828
 C52 C 0.27344 0.29277 0.75327
 C53 C 0.17216 0.27961 0.77539
 C54 C 0.20536 0.31290 0.74694
 C55 C 0.24823 0.19192 0.76453
 C56 C 0.28254 0.22530 0.73708
 H57 H 0.24814 0.24966 0.87595
 H58 H 0.30105 0.32078 0.73159
 H59 H 0.12448 0.28307 0.77100
 H60 H 0.24636 0.14481 0.75715
 C61 C 0.72029 0.70566 0.80034
 C62 C 0.74819 0.74463 0.83208
 C63 C 0.78570 0.78006 0.80576
 C64 C 0.78693 0.77023 0.75059
 C65 C 0.68777 0.74561 0.76309
 C66 C 0.72408 0.78110 0.73459
 C67 C 0.76885 0.66973 0.77272
 C68 C 0.80447 0.70472 0.74365
 H69 H 0.74387 0.74405 0.87292
 H70 H 0.81551 0.79805 0.72975
 H71 H 0.64137 0.74472 0.75475
 H72 H 0.77237 0.62130 0.76800
 C73 C 0.72600 0.20785 0.31154
 C74 C 0.76033 0.25098 0.33793
 C75 C 0.79021 0.28348 0.30645
 C76 C 0.78285 0.27047 0.25018
 C77 C 0.68533 0.24788 0.27413
 C78 C 0.71499 0.28048 0.24185
 C79 C 0.77141 0.16883 0.27773
 C80 C 0.80052 0.20140 0.24495
 H81 H 0.76081 0.25557 0.37863
 H82 H 0.80737 0.29719 0.22430
 H83 H 0.63802 0.24738 0.27103
 H84 H 0.77419 0.12022 0.27525
 C85 C 0.21215 0.72211 0.30498
 C86 C 0.25436 0.75345 0.33523
 C87 C 0.28855 0.78559 0.30698
 C88 C 0.27693 0.78292 0.24905
 C89 C 0.17589 0.77211 0.27358
 C90 C 0.20877 0.80293 0.24269
 C91 C 0.25182 0.68341 0.26699
 C92 C 0.28576 0.71441 0.23719
 H93 H 0.25629 0.75109 0.37608
 H94 H 0.30458 0.80901 0.22548
 H95 H 0.12797 0.77652 0.27069
 H96 H 0.25023 0.63572 0.26239
 O97 O 1.09692 0.02232 0.05622
 O98 O 0.89916 -0.02454 0.06275
 O99 O 0.96139 0.10663 0.05597
 O100 O 1.03746 -0.10621 0.05970
 O101 O 0.88119 0.07847 0.03351
 O102 O 1.11612 -0.08142 0.02934
 O103 O 0.93834 -0.11016 0.03416
 O104 O 1.05802 0.10736 0.02528
 C105 C 1.08708 0.07795 0.05935
 C106 C 0.90959 -0.08012 0.06834
 C107 C 0.90948 0.10197 0.06580
 C108 C 1.09024 -0.10146 0.06562
 O109 O 1.10072 -0.04266 -0.06766
 O110 O 0.89174 0.03888 -0.06416
 O111 O 1.02102 0.09702 -0.07078
 O112 O 0.97140 -0.10269 -0.06529
 O113 O 0.88853 -0.06114 -0.03426
 O114 O 1.10515 0.05599 -0.04208
 O115 O 1.07346 -0.12259 -0.03907
 O116 O 0.91939 0.11932 -0.03959
 Co117 Co 1.09421 -0.01055 -0.00563
 Co118 Co 0.90046 0.00717 -0.00093
 Co119 Co 0.99052 0.09692 -0.00725
 Co120 Co 1.00457 -0.09978 -0.00283
 O121 O 0.99737 -0.00157 -0.00422
 C122 C 1.09769 -0.09639 -0.07320
 C123 C 0.89609 0.09225 -0.07270
 C124 C 1.07586 0.08690 -0.07528
 C125 C 0.91649 -0.09172 -0.06856
 O126 O 1.10062 0.51656 0.55910
 O127 O 0.90298 0.46934 0.56699
 O128 O 0.96642 0.60497 0.56018
 O129 O 1.03812 0.39063 0.56127
 O130 O 0.88565 0.57463 0.54064
 O131 O 1.11674 0.41405 0.53020
 O132 O 0.93911 0.38548 0.53417
 O133 O 1.06302 0.60286 0.52977
 C134 C 1.09142 0.57202 0.56352
 C135 C 0.90961 0.41341 0.56905
 C136 C 0.91476 0.60048 0.57080
 C137 C 1.09061 0.39610 0.56713
 O138 O 1.10052 0.45595 0.43408
 O139 O 0.89172 0.53985 0.44213
 O140 O 1.02463 0.59530 0.43330
 O141 O 0.97377 0.39687 0.43658
 O142 O 0.89066 0.43912 0.46726
 O143 O 1.10845 0.55283 0.46146
 O144 O 1.07491 0.37490 0.46161
 O145 O 0.92292 0.61874 0.46634
 Co146 Co 1.09640 0.48573 0.49671
 Co147 Co 0.90303 0.50486 0.50399
 Co148 Co 0.99479 0.59463 0.49711
 Co149 Co 1.00622 0.39770 0.49870
 O150 O 0.99989 0.49587 0.49908
 C151 C 1.09768 0.40245 0.42738
 C152 C 0.89687 0.59305 0.43410
 C153 C 1.07945 0.58491 0.42877
 C154 C 0.91921 0.41040 0.43221
 O155 O 0.57416 0.02388 0.57677
 O156 O 0.38124 -0.05166 0.53506
 O157 O 0.42860 0.12999 0.53248
 O158 O 0.56504 -0.08751 0.56419
 O159 O 0.37968 0.05770 0.55722
 O160 O 0.64617 -0.05690 0.53593
 O161 O 0.46122 -0.08535 0.57377
 O162 O 0.53611 0.11095 0.54507
 C163 C 0.56336 0.08022 0.58021
 C164 C 0.40644 -0.07873 0.57202
 C165 C 0.39400 0.10886 0.56364
 C166 C 0.62167 -0.09392 0.56440
 O167 O 0.59737 -0.03274 0.44924
 O168 O 0.37349 0.08519 0.46366
 O169 O 0.55116 0.08070 0.44475
 O170 O 0.44878 -0.10801 0.47144
 O171 O 0.39325 -0.02611 0.44060
 O172 O 0.62214 0.05556 0.49372
 O173 O 0.55647 -0.11040 0.46275
 O174 O 0.45441 0.09893 0.43103
 Co175 Co 0.58127 -0.00637 0.51289
 Co176 Co 0.39243 0.01548 0.49942
 Co177 Co 0.49227 0.09814 0.48975
 Co178 Co 0.50673 -0.08890 0.51652
 O179 O 0.49019 0.00741 0.50322
 C180 C 0.58921 -0.08331 0.43605
 C181 C 0.40065 0.10301 0.42764
 C182 C 0.60295 0.08418 0.45528
 C183 C 0.41243 -0.08199 0.43826
 O184 O 0.61361 0.55707 0.03531
 O185 O 0.39492 0.44166 0.03270
 O186 O 0.42809 0.62095 0.03440
 O187 O 0.57966 0.37842 0.03938
 O188 O 0.39953 0.54080 0.06070
 O189 O 0.60891 0.45841 0.06395
 O190 O 0.47629 0.39975 0.06532
 O191 O 0.52900 0.59810 0.06382
 C192 C 0.58370 0.58824 0.06816
 C193 C 0.42126 0.41150 0.06783
 C194 C 0.40354 0.59430 0.06796
 C195 C 0.60437 0.40521 0.07207
 O196 O 0.62409 0.41746 -0.03241
 O197 O 0.39014 0.57976 -0.03673
 O198 O 0.56681 0.60668 -0.03318
 O199 O 0.44549 0.39072 -0.03374
 O200 O 0.40816 0.47606 -0.06516
 O201 O 0.60586 0.52109 -0.06212
 O202 O 0.54470 0.39208 -0.05919
 O203 O 0.47031 0.60605 -0.06234
 Co204 Co 0.60257 0.48946 0.00092
 Co205 Co 0.40864 0.50872 -0.00196
 Co206 Co 0.49902 0.59735 0.00088
 Co207 Co 0.51116 0.40087 0.00289
 O208 O 0.50535 0.49906 0.00080
 C209 C 0.59750 0.39567 -0.06673
 C210 C 0.41823 0.60180 -0.07059
 C211 C 0.59516 0.57664 -0.06731
 C212 C 0.41666 0.42017 -0.06828
 N213 N 1.13514 0.20234 0.12639
 C214 C 1.17765 0.17298 0.15720
 N215 N 1.18815 0.11151 0.15773
 N216 N 1.15787 0.08045 0.12773
 C217 C 1.11591 0.11006 0.09652
 N218 N 1.10494 0.17137 0.09647
 N219 N 1.19453 0.60215 0.66169
 C220 C 1.18177 0.66343 0.66428
 N221 N 1.13690 0.69335 0.63604
 N222 N 1.10672 0.66335 0.60537
 C223 C 1.12001 0.60236 0.60207
 N224 N 1.16413 0.57200 0.63096
 N225 N 0.62057 0.20394 0.64127
 C226 C 0.66524 0.17419 0.67007
 N227 N 0.67176 0.11271 0.67310
 N228 N 0.63654 0.08231 0.64719
 C229 C 0.59257 0.11230 0.61796
 N230 N 0.58531 0.17360 0.61558
 N231 N 0.61204 0.69483 0.16586
 C232 C 0.67256 0.68657 0.16587
 N233 N 0.70314 0.64394 0.13536
 N234 N 0.67439 0.61141 0.10544
 C235 C 0.61402 0.61999 0.10510
 N236 N 0.58320 0.66226 0.13584
 N237 N 0.86150 -0.20355 0.14174
 C238 C 0.82080 -0.17405 0.17443
 N239 N 0.81189 -0.11252 0.17451
 N240 N 0.84210 -0.08191 0.14253
 C241 C 0.88197 -0.11182 0.10912
 N242 N 0.89169 -0.17316 0.11008
 N243 N 0.81617 0.30358 0.61227
 C244 C 0.80944 0.31315 0.66275
 N245 N 0.83634 0.35728 0.68327
 N246 N 0.86765 0.39043 0.65409
 C247 C 0.87408 0.38001 0.60347
 N248 N 0.84805 0.33556 0.58356
 N249 N 0.28413 -0.14689 0.62560
 C250 C 0.30954 -0.17773 0.66625
 N251 N 0.36650 -0.17287 0.67805
 N252 N 0.39731 -0.13948 0.64922
 C253 C 0.37193 -0.10956 0.60795
 N254 N 0.31456 -0.11320 0.59723
 N255 N 0.37546 0.31619 0.17122
 C256 C 0.31570 0.32317 0.16345
 N257 N 0.29153 0.36156 0.12667
 N258 N 0.32558 0.39148 0.09832
 C259 C 0.38537 0.38365 0.10493
 N260 N 0.40986 0.34588 0.14233
 N261 N 0.84072 0.21150 -0.16652
 C262 C 0.81637 0.17915 -0.20157
 N263 N 0.82076 0.11842 -0.19438
 N264 N 0.84685 0.09111 -0.15381
 C265 C 0.86990 0.12334 -0.11835
 N266 N 0.86714 0.18400 -0.12568
 N267 N 0.83959 0.71492 0.34344
 C268 C 0.81415 0.68387 0.30819
 N269 N 0.81716 0.62321 0.31450
 N270 N 0.84387 0.59463 0.35436
 C271 C 0.86880 0.62552 0.38977
 N272 N 0.86666 0.68618 0.38344
 N273 N 0.29229 0.13935 0.32686
 C274 C 0.31791 0.17876 0.29818
 N275 N 0.36989 0.19460 0.31306
 N276 N 0.39616 0.17046 0.35481
 C277 C 0.37054 0.13097 0.38341
 N278 N 0.31806 0.11597 0.36897
 N279 N 0.37884 0.69497 -0.18399
 C280 C 0.33183 0.67116 -0.20125
 N281 N 0.31383 0.62467 -0.17543
 N282 N 0.34159 0.60271 -0.13373
 C283 C 0.38879 0.62607 -0.11665
 N284 N 0.40733 0.67228 -0.14258
 N285 N 1.13690 -0.21301 -0.16893
 C286 C 1.18167 -0.19268 -0.19469
 N287 N 1.19899 -0.14038 -0.18023
 N288 N 1.17182 -0.10922 -0.14163
 C289 C 1.12709 -0.12980 -0.11590
 N290 N 1.11036 -0.18239 -0.13000
 N291 N 1.19504 0.36610 0.31671
 C292 C 1.17612 0.31599 0.29912
 N293 N 1.13179 0.29403 0.32428
 N294 N 1.10711 0.32114 0.36556
 C295 C 1.12552 0.37163 0.38280
 N296 N 1.16970 0.39379 0.35760
 N297 N 0.61912 -0.18245 0.32661
 C298 C 0.67004 -0.16690 0.30725
 N299 N 0.69404 -0.12267 0.33008
 N300 N 0.66760 -0.09486 0.37061
 C301 C 0.61687 -0.11100 0.39004
 N302 N 0.59322 -0.15535 0.36737
 N303 N 0.61944 0.32534 -0.19112
 C304 C 0.67909 0.31999 -0.19920
 N305 N 0.71247 0.34200 -0.16363
 N306 N 0.68697 0.36707 -0.12147
 C307 C 0.62730 0.37073 -0.11333
 N308 N 0.59413 0.35009 -0.14930
 N309 N 1.11143 0.20111 -0.16539
 C310 C 1.17196 0.18834 -0.16668
 N311 N 1.19963 0.13937 -0.14091
 N312 N 1.16812 0.10546 -0.11384
 C313 C 1.10781 0.11874 -0.11188
 N314 N 1.07982 0.16709 -0.13825
 N315 N 1.11518 0.69708 0.33655
 C316 C 1.17577 0.68550 0.33648
 N317 N 1.20361 0.63864 0.36453
 N318 N 1.17216 0.60534 0.39230
 C319 C 1.11176 0.61719 0.39275
 N320 N 1.08362 0.66373 0.36445
 N321 N 0.63496 0.17666 0.34769
 C322 C 0.69485 0.17260 0.34887
 N323 N 0.72553 0.13948 0.38646
 N324 N 0.69714 0.11139 0.42150
 C325 C 0.63704 0.11595 0.42004
 N326 N 0.60679 0.14864 0.38239
 N327 N 0.63776 0.70006 -0.14288
 C328 C 0.68366 0.67113 -0.17108
 N329 N 0.69692 0.60970 -0.16766
 N330 N 0.66684 0.57872 -0.13639
 C331 C 0.62231 0.60813 -0.10731
 N332 N 0.60785 0.66913 -0.11151
 N333 N 0.86863 -0.16450 -0.18370
 C334 C 0.81823 -0.18350 -0.16615
 N335 N 0.80098 -0.17039 -0.11775
 N336 N 0.83214 -0.14039 -0.08790
 C337 C 0.88311 -0.12299 -0.10451
 N338 N 0.90086 -0.13522 -0.15319
 N339 N 0.88475 0.31601 0.32694
 C340 C 0.82427 0.32718 0.32766
 N341 N 0.79607 0.36918 0.35999
 N342 N 0.82688 0.39821 0.39109
 C343 C 0.88716 0.38577 0.39166
 N344 N 0.91573 0.34505 0.35829
 N345 N 0.36501 -0.20963 0.37102
 C346 C 0.33089 -0.18137 0.33310
 N347 N 0.32685 -0.12047 0.32809
 N348 N 0.35493 -0.08930 0.36022
 C349 C 0.38820 -0.11760 0.39868
 N350 N 0.39346 -0.17862 0.40281
 N351 N 0.33388 0.30615 -0.11577
 C352 C 0.32097 0.32345 -0.16421
 N353 N 0.34139 0.37348 -0.18242
 N354 N 0.37193 0.40532 -0.15254
 C355 C 0.38403 0.38745 -0.10383
 N356 N 0.36506 0.33686 -0.08656
 N357 N 1.21072 -0.15118 0.15697
 C358 C 1.17931 -0.16413 0.19841
 N359 N 1.11883 -0.15439 0.19595
 N360 N 1.09073 -0.13389 0.15394
 C361 C 1.12197 -0.12213 0.11234
 N362 N 1.18248 -0.13006 0.11483
 N363 N 1.20930 0.35328 0.66029
 C364 C 1.17717 0.34565 0.70262
 N365 N 1.11676 0.35753 0.70024
 N366 N 1.08932 0.37441 0.65719
 C367 C 1.12132 0.38009 0.61466
 N368 N 1.18177 0.37085 0.61712
 N369 N 0.73454 -0.15656 0.66002
 C370 C 0.70107 -0.18661 0.69123
 N371 N 0.64353 -0.18721 0.67875
 N372 N 0.62003 -0.15911 0.63760
 C373 C 0.65281 -0.12896 0.60654
 N374 N 0.71069 -0.12782 0.61855
 N375 N 0.63877 0.29468 0.17570
 C376 C 0.68560 0.31395 0.19825
 N377 N 0.70565 0.36332 0.17902
 N378 N 0.67935 0.39270 0.13912
 C379 C 0.63278 0.37314 0.11641
 N380 N 0.61308 0.32347 0.13535
 N381 N 0.87698 0.19679 0.17833
 C382 C 0.83102 0.17380 0.19972
 N383 N 0.81047 0.12763 0.17646
 N384 N 0.83498 0.10513 0.13341
 C385 C 0.88123 0.12777 0.11228
 N386 N 0.90214 0.17363 0.13569
 N387 N 0.83326 0.62027 0.69000
 C388 C 0.83687 0.67835 0.70218
 N389 N 0.86733 0.71075 0.67071
 N390 N 0.89296 0.68572 0.62882
 C391 C 0.88747 0.62822 0.61638
 N392 N 0.85766 0.59575 0.64781
 N393 N 0.34170 0.22979 0.65698
 C394 C 0.31715 0.19735 0.69300
 N395 N 0.32029 0.13704 0.68621
 N396 N 0.34550 0.11010 0.64531
 C397 C 0.36917 0.14199 0.60896
 N398 N 0.36761 0.20247 0.61570
 N399 N 0.34639 0.71522 0.15858
 C400 C 0.32036 0.68394 0.19427
 N401 N 0.32312 0.62337 0.18833
 N402 N 0.35007 0.59510 0.14845
 C403 C 0.37552 0.62622 0.11258
 N404 N 0.37363 0.68679 0.11852
   
