data_POSCAR
  _audit_creation_date              2014-09-24
  _audit_creation_method            'ToBaCCo'
  _symmetry_space_group_name_H-M    'P1'
  _symmetry_Int_Tables_number       1
  _symmetry_cell_setting            triclinic
  loop_
  _symmetry_equiv_pos_as_xyz
 x,y,z
_cell_length_a 18.8064
_cell_length_b 18.9184
_cell_length_c 35.9587
_cell_angle_alpha 93.342500
_cell_angle_beta 90.125800
_cell_angle_gamma 93.208400
loop_
  _atom_site_label
  _atom_site_type_symbol
  _atom_site_fract_x
  _atom_site_fract_y
  _atom_site_fract_z
C1 C 0.00504 0.35438 1.03650
 C2 C 0.00939 0.31408 1.00268
 C3 C 0.01086 0.34421 0.96811
 C4 C 0.00970 0.41879 0.96703
 C5 C 0.00708 0.46166 1.00077
 C6 C 0.00572 0.42952 1.03560
 C7 C 0.00516 0.47362 1.06838
 C8 C 0.00459 0.54684 1.06727
 C9 C 0.00455 0.58013 1.03332
 C10 C 0.00542 0.53692 0.99960
 C11 C 0.01167 0.45179 0.93313
 C12 C 0.00941 0.52467 0.93197
 C13 C 0.00468 0.56857 0.96466
 C14 C -0.00067 0.64300 0.96346
 C15 C 0.00043 0.68429 0.99712
 C16 C 0.00415 0.65515 1.03201
 H17 H 0.00576 0.45255 1.09556
 H18 H 0.00364 0.57650 1.09371
 H19 H 0.01507 0.42205 0.90678
 H20 H 0.01222 0.54559 0.90480
 H21 H 0.01164 0.25768 1.00309
 H22 H -0.00100 0.74072 0.99604
 C23 C 0.34873 0.01204 0.53488
 C24 C 0.31365 0.01983 0.50115
 C25 C 0.34998 0.02506 0.46739
 C26 C 0.42512 0.02133 0.46725
 C27 C 0.46231 0.01551 0.50131
 C28 C 0.42407 0.01248 0.53526
 C29 C 0.46233 0.00983 0.56862
 C30 C 0.53589 0.00736 0.56879
 C31 C 0.57510 0.00668 0.53555
 C32 C 0.53792 0.01199 0.50139
 C33 C 0.46424 0.02313 0.43409
 C34 C 0.53775 0.01900 0.43409
 C35 C 0.57591 0.01316 0.46728
 C36 C 0.65084 0.00837 0.46734
 C37 C 0.68602 0.00315 0.50131
 C38 C 0.65017 0.00096 0.53539
 H39 H 0.43629 0.01027 0.59528
 H40 H 0.56105 0.00616 0.59563
 H41 H 0.43885 0.02718 0.40747
 H42 H 0.56386 0.02054 0.40750
 H43 H 0.25668 0.02138 0.50119
 H44 H 0.74283 0.00064 0.50108
 C45 C 0.12959 -0.01224 0.28211
 H46 H 0.12574 -0.05766 0.26242
 C47 C 0.18107 -0.00868 0.31034
 H48 H 0.21716 -0.05105 0.31201
 C49 C 0.08353 0.09505 0.30632
 H50 H 0.04359 0.13389 0.30527
 C51 C 0.13421 0.10075 0.33489
 H52 H 0.13313 0.14454 0.35555
 N53 N 0.08140 0.03867 0.28103
 C54 C -0.04420 -0.10608 0.21237
 H55 H -0.08942 -0.10583 0.23084
 C56 C -0.04097 -0.15941 0.18389
 H57 H -0.08346 -0.20040 0.18074
 C58 C 0.06375 -0.05064 0.19192
 H59 H 0.10340 -0.00694 0.19473
 C60 C 0.06915 -0.10290 0.16323
 H61 H 0.11341 -0.09899 0.14420
 Zn62 Zn 0.00068 0.02691 0.24945
 N63 N 0.00757 -0.05281 0.21562
 C64 C -0.06547 0.10255 0.19708
 N65 N -0.00772 0.10551 0.22000
 C66 C 0.04516 0.15723 0.21789
 C67 C 0.04221 0.20710 0.19074
 C68 C -0.07070 0.15143 0.16980
 C69 C -0.07895 -0.04129 0.30281
 C70 C -0.12937 -0.04882 0.33086
 C71 C -0.17850 0.06023 0.31397
 C72 C -0.12734 0.06546 0.28594
 N73 N -0.07841 0.01537 0.28124
 H74 H -0.10599 0.06002 0.19893
 H75 H 0.09145 0.15752 0.23577
 H76 H 0.08612 0.24595 0.18798
 H77 H -0.11582 0.14612 0.15099
 H78 H -0.03834 -0.07935 0.29905
 H79 H -0.12721 -0.09315 0.34840
 H80 H -0.21550 0.10169 0.31853
 H81 H -0.12467 0.11119 0.26924
 C82 C 0.01569 -0.15740 0.15864
 C83 C 0.18246 0.04740 0.33762
 C84 C -0.17895 0.00315 0.33714
 C85 C -0.01538 0.20318 0.16574
 C86 C 0.00432 0.11132 0.77652
 H87 H 0.00326 0.12329 0.74748
 C88 C 0.00761 0.16677 0.80422
 H89 H 0.00846 0.22122 0.79644
 C90 C 0.00527 0.02642 0.82239
 H91 H 0.00518 -0.02792 0.82986
 C92 C 0.00859 0.07977 0.85067
 H93 H 0.01026 0.06577 0.87943
 N94 N 0.00231 0.04248 0.78602
 C95 C 0.08296 -0.09231 0.69389
 H96 H 0.04715 -0.13860 0.69548
 C97 C 0.13333 -0.09009 0.66554
 H98 H 0.13513 -0.13472 0.64543
 C99 C 0.12342 0.02215 0.71793
 H100 H 0.11894 0.06623 0.73805
 C101 C 0.17479 0.02651 0.68997
 H102 H 0.20930 0.07408 0.68865
 Zn103 Zn -0.00406 -0.03615 0.75003
 N104 N 0.07698 -0.03564 0.71853
 C105 C -0.10164 -0.09397 0.69667
 N106 N -0.08599 -0.03470 0.71908
 C107 C -0.12383 0.02418 0.71669
 C108 C -0.17543 0.02680 0.68881
 C109 C -0.15253 -0.09359 0.66846
 C110 C 0.04933 -0.15286 0.78470
 C111 C 0.04742 -0.20236 0.81209
 C112 C -0.07818 -0.18546 0.82009
 C113 C -0.07408 -0.13678 0.79240
 N114 N -0.01052 -0.11974 0.77631
 H115 H -0.07304 -0.14114 0.69994
 H116 H -0.11234 0.07022 0.73526
 H117 H -0.20274 0.07509 0.68590
 H118 H -0.16180 -0.14042 0.65003
 H119 H 0.09951 -0.13721 0.77211
 H120 H 0.09611 -0.22553 0.82014
 H121 H -0.12835 -0.19537 0.83400
 H122 H -0.12047 -0.10860 0.78567
 C123 C 0.17825 -0.02909 0.66266
 C124 C 0.00930 0.15067 0.84174
 C125 C -0.01623 -0.21654 0.83119
 C126 C -0.18810 -0.03172 0.66350
 C127 C 0.07200 -0.21191 0.09455
 C128 C 0.06765 -0.29387 0.09446
 C129 C 0.00782 -0.29695 0.06492
 C130 C 0.01232 -0.21492 0.06487
 C131 C -0.04903 -0.29414 0.09571
 C132 C 0.01078 -0.29057 0.12569
 C133 C 0.01520 -0.20923 0.12526
 C134 C -0.04442 -0.21217 0.09582
 H135 H 0.12254 -0.17901 0.09326
 H136 H 0.11408 -0.32766 0.09389
 H137 H 0.01349 -0.17904 0.04154
 H138 H -0.09910 -0.32805 0.09613
 H139 H 0.01035 -0.32130 0.15107
 H140 H -0.09064 -0.17809 0.09649
 C141 C 0.04651 0.23878 0.10319
 C142 C -0.01006 0.23543 0.07191
 C143 C -0.00120 0.31713 0.07046
 C144 C 0.05541 0.32041 0.10165
 C145 C -0.06076 0.32566 0.09952
 C146 C -0.06940 0.24406 0.10107
 C147 C -0.01281 0.24724 0.13219
 C148 C -0.00411 0.32845 0.13122
 H149 H 0.09078 0.20261 0.10477
 H150 H -0.01367 0.19272 0.04941
 H151 H 0.10704 0.35189 0.10180
 H152 H -0.10529 0.36152 0.09797
 H153 H -0.12157 0.21360 0.09990
 H154 H -0.00194 0.36643 0.15597
 C155 C 0.21912 0.04227 0.60415
 C156 C 0.30133 0.05292 0.60387
 C157 C 0.30361 0.00086 0.56937
 C158 C 0.22149 -0.00969 0.56948
 C159 C 0.30929 -0.06196 0.59447
 C160 C 0.30667 -0.00992 0.62940
 C161 C 0.22504 -0.02035 0.62920
 C162 C 0.22716 -0.07239 0.59474
 H163 H 0.18154 0.08522 0.60827
 H164 H 0.33199 0.10474 0.60747
 H165 H 0.18311 -0.01054 0.54598
 H166 H 0.34664 -0.10511 0.59036
 H167 H 0.34145 -0.01033 0.65436
 H168 H 0.19732 -0.12443 0.59009
 C169 C -0.24356 -0.08089 0.59673
 C170 C -0.32396 -0.06768 0.59565
 C171 C -0.30878 -0.00837 0.56861
 C172 C -0.22834 -0.02179 0.56952
 C173 C -0.29886 0.04715 0.60157
 C174 C -0.31365 -0.01213 0.62908
 C175 C -0.23382 -0.02540 0.62964
 C176 C -0.21847 0.03362 0.60263
 H177 H -0.22153 -0.13410 0.59385
 H178 H -0.36752 -0.10975 0.59273
 H179 H -0.18921 -0.02696 0.54663
 H180 H -0.32164 0.10011 0.60349
 H181 H -0.34845 -0.00842 0.65393
 H182 H -0.17461 0.07536 0.60561
 C183 C -0.07588 -0.26374 0.89443
 C184 C -0.06090 -0.34276 0.89756
 C185 C -0.00668 -0.32167 0.92909
 C186 C -0.02204 -0.24262 0.92617
 C187 C 0.05389 -0.31452 0.90056
 C188 C -0.00012 -0.33535 0.86856
 C189 C -0.01523 -0.25686 0.86598
 C190 C 0.03853 -0.23555 0.89752
 H191 H -0.12986 -0.24329 0.89262
 H192 H -0.10230 -0.38695 0.89762
 H193 H -0.03240 -0.20112 0.94826
 H194 H 0.10755 -0.33542 0.90317
 H195 H 0.00867 -0.37328 0.84450
 H196 H 0.07951 -0.19098 0.89743
 C197 C 0.06890 0.21221 0.90329
 C198 C 0.07011 0.29408 0.90327
 C199 C 0.01158 0.29446 0.93322
 C200 C 0.01048 0.21264 0.93334
 C201 C -0.04665 0.28901 0.90277
 C202 C 0.01184 0.28806 0.87236
 C203 C 0.01076 0.20680 0.87301
 C204 C -0.04762 0.20725 0.90283
 H205 H 0.11667 0.18029 0.90330
 H206 H 0.11886 0.33002 0.90364
 H207 H 0.00982 0.17729 0.95689
 H208 H -0.09450 0.32079 0.90273
 H209 H 0.01241 0.31916 0.84713
 H210 H -0.09632 0.17122 0.90247
 C211 C -0.30758 0.00970 0.37140
 C212 C -0.31485 -0.04963 0.39944
 C213 C -0.30463 0.00680 0.43196
 C214 C -0.29779 0.06614 0.40437
 C215 C -0.22314 -0.00068 0.43081
 C216 C -0.23335 -0.05707 0.39819
 C217 C -0.22659 0.00219 0.37066
 C218 C -0.21634 0.05856 0.40306
 H219 H -0.34205 0.01379 0.34661
 H220 H -0.35574 -0.09437 0.39805
 H221 H -0.32439 0.11709 0.40706
 H222 H -0.18441 -0.00509 0.45374
 H223 H -0.20792 -0.10866 0.39637
 H224 H -0.17533 0.10320 0.40442
 C225 C 0.21896 -0.01519 0.39806
 C226 C 0.30047 -0.02215 0.39904
 C227 C 0.30620 0.03298 0.43234
 C228 C 0.22465 0.03988 0.43148
 C229 C 0.31646 0.09362 0.40568
 C230 C 0.31033 0.03845 0.37194
 C231 C 0.22925 0.04524 0.37144
 C232 C 0.23482 0.10041 0.40465
 H233 H 0.17840 -0.06008 0.39481
 H234 H 0.32758 -0.07284 0.39685
 H235 H 0.18578 0.04106 0.45462
 H236 H 0.35690 0.13861 0.40896
 H237 H 0.34532 0.03807 0.34712
 H238 H 0.20860 0.15151 0.40765
   
