data_POSCAR
  _audit_creation_date              2014-09-24
  _audit_creation_method            'ToBaCCo'
  _symmetry_space_group_name_H-M    'P1'
  _symmetry_Int_Tables_number       1
  _symmetry_cell_setting            triclinic
  loop_
  _symmetry_equiv_pos_as_xyz
 x,y,z
_cell_length_a 29.7004
_cell_length_b 31.0685
_cell_length_c 7.1209
_cell_angle_alpha 94.199600
_cell_angle_beta 89.611100
_cell_angle_gamma 90.396700
loop_
  _atom_site_label
  _atom_site_type_symbol
  _atom_site_fract_x
  _atom_site_fract_y
  _atom_site_fract_z
O1 O 0.22887 0.29530 0.00273
 O2 O 0.30404 0.20659 0.10988
 O3 O 0.22133 0.21195 -0.01249
 O4 O 0.31147 0.28994 0.12670
 O5 O 0.28804 0.29453 0.42205
 O6 O 0.19924 0.21608 0.28415
 O7 O 0.28167 0.21055 0.40617
 O8 O 0.20652 0.29918 0.29970
 Cu9 Cu 0.26930 0.25041 0.02822
 Cu10 Cu 0.24128 0.25518 0.38119
 C11 C 0.20437 0.31218 0.13511
 C12 C 0.30646 0.19390 0.27471
 C13 C 0.19394 0.20144 0.11470
 C14 C 0.31530 0.30554 0.29572
 O15 O 0.81100 0.28983 0.42599
 O16 O 0.72506 0.20750 0.52666
 O17 O 0.80798 0.20577 0.40224
 O18 O 0.72836 0.29077 0.55735
 O19 O 0.70888 0.29464 0.26087
 O20 O 0.78385 0.20376 0.10953
 O21 O 0.70167 0.21122 0.23603
 O22 O 0.79133 0.28735 0.12728
 Cu23 Cu 0.77095 0.24843 0.50565
 Cu24 Cu 0.74359 0.24948 0.15514
 C25 C 0.81679 0.30158 0.26039
 C26 C 0.69752 0.19619 0.39598
 C27 C 0.80969 0.18988 0.23324
 C28 C 0.70455 0.30707 0.43384
 O29 O 0.71611 0.77790 0.49434
 O30 O 0.79488 0.69862 0.66512
 O31 O 0.70871 0.70293 0.61918
 O32 O 0.80414 0.77480 0.53006
 O33 O 0.79456 0.80644 0.81457
 O34 O 0.70204 0.73177 0.91044
 O35 O 0.78975 0.73069 0.95082
 O36 O 0.70874 0.80754 0.78378
 Cu37 Cu 0.75701 0.73552 0.54872
 Cu38 Cu 0.74844 0.77195 0.89409
 C39 C 0.69850 0.80592 0.61084
 C40 C 0.80564 0.70109 0.83777
 C41 C 0.68876 0.70524 0.77759
 C42 C 0.81498 0.80389 0.65687
 O43 O 0.20713 0.73001 0.98211
 O44 O 0.30139 0.79913 0.84569
 O45 O 0.21523 0.80607 0.86317
 O46 O 0.29538 0.72228 0.97403
 O47 O 0.29060 0.69411 0.68149
 O48 O 0.20902 0.77733 0.57203
 O49 O 0.29724 0.77072 0.55332
 O50 O 0.20418 0.70095 0.69006
 Cu51 Cu 0.25555 0.76703 0.94573
 Cu52 Cu 0.25023 0.73299 0.59482
 C53 C 0.18922 0.70399 0.85780
 C54 C 0.31488 0.79727 0.67578
 C55 C 0.19773 0.80583 0.70096
 C56 C 0.30657 0.69364 0.84616
 C57 C 0.99860 0.10852 0.01901
 C58 C 1.03974 0.09360 -0.05669
 C59 C 1.04107 0.05362 -0.16210
 C60 C 1.00225 0.02699 -0.18176
 C61 C 0.96146 0.04289 -0.10049
 C62 C 0.95941 0.08369 -0.00377
 C63 C 1.00462 -0.01792 -0.27625
 C64 C 0.96532 -0.03990 -0.33992
 C65 C 0.96608 -0.08381 -0.40201
 C66 C 1.00739 -0.10515 -0.42203
 C67 C 1.04737 -0.08370 -0.36647
 C68 C 1.04556 -0.04068 -0.29021
 H69 H 0.99694 0.14006 0.09471
 H70 H 1.07263 0.04315 -0.22426
 H71 H 0.93115 0.02348 -0.10405
 H72 H 0.93314 -0.02386 -0.33537
 H73 H 1.00808 -0.13926 -0.46647
 H74 H 1.07633 -0.02591 -0.23646
 C75 C 0.49507 0.60738 0.91774
 C76 C 0.53668 0.59012 0.85949
 C77 C 0.53942 0.54647 0.79528
 C78 C 0.50103 0.51944 0.78930
 C79 C 0.45959 0.53759 0.85066
 C80 C 0.45620 0.58163 0.90820
 C81 C 0.50364 0.47383 0.70418
 C82 C 0.46546 0.45307 0.62132
 C83 C 0.46814 0.41139 0.53181
 C84 C 0.50991 0.39070 0.51673
 C85 C 0.54821 0.41076 0.59684
 C86 C 0.54481 0.45137 0.69465
 H87 H 0.49239 0.64172 0.95557
 H88 H 0.57144 0.53428 0.74462
 H89 H 0.42921 0.51823 0.84982
 H90 H 0.43349 0.46941 0.61928
 H91 H 0.51264 0.35883 0.44492
 H92 H 0.57478 0.46518 0.76073
 C93 C 0.01222 0.39182 0.08701
 C94 C -0.03013 0.41085 0.11259
 C95 C -0.03449 0.45569 0.10494
 C96 C 0.00285 0.48176 0.05991
 C97 C 0.04496 0.46115 0.03079
 C98 C 0.04986 0.41703 0.05102
 C99 C -0.00158 0.52992 0.04862
 C100 C 0.03692 0.55709 0.04965
 C101 C 0.03317 0.60155 0.03367
 C102 C -0.00926 0.62031 0.03150
 C103 C -0.04801 0.59456 0.02957
 C104 C -0.04415 0.54956 0.03251
 H105 H 0.01624 0.35761 0.10298
 H106 H -0.06722 0.46949 0.13530
 H107 H 0.07488 0.47857 -0.00570
 H108 H 0.07050 0.54470 0.06107
 H109 H -0.01208 0.65472 0.01758
 H110 H -0.07470 0.53055 0.02018
 C111 C 0.50723 0.88588 0.47676
 C112 C 0.46598 0.90666 0.51041
 C113 C 0.46454 0.95195 0.52769
 C114 C 0.50348 0.97708 0.50042
 C115 C 0.54464 0.95528 0.46865
 C116 C 0.54682 0.91016 0.46320
 C117 C 0.50093 1.02543 0.50157
 C118 C 0.53971 1.05175 0.52986
 C119 C 0.53826 1.09617 0.50661
 C120 C 0.49690 1.11549 0.47326
 C121 C 0.45786 1.09035 0.44941
 C122 C 0.46010 1.04564 0.46009
 H123 H 0.50890 0.85099 0.47350
 H124 H 0.43263 0.96712 0.56246
 H125 H 0.57564 0.97268 0.44742
 H126 H 0.57186 1.03805 0.56150
 H127 H 0.49525 1.14994 0.46098
 H128 H 0.42994 1.02697 0.42774
 C129 C 1.14709 0.15926 -0.11528
 C130 C 1.15651 0.17502 0.07010
 C131 C 1.12495 0.16552 0.21103
 C132 C 1.08785 0.13850 0.16873
 C133 C 1.08087 0.11987 -0.01539
 C134 C 1.11041 0.13208 -0.15703
 C135 C 1.13705 0.10534 -0.30080
 C136 C 1.17665 0.13554 -0.25704
 H137 H 1.12913 0.17821 0.35587
 H138 H 1.06506 0.13135 0.28205
 H139 H 1.12376 0.10729 -0.44529
 H140 H 1.14343 0.07213 -0.25953
 H141 H 1.18572 0.15544 -0.37535
 H142 H 1.20550 0.11965 -0.19208
 C143 C 0.63072 0.65328 0.64809
 C144 C 0.64890 0.67767 0.80253
 C145 C 0.62603 0.67651 0.97654
 C146 C 0.58945 0.64783 0.99617
 C147 C 0.57563 0.61940 0.84317
 C148 C 0.59540 0.62483 0.66757
 C149 C 0.61377 0.59360 0.51664
 C150 C 0.65241 0.62526 0.49484
 H151 H 0.63714 0.69665 1.09810
 H152 H 0.57300 0.64683 1.13192
 H153 H 0.59155 0.59009 0.39146
 H154 H 0.62543 0.56285 0.56933
 H155 H 0.65221 0.64020 0.35784
 H156 H 0.68555 0.61271 0.53676
 C157 C -0.11671 0.32126 0.06793
 C158 C -0.14511 0.33039 0.22299
 C159 C -0.13221 0.36418 0.35531
 C160 C -0.09506 0.39098 0.31956
 C161 C -0.06923 0.38347 0.15383
 C162 C -0.07946 0.34689 0.03536
 C163 C -0.08620 0.34286 -0.17252
 C164 C -0.12703 0.31475 -0.13699
 H165 H -0.15182 0.37082 0.48254
 H166 H -0.08681 0.41768 0.42019
 H167 H -0.05845 0.32480 -0.24728
 H168 H -0.09477 0.37414 -0.22956
 H169 H -0.12246 0.28062 -0.19171
 H170 H -0.15937 0.32961 -0.17502
 C171 C 0.36012 0.86500 0.73122
 C172 C 0.35057 0.82708 0.61989
 C173 C 0.37537 0.81936 0.45105
 C174 C 0.41243 0.84595 0.41116
 C175 C 0.42448 0.88130 0.53682
 C176 C 0.39583 0.89164 0.68966
 C177 C 0.40676 0.90155 0.89255
 C178 C 0.36761 0.87224 0.93830
 H179 H 0.36790 0.79150 0.35571
 H180 H 0.43260 0.83798 0.28635
 H181 H 0.40089 0.93603 0.93844
 H182 H 0.44012 0.88885 0.93103
 H183 H 0.33923 0.88982 1.01100
 H184 H 0.37825 0.84246 1.00289
 C185 C -0.15423 0.63004 -0.19462
 C186 C -0.16320 0.66927 -0.09169
 C187 C -0.14031 0.67778 0.08014
 C188 C -0.10469 0.65120 0.12897
 C189 C -0.09216 0.61501 0.00961
 C190 C -0.11977 0.60332 -0.14420
 C191 C -0.10752 0.59115 -0.34472
 C192 C -0.14527 0.62042 -0.39994
 H193 H -0.14707 0.70693 0.16835
 H194 H -0.08470 0.66080 0.25180
 H195 H -0.11413 0.55643 -0.38453
 H196 H -0.07347 0.60291 -0.38311
 H197 H -0.17359 0.60256 -0.47183
 H198 H -0.13308 0.64919 -0.46967
 C199 C 0.37150 1.14723 0.17426
 C200 C 0.33958 1.16040 0.31192
 C201 C 0.34258 1.14252 0.48817
 C202 C 0.38001 1.11714 0.52995
 C203 C 0.41523 1.11017 0.39785
 C204 C 0.40837 1.12274 0.21582
 C205 C 0.43849 1.14564 0.08650
 C206 C 0.39814 1.17291 0.04271
 H207 H 0.31773 1.15031 0.59722
 H208 H 0.38296 1.10556 0.66909
 H209 H 0.44998 1.12412 -0.03584
 H210 H 0.46538 1.16477 0.16129
 H211 H 0.38652 1.16759 -0.10497
 H212 H 0.40178 1.20738 0.09504
 C213 C 1.15536 -0.12974 -0.19522
 C214 C 1.16558 -0.16287 -0.33311
 C215 C 1.14092 -0.16396 -0.50261
 C216 C 1.10329 -0.13691 -0.51847
 C217 C 1.09052 -0.10736 -0.36790
 C218 C 1.11930 -0.10242 -0.21333
 C219 C 1.10848 -0.10075 -0.00800
 C220 C 1.14786 -0.13096 0.01213
 H221 H 1.14836 -0.18772 -0.61717
 H222 H 1.08289 -0.14069 -0.64393
 H223 H 1.07524 -0.11562 0.02139
 H224 H 1.11414 -0.06807 0.06261
 H225 H 1.13738 -0.16348 0.05231
 H226 H 1.17606 -0.11579 0.09544
 C227 C 0.65615 0.37028 0.37082
 C228 C 0.67045 0.33966 0.49205
 C229 C 0.64821 0.33867 0.66745
 C230 C 0.60907 0.36328 0.70608
 C231 C 0.59240 0.39009 0.57246
 C232 C 0.61838 0.39533 0.41147
 C233 C 0.60490 0.39401 0.20978
 C234 C 0.64620 0.36632 0.16510
 H235 H 0.65857 0.31613 0.76761
 H236 H 0.59011 0.35910 0.83369
 H237 H 0.60717 0.42629 0.15253
 H238 H 0.57260 0.37644 0.18199
 H239 H 0.67212 0.38257 0.08134
 H240 H 0.63759 0.33273 0.11234
 C241 C 0.85634 -0.13049 -0.24638
 C242 C 0.84891 -0.16592 -0.37608
 C243 C 0.87642 -0.16895 -0.53971
 C244 C 0.91377 -0.14087 -0.55594
 C245 C 0.92322 -0.10840 -0.41230
 C246 C 0.89198 -0.10232 -0.26524
 C247 C 0.89928 -0.09664 -0.05755
 C248 C 0.86021 -0.12778 -0.03657
 H249 H 0.87111 -0.19462 -0.64878
 H250 H 0.93632 -0.14585 -0.67553
 H251 H 0.89186 -0.06322 0.00041
 H252 H 0.93217 -0.10961 -0.01470
 H253 H 0.83036 -0.11233 0.03431
 H254 H 0.87049 -0.15885 0.01799
 C255 C 0.35073 0.36406 0.50870
 C256 C 0.35189 0.33671 0.34358
 C257 C 0.38939 0.34024 0.22256
 C258 C 0.42672 0.36619 0.27854
 C259 C 0.42697 0.38966 0.45558
 C260 C 0.38713 0.39030 0.56192
 C261 C 0.38037 0.38367 0.76551
 C262 C 0.34070 0.35460 0.70748
 H263 H 0.39123 0.32074 0.09042
 H264 H 0.45611 0.36624 0.18770
 H265 H 0.37024 0.41387 0.84788
 H266 H 0.40887 0.36625 0.82523
 H267 H 0.30775 0.36789 0.75766
 H268 H 0.34630 0.32020 0.73349
 C269 C 0.12102 0.69046 0.05558
 C270 C 0.14967 0.67783 -0.09547
 C271 C 0.13680 0.64161 -0.21443
 C272 C 0.09920 0.61653 -0.17024
 C273 C 0.07315 0.62754 -0.00819
 C274 C 0.08315 0.66622 0.09651
 C275 C 0.08964 0.67420 0.30366
 C276 C 0.13122 0.70045 0.25920
 H277 H 0.15651 0.63188 -0.33870
 H278 H 0.09064 0.58829 -0.26173
 H279 H 0.09735 0.64422 0.37312
 H280 H 0.06220 0.69409 0.37121
 H281 H 0.16296 0.68542 0.30255
 H282 H 0.12784 0.73537 0.30220
 C283 C 0.63136 1.15687 0.27833
 C284 C 0.66181 1.16753 0.42427
 C285 C 0.65379 1.14892 0.59724
 C286 C 0.61382 1.12492 0.62566
 C287 C 0.58074 1.12035 0.48390
 C288 C 0.59203 1.13437 0.30758
 C289 C 0.56639 1.15963 0.17357
 C290 C 0.60977 1.18415 0.14047
 H291 H 0.67720 1.15431 0.71272
 H292 H 0.60788 1.11178 0.76043
 H293 H 0.54041 1.18078 0.24372
 H294 H 0.55492 1.13938 0.04756
 H295 H 0.60827 1.21880 0.19193
 H296 H 0.62369 1.17781 -0.00380
 C297 C 0.15312 0.35081 -0.07703
 C298 C 0.17235 0.34682 0.10037
 C299 C 0.15638 0.37453 0.25200
 C300 C 0.11824 0.40026 0.23111
 C301 C 0.09513 0.39846 0.05897
 C302 C 0.11499 0.37581 -0.09646
 C303 C 0.09489 0.34445 -0.24095
 C304 C 0.13657 0.31708 -0.22114
 H305 H 0.17122 0.37391 0.39025
 H306 H 0.10462 0.41867 0.35334
 H307 H 0.09249 0.35797 -0.38082
 H308 H 0.06353 0.32900 -0.19151
 H309 H 0.15774 0.31541 -0.35043
 H310 H 0.12948 0.28560 -0.16159
 C311 C 0.65708 0.87571 0.65255
 C312 C 0.66568 0.83688 0.54624
 C313 C 0.64000 0.82763 0.38178
 C314 C 0.60238 0.85317 0.34486
 C315 C 0.59101 0.88904 0.46835
 C316 C 0.62106 0.90146 0.61283
 C317 C 0.61207 0.91372 0.81634
 C318 C 0.65149 0.88529 0.86027
 H319 H 0.64635 0.79869 0.29148
 H320 H 0.58063 0.84332 0.22782
 H321 H 0.57911 0.90137 0.86537
 H322 H 0.61844 0.94860 0.85349
 H323 H 0.64117 0.85649 0.93451
 H324 H 0.68048 0.90379 0.92349
 C325 C 0.84261 0.13043 0.01291
 C326 C 0.84292 0.15554 0.18462
 C327 C 0.87776 0.14800 0.31169
 C328 C 0.91410 0.12111 0.25696
 C329 C 0.91631 0.10088 0.07373
 C330 C 0.87825 0.10319 -0.04015
 C331 C 0.87538 0.11307 -0.24119
 C332 C 0.83693 0.14338 -0.18325
 H333 H 0.87917 0.16600 0.44728
 H334 H 0.94212 0.11901 0.35252
 H335 H 0.86461 0.08449 -0.33343
 H336 H 0.90606 0.12984 -0.28966
 H337 H 0.80407 0.13264 -0.24465
 H338 H 0.84560 0.17787 -0.19716
 C339 C 0.34485 0.62326 0.76126
 C340 C 0.33851 0.65945 0.88777
 C341 C 0.36525 0.66275 1.05147
 C342 C 0.40184 0.63463 1.06930
 C343 C 0.41151 0.60217 0.92598
 C344 C 0.38015 0.59507 0.78106
 C345 C 0.38739 0.58851 0.57306
 C346 C 0.34880 0.61955 0.55124
 H347 H 0.36057 0.68925 1.15710
 H348 H 0.42454 0.64042 1.18692
 H349 H 0.37949 0.55490 0.51806
 H350 H 0.42046 0.60121 0.52707
 H351 H 0.31876 0.60384 0.48300
 H352 H 0.35964 0.65023 0.49289
   
