data_POSCAR
  _audit_creation_date              2014-09-24
  _audit_creation_method            'ToBaCCo'
  _symmetry_space_group_name_H-M    'P1'
  _symmetry_Int_Tables_number       1
  _symmetry_cell_setting            triclinic
  loop_
  _symmetry_equiv_pos_as_xyz
 x,y,z
_cell_length_a 45.2358
_cell_length_b 45.2386
_cell_length_c 45.1733
_cell_angle_alpha 90.191900
_cell_angle_beta 90.278500
_cell_angle_gamma 90.273600
loop_
  _atom_site_label
  _atom_site_type_symbol
  _atom_site_fract_x
  _atom_site_fract_y
  _atom_site_fract_z
C1 C 0.72183 0.67306 0.96397
 H2 H 0.74318 0.67324 0.95328
 C3 C 0.69811 0.68828 0.95130
 H4 H 0.70123 0.70041 0.93090
 C5 C 0.69103 0.65548 1.00251
 H6 H 0.68798 0.64190 1.02185
 C7 C 0.66681 0.67039 0.99062
 H8 H 0.64538 0.66844 1.00107
 N9 N 0.71784 0.65686 0.98899
 C10 C 0.80414 0.63805 1.02800
 H11 H 0.80126 0.61446 1.03070
 C12 C 0.83014 0.65169 1.03765
 H13 H 0.84734 0.63860 1.04791
 C14 C 0.78516 0.68392 1.01132
 H15 H 0.76748 0.69632 1.00116
 C16 C 0.81095 0.69850 1.02072
 H17 H 0.81315 0.72216 1.01776
 Zn18 Zn 0.74894 0.63222 1.00223
 N19 N 0.78245 0.65414 1.01483
 C20 C 0.78761 0.60870 0.95948
 N21 N 0.75948 0.60760 0.96999
 C22 C 0.73821 0.59113 0.95616
 C23 C 0.74496 0.57493 0.93064
 C24 C 0.79527 0.59284 0.93419
 C25 C 0.73126 0.62554 1.06042
 C26 C 0.72102 0.61133 1.08574
 C27 C 0.72181 0.56496 1.05892
 C28 C 0.73211 0.58012 1.03402
 N29 N 0.73612 0.60994 1.03513
 H30 H 0.80403 0.62250 0.97014
 H31 H 0.71586 0.59115 0.96459
 H32 H 0.72786 0.56223 0.91946
 H33 H 0.81762 0.59424 0.92578
 H34 H 0.73494 0.64919 1.06070
 H35 H 0.71674 0.62418 1.10556
 H36 H 0.71816 0.54128 1.05769
 H37 H 0.73657 0.56811 1.01384
 C38 C 0.83368 0.68213 1.03385
 C39 C 0.67027 0.68658 0.96457
 C40 C 0.71599 0.58080 1.08495
 C41 C 0.77375 0.57600 0.91950
 C42 C 0.72642 0.33279 0.52610
 H43 H 0.74774 0.33157 0.53697
 C44 C 0.70233 0.31704 0.53742
 H45 H 0.70512 0.30350 0.55695
 C46 C 0.69615 0.35328 0.48845
 H47 H 0.69350 0.36812 0.46999
 C48 C 0.67157 0.33791 0.49901
 H49 H 0.65023 0.34078 0.48842
 N50 N 0.72289 0.35061 0.50214
 C51 C 0.81021 0.36899 0.46561
 H52 H 0.80875 0.39284 0.46479
 C53 C 0.83528 0.35484 0.45484
 H54 H 0.85321 0.36780 0.44567
 C55 C 0.78841 0.32295 0.47823
 H56 H 0.76994 0.31067 0.48709
 C57 C 0.81317 0.30786 0.46763
 H58 H 0.81380 0.28394 0.46842
 Zn59 Zn 0.75482 0.37519 0.49058
 N60 N 0.78754 0.35301 0.47724
 C61 C 0.79387 0.39613 0.53509
 N62 N 0.76589 0.39807 0.52408
 C63 C 0.74492 0.41445 0.53801
 C64 C 0.75187 0.42987 0.56404
 C65 C 0.80172 0.41118 0.56096
 C66 C 0.73736 0.38514 0.43264
 C67 C 0.72732 0.40080 0.40808
 C68 C 0.72972 0.44574 0.43713
 C69 C 0.73980 0.42919 0.46123
 N70 N 0.74285 0.39936 0.45869
 H71 H 0.81002 0.38238 0.52428
 H72 H 0.72268 0.41511 0.52914
 H73 H 0.73503 0.44262 0.57520
 H74 H 0.82397 0.40924 0.56971
 H75 H 0.74027 0.36146 0.43120
 H76 H 0.72237 0.38916 0.38764
 H77 H 0.72667 0.46937 0.43941
 H78 H 0.74476 0.44012 0.48197
 C79 C 0.83682 0.32402 0.45589
 C80 C 0.67459 0.31992 0.52390
 C81 C 0.72318 0.43130 0.41042
 C82 C 0.78053 0.42808 0.57565
 C83 C 0.22626 -0.16669 0.02578
 H84 H 0.24760 -0.16788 0.03663
 C85 C 0.20220 -0.18244 0.03715
 H86 H 0.20502 -0.19594 0.05671
 C87 C 0.19595 -0.14632 -0.01189
 H88 H 0.19326 -0.13152 -0.03038
 C89 C 0.17139 -0.16168 -0.00128
 H90 H 0.15004 -0.15887 -0.01186
 N91 N 0.22270 -0.14893 0.00178
 C92 C 0.30989 -0.13064 -0.03510
 H93 H 0.30839 -0.10680 -0.03603
 C94 C 0.33495 -0.14481 -0.04585
 H95 H 0.35284 -0.13187 -0.05514
 C96 C 0.28820 -0.17665 -0.02216
 H97 H 0.26978 -0.18891 -0.01317
 C98 C 0.31296 -0.19175 -0.03274
 H99 H 0.31364 -0.21566 -0.03180
 Zn100 Zn 0.25460 -0.12438 -0.00993
 N101 N 0.28728 -0.14659 -0.02331
 C102 C 0.29382 -0.10336 0.03437
 N103 N 0.26580 -0.10141 0.02347
 C104 C 0.24491 -0.08498 0.03746
 C105 C 0.25199 -0.06952 0.06344
 C106 C 0.30180 -0.08827 0.06018
 C107 C 0.23706 -0.11465 -0.06785
 C108 C 0.22689 -0.09914 -0.09246
 C109 C 0.22913 -0.05406 -0.06353
 C110 C 0.23934 -0.07050 -0.03941
 N111 N 0.24253 -0.10032 -0.04187
 H112 H 0.30991 -0.11714 0.02351
 H113 H 0.22262 -0.08432 0.02869
 H114 H 0.23520 -0.05674 0.07465
 H115 H 0.32408 -0.09023 0.06884
 H116 H 0.24007 -0.13833 -0.06921
 H117 H 0.22199 -0.11101 -0.11281
 H118 H 0.22602 -0.03043 -0.06119
 H119 H 0.24430 -0.05950 -0.01870
 C120 C 0.33655 -0.17562 -0.04462
 C121 C 0.17445 -0.17963 0.02365
 C122 C 0.22257 -0.06861 -0.09023
 C123 C 0.28070 -0.07133 0.07493
 C124 C 0.22227 0.17307 0.46328
 H125 H 0.24363 0.17340 0.45261
 C126 C 0.19850 0.18826 0.45065
 H127 H 0.20159 0.20050 0.43033
 C128 C 0.19150 0.15517 0.50168
 H129 H 0.18849 0.14147 0.52095
 C130 C 0.16723 0.17004 0.48985
 H131 H 0.14580 0.16795 0.50026
 N132 N 0.21832 0.15673 0.48820
 C133 C 0.30464 0.13797 0.52719
 H134 H 0.30181 0.11435 0.52974
 C135 C 0.33059 0.15160 0.53698
 H136 H 0.34780 0.13849 0.54720
 C137 C 0.28558 0.18389 0.51077
 H138 H 0.26789 0.19631 0.50065
 C139 C 0.31132 0.19847 0.52031
 H140 H 0.31347 0.22215 0.51751
 Zn141 Zn 0.24949 0.13213 0.50137
 N142 N 0.28294 0.15409 0.51408
 C143 C 0.28825 0.10891 0.45855
 N144 N 0.26013 0.10764 0.46906
 C145 C 0.23894 0.09109 0.45521
 C146 C 0.24578 0.07495 0.42967
 C147 C 0.29599 0.09312 0.43323
 C148 C 0.23180 0.12522 0.55953
 C149 C 0.22169 0.11089 0.58482
 C150 C 0.22272 0.06461 0.55793
 C151 C 0.23289 0.07985 0.53304
 N152 N 0.23674 0.10971 0.53420
 H153 H 0.30461 0.12277 0.46922
 H154 H 0.21660 0.09097 0.46364
 H155 H 0.22875 0.06217 0.41848
 H156 H 0.31834 0.09464 0.42483
 H157 H 0.23535 0.14889 0.55986
 H158 H 0.21732 0.12353 0.60472
 H159 H 0.21918 0.04093 0.55680
 H160 H 0.23741 0.06790 0.51283
 C161 C 0.33406 0.18208 0.53339
 C162 C 0.17065 0.18638 0.46389
 C163 C 0.21688 0.08036 0.58396
 C164 C 0.27456 0.07617 0.41853
 C165 C 0.17404 0.46319 0.22225
 H166 H 0.17428 0.45261 0.24369
 C167 C 0.18921 0.45046 0.19854
 H168 H 0.20137 0.43014 0.20176
 C169 C 0.15631 0.50145 0.19119
 H170 H 0.14266 0.52070 0.18805
 C171 C 0.17117 0.48951 0.16698
 H172 H 0.16913 0.49982 0.14546
 N173 N 0.15777 0.48809 0.21812
 C174 C 0.13869 0.52710 0.30438
 H175 H 0.11508 0.52957 0.30146
 C176 C 0.15224 0.53696 0.33037
 H177 H 0.13905 0.54716 0.34752
 C178 C 0.18471 0.51080 0.28549
 H179 H 0.19720 0.50072 0.26784
 C180 C 0.19920 0.52043 0.31127
 H181 H 0.22288 0.51772 0.31350
 Zn182 Zn 0.13308 0.50128 0.24919
 N183 N 0.15490 0.51402 0.28274
 C184 C 0.10963 0.45852 0.28799
 N185 N 0.10851 0.46902 0.25981
 C186 C 0.09205 0.45520 0.23852
 C187 C 0.07584 0.42969 0.24531
 C188 C 0.09377 0.43323 0.29568
 C189 C 0.12625 0.55931 0.23124
 C190 C 0.11191 0.58455 0.22108
 C191 C 0.06561 0.55768 0.22225
 C192 C 0.08085 0.53284 0.23246
 N193 N 0.11071 0.53402 0.23627
 H194 H 0.12343 0.46918 0.30442
 H195 H 0.09206 0.46363 0.21614
 H196 H 0.06314 0.41852 0.22821
 H197 H 0.09516 0.42484 0.31808
 H198 H 0.14992 0.55966 0.23476
 H199 H 0.12457 0.60443 0.21665
 H200 H 0.04192 0.55654 0.21876
 H201 H 0.06888 0.51267 0.23706
 C202 C 0.18271 0.53349 0.33395
 C203 C 0.18740 0.46356 0.17057
 C204 C 0.08138 0.58368 0.21634
 C205 C 0.07692 0.41856 0.27416
 C206 C -0.16808 0.02673 0.22531
 H207 H -0.16938 0.03753 0.24667
 C208 C -0.18369 0.03810 0.20113
 H209 H -0.19722 0.05760 0.20395
 C210 C -0.14749 -0.01079 0.19508
 H211 H -0.13265 -0.02921 0.19249
 C212 C -0.16272 -0.00021 0.17039
 H213 H -0.15971 -0.01079 0.14906
 N214 N -0.15026 0.00282 0.22185
 C215 C -0.13192 -0.03382 0.30928
 H216 H -0.10808 -0.03464 0.30775
 C217 C -0.14602 -0.04462 0.33441
 H218 H -0.13302 -0.05382 0.35233
 C219 C -0.17801 -0.02114 0.28759
 H220 H -0.19032 -0.01223 0.26914
 C221 C -0.19305 -0.03177 0.31243
 H222 H -0.21696 -0.03096 0.31314
 Zn223 Zn -0.12575 -0.00875 0.25388
 N224 N -0.14795 -0.02215 0.28664
 C225 C -0.10483 0.03559 0.29305
 N226 N -0.10284 0.02467 0.26502
 C227 C -0.08633 0.03859 0.24409
 C228 C -0.07080 0.06451 0.25114
 C229 C -0.08966 0.06134 0.30100
 C230 C -0.11583 -0.06658 0.23643
 C231 C -0.10017 -0.09111 0.22648
 C232 C -0.05519 -0.06211 0.22904
 C233 C -0.07174 -0.03803 0.23902
 N234 N -0.10159 -0.04058 0.24196
 H235 H -0.11866 0.02479 0.30916
 H236 H -0.08564 0.02979 0.22181
 H237 H -0.05792 0.07564 0.23434
 H238 H -0.09162 0.07001 0.32329
 H239 H -0.13953 -0.06802 0.23925
 H240 H -0.11182 -0.11152 0.22151
 H241 H -0.03154 -0.05983 0.22609
 H242 H -0.06079 -0.01733 0.24403
 C243 C -0.17683 -0.04355 0.33606
 C244 C -0.18070 0.02468 0.17332
 C245 C -0.06964 -0.08877 0.22247
 C246 C -0.07261 0.07600 0.27986
 C247 C 0.33234 0.52641 0.72666
 H248 H 0.33112 0.53716 0.74805
 C249 C 0.31663 0.53783 0.70256
 H250 H 0.30311 0.55732 0.70541
 C251 C 0.35280 0.48896 0.69624
 H252 H 0.36763 0.47055 0.69353
 C253 C 0.33747 0.49963 0.67164
 H254 H 0.34034 0.48916 0.65025
 N255 N 0.35014 0.50251 0.72306
 C256 C 0.36854 0.46570 0.81039
 H257 H 0.39239 0.46497 0.80894
 C258 C 0.35439 0.45474 0.83543
 H259 H 0.36736 0.44551 0.85336
 C260 C 0.32247 0.47824 0.78857
 H261 H 0.31018 0.48714 0.77010
 C262 C 0.30739 0.46745 0.81331
 H263 H 0.28347 0.46813 0.81391
 Zn264 Zn 0.37471 0.49084 0.75499
 N265 N 0.35254 0.47737 0.78773
 C266 C 0.39577 0.53515 0.79416
 N267 N 0.39765 0.52423 0.76612
 C268 C 0.41405 0.53819 0.74512
 C269 C 0.42955 0.56415 0.75210
 C270 C 0.41091 0.56094 0.80204
 C271 C 0.38456 0.43306 0.73736
 C272 C 0.40018 0.40856 0.72728
 C273 C 0.44518 0.43753 0.72980
 C274 C 0.42867 0.46158 0.73992
 N275 N 0.39883 0.45904 0.74293
 H276 H 0.38203 0.52432 0.81033
 H277 H 0.41466 0.52940 0.72283
 H278 H 0.44231 0.57531 0.73523
 H279 H 0.40902 0.56962 0.82434
 H280 H 0.36087 0.43163 0.74023
 H281 H 0.38851 0.38817 0.72227
 H282 H 0.46883 0.43980 0.72680
 H283 H 0.43964 0.48226 0.74495
 C284 C 0.32356 0.45564 0.83695
 C285 C 0.31951 0.52447 0.67474
 C286 C 0.43070 0.41089 0.72319
 C287 C 0.42782 0.57565 0.78082
 C288 C 0.67468 0.96381 0.72285
 H289 H 0.67502 0.95310 0.74423
 C290 C 0.68978 0.95124 0.69900
 H291 H 0.70199 0.93093 0.70205
 C292 C 0.65675 1.00221 0.69208
 H293 H 0.64304 1.02144 0.68910
 C294 C 0.67153 0.99043 0.66774
 H295 H 0.66939 1.00086 0.64628
 N296 N 0.65834 0.98869 0.71893
 C297 C 0.63928 1.02718 0.80545
 H298 H 0.61566 1.02959 0.80258
 C299 C 0.65283 1.03699 0.83147
 H300 H 0.63956 1.04707 0.84865
 C301 C 0.68532 1.01115 0.78640
 H302 H 0.69781 1.00119 0.76868
 C303 C 0.69983 1.02072 0.81220
 H304 H 0.72355 1.01806 0.81429
 Zn305 Zn 0.63367 1.00164 0.75013
 N306 N 0.65550 1.01427 0.78372
 C307 C 0.61033 0.95861 0.78872
 N308 N 0.60920 0.96925 0.76060
 C309 C 0.59275 0.95550 0.73925
 C310 C 0.57656 0.92996 0.74592
 C311 C 0.59449 0.93328 0.79631
 C312 C 0.62661 1.05975 0.73248
 C313 C 0.61220 1.08495 0.72231
 C314 C 0.56602 1.05786 0.72325
 C315 C 0.58133 1.03307 0.73348
 N316 N 0.61117 1.03437 0.73739
 H317 H 0.62412 0.96922 0.80521
 H318 H 0.59274 0.96404 0.71690
 H319 H 0.56385 0.91886 0.72877
 H320 H 0.59589 0.92479 0.81867
 H321 H 0.65027 1.06020 0.73607
 H322 H 0.62479 1.10489 0.71795
 H323 H 0.54235 1.05661 0.71965
 H324 H 0.56944 1.01284 0.73798
 C325 C 0.68334 1.03363 0.83499
 C326 C 0.68783 0.96449 0.67111
 C327 C 0.58169 1.08393 0.71742
 C328 C 0.57764 0.91870 0.77472
 C329 C 0.02580 0.22568 -0.16666
 H330 H 0.03659 0.24704 -0.16777
 C331 C 0.03727 0.20168 -0.18238
 H332 H 0.05685 0.20457 -0.19580
 C333 C -0.01181 0.19523 -0.14645
 H334 H -0.03031 0.19247 -0.13171
 C335 C -0.00109 0.17073 -0.16179
 H336 H -0.01161 0.14935 -0.15902
 N337 N 0.00179 0.22202 -0.14898
 C338 C -0.03509 0.30912 -0.13046
 H339 H -0.03601 0.30750 -0.10659
 C340 C -0.04586 0.33423 -0.14458
 H341 H -0.05515 0.35205 -0.13157
 C342 C -0.02218 0.28765 -0.17659
 H343 H -0.01319 0.26929 -0.18892
 C344 C -0.03278 0.31247 -0.19165
 H345 H -0.03187 0.31325 -0.21559
 Zn346 Zn -0.00995 0.25381 -0.12433
 N347 N -0.02331 0.28659 -0.14649
 C348 C 0.03429 0.29290 -0.10306
 N349 N 0.02338 0.26488 -0.10122
 C350 C 0.03734 0.24389 -0.08484
 C351 C 0.06333 0.25084 -0.06934
 C352 C 0.06011 0.30076 -0.08792
 C353 C -0.06780 0.23617 -0.11477
 C354 C -0.09239 0.22599 -0.09931
 C355 C -0.06357 0.22814 -0.05409
 C356 C -0.03945 0.23837 -0.07048
 N357 N -0.04187 0.24161 -0.10035
 H358 H 0.02346 0.30908 -0.11680
 H359 H 0.02856 0.22161 -0.08427
 H360 H 0.07452 0.23397 -0.05662
 H361 H 0.06879 0.32304 -0.08981
 H362 H -0.06913 0.23924 -0.13848
 H363 H -0.11271 0.22113 -0.11125
 H364 H -0.06125 0.22500 -0.03041
 H365 H -0.01879 0.24330 -0.05940
 C366 C -0.04466 0.33598 -0.17542
 C367 C 0.02386 0.17389 -0.17963
 C368 C -0.09021 0.22162 -0.06873
 C369 C 0.07485 0.27954 -0.07106
 C370 C 0.46419 0.22215 0.17364
 H371 H 0.45348 0.24348 0.17386
 C372 C 0.45161 0.19837 0.18887
 H373 H 0.43128 0.20144 0.20105
 C374 C 0.50262 0.19142 0.15590
 H375 H 0.52188 0.18843 0.14222
 C376 C 0.49083 0.16715 0.17081
 H377 H 0.50126 0.14574 0.16879
 N378 N 0.48910 0.21822 0.15734
 C379 C 0.52767 0.30461 0.13799
 H380 H 0.53017 0.30167 0.11436
 C381 C 0.53736 0.33066 0.15148
 H382 H 0.54747 0.34785 0.13823
 C383 C 0.51144 0.28571 0.18411
 H384 H 0.50144 0.26804 0.19667
 C385 C 0.52090 0.31156 0.19855
 H386 H 0.51815 0.31381 0.22225
 Zn387 Zn 0.50208 0.24933 0.13252
 N388 N 0.51470 0.28293 0.15428
 C389 C 0.45908 0.28779 0.10904
 N390 N 0.46970 0.25971 0.10797
 C391 C 0.45589 0.23835 0.09161
 C392 C 0.43027 0.24496 0.07547
 C393 C 0.43369 0.29531 0.09325
 C394 C 0.56021 0.23178 0.12557
 C395 C 0.58544 0.22168 0.11120
 C396 C 0.55839 0.22247 0.06492
 C397 C 0.53357 0.23263 0.08020
 N398 N 0.53484 0.23660 0.11007
 H399 H 0.46974 0.30428 0.12276
 H400 H 0.46441 0.21605 0.09166
 H401 H 0.41911 0.22780 0.06286
 H402 H 0.42520 0.31763 0.09462
 H403 H 0.56063 0.23541 0.14925
 H404 H 0.60537 0.21741 0.12383
 H405 H 0.55717 0.21884 0.04123
 H406 H 0.51333 0.23705 0.06825
 C407 C 0.53384 0.33427 0.18198
 C408 C 0.46487 0.17054 0.18708
 C409 C 0.58447 0.21676 0.08066
 C410 C 0.41902 0.27371 0.07651
 C411 C 0.96293 0.72198 0.67443
 H412 H 0.95230 0.74335 0.67479
 C413 C 0.95035 0.69819 0.68963
 H414 H 0.93009 0.70126 0.70192
 C415 C 1.00121 0.69122 0.65641
 H416 H 1.02041 0.68823 0.64266
 C417 C 0.98941 0.66693 0.67129
 H418 H 0.99979 0.64550 0.66917
 N419 N 0.98777 0.71805 0.65802
 C420 C 1.02660 0.80442 0.63917
 H421 H 1.02903 0.80164 0.61551
 C422 C 1.03645 0.83033 0.65281
 H423 H 1.04660 0.84756 0.63965
 C424 C 1.01043 0.78526 0.68521
 H425 H 1.00039 0.76755 0.69767
 C426 C 1.02005 0.81097 0.69980
 H427 H 1.01739 0.81306 0.72353
 Zn428 Zn 1.00085 0.74926 0.63338
 N429 N 1.01359 0.78268 0.65535
 C430 C 0.95800 0.78802 0.61013
 N431 N 0.96853 0.75991 0.60887
 C432 C 0.95473 0.73874 0.59226
 C433 C 0.92924 0.74558 0.57602
 C434 C 0.93273 0.79577 0.59425
 C435 C 1.05891 0.73156 0.62638
 C436 C 1.08414 0.72153 0.61196
 C437 C 1.05718 0.72280 0.56564
 C438 C 1.03236 0.73288 0.58097
 N439 N 1.03358 0.73658 0.61088
 H440 H 0.96864 0.80436 0.62404
 H441 H 0.96318 0.71641 0.59215
 H442 H 0.91810 0.72857 0.56318
 H443 H 0.92433 0.81811 0.59574
 H444 H 1.05930 0.73499 0.65009
 H445 H 1.10404 0.71711 0.62460
 H446 H 1.05600 0.71939 0.54192
 H447 H 1.01216 0.73746 0.56902
 C448 C 1.03304 0.83373 0.68335
 C449 C 0.96354 0.67033 0.68770
 C450 C 1.08321 0.71689 0.58138
 C451 C 0.91810 0.77436 0.57722
 C452 C 0.52620 0.72720 0.33143
 H453 H 0.53701 0.74853 0.33016
 C454 C 0.53751 0.70312 0.31571
 H455 H 0.55700 0.70593 0.30214
 C456 C 0.48869 0.69688 0.35202
 H457 H 0.47029 0.69420 0.36690
 C458 C 0.49925 0.67231 0.33668
 H459 H 0.48872 0.65096 0.33959
 N460 N 0.50231 0.72364 0.34930
 C461 C 0.46576 0.81088 0.36783
 H462 H 0.46500 0.80931 0.39171
 C463 C 0.45491 0.83598 0.35375
 H464 H 0.44575 0.85380 0.36687
 C465 C 0.47829 0.78930 0.32165
 H466 H 0.48716 0.77089 0.30930
 C467 C 0.46761 0.81410 0.30661
 H468 H 0.46838 0.81476 0.28264
 Zn469 Zn 0.49077 0.75553 0.37392
 N470 N 0.47737 0.78830 0.35175
 C471 C 0.53517 0.79458 0.39499
 N472 N 0.52420 0.76658 0.39688
 C473 C 0.53810 0.74561 0.41335
 C474 C 0.56401 0.75258 0.42895
 C475 C 0.56092 0.80245 0.41022
 C476 C 0.43293 0.73799 0.38385
 C477 C 0.40841 0.72797 0.39953
 C478 C 0.43744 0.73045 0.44456
 C479 C 0.46150 0.74051 0.42799
 N480 N 0.45894 0.74351 0.39810
 H481 H 0.52439 0.81073 0.38118
 H482 H 0.52927 0.72335 0.41397
 H483 H 0.57512 0.73574 0.44179
 H484 H 0.56962 0.82472 0.40833
 H485 H 0.43148 0.74086 0.36012
 H486 H 0.38799 0.72300 0.38787
 H487 H 0.43972 0.72746 0.46824
 H488 H 0.48221 0.74551 0.43895
 C489 C 0.45586 0.83768 0.32287
 C490 C 0.52408 0.67536 0.31865
 C491 C 0.41076 0.72389 0.43010
 C492 C 0.57555 0.78127 0.42724
 C493 C 0.36204 0.00282 0.24904
 C494 C 0.12207 1.00701 0.75090
 C495 C 0.62182 0.50825 0.24911
 C496 C 0.86103 0.50255 0.75000
 C497 C 0.24911 0.36017 0.00314
 C498 C 0.75078 0.12171 1.00700
 C499 C 0.24986 0.62263 0.50749
 C500 C 0.74912 0.86197 0.50297
 C501 C 0.00300 0.24917 0.36139
 C502 C 1.00749 0.75022 0.12149
 C503 C 0.50760 0.24997 0.62183
 C504 C 0.50302 0.74939 0.86148
 C505 C 0.44476 -0.13802 0.30905
 C506 C 0.43432 -0.11623 0.29789
 C507 C 0.42125 -0.09056 0.28601
 C508 C 0.40927 -0.06872 0.27669
 C509 C 0.39418 -0.04340 0.26659
 C510 C 0.38029 -0.02220 0.25846
 C511 C 0.94371 0.36169 0.80998
 C512 C 0.93330 0.38353 0.79889
 C513 C 0.92025 0.40923 0.78705
 C514 C 0.90829 0.43109 0.77775
 C515 C 0.89321 0.45640 0.76763
 C516 C 0.87931 0.47758 0.75947
 C517 C 0.03687 1.14819 0.80691
 C518 C 0.04810 1.12631 0.79671
 C519 C 0.06179 1.10051 0.78580
 C520 C 0.07411 1.07856 0.77719
 C521 C 0.08946 1.05315 0.76773
 C522 C 0.10355 1.03192 0.76001
 C523 C 0.53694 0.64959 0.30517
 C524 C 0.54805 0.62765 0.29496
 C525 C 0.56162 0.60180 0.28404
 C526 C 0.57386 0.57980 0.27541
 C527 C 0.58916 0.55436 0.26594
 C528 C 0.60325 0.53313 0.25821
 C529 C 0.54392 0.36124 0.19579
 C530 C 0.55311 0.38418 0.20600
 C531 C 0.56488 0.41119 0.21663
 C532 C 0.57592 0.43412 0.22483
 C533 C 0.59018 0.46057 0.23364
 C534 C 0.60366 0.48257 0.24075
 C535 C 0.04332 0.86055 0.69732
 C536 C 0.05269 0.88337 0.70764
 C537 C 0.06464 0.91025 0.71838
 C538 C 0.07584 0.93309 0.72663
 C539 C 0.09026 0.95944 0.73548
 C540 C 0.10384 0.98138 0.74258
 C541 C 0.94941 0.64475 0.70031
 C542 C 0.93734 0.62290 0.70969
 C543 C 0.92281 0.59707 0.71954
 C544 C 0.90991 0.57502 0.72717
 C545 C 0.89405 0.54941 0.73544
 C546 C 0.87969 0.52792 0.74213
 C547 C 0.45069 0.14496 0.19965
 C548 C 0.43858 0.12311 0.20898
 C549 C 0.42400 0.09728 0.21876
 C550 C 0.41105 0.07524 0.22634
 C551 C 0.39514 0.04964 0.23455
 C552 C 0.38073 0.02817 0.24120
 C553 C 0.30894 0.44375 -0.13745
 C554 C 0.29783 0.43313 -0.11571
 C555 C 0.28598 0.41984 -0.09012
 C556 C 0.27668 0.40770 -0.06832
 C557 C 0.26659 0.39246 -0.04307
 C558 C 0.25848 0.37847 -0.02189
 C559 C 0.80861 0.94479 0.36181
 C560 C 0.79759 0.93436 0.38369
 C561 C 0.78586 0.92129 0.40945
 C562 C 0.77666 0.90930 0.43137
 C563 C 0.76665 0.89419 0.45674
 C564 C 0.75855 0.88027 0.47797
 C565 C 0.80666 0.03691 1.14884
 C566 C 0.79646 0.04803 1.12684
 C567 C 0.78557 0.06160 1.10091
 C568 C 0.77698 0.07384 1.07884
 C569 C 0.76756 0.08912 1.05331
 C570 C 0.75986 0.10318 1.03199
 C571 C 0.30604 0.53745 0.64896
 C572 C 0.29583 0.54865 0.62703
 C573 C 0.28491 0.56233 0.60117
 C574 C 0.27627 0.57465 0.57917
 C575 C 0.26678 0.59001 0.55371
 C576 C 0.25903 0.60411 0.53245
 C577 C 0.19658 0.54378 0.36084
 C578 C 0.20683 0.55316 0.38372
 C579 C 0.21747 0.56514 0.41065
 C580 C 0.22566 0.57636 0.43352
 C581 C 0.23445 0.59080 0.45990
 C582 C 0.24153 0.60440 0.48185
 C583 C 0.69655 0.04333 0.86043
 C584 C 0.70697 0.05261 0.88328
 C585 C 0.71782 0.06448 0.91019
 C586 C 0.72617 0.07561 0.93304
 C587 C 0.73514 0.08996 0.95942
 C588 C 0.74235 0.10350 0.98137
 C589 C 0.70026 0.95034 0.64546
 C590 C 0.70947 0.93825 0.62355
 C591 C 0.71910 0.92371 0.59765
 C592 C 0.72658 0.91081 0.57555
 C593 C 0.73468 0.89495 0.54988
 C594 C 0.74128 0.88060 0.52836
 C595 C 0.19993 0.44924 0.14507
 C596 C 0.20923 0.43701 0.12328
 C597 C 0.21896 0.42229 0.09752
 C598 C 0.22651 0.40925 0.07552
 C599 C 0.23467 0.39326 0.04996
 C600 C 0.24129 0.37883 0.02850
 C601 C -0.13752 0.30939 0.44425
 C602 C -0.11574 0.29825 0.43383
 C603 C -0.09010 0.28635 0.42077
 C604 C -0.06830 0.27700 0.40879
 C605 C -0.04304 0.26683 0.39367
 C606 C -0.02191 0.25864 0.37973
 C607 C 0.36223 0.80973 0.94380
 C608 C 0.38403 0.79859 0.93345
 C609 C 0.40971 0.78669 0.92047
 C610 C 0.43156 0.77733 0.90856
 C611 C 0.45686 0.76714 0.89355
 C612 C 0.47804 0.75892 0.87970
 C613 C 1.14870 0.80682 0.03652
 C614 C 1.12678 0.79653 0.04763
 C615 C 1.10095 0.78551 0.06121
 C616 C 1.07897 0.77679 0.07346
 C617 C 1.05355 0.76722 0.08877
 C618 C 1.03234 0.75941 0.10288
 C619 C 0.64882 0.30640 0.53676
 C620 C 0.62689 0.29613 0.54788
 C621 C 0.60106 0.28514 0.56148
 C622 C 0.57908 0.27645 0.57375
 C623 C 0.55367 0.26691 0.58910
 C624 C 0.53246 0.25913 0.60322
 C625 C 0.36093 0.19604 0.54356
 C626 C 0.38380 0.20638 0.55283
 C627 C 0.41072 0.21714 0.56468
 C628 C 0.43359 0.22544 0.57579
 C629 C 0.45998 0.23435 0.59012
 C630 C 0.48195 0.24154 0.60365
 C631 C 0.86061 0.69610 0.04384
 C632 C 0.88352 0.70646 0.05296
 C633 C 0.91050 0.71727 0.06464
 C634 C 0.93341 0.72562 0.07564
 C635 C 0.95984 0.73458 0.08986
 C636 C 0.98183 0.74179 0.10333
 C637 C 0.64475 0.69923 0.95036
 C638 C 0.62296 0.70865 0.93823
 C639 C 0.59719 0.71855 0.92362
 C640 C 0.57521 0.72625 0.91065
 C641 C 0.54968 0.73461 0.89470
 C642 C 0.52827 0.74139 0.88024
 C643 C 0.14509 0.19900 0.44973
 C644 C 0.12326 0.20841 0.43765
 C645 C 0.09744 0.21829 0.42312
 C646 C 0.07540 0.22599 0.41023
 C647 C 0.04981 0.23435 0.39438
 C648 C 0.02834 0.24114 0.38003
 C649 C 0.56703 0.10938 0.70537
 C650 C 0.55586 0.13096 0.69457
 C651 C 0.54394 0.15638 0.68109
 C652 C 0.53464 0.17806 0.66883
 C653 C 0.52462 0.20328 0.65356
 C654 C 0.51666 0.22457 0.63971
 C655 C 1.06678 0.60921 0.20440
 C656 C 1.05565 0.63088 0.19372
 C657 C 1.04378 0.65639 0.18039
 C658 C 1.03451 0.67815 0.16825
 C659 C 1.02452 0.70346 0.15311
 C660 C 1.01657 0.72480 0.13933
 C661 C 0.94623 0.88661 0.21023
 C662 C 0.95832 0.86571 0.19907
 C663 C 0.97110 0.84107 0.18494
 C664 C 0.98092 0.82002 0.17194
 C665 C 0.99121 0.79553 0.15564
 C666 C 0.99905 0.77486 0.14075
 C667 C 0.44652 0.38630 0.71083
 C668 C 0.45857 0.36542 0.69957
 C669 C 0.47130 0.34081 0.68535
 C670 C 0.48108 0.31978 0.67230
 C671 C 0.49134 0.29531 0.65595
 C672 C 0.49916 0.27463 0.64106
 C673 C 0.44229 0.60300 0.78861
 C674 C 0.45353 0.62597 0.79638
 C675 C 0.46571 0.65279 0.80696
 C676 C 0.47532 0.67548 0.81730
 C677 C 0.48571 0.70166 0.83095
 C678 C 0.49389 0.72355 0.84397
 C679 C -0.05805 0.10327 0.28775
 C680 C -0.04675 0.12617 0.29565
 C681 C -0.03451 0.15289 0.30641
 C682 C -0.02484 0.17549 0.31690
 C683 C -0.01441 0.20157 0.33071
 C684 C -0.00619 0.22339 0.34383
 C685 C 0.06209 0.39148 0.28186
 C686 C 0.05079 0.36875 0.28996
 C687 C 0.03878 0.34232 0.30135
 C688 C 0.02945 0.32010 0.31267
 C689 C 0.01951 0.29469 0.32773
 C690 C 0.01172 0.27366 0.34211
 C691 C 0.56276 0.89161 0.78231
 C692 C 0.55139 0.86888 0.79032
 C693 C 0.53926 0.84245 0.80160
 C694 C 0.52982 0.82023 0.81284
 C695 C 0.51974 0.79484 0.82783
 C696 C 0.51184 0.77383 0.84218
 C697 C 0.70498 0.56760 0.10815
 C698 C 0.69423 0.55640 0.12978
 C699 C 0.68081 0.54448 0.15525
 C700 C 0.66861 0.53519 0.17699
 C701 C 0.65342 0.52519 0.20229
 C702 C 0.63963 0.51727 0.22364
 C703 C 0.20493 1.06578 0.60953
 C704 C 0.19423 1.05470 0.63123
 C705 C 0.18088 1.04291 0.65680
 C706 C 0.16874 1.03371 0.67861
 C707 C 0.15360 1.02383 0.70399
 C708 C 0.13985 1.01597 0.72539
 C709 C 0.21120 0.94571 0.88739
 C710 C 0.19994 0.95785 0.86650
 C711 C 0.18571 0.97067 0.84187
 C712 C 0.17264 0.98049 0.82082
 C713 C 0.15627 0.99077 0.79631
 C714 C 0.14135 0.99859 0.77560
 C715 C 0.71083 0.44716 0.38577
 C716 C 0.69959 0.45922 0.36484
 C717 C 0.68537 0.47198 0.34017
 C718 C 0.67232 0.48178 0.31909
 C719 C 0.65597 0.49203 0.29456
 C720 C 0.64107 0.49985 0.27384
 C721 C 0.78829 0.44245 0.60309
 C722 C 0.79605 0.45359 0.62613
 C723 C 0.80663 0.46565 0.65304
 C724 C 0.81696 0.47516 0.67581
 C725 C 0.83060 0.48542 0.70208
 C726 C 0.84358 0.49352 0.72405
 C727 C 0.28859 -0.05696 0.10233
 C728 C 0.29649 -0.04584 0.12534
 C729 C 0.30723 -0.03382 0.15221
 C730 C 0.31769 -0.02437 0.17494
 C731 C 0.33146 -0.01417 0.20117
 C732 C 0.34453 -0.00615 0.22311
 C733 C 0.28231 0.06141 0.39142
 C734 C 0.29047 0.05017 0.36868
 C735 C 0.30192 0.03824 0.34223
 C736 C 0.31327 0.02898 0.32001
 C737 C 0.32837 0.01913 0.29459
 C738 C 0.34276 0.01142 0.27355
 C739 C 0.78142 0.56121 0.89238
 C740 C 0.78951 0.54995 0.86962
 C741 C 0.80090 0.53800 0.84316
 C742 C 0.81223 0.52873 0.82092
 C743 C 0.82731 0.51887 0.79550
 C744 C 0.84171 0.51116 0.77447
 C745 C 0.10873 0.70506 0.56670
 C746 C 0.13038 0.69445 0.55552
 C747 C 0.15590 0.68120 0.54363
 C748 C 0.17767 0.66913 0.53435
 C749 C 0.20300 0.65408 0.52437
 C750 C 0.22438 0.64037 0.51647
 C751 C 0.60997 0.20481 1.06604
 C752 C 0.63160 0.19411 1.05491
 C753 C 0.65708 0.18074 1.04305
 C754 C 0.67881 0.16858 1.03380
 C755 C 0.70408 0.15340 1.02386
 C756 C 0.72539 0.13959 1.01597
 C757 C 0.88740 0.21030 0.94556
 C758 C 0.86649 0.19910 0.95769
 C759 C 0.84184 0.18496 0.97050
 C760 C 0.82077 0.17198 0.98034
 C761 C 0.79623 0.15572 0.99065
 C762 C 0.77551 0.14089 0.99852
 C763 C 0.38615 0.71159 0.44600
 C764 C 0.36526 0.70039 0.45811
 C765 C 0.34064 0.68622 0.47095
 C766 C 0.31961 0.67319 0.48081
 C767 C 0.29514 0.65685 0.49115
 C768 C 0.27449 0.64193 0.49902
 C769 C 0.60283 0.78907 0.44185
 C770 C 0.62575 0.79687 0.45321
 C771 C 0.65250 0.80750 0.46552
 C772 C 0.67516 0.81786 0.47523
 C773 C 0.70131 0.83153 0.48568
 C774 C 0.72322 0.84453 0.49388
 C775 C 0.10227 0.28729 -0.05668
 C776 C 0.12532 0.29506 -0.04556
 C777 C 0.15222 0.30565 -0.03356
 C778 C 0.17499 0.31601 -0.02410
 C779 C 0.20125 0.32967 -0.01390
 C780 C 0.22320 0.34268 -0.00586
 C781 C 0.39183 0.28122 0.06177
 C782 C 0.36900 0.28918 0.05055
 C783 C 0.34247 0.30042 0.03862
 C784 C 0.32017 0.31162 0.02936
 C785 C 0.29468 0.32658 0.01950
 C786 C 0.27361 0.34090 0.01177
 C787 C 0.89107 0.78213 0.56230
 C788 C 0.86840 0.79029 0.55093
 C789 C 0.84204 0.80174 0.53882
 C790 C 0.81988 0.81311 0.52943
 C791 C 0.79453 0.82822 0.51944
 C792 C 0.77356 0.84264 0.51164
   
