data_POSCAR
  _audit_creation_date              2014-09-24
  _audit_creation_method            'ToBaCCo'
  _symmetry_space_group_name_H-M    'P1'
  _symmetry_Int_Tables_number       1
  _symmetry_cell_setting            triclinic
  loop_
  _symmetry_equiv_pos_as_xyz
 x,y,z
_cell_length_a 42.4398
_cell_length_b 34.9671
_cell_length_c 41.3795
_cell_angle_alpha 90.047200
_cell_angle_beta 89.815400
_cell_angle_gamma 90.880400
loop_
  _atom_site_label
  _atom_site_type_symbol
  _atom_site_fract_x
  _atom_site_fract_y
  _atom_site_fract_z
C1 C 0.25748 0.26237 0.25161
 C2 C 0.25440 0.22341 0.25193
 C3 C 0.22873 0.20383 0.23348
 C4 C 0.27669 0.19950 0.27050
 C5 C 0.27683 0.28307 0.27611
 C6 C 0.24175 0.28526 0.22633
 C7 C 0.19780 0.21708 0.23540
 C8 C 0.17428 0.20184 0.21559
 C9 C 0.18049 0.17153 0.19387
 C10 C 0.21142 0.15658 0.19399
 C11 C 0.23515 0.17277 0.21329
 C12 C 0.26550 0.17084 0.29155
 C13 C 0.28644 0.15147 0.31160
 C14 C 0.31873 0.16076 0.31091
 C15 C 0.33007 0.18786 0.28863
 C16 C 0.30931 0.20659 0.26823
 C17 C 0.29973 0.31008 0.26644
 C18 C 0.31959 0.32730 0.28929
 C19 C 0.31675 0.31797 0.32225
 C20 C 0.29310 0.29185 0.33196
 C21 C 0.27319 0.27480 0.30915
 C22 C 0.24689 0.27696 0.19358
 C23 C 0.22898 0.29448 0.16976
 C24 C 0.20546 0.32060 0.17820
 C25 C 0.20161 0.33046 0.21097
 C26 C 0.21981 0.31313 0.23482
 H27 H 0.19189 0.23983 0.25201
 H28 H 0.15088 0.21308 0.21876
 H29 H 0.21845 0.13424 0.17754
 H30 H 0.25886 0.16191 0.21154
 H31 H 0.24048 0.16463 0.29343
 H32 H 0.27732 0.13055 0.32865
 H33 H 0.31859 0.22773 0.25146
 H34 H 0.30291 0.31690 0.24110
 H35 H 0.33773 0.34714 0.28106
 H36 H 0.28993 0.28469 0.35723
 H37 H 0.25522 0.25462 0.31721
 H38 H 0.26410 0.25592 0.18658
 H39 H 0.23315 0.28701 0.14473
 H40 H 0.18358 0.35026 0.21834
 H41 H 0.21557 0.31987 0.26000
 H42 H 0.35498 0.19504 0.28750
 C43 C 0.74149 0.24192 0.24911
 C44 C 0.74016 0.28078 0.24621
 C45 C 0.76274 0.30284 0.22571
 C46 C 0.71623 0.30394 0.26343
 C47 C 0.71776 0.21988 0.26838
 C48 C 0.76688 0.21964 0.23327
 C49 C 0.78052 0.33268 0.23958
 C50 C 0.80090 0.35494 0.22064
 C51 C 0.80372 0.34806 0.18729
 C52 C 0.78599 0.31797 0.17341
 C53 C 0.76555 0.29564 0.19245
 C54 C 0.71246 0.30179 0.29711
 C55 C 0.69037 0.32460 0.31282
 C56 C 0.67205 0.35054 0.29524
 C57 C 0.67627 0.35293 0.26159
 C58 C 0.69809 0.32989 0.24590
 C59 C 0.68529 0.22436 0.26337
 C60 C 0.66338 0.20580 0.28346
 C61 C 0.67353 0.18162 0.30832
 C62 C 0.70594 0.17565 0.31223
 C63 C 0.72785 0.19466 0.29247
 C64 C 0.75898 0.18840 0.21337
 C65 C 0.78242 0.16891 0.19652
 C66 C 0.81414 0.18045 0.19919
 C67 C 0.82217 0.21059 0.22022
 C68 C 0.79881 0.22964 0.23747
 H69 H 0.77864 0.33868 0.26520
 H70 H 0.81460 0.37745 0.23215
 H71 H 0.78737 0.31228 0.14772
 H72 H 0.75160 0.27313 0.18122
 H73 H 0.72667 0.28255 0.31122
 H74 H 0.68751 0.32172 0.33871
 H75 H 0.70089 0.33235 0.21995
 H76 H 0.67693 0.24283 0.24434
 H77 H 0.63849 0.21036 0.27963
 H78 H 0.71435 0.15723 0.33128
 H79 H 0.75276 0.19056 0.29659
 H80 H 0.73455 0.17992 0.21007
 H81 H 0.77565 0.14583 0.18038
 H82 H 0.84654 0.21963 0.22301
 H83 H 0.80557 0.25280 0.25352
 H84 H 0.66304 0.37308 0.24738
 C85 C 0.75735 0.76402 0.74754
 C86 C 0.75964 0.72555 0.75265
 C87 C 0.73847 0.69795 0.73556
 C88 C 0.78288 0.70947 0.77570
 C89 C 0.77337 0.79237 0.76889
 C90 C 0.73777 0.77940 0.72095
 C91 C 0.70568 0.70278 0.73604
 C92 C 0.68608 0.67905 0.71761
 C93 C 0.69880 0.64939 0.69905
 C94 C 0.73137 0.64302 0.70011
 C95 C 0.75109 0.66721 0.71820
 C96 C 0.77345 0.68087 0.79768
 C97 C 0.79493 0.66614 0.81979
 C98 C 0.82611 0.68004 0.82052
 C99 C 0.83576 0.70805 0.79818
 C100 C 0.81449 0.72215 0.77560
 C101 C 0.79322 0.82065 0.75568
 C102 C 0.80971 0.84610 0.77576
 C103 C 0.80663 0.84412 0.80980
 C104 C 0.78524 0.81653 0.82257
 C105 C 0.76891 0.79114 0.80241
 C106 C 0.74198 0.76694 0.68897
 C107 C 0.72197 0.77939 0.66452
 C108 C 0.69756 0.80488 0.67152
 C109 C 0.69405 0.81820 0.70340
 C110 C 0.71406 0.80571 0.72783
 H111 H 0.69536 0.72560 0.75005
 H112 H 0.66096 0.68409 0.71755
 H113 H 0.74166 0.62031 0.68595
 H114 H 0.77629 0.66275 0.71782
 H115 H 0.74931 0.67036 0.79807
 H116 H 0.78704 0.64451 0.83684
 H117 H 0.82268 0.74317 0.75819
 H118 H 0.79684 0.82215 0.72978
 H119 H 0.82614 0.86573 0.76425
 H120 H 0.78021 0.81480 0.84815
 H121 H 0.75284 0.77027 0.81301
 H122 H 0.76050 0.74712 0.68307
 H123 H 0.72563 0.76917 0.64011
 H124 H 0.67529 0.83751 0.70966
 H125 H 0.71041 0.81563 0.75234
 H126 H 0.85986 0.71872 0.79803
 C127 C 0.24470 0.74486 0.74471
 C128 C 0.23965 0.78292 0.74932
 C129 C 0.26056 0.81166 0.73351
 C130 C 0.21444 0.79712 0.77119
 C131 C 0.22933 0.71519 0.76537
 C132 C 0.26625 0.73135 0.71885
 C133 C 0.29258 0.81379 0.74177
 C134 C 0.31318 0.83780 0.72460
 C135 C 0.30209 0.85950 0.69867
 C136 C 0.26991 0.85824 0.69097
 C137 C 0.24912 0.83488 0.70868
 C138 C 0.22116 0.82608 0.79367
 C139 C 0.19829 0.83765 0.81584
 C140 C 0.16802 0.82020 0.81642
 C141 C 0.16120 0.79201 0.79289
 C142 C 0.18388 0.78124 0.77027
 C143 C 0.21308 0.68437 0.75119
 C144 C 0.19701 0.65757 0.77038
 C145 C 0.19671 0.66089 0.80446
 C146 C 0.21439 0.69125 0.81841
 C147 C 0.23063 0.71774 0.79914
 C148 C 0.26193 0.74263 0.68661
 C149 C 0.28245 0.73031 0.66243
 C150 C 0.30727 0.70579 0.66994
 C151 C 0.31121 0.69395 0.70213
 C152 C 0.29085 0.70661 0.72636
 H153 H 0.30169 0.79605 0.76093
 H154 H 0.33800 0.83831 0.73067
 H155 H 0.26107 0.87477 0.67092
 H156 H 0.22447 0.83343 0.70203
 H157 H 0.24452 0.83891 0.79485
 H158 H 0.20525 0.85873 0.83369
 H159 H 0.17767 0.75992 0.75229
 H160 H 0.21191 0.68179 0.72513
 H161 H 0.18338 0.63569 0.75804
 H162 H 0.21660 0.69427 0.84432
 H163 H 0.24399 0.74062 0.81060
 H164 H 0.24252 0.76081 0.68014
 H165 H 0.27855 0.73932 0.63775
 H166 H 0.33028 0.67524 0.70860
 H167 H 0.29449 0.69743 0.75104
 H168 H 0.13800 0.77894 0.79109
 O169 O 1.02129 -0.06451 0.00478
 O170 O 0.96475 -0.02901 0.06594
 O171 O 0.96063 -0.06969 0.01325
 O172 O 1.02613 -0.02768 0.05901
 O173 O 1.02060 0.02721 0.03342
 O174 O 0.95700 -0.01705 -0.01575
 O175 O 0.95985 0.02395 0.03755
 O176 O 1.01822 -0.00931 -0.02085
 Cu177 Cu 0.99352 -0.05309 0.03851
 Cu178 Cu 0.98824 0.01152 0.00577
 C179 C 1.02987 -0.04231 -0.01807
 C180 C 0.95282 0.00384 0.06209
 C181 C 0.94795 -0.05113 -0.00943
 C182 C 1.03456 0.00681 0.05423
 O183 O 0.47024 0.53143 0.45039
 O184 O 0.52712 0.57837 0.50393
 O185 O 0.53137 0.53526 0.45232
 O186 O 0.46647 0.57014 0.50409
 O187 O 0.46852 0.51676 0.53232
 O188 O 0.53459 0.48395 0.48323
 O189 O 0.52935 0.52657 0.53422
 O190 O 0.47323 0.47810 0.47854
 Cu191 Cu 0.49859 0.55899 0.47469
 Cu192 Cu 0.50162 0.49603 0.50995
 C193 C 0.46202 0.49685 0.45495
 C194 C 0.53760 0.56106 0.52848
 C195 C 0.54412 0.50368 0.45939
 C196 C 0.45652 0.54919 0.52722
 O197 O -0.02414 0.53917 -0.00993
 O198 O 0.03583 0.50680 0.04745
 O199 O 0.03562 0.55191 -0.00242
 O200 O -0.02417 0.49268 0.03952
 O201 O -0.01298 0.44387 0.00793
 O202 O 0.04566 0.50365 -0.03504
 O203 O 0.04669 0.45840 0.01527
 O204 O -0.01448 0.48974 -0.04147
 Cu205 Cu 0.00466 0.52744 0.02192
 Cu206 Cu 0.01736 0.46907 -0.01656
 C207 C -0.02951 0.52011 -0.03551
 C208 C 0.05155 0.47707 0.04119
 C209 C 0.05063 0.53802 -0.02618
 C210 C -0.02865 0.45805 0.03109
 O211 O 0.46950 1.01475 0.47418
 O212 O 0.52994 0.98327 0.53084
 O213 O 0.53002 1.02054 0.47616
 O214 O 0.46871 0.97608 0.52792
 O215 O 0.47237 0.92260 0.49991
 O216 O 0.53531 0.96586 0.45015
 O217 O 0.53367 0.92848 0.50478
 O218 O 0.47402 0.96119 0.44640
 Cu219 Cu 0.49916 1.00398 0.50512
 Cu220 Cu 0.50436 0.93906 0.47267
 C221 C 0.46163 0.99376 0.45041
 C222 C 0.54211 0.95054 0.52773
 C223 C 0.54300 1.00077 0.45419
 C224 C 0.45971 0.94186 0.52235
 C225 C 1.15854 0.11982 0.16112
 C226 C 1.13459 0.10541 0.14095
 C227 C 1.10952 0.12910 0.13182
 C228 C 1.10850 0.16657 0.14344
 C229 C 1.13184 0.18047 0.16421
 C230 C 1.15757 0.15757 0.17360
 C231 C 1.08561 0.11484 0.11158
 C232 C 1.08590 0.07665 0.10123
 C233 C 1.11060 0.05260 0.11105
 C234 C 1.13500 0.06727 0.13041
 C235 C 1.11021 0.01405 0.10178
 C236 C 1.08538 -0.00069 0.08331
 C237 C 1.06093 0.02304 0.07313
 C238 C 1.06149 0.06186 0.08183
 H239 H 1.17666 0.10030 0.16857
 H240 H 1.08954 0.18525 0.13650
 H241 H 1.13022 0.21016 0.17125
 H242 H 1.06647 0.13320 0.10444
 H243 H 1.15401 0.04881 0.13774
 H244 H 1.12886 -0.00482 0.10918
 H245 H 1.08539 -0.03068 0.07674
 H246 H 1.04247 0.08018 0.07435
 C247 C 0.65788 0.64569 0.65616
 C248 C 0.63826 0.62490 0.63517
 C249 C 0.63854 0.58446 0.63552
 C250 C 0.65901 0.56560 0.65656
 C251 C 0.67889 0.58663 0.67711
 C252 C 0.67821 0.62676 0.67726
 C253 C 0.61847 0.56368 0.61478
 C254 C 0.59853 0.58290 0.59339
 C255 C 0.59888 0.62337 0.59273
 C256 C 0.61853 0.64406 0.61374
 C257 C 0.57960 0.64265 0.57097
 C258 C 0.56003 0.62213 0.55002
 C259 C 0.55904 0.58193 0.55064
 C260 C 0.57834 0.56240 0.57251
 H261 H 0.65769 0.67671 0.65581
 H262 H 0.65969 0.53465 0.65709
 H263 H 0.69446 0.57159 0.69323
 H264 H 0.61849 0.53266 0.61517
 H265 H 0.61856 0.67509 0.61331
 H266 H 0.57966 0.67362 0.57011
 H267 H 0.54530 0.63787 0.53353
 H268 H 0.57790 0.53140 0.57302
 C269 C -0.15626 0.35667 0.14285
 C270 C -0.13555 0.37989 0.12467
 C271 C -0.13375 0.41966 0.13086
 C272 C -0.15295 0.43558 0.15477
 C273 C -0.17345 0.41232 0.17273
 C274 C -0.17516 0.37264 0.16721
 C275 C -0.11265 0.44286 0.11324
 C276 C -0.09324 0.42683 0.08950
 C277 C -0.09527 0.38716 0.08301
 C278 C -0.11640 0.36393 0.10063
 C279 C -0.07595 0.37133 0.05912
 C280 C -0.05458 0.39448 0.04204
 C281 C -0.05204 0.43389 0.04857
 C282 C -0.07164 0.44988 0.07230
 H283 H -0.15713 0.32609 0.13855
 H284 H -0.15202 0.46602 0.15969
 H285 H -0.18816 0.42546 0.19092
 H286 H -0.11117 0.47331 0.11817
 H287 H -0.11779 0.33346 0.09578
 H288 H -0.07722 0.34101 0.05377
 H289 H -0.03978 0.38139 0.02390
 H290 H -0.07004 0.48023 0.07752
 C291 C 0.33090 0.86800 0.64679
 C292 C 0.35417 0.88617 0.62789
 C293 C 0.37074 0.91837 0.64029
 C294 C 0.36392 0.93154 0.67157
 C295 C 0.34125 0.91262 0.69053
 C296 C 0.32461 0.88092 0.67820
 C297 C 0.39420 0.93640 0.62149
 C298 C 0.40183 0.92208 0.59078
 C299 C 0.38555 0.88951 0.57868
 C300 C 0.36160 0.87206 0.59713
 C301 C 0.39373 0.87461 0.54842
 C302 C 0.41795 0.89161 0.53032
 C303 C 0.43415 0.92417 0.54190
 C304 C 0.42580 0.93944 0.57214
 H305 H 0.31833 0.84307 0.63755
 H306 H 0.37648 0.95602 0.68154
 H307 H 0.33672 0.92259 0.71487
 H308 H 0.40685 0.96115 0.63095
 H309 H 0.34911 0.84713 0.58778
 H310 H 0.38156 0.84963 0.53883
 H311 H 0.42382 0.87941 0.50704
 H312 H 0.43830 0.96438 0.58140
 C313 C -0.14663 0.62629 -0.15187
 C314 C -0.12509 0.61273 -0.12905
 C315 C -0.10887 0.63897 -0.10877
 C316 C -0.11401 0.67828 -0.11209
 C317 C -0.13497 0.69155 -0.13533
 C318 C -0.15153 0.66572 -0.15521
 C319 C -0.08760 0.62554 -0.08569
 C320 C -0.08174 0.58630 -0.08314
 C321 C -0.09738 0.56013 -0.10391
 C322 C -0.11924 0.57346 -0.12647
 C323 C -0.09061 0.52106 -0.10197
 C324 C -0.06843 0.50804 -0.07980
 C325 C -0.05315 0.53375 -0.05875
 C326 C -0.06009 0.57286 -0.06042
 H327 H -0.15917 0.60633 -0.16744
 H328 H -0.10171 0.69878 -0.09684
 H329 H -0.13860 0.72203 -0.13754
 H330 H -0.07534 0.64566 -0.07001
 H331 H -0.13140 0.55336 -0.14225
 H332 H -0.10225 0.50061 -0.11779
 H333 H -0.06343 0.47778 -0.07890
 H334 H -0.04808 0.59296 -0.04454
 C335 C 0.34450 1.10488 0.33729
 C336 C 0.36613 1.09007 0.35950
 C337 C 0.38309 1.11537 0.38003
 C338 C 0.37853 1.15486 0.37776
 C339 C 0.35756 1.16933 0.35516
 C340 C 0.34042 1.14455 0.33486
 C341 C 0.40461 1.10091 0.40230
 C342 C 0.40998 1.06154 0.40394
 C343 C 0.39356 1.03617 0.38313
 C344 C 0.37146 1.05057 0.36123
 C345 C 0.39978 0.99689 0.38445
 C346 C 0.42208 0.98294 0.40615
 C347 C 0.43815 1.00797 0.42719
 C348 C 0.43186 1.04727 0.42594
 H349 H 0.33140 1.08579 0.32142
 H350 H 0.39138 1.17459 0.39325
 H351 H 0.35450 1.19998 0.35362
 H352 H 0.41745 1.12035 0.41811
 H353 H 0.35873 1.03114 0.34533
 H354 H 0.38753 0.97699 0.36861
 H355 H 0.42654 0.95253 0.40670
 H356 H 0.44437 1.06693 0.44181
 C357 C 1.14506 -0.13252 -0.14647
 C358 C 1.12279 -0.12250 -0.12293
 C359 C 1.10069 -0.15006 -0.11170
 C360 C 1.10079 -0.18696 -0.12483
 C361 C 1.12254 -0.19655 -0.14882
 C362 C 1.14534 -0.16967 -0.15990
 C363 C 1.07870 -0.14018 -0.08778
 C364 C 1.07798 -0.10271 -0.07564
 C365 C 1.09959 -0.07489 -0.08763
 C366 C 1.12208 -0.08508 -0.11082
 C367 C 1.09813 -0.03712 -0.07652
 C368 C 1.07530 -0.02682 -0.05397
 C369 C 1.05402 -0.05424 -0.04151
 C370 C 1.05565 -0.09232 -0.05215
 H371 H 1.16121 -0.11058 -0.15525
 H372 H 1.08403 -0.20851 -0.11652
 H373 H 1.12223 -0.22575 -0.15748
 H374 H 1.06190 -0.16146 -0.07899
 H375 H 1.13877 -0.06374 -0.11974
 H376 H 1.11441 -0.01544 -0.08554
 H377 H 1.07446 0.00265 -0.04595
 H378 H 1.03901 -0.11347 -0.04287
 C379 C 0.65548 0.39106 0.34238
 C380 C 0.63338 0.41395 0.35827
 C381 C 0.60428 0.42171 0.34327
 C382 C 0.59777 0.40635 0.31269
 C383 C 0.61971 0.38318 0.29723
 C384 C 0.64878 0.37523 0.31185
 C385 C 0.58194 0.44408 0.35931
 C386 C 0.58796 0.45788 0.39057
 C387 C 0.61705 0.44992 0.40562
 C388 C 0.63975 0.42857 0.38917
 C389 C 0.62252 0.46232 0.43737
 C390 C 0.59896 0.48110 0.45450
 C391 C 0.57006 0.48893 0.43979
 C392 C 0.56485 0.47809 0.40760
 H393 H 0.67794 0.38572 0.35377
 H394 H 0.57553 0.41180 0.30090
 H395 H 0.61367 0.37097 0.27397
 H396 H 0.55956 0.44987 0.34784
 H397 H 0.66198 0.42240 0.40079
 H398 H 0.64458 0.45632 0.44932
 H399 H 0.60304 0.48900 0.47948
 H400 H 0.54220 0.48344 0.39655
 C401 C 0.83211 -0.14322 -0.13760
 C402 C 0.85146 -0.12065 -0.11759
 C403 C 0.86420 -0.08573 -0.12915
 C404 C 0.85683 -0.07368 -0.16043
 C405 C 0.83759 -0.09633 -0.18034
 C406 C 0.82502 -0.13181 -0.16953
 C407 C 0.88449 -0.06381 -0.10945
 C408 C 0.89250 -0.07676 -0.07846
 C409 C 0.87934 -0.11158 -0.06687
 C410 C 0.85883 -0.13313 -0.08639
 C411 C 0.88742 -0.12482 -0.03615
 C412 C 0.90909 -0.10446 -0.01736
 C413 C 0.92296 -0.07023 -0.02874
 C414 C 0.91406 -0.05609 -0.05915
 H415 H 0.82424 -0.17075 -0.12849
 H416 H 0.86608 -0.04674 -0.16962
 H417 H 0.83204 -0.08509 -0.20394
 H418 H 0.89451 -0.03714 -0.11846
 H419 H 0.84905 -0.15998 -0.07749
 H420 H 0.87745 -0.15136 -0.02688
 H421 H 0.91532 -0.11589 0.00605
 H422 H 0.92468 -0.02982 -0.06824
 C423 C 0.34686 0.37419 0.34463
 C424 C 0.36764 0.39058 0.36720
 C425 C 0.38037 0.36779 0.39201
 C426 C 0.37195 0.32891 0.39382
 C427 C 0.35122 0.31278 0.37123
 C428 C 0.33852 0.33522 0.34641
 C429 C 0.40131 0.38420 0.41451
 C430 C 0.40969 0.42314 0.41243
 C431 C 0.39680 0.44581 0.38759
 C432 C 0.37588 0.42944 0.36522
 C433 C 0.40512 0.48458 0.38539
 C434 C 0.42615 0.50086 0.40742
 C435 C 0.43932 0.47878 0.43223
 C436 C 0.43085 0.43981 0.43467
 H437 H 0.33690 0.39187 0.32586
 H438 H 0.38151 0.31093 0.41260
 H439 H 0.34546 0.28256 0.37289
 H440 H 0.41112 0.36670 0.43350
 H441 H 0.36609 0.44693 0.34619
 H442 H 0.39544 0.50234 0.36652
 H443 H 0.43214 0.53093 0.40492
 H444 H 0.44084 0.42244 0.45363
 C445 C 0.16672 0.64672 -0.14564
 C446 C 0.14761 0.62210 -0.12700
 C447 C 0.14038 0.58493 -0.13837
 C448 C 0.15255 0.57294 -0.16809
 C449 C 0.17128 0.59768 -0.18672
 C450 C 0.17864 0.63518 -0.17604
 C451 C 0.12075 0.56054 -0.12009
 C452 C 0.10786 0.57312 -0.09076
 C453 C 0.11514 0.61033 -0.07934
 C454 C 0.13510 0.63449 -0.09742
 C455 C 0.10198 0.62298 -0.05021
 C456 C 0.08135 0.59926 -0.03277
 C457 C 0.07365 0.56233 -0.04401
 C458 C 0.08734 0.54931 -0.07293
 H459 H 0.17063 0.67560 -0.13695
 H460 H 0.14749 0.54438 -0.17706
 H461 H 0.18071 0.58659 -0.20909
 H462 H 0.11512 0.53204 -0.12893
 H463 H 0.14055 0.66309 -0.08869
 H464 H 0.10733 0.65140 -0.04109
 H465 H 0.07123 0.60999 -0.01055
 H466 H 0.08155 0.52095 -0.08194
 C467 C 0.65242 1.12467 0.33867
 C468 C 0.63095 1.10789 0.36054
 C469 C 0.60752 1.13055 0.37513
 C470 C 0.60562 1.16941 0.36717
 C471 C 0.62680 1.18575 0.34506
 C472 C 0.65047 1.16366 0.33080
 C473 C 0.58630 1.11402 0.39733
 C474 C 0.58779 1.07493 0.40467
 C475 C 0.61082 1.05210 0.38958
 C476 C 0.63244 1.06879 0.36788
 C477 C 0.61159 1.01280 0.39622
 C478 C 0.58959 0.99618 0.41733
 C479 C 0.56684 1.01867 0.43270
 C480 C 0.56626 1.05815 0.42647
 H481 H 0.67045 1.10739 0.32751
 H482 H 0.58778 1.18718 0.37806
 H483 H 0.62509 1.21592 0.33955
 H484 H 0.56845 1.13149 0.40864
 H485 H 0.65022 1.05130 0.35648
 H486 H 0.62899 0.99485 0.38480
 H487 H 0.59045 0.96570 0.42179
 H488 H 0.54850 1.07562 0.43789
 C489 C 0.17337 0.37365 0.15446
 C490 C 0.15227 0.38730 0.13122
 C491 C 0.14191 0.36289 0.10601
 C492 C 0.15266 0.32527 0.10455
 C493 C 0.17333 0.31179 0.12792
 C494 C 0.18401 0.33575 0.15308
 C495 C 0.12073 0.37628 0.08285
 C496 C 0.10936 0.41365 0.08479
 C497 C 0.11953 0.43804 0.11009
 C498 C 0.14110 0.42482 0.13300
 C499 C 0.10764 0.47514 0.11225
 C500 C 0.08566 0.48785 0.08976
 C501 C 0.07542 0.46386 0.06448
 C502 C 0.08763 0.42682 0.06203
 H503 H 0.18157 0.39256 0.17353
 H504 H 0.14478 0.30609 0.08554
 H505 H 0.18048 0.28224 0.12662
 H506 H 0.11282 0.35749 0.06353
 H507 H 0.14890 0.44355 0.15240
 H508 H 0.11513 0.49422 0.13149
 H509 H 0.07668 0.51654 0.09215
 H510 H 0.07976 0.40794 0.04278
 C511 C 0.66531 0.85517 0.64458
 C512 C 0.64369 0.86665 0.62106
 C513 C 0.63220 0.83987 0.59817
 C514 C 0.64264 0.80204 0.59922
 C515 C 0.66405 0.79078 0.62285
 C516 C 0.67552 0.81715 0.64583
 C517 C 0.61031 0.85128 0.57483
 C518 C 0.59961 0.88907 0.57426
 C519 C 0.61118 0.91577 0.59720
 C520 C 0.63322 0.90446 0.62032
 C521 C 0.60033 0.95337 0.59685
 C522 C 0.57802 0.96448 0.57418
 C523 C 0.56620 0.93830 0.55124
 C524 C 0.57730 0.90057 0.55132
 H525 H 0.67428 0.87592 0.66186
 H526 H 0.63402 0.78106 0.58196
 H527 H 0.67118 0.76118 0.62354
 H528 H 0.60145 0.83071 0.55731
 H529 H 0.64201 0.92499 0.63791
 H530 H 0.60896 0.97418 0.61425
 H531 H 0.57001 0.99373 0.57465
 H532 H 0.56833 0.88006 0.53384
 C533 C 0.84073 0.12292 0.17572
 C534 C 0.86309 0.10668 0.15486
 C535 C 0.88299 0.13086 0.13615
 C536 C 0.88086 0.17064 0.13923
 C537 C 0.85893 0.18649 0.16031
 C538 C 0.83848 0.16290 0.17846
 C539 C 0.90456 0.11497 0.11445
 C540 C 0.90686 0.07519 0.11145
 C541 C 0.88777 0.05086 0.13081
 C542 C 0.86581 0.06677 0.15227
 C543 C 0.89096 0.01104 0.12819
 C544 C 0.91254 -0.00447 0.10630
 C545 C 0.93087 0.01958 0.08633
 C546 C 0.92799 0.05941 0.08923
 H547 H 0.82514 0.10460 0.18986
 H548 H 0.89601 0.18952 0.12513
 H549 H 0.85736 0.21733 0.16186
 H550 H 0.91949 0.13359 0.09982
 H551 H 0.85084 0.04815 0.16684
 H552 H 0.87668 -0.00808 0.14297
 H553 H 0.91444 -0.03525 0.10450
 H554 H 0.94238 0.07823 0.07425
 C555 C 0.33692 0.65335 0.64295
 C556 C 0.35747 0.64011 0.61898
 C557 C 0.37014 0.66593 0.59589
 C558 C 0.36164 0.70452 0.59700
 C559 C 0.34103 0.71745 0.62092
 C560 C 0.32869 0.69206 0.64423
 C561 C 0.39125 0.65279 0.57230
 C562 C 0.39995 0.61421 0.57166
 C563 C 0.38688 0.58842 0.59458
 C564 C 0.36567 0.60149 0.61796
 C565 C 0.39562 0.54999 0.59409
 C566 C 0.41770 0.53728 0.57167
 C567 C 0.43136 0.56266 0.54910
 C568 C 0.42197 0.60108 0.54890
 H569 H 0.32713 0.63346 0.66054
 H570 H 0.37108 0.72474 0.57951
 H571 H 0.33513 0.74747 0.62157
 H572 H 0.40118 0.67264 0.55475
 H573 H 0.35587 0.58168 0.63564
 H574 H 0.38575 0.52985 0.61141
 H575 H 0.42437 0.50752 0.57229
 H576 H 0.43240 0.62096 0.53171
   
