data_POSCAR
  _audit_creation_date              2014-09-24
  _audit_creation_method            'ToBaCCo'
  _symmetry_space_group_name_H-M    'P1'
  _symmetry_Int_Tables_number       1
  _symmetry_cell_setting            triclinic
  loop_
  _symmetry_equiv_pos_as_xyz
 x,y,z
_cell_length_a 61.6513
_cell_length_b 60.2391
_cell_length_c 60.9951
_cell_angle_alpha 95.474000
_cell_angle_beta 88.518100
_cell_angle_gamma 92.176000
loop_
  _atom_site_label
  _atom_site_type_symbol
  _atom_site_fract_x
  _atom_site_fract_y
  _atom_site_fract_z
C1 C 0.21719 0.51728 1.01300
 H2 H 0.21920 0.52938 1.00102
 C3 C 0.20187 0.52049 1.03014
 H4 H 0.19302 0.53572 1.03126
 C5 C 0.22740 0.48346 1.02585
 H6 H 0.23691 0.46868 1.02372
 C7 C 0.21221 0.48591 1.04322
 H8 H 0.21038 0.47249 1.05375
 N9 N 0.22969 0.49910 1.01125
 C10 C 0.28331 0.51925 0.96889
 H11 H 0.28219 0.50554 0.95609
 C12 C 0.29976 0.53563 0.96781
 H13 H 0.31098 0.53462 0.95383
 C14 C 0.27001 0.53688 1.00270
 H15 H 0.25875 0.53693 1.01657
 C16 C 0.28637 0.55359 1.00237
 H17 H 0.28748 0.56640 1.01604
 Zn18 Zn 0.24907 0.49543 0.98673
 N19 N 0.26884 0.52013 0.98610
 C20 C 0.23264 0.50888 0.94739
 N21 N 0.23205 0.49242 0.96120
 C22 C 0.21769 0.47474 0.95838
 C23 C 0.20292 0.47329 0.94126
 C24 C 0.21813 0.50814 0.93013
 C25 C 0.27874 0.47142 1.00673
 C26 C 0.29406 0.45539 1.00870
 C27 C 0.28376 0.43757 0.97313
 C28 C 0.26837 0.45391 0.97194
 N29 N 0.26635 0.47050 0.98855
 H30 H 0.24375 0.52310 0.95022
 H31 H 0.21727 0.46213 0.96990
 H32 H 0.19110 0.45950 0.93973
 H33 H 0.21859 0.52160 0.91954
 H34 H 0.27702 0.48501 1.01952
 H35 H 0.30370 0.45652 1.02338
 H36 H 0.28578 0.42500 0.95939
 H37 H 0.25875 0.45385 0.95737
 C38 C 0.30170 0.55294 0.98486
 C39 C 0.19889 0.50463 1.04572
 C40 C 0.29715 0.43846 0.99154
 C41 C 0.20276 0.49038 0.92715
 C42 C 0.78715 0.52066 -0.01193
 H43 H 0.78860 0.53439 0.00080
 C44 C 0.80151 0.51957 -0.03005
 H45 H 0.81407 0.53250 -0.03113
 C46 C 0.76956 0.48661 -0.02545
 H47 H 0.75728 0.47365 -0.02343
 C48 C 0.78369 0.48476 -0.04375
 H49 H 0.78194 0.47049 -0.05586
 N50 N 0.77151 0.50439 -0.01002
 C51 C 0.72031 0.53292 0.03290
 H52 H 0.71907 0.52058 0.04470
 C53 C 0.70502 0.54945 0.03344
 H54 H 0.69210 0.54992 0.04583
 C55 C 0.73807 0.54663 0.00173
 H56 H 0.75051 0.54505 -0.01105
 C57 C 0.72327 0.56366 0.00185
 H58 H 0.72449 0.57509 -0.01084
 Zn59 Zn 0.75355 0.50621 0.01563
 N60 N 0.73622 0.53160 0.01703
 C61 C 0.77158 0.52551 0.05566
 N62 N 0.77182 0.50770 0.04018
 C63 C 0.78611 0.49119 0.04105
 C64 C 0.80087 0.49210 0.05812
 C65 C 0.78618 0.52717 0.07293
 C66 C 0.71798 0.48030 0.00030
 C67 C 0.70160 0.46368 0.00012
 C68 C 0.71899 0.44845 0.03014
 C69 C 0.73491 0.46561 0.02997
 N70 N 0.73408 0.48112 0.01521
 H71 H 0.76036 0.53866 0.05445
 H72 H 0.78624 0.47746 0.02826
 H73 H 0.81240 0.47900 0.05832
 H74 H 0.78584 0.54149 0.08509
 H75 H 0.71759 0.49298 -0.01109
 H76 H 0.68868 0.46350 -0.01161
 H77 H 0.71955 0.43648 0.04226
 H78 H 0.74757 0.46678 0.04198
 C79 C 0.70622 0.56486 0.01756
 C80 C 0.79996 0.50135 -0.04617
 C81 C 0.70188 0.44764 0.01532
 C82 C 0.80113 0.51037 0.07424
 C83 C 0.00172 0.27846 0.44428
 H84 H -0.01101 0.27870 0.45685
 C85 C 0.00139 0.29316 0.42797
 H86 H -0.01162 0.30478 0.42874
 C87 C 0.03478 0.26398 0.42977
 H88 H 0.04790 0.25273 0.43069
 C89 C 0.03534 0.27869 0.41337
 H90 H 0.04867 0.27770 0.40147
 N91 N 0.01809 0.26408 0.44476
 C92 C -0.00837 0.21148 0.48305
 H93 H 0.00471 0.21100 0.49446
 C94 C -0.02570 0.19593 0.48330
 H95 H -0.02600 0.18355 0.49508
 C96 C -0.02360 0.22788 0.45343
 H97 H -0.02246 0.23992 0.44140
 C98 C -0.04144 0.21285 0.45336
 H99 H -0.05397 0.21353 0.44134
 Zn100 Zn 0.01775 0.24582 0.46836
 N101 N -0.00757 0.22700 0.46823
 C102 C 0.00232 0.26525 0.50994
 N103 N 0.01875 0.26517 0.49462
 C104 C 0.03587 0.28003 0.49689
 C105 C 0.03697 0.29581 0.51516
 C106 C 0.00271 0.28084 0.52845
 C107 C 0.04305 0.21174 0.44830
 C108 C 0.05893 0.19572 0.44687
 C109 C 0.07182 0.21119 0.48236
 C110 C 0.05574 0.22698 0.48308
 N111 N 0.04168 0.22689 0.46624
 H112 H -0.01138 0.25362 0.50758
 H113 H 0.04859 0.27973 0.48432
 H114 H 0.05084 0.30738 0.51669
 H115 H -0.01081 0.28104 0.54013
 H116 H 0.03144 0.21181 0.43531
 H117 H 0.05967 0.18377 0.43246
 H118 H 0.08230 0.21104 0.49631
 H119 H 0.05401 0.23873 0.49748
 C120 C -0.04246 0.19648 0.46828
 C121 C 0.01848 0.29373 0.41215
 C122 C 0.07338 0.19505 0.46422
 C123 C 0.02012 0.29654 0.53115
 C124 C 0.95858 0.72273 0.55917
 H125 H 0.94684 0.72403 0.54651
 C126 C 0.95492 0.70730 0.57464
 H127 H 0.94003 0.69716 0.57405
 C128 C 0.99254 0.73397 0.57470
 H129 H 1.00754 0.74380 0.57413
 C130 C 0.98963 0.71859 0.59039
 H131 H 1.00250 0.71685 0.60178
 N132 N 0.97721 0.73554 0.55935
 C133 C 0.96179 0.78400 0.51399
 H134 H 0.97515 0.78113 0.50233
 C135 C 0.94674 0.79997 0.51074
 H136 H 0.94843 0.80893 0.49619
 C137 C 0.94359 0.77556 0.54703
 H138 H 0.94277 0.76636 0.56141
 C139 C 0.92825 0.79164 0.54455
 H140 H 0.91572 0.79462 0.55714
 Zn141 Zn 0.98257 0.75250 0.53516
 N142 N 0.95994 0.77211 0.53182
 C143 C 0.97055 0.72993 0.49367
 N144 N 0.98523 0.73166 0.51006
 C145 C 1.00193 0.71753 0.50976
 C146 C 1.00472 0.70122 0.49221
 C147 C 0.97261 0.71367 0.47586
 C148 C 1.00953 0.78551 0.55688
 C149 C 1.02718 0.80070 0.55941
 C150 C 1.04196 0.78485 0.52457
 C151 C 1.02408 0.76992 0.52276
 N152 N 1.00830 0.77052 0.53879
 H153 H 0.95696 0.74081 0.49457
 H154 H 1.01317 0.71905 0.52320
 H155 H 1.01846 0.69053 0.49213
 H156 H 0.96050 0.71228 0.46321
 H157 H 0.99656 0.78590 0.56919
 H158 H 1.02784 0.81249 0.57395
 H159 H 1.05393 0.78457 0.51126
 H160 H 1.02246 0.75845 0.50813
 C161 C 0.92983 0.80425 0.52628
 C162 C 0.97081 0.70465 0.59020
 C163 C 1.04359 0.80069 0.54298
 C164 C 0.98989 0.69902 0.47495
 C165 C 0.46015 -0.00235 0.26816
 H166 H 0.46321 -0.01529 0.25507
 C167 C 0.44231 -0.00475 0.28241
 H168 H 0.43155 -0.01934 0.27982
 C169 C 0.47079 0.03191 0.28799
 H170 H 0.48228 0.04593 0.29027
 C171 C 0.45311 0.03023 0.30258
 H172 H 0.45114 0.04299 0.31616
 N173 N 0.47396 0.01578 0.27117
 C174 C 0.51703 -0.02023 0.22928
 H175 H 0.53016 -0.01823 0.24077
 C176 C 0.51748 -0.03732 0.21210
 H177 H 0.53141 -0.04776 0.21077
 C178 C 0.48430 -0.00745 0.21646
 H179 H 0.47142 0.00434 0.21831
 C180 C 0.48402 -0.02427 0.19911
 H181 H 0.47019 -0.02537 0.18849
 Zn182 Zn 0.49949 0.01825 0.25348
 N183 N 0.50050 -0.00584 0.23123
 C184 C 0.52421 -0.00023 0.28388
 N185 N 0.52314 0.01801 0.27253
 C186 C 0.53742 0.03570 0.27610
 C187 C 0.55354 0.03543 0.29179
 C188 C 0.54009 -0.00126 0.29956
 C189 C 0.48235 0.05772 0.23992
 C190 C 0.48156 0.07519 0.22650
 C191 C 0.51706 0.06566 0.21159
 C192 C 0.51713 0.04833 0.22523
 N193 N 0.49986 0.04456 0.23887
 H194 H 0.51247 -0.01393 0.28090
 H195 H 0.53595 0.05027 0.26727
 H196 H 0.56437 0.04990 0.29489
 H197 H 0.54069 -0.01605 0.30827
 H198 H 0.46857 0.05415 0.25046
 H199 H 0.46731 0.08523 0.22723
 H200 H 0.53059 0.06783 0.20023
 H201 H 0.53063 0.03729 0.22437
 C202 C 0.50084 -0.03969 0.19642
 C203 C 0.43871 0.01158 0.30001
 C204 C 0.49889 0.07906 0.21178
 C205 C 0.55486 0.01686 0.30395
 C206 C 0.53118 -0.03063 0.71329
 H207 H 0.52065 -0.04529 0.71054
 C208 C 0.54989 -0.02859 0.70015
 H209 H 0.55322 -0.04151 0.68704
 C210 C 0.53958 0.00401 0.73350
 H211 H 0.53578 0.01655 0.74671
 C212 C 0.55843 0.00677 0.72070
 H213 H 0.56881 0.02153 0.72414
 N214 N 0.52602 -0.01418 0.72921
 C215 C 0.47994 -0.05462 0.76287
 H216 H 0.46527 -0.04945 0.75580
 C217 C 0.47899 -0.07240 0.77599
 H218 H 0.46357 -0.08110 0.77851
 C219 C 0.51767 -0.04896 0.76885
 H220 H 0.53255 -0.03932 0.76642
 C221 C 0.51745 -0.06662 0.78214
 H222 H 0.53226 -0.07038 0.78996
 Zn223 Zn 0.49919 -0.01697 0.74508
 N224 N 0.49904 -0.04319 0.75976
 C225 C 0.47350 -0.03793 0.71104
 N226 N 0.47578 -0.01909 0.72509
 C227 C 0.46157 -0.00234 0.72499
 C228 C 0.44486 -0.00381 0.70983
 C229 C 0.45695 -0.04017 0.69572
 C230 C 0.49272 0.00369 0.78802
 C231 C 0.49006 0.02120 0.80443
 C232 C 0.49387 0.04716 0.77665
 C233 C 0.49638 0.02910 0.76070
 N234 N 0.49581 0.00784 0.76661
 H235 H 0.48432 -0.05147 0.71193
 H236 H 0.46320 0.01232 0.73651
 H237 H 0.43419 0.01002 0.70963
 H238 H 0.45539 -0.05542 0.68487
 H239 H 0.49230 -0.01323 0.79251
 H240 H 0.48791 0.01748 0.82139
 H241 H 0.49422 0.06393 0.77163
 H242 H 0.49880 0.03204 0.74357
 C243 C 0.49782 -0.07831 0.78620
 C244 C 0.56358 -0.00948 0.70349
 C245 C 0.49060 0.04328 0.79885
 C246 C 0.44249 -0.02284 0.69476
 C247 C 0.22261 -0.02553 0.51317
 C248 C 0.23550 -0.00824 0.50511
 C249 C 0.22552 0.01021 0.49780
 C250 C 0.20281 0.01149 0.49855
 C251 C 0.19016 -0.00602 0.50654
 C252 C 0.19987 -0.02464 0.51379
 C253 C 0.25939 -0.00981 0.50382
 C254 C 0.27066 -0.00752 0.48380
 C255 C 0.29314 -0.01034 0.48212
 C256 C 0.30439 -0.01473 0.50084
 C257 C 0.29346 -0.01670 0.52108
 C258 C 0.27087 -0.01438 0.52239
 H259 H 0.23032 -0.03980 0.51872
 H260 H 0.23545 0.02349 0.49146
 H261 H 0.26180 -0.00441 0.46934
 H262 H 0.26218 -0.01619 0.53782
 H263 H 0.17263 -0.00520 0.50697
 H264 H 0.32186 -0.01613 0.49971
 C265 C 0.77198 -0.01377 0.49640
 C266 C 0.76176 0.00603 0.49304
 C267 C 0.77412 0.02445 0.48661
 C268 C 0.79674 0.02335 0.48380
 C269 C 0.80673 0.00344 0.48723
 C270 C 0.79452 -0.01532 0.49313
 C271 C 0.73806 0.00743 0.49601
 C272 C 0.72844 0.00699 0.51707
 C273 C 0.70595 0.00912 0.52008
 C274 C 0.69311 0.01085 0.50170
 C275 C 0.70242 0.01054 0.48041
 C276 C 0.72506 0.00929 0.47777
 H277 H 0.76228 -0.02807 0.50093
 H278 H 0.76609 0.03960 0.48385
 H279 H 0.73853 0.00566 0.53115
 H280 H 0.73255 0.00905 0.46148
 H281 H 0.82424 0.00268 0.48577
 H282 H 0.67571 0.01226 0.50401
 C283 C 0.51570 0.27564 1.01127
 C284 C 0.49586 0.26383 1.00760
 C285 C 0.47688 0.27541 1.00516
 C286 C 0.47755 0.29881 1.00653
 C287 C 0.49760 0.31039 1.00963
 C288 C 0.51673 0.29905 1.01226
 C289 C 0.49470 0.23936 1.00709
 C290 C 0.49562 0.22919 1.02677
 C291 C 0.49312 0.20593 1.02663
 C292 C 0.49028 0.19291 1.00648
 C293 C 0.48968 0.20288 0.98660
 C294 C 0.49173 0.22622 0.98709
 H295 H 0.53019 0.26657 1.01356
 H296 H 0.46154 0.26617 1.00297
 H297 H 0.49753 0.23948 1.04222
 H298 H 0.49082 0.23423 0.97198
 H299 H 0.49835 0.32839 1.00975
 H300 H 0.48900 0.17491 1.00625
 C301 C 0.52758 0.72650 -0.00720
 C302 C 0.50800 0.73727 -0.00889
 C303 C 0.48836 0.72478 -0.01064
 C304 C 0.48808 0.70151 -0.01054
 C305 C 0.50774 0.69094 -0.00855
 C306 C 0.52763 0.70315 -0.00726
 C307 C 0.50791 0.76160 -0.00947
 C308 C 0.50636 0.77064 -0.02970
 C309 C 0.50442 0.79368 -0.03034
 C310 C 0.50422 0.80758 -0.01052
 C311 C 0.50562 0.79874 0.00987
 C312 C 0.50769 0.77564 0.01025
 H313 H 0.54272 0.73626 -0.00641
 H314 H 0.47337 0.73322 -0.01240
 H315 H 0.50605 0.75965 -0.04484
 H316 H 0.50830 0.76844 0.02583
 H317 H 0.50749 0.67305 -0.00771
 H318 H 0.50309 0.82543 -0.01101
 C319 C 1.00905 0.52536 0.27935
 C320 C 1.00977 0.50671 0.26377
 C321 C 1.01257 0.48547 0.27062
 C322 C 1.01485 0.48283 0.29303
 C323 C 1.01421 0.50160 0.30850
 C324 C 1.01129 0.52299 0.30187
 C325 C 1.00795 0.50955 0.24022
 C326 C 1.02672 0.51047 0.22682
 C327 C 1.02525 0.51392 0.20445
 C328 C 1.00468 0.51622 0.19570
 C329 C 0.98577 0.51516 0.20894
 C330 C 0.98753 0.51183 0.23128
 H331 H 1.00714 0.54172 0.27380
 H332 H 1.01315 0.47109 0.25852
 H333 H 1.04244 0.50895 0.23396
 H334 H 0.97308 0.51119 0.24174
 H335 H 1.01535 0.49937 0.32585
 H336 H 1.00329 0.51818 0.17832
 C337 C -0.01238 0.51182 0.72990
 C338 C -0.00599 0.49221 0.73819
 C339 C -0.00010 0.47388 0.72363
 C340 C -0.00074 0.47495 0.70075
 C341 C -0.00704 0.49476 0.69267
 C342 C -0.01279 0.51332 0.70708
 C343 C -0.00541 0.49093 0.76215
 C344 C -0.02477 0.49152 0.77478
 C345 C -0.02435 0.49028 0.79762
 C346 C -0.00429 0.48937 0.80780
 C347 C 0.01521 0.48929 0.79541
 C348 C 0.01451 0.48955 0.77246
 H349 H -0.01697 0.52590 0.74125
 H350 H 0.00495 0.45883 0.73015
 H351 H -0.04014 0.49238 0.76673
 H352 H 0.02947 0.48957 0.76272
 H353 H -0.00745 0.49576 0.67505
 H354 H -0.00383 0.48893 0.82551
 C355 C 0.11757 0.14145 0.46633
 C356 C 0.12394 0.16343 0.47397
 C357 C 0.10984 0.18093 0.47284
 C358 C 0.08904 0.17685 0.46407
 C359 C 0.08288 0.15494 0.45601
 C360 C 0.09697 0.13748 0.45708
 C361 C 0.13184 0.12258 0.46876
 N362 N 0.12559 0.10144 0.46120
 N363 N 0.13779 0.08429 0.46431
 C364 C 0.15679 0.08752 0.47514
 N365 N 0.16318 0.10870 0.48252
 N366 N 0.15097 0.12587 0.47939
 C367 C 0.16962 0.06819 0.47971
 C368 C 0.18882 0.07125 0.49179
 C369 C 0.19996 0.05286 0.49740
 C370 C 0.19211 0.03104 0.49112
 C371 C 0.17333 0.02799 0.47846
 C372 C 0.16224 0.04633 0.47281
 H373 H 0.13973 0.16712 0.48109
 H374 H 0.11520 0.19766 0.47892
 H375 H 0.06686 0.15111 0.44949
 H376 H 0.09146 0.12078 0.45108
 H377 H 0.19500 0.08785 0.49734
 H378 H 0.21433 0.05570 0.50727
 H379 H 0.16711 0.01137 0.47306
 H380 H 0.14762 0.04330 0.46335
 C381 C 0.65499 0.61020 0.01137
 C382 C 0.67676 0.61803 0.01129
 C383 C 0.69352 0.60339 0.01347
 C384 C 0.68873 0.58082 0.01624
 C385 C 0.66696 0.57317 0.01684
 C386 C 0.65029 0.58765 0.01428
 C387 C 0.63714 0.62509 0.00779
 N388 N 0.61793 0.61632 0.00000
 N389 N 0.60171 0.62944 -0.00332
 C390 C 0.60392 0.65191 0.00113
 N391 N 0.62312 0.66076 0.00899
 N392 N 0.63946 0.64760 0.01215
 C393 C 0.58548 0.66614 -0.00223
 C394 C 0.58373 0.68738 0.00928
 C395 C 0.56518 0.69975 0.00734
 C396 C 0.54819 0.69118 -0.00632
 C397 C 0.55056 0.67042 -0.01860
 C398 C 0.56886 0.65800 -0.01645
 H399 H 0.68085 0.63531 0.00900
 H400 H 0.71021 0.60965 0.01300
 H401 H 0.66285 0.55580 0.01871
 H402 H 0.63367 0.58115 0.01452
 H403 H 0.59630 0.69407 0.02038
 H404 H 0.56382 0.71565 0.01709
 H405 H 0.53811 0.66361 -0.02978
 H406 H 0.56991 0.64187 -0.02585
 C407 C 0.88557 -0.14368 0.51726
 C408 C 0.90767 -0.14138 0.51145
 C409 C 0.92195 -0.15808 0.51474
 C410 C 0.91449 -0.17773 0.52365
 C411 C 0.89240 -0.17994 0.52977
 C412 C 0.87810 -0.16302 0.52670
 C413 C 0.87060 -0.12596 0.51310
 N414 N 0.85081 -0.12438 0.52339
 N415 N 0.83769 -0.10808 0.51970
 C416 C 0.84378 -0.09284 0.50544
 N417 N 0.86348 -0.09458 0.49510
 N418 N 0.87661 -0.11074 0.49887
 C419 C 0.82973 -0.07426 0.50153
 C420 C 0.83440 -0.06166 0.48365
 C421 C 0.82246 -0.04306 0.48063
 C422 C 0.80565 -0.03639 0.49551
 C423 C 0.80035 -0.04944 0.51295
 C424 C 0.81228 -0.06825 0.51591
 H425 H 0.91404 -0.12655 0.50444
 H426 H 0.93894 -0.15548 0.51041
 H427 H 0.88606 -0.19492 0.53651
 H428 H 0.86113 -0.16529 0.53130
 H429 H 0.84750 -0.06601 0.47205
 H430 H 0.82658 -0.03370 0.46670
 H431 H 0.78752 -0.04467 0.52472
 H432 H 0.80827 -0.07763 0.52984
 C433 C 0.34950 0.39346 0.99521
 C434 C 0.35193 0.41611 1.00296
 C435 C 0.33503 0.43058 1.00152
 C436 C 0.31510 0.42279 0.99249
 C437 C 0.31268 0.40017 0.98444
 C438 C 0.32975 0.38565 0.98575
 C439 C 0.36761 0.37834 0.99723
 N440 N 0.36759 0.35749 0.98651
 N441 N 0.38419 0.34424 0.98830
 C442 C 0.40140 0.35128 1.00098
 N443 N 0.40130 0.37205 1.01174
 N444 N 0.38480 0.38528 1.00989
 C445 C 0.42020 0.33699 1.00287
 C446 C 0.43628 0.34360 1.01830
 C447 C 0.45459 0.33096 1.01964
 C448 C 0.45742 0.31143 1.00551
 C449 C 0.44112 0.30444 0.99040
 C450 C 0.42267 0.31710 0.98910
 H451 H 0.36699 0.42280 1.01008
 H452 H 0.33770 0.44799 1.00731
 H453 H 0.29750 0.39363 0.97749
 H454 H 0.32736 0.36828 0.97964
 H455 H 0.43483 0.35865 1.02937
 H456 H 0.46658 0.33651 1.03183
 H457 H 0.44289 0.28950 0.97923
 H458 H 0.41057 0.31155 0.97702
 C459 C 0.90555 0.14671 0.46673
 C460 C 0.90095 0.16943 0.46721
 C461 C 0.91784 0.18566 0.46744
 C462 C 0.93956 0.17947 0.46765
 C463 C 0.94413 0.15679 0.46725
 C464 C 0.92733 0.14057 0.46662
 C465 C 0.88788 0.12936 0.46666
 N466 N 0.89200 0.10775 0.46003
 N467 N 0.87645 0.09190 0.46071
 C468 C 0.85611 0.09692 0.46815
 N469 N 0.85191 0.11857 0.47467
 N470 N 0.86746 0.13449 0.47385
 C471 C 0.83938 0.07888 0.47020
 C472 C 0.82084 0.08234 0.48383
 C473 C 0.80645 0.06449 0.48765
 C474 C 0.81029 0.04289 0.47779
 C475 C 0.82816 0.03976 0.46320
 C476 C 0.84258 0.05750 0.45954
 H477 H 0.88434 0.17465 0.46725
 H478 H 0.91395 0.20308 0.46782
 H479 H 0.96077 0.15160 0.46719
 H480 H 0.93141 0.12322 0.46636
 H481 H 0.81792 0.09862 0.49228
 H482 H 0.79289 0.06741 0.49905
 H483 H 0.83126 0.02344 0.45493
 H484 H 0.85651 0.05433 0.44866
 C485 C 0.35577 0.60056 -0.01563
 C486 C 0.35835 0.57800 -0.02310
 C487 C 0.34085 0.56268 -0.02282
 C488 C 0.32021 0.56949 -0.01523
 C489 C 0.31758 0.59205 -0.00767
 C490 C 0.33520 0.60742 -0.00782
 C491 C 0.37460 0.61660 -0.01593
 N492 N 0.37353 0.63766 -0.00584
 N493 N 0.39075 0.65175 -0.00582
 C494 C 0.40971 0.64537 -0.01597
 N495 N 0.41068 0.62438 -0.02615
 N496 N 0.39352 0.61031 -0.02612
 C497 C 0.42922 0.66057 -0.01548
 C498 C 0.44811 0.65408 -0.02741
 C499 C 0.46697 0.66762 -0.02612
 C500 C 0.46749 0.68798 -0.01283
 C501 C 0.44846 0.69486 -0.00137
 C502 C 0.42950 0.68128 -0.00268
 H503 H 0.37400 0.57205 -0.02901
 H504 H 0.34361 0.54536 -0.02827
 H505 H 0.30185 0.59788 -0.00190
 H506 H 0.33265 0.62469 -0.00199
 H507 H 0.44846 0.63837 -0.03763
 H508 H 0.48124 0.66208 -0.03552
 H509 H 0.44841 0.71042 0.00910
 H510 H 0.41522 0.68680 0.00670
 C511 C 0.09500 -0.14860 0.54382
 C512 C 0.07411 -0.14341 0.55207
 C513 C 0.05761 -0.15994 0.55226
 C514 C 0.06160 -0.18212 0.54430
 C515 C 0.08265 -0.18746 0.53666
 C516 C 0.09915 -0.17089 0.53640
 C517 C 0.11198 -0.13070 0.54205
 N518 N 0.13142 -0.13515 0.53189
 N519 N 0.14616 -0.11882 0.52918
 C520 C 0.14211 -0.09734 0.53655
 N521 N 0.12278 -0.09295 0.54694
 N522 N 0.10804 -0.10926 0.54963
 C523 C 0.15788 -0.07893 0.53230
 C524 C 0.15342 -0.05674 0.53980
 C525 C 0.16738 -0.03919 0.53433
 C526 C 0.18612 -0.04340 0.52123
 C527 C 0.19100 -0.06562 0.51435
 C528 C 0.17704 -0.08320 0.51983
 H529 H 0.07029 -0.12643 0.55788
 H530 H 0.04153 -0.15517 0.55797
 H531 H 0.08635 -0.20444 0.53073
 H532 H 0.11509 -0.17553 0.53008
 H533 H 0.13892 -0.05282 0.54958
 H534 H 0.16338 -0.02227 0.54019
 H535 H 0.20522 -0.06939 0.50407
 H536 H 0.18100 -0.10008 0.51379
 C537 C 0.64864 0.39973 1.01882
 C538 C 0.64489 0.42254 1.01829
 C539 C 0.66222 0.43796 1.01697
 C540 C 0.68370 0.43100 1.01647
 C541 C 0.68756 0.40826 1.01726
 C542 C 0.67016 0.39271 1.01820
 C543 C 0.63005 0.38355 1.01991
 N544 N 0.63226 0.36149 1.01356
 N545 N 0.61519 0.34722 1.01384
 C546 C 0.59528 0.35444 1.02065
 N547 N 0.59318 0.37645 1.02720
 N548 N 0.61017 0.39069 1.02678
 C549 C 0.57595 0.33904 1.02013
 C550 C 0.55676 0.34566 1.03141
 C551 C 0.53785 0.33224 1.02949
 C552 C 0.53754 0.31195 1.01604
 C553 C 0.55695 0.30483 1.00546
 C554 C 0.57600 0.31823 1.00754
 H555 H 0.62852 0.42848 1.01865
 H556 H 0.65884 0.45544 1.01661
 H557 H 0.70402 0.40252 1.01685
 H558 H 0.67354 0.37525 1.01866
 H559 H 0.55624 0.36142 1.04153
 H560 H 0.52333 0.33793 1.03832
 H561 H 0.55720 0.28933 0.99490
 H562 H 0.59053 0.31266 0.99865
 C563 C 0.49502 0.12439 1.16158
 C564 C 0.47677 0.11137 1.16748
 C565 C 0.47790 0.09722 1.18423
 C566 C 0.49731 0.09567 1.19545
 C567 C 0.51542 0.10909 1.18998
 C568 C 0.51427 0.12338 1.17328
 C569 C 0.49416 0.13811 1.14270
 N570 N 0.51097 0.15220 1.13784
 N571 N 0.51046 0.16373 1.12027
 C572 C 0.49316 0.16157 1.10677
 N573 N 0.47632 0.14760 1.11173
 N574 N 0.47679 0.13615 1.12931
 C575 C 0.49288 0.17356 1.08665
 C576 C 0.47705 0.16786 1.07070
 C577 C 0.47714 0.17845 1.05132
 C578 C 0.49294 0.19513 1.04748
 C579 C 0.50855 0.20117 1.06355
 C580 C 0.50860 0.19040 1.08290
 H581 H 0.46167 0.11176 1.15888
 H582 H 0.46375 0.08688 1.18784
 H583 H 0.53054 0.10839 1.19849
 H584 H 0.52862 0.13321 1.16920
 H585 H 0.46470 0.15499 1.07302
 H586 H 0.46475 0.17368 1.03933
 H587 H 0.52097 0.21391 1.06094
 H588 H 0.52099 0.19523 1.09487
 C589 C -0.03307 0.65016 0.63142
 C590 C -0.02442 0.67118 0.63960
 C591 C -0.02366 0.68906 0.62650
 C592 C -0.03145 0.68631 0.60491
 C593 C -0.04050 0.66540 0.59695
 C594 C -0.04137 0.64760 0.61005
 C595 C -0.03261 0.63070 0.64457
 N596 N -0.04181 0.61073 0.63685
 N597 N -0.04039 0.59286 0.64792
 C598 C -0.02968 0.59414 0.66720
 N599 N -0.02068 0.61417 0.67508
 N600 N -0.02213 0.63208 0.66400
 C601 C -0.02689 0.57381 0.67865
 C602 C -0.01435 0.57460 0.69766
 C603 C -0.01030 0.55505 0.70731
 C604 C -0.01868 0.53430 0.69814
 C605 C -0.03185 0.53362 0.67962
 C606 C -0.03592 0.55313 0.67000
 H607 H -0.01800 0.67377 0.65604
 H608 H -0.01685 0.70502 0.63324
 H609 H -0.04627 0.66250 0.58028
 H610 H -0.04807 0.63166 0.60315
 H611 H -0.00717 0.59024 0.70479
 H612 H 0.00004 0.55607 0.72149
 H613 H -0.03885 0.51792 0.67242
 H614 H -0.04581 0.55188 0.65549
 C615 C 0.49567 0.87474 -0.16461
 C616 C 0.47857 0.88923 -0.16632
 C617 C 0.47908 0.90400 -0.18262
 C618 C 0.49667 0.90466 -0.19768
 C619 C 0.51352 0.88978 -0.19639
 C620 C 0.51301 0.87494 -0.18005
 C621 C 0.49577 0.86039 -0.14616
 N622 N 0.51205 0.84615 -0.14423
 N623 N 0.51263 0.83424 -0.12692
 C624 C 0.49697 0.83612 -0.11082
 N625 N 0.48061 0.85018 -0.11290
 N626 N 0.48001 0.86203 -0.13019
 C627 C 0.49818 0.82407 -0.09083
 C628 C 0.48405 0.82925 -0.07276
 C629 C 0.48593 0.81910 -0.05332
 C630 C 0.50187 0.80339 -0.05150
 C631 C 0.51559 0.79762 -0.06972
 C632 C 0.51385 0.80796 -0.08918
 H633 H 0.46495 0.88955 -0.15474
 H634 H 0.46600 0.91546 -0.18292
 H635 H 0.52717 0.88973 -0.20792
 H636 H 0.52641 0.86396 -0.17926
 H637 H 0.47175 0.84151 -0.07343
 H638 H 0.47494 0.82360 -0.03961
 H639 H 0.52805 0.78558 -0.06868
 H640 H 0.52494 0.80353 -0.10281
 C641 C 1.01996 0.34298 0.36634
 C642 C 1.00011 0.33436 0.37421
 C643 C 0.99959 0.31797 0.38897
 C644 C 1.01895 0.30941 0.39611
 C645 C 1.03882 0.31751 0.38729
 C646 C 1.03928 0.33419 0.37282
 C647 C 1.02051 0.36184 0.35241
 N648 N 1.03877 0.37496 0.35077
 N649 N 1.03886 0.39288 0.33956
 C650 C 1.02074 0.39836 0.32939
 N651 N 1.00257 0.38503 0.33073
 N652 N 1.00244 0.36718 0.34206
 C653 C 1.02035 0.41921 0.31840
 C654 C 1.00398 0.42245 0.30351
 C655 C 1.00269 0.44287 0.29453
 C656 C 1.01751 0.46051 0.30060
 C657 C 1.03417 0.45712 0.31503
 C658 C 1.03571 0.43662 0.32370
 H659 H 0.98490 0.34066 0.36939
 H660 H 0.98382 0.31177 0.39431
 H661 H 1.05424 0.31209 0.39246
 H662 H 1.05486 0.34048 0.36700
 H663 H 0.99198 0.40931 0.29905
 H664 H 0.98964 0.44517 0.28350
 H665 H 1.04585 0.47049 0.31982
 H666 H 1.04848 0.43468 0.33515
 C667 C 0.50133 0.90944 0.14256
 C668 C 0.48985 0.92894 0.14145
 C669 C 0.48975 0.94557 0.15901
 C670 C 0.50107 0.94330 0.17849
 C671 C 0.51265 0.92357 0.17940
 C672 C 0.51276 0.90696 0.16171
 C673 C 0.50139 0.89199 0.12368
 N674 N 0.51422 0.87409 0.12336
 N675 N 0.51441 0.85870 0.10612
 C676 C 0.50172 0.86055 0.08854
 N677 N 0.48884 0.87837 0.08896
 N678 N 0.48868 0.89374 0.10613
 C679 C 0.50218 0.84389 0.06900
 C680 C 0.48816 0.84570 0.05150
 C681 C 0.48909 0.83080 0.03258
 C682 C 0.50410 0.81372 0.03060
 C683 C 0.51778 0.81147 0.04827
 C684 C 0.51685 0.82643 0.06729
 H685 H 0.48108 0.93159 0.12682
 H686 H 0.48138 0.96057 0.15661
 H687 H 0.52105 0.92028 0.19401
 H688 H 0.52166 0.89203 0.16318
 H689 H 0.47651 0.85877 0.05229
 H690 H 0.47802 0.83267 0.01944
 H691 H 0.52956 0.79850 0.04716
 H692 H 0.52786 0.82453 0.08048
 C693 C 0.01953 0.34814 0.58536
 C694 C 0.01218 0.32626 0.58850
 C695 C 0.01259 0.30943 0.57102
 C696 C 0.02031 0.31413 0.55000
 C697 C 0.02780 0.33597 0.54694
 C698 C 0.02747 0.35273 0.56440
 C699 C 0.01845 0.36625 0.60358
 N700 N 0.02658 0.38707 0.60070
 N701 N 0.02497 0.40360 0.61671
 C702 C 0.01516 0.40006 0.63632
 N703 N 0.00717 0.37920 0.63930
 N704 N 0.00880 0.36264 0.62327
 C705 C 0.01245 0.41883 0.65366
 C706 C 0.00075 0.41575 0.67331
 C707 C -0.00304 0.43385 0.68890
 C708 C 0.00478 0.45541 0.68516
 C709 C 0.01706 0.45836 0.66587
 C710 C 0.02085 0.44031 0.65031
 H711 H 0.00603 0.32210 0.60445
 H712 H 0.00697 0.29272 0.57400
 H713 H 0.03348 0.34028 0.53090
 H714 H 0.03315 0.36940 0.56132
 H715 H -0.00594 0.39944 0.67644
 H716 H -0.01269 0.43109 0.70354
 H717 H 0.02362 0.47471 0.66272
 H718 H 0.03010 0.44330 0.63549
 C719 C 0.48456 0.09645 0.85097
 C720 C 0.47098 0.07715 0.85065
 C721 C 0.47265 0.06016 0.83351
 C722 C 0.48794 0.06203 0.81624
 C723 C 0.50112 0.08158 0.81619
 C724 C 0.49947 0.09860 0.83337
 C725 C 0.48370 0.11374 0.86997
 N726 N 0.49735 0.13205 0.87093
 N727 N 0.49722 0.14698 0.88853
 C728 C 0.48346 0.14425 0.90590
 N729 N 0.46969 0.12606 0.90482
 N730 N 0.46981 0.11114 0.88725
 C731 C 0.48407 0.16016 0.92602
 C732 C 0.47087 0.15622 0.94450
 C733 C 0.47239 0.17034 0.96397
 C734 C 0.48709 0.18878 0.96544
 C735 C 0.49986 0.19314 0.94681
 C736 C 0.49840 0.17896 0.92732
 H737 H 0.45921 0.07496 0.86383
 H738 H 0.46201 0.04547 0.83381
 H739 H 0.51317 0.08343 0.80319
 H740 H 0.51017 0.11325 0.83306
 H741 H 0.45957 0.14199 0.94408
 H742 H 0.46210 0.16677 0.97796
 H743 H 0.51144 0.20715 0.94751
 H744 H 0.50878 0.18253 0.91341
 C745 C 0.99734 0.64761 0.42119
 C746 C 0.98955 0.66850 0.41739
 C747 C 0.98714 0.68520 0.43478
 C748 C 0.99230 0.68131 0.45639
 C749 C 0.99986 0.66030 0.46016
 C750 C 1.00245 0.64372 0.44278
 C751 C 1.00013 0.62990 0.40285
 N752 N 1.01162 0.61163 0.40568
 N753 N 1.01402 0.59555 0.38935
 C754 C 1.00498 0.59699 0.36949
 N755 N 0.99350 0.61527 0.36663
 N756 N 0.99117 0.63143 0.38295
 C757 C 1.00726 0.57874 0.35159
 C758 C 0.99420 0.57750 0.33293
 C759 C 0.99568 0.55960 0.31663
 C760 C 1.01038 0.54263 0.31856
 C761 C 1.02383 0.54424 0.33695
 C762 C 1.02222 0.56200 0.35330
 H763 H 0.98556 0.67207 0.40093
 H764 H 0.98157 0.70127 0.43122
 H765 H 1.00354 0.65652 0.47663
 H766 H 1.00828 0.62774 0.44633
 H767 H 0.98245 0.59009 0.33115
 H768 H 0.98491 0.55876 0.30282
 H769 H 1.03566 0.53173 0.33873
 H770 H 1.03271 0.56256 0.36733
 C771 C 1.15008 0.51125 0.09674
 C772 C 1.14860 0.52241 0.07770
 C773 C 1.16462 0.52039 0.06109
 C774 C 1.18283 0.50716 0.06294
 C775 C 1.18429 0.49628 0.08239
 C776 C 1.16817 0.49827 0.09894
 C777 C 1.13261 0.51283 0.11394
 N778 N 1.13250 0.49997 0.13108
 N779 N 1.11640 0.50093 0.14611
 C780 C 1.09975 0.51483 0.14467
 N781 N 1.09996 0.52779 0.12761
 N782 N 1.11602 0.52680 0.11258
 C783 C 1.08137 0.51537 0.16086
 C784 C 1.06479 0.53058 0.15976
 C785 C 1.04686 0.53039 0.17420
 C786 C 1.04501 0.51493 0.19007
 C787 C 1.06181 0.50006 0.19156
 C788 C 1.07981 0.50028 0.17712
 H789 H 1.13477 0.53241 0.07535
 H790 H 1.16188 0.52852 0.04642
 H791 H 1.19817 0.48667 0.08543
 H792 H 1.16998 0.48965 0.11354
 H793 H 1.06552 0.54257 0.14759
 H794 H 1.03438 0.54234 0.17291
 H795 H 1.06077 0.48783 0.20348
 H796 H 1.09227 0.48832 0.17843
 C797 C 0.61584 -0.00004 0.65662
 C798 C 0.61208 -0.02086 0.66495
 C799 C 0.59549 -0.02383 0.68061
 C800 C 0.58241 -0.00601 0.68838
 C801 C 0.58670 0.01498 0.68064
 C802 C 0.60318 0.01793 0.66494
 C803 C 0.63193 0.00267 0.63848
 N804 N 0.63290 0.02162 0.62806
 N805 N 0.64622 0.02358 0.61076
 C806 C 0.65921 0.00669 0.60317
 N807 N 0.65851 -0.01216 0.61379
 N808 N 0.64513 -0.01414 0.63107
 C809 C 0.67271 0.00830 0.58287
 C810 C 0.68825 -0.00768 0.57632
 C811 C 0.69969 -0.00699 0.55625
 C812 C 0.69559 0.00951 0.54227
 C813 C 0.68055 0.02583 0.54909
 C814 C 0.66934 0.02531 0.56920
 H815 H 0.62156 -0.03505 0.65897
 H816 H 0.59275 -0.04013 0.68647
 H817 H 0.57676 0.02898 0.68613
 H818 H 0.60566 0.03421 0.65896
 H819 H 0.69130 -0.02094 0.58652
 H820 H 0.71117 -0.01980 0.55129
 H821 H 0.67729 0.03885 0.53867
 H822 H 0.65754 0.03791 0.57371
 C823 C -0.15243 0.49557 0.90084
 C824 C -0.16228 0.51600 0.90684
 C825 C -0.17792 0.51784 0.92387
 C826 C -0.18421 0.49924 0.93509
 C827 C -0.17475 0.47871 0.92875
 C828 C -0.15899 0.47690 0.91188
 C829 C -0.13484 0.49386 0.88379
 N830 N -0.12242 0.47562 0.88120
 N831 N -0.10597 0.47442 0.86662
 C832 C -0.10127 0.49137 0.85391
 N833 N -0.11383 0.50953 0.85631
 N834 N -0.13025 0.51077 0.87097
 C835 C -0.08225 0.49043 0.83854
 C836 C -0.07926 0.50585 0.82270
 C837 C -0.06070 0.50549 0.80897
 C838 C -0.04469 0.48990 0.81103
 C839 C -0.04785 0.47427 0.82658
 C840 C -0.06647 0.47445 0.84009
 H841 H -0.15760 0.53071 0.89868
 H842 H -0.18511 0.53383 0.92828
 H843 H -0.17912 0.46415 0.93726
 H844 H -0.15178 0.46090 0.90765
 H845 H -0.09115 0.51832 0.82104
 H846 H -0.05857 0.51777 0.79715
 H847 H -0.03583 0.46194 0.82831
 H848 H -0.06824 0.46233 0.85209
 C849 C 0.38820 0.00320 0.34906
 C850 C 0.40027 -0.01502 0.34021
 C851 C 0.41632 -0.01235 0.32401
 C852 C 0.42075 0.00861 0.31628
 C853 C 0.40845 0.02677 0.32480
 C854 C 0.39229 0.02408 0.34096
 C855 C 0.37213 0.00051 0.36722
 N856 N 0.35928 0.01749 0.37499
 N857 N 0.34559 0.01528 0.39199
 C858 C 0.34422 -0.00398 0.40195
 N859 N 0.35693 -0.02099 0.39404
 N860 N 0.37055 -0.01880 0.37703
 C861 C 0.33003 -0.00613 0.42168
 C862 C 0.33221 -0.02415 0.43440
 C863 C 0.31995 -0.02561 0.45379
 C864 C 0.30506 -0.00922 0.46083
 C865 C 0.30229 0.00844 0.44783
 C866 C 0.31477 0.01006 0.42849
 H867 H 0.39756 -0.03135 0.34603
 H868 H 0.42570 -0.02660 0.31798
 H869 H 0.41136 0.04308 0.31898
 H870 H 0.38329 0.03846 0.34738
 H871 H 0.34376 -0.03695 0.42967
 H872 H 0.32219 -0.03955 0.46339
 H873 H 0.29095 0.02132 0.45298
 H874 H 0.31263 0.02410 0.41902
 C875 C 0.15095 0.49104 0.88117
 C876 C 0.15788 0.51067 0.89374
 C877 C 0.17501 0.51048 0.90821
 C878 C 0.18559 0.49063 0.91058
 C879 C 0.17895 0.47104 0.89776
 C880 C 0.16187 0.47126 0.88310
 C881 C 0.13186 0.49118 0.86691
 N882 N 0.12670 0.47352 0.85217
 N883 N 0.10903 0.47351 0.84002
 C884 C 0.09574 0.49112 0.84220
 N885 N 0.10099 0.50879 0.85684
 N886 N 0.11868 0.50884 0.86888
 C887 C 0.07551 0.49088 0.82958
 C888 C 0.05926 0.50597 0.83631
 C889 C 0.03979 0.50541 0.82510
 C890 C 0.03619 0.48995 0.80675
 C891 C 0.05255 0.47515 0.79964
 C892 C 0.07198 0.47547 0.81108
 H893 H 0.14989 0.52621 0.89264
 H894 H 0.17955 0.52577 0.91808
 H895 H 0.18693 0.45554 0.89914
 H896 H 0.15693 0.45585 0.87366
 H897 H 0.06140 0.51802 0.85050
 H898 H 0.02751 0.51716 0.83075
 H899 H 0.05009 0.46305 0.78554
 H900 H 0.08423 0.46369 0.80545
 C901 C 0.60113 0.01550 0.35570
 C902 C 0.57987 0.00665 0.35806
 C903 C 0.56495 0.00726 0.34135
 C904 C 0.57090 0.01660 0.32172
 C905 C 0.59211 0.02562 0.31935
 C906 C 0.60708 0.02510 0.33618
 C907 C 0.61683 0.01457 0.37359
 N908 N 0.63681 0.02486 0.37275
 N909 N 0.65071 0.02401 0.38903
 C910 C 0.64521 0.01277 0.40678
 N911 N 0.62528 0.00247 0.40753
 N912 N 0.61141 0.00336 0.39132
 C913 C 0.66037 0.01187 0.42514
 C914 C 0.65485 -0.00124 0.44246
 C915 C 0.66863 -0.00179 0.46016
 C916 C 0.68828 0.01082 0.46109
 C917 C 0.69406 0.02366 0.44363
 C918 C 0.68024 0.02419 0.42582
 H919 H 0.57463 -0.00069 0.37293
 H920 H 0.54862 0.00061 0.34395
 H921 H 0.59726 0.03277 0.30436
 H922 H 0.62333 0.03203 0.33380
 H923 H 0.63981 -0.01111 0.44244
 H924 H 0.66393 -0.01223 0.47310
 H925 H 0.70905 0.03365 0.44396
 H926 H 0.68499 0.03447 0.41276
 C927 C 0.85084 0.51549 0.12301
 C928 C 0.83915 0.49522 0.11797
 C929 C 0.82276 0.49363 0.10241
 C930 C 0.81758 0.51231 0.09171
 C931 C 0.82883 0.53272 0.09718
 C932 C 0.84532 0.53428 0.11260
 C933 C 0.86930 0.51682 0.13823
 N934 N 0.88315 0.53494 0.13977
 N935 N 0.90046 0.53568 0.15247
 C936 C 0.90462 0.51836 0.16426
 N937 N 0.89062 0.50034 0.16295
 N938 N 0.87334 0.49957 0.15018
 C939 C 0.92465 0.51860 0.17721
 C940 C 0.92770 0.50224 0.19172
 C941 C 0.94730 0.50157 0.20267
 C942 C 0.96429 0.51709 0.19911
 C943 C 0.96105 0.53380 0.18511
 C944 C 0.94141 0.53463 0.17437
 H945 H 0.84296 0.48043 0.12569
 H946 H 0.81419 0.47775 0.09867
 H947 H 0.82533 0.54734 0.08904
 H948 H 0.85395 0.55016 0.11611
 H949 H 0.91508 0.48971 0.19435
 H950 H 0.94946 0.48845 0.21330
 H951 H 0.97384 0.54610 0.18228
 H952 H 0.93962 0.54748 0.16336
 C953 C 0.39330 -0.02667 0.64529
 C954 C 0.38890 -0.01688 0.66672
 C955 C 0.40473 -0.01585 0.68285
 C956 C 0.42535 -0.02447 0.67790
 C957 C 0.42966 -0.03438 0.65650
 C958 C 0.41383 -0.03554 0.64043
 C959 C 0.37687 -0.02719 0.62789
 N960 N 0.38040 -0.03862 0.60792
 N961 N 0.36611 -0.03845 0.59195
 C962 C 0.34767 -0.02683 0.59522
 N963 N 0.34404 -0.01553 0.61527
 N964 N 0.35832 -0.01574 0.63128
 C965 C 0.33248 -0.02567 0.57693
 C966 C 0.31487 -0.01138 0.57921
 C967 C 0.30172 -0.00899 0.56128
 C968 C 0.30591 -0.02082 0.54072
 C969 C 0.32296 -0.03576 0.53871
 C970 C 0.33609 -0.03814 0.55657
 H971 H 0.37322 -0.01000 0.67106
 H972 H 0.40075 -0.00841 0.69926
 H973 H 0.44547 -0.04084 0.65198
 H974 H 0.41785 -0.04307 0.62407
 H975 H 0.31160 -0.00155 0.59466
 H976 H 0.28879 0.00276 0.56328
 H977 H 0.32633 -0.04544 0.52318
 H978 H 0.34934 -0.04949 0.55426
   
