data_POSCAR
  _audit_creation_date              2014-09-24
  _audit_creation_method            'ToBaCCo'
  _symmetry_space_group_name_H-M    'P1'
  _symmetry_Int_Tables_number       1
  _symmetry_cell_setting            triclinic
  loop_
  _symmetry_equiv_pos_as_xyz
 x,y,z
_cell_length_a 51.6302
_cell_length_b 54.3767
_cell_length_c 30.8161
_cell_angle_alpha 90.002000
_cell_angle_beta 90.059200
_cell_angle_gamma 90.005600
loop_
  _atom_site_label
  _atom_site_type_symbol
  _atom_site_fract_x
  _atom_site_fract_y
  _atom_site_fract_z
C1 C 0.32371 0.26375 0.30168
 C2 C 0.32427 0.23857 0.30115
 C3 C 0.29915 0.23074 0.29289
 N4 N 0.28343 0.25037 0.28731
 C5 C 0.29844 0.27056 0.29254
 C6 C 0.29073 0.20591 0.29246
 C7 C 0.26614 0.19923 0.27551
 C8 C 0.25280 0.17796 0.28643
 C9 C 0.23054 0.17771 0.26213
 C10 C 0.23077 0.19882 0.23682
 N11 N 0.25239 0.21207 0.24564
 C12 C 0.21152 0.20506 0.20580
 C13 C 0.20789 0.22969 0.19216
 C14 C 0.19401 0.23701 0.15579
 C15 C 0.19359 0.26221 0.15621
 C16 C 0.20754 0.26945 0.19241
 N17 N 0.21636 0.24959 0.21431
 C18 C 0.21056 0.29402 0.20625
 C19 C 0.22924 0.30108 0.23734
 C20 C 0.23027 0.32382 0.25763
 C21 C 0.25265 0.32416 0.28187
 C22 C 0.26451 0.30150 0.27610
 N23 N 0.25013 0.28758 0.24886
 C24 C 0.28917 0.29499 0.29228
 H25 H 0.34009 0.27562 0.30807
 H26 H 0.34130 0.22735 0.30638
 H27 H 0.25589 0.27111 0.23470
 H28 H 0.25839 0.16415 0.30993
 H29 H 0.21569 0.16368 0.26338
 H30 H 0.18511 0.22542 0.13144
 H31 H 0.18419 0.27386 0.13249
 H32 H 0.25958 0.33957 0.30078
 H33 H 0.25863 0.22771 0.22913
 H34 H 0.21663 0.33883 0.25453
 C35 C 0.82182 0.23633 0.19361
 C36 C 0.82160 0.26153 0.19185
 C37 C 0.79685 0.26887 0.20343
 N38 N 0.78200 0.24904 0.21238
 C39 C 0.79727 0.22913 0.20670
 C40 C 0.78779 0.29338 0.20281
 C41 C 0.76325 0.30028 0.21897
 C42 C 0.75113 0.32254 0.21055
 C43 C 0.72866 0.32278 0.23448
 C44 C 0.72775 0.30070 0.25693
 N45 N 0.74886 0.28708 0.24724
 C46 C 0.70888 0.29441 0.28813
 C47 C 0.70560 0.27017 0.30353
 C48 C 0.69158 0.26385 0.34013
 C49 C 0.69182 0.23869 0.34237
 C50 C 0.70567 0.23041 0.30664
 N51 N 0.71428 0.24975 0.28310
 C52 C 0.70942 0.20536 0.29534
 C53 C 0.72892 0.19812 0.26540
 C54 C 0.72991 0.17559 0.24423
 C55 C 0.75237 0.17530 0.22040
 C56 C 0.76424 0.19789 0.22660
 N57 N 0.74987 0.21169 0.25413
 C58 C 0.78860 0.20457 0.20934
 H59 H 0.83810 0.22468 0.18551
 H60 H 0.83772 0.27307 0.18248
 H61 H 0.75547 0.22829 0.26809
 H62 H 0.75789 0.33718 0.18964
 H63 H 0.71477 0.33767 0.23567
 H64 H 0.68231 0.27610 0.36303
 H65 H 0.68292 0.22777 0.36763
 H66 H 0.75908 0.16012 0.20072
 H67 H 0.75460 0.27109 0.26309
 H68 H 0.71594 0.16079 0.24575
 C69 C 0.82390 0.76272 0.80257
 C70 C 0.82326 0.73753 0.80320
 C71 C 0.79780 0.73081 0.79556
 N72 N 0.78278 0.75102 0.79061
 C73 C 0.79870 0.77061 0.79524
 C74 C 0.78854 0.70639 0.79565
 C75 C 0.76404 0.69985 0.77889
 C76 C 0.75172 0.67756 0.78602
 C77 C 0.72964 0.67764 0.76099
 C78 C 0.72913 0.69997 0.73926
 N79 N 0.75015 0.71341 0.75044
 C80 C 0.71047 0.70679 0.70792
 C81 C 0.70725 0.73131 0.69383
 C82 C 0.69184 0.73864 0.65931
 C83 C 0.69230 0.76387 0.65889
 C84 C 0.70802 0.77105 0.69310
 N85 N 0.71712 0.75115 0.71441
 C86 C 0.71196 0.79554 0.70657
 C87 C 0.73092 0.80220 0.73748
 C88 C 0.73123 0.82426 0.75997
 C89 C 0.75330 0.82425 0.78488
 C90 C 0.76613 0.80230 0.77650
 N91 N 0.75219 0.78885 0.74781
 C92 C 0.79051 0.79552 0.79423
 H93 H 0.84106 0.77391 0.80673
 H94 H 0.83970 0.72553 0.80831
 H95 H 0.75820 0.77270 0.73270
 H96 H 0.75814 0.66265 0.80667
 H97 H 0.71570 0.66282 0.75872
 H98 H 0.68117 0.72705 0.63703
 H99 H 0.68201 0.77558 0.63631
 H100 H 0.75917 0.83877 0.80680
 H101 H 0.75632 0.72957 0.73562
 H102 H 0.71696 0.83882 0.75872
 C103 C 0.19491 0.76168 0.84690
 C104 C 0.19482 0.73653 0.84645
 C105 C 0.20687 0.72939 0.80829
 N106 N 0.21463 0.74939 0.78556
 C107 C 0.20701 0.76918 0.80898
 C108 C 0.20986 0.70469 0.79440
 C109 C 0.22896 0.69810 0.76342
 C110 C 0.22956 0.67619 0.74030
 C111 C 0.25209 0.67619 0.71665
 C112 C 0.26434 0.69839 0.72488
 N113 N 0.25012 0.71165 0.75342
 C114 C 0.28884 0.70519 0.70838
 C115 C 0.29777 0.72971 0.70755
 C116 C 0.32202 0.73704 0.69324
 C117 C 0.32202 0.76225 0.69344
 C118 C 0.29777 0.76950 0.70790
 N119 N 0.28293 0.74958 0.71617
 C120 C 0.28885 0.79401 0.70919
 C121 C 0.26442 0.80074 0.72610
 C122 C 0.25224 0.82305 0.71860
 C123 C 0.22980 0.82293 0.74249
 C124 C 0.22918 0.80082 0.76499
 N125 N 0.25025 0.78728 0.75442
 C126 C 0.21013 0.79401 0.79592
 H127 H 0.18726 0.77315 0.87256
 H128 H 0.18708 0.72482 0.87170
 H129 H 0.25603 0.77104 0.76944
 H130 H 0.21535 0.66156 0.74056
 H131 H 0.25858 0.66144 0.69579
 H132 H 0.33784 0.72549 0.68253
 H133 H 0.33784 0.77386 0.68295
 H134 H 0.21566 0.83761 0.74331
 H135 H 0.25593 0.72774 0.76894
 H136 H 0.25873 0.83795 0.69807
 O137 O 0.97583 -0.01045 -0.04889
 O138 O 1.02689 0.02977 -0.00483
 O139 O 1.02622 -0.01140 -0.04788
 O140 O 0.97660 0.03092 -0.00574
 O141 O 0.97489 0.00963 0.05516
 O142 O 1.02588 -0.03160 0.01417
 O143 O 1.02531 0.00968 0.05730
 O144 O 0.97558 -0.03157 0.01222
 Cu145 Cu 1.00144 0.01177 -0.03302
 Cu146 Cu 1.00034 -0.01302 0.04090
 C147 C 0.96715 -0.02807 -0.02603
 C148 C 1.03466 0.02676 0.03394
 C149 C 1.03460 -0.02873 -0.02403
 C150 C 0.96722 0.02749 0.03188
 O151 O 0.52601 0.47042 0.50732
 O152 O 0.47507 0.51117 0.54994
 O153 O 0.47591 0.46981 0.50720
 O154 O 0.52561 0.51172 0.55040
 O155 O 0.52579 0.53205 0.48846
 O156 O 0.47495 0.49098 0.44613
 O157 O 0.47566 0.53236 0.48887
 O158 O 0.52548 0.49072 0.44536
 Cu159 Cu 0.50068 0.48876 0.53495
 Cu160 Cu 0.50047 0.51356 0.46098
 C161 C 0.53425 0.47340 0.46885
 C162 C 0.46683 0.52889 0.52683
 C163 C 0.46693 0.47321 0.46929
 C164 C 0.53420 0.52909 0.52686
 O165 O 0.02461 0.50974 -0.05385
 O166 O -0.02606 0.46833 -0.01216
 O167 O -0.02575 0.51000 -0.05399
 O168 O 0.02428 0.46800 -0.01205
 O169 O 0.02459 0.48817 0.05005
 O170 O -0.02573 0.52997 0.00830
 O171 O -0.02577 0.48828 0.05015
 O172 O 0.02463 0.52981 0.00835
 Cu173 Cu -0.00074 0.48701 -0.03925
 Cu174 Cu -0.00057 0.51106 0.03545
 C175 C 0.03321 0.52695 -0.02994
 C176 C -0.03449 0.47113 0.02624
 C177 C -0.03426 0.52722 -0.03009
 C178 C 0.03295 0.47083 0.02622
 O179 O 0.47398 1.03129 0.51071
 O180 O 0.52386 0.98996 0.55507
 O181 O 0.52425 1.03134 0.51238
 O182 O 0.47338 0.98990 0.55318
 O183 O 0.47484 0.96892 0.49193
 O184 O 0.52467 1.01119 0.45027
 O185 O 0.52507 0.96984 0.49295
 O186 O 0.47424 1.01047 0.44928
 Cu187 Cu 0.49879 1.01265 0.53905
 Cu188 Cu 0.49976 0.98807 0.46489
 C189 C 0.46558 1.02799 0.47239
 C190 C 0.53304 0.97283 0.53161
 C191 C 0.53303 1.02849 0.47421
 C192 C 0.46560 0.97218 0.52969
 C193 C 1.16147 0.14924 0.15760
 C194 C 1.15142 0.17189 0.17151
 C195 C 1.16785 0.19024 0.18721
 C196 C 1.19482 0.18641 0.18967
 C197 C 1.20476 0.16351 0.17610
 C198 C 1.18830 0.14524 0.15999
 C199 C 1.14394 0.12997 0.14039
 C200 C 1.15027 0.11709 0.10233
 C201 C 1.13324 0.09959 0.08524
 C202 C 1.10967 0.09446 0.10612
 C203 C 1.10355 0.10705 0.14458
 C204 C 1.12046 0.12469 0.16144
 C205 C 1.09120 0.07646 0.08740
 C206 C 1.07849 0.05939 0.11415
 C207 C 1.06044 0.04298 0.09669
 C208 C 1.05454 0.04345 0.05215
 C209 C 1.06744 0.06040 0.02534
 C210 C 1.08566 0.07666 0.04276
 H211 H 1.13082 0.17551 0.16983
 H212 H 1.15933 0.20730 0.19842
 H213 H 1.22539 0.15995 0.17696
 H214 H 1.19652 0.12787 0.14972
 H215 H 1.16816 0.12093 0.08530
 H216 H 1.13852 0.09001 0.05573
 H217 H 1.08542 0.10361 0.16114
 H218 H 1.11521 0.13420 0.19103
 H219 H 1.08259 0.05869 0.14860
 H220 H 1.05084 0.03014 0.11820
 H221 H 1.06336 0.06121 -0.00910
 H222 H 1.09498 0.08979 0.02147
 C223 C 0.65943 0.65177 0.65505
 C224 C 0.68640 0.64968 0.64986
 C225 C 0.70298 0.66748 0.66720
 C226 C 0.69291 0.68758 0.69025
 C227 C 0.66603 0.68947 0.69612
 C228 C 0.64944 0.67180 0.67853
 C229 C 0.64172 0.63334 0.63558
 C230 C 0.61909 0.64093 0.61405
 C231 C 0.60234 0.62366 0.59566
 C232 C 0.60776 0.59839 0.59863
 C233 C 0.63037 0.59077 0.62021
 C234 C 0.64725 0.60808 0.63834
 C235 C 0.58970 0.58011 0.57958
 C236 C 0.58285 0.55884 0.60275
 C237 C 0.56503 0.54212 0.58548
 C238 C 0.55383 0.54625 0.54452
 C239 C 0.56106 0.56732 0.52103
 C240 C 0.57873 0.58410 0.53844
 H241 H 0.69460 0.63456 0.63161
 H242 H 0.72368 0.66576 0.66231
 H243 H 0.65794 0.70474 0.71416
 H244 H 0.62878 0.67368 0.68355
 H245 H 0.61448 0.66029 0.61106
 H246 H 0.58493 0.63005 0.57960
 H247 H 0.63511 0.57142 0.62271
 H248 H 0.66446 0.60171 0.65501
 H249 H 0.59083 0.55541 0.63470
 H250 H 0.55987 0.52607 0.60438
 H251 H 0.55281 0.57103 0.48938
 H252 H 0.58389 0.60019 0.51964
 C253 C -0.16247 0.34897 0.14854
 C254 C -0.16984 0.34990 0.19245
 C255 C -0.18615 0.33195 0.20987
 C256 C -0.19542 0.31275 0.18376
 C257 C -0.18849 0.31194 0.13978
 C258 C -0.17212 0.32986 0.12232
 C259 C -0.14443 0.36761 0.13040
 C260 C -0.14812 0.37708 0.08840
 C261 C -0.13088 0.39435 0.07124
 C262 C -0.10959 0.40256 0.09574
 C263 C -0.10596 0.39316 0.13778
 C264 C -0.12316 0.37587 0.15489
 C265 C -0.09101 0.42063 0.07743
 C266 C -0.08110 0.43971 0.10334
 C267 C -0.06302 0.45628 0.08656
 C268 C -0.05437 0.45411 0.04349
 C269 C -0.06451 0.43520 0.01741
 C270 C -0.08266 0.41866 0.03418
 H271 H -0.16307 0.36459 0.21331
 H272 H -0.19142 0.33290 0.24385
 H273 H -0.19556 0.29727 0.11914
 H274 H -0.16660 0.32847 0.08853
 H275 H -0.16453 0.37135 0.06896
 H276 H -0.13437 0.40151 0.03897
 H277 H -0.08949 0.39881 0.15716
 H278 H -0.11949 0.36861 0.18703
 H279 H -0.08744 0.44190 0.13661
 H280 H -0.05566 0.47068 0.10748
 H281 H -0.05823 0.43300 -0.01588
 H282 H -0.08973 0.40399 0.01357
 C283 C 0.33839 0.84967 0.65461
 C284 C 0.34340 0.83982 0.69605
 C285 C 0.32705 0.82204 0.71393
 C286 C 0.30560 0.81348 0.69054
 C287 C 0.30054 0.82301 0.64913
 C288 C 0.31662 0.84111 0.63149
 C289 C 0.35596 0.86851 0.63546
 C290 C 0.36096 0.86890 0.59060
 C291 C 0.37782 0.88628 0.57279
 C292 C 0.39047 0.90354 0.59941
 C293 C 0.38539 0.90321 0.64425
 C294 C 0.36823 0.88607 0.66196
 C295 C 0.40922 0.92148 0.58069
 C296 C 0.41171 0.94528 0.59819
 C297 C 0.42998 0.96176 0.58160
 C298 C 0.44586 0.95499 0.54663
 C299 C 0.44311 0.93145 0.52853
 C300 C 0.42516 0.91481 0.54557
 H301 H 0.36023 0.84550 0.71446
 H302 H 0.33132 0.81466 0.74578
 H303 H 0.28406 0.81649 0.63065
 H304 H 0.31186 0.84850 0.59987
 H305 H 0.35219 0.85550 0.56917
 H306 H 0.38086 0.88618 0.53805
 H307 H 0.39500 0.91594 0.66594
 H308 H 0.36456 0.88667 0.69652
 H309 H 0.39944 0.95129 0.62459
 H310 H 0.43153 0.97988 0.59595
 H311 H 0.45526 0.92565 0.50180
 H312 H 0.42423 0.89654 0.53175
 C313 C -0.16185 0.65021 -0.15140
 C314 C -0.17007 0.64908 -0.19490
 C315 C -0.18634 0.66720 -0.21195
 C316 C -0.19473 0.68677 -0.18585
 C317 C -0.18682 0.68783 -0.14232
 C318 C -0.17053 0.66974 -0.12524
 C319 C -0.14393 0.63135 -0.13361
 C320 C -0.14717 0.62228 -0.09123
 C321 C -0.12997 0.60489 -0.07427
 C322 C -0.10917 0.59617 -0.09932
 C323 C -0.10604 0.60513 -0.14177
 C324 C -0.12321 0.62252 -0.15871
 C325 C -0.09058 0.57805 -0.08112
 C326 C -0.08117 0.55867 -0.10683
 C327 C -0.06312 0.54202 -0.09012
 C328 C -0.05403 0.54439 -0.04731
 C329 C -0.06364 0.56362 -0.02143
 C330 C -0.08173 0.58025 -0.03815
 H331 H -0.16401 0.63411 -0.21570
 H332 H -0.19227 0.66609 -0.24562
 H333 H -0.19313 0.70281 -0.12171
 H334 H -0.16430 0.67129 -0.09180
 H335 H -0.16317 0.62844 -0.07132
 H336 H -0.13311 0.59807 -0.04169
 H337 H -0.08996 0.59907 -0.16162
 H338 H -0.11993 0.62944 -0.19118
 H339 H -0.08788 0.55629 -0.13987
 H340 H -0.05617 0.52737 -0.11087
 H341 H -0.05700 0.56599 0.01165
 H342 H -0.08838 0.59515 -0.01770
 C343 C 0.33889 1.15032 0.34661
 C344 C 0.33478 1.17250 0.36890
 C345 C 0.31895 1.19077 0.35123
 C346 C 0.30672 1.18733 0.31075
 C347 C 0.31055 1.16484 0.28892
 C348 C 0.32656 1.14666 0.30650
 C349 C 0.35627 1.13123 0.36494
 C350 C 0.37428 1.11909 0.33835
 C351 C 0.39127 1.10171 0.35587
 C352 C 0.39053 1.09597 0.40035
 C353 C 0.37220 1.10786 0.42678
 C354 C 0.35532 1.12534 0.40929
 C355 C 0.40919 1.07809 0.41927
 C356 C 0.42023 1.08235 0.46032
 C357 C 0.43826 1.06593 0.47773
 C358 C 0.44581 1.04490 0.45444
 C359 C 0.43465 1.04050 0.41354
 C360 C 0.41651 1.05689 0.39620
 H361 H 0.34411 1.17586 0.39983
 H362 H 0.31586 1.20745 0.36972
 H363 H 0.30168 1.16155 0.25757
 H364 H 0.32919 1.12964 0.28879
 H365 H 0.37568 1.12350 0.30416
 H366 H 0.40541 1.09321 0.33474
 H367 H 0.37079 1.10355 0.46099
 H368 H 0.34137 1.13414 0.43041
 H369 H 0.41536 1.09868 0.47866
 H370 H 0.44658 1.06992 0.50923
 H371 H 0.43996 1.02441 0.39487
 H372 H 0.40809 1.05286 0.36480
 C373 C 1.16058 -0.15183 -0.14892
 C374 C 1.18725 -0.14732 -0.15325
 C375 C 1.20356 -0.16502 -0.17156
 C376 C 1.19363 -0.18774 -0.18605
 C377 C 1.16683 -0.19205 -0.18184
 C378 C 1.15057 -0.17436 -0.16359
 C379 C 1.14320 -0.13320 -0.12910
 C380 C 1.12327 -0.14047 -0.10083
 C381 C 1.10649 -0.12308 -0.08291
 C382 C 1.10925 -0.09799 -0.09278
 C383 C 1.12934 -0.09067 -0.12071
 C384 C 1.14614 -0.10808 -0.13864
 C385 C 1.09090 -0.07965 -0.07461
 C386 C 1.08144 -0.06036 -0.10052
 C387 C 1.06341 -0.04365 -0.08395
 C388 C 1.05442 -0.04586 -0.04108
 C389 C 1.06416 -0.06494 -0.01497
 C390 C 1.08219 -0.08163 -0.03155
 H391 H 1.19561 -0.13028 -0.14163
 H392 H 1.22413 -0.16120 -0.17312
 H393 H 1.15828 -0.20899 -0.19360
 H394 H 1.13002 -0.17819 -0.16156
 H395 H 1.12069 -0.15965 -0.09241
 H396 H 1.09105 -0.12936 -0.06190
 H397 H 1.13213 -0.07144 -0.12859
 H398 H 1.16117 -0.10191 -0.16058
 H399 H 1.08751 -0.05851 -0.13399
 H400 H 1.05626 -0.02920 -0.10495
 H401 H 1.05772 -0.06709 0.01825
 H402 H 1.08940 -0.09607 -0.01057
 C403 C 0.65843 0.35018 0.33998
 C404 C 0.68546 0.35246 0.34400
 C405 C 0.70187 0.33446 0.32687
 C406 C 0.69155 0.31398 0.30518
 C407 C 0.66460 0.31189 0.30049
 C408 C 0.64819 0.32977 0.31783
 C409 C 0.64092 0.36876 0.35945
 C410 C 0.61867 0.36131 0.38212
 C411 C 0.60211 0.37871 0.40056
 C412 C 0.60736 0.40396 0.39657
 C413 C 0.62960 0.41144 0.37384
 C414 C 0.64628 0.39401 0.35563
 C415 C 0.58951 0.42235 0.41575
 C416 C 0.58225 0.44340 0.39227
 C417 C 0.56454 0.46016 0.40968
 C418 C 0.55385 0.45629 0.45107
 C419 C 0.56153 0.43547 0.47487
 C420 C 0.57910 0.41866 0.45736
 H421 H 0.69386 0.36787 0.36125
 H422 H 0.72261 0.33632 0.33099
 H423 H 0.65630 0.29629 0.28359
 H424 H 0.62747 0.32771 0.31373
 H425 H 0.61419 0.34197 0.38596
 H426 H 0.58498 0.37241 0.41750
 H427 H 0.63421 0.43078 0.37053
 H428 H 0.66320 0.40027 0.33807
 H429 H 0.58978 0.44659 0.35998
 H430 H 0.55902 0.47601 0.39052
 H431 H 0.55370 0.43197 0.50687
 H432 H 0.58461 0.40276 0.47641
 C433 C 0.83944 -0.14929 -0.15231
 C434 C 0.83489 -0.17128 -0.12969
 C435 C 0.81882 -0.18940 -0.14719
 C436 C 0.80673 -0.18599 -0.18779
 C437 C 0.81112 -0.16374 -0.21009
 C438 C 0.82736 -0.14569 -0.19266
 C439 C 0.85700 -0.13033 -0.13402
 C440 C 0.87528 -0.11850 -0.16053
 C441 C 0.89244 -0.10127 -0.14298
 C442 C 0.89162 -0.09539 -0.09856
 C443 C 0.87301 -0.10696 -0.07223
 C444 C 0.85595 -0.12427 -0.08974
 C445 C 0.91046 -0.07771 -0.07959
 C446 C 0.92134 -0.08206 -0.03845
 C447 C 0.93949 -0.06580 -0.02092
 C448 C 0.94731 -0.04485 -0.04418
 C449 C 0.93633 -0.04038 -0.08518
 C450 C 0.91808 -0.05660 -0.10265
 H451 H 0.84407 -0.17462 -0.09862
 H452 H 0.81543 -0.20596 -0.12848
 H453 H 0.80250 -0.16054 -0.24166
 H454 H 0.83037 -0.12883 -0.21066
 H455 H 0.87675 -0.12304 -0.19465
 H456 H 0.90678 -0.09300 -0.16403
 H457 H 0.87154 -0.10252 -0.03807
 H458 H 0.84179 -0.13282 -0.06868
 H459 H 0.91622 -0.09833 -0.02011
 H460 H 0.94767 -0.06985 0.01066
 H461 H 0.94186 -0.02434 -0.10384
 H462 H 0.90980 -0.05253 -0.13413
 C463 C 0.33875 0.35127 0.34488
 C464 C 0.34330 0.34151 0.30322
 C465 C 0.32693 0.32354 0.28591
 C466 C 0.30600 0.31464 0.31015
 C467 C 0.30131 0.32421 0.35161
 C468 C 0.31737 0.34251 0.36867
 C469 C 0.35649 0.37011 0.36366
 C470 C 0.36191 0.37041 0.40840
 C471 C 0.37894 0.38774 0.42593
 C472 C 0.39141 0.40501 0.39914
 C473 C 0.38589 0.40480 0.35443
 C474 C 0.36853 0.38773 0.33699
 C475 C 0.41042 0.42281 0.41762
 C476 C 0.41296 0.44665 0.40031
 C477 C 0.43132 0.46303 0.41700
 C478 C 0.44725 0.45611 0.45187
 C479 C 0.44454 0.43248 0.46962
 C480 C 0.42652 0.41596 0.45248
 H481 H 0.35980 0.34737 0.28423
 H482 H 0.33083 0.31623 0.25388
 H483 H 0.28513 0.31756 0.37063
 H484 H 0.31289 0.34988 0.40041
 H485 H 0.35336 0.35698 0.42996
 H486 H 0.38228 0.38757 0.46060
 H487 H 0.39532 0.41756 0.33261
 H488 H 0.36453 0.38839 0.30253
 H489 H 0.40060 0.45279 0.37407
 H490 H 0.43288 0.48122 0.40289
 H491 H 0.45675 0.42656 0.49623
 H492 H 0.42561 0.39763 0.46609
 C493 C 0.15973 0.65027 -0.15274
 C494 C 0.18637 0.64562 -0.15699
 C495 C 0.20288 0.66341 -0.17453
 C496 C 0.19317 0.68636 -0.18833
 C497 C 0.16638 0.69080 -0.18419
 C498 C 0.14993 0.67302 -0.16671
 C499 C 0.14215 0.63157 -0.13360
 C500 C 0.12227 0.63871 -0.10515
 C501 C 0.10539 0.62126 -0.08769
 C502 C 0.10800 0.59624 -0.09821
 C503 C 0.12799 0.58905 -0.12642
 C504 C 0.14491 0.60652 -0.14388
 C505 C 0.08964 0.57784 -0.08025
 C506 C 0.07996 0.55876 -0.10643
 C507 C 0.06190 0.54203 -0.08997
 C508 C 0.05311 0.54403 -0.04695
 C509 C 0.06309 0.56287 -0.02058
 C510 C 0.08115 0.57957 -0.03703
 H511 H 0.19456 0.62841 -0.14587
 H512 H 0.22342 0.65948 -0.17602
 H513 H 0.15800 0.70793 -0.19543
 H514 H 0.12941 0.67698 -0.16470
 H515 H 0.11983 0.65782 -0.09617
 H516 H 0.09001 0.62744 -0.06647
 H517 H 0.13066 0.56988 -0.13480
 H518 H 0.15990 0.60047 -0.16599
 H519 H 0.08588 0.55710 -0.14000
 H520 H 0.05455 0.52775 -0.11116
 H521 H 0.05683 0.56485 0.01277
 H522 H 0.08854 0.59383 -0.01584
 C523 C 0.65954 1.15145 0.35040
 C524 C 0.68638 1.14738 0.34834
 C525 C 0.70280 1.16503 0.33016
 C526 C 0.69281 1.18725 0.31351
 C527 C 0.66583 1.19108 0.31536
 C528 C 0.64946 1.17346 0.33356
 C529 C 0.64202 1.13288 0.37006
 C530 C 0.62137 1.14031 0.39668
 C531 C 0.60450 1.12295 0.41448
 C532 C 0.60787 1.09776 0.40605
 C533 C 0.62865 1.09030 0.37971
 C534 C 0.64558 1.10767 0.36198
 C535 C 0.58946 1.07944 0.42408
 C536 C 0.58065 1.05973 0.39852
 C537 C 0.56256 1.04303 0.41494
 C538 C 0.55289 1.04565 0.45732
 C539 C 0.56199 1.06516 0.48310
 C540 C 0.58005 1.08186 0.46666
 H541 H 0.69475 1.13074 0.36160
 H542 H 0.72347 1.16159 0.33022
 H543 H 0.65726 1.20756 0.30176
 H544 H 0.62881 1.17690 0.33383
 H545 H 0.61830 1.15957 0.40393
 H546 H 0.58852 1.12931 0.43425
 H547 H 0.63190 1.07100 0.37298
 H548 H 0.66119 1.10140 0.34131
 H549 H 0.58730 1.05753 0.36543
 H550 H 0.55592 1.02823 0.39421
 H551 H 0.55501 1.06765 0.51593
 H552 H 0.58674 1.09666 0.48735
 C553 C 0.15943 0.34844 0.15172
 C554 C 0.18640 0.35076 0.14705
 C555 C 0.20305 0.33315 0.16485
 C556 C 0.19301 0.31304 0.18790
 C557 C 0.16610 0.31084 0.19303
 C558 C 0.14946 0.32833 0.17500
 C559 C 0.14166 0.36678 0.13214
 C560 C 0.11911 0.35909 0.11046
 C561 C 0.10218 0.37630 0.09235
 C562 C 0.10735 0.40160 0.09574
 C563 C 0.12992 0.40931 0.11732
 C564 C 0.14697 0.39207 0.13518
 C565 C 0.08901 0.41982 0.07727
 C566 C 0.08211 0.44091 0.10093
 C567 C 0.06407 0.45759 0.08422
 C568 C 0.05268 0.45362 0.04336
 C569 C 0.05993 0.43272 0.01940
 C570 C 0.07783 0.41598 0.03624
 H571 H 0.19459 0.36595 0.12893
 H572 H 0.22375 0.33507 0.16038
 H573 H 0.15802 0.29552 0.21094
 H574 H 0.12879 0.32625 0.17961
 H575 H 0.11466 0.33971 0.10724
 H576 H 0.08481 0.36983 0.07628
 H577 H 0.13448 0.42869 0.12011
 H578 H 0.16410 0.39852 0.15198
 H579 H 0.09023 0.44421 0.13282
 H580 H 0.05891 0.47351 0.10348
 H581 H 0.05154 0.42914 -0.01220
 H582 H 0.08302 0.40003 0.01708
 C583 C 0.66103 0.85146 0.65645
 C584 C 0.68785 0.85269 0.64879
 C585 C 0.70441 0.83459 0.66521
 C586 C 0.69444 0.81492 0.68943
 C587 C 0.66772 0.81371 0.69741
 C588 C 0.65117 0.83179 0.68104
 C589 C 0.64330 0.87042 0.63852
 C590 C 0.62251 0.87935 0.66335
 C591 C 0.60537 0.89665 0.64605
 C592 C 0.60859 0.90540 0.60349
 C593 C 0.62955 0.89668 0.57880
 C594 C 0.64673 0.87940 0.59614
 C595 C 0.58985 0.92318 0.58468
 C596 C 0.58126 0.92056 0.54163
 C597 C 0.56302 0.93681 0.52429
 C598 C 0.55295 0.95607 0.54960
 C599 C 0.56175 0.95886 0.59249
 C600 C 0.57999 0.94259 0.60984
 H601 H 0.69605 0.86777 0.63043
 H602 H 0.72501 0.83583 0.65891
 H603 H 0.65972 0.79869 0.71619
 H604 H 0.63058 0.83015 0.68704
 H605 H 0.61953 0.87299 0.69627
 H606 H 0.58927 0.90282 0.66574
 H607 H 0.63270 0.90326 0.54607
 H608 H 0.66242 0.87271 0.57606
 H609 H 0.58823 0.90561 0.52159
 H610 H 0.55660 0.93411 0.49116
 H611 H 0.55446 0.97356 0.61281
 H612 H 0.58648 0.94528 0.64292
 C613 C 0.83869 0.14893 0.15626
 C614 C 0.81691 0.15718 0.13287
 C615 C 0.80062 0.17522 0.15013
 C616 C 0.80548 0.18499 0.19141
 C617 C 0.82688 0.17666 0.21518
 C618 C 0.84345 0.15893 0.19769
 C619 C 0.85659 0.13030 0.13734
 C620 C 0.86900 0.11289 0.16396
 C621 C 0.88642 0.09594 0.14640
 C622 C 0.89163 0.09566 0.10160
 C623 C 0.87887 0.11278 0.07487
 C624 C 0.86174 0.12997 0.09253
 C625 C 0.91059 0.07788 0.08299
 C626 C 0.92656 0.08469 0.04801
 C627 C 0.94462 0.06817 0.03096
 C628 C 0.94744 0.04460 0.04892
 C629 C 0.93154 0.03771 0.08379
 C630 C 0.91318 0.05407 0.10040
 H631 H 0.81232 0.14964 0.10129
 H632 H 0.78415 0.18153 0.13140
 H633 H 0.83098 0.18422 0.24697
 H634 H 0.86026 0.15346 0.21632
 H635 H 0.86524 0.11227 0.19849
 H636 H 0.89611 0.08331 0.16816
 H637 H 0.88202 0.11290 0.04015
 H638 H 0.85288 0.14327 0.07101
 H639 H 0.92555 0.10298 0.03427
 H640 H 0.95678 0.07406 0.00430
 H641 H 0.93315 0.01956 0.09805
 H642 H 0.90089 0.04796 0.12671
 C643 C 0.33860 0.64979 0.65358
 C644 C 0.31686 0.65837 0.63042
 C645 C 0.30072 0.67639 0.64812
 C646 C 0.30566 0.68580 0.68964
 C647 C 0.32708 0.67721 0.71308
 C648 C 0.34351 0.65953 0.69515
 C649 C 0.35631 0.63111 0.63431
 C650 C 0.36871 0.61356 0.66066
 C651 C 0.38604 0.59662 0.64282
 C652 C 0.39116 0.59648 0.59800
 C653 C 0.37834 0.61369 0.57152
 C654 C 0.36133 0.63089 0.58945
 C655 C 0.41015 0.57883 0.57912
 C656 C 0.42596 0.58580 0.54403
 C657 C 0.44403 0.56942 0.52666
 C658 C 0.44707 0.54582 0.54440
 C659 C 0.43138 0.53876 0.57944
 C660 C 0.41297 0.55499 0.59636
 H661 H 0.31217 0.65106 0.59871
 H662 H 0.28426 0.68293 0.62959
 H663 H 0.33126 0.68452 0.74504
 H664 H 0.36032 0.65385 0.71360
 H665 H 0.36502 0.61283 0.69520
 H666 H 0.39576 0.58391 0.66441
 H667 H 0.38140 0.61392 0.53678
 H668 H 0.35247 0.64428 0.56812
 H669 H 0.42481 0.60412 0.53044
 H670 H 0.45604 0.57545 0.49990
 H671 H 0.43317 0.52059 0.59352
 H672 H 0.40083 0.54875 0.62276
   
