data_POSCAR
  _audit_creation_date              2014-09-24
  _audit_creation_method            'ToBaCCo'
  _symmetry_space_group_name_H-M    'P1'
  _symmetry_Int_Tables_number       1
  _symmetry_cell_setting            triclinic
  loop_
  _symmetry_equiv_pos_as_xyz
 x,y,z
_cell_length_a 22.7428
_cell_length_b 22.3033
_cell_length_c 22.4847
_cell_angle_alpha 90.000100
_cell_angle_beta 89.999200
_cell_angle_gamma 89.999900
loop_
  _atom_site_label
  _atom_site_type_symbol
  _atom_site_fract_x
  _atom_site_fract_y
  _atom_site_fract_z
Zn1 Zn 0.80669 0.71861 0.80581
 Zn2 Zn 0.79385 0.77499 0.68595
 Zn3 Zn 0.69284 0.70727 0.73735
 Zn4 Zn 0.73113 0.82484 0.79100
 O5 O 0.75589 0.75616 0.75504
 O6 O 0.87988 0.71074 0.77544
 O7 O 0.75847 0.74641 0.62093
 O8 O 0.69835 0.63468 0.77293
 O9 O 0.86666 0.74610 0.68421
 O10 O 0.78215 0.64499 0.82256
 O11 O 0.68578 0.69242 0.65845
 O12 O 0.65323 0.82912 0.79373
 O13 O 0.80107 0.85389 0.67412
 O14 O 0.62353 0.74113 0.75873
 O15 O 0.75450 0.89039 0.75259
 O16 O 0.75624 0.83369 0.86637
 O17 O 0.81325 0.75419 0.87730
 C18 C 0.89882 0.72179 0.72342
 C19 C 0.71467 0.71202 0.61412
 C20 C 0.73776 0.61411 0.80746
 C21 C 0.61252 0.79291 0.77977
 C22 C 0.78317 0.89786 0.70486
 C23 C 0.78981 0.80136 0.89794
 Zn24 Zn 0.23023 0.71222 0.68432
 Zn25 Zn 0.19294 0.77328 0.79745
 Zn26 Zn 0.31063 0.71143 0.78777
 Zn27 Zn 0.28857 0.82593 0.72471
 O28 O 0.25539 0.75566 0.74861
 O29 O 0.15254 0.70151 0.68520
 O30 O 0.20202 0.74081 0.86936
 O31 O 0.32416 0.64080 0.75410
 O32 O 0.12415 0.74573 0.76869
 O33 O 0.26208 0.63807 0.67853
 O34 O 0.28825 0.69447 0.86192
 O35 O 0.36414 0.83242 0.74503
 O36 O 0.18219 0.85266 0.80971
 O37 O 0.38137 0.74685 0.79170
 O38 O 0.25378 0.89053 0.75494
 O39 O 0.28500 0.83563 0.64637
 O40 O 0.24513 0.75021 0.61580
 C41 C 0.11248 0.71718 0.72128
 C42 C 0.24262 0.70862 0.89115
 C43 C 0.30169 0.61381 0.71012
 C44 C 0.39858 0.79725 0.77235
 C45 C 0.21032 0.89736 0.78942
 C46 C 0.26633 0.80179 0.60525
 Zn47 Zn 0.73113 0.18699 0.79100
 Zn48 Zn 0.79385 0.23684 0.68595
 Zn49 Zn 0.69284 0.30456 0.73735
 Zn50 Zn 0.80669 0.29322 0.80581
 O51 O 0.75589 0.25567 0.75504
 O52 O 0.75450 0.12144 0.75259
 O53 O 0.75847 0.26542 0.62093
 O54 O 0.62353 0.27070 0.75873
 O55 O 0.80107 0.15793 0.67412
 O56 O 0.65323 0.18271 0.79373
 O57 O 0.68578 0.31941 0.65845
 O58 O 0.78215 0.36684 0.82256
 O59 O 0.86665 0.26573 0.68421
 O60 O 0.69835 0.37715 0.77293
 O61 O 0.87988 0.30109 0.77544
 O62 O 0.81325 0.25764 0.87730
 O63 O 0.75624 0.17813 0.86637
 C64 C 0.78317 0.11397 0.70486
 C65 C 0.71467 0.29981 0.61412
 C66 C 0.61252 0.21892 0.77977
 C67 C 0.73776 0.39772 0.80746
 C68 C 0.89882 0.29003 0.72342
 C69 C 0.78980 0.21047 0.89794
 Zn70 Zn 0.28857 0.18590 0.72471
 Zn71 Zn 0.19294 0.23856 0.79746
 Zn72 Zn 0.31063 0.30040 0.78777
 Zn73 Zn 0.23023 0.29961 0.68432
 O74 O 0.25539 0.25618 0.74861
 O75 O 0.25378 0.12131 0.75494
 O76 O 0.20201 0.27103 0.86936
 O77 O 0.38137 0.26498 0.79171
 O78 O 0.18219 0.15918 0.80972
 O79 O 0.36413 0.17941 0.74503
 O80 O 0.28825 0.31737 0.86192
 O81 O 0.26208 0.37376 0.67853
 O82 O 0.12415 0.26610 0.76869
 O83 O 0.32416 0.37103 0.75410
 O84 O 0.15254 0.31033 0.68520
 O85 O 0.24513 0.26162 0.61580
 O86 O 0.28500 0.17620 0.64637
 C87 C 0.21032 0.11447 0.78942
 C88 C 0.24262 0.30321 0.89115
 C89 C 0.39858 0.21458 0.77236
 C90 C 0.30169 0.39802 0.71012
 C91 C 0.11248 0.29466 0.72128
 C92 C 0.26633 0.21005 0.60525
 Zn93 Zn 0.70231 0.73684 0.18595
 Zn94 Zn 0.80332 0.80456 0.23735
 Zn95 Zn 0.68947 0.79322 0.30581
 Zn96 Zn 0.76503 0.68699 0.29100
 O97 O 0.74027 0.75567 0.25504
 O98 O 0.73769 0.76542 0.12093
 O99 O 0.79781 0.87715 0.27293
 O100 O 0.61628 0.80109 0.27544
 O101 O 0.81038 0.81941 0.15845
 O102 O 0.62951 0.76573 0.18421
 O103 O 0.71401 0.86684 0.32256
 O104 O 0.73992 0.67813 0.36637
 O105 O 0.87263 0.77070 0.25873
 O106 O 0.68291 0.75764 0.37730
 O107 O 0.84293 0.68271 0.29373
 O108 O 0.74167 0.62144 0.25259
 O109 O 0.69509 0.65793 0.17412
 C110 C 0.78149 0.79981 0.11412
 C111 C 0.75840 0.89772 0.30746
 C112 C 0.59734 0.79003 0.22342
 C113 C 0.70635 0.71047 0.39794
 C114 C 0.88364 0.71892 0.27977
 C115 C 0.71299 0.61397 0.20486
 Zn116 Zn 0.26594 0.79961 0.18432
 Zn117 Zn 0.20759 0.68590 0.22471
 Zn118 Zn 0.30322 0.73856 0.29746
 Zn119 Zn 0.18553 0.80040 0.28777
 O120 O 0.24077 0.75618 0.24861
 O121 O 0.25103 0.76162 0.11580
 O122 O 0.24238 0.62131 0.25494
 O123 O 0.37201 0.76610 0.26869
 O124 O 0.21115 0.67620 0.14637
 O125 O 0.34363 0.81032 0.18520
 O126 O 0.31396 0.65918 0.30972
 O127 O 0.20790 0.81737 0.36192
 O128 O 0.13203 0.67941 0.24504
 O129 O 0.29413 0.77103 0.36936
 O130 O 0.11478 0.76498 0.29170
 O131 O 0.17200 0.87103 0.25409
 O132 O 0.23409 0.87376 0.17853
 C133 C 0.22983 0.71005 0.10525
 C134 C 0.28584 0.61447 0.28942
 C135 C 0.38368 0.79465 0.22128
 C136 C 0.25353 0.80322 0.39115
 C137 C 0.09758 0.71459 0.27236
 C138 C 0.19447 0.89802 0.21011
 Zn139 Zn 0.70231 0.27499 0.18595
 Zn140 Zn 0.80332 0.20727 0.23735
 Zn141 Zn 0.76503 0.32484 0.29101
 Zn142 Zn 0.68947 0.21861 0.30581
 O143 O 0.74027 0.25616 0.25504
 O144 O 0.73769 0.24641 0.12093
 O145 O 0.87263 0.24112 0.25873
 O146 O 0.74166 0.39039 0.25259
 O147 O 0.81038 0.19242 0.15845
 O148 O 0.69509 0.35389 0.17412
 O149 O 0.84293 0.32912 0.29373
 O150 O 0.68291 0.25419 0.37730
 O151 O 0.79781 0.13468 0.27293
 O152 O 0.73992 0.33369 0.36637
 O153 O 0.71401 0.14499 0.32256
 O154 O 0.61628 0.21073 0.27544
 O155 O 0.62950 0.24610 0.18421
 C156 C 0.78149 0.21202 0.11412
 C157 C 0.88364 0.29290 0.27977
 C158 C 0.71299 0.39785 0.20486
 C159 C 0.70635 0.30136 0.39794
 C160 C 0.75840 0.11410 0.30746
 C161 C 0.59734 0.22179 0.22342
 Zn162 Zn 0.20759 0.32593 0.22471
 Zn163 Zn 0.26594 0.21222 0.18432
 Zn164 Zn 0.30322 0.27327 0.29746
 Zn165 Zn 0.18553 0.21143 0.28777
 O166 O 0.24077 0.25565 0.24861
 O167 O 0.21115 0.33563 0.14637
 O168 O 0.34362 0.20151 0.18520
 O169 O 0.31396 0.35266 0.30972
 O170 O 0.25103 0.25021 0.11580
 O171 O 0.24238 0.39053 0.25494
 O172 O 0.37201 0.24573 0.26869
 O173 O 0.20790 0.19446 0.36192
 O174 O 0.23409 0.13807 0.17853
 O175 O 0.29413 0.24081 0.36936
 O176 O 0.17200 0.14080 0.25409
 O177 O 0.11478 0.24685 0.29170
 O178 O 0.13202 0.33242 0.24504
 C179 C 0.22983 0.30179 0.10526
 C180 C 0.38368 0.21718 0.22128
 C181 C 0.28584 0.39736 0.28942
 C182 C 0.25353 0.20862 0.39115
 C183 C 0.19447 0.11381 0.21011
 C184 C 0.09758 0.29725 0.27236
 C185 C -0.04078 0.70613 0.70697
 C186 C -0.02591 0.68286 0.65225
 C187 C 0.03384 0.68079 0.65185
 C188 C 0.05101 0.70389 0.70606
 O189 O 0.00573 0.71919 0.73988
 H190 H -0.05524 0.67043 0.61640
 H191 H 0.06167 0.66678 0.61535
 C192 C 0.79508 -0.04082 0.68532
 C193 C 0.82519 -0.02472 0.63449
 C194 C 0.82519 0.03655 0.63449
 C195 C 0.79508 0.05264 0.68532
 O196 O 0.77686 0.00591 0.71607
 H197 H 0.84459 -0.05404 0.60155
 H198 H 0.84459 0.06587 0.60155
 C199 C 0.80091 0.81823 -0.03994
 C200 C 0.83342 0.86724 -0.02232
 C201 C 0.83217 0.86621 0.03849
 C202 C 0.79815 0.81716 0.05317
 O203 O 0.77925 0.78791 0.00561
 H204 H 0.85538 0.89962 -0.05045
 H205 H 0.85241 0.89808 0.06846
 C206 C 0.55138 0.81342 0.78585
 C207 C 0.53620 0.87279 0.79404
 C208 C 0.47653 0.87433 0.79058
 C209 C 0.45970 0.81573 0.78153
 O210 O 0.50494 0.77846 0.77842
 H211 H 0.56537 0.91073 0.79956
 H212 H 0.44855 0.91348 0.79360
 C213 C 0.19293 -0.04105 0.80482
 C214 C 0.14690 -0.02480 0.84142
 C215 C 0.14690 0.03663 0.84142
 C216 C 0.19293 0.05288 0.80482
 O217 O 0.22074 0.00592 0.78272
 H218 H 0.11685 -0.05410 0.86483
 H219 H 0.11685 0.06593 0.86483
 C220 C 0.23663 0.68740 -0.04804
 C221 C 0.23430 0.62788 -0.03199
 C222 C 0.22861 0.62833 0.02836
 C223 C 0.22899 0.68816 0.04406
 O224 O 0.23368 0.72415 -0.00222
 H225 H 0.23644 0.58909 -0.06083
 H226 H 0.22649 0.58982 0.05757
 C227 C -0.04078 0.30570 0.70697
 C228 C -0.02591 0.32897 0.65225
 C229 C 0.03384 0.33104 0.65185
 C230 C 0.05101 0.30794 0.70606
 O231 O 0.00573 0.29264 0.73988
 H232 H -0.05524 0.34140 0.61640
 H233 H 0.06167 0.34505 0.61536
 C234 C 0.73380 0.55275 0.83053
 C235 C 0.75719 0.53635 0.88470
 C236 C 0.75719 0.47548 0.88470
 C237 C 0.73380 0.45908 0.83053
 O238 O 0.71933 0.50591 0.79737
 H239 H 0.77557 0.56543 0.91847
 H240 H 0.77557 0.44640 0.91847
 C241 C 0.80091 0.19360 -0.03994
 C242 C 0.83341 0.14459 -0.02232
 C243 C 0.83217 0.14561 0.03849
 C244 C 0.79815 0.19466 0.05317
 O245 O 0.77925 0.22392 0.00561
 H246 H 0.85538 0.11220 -0.05045
 H247 H 0.85240 0.11375 0.06846
 C248 C 0.55138 0.19841 0.78585
 C249 C 0.53620 0.13904 0.79405
 C250 C 0.47652 0.13750 0.79058
 C251 C 0.45970 0.19611 0.78154
 O252 O 0.50494 0.23337 0.77842
 H253 H 0.56537 0.10110 0.79956
 H254 H 0.44855 0.09835 0.79361
 C255 C 0.32237 0.55282 0.69739
 C256 C 0.38045 0.53638 0.70362
 C257 C 0.38045 0.47545 0.70362
 C258 C 0.32237 0.45901 0.69739
 O259 O 0.28677 0.50592 0.69371
 H260 H 0.41772 0.56545 0.71171
 H261 H 0.41772 0.44639 0.71171
 C262 C 0.23663 0.32443 -0.04803
 C263 C 0.23430 0.38395 -0.03198
 C264 C 0.22861 0.38350 0.02836
 C265 C 0.22899 0.32368 0.04407
 O266 O 0.23368 0.28769 -0.00222
 H267 H 0.23644 0.42274 -0.06083
 H268 H 0.22649 0.42201 0.05757
 C269 C -0.05522 0.69841 0.28585
 C270 C -0.04004 0.63905 0.29405
 C271 C 0.01964 0.63750 0.29059
 C272 C 0.03646 0.69611 0.28154
 O273 O -0.00878 0.73337 0.27842
 H274 H -0.06921 0.60110 0.29957
 H275 H 0.04761 0.59835 0.29362
 C276 C 0.76236 -0.04092 0.33053
 C277 C 0.73897 -0.02452 0.38470
 C278 C 0.73897 0.03635 0.38470
 C279 C 0.76236 0.05274 0.33053
 O280 O 0.77683 0.00591 0.29737
 H281 H 0.72059 -0.05360 0.41847
 H282 H 0.72059 0.06543 0.41847
 C283 C 0.69801 0.69466 0.55317
 C284 C 0.66398 0.64562 0.53849
 C285 C 0.66274 0.64459 0.47768
 C286 C 0.69525 0.69360 0.46006
 O287 O 0.71691 0.72392 0.50561
 H288 H 0.64375 0.61375 0.56847
 H289 H 0.64077 0.61221 0.44955
 C290 C 0.53694 0.80569 0.20698
 C291 C 0.52207 0.82897 0.15225
 C292 C 0.46232 0.83103 0.15186
 C293 C 0.44515 0.80794 0.20607
 O294 O 0.49043 0.79264 0.23989
 H295 H 0.55141 0.84140 0.11641
 H296 H 0.43449 0.84504 0.11536
 C297 C 0.17380 -0.04099 0.19738
 C298 C 0.11571 -0.02455 0.20360
 C299 C 0.11571 0.03638 0.20360
 C300 C 0.17380 0.05282 0.19738
 O301 O 0.20940 0.00592 0.19370
 H302 H 0.07844 -0.05361 0.21168
 H303 H 0.07844 0.06545 0.21168
 C304 C 0.26715 0.82368 0.54406
 C305 C 0.26749 0.88351 0.52836
 C306 C 0.26179 0.88395 0.46802
 C307 C 0.25952 0.82443 0.45197
 O308 O 0.26250 0.78769 0.49778
 H309 H 0.26958 0.92202 0.55758
 H310 H 0.25962 0.92274 0.43918
 C311 C -0.05523 0.31342 0.28585
 C312 C -0.04004 0.37278 0.29405
 C313 C 0.01963 0.37433 0.29059
 C314 C 0.03646 0.31572 0.28154
 O315 O -0.00878 0.27846 0.27842
 H316 H -0.06921 0.41073 0.29957
 H317 H 0.04761 0.41348 0.29362
 C318 C 0.70108 0.55264 0.18532
 C319 C 0.67097 0.53655 0.13450
 C320 C 0.67097 0.47528 0.13450
 C321 C 0.70108 0.45918 0.18533
 O322 O 0.71931 0.50591 0.21608
 H323 H 0.65157 0.56587 0.10155
 H324 H 0.65157 0.44595 0.10155
 C325 C 0.69801 0.31716 0.55317
 C326 C 0.66398 0.36621 0.53849
 C327 C 0.66274 0.36724 0.47768
 C328 C 0.69525 0.31823 0.46006
 O329 O 0.71691 0.28791 0.50561
 H330 H 0.64375 0.39808 0.56847
 H331 H 0.64077 0.39962 0.44955
 C332 C 0.53694 0.20613 0.20698
 C333 C 0.52207 0.18286 0.15226
 C334 C 0.46232 0.18079 0.15186
 C335 C 0.44515 0.20389 0.20607
 O336 O 0.49043 0.21919 0.23989
 H337 H 0.55140 0.17043 0.11641
 H338 H 0.43449 0.16678 0.11536
 C339 C 0.30323 0.55288 0.30482
 C340 C 0.34926 0.53663 0.34142
 C341 C 0.34926 0.47520 0.34142
 C342 C 0.30323 0.45895 0.30482
 O343 O 0.27541 0.50592 0.28272
 H344 H 0.37930 0.56593 0.36483
 H345 H 0.37930 0.44590 0.36483
 C346 C 0.26715 0.18816 0.54407
 C347 C 0.26749 0.12833 0.52836
 C348 C 0.26180 0.12788 0.46802
 C349 C 0.25952 0.18740 0.45197
 O350 O 0.26250 0.22415 0.49778
 H351 H 0.26958 0.08982 0.55758
 H352 H 0.25962 0.08909 0.43918
   
