data_POSCAR
  _audit_creation_date              2014-09-24
  _audit_creation_method            'ToBaCCo'
  _symmetry_space_group_name_H-M    'P1'
  _symmetry_Int_Tables_number       1
  _symmetry_cell_setting            triclinic
  loop_
  _symmetry_equiv_pos_as_xyz
 x,y,z
_cell_length_a 46.5704
_cell_length_b 44.0237
_cell_length_c 44.3392
_cell_angle_alpha 84.715800
_cell_angle_beta 89.590200
_cell_angle_gamma 92.247800
loop_
  _atom_site_label
  _atom_site_type_symbol
  _atom_site_fract_x
  _atom_site_fract_y
  _atom_site_fract_z
C1 C 0.26089 0.26910 0.22717
 C2 C 0.24690 0.25444 0.25297
 C3 C 0.22346 0.26742 0.26527
 C4 C 0.21377 0.29531 0.25211
 C5 C 0.22757 0.30979 0.22670
 C6 C 0.25134 0.29663 0.21418
 C7 C 0.28411 0.26175 0.21024
 N8 N 0.28883 0.28418 0.18732
 C9 C 0.26897 0.30561 0.18966
 C10 C 0.21321 0.33600 0.21854
 N11 N 0.19122 0.33786 0.23846
 C12 C 0.19136 0.31300 0.25907
 C13 C 0.21396 0.24810 0.28977
 N14 N 0.23113 0.22384 0.29279
 C15 C 0.25135 0.22746 0.27030
 H16 H 0.29674 0.24175 0.21467
 H17 H 0.26747 0.32624 0.17455
 H18 H 0.21825 0.35247 0.19938
 H19 H 0.17600 0.30767 0.27740
 H20 H 0.19585 0.25141 0.30440
 H21 H 0.26784 0.21160 0.26641
 C22 C 0.71137 -0.23528 0.26467
 C23 C 0.72306 -0.21943 0.28795
 C24 C 0.74843 -0.22835 0.30139
 C25 C 0.76242 -0.25344 0.29166
 C26 C 0.75097 -0.26903 0.26850
 C27 C 0.72510 -0.25996 0.25495
 C28 C 0.68722 -0.23113 0.24746
 N29 N 0.68568 -0.25271 0.22751
 C30 C 0.70881 -0.27059 0.23191
 C31 C 0.76937 -0.29188 0.26355
 N32 N 0.79161 -0.29058 0.28328
 C33 C 0.78737 -0.26721 0.30057
 C34 C 0.75469 -0.20863 0.32309
 N35 N 0.73362 -0.18806 0.32300
 C36 C 0.71420 -0.19462 0.30168
 H37 H 0.67187 -0.21349 0.24922
 H38 H 0.71386 -0.28956 0.21922
 H39 H 0.76637 -0.30822 0.24696
 H40 H 0.80159 -0.26054 0.31825
 H41 H 0.77305 -0.20950 0.33790
 H42 H 0.69500 -0.18212 0.29650
 C43 C 0.71390 0.24226 0.76688
 C44 C 0.73148 0.22796 0.74701
 C45 C 0.75837 0.24074 0.73894
 C46 C 0.76788 0.26807 0.75010
 C47 C 0.75024 0.28270 0.76881
 C48 C 0.72317 0.26955 0.77750
 C49 C 0.68749 0.23427 0.78016
 N50 N 0.68068 0.25600 0.79874
 C51 C 0.70226 0.27777 0.79687
 C52 C 0.76472 0.30919 0.77526
 N53 N 0.79089 0.31062 0.76136
 C54 C 0.79298 0.28548 0.74589
 C55 C 0.77063 0.22245 0.71936
 N56 N 0.75176 0.19911 0.71491
 C57 C 0.72777 0.20207 0.73192
 H58 H 0.67477 0.21380 0.77683
 H59 H 0.70314 0.29767 0.80954
 H60 H 0.75688 0.32608 0.78924
 H61 H 0.81093 0.28048 0.73179
 H62 H 0.79151 0.22625 0.70844
 H63 H 0.70896 0.18677 0.73313
 C64 C 0.30672 -0.26762 0.76326
 C65 C 0.29442 -0.25067 0.73858
 C66 C 0.26921 -0.26134 0.72609
 C67 C 0.25604 -0.28915 0.73792
 C68 C 0.26822 -0.30578 0.76214
 C69 C 0.29367 -0.29502 0.77481
 C70 C 0.33074 -0.26276 0.78048
 N71 N 0.33245 -0.28671 0.80211
 C72 C 0.30991 -0.30649 0.79862
 C73 C 0.25072 -0.33126 0.76941
 N74 N 0.22817 -0.33067 0.75018
 C75 C 0.23126 -0.30493 0.73069
 C76 C 0.26215 -0.24031 0.70270
 N77 N 0.28249 -0.21718 0.70064
 C78 C 0.30233 -0.22339 0.72239
 H79 H 0.34563 -0.24324 0.77727
 H80 H 0.30545 -0.32764 0.81267
 H81 H 0.25401 -0.34890 0.78762
 H82 H 0.21655 -0.29770 0.71293
 H83 H 0.24386 -0.24217 0.68799
 H84 H 0.32118 -0.20907 0.72609
 C85 C 0.73721 -0.25901 0.77165
 C86 C 0.75294 -0.24218 0.74829
 C87 C 0.78001 -0.25097 0.74050
 C88 C 0.79153 -0.27701 0.75570
 C89 C 0.77581 -0.29384 0.77846
 C90 C 0.74875 -0.28443 0.78689
 C91 C 0.71061 -0.25557 0.78430
 N92 N 0.70612 -0.27773 0.80741
 C93 C 0.72930 -0.29569 0.80900
 C94 C 0.79113 -0.31906 0.78757
 N95 N 0.81591 -0.31783 0.77113
 C96 C 0.81651 -0.29196 0.75174
 C97 C 0.79016 -0.23049 0.71718
 N98 N 0.76991 -0.20962 0.71062
 C99 C 0.74708 -0.21652 0.72963
 H100 H 0.69594 -0.23768 0.77777
 H101 H 0.73191 -0.31562 0.82478
 H102 H 0.78440 -0.33743 0.80438
 H103 H 0.83289 -0.28530 0.73473
 H104 H 0.81073 -0.23077 0.70570
 H105 H 0.72773 -0.20377 0.73024
 C106 C 0.27060 0.22659 0.74719
 C107 C 0.25609 0.21679 0.72197
 C108 C 0.23180 0.23135 0.71143
 C109 C 0.22176 0.25600 0.72585
 C110 C 0.23615 0.26563 0.75062
 C111 C 0.26070 0.25092 0.76128
 C112 C 0.29433 0.21646 0.76293
 N113 N 0.29912 0.23421 0.78604
 C114 C 0.27852 0.25538 0.78515
 C115 C 0.22141 0.28926 0.76059
 N116 N 0.19848 0.29437 0.74242
 C117 C 0.19844 0.27410 0.72104
 C118 C 0.22190 0.21666 0.68725
 N119 N 0.23965 0.19377 0.68270
 C120 C 0.26061 0.19358 0.70391
 H121 H 0.30716 0.19750 0.75794
 H122 H 0.27605 0.27256 0.80078
 H123 H 0.22678 0.30172 0.77986
 H124 H 0.18244 0.27212 0.70370
 H125 H 0.20308 0.22214 0.67392
 H126 H 0.27760 0.17752 0.70652
 C127 C 0.28406 -0.22674 0.22382
 C128 C 0.27144 -0.21433 0.24838
 C129 C 0.24473 -0.22520 0.25925
 C130 C 0.23030 -0.24888 0.24556
 C131 C 0.24283 -0.26115 0.22123
 C132 C 0.27000 -0.25009 0.21035
 C133 C 0.30998 -0.22073 0.20911
 N134 N 0.31226 -0.24003 0.18714
 C135 C 0.28781 -0.25815 0.18767
 C136 C 0.22424 -0.28382 0.21277
 N137 N 0.20082 -0.28582 0.23138
 C138 C 0.20436 -0.26445 0.25157
 C139 C 0.23832 -0.20930 0.28370
 N140 N 0.26064 -0.18925 0.28773
 C141 C 0.28093 -0.19227 0.26629
 H142 H 0.32624 -0.20377 0.21429
 H143 H 0.28306 -0.27582 0.17285
 H144 H 0.22765 -0.29808 0.19451
 H145 H 0.18943 -0.26024 0.26935
 H146 H 0.21920 -0.21270 0.29780
 H147 H 0.30132 -0.17951 0.26414
 C148 C 0.71668 0.25881 0.21655
 C149 C 0.72698 0.24514 0.24394
 C150 C 0.75146 0.25711 0.25667
 C151 C 0.76592 0.28306 0.24217
 C152 C 0.75577 0.29652 0.21510
 C153 C 0.73092 0.28436 0.20224
 C154 C 0.69305 0.25243 0.19945
 N155 N 0.69260 0.27355 0.17510
 C156 C 0.71560 0.29322 0.17670
 C157 C 0.77381 0.32132 0.20640
 N158 N 0.79457 0.32342 0.22756
 C159 C 0.78989 0.30001 0.24958
 C160 C 0.75615 0.23945 0.28334
 N161 N 0.73506 0.21711 0.28698
 C162 C 0.71712 0.22054 0.26306
 H163 H 0.67706 0.23423 0.20492
 H164 H 0.72062 0.31274 0.16057
 H165 H 0.77182 0.33693 0.18622
 H166 H 0.80275 0.29529 0.26954
 H167 H 0.77340 0.24304 0.29899
 H168 H 0.69819 0.20615 0.25988
 O169 O 0.22962 0.03025 0.46104
 O170 O 0.22340 -0.03190 0.52288
 O171 O 0.23203 0.02719 0.51991
 O172 O 0.21982 -0.02878 0.46415
 O173 O 0.26658 -0.03493 0.46148
 O174 O 0.27881 0.02124 0.51716
 O175 O 0.27023 -0.03759 0.52023
 O176 O 0.27635 0.02391 0.45825
 Cu177 Cu 0.22152 -0.00017 0.49226
 Cu178 Cu 0.27768 -0.00745 0.48896
 C179 C 0.25412 0.03762 0.44913
 C180 C 0.24582 -0.04525 0.53212
 C181 C 0.25744 0.03371 0.52807
 C182 C 0.24112 -0.04145 0.45337
 O183 O 0.76520 0.04260 0.54347
 O184 O 0.77803 -0.01130 0.48632
 O185 O 0.77640 0.04812 0.48530
 O186 O 0.76750 -0.01629 0.54404
 O187 O 0.72087 -0.01903 0.53533
 O188 O 0.72991 0.04503 0.47600
 O189 O 0.73145 -0.01428 0.47749
 O190 O 0.71869 0.03986 0.53418
 Cu191 Cu 0.77648 0.01621 0.51562
 Cu192 Cu 0.72056 0.01272 0.50474
 C193 C 0.73971 0.05014 0.54877
 C194 C 0.75682 -0.02228 0.47247
 C195 C 0.75472 0.05746 0.47055
 C196 C 0.74271 -0.02864 0.54968
 O197 O 0.45568 0.22109 0.02279
 O198 O 0.51007 0.22556 -0.03840
 O199 O 0.51156 0.21922 0.02066
 O200 O 0.45451 0.22757 -0.03632
 O201 O 0.45792 0.27765 -0.03528
 O202 O 0.51524 0.26934 0.02116
 O203 O 0.51371 0.27566 -0.03766
 O204 O 0.45925 0.27118 0.02354
 Cu205 Cu 0.48259 0.21832 -0.00783
 Cu206 Cu 0.48689 0.27848 -0.00694
 C207 C 0.44811 0.24536 0.03350
 C208 C 0.52109 0.25139 -0.04850
 C209 C 0.52323 0.24288 0.03045
 C210 C 0.44658 0.25408 -0.04553
 O211 O 0.54275 0.73586 0.04378
 O212 O 0.49735 0.74883 -0.02322
 O213 O 0.48790 0.74070 0.03505
 O214 O 0.55216 0.74232 -0.01408
 O215 O 0.54521 0.69291 -0.01810
 O216 O 0.48313 0.69072 0.03381
 O217 O 0.49052 0.69903 -0.02451
 O218 O 0.53883 0.68608 0.04080
 Cu219 Cu 0.52053 0.74693 0.01061
 Cu220 Cu 0.51390 0.68713 0.00792
 C221 C 0.54895 0.70890 0.05344
 C222 C 0.48600 0.72622 -0.03514
 C223 C 0.47464 0.71538 0.04286
 C224 C 0.55932 0.71791 -0.02477
 O225 O 0.02175 0.49624 0.24593
 O226 O -0.03651 0.55040 0.23767
 O227 O 0.01953 0.55542 0.24223
 O228 O -0.03411 0.49131 0.24281
 O229 O -0.03747 0.49007 0.29263
 O230 O 0.01532 0.55443 0.29196
 O231 O -0.04041 0.54933 0.28743
 O232 O 0.01815 0.49508 0.29571
 Cu233 Cu -0.00694 0.52353 0.23716
 Cu234 Cu -0.01146 0.52218 0.29691
 C235 C 0.02984 0.48636 0.27219
 C236 C -0.04852 0.55893 0.26106
 C237 C 0.02659 0.56574 0.26710
 C238 C -0.04486 0.47977 0.26792
 O239 O 0.04392 0.51864 0.75918
 O240 O -0.01497 0.46124 0.77508
 O241 O 0.03844 0.46010 0.75866
 O242 O -0.00940 0.52098 0.77550
 O243 O -0.02270 0.52594 0.72761
 O244 O 0.02584 0.46557 0.71059
 O245 O -0.02798 0.46733 0.72714
 O246 O 0.03117 0.52486 0.71119
 Cu247 Cu 0.01562 0.48967 0.77199
 Cu248 Cu 0.00034 0.49650 0.71427
 C249 C 0.04767 0.53146 0.73253
 C250 C -0.03141 0.45444 0.75381
 C251 C 0.04043 0.45257 0.73178
 C252 C -0.02416 0.53381 0.75439
 C253 C 0.31109 0.28621 0.16452
 C254 C 0.32737 0.26136 0.15879
 C255 C 0.34999 0.26353 0.13520
 N256 N 0.36299 0.23797 0.12825
 N257 N 0.38344 0.23952 0.10693
 C258 C 0.39175 0.26674 0.09182
 N259 N 0.37886 0.29231 0.09888
 N260 N 0.35833 0.29075 0.12014
 C261 C 0.41428 0.26889 0.06815
 C262 C 0.42610 0.24314 0.05768
 H263 H 0.32303 0.23939 0.17131
 H264 H 0.42128 0.29140 0.05824
 H265 H 0.31465 0.30765 0.15069
 H266 H 0.41853 0.22059 0.06693
 C267 C 0.66442 0.74568 0.20675
 C268 C 0.66186 0.72295 0.18676
 C269 C 0.63924 0.72374 0.16360
 N270 N 0.63462 0.69982 0.14671
 N271 N 0.61454 0.70080 0.12535
 C272 C 0.59844 0.72581 0.12009
 N273 N 0.60313 0.74967 0.13693
 N274 N 0.62307 0.74863 0.15830
 C275 C 0.57704 0.72829 0.09586
 C276 C 0.56851 0.70413 0.07927
 H277 H 0.67635 0.70429 0.18793
 H278 H 0.56780 0.75035 0.09074
 H279 H 0.64846 0.76303 0.20574
 H280 H 0.57654 0.68159 0.08501
 C281 C 0.65747 0.25633 -0.18243
 C282 C 0.63679 0.23237 -0.17825
 C283 C 0.61359 0.23212 -0.15544
 N284 N 0.59638 0.20668 -0.14926
 N285 N 0.57588 0.20572 -0.12802
 C286 C 0.57176 0.23021 -0.11224
 N287 N 0.58886 0.25575 -0.11854
 N288 N 0.60941 0.25666 -0.13970
 C289 C 0.54948 0.22846 -0.08835
 C290 C 0.54281 0.25354 -0.07295
 H291 H 0.63817 0.21249 -0.19068
 H292 H 0.53798 0.20677 -0.08279
 H293 H 0.65559 0.27559 -0.16905
 H294 H 0.55359 0.27551 -0.07913
 C295 C 0.35244 0.70869 -0.17586
 C296 C 0.37446 0.73001 -0.17064
 C297 C 0.39494 0.72424 -0.14579
 N298 N 0.41291 0.74711 -0.13784
 N299 N 0.43109 0.74226 -0.11498
 C300 C 0.43206 0.71430 -0.09931
 N301 N 0.41430 0.69138 -0.10745
 N302 N 0.39604 0.69626 -0.13020
 C303 C 0.45165 0.70855 -0.07372
 C304 C 0.46737 0.73198 -0.06152
 H305 H 0.37625 0.75183 -0.18399
 H306 H 0.45298 0.68530 -0.06359
 H307 H 0.35073 0.68766 -0.16106
 H308 H 0.46539 0.75536 -0.07100
 C309 C 0.17095 0.36173 0.23646
 C310 C 0.15240 0.36639 0.26033
 C311 C 0.13095 0.39017 0.25783
 N312 N 0.11520 0.39559 0.28251
 N313 N 0.09536 0.41667 0.28050
 C314 C 0.09046 0.43306 0.25368
 N315 N 0.10617 0.42761 0.22900
 N316 N 0.12608 0.40660 0.23103
 C317 C 0.06820 0.45595 0.25081
 C318 C 0.05284 0.46435 0.27565
 H319 H 0.15373 0.35252 0.28167
 H320 H 0.06379 0.46649 0.22836
 H321 H 0.17056 0.37694 0.21583
 H322 H 0.05776 0.45457 0.29825
 C323 C 0.20646 0.64762 0.75188
 C324 C 0.18352 0.64773 0.73171
 C325 C 0.15984 0.62450 0.73565
 N326 N 0.13927 0.62301 0.71423
 N327 N 0.11760 0.60223 0.71789
 C328 C 0.11570 0.58231 0.74318
 N329 N 0.13620 0.58389 0.76459
 N330 N 0.15787 0.60454 0.76089
 C331 C 0.09185 0.55953 0.74815
 C332 C 0.07137 0.55430 0.72625
 H333 H 0.18268 0.66483 0.71265
 H334 H 0.09061 0.54613 0.76991
 H335 H 0.20703 0.62924 0.76988
 H336 H 0.07293 0.56682 0.70406
 C337 C -0.18548 0.69110 0.28629
 C338 C -0.17987 0.66890 0.26665
 C339 C -0.15489 0.64945 0.27056
 N340 N -0.14703 0.63254 0.24801
 N341 N -0.12452 0.61480 0.25121
 C342 C -0.10911 0.61315 0.27717
 N343 N -0.11709 0.62989 0.29981
 N344 N -0.13950 0.64778 0.29654
 C345 C -0.08444 0.59329 0.28120
 C346 C -0.07238 0.57981 0.25711
 H347 H -0.19331 0.66618 0.24724
 H348 H -0.07536 0.58952 0.30359
 H349 H -0.17043 0.69441 0.30437
 H350 H -0.08060 0.58478 0.23447
 C351 C -0.18929 0.33404 0.76241
 C352 C -0.16079 0.33192 0.75312
 C353 C -0.14010 0.35797 0.75233
 N354 N -0.11183 0.35314 0.75693
 N355 N -0.09262 0.37648 0.75500
 C356 C -0.10097 0.40545 0.74790
 N357 N -0.12923 0.41027 0.74297
 N358 N -0.14851 0.38696 0.74538
 C359 C -0.07968 0.43099 0.74395
 C360 C -0.05418 0.43071 0.76012
 H361 H -0.15281 0.31025 0.74787
 H362 H -0.08430 0.45060 0.72840
 H363 H -0.19548 0.35467 0.77195
 H364 H -0.05105 0.41291 0.77822
 C365 C 0.22735 0.19885 0.31590
 C366 C 0.24807 0.17710 0.32185
 C367 C 0.24427 0.15189 0.34596
 N368 N 0.26617 0.13307 0.35269
 N369 N 0.26318 0.11026 0.37455
 C370 C 0.23812 0.10534 0.39045
 N371 N 0.21616 0.12406 0.38362
 N372 N 0.21918 0.14694 0.36180
 C373 C 0.23455 0.08032 0.41479
 C374 C 0.25726 0.06228 0.42446
 H375 H 0.26805 0.17887 0.30914
 H376 H 0.21368 0.07642 0.42570
 H377 H 0.20801 0.19752 0.32976
 H378 H 0.27829 0.06666 0.41401
 C379 C 0.75704 0.17637 0.69456
 C380 C 0.73491 0.15927 0.68232
 C381 C 0.74047 0.13877 0.65866
 N382 N 0.71818 0.12582 0.64424
 N383 N 0.72295 0.10792 0.62222
 C384 C 0.75020 0.10227 0.61382
 N385 N 0.77248 0.11504 0.62838
 N386 N 0.76771 0.13301 0.65034
 C387 C 0.75593 0.08262 0.58951
 C388 C 0.73404 0.07069 0.57227
 H389 H 0.71284 0.16227 0.68880
 H390 H 0.77804 0.07748 0.58508
 H391 H 0.77887 0.17432 0.68661
 H392 H 0.71195 0.07615 0.57640
 C393 C 0.28408 -0.19098 0.67877
 C394 C 0.26051 -0.18178 0.66145
 C395 C 0.26239 -0.15568 0.63818
 N396 N 0.23824 -0.14581 0.62409
 N397 N 0.23964 -0.12255 0.60259
 C398 C 0.26529 -0.10837 0.59430
 N399 N 0.28944 -0.11828 0.60834
 N400 N 0.28803 -0.14146 0.62991
 C401 C 0.26739 -0.08308 0.57018
 C402 C 0.24325 -0.06997 0.55679
 H403 H 0.23988 -0.19373 0.66520
 H404 H 0.28865 -0.07443 0.56287
 H405 H 0.30415 -0.17765 0.67620
 H406 H 0.22194 -0.07781 0.56471
 C407 C 0.73089 -0.16361 0.34202
 C408 C 0.75318 -0.15366 0.36003
 C409 C 0.74970 -0.12841 0.37921
 N410 N 0.77236 -0.11785 0.39486
 N411 N 0.76935 -0.09516 0.41244
 C412 C 0.74353 -0.08222 0.41502
 N413 N 0.72090 -0.09280 0.39940
 N414 N 0.72392 -0.11542 0.38179
 C415 C 0.73945 -0.05771 0.43488
 C416 C 0.76188 -0.04496 0.45082
 H417 H 0.77379 -0.16414 0.35981
 H418 H 0.71788 -0.04985 0.43739
 H419 H 0.71082 -0.15195 0.34160
 H420 H 0.78358 -0.05234 0.44801
 C421 C 0.68242 0.71968 -0.17431
 C422 C 0.68162 0.70222 -0.14639
 C423 C 0.65639 0.70159 -0.12643
 N424 N 0.65979 0.70276 -0.09620
 N425 N 0.63698 0.70277 -0.07791
 C426 C 0.61000 0.70108 -0.08918
 N427 N 0.60659 0.69936 -0.11934
 N428 N 0.62941 0.69991 -0.13772
 C429 C 0.58484 0.70067 -0.06914
 C430 C 0.58440 0.71862 -0.04495
 H431 H 0.70078 0.69181 -0.13736
 H432 H 0.56569 0.68760 -0.07460
 H433 H 0.66424 0.73354 -0.18046
 H434 H 0.60204 0.73479 -0.04190
 C435 C 0.32080 0.23037 -0.19367
 C436 C 0.32627 0.25033 -0.17142
 C437 C 0.34926 0.24583 -0.14912
 N438 N 0.35588 0.26814 -0.13088
 N439 N 0.37643 0.26451 -0.11030
 C440 C 0.39104 0.23834 -0.10707
 N441 N 0.38433 0.21593 -0.12519
 N442 N 0.36384 0.21962 -0.14590
 C443 C 0.41365 0.23405 -0.08426
 C444 C 0.42395 0.25797 -0.06828
 H445 H 0.31394 0.27048 -0.17037
 H446 H 0.42278 0.21179 -0.08042
 H447 H 0.33467 0.21133 -0.19511
 H448 H 0.41570 0.28056 -0.07310
 C449 C 0.33568 0.75983 0.16864
 C450 C 0.33925 0.73827 0.14782
 C451 C 0.36531 0.73884 0.12877
 N452 N 0.37089 0.71470 0.11302
 N453 N 0.39461 0.71487 0.09600
 C454 C 0.41354 0.73927 0.09400
 N455 N 0.40784 0.76351 0.10953
 N456 N 0.38421 0.76327 0.12666
 C457 C 0.43973 0.73999 0.07522
 C458 C 0.44889 0.71431 0.06233
 H459 H 0.32344 0.71990 0.14609
 H460 H 0.45235 0.76125 0.07182
 H461 H 0.35283 0.77687 0.17076
 H462 H 0.43690 0.69274 0.06662
 C463 C 0.67109 0.27629 0.15207
 C464 C 0.65125 0.25257 0.14768
 C465 C 0.62848 0.25573 0.12492
 N466 N 0.61152 0.23108 0.11953
 N467 N 0.59055 0.23362 0.09929
 C468 C 0.58568 0.26096 0.08377
 N469 N 0.60258 0.28563 0.08923
 N470 N 0.62362 0.28307 0.10939
 C471 C 0.56246 0.26427 0.06156
 C472 C 0.54628 0.23930 0.05282
 H473 H 0.65252 0.23081 0.16097
 H474 H 0.55830 0.28702 0.05148
 H475 H 0.67073 0.29733 0.13736
 H476 H 0.55100 0.21643 0.06209
 C477 C -0.16503 0.65949 0.77257
 C478 C -0.13802 0.66286 0.75862
 C479 C -0.12000 0.63653 0.75673
 N480 N -0.09096 0.63994 0.75792
 N481 N -0.07451 0.61624 0.75518
 C482 C -0.08654 0.58846 0.75058
 N483 N -0.11554 0.58516 0.74899
 N484 N -0.13200 0.60872 0.75227
 C485 C -0.06860 0.56269 0.74583
 C486 C -0.04284 0.55843 0.76098
 H487 H -0.12949 0.68512 0.74972
 H488 H -0.07634 0.54603 0.73096
 H489 H -0.17088 0.63791 0.78536
 H490 H -0.03681 0.57272 0.77872
 C491 C -0.18421 0.34573 0.22596
 C492 C -0.16425 0.34893 0.24898
 C493 C -0.14193 0.37367 0.24703
 N494 N -0.12625 0.37886 0.27184
 N495 N -0.10617 0.40136 0.27063
 C496 C -0.10092 0.41942 0.24450
 N497 N -0.11642 0.41406 0.21960
 N498 N -0.13661 0.39165 0.22086
 C499 C -0.07899 0.44454 0.24296
 C500 C -0.06614 0.45414 0.26893
 H501 H -0.16538 0.33382 0.26961
 H502 H -0.07356 0.45636 0.22102
 H503 H -0.18315 0.36221 0.20620
 H504 H -0.07254 0.44316 0.29095
 C505 C 0.17784 0.31691 0.74694
 C506 C 0.15689 0.32519 0.72574
 C507 C 0.13616 0.34852 0.73124
 N508 N 0.11783 0.35848 0.70915
 N509 N 0.09914 0.37975 0.71397
 C510 C 0.09807 0.39172 0.74111
 N511 N 0.11629 0.38164 0.76320
 N512 N 0.13499 0.36048 0.75836
 C513 C 0.07780 0.41523 0.74708
 C514 C 0.05994 0.42857 0.72497
 H515 H 0.15594 0.31500 0.70448
 H516 H 0.07738 0.42268 0.76969
 H517 H 0.17919 0.32842 0.76748
 H518 H 0.06058 0.42170 0.70214
 C519 C 0.17837 0.69371 0.22927
 C520 C 0.15520 0.69054 0.24970
 C521 C 0.13164 0.66759 0.24739
 N522 N 0.11205 0.66219 0.27023
 N523 N 0.09088 0.64115 0.26877
 C524 C 0.08841 0.62481 0.24432
 N525 N 0.10784 0.63040 0.22133
 N526 N 0.12910 0.65135 0.22285
 C527 C 0.06548 0.60103 0.24269
 C528 C 0.04818 0.59094 0.26769
 H529 H 0.15449 0.70429 0.26864
 H530 H 0.06304 0.59029 0.22179
 H531 H 0.17880 0.67867 0.21124
 H532 H 0.05147 0.60081 0.28895
 C533 C 0.77318 -0.18447 0.68770
 C534 C 0.75000 -0.16746 0.67728
 C535 C 0.75340 -0.14163 0.65388
 N536 N 0.72985 -0.12768 0.64246
 N537 N 0.73256 -0.10420 0.62130
 C538 C 0.75895 -0.09375 0.61087
 N539 N 0.78251 -0.10762 0.62238
 N540 N 0.77979 -0.13116 0.64347
 C541 C 0.76238 -0.06783 0.58760
 C542 C 0.73898 -0.05440 0.57307
 H543 H 0.72857 -0.17350 0.68591
 H544 H 0.78399 -0.05939 0.58146
 H545 H 0.79427 -0.17921 0.67764
 H546 H 0.71737 -0.06327 0.57859
 C547 C 0.26407 -0.16881 0.31097
 C548 C 0.24149 -0.16162 0.32952
 C549 C 0.24588 -0.13993 0.35261
 N550 N 0.22305 -0.13019 0.36773
 N551 N 0.22687 -0.11024 0.38835
 C552 C 0.25368 -0.09940 0.39467
 N553 N 0.27648 -0.10931 0.37970
 N554 N 0.27265 -0.12915 0.35904
 C555 C 0.25845 -0.07724 0.41717
 C556 C 0.23594 -0.06392 0.43126
 H557 H 0.22007 -0.17120 0.32653
 H558 H 0.28045 -0.07082 0.42233
 H559 H 0.28503 -0.15776 0.31335
 H560 H 0.21392 -0.06978 0.42571
 C561 C 0.73106 0.19379 0.31168
 C562 C 0.75198 0.18761 0.33352
 C563 C 0.74772 0.16315 0.35828
 N564 N 0.76956 0.15609 0.37744
 N565 N 0.76609 0.13380 0.39977
 C566 C 0.74060 0.11780 0.40382
 N567 N 0.71872 0.12496 0.38476
 N568 N 0.72222 0.14719 0.36239
 C569 C 0.73643 0.09293 0.42817
 C570 C 0.75876 0.08294 0.44686
 H571 H 0.77234 0.20036 0.33215
 H572 H 0.71530 0.08177 0.43101
 H573 H 0.71126 0.17994 0.31275
 H574 H 0.78003 0.09368 0.44369
 C575 C 0.23558 0.17319 0.65965
 C576 C 0.25688 0.15390 0.65170
 C577 C 0.25246 0.13275 0.62818
 N578 N 0.27457 0.11631 0.61940
 N579 N 0.27084 0.09694 0.59825
 C580 C 0.24481 0.09324 0.58515
 N581 N 0.22268 0.10962 0.59399
 N582 N 0.22643 0.12905 0.61508
 C583 C 0.24016 0.07170 0.56205
 C584 C 0.26247 0.05579 0.55058
 H585 H 0.27762 0.15457 0.66249
 H586 H 0.21853 0.06836 0.55381
 H587 H 0.21546 0.17337 0.64754
 H588 H 0.28423 0.05959 0.55825
   
