data_POSCAR
  _audit_creation_date              2014-09-24
  _audit_creation_method            'ToBaCCo'
  _symmetry_space_group_name_H-M    'P1'
  _symmetry_Int_Tables_number       1
  _symmetry_cell_setting            triclinic
  loop_
  _symmetry_equiv_pos_as_xyz
 x,y,z
_cell_length_a 23.5651
_cell_length_b 24.1344
_cell_length_c 27.9191
_cell_angle_alpha 87.363000
_cell_angle_beta 83.622400
_cell_angle_gamma 97.422300
loop_
  _atom_site_label
  _atom_site_type_symbol
  _atom_site_fract_x
  _atom_site_fract_y
  _atom_site_fract_z
C1 C -0.00751 0.55558 1.02613
 C2 C 0.00221 0.55904 0.97453
 C3 C 0.00874 0.50949 0.95081
 C4 C 0.00441 0.45717 0.97593
 C5 C -0.00544 0.45321 1.02718
 C6 C -0.01212 0.50261 1.05101
 H7 H -0.01422 0.50095 1.08993
 H8 H 0.01233 0.51027 0.91177
 C9 C 0.44343 -0.02818 0.53081
 C10 C 0.44532 -0.03270 0.48037
 C11 C 0.49832 -0.03513 0.45265
 C12 C 0.55039 -0.03409 0.47360
 C13 C 0.54761 -0.02956 0.52454
 C14 C 0.49476 -0.02639 0.55200
 H15 H 0.49377 -0.02231 0.59060
 H16 H 0.49829 -0.03577 0.41396
 C17 C 0.10830 -0.04410 0.29846
 H18 H 0.07678 -0.08122 0.30081
 C19 C 0.15727 -0.04404 0.32246
 H20 H 0.16300 -0.08148 0.34325
 C21 C 0.13934 0.04919 0.26747
 H22 H 0.13257 0.08532 0.24567
 C23 C 0.18869 0.05122 0.29109
 H24 H 0.21809 0.08983 0.28797
 N25 N 0.10022 0.00211 0.27170
 C26 C -0.01237 -0.10614 0.20621
 H27 H -0.04924 -0.10271 0.23200
 C28 C -0.01238 -0.15295 0.17869
 H29 H -0.04985 -0.18464 0.18331
 C30 C 0.08138 -0.06975 0.16965
 H31 H 0.11803 -0.03728 0.16688
 C32 C 0.08325 -0.11592 0.14140
 H33 H 0.12204 -0.11871 0.11752
 Zn34 Zn 0.03438 -0.00181 0.23820
 N35 N 0.03375 -0.06531 0.20078
 C36 C 0.04136 0.06294 0.14921
 N37 N 0.03667 0.06408 0.19815
 C38 C 0.03036 0.11222 0.22039
 C39 C 0.02959 0.16205 0.19323
 C40 C 0.04110 0.11192 0.12061
 C41 C -0.03224 -0.01042 0.33056
 C42 C -0.08303 -0.01218 0.36198
 C43 C -0.13576 -0.00745 0.29280
 C44 C -0.08403 -0.00559 0.26278
 N45 N -0.03371 -0.00746 0.28196
 H46 H 0.04457 0.02402 0.13220
 H47 H 0.02566 0.11173 0.25941
 H48 H 0.02475 0.19997 0.21166
 H49 H 0.04385 0.10976 0.08181
 H50 H 0.00829 -0.01107 0.34510
 H51 H -0.08088 -0.01554 0.40049
 H52 H -0.17529 -0.00570 0.27671
 H53 H -0.08381 -0.00237 0.22398
 C54 C 0.03560 -0.15816 0.14535
 C55 C 0.19865 0.00391 0.31868
 C56 C -0.13574 -0.01034 0.34314
 C57 C 0.03542 0.16246 0.14261
 C58 C -0.08210 0.08320 0.82559
 H59 H -0.11989 0.05282 0.82450
 C60 C -0.08573 0.12984 0.85303
 H61 H -0.12699 0.13482 0.87221
 C62 C 0.01628 0.11428 0.79898
 H63 H 0.05572 0.10860 0.77727
 C64 C 0.01474 0.16128 0.82619
 H65 H 0.05358 0.19084 0.82541
 N66 N -0.03162 0.07616 0.79947
 C67 C 0.08719 0.01147 0.74058
 H68 H 0.08444 0.00418 0.77934
 C69 C 0.13988 0.01223 0.71210
 H70 H 0.17772 0.00586 0.72929
 C71 C 0.04071 0.02730 0.67115
 H72 H 0.00175 0.03192 0.65523
 C73 C 0.09264 0.02881 0.64130
 H74 H 0.09271 0.03421 0.60260
 Zn75 Zn -0.03122 0.01366 0.76094
 N76 N 0.03901 0.01908 0.71984
 C77 C -0.10003 0.06101 0.69924
 N78 N -0.09409 0.01278 0.72418
 C79 C -0.13325 -0.03388 0.72433
 C80 C -0.18037 -0.03328 0.69817
 C81 C -0.14672 0.06359 0.67290
 C82 C -0.04748 -0.05357 0.84912
 C83 C -0.04979 -0.10322 0.87750
 C84 C -0.03146 -0.15160 0.80469
 C85 C -0.02982 -0.10115 0.77774
 N86 N -0.03796 -0.05350 0.80017
 H87 H -0.06843 0.09761 0.70002
 H88 H -0.12836 -0.07154 0.74498
 H89 H -0.21126 -0.07075 0.69886
 H90 H -0.15006 0.10220 0.65278
 H91 H -0.05248 -0.01504 0.86633
 H92 H -0.05612 -0.10196 0.91640
 H93 H -0.02472 -0.18905 0.78612
 H94 H -0.02145 -0.09973 0.73877
 C95 C 0.14315 0.02118 0.66177
 C96 C -0.03667 0.16967 0.85392
 C97 C -0.04175 -0.15319 0.85528
 C98 C -0.18789 0.01605 0.67240
 C99 C 0.03203 -0.30187 0.06292
 C100 C -0.00162 -0.30295 0.10762
 N101 N -0.03658 -0.35039 0.12475
 C102 C -0.03950 -0.39704 0.09918
 C103 C -0.00619 -0.39640 0.05373
 N104 N 0.02920 -0.34838 0.03730
 N105 N 0.06651 -0.25415 0.04557
 C106 C 0.06902 -0.20735 0.07105
 C107 C 0.03543 -0.20820 0.11623
 N108 N 0.00076 -0.25636 0.13307
 H109 H -0.06922 -0.43345 0.11361
 H110 H 0.09605 -0.16981 0.05553
 C111 C 0.02980 0.31404 0.06128
 C112 C 0.00028 0.30357 0.10778
 N113 N -0.03102 0.34221 0.12697
 C114 C -0.03403 0.39116 0.10185
 C115 C -0.00437 0.40237 0.05476
 N116 N 0.02702 0.36290 0.03624
 N117 N 0.06080 0.27524 0.04184
 C118 C 0.06342 0.22611 0.06686
 C119 C 0.03368 0.21519 0.11368
 N120 N 0.00299 0.25469 0.13290
 H121 H -0.06123 0.41966 0.11812
 H122 H 0.08930 0.19652 0.05057
 C123 C 0.30151 0.01495 0.57495
 C124 C 0.28747 -0.01659 0.61909
 N125 N 0.32448 -0.05061 0.63393
 C126 C 0.37496 -0.05471 0.60648
 C127 C 0.38921 -0.02342 0.56200
 N128 N 0.35201 0.01105 0.54756
 N129 N 0.26415 0.04852 0.55995
 C130 C 0.21308 0.05171 0.58698
 C131 C 0.19857 0.01986 0.63125
 N132 N 0.23667 -0.01329 0.64616
 H133 H 0.40324 -0.08285 0.61887
 H134 H 0.18461 0.07938 0.57424
 C135 C -0.33350 0.01771 0.59596
 C136 C -0.30764 -0.03111 0.60114
 N137 N -0.32956 -0.07850 0.58148
 C138 C -0.37617 -0.07921 0.55671
 C139 C -0.40197 -0.03032 0.55138
 N140 N -0.38017 0.01698 0.57146
 N141 N -0.31151 0.06508 0.61550
 C142 C -0.26462 0.06602 0.63992
 C143 C -0.23841 0.01719 0.64528
 N144 N -0.26106 -0.03032 0.62578
 H145 H -0.39291 -0.11735 0.54119
 H146 H -0.24884 0.10424 0.65574
 C147 C -0.03830 -0.30502 0.93711
 C148 C -0.00589 -0.29351 0.89181
 N149 N 0.02819 -0.33084 0.87423
 C150 C 0.03159 -0.37926 0.89999
 C151 C -0.00029 -0.39109 0.94615
 N152 N -0.03504 -0.35334 0.96286
 N153 N -0.07200 -0.26742 0.95493
 C154 C -0.07438 -0.21844 0.92956
 C155 C -0.04146 -0.20635 0.88411
 N156 N -0.00827 -0.24475 0.86639
 H157 H 0.06088 -0.40679 0.88519
 H158 H -0.10225 -0.18977 0.94458
 C159 C -0.03938 0.31579 0.93322
 C160 C 0.00372 0.31269 0.89498
 N161 N 0.04574 0.35677 0.88327
 C162 C 0.04677 0.40383 0.90834
 C163 C 0.00387 0.40698 0.94701
 N164 N -0.03859 0.36281 0.95811
 N165 N -0.08067 0.27131 0.94550
 C166 C -0.08116 0.22382 0.92107
 C167 C -0.03839 0.22053 0.88207
 N168 N 0.00314 0.26546 0.87039
 H169 H 0.08114 0.43812 0.89868
 H170 H -0.11408 0.18900 0.93286
 C171 C -0.29430 -0.01266 0.43209
 C172 C -0.29256 -0.03429 0.38644
 N173 N -0.34229 -0.05626 0.37030
 C174 C -0.39398 -0.05721 0.39759
 C175 C -0.39657 -0.03501 0.44380
 N176 N -0.34580 -0.01339 0.45927
 N177 N -0.24455 0.00908 0.44846
 C178 C -0.19288 0.01004 0.42111
 C179 C -0.19076 -0.01168 0.37502
 N180 N -0.24113 -0.03320 0.35897
 H181 H -0.43186 -0.07720 0.38361
 H182 H -0.15425 0.02872 0.43492
 C183 C 0.34766 0.00318 0.39149
 C184 C 0.29747 -0.03408 0.40659
 N185 N 0.29650 -0.07104 0.44494
 C186 C 0.34340 -0.07201 0.46918
 C187 C 0.39337 -0.03374 0.45484
 N188 N 0.39432 0.00249 0.41581
 N189 N 0.34905 0.03940 0.35267
 C190 C 0.30227 0.04059 0.32841
 C191 C 0.25115 0.00399 0.34382
 N192 N 0.25059 -0.03280 0.38254
 H193 H 0.34173 -0.10217 0.49939
 H194 H 0.30573 0.06925 0.29702
   
