data_POSCAR
  _audit_creation_date              2014-09-24
  _audit_creation_method            'ToBaCCo'
  _symmetry_space_group_name_H-M    'P1'
  _symmetry_Int_Tables_number       1
  _symmetry_cell_setting            triclinic
  loop_
  _symmetry_equiv_pos_as_xyz
 x,y,z
_cell_length_a 38.4793
_cell_length_b 38.5741
_cell_length_c 38.6149
_cell_angle_alpha 91.013000
_cell_angle_beta 90.901000
_cell_angle_gamma 89.252600
loop_
  _atom_site_label
  _atom_site_type_symbol
  _atom_site_fract_x
  _atom_site_fract_y
  _atom_site_fract_z
C1 C 0.02416 0.45598 0.19950
 H2 H 0.04489 0.47457 0.19830
 C3 C 0.02649 0.42465 0.18082
 H4 H 0.04897 0.41922 0.16497
 C5 C -0.02975 0.43957 0.22279
 H6 H -0.05117 0.44492 0.23987
 C7 C -0.02849 0.40804 0.20458
 H8 H -0.04920 0.38957 0.20745
 N9 N -0.00368 0.46282 0.21998
 C10 C -0.00914 0.57455 0.23927
 H11 H -0.01147 0.57421 0.26715
 C12 C -0.00971 0.60605 0.22212
 H13 H -0.01246 0.63010 0.23680
 C14 C -0.00256 0.54356 0.18610
 H15 H 0.00003 0.51913 0.17222
 C16 C -0.00299 0.57462 0.16787
 H17 H -0.00052 0.57408 0.13996
 Zn18 Zn -0.00388 0.50361 0.24808
 N19 N -0.00513 0.54418 0.22124
 C20 C 0.06075 0.52871 0.27292
 N21 N 0.03730 0.50280 0.27566
 C22 C 0.04415 0.47479 0.29574
 C23 C 0.07568 0.47213 0.31412
 C24 C 0.09246 0.52708 0.29086
 C25 C -0.07488 0.50924 0.25803
 C26 C -0.10617 0.51005 0.27576
 C27 C -0.07388 0.50285 0.32941
 C28 C -0.04305 0.50219 0.31062
 N29 N -0.04420 0.50490 0.27551
 H30 H 0.05539 0.55027 0.25615
 H31 H 0.02541 0.45420 0.29688
 H32 H 0.08118 0.44956 0.32967
 H33 H 0.11113 0.54760 0.28811
 H34 H -0.07496 0.51170 0.23016
 H35 H -0.13048 0.51311 0.26153
 H36 H -0.07291 0.50031 0.35730
 H37 H -0.01837 0.49935 0.32406
 C38 C -0.00638 0.60612 0.18615
 C39 C -0.00002 0.40037 0.18359
 C40 C -0.10570 0.50662 0.31172
 C41 C 0.10010 0.49847 0.31145
 C42 C 0.02996 0.54349 0.79854
 H43 H 0.05092 0.52459 0.80021
 C44 C 0.03209 0.57480 0.81724
 H45 H 0.05464 0.58001 0.83356
 C46 C -0.02446 0.56059 0.77419
 H47 H -0.04603 0.55549 0.75672
 C48 C -0.02336 0.59210 0.79240
 H49 H -0.04429 0.61089 0.78920
 N50 N 0.00193 0.53697 0.77758
 C51 C -0.00239 0.42518 0.75971
 H52 H -0.00459 0.42503 0.73174
 C53 C -0.00306 0.39405 0.77746
 H54 H -0.00573 0.36979 0.76316
 C55 C 0.00361 0.45705 0.81254
 H56 H 0.00587 0.48169 0.82606
 C57 C 0.00305 0.42639 0.83136
 H58 H 0.00512 0.42744 0.85937
 Zn59 Zn 0.00169 0.49593 0.74994
 N60 N 0.00131 0.45580 0.77732
 C61 C 0.06623 0.46980 0.72624
 N62 N 0.04229 0.49587 0.72284
 C63 C 0.04825 0.52351 0.70242
 C64 C 0.07934 0.52562 0.68433
 C65 C 0.09756 0.47088 0.70862
 C66 C -0.06933 0.49117 0.73947
 C67 C -0.10106 0.49052 0.72159
 C68 C -0.07017 0.49655 0.66798
 C69 C -0.03889 0.49707 0.68698
 N70 N -0.03916 0.49487 0.72212
 H71 H 0.06158 0.44855 0.74329
 H72 H 0.02912 0.54424 0.70076
 H73 H 0.08413 0.54789 0.66848
 H74 H 0.11664 0.45024 0.71187
 H75 H -0.06867 0.48909 0.76738
 H76 H -0.12491 0.48796 0.73587
 H77 H -0.06977 0.49869 0.64003
 H78 H -0.01457 0.49938 0.67368
 C79 C -0.00019 0.39464 0.81357
 C80 C 0.00522 0.59936 0.81395
 C81 C -0.10156 0.49344 0.68553
 C82 C 0.10427 0.49911 0.68767
 C83 C 0.20060 0.03088 0.45608
 H84 H 0.19908 0.05197 0.47485
 C85 C 0.18184 0.03279 0.42482
 H86 H 0.16563 0.05531 0.41954
 C87 C 0.22461 -0.02369 0.43922
 H88 H 0.24196 -0.04525 0.44438
 C89 C 0.20633 -0.02282 0.40777
 H90 H 0.20938 -0.04390 0.38911
 N91 N 0.22141 0.00287 0.46268
 C92 C 0.23930 -0.00071 0.57435
 H93 H 0.26734 -0.00310 0.57444
 C94 C 0.22147 -0.00118 0.60547
 H95 H 0.23579 -0.00387 0.62968
 C96 C 0.18633 0.00544 0.54261
 H97 H 0.17279 0.00763 0.51801
 C98 C 0.16743 0.00508 0.57327
 H99 H 0.13934 0.00725 0.57227
 Zn100 Zn 0.24914 0.00273 0.50365
 N101 N 0.22166 0.00294 0.54380
 C102 C 0.27398 0.06696 0.52956
 N103 N 0.27695 0.04287 0.50353
 C104 C 0.29758 0.04831 0.47588
 C105 C 0.31640 0.07896 0.47377
 C106 C 0.29234 0.09785 0.52847
 C107 C 0.25858 -0.06815 0.50871
 C108 C 0.27603 -0.10001 0.50933
 C109 C 0.33027 -0.07002 0.50289
 C110 C 0.31173 -0.03856 0.50241
 N111 N 0.27647 -0.03832 0.50481
 H112 H 0.25676 0.06272 0.55082
 H113 H 0.29890 0.02908 0.45519
 H114 H 0.33247 0.08331 0.45152
 H115 H 0.28949 0.11702 0.54911
 H116 H 0.23059 -0.06710 0.51093
 H117 H 0.26148 -0.12365 0.51199
 H118 H 0.35829 -0.07020 0.50055
 H119 H 0.32548 -0.01451 0.49993
 C120 C 0.18525 0.00184 0.60495
 C121 C 0.18491 0.00572 0.40043
 C122 C 0.31214 -0.10099 0.50617
 C123 C 0.31357 0.10400 0.50027
 C124 C 0.79989 0.02477 0.54278
 H125 H 0.80099 0.04555 0.52439
 C126 C 0.81849 0.02717 0.57414
 H127 H 0.83417 0.04973 0.57988
 C128 C 0.77693 -0.02935 0.55867
 H129 H 0.76000 -0.05090 0.55313
 C130 C 0.79508 -0.02799 0.59021
 H131 H 0.79234 -0.04869 0.60854
 N132 N 0.77963 -0.00322 0.53565
 C133 C 0.76071 -0.00885 0.42394
 H134 H 0.73278 -0.01168 0.42421
 C135 C 0.77801 -0.00897 0.39249
 H136 H 0.76333 -0.01190 0.36845
 C137 C 0.81383 -0.00136 0.45503
 H138 H 0.82762 0.00145 0.47948
 C139 C 0.83224 -0.00132 0.42405
 H140 H 0.86020 0.00172 0.42475
 Zn141 Zn 0.75156 -0.00369 0.49484
 N142 N 0.77863 -0.00457 0.45433
 C143 C 0.72611 0.06045 0.46997
 N144 N 0.72353 0.03709 0.49581
 C145 C 0.70326 0.04378 0.52380
 C146 C 0.68446 0.07498 0.52646
 C147 C 0.70776 0.09184 0.47160
 C148 C 0.74224 -0.07462 0.48876
 C149 C 0.72484 -0.10610 0.48829
 C150 C 0.67074 -0.07463 0.49629
 C151 C 0.68921 -0.04360 0.49660
 N152 N 0.72440 -0.04425 0.49339
 H153 H 0.74304 0.05525 0.44843
 H154 H 0.70224 0.02512 0.54434
 H155 H 0.66869 0.08032 0.54897
 H156 H 0.71033 0.11040 0.45109
 H157 H 0.77016 -0.07431 0.48595
 H158 H 0.73937 -0.13016 0.48512
 H159 H 0.64280 -0.07407 0.49935
 H160 H 0.67548 -0.01917 0.49969
 C161 C 0.81407 -0.00492 0.39249
 C162 C 0.81584 0.00060 0.59813
 C163 C 0.68883 -0.10614 0.49235
 C164 C 0.68692 0.09927 0.50015
 C165 C 0.54294 0.20215 0.96830
 H166 H 0.52409 0.20082 0.94725
 C167 C 0.57417 0.18332 0.96614
 H168 H 0.57936 0.16723 0.94349
 C169 C 0.56001 0.22574 1.02301
 H170 H 0.55495 0.24296 1.04473
 C171 C 0.59144 0.20738 1.02190
 H172 H 0.61018 0.21022 1.04297
 N173 N 0.53644 0.22278 0.99649
 C174 C 0.42452 0.24108 1.00040
 H175 H 0.42461 0.26905 1.00307
 C176 C 0.39315 0.22343 1.00059
 H177 H 0.36897 0.23788 1.00337
 C178 C 0.45604 0.18816 0.99373
 H179 H 0.48064 0.17458 0.99141
 C180 C 0.42515 0.16941 0.99380
 H181 H 0.42606 0.14139 0.99129
 Zn182 Zn 0.49555 0.25062 0.99691
 N183 N 0.45507 0.22339 0.99660
 C184 C 0.46975 0.27560 0.93294
 N185 N 0.49589 0.27836 0.95696
 C186 C 0.52388 0.29870 0.95156
 C187 C 0.52624 0.31738 0.92099
 C188 C 0.47108 0.29382 0.90212
 C189 C 0.49065 0.26017 1.06783
 C190 C 0.49036 0.27767 1.09970
 C191 C 0.49726 0.33163 1.06980
 C192 C 0.49741 0.31306 1.03834
 N193 N 0.49464 0.27790 1.03804
 H194 H 0.44822 0.25861 0.93715
 H195 H 0.54465 0.29985 0.97074
 H196 H 0.54878 0.33318 0.91665
 H197 H 0.45037 0.29110 0.88297
 H198 H 0.48814 0.23227 1.06674
 H199 H 0.48765 0.26324 1.12331
 H200 H 0.49991 0.35955 1.07002
 H201 H 0.49995 0.32669 1.01434
 C202 C 0.39343 0.18728 0.99714
 C203 C 0.59867 0.18614 0.99317
 C204 C 0.49393 0.31366 1.10073
 C205 C 0.49965 0.31472 0.89600
 C206 C 0.45402 0.79729 0.97825
 H207 H 0.47257 0.79895 0.95760
 C208 C 0.42254 0.81578 0.97628
 H209 H 0.41695 0.83193 0.95414
 C210 C 0.43793 0.77316 1.03166
 H211 H 0.44348 0.75588 1.05277
 C212 C 0.40626 0.79116 1.03073
 H213 H 0.38789 0.78791 1.05138
 N214 N 0.46112 0.77654 1.00571
 C215 C 0.57338 0.75931 1.01150
 H216 H 0.57349 0.73138 1.01363
 C217 C 0.60468 0.77713 1.01229
 H218 H 0.62901 0.76292 1.01501
 C219 C 0.54150 0.81194 1.00518
 H220 H 0.51680 0.82535 1.00259
 C221 C 0.57232 0.83083 1.00583
 H222 H 0.57134 0.85877 1.00353
 Zn223 Zn 0.50238 0.74911 1.00580
 N224 N 0.54267 0.77676 1.00749
 C225 C 0.52813 0.72512 0.94141
 N226 N 0.50208 0.72174 0.96452
 C227 C 0.47442 0.70101 0.95735
 C228 C 0.47235 0.68251 0.92590
 C229 C 0.52709 0.70710 0.90978
 C230 C 0.50811 0.73878 1.07648
 C231 C 0.50884 0.72089 1.10754
 C232 C 0.50201 0.66727 1.07494
 C233 C 0.50143 0.68622 1.04436
 N234 N 0.50395 0.72140 1.04576
 H235 H 0.54940 0.74240 0.94700
 H236 H 0.45369 0.69934 0.97584
 H237 H 0.45010 0.66635 0.92019
 H238 H 0.54777 0.71029 0.89142
 H239 H 0.51041 0.76671 1.07677
 H240 H 0.51168 0.73505 1.13188
 H241 H 0.49955 0.63933 1.07378
 H242 H 0.49873 0.67286 1.01966
 C243 C 0.60418 0.81317 1.00919
 C244 C 0.39838 0.81252 1.00273
 C245 C 0.50552 0.68486 1.10680
 C246 C 0.49890 0.68576 0.90187
 B247 B 0.99969 1.03613 0.02150
 B248 B 1.02193 1.00092 0.03515
 B249 B 0.97814 1.00118 0.03478
 B250 B 0.96422 1.02247 -0.00063
 B251 B 0.99938 1.03535 -0.02212
 B252 B 1.03502 1.02205 -0.00003
 B253 B 0.99989 0.96473 -0.02216
 B254 B 0.97764 0.99994 -0.03581
 B255 B 1.02141 0.99970 -0.03542
 B256 B 1.03536 0.97839 -0.00003
 B257 B 1.00019 0.96549 0.02148
 B258 B 0.96453 0.97880 -0.00065
 B259 B 0.53544 0.49902 0.47984
 B260 B 0.53563 0.49960 0.52345
 B261 B 0.52173 0.53470 0.50164
 B262 B 0.49980 0.52084 0.46604
 B263 B 0.50017 0.47718 0.46587
 B264 B 0.52230 0.46405 0.50133
 B265 B 0.46480 0.49995 0.52263
 B266 B 0.46462 0.49935 0.47901
 B267 B 0.47852 0.46427 0.50083
 B268 B 0.50044 0.47812 0.53642
 B269 B 0.50009 0.52179 0.53662
 B270 B 0.47795 0.53491 0.50112
 C271 C 1.00228 1.36883 0.16728
 C272 C 1.00370 1.34047 0.15367
 C273 C 1.00466 1.30620 0.13833
 C274 C 0.98303 1.29809 0.10995
 C275 C 0.98273 1.26436 0.09607
 C276 C 1.00405 1.23824 0.11048
 C277 C 1.02592 1.24674 0.13884
 C278 C 1.02618 1.28049 0.15266
 C279 C 1.00326 1.20225 0.09614
 C280 C 1.00438 1.17364 0.11832
 C281 C 1.00336 1.13979 0.10476
 C282 C 1.00122 1.13414 0.06891
 C283 C 1.00018 1.16238 0.04665
 C284 C 1.00116 1.19621 0.06014
 C285 C 1.00038 1.09950 0.05462
 C286 C 0.99986 1.07109 0.04124
 H287 H 0.96606 1.31771 0.09881
 H288 H 0.96529 1.25855 0.07453
 H289 H 1.04296 1.22734 0.15021
 H290 H 1.04298 1.28647 0.17468
 H291 H 1.00554 1.17745 0.14616
 H292 H 1.00417 1.11808 0.12219
 H293 H 0.99873 1.15824 0.01884
 H294 H 1.00073 1.21762 0.04237
 C295 C 0.99406 0.63868 0.16854
 C296 C 0.99461 0.66663 0.15508
 C297 C 0.99543 0.70062 0.14036
 C298 C 0.99939 0.72973 0.16213
 C299 C 1.00020 0.76288 0.14820
 C300 C 0.99702 0.76740 0.11222
 C301 C 0.99304 0.73796 0.09050
 C302 C 0.99227 0.70478 0.10451
 C303 C 0.99773 0.80269 0.09749
 C304 C 0.97493 0.81182 0.07020
 C305 C 0.97549 0.84508 0.05648
 C306 C 0.99884 0.86963 0.06977
 C307 C 1.02164 0.86086 0.09688
 C308 C 1.02108 0.82761 0.11070
 C309 C 0.99981 0.90347 0.05489
 C310 C 1.00028 0.93127 0.04126
 H311 H 1.00175 0.72680 0.18993
 H312 H 1.00280 0.78503 0.16563
 H313 H 0.99096 0.74057 0.06267
 H314 H 0.98928 0.68241 0.08741
 H315 H 0.95637 0.79338 0.05976
 H316 H 0.95776 0.85164 0.03544
 H317 H 1.03998 0.87963 0.10718
 H318 H 1.03926 0.82123 0.13138
 C319 C 0.99953 1.36253 -0.16807
 C320 C 0.99930 1.33500 -0.15380
 C321 C 0.99904 1.30155 -0.13791
 C322 C 0.96745 1.28546 -0.13155
 C323 C 0.96717 1.25219 -0.11780
 C324 C 0.99855 1.23452 -0.11032
 C325 C 1.03018 1.25107 -0.11649
 C326 C 1.03039 1.28436 -0.13022
 C327 C 0.99828 1.19887 -0.09646
 C328 C 1.02214 1.17354 -0.10835
 C329 C 1.02196 1.14002 -0.09518
 C330 C 0.99793 1.13140 -0.07004
 C331 C 0.97401 1.15633 -0.05814
 C332 C 0.97415 1.18985 -0.07125
 C333 C 0.99851 1.09743 -0.05539
 C334 C 0.99895 1.06958 -0.04187
 H335 H 0.94303 1.29844 -0.13767
 H336 H 0.94241 1.23999 -0.11374
 H337 H 1.05474 1.23834 -0.11054
 H338 H 1.05500 1.29655 -0.13511
 H339 H 1.04072 1.17956 -0.12806
 H340 H 1.04064 1.12090 -0.10447
 H341 H 0.95548 1.14994 -0.03846
 H342 H 0.95577 1.20887 -0.06125
 C343 C 1.00730 0.63256 -0.16863
 C344 C 1.00831 0.66086 -0.15493
 C345 C 1.00876 0.69505 -0.13945
 C346 C 1.02926 0.72080 -0.15355
 C347 C 1.02845 0.75450 -0.13963
 C348 C 1.00705 0.76288 -0.11139
 C349 C 0.98678 0.73671 -0.09719
 C350 C 0.98762 0.70304 -0.11118
 C351 C 1.00563 0.79881 -0.09699
 C352 C 1.00435 0.80477 -0.06098
 C353 C 1.00282 0.83856 -0.04744
 C354 C 1.00248 0.86684 -0.06965
 C355 C 1.00376 0.86127 -0.10549
 C356 C 1.00533 0.82745 -0.11911
 C357 C 1.00115 0.90143 -0.05532
 C358 C 1.00032 0.92982 -0.04192
 H359 H 1.04567 0.71490 -0.17548
 H360 H 1.04469 0.77395 -0.15082
 H361 H 0.96973 0.74244 -0.07575
 H362 H 0.97145 0.68336 -0.10024
 H363 H 1.00500 0.78332 -0.04326
 H364 H 1.00204 0.84265 -0.01962
 H365 H 1.00349 0.88301 -0.12288
 H366 H 1.00583 0.82370 -0.14695
 C367 C 1.16744 1.00747 0.36728
 C368 C 1.15377 1.00803 0.33900
 C369 C 1.13844 1.00777 0.30477
 C370 C 1.13023 1.03893 0.28834
 C371 C 1.11669 1.03850 0.25451
 C372 C 1.11130 1.00684 0.23666
 C373 C 1.11938 0.97567 0.25354
 C374 C 1.13287 0.97616 0.28735
 C375 C 1.09743 1.00627 0.20056
 C376 C 1.11090 0.98267 0.17581
 C377 C 1.09749 0.98179 0.14195
 C378 C 1.07053 1.00450 0.13241
 C379 C 1.05709 1.02821 0.15673
 C380 C 1.07045 1.02913 0.19059
 C381 C 1.05570 1.00285 0.09806
 C382 C 1.04198 1.00173 0.06986
 H383 H 1.13465 1.06355 0.30151
 H384 H 1.11108 1.06292 0.24207
 H385 H 1.11504 0.95089 0.24069
 H386 H 1.13916 0.95189 0.29983
 H387 H 1.13197 0.96506 0.18258
 H388 H 1.10801 0.96331 0.12330
 H389 H 1.03602 1.04572 0.14962
 H390 H 1.05924 1.04727 0.20913
 C391 C 1.16681 1.00159 -0.36295
 C392 C 1.15250 1.00135 -0.33542
 C393 C 1.13658 1.00102 -0.30197
 C394 C 1.13219 1.03199 -0.28303
 C395 C 1.11846 1.03152 -0.24975
 C396 C 1.10898 1.00001 -0.23495
 C397 C 1.11314 0.96905 -0.25436
 C398 C 1.12691 0.96958 -0.28763
 C399 C 1.09515 0.99939 -0.19930
 C400 C 1.06736 0.97769 -0.19141
 C401 C 1.05430 0.97722 -0.15786
 C402 C 1.06885 0.99837 -0.13179
 C403 C 1.09655 1.01997 -0.13929
 C404 C 1.10966 1.02048 -0.17283
 C405 C 1.05438 0.99872 -0.09773
 C406 C 1.04100 0.99908 -0.06978
 H407 H 1.13967 1.05646 -0.29387
 H408 H 1.11512 1.05582 -0.23565
 H409 H 1.10648 0.94435 -0.24352
 H410 H 1.13047 0.94543 -0.30196
 H411 H 1.05534 0.96152 -0.21130
 H412 H 1.03264 0.96062 -0.15234
 H413 H 1.10790 1.03650 -0.11927
 H414 H 1.13135 1.03712 -0.17800
 C415 C 0.83094 0.99611 0.36178
 C416 C 0.84480 0.99723 0.33402
 C417 C 0.86012 0.99877 0.30033
 C418 C 0.88924 0.97824 0.29229
 C419 C 0.90336 0.97911 0.25915
 C420 C 0.88843 1.00050 0.23359
 C421 C 0.85928 1.02117 0.24204
 C422 C 0.84525 1.02028 0.27517
 C423 C 0.90305 1.00109 0.19823
 C424 C 0.88092 1.00215 0.16885
 C425 C 0.89471 1.00251 0.13556
 C426 C 0.93073 1.00186 0.13123
 C427 C 0.95295 1.00088 0.16025
 C428 C 0.93924 1.00050 0.19353
 C429 C 0.94517 1.00191 0.09714
 C430 C 0.95854 1.00175 0.06917
 H431 H 0.90084 0.96135 0.31151
 H432 H 0.92553 0.96258 0.25333
 H433 H 0.84750 1.03824 0.22311
 H434 H 0.82270 1.03628 0.28112
 H435 H 0.85296 1.00216 0.17159
 H436 H 0.87730 1.00314 0.11324
 H437 H 0.98089 1.00041 0.15714
 H438 H 0.95694 1.00013 0.21560
 C439 C 0.83292 1.00306 -0.36849
 C440 C 0.84626 1.00440 -0.34004
 C441 C 0.86125 1.00528 -0.30564
 C442 C 0.89290 0.98828 -0.29879
 C443 C 0.90662 0.98782 -0.26505
 C444 C 0.88878 1.00430 -0.23766
 C445 C 0.85711 1.02155 -0.24488
 C446 C 0.84346 1.02200 -0.27864
 C447 C 0.90302 1.00330 -0.20169
 C448 C 0.88092 0.99842 -0.17350
 C449 C 0.89441 0.99734 -0.13967
 C450 C 0.93010 1.00117 -0.13362
 C451 C 0.95227 1.00607 -0.16145
 C452 C 0.93887 1.00710 -0.19526
 C453 C 0.94431 1.00025 -0.09900
 C454 C 0.95770 0.99981 -0.07063
 H455 H 0.90676 0.97504 -0.31945
 H456 H 0.93082 0.97397 -0.26027
 H457 H 0.84300 1.03487 -0.22446
 H458 H 0.81890 1.03519 -0.28364
 H459 H 0.85328 0.99495 -0.17765
 H460 H 0.87706 0.99347 -0.11830
 H461 H 0.97993 1.00923 -0.15699
 H462 H 0.95649 1.01134 -0.21631
 C463 C 1.36284 1.16994 -0.00302
 C464 C 1.33520 1.15557 -0.00314
 C465 C 1.30166 1.13954 -0.00325
 C466 C 1.27933 1.14289 -0.03198
 C467 C 1.24607 1.12879 -0.03155
 C468 C 1.23469 1.11118 -0.00230
 C469 C 1.25747 1.10766 0.02634
 C470 C 1.29072 1.12181 0.02585
 C471 C 1.19912 1.09680 -0.00155
 C472 C 1.19336 1.06417 0.01286
 C473 C 1.15988 1.05067 0.01357
 C474 C 1.13172 1.06957 -0.00006
 C475 C 1.13710 1.10206 -0.01442
 C476 C 1.17059 1.11563 -0.01516
 C477 C 1.09756 1.05506 0.00006
 C478 C 1.06951 1.04165 0.00011
 H479 H 1.28754 1.15662 -0.05462
 H480 H 1.22932 1.13150 -0.05416
 H481 H 1.24931 1.09462 0.04938
 H482 H 1.30771 1.11930 0.04833
 H483 H 1.21482 1.04886 0.02312
 H484 H 1.15596 1.02539 0.02457
 H485 H 1.11545 1.11686 -0.02508
 H486 H 1.17413 1.14101 -0.02601
 C487 C 0.63177 1.16853 -0.00879
 C488 C 0.66000 1.15466 -0.00952
 C489 C 0.69412 1.13897 -0.00940
 C490 C 0.71616 1.14328 -0.03744
 C491 C 0.74994 1.12947 -0.03648
 C492 C 0.76210 1.11118 -0.00739
 C493 C 0.73961 1.10676 0.02053
 C494 C 0.70588 1.12060 0.01952
 C495 C 0.79815 1.09701 -0.00599
 C496 C 0.80499 1.06414 0.00801
 C497 C 0.83892 1.05090 0.00960
 C498 C 0.86645 1.07025 -0.00278
 C499 C 0.85999 1.10295 -0.01678
 C500 C 0.82604 1.11629 -0.01837
 C501 C 0.90105 1.05589 -0.00183
 C502 C 0.92941 1.04241 -0.00114
 H503 H 0.70734 1.15754 -0.05992
 H504 H 0.76648 1.13292 -0.05856
 H505 H 0.74834 1.09324 0.04347
 H506 H 0.68912 1.11736 0.04149
 H507 H 0.78406 1.04848 0.01731
 H508 H 0.84366 1.02546 0.02031
 H509 H 0.88116 1.11808 -0.02648
 H510 H 0.82166 1.14184 -0.02888
 C511 C 1.36680 0.82884 0.00091
 C512 C 1.33841 0.84245 0.00004
 C513 C 1.30409 0.85776 -0.00017
 C514 C 1.29208 0.87669 -0.02864
 C515 C 1.25842 0.89086 -0.02892
 C516 C 1.23631 0.88619 -0.00072
 C517 C 1.24870 0.86722 0.02781
 C518 C 1.28234 0.85312 0.02804
 C519 C 1.20049 0.90106 -0.00097
 C520 C 1.17259 0.88209 0.01187
 C521 C 1.13895 0.89627 0.01196
 C522 C 1.13277 0.92954 -0.00078
 C523 C 1.16028 0.94856 -0.01372
 C524 C 1.19392 0.93445 -0.01384
 C525 C 1.09841 0.94458 -0.00023
 C526 C 1.07018 0.95838 0.00005
 H527 H 1.30864 0.88029 -0.05069
 H528 H 1.24950 0.90499 -0.05142
 H529 H 1.23252 0.86360 0.05011
 H530 H 1.29138 0.83853 0.05023
 H531 H 1.17673 0.85616 0.02153
 H532 H 1.11781 0.88133 0.02200
 H533 H 1.15576 0.97440 -0.02354
 H534 H 1.21487 0.94989 -0.02346
 C535 C 0.63650 0.83152 0.00888
 C536 C 0.66418 0.84578 0.00838
 C537 C 0.69778 0.86168 0.00755
 C538 C 0.72036 0.85949 0.03622
 C539 C 0.75367 0.87342 0.03487
 C540 C 0.76486 0.88971 0.00476
 C541 C 0.74183 0.89206 -0.02381
 C542 C 0.70854 0.87809 -0.02241
 C543 C 0.80047 0.90394 0.00308
 C544 C 0.80619 0.93582 -0.01291
 C545 C 0.83968 0.94925 -0.01436
 C546 C 0.86788 0.93105 0.00011
 C547 C 0.86255 0.89927 0.01596
 C548 C 0.82906 0.88577 0.01743
 C549 C 0.90201 0.94567 -0.00047
 C550 C 0.93003 0.95916 -0.00074
 H551 H 0.71232 0.84678 0.05952
 H552 H 0.77059 0.87163 0.05745
 H553 H 0.74981 0.90406 -0.04749
 H554 H 0.69137 0.87970 -0.04485
 H555 H 0.78470 0.95065 -0.02379
 H556 H 0.84354 0.97399 -0.02652
 H557 H 0.88423 0.88501 0.02728
 H558 H 0.82557 0.86095 0.02949
 C559 C 0.86199 0.50659 0.32999
 C560 C 0.83432 0.50642 0.34418
 C561 C 0.80071 0.50611 0.36000
 C562 C 0.77415 0.52807 0.34786
 C563 C 0.74106 0.52697 0.36217
 C564 C 0.73406 0.50382 0.38886
 C565 C 0.76101 0.48201 0.40108
 C566 C 0.79410 0.48314 0.38669
 C567 C 0.69876 0.50234 0.40375
 C568 C 0.69456 0.49879 0.43964
 C569 C 0.66134 0.49760 0.45365
 C570 C 0.63191 0.49986 0.43202
 C571 C 0.63574 0.50331 0.39630
 C572 C 0.66896 0.50454 0.38222
 C573 C 0.59790 0.49916 0.44680
 C574 C 0.56995 0.49885 0.46032
 H575 H 0.77897 0.54593 0.32717
 H576 H 0.72101 0.54442 0.35254
 H577 H 0.75634 0.46363 0.42130
 H578 H 0.81441 0.46586 0.39613
 H579 H 0.71694 0.49749 0.45694
 H580 H 0.65861 0.49513 0.48138
 H581 H 0.61309 0.50508 0.37935
 H582 H 0.67134 0.50683 0.35446
 C583 C 0.13360 0.49576 0.32836
 C584 C 0.16218 0.49420 0.34155
 C585 C 0.19675 0.49309 0.35632
 C586 C 0.22550 0.49443 0.33465
 C587 C 0.25916 0.49451 0.34878
 C588 C 0.26454 0.49326 0.38486
 C589 C 0.23547 0.49163 0.40644
 C590 C 0.20180 0.49160 0.39223
 C591 C 0.30029 0.49402 0.39990
 C592 C 0.30952 0.47294 0.42804
 C593 C 0.34307 0.47397 0.44239
 C594 C 0.36780 0.49610 0.42889
 C595 C 0.35897 0.51709 0.40085
 C596 C 0.32544 0.51604 0.38639
 C597 C 0.40189 0.49775 0.44452
 C598 C 0.42994 0.49880 0.45871
 H599 H 0.22189 0.49557 0.30680
 H600 H 0.28099 0.49530 0.33147
 H601 H 0.23874 0.49108 0.43432
 H602 H 0.17972 0.49074 0.40926
 H603 H 0.29090 0.45542 0.43874
 H604 H 0.34969 0.45760 0.46410
 H605 H 0.37789 0.53444 0.39035
 H606 H 0.31900 0.53292 0.36505
 C607 C 0.86869 0.49363 0.66872
 C608 C 0.84067 0.49393 0.65429
 C609 C 0.80662 0.49443 0.63837
 C610 C 0.79006 0.52609 0.63130
 C611 C 0.75617 0.52669 0.61772
 C612 C 0.73838 0.49558 0.61107
 C613 C 0.75542 0.46386 0.61790
 C614 C 0.78930 0.46333 0.63152
 C615 C 0.70210 0.49619 0.59741
 C616 C 0.69138 0.47207 0.57179
 C617 C 0.65726 0.47273 0.55888
 C618 C 0.63342 0.49742 0.57140
 C619 C 0.64374 0.52146 0.59695
 C620 C 0.67787 0.52086 0.60991
 C621 C 0.59881 0.49869 0.55697
 C622 C 0.57043 0.49939 0.54347
 H623 H 0.80321 0.55032 0.63661
 H624 H 0.74393 0.55148 0.61228
 H625 H 0.74227 0.43950 0.61346
 H626 H 0.80178 0.43869 0.63717
 H627 H 0.70951 0.45308 0.56132
 H628 H 0.64955 0.45418 0.53888
 H629 H 0.62547 0.54074 0.60673
 H630 H 0.68522 0.53946 0.62995
 C631 C 0.13734 0.50128 0.67103
 C632 C 0.16556 0.50241 0.65800
 C633 C 0.19970 0.50304 0.64336
 C634 C 0.20560 0.52136 0.61310
 C635 C 0.23884 0.52164 0.59894
 C636 C 0.26661 0.50359 0.61493
 C637 C 0.26039 0.48536 0.64540
 C638 C 0.22716 0.48510 0.65948
 C639 C 0.30182 0.50342 0.59973
 C640 C 0.33168 0.50598 0.62114
 C641 C 0.36483 0.50531 0.60678
 C642 C 0.36853 0.50205 0.57089
 C643 C 0.33903 0.49963 0.54937
 C644 C 0.30589 0.50030 0.56365
 C645 C 0.40245 0.50122 0.55589
 C646 C 0.43034 0.50056 0.54221
 H647 H 0.18455 0.53541 0.60047
 H648 H 0.24289 0.53625 0.57570
 H649 H 0.28108 0.47082 0.65804
 H650 H 0.22285 0.47075 0.68287
 H651 H 0.32938 0.50885 0.64896
 H652 H 0.38752 0.50736 0.62363
 H653 H 0.34166 0.49709 0.52154
 H654 H 0.28349 0.49782 0.54652
 C655 C 0.50513 0.66645 0.13888
 C656 C 0.50457 0.65216 0.16638
 C657 C 0.50368 0.63626 0.19979
 C658 C 0.47265 0.63610 0.21822
 C659 C 0.47203 0.62224 0.25140
 C660 C 0.50249 0.60836 0.26663
 C661 C 0.53348 0.60831 0.24774
 C662 C 0.53405 0.62223 0.21456
 C663 C 0.50201 0.59428 0.30217
 C664 C 0.52064 0.56375 0.31017
 C665 C 0.52017 0.55055 0.34361
 C666 C 0.50112 0.56763 0.36950
 C667 C 0.48255 0.59802 0.36189
 C668 C 0.48298 0.61130 0.32844
 C669 C 0.50023 0.55337 0.40359
 C670 C 0.49978 0.54017 0.43158
 H671 H 0.44900 0.64695 0.20705
 H672 H 0.44768 0.62222 0.26508
 H673 H 0.55745 0.59820 0.25891
 H674 H 0.55827 0.62244 0.20062
 H675 H 0.53515 0.54982 0.29044
 H676 H 0.53450 0.52688 0.34924
 H677 H 0.46773 0.61142 0.38178
 H678 H 0.46876 0.63509 0.32322
 C679 C 0.49696 0.66848 0.86856
 C680 C 0.49617 0.65492 0.84019
 C681 C 0.49610 0.63964 0.80590
 C682 C 0.52757 0.63387 0.78893
 C683 C 0.52771 0.62029 0.75513
 C684 C 0.49631 0.61230 0.73780
 C685 C 0.46479 0.61795 0.75519
 C686 C 0.46472 0.63158 0.78900
 C687 C 0.49649 0.59824 0.70174
 C688 C 0.47388 0.57144 0.69152
 C689 C 0.47446 0.55787 0.65773
 C690 C 0.49757 0.57092 0.63370
 C691 C 0.52001 0.59771 0.64350
 C692 C 0.51947 0.61132 0.67729
 C693 C 0.49888 0.55588 0.59943
 C694 C 0.49970 0.54202 0.57128
 H695 H 0.55202 0.64004 0.80175
 H696 H 0.55240 0.61577 0.74266
 H697 H 0.44018 0.61243 0.74241
 H698 H 0.44020 0.63616 0.80182
 H699 H 0.45622 0.56051 0.70983
 H700 H 0.45714 0.53695 0.65044
 H701 H 0.53801 0.60795 0.62508
 H702 H 0.53687 0.63225 0.68423
 C703 C 0.49475 0.33164 0.13367
 C704 C 0.49565 0.34551 0.16188
 C705 C 0.49692 0.36084 0.19609
 C706 C 0.47112 0.38445 0.20664
 C707 C 0.47172 0.39822 0.24038
 C708 C 0.49814 0.38845 0.26402
 C709 C 0.52409 0.36488 0.25305
 C710 C 0.52345 0.35118 0.21931
 C711 C 0.49854 0.40262 0.30002
 C712 C 0.50712 0.38116 0.32810
 C713 C 0.50745 0.39456 0.36199
 C714 C 0.49922 0.42951 0.36818
 C715 C 0.49064 0.45105 0.34047
 C716 C 0.49029 0.43773 0.30660
 C717 C 0.49979 0.44369 0.40281
 C718 C 0.50009 0.45711 0.43117
 H719 H 0.45033 0.39192 0.18893
 H720 H 0.45116 0.41599 0.24819
 H721 H 0.54502 0.35724 0.27048
 H722 H 0.54353 0.33289 0.21140
 H723 H 0.51314 0.35393 0.32389
 H724 H 0.51408 0.37769 0.38330
 H725 H 0.48431 0.47819 0.34504
 H726 H 0.48403 0.45500 0.28553
 C727 C 0.50209 0.33203 0.86345
 C728 C 0.50353 0.34566 0.83567
 C729 C 0.50464 0.36106 0.80205
 C730 C 0.48420 0.39038 0.79477
 C731 C 0.48410 0.40441 0.76163
 C732 C 0.50441 0.38920 0.73529
 C733 C 0.52508 0.35989 0.74297
 C734 C 0.52516 0.34593 0.77613
 C735 C 0.50378 0.40367 0.69990
 C736 C 0.50337 0.38152 0.67051
 C737 C 0.50254 0.39520 0.63721
 C738 C 0.50215 0.43112 0.63288
 C739 C 0.50261 0.45335 0.66191
 C740 C 0.50340 0.43976 0.69520
 C741 C 0.50139 0.44545 0.59880
 C742 C 0.50086 0.45873 0.57083
 H743 H 0.46802 0.40215 0.81457
 H744 H 0.46758 0.42671 0.75641
 H745 H 0.54134 0.34789 0.72339
 H746 H 0.54104 0.32319 0.78148
 H747 H 0.50317 0.35364 0.67329
 H748 H 0.50211 0.37779 0.61487
 H749 H 0.50247 0.48122 0.65879
 H750 H 0.50415 0.45747 0.71726
 C751 C 0.67099 0.86133 0.49319
 C752 C 0.65728 0.83345 0.49417
 C753 C 0.64217 0.79957 0.49561
 C754 C 0.60754 0.79444 0.48541
 C755 C 0.59322 0.76133 0.48661
 C756 C 0.61343 0.73292 0.49799
 C757 C 0.64820 0.73842 0.50825
 C758 C 0.66242 0.77151 0.50706
 C759 C 0.59841 0.69769 0.49912
 C760 C 0.61811 0.66838 0.48880
 C761 C 0.60395 0.63522 0.48985
 C762 C 0.57000 0.63094 0.50128
 C763 C 0.55020 0.65988 0.51165
 C764 C 0.56428 0.69305 0.51058
 C765 C 0.55502 0.59703 0.50170
 C766 C 0.54138 0.56914 0.50185
 H767 H 0.59166 0.81596 0.47640
 H768 H 0.56651 0.75786 0.47814
 H769 H 0.66427 0.71721 0.51759
 H770 H 0.68925 0.77521 0.51509
 H771 H 0.64428 0.67115 0.47941
 H772 H 0.61939 0.61299 0.48156
 H773 H 0.52387 0.65680 0.52056
 H774 H 0.54861 0.71501 0.51909
 C775 C 0.66935 0.13237 0.50270
 C776 C 0.65550 0.16058 0.50398
 C777 C 0.63979 0.19465 0.50457
 C778 C 0.62117 0.20641 0.47556
 C779 C 0.60723 0.24005 0.47534
 C780 C 0.61179 0.26246 0.50417
 C781 C 0.63036 0.25032 0.53331
 C782 C 0.64427 0.21663 0.53348
 C783 C 0.59745 0.29841 0.50365
 C784 C 0.61672 0.32628 0.51760
 C785 C 0.60324 0.36012 0.51682
 C786 C 0.57039 0.36651 0.50206
 C787 C 0.55104 0.33900 0.48814
 C788 C 0.56442 0.30518 0.48893
 C789 C 0.55592 0.40103 0.50179
 C790 C 0.54235 0.42932 0.50153
 H791 H 0.61779 0.18972 0.45293
 H792 H 0.59350 0.24876 0.45234
 H793 H 0.63392 0.26678 0.55606
 H794 H 0.65872 0.20782 0.55604
 H795 H 0.64239 0.32197 0.52872
 H796 H 0.61839 0.38126 0.52770
 H797 H 0.52549 0.34367 0.47683
 H798 H 0.54875 0.28428 0.47842
 C799 C 0.33003 0.86604 0.50577
 C800 C 0.34363 0.83772 0.50524
 C801 C 0.35842 0.80328 0.50441
 C802 C 0.39409 0.79797 0.51003
 C803 C 0.40813 0.76434 0.50931
 C804 C 0.38660 0.73560 0.50300
 C805 C 0.35080 0.74127 0.49734
 C806 C 0.33685 0.77488 0.49805
 C807 C 0.40135 0.69984 0.50231
 C808 C 0.38348 0.67249 0.51748
 C809 C 0.39738 0.63883 0.51682
 C810 C 0.42923 0.63208 0.50094
 C811 C 0.44718 0.65906 0.48571
 C812 C 0.43336 0.69273 0.48639
 C813 C 0.44414 0.59777 0.50095
 C814 C 0.45788 0.56958 0.50100
 H815 H 0.41101 0.81978 0.51507
 H816 H 0.43573 0.76076 0.51417
 H817 H 0.33364 0.71975 0.49194
 H818 H 0.30920 0.77872 0.49358
 H819 H 0.35902 0.67723 0.53033
 H820 H 0.38344 0.61814 0.52888
 H821 H 0.47188 0.65406 0.47337
 H822 H 0.44752 0.71313 0.47412
 C823 C 0.33117 0.13656 0.49819
 C824 C 0.34509 0.16433 0.49715
 C825 C 0.36089 0.19792 0.49668
 C826 C 0.37984 0.20994 0.52558
 C827 C 0.39393 0.24316 0.52587
 C828 C 0.38918 0.26486 0.49722
 C829 C 0.37028 0.25244 0.46817
 C830 C 0.35623 0.21918 0.46794
 C831 C 0.40366 0.30038 0.49781
 C832 C 0.38431 0.32841 0.48428
 C833 C 0.39791 0.36187 0.48513
 C834 C 0.43095 0.36770 0.49953
 C835 C 0.45039 0.34003 0.51303
 C836 C 0.43688 0.30658 0.51218
 C837 C 0.44545 0.40183 0.49996
 C838 C 0.45890 0.42982 0.50037
 H839 H 0.38338 0.19379 0.54807
 H840 H 0.40793 0.25212 0.54879
 H841 H 0.36656 0.26835 0.44556
 H842 H 0.34154 0.21015 0.44545
 H843 H 0.35850 0.32454 0.47346
 H844 H 0.38269 0.38315 0.47460
 H845 H 0.47607 0.34428 0.52409
 H846 H 0.45260 0.28551 0.52236
   
