data_POSCAR
  _audit_creation_date              2014-09-24
  _audit_creation_method            'ToBaCCo'
  _symmetry_space_group_name_H-M    'P1'
  _symmetry_Int_Tables_number       1
  _symmetry_cell_setting            triclinic
  loop_
  _symmetry_equiv_pos_as_xyz
 x,y,z
_cell_length_a 32.2469
_cell_length_b 32.3218
_cell_length_c 32.2902
_cell_angle_alpha 82.576800
_cell_angle_beta 97.442300
_cell_angle_gamma 96.149500
loop_
  _atom_site_label
  _atom_site_type_symbol
  _atom_site_fract_x
  _atom_site_fract_y
  _atom_site_fract_z
C1 C 0.59106 0.54117 -0.00203
 C2 C 0.58191 0.58211 0.00002
 C3 C 0.54089 0.59128 0.00209
 C4 C 0.50777 0.55876 0.00214
 C5 C 0.51663 0.51704 0.00004
 C6 C 0.55843 0.50816 -0.00208
 C7 C 0.56642 0.46655 -0.00417
 C8 C 0.53408 0.43435 -0.00419
 C9 C 0.49248 0.44245 -0.00211
 C10 C 0.48362 0.48414 0.00004
 C11 C 0.46608 0.56678 0.00424
 C12 C 0.43378 0.53455 0.00428
 C13 C 0.44181 0.49296 0.00220
 C14 C 0.40923 0.45989 0.00220
 C15 C 0.41844 0.41898 0.00004
 C16 C 0.45945 0.40995 -0.00211
 H17 H 0.59786 0.45851 -0.00582
 H18 H 0.54203 0.40295 -0.00587
 H19 H 0.45807 0.59816 0.00589
 H20 H 0.40233 0.54254 0.00595
 H21 H 0.60715 0.60727 0.00002
 H22 H 0.39335 0.39371 0.00003
 C23 C -0.00197 0.59115 0.45755
 C24 C 0.00035 0.58229 0.41676
 C25 C 0.00247 0.54129 0.40828
 C26 C 0.00229 0.50797 0.44138
 C27 C -0.00005 0.51667 0.48296
 C28 C -0.00218 0.55843 0.49109
 C29 C -0.00446 0.56636 0.53252
 C30 C -0.00465 0.53389 0.56536
 C31 C -0.00257 0.49226 0.55802
 C32 C -0.00025 0.48355 0.51646
 C33 C 0.00436 0.46626 0.43412
 C34 C 0.00414 0.43381 0.46698
 C35 C 0.00186 0.44177 0.50838
 C36 C 0.00161 0.40908 0.54197
 C37 C -0.00067 0.41804 0.58274
 C38 C -0.00274 0.45904 0.59111
 H39 H -0.00613 0.59782 0.53993
 H40 H -0.00645 0.54174 0.59663
 H41 H 0.00618 0.45835 0.40287
 H42 H 0.00580 0.40233 0.45961
 H43 H 0.00048 0.60776 0.39127
 H44 H -0.00082 0.39272 0.60834
 C45 C 0.54167 0.00238 0.59167
 C46 C 0.58278 0.00030 0.58326
 C47 C 0.59176 -0.00197 0.54245
 C48 C 0.55892 -0.00220 0.50882
 C49 C 0.51703 -0.00009 0.51696
 C50 C 0.50830 0.00222 0.55854
 C51 C 0.46649 0.00428 0.56579
 C52 C 0.43396 0.00409 0.53293
 C53 C 0.44193 0.00183 0.49154
 C54 C 0.48381 -0.00029 0.48345
 C55 C 0.56677 -0.00447 0.46731
 C56 C 0.53419 -0.00467 0.43451
 C57 C 0.49249 -0.00261 0.44188
 C58 C 0.45917 -0.00279 0.40880
 C59 C 0.41809 -0.00069 0.41718
 C60 C 0.40915 0.00161 0.45795
 H61 H 0.45856 0.00608 0.59704
 H62 H 0.40242 0.00575 0.54031
 H63 H 0.59828 -0.00612 0.45983
 H64 H 0.54203 -0.00647 0.40322
 H65 H 0.60821 0.00045 0.60888
 H66 H 0.39269 -0.00083 0.39158
 O67 O 0.47031 -0.00156 -0.06417
 O68 O 0.46160 -0.01026 0.04926
 O69 O 0.46174 0.05089 -0.01151
 O70 O 0.47013 -0.06271 -0.00339
 O71 O 0.53901 -0.05170 0.00965
 O72 O 0.53062 0.06190 0.00154
 O73 O 0.53047 0.00076 0.06229
 O74 O 0.53919 0.00947 -0.05114
 Cu75 Cu 0.45905 -0.00700 -0.00875
 Cu76 Cu 0.54172 0.00620 0.00688
 C77 C 0.50628 0.00521 -0.07707
 C78 C 0.49451 -0.00600 0.07520
 C79 C 0.49470 0.07584 -0.00612
 C80 C 0.50605 -0.07665 0.00430
 O81 O -0.05116 0.53894 0.99032
 O82 O 0.06269 0.53052 0.99844
 O83 O 0.00138 0.53038 0.93767
 O84 O 0.01014 0.53906 1.05112
 O85 O -0.00094 0.47035 1.06411
 O86 O -0.00970 0.46167 0.95067
 O87 O 0.05162 0.46181 1.01144
 O88 O -0.06224 0.47023 1.00333
 Cu89 Cu 0.00686 0.54160 0.99310
 Cu90 Cu -0.00641 0.45913 1.00869
 C91 C -0.07620 0.50607 0.99565
 C92 C 0.07665 0.49468 1.00608
 C93 C -0.00543 0.49449 0.92475
 C94 C 0.00585 0.50623 1.07704
 O95 O -0.01125 -0.04975 0.46084
 O96 O -0.00377 0.06312 0.47037
 O97 O 0.04906 0.01040 0.46084
 O98 O -0.06407 0.00296 0.47045
 O99 O -0.05055 -0.01047 0.53932
 O100 O 0.06256 -0.00302 0.52972
 O101 O 0.00974 0.04971 0.53925
 O102 O 0.00227 -0.06317 0.52971
 Cu103 Cu -0.00886 0.00802 0.45871
 Cu104 Cu 0.00735 -0.00807 0.54141
 C105 C -0.00556 -0.07579 0.49360
 C106 C 0.00408 0.07575 0.50647
 C107 C 0.07518 0.00477 0.49361
 C108 C -0.07668 -0.00483 0.50657
 C109 C -0.18069 0.55262 0.98483
 C110 C -0.20835 0.51673 0.99207
 C111 C -0.19295 0.47724 0.99962
 C112 C -0.15001 0.47367 1.00030
 C113 C -0.36801 0.53461 0.99621
 C114 C -0.13776 0.54914 0.98550
 C115 C -0.25234 0.52061 0.99264
 C116 C -0.28900 0.52441 0.99349
 C117 C -0.33171 0.52955 0.99483
 C118 C -0.12187 0.50963 0.99347
 H119 H -0.19226 0.58335 0.97901
 H120 H -0.21407 0.44925 1.00531
 H121 H -0.13882 0.44280 1.00654
 H122 H -0.11698 0.57743 0.98014
 C123 C 0.19334 0.52353 1.00173
 C124 C 0.20874 0.48404 1.00915
 C125 C 0.18112 0.44814 1.01648
 C126 C 0.13820 0.45161 1.01601
 C127 C 0.36830 0.46635 1.00414
 C128 C 0.15042 0.52709 1.00125
 C129 C 0.25270 0.48017 1.00834
 C130 C 0.28934 0.47641 1.00728
 C131 C 0.33202 0.47133 1.00570
 C132 C 0.12232 0.49112 1.00814
 H133 H 0.21444 0.55153 0.99597
 H134 H 0.19269 0.41741 1.02221
 H135 H 0.11745 0.42332 1.02142
 H136 H 0.13923 0.55796 0.99508
 C137 C -0.00095 -0.19296 0.52149
 C138 C -0.00862 -0.20690 0.48171
 C139 C -0.01614 -0.17813 0.44592
 C140 C -0.01563 -0.13551 0.44979
 C141 C -0.00396 -0.36567 0.46377
 C142 C -0.00042 -0.15033 0.52547
 C143 C -0.00792 -0.25057 0.47746
 C144 C -0.00695 -0.28701 0.47353
 C145 C -0.00546 -0.32950 0.46848
 C146 C -0.00753 -0.12109 0.48961
 H147 H 0.00496 -0.21498 0.54941
 H148 H -0.02207 -0.18861 0.41496
 H149 H -0.02121 -0.11383 0.42158
 H150 H 0.00592 -0.14026 0.55656
 C151 C -0.00019 0.19294 0.47846
 C152 C 0.00752 0.20693 0.51822
 C153 C 0.01491 0.17817 0.55405
 C154 C 0.01425 0.13552 0.55023
 C155 C 0.00348 0.36587 0.53582
 C156 C -0.00086 0.15029 0.47454
 C157 C 0.00700 0.25064 0.52239
 C158 C 0.00618 0.28712 0.52624
 C159 C 0.00486 0.32966 0.53118
 C160 C 0.00613 0.12106 0.51043
 H161 H -0.00599 0.21495 0.45052
 H162 H 0.02086 0.18868 0.58499
 H163 H 0.01974 0.11386 0.57847
 H164 H -0.00721 0.14019 0.44346
 C165 C 0.47764 0.00254 -0.19448
 C166 C 0.51728 0.00900 -0.20871
 C167 C 0.55321 0.01516 -0.18007
 C168 C 0.54962 0.01446 -0.13730
 C169 C 0.53526 0.00434 -0.36760
 C170 C 0.47396 0.00183 -0.15170
 C171 C 0.52127 0.00836 -0.25249
 C172 C 0.52512 0.00741 -0.28899
 C173 C 0.53026 0.00590 -0.33148
 C174 C 0.50996 0.00753 -0.12258
 H175 H 0.44962 -0.00232 -0.21638
 H176 H 0.58405 0.02014 -0.19074
 H177 H 0.57794 0.01894 -0.11574
 H178 H 0.44298 -0.00360 -0.14141
 C179 C 0.52320 -0.00331 0.19258
 C180 C 0.48358 -0.00972 0.20683
 C181 C 0.44763 -0.01586 0.17821
 C182 C 0.45119 -0.01519 0.13544
 C183 C 0.46588 -0.00492 0.36576
 C184 C 0.52686 -0.00263 0.14981
 C185 C 0.47963 -0.00904 0.25062
 C186 C 0.47584 -0.00806 0.28712
 C187 C 0.47078 -0.00650 0.32963
 C188 C 0.49085 -0.00831 0.12071
 H189 H 0.55124 0.00153 0.21447
 H190 H 0.41680 -0.02080 0.18890
 H191 H 0.42286 -0.01966 0.11389
 H192 H 0.55784 0.00276 0.13950
 C193 C 0.55262 -0.18095 0.01514
 C194 C 0.51662 -0.20852 0.00791
 C195 C 0.47706 -0.19313 0.00036
 C196 C 0.47352 -0.15028 -0.00034
 C197 C 0.53436 -0.36786 0.00383
 C198 C 0.54918 -0.13811 0.01446
 C199 C 0.52048 -0.25242 0.00736
 C200 C 0.52424 -0.28901 0.00653
 C201 C 0.52934 -0.33164 0.00520
 C202 C 0.50958 -0.12223 0.00648
 H203 H 0.58341 -0.19251 0.02097
 H204 H 0.44898 -0.21418 -0.00534
 H205 H 0.44259 -0.13909 -0.00659
 H206 H 0.57755 -0.11740 0.01982
 C207 C 0.44808 0.18008 -0.01655
 C208 C 0.48407 0.20764 -0.00918
 C209 C 0.52364 0.19226 -0.00173
 C210 C 0.52720 0.14944 -0.00125
 C211 C 0.46634 0.36682 -0.00417
 C212 C 0.45155 0.13727 -0.01608
 C213 C 0.48019 0.25149 -0.00837
 C214 C 0.47642 0.28804 -0.00731
 C215 C 0.47133 0.33063 -0.00573
 C216 C 0.49115 0.12141 -0.00818
 H217 H 0.41728 0.19163 -0.02230
 H218 H 0.55171 0.21331 0.00406
 H219 H 0.55814 0.13827 0.00495
 H220 H 0.42319 0.11657 -0.02151
 C221 C -0.19416 -0.00040 0.47873
 C222 C -0.20810 -0.00806 0.51852
 C223 C -0.17923 -0.01549 0.55431
 C224 C -0.13650 -0.01490 0.55041
 C225 C -0.36727 -0.00376 0.53655
 C226 C -0.15144 0.00020 0.47474
 C227 C -0.25188 -0.00746 0.52279
 C228 C -0.28841 -0.00657 0.52674
 C229 C -0.33100 -0.00518 0.53181
 C230 C -0.12209 -0.00683 0.51058
 H231 H -0.21627 0.00543 0.45083
 H232 H -0.18969 -0.02141 0.58527
 H233 H -0.11474 -0.02042 0.57862
 H234 H -0.14137 0.00652 0.44364
 C235 C 0.17777 0.01535 0.44596
 C236 C 0.20662 0.00797 0.48178
 C237 C 0.19264 0.00036 0.52155
 C238 C 0.14991 -0.00022 0.52550
 C239 C 0.36585 0.00356 0.46411
 C240 C 0.13504 0.01478 0.44981
 C241 C 0.25041 0.00734 0.47757
 C242 C 0.28696 0.00643 0.47371
 C243 C 0.32957 0.00501 0.46875
 C244 C 0.12059 0.00676 0.48962
 H245 H 0.18827 0.02122 0.41501
 H246 H 0.21472 -0.00543 0.54948
 H247 H 0.13982 -0.00650 0.55659
 H248 H 0.11330 0.02026 0.42158
 C249 C 0.00306 0.47762 1.19441
 C250 C 0.00950 0.51715 1.20867
 C251 C 0.01571 0.55301 1.18006
 C252 C 0.01507 0.54944 1.13729
 C253 C 0.00451 0.53494 1.36755
 C254 C 0.00241 0.47396 1.15163
 C255 C 0.00877 0.52111 1.25245
 C256 C 0.00774 0.52492 1.28894
 C257 C 0.00614 0.53001 1.33143
 C258 C 0.00815 0.50988 1.12255
 H259 H -0.00183 0.44965 1.21628
 H260 H 0.02067 0.58377 1.19076
 H261 H 0.01958 0.57770 1.11576
 H262 H -0.00301 0.44306 1.14132
 C263 C -0.00284 0.52310 0.80736
 C264 C -0.00934 0.48357 0.79310
 C265 C -0.01549 0.44771 0.82172
 C266 C -0.01475 0.45127 0.86450
 C267 C -0.00482 0.46578 0.63415
 C268 C -0.00208 0.52676 0.85014
 C269 C -0.00874 0.47960 0.74930
 C270 C -0.00782 0.47579 0.71279
 C271 C -0.00634 0.47071 0.67028
 C272 C -0.00779 0.49084 0.87924
 H273 H 0.00202 0.55106 0.78547
 H274 H -0.02050 0.41695 0.81102
 H275 H -0.01924 0.42302 0.88604
 H276 H 0.00337 0.55766 0.86045
   
