data_POSCAR
  _audit_creation_date              2014-09-24
  _audit_creation_method            'ToBaCCo'
  _symmetry_space_group_name_H-M    'P1'
  _symmetry_Int_Tables_number       1
  _symmetry_cell_setting            triclinic
  loop_
  _symmetry_equiv_pos_as_xyz
 x,y,z
_cell_length_a 45.9595
_cell_length_b 46.1457
_cell_length_c 45.5353
_cell_angle_alpha 89.122700
_cell_angle_beta 90.083800
_cell_angle_gamma 91.312400
loop_
  _atom_site_label
  _atom_site_type_symbol
  _atom_site_fract_x
  _atom_site_fract_y
  _atom_site_fract_z
C1 C 0.32031 0.36573 1.35894
 C2 C 0.33995 0.36846 1.33549
 C3 C 0.36122 0.34809 1.33194
 C4 C 0.36289 0.32451 1.35166
 C5 C 0.34363 0.32191 1.37487
 C6 C 0.32188 0.34251 1.37831
 C7 C 0.29710 0.38195 1.36720
 N8 N 0.28392 0.36902 1.39097
 C9 C 0.29913 0.34473 1.39777
 C10 C 0.35040 0.29704 1.39027
 N11 N 0.37305 0.28407 1.37675
 C12 C 0.38061 0.30091 1.35295
 C13 C 0.37688 0.35606 1.30722
 N14 N 0.36535 0.38054 1.29559
 C15 C 0.34270 0.38823 1.31268
 H16 H 0.28967 0.40101 1.35555
 H17 H 0.29449 0.32978 1.41577
 H18 H 0.33872 0.28859 1.40928
 H19 H 0.39822 0.29693 1.33791
 H20 H 0.39492 0.34459 1.29799
 H21 H 0.32926 0.40687 1.30879
 C22 C 1.19192 0.64718 0.84282
 C23 C 1.16952 0.64434 0.82204
 C24 C 1.14791 0.66483 0.82021
 C25 C 1.14873 0.68872 0.83910
 C26 C 1.17128 0.69163 0.85893
 C27 C 1.19292 0.67088 0.86078
 C28 C 1.21573 0.63074 0.84963
 N29 N 1.23144 0.64420 0.87116
 C30 C 1.21745 0.66896 0.87783
 C31 C 1.16758 0.71684 0.87370
 N32 N 1.14312 0.72992 0.86366
 C33 C 1.13138 0.71256 0.84241
 C34 C 1.13006 0.65713 0.79708
 N35 N 1.14067 0.63290 0.78472
 C36 C 1.16467 0.62490 0.79994
 H37 H 1.22152 0.61094 0.83888
 H38 H 1.22388 0.68419 0.89459
 H39 H 1.18162 0.72433 0.89121
 H40 H 1.11217 0.71706 0.82954
 H41 H 1.11162 0.66903 0.78891
 H42 H 1.17808 0.60668 0.79476
 C43 C 0.66691 -0.11058 0.14348
 C44 C 0.64565 -0.11002 0.16542
 C45 C 0.62471 -0.13185 0.16730
 C46 C 0.62501 -0.15468 0.14743
 C47 C 0.64577 -0.15518 0.12549
 C48 C 0.66713 -0.13281 0.12356
 C49 C 0.69088 -0.09320 0.13823
 N50 N 0.70642 -0.10406 0.11553
 C51 C 0.69163 -0.12837 0.10634
 C52 C 0.64132 -0.18077 0.11064
 N53 N 0.61877 -0.19605 0.12347
 C54 C 0.60881 -0.17991 0.14598
 C55 C 0.60815 -0.12682 0.19179
 N56 N 0.61881 -0.10257 0.20491
 C57 C 0.64181 -0.09218 0.18896
 H58 H 0.69618 -0.07402 0.15060
 H59 H 0.69860 -0.14284 0.08942
 H60 H 0.65472 -0.18826 0.09291
 H61 H 0.59081 -0.18567 0.16036
 H62 H 0.59051 -0.14049 0.20021
 H63 H 0.65513 -0.07338 0.19445
 C64 C -0.16706 1.10840 -0.37592
 C65 C -0.14608 1.10686 -0.35352
 C66 C -0.12343 1.12711 -0.35279
 C67 C -0.12129 1.14899 -0.37440
 C68 C -0.14166 1.15018 -0.39659
 C69 C -0.16493 1.13009 -0.39707
 C70 C -0.19276 1.09336 -0.38090
 N71 N -0.20669 1.10581 -0.40422
 C72 C -0.18947 1.12828 -0.41419
 C73 C -0.13499 1.17415 -0.41372
 N74 N -0.11118 1.18805 -0.40225
 C75 C -0.10281 1.17265 -0.37800
 C76 C -0.10757 1.12173 -0.32782
 N77 N -0.12001 1.09876 -0.31316
 C78 C -0.14359 1.08949 -0.32881
 H79 H -0.20142 1.07591 -0.36712
 H80 H -0.19418 1.14256 -0.43255
 H81 H -0.14776 1.18164 -0.43219
 H82 H -0.08445 1.17787 -0.36399
 H83 H -0.08848 1.13392 -0.32076
 H84 H -0.15849 1.07211 -0.32217
 C85 C 0.65209 0.61092 0.63127
 C86 C 0.63209 0.61238 0.65446
 C87 C 0.61109 0.63339 0.65390
 C88 C 0.60975 0.65320 0.63027
 C89 C 0.62943 0.65176 0.60760
 C90 C 0.65070 0.63045 0.60801
 C91 C 0.67604 0.59415 0.62674
 N92 N 0.68925 0.60306 0.60132
 C93 C 0.67377 0.62528 0.58979
 C94 C 0.62442 0.67476 0.58890
 N95 N 0.60206 0.69057 0.59954
 C96 C 0.59304 0.67710 0.62499
 C97 C 0.59609 0.63112 0.67994
 N98 N 0.60746 0.60933 0.69648
 C99 C 0.62947 0.59768 0.68095
 H100 H 0.68342 0.57697 0.64117
 H101 H 0.67951 0.63768 0.57019
 H102 H 0.63677 0.67936 0.56915
 H103 H 0.57647 0.68449 0.63972
 H104 H 0.57845 0.64474 0.68649
 H105 H 0.64342 0.58065 0.68881
 C106 C 0.83954 0.37224 0.14247
 C107 C 0.85853 0.36977 0.16656
 C108 C 0.87986 0.34911 0.16653
 C109 C 0.88261 0.33075 0.14247
 C110 C 0.86436 0.33368 0.11861
 C111 C 0.84257 0.35443 0.11870
 C112 C 0.81565 0.38897 0.13708
 N113 N 0.80376 0.38172 0.11055
 C114 C 0.82059 0.36057 0.09928
 C115 C 0.87146 0.31278 0.09886
 N116 N 0.89341 0.29667 0.11024
 C117 C 0.90026 0.30773 0.13707
 C118 C 0.89458 0.35110 0.19275
 N119 N 0.88282 0.37251 0.20882
 C120 C 0.86065 0.38398 0.19291
 H121 H 0.80778 0.40503 0.15195
 H122 H 0.81678 0.34914 0.07907
 H123 H 0.86018 0.30885 0.07839
 H124 H 0.91708 0.30005 0.15168
 H125 H 0.91284 0.33812 0.19937
 H126 H 0.84676 0.40111 0.20008
 C127 C 0.35631 0.11720 0.87063
 C128 C 0.37874 0.11681 0.84985
 C129 C 0.40057 0.13780 0.85025
 C130 C 0.40033 0.15949 0.87142
 C131 C 0.37797 0.16023 0.89169
 C132 C 0.35557 0.13893 0.89115
 C133 C 0.33198 0.09986 0.87474
 N134 N 0.31591 0.11051 0.89711
 C135 C 0.33028 0.13467 0.90709
 C136 C 0.38293 0.18442 0.90855
 N137 N 0.40773 0.19826 0.89898
 C138 C 0.41835 0.18310 0.87617
 C139 C 0.41815 0.13336 0.82642
 N140 N 0.40734 0.11032 0.81126
 C141 C 0.38328 0.09996 0.82569
 H142 H 0.32597 0.08156 0.86128
 H143 H 0.32337 0.14797 0.92503
 H144 H 0.36943 0.19136 0.92647
 H145 H 0.43740 0.18917 0.86335
 H146 H 0.43699 0.14654 0.82023
 H147 H 0.36907 0.08251 0.81830
 C148 C 0.13725 0.89101 0.36734
 C149 C 0.11606 0.88859 0.34532
 C150 C 0.09578 0.86594 0.34616
 C151 C 0.09667 0.84524 0.36903
 C152 C 0.11765 0.84775 0.39071
 C153 C 0.13800 0.87083 0.38987
 C154 C 0.16113 0.90915 0.37047
 N155 N 0.17680 0.90053 0.39445
 C156 C 0.16235 0.87697 0.40639
 C157 C 0.11538 0.82339 0.40830
 N158 N 0.09370 0.80589 0.39780
 C159 C 0.08201 0.81922 0.37383
 C160 C 0.07942 0.86792 0.32085
 N161 N 0.08953 0.89102 0.30472
 C162 C 0.11194 0.90374 0.31952
 H163 H 0.16655 0.92688 0.35558
 H164 H 0.16947 0.86384 0.42476
 H165 H 0.12921 0.81844 0.42688
 H166 H 0.06527 0.80994 0.35986
 H167 H 0.06227 0.85298 0.31408
 H168 H 0.12465 0.92237 0.31181
 Zn169 Zn 0.01229 1.04188 -0.02300
 Zn170 Zn -0.01724 0.98379 -0.03261
 Zn171 Zn 0.04055 0.98807 -0.00214
 Zn172 Zn -0.01231 1.00846 0.02767
 O173 O 0.00577 1.00551 -0.00763
 O174 O -0.00495 1.04646 -0.05778
 O175 O 0.00063 0.95191 -0.04546
 O176 O 0.07096 1.01038 -0.01334
 O177 O -0.02704 1.00403 -0.06508
 O178 O 0.05021 1.05069 -0.02851
 O179 O 0.04310 0.95588 -0.02281
 O180 O 0.00737 0.99234 0.05718
 O181 O -0.05114 0.97148 -0.01593
 O182 O 0.04721 0.97766 0.03535
 O183 O -0.04703 0.99079 0.02807
 O184 O -0.01838 1.04509 0.03804
 O185 O -0.00135 1.06988 -0.00038
 C186 C -0.02078 1.02985 -0.07340
 C187 C 0.02593 0.94257 -0.04009
 C188 C 0.07280 1.03594 -0.02392
 C189 C 0.03181 0.98016 0.05825
 C190 C -0.06135 0.97600 0.00950
 C191 C -0.01340 1.06900 0.02467
 Zn192 Zn 0.51910 -0.02726 0.49402
 Zn193 Zn 0.46322 -0.03083 0.52705
 Zn194 Zn 0.49607 0.02589 0.52082
 Zn195 Zn 0.46683 0.00037 0.46865
 O196 O 0.48621 -0.00796 0.50268
 O197 O 0.51946 -0.06285 0.50968
 O198 O 0.45717 -0.01448 0.56208
 O199 O 0.53466 0.03115 0.52529
 O200 O 0.47848 -0.06575 0.53493
 O201 O 0.55119 -0.00963 0.50737
 O202 O 0.48152 0.02717 0.55697
 O203 O 0.46166 0.03847 0.46286
 O204 O 0.42791 -0.03811 0.51153
 O205 O 0.48257 0.05736 0.50218
 O206 O 0.43116 -0.01564 0.46833
 O207 O 0.48484 -0.01223 0.43650
 O208 O 0.52435 -0.03156 0.45552
 C209 C 0.50198 -0.07689 0.52640
 C210 C 0.46587 0.00970 0.57225
 C211 C 0.55551 0.01447 0.51983
 C212 C 0.46844 0.06022 0.47838
 C213 C 0.41684 -0.03089 0.48697
 C214 C 0.50882 -0.02495 0.43347
 Zn215 Zn 1.00298 0.46262 0.48851
 Zn216 Zn 1.03010 0.51695 0.51096
 Zn217 Zn 0.96983 0.51756 0.48543
 Zn218 Zn 0.98100 0.48839 0.54354
 O219 O 0.99593 0.49644 0.50708
 O220 O 1.04067 0.45805 0.48017
 O221 O 1.02898 0.55130 0.49274
 O222 O 0.95904 0.49997 0.45198
 O223 O 1.06078 0.49892 0.49601
 O224 O 0.98381 0.45949 0.45450
 O225 O 0.98438 0.55261 0.47450
 O226 O 0.94542 0.50228 0.54790
 O227 O 1.03893 0.52491 0.54845
 O228 O 0.93674 0.52400 0.50526
 O229 O 1.00207 0.50417 0.57250
 O230 O 0.97754 0.45026 0.55152
 O231 O 0.99215 0.43155 0.50975
 C232 C 1.06286 0.47445 0.48392
 C233 C 1.00930 0.56438 0.47855
 C234 C 0.96615 0.47589 0.44120
 C235 C 0.92887 0.51669 0.53113
 C236 C 1.02558 0.51914 0.57229
 C237 C 0.98209 0.42852 0.53555
 Zn238 Zn 0.52310 0.51415 1.04361
 Zn239 Zn 0.52867 0.47984 0.98815
 Zn240 Zn 0.47017 0.48943 1.01550
 Zn241 Zn 0.50226 0.53883 0.98731
 O242 O 0.50616 0.50543 1.00856
 O243 O 0.55677 0.49661 1.04812
 O244 O 0.50945 0.44587 0.98107
 O245 O 0.46179 0.48506 1.05379
 O246 O 0.56167 0.47094 1.00784
 O247 O 0.50172 0.50267 1.07466
 O248 O 0.46660 0.45414 1.00094
 O249 O 0.46525 0.54673 0.97866
 O250 O 0.54005 0.49423 0.95258
 O251 O 0.44140 0.50940 0.99894
 O252 O 0.52033 0.53749 0.95302
 O253 O 0.51732 0.57004 1.00496
 O254 O 0.53143 0.55207 1.04779
 C255 C 0.57112 0.47934 1.03266
 C256 C 0.48349 0.43773 0.98726
 C257 C 0.47672 0.49055 1.07659
 C258 C 0.44167 0.53281 0.98398
 C259 C 0.53525 0.51863 0.94030
 C260 C 0.52886 0.57333 1.03003
 C261 C 1.21576 0.36823 0.43414
 C262 C 1.20613 0.39691 0.43004
 C263 C 1.22462 0.41662 0.41438
 C264 C 1.25039 0.40720 0.40143
 C265 C 1.25926 0.37830 0.40462
 C266 C 1.24189 0.35926 0.42193
 C267 C 1.21732 0.44570 0.41161
 C268 C 1.19205 0.45580 0.42415
 C269 C 1.17241 0.43688 0.43918
 C270 C 1.17899 0.40674 0.44110
 C271 C 1.15778 0.38732 0.45300
 C272 C 1.13116 0.39698 0.46288
 C273 C 1.12498 0.42643 0.46235
 C274 C 1.14587 0.44694 0.45141
 C275 C 1.13935 0.47670 0.45338
 C276 C 1.11272 0.48549 0.46451
 C277 C 1.09156 0.46502 0.47365
 C278 C 1.09792 0.43550 0.47268
 H279 H 1.20380 0.35226 0.44709
 H280 H 1.26393 0.42288 0.38957
 H281 H 1.24765 0.33686 0.42522
 H282 H 1.23140 0.46093 0.39969
 H283 H 1.18791 0.47847 0.42062
 H284 H 1.16064 0.36421 0.45387
 H285 H 1.11529 0.38119 0.47123
 H286 H 1.15458 0.49376 0.44705
 H287 H 1.10843 0.50845 0.46543
 H288 H 1.08187 0.41955 0.48037
 C289 C 0.30105 0.64454 0.91178
 C290 C 0.30846 0.61501 0.91159
 C291 C 0.28878 0.59526 0.89803
 C292 C 0.26373 0.60520 0.88369
 C293 C 0.25655 0.63468 0.88400
 C294 C 0.27553 0.65404 0.89857
 C295 C 0.29395 0.56560 0.89925
 C296 C 0.31786 0.55498 0.91429
 C297 C 0.33831 0.57382 0.92777
 C298 C 0.33436 0.60438 0.92496
 C299 C 0.35677 0.62328 0.93488
 C300 C 0.38190 0.61271 0.94770
 C301 C 0.38524 0.58303 0.95220
 C302 C 0.36311 0.56317 0.94316
 C303 C 0.36659 0.53348 0.95024
 C304 C 0.39166 0.52392 0.96436
 C305 C 0.41420 0.54348 0.97152
 C306 C 0.41074 0.57306 0.96561
 H307 H 0.31410 0.66080 0.92275
 H308 H 0.24908 0.58954 0.87363
 H309 H 0.27129 0.67697 0.89917
 H310 H 0.27906 0.55033 0.88886
 H311 H 0.32035 0.53182 0.91405
 H312 H 0.35604 0.64647 0.93196
 H313 H 0.39878 0.62801 0.95446
 H314 H 0.35010 0.51718 0.94565
 H315 H 0.39374 0.50096 0.96901
 H316 H 0.42790 0.58838 0.97164
 C317 C -0.22537 0.93987 0.11061
 C318 C -0.21224 0.92956 0.08492
 C319 C -0.22769 0.90810 0.06889
 C320 C -0.25472 0.89684 0.07907
 C321 C -0.26737 0.90695 0.10513
 C322 C -0.25209 0.92884 0.12040
 C323 C -0.21612 0.89804 0.04271
 C324 C -0.18960 0.90885 0.03199
 C325 C -0.17316 0.92995 0.04739
 C326 C -0.18446 0.94002 0.07462
 C327 C -0.16742 0.95989 0.09095
 C328 C -0.14065 0.97009 0.08093
 C329 C -0.12966 0.96113 0.05420
 C330 C -0.14563 0.94111 0.03680
 C331 C -0.13325 0.93332 0.00957
 C332 C -0.10610 0.94469 0.00050
 C333 C -0.09038 0.96407 0.01821
 C334 C -0.10251 0.97219 0.04497
 H335 H -0.21580 0.95675 0.12378
 H336 H -0.26593 0.88060 0.06614
 H337 H -0.26006 0.93750 0.14064
 H338 H -0.22778 0.88166 0.03022
 H339 H -0.18232 0.89983 0.01168
 H340 H -0.17380 0.96777 0.11204
 H341 H -0.12837 0.98525 0.09437
 H342 H -0.14401 0.91867 -0.00533
 H343 H -0.09733 0.93812 -0.02037
 H344 H -0.09077 0.98737 0.05886
 C345 C 0.72170 0.11094 0.55936
 C346 C 0.70895 0.08338 0.56553
 C347 C 0.72610 0.06281 0.58060
 C348 C 0.75397 0.07049 0.59099
 C349 C 0.76622 0.09824 0.58536
 C350 C 0.74979 0.11805 0.56882
 C351 C 0.71543 0.03457 0.58513
 C352 C 0.68828 0.02608 0.57449
 C353 C 0.67015 0.04595 0.55985
 C354 C 0.68002 0.07542 0.55676
 C355 C 0.66038 0.09610 0.54589
 C356 C 0.63223 0.08813 0.53766
 C357 C 0.62294 0.05917 0.53878
 C358 C 0.64208 0.03752 0.54902
 C359 C 0.63247 0.00824 0.54753
 C360 C 0.60463 0.00101 0.53744
 C361 C 0.58531 0.02260 0.52897
 C362 C 0.59458 0.05167 0.52962
 H363 H 0.71074 0.12732 0.54667
 H364 H 0.76648 0.05430 0.60252
 H365 H 0.75799 0.13973 0.56396
 H366 H 0.72837 0.01870 0.59672
 H367 H 0.68156 0.00396 0.57914
 H368 H 0.66577 0.11894 0.54458
 H369 H 0.61771 0.10481 0.52996
 H370 H 0.64619 -0.00960 0.55329
 H371 H 0.59799 -0.02166 0.53680
 H372 H 0.57987 0.06843 0.52248
 C373 C 0.41352 0.21582 0.37352
 C374 C 0.41078 0.20483 0.40256
 C375 C 0.39633 0.22206 0.42321
 C376 C 0.38328 0.24805 0.41438
 C377 C 0.38565 0.25857 0.38526
 C378 C 0.40152 0.24225 0.36521
 C379 C 0.39512 0.21339 0.45268
 C380 C 0.40833 0.18816 0.46225
 C381 C 0.42231 0.16985 0.44241
 C382 C 0.42225 0.17760 0.41188
 C383 C 0.43272 0.15747 0.39160
 C384 C 0.44317 0.13081 0.40085
 C385 C 0.44478 0.12361 0.43066
 C386 C 0.43537 0.14346 0.45194
 C387 C 0.43967 0.13612 0.48191
 C388 C 0.45135 0.10956 0.49025
 C389 C 0.45871 0.08926 0.46914
 C390 C 0.45561 0.09653 0.43933
 H391 H 0.42545 0.20481 0.35683
 H392 H 0.37234 0.26065 0.43071
 H393 H 0.40393 0.24921 0.34255
 H394 H 0.38411 0.22644 0.46864
 H395 H 0.40616 0.18291 0.48530
 H396 H 0.43194 0.16120 0.36820
 H397 H 0.45031 0.11575 0.38445
 H398 H 0.43469 0.15067 0.49942
 H399 H 0.45387 0.10453 0.51343
 H400 H 0.46186 0.08113 0.42286
 C401 C 0.90882 0.24864 0.54741
 C402 C 0.92535 0.26714 0.56579
 C403 C 0.92907 0.25847 0.59550
 C404 C 0.91794 0.23157 0.60572
 C405 C 0.90122 0.21345 0.58731
 C406 C 0.89679 0.22257 0.55808
 C407 C 0.94327 0.27701 0.61507
 C408 C 0.95281 0.30452 0.60608
 C409 C 0.94956 0.31412 0.57670
 C410 C 0.93736 0.29437 0.55589
 C411 C 0.93792 0.30231 0.52585
 C412 C 0.94854 0.32927 0.51657
 C413 C 0.95811 0.34969 0.53686
 C414 C 0.95841 0.34267 0.56728
 C415 C 0.96662 0.36486 0.58702
 C416 C 0.97436 0.39269 0.57677
 C417 C 0.97475 0.39908 0.54664
 C418 C 0.96691 0.37736 0.52682
 H419 H 0.90387 0.25417 0.52490
 H420 H 0.92093 0.22572 0.62862
 H421 H 0.88452 0.20927 0.54290
 H422 H 0.94639 0.27048 0.63781
 H423 H 0.96345 0.31758 0.62252
 H424 H 0.93101 0.28774 0.50879
 H425 H 0.94862 0.33442 0.49326
 H426 H 0.96626 0.36170 0.61051
 H427 H 0.98008 0.40927 0.59248
 H428 H 0.96660 0.38234 0.50346
 C429 C 0.14001 0.79958 -0.09783
 C430 C 0.11079 0.80755 -0.10190
 C431 C 0.09294 0.78967 -0.11983
 C432 C 0.10388 0.76416 -0.13197
 C433 C 0.13266 0.75564 -0.12634
 C434 C 0.15053 0.77428 -0.10961
 C435 C 0.06416 0.79716 -0.12527
 C436 C 0.05257 0.82190 -0.11317
 C437 C 0.06929 0.84012 -0.09468
 C438 C 0.09884 0.83264 -0.08879
 C439 C 0.11538 0.85016 -0.06950
 C440 C 0.10381 0.87433 -0.05675
 C441 C 0.07532 0.88218 -0.06254
 C442 C 0.05750 0.86540 -0.08157
 C443 C 0.02869 0.87481 -0.08654
 C444 C 0.01832 0.89967 -0.07309
 C445 C 0.03620 0.91593 -0.05425
 C446 C 0.06466 0.90689 -0.04916
 H447 H 0.15565 0.81245 -0.08583
 H448 H 0.08941 0.75054 -0.14481
 H449 H 0.17325 0.76996 -0.10590
 H450 H 0.05034 0.78369 -0.13903
 H451 H 0.03018 0.82594 -0.11848
 H452 H 0.13742 0.84566 -0.06328
 H453 H 0.11743 0.88703 -0.04207
 H454 H 0.01365 0.86361 -0.10080
 H455 H -0.00376 0.90619 -0.07753
 H456 H 0.07886 0.91927 -0.03473
 C457 C 0.58192 0.73208 1.12894
 C458 C 0.58648 0.72070 1.10076
 C459 C 0.60153 0.73849 1.07988
 C460 C 0.61306 0.76581 1.08777
 C461 C 0.60842 0.77692 1.11596
 C462 C 0.59242 0.75961 1.13621
 C463 C 0.60463 0.72911 1.05110
 C464 C 0.59240 0.70280 1.04233
 C465 C 0.57749 0.68419 1.06243
 C466 C 0.57596 0.69259 1.09245
 C467 C 0.56460 0.67238 1.11330
 C468 C 0.55422 0.64523 1.10497
 C469 C 0.55376 0.63748 1.07551
 C470 C 0.56470 0.65710 1.05369
 C471 C 0.56187 0.64896 1.02396
 C472 C 0.54966 0.62210 1.01647
 C473 C 0.54026 0.60228 1.03824
 C474 C 0.54234 0.61014 1.06775
 H475 H 0.56958 0.72057 1.14570
 H476 H 0.62441 0.77892 1.07132
 H477 H 0.58856 0.76677 1.15832
 H478 H 0.61620 0.74251 1.03498
 H479 H 0.59585 0.69714 1.01975
 H480 H 0.56440 0.67652 1.13651
 H481 H 0.54608 0.63027 1.12179
 H482 H 0.56826 0.66314 1.00596
 H483 H 0.54805 0.61660 0.99347
 H484 H 0.53461 0.59510 1.08470
 C485 C 0.36404 0.41962 1.22296
 C486 C 0.39404 0.42376 1.21665
 C487 C 0.41430 0.41432 1.23810
 C488 C 0.40473 0.39979 1.26378
 C489 C 0.37501 0.39539 1.26927
 C490 C 0.35480 0.40581 1.24893
 C491 C 0.44401 0.41940 1.23387
 C492 C 0.45423 0.43386 1.20886
 C493 C 0.43509 0.44310 1.18649
 C494 C 0.40460 0.43704 1.18998
 C495 C 0.38582 0.44354 1.16632
 C496 C 0.39640 0.45548 1.14015
 C497 C 0.42591 0.46232 1.13675
 C498 C 0.44556 0.45718 1.16021
 C499 C 0.47494 0.46631 1.15627
 C500 C 0.48460 0.47819 1.12954
 C501 C 0.46546 0.48133 1.10580
 C502 C 0.43598 0.47386 1.10978
 H503 H 0.34713 0.42724 1.20858
 H504 H 0.42038 0.39230 1.27986
 H505 H 0.33170 0.40281 1.25297
 H506 H 0.45959 0.41223 1.25018
 H507 H 0.47752 0.43650 1.20721
 H508 H 0.36281 0.43858 1.16688
 H509 H 0.38124 0.45941 1.12233
 H510 H 0.49099 0.46476 1.17344
 H511 H 0.50743 0.48413 1.12724
 H512 H 0.42086 0.47673 1.09172
 C513 C 0.61964 -0.07138 0.28024
 C514 C 0.58967 -0.07127 0.28746
 C515 C 0.56945 -0.08025 0.26566
 C516 C 0.57917 -0.09063 0.23864
 C517 C 0.60893 -0.09129 0.23229
 C518 C 0.62898 -0.08115 0.25307
 C519 C 0.53965 -0.07890 0.27094
 C520 C 0.52931 -0.06862 0.29736
 C521 C 0.54848 -0.06006 0.32006
 C522 C 0.57913 -0.06243 0.31540
 C523 C 0.59818 -0.05681 0.33909
 C524 C 0.58776 -0.04883 0.36630
 C525 C 0.55809 -0.04531 0.37084
 C526 C 0.53802 -0.05008 0.34763
 C527 C 0.50833 -0.04450 0.35306
 C528 C 0.49902 -0.03578 0.38068
 C529 C 0.51884 -0.03259 0.40383
 C530 C 0.54839 -0.03716 0.39865
 H531 H 0.63642 -0.06364 0.29488
 H532 H 0.56359 -0.09790 0.22228
 H533 H 0.65208 -0.08134 0.24849
 H534 H 0.52410 -0.08574 0.25437
 H535 H 0.50599 -0.06860 0.29971
 H536 H 0.62136 -0.05940 0.33766
 H537 H 0.60319 -0.04525 0.38399
 H538 H 0.49181 -0.04623 0.33633
 H539 H 0.47610 -0.03203 0.38406
 H540 H 0.56398 -0.03414 0.41631
 C541 C -0.10571 1.04692 -0.25071
 C542 C -0.09093 1.06483 -0.23020
 C543 C -0.08634 1.09443 -0.23808
 C544 C -0.09619 1.10535 -0.26512
 C545 C -0.11054 1.08731 -0.28520
 C546 C -0.11531 1.05807 -0.27766
 C547 C -0.07190 1.11316 -0.21900
 C548 C -0.06136 1.10322 -0.19228
 C549 C -0.06493 1.07391 -0.18337
 C550 C -0.08042 1.05448 -0.20239
 C551 C -0.08495 1.02544 -0.19289
 C552 C -0.07448 1.01558 -0.16601
 C553 C -0.05883 1.03405 -0.14754
 C554 C -0.05366 1.06343 -0.15596
 C555 C -0.03714 1.08105 -0.13661
 C556 C -0.02665 1.07002 -0.11009
 C557 C -0.03209 1.04107 -0.10174
 C558 C -0.04824 1.02318 -0.12065
 H559 H -0.10994 1.02415 -0.24685
 H560 H -0.09286 1.12815 -0.27041
 H561 H -0.12608 1.04357 -0.29289
 H562 H -0.06855 1.13586 -0.22486
 H563 H -0.05066 1.11934 -0.17900
 H564 H -0.09676 1.00965 -0.20567
 H565 H -0.07856 0.99310 -0.15968
 H566 H -0.03160 1.10343 -0.14126
 H567 H -0.01415 1.08438 -0.09604
 H568 H -0.05249 1.00068 -0.11453
 C569 C 1.13983 0.59777 0.71123
 C570 C 1.10975 0.59261 0.70625
 C571 C 1.09010 0.60050 0.72862
 C572 C 1.10030 0.61436 0.75408
 C573 C 1.13011 0.61944 0.75840
 C574 C 1.14971 0.61080 0.73694
 C575 C 1.06043 0.59432 0.72559
 C576 C 1.04975 0.57997 0.70109
 C577 C 1.06832 0.57198 0.67804
 C578 C 1.09861 0.57955 0.68010
 C579 C 1.11661 0.57449 0.65567
 C580 C 1.10558 0.56204 0.63030
 C581 C 1.07641 0.55331 0.62847
 C582 C 1.05749 0.55742 0.65256
 C583 C 1.02853 0.54655 0.65017
 C584 C 1.01861 0.53346 0.62447
 C585 C 1.03702 0.53089 0.60021
 C586 C 1.06602 0.54063 0.60250
 H587 H 1.15637 0.59138 0.69606
 H588 H 1.08514 0.62056 0.77096
 H589 H 1.17288 0.61444 0.73999
 H590 H 1.04528 0.60035 0.74255
 H591 H 1.02653 0.57626 0.70043
 H592 H 1.13930 0.58086 0.65506
 H593 H 1.12014 0.55905 0.61194
 H594 H 1.01310 0.54744 0.66790
 H595 H 0.99616 0.52586 0.62341
 H596 H 1.08059 0.53830 0.58402
 C597 C 0.74809 0.58531 0.54780
 C598 C 0.76976 0.57333 0.56620
 C599 C 0.76333 0.57029 0.59656
 C600 C 0.73682 0.57976 0.60787
 C601 C 0.71594 0.59222 0.58944
 C602 C 0.72178 0.59457 0.55929
 C603 C 0.78349 0.55807 0.61567
 C604 C 0.81001 0.54868 0.60544
 C605 C 0.81774 0.55142 0.57549
 C606 C 0.79745 0.56434 0.55559
 C607 C 0.80575 0.56831 0.52591
 C608 C 0.83277 0.55990 0.51592
 C609 C 0.85257 0.54688 0.53488
 C610 C 0.84528 0.54210 0.56486
 C611 C 0.86594 0.52810 0.58292
 C612 C 0.89271 0.51987 0.57180
 C613 C 0.90005 0.52520 0.54233
 C614 C 0.87974 0.53865 0.52395
 H615 H 0.75060 0.58771 0.52438
 H616 H 0.73278 0.57799 0.63126
 H617 H 0.70583 0.60346 0.54438
 H618 H 0.77871 0.55573 0.63891
 H619 H 0.82423 0.53978 0.62189
 H620 H 0.79200 0.57836 0.50974
 H621 H 0.83820 0.56363 0.49299
 H622 H 0.86214 0.52289 0.60574
 H623 H 0.90783 0.50936 0.58655
 H624 H 0.88502 0.54268 0.50102
 C625 C 0.74447 0.39515 1.05700
 C626 C 0.72557 0.41279 1.07297
 C627 C 0.73435 0.42074 1.10163
 C628 C 0.76049 0.41081 1.11378
 C629 C 0.77882 0.39253 1.09807
 C630 C 0.77037 0.38530 1.06927
 C631 C 0.71688 0.43841 1.11835
 C632 C 0.69069 0.44830 1.10745
 C633 C 0.68064 0.44079 1.07917
 C634 C 0.69835 0.42272 1.06160
 C635 C 0.68810 0.41498 1.03345
 C636 C 0.66158 0.42449 1.02276
 C637 C 0.64410 0.44213 1.03955
 C638 C 0.65338 0.45063 1.06796
 C639 C 0.63485 0.46864 1.08399
 C640 C 0.60847 0.47763 1.07236
 C641 C 0.59931 0.46914 1.04435
 C642 C 0.61731 0.45131 1.02802
 H643 H 0.74002 0.38849 1.03486
 H644 H 0.76580 0.41701 1.13595
 H645 H 0.78373 0.37217 1.05555
 H646 H 0.72349 0.44464 1.14027
 H647 H 0.67877 0.46173 1.12206
 H648 H 0.69998 0.40133 1.01899
 H649 H 0.65465 0.41789 1.00105
 H650 H 0.63995 0.47634 1.10562
 H651 H 0.59514 0.49140 1.08560
 H652 H 0.61055 0.44463 1.00628
 C653 C 0.25549 1.05811 -0.08851
 C654 C 0.23524 1.07503 -0.07348
 C655 C 0.24262 1.10460 -0.06893
 C656 C 0.26996 1.11608 -0.07769
 C657 C 0.28988 1.09905 -0.09286
 C658 C 0.28200 1.06996 -0.09819
 C659 C 0.22243 1.12272 -0.05619
 C660 C 0.19470 1.11237 -0.04873
 C661 C 0.18643 1.08302 -0.05266
 C662 C 0.20765 1.06375 -0.06362
 C663 C 0.20079 1.03377 -0.06389
 C664 C 0.17373 1.02307 -0.05494
 C665 C 0.15210 1.04179 -0.04624
 C666 C 0.15786 1.07210 -0.04546
 C667 C 0.13452 1.09020 -0.03819
 C668 C 0.10693 1.07850 -0.03149
 C669 C 0.10182 1.04847 -0.03127
 C670 C 0.12458 1.03027 -0.03856
 H671 H 0.25113 1.03580 -0.09403
 H672 H 0.27489 1.13879 -0.07405
 H673 H 0.29663 1.05574 -0.10927
 H674 H 0.22789 1.14535 -0.05250
 H675 H 0.18041 1.12776 -0.03907
 H676 H 0.21630 1.01781 -0.07007
 H677 H 0.16954 0.99986 -0.05530
 H678 H 0.13666 1.11351 -0.03831
 H679 H 0.08957 1.09302 -0.02618
 H680 H 0.12065 1.00701 -0.03900
 C681 C 0.24550 -0.05593 0.39526
 C682 C 0.25930 -0.06614 0.42105
 C683 C 0.24379 -0.08673 0.43868
 C684 C 0.21617 -0.09724 0.43010
 C685 C 0.20306 -0.08786 0.40370
 C686 C 0.21813 -0.06653 0.38685
 C687 C 0.25595 -0.09703 0.46478
 C688 C 0.28346 -0.08775 0.47366
 C689 C 0.30020 -0.06778 0.45658
 C690 C 0.28791 -0.05678 0.42981
 C691 C 0.30480 -0.03717 0.41245
 C692 C 0.33270 -0.02867 0.42072
 C693 C 0.34499 -0.03919 0.44662
 C694 C 0.32897 -0.05868 0.46514
 C695 C 0.34264 -0.06832 0.49136
 C696 C 0.37096 -0.05922 0.49845
 C697 C 0.38669 -0.04029 0.47977
 C698 C 0.37342 -0.03029 0.45394
 H699 H 0.25521 -0.03977 0.38081
 H700 H 0.20512 -0.11275 0.44445
 H701 H 0.20946 -0.05809 0.36652
 H702 H 0.24412 -0.11267 0.47849
 H703 H 0.29110 -0.09703 0.49399
 H704 H 0.29732 -0.02811 0.39196
 H705 H 0.34487 -0.01373 0.40652
 H706 H 0.33216 -0.08287 0.50694
 H707 H 0.38061 -0.06722 0.51863
 H708 H 0.38526 -0.01545 0.43935
 C709 C 0.59603 -0.24363 0.55241
 C710 C 0.57159 -0.22994 0.56431
 C711 C 0.55673 -0.24443 0.58767
 C712 C 0.56665 -0.27097 0.59902
 C713 C 0.59162 -0.28405 0.58763
 C714 C 0.60572 -0.26994 0.56378
 C715 C 0.53204 -0.23230 0.59980
 C716 C 0.52189 -0.20588 0.58958
 C717 C 0.53622 -0.19020 0.56676
 C718 C 0.56154 -0.20243 0.55395
 C719 C 0.57627 -0.18652 0.53154
 C720 C 0.56689 -0.15961 0.52210
 C721 C 0.54239 -0.14738 0.53435
 C722 C 0.52639 -0.16250 0.55659
 C723 C 0.50137 -0.14900 0.56778
 C724 C 0.49323 -0.12154 0.55773
 C725 C 0.50963 -0.10655 0.53625
 C726 C 0.53404 -0.11984 0.52451
 H727 H 0.60839 -0.23466 0.53425
 H728 H 0.55443 -0.28129 0.61669
 H729 H 0.62491 -0.27854 0.55382
 H730 H 0.52045 -0.24332 0.61760
 H731 H 0.50284 -0.19815 0.60041
 H732 H 0.59555 -0.19400 0.52095
 H733 H 0.57914 -0.14815 0.50503
 H734 H 0.48760 -0.15896 0.58435
 H735 H 0.47417 -0.11189 0.56712
 H736 H 0.54682 -0.10863 0.50767
 C737 C 1.10120 0.73231 0.43247
 C738 C 1.07291 0.71990 0.42945
 C739 C 1.05153 0.73688 0.41530
 C740 C 1.05838 0.76514 0.40508
 C741 C 1.08648 0.77707 0.40854
 C742 C 1.10773 0.76028 0.42221
 C743 C 1.02342 0.72562 0.41137
 C744 C 1.01592 0.69774 0.42103
 C745 C 1.03631 0.67991 0.43530
 C746 C 1.06522 0.69130 0.43982
 C747 C 1.08545 0.67381 0.45474
 C748 C 1.07797 0.64615 0.46470
 C749 C 1.05010 0.63462 0.46023
 C750 C 1.02879 0.65112 0.44541
 C751 C 1.00090 0.63794 0.44141
 C752 C 0.99461 0.60987 0.45197
 C753 C 1.01580 0.59393 0.46681
 C754 C 1.04352 0.60653 0.47071
 H755 H 1.11903 0.72101 0.44235
 H756 H 1.04172 0.77797 0.39465
 H757 H 1.12981 0.76855 0.42454
 H758 H 1.00697 0.73849 0.40060
 H759 H 0.99373 0.69090 0.41708
 H760 H 1.10742 0.68084 0.45941
 H761 H 1.09428 0.63361 0.47609
 H762 H 0.98341 0.64862 0.43020
 H763 H 0.97300 0.60066 0.44855
 H764 H 1.06021 0.59444 0.48207
 C765 C -0.08543 1.24438 0.05389
 C766 C -0.07088 1.22317 0.07071
 C767 C -0.06884 1.22721 0.10142
 C768 C -0.07976 1.25221 0.11430
 C769 C -0.09449 1.27308 0.09740
 C770 C -0.09718 1.26859 0.06702
 C771 C -0.05643 1.20598 0.11929
 C772 C -0.04694 1.18028 0.10749
 C773 C -0.04855 1.17520 0.07704
 C774 C -0.05910 1.19773 0.05820
 C775 C -0.05713 1.19426 0.02752
 C776 C -0.04641 1.16913 0.01562
 C777 C -0.03812 1.14611 0.03371
 C778 C -0.03953 1.14854 0.06469
 C779 C -0.03264 1.12385 0.08197
 C780 C -0.02429 1.09814 0.06894
 C781 C -0.02203 1.09629 0.03838
 C782 C -0.02878 1.12045 0.02091
 H783 H -0.08896 1.24247 0.03059
 H784 H -0.07810 1.25440 0.13788
 H785 H -0.10784 1.28412 0.05290
 H786 H -0.05459 1.20898 0.14279
 H787 H -0.03762 1.16504 0.12279
 H788 H -0.06297 1.21102 0.01202
 H789 H -0.04513 1.16751 -0.00807
 H790 H -0.03438 1.12340 0.10557
 H791 H -0.01943 1.07963 0.08288
 H792 H -0.02762 1.11898 -0.00281
 C793 C 0.46234 0.25717 0.91688
 C794 C 0.44485 0.27865 0.92935
 C795 C 0.41471 0.27207 0.93269
 C796 C 0.40274 0.24556 0.92309
 C797 C 0.42027 0.22490 0.91010
 C798 C 0.45019 0.23089 0.90746
 C799 C 0.39649 0.29208 0.94531
 C800 C 0.40735 0.31861 0.95478
 C801 C 0.43711 0.32647 0.95178
 C802 C 0.45614 0.30632 0.93851
 C803 C 0.48565 0.31470 0.93443
 C804 C 0.49628 0.34171 0.94303
 C805 C 0.47816 0.36144 0.95633
 C806 C 0.44839 0.35401 0.96121
 C807 C 0.43113 0.37456 0.97541
 C808 C 0.44277 0.40131 0.98375
 C809 C 0.47204 0.40882 0.97841
 C810 C 0.48968 0.38864 0.96475
 H811 H 0.48552 0.25981 0.91419
 H812 H 0.37955 0.24134 0.92512
 H813 H 0.46443 0.21509 0.89818
 H814 H 0.37343 0.28719 0.94789
 H815 H 0.39153 0.33267 0.96399
 H816 H 0.50120 0.30101 0.92418
 H817 H 0.51904 0.34719 0.93921
 H818 H 0.40854 0.37073 0.98068
 H819 H 0.42853 0.41627 0.99443
 H820 H 0.51241 0.39406 0.96067
 C821 C 0.57860 0.61503 0.77306
 C822 C 0.58137 0.58650 0.78449
 C823 C 0.59366 0.56562 0.76594
 C824 C 0.60226 0.57318 0.73710
 C825 C 0.59889 0.60148 0.72609
 C826 C 0.58717 0.62223 0.74449
 C827 C 0.59723 0.53729 0.77621
 C828 C 0.58881 0.52903 0.80450
 C829 C 0.57622 0.54885 0.82381
 C830 C 0.57236 0.57806 0.81356
 C831 C 0.55935 0.59784 0.83260
 C832 C 0.55032 0.58956 0.86052
 C833 C 0.55388 0.56132 0.87084
 C834 C 0.56705 0.54048 0.85292
 C835 C 0.57027 0.51219 0.86505
 C836 C 0.56035 0.50507 0.89342
 C837 C 0.54691 0.52578 0.91062
 C838 C 0.54404 0.55392 0.89912
 H839 H 0.57006 0.63252 0.78554
 H840 H 0.61119 0.55687 0.72305
 H841 H 0.58497 0.64442 0.73696
 H842 H 0.60664 0.52122 0.76217
 H843 H 0.59228 0.50672 0.81050
 H844 H 0.55546 0.62005 0.82660
 H845 H 0.54027 0.60554 0.87421
 H846 H 0.58028 0.49502 0.85324
 H847 H 0.56296 0.48317 0.90176
 H848 H 0.53391 0.57032 0.91222
 C849 C 0.44183 0.11070 0.73665
 C850 C 0.43585 0.08220 0.72685
 C851 C 0.42044 0.06298 0.74617
 C852 C 0.41181 0.07208 0.77409
 C853 C 0.41771 0.10049 0.78330
 C854 C 0.43287 0.11957 0.76426
 C855 C 0.41339 0.03486 0.73744
 C856 C 0.42066 0.02543 0.70964
 C857 C 0.43572 0.04375 0.68940
 C858 C 0.44414 0.07235 0.69847
 C859 C 0.46066 0.09011 0.67890
 C860 C 0.46801 0.08075 0.65119
 C861 C 0.45912 0.05343 0.64163
 C862 C 0.44282 0.03445 0.66043
 C863 C 0.43409 0.00710 0.64917
 C864 C 0.44150 -0.00090 0.62069
 C865 C 0.45781 0.01797 0.60243
 C866 C 0.46653 0.04510 0.61318
 H867 H 0.45277 0.12704 0.72334
 H868 H 0.40035 0.05697 0.78865
 H869 H 0.43722 0.14182 0.77031
 H870 H 0.40177 0.02001 0.75218
 H871 H 0.41433 0.00342 0.70480
 H872 H 0.46865 0.11146 0.68438
 H873 H 0.48069 0.09523 0.63696
 H874 H 0.42124 -0.00854 0.66160
 H875 H 0.43436 -0.02198 0.61295
 H876 H 0.47908 0.06001 0.59929
 C877 C 0.03972 0.90852 0.24213
 C878 C 0.05938 0.91915 0.22032
 C879 C 0.08954 0.91862 0.22687
 C880 C 0.09921 0.90944 0.25464
 C881 C 0.07939 0.89979 0.27615
 C882 C 0.04968 0.89892 0.26951
 C883 C 0.10996 0.92732 0.20573
 C884 C 0.10123 0.93640 0.17797
 C885 C 0.07149 0.93787 0.17043
 C886 C 0.05022 0.93006 0.19229
 C887 C 0.02056 0.93419 0.18571
 C888 C 0.01189 0.94520 0.15865
 C889 C 0.03224 0.95183 0.13677
 C890 C 0.06228 0.94766 0.14200
 C891 C 0.08179 0.95327 0.11839
 C892 C 0.07185 0.96348 0.09123
 C893 C 0.04229 0.96868 0.08672
 C894 C 0.02261 0.96265 0.10958
 H895 H 0.01656 0.90691 0.23863
 H896 H 0.12231 0.90940 0.25947
 H897 H 0.03406 0.89126 0.28580
 H898 H 0.13304 0.92699 0.21066
 H899 H 0.11844 0.94303 0.16314
 H900 H 0.00343 0.92997 0.20142
 H901 H -0.01110 0.94841 0.15476
 H902 H 0.10478 0.94952 0.11997
 H903 H 0.08746 0.96764 0.07378
 H904 H -0.00042 0.96604 0.10609
 C905 C 0.91664 0.37049 0.28388
 C906 C 0.91362 0.39930 0.29352
 C907 C 0.89886 0.41883 0.27466
 C908 C 0.88859 0.40989 0.24703
 C909 C 0.89247 0.38145 0.23757
 C910 C 0.90630 0.36187 0.25647
 C911 C 0.89459 0.44726 0.28332
 C912 C 0.90459 0.45692 0.31034
 C913 C 0.91975 0.43854 0.32984
 C914 C 0.92468 0.40935 0.32110
 C915 C 0.94093 0.39132 0.33998
 C916 C 0.95184 0.40124 0.36649
 C917 C 0.94688 0.42939 0.37554
 C918 C 0.93054 0.44845 0.35761
 C919 C 0.92573 0.47662 0.36840
 C920 C 0.93709 0.48539 0.39544
 C921 C 0.95368 0.46656 0.41270
 C922 C 0.95834 0.43852 0.40255
 H923 H 0.92667 0.35387 0.29700
 H924 H 0.87806 0.42535 0.23264
 H925 H 0.90894 0.33956 0.25020
 H926 H 0.88332 0.46229 0.26901
 H927 H 0.90044 0.47923 0.31505
 H928 H 0.94613 0.36938 0.33477
 H929 H 0.96437 0.38660 0.38011
 H930 H 0.91313 0.49241 0.35665
 H931 H 0.93297 0.50714 0.40277
 H932 H 0.97090 0.42358 0.41578
   
