data_POSCAR
  _audit_creation_date              2014-09-24
  _audit_creation_method            'ToBaCCo'
  _symmetry_space_group_name_H-M    'P1'
  _symmetry_Int_Tables_number       1
  _symmetry_cell_setting            triclinic
  loop_
  _symmetry_equiv_pos_as_xyz
 x,y,z
_cell_length_a 55.8621
_cell_length_b 55.5822
_cell_length_c 55.6068
_cell_angle_alpha 89.983900
_cell_angle_beta 90.050900
_cell_angle_gamma 89.876800
loop_
  _atom_site_label
  _atom_site_type_symbol
  _atom_site_fract_x
  _atom_site_fract_y
  _atom_site_fract_z
C1 C 0.20820 1.22438 0.18981
 C2 C 0.22597 1.20653 0.19031
 C3 C 0.22596 1.18934 0.20837
 C4 C 0.20818 1.18979 0.22614
 C5 C 0.19060 1.20743 0.22565
 C6 C 0.19061 1.22482 0.20738
 C7 C 0.20307 1.24254 0.17373
 N8 N 0.18293 1.25384 0.18127
 C9 C 0.17506 1.24325 0.20172
 C10 C 0.17504 1.20275 0.24427
 N11 N 0.18289 1.18281 0.25589
 C12 C 0.20304 1.17465 0.24506
 C13 C 0.24446 1.17362 0.20366
 N14 N 0.25554 1.18096 0.18330
 C15 C 0.24447 1.20098 0.17491
 H16 H 0.21288 1.24683 0.15750
 H17 H 0.15897 1.24820 0.21139
 H18 H 0.15895 1.21271 0.24867
 H19 H 0.21285 1.15862 0.25019
 H20 H 0.24916 1.15772 0.21391
 H21 H 0.24919 1.21040 0.15854
 C22 C 0.79438 0.77378 0.19194
 C23 C 0.77670 0.79173 0.19152
 C24 C 0.77658 0.80956 0.20893
 C25 C 0.79413 0.80966 0.22697
 C26 C 0.81160 0.79192 0.22740
 C27 C 0.81173 0.77387 0.20978
 C28 C 0.79958 0.75501 0.17663
 N29 N 0.81954 0.74386 0.18488
 C30 C 0.82722 0.75515 0.20504
 C31 C 0.82691 0.79716 0.24610
 N32 N 0.81901 0.81753 0.25688
 C33 C 0.79908 0.82542 0.24542
 C34 C 0.75824 0.82521 0.20336
 N35 N 0.74738 0.81718 0.18312
 C36 C 0.75844 0.79681 0.17564
 H37 H 0.78993 0.75018 0.16044
 H38 H 0.84316 0.75045 0.21513
 H39 H 0.84286 0.78725 0.25114
 H40 H 0.78927 0.84167 0.24984
 H41 H 0.75350 0.84150 0.21292
 H42 H 0.75390 0.78683 0.15956
 C43 C 0.79007 1.22746 -0.19047
 C44 C 0.77237 1.20961 -0.19078
 C45 C 0.77250 1.19220 -0.20861
 C46 C 0.79033 1.19242 -0.22635
 C47 C 0.80783 1.21006 -0.22604
 C48 C 0.80770 1.22768 -0.20800
 C49 C 0.79504 1.24585 -0.17465
 N50 N 0.81514 1.25708 -0.18231
 C51 C 0.82312 1.24621 -0.20258
 C52 C 0.82344 1.20516 -0.24458
 N53 N 0.81569 1.18510 -0.25597
 C54 C 0.79556 1.17706 -0.24507
 C55 C 0.75403 1.17656 -0.20378
 N56 N 0.74285 1.18417 -0.18356
 C57 C 0.75383 1.20427 -0.17538
 H58 H 0.78514 1.25038 -0.15853
 H59 H 0.83920 1.25107 -0.21229
 H60 H 0.83949 1.21508 -0.24909
 H61 H 0.78582 1.16098 -0.25002
 H62 H 0.74940 1.16055 -0.21384
 H63 H 0.74901 1.21391 -0.15917
 C64 C 0.20665 0.77380 -0.19064
 C65 C 0.22455 0.79144 -0.19057
 C66 C 0.22466 0.80918 -0.20808
 C67 C 0.20687 0.80949 -0.22588
 C68 C 0.18916 0.79206 -0.22596
 C69 C 0.18905 0.77410 -0.20824
 C70 C 0.20146 0.75513 -0.17521
 N71 N 0.18127 0.74426 -0.18316
 C72 C 0.17344 0.75562 -0.20324
 C73 C 0.17369 0.79744 -0.24451
 N74 N 0.18172 0.81760 -0.25553
 C75 C 0.20190 0.82522 -0.24438
 C76 C 0.24334 0.82447 -0.20294
 N77 N 0.25442 0.81632 -0.18285
 C78 C 0.24317 0.79623 -0.17505
 H79 H 0.21130 0.75016 -0.15916
 H80 H 0.15735 0.75110 -0.21313
 H81 H 0.15756 0.78777 -0.24929
 H82 H 0.21187 0.84124 -0.24905
 H83 H 0.24821 0.84058 -0.21272
 H84 H 0.24788 0.78620 -0.15902
 C85 C 0.53675 1.03181 -0.00860
 H86 H 0.53769 1.03176 0.01083
 C87 C 0.55264 1.04588 -0.02190
 H88 H 0.56582 1.05680 -0.01270
 C89 C 0.51887 1.01714 -0.04441
 H90 H 0.50602 1.00556 -0.05313
 C91 C 0.53443 1.03095 -0.05838
 H92 H 0.53337 1.03014 -0.07782
 N93 N 0.52020 1.01792 -0.01997
 C94 C 0.46421 1.00572 0.03324
 H95 H 0.46365 0.98626 0.03313
 C96 C 0.44822 1.01869 0.04753
 H97 H 0.43532 1.00924 0.05856
 C98 C 0.48129 1.04188 0.01853
 H99 H 0.49388 1.05086 0.00687
 C100 C 0.46560 1.05555 0.03256
 H101 H 0.46630 1.07502 0.03183
 Zn102 Zn 0.50043 0.99832 -0.00052
 N103 N 0.48042 1.01741 0.01924
 C104 C 0.52034 0.97978 0.04289
 N105 N 0.52098 0.97892 0.01843
 C106 C 0.53735 0.96512 0.00665
 C107 C 0.55376 0.95120 0.01954
 C108 C 0.53646 0.96613 0.05647
 C109 C 0.46347 0.99057 -0.03342
 C110 C 0.44735 0.97743 -0.04738
 C111 C 0.46555 0.94075 -0.03275
 C112 C 0.48136 0.95457 -0.01905
 N113 N 0.48016 0.97903 -0.01977
 H114 H 0.50762 0.99130 0.05192
 H115 H 0.53772 0.96512 -0.01280
 H116 H 0.56679 0.94033 0.01002
 H117 H 0.53596 0.96701 0.07593
 H118 H 0.46265 1.01001 -0.03333
 H119 H 0.43409 0.98675 -0.05817
 H120 H 0.46653 0.92129 -0.03202
 H121 H 0.49432 0.94572 -0.00765
 C122 C 0.44891 1.04383 0.04716
 C123 C 0.55147 1.04542 -0.04701
 C124 C 0.44840 0.95230 -0.04702
 C125 C 0.55333 0.95175 0.04467
 C126 C -0.00695 0.53614 1.03367
 H127 H 0.01241 0.53676 1.03329
 C128 C -0.01970 0.55219 1.04815
 H129 H -0.01017 0.56519 1.05904
 C130 C -0.04310 0.51886 1.01948
 H131 H -0.05217 0.50618 1.00795
 C132 C -0.05653 0.53460 1.03370
 H133 H -0.07591 0.53384 1.03324
 N134 N -0.01874 0.51980 1.01985
 C135 C 0.03310 0.46257 1.00650
 H136 H 0.03269 0.46208 0.98706
 C137 C 0.04726 0.44616 1.01918
 H138 H 0.05786 0.43302 1.00950
 C139 C 0.01931 0.47987 1.04296
 H140 H 0.00806 0.49271 1.05217
 C141 C 0.03321 0.46377 1.05633
 H142 H 0.03279 0.46440 1.07580
 Zn143 Zn -0.00003 0.49967 0.99983
 N144 N 0.01963 0.47909 1.01849
 C145 C 0.04318 0.51882 0.98061
 N146 N 0.01883 0.52002 0.98025
 C147 C 0.00715 0.53677 0.96675
 C148 C 0.02001 0.55297 0.95260
 C149 C 0.05672 0.53470 0.96672
 C150 C -0.03346 0.46315 0.99233
 C151 C -0.04777 0.44723 0.97929
 C152 C -0.03350 0.46545 0.94254
 C153 C -0.01945 0.48105 0.95627
 N154 N -0.01982 0.47974 0.98072
 H155 H 0.05215 0.50580 0.99189
 H156 H -0.01220 0.53759 0.96713
 H157 H 0.01057 0.56628 0.94195
 H158 H 0.07609 0.53372 0.96717
 H159 H -0.03308 0.46223 1.01176
 H160 H -0.05853 0.43404 0.98868
 H161 H -0.03305 0.46651 0.92309
 H162 H -0.00806 0.49392 0.94735
 C163 C 0.04728 0.44676 1.04431
 C164 C -0.04471 0.55142 1.04813
 C165 C -0.04776 0.44839 0.95417
 C166 C 0.04502 0.55193 0.95261
 C167 C 1.03266 -0.00523 0.53780
 H168 H 1.03253 0.01423 0.53853
 C169 C 1.04669 -0.01833 0.55398
 H170 H 1.05749 -0.00897 0.56718
 C171 C 1.01832 -0.04126 0.52011
 H172 H 1.00690 -0.05015 0.50721
 C173 C 1.03208 -0.05505 0.53597
 H174 H 1.03141 -0.07451 0.53508
 N175 N 1.01899 -0.01680 0.52118
 C176 C 1.00735 0.03561 0.46394
 H177 H 0.98800 0.03551 0.46310
 C178 C 1.02042 0.04967 0.44783
 H179 H 1.01115 0.06050 0.43455
 C180 C 1.04316 0.02116 0.48186
 H181 H 1.05196 0.00969 0.49482
 C182 C 1.05692 0.03496 0.46607
 H183 H 1.07627 0.03424 0.46707
 Zn184 Zn 0.99965 0.00241 0.50080
 N185 N 1.01882 0.02186 0.48062
 C186 C 0.98092 0.04615 0.51980
 N187 N 0.98015 0.02169 0.52090
 C188 C 0.96627 0.01018 0.53737
 C189 C 0.95215 0.02335 0.55338
 C190 C 0.96708 0.06000 0.53551
 C191 C 0.99223 -0.03105 0.46409
 C192 C 0.97928 -0.04522 0.44797
 C193 C 0.94265 -0.03020 0.46560
 C194 C 0.95629 -0.01631 0.48142
 N195 N 0.98063 -0.01711 0.48050
 H196 H 0.99248 0.05498 0.50701
 H197 H 0.96632 -0.00927 0.53811
 H198 H 0.94120 0.01404 0.56647
 H199 H 0.96785 0.07946 0.53462
 H200 H 1.01159 -0.03102 0.46348
 H201 H 0.98865 -0.05623 0.43493
 H202 H 0.92328 -0.02941 0.46636
 H203 H 0.94739 -0.00469 0.49416
 C204 C 1.04543 0.04930 0.44890
 C205 C 1.04638 -0.04346 0.55305
 C206 C 0.95426 -0.04477 0.44873
 C207 C 0.95259 0.04848 0.55244
 C208 C 0.17180 0.27144 1.16963
 C209 C 0.16157 0.28729 1.15893
 C210 C 0.14915 0.30593 1.14596
 C211 C 0.15231 0.33011 1.15222
 C212 C 0.14015 0.34816 1.13960
 C213 C 0.12467 0.34224 1.12052
 C214 C 0.12163 0.31787 1.11439
 C215 C 0.13379 0.29987 1.12703
 C216 C 0.11166 0.36133 1.10710
 C217 C 0.10902 0.35983 1.08197
 C218 C 0.09637 0.37753 1.06939
 C219 C 0.08619 0.39696 1.08170
 C220 C 0.08885 0.39873 1.10667
 C221 C 0.10153 0.38105 1.11930
 C222 C 0.07268 0.41481 1.06873
 C223 C 0.06119 0.42952 1.05769
 H224 H 0.16420 0.33500 1.16682
 H225 H 0.14307 0.36676 1.14457
 H226 H 0.10959 0.31270 1.10004
 H227 H 0.13115 0.28120 1.12210
 H228 H 0.11690 0.34506 1.07203
 H229 H 0.09445 0.37601 1.05005
 H230 H 0.08097 0.41366 1.11639
 H231 H 0.10300 0.38256 1.13866
 C232 C -0.16934 0.72576 1.17407
 C233 C -0.15915 0.70944 1.16409
 C234 C -0.14683 0.69021 1.15192
 C235 C -0.12690 0.67926 1.16259
 C236 C -0.11450 0.66108 1.15043
 C237 C -0.12189 0.65363 1.12741
 C238 C -0.14209 0.66461 1.11694
 C239 C -0.15445 0.68279 1.12912
 C240 C -0.10834 0.63482 1.11416
 C241 C -0.12044 0.61725 1.10060
 C242 C -0.10762 0.59994 1.08765
 C243 C -0.08257 0.59996 1.08807
 C244 C -0.07038 0.61723 1.10164
 C245 C -0.08316 0.63454 1.11462
 C246 C -0.06936 0.58258 1.07420
 C247 C -0.05818 0.56825 1.06241
 H248 H -0.12087 0.68485 1.18024
 H249 H -0.09921 0.65277 1.15909
 H250 H -0.14803 0.65952 1.09912
 H251 H -0.16979 0.69123 1.12065
 H252 H -0.13981 0.61680 1.10013
 H253 H -0.11724 0.58663 1.07722
 H254 H -0.05099 0.61747 1.10201
 H255 H -0.07332 0.64801 1.12461
 C256 C -0.17393 0.27493 0.82906
 C257 C -0.16389 0.29102 0.83950
 C258 C -0.15173 0.30998 0.85217
 C259 C -0.15004 0.30926 0.87727
 C260 C -0.13780 0.32736 0.88962
 C261 C -0.12704 0.34643 0.87701
 C262 C -0.12895 0.34706 0.85177
 C263 C -0.14123 0.32895 0.83945
 C264 C -0.11356 0.36535 0.89012
 C265 C -0.09180 0.37415 0.88097
 C266 C -0.07878 0.39146 0.89366
 C267 C -0.08734 0.40023 0.91562
 C268 C -0.10908 0.39176 0.92477
 C269 C -0.12212 0.37444 0.91212
 C270 C -0.07357 0.41748 0.92903
 C271 C -0.06188 0.43170 0.94041
 H272 H -0.15802 0.29460 0.88728
 H273 H -0.13636 0.32617 0.90900
 H274 H -0.12111 0.36166 0.84158
 H275 H -0.14246 0.32969 0.82002
 H276 H -0.08458 0.36729 0.86425
 H277 H -0.06192 0.39782 0.88647
 H278 H -0.11588 0.39845 0.94175
 H279 H -0.13895 0.36825 0.91949
 C280 C 0.17017 0.72627 0.82777
 C281 C 0.15997 0.71003 0.83782
 C282 C 0.14760 0.69090 0.85000
 C283 C 0.12786 0.67985 0.83916
 C284 C 0.11541 0.66174 0.85128
 C285 C 0.12256 0.65443 0.87444
 C286 C 0.14257 0.66550 0.88508
 C287 C 0.15498 0.68363 0.87294
 C288 C 0.10898 0.63565 0.88761
 C289 C 0.12102 0.61815 0.90138
 C290 C 0.10816 0.60081 0.91419
 C291 C 0.08312 0.60073 0.91341
 C292 C 0.07098 0.61796 0.89965
 C293 C 0.08380 0.63529 0.88682
 C294 C 0.06984 0.58328 0.92705
 C295 C 0.05859 0.56887 0.93863
 H296 H 0.12201 0.68532 0.82139
 H297 H 0.10028 0.65334 0.84248
 H298 H 0.14833 0.66051 0.90300
 H299 H 0.17018 0.69213 0.88154
 H300 H 0.14039 0.61776 0.90212
 H301 H 0.11773 0.58753 0.92476
 H302 H 0.05159 0.61812 0.89901
 H303 H 0.07400 0.64871 0.87667
 C304 C 1.17177 0.17210 0.27401
 C305 C 1.16154 0.16225 0.29034
 C306 C 1.14913 0.15028 0.30959
 C307 C 1.15528 0.12667 0.31583
 C308 C 1.14280 0.11475 0.33406
 C309 C 1.12395 0.12631 0.34627
 C310 C 1.11804 0.15012 0.33998
 C311 C 1.13055 0.16200 0.32175
 C312 C 1.11026 0.11340 0.36516
 C313 C 1.08521 0.11579 0.36655
 C314 C 1.07224 0.10317 0.38394
 C315 C 1.08411 0.08805 0.40018
 C316 C 1.10903 0.08569 0.39908
 C317 C 1.12204 0.09828 0.38169
 C318 C 1.07063 0.07458 0.41762
 C319 C 1.05922 0.06314 0.43201
 H320 H 1.16956 0.11738 0.30645
 H321 H 1.14757 0.09633 0.33824
 H322 H 1.10382 0.15959 0.34924
 H323 H 1.12567 0.18029 0.31708
 H324 H 1.07559 0.12702 0.35389
 H325 H 1.05294 0.10504 0.38456
 H326 H 1.11839 0.07405 0.41159
 H327 H 1.14132 0.09630 0.38127
 C328 C 1.17078 -0.17110 0.72655
 C329 C 1.16074 -0.16072 0.71038
 C330 C 1.14858 -0.14812 0.69133
 C331 C 1.12555 -0.15512 0.68436
 C332 C 1.11343 -0.14247 0.66632
 C333 C 1.12420 -0.12259 0.65503
 C334 C 1.14744 -0.11581 0.66203
 C335 C 1.15953 -0.12850 0.68006
 C336 C 1.11107 -0.10873 0.63635
 C337 C 1.11224 -0.08344 0.63587
 C338 C 1.09945 -0.07035 0.61864
 C339 C 1.08536 -0.08233 0.60164
 C340 C 1.08420 -0.10748 0.60184
 C341 C 1.09696 -0.12061 0.61908
 C342 C 1.07178 -0.06877 0.58428
 C343 C 1.06027 -0.05729 0.56994
 H344 H 1.11686 -0.17021 0.69304
 H345 H 1.09545 -0.14794 0.66157
 H346 H 1.15633 -0.10079 0.65347
 H347 H 1.17737 -0.12295 0.68530
 H348 H 1.12266 -0.07375 0.64912
 H349 H 1.10039 -0.05088 0.61871
 H350 H 1.07337 -0.11693 0.58874
 H351 H 1.09592 -0.14006 0.61879
 C352 C 0.82988 -0.17124 0.27485
 C353 C 0.83988 -0.16093 0.29107
 C354 C 0.85201 -0.14846 0.31018
 C355 C 0.84640 -0.12442 0.31513
 C356 C 0.85864 -0.11206 0.33323
 C357 C 0.87671 -0.12360 0.34663
 C358 C 0.88208 -0.14784 0.34165
 C359 C 0.86980 -0.16017 0.32354
 C360 C 0.89019 -0.11026 0.36539
 C361 C 0.91509 -0.11335 0.36779
 C362 C 0.92788 -0.10039 0.38507
 C363 C 0.91599 -0.08420 0.40020
 C364 C 0.89120 -0.08111 0.39808
 C365 C 0.87837 -0.09405 0.38080
 C366 C 0.92930 -0.07045 0.41755
 C367 C 0.94060 -0.05881 0.43188
 H368 H 0.83273 -0.11515 0.30482
 H369 H 0.85431 -0.09333 0.33641
 H370 H 0.89567 -0.15731 0.35184
 H371 H 0.87426 -0.17879 0.31988
 H372 H 0.92476 -0.12544 0.35599
 H373 H 0.94708 -0.10284 0.38648
 H374 H 0.88181 -0.06865 0.40973
 H375 H 0.85919 -0.09149 0.37960
 C376 C 0.82687 0.17418 0.72605
 C377 C 0.83714 0.16413 0.70983
 C378 C 0.84957 0.15192 0.69073
 C379 C 0.83760 0.13495 0.67659
 C380 C 0.84986 0.12257 0.65849
 C381 C 0.87430 0.12702 0.65431
 C382 C 0.88611 0.14428 0.66850
 C383 C 0.87382 0.15662 0.68659
 C384 C 0.88753 0.11342 0.63554
 C385 C 0.90453 0.12499 0.62091
 C386 C 0.91738 0.11201 0.60365
 C387 C 0.91341 0.08732 0.60079
 C388 C 0.89643 0.07568 0.61513
 C389 C 0.88356 0.08862 0.63238
 C390 C 0.92707 0.07382 0.58348
 C391 C 0.93863 0.06235 0.56921
 H392 H 0.81882 0.13119 0.67963
 H393 H 0.84020 0.10962 0.64768
 H394 H 0.90498 0.14788 0.66594
 H395 H 0.88328 0.16965 0.69751
 H396 H 0.90779 0.14410 0.62271
 H397 H 0.93046 0.12120 0.59262
 H398 H 0.89330 0.05656 0.61313
 H399 H 0.87085 0.07913 0.64358
 C400 C 0.27442 1.16889 0.17190
 C401 C 0.29051 1.15837 0.16198
 C402 C 0.30947 1.14559 0.14995
 C403 C 0.30715 1.12096 0.14535
 C404 C 0.32531 1.10854 0.13329
 C405 C 0.34606 1.12062 0.12565
 C406 C 0.34828 1.14538 0.13046
 C407 C 0.33009 1.15776 0.14254
 C408 C 0.36513 1.10749 0.11243
 C409 C 0.37658 1.11814 0.09257
 C410 C 0.39405 1.10550 0.07972
 C411 C 0.40034 1.08209 0.08655
 C412 C 0.38924 1.07142 0.10641
 C413 C 0.37176 1.08402 0.11927
 C414 C 0.41776 1.06881 0.07286
 C415 C 0.43210 1.05751 0.06123
 H416 H 0.29121 1.11138 0.15092
 H417 H 0.32291 1.08958 0.12956
 H418 H 0.36416 1.15512 0.12506
 H419 H 0.33208 1.17683 0.14604
 H420 H 0.37167 1.13605 0.08666
 H421 H 0.40246 1.11389 0.06431
 H422 H 0.39399 1.05332 0.11186
 H423 H 0.36351 1.07545 0.13466
 C424 C 0.72394 1.17228 -0.17210
 C425 C 0.70782 1.16190 -0.16214
 C426 C 0.68884 1.14927 -0.15008
 C427 C 0.67865 1.15884 -0.12917
 C428 C 0.66072 1.14621 -0.11703
 C429 C 0.65278 1.12379 -0.12563
 C430 C 0.66300 1.11444 -0.14679
 C431 C 0.68091 1.12710 -0.15891
 C432 C 0.63428 1.11001 -0.11234
 C433 C 0.63645 1.08493 -0.10957
 C434 C 0.61931 1.07200 -0.09665
 C435 C 0.59976 1.08391 -0.08635
 C436 C 0.59734 1.10882 -0.08911
 C437 C 0.61448 1.12181 -0.10201
 C438 C 0.58245 1.07056 -0.07264
 C439 C 0.56819 1.05920 -0.06102
 H440 H 0.68473 1.17594 -0.12212
 H441 H 0.65344 1.15375 -0.10063
 H442 H 0.65706 1.09738 -0.15404
 H443 H 0.68866 1.11955 -0.17510
 H444 H 0.65165 1.07537 -0.11700
 H445 H 0.62142 1.05273 -0.09454
 H446 H 0.58225 1.11822 -0.08124
 H447 H 0.61215 1.14104 -0.10407
 C448 C 0.27356 0.82768 -0.17119
 C449 C 0.28988 0.83759 -0.16106
 C450 C 0.30913 0.84964 -0.14881
 C451 C 0.31339 0.84508 -0.12443
 C452 C 0.33165 0.85727 -0.11232
 C453 C 0.34587 0.87425 -0.12446
 C454 C 0.34156 0.87856 -0.14903
 C455 C 0.32331 0.86633 -0.16110
 C456 C 0.36479 0.88773 -0.11141
 C457 C 0.36816 0.91245 -0.11568
 C458 C 0.38553 0.92528 -0.10296
 C459 C 0.39979 0.91361 -0.08584
 C460 C 0.39673 0.88900 -0.08159
 C461 C 0.37935 0.87612 -0.09428
 C462 C 0.41720 0.92703 -0.07230
 C463 C 0.43155 0.93846 -0.06084
 H464 H 0.30246 0.83227 -0.11472
 H465 H 0.33430 0.85379 -0.09335
 H466 H 0.35239 0.89129 -0.15893
 H467 H 0.32017 0.86997 -0.17999
 H468 H 0.35703 0.92197 -0.12850
 H469 H 0.38768 0.94436 -0.10631
 H470 H 0.40769 0.87978 -0.06839
 H471 H 0.37739 0.85706 -0.09081
 C472 C 0.72877 0.82894 0.17094
 C473 C 0.71292 0.83917 0.16030
 C474 C 0.69430 0.85156 0.14735
 C475 C 0.67022 0.84759 0.15303
 C476 C 0.65218 0.85964 0.14034
 C477 C 0.65802 0.87580 0.12177
 C478 C 0.68229 0.87967 0.11624
 C479 C 0.70028 0.86763 0.12895
 C480 C 0.63894 0.88861 0.10821
 C481 C 0.64088 0.89182 0.08319
 C482 C 0.62316 0.90424 0.07047
 C483 C 0.60326 0.91361 0.08255
 C484 C 0.60106 0.91039 0.10741
 C485 C 0.61877 0.89794 0.12018
 C486 C 0.58535 0.92686 0.06943
 C487 C 0.57060 0.93812 0.05825
 H488 H 0.66539 0.83514 0.16720
 H489 H 0.63367 0.85607 0.14483
 H490 H 0.68738 0.89225 0.10229
 H491 H 0.71886 0.87090 0.12446
 H492 H 0.65601 0.88455 0.07341
 H493 H 0.62501 0.90660 0.05122
 H494 H 0.58577 0.91766 0.11696
 H495 H 0.61691 0.89602 0.13946
   
