data_POSCAR
  _audit_creation_date              2014-09-24
  _audit_creation_method            'ToBaCCo'
  _symmetry_space_group_name_H-M    'P1'
  _symmetry_Int_Tables_number       1
  _symmetry_cell_setting            triclinic
  loop_
  _symmetry_equiv_pos_as_xyz
 x,y,z
_cell_length_a 20.3744
_cell_length_b 20.2550
_cell_length_c 20.4357
_cell_angle_alpha 90.239600
_cell_angle_beta 90.109600
_cell_angle_gamma 89.861200
loop_
  _atom_site_label
  _atom_site_type_symbol
  _atom_site_fract_x
  _atom_site_fract_y
  _atom_site_fract_z
O1 O -0.16436 0.08415 0.00817
 O2 O 0.17216 0.08823 -0.00039
 O3 O 0.00325 0.16655 0.09072
 O4 O 0.00697 0.16802 -0.08698
 O5 O 0.00033 0.08789 -0.16726
 O6 O 0.00350 0.08544 0.17010
 O7 O 0.09151 0.16842 -0.00120
 O8 O -0.08604 0.16611 0.00525
 Zr9 Zr 0.00401 0.11351 0.00163
 O10 O 0.06323 0.05797 -0.05915
 O11 O -0.05377 0.05603 0.06153
 C12 C -0.14624 0.14531 0.00885
 C13 C 0.15210 0.14912 -0.00175
 C14 C 0.00215 0.14652 0.15091
 C15 C 0.00274 0.14909 -0.14780
 H16 H 0.09223 0.08438 0.08800
 O17 O 0.06412 0.05649 0.05989
 H18 H -0.08383 0.08575 -0.08374
 O19 O -0.05521 0.05693 -0.05714
 O20 O 0.17327 -0.09170 -0.00173
 O21 O -0.16342 -0.09230 -0.00547
 O22 O 0.09742 -0.00773 0.16767
 O23 O 0.09231 0.00275 -0.16885
 O24 O -0.08596 -0.00421 -0.16752
 O25 O -0.08096 -0.00586 0.17142
 O26 O 0.00832 -0.17275 0.08766
 O27 O 0.00298 -0.17240 -0.08814
 O28 O 0.00995 -0.09481 0.16882
 O29 O 0.00113 -0.09218 -0.16810
 O30 O 0.17546 -0.00360 0.08642
 O31 O -0.16116 -0.00419 0.09162
 O32 O -0.16404 -0.00091 -0.08654
 O33 O 0.17262 0.00044 -0.08931
 O34 O 0.09386 -0.17273 0.00142
 O35 O -0.08381 -0.17271 0.00205
 Zr36 Zr 0.11999 -0.00203 -0.00064
 Zr37 Zr -0.10985 -0.00356 0.00181
 Zr38 Zr 0.00686 -0.00422 0.11656
 Zr39 Zr 0.00345 -0.00210 -0.11498
 Zr40 Zr 0.00540 -0.11872 0.00001
 O41 O -0.05497 -0.06287 -0.05901
 O42 O 0.06599 -0.06309 0.05911
 C43 C 0.15415 -0.15272 0.00038
 C44 C -0.14456 -0.15349 -0.00368
 C45 C 0.15781 -0.00833 0.14710
 C46 C 0.15324 0.00451 -0.14966
 C47 C -0.14641 -0.00025 -0.14765
 C48 C -0.14173 -0.00694 0.15222
 C49 C 0.00842 -0.15596 0.14866
 C50 C 0.00001 -0.15317 -0.14847
 H51 H -0.08061 -0.09199 0.08729
 O52 O -0.05301 -0.06309 0.05999
 H53 H 0.09113 -0.08914 -0.08826
 O54 O 0.06336 -0.06149 -0.05955
 O55 O 0.33831 0.58991 0.00201
 O56 O 0.67549 0.58353 0.00246
 O57 O 0.50823 0.66546 0.09498
 O58 O 0.50982 0.66862 -0.08168
 O59 O 0.50646 0.59137 -0.16458
 O60 O 0.49857 0.58328 0.17226
 O61 O 0.59674 0.66545 0.00209
 O62 O 0.41915 0.66912 0.00770
 Zr63 Zr 0.50714 0.61331 0.00509
 O64 O 0.56533 0.55715 -0.05597
 O65 O 0.44568 0.55712 0.06192
 C66 C 0.35834 0.65040 0.00490
 C67 C 0.65712 0.64505 -0.00022
 C68 C 0.50174 0.64472 0.15465
 C69 C 0.50724 0.65184 -0.14280
 H70 H 0.59360 0.58128 0.09225
 O71 O 0.56485 0.55448 0.06355
 H72 H 0.42001 0.58790 -0.08347
 O73 O 0.44761 0.55895 -0.05620
 O74 O 0.67005 0.40348 0.00079
 O75 O 0.33266 0.41296 -0.00374
 O76 O 0.59200 0.48998 0.17159
 O77 O 0.59617 0.50045 -0.16627
 O78 O 0.41524 0.50050 -0.16819
 O79 O 0.41371 0.50147 0.16890
 O80 O 0.50306 0.32602 0.08455
 O81 O 0.50018 0.32920 -0.09192
 O82 O 0.50069 0.40330 0.16739
 O83 O 0.50130 0.41137 -0.17003
 O84 O 0.67175 0.48667 0.09194
 O85 O 0.33531 0.50057 0.08801
 O86 O 0.33641 0.49999 -0.08812
 O87 O 0.67381 0.50083 -0.08449
 O88 O 0.58825 0.32483 0.00019
 O89 O 0.41076 0.33040 -0.00545
 Zr90 Zr 0.61955 0.49507 0.00271
 Zr91 Zr 0.38957 0.49956 0.00025
 Zr92 Zr 0.50335 0.49480 0.11713
 Zr93 Zr 0.50524 0.49990 -0.11471
 Zr94 Zr 0.50155 0.38148 -0.00227
 O95 O 0.44381 0.43992 -0.06107
 O96 O 0.56170 0.43499 0.05954
 C97 C 0.64916 0.34288 0.00223
 C98 C 0.35052 0.35163 -0.00515
 C99 C 0.65275 0.48432 0.15263
 C100 C 0.65679 0.50017 -0.14546
 C101 C 0.35421 0.50203 -0.14881
 C102 C 0.35326 0.50514 0.14869
 C103 C 0.50086 0.34273 0.14572
 C104 C 0.49948 0.35001 -0.15186
 H105 H 0.41461 0.41037 0.08546
 O106 O 0.44369 0.43790 0.05845
 H107 H 0.59044 0.40993 -0.08726
 O108 O 0.56270 0.43813 -0.05894
 O109 O -0.16770 0.58125 0.49984
 O110 O 0.17085 0.58964 0.50184
 O111 O 0.00009 0.66518 0.59201
 O112 O -0.00228 0.66898 0.41498
 O113 O 0.00262 0.58836 0.33544
 O114 O 0.00117 0.58299 0.66981
 O115 O 0.08885 0.66869 0.50165
 O116 O -0.08998 0.66309 0.51162
 Zr117 Zr 0.00105 0.61301 0.50246
 O118 O 0.06246 0.55879 0.44262
 O119 O -0.05653 0.55389 0.56051
 C120 C -0.15026 0.64229 0.50844
 C121 C 0.14996 0.65020 0.50282
 C122 C -0.00092 0.64428 0.65194
 C123 C -0.00174 0.64951 0.35428
 H124 H 0.08928 0.58474 0.58895
 O125 O 0.06204 0.55655 0.56026
 H126 H -0.08623 0.58264 0.41475
 O127 O -0.05674 0.55551 0.44221
 O128 O 0.17541 0.41026 0.49970
 O129 O -0.16154 0.40291 0.49789
 O130 O 0.09422 0.49354 0.66833
 O131 O 0.09304 0.50451 0.33297
 O132 O -0.08352 0.49282 0.33176
 O133 O -0.08443 0.49523 0.66713
 O134 O 0.01001 0.32577 0.58836
 O135 O 0.00547 0.32771 0.41000
 O136 O 0.00866 0.40592 0.66878
 O137 O 0.00766 0.40938 0.33146
 O138 O 0.17456 0.49813 0.58933
 O139 O -0.16524 0.49544 0.58802
 O140 O -0.16391 0.48750 0.41032
 O141 O 0.17316 0.50854 0.41230
 O142 O 0.09703 0.32799 0.50021
 O143 O -0.07974 0.32392 0.49765
 Zr144 Zr 0.12027 0.49907 0.50083
 Zr145 Zr -0.11118 0.49367 0.49974
 Zr146 Zr 0.00500 0.49479 0.61523
 Zr147 Zr 0.00466 0.49792 0.38614
 Zr148 Zr 0.00755 0.38003 0.49949
 O149 O -0.05329 0.43555 0.44039
 O150 O 0.06635 0.43675 0.55947
 C151 C 0.15712 0.34878 0.49946
 C152 C -0.14082 0.34229 0.49903
 C153 C 0.15509 0.49740 0.64984
 C154 C 0.15351 0.51123 0.35181
 C155 C -0.14422 0.48680 0.34981
 C156 C -0.14542 0.49456 0.64845
 C157 C 0.00888 0.34490 0.64927
 C158 C 0.00555 0.34827 0.34998
 H159 H -0.08039 0.40633 0.58642
 O160 O -0.05319 0.43501 0.55849
 H161 H 0.09440 0.41253 0.41230
 O162 O 0.06543 0.43894 0.44108
 O163 O 0.33626 0.08578 0.49989
 O164 O 0.67530 0.08243 0.49916
 O165 O 0.50038 0.16801 0.58473
 O166 O 0.50677 0.16276 0.40809
 O167 O 0.50796 0.07961 0.33090
 O168 O 0.50362 0.08950 0.66606
 O169 O 0.59543 0.16344 0.49547
 O170 O 0.41721 0.16530 0.49880
 Zr171 Zr 0.50582 0.11125 0.49784
 O172 O 0.56587 0.05279 0.44070
 O173 O 0.44579 0.05728 0.55824
 C174 C 0.35640 0.14637 0.49901
 C175 C 0.65604 0.14361 0.49829
 C176 C 0.50022 0.14997 0.64555
 C177 C 0.50604 0.14134 0.34812
 H178 H 0.59166 0.08476 0.58625
 O179 O 0.56442 0.05567 0.55841
 H180 H 0.41812 0.08070 0.41123
 O181 O 0.44618 0.05357 0.44011
 O182 O 0.67214 -0.09782 0.50772
 O183 O 0.33423 -0.09119 0.50124
 O184 O 0.59261 -0.00467 0.66952
 O185 O 0.59386 -0.00473 0.33340
 O186 O 0.41734 -0.01180 0.33307
 O187 O 0.41611 0.00245 0.66819
 O188 O 0.50470 -0.17233 0.59304
 O189 O 0.50087 -0.17792 0.41701
 O190 O 0.50678 -0.08924 0.67033
 O191 O 0.50561 -0.09942 0.33573
 O192 O 0.67390 -0.00237 0.59181
 O193 O 0.33571 0.00309 0.58889
 O194 O 0.33625 -0.00943 0.41145
 O195 O 0.67454 -0.00883 0.41218
 O196 O 0.59057 -0.17697 0.50582
 O197 O 0.41359 -0.17263 0.50206
 Zr198 Zr 0.62134 -0.00637 0.50176
 Zr199 Zr 0.38924 -0.00357 0.50036
 Zr200 Zr 0.50479 -0.00171 0.61524
 Zr201 Zr 0.50577 -0.00799 0.38649
 Zr202 Zr 0.50362 -0.12094 0.50349
 O203 O 0.44495 -0.06572 0.44258
 O204 O 0.56417 -0.06406 0.56187
 C205 C 0.65133 -0.15857 0.50847
 C206 C 0.35309 -0.15224 0.50237
 C207 C 0.65355 -0.00109 0.65227
 C208 C 0.65460 -0.00819 0.35149
 C209 C 0.35642 -0.01345 0.35131
 C210 C 0.35534 0.00577 0.64937
 C211 C 0.50479 -0.15082 0.65290
 C212 C 0.50217 -0.15992 0.35630
 H213 H 0.41637 -0.08883 0.58974
 O214 O 0.44475 -0.06213 0.56100
 H215 H 0.59202 -0.09588 0.41676
 O216 O 0.56419 -0.06669 0.44397
 C217 C 0.23217 0.22129 0.05861
 C218 C 0.20239 0.20111 -0.00063
 C219 C 0.21844 0.23325 -0.05905
 C220 C 0.26674 0.28207 -0.06003
 C221 C 0.29788 0.30190 -0.00211
 C222 C 0.27825 0.27394 0.05815
 C223 C 0.21624 0.19102 0.11865
 C224 C 0.24295 0.21410 0.17715
 C225 C 0.28533 0.26774 0.17681
 C226 C 0.30291 0.29761 0.11824
 H227 H 0.18278 0.14981 0.12106
 H228 H 0.23036 0.19062 0.22293
 H229 H 0.30588 0.28555 0.22185
 H230 H 0.33645 0.33870 0.12058
 H231 H 0.19472 0.21915 -0.10449
 H232 H 0.28007 0.30431 -0.10623
 C233 C 0.25083 -0.30018 0.55586
 C234 C 0.20042 -0.29793 0.50780
 C235 C 0.19912 -0.24621 0.46264
 C236 C 0.24864 -0.19895 0.46219
 C237 C 0.30114 -0.20249 0.50644
 C238 C 0.30181 -0.25235 0.55490
 C239 C 0.25040 -0.34744 0.60649
 C240 C 0.30073 -0.34982 0.65264
 C241 C 0.35093 -0.30366 0.65118
 C242 C 0.35065 -0.25432 0.60408
 H243 H 0.21053 -0.38172 0.61197
 H244 H 0.29998 -0.38641 0.69092
 H245 H 0.38917 -0.30485 0.68801
 H246 H 0.38816 -0.21722 0.60784
 H247 H 0.16047 -0.24345 0.42624
 H248 H 0.24702 -0.16031 0.42567
 C249 C 0.75367 0.79947 -0.05308
 C250 C 0.80645 0.79738 -0.00725
 C251 C 0.81038 0.74369 0.03573
 C252 C 0.76253 0.69454 0.03666
 C253 C 0.70892 0.69657 -0.00618
 C254 C 0.70540 0.74829 -0.05305
 C255 C 0.75090 0.84770 -0.10294
 C256 C 0.70086 0.84764 -0.14937
 C257 C 0.65427 0.79786 -0.14939
 C258 C 0.65717 0.74802 -0.10270
 H259 H 0.78854 0.88431 -0.10858
 H260 H 0.69941 0.88531 -0.18677
 H261 H 0.61682 0.79699 -0.18692
 H262 H 0.62307 0.70795 -0.10754
 H263 H 0.84876 0.74208 0.07199
 H264 H 0.76649 0.65548 0.07255
 C265 C 0.75423 0.29736 0.54774
 C266 C 0.80869 0.29030 0.50505
 C267 C 0.81504 0.23255 0.46787
 C268 C 0.76508 0.18582 0.46636
 C269 C 0.70761 0.19478 0.50299
 C270 C 0.70262 0.25011 0.54588
 C271 C 0.75210 0.34800 0.59545
 C272 C 0.69809 0.35577 0.63625
 C273 C 0.64632 0.31174 0.63238
 C274 C 0.64937 0.25817 0.58951
 H275 H 0.79307 0.38033 0.60356
 H276 H 0.69688 0.39527 0.67198
 H277 H 0.60447 0.31825 0.66414
 H278 H 0.61045 0.22277 0.59274
 H279 H 0.85844 0.22409 0.43862
 H280 H 0.77089 0.14279 0.43524
 C281 C 0.75015 0.19371 0.05883
 C282 C 0.80081 0.19501 0.01120
 C283 C 0.79839 0.24185 -0.03882
 C284 C 0.74737 0.28747 -0.04191
 C285 C 0.69915 0.29010 0.00643
 C286 C 0.69985 0.24268 0.05732
 C287 C 0.74864 0.14553 0.10857
 C288 C 0.69791 0.14424 0.15415
 C289 C 0.65058 0.19364 0.15432
 C290 C 0.65222 0.24322 0.10730
 H291 H 0.78654 0.10880 0.11329
 H292 H 0.69665 0.10599 0.19098
 H293 H 0.61285 0.19376 0.19142
 H294 H 0.61615 0.28187 0.11064
 H295 H 0.83506 0.24159 -0.07719
 H296 H 0.74440 0.32018 -0.08326
 C297 C 0.79613 -0.26362 0.56554
 C298 C 0.79944 -0.31041 0.51340
 C299 C 0.74977 -0.31028 0.46562
 C300 C 0.70220 -0.26064 0.46453
 C301 C 0.70090 -0.21153 0.51294
 C302 C 0.74519 -0.21521 0.56600
 C303 C 0.83815 -0.26762 0.62040
 C304 C 0.82947 -0.22586 0.67411
 C305 C 0.77842 -0.18065 0.67531
 C306 C 0.73695 -0.17452 0.62163
 H307 H 0.87575 -0.30493 0.62374
 H308 H 0.86107 -0.22933 0.71607
 H309 H 0.77051 -0.15092 0.71859
 H310 H 0.69693 -0.13954 0.62527
 H311 H 0.75000 -0.34657 0.42646
 H312 H 0.66676 -0.25988 0.42492
 C313 C 0.25642 0.29646 0.44596
 C314 C 0.20867 0.29773 0.49627
 C315 C 0.20786 0.24726 0.54289
 C316 C 0.25544 0.19780 0.54232
 C317 C 0.30580 0.19818 0.49589
 C318 C 0.30593 0.24676 0.44629
 C319 C 0.25401 0.34111 0.39320
 C320 C 0.30077 0.33826 0.34365
 C321 C 0.35059 0.29150 0.34536
 C322 C 0.35233 0.24510 0.39509
 H323 H 0.21514 0.37715 0.38859
 H324 H 0.29736 0.37097 0.30241
 H325 H 0.38660 0.28962 0.30657
 H326 H 0.38900 0.20694 0.39147
 H327 H 0.17050 0.24660 0.58057
 H328 H 0.25394 0.15981 0.57948
 C329 C 0.23269 0.77376 -0.06062
 C330 C 0.20543 0.79627 -0.00102
 C331 C 0.22748 0.76990 0.05830
 C332 C 0.27848 0.72390 0.05953
 C333 C 0.30720 0.70170 0.00133
 C334 C 0.28347 0.72544 -0.05949
 C335 C 0.20983 0.79753 -0.12147
 C336 C 0.23598 0.77363 -0.17990
 C337 C 0.28508 0.72589 -0.17873
 C338 C 0.30873 0.70190 -0.11940
 H339 H 0.17138 0.83424 -0.12450
 H340 H 0.21796 0.79208 -0.22624
 H341 H 0.30528 0.70743 -0.22386
 H342 H 0.34700 0.66501 -0.12107
 H343 H 0.20588 0.78600 0.10410
 H344 H 0.29537 0.70519 0.10622
 C345 C -0.05787 0.21205 0.23759
 C346 C -0.00003 0.19795 0.20188
 C347 C 0.05672 0.23505 0.21339
 C348 C 0.05778 0.28408 0.26138
 C349 C 0.00172 0.29771 0.29844
 C350 C -0.05714 0.26293 0.28581
 C351 C -0.11684 0.17779 0.22547
 C352 C -0.17381 0.19385 0.25982
 C353 C -0.17374 0.24519 0.30509
 C354 C -0.11593 0.27924 0.31858
 H355 H -0.11939 0.13865 0.18940
 H356 H -0.21833 0.16644 0.25151
 H357 H -0.21859 0.25828 0.33036
 H358 H -0.11795 0.31895 0.35411
 H359 H 0.10071 0.22544 0.18543
 H360 H 0.10280 0.31117 0.27009
 C361 C 0.43820 0.28637 0.76078
 C362 C 0.49657 0.29940 0.79615
 C363 C 0.55333 0.26299 0.78233
 C364 C 0.55345 0.21525 0.73297
 C365 C 0.49697 0.20249 0.69597
 C366 C 0.43847 0.23803 0.70977
 C367 C 0.37894 0.31880 0.77665
 C368 C 0.32122 0.30411 0.74305
 C369 C 0.32150 0.25741 0.69297
 C370 C 0.37949 0.22484 0.67590
 H371 H 0.37650 0.35488 0.81579
 H372 H 0.27592 0.32884 0.75619
 H373 H 0.27619 0.24591 0.66797
 H374 H 0.37740 0.18806 0.63744
 H375 H 0.59818 0.27217 0.80945
 H376 H 0.59862 0.18908 0.72248
 C377 C -0.04791 0.74032 0.80650
 C378 C -0.00396 0.79443 0.80122
 C379 C 0.03807 0.79826 0.74730
 C380 C 0.03816 0.74915 0.69953
 C381 C -0.00362 0.69456 0.70426
 C382 C -0.04752 0.68983 0.75785
 C383 C -0.09546 0.73745 0.85658
 C384 C -0.13948 0.68515 0.86051
 C385 C -0.13926 0.63614 0.81303
 C386 C -0.09476 0.63894 0.76161
 H387 H -0.10089 0.77660 0.89157
 H388 H -0.17511 0.68343 0.89953
 H389 H -0.17498 0.59681 0.81507
 H390 H -0.10003 0.60248 0.72378
 H391 H 0.07195 0.83913 0.74266
 H392 H 0.07193 0.75334 0.65885
 C393 C 0.44153 -0.29782 0.24293
 C394 C 0.49865 -0.30760 0.20423
 C395 C 0.55441 -0.26917 0.21649
 C396 C 0.55532 -0.22365 0.26781
 C397 C 0.49965 -0.21263 0.30626
 C398 C 0.44213 -0.24997 0.29438
 C399 C 0.38228 -0.33087 0.22851
 C400 C 0.32563 -0.31815 0.26462
 C401 C 0.32672 -0.27274 0.31575
 C402 C 0.38424 -0.23879 0.33070
 H403 H 0.37877 -0.36494 0.18788
 H404 H 0.28028 -0.34275 0.25240
 H405 H 0.28236 -0.26299 0.34308
 H406 H 0.38241 -0.20253 0.36962
 H407 H 0.59854 -0.27612 0.18767
 H408 H 0.60019 -0.19714 0.27806
 C409 C -0.02137 0.72777 0.18447
 C410 C 0.00473 0.79299 0.19655
 C411 C 0.02346 0.80883 0.26134
 C412 C 0.02027 0.76279 0.31182
 C413 C -0.00676 0.70026 0.30149
 C414 C -0.03337 0.68518 0.23891
 C415 C -0.03811 0.70273 0.12131
 C416 C -0.07126 0.64305 0.11345
 C417 C -0.09111 0.60759 0.16756
 C418 C -0.07303 0.62868 0.22967
 H419 H -0.02615 0.72608 0.07603
 H420 H -0.08379 0.62555 0.06487
 H421 H -0.12016 0.56329 0.16142
 H422 H -0.09193 0.60114 0.27048
 H423 H 0.04393 0.85679 0.27304
 H424 H 0.03991 0.77615 0.35935
 C425 C 0.46920 -0.23389 0.81688
 C426 C 0.50478 -0.29431 0.80800
 C427 C 0.53708 -0.30575 0.74840
 C428 C 0.53635 -0.25905 0.69880
 C429 C 0.50082 -0.20032 0.70571
 C430 C 0.46368 -0.18921 0.76343
 C431 C 0.43700 -0.21684 0.87607
 C432 C 0.39773 -0.16059 0.88096
 C433 C 0.38723 -0.12126 0.82665
 C434 C 0.41910 -0.13577 0.76826
 H435 H 0.43923 -0.24635 0.91928
 H436 H 0.37297 -0.14918 0.92649
 H437 H 0.35389 -0.07965 0.82960
 H438 H 0.40672 -0.10589 0.72660
 H439 H 0.56481 -0.35080 0.74064
 H440 H 0.56437 -0.26873 0.65476
 C441 C 0.46514 0.22739 0.18534
 C442 C 0.49908 0.28849 0.19493
 C443 C 0.53215 0.29923 0.25435
 C444 C 0.53389 0.25126 0.30291
 C445 C 0.50062 0.19134 0.29520
 C446 C 0.46291 0.18062 0.23747
 C447 C 0.43115 0.21181 0.12666
 C448 C 0.39437 0.15423 0.12049
 C449 C 0.38766 0.11220 0.17330
 C450 C 0.42052 0.12571 0.23146
 H451 H 0.42968 0.24372 0.08506
 H452 H 0.36834 0.14387 0.07537
 H453 H 0.35607 0.06947 0.16950
 H454 H 0.41030 0.09387 0.27204
 H455 H 0.55874 0.34477 0.26272
 H456 H 0.56211 0.26097 0.34689
 C457 C -0.04670 0.19544 0.75099
 C458 C -0.00071 0.19838 0.80356
 C459 C 0.04252 0.25226 0.80673
 C460 C 0.04562 0.29829 0.75597
 C461 C 0.00437 0.29343 0.70106
 C462 C -0.04417 0.24317 0.69971
 C463 C -0.09955 0.15029 0.75175
 C464 C -0.14662 0.14991 0.70232
 C465 C -0.14304 0.19495 0.65166
 C466 C -0.09324 0.24184 0.65077
 H467 H -0.10710 0.11721 0.79211
 H468 H -0.18723 0.11581 0.70415
 H469 H -0.18026 0.19462 0.61396
 H470 H -0.09541 0.27836 0.61285
 H471 H 0.07668 0.25702 0.84719
 H472 H 0.08124 0.33781 0.75926
 C473 C 0.26852 -0.05232 0.18910
 C474 C 0.21056 -0.01343 0.19737
 C475 C 0.20143 0.02099 0.25636
 C476 C 0.24840 0.01918 0.30586
 C477 C 0.30594 -0.01814 0.29895
 C478 C 0.31529 -0.05613 0.24103
 C479 C 0.28086 -0.08916 0.13145
 C480 C 0.33734 -0.12738 0.12448
 C481 C 0.38086 -0.13352 0.17616
 C482 C 0.36926 -0.09954 0.23422
 H483 H 0.24742 -0.09026 0.09120
 H484 H 0.34647 -0.15385 0.07928
 H485 H 0.42333 -0.16541 0.17158
 H486 H 0.40215 -0.10928 0.27395
 H487 H 0.15801 0.05111 0.26371
 H488 H 0.24025 0.04856 0.34955
 C489 C 0.24116 0.53738 0.81346
 C490 C 0.30379 0.50588 0.80299
 C491 C 0.31632 0.47830 0.74082
 C492 C 0.26782 0.47511 0.69259
 C493 C 0.20607 0.50397 0.70217
 C494 C 0.19460 0.53994 0.76094
 C495 C 0.22476 0.57145 0.87220
 C496 C 0.16718 0.60817 0.87809
 C497 C 0.12542 0.61476 0.82512
 C498 C 0.13941 0.58203 0.76698
 H499 H 0.25621 0.57416 0.91395
 H500 H 0.15665 0.63436 0.92320
 H501 H 0.08262 0.64637 0.82866
 H502 H 0.10816 0.59282 0.72602
 H503 H 0.36319 0.45528 0.73023
 H504 H 0.27876 0.44946 0.64726
 C505 C 0.74269 0.03880 0.81593
 C506 C 0.80391 0.00633 0.80405
 C507 C 0.81576 -0.01871 0.74095
 C508 C 0.76725 -0.01820 0.69287
 C509 C 0.70378 0.00535 0.70572
 C510 C 0.69149 0.03614 0.76783
 C511 C 0.73319 0.07932 0.87187
 C512 C 0.67324 0.10930 0.88485
 C513 C 0.62198 0.10256 0.84094
 C514 C 0.63130 0.06827 0.78252
 H515 H 0.77261 0.09187 0.90444
 H516 H 0.66714 0.13941 0.92835
 H517 H 0.57555 0.12677 0.85067
 H518 H 0.59098 0.07081 0.74916
 H519 H 0.86251 -0.04122 0.72881
 H520 H 0.77920 -0.03897 0.64546
 C521 C -0.23813 0.44182 0.19049
 C522 C -0.29804 0.47693 0.20143
 C523 C -0.30745 0.50701 0.26280
 C524 C -0.25737 0.50890 0.30946
 C525 C -0.19563 0.48031 0.29754
 C526 C -0.18611 0.44505 0.23761
 C527 C -0.23087 0.39856 0.13644
 C528 C -0.17253 0.36481 0.12487
 C529 C -0.12064 0.37125 0.16818
 C530 C -0.12763 0.40964 0.22440
 H531 H -0.27118 0.38736 0.10456
 H532 H -0.16814 0.33232 0.08291
 H533 H -0.07553 0.34422 0.15961
 H534 H -0.08731 0.40827 0.25781
 H535 H -0.35286 0.53269 0.27384
 H536 H -0.26657 0.53499 0.35493
 C537 C 0.26254 0.04963 0.80799
 C538 C 0.20512 0.01044 0.79931
 C539 C 0.19755 -0.02540 0.74098
 C540 C 0.24603 -0.02507 0.69289
 C541 C 0.30419 0.01099 0.70118
 C542 C 0.31234 0.04966 0.75896
 C543 C 0.27094 0.09070 0.86339
 C544 C 0.32797 0.12719 0.87291
 C545 C 0.37632 0.12705 0.82551
 C546 C 0.36790 0.09026 0.76854
 H547 H 0.23321 0.09678 0.89913
 H548 H 0.33408 0.15689 0.91662
 H549 H 0.41987 0.15688 0.83213
 H550 H 0.40475 0.09591 0.73192
 H551 H 0.15432 -0.05551 0.73317
 H552 H 0.23869 -0.05493 0.64937
 C553 C 0.23879 0.54512 0.18670
 C554 C 0.30102 0.51487 0.19934
 C555 C 0.31550 0.49588 0.26372
 C556 C 0.26848 0.49907 0.31295
 C557 C 0.20445 0.52057 0.30003
 C558 C 0.19083 0.54873 0.23772
 C559 C 0.22402 0.57592 0.12634
 C560 C 0.16424 0.60708 0.11541
 C561 C 0.11874 0.61152 0.16525
 C562 C 0.13234 0.58443 0.22610
 H563 H 0.25844 0.57988 0.08741
 H564 H 0.15425 0.63016 0.06870
 H565 H 0.07355 0.63784 0.15723
 H566 H 0.09797 0.59515 0.26432
 H567 H 0.36323 0.47573 0.27605
 H568 H 0.28182 0.48135 0.36109
 C569 C 0.74837 -0.05027 0.19212
 C570 C 0.80665 -0.01352 0.20313
 C571 C 0.81504 0.01891 0.26318
 C572 C 0.76561 0.01905 0.31021
 C573 C 0.70510 -0.01193 0.29863
 C574 C 0.69576 -0.04670 0.23808
 C575 C 0.74230 -0.09289 0.13741
 C576 C 0.68359 -0.12458 0.12322
 C577 C 0.63040 -0.11667 0.16456
 C578 C 0.63674 -0.08009 0.22213
 H579 H 0.78328 -0.10409 0.10617
 H580 H 0.67962 -0.15599 0.08039
 H581 H 0.58456 -0.14111 0.15323
 H582 H 0.59464 -0.08042 0.25325
 H583 H 0.85996 0.04544 0.27356
 H584 H 0.77425 0.04540 0.35563
 C585 C -0.22858 0.46282 0.81354
 C586 C -0.28927 0.49788 0.80466
 C587 C -0.30069 0.52903 0.74430
 C588 C -0.25419 0.52735 0.69420
 C589 C -0.19596 0.49115 0.70089
 C590 C -0.18513 0.45502 0.75926
 C591 C -0.20927 0.43405 0.87381
 C592 C -0.15261 0.39564 0.87886
 C593 C -0.11588 0.38125 0.82372
 C594 C -0.13242 0.40975 0.76428
 H595 H -0.23607 0.43953 0.91847
 H596 H -0.13872 0.37460 0.92551
 H597 H -0.07434 0.34804 0.82706
 H598 H -0.10431 0.39484 0.72213
 H599 H -0.34562 0.55653 0.73625
 H600 H -0.26380 0.55484 0.64982
   
