data_POSCAR
  _audit_creation_date              2014-09-24
  _audit_creation_method            'ToBaCCo'
  _symmetry_space_group_name_H-M    'P1'
  _symmetry_Int_Tables_number       1
  _symmetry_cell_setting            triclinic
  loop_
  _symmetry_equiv_pos_as_xyz
 x,y,z
_cell_length_a 40.0605
_cell_length_b 34.2712
_cell_length_c 34.2713
_cell_angle_alpha 89.904300
_cell_angle_beta 90.025400
_cell_angle_gamma 89.975000
loop_
  _atom_site_label
  _atom_site_type_symbol
  _atom_site_fract_x
  _atom_site_fract_y
  _atom_site_fract_z
C1 C 0.30074 0.30360 0.23592
 H2 H 0.30188 0.30394 0.26746
 C3 C 0.32287 0.32639 0.21418
 H4 H 0.34106 0.34449 0.22897
 C5 C 0.27609 0.27905 0.17800
 H6 H 0.25824 0.26008 0.16399
 C7 C 0.29777 0.30139 0.15516
 H8 H 0.29633 0.29983 0.12363
 N9 N 0.27775 0.28083 0.21764
 C10 C 0.19855 0.26352 0.30325
 H11 H 0.19732 0.23199 0.30367
 C12 C 0.17655 0.28535 0.32607
 H13 H 0.15836 0.27064 0.34427
 C14 C 0.22333 0.32134 0.27849
 H15 H 0.24118 0.33528 0.25944
 C16 C 0.20177 0.34427 0.30085
 H17 H 0.20332 0.37579 0.29923
 Zn18 Zn 0.24961 0.24983 0.24944
 N19 N 0.22156 0.28170 0.28037
 C20 C 0.27593 0.22075 0.32101
 N21 N 0.27763 0.21879 0.28138
 C22 C 0.30062 0.19586 0.26326
 C23 C 0.32270 0.17313 0.28516
 C24 C 0.29758 0.19848 0.34400
 C25 C 0.19860 0.23634 0.19547
 C26 C 0.17650 0.21459 0.17269
 C27 C 0.20154 0.15558 0.19801
 C28 C 0.22319 0.17842 0.22034
 N29 N 0.22154 0.21806 0.21841
 H30 H 0.25811 0.23984 0.33489
 H31 H 0.30179 0.19539 0.23173
 H32 H 0.34090 0.15493 0.27050
 H33 H 0.29612 0.20020 0.37552
 H34 H 0.19746 0.26788 0.19501
 H35 H 0.15835 0.22937 0.15447
 H36 H 0.20297 0.12405 0.19971
 H37 H 0.24099 0.16442 0.23943
 C38 C 0.17822 0.32608 0.32488
 C39 C 0.32133 0.32529 0.17344
 C40 C 0.17803 0.17385 0.17397
 C41 C 0.32114 0.17445 0.32589
 C42 C 0.80140 0.80504 0.23552
 H43 H 0.80259 0.80548 0.26706
 C44 C 0.82338 0.82790 0.21366
 H45 H 0.84150 0.84613 0.22843
 C46 C 0.77673 0.78016 0.17776
 H47 H 0.75893 0.76103 0.16386
 C48 C 0.79826 0.80254 0.15477
 H49 H 0.79668 0.80081 0.12324
 N50 N 0.77846 0.78207 0.21738
 C51 C 0.69942 0.76445 0.30315
 H52 H 0.69829 0.73291 0.30354
 C53 C 0.67736 0.78616 0.32600
 H54 H 0.65923 0.77135 0.34420
 C55 C 0.72400 0.82239 0.27843
 H56 H 0.74180 0.83643 0.25938
 C57 C 0.70238 0.84521 0.30082
 H58 H 0.70382 0.87674 0.29923
 Zn59 Zn 0.75049 0.75099 0.24931
 N60 N 0.72235 0.78275 0.28027
 C61 C 0.77687 0.72194 0.32087
 N62 N 0.77863 0.72009 0.28124
 C63 C 0.80166 0.69722 0.26312
 C64 C 0.82367 0.67438 0.28501
 C65 C 0.79844 0.69956 0.34386
 C66 C 0.69944 0.73710 0.19546
 C67 C 0.67742 0.71517 0.17276
 C68 C 0.70273 0.65636 0.19821
 C69 C 0.72430 0.67939 0.22044
 N70 N 0.72249 0.71902 0.21841
 H71 H 0.75901 0.74098 0.33477
 H72 H 0.80288 0.69681 0.23158
 H73 H 0.84186 0.65618 0.27035
 H74 H 0.79689 0.70116 0.37537
 H75 H 0.69818 0.76863 0.19492
 H76 H 0.65919 0.72979 0.15453
 H77 H 0.70430 0.62485 0.19998
 H78 H 0.74218 0.66553 0.23955
 C79 C 0.67890 0.82690 0.32485
 C80 C 0.82177 0.82667 0.17289
 C81 C 0.67912 0.67444 0.17414
 C82 C 0.82199 0.67553 0.32574
 C83 C 0.80191 0.30257 0.73721
 H84 H 0.80314 0.30296 0.76875
 C85 C 0.82390 0.32542 0.71535
 H86 H 0.84210 0.34360 0.73003
 C87 C 0.77711 0.27791 0.67943
 H88 H 0.75925 0.25888 0.66551
 C89 C 0.79866 0.30029 0.65647
 H90 H 0.79710 0.29872 0.62495
 N91 N 0.77889 0.27973 0.71906
 C92 C 0.69978 0.26260 0.80483
 H93 H 0.69855 0.23107 0.80535
 C94 C 0.67773 0.28450 0.82752
 H95 H 0.65952 0.26985 0.84573
 C96 C 0.72455 0.32035 0.77990
 H97 H 0.74240 0.33423 0.76081
 C98 C 0.70295 0.34334 0.80213
 H99 H 0.70447 0.37486 0.80038
 Zn100 Zn 0.75080 0.24878 0.75096
 N101 N 0.72279 0.28072 0.78191
 C102 C 0.77714 0.21956 0.82247
 N103 N 0.77883 0.21767 0.78285
 C104 C 0.80176 0.19473 0.76467
 C105 C 0.82381 0.17187 0.78648
 C106 C 0.79873 0.19718 0.84544
 C107 C 0.69968 0.23540 0.69713
 C108 C 0.67759 0.21372 0.67428
 C109 C 0.70266 0.15463 0.69938
 C110 C 0.72431 0.17741 0.72178
 N111 N 0.72265 0.21706 0.71997
 H112 H 0.75934 0.23866 0.83639
 H113 H 0.80291 0.19432 0.73313
 H114 H 0.84192 0.15369 0.77159
 H115 H 0.79715 0.19895 0.87697
 H116 H 0.69854 0.26694 0.69676
 H117 H 0.65943 0.22856 0.65611
 H118 H 0.70411 0.12310 0.70095
 H119 H 0.74214 0.16335 0.74080
 C120 C 0.67937 0.32523 0.82617
 C121 C 0.82221 0.32429 0.67462
 C122 C 0.67914 0.17298 0.67540
 C123 C 0.82228 0.17307 0.82728
 C124 C 0.30072 0.80421 0.73669
 H125 H 0.30189 0.80468 0.76823
 C126 C 0.32279 0.82694 0.71483
 H127 H 0.34098 0.84513 0.72951
 C128 C 0.27604 0.77937 0.67891
 H129 H 0.25821 0.76030 0.66501
 C130 C 0.29767 0.80164 0.65595
 H131 H 0.29620 0.79994 0.62443
 N132 N 0.27774 0.78131 0.71855
 C133 C 0.19870 0.76391 0.80438
 H134 H 0.19757 0.73237 0.80489
 C135 C 0.17660 0.78571 0.82710
 H136 H 0.15844 0.77097 0.84531
 C137 C 0.22328 0.82177 0.77945
 H138 H 0.24108 0.83573 0.76035
 C139 C 0.20162 0.84466 0.80170
 H140 H 0.20304 0.87619 0.79996
 Zn141 Zn 0.24972 0.75030 0.75047
 N142 N 0.22165 0.78213 0.78144
 C143 C 0.27619 0.72106 0.82195
 N144 N 0.27786 0.71931 0.78231
 C145 C 0.30086 0.69651 0.76405
 C146 C 0.32297 0.67368 0.78580
 C147 C 0.29786 0.69869 0.84480
 C148 C 0.19866 0.73659 0.69660
 C149 C 0.17665 0.71474 0.67381
 C150 C 0.20188 0.65584 0.69916
 C151 C 0.22344 0.67879 0.72149
 N152 N 0.22167 0.71843 0.71954
 H153 H 0.25833 0.74004 0.83594
 H154 H 0.30200 0.69619 0.73251
 H155 H 0.34116 0.65557 0.77103
 H156 H 0.29641 0.70023 0.87633
 H157 H 0.19743 0.76812 0.69612
 H158 H 0.15846 0.72943 0.65557
 H159 H 0.20342 0.62433 0.70085
 H160 H 0.24129 0.66487 0.74059
 C161 C 0.17811 0.82645 0.82575
 C162 C 0.32122 0.82565 0.67409
 C163 C 0.17832 0.67400 0.67509
 C164 C 0.32142 0.67477 0.82654
 C165 C -0.00111 0.00033 -0.00038
 C166 C 0.00004 0.49990 0.50019
 C167 C 0.50024 0.00008 0.50014
 C168 C 0.50066 0.49980 0.00002
 C169 C 0.06521 -0.07565 -0.02976
 C170 C 0.07020 -0.06746 -0.06927
 C171 C 0.05260 -0.03695 -0.08690
 C172 C 0.02959 -0.01516 -0.06537
 C173 C 0.15525 -0.15054 -0.15148
 C174 C 0.04225 -0.05393 -0.00815
 C175 C 0.09369 -0.09002 -0.09161
 C176 C 0.11323 -0.10902 -0.11040
 C177 C 0.13597 -0.13136 -0.13250
 C178 C 0.02291 -0.02424 -0.02584
 H179 H 0.07919 -0.09873 -0.01557
 H180 H 0.05691 -0.02970 -0.11727
 H181 H 0.01772 0.00923 -0.07979
 H182 H 0.03932 -0.06047 0.02258
 C183 C 0.06630 0.42403 0.47035
 C184 C 0.07113 0.43230 0.43083
 C185 C 0.05350 0.46287 0.41336
 C186 C 0.03059 0.48463 0.43506
 C187 C 0.15554 0.34912 0.34785
 C188 C 0.04343 0.44573 0.49212
 C189 C 0.09446 0.40972 0.40830
 C190 C 0.11386 0.39070 0.38932
 C191 C 0.13641 0.36833 0.36700
 C192 C 0.02403 0.47545 0.47459
 H193 H 0.08031 0.40090 0.48442
 H194 H 0.05771 0.47018 0.38299
 H195 H 0.01869 0.50907 0.42075
 H196 H 0.04060 0.43911 0.52285
 C197 C 0.56649 -0.07583 0.47036
 C198 C 0.57145 -0.06745 0.43088
 C199 C 0.55387 -0.03683 0.41343
 C200 C 0.53091 -0.01512 0.43509
 C201 C 0.65615 -0.15019 0.34786
 C202 C 0.54356 -0.05418 0.49210
 C203 C 0.59486 -0.08995 0.40837
 C204 C 0.61433 -0.10886 0.38939
 C205 C 0.63696 -0.13110 0.36704
 C206 C 0.52423 -0.02439 0.47457
 H207 H 0.58046 -0.09900 0.48442
 H208 H 0.55816 -0.02943 0.38309
 H209 H 0.51906 0.00937 0.42080
 H210 H 0.54065 -0.06087 0.52280
 C211 C 0.56687 0.42372 -0.02937
 C212 C 0.57183 0.43186 -0.06889
 C213 C 0.55427 0.46240 -0.08652
 C214 C 0.53132 0.48426 -0.06498
 C215 C 0.65659 0.34835 -0.15108
 C216 C 0.54396 0.44551 -0.00775
 C217 C 0.59524 0.40920 -0.09124
 C218 C 0.61471 0.39011 -0.11003
 C219 C 0.63737 0.36764 -0.13212
 C220 C 0.52465 0.47522 -0.02544
 H221 H 0.58083 0.40062 -0.01517
 H222 H 0.55856 0.46961 -0.11690
 H223 H 0.51946 0.50866 -0.07940
 H224 H 0.54105 0.43899 0.02298
 C225 C -0.05473 0.08701 -0.03785
 C226 C -0.07230 0.06948 -0.06837
 C227 C -0.06734 0.02997 -0.07649
 C228 C -0.04442 0.00827 -0.05469
 C229 C -0.15703 0.15223 -0.15177
 C230 C -0.03177 0.06539 -0.01599
 C231 C -0.09571 0.09193 -0.09103
 C232 C -0.11518 0.11084 -0.11010
 C233 C -0.13782 0.13310 -0.13252
 C234 C -0.02510 0.02587 -0.02500
 H235 H -0.05902 0.11737 -0.03066
 H236 H -0.08130 0.01585 -0.09958
 H237 H -0.04150 -0.02245 -0.06119
 H238 H -0.01992 0.07973 0.00840
 C239 C -0.05350 0.58676 0.46296
 C240 C -0.07108 0.56933 0.43240
 C241 C -0.06623 0.52982 0.42423
 C242 C -0.04336 0.50802 0.44601
 C243 C -0.15534 0.65251 0.34885
 C244 C -0.03059 0.56504 0.48480
 C245 C -0.09438 0.59191 0.40971
 C246 C -0.11374 0.61093 0.39060
 C247 C -0.13624 0.63331 0.36813
 C248 C -0.02399 0.52552 0.47570
 H249 H -0.05772 0.61713 0.47020
 H250 H -0.08020 0.51578 0.40112
 H251 H -0.04050 0.47730 0.43946
 H252 H -0.01871 0.57932 0.50921
 C253 C 0.44654 0.08679 0.46289
 C254 C 0.42896 0.06929 0.43236
 C255 C 0.43394 0.02980 0.42417
 C256 C 0.45689 0.00810 0.44590
 C257 C 0.34398 0.15167 0.34901
 C258 C 0.46954 0.06516 0.48469
 C259 C 0.40550 0.09172 0.40976
 C260 C 0.38597 0.11056 0.39071
 C261 C 0.36325 0.13269 0.36827
 C262 C 0.47622 0.02566 0.47560
 H263 H 0.44223 0.11714 0.47013
 H264 H 0.41998 0.01571 0.40108
 H265 H 0.45983 -0.02261 0.43935
 H266 H 0.48141 0.07948 0.50909
 C267 C 0.44695 0.58650 -0.03722
 C268 C 0.42935 0.56901 -0.06773
 C269 C 0.43435 0.52953 -0.07597
 C270 C 0.45733 0.50782 -0.05428
 C271 C 0.34426 0.65182 -0.15051
 C272 C 0.46997 0.56486 -0.01546
 C273 C 0.40584 0.59147 -0.09023
 C274 C 0.38628 0.61040 -0.10915
 C275 C 0.36354 0.63269 -0.13140
 C276 C 0.47667 0.52537 -0.02457
 H277 H 0.44263 0.61684 -0.02993
 H278 H 0.42037 0.51545 -0.09906
 H279 H 0.46026 0.47711 -0.06084
 H280 H 0.48183 0.57917 0.00895
 C281 C -0.05468 -0.08634 0.03704
 C282 C -0.07225 -0.06881 0.06754
 C283 C -0.06733 -0.02930 0.07565
 C284 C -0.04444 -0.00760 0.05386
 C285 C -0.15674 -0.15161 0.15103
 C286 C -0.03175 -0.06472 0.01518
 C287 C -0.09561 -0.09127 0.09022
 C288 C -0.11502 -0.11020 0.10931
 C289 C -0.13760 -0.13247 0.13176
 C290 C -0.02510 -0.02520 0.02420
 H291 H -0.05894 -0.11671 0.02985
 H292 H -0.08129 -0.01518 0.09873
 H293 H -0.04155 0.02313 0.06036
 H294 H -0.01989 -0.07907 -0.00920
 C295 C -0.05335 0.41303 0.53747
 C296 C -0.07091 0.43045 0.56805
 C297 C -0.06607 0.46996 0.57623
 C298 C -0.04324 0.49177 0.55444
 C299 C -0.15513 0.34731 0.65153
 C300 C -0.03049 0.43476 0.51563
 C301 C -0.09419 0.40788 0.59073
 C302 C -0.11354 0.38887 0.60982
 C303 C -0.13604 0.36650 0.63227
 C304 C -0.02391 0.47427 0.52472
 H305 H -0.05757 0.38266 0.53023
 H306 H -0.08003 0.48400 0.59936
 H307 H -0.04040 0.52248 0.56100
 H308 H -0.01864 0.42048 0.49120
 C309 C 0.44659 -0.08663 0.53732
 C310 C 0.42900 -0.06913 0.56784
 C311 C 0.43397 -0.02966 0.57606
 C312 C 0.45692 -0.00795 0.55436
 C313 C 0.34405 -0.15156 0.65101
 C314 C 0.46958 -0.06500 0.51556
 C315 C 0.40554 -0.09157 0.59040
 C316 C 0.38602 -0.11042 0.60940
 C317 C 0.36331 -0.13257 0.63179
 C318 C 0.47625 -0.02551 0.52467
 H319 H 0.44229 -0.11698 0.53005
 H320 H 0.42000 -0.01557 0.59915
 H321 H 0.45984 0.02275 0.56093
 H322 H 0.48144 -0.07931 0.49115
 C323 C 0.44691 0.41321 0.03724
 C324 C 0.42932 0.43075 0.06773
 C325 C 0.43434 0.47022 0.07595
 C326 C 0.45733 0.49189 0.05426
 C327 C 0.34419 0.34817 0.15050
 C328 C 0.46994 0.43480 0.01549
 C329 C 0.40580 0.40834 0.09023
 C330 C 0.38624 0.38946 0.10915
 C331 C 0.36348 0.36725 0.13140
 C332 C 0.47665 0.47429 0.02459
 H333 H 0.44257 0.38288 0.02996
 H334 H 0.42036 0.48434 0.09902
 H335 H 0.46027 0.52259 0.06082
 H336 H 0.48179 0.42046 -0.00890
 C337 C 0.06518 0.07625 0.02914
 C338 C 0.07016 0.06802 0.06865
 C339 C 0.05256 0.03752 0.08624
 C340 C 0.02956 0.01577 0.06466
 C341 C 0.15519 0.15090 0.15111
 C342 C 0.04222 0.05456 0.00749
 C343 C 0.09364 0.09054 0.09105
 C344 C 0.11318 0.10949 0.10989
 C345 C 0.13591 0.13177 0.13207
 C346 C 0.02288 0.02487 0.02513
 H347 H 0.07916 0.09932 0.01498
 H348 H 0.05686 0.03025 0.11661
 H349 H 0.01769 -0.00863 0.07905
 H350 H 0.03931 0.06112 -0.02324
 C351 C 0.06626 0.57584 0.52988
 C352 C 0.07118 0.56759 0.56940
 C353 C 0.05363 0.53702 0.58691
 C354 C 0.03070 0.51522 0.56527
 C355 C 0.15562 0.65093 0.65217
 C356 C 0.04338 0.55411 0.50816
 C357 C 0.09452 0.59022 0.59188
 C358 C 0.11392 0.60927 0.61081
 C359 C 0.13648 0.63170 0.63307
 C360 C 0.02405 0.52438 0.52574
 H361 H 0.08021 0.59897 0.51578
 H362 H 0.05789 0.52973 0.61729
 H363 H 0.01886 0.49079 0.57961
 H364 H 0.04048 0.56071 0.47744
 C365 C 0.55391 0.03694 0.58688
 C366 C 0.57148 0.06754 0.56943
 C367 C 0.56649 0.07594 0.52995
 C368 C 0.54354 0.05432 0.50821
 C369 C 0.65635 0.15010 0.65241
 C370 C 0.53093 0.01526 0.56521
 C371 C 0.59493 0.08999 0.59193
 C372 C 0.61444 0.10886 0.61090
 C373 C 0.63712 0.13105 0.63324
 C374 C 0.52423 0.02454 0.52573
 H375 H 0.55823 0.02953 0.61721
 H376 H 0.58045 0.09910 0.51590
 H377 H 0.54061 0.06102 0.47751
 H378 H 0.51909 -0.00922 0.57950
 C379 C 0.56688 0.57581 0.02948
 C380 C 0.57181 0.56768 0.06902
 C381 C 0.55425 0.53716 0.08663
 C382 C 0.53131 0.51531 0.06506
 C383 C 0.65639 0.65128 0.15136
 C384 C 0.54399 0.55403 0.00783
 C385 C 0.59518 0.59036 0.09142
 C386 C 0.61461 0.60947 0.11024
 C387 C 0.63721 0.63197 0.13237
 C388 C 0.52466 0.52435 0.02550
 H389 H 0.58083 0.59890 0.01531
 H390 H 0.55852 0.52996 0.11702
 H391 H 0.51946 0.49092 0.07946
 H392 H 0.54108 0.56054 -0.02291
   
