data_POSCAR
  _audit_creation_date              2014-09-24
  _audit_creation_method            'ToBaCCo'
  _symmetry_space_group_name_H-M    'P1'
  _symmetry_Int_Tables_number       1
  _symmetry_cell_setting            triclinic
  loop_
  _symmetry_equiv_pos_as_xyz
 x,y,z
_cell_length_a 38.0886
_cell_length_b 37.5845
_cell_length_c 39.1718
_cell_angle_alpha 90.433300
_cell_angle_beta 90.074700
_cell_angle_gamma 89.957900
loop_
  _atom_site_label
  _atom_site_type_symbol
  _atom_site_fract_x
  _atom_site_fract_y
  _atom_site_fract_z
O1 O 0.32090 0.37222 0.04212
 O2 O 0.36903 0.33715 -0.03218
 O3 O 0.31888 0.38473 -0.02213
 O4 O 0.37410 0.33077 0.03332
 O5 O 0.33433 0.28822 0.03290
 O6 O 0.28395 0.33894 -0.03212
 O7 O 0.33352 0.29081 -0.03386
 O8 O 0.27990 0.33143 0.03421
 Cu9 Cu 0.34958 0.36057 0.00541
 Cu10 Cu 0.30415 0.30782 -0.00017
 C11 C 0.29156 0.35851 0.05007
 C12 C 0.36004 0.30736 -0.04509
 C13 C 0.29211 0.37144 -0.03658
 C14 C 0.36314 0.30113 0.04406
 O15 O 0.67366 0.62597 0.02909
 O16 O 0.62543 0.68143 -0.03200
 O17 O 0.66902 0.62920 -0.03646
 O18 O 0.62559 0.67565 0.03399
 O19 O 0.66806 0.71549 0.03605
 O20 O 0.71242 0.66777 -0.03510
 O21 O 0.66778 0.72157 -0.03020
 O22 O 0.71634 0.66572 0.03072
 Cu23 Cu 0.64411 0.64924 -0.00127
 Cu24 Cu 0.69539 0.69670 0.00053
 C25 C 0.70379 0.63587 0.03937
 C26 C 0.63832 0.71092 -0.04143
 C27 C 0.69817 0.64000 -0.04792
 C28 C 0.63865 0.70387 0.04654
 O29 O 0.67882 0.37302 0.97599
 O30 O 0.62721 0.31805 1.03458
 O31 O 0.67574 0.36627 1.04162
 O32 O 0.62654 0.32929 0.96975
 O33 O 0.66476 0.28541 0.96475
 O34 O 0.71701 0.32615 1.03460
 O35 O 0.66744 0.27590 1.03099
 O36 O 0.71740 0.32947 0.96941
 Cu37 Cu 0.64821 0.35085 1.00614
 Cu38 Cu 0.69539 0.29959 0.99981
 C39 C 0.70686 0.36068 0.96288
 C40 C 0.63822 0.28722 1.04221
 C41 C 0.70581 0.35416 1.04934
 C42 C 0.63691 0.30112 0.95497
 O43 O 0.37337 0.67345 1.03585
 O44 O 0.32490 0.62894 0.96671
 O45 O 0.37569 0.67432 0.97034
 O46 O 0.32417 0.62504 1.03312
 O47 O 0.28341 0.66648 1.03262
 O48 O 0.33604 0.71708 0.97007
 O49 O 0.28473 0.67148 0.96726
 O50 O 0.33348 0.71606 1.03693
 Cu51 Cu 0.35336 0.64611 1.00167
 Cu52 Cu 0.30557 0.69729 1.00222
 C53 C 0.36233 0.70305 1.04733
 C54 C 0.29668 0.64247 0.95530
 C55 C 0.36471 0.70385 0.95913
 C56 C 0.29423 0.63627 1.04257
 O57 O -0.03728 0.38451 0.33219
 O58 O 0.03187 0.33859 0.38013
 O59 O 0.03035 0.38424 0.32995
 O60 O -0.03621 0.34135 0.38286
 O61 O -0.03902 0.29654 0.34661
 O62 O 0.02907 0.33912 0.29362
 O63 O 0.02925 0.29320 0.34414
 O64 O -0.03895 0.34029 0.29472
 Cu65 Cu -0.00233 0.36655 0.36001
 Cu66 Cu -0.00501 0.31265 0.31619
 C67 C -0.04971 0.37046 0.30519
 C68 C 0.04210 0.30792 0.37063
 C69 C 0.04020 0.36978 0.30221
 C70 C -0.04972 0.31199 0.37373
 O71 O -0.03649 0.62104 0.67572
 O72 O 0.02792 0.67142 0.62554
 O73 O 0.03143 0.62462 0.67530
 O74 O -0.03940 0.66376 0.62482
 O75 O -0.04333 0.70836 0.66125
 O76 O 0.02872 0.66911 0.71221
 O77 O 0.02429 0.71601 0.66240
 O78 O -0.03933 0.66496 0.71344
 Cu79 Cu -0.00341 0.64077 0.64674
 Cu80 Cu -0.00758 0.69411 0.69102
 C81 C -0.04884 0.63436 0.70310
 C82 C 0.03591 0.70291 0.63468
 C83 C 0.04131 0.63923 0.70297
 C84 C -0.05390 0.69253 0.63423
 O85 O 1.02795 0.62997 0.31976
 O86 O 0.96430 0.67731 0.37374
 O87 O 0.95981 0.63149 0.32369
 O88 O 1.03176 0.67155 0.37193
 O89 O 1.03174 0.71779 0.33779
 O90 O 0.96101 0.67534 0.28648
 O91 O 0.96377 0.72188 0.33730
 O92 O 1.02929 0.67528 0.28410
 Cu93 Cu 0.99567 0.64802 0.35071
 Cu94 Cu 0.99642 0.70213 0.30777
 C95 C 1.03961 0.64462 0.29297
 C96 C 0.95388 0.70808 0.36514
 C97 C 0.94844 0.64595 0.29673
 C98 C 1.04416 0.70150 0.36359
 O99 O 1.02920 0.37501 0.68270
 O100 O 0.96750 0.32345 0.63033
 O101 O 0.96179 0.36991 0.67962
 O102 O 1.03528 0.33048 0.63286
 O103 O 1.03555 0.28458 0.66749
 O104 O 0.96510 0.32772 0.71842
 O105 O 0.96769 0.28044 0.66845
 O106 O 1.03339 0.33041 0.71889
 Cu107 Cu 0.99809 0.35401 0.65263
 Cu108 Cu 1.00065 0.30135 0.69711
 C109 C 1.04168 0.36167 0.70979
 C110 C 0.95740 0.29302 0.64016
 C111 C 0.95142 0.35630 0.70736
 C112 C 1.04787 0.30065 0.64163
 O113 O 0.36685 0.03492 0.32405
 O114 O 0.32566 -0.03457 0.37562
 O115 O 0.37200 -0.03348 0.32719
 O116 O 0.31997 0.03374 0.37300
 O117 O 0.27787 0.02910 0.33450
 O118 O 0.32989 -0.03942 0.28882
 O119 O 0.28292 -0.03973 0.33779
 O120 O 0.32523 0.02968 0.28549
 Cu121 Cu 0.35030 0.00087 0.35375
 Cu122 Cu 0.29975 -0.00550 0.30775
 C123 C 0.35384 0.04361 0.29541
 C124 C 0.29723 -0.04892 0.36571
 C125 C 0.36016 -0.04761 0.29999
 C126 C 0.28961 0.04207 0.36229
 O127 O 0.62221 0.04070 0.67384
 O128 O 0.66889 -0.03237 0.63055
 O129 O 0.62202 -0.02785 0.67948
 O130 O 0.66637 0.03514 0.62344
 O131 O 0.70903 0.04127 0.66113
 O132 O 0.66541 -0.02456 0.71670
 O133 O 0.71227 -0.02746 0.66764
 O134 O 0.66427 0.04413 0.71262
 Cu135 Cu 0.64050 0.00328 0.64823
 Cu136 Cu 0.69214 0.00880 0.69326
 C137 C 0.63486 0.05433 0.70097
 C138 C 0.69930 -0.04123 0.64078
 C139 C 0.63545 -0.03635 0.70793
 C140 C 0.69523 0.04906 0.63250
 O141 O 0.32424 1.03422 0.62560
 O142 O 0.37141 0.96859 0.67785
 O143 O 0.32747 0.96556 0.62677
 O144 O 0.37350 1.03707 0.67163
 O145 O 0.33099 1.04085 0.70972
 O146 O 0.28518 0.96648 0.66522
 O147 O 0.32982 0.97210 0.71704
 O148 O 0.28110 1.03530 0.66332
 Cu149 Cu 0.35332 1.00109 0.64673
 Cu150 Cu 0.30256 1.00381 0.69272
 C151 C 0.29431 1.04531 0.63531
 C152 C 0.35900 0.95990 0.70672
 C153 C 0.29855 0.95381 0.63790
 C154 C 0.36036 1.05144 0.69802
 O155 O 0.66979 1.04126 0.37030
 O156 O 0.62408 0.96421 0.33341
 O157 O 0.67160 0.97299 0.37999
 O158 O 0.62163 1.03195 0.32378
 O159 O 0.66368 1.02866 0.28518
 O160 O 0.71231 0.96614 0.34033
 O161 O 0.66431 0.95986 0.29307
 O162 O 0.71267 1.03412 0.33368
 Cu163 Cu 0.64270 1.00328 0.35575
 Cu164 Cu 0.69235 0.99701 0.30894
 C165 C 0.70001 1.05010 0.35951
 C166 C 0.63611 0.94906 0.30684
 C167 C 0.70042 0.95960 0.36991
 C168 C 0.63364 1.03972 0.29460
 C169 C 0.87100 0.77092 0.47197
 C170 C 0.88214 0.75561 0.50241
 C171 C 0.86650 0.76420 0.53368
 C172 C 0.83979 0.79038 0.53486
 C173 C 0.82850 0.80654 0.50403
 C174 C 0.84380 0.79639 0.47240
 C175 C 0.83169 0.81208 0.44214
 C176 C 0.80530 0.83773 0.44291
 C177 C 0.79042 0.84886 0.47402
 C178 C 0.80195 0.83299 0.50484
 C179 C 0.82385 0.80062 0.56577
 C180 C 0.79862 0.82747 0.56667
 C181 C 0.78756 0.84413 0.53654
 C182 C 0.76273 0.87202 0.53724
 C183 C 0.75117 0.88696 0.50671
 C184 C 0.76455 0.87581 0.47525
 H185 H 0.84264 0.80468 0.41759
 H186 H 0.79691 0.84909 0.41893
 H187 H 0.83092 0.78824 0.58964
 H188 H 0.78761 0.83494 0.59116
 H189 H 0.90323 0.73618 0.50169
 H190 H 0.73235 0.90866 0.50753
 C191 C 0.12146 0.23471 0.47300
 C192 C 0.11021 0.24732 0.50477
 C193 C 0.12414 0.23424 0.53527
 C194 C 0.14946 0.20668 0.53409
 C195 C 0.16068 0.19311 0.50194
 C196 C 0.14670 0.20721 0.47126
 C197 C 0.15860 0.19377 0.43974
 C198 C 0.18356 0.16667 0.43831
 C199 C 0.19765 0.15224 0.46833
 C200 C 0.18631 0.16569 0.50045
 C201 C 0.16424 0.19274 0.56405
 C202 C 0.18889 0.16542 0.56259
 C203 C 0.20044 0.15166 0.53109
 C204 C 0.22576 0.12418 0.52934
 C205 C 0.23644 0.11109 0.49755
 C206 C 0.22278 0.12458 0.46719
 H207 H 0.14868 0.20411 0.41589
 H208 H 0.19180 0.15713 0.41343
 H209 H 0.15690 0.20281 0.58898
 H210 H 0.19904 0.15532 0.58645
 H211 H 0.09073 0.26840 0.50577
 H212 H 0.25557 0.08969 0.49642
 C213 C 0.12032 0.77040 0.46887
 C214 C 0.10471 0.76007 0.49951
 C215 C 0.11606 0.77351 0.53094
 C216 C 0.14349 0.79877 0.53211
 C217 C 0.15893 0.81041 0.50117
 C218 C 0.14743 0.79608 0.46940
 C219 C 0.16386 0.80717 0.43921
 C220 C 0.19039 0.83260 0.44001
 C221 C 0.20181 0.84755 0.47107
 C222 C 0.18633 0.83599 0.50203
 C223 C 0.15599 0.81247 0.56330
 C224 C 0.18329 0.83715 0.56418
 C225 C 0.19864 0.84943 0.53386
 C226 C 0.22648 0.87430 0.53438
 C227 C 0.24058 0.88630 0.50359
 C228 C 0.22891 0.87317 0.47211
 H229 H 0.15644 0.79623 0.41462
 H230 H 0.20217 0.84016 0.41600
 H231 H 0.14488 0.80399 0.58733
 H232 H 0.19223 0.84656 0.58887
 H233 H 0.08366 0.74062 0.49893
 H234 H 0.26164 0.90573 0.50417
 C235 C 0.77167 0.12524 0.46438
 C236 C 0.76046 0.10926 0.49461
 C237 C 0.77127 0.12173 0.52664
 C238 C 0.79706 0.14860 0.52880
 C239 C 0.80923 0.16480 0.49841
 C240 C 0.79528 0.15429 0.46623
 C241 C 0.80485 0.17347 0.43701
 C242 C 0.82946 0.20081 0.43894
 C243 C 0.84553 0.20986 0.47013
 C244 C 0.83472 0.19225 0.50029
 C245 C 0.81040 0.16025 0.56044
 C246 C 0.83639 0.18622 0.56217
 C247 C 0.84906 0.20229 0.53241
 C248 C 0.87560 0.22840 0.53386
 C249 C 0.88678 0.24465 0.50394
 C250 C 0.87156 0.23663 0.47231
 H251 H 0.79342 0.16743 0.41234
 H252 H 0.83583 0.21469 0.41567
 H253 H 0.80127 0.14908 0.58418
 H254 H 0.84635 0.19379 0.58709
 H255 H 0.74137 0.08787 0.49333
 H256 H 0.90742 0.26451 0.50538
 C257 C 0.46558 0.88624 0.78080
 C258 C 0.49733 0.89940 0.76837
 C259 C 0.52955 0.88780 0.78121
 C260 C 0.53035 0.86218 0.80737
 C261 C 0.49831 0.84872 0.82046
 C262 C 0.46575 0.86059 0.80702
 C263 C 0.43438 0.84645 0.82001
 C264 C 0.43495 0.82085 0.84559
 C265 C 0.46688 0.80903 0.85952
 C266 C 0.49887 0.82319 0.84692
 C267 C 0.56231 0.84971 0.82069
 C268 C 0.56286 0.82479 0.84676
 C269 C 0.53147 0.81127 0.86022
 C270 C 0.53179 0.78567 0.88633
 C271 C 0.50023 0.77222 0.89870
 C272 C 0.46793 0.78289 0.88526
 H273 H 0.40912 0.85489 0.81028
 H274 H 0.41011 0.81046 0.85445
 H275 H 0.58721 0.85920 0.81108
 H276 H 0.58814 0.81611 0.85626
 H277 H 0.49696 0.91920 0.74834
 H278 H 0.50086 0.75192 0.91826
 C279 C 0.52974 0.21655 0.11662
 C280 C 0.49841 0.23135 0.10491
 C281 C 0.46607 0.22213 0.11907
 C282 C 0.46469 0.19673 0.14544
 C283 C 0.49631 0.18089 0.15714
 C284 C 0.52902 0.19104 0.14286
 C285 C 0.56007 0.17563 0.15526
 C286 C 0.55907 0.15046 0.18112
 C287 C 0.52695 0.13970 0.19535
 C288 C 0.49527 0.15515 0.18341
 C289 C 0.43278 0.18736 0.16089
 C290 C 0.43177 0.16211 0.18674
 C291 C 0.46258 0.14504 0.19779
 C292 C 0.46170 0.11812 0.22289
 C293 C 0.49325 0.10330 0.23441
 C294 C 0.52567 0.11393 0.22135
 H295 H 0.58543 0.18292 0.14501
 H296 H 0.58372 0.13935 0.18979
 H297 H 0.40829 0.19948 0.15308
 H298 H 0.40654 0.15590 0.19787
 H299 H 0.49928 0.25106 0.08482
 H300 H 0.49259 0.08294 0.25389
 C301 C 0.52906 0.23974 0.87176
 C302 C 0.49730 0.25318 0.88410
 C303 C 0.46508 0.24116 0.87153
 C304 C 0.46422 0.21418 0.84622
 C305 C 0.49628 0.19982 0.83380
 C306 C 0.52886 0.21277 0.84649
 C307 C 0.56028 0.19894 0.83312
 C308 C 0.55982 0.17246 0.80814
 C309 C 0.52791 0.15899 0.79551
 C310 C 0.49580 0.17285 0.80828
 C311 C 0.43234 0.20165 0.83259
 C312 C 0.43188 0.17527 0.80738
 C313 C 0.46328 0.16038 0.79502
 C314 C 0.46327 0.13393 0.76914
 C315 C 0.49517 0.12007 0.75742
 C316 C 0.52725 0.13249 0.76986
 H317 H 0.58556 0.20863 0.84171
 H318 H 0.58476 0.16276 0.79865
 H319 H 0.40745 0.21238 0.84115
 H320 H 0.40667 0.16674 0.79752
 H321 H 0.49767 0.27362 0.90382
 H322 H 0.49504 0.09988 0.73746
 C323 C 0.53182 0.86114 0.24446
 C324 C 0.49970 0.87477 0.25577
 C325 C 0.46787 0.86354 0.24161
 C326 C 0.46788 0.83695 0.21587
 C327 C 0.50033 0.82350 0.20348
 C328 C 0.53246 0.83560 0.21782
 C329 C 0.56427 0.82192 0.20513
 C330 C 0.56463 0.79788 0.17790
 C331 C 0.53317 0.78630 0.16274
 C332 C 0.50069 0.79862 0.17608
 C333 C 0.43638 0.82411 0.20170
 C334 C 0.43673 0.79957 0.17488
 C335 C 0.46859 0.78694 0.16140
 C336 C 0.46928 0.76331 0.13320
 C337 C 0.50144 0.75168 0.12013
 C338 C 0.53327 0.76311 0.13419
 H339 H 0.58922 0.82997 0.21593
 H340 H 0.58981 0.78852 0.16870
 H341 H 0.41118 0.83329 0.21102
 H342 H 0.41178 0.79085 0.16453
 H343 H 0.49955 0.89542 0.27530
 H344 H 0.50171 0.73435 0.09785
 C345 C 0.77761 0.46930 0.88753
 C346 C 0.76433 0.50222 0.89791
 C347 C 0.77440 0.53381 0.88204
 C348 C 0.80028 0.53282 0.85620
 C349 C 0.81455 0.49950 0.84580
 C350 C 0.80298 0.46760 0.86131
 C351 C 0.81662 0.43485 0.84989
 C352 C 0.84054 0.43331 0.82308
 C353 C 0.85244 0.46454 0.80739
 C354 C 0.83966 0.49798 0.81911
 C355 C 0.81159 0.56394 0.83989
 C356 C 0.83698 0.56253 0.81436
 C357 C 0.85128 0.52986 0.80360
 C358 C 0.87632 0.52807 0.77711
 C359 C 0.88832 0.49501 0.76557
 C360 C 0.87625 0.46331 0.77978
 H361 H 0.80851 0.41005 0.86132
 H362 H 0.84967 0.40738 0.81479
 H363 H 0.80092 0.58971 0.84668
 H364 H 0.84491 0.58728 0.80270
 H365 H 0.74442 0.50314 0.91770
 H366 H 0.90691 0.49391 0.74461
 C367 C 0.11964 0.47369 0.22883
 C368 C 0.10766 0.50691 0.23989
 C369 C 0.12063 0.53840 0.22603
 C370 C 0.14663 0.53700 0.20039
 C371 C 0.15893 0.50343 0.18875
 C372 C 0.14563 0.47164 0.20322
 C373 C 0.15838 0.43866 0.19159
 C374 C 0.18324 0.43684 0.16568
 C375 C 0.19628 0.46794 0.15060
 C376 C 0.18428 0.50159 0.16233
 C377 C 0.16059 0.56814 0.18614
 C378 C 0.18590 0.56635 0.16049
 C379 C 0.19760 0.53335 0.14772
 C380 C 0.22229 0.53107 0.12074
 C381 C 0.23377 0.49757 0.10961
 C382 C 0.22128 0.46627 0.12420
 H383 H 0.14909 0.41395 0.20234
 H384 H 0.19209 0.41077 0.15749
 H385 H 0.15205 0.59417 0.19477
 H386 H 0.19600 0.59107 0.15050
 H387 H 0.08740 0.50829 0.25933
 H388 H 0.25306 0.49581 0.08932
 C389 C 0.77474 0.46381 0.12263
 C390 C 0.76266 0.49493 0.10721
 C391 C 0.77362 0.52847 0.11837
 C392 C 0.79779 0.53145 0.14559
 C393 C 0.81043 0.50015 0.16146
 C394 C 0.79850 0.46619 0.15029
 C395 C 0.81050 0.43562 0.16711
 C396 C 0.83466 0.43820 0.19368
 C397 C 0.84739 0.47147 0.20461
 C398 C 0.83488 0.50280 0.18868
 C399 C 0.80956 0.56481 0.15734
 C400 C 0.83345 0.56743 0.18422
 C401 C 0.84654 0.53676 0.20011
 C402 C 0.87062 0.53901 0.22750
 C403 C 0.88315 0.50786 0.24251
 C404 C 0.87189 0.47434 0.23152
 H405 H 0.80142 0.40938 0.15974
 H406 H 0.84318 0.41382 0.20570
 H407 H 0.80031 0.58920 0.14585
 H408 H 0.84160 0.59371 0.19245
 H409 H 0.74435 0.49301 0.08602
 H410 H 0.90180 0.50976 0.26342
 C411 C 0.12204 0.47094 0.77559
 C412 C 0.11046 0.50304 0.76177
 C413 C 0.12465 0.53559 0.77222
 C414 C 0.15225 0.53622 0.79631
 C415 C 0.16426 0.50380 0.81065
 C416 C 0.14868 0.47107 0.80072
 C417 C 0.15960 0.43952 0.81659
 C418 C 0.18513 0.44010 0.84209
 C419 C 0.20200 0.47197 0.85140
 C420 C 0.19140 0.50419 0.83547
 C421 C 0.16768 0.56842 0.80682
 C422 C 0.19440 0.56884 0.83107
 C423 C 0.20666 0.53707 0.84554
 C424 C 0.23352 0.53731 0.87025
 C425 C 0.24545 0.50535 0.88379
 C426 C 0.22859 0.47301 0.87674
 H427 H 0.14796 0.41415 0.80988
 H428 H 0.19156 0.41520 0.85419
 H429 H 0.15916 0.59357 0.79634
 H430 H 0.20552 0.59430 0.83831
 H431 H 0.08934 0.50274 0.74315
 H432 H 0.26599 0.50619 0.90302
 C433 C 0.28472 0.39017 0.10660
 C434 C 0.26986 0.37676 0.07601
 C435 C 0.23616 0.38778 0.06636
 C436 C 0.21948 0.41545 0.08380
 C437 C 0.23601 0.43230 0.11144
 C438 C 0.26800 0.41867 0.12418
 C439 C 0.31593 0.37581 0.11996
 C440 C 0.33111 0.39014 0.14943
 C441 C 0.31539 0.41892 0.16604
 C442 C 0.28404 0.43313 0.15366
 H443 H 0.32797 0.35277 0.10820
 H444 H 0.35504 0.37876 0.15953
 H445 H 0.32731 0.43000 0.18885
 H446 H 0.27228 0.45511 0.16754
 H447 H 0.22422 0.37750 0.04318
 H448 H 0.19473 0.42549 0.07418
 C449 C 0.75896 0.60011 0.05126
 C450 C 0.72473 0.61160 0.06074
 C451 C 0.70881 0.59736 0.08979
 C452 C 0.72590 0.57180 0.10925
 C453 C 0.75933 0.55963 0.10012
 C454 C 0.77641 0.57400 0.07130
 C455 C 0.77562 0.61256 0.02143
 C456 C 0.80881 0.60021 0.01209
 C457 C 0.82602 0.57517 0.03205
 C458 C 0.81003 0.56201 0.06134
 H459 H 0.76323 0.63153 0.00479
 H460 H 0.82116 0.61002 -0.01086
 H461 H 0.85176 0.56568 0.02465
 H462 H 0.82414 0.54231 0.07599
 H463 H 0.68258 0.60560 0.09708
 H464 H 0.71247 0.56050 0.13099
 C465 C 0.72037 0.38800 0.90579
 C466 C 0.72794 0.38374 0.94086
 C467 C 0.75367 0.40484 0.95646
 C468 C 0.77087 0.43117 0.93815
 C469 C 0.76250 0.43734 0.90387
 C470 C 0.73718 0.41560 0.88725
 C471 C 0.69600 0.36579 0.88893
 C472 C 0.68731 0.37150 0.85481
 C473 C 0.70278 0.39930 0.83696
 C474 C 0.72749 0.42122 0.85291
 H475 H 0.68384 0.34371 0.90192
 H476 H 0.66841 0.35437 0.84221
 H477 H 0.69572 0.40378 0.81057
 H478 H 0.73886 0.44248 0.83812
 H479 H 0.75955 0.40178 0.98337
 H480 H 0.78987 0.44789 0.95118
 C481 C 0.28958 0.61732 0.89574
 C482 C 0.27674 0.62267 0.92927
 C483 C 0.24704 0.60416 0.94014
 C484 C 0.23180 0.57835 0.91932
 C485 C 0.24604 0.57022 0.88723
 C486 C 0.27448 0.59037 0.87467
 C487 C 0.31721 0.63808 0.88282
 C488 C 0.33053 0.63161 0.85019
 C489 C 0.31650 0.60445 0.82995
 C490 C 0.28865 0.58394 0.84197
 H491 H 0.32798 0.65989 0.89762
 H492 H 0.35175 0.64779 0.84051
 H493 H 0.32701 0.59949 0.80471
 H494 H 0.27810 0.56336 0.82543
 H495 H 0.23698 0.60803 0.96576
 H496 H 0.21002 0.56300 0.92917
 C497 C 0.09707 0.30529 0.40741
 C498 C 0.06768 0.28843 0.39194
 C499 C 0.06012 0.25294 0.39995
 C500 C 0.07918 0.23511 0.42493
 C501 C 0.10655 0.25214 0.44237
 C502 C 0.11646 0.28705 0.43302
 C503 C 0.10782 0.33977 0.39785
 C504 C 0.13632 0.35619 0.41385
 C505 C 0.15481 0.33860 0.43934
 C506 C 0.14519 0.30429 0.44881
 H507 H 0.09481 0.35408 0.37759
 H508 H 0.14423 0.38264 0.40628
 H509 H 0.17696 0.35146 0.45160
 H510 H 0.16065 0.29124 0.46825
 H511 H 0.03785 0.23961 0.38831
 H512 H 0.07140 0.20843 0.43194
 C513 C 0.04630 0.75819 0.59914
 C514 C 0.05782 0.72478 0.61183
 C515 C 0.08939 0.71020 0.59985
 C516 C 0.10920 0.72761 0.57523
 C517 C 0.09800 0.76008 0.56177
 C518 C 0.06676 0.77601 0.57407
 C519 C 0.01402 0.77349 0.60932
 C520 C 0.00272 0.80578 0.59584
 C521 C 0.02311 0.82341 0.57187
 C522 C 0.05479 0.80872 0.56092
 H523 H -0.00309 0.76070 0.62737
 H524 H -0.02209 0.81709 0.60392
 H525 H 0.01418 0.84846 0.56150
 H526 H 0.06973 0.82309 0.54202
 H527 H 0.09827 0.68457 0.60896
 H528 H 0.13274 0.71492 0.56549
 C529 C 0.94008 0.76216 0.40195
 C530 C 0.93084 0.72813 0.38865
 C531 C 0.90074 0.71101 0.40079
 C532 C 0.88026 0.72649 0.42625
 C533 C 0.88934 0.75948 0.44044
 C534 C 0.91897 0.77798 0.42798
 C535 C 0.97082 0.78004 0.39144
 C536 C 0.97999 0.81289 0.40562
 C537 C 0.95902 0.82851 0.43063
 C538 C 0.92885 0.81126 0.44190
 H539 H 0.98830 0.76886 0.37255
 H540 H 1.00363 0.82620 0.39727
 H541 H 0.96633 0.85398 0.44157
 H542 H 0.91345 0.82411 0.46165
 H543 H 0.89364 0.68487 0.39120
 H544 H 0.85798 0.71189 0.43610
 C545 C 0.94329 0.23766 0.60521
 C546 C 0.93411 0.27208 0.61759
 C547 C 0.90404 0.28893 0.60494
 C548 C 0.88378 0.27302 0.57954
 C549 C 0.89306 0.23983 0.56591
 C550 C 0.92243 0.22142 0.57917
 C551 C 0.97375 0.21980 0.61658
 C552 C 0.98296 0.18661 0.60318
 C553 C 0.96230 0.17064 0.57808
 C554 C 0.93239 0.18785 0.56598
 H555 H 0.99097 0.23121 0.63560
 H556 H 1.00638 0.17330 0.61219
 H557 H 0.96965 0.14492 0.56772
 H558 H 0.91725 0.17471 0.54620
 H559 H 0.89694 0.31532 0.61391
 H560 H 0.86168 0.28754 0.56913
 C561 C 0.37503 0.06758 0.23720
 C562 C 0.37397 0.06900 0.27367
 C563 C 0.39777 0.09143 0.29080
 C564 C 0.42430 0.10898 0.27346
 C565 C 0.42867 0.10435 0.23830
 C566 C 0.40369 0.08399 0.21969
 C567 C 0.34921 0.04981 0.21747
 C568 C 0.35218 0.04716 0.18208
 C569 C 0.38137 0.06085 0.16556
 C570 C 0.40708 0.07883 0.18409
 H571 H 0.32588 0.03856 0.22835
 H572 H 0.33196 0.03372 0.16743
 H573 H 0.38397 0.05776 0.13818
 H574 H 0.42937 0.08892 0.17015
 H575 H 0.39706 0.09403 0.31836
 H576 H 0.44297 0.12474 0.28799
 C577 C 0.59789 0.11023 0.70424
 C578 C 0.61354 0.08049 0.72018
 C579 C 0.60428 0.07224 0.75379
 C580 C 0.57745 0.09066 0.77037
 C581 C 0.55945 0.11804 0.75382
 C582 C 0.57029 0.12890 0.72097
 C583 C 0.60938 0.12198 0.67212
 C584 C 0.59318 0.15072 0.65616
 C585 C 0.56543 0.16837 0.67209
 C586 C 0.55410 0.15777 0.70429
 H587 H 0.63160 0.10962 0.65981
 H588 H 0.60235 0.15950 0.63149
 H589 H 0.55294 0.19066 0.65962
 H590 H 0.53295 0.17259 0.71615
 H591 H 0.61627 0.04988 0.76650
 H592 H 0.56944 0.08233 0.79561
 C593 C 0.38772 0.90116 0.72098
 C594 C 0.38016 0.93707 0.72919
 C595 C 0.39706 0.95335 0.75691
 C596 C 0.42313 0.93545 0.77487
 C597 C 0.43300 0.90080 0.76557
 C598 C 0.41476 0.88298 0.73895
 C599 C 0.36906 0.88304 0.69514
 C600 C 0.37768 0.84810 0.68627
 C601 C 0.40487 0.83065 0.70309
 C602 C 0.42332 0.84781 0.72925
 H603 H 0.34728 0.89560 0.68225
 H604 H 0.36315 0.83450 0.66631
 H605 H 0.41153 0.80358 0.69602
 H606 H 0.44407 0.83327 0.74190
 H607 H 0.39152 0.98087 0.76340
 H608 H 0.43709 0.94940 0.79504
 C609 C 0.59836 0.89367 0.31045
 C610 C 0.61561 0.92000 0.29086
 C611 C 0.60937 0.92162 0.25565
 C612 C 0.58366 0.90049 0.24043
 C613 C 0.56400 0.87663 0.25989
 C614 C 0.57222 0.87193 0.29483
 C615 C 0.60656 0.88838 0.34520
 C616 C 0.58893 0.86276 0.36421
 C617 C 0.56301 0.84187 0.34901
 C618 C 0.55469 0.84625 0.31462
 H619 H 0.62706 0.90344 0.35779
 H620 H 0.59555 0.85898 0.39082
 H621 H 0.54948 0.82197 0.36387
 H622 H 0.53481 0.82910 0.30357
 H623 H 0.62267 0.94117 0.24020
 H624 H 0.57761 0.90429 0.21366
 C625 C 0.39844 0.31035 0.90182
 C626 C 0.38198 0.29064 0.92808
 C627 C 0.38913 0.25416 0.93101
 C628 C 0.41444 0.23785 0.91064
 C629 C 0.43316 0.25746 0.88657
 C630 C 0.42452 0.29365 0.88114
 C631 C 0.38946 0.34615 0.89538
 C632 C 0.40658 0.36527 0.86997
 C633 C 0.43263 0.34914 0.85033
 C634 C 0.44150 0.31362 0.85565
 H635 H 0.36874 0.35948 0.90933
 H636 H 0.39944 0.39270 0.86535
 H637 H 0.44577 0.36412 0.83061
 H638 H 0.46136 0.30181 0.83939
 H639 H 0.37664 0.23859 0.95074
 H640 H 0.42096 0.21020 0.91508
 C641 C 0.60603 0.72022 0.90316
 C642 C 0.61769 0.73325 0.93521
 C643 C 0.60488 0.76579 0.94758
 C644 C 0.57847 0.78383 0.93017
 C645 C 0.56445 0.76982 0.89990
 C646 C 0.57882 0.73837 0.88554
 C647 C 0.62079 0.68938 0.88838
 C648 C 0.60814 0.67594 0.85745
 C649 C 0.58075 0.69311 0.84065
 C650 C 0.56619 0.72412 0.85442
 H651 H 0.64265 0.67605 0.90036
 H652 H 0.61969 0.65217 0.84643
 H653 H 0.57096 0.68253 0.81670
 H654 H 0.54523 0.73691 0.84042
 H655 H 0.61364 0.77610 0.97199
 H656 H 0.56751 0.80783 0.94136
 C657 C 0.39643 0.75791 0.06627
 C658 C 0.38453 0.72261 0.07210
 C659 C 0.39821 0.70345 0.09966
 C660 C 0.42412 0.71797 0.12060
 C661 C 0.43721 0.75207 0.11459
 C662 C 0.42291 0.77273 0.08787
 C663 C 0.38422 0.77820 0.03842
 C664 C 0.39709 0.81233 0.03255
 C665 C 0.42253 0.82689 0.05398
 C666 C 0.43552 0.80733 0.08130
 H667 H 0.36491 0.76809 0.02069
 H668 H 0.38740 0.82749 0.01112
 H669 H 0.43247 0.85337 0.04922
 H670 H 0.45559 0.81948 0.09710
 H671 H 0.38972 0.67638 0.10418
 H672 H 0.43522 0.70184 0.14073
 C673 C 0.60449 0.22999 0.05320
 C674 C 0.61574 0.26448 0.06368
 C675 C 0.60139 0.27991 0.09319
 C676 C 0.57528 0.26268 0.11151
 C677 C 0.56259 0.22953 0.10081
 C678 C 0.57771 0.21241 0.07208
 C679 C 0.61767 0.21330 0.02341
 C680 C 0.60537 0.17999 0.01300
 C681 C 0.57957 0.16274 0.03176
 C682 C 0.56567 0.17876 0.06096
 H683 H 0.63734 0.22562 0.00766
 H684 H 0.61579 0.16758 -0.00986
 H685 H 0.57010 0.13693 0.02349
 H686 H 0.54542 0.16464 0.07468
 H687 H 0.60947 0.30628 0.10135
 H688 H 0.56354 0.27614 0.13323
 C689 C 0.28320 0.10471 0.60742
 C690 C 0.27409 0.06868 0.61263
 C691 C 0.24751 0.05311 0.59294
 C692 C 0.23115 0.07215 0.56707
 C693 C 0.24111 0.10720 0.56001
 C694 C 0.26717 0.12397 0.58037
 C695 C 0.30796 0.12195 0.62852
 C696 C 0.31793 0.15699 0.62222
 C697 C 0.30330 0.17542 0.59495
 C698 C 0.27812 0.15919 0.57415
 H699 H 0.31915 0.10862 0.65034
 H700 H 0.33707 0.16989 0.63858
 H701 H 0.31130 0.20253 0.59005
 H702 H 0.26724 0.17446 0.55335
 H703 H 0.24037 0.02550 0.59670
 H704 H 0.21138 0.05902 0.55156
 C705 C 0.75707 0.07941 0.37693
 C706 C 0.71958 0.07582 0.37831
 C707 C 0.70147 0.09503 0.40381
 C708 C 0.71910 0.11312 0.42956
 C709 C 0.75565 0.11181 0.43198
 C710 C 0.77510 0.09519 0.40541
 C711 C 0.77753 0.06695 0.34911
 C712 C 0.81411 0.06719 0.35057
 C713 C 0.83128 0.07951 0.37963
 C714 C 0.81209 0.09326 0.40690
 H715 H 0.76620 0.05814 0.32535
 H716 H 0.82923 0.05742 0.32907
 H717 H 0.85967 0.07883 0.38088
 H718 H 0.82657 0.10266 0.42893
 H719 H 0.67304 0.09484 0.40496
 H720 H 0.70384 0.12634 0.44926
 C721 C 0.75503 0.94012 0.60933
 C722 C 0.71989 0.93327 0.61986
 C723 C 0.70198 0.90388 0.60610
 C724 C 0.71731 0.88245 0.58112
 C725 C 0.75108 0.88967 0.56920
 C726 C 0.77069 0.91789 0.58389
 C727 C 0.77440 0.96964 0.62173
 C728 C 0.80828 0.97646 0.61008
 C729 C 0.82360 0.95441 0.58566
 C730 C 0.80504 0.92550 0.57249
 H731 H 0.76392 0.98810 0.64021
 H732 H 0.82267 0.99916 0.61993
 H733 H 0.84988 0.95992 0.57665
 H734 H 0.81781 0.90931 0.55322
 H735 H 0.67516 0.89843 0.61363
 H736 H 0.70199 0.86121 0.56965
 C737 C 0.29877 0.89905 0.40675
 C738 C 0.27975 0.92505 0.38821
 C739 C 0.24374 0.92931 0.39434
 C740 C 0.22722 0.91090 0.42053
 C741 C 0.24610 0.88723 0.44097
 C742 C 0.28182 0.88014 0.43346
 C743 C 0.33417 0.89111 0.39915
 C744 C 0.35260 0.86585 0.41796
 C745 C 0.33615 0.84779 0.44438
 C746 C 0.30105 0.85464 0.45204
 H747 H 0.34772 0.90374 0.37824
 H748 H 0.37973 0.86006 0.41182
 H749 H 0.35056 0.82811 0.45879
 H750 H 0.28901 0.83948 0.47226
 H751 H 0.22868 0.94868 0.38018
 H752 H 0.19985 0.91641 0.42595
 C753 C 0.05799 0.39332 0.76508
 C754 C 0.06555 0.38373 0.73072
 C755 C 0.09361 0.40004 0.71391
 C756 C 0.11314 0.42659 0.72985
 C757 C 0.10491 0.43802 0.76294
 C758 C 0.07761 0.42108 0.78115
 C759 C 0.03026 0.37738 0.78331
 C760 C 0.02205 0.38852 0.81639
 C761 C 0.04104 0.41583 0.83190
 C762 C 0.06849 0.43213 0.81451
 H763 H 0.01464 0.35625 0.77237
 H764 H 0.00069 0.37603 0.83000
 H765 H 0.03438 0.42450 0.85750
 H766 H 0.08240 0.45345 0.82737
 H767 H 0.09953 0.39317 0.68762
 H768 H 0.13376 0.43966 0.71562
 C769 C 0.09935 0.61789 0.28312
 C770 C 0.06475 0.62478 0.27177
 C771 C 0.05191 0.60753 0.24258
 C772 C 0.07181 0.58143 0.22625
 C773 C 0.10497 0.57197 0.23876
 C774 C 0.11957 0.59095 0.26669
 C775 C 0.11401 0.63680 0.31088
 C776 C 0.14762 0.62873 0.32271
 C777 C 0.16716 0.60182 0.30708
 C778 C 0.15336 0.58301 0.27930
 H779 H 0.09975 0.65822 0.32319
 H780 H 0.15856 0.64342 0.34409
 H781 H 0.19319 0.59562 0.31643
 H782 H 0.16939 0.56246 0.26767
 H783 H 0.02537 0.61252 0.23381
 H784 H 0.06034 0.56683 0.20504
 C785 C 0.89515 0.40762 0.30084
 C786 C 0.92433 0.39075 0.28519
 C787 C 0.93190 0.39775 0.25092
 C788 C 0.91333 0.42367 0.23321
 C789 C 0.88652 0.44301 0.24926
 C790 C 0.87637 0.43433 0.28291
 C791 C 0.88411 0.39825 0.33387
 C792 C 0.85598 0.41572 0.34944
 C793 C 0.83818 0.44257 0.33225
 C794 C 0.84807 0.45177 0.29919
 H795 H 0.89660 0.37675 0.34735
 H796 H 0.84782 0.40822 0.37486
 H797 H 0.81634 0.45602 0.34441
 H798 H 0.83317 0.47229 0.28641
 H799 H 0.95379 0.38476 0.23845
 H800 H 0.92109 0.43001 0.20736
 C801 C 0.89646 0.59681 0.70879
 C802 C 0.92653 0.61295 0.72352
 C803 C 0.93594 0.60468 0.75711
 C804 C 0.91800 0.57845 0.77498
 C805 C 0.89011 0.55998 0.75974
 C806 C 0.87839 0.56973 0.72682
 C807 C 0.88385 0.60726 0.67657
 C808 C 0.85487 0.59046 0.66181
 C809 C 0.83777 0.56321 0.67903
 C810 C 0.84923 0.55295 0.71134
 H811 H 0.89582 0.62906 0.66314
 H812 H 0.84551 0.59876 0.63701
 H813 H 0.81528 0.55026 0.66749
 H814 H 0.83487 0.53214 0.72420
 H815 H 0.95864 0.61702 0.76884
 H816 H 0.92707 0.57118 0.80021
 C817 C 0.69808 0.59487 0.90494
 C818 C 0.71577 0.61951 0.92702
 C819 C 0.75275 0.62009 0.92676
 C820 C 0.77183 0.59328 0.91040
 C821 C 0.75470 0.56647 0.89191
 C822 C 0.71791 0.56849 0.88714
 C823 C 0.66138 0.59630 0.89912
 C824 C 0.64484 0.57210 0.87730
 C825 C 0.66429 0.54616 0.86040
 C826 C 0.70048 0.54437 0.86504
 H827 H 0.64493 0.61651 0.91039
 H828 H 0.61677 0.57378 0.87318
 H829 H 0.65135 0.52759 0.84329
 H830 H 0.71476 0.52434 0.85070
 H831 H 0.76716 0.63908 0.94227
 H832 H 0.80003 0.59227 0.91388
 C833 C 0.25516 0.42468 0.95751
 C834 C 0.27099 0.39357 0.94349
 C835 C 0.26754 0.38643 0.90844
 C836 C 0.25248 0.41160 0.88673
 C837 C 0.23730 0.44284 0.89992
 C838 C 0.23618 0.44798 0.93586
 C839 C 0.25679 0.43268 0.99281
 C840 C 0.23914 0.46200 1.00648
 C841 C 0.21897 0.48358 0.98553
 C842 C 0.21723 0.47660 0.95060
 H843 H 0.27141 0.41630 1.01023
 H844 H 0.24072 0.46769 1.03353
 H845 H 0.20473 0.50590 0.99635
 H846 H 0.20085 0.49375 0.93524
 H847 H 0.27962 0.36293 0.89732
 H848 H 0.25406 0.40737 0.85940
 C849 C 0.23610 0.61120 0.06130
 C850 C 0.27355 0.61435 0.06376
 C851 C 0.29156 0.59191 0.08641
 C852 C 0.27404 0.56715 0.10618
 C853 C 0.23777 0.56262 0.10348
 C854 C 0.21840 0.58463 0.08098
 C855 C 0.21593 0.63107 0.03768
 C856 C 0.17987 0.62577 0.03430
 C857 C 0.16298 0.60011 0.05355
 C858 C 0.18197 0.57942 0.07636
 H859 H 0.22721 0.65026 0.02070
 H860 H 0.16503 0.64129 0.01611
 H861 H 0.13505 0.59582 0.05040
 H862 H 0.16782 0.55909 0.09001
 H863 H 0.31987 0.59348 0.08901
 H864 H 0.28925 0.55020 0.12289
 C865 C 0.76403 0.37660 0.07160
 C866 C 0.72645 0.37380 0.07295
 C867 C 0.70811 0.39660 0.09541
 C868 C 0.72490 0.42353 0.11333
 C869 C 0.76070 0.42960 0.10913
 C870 C 0.78084 0.40578 0.08887
 C871 C 0.78543 0.35330 0.05197
 C872 C 0.82143 0.35902 0.04879
 C873 C 0.83718 0.38807 0.06463
 C874 C 0.81719 0.41135 0.08436
 H875 H 0.77557 0.33005 0.03910
 H876 H 0.83722 0.34085 0.03369
 H877 H 0.86508 0.39255 0.06167
 H878 H 0.83055 0.43372 0.09603
 H879 H 0.67986 0.39464 0.09814
 H880 H 0.70930 0.44139 0.12901
 C881 C 0.89909 0.68829 0.58950
 C882 C 0.91986 0.70803 0.61356
 C883 C 0.91622 0.74533 0.61464
 C884 C 0.89737 0.76328 0.58964
 C885 C 0.87939 0.74458 0.56409
 C886 C 0.87834 0.70695 0.56512
 C887 C 0.89713 0.65060 0.58958
 C888 C 0.87607 0.63219 0.56631
 C889 C 0.85607 0.65059 0.54264
 C890 C 0.85694 0.68757 0.54208
 H891 H 0.91079 0.63454 0.60789
 H892 H 0.87493 0.60342 0.56698
 H893 H 0.83949 0.63616 0.52486
 H894 H 0.84024 0.70088 0.52380
 H895 H 0.93083 0.76123 0.63294
 H896 H 0.89832 0.79209 0.58922
 C897 C 0.90344 0.31447 0.41874
 C898 C 0.92475 0.29559 0.39448
 C899 C 0.92188 0.25824 0.39269
 C900 C 0.90291 0.23943 0.41691
 C901 C 0.88437 0.25725 0.44259
 C902 C 0.88279 0.29488 0.44245
 C903 C 0.90077 0.35212 0.41948
 C904 C 0.87922 0.36961 0.44294
 C905 C 0.85936 0.35030 0.46598
 C906 C 0.86087 0.31333 0.46570
 H907 H 0.91422 0.36892 0.40171
 H908 H 0.87757 0.39837 0.44291
 H909 H 0.84240 0.36402 0.48391
 H910 H 0.84424 0.29930 0.48348
 H911 H 0.93702 0.24297 0.37431
 H912 H 0.90425 0.21063 0.41669
 C913 C 0.09763 0.30491 0.60091
 C914 C 0.07390 0.28465 0.62110
 C915 C 0.07354 0.24744 0.61710
 C916 C 0.09134 0.23110 0.59012
 C917 C 0.11167 0.25114 0.56755
 C918 C 0.11654 0.28795 0.57398
 C919 C 0.10427 0.34134 0.60778
 C920 C 0.12745 0.36073 0.58766
 C921 C 0.14510 0.34428 0.56080
 C922 C 0.14005 0.30819 0.55414
 H923 H 0.09267 0.35496 0.62939
 H924 H 0.13213 0.38858 0.59327
 H925 H 0.16328 0.35940 0.54543
 H926 H 0.15527 0.29615 0.53381
 H927 H 0.05655 0.23110 0.63264
 H928 H 0.08770 0.20285 0.58571
 C929 C 0.09273 0.69741 0.40617
 C930 C 0.07006 0.71746 0.38443
 C931 C 0.07083 0.75484 0.38679
 C932 C 0.08866 0.77191 0.41333
 C933 C 0.10788 0.75237 0.43719
 C934 C 0.11170 0.71518 0.43263
 C935 C 0.09823 0.66038 0.40157
 C936 C 0.12059 0.64148 0.42303
 C937 C 0.13838 0.65886 0.44924
 C938 C 0.13425 0.69536 0.45396
 H939 H 0.08642 0.64559 0.38086
 H940 H 0.12445 0.61322 0.41899
 H941 H 0.15590 0.64408 0.46567
 H942 H 0.14941 0.70801 0.47404
 H943 H 0.05475 0.77101 0.37015
 H944 H 0.08592 0.80046 0.41634
 C945 C 0.60769 0.94958 0.76560
 C946 C 0.61471 0.94064 0.73086
 C947 C 0.59667 0.91216 0.71560
 C948 C 0.57070 0.89394 0.73314
 C949 C 0.56168 0.90373 0.76647
 C950 C 0.58060 0.93113 0.78334
 C951 C 0.62545 0.97749 0.78274
 C952 C 0.61685 0.98687 0.81621
 C953 C 0.59027 0.96902 0.83327
 C954 C 0.57213 0.94151 0.81706
 H955 H 0.64604 0.99258 0.77085
 H956 H 0.63075 1.00834 0.82889
 H957 H 0.58356 0.97662 0.85916
 H958 H 0.55141 0.92858 0.83116
 H959 H 0.60161 0.90500 0.68918
 H960 H 0.55626 0.87310 0.72000
 C961 C 0.39133 0.92975 0.24636
 C962 C 0.38267 0.92649 0.28153
 C963 C 0.39948 0.90045 0.30109
 C964 C 0.42536 0.87874 0.28704
 C965 C 0.43568 0.88257 0.25302
 C966 C 0.41842 0.90789 0.23218
 C967 C 0.37508 0.95528 0.22526
 C968 C 0.38475 0.95868 0.19111
 C969 C 0.41152 0.93784 0.17756
 C970 C 0.42855 0.91299 0.19788
 H971 H 0.35484 0.97288 0.23459
 H972 H 0.37160 0.97773 0.17502
 H973 H 0.41925 0.94108 0.15119
 H974 H 0.44964 0.89791 0.18634
 H975 H 0.39333 0.89768 0.32794
 H976 H 0.43865 0.85980 0.30331
 C977 C 0.60150 0.04942 0.23832
 C978 C 0.61128 0.06112 0.27163
 C979 C 0.59509 0.09134 0.28569
 C980 C 0.56875 0.10920 0.26814
 C981 C 0.55757 0.09731 0.23603
 C982 C 0.57430 0.06771 0.22048
 C983 C 0.61667 0.01898 0.22294
 C984 C 0.60571 0.00721 0.19080
 C985 C 0.57936 0.02523 0.17341
 C986 C 0.56362 0.05514 0.18805
 H987 H 0.63695 0.00381 0.23537
 H988 H 0.61764 -0.01617 0.17939
 H989 H 0.57091 0.01587 0.14852
 H990 H 0.54300 0.06821 0.17383
 H991 H 0.60198 0.10041 0.31115
 H992 H 0.55592 0.13167 0.28033
 C993 C 0.40047 0.10556 0.69850
 C994 C 0.38084 0.07930 0.71613
 C995 C 0.38447 0.07650 0.75166
 C996 C 0.40954 0.09656 0.76926
 C997 C 0.43100 0.12064 0.75195
 C998 C 0.42531 0.12669 0.71674
 C999 C 0.39630 0.11123 0.66309
 C1000 C 0.41574 0.13719 0.64631
 C1001 C 0.43975 0.15798 0.66428
 C1002 C 0.44460 0.15288 0.69915
 H1003 H 0.37792 0.09602 0.64796
 H1004 H 0.41203 0.14128 0.61921
 H1005 H 0.45468 0.17818 0.65115
 H1006 H 0.46328 0.16981 0.71230
 H1007 H 0.36979 0.05661 0.76552
 H1008 H 0.41377 0.09162 0.79617
 C1009 C 0.60912 0.75975 0.07035
 C1010 C 0.61819 0.72313 0.07300
 C1011 C 0.60249 0.70252 0.09847
 C1012 C 0.57678 0.71670 0.11977
 C1013 C 0.56583 0.75196 0.11628
 C1014 C 0.58255 0.77415 0.09214
 C1015 C 0.62419 0.78200 0.04542
 C1016 C 0.61372 0.81739 0.04230
 C1017 C 0.58787 0.83131 0.06358
 C1018 C 0.57222 0.80997 0.08817
 H1019 H 0.64402 0.77263 0.02794
 H1020 H 0.62559 0.83404 0.02307
 H1021 H 0.57973 0.85875 0.06087
 H1022 H 0.55195 0.82179 0.10390
 H1023 H 0.60895 0.67455 0.10076
 H1024 H 0.56394 0.69945 0.13794
 C1025 C 0.40569 0.29848 0.09443
 C1026 C 0.38504 0.28121 0.06882
 C1027 C 0.38784 0.24420 0.06462
 C1028 C 0.41266 0.22475 0.08289
 C1029 C 0.43487 0.24164 0.10639
 C1030 C 0.43054 0.27834 0.11343
 C1031 C 0.40245 0.33527 0.10177
 C1032 C 0.42307 0.35155 0.12682
 C1033 C 0.44724 0.33173 0.14527
 C1034 C 0.45102 0.29547 0.13876
 H1035 H 0.38389 0.35200 0.08876
 H1036 H 0.42012 0.37972 0.13206
 H1037 H 0.46306 0.34449 0.16480
 H1038 H 0.46986 0.28091 0.15396
 H1039 H 0.37232 0.23053 0.04539
 H1040 H 0.41588 0.19667 0.07730
 C1041 C 0.59688 0.30693 0.90332
 C1042 C 0.61485 0.28560 0.92757
 C1043 C 0.60810 0.24896 0.92859
 C1044 C 0.58157 0.23393 0.90871
 C1045 C 0.56171 0.25494 0.88654
 C1046 C 0.57032 0.29131 0.88247
 C1047 C 0.60460 0.34343 0.89923
 C1048 C 0.58672 0.36383 0.87523
 C1049 C 0.56084 0.34846 0.85485
 C1050 C 0.55265 0.31254 0.85831
 H1051 H 0.62473 0.35656 0.91406
 H1052 H 0.59313 0.39170 0.87231
 H1053 H 0.54714 0.36440 0.83617
 H1054 H 0.53269 0.30147 0.84166
 H1055 H 0.62169 0.23223 0.94670
 H1056 H 0.57521 0.20608 0.91200
 C1057 C 0.40733 0.70655 0.90894
 C1058 C 0.38661 0.72372 0.93445
 C1059 C 0.38929 0.76074 0.93876
 C1060 C 0.41423 0.78026 0.92087
 C1061 C 0.43652 0.76348 0.89744
 C1062 C 0.43216 0.72680 0.89012
 C1063 C 0.40410 0.66981 0.90149
 C1064 C 0.42467 0.65364 0.87637
 C1065 C 0.44882 0.67354 0.85804
 C1066 C 0.45261 0.70977 0.86473
 H1067 H 0.38551 0.65307 0.91442
 H1068 H 0.42167 0.62552 0.87094
 H1069 H 0.46462 0.66087 0.83847
 H1070 H 0.47140 0.72440 0.84961
 H1071 H 0.37358 0.77440 0.95779
 H1072 H 0.41744 0.80829 0.92669
 C1073 C 0.75499 0.94434 0.40414
 C1074 C 0.72018 0.93654 0.39342
 C1075 C 0.70230 0.90782 0.40788
 C1076 C 0.71794 0.88719 0.43299
 C1077 C 0.75186 0.89480 0.44460
 C1078 C 0.77091 0.92325 0.43003
 C1079 C 0.77375 0.97364 0.39106
 C1080 C 0.80752 0.98143 0.40269
 C1081 C 0.82308 0.96070 0.42780
 C1082 C 0.80498 0.93198 0.44156
 H1083 H 0.76259 0.99097 0.37205
 H1084 H 0.82167 1.00380 0.39232
 H1085 H 0.84922 0.96705 0.43682
 H1086 H 0.81787 0.91682 0.46133
 H1087 H 0.67560 0.90183 0.40024
 H1088 H 0.70298 0.86585 0.44439
 C1089 C 0.29694 0.89890 0.59946
 C1090 C 0.27943 0.92690 0.61718
 C1091 C 0.24355 0.93261 0.61110
 C1092 C 0.22584 0.91357 0.58569
 C1093 C 0.24326 0.88764 0.56626
 C1094 C 0.27850 0.87890 0.57416
 C1095 C 0.33244 0.89038 0.60604
 C1096 C 0.34914 0.86280 0.58843
 C1097 C 0.33097 0.84315 0.56392
 C1098 C 0.29599 0.85100 0.55679
 H1099 H 0.34766 0.90460 0.62491
 H1100 H 0.37631 0.85656 0.59394
 H1101 H 0.34403 0.82168 0.55042
 H1102 H 0.28265 0.83483 0.53784
 H1103 H 0.22979 0.95390 0.62424
 H1104 H 0.19892 0.92054 0.57979
 C1105 C 0.23307 0.05783 0.39392
 C1106 C 0.26788 0.06631 0.38353
 C1107 C 0.28454 0.09619 0.39778
 C1108 C 0.26833 0.11651 0.42308
 C1109 C 0.23494 0.10760 0.43500
 C1110 C 0.21655 0.07880 0.41987
 C1111 C 0.21490 0.02793 0.38075
 C1112 C 0.18135 0.01941 0.39228
 C1113 C 0.16523 0.04013 0.41729
 C1114 C 0.18262 0.06946 0.43115
 H1115 H 0.22615 0.01060 0.36167
 H1116 H 0.16784 -0.00357 0.38185
 H1117 H 0.13922 0.03329 0.42619
 H1118 H 0.16930 0.08468 0.45080
 H1119 H 0.31110 0.10292 0.39035
 H1120 H 0.28275 0.13825 0.43480
 C1121 C 0.69625 0.09697 0.58649
 C1122 C 0.71391 0.07270 0.60839
 C1123 C 0.75037 0.06832 0.60514
 C1124 C 0.76896 0.08516 0.57928
 C1125 C 0.75196 0.10822 0.55680
 C1126 C 0.71569 0.11543 0.56112
 C1127 C 0.65981 0.10368 0.58916
 C1128 C 0.64323 0.12814 0.56797
 C1129 C 0.66244 0.14666 0.54379
 C1130 C 0.69831 0.14052 0.54035
 H1131 H 0.64355 0.09046 0.60752
 H1132 H 0.61531 0.13291 0.57047
 H1133 H 0.64949 0.16587 0.52762
 H1134 H 0.71229 0.15584 0.52145
 H1135 H 0.76436 0.05010 0.62154
 H1136 H 0.79665 0.07940 0.57615
 C1137 C 0.89178 0.61151 0.29253
 C1138 C 0.92158 0.62672 0.27666
 C1139 C 0.92947 0.61760 0.24278
 C1140 C 0.91061 0.59097 0.22585
 C1141 C 0.88322 0.57314 0.24229
 C1142 C 0.87252 0.58444 0.27523
 C1143 C 0.88108 0.62227 0.32552
 C1144 C 0.85229 0.60637 0.34120
 C1145 C 0.83367 0.57959 0.32440
 C1146 C 0.84357 0.56864 0.29170
 H1147 H 0.89458 0.64333 0.33919
 H1148 H 0.84435 0.61492 0.36649
 H1149 H 0.81135 0.56734 0.33670
 H1150 H 0.82824 0.54800 0.27931
 H1151 H 0.95226 0.62890 0.23039
 H1152 H 0.91908 0.58242 0.20069
 C1153 C 0.89597 0.39305 0.71191
 C1154 C 0.92485 0.37584 0.72763
 C1155 C 0.93221 0.38290 0.76209
 C1156 C 0.91446 0.40980 0.77969
 C1157 C 0.88830 0.42969 0.76349
 C1158 C 0.87763 0.42027 0.72997
 C1159 C 0.88508 0.38394 0.67851
 C1160 C 0.85715 0.40171 0.66309
 C1161 C 0.83951 0.42866 0.68061
 C1162 C 0.84949 0.43790 0.71377
 H1163 H 0.89762 0.36266 0.66430
 H1164 H 0.84906 0.39442 0.63748
 H1165 H 0.81782 0.44232 0.66854
 H1166 H 0.83480 0.45862 0.72673
 H1167 H 0.95376 0.36960 0.77468
 H1168 H 0.92271 0.41666 0.80539
 C1169 C 0.06074 0.61289 0.75990
 C1170 C 0.06673 0.61977 0.72466
 C1171 C 0.09453 0.60243 0.70795
 C1172 C 0.11483 0.57711 0.72458
 C1173 C 0.10801 0.56823 0.75850
 C1174 C 0.08159 0.58679 0.77682
 C1175 C 0.03336 0.62961 0.77837
 C1176 C 0.02708 0.62127 0.81244
 C1177 C 0.04753 0.59594 0.82882
 C1178 C 0.07442 0.57866 0.81125
 H1179 H 0.01628 0.64910 0.76707
 H1180 H 0.00601 0.63440 0.82615
 H1181 H 0.04237 0.58947 0.85522
 H1182 H 0.08942 0.55886 0.82488
 H1183 H 0.09941 0.60718 0.68112
 H1184 H 0.13477 0.56284 0.71029
 C1185 C 0.05636 0.39653 0.24467
 C1186 C 0.06395 0.39010 0.27970
 C1187 C 0.09187 0.40825 0.29536
 C1188 C 0.11106 0.43364 0.27774
 C1189 C 0.10285 0.44189 0.24393
 C1190 C 0.07590 0.42288 0.22680
 C1191 C 0.02868 0.37898 0.22735
 C1192 C 0.02072 0.38691 0.19350
 C1193 C 0.03977 0.41264 0.17622
 C1194 C 0.06699 0.43065 0.19264
 H1195 H 0.01268 0.35912 0.23943
 H1196 H -0.00057 0.37317 0.18067
 H1197 H 0.03329 0.41882 0.15001
 H1198 H 0.08083 0.45075 0.17835
 H1199 H 0.09790 0.40384 0.32204
 H1200 H 0.13145 0.44824 0.29112
   
