data_POSCAR
  _audit_creation_date              2014-09-24
  _audit_creation_method            'ToBaCCo'
  _symmetry_space_group_name_H-M    'P1'
  _symmetry_Int_Tables_number       1
  _symmetry_cell_setting            triclinic
  loop_
  _symmetry_equiv_pos_as_xyz
 x,y,z
_cell_length_a 63.3359
_cell_length_b 63.3314
_cell_length_c 63.3365
_cell_angle_alpha 90.000900
_cell_angle_beta 89.997300
_cell_angle_gamma 90.000400
loop_
  _atom_site_label
  _atom_site_type_symbol
  _atom_site_fract_x
  _atom_site_fract_y
  _atom_site_fract_z
N1 N 0.20868 0.20870 0.20869
 N2 N 0.70858 0.70860 0.70857
 N3 N 0.29128 0.79125 0.70871
 N4 N 0.79131 0.29131 0.20866
 N5 N 0.79134 0.70870 0.29126
 N6 N 0.29143 0.20860 -0.20864
 N7 N 0.70869 0.29136 -0.20864
 N8 N 0.20864 0.79146 0.29142
 N9 N 0.45863 0.45869 0.45864
 N10 N -0.04133 -0.04130 0.95868
 N11 N 1.04138 0.54138 0.95866
 N12 N 0.54145 0.04145 0.45860
 N13 N -0.04134 0.04133 0.54141
 N14 N 0.45868 0.54128 0.04135
 N15 N 0.54133 -0.04142 0.04135
 N16 N 1.04127 0.45864 0.54130
 C17 C 0.40731 0.00991 0.22154
 H18 H 0.40815 0.02425 0.23079
 C19 C 0.42108 0.00693 0.20459
 H20 H 0.43244 0.01915 0.20088
 C21 C 0.39158 -0.02349 0.21549
 H22 H 0.38031 -0.03546 0.21998
 C23 C 0.40506 -0.02714 0.19842
 H24 H 0.40378 -0.04187 0.18985
 N25 N 0.39277 -0.00509 0.22650
 C26 C 0.34279 0.02854 0.25990
 H27 H 0.34196 0.01928 0.27423
 C28 C 0.32902 0.04549 0.25694
 H29 H 0.31766 0.04919 0.26917
 C30 C 0.35850 0.03460 0.22650
 H31 H 0.36976 0.03012 0.21452
 C32 C 0.34502 0.05168 0.22287
 H33 H 0.34629 0.06026 0.20814
 Zn34 Zn 0.37505 0.00006 0.25002
 N35 N 0.35732 0.02358 0.24489
 C36 C 0.39163 0.02360 0.28454
 N37 N 0.39280 0.00520 0.27353
 C38 C 0.40732 -0.00981 0.27848
 C39 C 0.42111 -0.00684 0.29542
 C40 C 0.40512 0.02723 0.30160
 C41 C 0.34276 -0.02839 0.24017
 C42 C 0.32897 -0.04533 0.24315
 C43 C 0.34499 -0.05153 0.27720
 C44 C 0.35848 -0.03447 0.27356
 N45 N 0.35730 -0.02345 0.25517
 H46 H 0.38036 0.03558 0.28007
 H47 H 0.40814 -0.02415 0.26923
 H48 H 0.43246 -0.01907 0.29912
 H49 H 0.40386 0.04197 0.31018
 H50 H 0.34193 -0.01913 0.22584
 H51 H 0.31761 -0.04902 0.23093
 H52 H 0.34626 -0.06012 0.29193
 H53 H 0.36976 -0.03000 0.28553
 C54 C 0.33005 0.05737 0.23823
 C55 C 0.42003 -0.01179 0.19272
 C56 C 0.33001 -0.05721 0.26186
 C57 C 0.42009 0.01188 0.30729
 C58 C 0.09274 -0.00987 0.72158
 H59 H 0.09190 -0.02420 0.73085
 C60 C 0.07896 -0.00690 0.70464
 H61 H 0.06759 -0.01913 0.70095
 C62 C 0.10847 0.02351 0.71549
 H63 H 0.11976 0.03548 0.71995
 C64 C 0.09499 0.02715 0.69842
 H65 H 0.09626 0.04187 0.68983
 N66 N 0.10728 0.00513 0.72652
 C67 C 0.15728 -0.02849 0.75990
 H68 H 0.15812 -0.01923 0.77423
 C69 C 0.17105 -0.04545 0.75694
 H70 H 0.18240 -0.04915 0.76917
 C71 C 0.14156 -0.03457 0.72651
 H72 H 0.13028 -0.03009 0.71454
 C73 C 0.15503 -0.05165 0.72288
 H74 H 0.15375 -0.06024 0.70816
 Zn75 Zn 0.12502 -0.00001 0.75003
 N76 N 0.14275 -0.02354 0.74490
 C77 C 0.10845 -0.02353 0.78457
 N78 N 0.10729 -0.00513 0.77355
 C79 C 0.09277 0.00989 0.77850
 C80 C 0.07899 0.00693 0.79545
 C81 C 0.09497 -0.02715 0.80164
 C82 C 0.15731 0.02843 0.74014
 C83 C 0.17110 0.04537 0.74311
 C84 C 0.15511 0.05157 0.77718
 C85 C 0.14162 0.03451 0.77355
 N86 N 0.14278 0.02349 0.75516
 H87 H 0.11972 -0.03551 0.78009
 H88 H 0.09195 0.02422 0.76924
 H89 H 0.06764 0.01917 0.79915
 H90 H 0.09623 -0.04188 0.81022
 H91 H 0.15813 0.01917 0.72581
 H92 H 0.18246 0.04906 0.73087
 H93 H 0.15386 0.06015 0.79191
 H94 H 0.13035 0.03004 0.78553
 C95 C 0.17000 -0.05734 0.73824
 C96 C 0.08000 0.01180 0.69275
 C97 C 0.17009 0.05725 0.76182
 C98 C 0.08001 -0.01178 0.80733
 C99 C 0.59274 0.49012 0.22155
 H100 H 0.59191 0.47579 0.23082
 C101 C 0.57895 0.49309 0.20461
 H102 H 0.56760 0.48085 0.20092
 C103 C 0.60844 0.52353 0.21547
 H104 H 0.61971 0.53551 0.21994
 C105 C 0.59495 0.52715 0.19841
 H106 H 0.59622 0.54188 0.18982
 N107 N 0.60727 0.50513 0.22650
 C108 C 0.65728 0.47154 0.25988
 H109 H 0.65811 0.48081 0.27421
 C110 C 0.67106 0.45459 0.25692
 H111 H 0.68242 0.45090 0.26914
 C112 C 0.64156 0.46546 0.22649
 H113 H 0.63029 0.46993 0.21452
 C114 C 0.65504 0.44839 0.22286
 H115 H 0.65377 0.43980 0.20814
 Zn116 Zn 0.62501 0.50001 0.25001
 N117 N 0.64275 0.47649 0.24488
 C118 C 0.60845 0.47649 0.28456
 N119 N 0.60728 0.49488 0.27353
 C120 C 0.59275 0.50989 0.27847
 C121 C 0.57896 0.50693 0.29542
 C122 C 0.59497 0.47287 0.30163
 C123 C 0.65728 0.52846 0.24012
 C124 C 0.67106 0.54541 0.24307
 C125 C 0.65506 0.55163 0.27714
 C126 C 0.64158 0.53456 0.27352
 N127 N 0.64275 0.52352 0.25513
 H128 H 0.61973 0.46452 0.28009
 H129 H 0.59191 0.52422 0.26921
 H130 H 0.56760 0.51916 0.29911
 H131 H 0.59624 0.45814 0.31021
 H132 H 0.65811 0.51920 0.22579
 H133 H 0.68241 0.54911 0.23084
 H134 H 0.65379 0.56022 0.29186
 H135 H 0.63031 0.53009 0.28550
 C136 C 0.67002 0.44271 0.23821
 C137 C 0.57998 0.51179 0.19273
 C138 C 0.67003 0.55730 0.26177
 C139 C 0.57999 0.48822 0.30730
 C140 C 0.90729 0.50990 0.72156
 H141 H 0.90813 0.52423 0.73081
 C142 C 0.92106 0.50693 0.70460
 H143 H 0.93242 0.51915 0.70090
 C144 C 0.89157 0.47650 0.71549
 H145 H 0.88029 0.46453 0.71997
 C146 C 0.90504 0.47287 0.69842
 H147 H 0.90376 0.45814 0.68984
 N148 N 0.89275 0.49490 0.72651
 C149 C 0.84276 0.52851 0.75990
 H150 H 0.84193 0.51926 0.77423
 C151 C 0.82897 0.54546 0.75692
 H152 H 0.81762 0.54916 0.76915
 C153 C 0.85846 0.53457 0.72649
 H154 H 0.86973 0.53009 0.71452
 C155 C 0.84497 0.55163 0.72285
 H156 H 0.84624 0.56021 0.70812
 Zn157 Zn 0.87502 0.50004 0.75003
 N158 N 0.85728 0.52356 0.74489
 C159 C 0.89159 0.52357 0.78456
 N160 N 0.89276 0.50518 0.77354
 C161 C 0.90729 0.49017 0.77849
 C162 C 0.92107 0.49313 0.79544
 C163 C 0.90507 0.52720 0.80162
 C164 C 0.84275 0.47158 0.74017
 C165 C 0.82896 0.45464 0.74313
 C166 C 0.84498 0.44843 0.77719
 C167 C 0.85846 0.46550 0.77356
 N168 N 0.85728 0.47653 0.75517
 H169 H 0.88032 0.53555 0.78008
 H170 H 0.90811 0.47583 0.76923
 H171 H 0.93242 0.48090 0.79914
 H172 H 0.90381 0.54194 0.81020
 H173 H 0.84191 0.48085 0.72584
 H174 H 0.81761 0.45094 0.73090
 H175 H 0.84625 0.43985 0.79192
 H176 H 0.86973 0.46998 0.78553
 C177 C 0.83000 0.55732 0.73820
 C178 C 0.92002 0.48822 0.69273
 C179 C 0.83000 0.44275 0.76184
 C180 C 0.92004 0.51184 0.80731
 C181 C 0.22155 0.40726 0.00984
 H182 H 0.23081 0.40809 0.02417
 C183 C 0.20460 0.42105 0.00687
 H184 H 0.20091 0.43241 0.01909
 C185 C 0.21546 0.39154 -0.02355
 H186 H 0.21993 0.38026 -0.03552
 C187 C 0.19840 0.40503 -0.02719
 H188 H 0.18982 0.40376 -0.04191
 N189 N 0.22649 0.39272 -0.00516
 C190 C 0.25985 0.34271 0.02845
 H191 H 0.27419 0.34187 0.01919
 C192 C 0.25688 0.32894 0.04541
 H193 H 0.26911 0.31758 0.04911
 C194 C 0.22646 0.35843 0.03452
 H195 H 0.21449 0.36971 0.03004
 C196 C 0.22282 0.34496 0.05159
 H197 H 0.20809 0.34624 0.06017
 Zn198 Zn 0.25000 0.37498 -0.00002
 N199 N 0.24485 0.35725 0.02350
 C200 C 0.28453 0.39154 0.02351
 N201 N 0.27351 0.39271 0.00511
 C202 C 0.27847 0.40724 -0.00990
 C203 C 0.29542 0.42102 -0.00693
 C204 C 0.30160 0.40501 0.02714
 C205 C 0.24012 0.34270 -0.02848
 C206 C 0.24310 0.32891 -0.04542
 C207 C 0.27717 0.34491 -0.05161
 C208 C 0.27353 0.35840 -0.03455
 N209 N 0.25513 0.35723 -0.02353
 H210 H 0.28005 0.38027 0.03549
 H211 H 0.26921 0.40807 -0.02423
 H212 H 0.29913 0.43237 -0.01916
 H213 H 0.31018 0.40375 0.04187
 H214 H 0.22579 0.34188 -0.01923
 H215 H 0.23087 0.31756 -0.04912
 H216 H 0.29190 0.34617 -0.06018
 H217 H 0.28551 0.36967 -0.03007
 C218 C 0.23817 0.32999 0.05728
 C219 C 0.19273 0.42002 -0.01184
 C220 C 0.26181 0.32993 -0.05729
 C221 C 0.30729 0.41998 0.01178
 C222 C 0.72149 0.09270 -0.00989
 H223 H 0.73075 0.09187 -0.02422
 C224 C 0.70455 0.07891 -0.00693
 H225 H 0.70085 0.06756 -0.01916
 C226 C 0.71540 0.10841 0.02351
 H227 H 0.71987 0.11968 0.03549
 C228 C 0.69834 0.09492 0.02714
 H229 H 0.68975 0.09619 0.04186
 N230 N 0.72643 0.10723 0.00512
 C231 C 0.75983 0.15725 -0.02845
 H232 H 0.77415 0.15808 -0.01919
 C233 C 0.75687 0.17104 -0.04540
 H234 H 0.76910 0.18240 -0.04909
 C235 C 0.72643 0.14154 -0.03454
 H236 H 0.71446 0.13027 -0.03008
 C237 C 0.72281 0.15503 -0.05161
 H238 H 0.70808 0.15376 -0.06020
 Zn239 Zn 0.74995 0.12497 -0.00000
 N240 N 0.74482 0.14272 -0.02351
 C241 C 0.78449 0.10842 -0.02353
 N242 N 0.77346 0.10724 -0.00514
 C243 C 0.77841 0.09271 0.00987
 C244 C 0.79536 0.07893 0.00690
 C245 C 0.80156 0.09494 -0.02716
 C246 C 0.74007 0.15724 0.02846
 C247 C 0.74303 0.17102 0.04541
 C248 C 0.77709 0.15501 0.05161
 C249 C 0.77346 0.14153 0.03454
 N250 N 0.75507 0.14271 0.02352
 H251 H 0.78001 0.11969 -0.03550
 H252 H 0.76915 0.09187 0.02420
 H253 H 0.79906 0.06757 0.01913
 H254 H 0.81014 0.09621 -0.04188
 H255 H 0.72574 0.15807 0.01920
 H256 H 0.73080 0.18238 0.04911
 H257 H 0.79182 0.15374 0.06020
 H258 H 0.78544 0.13026 0.03007
 C259 C 0.73816 0.17001 -0.05728
 C260 C 0.69266 0.07994 0.01178
 C261 C 0.76174 0.16999 0.05729
 C262 C 0.80724 0.07996 -0.01180
 C263 C 0.22146 0.59273 0.49010
 H264 H 0.23072 0.59190 0.47577
 C265 C 0.20451 0.57895 0.49307
 H266 H 0.20081 0.56760 0.48083
 C267 C 0.21540 0.60842 0.52351
 H268 H 0.21988 0.61968 0.53549
 C269 C 0.19833 0.59494 0.52714
 H270 H 0.18975 0.59620 0.54187
 N271 N 0.22642 0.60725 0.50511
 C272 C 0.25981 0.65728 0.47155
 H273 H 0.27414 0.65810 0.48081
 C274 C 0.25684 0.67107 0.45461
 H275 H 0.26907 0.68243 0.45092
 C276 C 0.22641 0.64157 0.46546
 H277 H 0.21443 0.63029 0.46992
 C278 C 0.22278 0.65507 0.44840
 H279 H 0.20805 0.65380 0.43981
 Zn280 Zn 0.24993 0.62499 0.49998
 N281 N 0.24480 0.64274 0.47648
 C282 C 0.28446 0.60844 0.47644
 N283 N 0.27344 0.60725 0.49484
 C284 C 0.27840 0.59271 0.50983
 C285 C 0.29534 0.57893 0.50685
 C286 C 0.30153 0.59496 0.47280
 C287 C 0.24006 0.65724 0.52847
 C288 C 0.24303 0.67101 0.54542
 C289 C 0.27709 0.65500 0.55161
 C290 C 0.27346 0.64153 0.53453
 N291 N 0.25507 0.64271 0.52351
 H292 H 0.27999 0.61972 0.46447
 H293 H 0.26914 0.59187 0.52417
 H294 H 0.29904 0.56757 0.51908
 H295 H 0.31011 0.59624 0.45807
 H296 H 0.22573 0.65808 0.51921
 H297 H 0.23080 0.68237 0.54913
 H298 H 0.29182 0.65373 0.56019
 H299 H 0.28544 0.63026 0.53005
 C300 C 0.23814 0.67005 0.44273
 C301 C 0.19264 0.57997 0.51178
 C302 C 0.26174 0.66997 0.55730
 C303 C 0.30722 0.57998 0.48814
 C304 C 0.72156 0.90727 0.50984
 H305 H 0.73081 0.90809 0.52418
 C306 C 0.70462 0.92107 0.50687
 H307 H 0.70093 0.93242 0.51910
 C308 C 0.71550 0.89158 0.47643
 H309 H 0.71997 0.88030 0.46446
 C310 C 0.69844 0.90507 0.47280
 H311 H 0.68986 0.90381 0.45807
 N312 N 0.72651 0.89274 0.49483
 C313 C 0.75986 0.84271 0.52843
 H314 H 0.77419 0.84187 0.51918
 C315 C 0.75687 0.82892 0.54536
 H316 H 0.76909 0.81755 0.54907
 C317 C 0.72646 0.85842 0.53448
 H318 H 0.71449 0.86970 0.53000
 C319 C 0.72281 0.84493 0.55154
 H320 H 0.70807 0.84620 0.56011
 Zn321 Zn 0.75001 0.87499 0.49997
 N322 N 0.74486 0.85724 0.52347
 C323 C 0.78455 0.89153 0.52351
 N324 N 0.77353 0.89272 0.50512
 C325 C 0.77849 0.90725 0.49012
 C326 C 0.79544 0.92102 0.49310
 C327 C 0.80162 0.90500 0.52715
 C328 C 0.74014 0.84273 0.47149
 C329 C 0.74310 0.82896 0.45454
 C330 C 0.77716 0.84496 0.44835
 C331 C 0.77354 0.85844 0.46542
 N332 N 0.75515 0.85726 0.47645
 H333 H 0.78006 0.88025 0.53548
 H334 H 0.76924 0.90809 0.47579
 H335 H 0.79915 0.93238 0.48087
 H336 H 0.81020 0.90373 0.54189
 H337 H 0.72580 0.84190 0.48076
 H338 H 0.73086 0.81761 0.45084
 H339 H 0.79189 0.84624 0.43976
 H340 H 0.78551 0.86971 0.46990
 C341 C 0.73815 0.82995 0.55723
 C342 C 0.69276 0.92004 0.48816
 C343 C 0.76180 0.82999 0.44266
 C344 C 0.80732 0.91998 0.51181
 C345 C 0.00985 0.22149 0.40726
 H346 H 0.02417 0.23076 0.40809
 C347 C 0.00689 0.20455 0.42105
 H348 H 0.01911 0.20086 0.43241
 C349 C -0.02355 0.21540 0.39156
 H350 H -0.03552 0.21987 0.38028
 C351 C -0.02717 0.19833 0.40504
 H352 H -0.04190 0.18974 0.40378
 N353 N -0.00516 0.22643 0.39273
 C354 C 0.02843 0.25982 0.34272
 H355 H 0.01916 0.27415 0.34189
 C356 C 0.04538 0.25686 0.32894
 H357 H 0.04907 0.26908 0.31758
 C358 C 0.03451 0.22643 0.35844
 H359 H 0.03004 0.21445 0.36971
 C360 C 0.05158 0.22280 0.34496
 H361 H 0.06017 0.20807 0.34623
 Zn362 Zn -0.00003 0.24994 0.37499
 N363 N 0.02348 0.24481 0.35725
 C364 C 0.02348 0.28449 0.39155
 N365 N 0.00509 0.27346 0.39273
 C366 C -0.00992 0.27841 0.40725
 C367 C -0.00696 0.29537 0.42103
 C368 C 0.02711 0.30157 0.40503
 C369 C -0.02850 0.24006 0.34272
 C370 C -0.04544 0.24302 0.32894
 C371 C -0.05165 0.27709 0.34495
 C372 C -0.03458 0.27346 0.35843
 N373 N -0.02355 0.25507 0.35725
 H374 H 0.03546 0.28002 0.38028
 H375 H -0.02425 0.26915 0.40808
 H376 H -0.01919 0.29906 0.43238
 H377 H 0.04183 0.31015 0.40376
 H378 H -0.01923 0.22573 0.34189
 H379 H -0.04914 0.23079 0.31759
 H380 H -0.06023 0.29181 0.34621
 H381 H -0.03010 0.28544 0.36970
 C382 C 0.05726 0.23815 0.32998
 C383 C -0.01182 0.19266 0.42002
 C384 C -0.05732 0.26173 0.32997
 C385 C 0.01175 0.30725 0.42000
 C386 C -0.00980 0.72159 0.09274
 H387 H -0.02413 0.73085 0.09191
 C388 C -0.00684 0.70464 0.07896
 H389 H -0.01906 0.70094 0.06760
 C390 C 0.02360 0.71550 0.10845
 H391 H 0.03557 0.71998 0.11972
 C392 C 0.02723 0.69843 0.09496
 H393 H 0.04195 0.68985 0.09623
 N394 N 0.00521 0.72653 0.10727
 C395 C -0.02840 0.75991 0.15727
 H396 H -0.01915 0.77425 0.15811
 C397 C -0.04536 0.75695 0.17105
 H398 H -0.04906 0.76917 0.18240
 C399 C -0.03447 0.72651 0.14156
 H400 H -0.02999 0.71454 0.13029
 C401 C -0.05154 0.72288 0.15503
 H402 H -0.06013 0.70815 0.15376
 Zn403 Zn 0.00007 0.75004 0.12501
 N404 N -0.02345 0.74491 0.14274
 C405 C -0.02346 0.78458 0.10845
 N406 N -0.00506 0.77356 0.10727
 C407 C 0.00994 0.77851 0.09274
 C408 C 0.00697 0.79546 0.07896
 C409 C -0.02709 0.80165 0.09497
 C410 C 0.02853 0.74017 0.15728
 C411 C 0.04547 0.74315 0.17107
 C412 C 0.05166 0.77722 0.15507
 C413 C 0.03460 0.77358 0.14158
 N414 N 0.02358 0.75518 0.14275
 H415 H -0.03544 0.78010 0.11972
 H416 H 0.02428 0.76926 0.09191
 H417 H 0.01920 0.79916 0.06761
 H418 H -0.04182 0.81023 0.09624
 H419 H 0.01927 0.72584 0.15810
 H420 H 0.04917 0.73092 0.18242
 H421 H 0.06023 0.79195 0.15381
 H422 H 0.03012 0.78556 0.13031
 C423 C -0.05724 0.73824 0.17001
 C424 C 0.01187 0.69275 0.07999
 C425 C 0.05734 0.76186 0.17004
 C426 C -0.01174 0.80733 0.07999
 C427 C 0.49019 0.22161 0.59272
 H428 H 0.47585 0.23086 0.59190
 C429 C 0.49316 0.20466 0.57894
 H430 H 0.48093 0.20097 0.56758
 C431 C 0.52359 0.21553 0.60843
 H432 H 0.53556 0.22001 0.61970
 C433 C 0.52722 0.19847 0.59494
 H434 H 0.54195 0.18989 0.59620
 N435 N 0.50519 0.22655 0.60725
 C436 C 0.47159 0.25992 0.65728
 H437 H 0.48085 0.27425 0.65811
 C438 C 0.45465 0.25695 0.67106
 H439 H 0.45095 0.26917 0.68242
 C440 C 0.46552 0.22653 0.64156
 H441 H 0.47000 0.21455 0.63028
 C442 C 0.44846 0.22289 0.65504
 H443 H 0.43988 0.20816 0.65377
 Zn444 Zn 0.50005 0.25006 0.62500
 N445 N 0.47654 0.24492 0.64274
 C446 C 0.47652 0.28460 0.60846
 N447 N 0.49492 0.27358 0.60727
 C448 C 0.50992 0.27854 0.59274
 C449 C 0.50694 0.29549 0.57896
 C450 C 0.47288 0.30168 0.59498
 C451 C 0.52851 0.24018 0.65727
 C452 C 0.54545 0.24314 0.67105
 C453 C 0.55167 0.27720 0.65505
 C454 C 0.53460 0.27358 0.64156
 N455 N 0.52357 0.25519 0.64274
 H456 H 0.46455 0.28012 0.61973
 H457 H 0.52425 0.26928 0.59190
 H458 H 0.51917 0.29920 0.56761
 H459 H 0.45815 0.31025 0.59626
 H460 H 0.51924 0.22585 0.65810
 H461 H 0.54914 0.23091 0.68241
 H462 H 0.56026 0.29193 0.65378
 H463 H 0.53013 0.28556 0.63029
 C464 C 0.44277 0.23824 0.67002
 C465 C 0.51187 0.19279 0.57996
 C466 C 0.55734 0.26184 0.67002
 C467 C 0.48823 0.30737 0.58001
 C468 C 0.50986 0.72147 0.90724
 H469 H 0.52419 0.73073 0.90807
 C470 C 0.50690 0.70452 0.92103
 H471 H 0.51913 0.70083 0.93238
 C472 C 0.47646 0.71539 0.89155
 H473 H 0.46448 0.71987 0.88028
 C474 C 0.47284 0.69832 0.90503
 H475 H 0.45811 0.68974 0.90377
 N476 N 0.49485 0.72642 0.89272
 C477 C 0.52843 0.75981 0.84270
 H478 H 0.51917 0.77415 0.84188
 C479 C 0.54537 0.75685 0.82891
 H480 H 0.54906 0.76908 0.81756
 C481 C 0.53451 0.72641 0.85841
 H482 H 0.53003 0.71443 0.86968
 C483 C 0.55157 0.72278 0.84492
 H484 H 0.56015 0.70805 0.84618
 Zn485 Zn 0.49997 0.74993 0.87498
 N486 N 0.52348 0.74480 0.85723
 C487 C 0.52350 0.78448 0.89154
 N488 N 0.50511 0.77345 0.89272
 C489 C 0.49011 0.77839 0.90726
 C490 C 0.49307 0.79533 0.92104
 C491 C 0.52713 0.80154 0.90502
 C492 C 0.47150 0.74006 0.84273
 C493 C 0.45455 0.74302 0.82895
 C494 C 0.44835 0.77709 0.84496
 C495 C 0.46543 0.77346 0.85844
 N496 N 0.47645 0.75507 0.85725
 H497 H 0.53547 0.78001 0.88026
 H498 H 0.47578 0.76912 0.90809
 H499 H 0.48085 0.79902 0.93240
 H500 H 0.54186 0.81013 0.90375
 H501 H 0.48076 0.72573 0.84189
 H502 H 0.45085 0.73079 0.81760
 H503 H 0.43977 0.79182 0.84624
 H504 H 0.46991 0.78544 0.86971
 C505 C 0.55725 0.73814 0.82994
 C506 C 0.48819 0.69264 0.92000
 C507 C 0.44267 0.76173 0.82999
 C508 C 0.51178 0.80722 0.92001
 N509 N 0.16614 0.19892 0.24660
 C510 C 0.15807 0.21856 0.24928
 N511 N 0.16671 0.23494 0.23857
 N512 N 0.18294 0.23179 0.22556
 C513 C 0.19111 0.21213 0.22279
 N514 N 0.18237 0.19576 0.23359
 C515 C 0.14059 0.22196 0.26329
 C516 C 0.12590 0.22482 0.27505
 C517 C 0.10841 0.22822 0.28904
 N518 N 0.09705 0.24632 0.28798
 N519 N 0.08081 0.24947 0.30098
 C520 C 0.07533 0.23464 0.31551
 N521 N 0.08681 0.21653 0.31648
 N522 N 0.10306 0.21337 0.30349
 N523 N 0.66604 0.69885 0.74649
 C524 C 0.65799 0.71850 0.74917
 N525 N 0.66664 0.73488 0.73846
 N526 N 0.68286 0.73170 0.72544
 C527 C 0.69101 0.71204 0.72267
 N528 N 0.68226 0.69568 0.73347
 C529 C 0.64052 0.72191 0.76319
 C530 C 0.62583 0.72478 0.77495
 C531 C 0.60836 0.72819 0.78896
 N532 N 0.59700 0.74629 0.78791
 N533 N 0.58077 0.74944 0.80092
 C534 C 0.57531 0.73462 0.81546
 N535 N 0.58678 0.71650 0.81642
 N536 N 0.60301 0.71334 0.80341
 N537 N 0.33382 0.80098 0.74662
 C538 C 0.34186 0.78134 0.74930
 N539 N 0.33321 0.76496 0.73859
 N540 N 0.31698 0.76814 0.72557
 C541 C 0.30884 0.78781 0.72281
 N542 N 0.31760 0.80416 0.73360
 C543 C 0.35934 0.77792 0.76331
 C544 C 0.37402 0.77505 0.77507
 C545 C 0.39151 0.77166 0.78907
 N546 N 0.39687 0.78651 0.80351
 N547 N 0.41311 0.78335 0.81650
 C548 C 0.42459 0.76524 0.81553
 N549 N 0.41912 0.75041 0.80100
 N550 N 0.40288 0.75356 0.78801
 N551 N -0.17566 0.29147 0.25611
 C552 C -0.15810 0.28135 0.24925
 N553 N -0.15724 0.27451 0.22899
 N554 N -0.17346 0.27770 0.21598
 C555 C -0.19112 0.28784 0.22276
 N556 N -0.19188 0.29466 0.24310
 C557 C -0.14062 0.27792 0.26325
 C558 C -0.12594 0.27506 0.27502
 C559 C -0.10846 0.27166 0.28902
 N560 N -0.10312 0.28650 0.30348
 N561 N -0.08688 0.28335 0.31648
 C562 C -0.07539 0.26524 0.31550
 N563 N -0.08085 0.25041 0.30096
 N564 N -0.09709 0.25356 0.28796
 N565 N -0.17563 0.70851 0.24382
 C566 C -0.15807 0.71863 0.25067
 N567 N -0.15721 0.72547 0.27093
 N568 N -0.17343 0.72229 0.28394
 C569 C -0.19110 0.71216 0.27717
 N570 N -0.19186 0.70534 0.25683
 C571 C -0.14059 0.72203 0.23667
 C572 C -0.12590 0.72489 0.22490
 C573 C -0.10841 0.72830 0.21091
 N574 N -0.09705 0.74640 0.21198
 N575 N -0.08080 0.74955 0.19899
 C576 C -0.07532 0.73472 0.18446
 N577 N -0.08679 0.71661 0.18349
 N578 N -0.10304 0.71345 0.19647
 N579 N 0.32445 0.20843 0.74391
 C580 C 0.34201 0.21856 0.75076
 N581 N 0.34287 0.22541 0.77102
 N582 N 0.32665 0.22222 0.78404
 C583 C 0.30899 0.21207 0.77726
 N584 N 0.30823 0.20525 0.75692
 C585 C 0.35949 0.22198 0.73675
 C586 C 0.37417 0.22486 0.72499
 C587 C 0.39165 0.22827 0.71098
 N588 N 0.40300 0.24637 0.71204
 N589 N 0.41923 0.24953 0.69903
 C590 C 0.42471 0.23471 0.68450
 N591 N 0.41324 0.21659 0.68353
 N592 N 0.39701 0.21343 0.69653
 N593 N 0.65724 0.27459 0.77102
 C594 C 0.65811 0.28143 0.75076
 N595 N 0.67568 0.29154 0.74391
 N596 N 0.69190 0.29472 0.75692
 C597 C 0.69113 0.28791 0.77726
 N598 N 0.67346 0.27778 0.78404
 C599 C 0.64064 0.27801 0.73675
 C600 C 0.62596 0.27515 0.72498
 C601 C 0.60848 0.27175 0.71098
 N602 N 0.60314 0.28660 0.69652
 N603 N 0.58691 0.28345 0.68352
 C604 C 0.57541 0.26534 0.68449
 N605 N 0.58086 0.25052 0.69904
 N606 N 0.59710 0.25367 0.71204
 N607 N 0.15719 0.77469 0.27108
 C608 C 0.15807 0.78152 0.25082
 N609 N 0.17563 0.79163 0.24396
 N610 N 0.19185 0.79482 0.25698
 C611 C 0.19108 0.78801 0.27732
 N612 N 0.17341 0.77787 0.28409
 C613 C 0.14060 0.77809 0.23680
 C614 C 0.12593 0.77522 0.22503
 C615 C 0.10845 0.77182 0.21102
 N616 N 0.10310 0.78667 0.19657
 N617 N 0.08687 0.78350 0.18356
 C618 C 0.07540 0.76538 0.18452
 N619 N 0.08087 0.75056 0.19905
 N620 N 0.09709 0.75371 0.21206
 N621 N 0.24664 0.16620 0.19896
 C622 C 0.24933 0.15815 0.21861
 N623 N 0.23860 0.16680 0.23498
 N624 N 0.22557 0.18301 0.23181
 C625 C 0.22280 0.19116 0.21214
 N626 N 0.23361 0.18241 0.19578
 C627 C 0.26334 0.14068 0.22202
 C628 C 0.27512 0.12600 0.22489
 C629 C 0.28912 0.10852 0.22829
 N630 N 0.28806 0.09716 0.24639
 N631 N 0.30106 0.08092 0.24954
 C632 C 0.31559 0.07544 0.23472
 N633 N 0.31655 0.08692 0.21660
 N634 N 0.30356 0.10316 0.21344
 N635 N 0.73848 0.66669 0.73487
 C636 C 0.74921 0.65804 0.71850
 N637 N 0.74653 0.66609 0.69885
 N638 N 0.73351 0.68230 0.69567
 C639 C 0.72269 0.69105 0.71202
 N640 N 0.72545 0.68290 0.73169
 C641 C 0.76324 0.64058 0.72192
 C642 C 0.77501 0.62591 0.72481
 C643 C 0.78903 0.60844 0.72822
 N644 N 0.80348 0.60308 0.71338
 N645 N 0.81648 0.58685 0.71655
 C646 C 0.81552 0.57539 0.73468
 N647 N 0.80099 0.58086 0.74950
 N648 N 0.78798 0.59709 0.74633
 N649 N 0.75614 0.32439 0.79156
 C650 C 0.74928 0.34196 0.78144
 N651 N 0.72903 0.34281 0.77458
 N652 N 0.71602 0.32659 0.77777
 C653 C 0.72279 0.30893 0.78791
 N654 N 0.74312 0.30817 0.79474
 C655 C 0.76329 0.35943 0.77802
 C656 C 0.77506 0.37411 0.77516
 C657 C 0.78906 0.39160 0.77176
 N658 N 0.78800 0.40297 0.75367
 N659 N 0.80100 0.41921 0.75052
 C660 C 0.81553 0.42468 0.76535
 N661 N 0.81650 0.41320 0.78346
 N662 N 0.80350 0.39696 0.78661
 N663 N 0.25610 -0.17553 0.29161
 C664 C 0.24924 -0.15796 0.28150
 N665 N 0.22899 -0.15709 0.27465
 N666 N 0.21597 -0.17331 0.27784
 C667 C 0.22274 -0.19098 0.28797
 N668 N 0.24308 -0.19175 0.29479
 C669 C 0.26326 -0.14049 0.27807
 C670 C 0.27503 -0.12581 0.27521
 C671 C 0.28904 -0.10833 0.27181
 N672 N 0.30349 -0.10299 0.28665
 N673 N 0.31650 -0.08675 0.28349
 C674 C 0.31553 -0.07527 0.26537
 N675 N 0.30099 -0.08073 0.25056
 N676 N 0.28798 -0.09696 0.25371
 N677 N 0.26139 -0.16682 0.73499
 C678 C 0.25068 -0.15816 0.71861
 N679 N 0.25338 -0.16620 0.69897
 N680 N 0.26639 -0.18242 0.69579
 C681 C 0.27718 -0.19119 0.71215
 N682 N 0.27440 -0.18304 0.73182
 C683 C 0.23667 -0.14068 0.72203
 C684 C 0.22491 -0.12599 0.72490
 C685 C 0.21092 -0.10851 0.72830
 N686 N 0.19648 -0.10314 0.71345
 N687 N 0.18349 -0.08690 0.71661
 C688 C 0.18446 -0.07542 0.73473
 N689 N 0.19899 -0.08090 0.74955
 N690 N 0.21198 -0.09714 0.74640
 N691 N 0.74387 0.32434 0.20849
 C692 C 0.75074 0.34191 0.21860
 N693 N 0.77099 0.34277 0.22544
 N694 N 0.78400 0.32654 0.22226
 C695 C 0.77722 0.30887 0.21212
 N696 N 0.75688 0.30812 0.20530
 C697 C 0.73673 0.35939 0.22201
 C698 C 0.72497 0.37408 0.22488
 C699 C 0.71097 0.39156 0.22828
 N700 N 0.71203 0.40293 0.24637
 N701 N 0.69903 0.41917 0.24952
 C702 C 0.68449 0.42463 0.23470
 N703 N 0.68352 0.41315 0.21659
 N704 N 0.69652 0.39691 0.21343
 N705 N 0.77102 0.65724 0.27450
 C706 C 0.75076 0.65810 0.28134
 N707 N 0.74390 0.67567 0.29145
 N708 N 0.75691 0.69189 0.29463
 C709 C 0.77725 0.69113 0.28781
 N710 N 0.78403 0.67346 0.27768
 C711 C 0.73675 0.64062 0.27792
 C712 C 0.72499 0.62594 0.27507
 C713 C 0.71098 0.60845 0.27168
 N714 N 0.69654 0.60310 0.28653
 N715 N 0.68354 0.58686 0.28338
 C716 C 0.68450 0.57538 0.26527
 N717 N 0.69903 0.58084 0.25044
 N718 N 0.71203 0.59708 0.25358
 N719 N 0.24399 0.17556 0.79153
 C720 C 0.25085 0.15800 0.78142
 N721 N 0.27111 0.15714 0.77458
 N722 N 0.28412 0.17337 0.77777
 C723 C 0.27734 0.19103 0.78790
 N724 N 0.25700 0.19179 0.79472
 C725 C 0.23685 0.14052 0.77800
 C726 C 0.22508 0.12584 0.77513
 C727 C 0.21107 0.10836 0.77174
 N728 N 0.21211 0.09700 0.75364
 N729 N 0.19910 0.08077 0.75049
 C730 C 0.18457 0.07531 0.76532
 N731 N 0.18362 0.08679 0.78344
 N732 N 0.19663 0.10302 0.78659
 N733 N 0.23493 0.23861 0.16676
 C734 C 0.21855 0.24931 0.15810
 N735 N 0.19891 0.24660 0.16615
 N736 N 0.19574 0.23359 0.18237
 C737 C 0.21211 0.22281 0.19113
 N738 N 0.23177 0.22559 0.18298
 C739 C 0.22195 0.26332 0.14063
 C740 C 0.22481 0.27508 0.12594
 C741 C 0.22822 0.28907 0.10845
 N742 N 0.21338 0.30352 0.10308
 N743 N 0.21654 0.31651 0.08684
 C744 C 0.23466 0.31553 0.07536
 N745 N 0.24948 0.30099 0.08084
 N746 N 0.24632 0.28800 0.09709
 N747 N 0.73484 0.73849 0.66663
 C748 C 0.71846 0.74920 0.65798
 N749 N 0.69882 0.74650 0.66602
 N750 N 0.69565 0.73349 0.68224
 C751 C 0.71201 0.72270 0.69100
 N752 N 0.73168 0.72548 0.68285
 C753 C 0.72187 0.76321 0.64050
 C754 C 0.72474 0.77497 0.62582
 C755 C 0.72816 0.78898 0.60834
 N756 N 0.71332 0.80343 0.60297
 N757 N 0.71649 0.81643 0.58674
 C758 C 0.73462 0.81547 0.57529
 N759 N 0.74944 0.80094 0.58077
 N760 N 0.74627 0.78793 0.59700
 N761 N 0.79152 0.75615 0.32429
 C762 C 0.78140 0.74929 0.34185
 N763 N 0.77456 0.72903 0.34271
 N764 N 0.77775 0.71602 0.32649
 C765 C 0.78788 0.72280 0.30883
 N766 N 0.79470 0.74314 0.30807
 C767 C 0.77798 0.76330 0.35933
 C768 C 0.77512 0.77507 0.37401
 C769 C 0.77172 0.78907 0.39150
 N770 N 0.75363 0.78800 0.40287
 N771 N 0.75048 0.80100 0.41911
 C772 C 0.76531 0.81553 0.42458
 N773 N 0.78342 0.81651 0.41309
 N774 N 0.78657 0.80351 0.39685
 N775 N 0.29158 0.25605 -0.17561
 C776 C 0.28148 0.24918 -0.15804
 N777 N 0.27465 0.22891 -0.15718
 N778 N 0.27785 0.21590 -0.17340
 C779 C 0.28797 0.22269 -0.19107
 N780 N 0.29477 0.24304 -0.19183
 C781 C 0.27804 0.26318 -0.14057
 C782 C 0.27517 0.27495 -0.12588
 C783 C 0.27177 0.28896 -0.10841
 N784 N 0.25366 0.28791 -0.09705
 N785 N 0.25051 0.30092 -0.08082
 C786 C 0.26533 0.31545 -0.07535
 N787 N 0.28345 0.31641 -0.08682
 N788 N 0.28661 0.30341 -0.10305
 N789 N 0.72544 0.27102 -0.15718
 C790 C 0.71860 0.25076 -0.15805
 N791 N 0.70849 0.24391 -0.17562
 N792 N 0.70532 0.25692 -0.19184
 C793 C 0.71214 0.27726 -0.19108
 N794 N 0.72226 0.28404 -0.17340
 C795 C 0.72200 0.23675 -0.14057
 C796 C 0.72485 0.22498 -0.12589
 C797 C 0.72825 0.21097 -0.10841
 N798 N 0.71340 0.19653 -0.10307
 N799 N 0.71655 0.18352 -0.08683
 C800 C 0.73466 0.18449 -0.07535
 N801 N 0.74949 0.19902 -0.08081
 N802 N 0.74634 0.21202 -0.09704
 N803 N 0.22539 0.77111 0.34287
 C804 C 0.21854 0.75085 0.34201
 N805 N 0.20843 0.74400 0.32443
 N806 N 0.20526 0.75701 0.30822
 C807 C 0.21209 0.77735 0.30898
 N808 N 0.22222 0.78412 0.32666
 C809 C 0.22194 0.73683 0.35948
 C810 C 0.22481 0.72506 0.37415
 C811 C 0.22821 0.71104 0.39162
 N812 N 0.21336 0.69659 0.39696
 N813 N 0.21651 0.68358 0.41319
 C814 C 0.23463 0.68453 0.42467
 N815 N 0.24945 0.69907 0.41921
 N816 N 0.24630 0.71208 0.40299
 N817 N 0.26499 0.76138 0.66677
 C818 C 0.28136 0.75065 0.65812
 N819 N 0.30100 0.75332 0.66617
 N820 N 0.30418 0.76634 0.68239
 C821 C 0.28783 0.77715 0.69115
 N822 N 0.26816 0.77439 0.68299
 C823 C 0.27793 0.73665 0.64064
 C824 C 0.27507 0.72489 0.62595
 C825 C 0.27167 0.71089 0.60847
 N826 N 0.28652 0.69645 0.60310
 N827 N 0.28336 0.68346 0.58685
 C828 C 0.26525 0.68443 0.57538
 N829 N 0.25042 0.69896 0.58086
 N830 N 0.25357 0.71195 0.59710
 N831 N 0.79147 0.24386 0.17563
 C832 C 0.78136 0.25073 0.15807
 N833 N 0.77453 0.27099 0.15721
 N834 N 0.77772 0.28400 0.17343
 C835 C 0.78785 0.27721 0.19110
 N836 N 0.79466 0.25687 0.19185
 C837 C 0.77794 0.23672 0.14059
 C838 C 0.77507 0.22495 0.12591
 C839 C 0.77167 0.21095 0.10843
 N840 N 0.75358 0.21201 0.09705
 N841 N 0.75043 0.19901 0.08082
 C842 C 0.76525 0.18446 0.07536
 N843 N 0.78336 0.18349 0.08685
 N844 N 0.78651 0.19649 0.10308
 N845 N 0.45843 0.42570 0.50611
 C846 C 0.46856 0.40813 0.49927
 N847 N 0.47541 0.40725 0.47901
 N848 N 0.47223 0.42346 0.46599
 C849 C 0.46208 0.44114 0.47275
 N850 N 0.45525 0.44191 0.49308
 C851 C 0.47197 0.39066 0.51329
 C852 C 0.47484 0.37599 0.52506
 C853 C 0.47826 0.35851 0.53907
 N854 N 0.49636 0.34715 0.53800
 N855 N 0.49952 0.33091 0.55100
 C856 C 0.48471 0.32544 0.56554
 N857 N 0.46659 0.33691 0.56651
 N858 N 0.46342 0.35315 0.55352
 N859 N -0.01503 0.91679 -0.01143
 C860 C -0.03140 0.90812 -0.00072
 N861 N -0.05105 0.91615 -0.00341
 N862 N -0.05424 0.93237 -0.01642
 C863 C -0.03788 0.94114 -0.02721
 N864 N -0.01821 0.93301 -0.02444
 C865 C -0.02798 0.89065 0.01329
 C866 C -0.02510 0.87596 0.02505
 C867 C -0.02169 0.85848 0.03905
 N868 N -0.03654 0.85312 0.05350
 N869 N -0.03337 0.83688 0.06649
 C870 C -0.01526 0.82540 0.06552
 N871 N -0.00043 0.83088 0.05099
 N872 N -0.00359 0.84712 0.03799
 N873 N 0.05112 0.58392 -0.00342
 C874 C 0.03147 0.59196 -0.00074
 N875 N 0.01510 0.58330 -0.01145
 N876 N 0.01827 0.56708 -0.02446
 C877 C 0.03794 0.55894 -0.02724
 N878 N 0.05429 0.56770 -0.01644
 C879 C 0.02805 0.60944 0.01327
 C880 C 0.02519 0.62412 0.02504
 C881 C 0.02179 0.64161 0.03904
 N882 N 0.00370 0.65297 0.03799
 N883 N 0.00055 0.66921 0.05099
 C884 C 0.01538 0.67468 0.06552
 N885 N 0.03349 0.66320 0.06648
 N886 N 0.03665 0.64696 0.05348
 N887 N 0.51515 0.08337 0.48849
 C888 C 0.53152 0.09203 0.49922
 N889 N 0.55117 0.08398 0.49654
 N890 N 0.55435 0.06777 0.48352
 C891 C 0.53800 0.05901 0.47271
 N892 N 0.51833 0.06715 0.47547
 C893 C 0.52809 0.10950 0.51323
 C894 C 0.52522 0.12418 0.52500
 C895 C 0.52182 0.14166 0.53900
 N896 N 0.53667 0.14702 0.55344
 N897 N 0.53350 0.16325 0.56645
 C898 C 0.51538 0.17472 0.56549
 N899 N 0.50056 0.16925 0.55096
 N900 N 0.50371 0.15302 0.53795
 N901 N -0.01506 0.08327 0.51153
 C902 C -0.03143 0.09192 0.50080
 N903 N -0.05108 0.08386 0.50348
 N904 N -0.05425 0.06764 0.51650
 C905 C -0.03790 0.05889 0.52731
 N906 N -0.01824 0.06705 0.52455
 C907 C -0.02802 0.10939 0.48679
 C908 C -0.02515 0.12406 0.47501
 C909 C -0.02175 0.14154 0.46100
 N910 N -0.03660 0.14688 0.44655
 N911 N -0.03344 0.16311 0.43354
 C912 C -0.01533 0.17459 0.43450
 N913 N -0.00050 0.16914 0.44904
 N914 N -0.00366 0.15291 0.46205
 N915 N 0.48497 0.58321 1.01146
 C916 C 0.46859 0.59187 1.00074
 N917 N 0.44895 0.58383 1.00343
 N918 N 0.44577 0.56761 1.01645
 C919 C 0.46212 0.55885 1.02725
 N920 N 0.48179 0.56699 1.02447
 C921 C 0.47201 0.60934 0.98673
 C922 C 0.47487 0.62402 0.97496
 C923 C 0.47827 0.64150 0.96095
 N924 N 0.49637 0.65286 0.96200
 N925 N 0.49952 0.66910 0.94900
 C926 C 0.48469 0.67457 0.93447
 N927 N 0.46657 0.66309 0.93351
 N928 N 0.46342 0.64685 0.94651
 N929 N 0.51503 0.91666 1.01146
 C930 C 0.53140 0.90799 1.00075
 N931 N 0.55105 0.91602 1.00344
 N932 N 0.55424 0.93224 1.01646
 C933 C 0.53788 0.94101 1.02725
 N934 N 0.51821 0.93288 1.02447
 C935 C 0.52798 0.89051 0.98674
 C936 C 0.52511 0.87583 0.97497
 C937 C 0.52171 0.85835 0.96097
 N938 N 0.53656 0.85300 0.94652
 N939 N 0.53340 0.83677 0.93352
 C940 C 0.51529 0.82529 0.93448
 N941 N 0.50047 0.83075 0.94902
 N942 N 0.50362 0.84698 0.96202
 N943 N 0.05099 0.41611 0.50337
 C944 C 0.03135 0.40805 0.50071
 N945 N 0.01498 0.41670 0.51144
 N946 N 0.01816 0.43292 0.52445
 C947 C 0.03782 0.44108 0.52720
 N948 N 0.05417 0.43233 0.51639
 C949 C 0.02793 0.39057 0.48670
 C950 C 0.02506 0.37589 0.47494
 C951 C 0.02167 0.35840 0.46094
 N952 N 0.00356 0.34704 0.46198
 N953 N 0.00042 0.33080 0.44898
 C954 C 0.01525 0.32532 0.43447
 N955 N 0.03337 0.33680 0.43351
 N956 N 0.03652 0.35304 0.44650
 N957 N 0.40715 0.47902 0.47536
 C958 C 0.40802 0.49927 0.46852
 N959 N 0.42559 0.50613 0.45842
 N960 N 0.44182 0.49312 0.45525
 C961 C 0.44106 0.47278 0.46208
 N962 N 0.42338 0.46600 0.47220
 C963 C 0.39054 0.51328 0.47191
 C964 C 0.37585 0.52504 0.47476
 C965 C 0.35836 0.53904 0.47818
 N966 N 0.35300 0.55349 0.46333
 N967 N 0.33676 0.56648 0.46650
 C968 C 0.32529 0.56551 0.48462
 N969 N 0.33077 0.55097 0.49944
 N970 N 0.34700 0.53797 0.49628
 N971 N 0.91612 -0.00339 -0.05106
 C972 C 0.90806 -0.00072 -0.03142
 N973 N 0.91671 -0.01144 -0.01504
 N974 N 0.93294 -0.02444 -0.01821
 C975 C 0.94110 -0.02720 -0.03788
 N976 N 0.93235 -0.01640 -0.05423
 C977 C 0.89058 0.01329 -0.02800
 C978 C 0.87589 0.02504 -0.02514
 C979 C 0.85840 0.03904 -0.02173
 N980 N 0.84704 0.03798 -0.00363
 N981 N 0.83080 0.05098 -0.00048
 C982 C 0.82532 0.06550 -0.01531
 N983 N 0.83679 0.06647 -0.03343
 N984 N 0.85304 0.05347 -0.03659
 N985 N 0.58387 -0.00350 0.05106
 C986 C 0.59192 -0.00083 0.03141
 N987 N 0.58326 -0.01155 0.01504
 N988 N 0.56704 -0.02457 0.01823
 C989 C 0.55889 -0.02732 0.03790
 N990 N 0.56765 -0.01652 0.05425
 C991 C 0.60939 0.01318 0.02798
 C992 C 0.62407 0.02496 0.02512
 C993 C 0.64154 0.03897 0.02171
 N994 N 0.65291 0.03791 0.00362
 N995 N 0.66914 0.05093 0.00047
 C996 C 0.67460 0.06546 0.01529
 N997 N 0.66312 0.06643 0.03340
 N998 N 0.64689 0.05342 0.03656
 N999 N 0.08319 0.48853 0.51501
 C1000 C 0.09185 0.49925 0.53139
 N1001 N 0.08380 0.49657 0.55103
 N1002 N 0.06759 0.48355 0.55421
 C1003 C 0.05883 0.47275 0.53786
 N1004 N 0.06697 0.47552 0.51819
 C1005 C 0.10932 0.51326 0.52797
 C1006 C 0.12401 0.52503 0.52510
 C1007 C 0.14149 0.53903 0.52171
 N1008 N 0.14685 0.55347 0.53656
 N1009 N 0.16309 0.56647 0.53340
 C1010 C 0.17457 0.56550 0.51529
 N1011 N 0.16909 0.55098 0.50046
 N1012 N 0.15285 0.53798 0.50361
 N1013 N 0.08392 0.50347 -0.05110
 C1014 C 0.09198 0.50078 -0.03146
 N1015 N 0.08333 0.51150 -0.01508
 N1016 N 0.06711 0.52451 -0.01825
 C1017 C 0.05895 0.52728 -0.03791
 N1018 N 0.06770 0.51648 -0.05427
 C1019 C 0.10945 0.48677 -0.02805
 C1020 C 0.12413 0.47500 -0.02519
 C1021 C 0.14161 0.46099 -0.02179
 N1022 N 0.15297 0.46204 -0.00369
 N1023 N 0.16920 0.44903 -0.00053
 C1024 C 0.17466 0.43450 -0.01535
 N1025 N 0.16319 0.43353 -0.03347
 N1026 N 0.14696 0.44654 -0.03663
 N1027 N 0.58399 1.00353 0.44887
 C1028 C 0.59204 1.00084 0.46851
 N1029 N 0.58338 1.01156 0.48489
 N1030 N 0.56716 1.02458 0.48171
 C1031 C 0.55902 1.02735 0.46205
 N1032 N 0.56778 1.01655 0.44569
 C1033 C 0.60950 0.98682 0.47193
 C1034 C 0.62418 0.97504 0.47480
 C1035 C 0.64165 0.96103 0.47820
 N1036 N 0.65301 0.96208 0.49630
 N1037 N 0.66923 0.94906 0.49946
 C1038 C 0.67470 0.93453 0.48464
 N1039 N 0.66323 0.93357 0.46652
 N1040 N 0.64700 0.94658 0.46336
 N1041 N 0.91614 1.00338 0.55112
 C1042 C 0.90810 1.00070 0.53148
 N1043 N 0.91675 1.01143 0.51511
 N1044 N 0.93296 1.02445 0.51829
 C1045 C 0.94111 1.02722 0.53796
 N1046 N 0.93235 1.01640 0.55431
 C1047 C 0.89063 0.98668 0.52805
 C1048 C 0.87595 0.97491 0.52518
 C1049 C 0.85847 0.96091 0.52177
 N1050 N 0.84711 0.96197 0.50367
 N1051 N 0.83087 0.94897 0.50051
 C1052 C 0.82539 0.93444 0.51533
 N1053 N 0.83686 0.93348 0.53345
 N1054 N 0.85310 0.94647 0.53662
 N1055 N 0.41613 0.50337 0.05106
 C1056 C 0.40809 0.50068 0.03142
 N1057 N 0.41676 0.51140 0.01505
 N1058 N 0.43298 0.52441 0.01823
 C1059 C 0.44112 0.52718 0.03790
 N1060 N 0.43235 0.51638 0.05425
 C1061 C 0.39062 0.48668 0.02799
 C1062 C 0.37593 0.47492 0.02512
 C1063 C 0.35845 0.46092 0.02172
 N1064 N 0.34709 0.46197 0.00362
 N1065 N 0.33085 0.44897 0.00047
 C1066 C 0.32537 0.43445 0.01529
 N1067 N 0.33684 0.43348 0.03341
 N1068 N 0.35308 0.44648 0.03657
 N1069 N 0.47897 0.47544 0.40718
 C1070 C 0.49923 0.46861 0.40805
 N1071 N 0.50608 0.45850 0.42563
 N1072 N 0.49307 0.45532 0.44184
 C1073 C 0.47273 0.46214 0.44107
 N1074 N 0.46595 0.47226 0.42340
 C1075 C 0.51325 0.47202 0.39058
 C1076 C 0.52501 0.47488 0.37590
 C1077 C 0.53902 0.47829 0.35843
 N1078 N 0.55348 0.46344 0.35308
 N1079 N 0.56648 0.46660 0.33685
 C1080 C 0.56551 0.48471 0.32536
 N1081 N 0.55097 0.49953 0.33082
 N1082 N 0.53796 0.49638 0.34705
 N1083 N -0.01145 -0.01501 0.91675
 C1084 C -0.00073 -0.03138 0.90810
 N1085 N -0.00341 -0.05103 0.91614
 N1086 N -0.01643 -0.05421 0.93236
 C1087 C -0.02723 -0.03785 0.94112
 N1088 N -0.02446 -0.01818 0.93297
 C1089 C 0.01328 -0.02796 0.89063
 C1090 C 0.02505 -0.02510 0.87594
 C1091 C 0.03905 -0.02170 0.85846
 N1092 N 0.05348 -0.03656 0.85310
 N1093 N 0.06648 -0.03341 0.83686
 C1094 C 0.06554 -0.01529 0.82540
 N1095 N 0.05102 -0.00045 0.83088
 N1096 N 0.03802 -0.00359 0.84711
 N1097 N -0.01144 0.01504 0.58332
 C1098 C -0.00074 0.03142 0.59199
 N1099 N -0.00344 0.05107 0.58396
 N1100 N -0.01646 0.05425 0.56774
 C1101 C -0.02724 0.03789 0.55897
 N1102 N -0.02446 0.01822 0.56710
 C1103 C 0.01327 0.02800 0.60946
 C1104 C 0.02504 0.02514 0.62414
 C1105 C 0.03904 0.02174 0.64162
 N1106 N 0.05351 0.03658 0.64696
 N1107 N 0.06651 0.03342 0.66319
 C1108 C 0.06552 0.01531 0.67469
 N1109 N 0.05098 0.00050 0.66924
 N1110 N 0.03797 0.00365 0.65300
 N1111 N 0.48854 0.51500 0.08329
 C1112 C 0.49926 0.53138 0.09194
 N1113 N 0.49659 0.55102 0.08389
 N1114 N 0.48358 0.55420 0.06766
 C1115 C 0.47277 0.53784 0.05891
 N1116 N 0.47553 0.51818 0.06707
 C1117 C 0.51327 0.52796 0.10942
 C1118 C 0.52503 0.52510 0.12411
 C1119 C 0.53903 0.52171 0.14159
 N1120 N 0.55347 0.53657 0.14695
 N1121 N 0.56646 0.53342 0.16319
 C1122 C 0.56551 0.51530 0.17466
 N1123 N 0.55099 0.50046 0.16919
 N1124 N 0.53799 0.50361 0.15295
 N1125 N 0.51145 -0.01513 0.08328
 C1126 C 0.50072 -0.03150 0.09193
 N1127 N 0.50340 -0.05114 0.08388
 N1128 N 0.51642 -0.05433 0.06766
 C1129 C 0.52723 -0.03798 0.05891
 N1130 N 0.52447 -0.01831 0.06706
 C1131 C 0.48671 -0.02807 0.10940
 C1132 C 0.47494 -0.02520 0.12408
 C1133 C 0.46095 -0.02178 0.14156
 N1134 N 0.44651 -0.03662 0.14694
 N1135 N 0.43352 -0.03345 0.16318
 C1136 C 0.43449 -0.01532 0.17464
 N1137 N 0.44902 -0.00050 0.16915
 N1138 N 0.46202 -0.00367 0.15291
 N1139 N 1.01138 0.48494 0.58323
 C1140 C 1.00068 0.46856 0.59190
 N1141 N 1.00337 0.44891 0.58386
 N1142 N 1.01638 0.44573 0.56764
 C1143 C 1.02717 0.46209 0.55887
 N1144 N 1.02439 0.48176 0.56700
 C1145 C 0.98667 0.47198 0.60938
 C1146 C 0.97491 0.47485 0.62407
 C1147 C 0.96092 0.47826 0.64156
 N1148 N 0.94648 0.46342 0.64692
 N1149 N 0.93349 0.46659 0.66317
 C1150 C 0.93447 0.48470 0.67465
 N1151 N 0.94901 0.49952 0.66917
 N1152 N 0.96200 0.49636 0.65292
 N1153 N 1.01149 0.51509 0.91674
 C1154 C 1.00077 0.53146 0.90808
 N1155 N 1.00345 0.55111 0.91613
 N1156 N 1.01647 0.55429 0.93234
 C1157 C 1.02727 0.53793 0.94110
 N1158 N 1.02451 0.51826 0.93295
 C1159 C 0.98676 0.52804 0.89061
 C1160 C 0.97499 0.52517 0.87593
 C1161 C 0.96099 0.52178 0.85845
 N1162 N 0.94656 0.53663 0.85308
 N1163 N 0.93356 0.53348 0.83685
 C1164 C 0.93451 0.51536 0.82538
 N1165 N 0.94903 0.50052 0.83086
 N1166 N 0.96203 0.50367 0.84709
 N1167 N 0.50353 0.05117 0.41607
 C1168 C 0.50085 0.03152 0.40803
 N1169 N 0.51157 0.01515 0.41669
 N1170 N 0.52458 0.01833 0.43290
 C1171 C 0.52735 0.03800 0.44105
 N1172 N 0.51655 0.05435 0.43229
 C1173 C 0.48683 0.02809 0.39056
 C1174 C 0.47506 0.02523 0.37588
 C1175 C 0.46105 0.02182 0.35841
 N1176 N 0.46210 0.00372 0.34705
 N1177 N 0.44910 0.00057 0.33082
 C1178 C 0.43457 0.01539 0.32535
 N1179 N 0.43361 0.03351 0.33682
 N1180 N 0.44661 0.03667 0.35305
   
