data_POSCAR
  _audit_creation_date              2014-09-24
  _audit_creation_method            'ToBaCCo'
  _symmetry_space_group_name_H-M    'P1'
  _symmetry_Int_Tables_number       1
  _symmetry_cell_setting            triclinic
  loop_
  _symmetry_equiv_pos_as_xyz
 x,y,z
_cell_length_a 16.5532
_cell_length_b 19.1361
_cell_length_c 9.3190
_cell_angle_alpha 90.007900
_cell_angle_beta 90.003100
_cell_angle_gamma 89.997800
loop_
  _atom_site_label
  _atom_site_type_symbol
  _atom_site_fract_x
  _atom_site_fract_y
  _atom_site_fract_z
O1 O 0.18508 0.31470 0.10110
 O2 O 0.34423 0.18335 0.15852
 O3 O 0.18985 0.17721 0.10641
 O4 O 0.34076 0.31660 0.16100
 O5 O 0.31357 0.31640 0.39316
 O6 O 0.15452 0.18586 0.33392
 O7 O 0.31218 0.18075 0.38862
 O8 O 0.16006 0.31840 0.33398
 Cu9 Cu 0.26698 0.24826 0.10804
 Cu10 Cu 0.23275 0.24986 0.38601
 C11 C 0.14499 0.33824 0.20690
 C12 C 0.35628 0.16071 0.28458
 C13 C 0.14403 0.15981 0.21000
 C14 C 0.35485 0.33814 0.28751
 O15 O 0.84105 0.31666 0.33940
 O16 O 0.69001 0.17772 0.39523
 O17 O 0.84453 0.18288 0.34137
 O18 O 0.68570 0.31447 0.39754
 O19 O 0.66029 0.31752 0.16467
 O20 O 0.81277 0.17985 0.11123
 O21 O 0.65475 0.18564 0.16757
 O22 O 0.81367 0.31640 0.10731
 Cu23 Cu 0.76760 0.24811 0.39187
 Cu24 Cu 0.73338 0.24910 0.11386
 C25 C 0.85477 0.33845 0.21300
 C26 C 0.64399 0.16026 0.29202
 C27 C 0.85664 0.15986 0.21560
 C28 C 0.64533 0.33757 0.29167
 O29 O 0.81619 0.81596 0.89232
 O30 O 0.65663 0.68492 0.83533
 O31 O 0.80979 0.67858 0.89526
 O32 O 0.65947 0.81814 0.84092
 O33 O 0.68600 0.81764 0.60852
 O34 O 0.84557 0.68724 0.66801
 O35 O 0.68908 0.68169 0.60542
 O36 O 0.84079 0.81974 0.65933
 Cu37 Cu 0.73352 0.74971 0.88970
 Cu38 Cu 0.76759 0.75109 0.61174
 C39 C 0.85621 0.83951 0.78625
 C40 C 0.64492 0.66189 0.70934
 C41 C 0.85575 0.66115 0.79212
 C42 C 0.64492 0.83947 0.71459
 O43 O 0.34175 0.81592 0.83558
 O44 O 0.18289 0.68471 0.89163
 O45 O 0.33924 0.68295 0.83434
 O46 O 0.18858 0.82230 0.88958
 O47 O 0.15295 0.81390 0.66213
 O48 O 0.31218 0.68337 0.60217
 O49 O 0.15755 0.68119 0.65889
 O50 O 0.31008 0.81913 0.60529
 Cu51 Cu 0.26498 0.75094 0.88653
 Cu52 Cu 0.23084 0.74977 0.60852
 C53 C 0.35387 0.83897 0.70987
 C54 C 0.14252 0.66132 0.78599
 C55 C 0.35364 0.66171 0.70778
 C56 C 0.14283 0.83995 0.78619
 C57 C 0.92785 -0.11639 -0.18749
 C58 C 1.00118 -0.14101 -0.24210
 C59 C 1.07531 -0.11758 -0.18755
 C60 C 1.07618 -0.05989 -0.09198
 C61 C 1.00199 -0.02958 -0.04715
 C62 C 0.92752 -0.05900 -0.09244
 C63 C 0.85474 -0.02946 -0.04412
 C64 C 0.85490 0.02805 0.04727
 C65 C 0.92785 0.05836 0.09289
 C66 C 1.00217 0.02933 0.04554
 C67 C 1.14910 -0.02922 -0.04677
 C68 C 1.14930 0.02932 0.04184
 C69 C 1.07659 0.05987 0.08859
 C70 C 1.07621 0.11749 0.18430
 C71 C 1.00230 0.14066 0.24059
 C72 C 0.92853 0.11593 0.18762
 H73 H 0.79690 -0.04999 -0.07821
 H74 H 0.79719 0.04784 0.08370
 H75 H 1.20691 -0.04922 -0.08216
 H76 H 1.20731 0.04934 0.07611
 H77 H 1.00013 -0.18611 -0.31268
 H78 H 1.00168 0.18546 0.31183
 C79 C 0.42647 0.38194 0.31493
 C80 C 0.50024 0.35535 0.26713
 C81 C 0.57366 0.38132 0.31816
 C82 C 0.57422 0.44030 0.40908
 C83 C 0.49978 0.47054 0.45228
 C84 C 0.42552 0.44083 0.40636
 C85 C 0.35252 0.47114 0.45171
 C86 C 0.35232 0.52935 0.54141
 C87 C 0.42511 0.55945 0.58852
 C88 C 0.49959 0.52954 0.54433
 C89 C 0.64703 0.47023 0.45631
 C90 C 0.64688 0.52877 0.54500
 C91 C 0.57390 0.55937 0.58971
 C92 C 0.57303 0.61837 0.68073
 C93 C 0.49920 0.64430 0.73042
 C94 C 0.42559 0.61812 0.68051
 H95 H 0.29486 0.45057 0.41681
 H96 H 0.29446 0.54999 0.57510
 H97 H 0.70485 0.44914 0.42352
 H98 H 0.70459 0.54915 0.58009
 H99 H 0.50043 0.30887 0.20065
 H100 H 0.49899 0.69028 0.79814
 C101 C -0.07391 0.38267 0.18584
 C102 C 0.00003 0.35579 0.23190
 C103 C 0.07324 0.38203 0.18072
 C104 C 0.07340 0.44143 0.09085
 C105 C -0.00125 0.47210 0.04967
 C106 C -0.07527 0.44231 0.09646
 C107 C -0.14840 0.47304 0.05342
 C108 C -0.14906 0.53160 -0.03536
 C109 C -0.07653 0.56183 -0.08427
 C110 C -0.00191 0.53120 -0.04234
 C111 C 0.14597 0.47130 0.04253
 C112 C 0.14537 0.52958 -0.04685
 C113 C 0.07217 0.55993 -0.09124
 C114 C 0.07105 0.61721 -0.18646
 C115 C -0.00274 0.64196 -0.23876
 C116 C -0.07646 0.61896 -0.18146
 H117 H -0.20586 0.45217 0.08866
 H118 H -0.20724 0.55152 -0.06887
 H119 H 0.20392 0.45005 0.07416
 H120 H 0.20288 0.54970 -0.08369
 H121 H 0.00046 0.30891 0.29721
 H122 H -0.00214 0.68682 -0.30996
 C123 C 0.42589 0.88259 0.68296
 C124 C 0.49930 0.85671 0.73474
 C125 C 0.57323 0.88340 0.68792
 C126 C 0.57442 0.94277 0.59809
 C127 C 0.50039 0.97240 0.55109
 C128 C 0.42575 0.94183 0.59260
 C129 C 0.35320 0.97169 0.54413
 C130 C 0.35381 1.02952 0.45369
 C131 C 0.42699 1.05988 0.40926
 C132 C 0.50106 1.03129 0.45859
 C133 C 0.64756 0.97336 0.55486
 C134 C 0.64823 1.03156 0.46544
 C135 C 0.57571 1.06172 0.41640
 C136 C 0.57581 1.11852 0.31869
 C137 C 0.50211 1.14141 0.26090
 C138 C 0.42811 1.11698 0.31356
 H139 H 0.29518 0.95087 0.57635
 H140 H 0.29626 1.04918 0.41618
 H141 H 0.70506 0.95266 0.59037
 H142 H 0.70646 1.05122 0.43158
 H143 H 0.49908 0.81039 0.80145
 H144 H 0.50176 1.18574 0.18847
   
