data_POSCAR
  _audit_creation_date              2014-09-24
  _audit_creation_method            'ToBaCCo'
  _symmetry_space_group_name_H-M    'P1'
  _symmetry_Int_Tables_number       1
  _symmetry_cell_setting            triclinic
  loop_
  _symmetry_equiv_pos_as_xyz
 x,y,z
_cell_length_a 25.8932
_cell_length_b 24.9919
_cell_length_c 34.3265
_cell_angle_alpha 88.601800
_cell_angle_beta 94.104200
_cell_angle_gamma 103.969700
loop_
  _atom_site_label
  _atom_site_type_symbol
  _atom_site_fract_x
  _atom_site_fract_y
  _atom_site_fract_z
O1 O 0.09124 0.57131 1.03603
 O2 O 0.07433 0.46596 0.96022
 O3 O 0.08383 0.57222 0.96004
 O4 O 0.08048 0.46488 1.03609
 O5 O -0.00701 0.45167 1.03575
 O6 O -0.00360 0.55888 0.96000
 O7 O -0.01318 0.45255 0.95983
 O8 O 0.00378 0.55822 1.03600
 Cu9 Cu 0.09124 0.51995 0.99811
 Cu10 Cu -0.01379 0.50403 0.99788
 C11 C 0.05051 0.58288 1.04884
 C12 C 0.02779 0.44106 0.94725
 C13 C 0.04068 0.58402 0.94715
 C14 C 0.03608 0.43978 1.04869
 O15 O 0.53954 0.04698 0.46984
 O16 O 0.44164 0.02908 0.54319
 O17 O 0.54590 0.03021 0.54674
 O18 O 0.43821 0.02557 0.46870
 O19 O 0.42996 -0.06419 0.46397
 O20 O 0.53459 -0.05976 0.54166
 O21 O 0.43039 -0.06120 0.54153
 O22 O 0.53133 -0.04299 0.46772
 Cu23 Cu 0.49350 0.04130 0.50853
 Cu24 Cu 0.47952 -0.06559 0.50447
 C25 C 0.55211 0.00575 0.45591
 C26 C 0.41833 -0.01874 0.55442
 C27 C 0.55898 -0.01429 0.55703
 C28 C 0.41624 -0.02067 0.45279
 C29 C -0.10491 -0.00867 0.27110
 C30 C -0.05793 0.01107 0.25205
 C31 C -0.05037 0.06071 0.23099
 C32 C -0.08997 0.09071 0.22843
 C33 C -0.13712 0.07028 0.24744
 C34 C -0.14444 0.02119 0.26970
 C35 C -0.01656 -0.02036 0.25393
 C36 C -0.02489 -0.06945 0.23303
 C37 C 0.01487 -0.09898 0.23368
 C38 C 0.06263 -0.07960 0.25683
 C39 C 0.07145 -0.03012 0.27783
 C40 C 0.03154 -0.00078 0.27613
 H41 H -0.11013 -0.04689 0.28767
 H42 H -0.01438 0.07432 0.21565
 H43 H -0.06208 -0.08405 0.21563
 H44 H 0.03767 0.03722 0.29232
 H45 H -0.16798 0.09282 0.24440
 H46 H 0.09192 -0.10396 0.25981
 C47 C -0.00613 -0.05961 0.76625
 C48 C -0.00815 -0.00993 0.74717
 C49 C -0.05639 -0.00315 0.72906
 C50 C -0.10272 -0.04598 0.72939
 C51 C -0.10058 -0.09520 0.74965
 C52 C -0.05241 -0.10261 0.76785
 C53 C 0.04008 0.03561 0.74714
 C54 C 0.08415 0.03013 0.72751
 C55 C 0.13054 0.07327 0.72785
 C56 C 0.13202 0.12174 0.74825
 C57 C 0.08815 0.12775 0.76801
 C58 C 0.04212 0.08422 0.76728
 H59 H 0.03117 -0.06314 0.78113
 H60 H -0.05753 0.03537 0.71419
 H61 H 0.08117 -0.00727 0.71140
 H62 H 0.00826 0.08681 0.78323
 H63 H -0.13636 -0.12779 0.75189
 H64 H 0.16765 0.15517 0.74871
 C65 C 0.05850 -0.37410 0.07864
 C66 C 0.01611 -0.35676 0.09291
 C67 C 0.02350 -0.31083 0.12089
 C68 C -0.01759 -0.28350 0.12301
 C69 C -0.01154 -0.23875 0.14804
 C70 C 0.03575 -0.22083 0.17193
 C71 C 0.07646 -0.24878 0.17025
 C72 C 0.07037 -0.29352 0.14528
 C73 C 0.04527 -0.17202 0.19754
 C74 C 0.00466 -0.15000 0.21025
 H75 H -0.02407 -0.37532 0.08124
 H76 H -0.05412 -0.29603 0.10458
 H77 H -0.04342 -0.21767 0.14760
 H78 H 0.11320 -0.23596 0.18841
 H79 H 0.10237 -0.31445 0.14552
 H80 H 0.08636 -0.15267 0.20630
 H81 H 0.09920 -0.35410 0.08802
 H82 H -0.03645 -0.16931 0.20153
 C83 C 0.03499 0.39590 0.07819
 C84 C -0.01272 0.36581 0.09245
 C85 C -0.01674 0.31845 0.11989
 C86 C -0.06400 0.29968 0.13899
 C87 C -0.07059 0.25379 0.16390
 C88 C -0.03006 0.22518 0.16990
 C89 C 0.01751 0.24443 0.15127
 C90 C 0.02409 0.29028 0.12633
 C91 C -0.03551 0.17553 0.19527
 C92 C -0.08459 0.14210 0.20492
 H93 H -0.04930 0.37767 0.08311
 H94 H -0.09604 0.32067 0.13465
 H95 H -0.10723 0.24152 0.17856
 H96 H 0.04940 0.22321 0.15542
 H97 H 0.06068 0.30238 0.11161
 H98 H 0.00089 0.16422 0.20557
 H99 H 0.07264 0.38727 0.08838
 H100 H -0.12104 0.15362 0.19507
 C101 C 0.37615 -0.02505 0.58204
 C102 C 0.36028 0.02104 0.59449
 C103 C 0.31558 0.01943 0.61950
 C104 C 0.29693 0.06743 0.62188
 C105 C 0.25507 0.06879 0.64495
 C106 C 0.23122 0.02221 0.66681
 C107 C 0.24949 -0.02606 0.66426
 C108 C 0.29146 -0.02749 0.64100
 C109 C 0.18630 0.02231 0.69128
 C110 C 0.17723 0.07075 0.70595
 H111 H 0.38045 0.06124 0.58372
 H112 H 0.31446 0.10405 0.60541
 H113 H 0.24101 0.10617 0.64486
 H114 H 0.23154 -0.06265 0.68060
 H115 H 0.30501 -0.06509 0.64043
 H116 H 0.16116 -0.01717 0.69900
 H117 H 0.35623 -0.06622 0.59089
 H118 H 0.20656 0.10913 0.70211
 C119 C -0.39636 -0.01284 0.58645
 C120 C -0.38071 -0.06111 0.59758
 C121 C -0.33329 -0.06377 0.62378
 C122 C -0.30352 -0.01882 0.64609
 C123 C -0.25844 -0.02377 0.66969
 C124 C -0.24214 -0.07367 0.67131
 C125 C -0.27270 -0.11869 0.64978
 C126 C -0.31761 -0.11379 0.62632
 C127 C -0.19426 -0.08107 0.69515
 C128 C -0.15243 -0.03755 0.70864
 H129 H -0.40336 -0.09960 0.58474
 H130 H -0.31487 0.02004 0.64585
 H131 H -0.23711 0.01138 0.68686
 H132 H -0.26146 -0.15776 0.65073
 H133 H -0.33993 -0.14925 0.60973
 H134 H -0.19010 -0.12288 0.69942
 H135 H -0.37472 0.02679 0.59783
 H136 H -0.15379 0.00432 0.70090
 C137 C 0.04263 -0.37451 0.91897
 C138 C -0.00318 -0.35895 0.90362
 C139 C -0.00261 -0.31250 0.87581
 C140 C -0.05063 -0.30885 0.85544
 C141 C -0.05266 -0.26449 0.83026
 C142 C -0.00657 -0.22230 0.82524
 C143 C 0.04165 -0.22642 0.84505
 C144 C 0.04368 -0.27073 0.87028
 C145 C -0.00694 -0.17344 0.79996
 C146 C -0.05276 -0.15438 0.79003
 H147 H -0.04178 -0.38213 0.91221
 H148 H -0.08684 -0.34050 0.85905
 H149 H -0.09030 -0.26391 0.81467
 H150 H 0.07775 -0.19452 0.84169
 H151 H 0.08129 -0.27103 0.88599
 H152 H 0.03105 -0.15049 0.79039
 H153 H 0.08127 -0.35411 0.90910
 H154 H -0.09084 -0.17767 0.79919
 C155 C 0.02080 0.39773 0.91772
 C156 C 0.06435 0.38112 0.90467
 C157 C 0.05971 0.33465 0.87761
 C158 C 0.10330 0.31072 0.87629
 C159 C 0.10065 0.26610 0.85188
 C160 C 0.05438 0.24487 0.82768
 C161 C 0.01089 0.26907 0.82875
 C162 C 0.01352 0.31370 0.85325
 C163 C 0.04921 0.19633 0.80243
 C164 C 0.09294 0.17878 0.79053
 H165 H 0.10396 0.40109 0.91675
 H166 H 0.13932 0.32596 0.89481
 H167 H 0.13450 0.24775 0.85290
 H168 H -0.02525 0.25347 0.81046
 H169 H -0.02050 0.33173 0.85263
 H170 H 0.00938 0.17491 0.79192
 H171 H -0.01949 0.37704 0.90783
 H172 H 0.13269 0.20424 0.79689
 C173 C -0.41099 0.01537 0.42745
 C174 C -0.39258 -0.02610 0.41042
 C175 C -0.35202 -0.01325 0.38106
 C176 C -0.31610 -0.04682 0.37863
 C177 C -0.27504 -0.03322 0.35305
 C178 C -0.26973 0.01400 0.32897
 C179 C -0.30692 0.04632 0.33050
 C180 C -0.34783 0.03271 0.35598
 C181 C -0.22466 0.03309 0.30371
 C182 C -0.19242 -0.00018 0.29187
 H183 H -0.40515 -0.06824 0.42080
 H184 H -0.31870 -0.08261 0.39752
 H185 H -0.24676 -0.05875 0.35340
 H186 H -0.30404 0.08263 0.31211
 H187 H -0.37599 0.05841 0.35594
 H188 H -0.21625 0.07598 0.29493
 H189 H -0.39502 0.05790 0.41908
 H190 H -0.20074 -0.04307 0.30066
 C191 C 0.37444 -0.02514 0.42098
 C192 C 0.35145 0.01816 0.40923
 C193 C 0.30682 0.01080 0.37883
 C194 C 0.26846 0.04167 0.38063
 C195 C 0.22387 0.03255 0.35388
 C196 C 0.21711 -0.00755 0.32459
 C197 C 0.25706 -0.03616 0.32161
 C198 C 0.30141 -0.02719 0.34837
 C199 C 0.16922 -0.02157 0.29696
 C200 C 0.12051 -0.00964 0.30338
 H201 H 0.36337 0.05680 0.42488
 H202 H 0.27232 0.07193 0.40340
 H203 H 0.19513 0.05702 0.35643
 H204 H 0.25343 -0.06649 0.29892
 H205 H 0.33130 -0.05014 0.34511
 H206 H 0.17185 -0.04505 0.27140
 H207 H 0.35946 -0.06527 0.40775
 H208 H 0.11743 0.01532 0.32798
   
