data_POSCAR
  _audit_creation_date              2014-09-24
  _audit_creation_method            'ToBaCCo'
  _symmetry_space_group_name_H-M    'P1'
  _symmetry_Int_Tables_number       1
  _symmetry_cell_setting            triclinic
  loop_
  _symmetry_equiv_pos_as_xyz
 x,y,z
_cell_length_a 25.3440
_cell_length_b 24.8894
_cell_length_c 25.0427
_cell_angle_alpha 89.350200
_cell_angle_beta 89.658300
_cell_angle_gamma 90.319800
loop_
  _atom_site_label
  _atom_site_type_symbol
  _atom_site_fract_x
  _atom_site_fract_y
  _atom_site_fract_z
C1 C 1.25201 0.24966 0.25484
 C2 C 0.75244 -0.24624 0.25391
 C3 C 0.74411 0.24872 -0.24780
 C4 C 1.24243 -0.25576 -0.24728
 C5 C 0.25691 0.25907 0.74571
 C6 C 0.75749 0.76290 0.75087
 C7 C 0.74690 0.24759 0.25511
 C8 C 0.24938 0.75422 0.24317
 N9 N 0.93885 0.09954 0.05414
 N10 N 0.90313 0.13653 0.06480
 N11 N 1.04819 0.07031 0.09826
 N12 N 1.08246 0.08185 0.13587
 N13 N 1.04934 0.10709 0.06018
 N14 N 1.08470 0.14463 0.07081
 N15 N 0.93802 0.06152 0.09099
 N16 N 0.90161 0.07158 0.12732
 C17 C 0.87928 0.11779 0.10989
 C18 C 1.10523 0.12785 0.11791
 N19 N 1.06337 -0.08175 0.06486
 N20 N 1.10111 -0.11526 0.07891
 N21 N 0.94657 -0.05475 0.09383
 N22 N 0.91039 -0.06924 0.12946
 N23 N 0.95337 -0.09292 0.05865
 N24 N 0.92240 -0.13452 0.06972
 N25 N 1.05690 -0.04480 0.10134
 N26 N 1.08991 -0.05236 0.14129
 Mn27 Mn 0.99720 0.00810 0.09652
 C28 C 1.11793 -0.09568 0.12605
 C29 C 0.89529 -0.11876 0.11345
 N30 N 1.05656 0.10703 -0.05561
 N31 N 1.08874 0.14763 -0.06721
 N32 N 0.95113 0.06005 -0.09698
 N33 N 0.91664 0.06670 -0.13565
 N34 N 0.94574 0.09758 -0.06106
 N35 N 0.90685 0.13014 -0.07422
 N36 N 1.06125 0.06914 -0.09137
 N37 N 1.09658 0.08291 -0.12803
 Mn38 Mn 0.99768 0.10340 -0.00060
 C39 C 1.11430 0.13148 -0.11197
 C40 C 0.88836 0.11005 -0.12082
 N41 N 0.96039 -0.09309 -0.05656
 N42 N 0.92444 -0.13044 -0.06621
 N43 N 1.06983 -0.04623 -0.08795
 N44 N 1.10419 -0.05736 -0.12580
 N45 N 1.07105 -0.08322 -0.05023
 N46 N 1.10655 -0.12013 -0.06187
 N47 N 0.95947 -0.05538 -0.09363
 N48 N 0.92296 -0.06584 -0.12932
 Mn49 Mn 1.01217 -0.08824 0.00418
 Mn50 Mn 1.01041 0.00682 -0.09283
 Cl51 Cl 1.00433 0.00757 0.00186
 C52 C 0.90098 -0.11241 -0.11149
 C53 C 1.12799 -0.10292 -0.10890
 N54 N 1.04635 0.40483 0.56833
 N55 N 1.08258 0.36947 0.58214
 N56 N 0.93282 0.44700 0.59266
 N57 N 0.89600 0.43654 0.62885
 N58 N 0.93609 0.40768 0.55827
 N59 N 0.90174 0.36940 0.57033
 N60 N 1.04275 0.44268 0.60411
 N61 N 1.07615 0.43415 0.64351
 C62 C 1.10076 0.38851 0.62907
 C63 C 0.87614 0.38868 0.61347
 N64 N 0.94458 0.59952 0.55088
 N65 N 0.91912 0.64379 0.56398
 N66 N 1.04802 0.55704 0.59870
 N67 N 1.07992 0.56618 0.63884
 N68 N 1.05475 0.59302 0.56043
 N69 N 1.09189 0.62776 0.57361
 N70 N 0.93898 0.56297 0.58885
 N71 N 0.91032 0.58201 0.62838
 Mn72 Mn 0.99040 0.50237 0.59620
 C73 C 0.89768 0.63237 0.61246
 C74 C 1.10750 0.60966 0.62222
 N75 N 0.94685 0.40317 0.44414
 N76 N 0.91630 0.36268 0.43024
 N77 N 1.06178 0.43613 0.41525
 N78 N 1.09963 0.42208 0.38191
 N79 N 1.05684 0.40032 0.45381
 N80 N 1.09078 0.36095 0.44720
 N81 N 0.95144 0.43839 0.40480
 N82 N 0.92440 0.42189 0.36291
 Mn83 Mn 0.99661 0.40369 0.50617
 C84 C 0.90247 0.37460 0.37951
 C85 C 1.11807 0.37520 0.40262
 N86 N 1.06498 0.59084 0.44460
 N87 N 1.09606 0.63107 0.42906
 N88 N 0.95615 0.55642 0.39999
 N89 N 0.92402 0.56770 0.36006
 N90 N 0.95490 0.59490 0.43554
 N91 N 0.92162 0.63284 0.42097
 N92 N 1.06648 0.55196 0.40946
 N93 N 1.09904 0.56473 0.36991
 Mn94 Mn 1.00490 0.59492 0.49784
 Mn95 Mn 1.00880 0.49573 0.40693
 Cl96 Cl 0.99995 0.49931 0.50157
 C97 C 1.11755 0.61398 0.38270
 C98 C 0.90189 0.61505 0.37421
 N99 N 0.58689 0.05601 0.56035
 N100 N 0.62642 0.08698 0.57554
 N101 N 0.54893 -0.05582 0.60114
 N102 N 0.55734 -0.09173 0.63912
 N103 N 0.58701 -0.05671 0.56547
 N104 N 0.62180 -0.09392 0.57801
 N105 N 0.54895 0.05632 0.59634
 N106 N 0.56150 0.08760 0.63645
 C107 C 0.60966 0.10666 0.62280
 C108 C 0.60254 -0.11604 0.62399
 N109 N 0.40102 -0.05764 0.55919
 N110 N 0.36157 -0.08995 0.57116
 N111 N 0.43626 0.05626 0.59266
 N112 N 0.42229 0.09121 0.62928
 N113 N 0.40124 0.05460 0.55439
 N114 N 0.36229 0.08796 0.56434
 N115 N 0.43493 -0.05581 0.59847
 N116 N 0.41841 -0.08607 0.63896
 Mn117 Mn 0.49234 0.00008 0.59752
 C118 C 0.37243 -0.10711 0.62105
 C119 C 0.37659 0.11173 0.61041
 N120 N 0.59235 -0.06160 0.45140
 N121 N 0.63307 -0.09305 0.44219
 N122 N 0.55542 0.04723 0.40575
 N123 N 0.56282 0.08514 0.36937
 N124 N 0.58992 0.05191 0.44433
 N125 N 0.62141 0.09367 0.43503
 N126 N 0.55738 -0.06551 0.41303
 N127 N 0.57433 -0.09930 0.37626
 Mn128 Mn 0.58957 -0.00234 0.50530
 C129 C 0.62089 -0.11731 0.39594
 C130 C 0.60360 0.11462 0.38806
 N131 N 0.40559 0.04927 0.44005
 N132 N 0.37049 0.08616 0.42798
 N133 N 0.44107 -0.06663 0.41030
 N134 N 0.42755 -0.10143 0.37329
 N135 N 0.40298 -0.06272 0.44588
 N136 N 0.36287 -0.09444 0.43402
 N137 N 0.44194 0.04605 0.40266
 N138 N 0.43234 0.08077 0.36372
 Mn139 Mn 0.40255 -0.00396 0.49987
 Mn140 Mn 0.49904 -0.01012 0.40733
 Cl141 Cl 0.49598 -0.00419 0.50236
 C142 C 0.38819 0.10588 0.38080
 C143 C 0.37913 -0.11922 0.38931
 N144 N 0.59568 0.55954 0.06250
 N145 N 0.63490 0.59047 0.07854
 N146 N 0.55721 0.44593 0.09534
 N147 N 0.57000 0.41398 0.13552
 N148 N 0.59542 0.44775 0.05957
 N149 N 0.63534 0.41759 0.07526
 N150 N 0.55727 0.55865 0.09794
 N151 N 0.56941 0.58961 0.13835
 C152 C 0.61781 0.60954 0.12595
 C153 C 0.61876 0.39650 0.12258
 N154 N 0.40944 0.44416 0.05364
 N155 N 0.36930 0.41215 0.06507
 N156 N 0.44216 0.55711 0.09635
 N157 N 0.42774 0.59016 0.13479
 N158 N 0.40669 0.55656 0.05839
 N159 N 0.36779 0.58955 0.06942
 N160 N 0.44324 0.44484 0.09318
 N161 N 0.42623 0.41378 0.13280
 Mn162 Mn 0.50006 0.50181 0.09609
 C163 C 0.38011 0.39347 0.11453
 C164 C 0.38178 0.61104 0.11660
 N165 N 0.59801 0.45312 -0.05620
 N166 N 0.63640 0.41991 -0.06849
 N167 N 0.56156 0.56834 -0.08932
 N168 N 0.57648 0.60058 -0.12875
 N169 N 0.59866 0.56532 -0.05290
 N170 N 0.63989 0.59497 -0.06742
 N171 N 0.56317 0.45564 -0.09480
 N172 N 0.57698 0.42383 -0.13432
 Mn173 Mn 0.59719 0.50633 0.00318
 C174 C 0.62267 0.40179 -0.11715
 C175 C 0.62530 0.61700 -0.11470
 N176 N 0.41021 0.56273 -0.05494
 N177 N 0.37196 0.59702 -0.06439
 N178 N 0.44951 0.45389 -0.09753
 N179 N 0.43958 0.42107 -0.13726
 N180 N 0.41240 0.45018 -0.06095
 N181 N 0.37628 0.41461 -0.07481
 N182 N 0.44727 0.56661 -0.09161
 N183 N 0.43476 0.60372 -0.12748
 Mn184 Mn 0.40951 0.50319 -0.00103
 Mn185 Mn 0.50538 0.51129 -0.09376
 Cl186 Cl 0.50312 0.50566 0.00120
 C187 C 0.38836 0.62324 -0.10888
 C188 C 0.39440 0.39578 -0.12202
 C189 C 1.23466 0.18663 0.17040
 C190 C 1.21560 0.21434 0.21728
 C191 C 1.16037 0.21152 0.22702
 C192 C 1.12607 0.18386 0.19429
 C193 C 1.14411 0.15823 0.14895
 C194 C 1.19834 0.15920 0.13632
 C195 C 1.28898 0.18310 0.15733
 C196 C 1.30663 0.15540 0.11266
 C197 C 1.27093 0.12968 0.07975
 C198 C 1.21726 0.13154 0.09120
 H199 H 1.31915 0.19861 0.18263
 H200 H 1.34847 0.15309 0.10411
 H201 H 1.28490 0.10794 0.04529
 H202 H 1.19080 0.11057 0.06471
 H203 H 1.14148 0.23260 0.25905
 H204 H 1.08436 0.18320 0.20422
 C205 C 1.23306 0.66659 0.68253
 C206 C 1.21007 0.70088 0.72252
 C207 C 1.15561 0.69464 0.73327
 C208 C 1.12353 0.66433 0.70057
 C209 C 1.14442 0.63792 0.65666
 C210 C 1.19937 0.63661 0.64837
 C211 C 1.28820 0.66216 0.67457
 C212 C 1.30907 0.63112 0.63364
 C213 C 1.27578 0.60336 0.59966
 C214 C 1.22138 0.60576 0.60693
 H215 H 1.31618 0.68104 0.70045
 H216 H 1.35140 0.62840 0.62846
 H217 H 1.29220 0.57932 0.56794
 H218 H 1.19679 0.58284 0.58019
 H219 H 1.13631 0.71497 0.76579
 H220 H 1.08147 0.66287 0.70869
 C221 C 0.67672 0.16671 0.74546
 C222 C 0.70353 0.21218 0.72108
 C223 C 0.69699 0.21918 0.66512
 C224 C 0.66678 0.18474 0.63483
 C225 C 0.64223 0.14026 0.65781
 C226 C 0.64850 0.12948 0.71302
 C227 C 0.67736 0.15675 0.80127
 C228 C 0.65611 0.10983 0.82351
 C229 C 0.63289 0.07173 0.79106
 C230 C 0.62870 0.08141 0.73645
 H231 H 0.69307 0.18533 0.82888
 H232 H 0.65790 0.10292 0.86621
 H233 H 0.61743 0.03478 0.80835
 H234 H 0.61077 0.05022 0.71291
 H235 H 0.71705 0.24993 0.64229
 H236 H 0.66307 0.19277 0.59236
 C237 C 0.65438 0.72017 0.22436
 C238 C 0.71101 0.72370 0.21757
 C239 C 0.73283 0.69089 0.17713
 C240 C 0.70217 0.65609 0.14696
 C241 C 0.64938 0.64622 0.16024
 C242 C 0.62751 0.67432 0.20368
 C243 C 0.62328 0.75614 0.25416
 C244 C 0.57557 0.73950 0.27678
 C245 C 0.55724 0.68767 0.26801
 C246 C 0.58152 0.65620 0.23021
 H247 H 0.63546 0.79637 0.26313
 H248 H 0.55476 0.76610 0.30334
 H249 H 0.52391 0.67102 0.28938
 H250 H 0.56587 0.61625 0.22583
 H251 H 0.77475 0.69123 0.16898
 H252 H 0.72099 0.63429 0.11495
 C253 C 0.76745 -0.17010 0.17873
 C254 C 0.78719 -0.21383 0.21125
 C255 C 0.83994 -0.22963 0.20057
 C256 C 0.87383 -0.19917 0.16819
 C257 C 0.85641 -0.15272 0.14253
 C258 C 0.80255 -0.13943 0.14511
 C259 C 0.71389 -0.15534 0.17888
 C260 C 0.69499 -0.11362 0.14689
 C261 C 0.72920 -0.08480 0.11384
 C262 C 0.78267 -0.09688 0.11341
 H263 H 0.68579 -0.17586 0.20297
 H264 H 0.65345 -0.10371 0.14772
 H265 H 0.71438 -0.05250 0.08892
 H266 H 0.80805 -0.07334 0.08714
 H267 H 0.85622 -0.26610 0.21709
 H268 H 0.91453 -0.21161 0.16391
 C269 C 0.75385 0.33298 0.68556
 C270 C 0.77623 0.28628 0.71192
 C271 C 0.83079 0.27728 0.70328
 C272 C 0.86135 0.31016 0.67055
 C273 C 0.84040 0.35581 0.64676
 C274 C 0.78694 0.36859 0.65487
 C275 C 0.69922 0.34478 0.68734
 C276 C 0.67897 0.39140 0.66416
 C277 C 0.71208 0.42702 0.63698
 C278 C 0.76544 0.41548 0.63155
 H279 H 0.67078 0.31741 0.70433
 H280 H 0.63710 0.39948 0.66663
 H281 H 0.69611 0.46309 0.61889
 H282 H 0.78960 0.44342 0.60859
 H283 H 0.85207 0.24557 0.72291
 H284 H 0.90276 0.30071 0.66519
 C285 C 0.25636 -0.19693 0.66126
 C286 C 0.27628 -0.22230 0.70940
 C287 C 0.33159 -0.21628 0.71617
 C288 C 0.36102 -0.17753 0.68917
 C289 C 0.33754 -0.14346 0.65219
 C290 C 0.28385 -0.15167 0.63921
 C291 C 0.21374 -0.21657 0.63030
 C292 C 0.19216 -0.18629 0.58871
 C293 C 0.21204 -0.13555 0.57700
 C294 C 0.25738 -0.11792 0.60240
 H295 H 0.19395 -0.25369 0.63784
 H296 H 0.15817 -0.20123 0.56737
 H297 H 0.19319 -0.11044 0.54723
 H298 H 0.27155 -0.07808 0.59234
 H299 H 0.35430 -0.24231 0.74152
 H300 H 0.40305 -0.17507 0.69666
 C301 C 0.25729 0.32561 0.17851
 C302 C 0.28284 0.28992 0.21612
 C303 C 0.33881 0.29045 0.21571
 C304 C 0.36818 0.32387 0.18265
 C305 C 0.34423 0.35920 0.14723
 C306 C 0.28821 0.36117 0.14517
 C307 C 0.20161 0.32935 0.17517
 C308 C 0.17718 0.36552 0.14073
 C309 C 0.20721 0.40066 0.10985
 C310 C 0.26192 0.39940 0.11265
 H311 H 0.17562 0.30712 0.20100
 H312 H 0.13454 0.36756 0.13948
 H313 H 0.18798 0.43002 0.08447
 H314 H 0.28241 0.43011 0.09011
 H315 H 0.36201 0.26328 0.23950
 H316 H 0.41084 0.32133 0.18441
 C317 C 0.80613 0.16214 -0.24005
 C318 C 0.78208 0.20881 -0.21632
 C319 C 0.78972 0.21489 -0.16073
 C320 C 0.82249 0.18169 -0.13129
 C321 C 0.84704 0.13732 -0.15385
 C322 C 0.83474 0.12437 -0.20764
 C323 C 0.80312 0.15198 -0.29552
 C324 C 0.82051 0.10393 -0.31708
 C325 C 0.84217 0.06482 -0.28431
 C326 C 0.84969 0.07487 -0.23039
 H327 H 0.78876 0.18126 -0.32351
 H328 H 0.81665 0.09686 -0.35946
 H329 H 0.85394 0.02668 -0.30086
 H330 H 0.86505 0.04205 -0.20711
 H331 H 0.77039 0.24558 -0.13806
 H332 H 0.82853 0.19124 -0.08966
 C333 C 0.77696 0.65505 0.29622
 C334 C 0.78679 0.71197 0.28752
 C335 C 0.83057 0.73348 0.31486
 C336 C 0.86703 0.70143 0.34132
 C337 C 0.86230 0.64553 0.34244
 C338 C 0.81709 0.62157 0.31937
 C339 C 0.72722 0.63053 0.28837
 C340 C 0.71985 0.57515 0.29190
 C341 C 0.76101 0.54241 0.30753
 C342 C 0.80857 0.56530 0.32296
 H343 H 0.69211 0.65321 0.28452
 H344 H 0.68135 0.55780 0.28436
 H345 H 0.75503 0.49938 0.31091
 H346 H 0.83733 0.53808 0.33916
 H347 H 0.83797 0.77616 0.31445
 H348 H 0.90013 0.72085 0.36053
 C349 C 0.32495 0.23509 0.32993
 C350 C 0.29194 0.21395 0.28799
 C351 C 0.29451 0.15778 0.27939
 C352 C 0.32783 0.12456 0.30798
 C353 C 0.35833 0.14461 0.34898
 C354 C 0.35643 0.19954 0.36147
 C355 C 0.32889 0.29069 0.34084
 C356 C 0.35855 0.30982 0.38334
 C357 C 0.38652 0.27444 0.41550
 C358 C 0.38621 0.21986 0.40436
 H359 H 0.31127 0.32065 0.31577
 H360 H 0.36039 0.35253 0.39090
 H361 H 0.40958 0.28949 0.44841
 H362 H 0.40987 0.19380 0.42937
 H363 H 0.26918 0.13734 0.25186
 H364 H 0.32789 0.08192 0.29955
 C365 C 0.31563 0.74299 -0.17028
 C366 C 0.28007 0.71491 -0.20566
 C367 C 0.27780 0.65818 -0.19949
 C368 C 0.31395 0.63010 -0.16911
 C369 C 0.35251 0.65676 -0.14046
 C370 C 0.35235 0.71328 -0.13850
 C371 C 0.31704 0.79985 -0.16680
 C372 C 0.35231 0.82593 -0.13321
 C373 C 0.38758 0.79652 -0.10251
 C374 C 0.38791 0.74073 -0.10517
 H375 H 0.29191 0.82526 -0.19059
 H376 H 0.35255 0.86937 -0.13137
 H377 H 0.41494 0.81706 -0.07661
 H378 H 0.41599 0.71922 -0.08064
 H379 H 0.24855 0.63359 -0.21872
 H380 H 0.31159 0.58657 -0.16784
 C381 C 1.17894 -0.17092 -0.23358
 C382 C 1.20474 -0.21762 -0.21333
 C383 C 1.19783 -0.22683 -0.15764
 C384 C 1.17636 -0.18806 -0.12409
 C385 C 1.16161 -0.13737 -0.14380
 C386 C 1.16775 -0.12716 -0.19939
 C387 C 1.15447 -0.16940 -0.28351
 C388 C 1.13737 -0.12092 -0.30584
 C389 C 1.14245 -0.07379 -0.27698
 C390 C 1.15674 -0.07680 -0.22337
 H391 H 1.14472 -0.20607 -0.30332
 H392 H 1.12021 -0.11997 -0.34530
 H393 H 1.13176 -0.03561 -0.29484
 H394 H 1.15817 -0.03989 -0.20120
 H395 H 1.20934 -0.26439 -0.13911
 H396 H 1.17084 -0.19825 -0.08225
 C397 C 1.19200 0.25430 0.34309
 C398 C 1.21807 0.28063 0.29832
 C399 C 1.21575 0.33746 0.29720
 C400 C 1.18536 0.36636 0.33261
 C401 C 1.15782 0.34140 0.37437
 C402 C 1.16524 0.28531 0.38297
 C403 C 1.19063 0.19763 0.34894
 C404 C 1.16996 0.17268 0.39448
 C405 C 1.14940 0.20325 0.43539
 C406 C 1.14674 0.25881 0.42982
 H407 H 1.20369 0.17138 0.31801
 H408 H 1.17025 0.12930 0.39814
 H409 H 1.13488 0.18378 0.47150
 H410 H 1.13197 0.27997 0.46387
 H411 H 1.23796 0.36168 0.26918
 H412 H 1.18337 0.40952 0.32679
 C413 C 0.73824 -0.15230 0.30563
 C414 C 0.72856 -0.20895 0.29864
 C415 C 0.69606 -0.23352 0.33831
 C416 C 0.66133 -0.20347 0.36939
 C417 C 0.66026 -0.14762 0.36464
 C418 C 0.70123 -0.12137 0.33575
 C419 C 0.78502 -0.12581 0.28828
 C420 C 0.79179 -0.07058 0.29387
 C421 C 0.75315 -0.04026 0.31855
 C422 C 0.70807 -0.06513 0.33915
 H423 H 0.81855 -0.14685 0.27286
 H424 H 0.82780 -0.05135 0.27987
 H425 H 0.75915 0.00243 0.32371
 H426 H 0.67991 -0.04016 0.35979
 H427 H 0.69255 -0.27665 0.34105
 H428 H 0.63346 -0.22421 0.39545
 C429 C 0.74084 0.33289 -0.18323
 C430 C 0.71475 0.28804 -0.20830
 C431 C 0.65925 0.28411 -0.20096
 C432 C 0.63079 0.32132 -0.17199
 C433 C 0.65551 0.36522 -0.14908
 C434 C 0.71057 0.37245 -0.15579
 C435 C 0.79642 0.33980 -0.18460
 C436 C 0.82063 0.38544 -0.16417
 C437 C 0.79047 0.42549 -0.14135
 C438 C 0.73607 0.41921 -0.13697
 H439 H 0.82239 0.30973 -0.20007
 H440 H 0.86312 0.38979 -0.16628
 H441 H 0.80936 0.46139 -0.12645
 H442 H 0.71438 0.45194 -0.11953
 H443 H 0.63572 0.25357 -0.21956
 H444 H 0.58851 0.31580 -0.16766
 C445 C 1.23676 0.21397 -0.15595
 C446 C 1.22489 0.22323 -0.21182
 C447 C 1.18077 0.19491 -0.23171
 C448 C 1.14611 0.16627 -0.19881
 C449 C 1.15264 0.16454 -0.14359
 C450 C 1.19792 0.18910 -0.12141
 C451 C 1.28686 0.22413 -0.13334
 C452 C 1.29502 0.22124 -0.07847
 C453 C 1.25467 0.20426 -0.04468
 C454 C 1.20729 0.18621 -0.06584
 H455 H 1.32144 0.23171 -0.15697
 H456 H 1.33328 0.23125 -0.06222
 H457 H 1.26106 0.20269 -0.00208
 H458 H 1.17887 0.16921 -0.03812
 H459 H 1.17180 0.19606 -0.27371
 H460 H 1.11276 0.14617 -0.21691
 C461 C 1.17052 0.68547 0.25577
 C462 C 1.21360 0.71756 0.27713
 C463 C 1.22333 0.70940 0.33284
 C464 C 1.19170 0.67690 0.36560
 C465 C 1.14863 0.64909 0.34553
 C466 C 1.13667 0.65440 0.29061
 C467 C 1.15856 0.68470 0.20073
 C468 C 1.11437 0.65843 0.18087
 C469 C 1.07979 0.63229 0.21540
 C470 C 1.09042 0.63051 0.26969
 H471 H 1.18212 0.70498 0.17204
 H472 H 1.10634 0.65951 0.13846
 H473 H 1.04451 0.61335 0.20011
 H474 H 1.06108 0.61120 0.29482
 H475 H 1.25693 0.72666 0.35273
 H476 H 1.20184 0.67262 0.40742
 C477 C 0.65514 0.19696 0.26928
 C478 C 0.70348 0.21871 0.29085
 C479 C 0.70934 0.21421 0.34702
 C480 C 0.67552 0.18268 0.37852
 C481 C 0.63034 0.15907 0.35716
 C482 C 0.61642 0.17304 0.30401
 C483 C 0.64515 0.19489 0.21381
 C484 C 0.59571 0.18078 0.19427
 C485 C 0.55526 0.16695 0.22942
 C486 C 0.56547 0.16252 0.28379
 H487 H 0.67564 0.20156 0.18468
 H488 H 0.58875 0.18090 0.15166
 H489 H 0.51626 0.15800 0.21439
 H490 H 0.53263 0.15234 0.30967
 H491 H 0.74126 0.23332 0.36774
 H492 H 0.68557 0.17594 0.42004
 C493 C 0.69234 0.67875 -0.23923
 C494 C 0.72538 0.71931 -0.21493
 C495 C 0.72684 0.71925 -0.15830
 C496 C 0.69512 0.68545 -0.12719
 C497 C 0.66121 0.64838 -0.15034
 C498 C 0.66198 0.64235 -0.20653
 C499 C 0.69047 0.67141 -0.29532
 C500 C 0.66128 0.63022 -0.31814
 C501 C 0.63413 0.59380 -0.28601
 C502 C 0.63501 0.59913 -0.23090
 H503 H 0.71342 0.69497 -0.32287
 H504 H 0.66130 0.62546 -0.36106
 H505 H 0.61312 0.56058 -0.30381
 H506 H 0.61595 0.56752 -0.20805
 H507 H 0.74966 0.74805 -0.13633
 H508 H 0.69593 0.68965 -0.08417
 C509 C 0.78706 -0.13988 -0.20683
 C510 C 0.79150 -0.19789 -0.21310
 C511 C 0.83215 -0.22342 -0.18368
 C512 C 0.86516 -0.19601 -0.14918
 C513 C 0.85911 -0.14131 -0.14084
 C514 C 0.81778 -0.11369 -0.16669
 C515 C 0.75589 -0.10541 -0.23947
 C516 C 0.74727 -0.05177 -0.22678
 C517 C 0.77118 -0.02957 -0.18265
 C518 C 0.80708 -0.05968 -0.15351
 H519 H 0.73969 -0.11672 -0.27697
 H520 H 0.72220 -0.02712 -0.25181
 H521 H 0.76366 0.01184 -0.17234
 H522 H 0.82621 -0.04030 -0.12030
 H523 H 0.83840 -0.26622 -0.18700
 H524 H 0.89670 -0.21779 -0.12969
 C525 C 0.82942 0.25141 0.32222
 C526 C 0.79175 0.27790 0.28808
 C527 C 0.80112 0.33374 0.27881
 C528 C 0.83699 0.36347 0.30807
 C529 C 0.86924 0.33910 0.34572
 C530 C 0.86853 0.28213 0.35017
 C531 C 0.82996 0.19496 0.32902
 C532 C 0.86775 0.16931 0.36013
 C533 C 0.90673 0.19901 0.38501
 C534 C 0.90747 0.25470 0.37997
 H535 H 0.80098 0.16969 0.31130
 H536 H 0.86706 0.12598 0.36446
 H537 H 0.93681 0.17877 0.40809
 H538 H 0.94016 0.27541 0.39811
 H539 H 0.78074 0.35653 0.24858
 H540 H 0.83907 0.40653 0.30134
 C541 C 0.34350 -0.22401 0.28716
 C542 C 0.28717 -0.21575 0.27943
 C543 C 0.26403 -0.17646 0.31382
 C544 C 0.29316 -0.14611 0.34975
 C545 C 0.34616 -0.15688 0.35819
 C546 C 0.36896 -0.20031 0.33198
 C547 C 0.37771 -0.25177 0.25229
 C548 C 0.42625 -0.27105 0.26975
 C549 C 0.44404 -0.25824 0.32049
 C550 C 0.41745 -0.22046 0.34989
 H551 H 0.36919 -0.25769 0.21092
 H552 H 0.44968 -0.29577 0.24360
 H553 H 0.47962 -0.27466 0.33690
 H554 H 0.43455 -0.20777 0.38727
 H555 H 0.22218 -0.16828 0.31260
 H556 H 0.27395 -0.11397 0.37110
 C557 C 0.35713 0.29482 -0.23134
 C558 C 0.29976 0.29559 -0.22646
 C559 C 0.27841 0.33162 -0.18878
 C560 C 0.30946 0.36233 -0.15543
 C561 C 0.36419 0.35861 -0.15651
 C562 C 0.38844 0.32314 -0.19291
 C563 C 0.38549 0.26821 -0.27231
 C564 C 0.44012 0.26272 -0.27111
 C565 C 0.46891 0.28441 -0.22977
 C566 C 0.44359 0.31467 -0.19122
 H567 H 0.36754 0.25281 -0.30754
 H568 H 0.46022 0.24128 -0.30258
 H569 H 0.51122 0.27887 -0.22827
 H570 H 0.46779 0.33054 -0.15969
 H571 H 0.23621 0.33469 -0.18315
 H572 H 0.29005 0.38935 -0.12806
 C573 C 1.24256 -0.15860 0.18398
 C574 C 1.21867 -0.20147 0.21628
 C575 C 1.16377 -0.19511 0.22720
 C576 C 1.13252 -0.15944 0.19899
 C577 C 1.15439 -0.12491 0.16113
 C578 C 1.20958 -0.12148 0.15559
 C579 C 1.29771 -0.15386 0.17536
 C580 C 1.31930 -0.11424 0.14193
 C581 C 1.28679 -0.07841 0.11519
 C582 C 1.23238 -0.08208 0.12153
 H583 H 1.32512 -0.18145 0.19226
 H584 H 1.36162 -0.11189 0.13614
 H585 H 1.30378 -0.04789 0.08907
 H586 H 1.20827 -0.05350 0.09990
 H587 H 1.14305 -0.21786 0.25767
 H588 H 1.09026 -0.15976 0.20605
 C589 C 1.23490 0.33383 0.67115
 C590 C 1.21970 0.30160 0.71713
 C591 C 1.16825 0.31076 0.73765
 C592 C 1.13089 0.34013 0.70942
 C593 C 1.14326 0.36321 0.66006
 C594 C 1.19578 0.36242 0.64147
 C595 C 1.28720 0.33664 0.65207
 C596 C 1.30066 0.36424 0.60518
 C597 C 1.26218 0.39058 0.57593
 C598 C 1.21019 0.39010 0.59391
 H599 H 1.31834 0.31811 0.67289
 H600 H 1.34127 0.36517 0.59154
 H601 H 1.27273 0.41200 0.53951
 H602 H 1.18159 0.41213 0.57052
 H603 H 1.15556 0.29455 0.77580
 H604 H 1.09129 0.34335 0.72560
 C605 C 0.66657 -0.18535 0.74409
 C606 C 0.71277 -0.20777 0.71872
 C607 C 0.71422 -0.20565 0.66228
 C608 C 0.67659 -0.17864 0.63268
 C609 C 0.63276 -0.15539 0.65687
 C610 C 0.62455 -0.16408 0.71244
 C611 C 0.66179 -0.18088 0.80022
 C612 C 0.61493 -0.16494 0.82435
 C613 C 0.57166 -0.15212 0.79328
 C614 C 0.57632 -0.15125 0.73791
 H615 H 0.69449 -0.18735 0.82633
 H616 H 0.61212 -0.16295 0.86744
 H617 H 0.53461 -0.14167 0.81212
 H618 H 0.54096 -0.14244 0.71599
 H619 H 0.74456 -0.22467 0.63923
 H620 H 0.68249 -0.17536 0.58987
 C621 C 0.68257 0.33164 0.24667
 C622 C 0.71459 0.29090 0.22170
 C623 C 0.71540 0.29085 0.16505
 C624 C 0.68487 0.32552 0.13457
 C625 C 0.65233 0.36334 0.15827
 C626 C 0.65280 0.36856 0.21460
 C627 C 0.68154 0.33876 0.30280
 C628 C 0.65324 0.38004 0.32636
 C629 C 0.62614 0.41657 0.29493
 C630 C 0.62637 0.41151 0.23975
 H631 H 0.70444 0.31474 0.32964
 H632 H 0.65376 0.38467 0.36929
 H633 H 0.60565 0.44970 0.31334
 H634 H 0.60718 0.44304 0.21747
 H635 H 0.73678 0.26145 0.14251
 H636 H 0.68561 0.32154 0.09151
 C637 C 0.77084 0.14947 0.21146
 C638 C 0.77818 0.20720 0.21760
 C639 C 0.81905 0.23114 0.18631
 C640 C 0.84928 0.20254 0.15004
 C641 C 0.84019 0.14813 0.14179
 C642 C 0.79875 0.12209 0.16987
 C643 C 0.73943 0.11624 0.24564
 C644 C 0.72638 0.06368 0.23265
 C645 C 0.74841 0.04015 0.18816
 C646 C 0.78528 0.06840 0.15763
 H647 H 0.72668 0.12737 0.28457
 H648 H 0.69980 0.04067 0.25812
 H649 H 0.73856 -0.00087 0.17884
 H650 H 0.80276 0.04794 0.12405
 H651 H 0.82752 0.27365 0.18932
 H652 H 0.88105 0.22317 0.12899
 C653 C 0.83448 0.75879 0.67607
 C654 C 0.79991 0.73293 0.71457
 C655 C 0.80927 0.67748 0.72360
 C656 C 0.83992 0.64706 0.68976
 C657 C 0.86814 0.67030 0.64745
 C658 C 0.86894 0.72738 0.64291
 C659 C 0.83604 0.81518 0.66966
 C660 C 0.87041 0.84039 0.63372
 C661 C 0.90489 0.81017 0.60340
 C662 C 0.90456 0.75443 0.60800
 H663 H 0.81047 0.84069 0.69157
 H664 H 0.87061 0.88376 0.62981
 H665 H 0.93242 0.83006 0.57640
 H666 H 0.93410 0.73380 0.58523
 H667 H 0.79207 0.65547 0.75676
 H668 H 0.84136 0.60414 0.69730
 C669 C 0.26741 0.20976 0.65076
 C670 C 0.27895 0.21548 0.70670
 C671 C 0.31315 0.17673 0.72897
 C672 C 0.34412 0.14408 0.69705
 C673 C 0.34218 0.14807 0.64135
 C674 C 0.30379 0.18178 0.61752
 C675 C 0.22023 0.22764 0.62656
 C676 C 0.21515 0.22992 0.57118
 C677 C 0.25599 0.21238 0.53869
 C678 C 0.29975 0.18778 0.56145
 H679 H 0.18634 0.23965 0.64942
 H680 H 0.17962 0.24600 0.55351
 H681 H 0.25290 0.21596 0.49569
 H682 H 0.33006 0.17386 0.53458
 H683 H 0.31950 0.17457 0.77150
 H684 H 0.37111 0.11654 0.71640
 C685 C 0.28247 0.72247 0.14631
 C686 C 0.27640 0.71687 0.20439
 C687 C 0.30014 0.66991 0.22702
 C688 C 0.33450 0.63730 0.19860
 C689 C 0.34788 0.64922 0.14587
 C690 C 0.32290 0.69261 0.11960
 C691 C 0.24905 0.75309 0.11209
 C692 C 0.26181 0.76349 0.05875
 C693 C 0.30687 0.74182 0.03651
 C694 C 0.33682 0.70600 0.06623
 H695 H 0.21152 0.76866 0.12410
 H696 H 0.23636 0.78855 0.03455
 H697 H 0.31732 0.75085 -0.00461
 H698 H 0.37068 0.68849 0.04669
 H699 H 0.29589 0.66034 0.26907
 H700 H 0.35187 0.60295 0.21867
   
