data_POSCAR
  _audit_creation_date              2014-09-24
  _audit_creation_method            'ToBaCCo'
  _symmetry_space_group_name_H-M    'P1'
  _symmetry_Int_Tables_number       1
  _symmetry_cell_setting            triclinic
  loop_
  _symmetry_equiv_pos_as_xyz
 x,y,z
_cell_length_a 28.5991
_cell_length_b 29.0348
_cell_length_c 34.3122
_cell_angle_alpha 89.900900
_cell_angle_beta 89.954900
_cell_angle_gamma 90.059300
loop_
  _atom_site_label
  _atom_site_type_symbol
  _atom_site_fract_x
  _atom_site_fract_y
  _atom_site_fract_z
Zr1 Zr 0.24852 0.24839 0.31839
 O2 O 0.28458 0.28511 0.36239
 O3 O 0.20417 0.20585 0.35135
 O4 O 0.20299 0.29180 0.34998
 O5 O 0.33590 0.16766 0.30401
 O6 O 0.16460 0.33252 0.30279
 O7 O 0.29361 0.20519 0.35074
 O8 O 0.16195 0.16797 0.30486
 O9 O 0.18696 0.24963 0.28531
 O10 O 0.24856 0.18815 0.28504
 O11 O 0.25200 0.30919 0.28500
 O12 O 0.31123 0.25009 0.28581
 Zr13 Zr 0.25190 0.25104 0.18209
 Zr14 Zr 0.19214 0.30826 0.24985
 Zr15 Zr 0.30844 0.19112 0.25055
 Zr16 Zr 0.18881 0.19060 0.25079
 O17 O 0.38224 0.19624 0.24966
 O18 O 0.11576 0.20304 0.25008
 O19 O 0.24863 0.18957 0.21506
 O20 O 0.18992 0.24909 0.21512
 O21 O 0.25201 0.31182 0.21487
 O22 O 0.31293 0.24980 0.21569
 C23 C 0.17263 0.17716 0.34041
 C24 C 0.32531 0.17655 0.33967
 C25 C 0.17332 0.32226 0.33848
 O26 O 0.11840 0.30316 0.24730
 O27 O 0.16849 0.33581 0.19654
 O28 O 0.20905 0.29660 0.14981
 C29 C 0.17880 0.32673 0.16088
 O30 O 0.34289 0.33386 0.30179
 Zr31 Zr 0.31166 0.30878 0.24977
 O32 O 0.29588 0.29404 0.14926
 O33 O 0.19915 0.38076 0.25205
 O34 O 0.30108 0.38105 0.25081
 O35 O 0.38515 0.29933 0.24752
 O36 O 0.33475 0.33516 0.19582
 C37 C 0.32509 0.32498 0.16029
 O38 O 0.21422 0.21597 0.13806
 O39 O 0.30177 0.11853 0.25170
 O40 O 0.29488 0.20546 0.15027
 O41 O 0.33169 0.16317 0.19738
 O42 O 0.19664 0.11800 0.25280
 O43 O 0.16241 0.16034 0.19889
 C44 C 0.32297 0.17354 0.16166
 H45 H 0.24871 0.15971 0.30097
 H46 H 0.16199 0.24882 0.19809
 H47 H 0.34182 0.24903 0.19981
 H48 H 0.25286 0.33679 0.30189
 H49 H 0.09995 0.17383 0.25719
 H50 H 0.10605 0.33502 0.24827
 H51 H 0.16714 0.39372 0.25084
 H52 H 0.33119 0.39587 0.24386
 H53 H 0.16569 0.10464 0.25930
 H54 H 0.33389 0.10583 0.25287
 H55 H 0.39448 0.16435 0.24873
 H56 H 0.39940 0.32951 0.24102
 H57 H 0.13535 0.14042 0.20530
 H58 H 0.22609 0.22721 0.11258
 H59 H 0.27276 0.27380 0.38787
 H60 H 0.36435 0.35958 0.29542
 Zr61 Zr 0.75178 0.75161 0.31806
 O62 O 0.71601 0.71496 0.36241
 O63 O 0.79620 0.79436 0.35065
 O64 O 0.79742 0.70837 0.34973
 O65 O 0.66385 0.83177 0.30348
 O66 O 0.83586 0.66762 0.30264
 O67 O 0.70646 0.79467 0.35029
 O68 O 0.83818 0.83224 0.30384
 O69 O 0.81327 0.75050 0.28479
 O70 O 0.75142 0.81175 0.28443
 O71 O 0.74849 0.69070 0.28496
 O72 O 0.68903 0.74950 0.28566
 Zr73 Zr 0.74809 0.74844 0.18174
 Zr74 Zr 0.80828 0.69174 0.24962
 Zr75 Zr 0.69149 0.80837 0.25010
 Zr76 Zr 0.81109 0.80943 0.25000
 O77 O 0.61770 0.80297 0.24932
 O78 O 0.88419 0.79733 0.24900
 O79 O 0.75120 0.81002 0.21442
 O80 O 0.81013 0.75083 0.21461
 O81 O 0.74834 0.68775 0.21482
 O82 O 0.68715 0.74957 0.21554
 C83 C 0.82771 0.82306 0.33948
 C84 C 0.67450 0.82303 0.33915
 C85 C 0.82710 0.67791 0.33831
 O86 O 0.88200 0.69718 0.24705
 O87 O 0.83223 0.66437 0.19636
 O88 O 0.79128 0.70315 0.14955
 C89 C 0.82186 0.67334 0.16068
 O90 O 0.65785 0.66556 0.30215
 Zr91 Zr 0.68876 0.69070 0.24991
 O92 O 0.70409 0.70511 0.14931
 O93 O 0.80158 0.61921 0.25202
 O94 O 0.69969 0.61848 0.25121
 O95 O 0.61523 0.69993 0.24796
 O96 O 0.66542 0.66411 0.19621
 C97 C 0.67490 0.67418 0.16059
 O98 O 0.78541 0.78348 0.13733
 O99 O 0.69786 0.88098 0.25097
 O100 O 0.70492 0.79384 0.14986
 O101 O 0.66814 0.83617 0.19688
 O102 O 0.80285 0.88199 0.25174
 O103 O 0.83713 0.83972 0.19786
 C104 C 0.67683 0.82575 0.16120
 H105 H 0.75118 0.84022 0.30026
 H106 H 0.83803 0.75122 0.19752
 H107 H 0.65821 0.75020 0.19973
 H108 H 0.74777 0.66313 0.30197
 H109 H 0.89990 0.82665 0.25587
 H110 H 0.89449 0.66538 0.24813
 H111 H 0.83365 0.60641 0.25083
 H112 H 0.66963 0.60350 0.24446
 H113 H 0.83374 0.89553 0.25809
 H114 H 0.66569 0.89356 0.25214
 H115 H 0.60533 0.83482 0.24824
 H116 H 0.60103 0.66968 0.24170
 H117 H 0.86405 0.85986 0.20409
 H118 H 0.77346 0.77211 0.11195
 H119 H 0.72784 0.72644 0.38779
 H120 H 0.63647 0.63974 0.29597
 Zr121 Zr 0.75160 0.24796 -0.31834
 O122 O 0.71587 0.28413 -0.36291
 O123 O 0.79615 0.20511 -0.35072
 O124 O 0.79721 0.29114 -0.35024
 O125 O 0.66375 0.16764 -0.30322
 O126 O 0.83550 0.33233 -0.30336
 O127 O 0.70629 0.20454 -0.35029
 O128 O 0.83820 0.16780 -0.30374
 O129 O 0.81305 0.24959 -0.28512
 O130 O 0.75136 0.18808 -0.28440
 O131 O 0.74812 0.30910 -0.28556
 O132 O 0.68883 0.25009 -0.28589
 Zr133 Zr 0.74782 0.25216 -0.18202
 Zr134 Zr 0.80786 0.30858 -0.25026
 Zr135 Zr 0.69141 0.19150 -0.25004
 Zr136 Zr 0.81100 0.19092 -0.25001
 O137 O 0.61761 0.19657 -0.24917
 O138 O 0.88407 0.20335 -0.24915
 O139 O 0.75109 0.19035 -0.21438
 O140 O 0.80988 0.24978 -0.21493
 O141 O 0.74791 0.31259 -0.21542
 O142 O 0.68690 0.25051 -0.21576
 C143 C 0.82773 0.17664 -0.33943
 C144 C 0.67435 0.17618 -0.33895
 C145 C 0.82683 0.32175 -0.33896
 O146 O 0.88159 0.30348 -0.24761
 O147 O 0.83161 0.33665 -0.19725
 O148 O 0.79081 0.29803 -0.15016
 C149 C 0.82124 0.32797 -0.16151
 O150 O 0.65742 0.33383 -0.30275
 Zr151 Zr 0.68837 0.30913 -0.25043
 O152 O 0.70369 0.29545 -0.14977
 O153 O 0.80099 0.38106 -0.25318
 O154 O 0.69916 0.38139 -0.25211
 O155 O 0.61487 0.29956 -0.24838
 O156 O 0.66494 0.33599 -0.19682
 C157 C 0.67444 0.32618 -0.16116
 O158 O 0.78524 0.21767 -0.13746
 O159 O 0.69796 0.11890 -0.25056
 O160 O 0.70476 0.20678 -0.14989
 O161 O 0.66811 0.16398 -0.19669
 O162 O 0.80290 0.11831 -0.25134
 O163 O 0.83707 0.16114 -0.19774
 C164 C 0.67674 0.17469 -0.16108
 H165 H 0.75117 0.15949 -0.30008
 H166 H 0.83777 0.24968 -0.19785
 H167 H 0.65796 0.24986 -0.19993
 H168 H 0.74735 0.33654 -0.30272
 H169 H 0.89986 0.17404 -0.25585
 H170 H 0.89402 0.33532 -0.24892
 H171 H 0.83303 0.39403 -0.25207
 H172 H 0.66907 0.39630 -0.24537
 H173 H 0.83383 0.10485 -0.25764
 H174 H 0.66582 0.10617 -0.25163
 H175 H 0.60531 0.16468 -0.24791
 H176 H 0.60058 0.32977 -0.24221
 H177 H 0.86404 0.14106 -0.20388
 H178 H 0.77324 0.22920 -0.11214
 H179 H 0.72775 0.27247 -0.38822
 H180 H 0.63595 0.35956 -0.29665
 Zr181 Zr 0.24699 0.75395 -0.31847
 O182 O 0.28272 0.71800 -0.36311
 O183 O 0.20246 0.79700 -0.35083
 O184 O 0.20142 0.71065 -0.35028
 O185 O 0.33496 0.83423 -0.30340
 O186 O 0.16305 0.66934 -0.30332
 O187 O 0.29253 0.79755 -0.35044
 O188 O 0.16053 0.83422 -0.30385
 O189 O 0.18549 0.75222 -0.28518
 O190 O 0.24729 0.81369 -0.28452
 O191 O 0.25032 0.69271 -0.28556
 O192 O 0.30970 0.75158 -0.28599
 Zr193 Zr 0.25059 0.74915 -0.18198
 Zr194 Zr 0.19051 0.69311 -0.25021
 Zr195 Zr 0.30719 0.81006 -0.25015
 Zr196 Zr 0.18761 0.81077 -0.25010
 O197 O 0.38098 0.80482 -0.24940
 O198 O 0.11452 0.79841 -0.24927
 O199 O 0.24746 0.81107 -0.21446
 O200 O 0.18859 0.75180 -0.21493
 O201 O 0.25043 0.68885 -0.21539
 O202 O 0.31153 0.75090 -0.21581
 C203 C 0.17093 0.82556 -0.33959
 C204 C 0.32452 0.82592 -0.33920
 C205 C 0.17181 0.67992 -0.33896
 O206 O 0.11679 0.69839 -0.24769
 O207 O 0.16642 0.66497 -0.19712
 O208 O 0.20727 0.70323 -0.15007
 C209 C 0.17667 0.67341 -0.16131
 O210 O 0.34095 0.66781 -0.30279
 Zr211 Zr 0.31003 0.69241 -0.25046
 O212 O 0.29469 0.70558 -0.14978
 O213 O 0.19733 0.62063 -0.25295
 O214 O 0.29911 0.62018 -0.25210
 O215 O 0.38353 0.70194 -0.24851
 O216 O 0.33350 0.66529 -0.19688
 C217 C 0.32400 0.67491 -0.16119
 O218 O 0.21327 0.78353 -0.13736
 O219 O 0.30068 0.88266 -0.25060
 O220 O 0.29377 0.79445 -0.14992
 O221 O 0.33055 0.83733 -0.19679
 O222 O 0.19586 0.88337 -0.25138
 O223 O 0.16142 0.84042 -0.19787
 C224 C 0.32190 0.82654 -0.16114
 H225 H 0.24754 0.84233 -0.30021
 H226 H 0.16068 0.75190 -0.19785
 H227 H 0.34046 0.75144 -0.20001
 H228 H 0.25110 0.66531 -0.30269
 H229 H 0.09877 0.82774 -0.25599
 H230 H 0.10429 0.66657 -0.24895
 H231 H 0.16528 0.60769 -0.25182
 H232 H 0.32917 0.60519 -0.24540
 H233 H 0.16500 0.89693 -0.25774
 H234 H 0.33283 0.89537 -0.25173
 H235 H 0.39334 0.83668 -0.24811
 H236 H 0.39782 0.67171 -0.24236
 H237 H 0.13447 0.86053 -0.20403
 H238 H 0.22525 0.77185 -0.11207
 H239 H 0.27083 0.72981 -0.38838
 H240 H 0.36243 0.64207 -0.29668
 Zr241 Zr 1.25202 1.25230 0.81815
 O242 O 1.21560 1.21623 0.86249
 O243 O 1.29645 1.29489 0.85070
 O244 O 1.29720 1.20917 0.85048
 O245 O 1.16508 1.33319 0.80267
 O246 O 1.33563 1.16780 0.80382
 O247 O 1.20697 1.29592 0.84986
 O248 O 1.33918 1.33195 0.80389
 O249 O 1.31370 1.25049 0.78523
 O250 O 1.25244 1.31223 0.78419
 O251 O 1.24822 1.19117 0.78551
 O252 O 1.18944 1.25073 0.78550
 Zr253 Zr 1.24885 1.24836 0.68192
 Zr254 Zr 1.30822 1.19151 0.75050
 Zr255 Zr 1.19270 1.30931 0.74959
 Zr256 Zr 1.31226 1.30912 0.75003
 O257 O 1.11885 1.30475 0.74855
 O258 O 1.38524 1.29631 0.74933
 O259 O 1.25259 1.31017 0.71417
 O260 O 1.31078 1.25025 0.71503
 O261 O 1.24842 1.18796 0.71543
 O262 O 1.18777 1.25026 0.71544
 C263 C 1.32829 1.32316 0.83951
 C264 C 1.17539 1.32442 0.83838
 C265 C 1.32682 1.17846 0.83944
 O266 O 1.38199 1.19618 0.74781
 O267 O 1.33168 1.16330 0.69757
 O268 O 1.29145 1.20221 0.65035
 C269 C 1.32141 1.17205 0.66186
 O270 O 1.15713 1.16744 0.80247
 Zr271 Zr 1.18867 1.19163 0.75017
 O272 O 1.20465 1.20514 0.64955
 O273 O 1.30089 1.11907 0.75355
 O274 O 1.19889 1.11932 0.75195
 O275 O 1.11524 1.20144 0.74782
 O276 O 1.16549 1.16471 0.69654
 C277 C 1.17525 1.17443 0.66089
 O278 O 1.28687 1.28256 0.63747
 O279 O 1.19990 1.38185 0.75019
 O280 O 1.20626 1.29394 0.64953
 O281 O 1.16982 1.33707 0.69619
 O282 O 1.30478 1.38177 0.75141
 O283 O 1.33904 1.33869 0.69786
 C284 C 1.17841 1.32624 0.66057
 H285 H 1.25240 1.34083 0.79985
 H286 H 1.33875 1.25018 0.69803
 H287 H 1.15894 1.25106 0.69951
 H288 H 1.24720 1.16378 0.80271
 H289 H 1.40120 1.32548 0.75624
 H290 H 1.39415 1.16427 0.74922
 H291 H 1.33286 1.10598 0.75253
 H292 H 1.16869 1.10456 0.74527
 H293 H 1.33577 1.39503 0.75786
 H294 H 1.16787 1.39479 0.75121
 H295 H 1.10686 1.33673 0.74734
 H296 H 1.10083 1.17125 0.74171
 H297 H 1.36598 1.35880 0.70413
 H298 H 1.27494 1.27110 0.61213
 H299 H 1.22728 1.22781 0.88787
 H300 H 1.13573 1.14159 0.79642
 Zr301 Zr 0.74827 0.74793 0.81836
 O302 O 0.78472 0.78432 0.86233
 O303 O 0.70385 0.70565 0.85131
 O304 O 0.70309 0.79122 0.85049
 O305 O 0.83532 0.66710 0.80326
 O306 O 0.66450 0.83222 0.80364
 O307 O 0.79347 0.70462 0.85028
 O308 O 0.66101 0.66838 0.80486
 O309 O 0.68655 0.74941 0.78556
 O310 O 0.74788 0.68775 0.78487
 O311 O 0.75191 0.80886 0.78527
 O312 O 0.81078 0.74931 0.78554
 Zr313 Zr 0.75120 0.75090 0.68213
 Zr314 Zr 0.69186 0.80818 0.75042
 Zr315 Zr 0.80755 0.69049 0.75007
 Zr316 Zr 0.68803 0.69055 0.75079
 O317 O 0.88139 0.69505 0.74883
 O318 O 0.61500 0.70313 0.74993
 O319 O 0.74762 0.68928 0.71480
 O320 O 0.68934 0.74920 0.71539
 O321 O 0.75159 0.81155 0.71516
 O322 O 0.81232 0.74934 0.71552
 C323 C 0.67189 0.67746 0.84037
 C324 C 0.82511 0.67614 0.83892
 C325 C 0.67337 0.82180 0.83931
 O326 O 0.61809 0.80337 0.74803
 O327 O 0.66820 0.83587 0.69732
 O328 O 0.70842 0.79670 0.65031
 C329 C 0.67838 0.82683 0.66167
 O330 O 0.84295 0.83278 0.80186
 Zr331 Zr 0.81139 0.80819 0.74981
 O332 O 0.79529 0.79390 0.64934
 O333 O 0.69909 0.88065 0.75281
 O334 O 0.80106 0.88050 0.75095
 O335 O 0.88484 0.79853 0.74743
 O336 O 0.83452 0.83462 0.69593
 C337 C 0.82474 0.82462 0.66039
 O338 O 0.71318 0.71629 0.63805
 O339 O 0.80036 0.61795 0.75126
 O340 O 0.79391 0.70529 0.64994
 O341 O 0.83051 0.66250 0.69680
 O342 O 0.69555 0.61793 0.75297
 O343 O 0.66141 0.66049 0.69888
 C344 C 0.82190 0.67315 0.66112
 H345 H 0.74795 0.65929 0.80078
 H346 H 0.66133 0.74908 0.69846
 H347 H 0.84115 0.74847 0.69956
 H348 H 0.75292 0.83636 0.80226
 H349 H 0.59912 0.67396 0.75708
 H350 H 0.60587 0.83527 0.74916
 H351 H 0.66710 0.89368 0.75180
 H352 H 0.83124 0.89523 0.74408
 H353 H 0.66456 0.60473 0.75956
 H354 H 0.83240 0.60504 0.75229
 H355 H 0.89341 0.66307 0.74787
 H356 H 0.89918 0.82872 0.74109
 H357 H 0.63460 0.64025 0.70534
 H358 H 0.72504 0.72761 0.61258
 H359 H 0.77308 0.77291 0.88784
 H360 H 0.86417 0.85872 0.79559
 Zr361 Zr 1.25220 0.74786 0.18193
 O362 O 1.21591 0.78428 0.13781
 O363 O 1.29658 0.70546 0.14917
 O364 O 1.29751 0.79104 0.14975
 O365 O 1.16498 0.66702 0.19697
 O366 O 1.33605 0.83211 0.19653
 O367 O 1.20715 0.70453 0.14999
 O368 O 1.33913 0.66809 0.19580
 O369 O 1.31383 0.74940 0.21483
 O370 O 1.25235 0.68772 0.21560
 O371 O 1.24858 0.80882 0.21483
 O372 O 1.18956 0.74936 0.21458
 Zr373 Zr 1.24887 0.75098 0.31807
 Zr374 Zr 1.30854 0.80819 0.24980
 Zr375 Zr 1.19255 0.69054 0.25019
 Zr376 Zr 1.31214 0.69055 0.24976
 O377 O 1.11872 0.69517 0.25124
 O378 O 1.38517 0.70321 0.25056
 O379 O 1.25239 0.68935 0.28559
 O380 O 1.31085 0.74923 0.28498
 O381 O 1.24870 0.81162 0.28490
 O382 O 1.18782 0.74939 0.28460
 C383 C 1.32835 0.67714 0.16023
 C384 C 1.17545 0.67600 0.16130
 C385 C 1.32721 0.82163 0.16089
 O386 O 1.38229 0.80343 0.25243
 O387 O 1.33197 0.83599 0.30290
 O388 O 1.29148 0.79682 0.34989
 C389 C 1.32156 0.82700 0.33856
 O390 O 1.15760 0.83288 0.19801
 Zr391 Zr 1.18897 0.80826 0.25017
 O392 O 1.20482 0.79399 0.35073
 O393 O 1.30153 0.88066 0.24705
 O394 O 1.19949 0.88055 0.24876
 O395 O 1.11550 0.79858 0.25249
 O396 O 1.16580 0.83478 0.30399
 C397 C 1.17549 0.82479 0.33959
 O398 O 1.28678 0.71635 0.36227
 O399 O 1.19945 0.61798 0.24930
 O400 O 1.20609 0.70544 0.35032
 O401 O 1.16951 0.66262 0.30353
 O402 O 1.30446 0.61791 0.24799
 O403 O 1.33861 0.66059 0.30182
 C404 C 1.17811 0.67330 0.33917
 H405 H 1.25226 0.65923 0.19980
 H406 H 1.33880 0.74914 0.30199
 H407 H 1.15896 0.74855 0.30052
 H408 H 1.24767 0.83631 0.19774
 H409 H 1.40103 0.67404 0.24356
 H410 H 1.39455 0.83534 0.25117
 H411 H 1.33355 0.89367 0.24813
 H412 H 1.16935 0.89531 0.25558
 H413 H 1.33544 0.60469 0.24152
 H414 H 1.16736 0.60512 0.24826
 H415 H 1.10662 0.66319 0.25233
 H416 H 1.10121 0.82876 0.25876
 H417 H 1.36551 0.64050 0.29550
 H418 H 1.27492 0.72763 0.38771
 H419 H 1.22756 0.77289 0.11235
 H420 H 1.13632 0.85874 0.20420
 Zr421 Zr 0.74862 1.25233 0.18151
 O422 O 0.78488 1.21659 0.13705
 O423 O 0.70404 1.29505 0.14909
 O424 O 0.70339 1.20920 0.14921
 O425 O 0.83589 1.33313 0.19701
 O426 O 0.66498 1.16755 0.19588
 O427 O 0.79387 1.29614 0.14982
 O428 O 0.66145 1.33178 0.19601
 O429 O 0.68700 1.25027 0.21454
 O430 O 0.74838 1.31207 0.21554
 O431 O 0.75233 1.19102 0.21416
 O432 O 0.81121 1.25053 0.21416
 Zr433 Zr 0.75193 1.24754 0.31782
 Zr434 Zr 0.69236 1.19109 0.24923
 Zr435 Zr 0.80815 1.30893 0.25011
 Zr436 Zr 0.68860 1.30873 0.24978
 O437 O 0.88199 1.30438 0.25109
 O438 O 0.61559 1.29594 0.25065
 O439 O 0.74831 1.30954 0.28560
 O440 O 0.68998 1.24965 0.28473
 O441 O 0.75219 1.18731 0.28428
 O442 O 0.81295 1.24969 0.28422
 C443 C 0.67217 1.32317 0.16035
 C444 C 0.82559 1.32456 0.16128
 C445 C 0.67378 1.17836 0.16025
 O446 O 0.61860 1.19579 0.25181
 O447 O 0.66863 1.16270 0.30219
 O448 O 0.70908 1.20126 0.34940
 C449 C 0.67890 1.17126 0.33793
 O450 O 0.84326 1.16717 0.19713
 Zr451 Zr 0.81192 1.19123 0.24946
 O452 O 0.79618 1.20420 0.35010
 O453 O 0.69959 1.11867 0.24623
 O454 O 0.80149 1.11894 0.24774
 O455 O 0.88536 1.20112 0.25161
 O456 O 0.83535 1.16416 0.30306
 C457 C 0.82568 1.17368 0.33873
 O458 O 0.71408 1.28151 0.36237
 O459 O 0.80104 1.38147 0.24960
 O460 O 0.79466 1.29297 0.35022
 O461 O 0.83116 1.33635 0.30357
 O462 O 0.69627 1.38138 0.24839
 O463 O 0.66207 1.33807 0.30203
 C464 C 0.82259 1.32532 0.33919
 H465 H 0.74844 1.34073 0.19988
 H466 H 0.66202 1.24952 0.30175
 H467 H 0.84182 1.25041 0.30011
 H468 H 0.75330 1.16371 0.19694
 H469 H 0.59967 1.32517 0.24386
 H470 H 0.60635 1.16390 0.25039
 H471 H 0.66760 1.10556 0.24723
 H472 H 0.83166 1.10414 0.25441
 H473 H 0.66529 1.39468 0.24201
 H474 H 0.83308 1.39444 0.24859
 H475 H 0.89405 1.33635 0.25238
 H476 H 0.89978 1.17092 0.25768
 H477 H 0.63519 1.35826 0.29582
 H478 H 0.72603 1.26988 0.38768
 H479 H 0.77316 1.22834 0.11170
 H480 H 0.86461 1.14130 0.20317
 N481 N 0.58346 1.04859 0.04203
 N482 N 0.61644 1.07880 0.05090
 N483 N 0.55066 0.95183 0.06894
 N484 N 0.56113 0.92268 0.09714
 N485 N 0.58340 0.95174 0.04205
 N486 N 0.61706 0.92258 0.05136
 N487 N 0.55046 1.04867 0.06870
 N488 N 0.56001 1.07889 0.09625
 C489 C 0.60070 1.09797 0.08438
 C490 C 0.60204 0.90414 0.08535
 N491 N 0.41687 0.95156 0.04239
 N492 N 0.38407 0.92119 0.05138
 N493 N 0.44963 1.04838 0.06893
 N494 N 0.43905 1.07731 0.09720
 N495 N 0.41677 1.04837 0.04217
 N496 N 0.38294 1.07724 0.05166
 N497 N 0.44992 0.95160 0.06898
 N498 N 0.44061 0.92129 0.09659
 Mn499 Mn 0.50017 1.00013 0.06913
 C500 C 0.40001 0.90206 0.08484
 C501 C 0.39795 1.09563 0.08559
 N502 N 0.58316 0.95138 -0.04230
 N503 N 0.61609 0.92124 -0.05132
 N504 N 0.55059 1.04819 -0.06907
 N505 N 0.56097 1.07759 -0.09714
 N506 N 0.58337 1.04820 -0.04226
 N507 N 0.61697 1.07754 -0.05147
 N508 N 0.55012 0.95137 -0.06890
 N509 N 0.55960 0.92125 -0.09655
 Mn510 Mn 0.58377 0.99997 -0.00013
 C511 C 0.60028 0.90217 -0.08481
 C512 C 0.60188 1.09617 -0.08531
 N513 N 0.41680 1.04860 -0.04219
 N514 N 0.38399 1.07892 -0.05110
 N515 N 0.44921 0.95171 -0.06885
 N516 N 0.43846 0.92271 -0.09704
 N517 N 0.41647 0.95175 -0.04196
 N518 N 0.38255 0.92283 -0.05126
 N519 N 0.44977 1.04856 -0.06891
 N520 N 0.44035 1.07881 -0.09653
 Mn521 Mn 0.41631 1.00007 0.00010
 Mn522 Mn 0.49993 0.99996 -0.06919
 Cl523 Cl 0.50004 1.00003 -0.00003
 C524 C 0.39979 1.09803 -0.08465
 C525 C 0.39738 0.90436 -0.08523
 N526 N 0.95063 0.54958 0.43101
 N527 N 0.92172 0.56059 0.40253
 N528 N 1.04876 0.58196 0.45760
 N529 N 1.07920 0.61461 0.44861
 N530 N 1.04886 0.54954 0.43091
 N531 N 1.07935 0.55919 0.40321
 N532 N 0.95057 0.58169 0.45797
 N533 N 0.92170 0.61535 0.44844
 C534 C 0.90330 0.60109 0.41428
 C535 C 1.09856 0.59930 0.41506
 N536 N 1.04904 0.55019 0.56882
 N537 N 1.07785 0.56160 0.59727
 N538 N 0.95052 0.58160 0.54220
 N539 N 0.92023 0.61423 0.55135
 N540 N 0.95073 0.54920 0.56901
 N541 N 0.92059 0.55890 0.59696
 N542 N 1.04876 0.58229 0.54176
 N543 N 1.07730 0.61630 0.55116
 Mn544 Mn 0.99965 0.58223 0.49987
 C545 C 1.09588 0.60232 0.58536
 C546 C 0.90123 0.59898 0.58513
 N547 N 1.04896 0.45015 0.43082
 N548 N 1.07791 0.43927 0.40232
 N549 N 0.95094 0.41768 0.45792
 N550 N 0.92094 0.38469 0.44888
 N551 N 0.95065 0.45012 0.43115
 N552 N 0.92047 0.44011 0.40335
 N553 N 1.04918 0.41804 0.45786
 N554 N 1.07821 0.38451 0.44840
 Mn555 Mn 0.99977 0.49986 0.43072
 C556 C 1.09653 0.39884 0.41416
 C557 C 0.90159 0.39978 0.41521
 N558 N 0.95151 0.44974 0.56907
 N559 N 0.92228 0.43877 0.59738
 N560 N 1.04972 0.41822 0.54203
 N561 N 1.08003 0.38553 0.55104
 N562 N 1.04978 0.45061 0.56875
 N563 N 1.08012 0.44084 0.59652
 N564 N 0.95154 0.41768 0.54208
 N565 N 0.92241 0.38409 0.55137
 Mn566 Mn 1.00028 0.49992 0.56918
 Mn567 Mn 1.00034 0.41756 0.49998
 Cl568 Cl 1.00001 0.49990 0.49995
 C569 C 0.90380 0.39833 0.58545
 C570 C 1.09932 0.40074 0.58465
 N571 N 0.95248 0.55100 -0.06965
 N572 N 0.92264 0.56137 -0.09760
 N573 N 1.05101 0.58304 -0.04330
 N574 N 1.08068 0.61619 -0.05306
 N575 N 1.05086 0.55057 -0.06997
 N576 N 1.08040 0.56077 -0.09834
 N577 N 0.95265 0.58321 -0.04278
 N578 N 0.92299 0.61638 -0.05183
 C579 C 0.90397 0.60165 -0.08563
 C580 C 1.09943 0.60124 -0.08704
 N581 N 1.05030 0.55032 0.06814
 N582 N 1.07950 0.56076 0.09652
 N583 N 0.95228 0.58309 0.04158
 N584 N 0.92212 0.61588 0.05079
 N585 N 0.95202 0.55050 0.06822
 N586 N 0.92172 0.56018 0.09606
 N587 N 1.05059 0.58264 0.04126
 N588 N 1.07991 0.61595 0.05079
 Mn589 Mn 1.00165 0.58338 -0.00080
 C590 C 1.09831 0.60117 0.08484
 C591 C 0.90273 0.60051 0.08444
 N592 N 1.04990 0.45099 -0.06964
 N593 N 1.07936 0.44038 -0.09782
 N594 N 0.95135 0.41912 -0.04291
 N595 N 0.92094 0.38650 -0.05206
 N596 N 0.95157 0.45158 -0.06967
 N597 N 0.92133 0.44192 -0.09755
 N598 N 1.04964 0.41870 -0.04274
 N599 N 1.07888 0.38527 -0.05201
 Mn600 Mn 1.00121 0.50103 -0.06997
 C601 C 1.09776 0.39989 -0.08596
 C602 C 0.90188 0.40179 -0.08579
 N603 N 0.95173 0.45106 0.06835
 N604 N 0.92253 0.44042 0.09679
 N605 N 1.04990 0.41850 0.04160
 N606 N 1.07987 0.38556 0.05086
 N607 N 1.05009 0.45095 0.06827
 N608 N 1.08017 0.44099 0.09620
 N609 N 0.95155 0.41884 0.04150
 N610 N 0.92228 0.38542 0.05108
 Mn611 Mn 1.00103 0.50072 0.06846
 Mn612 Mn 1.00061 0.41843 -0.00065
 Cl613 Cl 1.00115 0.50090 -0.00075
 C614 C 0.90379 0.39998 0.08517
 C615 C 1.09909 0.40067 0.08457
 N616 N 0.58250 1.04763 0.54270
 N617 N 0.61561 1.07760 0.55175
 N618 N 0.55000 0.95063 0.56941
 N619 N 0.56093 0.92173 0.59768
 N620 N 0.58272 0.95086 0.54248
 N621 N 0.61676 0.92218 0.55183
 N622 N 0.54959 1.04743 0.56947
 N623 N 0.55938 1.07727 0.59727
 C624 C 0.60009 1.09639 0.58545
 C625 C 0.60206 0.90366 0.58585
 N626 N 0.41586 0.95005 0.54310
 N627 N 0.38216 0.92088 0.55278
 N628 N 0.44861 1.04689 0.56969
 N629 N 0.43788 1.07576 0.59797
 N630 N 0.41587 1.04691 0.54284
 N631 N 0.38198 1.07574 0.55224
 N632 N 0.44888 0.95000 0.56974
 N633 N 0.43853 0.92081 0.59804
 Mn634 Mn 0.49929 0.99873 0.56981
 C635 C 0.39739 0.90224 0.58669
 C636 C 0.39682 1.09406 0.58624
 N637 N 0.58269 0.95079 0.45818
 N638 N 0.61593 0.92106 0.44896
 N639 N 0.55003 1.04762 0.43144
 N640 N 0.56116 1.07602 0.40280
 N641 N 0.58280 1.04764 0.45828
 N642 N 0.61707 1.07598 0.44847
 N643 N 0.54969 0.95076 0.43154
 N644 N 0.55952 0.92104 0.40366
 Mn645 Mn 0.58304 0.99924 0.50043
 C646 C 0.60037 0.90219 0.41531
 C647 C 0.60248 1.09408 0.41425
 N648 N 0.41604 1.04747 0.45847
 N649 N 0.38295 1.07744 0.44940
 N650 N 0.44882 0.95090 0.43169
 N651 N 0.43806 0.92225 0.40328
 N652 N 0.41604 0.95068 0.45857
 N653 N 0.38209 0.92195 0.44901
 N654 N 0.44908 1.04767 0.43181
 N655 N 0.43943 1.07774 0.40409
 Mn656 Mn 0.41557 0.99877 0.50073
 Mn657 Mn 0.49938 0.99924 0.43140
 Cl658 Cl 0.49931 0.99898 0.50060
 C659 C 0.39866 1.09661 0.41583
 C660 C 0.39696 0.90386 0.41491
 N661 N 1.08388 1.04715 0.54265
 N662 N 1.11718 1.07683 0.55166
 N663 N 1.05020 0.95059 0.56949
 N664 N 1.05951 0.92081 0.59746
 N665 N 1.08342 0.95043 0.54302
 N666 N 1.11638 0.92053 0.55248
 N667 N 1.05089 1.04727 0.56930
 N668 N 1.06073 1.07707 0.59705
 C669 C 1.10158 1.09574 0.58520
 C670 C 1.10028 0.90176 0.58606
 N671 N 0.91704 0.95136 0.54220
 N672 N 0.88373 0.92157 0.55098
 N673 N 0.95046 1.04785 0.56897
 N674 N 0.94119 1.07806 0.59652
 N675 N 0.91753 1.04801 0.54230
 N676 N 0.88481 1.07837 0.55115
 N677 N 0.94976 0.95121 0.56904
 N678 N 0.93971 0.92127 0.59671
 Mn679 Mn 1.00031 0.99923 0.56947
 C680 C 0.89905 0.90256 0.58458
 C681 C 0.90074 1.09736 0.58461
 N682 N 1.08376 0.95063 0.45877
 N683 N 1.11706 0.92104 0.44966
 N684 N 1.05107 1.04745 0.43196
 N685 N 1.06015 1.07814 0.40466
 N686 N 1.08407 1.04732 0.45857
 N687 N 1.11669 1.07796 0.44992
 N688 N 1.05098 0.95083 0.43197
 N689 N 1.06097 0.92132 0.40405
 Mn690 Mn 1.08428 0.99887 0.50074
 C691 C 1.10166 0.90247 0.41592
 C692 C 1.10058 1.09737 0.41665
 N693 N 0.91775 1.04789 0.45816
 N694 N 0.88440 1.07731 0.44877
 N695 N 0.95060 0.95104 0.43170
 N696 N 0.94134 0.92084 0.40414
 N697 N 0.91739 0.95119 0.45816
 N698 N 0.88446 0.92106 0.44915
 N699 N 0.95071 1.04771 0.43149
 N700 N 0.94077 1.07706 0.40334
 Mn701 Mn 0.91694 0.99962 0.50022
 Mn702 Mn 1.00086 0.99925 0.43151
 Cl703 Cl 1.00061 0.99923 0.50049
 C704 C 0.89992 1.09582 0.41497
 C705 C 0.90058 0.90188 0.41583
 N706 N 0.58293 0.54802 0.04196
 N707 N 0.61630 0.57759 0.05103
 N708 N 0.54944 0.45137 0.06844
 N709 N 0.55859 0.42105 0.09599
 N710 N 0.58251 0.45138 0.04186
 N711 N 0.61524 0.42105 0.05077
 N712 N 0.55003 0.54799 0.06867
 N713 N 0.56000 0.57757 0.09655
 C714 C 0.60082 0.59629 0.08469
 C715 C 0.59912 0.40189 0.08415
 N716 N 0.41633 0.45194 0.04164
 N717 N 0.38309 0.42212 0.05055
 N718 N 0.44975 0.54834 0.06849
 N719 N 0.44090 0.57884 0.09587
 N720 N 0.41670 0.54855 0.04193
 N721 N 0.38428 0.57923 0.05067
 N722 N 0.44919 0.45178 0.06835
 N723 N 0.43935 0.42180 0.09603
 Mn724 Mn 0.49958 0.49987 0.06878
 C725 C 0.39865 0.40306 0.08407
 C726 C 0.40058 0.59832 0.08394
 N727 N 0.58265 0.45201 -0.04219
 N728 N 0.61590 0.42241 -0.05137
 N729 N 0.54970 0.54887 -0.06850
 N730 N 0.55866 0.57978 -0.09561
 N731 N 0.58274 0.54860 -0.04194
 N732 N 0.61528 0.57935 -0.05040
 N733 N 0.54984 0.45232 -0.06895
 N734 N 0.55975 0.42287 -0.09694
 Mn735 Mn 0.58322 0.49999 -0.00009
 C736 C 0.60043 0.40396 -0.08512
 C737 C 0.59904 0.59899 -0.08349
 N738 N 0.41648 0.54885 -0.04213
 N739 N 0.38299 0.57819 -0.05139
 N740 N 0.44961 0.45233 -0.06891
 N741 N 0.44074 0.42182 -0.09628
 N742 N 0.41650 0.45220 -0.04237
 N743 N 0.38399 0.42155 -0.05111
 N744 N 0.44941 0.54894 -0.06884
 N745 N 0.43930 0.57839 -0.09687
 Mn746 Mn 0.41598 0.50038 -0.00022
 Mn747 Mn 0.49965 0.50063 -0.06909
 Cl748 Cl 0.49960 0.50022 -0.00015
 C749 C 0.39840 0.59692 -0.08514
 C750 C 0.40032 0.40242 -0.08437
 C751 C 0.34772 1.14773 0.13263
 C752 C 0.37007 1.12475 0.11010
 C753 C 0.84718 0.64783 0.63196
 C754 C 0.87074 0.62587 0.60947
 C755 C 0.65211 0.85160 0.13217
 C756 C 0.62981 0.87474 0.10971
 C757 C 1.15328 0.35161 0.63135
 C758 C 1.12979 0.37370 0.60889
 C759 C 0.65201 1.14893 -0.13198
 C760 C 0.62965 1.12573 -0.10957
 C761 C 1.15281 0.64806 0.36835
 C762 C 1.12919 0.62616 0.39085
 C763 C 0.34678 0.85216 -0.13202
 C764 C 0.36930 0.87515 -0.10958
 C765 C 0.84778 0.35055 0.36846
 C766 C 0.87124 0.37260 0.39097
 C767 C 1.15329 0.35183 0.13157
 C768 C 1.12962 0.37368 0.10897
 C769 C 0.65324 0.85226 0.63267
 C770 C 0.63041 0.87491 0.61024
 C771 C 1.15326 0.65039 -0.13477
 C772 C 1.12972 0.62842 -0.11191
 C773 C 0.65370 1.14546 0.36692
 C774 C 0.63089 1.12272 0.38949
 C775 C 0.84779 0.64863 0.13138
 C776 C 0.87181 0.62715 0.10879
 C777 C 0.34626 1.14617 0.63297
 C778 C 0.36879 1.12317 0.61060
 C779 C 0.84700 0.35321 -0.13244
 C780 C 0.87096 0.37504 -0.11006
 C781 C 0.34639 0.85253 0.36765
 C782 C 0.36888 0.87518 0.39028
 C783 C 1.14820 1.15181 0.36982
 C784 C 1.12699 1.12813 0.39257
 C785 C 0.64711 0.65267 -0.13026
 C786 C 0.62561 0.62941 -0.10752
 C787 C 0.85258 1.15127 0.63144
 C788 C 0.87411 1.12777 0.60881
 C789 C 0.35297 0.65211 0.13092
 C790 C 0.37426 0.62875 0.10815
 C791 C 1.14838 0.84867 0.63387
 C792 C 1.12694 0.87183 0.61082
 C793 C 0.64728 0.34834 0.13118
 C794 C 0.62573 0.37166 0.10845
 C795 C 0.85246 0.84828 0.36875
 C796 C 0.87393 0.87164 0.39150
 C797 C 0.35284 0.34840 -0.13127
 C798 C 0.37404 0.37189 -0.10854
 C799 C 1.14986 0.34951 -0.13272
 C800 C 1.12696 0.37205 -0.11033
 C801 C 0.64937 0.84844 0.36839
 C802 C 0.62747 0.87194 0.39096
 C803 C 0.85093 0.65145 -0.13211
 C804 C 0.87422 0.62920 -0.10978
 C805 C 0.35014 1.15093 0.36899
 C806 C 0.37177 1.12719 0.39158
 C807 C 1.15001 0.65115 0.13220
 C808 C 1.12729 0.62883 0.10953
 C809 C 0.64915 1.15055 0.63200
 C810 C 0.62718 1.12686 0.60962
 C811 C 0.85139 0.34970 0.13230
 C812 C 0.87446 0.37219 0.10979
 C813 C 0.34762 0.84917 0.63429
 C814 C 0.36981 0.87242 0.61146
 C815 C 0.35157 1.15280 -0.13126
 C816 C 0.37311 1.12889 -0.10876
 C817 C 0.85229 0.65243 0.36725
 C818 C 0.87473 0.62941 0.38969
 C819 C 0.64905 1.15271 0.13094
 C820 C 0.62748 1.12881 0.10845
 C821 C 1.14673 0.65431 0.63207
 C822 C 1.12435 0.63103 0.60978
 C823 C 0.64859 0.84755 -0.13147
 C824 C 0.62701 0.87142 -0.10897
 C825 C 1.14799 0.34773 0.36734
 C826 C 1.12535 0.37067 0.38967
 C827 C 0.35195 0.84734 0.13162
 C828 C 0.37343 0.87122 0.10904
 C829 C 0.85214 0.34708 0.63208
 C830 C 0.87485 0.37006 0.60978
 C831 C 1.15073 1.14878 0.63185
 C832 C 1.12882 1.12552 0.60936
 C833 C 0.65026 0.64878 0.13151
 C834 C 0.62821 0.62577 0.10896
 C835 C 1.15097 0.85013 0.36883
 C836 C 1.12903 0.87306 0.39153
 C837 C 0.64975 0.35162 -0.13212
 C838 C 0.62775 0.37457 -0.10951
 C839 C 0.85046 1.14816 0.36779
 C840 C 0.87255 1.12517 0.39043
 C841 C 0.34878 0.64932 -0.13217
 C842 C 0.37090 0.62630 -0.10958
 C843 C 0.84939 0.84989 0.63118
 C844 C 0.87152 0.87292 0.60866
 C845 C 0.34950 0.35033 0.13099
 C846 C 0.37136 0.37340 0.10830
   
