data_POSCAR
  _audit_creation_date              2014-09-24
  _audit_creation_method            'ToBaCCo'
  _symmetry_space_group_name_H-M    'P1'
  _symmetry_Int_Tables_number       1
  _symmetry_cell_setting            triclinic
  loop_
  _symmetry_equiv_pos_as_xyz
 x,y,z
_cell_length_a 44.0900
_cell_length_b 35.8470
_cell_length_c 40.3984
_cell_angle_alpha 91.139600
_cell_angle_beta 90.069900
_cell_angle_gamma 89.603500
loop_
  _atom_site_label
  _atom_site_type_symbol
  _atom_site_fract_x
  _atom_site_fract_y
  _atom_site_fract_z
C1 C 0.27338 0.31877 0.22407
 H2 H 0.25723 0.33248 0.24036
 C3 C 0.29172 0.34021 0.20379
 H4 H 0.28897 0.37025 0.20427
 C5 C 0.29638 0.26312 0.20340
 H6 H 0.29805 0.23300 0.20352
 C7 C 0.31519 0.28345 0.18277
 H8 H 0.33153 0.26873 0.16727
 N9 N 0.27561 0.28090 0.22305
 C10 C 0.22751 0.27790 0.31083
 H11 H 0.24361 0.25886 0.32163
 C12 C 0.20884 0.29956 0.33153
 H13 H 0.21130 0.29746 0.35810
 C14 C 0.20453 0.30359 0.26330
 H15 H 0.20283 0.30462 0.23662
 C16 C 0.18547 0.32590 0.28310
 H17 H 0.16901 0.34397 0.27147
 Zn18 Zn 0.25038 0.25076 0.24924
 N19 N 0.22534 0.28060 0.27737
 C20 C 0.29727 0.23740 0.29403
 N21 N 0.27606 0.22005 0.27486
 C22 C 0.27363 0.18223 0.27402
 C23 C 0.29218 0.16044 0.29411
 C24 C 0.31628 0.21672 0.31447
 C25 C 0.22600 0.22413 0.18824
 C26 C 0.20678 0.20287 0.16803
 C27 C 0.18446 0.17710 0.21706
 C28 C 0.20404 0.19901 0.23636
 N29 N 0.22459 0.22150 0.22175
 H30 H 0.29907 0.26747 0.29377
 H31 H 0.25713 0.16884 0.25810
 H32 H 0.28925 0.13048 0.29385
 H33 H 0.33290 0.23111 0.32967
 H34 H 0.24193 0.24279 0.17703
 H35 H 0.20865 0.20487 0.14141
 H36 H 0.16824 0.15938 0.22912
 H37 H 0.20295 0.19803 0.26308
 C38 C 0.18754 0.32408 0.31773
 C39 C 0.31278 0.32254 0.18251
 C40 C 0.18575 0.17883 0.18239
 C41 C 0.31361 0.17771 0.31501
 C42 C 0.77713 0.81694 0.22569
 H43 H 0.76180 0.83038 0.24309
 C44 C 0.79561 0.83877 0.20590
 H45 H 0.79292 0.86871 0.20796
 C46 C 0.79779 0.76167 0.20181
 H47 H 0.79871 0.73149 0.20071
 C48 C 0.81651 0.78230 0.18132
 H49 H 0.83219 0.76709 0.16545
 N50 N 0.77809 0.77914 0.22285
 C51 C 0.72951 0.77551 0.31041
 H52 H 0.74533 0.75611 0.32121
 C53 C 0.71073 0.79711 0.33105
 H54 H 0.71282 0.79462 0.35762
 C55 C 0.70736 0.80213 0.26283
 H56 H 0.70603 0.80355 0.23614
 C57 C 0.68820 0.82435 0.28256
 H58 H 0.67201 0.84273 0.27085
 Zn59 Zn 0.75262 0.74886 0.24864
 N60 N 0.72777 0.77867 0.27696
 C61 C 0.79905 0.73412 0.29367
 N62 N 0.77797 0.71740 0.27390
 C63 C 0.77541 0.67960 0.27225
 C64 C 0.79361 0.65718 0.29216
 C65 C 0.81771 0.71279 0.31396
 C66 C 0.72761 0.72315 0.18749
 C67 C 0.70821 0.70203 0.16737
 C68 C 0.68619 0.67612 0.21650
 C69 C 0.70596 0.69785 0.23569
 N70 N 0.72649 0.72029 0.22099
 H71 H 0.80098 0.76420 0.29403
 H72 H 0.75906 0.66672 0.25582
 H73 H 0.79054 0.62724 0.29128
 H74 H 0.83419 0.72670 0.32969
 H75 H 0.74346 0.74185 0.17621
 H76 H 0.70991 0.70414 0.14074
 H77 H 0.67002 0.65840 0.22865
 H78 H 0.70509 0.69672 0.26242
 C79 C 0.68977 0.82202 0.31718
 C80 C 0.81552 0.82172 0.18265
 C81 C 0.68728 0.67793 0.18183
 C82 C 0.81483 0.67378 0.31373
 C83 C 0.78133 0.31621 0.73301
 H84 H 0.76906 0.32787 0.75396
 C85 C 0.80029 0.33903 0.71467
 H86 H 0.80243 0.36800 0.72222
 C87 C 0.79507 0.26367 0.69981
 H88 H 0.79318 0.23408 0.69446
 C89 C 0.81344 0.28565 0.68010
 H90 H 0.82471 0.27252 0.65912
 N91 N 0.77868 0.27937 0.72496
 C92 C 0.72841 0.27174 0.81182
 H93 H 0.74294 0.25068 0.82232
 C94 C 0.70957 0.29307 0.83261
 H95 H 0.71045 0.28876 0.85905
 C96 C 0.70939 0.30268 0.76477
 H97 H 0.70935 0.30595 0.73820
 C98 C 0.69015 0.32462 0.78465
 H99 H 0.67516 0.34460 0.77314
 Zn100 Zn 0.75320 0.24814 0.74980
 N101 N 0.72826 0.27717 0.77859
 C102 C 0.79794 0.23336 0.79631
 N103 N 0.77879 0.21646 0.77453
 C104 C 0.77853 0.17877 0.77069
 C105 C 0.79701 0.15642 0.79040
 C106 C 0.81654 0.21227 0.81679
 C107 C 0.72584 0.22619 0.68854
 C108 C 0.70643 0.20536 0.66821
 C109 C 0.68852 0.17358 0.71650
 C110 C 0.70832 0.19504 0.73592
 N111 N 0.72695 0.22017 0.72167
 H112 H 0.79843 0.26351 0.79808
 H113 H 0.76369 0.16580 0.75263
 H114 H 0.79440 0.12662 0.78740
 H115 H 0.83182 0.22755 0.83288
 H116 H 0.73978 0.24734 0.67772
 H117 H 0.70651 0.21000 0.64181
 H118 H 0.67391 0.15370 0.72833
 H119 H 0.70899 0.19153 0.76245
 C120 C 0.69013 0.32002 0.81910
 C121 C 0.81631 0.32409 0.68726
 C122 C 0.68756 0.17843 0.68209
 C123 C 0.81620 0.17273 0.81485
 C124 C 0.27699 0.82017 0.72499
 H125 H 0.26073 0.83375 0.74123
 C126 C 0.29522 0.84175 0.70471
 H127 H 0.29229 0.87177 0.70515
 C128 C 0.30029 0.76470 0.70433
 H129 H 0.30208 0.73459 0.70442
 C130 C 0.31900 0.78518 0.68371
 H131 H 0.33539 0.77057 0.66819
 N132 N 0.27940 0.78232 0.72394
 C133 C 0.23074 0.77850 0.81139
 H134 H 0.24690 0.75954 0.82221
 C135 C 0.21166 0.79965 0.83204
 H136 H 0.21386 0.79728 0.85861
 C137 C 0.20798 0.80435 0.76381
 H138 H 0.20649 0.80560 0.73712
 C139 C 0.18850 0.82615 0.78356
 H140 H 0.17196 0.84408 0.77188
 Zn141 Zn 0.25409 0.75196 0.74982
 N142 N 0.22884 0.78149 0.77794
 C143 C 0.30068 0.73808 0.79491
 N144 N 0.27959 0.72100 0.77538
 C145 C 0.27709 0.68319 0.77421
 C146 C 0.29539 0.66114 0.79432
 C147 C 0.31944 0.71712 0.81539
 C148 C 0.22998 0.72578 0.68853
 C149 C 0.21072 0.70482 0.66814
 C150 C 0.18809 0.67891 0.71695
 C151 C 0.20772 0.70051 0.73643
 N152 N 0.22843 0.72295 0.72201
 H153 H 0.30255 0.76816 0.79492
 H154 H 0.26069 0.67002 0.75801
 H155 H 0.29237 0.63119 0.79381
 H156 H 0.33595 0.73131 0.83090
 H157 H 0.24604 0.74441 0.67749
 H158 H 0.21266 0.70700 0.64154
 H159 H 0.17172 0.66125 0.72885
 H160 H 0.20652 0.69939 0.76314
 C161 C 0.19023 0.82395 0.81818
 C162 C 0.31634 0.82424 0.68339
 C163 C 0.18950 0.68087 0.68230
 C164 C 0.31666 0.67812 0.81560
 C165 C -0.03547 -0.02151 0.02397
 C166 C -0.01966 -0.00164 0.00005
 C167 C -0.03567 0.01770 -0.02428
 C168 C -0.06751 0.01790 -0.02447
 C169 C -0.08314 -0.00252 -0.00064
 C170 C -0.06730 -0.02262 0.02348
 C171 C 0.01371 -0.00119 0.00038
 C172 C 0.03004 -0.02097 -0.02404
 C173 C 0.06189 -0.02099 -0.02383
 C174 C 0.07719 -0.00033 0.00089
 C175 C 0.06104 0.01992 0.02536
 C176 C 0.02919 0.01905 0.02506
 H177 H -0.02289 -0.03697 0.04231
 H178 H -0.02330 0.03344 -0.04242
 H179 H 0.01786 -0.03633 -0.04317
 H180 H 0.01637 0.03411 0.04396
 H181 H -0.10771 -0.00278 -0.00089
 H182 H 0.10175 0.00001 0.00108
 C183 C -0.03344 0.48444 0.52660
 C184 C -0.01825 0.50291 0.50133
 C185 C -0.03483 0.51999 0.47618
 C186 C -0.06663 0.51856 0.47593
 C187 C -0.08153 0.49823 0.50041
 C188 C -0.06525 0.48119 0.52615
 C189 C 0.01512 0.50381 0.50091
 C190 C 0.03106 0.48389 0.47626
 C191 C 0.06290 0.48356 0.47597
 C192 C 0.07862 0.50420 0.50037
 C193 C 0.06288 0.52461 0.52506
 C194 C 0.03103 0.52396 0.52531
 H195 H -0.02020 0.47244 0.54634
 H196 H -0.02289 0.53532 0.45744
 H197 H 0.01856 0.46845 0.45742
 H198 H 0.01854 0.53904 0.54447
 H199 H -0.10589 0.49530 0.49887
 H200 H 0.10319 0.50429 0.50020
 C201 C 0.46594 -0.02009 0.52212
 C202 C 0.48167 0.00056 0.49868
 C203 C 0.46561 0.02117 0.47527
 C204 C 0.43375 0.02169 0.47533
 C205 C 0.41821 0.00054 0.49876
 C206 C 0.43409 -0.02061 0.52214
 C207 C 0.51503 0.00068 0.49873
 C208 C 0.53110 -0.01931 0.47423
 C209 C 0.56295 -0.01960 0.47422
 C210 C 0.57851 0.00105 0.49876
 C211 C 0.56262 0.02142 0.52338
 C212 C 0.53076 0.02075 0.52330
 H213 H 0.47862 -0.03643 0.53975
 H214 H 0.47801 0.03756 0.45762
 H215 H 0.51872 -0.03462 0.45524
 H216 H 0.51809 0.03580 0.54234
 H217 H 0.39364 0.00056 0.49880
 H218 H 0.60307 0.00119 0.49873
 C219 C 0.46517 0.47707 0.02341
 C220 C 0.48129 0.49778 0.00034
 C221 C 0.46563 0.51875 -0.02313
 C222 C 0.43378 0.51955 -0.02352
 C223 C 0.41783 0.49835 -0.00044
 C224 C 0.43331 0.47686 0.02302
 C225 C 0.51465 0.49764 0.00084
 C226 C 0.53090 0.47738 -0.02334
 C227 C 0.56276 0.47688 -0.02294
 C228 C 0.57811 0.49751 0.00177
 C229 C 0.56203 0.51829 0.02594
 C230 C 0.53018 0.51791 0.02543
 H231 H 0.47755 0.46047 0.04110
 H232 H 0.47835 0.53518 -0.04048
 H233 H 0.51864 0.46212 -0.04247
 H234 H 0.51741 0.53337 0.04412
 H235 H 0.39327 0.49862 -0.00073
 H236 H 0.60267 0.49748 0.00216
 C237 C 0.13239 -0.10942 -0.11783
 C238 C 0.14512 -0.09406 -0.14634
 C239 C 0.16358 -0.11578 -0.16735
 C240 C 0.16982 -0.15327 -0.16019
 C241 C 0.15683 -0.16871 -0.13186
 C242 C 0.13830 -0.14705 -0.11095
 C243 C 0.11357 -0.08616 -0.09489
 C244 C 0.08728 -0.10076 -0.08055
 C245 C 0.07026 -0.07940 -0.05790
 C246 C 0.07922 -0.04301 -0.04901
 C247 C 0.10525 -0.02820 -0.06372
 C248 C 0.12222 -0.04953 -0.08646
 H249 H 0.17346 -0.10304 -0.18885
 H250 H 0.16093 -0.19763 -0.12590
 H251 H 0.05045 -0.09166 -0.04677
 H252 H 0.11251 -0.00010 -0.05763
 H253 H 0.12908 -0.15958 -0.08900
 H254 H 0.07987 -0.12876 -0.08683
 H255 H 0.14074 -0.06524 -0.15245
 H256 H 0.14250 -0.03763 -0.09688
 C257 C 0.13142 0.39272 0.38193
 C258 C 0.14400 0.40744 0.35307
 C259 C 0.16188 0.38507 0.33199
 C260 C 0.16769 0.34755 0.33943
 C261 C 0.15486 0.33276 0.36812
 C262 C 0.13691 0.35507 0.38910
 C263 C 0.11313 0.41662 0.40489
 C264 C 0.08683 0.40268 0.41973
 C265 C 0.07031 0.42462 0.44238
 C266 C 0.07975 0.46096 0.45078
 C267 C 0.10580 0.47511 0.43559
 C268 C 0.12228 0.45320 0.41284
 H269 H 0.17166 0.39732 0.31020
 H270 H 0.15865 0.30385 0.37431
 H271 H 0.05049 0.41283 0.45390
 H272 H 0.11345 0.50315 0.44131
 H273 H 0.12779 0.34301 0.41132
 H274 H 0.07903 0.37475 0.41383
 H275 H 0.13993 0.43626 0.34674
 H276 H 0.14259 0.46459 0.40204
 C277 C 0.63272 -0.10983 0.38084
 C278 C 0.63815 -0.14753 0.38791
 C279 C 0.65645 -0.16966 0.36713
 C280 C 0.66971 -0.15465 0.33877
 C281 C 0.66400 -0.11707 0.33146
 C282 C 0.64575 -0.09488 0.35231
 C283 C 0.61407 -0.08610 0.40358
 C284 C 0.62302 -0.04950 0.41174
 C285 C 0.60621 -0.02772 0.43428
 C286 C 0.58004 -0.04202 0.44909
 C287 C 0.57076 -0.07836 0.44046
 C288 C 0.58762 -0.10017 0.41799
 H289 H 0.66014 -0.19863 0.37321
 H290 H 0.67409 -0.10462 0.30994
 H291 H 0.61373 0.00034 0.44016
 H292 H 0.55084 -0.09026 0.45168
 H293 H 0.64175 -0.06603 0.34605
 H294 H 0.64344 -0.03798 0.40127
 H295 H 0.62870 -0.15976 0.40987
 H296 H 0.57996 -0.12812 0.41191
 C297 C 0.63295 0.38745 -0.11669
 C298 C 0.64715 0.40314 -0.14422
 C299 C 0.66547 0.38123 -0.16520
 C300 C 0.67002 0.34312 -0.15914
 C301 C 0.65553 0.32735 -0.13183
 C302 C 0.63724 0.34925 -0.11085
 C303 C 0.61428 0.41092 -0.09372
 C304 C 0.58739 0.39703 -0.08010
 C305 C 0.57047 0.41861 -0.05750
 C306 C 0.58006 0.45457 -0.04800
 C307 C 0.60668 0.46869 -0.06202
 C308 C 0.62360 0.44711 -0.08460
 H309 H 0.67652 0.39431 -0.18584
 H310 H 0.65825 0.29798 -0.12672
 H311 H 0.55021 0.40681 -0.04693
 H312 H 0.61445 0.49648 -0.05554
 H313 H 0.62690 0.33638 -0.08967
 H314 H 0.57940 0.36944 -0.08694
 H315 H 0.64403 0.43239 -0.14960
 H316 H 0.64435 0.45850 -0.09437
 C317 C -0.13310 0.10684 -0.11909
 C318 C -0.13969 0.14425 -0.11139
 C319 C -0.15600 0.16622 -0.13342
 C320 C -0.16678 0.15143 -0.16407
 C321 C -0.15960 0.11350 -0.17149
 C322 C -0.14291 0.09180 -0.14946
 C323 C -0.11646 0.08354 -0.09511
 C324 C -0.09231 0.06039 -0.10550
 C325 C -0.07632 0.03906 -0.08258
 C326 C -0.08449 0.04012 -0.04896
 C327 C -0.10886 0.06296 -0.03869
 C328 C -0.12459 0.08457 -0.06149
 H329 H -0.16144 0.19420 -0.12486
 H330 H -0.16551 0.10033 -0.19486
 H331 H -0.05772 0.02150 -0.09115
 H332 H -0.11545 0.06453 -0.01288
 H333 H -0.13798 0.06295 -0.15606
 H334 H -0.08550 0.05927 -0.13125
 H335 H -0.13229 0.15659 -0.08808
 H336 H -0.14329 0.10192 -0.05289
 C337 C -0.13377 0.60609 0.38110
 C338 C -0.14526 0.64115 0.39125
 C339 C -0.16163 0.66316 0.36929
 C340 C -0.16687 0.65071 0.33659
 C341 C -0.15509 0.61582 0.32628
 C342 C -0.13868 0.59377 0.34829
 C343 C -0.11703 0.58247 0.40488
 C344 C -0.09093 0.56240 0.39508
 C345 C -0.07476 0.54117 0.41792
 C346 C -0.08440 0.53948 0.45102
 C347 C -0.11076 0.55911 0.46063
 C348 C -0.12689 0.58028 0.43785
 H349 H -0.17068 0.68967 0.37815
 H350 H -0.15848 0.60562 0.30116
 H351 H -0.05470 0.52608 0.40969
 H352 H -0.11860 0.55878 0.48602
 H353 H -0.13029 0.56679 0.33980
 H354 H -0.08266 0.56372 0.36991
 H355 H -0.14151 0.65168 0.41622
 H356 H -0.14715 0.59496 0.44607
 C357 C 0.36680 0.11191 0.38227
 C358 C 0.35528 0.14704 0.39216
 C359 C 0.33832 0.16846 0.37024
 C360 C 0.33249 0.15530 0.33786
 C361 C 0.34429 0.12035 0.32782
 C362 C 0.36128 0.09890 0.34978
 C363 C 0.38406 0.08874 0.40599
 C364 C 0.40980 0.06829 0.39570
 C365 C 0.42596 0.04654 0.41815
 C366 C 0.41666 0.04470 0.45135
 C367 C 0.39092 0.06515 0.46160
 C368 C 0.37480 0.08687 0.43919
 H369 H 0.32927 0.19506 0.37889
 H370 H 0.34048 0.10960 0.30294
 H371 H 0.44555 0.03084 0.40945
 H372 H 0.38340 0.06470 0.48709
 H373 H 0.36962 0.07181 0.34150
 H374 H 0.41767 0.06942 0.37037
 H375 H 0.35946 0.15807 0.41688
 H376 H 0.35486 0.10193 0.44781
 C377 C 0.36867 0.61130 -0.11688
 C378 C 0.35724 0.64645 -0.10691
 C379 C 0.34069 0.66822 -0.12892
 C380 C 0.33520 0.65540 -0.16147
 C381 C 0.34694 0.62044 -0.17159
 C382 C 0.36350 0.59865 -0.14955
 C383 C 0.38545 0.58774 -0.09308
 C384 C 0.41118 0.56710 -0.10312
 C385 C 0.42687 0.54497 -0.08060
 C386 C 0.41714 0.54292 -0.04757
 C387 C 0.39140 0.56354 -0.03756
 C388 C 0.37573 0.58564 -0.06004
 H389 H 0.33168 0.69481 -0.12021
 H390 H 0.34337 0.60996 -0.19660
 H391 H 0.44647 0.52915 -0.08913
 H392 H 0.38355 0.56292 -0.01220
 H393 H 0.37178 0.57156 -0.15790
 H394 H 0.41939 0.56840 -0.12832
 H395 H 0.36116 0.65720 -0.08204
 H396 H 0.35578 0.60082 -0.05162
 C397 C -0.13252 -0.11275 0.11670
 C398 C -0.14147 -0.09808 0.14763
 C399 C -0.15831 -0.11957 0.16941
 C400 C -0.16654 -0.15665 0.16104
 C401 C -0.15678 -0.17128 0.13004
 C402 C -0.14020 -0.14961 0.10825
 C403 C -0.11575 -0.08951 0.09300
 C404 C -0.12383 -0.08986 0.05935
 C405 C -0.10821 -0.06798 0.03690
 C406 C -0.08403 -0.04541 0.04757
 C407 C -0.07586 -0.04508 0.08121
 C408 C -0.09167 -0.06679 0.10374
 H409 H -0.16395 -0.10706 0.19320
 H410 H -0.16305 -0.19894 0.12149
 H411 H -0.11479 -0.06907 0.01107
 H412 H -0.05744 -0.02775 0.09013
 H413 H -0.13342 -0.16173 0.08460
 H414 H -0.14249 -0.10680 0.05043
 H415 H -0.13585 -0.06969 0.15481
 H416 H -0.08483 -0.06618 0.12950
 C417 C -0.13026 0.39371 0.62313
 C418 C -0.12332 0.35558 0.62656
 C419 C -0.13987 0.33347 0.64805
 C420 C -0.16466 0.34835 0.66599
 C421 C -0.17151 0.38652 0.66268
 C422 C -0.15428 0.40893 0.64206
 C423 C -0.11310 0.41710 0.59936
 C424 C -0.12708 0.44773 0.58409
 C425 C -0.11134 0.46905 0.56129
 C426 C -0.08143 0.45971 0.55205
 C427 C -0.06740 0.42915 0.56735
 C428 C -0.08279 0.40860 0.59102
 H429 H -0.13312 0.30458 0.65035
 H430 H -0.19058 0.39925 0.67547
 H431 H -0.12286 0.49286 0.55091
 H432 H -0.04462 0.42046 0.56075
 H433 H -0.16005 0.43826 0.64100
 H434 H -0.15047 0.45508 0.58914
 H435 H -0.10543 0.34232 0.61221
 H436 H -0.07076 0.38596 0.60263
 C437 C 0.36854 -0.11043 0.61567
 C438 C 0.35702 -0.14540 0.60584
 C439 C 0.34037 -0.16666 0.62789
 C440 C 0.33489 -0.15353 0.66037
 C441 C 0.34671 -0.11876 0.67035
 C442 C 0.36336 -0.09745 0.64825
 C443 C 0.38545 -0.08740 0.59181
 C444 C 0.41115 -0.06713 0.60191
 C445 C 0.42695 -0.04546 0.57936
 C446 C 0.41738 -0.04355 0.54622
 C447 C 0.39170 -0.06384 0.53616
 C448 C 0.37591 -0.08546 0.55868
 H449 H 0.33130 -0.19311 0.61928
 H450 H 0.34317 -0.10804 0.69530
 H451 H 0.44649 -0.02988 0.58794
 H452 H 0.38396 -0.06334 0.51072
 H453 H 0.37169 -0.07049 0.65650
 H454 H 0.41925 -0.06832 0.62718
 H455 H 0.36094 -0.15641 0.58105
 H456 H 0.35599 -0.10035 0.55020
 C457 C 0.36601 0.38747 0.11541
 C458 C 0.36067 0.40040 0.14798
 C459 C 0.34366 0.37924 0.16986
 C460 C 0.33161 0.34465 0.15967
 C461 C 0.33722 0.33159 0.12720
 C462 C 0.35424 0.35271 0.10536
 C463 C 0.38339 0.41034 0.09183
 C464 C 0.37421 0.41255 0.05859
 C465 C 0.39042 0.43405 0.03634
 C466 C 0.41618 0.45397 0.04679
 C467 C 0.42540 0.45178 0.08002
 C468 C 0.40918 0.43022 0.10230
 H469 H 0.34004 0.38990 0.19481
 H470 H 0.32799 0.30528 0.11843
 H471 H 0.38295 0.43478 0.01082
 H472 H 0.44498 0.46707 0.08890
 H473 H 0.35827 0.34173 0.08058
 H474 H 0.35425 0.39795 0.04982
 H475 H 0.36919 0.42722 0.15640
 H476 H 0.41701 0.42880 0.12766
 C477 C 0.12869 0.11068 0.11946
 C478 C 0.13381 0.14828 0.11215
 C479 C 0.15202 0.17047 0.13277
 C480 C 0.16546 0.15561 0.16123
 C481 C 0.15993 0.11818 0.16886
 C482 C 0.14181 0.09593 0.14815
 C483 C 0.11047 0.08676 0.09667
 C484 C 0.12007 0.05024 0.08861
 C485 C 0.10379 0.02835 0.06586
 C486 C 0.07749 0.04245 0.05075
 C487 C 0.06753 0.07868 0.05933
 C488 C 0.08387 0.10063 0.08199
 H489 H 0.15558 0.19932 0.12644
 H490 H 0.17017 0.10587 0.19048
 H491 H 0.11183 0.00037 0.06001
 H492 H 0.04748 0.09041 0.04790
 H493 H 0.13804 0.06715 0.15459
 H494 H 0.14061 0.03889 0.09928
 H495 H 0.12427 0.16036 0.09006
 H496 H 0.07574 0.12852 0.08797
 C497 C 0.13192 0.61393 0.61898
 C498 C 0.13733 0.65153 0.61190
 C499 C 0.15574 0.67332 0.63262
 C500 C 0.16909 0.65805 0.66096
 C501 C 0.16328 0.62062 0.66835
 C502 C 0.14496 0.59877 0.64753
 C503 C 0.11341 0.59045 0.59612
 C504 C 0.12269 0.55387 0.58778
 C505 C 0.10608 0.53234 0.56507
 C506 C 0.07978 0.54685 0.55028
 C507 C 0.07016 0.58315 0.55911
 C508 C 0.08684 0.60475 0.58173
 H509 H 0.15951 0.70218 0.62649
 H510 H 0.17344 0.60801 0.68987
 H511 H 0.11385 0.50430 0.55902
 H512 H 0.05011 0.59516 0.54794
 H513 H 0.14096 0.56998 0.65378
 H514 H 0.14321 0.54221 0.59823
 H515 H 0.12784 0.66390 0.58991
 H516 H 0.07897 0.63269 0.58795
 C517 C 0.63062 0.11098 0.61831
 C518 C 0.63413 0.14927 0.61267
 C519 C 0.65219 0.17123 0.63363
 C520 C 0.66726 0.15542 0.66070
 C521 C 0.66337 0.11724 0.66667
 C522 C 0.64525 0.09528 0.64572
 C523 C 0.61244 0.08739 0.59514
 C524 C 0.62250 0.05138 0.58588
 C525 C 0.60612 0.02977 0.56301
 C526 C 0.57933 0.04370 0.54879
 C527 C 0.56900 0.07946 0.55845
 C528 C 0.58535 0.10105 0.58137
 H529 H 0.65437 0.20064 0.62861
 H530 H 0.67487 0.10413 0.68713
 H531 H 0.61446 0.00214 0.55643
 H532 H 0.54859 0.09112 0.54774
 H533 H 0.64272 0.06597 0.65097
 H534 H 0.64342 0.04017 0.59576
 H535 H 0.62343 0.16217 0.59160
 H536 H 0.57679 0.12848 0.58829
 C537 C 0.63003 0.60957 0.11932
 C538 C 0.63520 0.64710 0.11181
 C539 C 0.65346 0.66938 0.13229
 C540 C 0.66693 0.65466 0.16079
 C541 C 0.66136 0.61729 0.16861
 C542 C 0.64315 0.59497 0.14807
 C543 C 0.61172 0.58554 0.09671
 C544 C 0.62113 0.54885 0.08901
 C545 C 0.60475 0.52682 0.06646
 C546 C 0.57856 0.54095 0.05117
 C547 C 0.56879 0.57737 0.05937
 C548 C 0.58522 0.59944 0.08186
 H549 H 0.65704 0.69818 0.12581
 H550 H 0.67162 0.60507 0.19026
 H551 H 0.61264 0.49871 0.06092
 H552 H 0.54884 0.58914 0.04778
 H553 H 0.63933 0.56626 0.15468
 H554 H 0.64160 0.53746 0.09981
 H555 H 0.62566 0.65905 0.08966
 H556 H 0.57722 0.62746 0.08757
   
