data_POSCAR
  _audit_creation_date              2014-09-24
  _audit_creation_method            'ToBaCCo'
  _symmetry_space_group_name_H-M    'P1'
  _symmetry_Int_Tables_number       1
  _symmetry_cell_setting            triclinic
  loop_
  _symmetry_equiv_pos_as_xyz
 x,y,z
_cell_length_a 61.8676
_cell_length_b 65.4888
_cell_length_c 67.8011
_cell_angle_alpha 90.045500
_cell_angle_beta 90.282900
_cell_angle_gamma 90.091000
loop_
  _atom_site_label
  _atom_site_type_symbol
  _atom_site_fract_x
  _atom_site_fract_y
  _atom_site_fract_z
O1 O 0.32179 0.35345 0.01930
 O2 O 0.35337 0.32398 -0.01659
 O3 O 0.32507 0.35350 -0.01914
 O4 O 0.35008 0.32447 0.02143
 O5 O 0.32459 0.30096 0.01862
 O6 O 0.29802 0.33148 -0.02020
 O7 O 0.32632 0.30214 -0.01987
 O8 O 0.29575 0.33036 0.01788
 Cu9 Cu 0.34018 0.34119 0.00139
 Cu10 Cu 0.30854 0.31390 -0.00104
 C11 C 0.30348 0.34686 0.02481
 C12 C 0.34518 0.30812 -0.02440
 C13 C 0.30712 0.34763 -0.02639
 C14 C 0.34179 0.30761 0.02671
 O15 O 0.67855 0.65043 0.01721
 O16 O 0.65028 0.67910 -0.02176
 O17 O 0.67846 0.64991 -0.02124
 O18 O 0.65014 0.67963 0.01673
 O19 O 0.67628 0.70266 0.01643
 O20 O 0.70502 0.67249 -0.02116
 O21 O 0.67656 0.70199 -0.02181
 O22 O 0.70500 0.67314 0.01705
 Cu23 Cu 0.66171 0.66249 -0.00222
 Cu24 Cu 0.69336 0.68987 -0.00235
 C25 C 0.69666 0.65679 0.02363
 C26 C 0.65859 0.69543 -0.02839
 C27 C 0.69662 0.65605 -0.02761
 C28 C 0.65826 0.69628 0.02292
 O29 O 0.68103 0.34802 0.97947
 O30 O 0.65135 0.31833 1.01658
 O31 O 0.67921 0.34787 1.01787
 O32 O 0.65276 0.31870 0.97817
 O33 O 0.67903 0.29590 0.97912
 O34 O 0.70588 0.32551 1.01862
 O35 O 0.67767 0.29558 1.01732
 O36 O 0.70762 0.32556 0.98041
 Cu37 Cu 0.66344 0.33549 0.99792
 Cu38 Cu 0.69523 0.30836 0.99894
 C39 C 0.69943 0.34194 0.97373
 C40 C 0.65939 0.30186 1.02319
 C41 C 0.69712 0.34178 1.02494
 C42 C 0.66124 0.30227 0.97201
 O43 O 0.35103 0.67758 1.02041
 O44 O 0.32382 0.64919 0.98055
 O45 O 0.35187 0.67868 0.98197
 O46 O 0.32292 0.64823 1.01907
 O47 O 0.29626 0.67062 1.01880
 O48 O 0.32557 0.70148 0.98214
 O49 O 0.29725 0.67169 0.98053
 O50 O 0.32463 0.70026 1.02031
 Cu51 Cu 0.34005 0.66114 1.00049
 Cu52 Cu 0.30824 0.68827 1.00042
 C53 C 0.34252 0.69378 1.02708
 C54 C 0.30588 0.65555 0.97381
 C55 C 0.34375 0.69533 0.97587
 C56 C 0.30463 0.65420 1.02524
 O57 O 0.01959 0.32936 0.35431
 O58 O -0.02454 0.35449 0.32674
 O59 O -0.02265 0.32764 0.35470
 O60 O 0.01713 0.35695 0.32626
 O61 O 0.01933 0.33187 0.30454
 O62 O -0.02189 0.30311 0.33236
 O63 O -0.02271 0.33038 0.30398
 O64 O 0.01987 0.30444 0.33234
 Cu65 Cu -0.00262 0.34454 0.34280
 Cu66 Cu -0.00128 0.31499 0.31605
 C67 C 0.02696 0.31242 0.34815
 C68 C -0.03086 0.34684 0.31048
 C69 C -0.02913 0.31042 0.34839
 C70 C 0.02487 0.34952 0.31052
 O71 O 0.01890 0.67184 0.64281
 O72 O -0.02114 0.64521 0.67340
 O73 O -0.02277 0.67217 0.64552
 O74 O 0.02101 0.64457 0.67110
 O75 O 0.02216 0.66867 0.69390
 O76 O -0.01955 0.69747 0.66689
 O77 O -0.01954 0.67018 0.69529
 O78 O 0.02246 0.69567 0.66570
 Cu79 Cu -0.00112 0.65592 0.65601
 Cu80 Cu 0.00156 0.68550 0.68266
 C81 C 0.02744 0.68829 0.64900
 C82 C -0.02724 0.65320 0.68949
 C83 C -0.02832 0.68973 0.65162
 C84 C 0.02871 0.65174 0.68708
 O85 O 0.97897 0.67197 0.35465
 O86 O 1.02185 0.64662 0.32608
 O87 O 1.02119 0.67359 0.35394
 O88 O 0.98017 0.64430 0.32657
 O89 O 0.97709 0.66934 0.30493
 O90 O 1.01972 0.69795 0.33147
 O91 O 1.01911 0.67055 0.30324
 O92 O 0.97799 0.69691 0.33275
 Cu93 Cu 1.00061 0.65670 0.34261
 Cu94 Cu 0.99829 0.68614 0.31584
 C95 C 0.97152 0.68898 0.34874
 C96 C 1.02752 0.65415 0.30964
 C97 C 1.02756 0.69071 0.34736
 C98 C 0.97178 0.65171 0.31104
 O99 O 0.97839 0.32866 0.64635
 O100 O 1.02438 0.35368 0.67147
 O101 O 1.02003 0.32645 0.64350
 O102 O 0.98275 0.35612 0.67418
 O103 O 0.98101 0.33065 0.69547
 O104 O 1.02254 0.30312 0.66689
 O105 O 1.02301 0.33036 0.69497
 O106 O 0.98045 0.30309 0.66751
 Cu107 Cu 1.00133 0.34369 0.65662
 Cu108 Cu 1.00176 0.31432 0.68345
 C109 C 0.97207 0.31128 0.65233
 C110 C 1.03107 0.34656 0.68782
 C111 C 1.02787 0.30985 0.65001
 C112 C 0.97541 0.34842 0.68996
 O113 O 0.35539 0.02045 0.32346
 O114 O 0.32831 -0.01974 0.35225
 O115 O 0.35592 -0.01943 0.32345
 O116 O 0.32791 0.02010 0.35235
 O117 O 0.30087 0.01966 0.33095
 O118 O 0.32908 -0.01957 0.30183
 O119 O 0.30128 -0.01989 0.33082
 O120 O 0.32853 0.01999 0.30187
 Cu121 Cu 0.34460 0.00037 0.34003
 Cu122 Cu 0.31223 0.00002 0.31421
 C123 C 0.34662 0.02696 0.30771
 C124 C 0.31010 -0.02653 0.34649
 C125 C 0.34733 -0.02612 0.30766
 C126 C 0.30955 0.02650 0.34664
 O127 O 0.64211 0.01850 0.67363
 O128 O 0.67215 -0.01989 0.64537
 O129 O 0.64453 -0.02090 0.67390
 O130 O 0.67024 0.02000 0.64487
 O131 O 0.69750 0.02078 0.66602
 O132 O 0.67059 -0.01836 0.69618
 O133 O 0.69867 -0.01870 0.66729
 O134 O 0.66946 0.02139 0.69454
 Cu135 Cu 0.65461 -0.00065 0.65721
 Cu136 Cu 0.68673 0.00142 0.68321
 C137 C 0.65061 0.02644 0.68890
 C138 C 0.69044 -0.02595 0.65157
 C139 C 0.65303 -0.02634 0.69014
 C140 C 0.68843 0.02710 0.65036
 O141 O 0.31790 1.02082 0.65212
 O142 O 0.34775 0.98307 0.68141
 O143 O 0.32010 0.98107 0.65206
 O144 O 0.34501 1.02241 0.68118
 O145 O 0.31874 1.01995 0.70303
 O146 O 0.29244 0.98036 0.67254
 O147 O 0.32010 0.98015 0.70173
 O148 O 0.29102 1.01981 0.67345
 Cu149 Cu 0.33537 1.00191 0.66453
 Cu150 Cu 0.30287 0.99994 0.68985
 C151 C 0.29946 1.02684 0.65780
 C152 C 0.33910 0.97524 0.69656
 C153 C 0.30181 0.97399 0.65711
 C154 C 0.33631 1.02797 0.69723
 O155 O 0.64702 0.98112 0.32292
 O156 O 0.67378 1.02116 0.35221
 O157 O 0.64651 1.02010 0.32274
 O158 O 0.67427 0.98109 0.35248
 O159 O 0.70174 0.98149 0.33178
 O160 O 0.67404 1.02085 0.30210
 O161 O 0.70134 1.02101 0.33164
 O162 O 0.67451 0.98088 0.30222
 Cu163 Cu 0.65776 1.00084 0.33982
 Cu164 Cu 0.69065 1.00108 0.31483
 C165 C 0.65602 0.97445 0.30743
 C166 C 0.69215 1.02789 0.34697
 C167 C 0.65538 1.02689 0.30723
 C168 C 0.69272 0.97466 0.34722
 O169 O 0.82126 0.84942 0.51974
 O170 O 0.84955 0.81979 0.48167
 O171 O 0.82141 0.84923 0.48129
 O172 O 0.84941 0.82017 0.52015
 O173 O 0.82313 0.79728 0.51991
 O174 O 0.79481 0.82668 0.48130
 O175 O 0.82324 0.79693 0.48171
 O176 O 0.79470 0.82682 0.51956
 Cu177 Cu 0.83807 0.83692 0.50069
 Cu178 Cu 0.80630 0.80965 0.50058
 C179 C 0.80313 0.84320 0.52607
 C180 C 0.84133 0.80324 0.47535
 C181 C 0.80327 0.84302 0.47481
 C182 C 0.84110 0.80375 0.52658
 O183 O 0.17414 0.14880 0.51730
 O184 O 0.14944 0.17887 0.47726
 O185 O 0.17699 0.14916 0.47879
 O186 O 0.14613 0.17863 0.51521
 O187 O 0.17359 0.19997 0.51877
 O188 O 0.20340 0.17186 0.48032
 O189 O 0.17525 0.20202 0.48040
 O190 O 0.20153 0.17047 0.51848
 Cu191 Cu 0.15904 0.16155 0.49697
 Cu192 Cu 0.19113 0.18835 0.49963
 C193 C 0.19218 0.15441 0.52454
 C194 C 0.15788 0.19578 0.47233
 C195 C 0.19535 0.15555 0.47323
 C196 C 0.15461 0.19423 0.52324
 O197 O 0.14823 0.82066 0.51550
 O198 O 0.17902 0.85056 0.47937
 O199 O 0.15088 0.82147 0.47745
 O200 O 0.17669 0.85028 0.51785
 O201 O 0.20377 0.82833 0.51828
 O202 O 0.17639 0.79800 0.47972
 O203 O 0.20510 0.82756 0.48014
 O204 O 0.17535 0.79891 0.51820
 Cu205 Cu 0.16109 0.83808 0.49751
 Cu206 Cu 0.19279 0.81088 0.49920
 C207 C 0.15653 0.80473 0.52300
 C208 C 0.19719 0.84406 0.47345
 C209 C 0.15907 0.80467 0.47193
 C210 C 0.19481 0.84443 0.52468
 O211 O 0.84734 0.18199 0.51946
 O212 O 0.81910 0.15301 0.48062
 O213 O 0.84780 0.18183 0.48094
 O214 O 0.81871 0.15293 0.51903
 O215 O 0.79247 0.17577 0.51859
 O216 O 0.82192 0.20505 0.48077
 O217 O 0.79287 0.17588 0.48042
 O218 O 0.82141 0.20514 0.51905
 Cu219 Cu 0.83587 0.16515 0.50007
 Cu220 Cu 0.80456 0.19280 0.49969
 C221 C 0.83927 0.19855 0.52578
 C222 C 0.80112 0.15943 0.47401
 C223 C 0.83985 0.19837 0.47441
 C224 C 0.80056 0.15928 0.52513
 O225 O 0.47978 0.85648 0.82707
 O226 O 0.52166 0.82689 0.85280
 O227 O 0.52148 0.85444 0.82541
 O228 O 0.47956 0.82841 0.85467
 O229 O 0.47793 0.80380 0.83240
 O230 O 0.51803 0.83093 0.80221
 O231 O 0.51954 0.80294 0.82990
 O232 O 0.47603 0.83178 0.80509
 Cu233 Cu 0.50079 0.84395 0.84231
 Cu234 Cu 0.49765 0.81497 0.81508
 C235 C 0.47086 0.84925 0.81169
 C236 C 0.52776 0.80992 0.84574
 C237 C 0.52662 0.84726 0.80868
 C238 C 0.47196 0.81145 0.84869
 O239 O 0.47725 0.14723 0.17320
 O240 O 0.51981 0.17247 0.14416
 O241 O 0.51890 0.14478 0.17209
 O242 O 0.47765 0.17441 0.14544
 O243 O 0.47956 0.19854 0.16818
 O244 O 0.52266 0.16979 0.19374
 O245 O 0.52126 0.19741 0.16609
 O246 O 0.48072 0.17091 0.19624
 Cu247 Cu 0.49824 0.15731 0.15641
 Cu248 Cu 0.50127 0.18661 0.18333
 C249 C 0.47207 0.15458 0.18985
 C250 C 0.52746 0.18945 0.15002
 C251 C 0.52772 0.15216 0.18747
 C252 C 0.47150 0.19146 0.15231
 O253 O 0.51715 0.14421 0.82470
 O254 O 0.48022 0.17407 0.85557
 O255 O 0.47552 0.14675 0.82769
 O256 O 0.52183 0.17165 0.85248
 O257 O 0.51982 0.19713 0.83121
 O258 O 0.47672 0.17010 0.80422
 O259 O 0.47781 0.19747 0.83221
 O260 O 0.51875 0.16961 0.80333
 Cu261 Cu 0.49872 0.15670 0.84237
 Cu262 Cu 0.49824 0.18605 0.81548
 C263 C 0.52438 0.15187 0.80886
 C264 C 0.47258 0.19075 0.84910
 C265 C 0.46866 0.15391 0.81142
 C266 C 0.52826 0.18895 0.84636
 O267 O 0.47894 0.82560 0.14637
 O268 O 0.52082 0.85526 0.17221
 O269 O 0.52108 0.82727 0.14452
 O270 O 0.47915 0.85324 0.17372
 O271 O 0.48258 0.82983 0.19697
 O272 O 0.52259 0.80262 0.16672
 O273 O 0.52453 0.83053 0.19412
 O274 O 0.48093 0.80171 0.16930
 Cu275 Cu 0.49983 0.84272 0.15687
 Cu276 Cu 0.50287 0.81376 0.18408
 C277 C 0.47275 0.80864 0.15345
 C278 C 0.52971 0.84803 0.18759
 C279 C 0.52866 0.81032 0.15049
 C280 C 0.47404 0.84615 0.19049
 O281 O 0.82992 0.48097 0.85378
 O282 O 0.85525 0.52195 0.82461
 O283 O 0.82775 0.52084 0.85321
 O284 O 0.85796 0.48252 0.82492
 O285 O 0.83057 0.47945 0.80408
 O286 O 0.80113 0.51936 0.83140
 O287 O 0.82912 0.51922 0.80243
 O288 O 0.80263 0.47994 0.83266
 Cu289 Cu 0.84538 0.50167 0.84135
 Cu290 Cu 0.81319 0.49933 0.81544
 C291 C 0.81177 0.47374 0.84834
 C292 C 0.84663 0.52733 0.80841
 C293 C 0.80937 0.52671 0.84708
 C294 C 0.84946 0.47450 0.80969
 O295 O 0.17097 0.48145 0.14704
 O296 O 0.14595 0.52279 0.17588
 O297 O 0.17320 0.52127 0.14709
 O298 O 0.14315 0.48337 0.17609
 O299 O 0.17069 0.48066 0.19679
 O300 O 0.20000 0.52016 0.16872
 O301 O 0.17226 0.52045 0.19793
 O302 O 0.19841 0.48075 0.16802
 Cu303 Cu 0.15563 0.50228 0.15933
 Cu304 Cu 0.18802 0.50039 0.18506
 C305 C 0.18917 0.47436 0.15244
 C306 C 0.15471 0.52843 0.19196
 C307 C 0.19167 0.52722 0.15299
 C308 C 0.15174 0.47561 0.19137
 O309 O 0.84979 0.47814 0.17688
 O310 O 0.82473 0.51913 0.14747
 O311 O 0.85236 0.51753 0.17693
 O312 O 0.82281 0.47921 0.14773
 O313 O 0.79586 0.48028 0.16897
 O314 O 0.82466 0.52028 0.19720
 O315 O 0.79710 0.51979 0.16798
 O316 O 0.82336 0.48052 0.19856
 Cu317 Cu 0.84011 0.49846 0.16008
 Cu318 Cu 0.80752 0.50036 0.18531
 C319 C 0.84099 0.47258 0.19288
 C320 C 0.80645 0.52617 0.15255
 C321 C 0.84363 0.52535 0.19205
 C322 C 0.80442 0.47307 0.15346
 O323 O 0.15444 0.47986 0.81710
 O324 O 0.18099 0.52040 0.84595
 O325 O 0.15362 0.51963 0.81682
 O326 O 0.18182 0.48063 0.84618
 O327 O 0.20906 0.48120 0.82523
 O328 O 0.18042 0.51979 0.79539
 O329 O 0.20810 0.52076 0.82485
 O330 O 0.18134 0.48027 0.79578
 Cu331 Cu 0.16501 0.50010 0.83363
 Cu332 Cu 0.19747 0.50054 0.80818
 C333 C 0.16326 0.47328 0.80147
 C334 C 0.19913 0.52737 0.84041
 C335 C 0.16209 0.52620 0.80102
 C336 C 0.20031 0.47441 0.84082
 C337 C 0.26820 0.38122 0.06536
 N338 N 0.25842 0.36619 0.05476
 N339 N 0.26971 0.35503 0.04200
 C340 C 0.29111 0.35864 0.03927
 N341 N 0.30085 0.37368 0.04985
 N342 N 0.28962 0.38470 0.06273
 C343 C 0.25585 0.39385 0.07919
 N344 N 0.26631 0.40593 0.09241
 N345 N 0.25525 0.41784 0.10465
 C346 C 0.23333 0.41826 0.10401
 N347 N 0.22283 0.40617 0.09079
 N348 N 0.23390 0.39410 0.07864
 C349 C 0.22138 0.43205 0.11707
 N350 N 0.20021 0.43634 0.11370
 N351 N 0.18978 0.44965 0.12509
 C352 C 0.20012 0.45900 0.14034
 N353 N 0.22121 0.45453 0.14381
 N354 N 0.23166 0.44137 0.13235
 C355 C 0.72995 0.62156 0.06515
 N356 N 0.70859 0.61838 0.06166
 N357 N 0.69795 0.62974 0.04855
 C358 C 0.70823 0.64484 0.03859
 N359 N 0.72956 0.64816 0.04221
 N360 N 0.74026 0.63666 0.05519
 C361 C 0.74177 0.60846 0.07905
 N362 N 0.76371 0.60804 0.07919
 N363 N 0.77435 0.59554 0.09133
 C364 C 0.76341 0.58316 0.10387
 N365 N 0.74148 0.58373 0.10384
 N366 N 0.73085 0.59608 0.09159
 C367 C 0.77495 0.56896 0.11693
 N368 N 0.76430 0.55936 0.13171
 N369 N 0.77449 0.54598 0.14323
 C370 C 0.79566 0.54157 0.14029
 N371 N 0.80635 0.55118 0.12550
 N372 N 0.79619 0.56471 0.11408
 C373 C 0.73385 0.37795 0.93384
 N374 N 0.74394 0.36287 0.94406
 N375 N 0.73292 0.35116 0.95656
 C376 C 0.71145 0.35423 0.95940
 N377 N 0.70138 0.36931 0.94919
 N378 N 0.71235 0.38089 0.93657
 C379 C 0.74595 0.39120 0.92036
 N380 N 0.73528 0.40347 0.90748
 N381 N 0.74613 0.41591 0.89555
 C382 C 0.76804 0.41668 0.89619
 N383 N 0.77874 0.40443 0.90908
 N384 N 0.76789 0.39184 0.92090
 C385 C 0.77980 0.43092 0.88340
 N386 N 0.80094 0.43538 0.88680
 N387 N 0.81126 0.44892 0.87556
 C388 C 0.80083 0.45834 0.86044
 N389 N 0.77976 0.45374 0.85696
 N390 N 0.76941 0.44034 0.86828
 C391 C 0.27431 0.62160 0.93008
 N392 N 0.29545 0.61816 0.93436
 N393 N 0.30554 0.62907 0.94822
 C394 C 0.29490 0.64394 0.95818
 N395 N 0.27381 0.64751 0.95379
 N396 N 0.26367 0.63647 0.94005
 C397 C 0.26299 0.60895 0.91542
 N398 N 0.24107 0.60886 0.91443
 N399 N 0.23077 0.59671 0.90172
 C400 C 0.24201 0.58435 0.88939
 N401 N 0.26394 0.58461 0.89023
 N402 N 0.27424 0.59663 0.90307
 C403 C 0.23066 0.57031 0.87600
 N404 N 0.24148 0.56048 0.86144
 N405 N 0.23133 0.54711 0.84980
 C406 C 0.21003 0.54295 0.85243
 N407 N 0.19920 0.55281 0.86695
 N408 N 0.20930 0.56632 0.87847
 C409 C 0.07227 0.27996 0.38153
 N410 N 0.06235 0.27126 0.36573
 N411 N 0.04828 0.28182 0.35492
 C412 C 0.04344 0.30144 0.35958
 N413 N 0.05340 0.31021 0.37535
 N414 N 0.06763 0.29967 0.38610
 C415 C 0.08685 0.26777 0.39394
 N416 N 0.09948 0.27667 0.40797
 N417 N 0.11204 0.26532 0.41963
 C418 C 0.11227 0.24466 0.41777
 N419 N 0.09968 0.23581 0.40372
 N420 N 0.08730 0.24715 0.39197
 C421 C 0.12500 0.23192 0.43131
 N422 N 0.12070 0.21166 0.43283
 N423 N 0.13142 0.20012 0.44573
 C424 C 0.14702 0.20837 0.45741
 N425 N 0.15153 0.22859 0.45574
 N426 N 0.14064 0.24020 0.44297
 C427 C 0.06921 0.72095 0.61248
 N428 N 0.07059 0.72294 0.63239
 N429 N 0.05743 0.71240 0.64411
 C430 C 0.04268 0.69924 0.63634
 N431 N 0.04152 0.69705 0.61646
 N432 N 0.05443 0.70783 0.60474
 C433 C 0.08274 0.73334 0.59944
 N434 N 0.07554 0.73834 0.58114
 N435 N 0.08747 0.74998 0.56932
 C436 C 0.10719 0.75677 0.57525
 N437 N 0.11452 0.75162 0.59349
 N438 N 0.10241 0.74025 0.60545
 C439 C 0.12017 0.76958 0.56210
 N440 N 0.14209 0.76946 0.56314
 N441 N 0.15376 0.78069 0.55070
 C442 C 0.14389 0.79267 0.53704
 N443 N 0.12198 0.79294 0.53617
 N444 N 0.11033 0.78148 0.54837
 C445 C 0.92804 0.72154 0.38366
 N446 N 0.93205 0.70153 0.38743
 N447 N 0.94572 0.69099 0.37620
 C448 C 0.95569 0.70007 0.36069
 N449 N 0.95148 0.72000 0.35683
 N450 N 0.93799 0.73056 0.36815
 C451 C 0.91391 0.73357 0.39654
 N452 N 0.91438 0.75427 0.39579
 N453 N 0.90220 0.76535 0.40787
 C454 C 0.88890 0.75613 0.42101
 N455 N 0.88825 0.73541 0.42165
 N456 N 0.90062 0.72432 0.40969
 C457 C 0.87602 0.76845 0.43470
 N458 N 0.85942 0.76002 0.44490
 N459 N 0.84810 0.77120 0.45761
 C460 C 0.85311 0.79114 0.46072
 N461 N 0.86972 0.79955 0.45053
 N462 N 0.88089 0.78844 0.43767
 C463 C 0.92654 0.27871 0.61915
 N464 N 0.92977 0.29893 0.61582
 N465 N 0.94401 0.30945 0.62661
 C466 C 0.95538 0.30015 0.64123
 N467 N 0.95195 0.28001 0.64472
 N468 N 0.93785 0.26946 0.63383
 C469 C 0.91196 0.26675 0.60647
 N470 N 0.91282 0.24605 0.60661
 N471 N 0.90044 0.23512 0.59442
 C472 C 0.88660 0.24448 0.58175
 N473 N 0.88555 0.26520 0.58176
 N474 N 0.89809 0.27614 0.59383
 C475 C 0.87368 0.23240 0.56775
 N476 N 0.85709 0.24101 0.55758
 N477 N 0.84585 0.23013 0.54443
 C478 C 0.85096 0.21031 0.54086
 N479 N 0.86755 0.20172 0.55104
 N480 N 0.87864 0.21254 0.56431
 C481 C 0.37915 0.07008 0.27345
 N482 N 0.38542 0.06645 0.29235
 N483 N 0.37494 0.05282 0.30334
 C484 C 0.35771 0.04248 0.29588
 N485 N 0.35131 0.04626 0.27706
 N486 N 0.36191 0.05974 0.26601
 C487 C 0.39136 0.08429 0.26102
 N488 N 0.38864 0.08418 0.24114
 N489 N 0.40047 0.09635 0.22972
 C490 C 0.41530 0.10921 0.23779
 N491 N 0.41785 0.10950 0.25769
 N492 N 0.40615 0.09719 0.26910
 C493 C 0.42910 0.12184 0.22515
 N494 N 0.44129 0.13712 0.23296
 N495 N 0.45460 0.14791 0.22160
 C496 C 0.45632 0.14369 0.20207
 N497 N 0.44408 0.12846 0.19425
 N498 N 0.43063 0.11780 0.20557
 C499 C 0.61451 0.06692 0.72302
 N500 N 0.60460 0.05305 0.71116
 N501 N 0.61618 0.04049 0.69996
 C502 C 0.63809 0.04113 0.70045
 N503 N 0.64805 0.05496 0.71236
 N504 N 0.63644 0.06776 0.72335
 C505 C 0.60160 0.08010 0.73584
 N506 N 0.60903 0.09867 0.74174
 N507 N 0.59710 0.11049 0.75344
 C508 C 0.57752 0.10397 0.75989
 N509 N 0.57021 0.08537 0.75410
 N510 N 0.58195 0.07371 0.74216
 C511 C 0.56438 0.11662 0.77301
 N512 N 0.55029 0.10767 0.78562
 N513 N 0.53789 0.11899 0.79730
 C514 C 0.53888 0.13967 0.79658
 N515 N 0.55291 0.14866 0.78391
 N516 N 0.56558 0.13732 0.77244
 C517 C 0.37550 0.93551 0.73150
 N518 N 0.38526 0.94958 0.71988
 N519 N 0.37358 0.96192 0.70848
 C520 C 0.35168 0.96086 0.70851
 N521 N 0.34185 0.94684 0.72020
 N522 N 0.35358 0.93425 0.73138
 C523 C 0.38859 0.92237 0.74431
 N524 N 0.38170 0.90345 0.74955
 N525 N 0.39406 0.89151 0.76086
 C526 C 0.41352 0.89825 0.76757
 N527 N 0.42026 0.91724 0.76248
 N528 N 0.40810 0.92902 0.75094
 C529 C 0.42742 0.88528 0.77982
 N530 N 0.44207 0.89391 0.79225
 N531 N 0.45549 0.88232 0.80277
 C532 C 0.45498 0.86169 0.80104
 N533 N 0.44034 0.85301 0.78860
 N534 N 0.42667 0.86461 0.77828
 C535 C 0.62191 0.93427 0.27095
 N536 N 0.64387 0.93421 0.27099
 N537 N 0.65489 0.94690 0.28272
 C538 C 0.64430 0.95977 0.29505
 N539 N 0.62238 0.95960 0.29516
 N540 N 0.61139 0.94720 0.28322
 C541 C 0.60953 0.92122 0.25745
 N542 N 0.58995 0.92749 0.25075
 N543 N 0.57837 0.91576 0.23863
 C544 C 0.58580 0.89719 0.23300
 N545 N 0.60535 0.89081 0.23978
 N546 N 0.61712 0.90272 0.25167
 C547 C 0.57245 0.88420 0.22023
 N548 N 0.57343 0.86353 0.22151
 N549 N 0.56004 0.85188 0.21088
 C550 C 0.54547 0.86052 0.19838
 N551 N 0.54476 0.88116 0.19689
 N552 N 0.55789 0.89279 0.20773
 C553 C 0.38181 0.27396 0.93596
 N554 N 0.39156 0.28568 0.94992
 N555 N 0.37984 0.29682 0.96233
 C556 C 0.35794 0.29637 0.96144
 N557 N 0.34814 0.28456 0.94754
 N558 N 0.35989 0.27367 0.93491
 C559 C 0.39484 0.26142 0.92264
 N560 N 0.38743 0.25628 0.90441
 N561 N 0.39947 0.24494 0.89238
 C562 C 0.41915 0.23808 0.89832
 N563 N 0.42645 0.24310 0.91659
 N564 N 0.41458 0.25470 0.92848
 C565 C 0.43243 0.22540 0.88534
 N566 N 0.44687 0.21208 0.89319
 N567 N 0.45934 0.20078 0.88156
 C568 C 0.45806 0.20261 0.86165
 N569 N 0.44368 0.21600 0.85377
 N570 N 0.43095 0.22708 0.86542
 C571 C 0.62488 0.72879 0.92896
 N572 N 0.61937 0.70915 0.93291
 N573 N 0.63022 0.69847 0.94641
 C574 C 0.64709 0.70699 0.95633
 N575 N 0.65274 0.72657 0.95223
 N576 N 0.64176 0.73731 0.93886
 C577 C 0.61219 0.74087 0.91485
 N578 N 0.61396 0.76153 0.91451
 N579 N 0.60160 0.77260 0.90247
 C580 C 0.58717 0.76341 0.89018
 N581 N 0.58559 0.74273 0.89034
 N582 N 0.59781 0.73167 0.90252
 C583 C 0.57270 0.77568 0.87777
 N584 N 0.56086 0.76686 0.86314
 N585 N 0.54691 0.77787 0.85257
 C586 C 0.54416 0.79806 0.85637
 N587 N 0.55606 0.80688 0.87094
 N588 N 0.57015 0.79592 0.88138
 C589 C 0.37561 0.72718 0.07023
 N590 N 0.38118 0.70757 0.06627
 N591 N 0.37049 0.69686 0.05264
 C592 C 0.35373 0.70532 0.04260
 N593 N 0.34799 0.72486 0.04671
 N594 N 0.35881 0.73564 0.06021
 C595 C 0.38820 0.73932 0.08440
 N596 N 0.38647 0.75998 0.08469
 N597 N 0.39882 0.77111 0.09675
 C598 C 0.41319 0.76198 0.10909
 N599 N 0.41471 0.74131 0.10899
 N600 N 0.40251 0.73018 0.09680
 C601 C 0.42768 0.77431 0.12149
 N602 N 0.43947 0.76555 0.13615
 N603 N 0.45346 0.77660 0.14670
 C604 C 0.45631 0.79676 0.14282
 N605 N 0.44447 0.80552 0.12822
 N606 N 0.43034 0.79453 0.11780
 C607 C 0.62376 0.26756 0.06356
 N608 N 0.64050 0.25898 0.05370
 N609 N 0.65210 0.26999 0.04103
 C610 C 0.64721 0.28989 0.03763
 N611 N 0.63044 0.29843 0.04746
 N612 N 0.61900 0.28750 0.06027
 C613 C 0.61065 0.25548 0.07726
 N614 N 0.59730 0.26492 0.09018
 N615 N 0.58495 0.25406 0.10231
 C616 C 0.58532 0.23334 0.10183
 N617 N 0.59866 0.22387 0.08889
 N618 N 0.61119 0.23475 0.07688
 C619 C 0.57106 0.22154 0.11478
 N620 N 0.56691 0.20150 0.11118
 N621 N 0.55316 0.19114 0.12250
 C622 C 0.54326 0.20042 0.13792
 N623 N 0.54760 0.22038 0.14162
 N624 N 0.56116 0.23077 0.13020
 C625 C 0.26618 0.06831 0.62213
 N626 N 0.25556 0.05770 0.63631
 N627 N 0.26620 0.04476 0.64801
 C628 C 0.28779 0.04186 0.64581
 N629 N 0.29837 0.05250 0.63165
 N630 N 0.28778 0.06556 0.62010
 C631 C 0.25456 0.08208 0.60872
 N632 N 0.26571 0.09520 0.59709
 N633 N 0.25539 0.10721 0.58433
 C634 C 0.23355 0.10641 0.58258
 N635 N 0.22236 0.09330 0.59423
 N636 N 0.23268 0.08139 0.60713
 C637 C 0.22244 0.11919 0.56796
 N638 N 0.20149 0.11559 0.56293
 N639 N 0.19177 0.12682 0.54912
 C640 C 0.20260 0.14214 0.53995
 N641 N 0.22347 0.14581 0.54509
 N642 N 0.23324 0.13449 0.55877
 C643 C 0.72317 0.07081 0.38103
 N644 N 0.70262 0.06504 0.38523
 N645 N 0.69249 0.05120 0.37411
 C646 C 0.70247 0.04275 0.35828
 N647 N 0.72295 0.04872 0.35397
 N648 N 0.73315 0.06241 0.36521
 C649 C 0.73470 0.08532 0.39380
 N650 N 0.75656 0.08683 0.39304
 N651 N 0.76717 0.09935 0.40519
 C652 C 0.75628 0.11098 0.41840
 N653 N 0.73440 0.10963 0.41903
 N654 N 0.72380 0.09695 0.40701
 C655 C 0.76806 0.12416 0.43228
 N656 N 0.75760 0.13894 0.44253
 N657 N 0.76822 0.15046 0.45558
 C658 C 0.78963 0.14746 0.45899
 N659 N 0.80007 0.13269 0.44874
 N660 N 0.78950 0.12132 0.43554
 C661 C 0.72422 0.93116 0.61813
 N662 N 0.73441 0.94183 0.63263
 N663 N 0.72358 0.95528 0.64354
 C664 C 0.70223 0.95866 0.64020
 N665 N 0.69205 0.94798 0.62571
 N666 N 0.70283 0.93441 0.61493
 C667 C 0.73621 0.91686 0.60562
 N668 N 0.72550 0.90373 0.59352
 N669 N 0.73634 0.89125 0.58163
 C670 C 0.75827 0.89157 0.58128
 N671 N 0.76898 0.90467 0.59340
 N672 N 0.75815 0.91704 0.60542
 C673 C 0.77014 0.87848 0.56750
 N674 N 0.79135 0.88201 0.56375
 N675 N 0.80190 0.87067 0.55064
 C676 C 0.79167 0.85528 0.54093
 N677 N 0.77052 0.85162 0.54481
 N678 N 0.75991 0.86308 0.55780
 C679 C 0.27749 0.93070 0.38108
 N680 N 0.29875 0.93471 0.38435
 N681 N 0.30922 0.94821 0.37321
 C682 C 0.29886 0.95804 0.35830
 N683 N 0.27767 0.95388 0.35492
 N684 N 0.26715 0.94051 0.36616
 C685 C 0.26563 0.91660 0.39392
 N686 N 0.24370 0.91627 0.39366
 N687 N 0.23283 0.90410 0.40584
 C688 C 0.24349 0.89168 0.41859
 N689 N 0.26544 0.89185 0.41872
 N690 N 0.27632 0.90416 0.40666
 C691 C 0.23143 0.87883 0.43244
 N692 N 0.24144 0.86370 0.44265
 N693 N 0.23048 0.85239 0.45555
 C694 C 0.20918 0.85596 0.45881
 N695 N 0.19919 0.87110 0.44860
 N696 N 0.21009 0.88226 0.43559
 C697 C 0.07695 0.37921 0.72052
 N698 N 0.06577 0.36360 0.72880
 N699 N 0.05155 0.35289 0.71820
 C700 C 0.04785 0.35751 0.69897
 N701 N 0.05908 0.37308 0.69064
 N702 N 0.07346 0.38368 0.70121
 C703 C 0.09164 0.39172 0.73257
 N704 N 0.10554 0.40509 0.72404
 N705 N 0.11812 0.41708 0.73512
 C706 C 0.11708 0.41627 0.75510
 N707 N 0.10323 0.40286 0.76361
 N708 N 0.09081 0.39074 0.75255
 C709 C 0.12987 0.43033 0.76734
 N710 N 0.12456 0.43346 0.78651
 N711 N 0.13539 0.44697 0.79744
 C712 C 0.15209 0.45770 0.78966
 N713 N 0.15759 0.45441 0.77056
 N714 N 0.14660 0.44104 0.75956
 C715 C 0.07173 0.62219 0.27500
 N716 N 0.06927 0.61754 0.29437
 N717 N 0.05539 0.62792 0.30549
 C718 C 0.04362 0.64344 0.29768
 N719 N 0.04628 0.64826 0.27837
 N720 N 0.06002 0.63775 0.26721
 C721 C 0.08597 0.60989 0.26247
 N722 N 0.08446 0.61106 0.24253
 N723 N 0.09646 0.59904 0.23113
 C724 C 0.11055 0.58555 0.23926
 N725 N 0.11226 0.58456 0.25920
 N726 N 0.10012 0.59645 0.27061
 C727 C 0.12286 0.57153 0.22672
 N728 N 0.13935 0.56032 0.23434
 N729 N 0.14984 0.54689 0.22314
 C730 C 0.14408 0.54407 0.20398
 N731 N 0.12764 0.55532 0.19636
 N732 N 0.11729 0.56887 0.20750
 C733 C 0.92413 0.37877 0.27633
 N734 N 0.93539 0.36296 0.26853
 N735 N 0.94934 0.35245 0.27957
 C736 C 0.95267 0.35749 0.29877
 N737 N 0.94134 0.37324 0.30661
 N738 N 0.92725 0.38364 0.29561
 C739 C 0.90978 0.39112 0.26385
 N740 N 0.91083 0.38969 0.24391
 N741 N 0.89880 0.40175 0.23250
 C742 C 0.88513 0.41556 0.24061
 N743 N 0.88386 0.41682 0.26056
 N744 N 0.89604 0.40487 0.27198
 C745 C 0.87282 0.42961 0.22801
 N746 N 0.85652 0.44104 0.23555
 N747 N 0.84604 0.45444 0.22424
 C748 C 0.85162 0.45703 0.20506
 N749 N 0.86788 0.44557 0.19754
 N750 N 0.87822 0.43204 0.20878
 C751 C 0.92927 0.62093 0.72470
 N752 N 0.93192 0.61593 0.70543
 N753 N 0.94559 0.62639 0.69416
 C754 C 0.95694 0.64237 0.70169
 N755 N 0.95410 0.64755 0.72090
 N756 N 0.94058 0.63695 0.73223
 C757 C 0.91518 0.60859 0.73736
 N758 N 0.91662 0.61003 0.75730
 N759 N 0.90473 0.59799 0.76879
 C760 C 0.89082 0.58420 0.76076
 N761 N 0.88919 0.58294 0.74082
 N762 N 0.90123 0.59485 0.72933
 C763 C 0.87855 0.57020 0.77338
 N764 N 0.86216 0.55879 0.76580
 N765 N 0.85167 0.54542 0.77707
 C766 C 0.85734 0.54285 0.79628
 N767 N 0.87369 0.55429 0.80387
 N768 N 0.88405 0.56779 0.79265
 C769 C 0.72901 0.62134 0.93168
 N770 N 0.73839 0.63823 0.93960
 N771 N 0.72778 0.64967 0.95261
 C772 C 0.70748 0.64450 0.95834
 N773 N 0.69812 0.62760 0.95039
 N774 N 0.70865 0.61628 0.93723
 C775 C 0.74091 0.60836 0.91781
 N776 N 0.73037 0.59413 0.90679
 N777 N 0.74126 0.58191 0.89467
 C778 C 0.76309 0.58333 0.89330
 N779 N 0.77362 0.59757 0.90431
 N780 N 0.76271 0.60993 0.91628
 C781 C 0.77520 0.56920 0.88070
 N782 N 0.79680 0.56672 0.88332
 N783 N 0.80770 0.55328 0.87249
 C784 C 0.79743 0.54199 0.85849
 N785 N 0.77587 0.54461 0.85571
 N786 N 0.76493 0.55791 0.86669
 C787 C 0.27709 0.38202 0.93094
 N788 N 0.26719 0.36535 0.93864
 N789 N 0.27708 0.35404 0.95228
 C790 C 0.29714 0.35911 0.95890
 N791 N 0.30705 0.37580 0.95117
 N792 N 0.29724 0.38699 0.93738
 C793 C 0.26587 0.39480 0.91637
 N794 N 0.27688 0.40878 0.90555
 N795 N 0.26653 0.42071 0.89270
 C796 C 0.24477 0.41923 0.89037
 N797 N 0.23377 0.40526 0.90120
 N798 N 0.24415 0.39319 0.91388
 C799 C 0.23317 0.43299 0.87692
 N800 N 0.21149 0.43552 0.87859
 N801 N 0.20101 0.44859 0.86695
 C802 C 0.21178 0.45943 0.85306
 N803 N 0.23344 0.45675 0.85123
 N804 N 0.24397 0.44383 0.86302
 C805 C 0.27200 0.61955 0.06588
 N806 N 0.29237 0.61450 0.06040
 N807 N 0.30295 0.62574 0.04721
 C808 C 0.29362 0.64256 0.03914
 N809 N 0.27329 0.64769 0.04476
 N810 N 0.26264 0.63633 0.05780
 C811 C 0.26011 0.60679 0.07995
 N812 N 0.23833 0.60846 0.08160
 N813 N 0.22744 0.59642 0.09389
 C814 C 0.23796 0.58242 0.10513
 N815 N 0.25977 0.58088 0.10362
 N816 N 0.27064 0.59279 0.09119
 C817 C 0.22585 0.56868 0.11816
 N818 N 0.23617 0.55770 0.13233
 N819 N 0.22522 0.54477 0.14372
 C820 C 0.20360 0.54221 0.14120
 N821 N 0.19330 0.55319 0.12703
 N822 N 0.20420 0.56627 0.11579
 C823 C 0.72763 0.37654 0.06716
 N824 N 0.70742 0.38135 0.06087
 N825 N 0.69749 0.36999 0.04727
 C826 C 0.70731 0.35326 0.03957
 N827 N 0.72744 0.34830 0.04606
 N828 N 0.73746 0.35981 0.05952
 C829 C 0.73894 0.38970 0.08141
 N830 N 0.76072 0.38852 0.08362
 N831 N 0.77111 0.40115 0.09583
 C832 C 0.76008 0.41527 0.10643
 N833 N 0.73827 0.41629 0.10440
 N834 N 0.72790 0.40380 0.09203
 C835 C 0.77166 0.42975 0.11924
 N836 N 0.76089 0.44097 0.13288
 N837 N 0.77137 0.45455 0.14404
 C838 C 0.79293 0.45757 0.14180
 N839 N 0.80368 0.44635 0.12816
 N840 N 0.79325 0.43262 0.11715
 C841 C 0.92753 0.72278 0.61951
 N842 N 0.93177 0.70304 0.61485
 N843 N 0.94591 0.69225 0.62541
 C844 C 0.95619 0.70073 0.64117
 N845 N 0.95168 0.72040 0.64602
 N846 N 0.93771 0.73126 0.63531
 C847 C 0.91299 0.73498 0.60709
 N848 N 0.91344 0.75569 0.60796
 N849 N 0.90115 0.76680 0.59588
 C850 C 0.88779 0.75759 0.58263
 N851 N 0.88714 0.73688 0.58192
 N852 N 0.89960 0.72578 0.59386
 C853 C 0.87500 0.76981 0.56869
 N854 N 0.85855 0.76120 0.55827
 N855 N 0.84747 0.77212 0.54509
 C856 C 0.85262 0.79197 0.54171
 N857 N 0.86907 0.80057 0.55213
 N858 N 0.87999 0.78971 0.56546
 C859 C 0.92774 0.27769 0.38170
 N860 N 0.93309 0.29712 0.38668
 N861 N 0.94699 0.30775 0.37580
 C862 C 0.95590 0.29942 0.35939
 N863 N 0.95033 0.28004 0.35426
 N864 N 0.93661 0.26932 0.36529
 C865 C 0.91320 0.26575 0.39429
 N866 N 0.91278 0.24505 0.39316
 N867 N 0.90036 0.23421 0.40529
 C868 C 0.88774 0.24367 0.41883
 N869 N 0.88798 0.26438 0.41980
 N870 N 0.90058 0.27521 0.40783
 C871 C 0.87471 0.23173 0.43271
 N872 N 0.85860 0.24069 0.44313
 N873 N 0.84723 0.22998 0.45619
 C874 C 0.85174 0.20999 0.45948
 N875 N 0.86785 0.20103 0.44907
 N876 N 0.87906 0.21168 0.43585
 C877 C 0.06827 0.27657 0.61456
 N878 N 0.06555 0.27127 0.63374
 N879 N 0.05252 0.28211 0.64535
 C880 C 0.04205 0.29881 0.63825
 N881 N 0.04511 0.30424 0.61913
 N882 N 0.05781 0.29322 0.60746
 C883 C 0.08155 0.26412 0.60137
 N884 N 0.07605 0.26227 0.58206
 N885 N 0.08779 0.25077 0.56998
 C886 C 0.10569 0.24100 0.57670
 N887 N 0.11134 0.24299 0.59599
 N888 N 0.09936 0.25421 0.60817
 C889 C 0.11850 0.22844 0.56323
 N890 N 0.14030 0.22711 0.56526
 N891 N 0.15190 0.21622 0.55250
 C892 C 0.14204 0.20600 0.53752
 N893 N 0.12023 0.20715 0.53565
 N894 N 0.10869 0.21833 0.54817
 C895 C 0.07225 0.72349 0.37930
 N896 N 0.06687 0.70419 0.38466
 N897 N 0.05248 0.69353 0.37420
 C898 C 0.04308 0.70169 0.35787
 N899 N 0.04869 0.72092 0.35236
 N900 N 0.06292 0.73167 0.36296
 C901 C 0.08717 0.73558 0.39153
 N902 N 0.08795 0.75621 0.38977
 N903 N 0.10054 0.76728 0.40168
 C904 C 0.11298 0.75810 0.41564
 N905 N 0.11242 0.73745 0.41722
 N906 N 0.09966 0.72639 0.40544
 C907 C 0.12589 0.77038 0.42948
 N908 N 0.14138 0.76157 0.44089
 N909 N 0.15234 0.77259 0.45413
 C910 C 0.14803 0.79275 0.45656
 N911 N 0.13258 0.80155 0.44513
 N912 N 0.12178 0.79059 0.43176
 C913 C 0.62057 0.93105 0.72508
 N914 N 0.61502 0.93365 0.70585
 N915 N 0.62554 0.94707 0.69466
 C916 C 0.64212 0.95823 0.70225
 N917 N 0.64783 0.95547 0.72142
 N918 N 0.63718 0.94218 0.73266
 C919 C 0.60818 0.91706 0.73765
 N920 N 0.61016 0.91790 0.75759
 N921 N 0.59811 0.90593 0.76903
 C922 C 0.58379 0.89257 0.76095
 N923 N 0.58199 0.89157 0.74100
 N924 N 0.59391 0.90365 0.72957
 C925 C 0.56978 0.88008 0.77355
 N926 N 0.55788 0.86457 0.76577
 N927 N 0.54446 0.85382 0.77706
 C928 C 0.54232 0.85829 0.79650
 N929 N 0.55426 0.87375 0.80430
 N930 N 0.56781 0.88439 0.79305
 C931 C 0.38094 0.93139 0.27349
 N932 N 0.38701 0.93517 0.29242
 N933 N 0.37621 0.94860 0.30336
 C934 C 0.35883 0.95860 0.29583
 N935 N 0.35264 0.95468 0.27697
 N936 N 0.36356 0.94139 0.26597
 C937 C 0.39344 0.91728 0.26115
 N938 N 0.39081 0.91718 0.24126
 N939 N 0.40277 0.90502 0.22997
 C940 C 0.41766 0.89235 0.23816
 N941 N 0.42013 0.89228 0.25807
 N942 N 0.40830 0.90459 0.26935
 C943 C 0.43149 0.87960 0.22563
 N944 N 0.44364 0.86441 0.23358
 N945 N 0.45684 0.85341 0.22230
 C946 C 0.45849 0.85733 0.20270
 N947 N 0.44630 0.87248 0.19476
 N948 N 0.43296 0.88334 0.20600
 C949 C 0.62048 0.06644 0.27081
 N950 N 0.61021 0.05328 0.28305
 N951 N 0.62144 0.04104 0.29492
 C952 C 0.64336 0.04127 0.29479
 N953 N 0.65370 0.05437 0.28248
 N954 N 0.64243 0.06688 0.27081
 C955 C 0.60783 0.07943 0.25746
 N956 N 0.61528 0.09797 0.25161
 N957 N 0.60332 0.10981 0.23985
 C958 C 0.58369 0.10333 0.23328
 N959 N 0.57640 0.08471 0.23898
 N960 N 0.58817 0.07306 0.25097
 C961 C 0.57020 0.11622 0.22054
 N962 N 0.55551 0.10752 0.20820
 N963 N 0.54242 0.11906 0.19727
 C964 C 0.54331 0.13972 0.19851
 N965 N 0.55799 0.14846 0.21087
 N966 N 0.57134 0.13690 0.22159
 C967 C 0.36903 0.07081 0.73204
 N968 N 0.35303 0.05919 0.73989
 N969 N 0.34219 0.04586 0.72870
 C970 C 0.34712 0.04356 0.70932
 N971 N 0.36307 0.05522 0.70150
 N972 N 0.37374 0.06867 0.71262
 C973 C 0.38178 0.08480 0.74442
 N974 N 0.39499 0.09882 0.73598
 N975 N 0.40748 0.11083 0.74708
 C976 C 0.40739 0.10914 0.76703
 N977 N 0.39411 0.09517 0.77550
 N978 N 0.38146 0.08327 0.76439
 C979 C 0.42223 0.12155 0.77905
 N980 N 0.42625 0.11672 0.79820
 N981 N 0.44079 0.12723 0.80867
 C982 C 0.45169 0.14305 0.80040
 N983 N 0.44746 0.14802 0.78135
 N984 N 0.43307 0.13742 0.77084
 C985 C 0.62348 0.73095 0.06365
 N986 N 0.63995 0.73948 0.05335
 N987 N 0.65130 0.72836 0.04059
 C988 C 0.64644 0.70837 0.03755
 N989 N 0.62996 0.69986 0.04784
 N990 N 0.61877 0.71092 0.06073
 C991 C 0.61059 0.74320 0.07741
 N992 N 0.59744 0.73391 0.09063
 N993 N 0.58527 0.74492 0.10279
 C994 C 0.58563 0.76563 0.10205
 N995 N 0.59876 0.77495 0.08882
 N996 N 0.61111 0.76392 0.07677
 C997 C 0.57156 0.77762 0.11505
 N998 N 0.56748 0.79762 0.11130
 N999 N 0.55396 0.80817 0.12268
 C1000 C 0.54421 0.79912 0.13831
 N1001 N 0.54848 0.77919 0.14215
 N1002 N 0.56182 0.76861 0.13068
 C1003 C 0.37427 0.27305 0.06932
 N1004 N 0.35836 0.26449 0.05816
 N1005 N 0.34765 0.27559 0.04486
 C1006 C 0.35260 0.29559 0.04212
 N1007 N 0.36846 0.30414 0.05332
 N1008 N 0.37903 0.29310 0.06673
 C1009 C 0.38688 0.26068 0.08329
 N1010 N 0.40040 0.26977 0.09648
 N1011 N 0.41268 0.25857 0.10849
 C1012 C 0.41203 0.23787 0.10764
 N1013 N 0.39844 0.22877 0.09451
 N1014 N 0.38602 0.23997 0.08261
 C1015 C 0.42658 0.22556 0.12000
 N1016 N 0.42975 0.20549 0.11596
 N1017 N 0.44386 0.19457 0.12644
 C1018 C 0.45518 0.20327 0.14146
 N1019 N 0.45184 0.22329 0.14566
 N1020 N 0.43786 0.23426 0.13506
 C1021 C 0.62768 0.26804 0.92974
 N1022 N 0.62277 0.28797 0.93286
 N1023 N 0.63366 0.29891 0.94617
 C1024 C 0.65002 0.29039 0.95671
 N1025 N 0.65511 0.27051 0.95345
 N1026 N 0.64406 0.25950 0.94026
 C1027 C 0.61481 0.25582 0.91580
 N1028 N 0.61557 0.23510 0.91618
 N1029 N 0.60292 0.22408 0.90425
 C1030 C 0.58922 0.23339 0.89140
 N1031 N 0.58868 0.25410 0.89087
 N1032 N 0.60116 0.26511 0.90291
 C1033 C 0.57445 0.22140 0.87892
 N1034 N 0.56321 0.23057 0.86416
 N1035 N 0.54889 0.22005 0.85348
 C1036 C 0.54516 0.20001 0.85727
 N1037 N 0.55647 0.19079 0.87198
 N1038 N 0.57093 0.20128 0.88257
 C1039 C 0.37859 0.73072 0.93574
 N1040 N 0.38352 0.71074 0.93857
 N1041 N 0.37236 0.69946 0.95131
 C1042 C 0.35570 0.70769 0.96153
 N1043 N 0.35064 0.72764 0.95861
 N1044 N 0.36196 0.73898 0.94601
 C1045 C 0.39134 0.74319 0.92206
 N1046 N 0.39057 0.76390 0.92278
 N1047 N 0.40270 0.77513 0.91072
 C1048 C 0.41586 0.76604 0.89738
 N1049 N 0.41647 0.74534 0.89656
 N1050 N 0.40452 0.73412 0.90874
 C1051 C 0.42965 0.77824 0.88432
 N1052 N 0.43928 0.76939 0.86854
 N1053 N 0.45240 0.78015 0.85700
 C1054 C 0.45655 0.80011 0.86091
 N1055 N 0.44692 0.80900 0.87668
 N1056 N 0.43361 0.79827 0.88813
 C1057 C 0.72513 0.93193 0.38227
 N1058 N 0.73568 0.94209 0.36776
 N1059 N 0.72527 0.95549 0.35642
 C1060 C 0.70396 0.95936 0.35928
 N1061 N 0.69340 0.94920 0.37380
 N1062 N 0.70378 0.93566 0.38503
 C1063 C 0.73680 0.91759 0.39512
 N1064 N 0.72588 0.90481 0.40730
 N1065 N 0.73653 0.89218 0.41929
 C1066 C 0.75848 0.89201 0.41965
 N1067 N 0.76938 0.90479 0.40747
 N1068 N 0.75874 0.91728 0.39536
 C1069 C 0.77025 0.87873 0.43344
 N1070 N 0.79158 0.88191 0.43713
 N1071 N 0.80213 0.87040 0.45018
 C1072 C 0.79180 0.85515 0.45989
 N1073 N 0.77052 0.85182 0.45607
 N1074 N 0.75991 0.86346 0.44314
 C1075 C 0.27044 0.93167 0.62070
 N1076 N 0.29180 0.93572 0.61830
 N1077 N 0.30190 0.94904 0.63003
 C1078 C 0.29105 0.95864 0.64471
 N1079 N 0.26975 0.95443 0.64723
 N1080 N 0.25961 0.94125 0.63539
 C1081 C 0.25905 0.91772 0.60724
 N1082 N 0.23712 0.91738 0.60656
 N1083 N 0.22674 0.90525 0.59388
 C1084 C 0.23792 0.89287 0.58153
 N1085 N 0.25986 0.89308 0.58232
 N1086 N 0.27024 0.90535 0.59488
 C1087 C 0.22651 0.87988 0.56720
 N1088 N 0.23716 0.86484 0.55749
 N1089 N 0.22695 0.85336 0.54416
 C1090 C 0.20576 0.85661 0.53992
 N1091 N 0.19510 0.87165 0.54962
 N1092 N 0.20527 0.88302 0.56309
 C1093 C 0.27634 0.06884 0.38130
 N1094 N 0.26613 0.05885 0.36637
 N1095 N 0.27681 0.04560 0.35513
 C1096 C 0.29805 0.04173 0.35851
 N1097 N 0.30828 0.05174 0.37343
 N1098 N 0.29764 0.06511 0.38457
 C1099 C 0.26435 0.08291 0.39409
 N1100 N 0.27494 0.09543 0.40688
 N1101 N 0.26397 0.10775 0.41886
 C1102 C 0.24202 0.10788 0.41860
 N1103 N 0.23145 0.09537 0.40580
 N1104 N 0.24241 0.08318 0.39371
 C1105 C 0.22985 0.12078 0.43235
 N1106 N 0.20844 0.11747 0.43523
 N1107 N 0.19745 0.12866 0.44816
 C1108 C 0.20743 0.14371 0.45857
 N1109 N 0.22881 0.14716 0.45558
 N1110 N 0.23985 0.13584 0.44276
 C1111 C 0.72054 0.07010 0.61557
 N1112 N 0.69935 0.06578 0.61221
 N1113 N 0.68901 0.05217 0.62334
 C1114 C 0.69945 0.04253 0.63834
 N1115 N 0.72056 0.04699 0.64178
 N1116 N 0.73094 0.06045 0.63055
 C1117 C 0.73229 0.08445 0.60289
 N1118 N 0.75422 0.08512 0.60339
 N1119 N 0.76505 0.09764 0.59153
 C1120 C 0.75435 0.11013 0.57886
 N1121 N 0.73241 0.10961 0.57846
 N1122 N 0.72157 0.09693 0.59021
 C1123 C 0.76642 0.12344 0.56539
 N1124 N 0.75633 0.13868 0.55538
 N1125 N 0.76729 0.15037 0.54282
 C1126 C 0.78867 0.14714 0.53969
 N1127 N 0.79874 0.13191 0.54970
 N1128 N 0.78784 0.12035 0.56240
 C1129 C 0.92993 0.61577 0.27713
 N1130 N 0.94429 0.60708 0.28975
 N1131 N 0.95719 0.61863 0.30091
 C1132 C 0.95643 0.63929 0.29965
 N1133 N 0.94209 0.64802 0.28700
 N1134 N 0.92893 0.63645 0.27604
 C1135 C 0.91652 0.60285 0.26429
 N1136 N 0.89704 0.60938 0.25747
 N1137 N 0.88505 0.59745 0.24579
 C1138 C 0.89230 0.57873 0.24028
 N1139 N 0.91183 0.57231 0.24700
 N1140 N 0.92364 0.58408 0.25891
 C1141 C 0.87946 0.56553 0.22724
 N1142 N 0.88944 0.55163 0.21558
 N1143 N 0.87796 0.53916 0.20408
 C1144 C 0.85605 0.53991 0.20402
 N1145 N 0.84601 0.55377 0.21573
 N1146 N 0.85753 0.56649 0.22703
 C1147 C 0.93550 0.38379 0.72581
 N1148 N 0.93425 0.36309 0.72642
 N1149 N 0.94688 0.35170 0.71494
 C1150 C 0.96090 0.36065 0.70222
 N1151 N 0.96192 0.38133 0.70148
 N1152 N 0.94957 0.39268 0.71316
 C1153 C 0.92241 0.39651 0.73894
 N1154 N 0.92977 0.41514 0.74465
 N1155 N 0.91807 0.42687 0.75654
 C1156 C 0.89842 0.42056 0.76292
 N1157 N 0.89095 0.40197 0.75712
 N1158 N 0.90283 0.39007 0.74546
 C1159 C 0.88553 0.43385 0.77569
 N1160 N 0.86360 0.43298 0.77543
 N1161 N 0.85201 0.44584 0.78636
 C1162 C 0.86198 0.45978 0.79816
 N1163 N 0.88390 0.46044 0.79859
 N1164 N 0.89546 0.44782 0.78744
 C1165 C 0.07353 0.61781 0.71964
 N1166 N 0.06929 0.61298 0.70052
 N1167 N 0.05518 0.62390 0.69000
 C1168 C 0.04497 0.64014 0.69820
 N1169 N 0.04940 0.64509 0.71724
 N1170 N 0.06333 0.63407 0.72779
 C1171 C 0.08813 0.60522 0.73164
 N1172 N 0.08781 0.60666 0.75160
 N1173 N 0.10036 0.59472 0.76265
 C1174 C 0.11388 0.58104 0.75414
 N1175 N 0.11438 0.57973 0.73415
 N1176 N 0.10165 0.59154 0.72310
 C1177 C 0.12704 0.56738 0.76642
 N1178 N 0.14385 0.55685 0.75862
 N1179 N 0.15534 0.54402 0.76974
 C1180 C 0.15027 0.54111 0.78900
 N1181 N 0.13346 0.55163 0.79678
 N1182 N 0.12214 0.56462 0.78573
 C1183 C 0.06567 0.38534 0.27586
 N1184 N 0.06675 0.36464 0.27491
 N1185 N 0.05388 0.35312 0.28606
 C1186 C 0.03977 0.36192 0.29878
 N1187 N 0.03893 0.38258 0.29989
 N1188 N 0.05153 0.39408 0.28853
 C1189 C 0.07890 0.39818 0.26295
 N1190 N 0.07169 0.41689 0.25744
 N1191 N 0.08342 0.42864 0.24556
 C1192 C 0.10295 0.42225 0.23900
 N1193 N 0.11029 0.40359 0.24462
 N1194 N 0.09837 0.39168 0.25626
 C1195 C 0.11579 0.43546 0.22610
 N1196 N 0.13772 0.43450 0.22613
 N1197 N 0.14927 0.44722 0.21498
 C1198 C 0.13926 0.46108 0.20319
 N1199 N 0.11734 0.46183 0.20300
 N1200 N 0.10583 0.44937 0.21436
   
