data_POSCAR
  _audit_creation_date              2014-09-24
  _audit_creation_method            'ToBaCCo'
  _symmetry_space_group_name_H-M    'P1'
  _symmetry_Int_Tables_number       1
  _symmetry_cell_setting            triclinic
  loop_
  _symmetry_equiv_pos_as_xyz
 x,y,z
_cell_length_a 48.7649
_cell_length_b 24.8023
_cell_length_c 20.3054
_cell_angle_alpha 89.978700
_cell_angle_beta 90.012000
_cell_angle_gamma 90.073800
loop_
  _atom_site_label
  _atom_site_type_symbol
  _atom_site_fract_x
  _atom_site_fract_y
  _atom_site_fract_z
C1 C 0.69727 0.29894 0.56261
 C2 C 0.68494 0.31048 0.50179
 C3 C 0.69687 0.29509 0.44232
 C4 C 0.72246 0.26861 0.44228
 C5 C 0.73602 0.25833 0.50284
 C6 C 0.72347 0.27366 0.56323
 C7 C 0.73864 0.26842 0.62173
 C8 C 0.76492 0.24691 0.62159
 C9 C 0.77727 0.22862 0.56313
 C10 C 0.76281 0.23539 0.50270
 C11 C 0.73539 0.25474 0.38297
 C12 C 0.76149 0.23255 0.38267
 C13 C 0.77570 0.22266 0.44175
 C14 C 0.80334 0.20518 0.44145
 C15 C 0.81723 0.19959 0.50133
 C16 C 0.80472 0.20915 0.56240
 H17 H 0.73100 0.28357 0.66813
 H18 H 0.77588 0.24747 0.66782
 H19 H 0.72582 0.26263 0.33586
 H20 H 0.77078 0.22535 0.33517
 H21 H 0.66494 0.32961 0.50044
 H22 H 0.83795 0.18364 0.50013
 C23 C 0.19947 0.80160 0.56027
 C24 C 0.18615 0.81247 0.50075
 C25 C 0.19766 0.79786 0.44037
 C26 C 0.22335 0.77155 0.43889
 C27 C 0.23743 0.76108 0.49881
 C28 C 0.22556 0.77667 0.55967
 C29 C 0.24054 0.76896 0.61791
 C30 C 0.26654 0.74572 0.61670
 C31 C 0.27823 0.72684 0.55753
 C32 C 0.26364 0.73599 0.49767
 C33 C 0.23558 0.75666 0.37899
 C34 C 0.26113 0.73202 0.37775
 C35 C 0.27557 0.72183 0.43630
 C36 C 0.30181 0.69835 0.43486
 C37 C 0.31589 0.68931 0.49347
 C38 C 0.30487 0.70296 0.55526
 H39 H 0.23260 0.78238 0.66491
 H40 H 0.27753 0.74427 0.66280
 H41 H 0.22562 0.76440 0.33232
 H42 H 0.26962 0.72144 0.33023
 H43 H 0.16621 0.83182 0.50147
 H44 H 0.33582 0.67004 0.49047
 C45 C 0.29979 0.30461 -0.56222
 C46 C 0.31319 0.31423 -0.50260
 C47 C 0.30106 0.30092 -0.44253
 C48 C 0.27473 0.27714 -0.44145
 C49 C 0.26071 0.26742 -0.50156
 C50 C 0.27326 0.28160 -0.56218
 C51 C 0.25854 0.27471 -0.62088
 C52 C 0.23199 0.25423 -0.62028
 C53 C 0.21933 0.23762 -0.56123
 C54 C 0.23376 0.24528 -0.50089
 C55 C 0.26175 0.26462 -0.38177
 C56 C 0.23530 0.24377 -0.38085
 C57 C 0.22091 0.23345 -0.43968
 C58 C 0.19322 0.21610 -0.43891
 C59 C 0.17917 0.21020 -0.49871
 C60 C 0.19183 0.21821 -0.56011
 H61 H 0.26711 0.28682 -0.66780
 H62 H 0.22122 0.25368 -0.66675
 H63 H 0.27169 0.27217 -0.33498
 H64 H 0.22602 0.23756 -0.33313
 H65 H 0.33350 0.33220 -0.50297
 H66 H 0.15840 0.19448 -0.49713
 C67 C -0.20382 0.81916 -0.55774
 C68 C -0.19354 0.83588 -0.49641
 C69 C -0.20442 0.81674 -0.43731
 C70 C -0.22774 0.78306 -0.43817
 C71 C -0.23975 0.76823 -0.49917
 C72 C -0.22759 0.78564 -0.55922
 C73 C -0.24026 0.77095 -0.61878
 C74 C -0.26316 0.73752 -0.61972
 C75 C -0.27566 0.71987 -0.56104
 C76 C -0.26371 0.73521 -0.50001
 C77 C -0.23928 0.76379 -0.37943
 C78 C -0.26224 0.73070 -0.38027
 C79 C -0.27536 0.71703 -0.43976
 C80 C -0.29867 0.68260 -0.44067
 C81 C -0.30869 0.66453 -0.50159
 C82 C -0.29870 0.68461 -0.56170
 H83 H -0.23269 0.78525 -0.66567
 H84 H -0.27063 0.72502 -0.66744
 H85 H -0.23055 0.77391 -0.33200
 H86 H -0.26922 0.71504 -0.33348
 H87 H -0.17499 0.86004 -0.49427
 H88 H -0.32695 0.63947 -0.50217
 O89 O -0.03866 0.90582 0.12380
 O90 O -0.06903 0.95452 0.06114
 C91 C -0.06337 0.92119 0.10839
 O92 O 0.03921 1.09505 0.11411
 O93 O 0.06919 1.04299 0.05474
 C94 C 0.06379 1.08027 0.09764
 O95 O -0.03712 1.08712 0.12642
 O96 O -0.06835 1.04197 0.06247
 C97 C -0.06204 1.07382 0.11086
 O98 O 0.03843 0.89918 0.11542
 O99 O 0.06865 0.95019 0.05515
 C100 C 0.06311 0.91357 0.09894
 Zr101 Zr 0.00001 0.92889 0.08373
 O102 O 0.00356 0.92603 0.18758
 O103 O -0.00343 0.84381 0.08034
 Zr104 Zr 0.00059 1.06555 0.08318
 O105 O 0.00449 1.07154 0.18662
 O106 O -0.00305 1.15054 0.07733
 O107 O -0.02380 0.99742 0.09746
 O108 O 0.02405 0.99707 0.09509
 O109 O 0.03776 0.90045 -0.11680
 O110 O 0.06828 0.95132 -0.05737
 C111 C 0.06256 0.91533 -0.10156
 O112 O -0.03893 1.09226 -0.11760
 O113 O -0.06899 1.04259 -0.05545
 C114 C -0.06350 1.07775 -0.10088
 O115 O 0.03725 1.09363 -0.11684
 O116 O 0.06833 1.04364 -0.05805
 C117 C 0.06211 1.07915 -0.10271
 O118 O -0.03915 0.90603 -0.12092
 O119 O -0.06913 0.95297 -0.05563
 C120 C -0.06378 0.91990 -0.10342
 Zr121 Zr -0.00070 0.92856 -0.08127
 O122 O 0.00126 0.92158 -0.18489
 O123 O -0.00396 0.84361 -0.07342
 Zr124 Zr -0.00072 1.06541 -0.08159
 O125 O 0.00102 1.06720 -0.18576
 O126 O -0.00310 1.15062 -0.07788
 Zr127 Zr -0.04125 0.99740 0.00231
 Zr128 Zr 0.04087 0.99702 -0.00043
 O129 O 0.02279 0.99696 -0.09470
 O130 O -0.02507 0.99710 -0.09396
 O131 O 0.02446 0.91821 0.00046
 O132 O -0.02425 1.07534 0.00194
 O133 O -0.02460 0.91916 0.00192
 O134 O 0.02476 1.07590 -0.00025
 H135 H 0.03634 0.99719 0.13396
 H136 H -0.03688 1.10660 0.00306
 H137 H 0.03440 0.99685 -0.13472
 H138 H -0.03749 0.88824 0.00239
 H139 H 0.01410 1.16478 0.05790
 H140 H 0.01383 1.16406 -0.05658
 H141 H -0.01404 1.04423 -0.20252
 H142 H -0.00739 0.95433 -0.20314
 H143 H 0.01402 0.82967 -0.05865
 H144 H 0.01289 0.82985 0.05698
 H145 H -0.01058 0.95023 0.20606
 H146 H -0.00515 1.04012 0.20560
 O147 O 0.46166 0.40495 0.11992
 O148 O 0.43190 0.45348 0.05576
 C149 C 0.43713 0.41966 0.10287
 O150 O 0.53986 0.59311 0.11513
 O151 O 0.56986 0.54098 0.05608
 C152 C 0.56449 0.57754 0.09982
 O153 O 0.46294 0.59039 0.11880
 O154 O 0.43251 0.54297 0.05505
 C155 C 0.43819 0.57682 0.10183
 O156 O 0.53824 0.39828 0.11594
 O157 O 0.56913 0.44848 0.05683
 C158 C 0.56311 0.41217 0.10052
 Zr159 Zr 0.50021 0.42848 0.08184
 O160 O 0.50266 0.42622 0.18587
 O161 O 0.49650 0.34342 0.07871
 Zr162 Zr 0.50123 0.56510 0.08080
 O163 O 0.50362 0.56919 0.18473
 O164 O 0.49879 0.65024 0.07524
 O165 O 0.47632 0.49744 0.09378
 O166 O 0.52430 0.49621 0.09436
 O167 O 0.53944 0.39683 -0.11449
 O168 O 0.56969 0.44794 -0.05459
 C169 C 0.56414 0.41105 -0.09786
 O170 O 0.46405 0.59061 -0.12359
 O171 O 0.43305 0.54231 -0.06233
 C172 C 0.43919 0.57667 -0.10820
 O173 O 0.54072 0.59243 -0.11674
 O174 O 0.57031 0.54047 -0.05609
 C175 C 0.56523 0.57691 -0.10035
 O176 O 0.46287 0.40366 -0.12305
 O177 O 0.43242 0.45256 -0.06129
 C178 C 0.43815 0.41817 -0.10745
 Zr179 Zr 0.50103 0.42765 -0.08340
 O180 O 0.50449 0.42467 -0.18723
 O181 O 0.49725 0.34262 -0.07952
 Zr182 Zr 0.50195 0.56421 -0.08442
 O183 O 0.50521 0.56551 -0.18837
 O184 O 0.49965 0.64945 -0.08187
 Zr185 Zr 0.45995 0.49726 -0.00246
 Zr186 Zr 0.54202 0.49530 -0.00015
 O187 O 0.52519 0.49526 -0.09563
 O188 O 0.47717 0.49645 -0.09776
 O189 O 0.52524 0.41691 0.00002
 O190 O 0.47750 0.57486 -0.00248
 O191 O 0.47643 0.41890 -0.00138
 O192 O 0.52641 0.57454 -0.00123
 H193 H 0.53616 0.49600 0.13396
 H194 H 0.46512 0.60652 -0.00291
 H195 H 0.53748 0.49464 -0.13449
 H196 H 0.46363 0.38783 -0.00143
 H197 H 0.51616 0.66355 0.05597
 H198 H 0.51608 0.66286 -0.05843
 H199 H 0.49064 0.54182 -0.20608
 H200 H 0.49112 0.45065 -0.20544
 H201 H 0.51357 0.32838 -0.05642
 H202 H 0.51319 0.32900 0.05738
 H203 H 0.48902 0.45206 0.20311
 H204 H 0.49034 0.54277 0.20249
 C205 C 0.34961 0.34679 0.27212
 C206 C 0.33610 0.38710 0.30829
 C207 C 0.31888 0.37325 0.36062
 C208 C 0.31458 0.31894 0.37678
 C209 C 0.32699 0.27854 0.33894
 C210 C 0.34447 0.29235 0.28707
 C211 C 0.37092 0.36169 0.22347
 C212 C 0.36638 0.40311 0.17758
 C213 C 0.38756 0.42038 0.13618
 C214 C 0.41382 0.39735 0.14089
 C215 C 0.41804 0.35478 0.18547
 C216 C 0.39678 0.33698 0.22604
 H217 H 0.30962 0.40483 0.38994
 H218 H 0.32401 0.23646 0.35133
 H219 H 0.38356 0.45284 0.10192
 H220 H 0.43796 0.33593 0.19015
 H221 H 0.35457 0.26059 0.25970
 H222 H 0.34654 0.42255 0.17441
 H223 H 0.33998 0.42933 0.29828
 H224 H 0.40090 0.30534 0.26145
 C225 C -0.15081 0.85811 0.28387
 C226 C -0.16001 0.89835 0.32704
 C227 C -0.17822 0.88583 0.37781
 C228 C -0.18835 0.83298 0.38570
 C229 C -0.17967 0.79304 0.34092
 C230 C -0.16098 0.80545 0.29082
 C231 C -0.12950 0.87097 0.23434
 C232 C -0.13211 0.91683 0.19438
 C233 C -0.11098 0.93178 0.15172
 C234 C -0.08657 0.90167 0.14889
 C235 C -0.08415 0.85521 0.18807
 C236 C -0.10556 0.83971 0.22998
 H237 H -0.18437 0.91763 0.41127
 H238 H -0.18604 0.75147 0.34693
 H239 H -0.11339 0.96810 0.12267
 H240 H -0.06558 0.83130 0.18701
 H241 H -0.15409 0.77373 0.25816
 H242 H -0.15037 0.94156 0.19688
 H243 H -0.15228 0.93918 0.32301
 H244 H -0.10299 0.80446 0.26086
 C245 C 0.65055 0.64681 0.27512
 C246 C 0.65896 0.70018 0.28615
 C247 C 0.67680 0.71248 0.33806
 C248 C 0.68635 0.67166 0.38061
 C249 C 0.67787 0.61819 0.36892
 C250 C 0.66055 0.60586 0.31629
 C251 C 0.62996 0.63379 0.22388
 C252 C 0.63403 0.58999 0.18127
 C253 C 0.61327 0.57373 0.13817
 C254 C 0.58778 0.60024 0.13774
 C255 C 0.58414 0.64544 0.17860
 C256 C 0.60512 0.66229 0.22090
 H257 H 0.68190 0.75437 0.34704
 H258 H 0.68470 0.58576 0.40069
 H259 H 0.61681 0.53892 0.10724
 H260 H 0.56480 0.66683 0.17933
 H261 H 0.65410 0.56444 0.30927
 H262 H 0.65307 0.56759 0.18244
 H263 H 0.65134 0.73248 0.25528
 H264 H 0.60144 0.69598 0.25364
 C265 C 0.14375 1.17106 0.27438
 C266 C 0.13240 1.20175 0.32573
 C267 C 0.14844 1.21850 0.37873
 C268 C 0.17649 1.20515 0.38253
 C269 C 0.18787 1.17436 0.33093
 C270 C 0.17177 1.15792 0.27738
 C271 C 0.12578 1.15058 0.22047
 C272 C 0.12931 1.09836 0.19459
 C273 C 0.11005 1.07660 0.15083
 C274 C 0.08670 1.10625 0.13302
 C275 C 0.08395 1.15935 0.15580
 C276 C 0.10341 1.18149 0.19835
 H277 H 0.13878 1.24235 0.41690
 H278 H 0.20897 1.16089 0.33320
 H279 H 0.11252 1.03545 0.13426
 H280 H 0.06628 1.18330 0.14210
 H281 H 0.18122 1.13429 0.23878
 H282 H 0.14611 1.07314 0.21081
 H283 H 0.11079 1.21166 0.32620
 H284 H 0.10044 1.22237 0.21554
 C285 C 0.64879 0.33756 -0.27130
 C286 C 0.66086 0.28646 -0.27637
 C287 C 0.67793 0.27427 -0.32973
 C288 C 0.68266 0.31266 -0.37970
 C289 C 0.67037 0.36381 -0.37398
 C290 C 0.65403 0.37637 -0.31982
 C291 C 0.62906 0.34992 -0.21856
 C292 C 0.63389 0.39318 -0.17572
 C293 C 0.61335 0.41051 -0.13280
 C294 C 0.58732 0.38605 -0.13362
 C295 C 0.58304 0.34091 -0.17430
 C296 C 0.60386 0.32273 -0.21607
 H297 H 0.68630 0.23396 -0.33363
 H298 H 0.67361 0.39438 -0.41133
 H299 H 0.61744 0.44478 -0.10141
 H300 H 0.56330 0.32089 -0.17570
 H301 H 0.64466 0.41589 -0.31688
 H302 H 0.65326 0.41458 -0.17707
 H303 H 0.65672 0.25588 -0.23958
 H304 H 0.59976 0.28943 -0.24916
 C305 C 0.14925 0.84274 -0.27387
 C306 C 0.15529 0.78848 -0.28770
 C307 C 0.17300 0.77512 -0.33942
 C308 C 0.18475 0.81575 -0.37837
 C309 C 0.17943 0.86992 -0.36347
 C310 C 0.16202 0.88334 -0.31134
 C311 C 0.12820 0.85719 -0.22413
 C312 C 0.13248 0.90053 -0.18084
 C313 C 0.11153 0.91776 -0.13887
 C314 C 0.08569 0.89242 -0.13979
 C315 C 0.08171 0.84792 -0.18159
 C316 C 0.10280 0.83032 -0.22304
 H317 H 0.17664 0.73308 -0.35085
 H318 H 0.18805 0.90173 -0.39365
 H319 H 0.11529 0.95234 -0.10756
 H320 H 0.06208 0.82754 -0.18354
 H321 H 0.15748 0.92543 -0.30236
 H322 H 0.15191 0.92174 -0.18036
 H323 H 0.14585 0.75645 -0.25938
 H324 H 0.09883 0.79715 -0.25640
 C325 C 0.35679 0.66181 -0.28391
 C326 C 0.32848 0.65084 -0.28074
 C327 C 0.31102 0.66551 -0.33265
 C328 C 0.32137 0.69234 -0.38861
 C329 C 0.34968 0.70383 -0.39076
 C330 C 0.36703 0.68873 -0.33957
 C331 C 0.37610 0.64290 -0.23189
 C332 C 0.39984 0.67289 -0.21702
 C333 C 0.41999 0.65191 -0.17550
 C334 C 0.41660 0.60105 -0.14640
 C335 C 0.39218 0.57245 -0.15762
 C336 C 0.37223 0.59288 -0.20041
 H337 H 0.28969 0.65348 -0.33020
 H338 H 0.35857 0.72466 -0.43255
 H339 H 0.43844 0.67524 -0.16680
 H340 H 0.38909 0.53314 -0.13581
 H341 H 0.38873 0.69680 -0.34489
 H342 H 0.40319 0.71225 -0.23864
 H343 H 0.31984 0.63017 -0.23861
 H344 H 0.35441 0.56830 -0.21104
 C345 C -0.14559 1.16638 -0.27358
 C346 C -0.17365 1.15307 -0.27417
 C347 C -0.19041 1.16849 -0.32702
 C348 C -0.17959 1.19827 -0.38021
 C349 C -0.15160 1.21242 -0.37831
 C350 C -0.13492 1.19659 -0.32619
 C351 C -0.12682 1.14638 -0.22113
 C352 C -0.10402 1.17739 -0.20174
 C353 C -0.08389 1.15557 -0.16087
 C354 C -0.08645 1.10280 -0.13686
 C355 C -0.11011 1.07305 -0.15203
 C356 C -0.13001 1.09439 -0.19431
 H357 H -0.21150 1.15476 -0.32764
 H358 H -0.14242 1.23579 -0.41766
 H359 H -0.06601 1.17968 -0.14899
 H360 H -0.11247 1.03226 -0.13419
 H361 H -0.11334 1.20663 -0.32854
 H362 H -0.10128 1.21815 -0.21968
 H363 H -0.18259 1.12990 -0.23440
 H364 H -0.14711 1.06907 -0.20851
 C365 C 0.65087 0.64433 -0.27711
 C366 C 0.66017 0.69728 -0.28666
 C367 C 0.67776 0.70953 -0.33895
 C368 C 0.68617 0.66914 -0.38346
 C369 C 0.67666 0.61608 -0.37347
 C370 C 0.65960 0.60370 -0.32031
 C371 C 0.63051 0.63182 -0.22534
 C372 C 0.63474 0.58863 -0.18190
 C373 C 0.61413 0.57315 -0.13791
 C374 C 0.58862 0.59954 -0.13790
 C375 C 0.58491 0.64429 -0.17952
 C376 C 0.60577 0.66055 -0.22243
 H377 H 0.68365 0.75121 -0.34651
 H378 H 0.68260 0.58397 -0.40669
 H379 H 0.61778 0.53903 -0.10599
 H380 H 0.56558 0.66572 -0.18049
 H381 H 0.65239 0.56266 -0.31428
 H382 H 0.65378 0.56620 -0.18303
 H383 H 0.65344 0.72930 -0.25423
 H384 H 0.60206 0.69391 -0.25569
 C385 C 0.14432 1.17017 -0.27636
 C386 C 0.13647 1.21293 -0.31777
 C387 C 0.15302 1.22886 -0.37007
 C388 C 0.17860 1.20448 -0.38067
 C389 C 0.18752 1.16439 -0.33643
 C390 C 0.17042 1.14710 -0.28499
 C391 C 0.12401 1.14684 -0.22956
 C392 C 0.13163 1.12544 -0.16786
 C393 C 0.11173 1.10318 -0.12565
 C394 C 0.08396 1.10271 -0.14432
 C395 C 0.07665 1.12351 -0.20618
 C396 C 0.09631 1.14469 -0.24821
 H397 H 0.14572 1.26024 -0.40283
 H398 H 0.20686 1.14394 -0.34428
 H399 H 0.11797 1.08688 -0.07849
 H400 H 0.05560 1.12242 -0.22319
 H401 H 0.17702 1.11376 -0.25446
 H402 H 0.15282 1.12634 -0.15205
 H403 H 0.11695 1.23299 -0.31129
 H404 H 0.08970 1.15855 -0.29620
 C405 C 0.35176 0.34070 -0.27743
 C406 C 0.34967 0.28698 -0.29910
 C407 C 0.33217 0.27350 -0.35108
 C408 C 0.31660 0.31353 -0.38211
 C409 C 0.31785 0.36676 -0.35923
 C410 C 0.33519 0.38024 -0.30697
 C411 C 0.37299 0.35647 -0.22891
 C412 C 0.36723 0.39368 -0.17862
 C413 C 0.38815 0.41217 -0.13714
 C414 C 0.41530 0.39457 -0.14604
 C415 C 0.42077 0.35596 -0.19500
 C416 C 0.39985 0.33704 -0.23577
 H417 H 0.33146 0.23228 -0.36862
 H418 H 0.30607 0.39810 -0.38327
 H419 H 0.38315 0.44117 -0.09920
 H420 H 0.44138 0.34121 -0.20310
 H421 H 0.33666 0.42201 -0.29187
 H422 H 0.34661 0.40890 -0.17193
 H423 H 0.36209 0.25571 -0.27688
 H424 H 0.40495 0.30883 -0.27456
 C425 C -0.15218 0.85141 -0.27303
 C426 C -0.15546 0.79819 -0.29537
 C427 C -0.17361 0.78661 -0.34665
 C428 C -0.18869 0.82805 -0.37653
 C429 C -0.18614 0.88096 -0.35302
 C430 C -0.16818 0.89252 -0.30118
 C431 C -0.13034 0.86482 -0.22510
 C432 C -0.13543 0.89972 -0.17208
 C433 C -0.11405 0.91562 -0.13042
 C434 C -0.08706 0.89799 -0.14204
 C435 C -0.08225 0.86167 -0.19390
 C436 C -0.10367 0.84511 -0.23474
 H437 H -0.17512 0.74565 -0.36483
 H438 H -0.19740 0.91344 -0.37620
 H439 H -0.11856 0.94285 -0.09023
 H440 H -0.06178 0.84701 -0.20414
 H441 H -0.16577 0.93395 -0.28534
 H442 H -0.15589 0.91507 -0.16334
 H443 H -0.14343 0.76583 -0.27424
 H444 H -0.09916 0.81853 -0.27564
 C445 C 0.35107 0.65502 0.26887
 C446 C 0.34768 0.70949 0.28618
 C447 C 0.33027 0.72392 0.33790
 C448 C 0.31609 0.68410 0.37312
 C449 C 0.31854 0.62994 0.35440
 C450 C 0.33574 0.61550 0.30228
 C451 C 0.37245 0.63886 0.22096
 C452 C 0.36721 0.59912 0.17332
 C453 C 0.38830 0.58053 0.13254
 C454 C 0.41516 0.60055 0.13955
 C455 C 0.42011 0.64150 0.18592
 C456 C 0.39897 0.66060 0.22591
 H457 H 0.32877 0.76584 0.35236
 H458 H 0.30797 0.59875 0.38186
 H459 H 0.38371 0.54948 0.09680
 H460 H 0.44049 0.65804 0.19247
 H461 H 0.33824 0.57320 0.29051
 H462 H 0.34688 0.58201 0.16822
 H463 H 0.35915 0.74070 0.26096
 H464 H 0.40365 0.69086 0.26269
 C465 C -0.14601 1.15974 0.28251
 C466 C -0.17214 1.13627 0.28941
 C467 C -0.18993 1.15357 0.33939
 C468 C -0.18167 1.19415 0.38367
 C469 C -0.15609 1.21910 0.37442
 C470 C -0.13879 1.20293 0.32378
 C471 C -0.12515 1.13681 0.23715
 C472 C -0.09767 1.13427 0.25771
 C473 C -0.07749 1.11422 0.21622
 C474 C -0.08415 1.09521 0.15314
 C475 C -0.11171 1.09602 0.13274
 C476 C -0.13207 1.11689 0.17439
 H477 H -0.20924 1.13270 0.34630
 H478 H -0.14928 1.25082 0.40733
 H479 H -0.05659 1.11296 0.23421
 H480 H -0.11744 1.08122 0.08448
 H481 H -0.11921 1.22314 0.31850
 H482 H -0.09168 1.14729 0.30652
 H483 H -0.17822 1.10262 0.25875
 H484 H -0.15307 1.11818 0.15718
 C485 C 0.64774 0.33440 0.27404
 C486 C 0.65131 0.28029 0.29292
 C487 C 0.66822 0.26718 0.34615
 C488 C 0.68173 0.30798 0.38127
 C489 C 0.67884 0.36180 0.36149
 C490 C 0.66211 0.37491 0.30804
 C491 C 0.62731 0.34927 0.22319
 C492 C 0.63306 0.38969 0.17669
 C493 C 0.61257 0.40817 0.13417
 C494 C 0.58582 0.38714 0.13800
 C495 C 0.58047 0.34499 0.18253
 C496 C 0.60102 0.32615 0.22448
 H497 H 0.67015 0.22548 0.36128
 H498 H 0.68896 0.39373 0.38862
 H499 H 0.61745 0.44034 0.10009
 H500 H 0.56014 0.32773 0.18665
 H501 H 0.65942 0.41696 0.29523
 H502 H 0.65326 0.40780 0.17426
 H503 H 0.64058 0.24830 0.26731
 H504 H 0.59593 0.29532 0.26024
 C505 C 0.14809 0.83703 0.27242
 C506 C 0.15184 0.78295 0.29124
 C507 C 0.16869 0.76997 0.34465
 C508 C 0.18201 0.81085 0.38004
 C509 C 0.17887 0.86469 0.36051
 C510 C 0.16218 0.87769 0.30688
 C511 C 0.12771 0.85161 0.22122
 C512 C 0.13327 0.89232 0.17490
 C513 C 0.11273 0.91034 0.13209
 C514 C 0.08611 0.88866 0.13565
 C515 C 0.08103 0.84608 0.17977
 C516 C 0.10161 0.82768 0.22189
 H517 H 0.17082 0.72823 0.35946
 H518 H 0.18888 0.89669 0.38776
 H519 H 0.11744 0.94267 0.09811
 H520 H 0.06083 0.82815 0.18356
 H521 H 0.15935 0.91972 0.29417
 H522 H 0.15334 0.91100 0.17284
 H523 H 0.14132 0.75084 0.26535
 H524 H 0.09665 0.79655 0.25736
   
