data_POSCAR
  _audit_creation_date              2014-09-24
  _audit_creation_method            'ToBaCCo'
  _symmetry_space_group_name_H-M    'P1'
  _symmetry_Int_Tables_number       1
  _symmetry_cell_setting            triclinic
  loop_
  _symmetry_equiv_pos_as_xyz
 x,y,z
_cell_length_a 37.0065
_cell_length_b 36.4386
_cell_length_c 36.9191
_cell_angle_alpha 89.923500
_cell_angle_beta 90.006200
_cell_angle_gamma 90.288400
loop_
  _atom_site_label
  _atom_site_type_symbol
  _atom_site_fract_x
  _atom_site_fract_y
  _atom_site_fract_z
N1 N 0.32421 0.26988 0.21573
 N2 N 0.30538 0.29897 0.20660
 C3 C 0.31970 0.31400 0.17648
 C4 C 0.34940 0.29351 0.16655
 C5 C 0.35161 0.26581 0.19209
 H6 H 0.30882 0.33749 0.16233
 H7 H 0.37055 0.24330 0.19225
 Cu8 Cu 0.26311 0.31374 0.23391
 Cu9 Cu 0.30925 0.23717 0.25496
 Cu10 Cu 0.22730 0.25670 0.29582
 N11 N 0.21469 0.32101 0.25260
 N12 N 0.20063 0.29824 0.27645
 C13 C 0.16664 0.30867 0.28396
 C14 C 0.15913 0.33974 0.26391
 C15 C 0.19021 0.34695 0.24433
 H16 H 0.14868 0.29476 0.30264
 H17 H 0.19447 0.36905 0.22519
 N18 N 0.25831 0.21588 0.31142
 N19 N 0.28901 0.20768 0.29516
 C20 C 0.30230 0.17676 0.31004
 C21 C 0.27906 0.16538 0.33716
 C22 C 0.25161 0.19084 0.33746
 H23 H 0.32682 0.16322 0.30158
 H24 H 0.22787 0.19029 0.35453
 H25 H 0.25529 0.24904 0.24784
 H26 H 0.27955 0.27422 0.28471
 N27 N 0.67627 -0.26857 0.21414
 N28 N 0.69574 -0.29695 0.20426
 C29 C 0.68178 -0.31139 0.17372
 C30 C 0.65161 -0.29127 0.16426
 C31 C 0.64870 -0.26449 0.19067
 H32 H 0.69308 -0.33439 0.15918
 H33 H 0.62916 -0.24252 0.19161
 Cu34 Cu 0.73794 -0.31199 0.23162
 Cu35 Cu 0.69081 -0.23641 0.25390
 Cu36 Cu 0.77298 -0.25572 0.29448
 N37 N 0.78617 -0.31948 0.25081
 N38 N 0.80004 -0.29678 0.27479
 C39 C 0.83395 -0.30726 0.28264
 C40 C 0.84158 -0.33841 0.26277
 C41 C 0.81063 -0.34552 0.24287
 H42 H 0.85164 -0.29345 0.30162
 H43 H 0.80642 -0.36762 0.22377
 N44 N 0.74164 -0.21541 0.31053
 N45 N 0.71077 -0.20736 0.29449
 C46 C 0.69722 -0.17676 0.30972
 C47 C 0.72047 -0.16546 0.33685
 C48 C 0.74819 -0.19063 0.33678
 H49 H 0.67257 -0.16333 0.30144
 H50 H 0.77201 -0.19000 0.35373
 H51 H 0.74488 -0.24744 0.24659
 H52 H 0.72096 -0.27364 0.28303
 N53 N 0.67974 0.26362 0.78119
 N54 N 0.69725 0.29440 0.78775
 C55 C 0.68431 0.30951 0.81836
 C56 C 0.65681 0.28729 0.83128
 C57 C 0.65449 0.25851 0.80699
 H58 H 0.69442 0.33451 0.83056
 H59 H 0.63690 0.23480 0.80897
 Cu60 Cu 0.73570 0.31150 0.75612
 Cu61 Cu 0.69374 0.23053 0.74209
 Cu62 Cu 0.77104 0.25436 0.69448
 N63 N 0.78188 0.32178 0.73325
 N64 N 0.79611 0.29868 0.71001
 C65 C 0.82927 0.31065 0.70061
 C66 C 0.83601 0.34313 0.71877
 C67 C 0.80526 0.34957 0.73909
 H68 H 0.84737 0.29649 0.68242
 H69 H 0.80090 0.37188 0.75788
 N70 N 0.74182 0.21066 0.68291
 N71 N 0.71284 0.20098 0.70157
 C72 C 0.70037 0.16871 0.68867
 C73 C 0.72234 0.15798 0.66037
 C74 C 0.74818 0.18521 0.65732
 H75 H 0.67723 0.15392 0.69919
 H76 H 0.77056 0.18578 0.63850
 H77 H 0.74701 0.24700 0.74470
 H78 H 0.71858 0.26832 0.70855
 N79 N 0.31995 -0.26405 0.78210
 N80 N 0.30226 -0.29469 0.78890
 C81 C 0.31525 -0.30980 0.81955
 C82 C 0.34296 -0.28773 0.83221
 C83 C 0.34536 -0.25904 0.80776
 H84 H 0.30505 -0.33470 0.83193
 H85 H 0.36312 -0.23545 0.80951
 Cu86 Cu 0.26357 -0.31166 0.75748
 Cu87 Cu 0.30606 -0.23099 0.74286
 Cu88 Cu 0.22859 -0.25451 0.69546
 N89 N 0.21736 -0.32174 0.73458
 N90 N 0.20328 -0.29864 0.71119
 C91 C 0.17013 -0.31051 0.70169
 C92 C 0.16322 -0.34296 0.71992
 C93 C 0.19386 -0.34947 0.74041
 H94 H 0.15218 -0.29634 0.68332
 H95 H 0.19810 -0.37181 0.75925
 N96 N 0.25802 -0.21101 0.68364
 N97 N 0.28706 -0.20143 0.70222
 C98 C 0.29967 -0.16926 0.68917
 C99 C 0.27771 -0.15847 0.66084
 C100 C 0.25174 -0.18558 0.65794
 H101 H 0.32289 -0.15455 0.69959
 H102 H 0.22932 -0.18607 0.63916
 H103 H 0.25269 -0.24711 0.74564
 H104 H 0.28096 -0.26878 0.70962
 N105 N 0.67907 -0.26619 0.78927
 N106 N 0.69823 -0.29478 0.79919
 C107 C 0.68572 -0.30736 0.83116
 C108 C 0.65699 -0.28564 0.84145
 C109 C 0.65340 -0.25991 0.81425
 H110 H 0.69683 -0.33035 0.84594
 H111 H 0.63428 -0.23757 0.81334
 Cu112 Cu 0.73785 -0.31253 0.76963
 Cu113 Cu 0.69063 -0.23737 0.74649
 Cu114 Cu 0.76879 -0.26047 0.70071
 N115 N 0.78450 -0.32158 0.74745
 N116 N 0.79695 -0.30054 0.72126
 C117 C 0.83045 -0.31157 0.71233
 C118 C 0.83924 -0.34133 0.73388
 C119 C 0.80940 -0.34707 0.75577
 H120 H 0.84715 -0.29893 0.69170
 H121 H 0.80639 -0.36762 0.77673
 N122 N 0.73632 -0.22089 0.68452
 N123 N 0.70700 -0.21158 0.70263
 C124 C 0.69247 -0.18160 0.68720
 C125 C 0.71338 -0.17185 0.65778
 C126 C 0.74085 -0.19737 0.65666
 H127 H 0.66905 -0.16717 0.69719
 H128 H 0.76345 -0.19751 0.63810
 H129 H 0.71798 -0.27707 0.71722
 H130 H 0.74521 -0.24929 0.75008
 N131 N 0.32147 0.26470 0.78895
 N132 N 0.30229 0.29322 0.79892
 C133 C 0.31470 0.30560 0.83098
 C134 C 0.34340 0.28381 0.84126
 C135 C 0.34707 0.25825 0.81399
 H136 H 0.30358 0.32852 0.84577
 H137 H 0.36623 0.23596 0.81303
 Cu138 Cu 0.26283 0.31121 0.76928
 Cu139 Cu 0.31009 0.23629 0.74594
 Cu140 Cu 0.23242 0.26019 0.69953
 N141 N 0.21639 0.32062 0.74686
 N142 N 0.20425 0.30021 0.72010
 C143 C 0.17089 0.31152 0.71097
 C144 C 0.16187 0.34071 0.73304
 C145 C 0.19136 0.34585 0.75543
 H146 H 0.15433 0.29938 0.68998
 H147 H 0.19403 0.36587 0.77688
 N148 N 0.26486 0.22054 0.68347
 N149 N 0.29395 0.21094 0.70182
 C150 C 0.30838 0.18090 0.68650
 C151 C 0.28764 0.17140 0.65691
 C152 C 0.26038 0.19715 0.65556
 H153 H 0.33157 0.16622 0.69671
 H154 H 0.23789 0.19747 0.63686
 H155 H 0.28309 0.27636 0.71672
 H156 H 0.25546 0.24826 0.74900
 N157 N 0.31803 -0.25969 0.21410
 N158 N 0.29992 -0.28980 0.20632
 C159 C 0.31102 -0.30251 0.17393
 C160 C 0.33778 -0.27926 0.16115
 C161 C 0.34165 -0.25252 0.18731
 H162 H 0.30057 -0.32686 0.16077
 H163 H 0.35973 -0.22912 0.18646
 Cu164 Cu 0.26397 -0.30957 0.23949
 Cu165 Cu 0.30808 -0.23065 0.25700
 Cu166 Cu 0.23539 -0.25808 0.30954
 N167 N 0.21999 -0.32146 0.26578
 N168 N 0.20831 -0.30069 0.29238
 C169 C 0.17592 -0.31336 0.30357
 C170 C 0.16714 -0.34387 0.28312
 C171 C 0.19572 -0.34834 0.25948
 H172 H 0.15963 -0.30091 0.32449
 H173 H 0.19786 -0.36859 0.23820
 N174 N 0.26647 -0.21577 0.32202
 N175 N 0.29366 -0.20491 0.30142
 C176 C 0.30753 -0.17358 0.31495
 C177 C 0.28841 -0.16453 0.34568
 C178 C 0.26270 -0.19187 0.34958
 H179 H 0.32924 -0.15785 0.30283
 H180 H 0.24171 -0.19315 0.36992
 H181 H 0.28562 -0.27143 0.28933
 H182 H 0.25423 -0.24654 0.25817
 N183 N 0.68205 0.25928 0.21370
 N184 N 0.69989 0.28960 0.20604
 C185 C 0.68887 0.30227 0.17357
 C186 C 0.66245 0.27876 0.16062
 C187 C 0.65869 0.25192 0.18676
 H188 H 0.69913 0.32678 0.16049
 H189 H 0.64084 0.22834 0.18580
 Cu190 Cu 0.73537 0.30968 0.23945
 Cu191 Cu 0.69203 0.23026 0.25669
 Cu192 Cu 0.76422 0.25826 0.30959
 N193 N 0.77912 0.32195 0.26591
 N194 N 0.79094 0.30122 0.29253
 C195 C 0.82320 0.31416 0.30377
 C196 C 0.83174 0.34481 0.28332
 C197 C 0.80316 0.34907 0.25964
 H198 H 0.83960 0.30178 0.32469
 H199 H 0.80089 0.36932 0.23831
 N200 N 0.73349 0.21559 0.32191
 N201 N 0.70646 0.20456 0.30120
 C202 C 0.69275 0.17311 0.31469
 C203 C 0.71180 0.16413 0.34552
 C204 C 0.73732 0.19166 0.34951
 H205 H 0.67119 0.15726 0.30250
 H206 H 0.75819 0.19307 0.36997
 H207 H 0.71394 0.27114 0.28919
 H208 H 0.74572 0.24671 0.25815
 C209 C 0.29212 0.00172 0.40331
 C210 C 0.28608 0.03522 0.42074
 C211 C 0.28149 0.03584 0.45852
 C212 C 0.28552 0.00366 0.47962
 C213 C 0.29125 -0.02973 0.46106
 C214 C 0.29328 -0.03098 0.42316
 C215 C 0.28517 0.00497 0.52052
 C216 C 0.28079 -0.02733 0.54145
 C217 C 0.28503 -0.02690 0.57927
 C218 C 0.29105 0.00654 0.59690
 C219 C 0.29240 0.03936 0.57722
 C220 C 0.29060 0.03835 0.53929
 H221 H 0.29423 0.00094 0.37404
 H222 H 0.27532 0.06183 0.47098
 H223 H 0.29501 -0.05516 0.47551
 H224 H 0.27458 -0.05327 0.52881
 H225 H 0.29296 0.00721 0.62618
 H226 H 0.29435 0.06392 0.52500
 C227 C 0.70936 -0.00715 0.59703
 C228 C 0.71527 0.02629 0.57929
 C229 C 0.71941 0.02670 0.54146
 C230 C 0.71504 -0.00561 0.52062
 C231 C 0.70979 -0.03900 0.53952
 C232 C 0.70806 -0.03998 0.57746
 C233 C 0.71454 -0.00429 0.47970
 C234 C 0.71829 -0.03649 0.45862
 C235 C 0.71360 -0.03579 0.42085
 C236 C 0.70770 -0.00223 0.40339
 C237 C 0.70679 0.03046 0.42319
 C238 C 0.70894 0.02915 0.46108
 H239 H 0.70750 -0.00781 0.62632
 H240 H 0.72554 0.05266 0.52876
 H241 H 0.70611 -0.06461 0.52534
 H242 H 0.72433 -0.06253 0.47109
 H243 H 0.70552 -0.00141 0.37413
 H244 H 0.70536 0.05460 0.47547
 C245 C 0.40823 0.29832 0.00347
 C246 C 0.42824 0.29978 0.03559
 C247 C 0.46607 0.29760 0.03407
 C248 C 0.48430 0.29154 0.00090
 C249 C 0.46300 0.28722 -0.03058
 C250 C 0.42537 0.29183 -0.02967
 C251 C 0.52505 0.29065 -0.00100
 C252 C 0.54357 0.29568 -0.03418
 C253 C 0.58147 0.29618 -0.03577
 C254 C 0.60146 0.29417 -0.00363
 C255 C 0.58395 0.28854 0.02954
 C256 C 0.54612 0.28555 0.03048
 H257 H 0.37904 0.30042 0.00447
 H258 H 0.48071 0.30140 0.05906
 H259 H 0.47524 0.28061 -0.05625
 H260 H 0.52913 0.29995 -0.05921
 H261 H 0.63073 0.29503 -0.00464
 H262 H 0.53354 0.27962 0.05620
 C263 C 0.59230 0.70097 0.00385
 C264 C 0.57238 0.70047 0.03602
 C265 C 0.53459 0.70298 0.03464
 C266 C 0.51620 0.70818 0.00138
 C267 C 0.53745 0.71165 -0.03027
 C268 C 0.57508 0.70692 -0.02937
 C269 C 0.47539 0.70907 -0.00044
 C270 C 0.45677 0.70407 -0.03358
 C271 C 0.41886 0.70347 -0.03508
 C272 C 0.39895 0.70538 -0.00291
 C273 C 0.41651 0.71098 0.03023
 C274 C 0.45435 0.71404 0.03109
 H275 H 0.62148 0.69873 0.00489
 H276 H 0.52017 0.70006 0.05987
 H277 H 0.52521 0.71776 -0.05607
 H278 H 0.47109 0.69989 -0.05866
 H279 H 0.36968 0.70445 -0.00386
 H280 H 0.46689 0.71992 0.05680
 C281 C -0.00404 0.40294 0.27419
 C282 C 0.02891 0.42061 0.26693
 C283 C 0.02959 0.45894 0.26270
 C284 C -0.00173 0.48020 0.26823
 C285 C -0.03456 0.46151 0.27525
 C286 C -0.03601 0.42307 0.27725
 C287 C 0.00012 0.52149 0.26830
 C288 C -0.03116 0.54284 0.26274
 C289 C -0.03037 0.58113 0.26709
 C290 C 0.00255 0.59872 0.27454
 C291 C 0.03449 0.57852 0.27754
 C292 C 0.03295 0.54010 0.27547
 H293 H -0.00500 0.37329 0.27634
 H294 H 0.05493 0.47194 0.25571
 H295 H -0.05918 0.47645 0.28026
 H296 H -0.05655 0.52996 0.25570
 H297 H 0.00351 0.62836 0.27676
 H298 H 0.05755 0.52511 0.28053
 C299 C 0.00116 0.59803 0.72550
 C300 C 0.03353 0.57843 0.72389
 C301 C 0.03273 0.54004 0.72647
 C302 C 0.00009 0.52079 0.73287
 C303 C -0.03173 0.54166 0.73741
 C304 C -0.03157 0.57989 0.73238
 C305 C -0.00096 0.47940 0.73281
 C306 C -0.03359 0.46018 0.72635
 C307 C -0.03438 0.42181 0.72372
 C308 C -0.00203 0.40219 0.72542
 C309 C 0.03075 0.42029 0.73224
 C310 C 0.03087 0.45852 0.73726
 H311 H 0.00161 0.62765 0.72279
 H312 H 0.05781 0.52569 0.72230
 H313 H -0.05709 0.52854 0.74406
 H314 H -0.05866 0.47458 0.72218
 H315 H -0.00254 0.37258 0.72270
 H316 H 0.05620 0.47166 0.74394
 N317 N 0.35844 0.31687 0.10485
 C318 C 0.37124 0.29760 0.13356
 N319 N 0.40364 0.28058 0.13054
 N320 N 0.42241 0.28251 0.09979
 C321 C 0.40933 0.30122 0.07080
 N322 N 0.37701 0.31843 0.07396
 N323 N 0.64029 0.68122 0.10657
 C324 C 0.63041 0.70473 0.13329
 N325 N 0.60033 0.72539 0.12854
 N326 N 0.58109 0.72290 0.09813
 C327 C 0.59141 0.69996 0.07113
 N328 N 0.62137 0.67914 0.07593
 N329 N 0.65014 0.31135 -0.10694
 C330 C 0.63638 0.29152 -0.13488
 N331 N 0.60403 0.27439 -0.13053
 N332 N 0.58613 0.27690 -0.09934
 C333 C 0.60008 0.29628 -0.07117
 N334 N 0.63247 0.31344 -0.07554
 N335 N 0.34989 0.68825 -0.10594
 C336 C 0.36356 0.70802 -0.13402
 N337 N 0.39595 0.72510 -0.12987
 N338 N 0.41399 0.72261 -0.09874
 C339 C 0.40013 0.70330 -0.07043
 N340 N 0.36770 0.68618 -0.07461
 N341 N 0.12329 0.39393 0.24768
 C342 C 0.12522 0.36046 0.26372
 N343 N 0.09535 0.34657 0.28016
 N344 N 0.06467 0.36547 0.28062
 C345 C 0.06268 0.39910 0.26485
 N346 N 0.09264 0.41296 0.24837
 N347 N 0.12901 0.60417 0.73749
 C348 C 0.13137 0.63655 0.71939
 N349 N 0.10174 0.64915 0.70167
 N350 N 0.07073 0.63044 0.70260
 C351 C 0.06833 0.59812 0.72082
 N352 N 0.09813 0.58524 0.73805
 N353 N -0.12338 0.60980 0.24441
 C354 C -0.12637 0.64172 0.26312
 N355 N -0.09758 0.65383 0.28258
 N356 N -0.06698 0.63480 0.28335
 C357 C -0.06401 0.60274 0.26491
 N358 N -0.09284 0.59057 0.24546
 N359 N -0.10240 0.35114 0.70095
 C360 C -0.13217 0.36367 0.71844
 N361 N -0.12996 0.39600 0.73656
 N362 N -0.09909 0.41495 0.73737
 C363 C -0.06916 0.40212 0.72038
 N364 N -0.07142 0.36986 0.70212
 N365 N 0.26152 0.12835 0.39000
 C366 C 0.28152 0.13200 0.35936
 N367 N 0.30310 0.10390 0.34907
 N368 N 0.30444 0.07315 0.36857
 C369 C 0.28451 0.06946 0.39929
 N370 N 0.26316 0.09775 0.40973
 N371 N 0.73869 0.12069 0.60759
 C372 C 0.72005 0.12401 0.63908
 N373 N 0.69987 0.09520 0.65087
 N374 N 0.69853 0.06411 0.63194
 C375 C 0.71708 0.06076 0.60035
 N376 N 0.73706 0.08973 0.58847
 N377 N 0.26141 -0.12120 0.60794
 C378 C 0.28010 -0.12455 0.63940
 N379 N 0.30039 -0.09579 0.65106
 N380 N 0.30178 -0.06473 0.63201
 C381 C 0.28318 -0.06135 0.60045
 N382 N 0.26309 -0.09028 0.58871
 N383 N 0.69620 -0.10418 0.34917
 C384 C 0.71791 -0.13228 0.35926
 N385 N 0.73804 -0.12877 0.38982
 N386 N 0.73642 -0.09829 0.40967
 C387 C 0.71498 -0.06998 0.39940
 N388 N 0.69489 -0.07355 0.36878
 N389 N 0.64727 0.69170 -0.09666
 C390 C 0.63562 0.71195 -0.12518
 N391 N 0.60408 0.73054 -0.12218
 N392 N 0.58477 0.72880 -0.09180
 C393 C 0.59646 0.70874 -0.06312
 N394 N 0.62811 0.69025 -0.06613
 N395 N 0.35307 0.30652 -0.09696
 C396 C 0.36472 0.28617 -0.12535
 N397 N 0.39625 0.26758 -0.12224
 N398 N 0.41558 0.26944 -0.09187
 C399 C 0.40390 0.28963 -0.06333
 N400 N 0.37225 0.30810 -0.06646
 N401 N 0.34574 0.69685 0.09945
 C402 C 0.35791 0.71819 0.12702
 N403 N 0.38906 0.73745 0.12254
 N404 N 0.40761 0.73520 0.09175
 C405 C 0.39548 0.71396 0.06407
 N406 N 0.36412 0.69490 0.06846
 N407 N 0.65455 0.30275 0.09888
 C408 C 0.64245 0.28124 0.12640
 N409 N 0.61143 0.26179 0.12183
 N410 N 0.59294 0.26404 0.09099
 C411 C 0.60500 0.28546 0.06336
 N412 N 0.63624 0.30469 0.06785
 N413 N -0.12464 0.60854 0.75460
 C414 C -0.12852 0.63905 0.73380
 N415 N -0.10036 0.65013 0.71284
 N416 N -0.06948 0.63153 0.71278
 C417 C -0.06563 0.60089 0.73339
 N418 N -0.09387 0.58968 0.75423
 N419 N -0.10421 0.35211 0.29925
 C420 C -0.13448 0.36614 0.28390
 N421 N -0.13258 0.39947 0.26755
 N422 N -0.10149 0.41804 0.26642
 C423 C -0.07103 0.40381 0.28127
 N424 N -0.07302 0.37050 0.29777
 N425 N 0.12508 0.39343 0.75148
 C426 C 0.12782 0.36127 0.73320
 N427 N 0.09856 0.34838 0.71500
 N428 N 0.06766 0.36696 0.71511
 C429 C 0.06487 0.39927 0.73321
 N430 N 0.09425 0.41218 0.75133
 N431 N 0.13113 0.60167 0.26754
 C432 C 0.13323 0.63501 0.28377
 N433 N 0.10306 0.64921 0.29913
 N434 N 0.07178 0.63098 0.29778
 C435 C 0.06960 0.59766 0.28142
 N436 N 0.09995 0.58327 0.26654
 N437 N 0.69054 -0.10965 0.64790
 C438 C 0.70983 -0.13864 0.63556
 N439 N 0.72724 -0.13564 0.60334
 N440 N 0.72558 -0.10464 0.58425
 C441 C 0.70678 -0.07539 0.59686
 N442 N 0.68925 -0.07851 0.62903
 N443 N 0.27598 -0.12786 0.39994
 C444 C 0.29184 -0.13070 0.36695
 N445 N 0.30946 -0.10110 0.35307
 N446 N 0.31064 -0.06956 0.37125
 C447 C 0.29464 -0.06661 0.40421
 N448 N 0.27751 -0.09645 0.41830
 N449 N 0.72427 0.12736 0.39982
 C450 C 0.70842 0.13026 0.36681
 N451 N 0.69078 0.10069 0.35297
 N452 N 0.68956 0.06913 0.37120
 C453 C 0.70554 0.06612 0.40417
 N454 N 0.72271 0.09592 0.41822
 N455 N 0.27373 0.13519 0.60258
 C456 C 0.29105 0.13814 0.63485
 N457 N 0.31011 0.10905 0.64739
 N458 N 0.31126 0.07785 0.62869
 C459 C 0.29382 0.07478 0.59647
 N460 N 0.27525 0.10413 0.58365
   
