data_POSCAR
  _audit_creation_date              2014-09-24
  _audit_creation_method            'ToBaCCo'
  _symmetry_space_group_name_H-M    'P1'
  _symmetry_Int_Tables_number       1
  _symmetry_cell_setting            triclinic
  loop_
  _symmetry_equiv_pos_as_xyz
 x,y,z
_cell_length_a 27.6477
_cell_length_b 27.7088
_cell_length_c 27.5909
_cell_angle_alpha 89.924000
_cell_angle_beta 89.982100
_cell_angle_gamma 90.027300
loop_
  _atom_site_label
  _atom_site_type_symbol
  _atom_site_fract_x
  _atom_site_fract_y
  _atom_site_fract_z
N1 N 0.55184 0.09780 0.02299
 N2 N 0.58662 0.12595 0.03957
 N3 N 0.45017 0.09749 -0.02437
 N4 N 0.41534 0.12534 -0.04139
 N5 N 0.45012 0.09770 0.02323
 N6 N 0.41529 0.12569 0.03991
 N7 N 0.55190 0.09737 -0.02460
 N8 N 0.58667 0.12525 -0.04174
 C9 C 0.60814 0.14257 -0.00125
 C10 C 0.39379 0.14242 -0.00083
 N11 N 0.44979 -0.02402 -0.09694
 N12 N 0.41476 -0.04095 -0.12464
 N13 N 0.55170 0.02312 -0.09789
 N14 N 0.58598 0.03942 -0.12703
 N15 N 0.55153 -0.02423 -0.09697
 N16 N 0.58778 -0.04194 -0.12713
 N17 N 0.44997 0.02337 -0.09747
 N18 N 0.41506 0.04001 -0.12550
 Mn19 Mn 0.50096 0.06072 -0.06147
 C20 C 0.39331 -0.00054 -0.14195
 C21 C 0.60786 -0.00081 -0.14453
 N22 N 0.45026 0.02470 0.09786
 N23 N 0.41530 0.04157 0.12570
 N24 N 0.55212 -0.02243 0.09823
 N25 N 0.58631 -0.03881 0.12740
 N26 N 0.55204 0.02492 0.09736
 N27 N 0.58829 0.04254 0.12760
 N28 N 0.45041 -0.02269 0.09833
 N29 N 0.41558 -0.03940 0.12645
 Mn30 Mn 0.50103 0.06165 0.06075
 C31 C 0.39388 0.00111 0.14303
 C32 C 0.60826 0.00136 0.14497
 N33 N 0.55164 -0.09703 -0.02268
 N34 N 0.58647 -0.12493 -0.03951
 N35 N 0.45020 -0.09681 0.02523
 N36 N 0.41547 -0.12478 0.04237
 N37 N 0.44995 -0.09696 -0.02237
 N38 N 0.41512 -0.12500 -0.03894
 N39 N 0.55195 -0.09664 0.02491
 N40 N 0.58697 -0.12433 0.04179
 Mn41 Mn 0.50069 -0.06092 -0.06012
 Mn42 Mn 0.50120 -0.06003 0.06206
 Cl43 Cl 0.50095 0.00036 0.00031
 C44 C 0.60829 -0.14146 0.00113
 C45 C 0.39379 -0.14184 0.00186
 N46 N 0.09795 0.44896 0.02327
 N47 N 0.12580 0.41403 0.04001
 N48 N 0.09878 0.55077 -0.02363
 N49 N 0.12683 0.58567 -0.04016
 N50 N 0.09855 0.55045 0.02396
 N51 N 0.12646 0.58509 0.04115
 N52 N 0.09810 0.44927 -0.02433
 N53 N 0.12606 0.41458 -0.04130
 C54 C 0.14282 0.39278 -0.00071
 C55 C 0.14361 0.60685 0.00070
 N56 N -0.02204 0.55219 -0.09818
 N57 N -0.03843 0.58653 -0.12711
 N58 N 0.02465 0.45034 -0.09849
 N59 N 0.04130 0.41541 -0.12638
 N60 N -0.02284 0.45070 -0.09870
 N61 N -0.03984 0.41605 -0.12672
 N62 N 0.02542 0.55189 -0.09759
 N63 N 0.04311 0.58814 -0.12782
 Mn64 Mn 0.06211 0.50054 -0.06141
 C65 C 0.00184 0.60834 -0.14485
 C66 C 0.00061 0.39426 -0.14351
 N67 N 0.02450 0.55033 0.09751
 N68 N 0.04132 0.58495 0.12571
 N69 N -0.02356 0.44904 0.09661
 N70 N -0.04067 0.41418 0.12442
 N71 N 0.02394 0.44883 0.09680
 N72 N 0.04047 0.41381 0.12472
 N73 N -0.02300 0.55053 0.09727
 N74 N -0.03983 0.58526 0.12526
 Mn75 Mn 0.06161 0.49964 0.06077
 C76 C 0.00072 0.60652 0.14251
 C77 C -0.00027 0.39240 0.14143
 N78 N -0.09685 0.45055 -0.02515
 N79 N -0.12483 0.41592 -0.04230
 N80 N -0.09631 0.55158 0.02315
 N81 N -0.12416 0.58632 0.04020
 N82 N -0.09609 0.55206 -0.02445
 N83 N -0.12382 0.58713 -0.04111
 N84 N -0.09692 0.45012 0.02244
 N85 N -0.12493 0.41522 0.03901
 Mn86 Mn -0.05984 0.50140 -0.06200
 Mn87 Mn -0.06032 0.50030 0.06023
 Cl88 Cl 0.00090 0.50046 -0.00060
 C89 C -0.14186 0.39411 -0.00181
 C90 C -0.14081 0.60829 -0.00032
 N91 N 0.02258 0.09663 0.44919
 N92 N 0.03944 0.12453 0.41424
 N93 N -0.02499 0.09682 0.55107
 N94 N -0.04178 0.12499 0.58577
 N95 N 0.02251 0.09675 0.55111
 N96 N 0.03936 0.12484 0.58581
 N97 N -0.02492 0.09659 0.44913
 N98 N -0.04171 0.12447 0.41415
 C99 C -0.00111 0.14139 0.39258
 C100 C -0.00117 0.14194 0.60725
 N101 N -0.09873 -0.02414 0.55144
 N102 N -0.12688 -0.04078 0.58633
 N103 N -0.09864 0.02300 0.44932
 N104 N -0.12675 0.03970 0.41446
 N105 N -0.09869 -0.02440 0.44950
 N106 N -0.12685 -0.04126 0.41478
 N107 N -0.09870 0.02326 0.55122
 N108 N -0.12682 0.04018 0.58593
 Mn109 Mn -0.06219 0.06029 0.50018
 C110 C -0.14388 -0.00021 0.60764
 C111 C -0.14383 -0.00083 0.39312
 N112 N 0.09620 0.02324 0.55137
 N113 N 0.12426 0.04005 0.58619
 N114 N 0.09630 -0.02420 0.44952
 N115 N 0.12448 -0.04093 0.41474
 N116 N 0.09625 0.02319 0.44945
 N117 N 0.12436 0.04003 0.41465
 N118 N 0.09618 -0.02415 0.55146
 N119 N 0.12421 -0.04092 0.58634
 Mn120 Mn 0.05975 0.06032 0.50029
 C121 C 0.14121 -0.00043 0.60781
 C122 C 0.14146 -0.00039 0.39318
 N123 N -0.02493 -0.09791 0.44972
 N124 N -0.04166 -0.12594 0.41488
 N125 N 0.02249 -0.09772 0.55164
 N126 N 0.03933 -0.12587 0.58638
 N127 N -0.02501 -0.09776 0.55167
 N128 N -0.04181 -0.12597 0.58642
 N129 N 0.02257 -0.09779 0.44973
 N130 N 0.03948 -0.12573 0.41493
 Mn131 Mn -0.06222 -0.06143 0.50059
 Mn132 Mn 0.05976 -0.06134 0.50058
 Cl133 Cl -0.00123 -0.00055 0.50042
 C134 C -0.00102 -0.14278 0.39338
 C135 C -0.00121 -0.14297 0.60789
 C136 C -0.28041 0.24441 -0.00190
 N137 N -0.29864 0.22720 -0.04418
 N138 N -0.33377 0.19426 -0.04400
 C139 C -0.35193 0.17738 -0.00152
 N140 N -0.33355 0.19435 0.04075
 N141 N -0.29842 0.22727 0.04056
 C142 C -0.24302 0.28208 -0.00200
 N143 N -0.22584 0.30010 0.04037
 N144 N -0.19316 0.33545 0.04038
 C145 C -0.17649 0.35404 -0.00197
 N146 N -0.19342 0.33588 -0.04437
 N147 N -0.22612 0.30052 -0.04438
 C148 C 0.28224 0.75645 0.00185
 N149 N 0.30026 0.77387 -0.04048
 N150 N 0.33542 0.80675 -0.04041
 C151 C 0.35383 0.82339 0.00198
 N152 N 0.33566 0.80622 0.04434
 N153 N 0.30048 0.77332 0.04427
 C154 C 0.24481 0.71882 0.00164
 N155 N 0.22773 0.70024 0.04387
 N156 N 0.19502 0.66491 0.04359
 C157 C 0.17824 0.64690 0.00106
 N158 N 0.19509 0.66564 -0.04116
 N159 N 0.22779 0.70097 -0.04087
 C160 C 0.28188 0.24367 -0.00100
 N161 N 0.30015 0.22669 -0.04336
 N162 N 0.33545 0.19395 -0.04334
 C163 C 0.35373 0.17705 -0.00094
 N164 N 0.33530 0.19379 0.04141
 N165 N 0.30000 0.22651 0.04138
 C166 C 0.24430 0.28113 -0.00097
 N167 N 0.22708 0.29905 0.04144
 N168 N 0.19426 0.33425 0.04151
 C169 C 0.17750 0.35278 -0.00082
 N170 N 0.19448 0.33471 -0.04324
 N171 N 0.22730 0.29950 -0.04331
 C172 C -0.27960 0.75756 0.00068
 N173 N -0.29798 0.77469 -0.04159
 N174 N -0.33333 0.80734 -0.04142
 C175 C -0.35156 0.82404 0.00104
 N176 N -0.33302 0.80717 0.04333
 N177 N -0.29767 0.77450 0.04315
 C178 C -0.24204 0.72011 0.00045
 N179 N -0.22494 0.70163 0.04269
 N180 N -0.19218 0.66638 0.04244
 C181 C -0.17537 0.64836 -0.00006
 N182 N -0.19222 0.66701 -0.04231
 N183 N -0.22498 0.70226 -0.04206
 C184 C 0.00007 -0.28181 0.24406
 N185 N -0.04209 -0.29999 0.22665
 N186 N -0.04184 -0.33521 0.19384
 C187 C 0.00057 -0.35353 0.17727
 N188 N 0.04273 -0.33521 0.19445
 N189 N 0.04248 -0.29997 0.22726
 C190 C -0.00023 -0.24428 0.28159
 N191 N 0.04191 -0.22703 0.29996
 N192 N 0.04163 -0.19422 0.33521
 C193 C -0.00079 -0.17749 0.35335
 N194 N -0.04294 -0.19450 0.33484
 N195 N -0.04266 -0.22731 0.29958
 C196 C -0.00024 0.28195 0.75565
 N197 N -0.04237 0.30059 0.77260
 N198 N -0.04209 0.33604 0.80518
 C199 C 0.00034 0.35412 0.82196
 N200 N 0.04248 0.33534 0.80525
 N201 N 0.04220 0.29989 0.77266
 C202 C -0.00053 0.24416 0.71838
 N203 N 0.04163 0.22664 0.70033
 N204 N 0.04139 0.19359 0.66530
 C205 C -0.00101 0.17688 0.64707
 N206 N -0.04318 0.19417 0.66528
 N207 N -0.04294 0.22722 0.70031
 C208 C -0.00082 0.28033 0.24281
 N209 N 0.04154 0.29840 0.22572
 N210 N 0.04169 0.33374 0.19292
 C211 C -0.00052 0.35226 0.17605
 N212 N -0.04289 0.33402 0.19289
 N213 N -0.04304 0.29868 0.22570
 C214 C -0.00094 0.24276 0.28040
 N215 N -0.04326 0.22572 0.29864
 N216 N -0.04332 0.19293 0.33401
 C217 C -0.00106 0.17602 0.35240
 N218 N 0.04125 0.19282 0.33400
 N219 N 0.04132 0.22560 0.29863
 C220 C -0.00013 -0.28316 0.75660
 N221 N -0.04211 -0.30203 0.77378
 N222 N -0.04154 -0.33743 0.80654
 C223 C 0.00107 -0.35532 0.82328
 N224 N 0.04302 -0.33615 0.80630
 N225 N 0.04243 -0.30077 0.77357
 C226 C -0.00058 -0.24537 0.71920
 N227 N 0.04157 -0.22770 0.70114
 N228 N 0.04132 -0.19462 0.66606
 C229 C -0.00108 -0.17800 0.64777
 N230 N -0.04325 -0.19542 0.66597
 N231 N -0.04300 -0.22852 0.70106
 C232 C 0.28088 -0.00060 0.75696
 N233 N 0.29931 0.04158 0.77382
 N234 N 0.33477 0.04157 0.80650
 C235 C 0.35307 -0.00062 0.82349
 N236 N 0.33449 -0.04281 0.80689
 N237 N 0.29902 -0.04280 0.77419
 C238 C 0.24314 -0.00057 0.71952
 N239 N 0.22583 -0.04273 0.70146
 N240 N 0.19287 -0.04268 0.66624
 C241 C 0.17604 -0.00046 0.64784
 N242 N 0.19310 0.04171 0.66606
 N243 N 0.22607 0.04165 0.70127
 C244 C -0.28356 -0.00036 0.24393
 N245 N -0.30099 0.04205 0.22657
 N246 N -0.33626 0.04254 0.19370
 C247 C -0.35550 0.00063 0.17697
 N248 N -0.33780 -0.04183 0.19411
 N249 N -0.30250 -0.04231 0.22701
 C250 C -0.24589 -0.00066 0.28148
 N251 N -0.22914 -0.04291 0.29995
 N252 N -0.19614 -0.04300 0.33516
 C253 C -0.17875 -0.00085 0.35315
 N254 N -0.19529 0.04138 0.33452
 N255 N -0.22826 0.04147 0.29932
 C256 C 0.28147 0.00060 0.24423
 N257 N 0.29997 -0.04148 0.22723
 N258 N 0.33544 -0.04127 0.19454
 C259 C 0.35367 0.00102 0.17766
 N260 N 0.33502 0.04312 0.19442
 N261 N 0.29955 0.04291 0.22713
 C262 C 0.24367 0.00033 0.28165
 N263 N 0.22621 0.04239 0.29979
 N264 N 0.19317 0.04212 0.33495
 C265 C 0.17640 -0.00019 0.35323
 N266 N 0.19362 -0.04226 0.33494
 N267 N 0.22667 -0.04200 0.29977
 C268 C -0.28373 0.00026 0.75672
 N269 N -0.30138 -0.04202 0.77419
 N270 N -0.33672 -0.04228 0.80698
 C271 C -0.35583 -0.00025 0.82354
 N272 N -0.33791 0.04209 0.80630
 N273 N -0.30253 0.04234 0.77347
 C274 C -0.24601 0.00029 0.71923
 N275 N -0.22903 0.04242 0.70065
 N276 N -0.19600 0.04227 0.66546
 C277 C -0.17880 -0.00000 0.64760
 N278 N -0.19556 -0.04211 0.66634
 N279 N -0.22856 -0.04196 0.70152
   
