data_POSCAR
  _audit_creation_date              2014-09-24
  _audit_creation_method            'ToBaCCo'
  _symmetry_space_group_name_H-M    'P1'
  _symmetry_Int_Tables_number       1
  _symmetry_cell_setting            triclinic
  loop_
  _symmetry_equiv_pos_as_xyz
 x,y,z
_cell_length_a 33.8173
_cell_length_b 36.1227
_cell_length_c 35.8243
_cell_angle_alpha 92.539400
_cell_angle_beta 87.502600
_cell_angle_gamma 88.405200
loop_
  _atom_site_label
  _atom_site_type_symbol
  _atom_site_fract_x
  _atom_site_fract_y
  _atom_site_fract_z
N1 N 0.21093 0.18814 0.20043
 N2 N 0.71361 0.71337 0.72713
 N3 N 0.26631 0.76901 0.70205
 N4 N 0.78874 0.29243 0.19219
 N5 N 0.78087 0.73369 0.27852
 N6 N 0.28628 0.23284 -0.22740
 N7 N 0.72511 0.29192 -0.20159
 N8 N 0.23421 0.77584 0.28781
 N9 N 0.47864 0.47326 0.46041
 N10 N -0.00751 -0.03236 0.95609
 N11 N 1.02689 0.53147 0.99602
 N12 N 0.54142 0.04756 0.47535
 N13 N -0.04851 0.03938 0.54278
 N14 N 0.44108 0.54818 0.05042
 N15 N 0.53798 -0.04649 0.02693
 N16 N 1.01208 0.44519 0.53019
 C17 C 0.46672 -0.01234 0.22286
 H18 H 0.47788 -0.00424 0.24970
 C19 C 0.49318 -0.01854 0.19208
 H20 H 0.52429 -0.01415 0.19575
 C21 C 0.41273 -0.02803 0.18590
 H22 H 0.38126 -0.03190 0.18390
 C23 C 0.43815 -0.03455 0.15438
 H24 H 0.42584 -0.04360 0.12826
 N25 N 0.42725 -0.01670 0.21916
 C26 C 0.32274 0.03478 0.27746
 H27 H 0.32199 0.01911 0.30251
 C28 C 0.29243 0.06060 0.27174
 H29 H 0.26832 0.06475 0.29254
 C30 C 0.35516 0.04833 0.21987
 H31 H 0.37977 0.04352 0.19983
 C32 C 0.32594 0.07520 0.21350
 H33 H 0.32788 0.09053 0.18822
 Zn34 Zn 0.39104 -0.00881 0.26068
 N35 N 0.35261 0.02830 0.25114
 C36 C 0.43586 0.04136 0.30021
 N37 N 0.41777 0.00842 0.30315
 C38 C 0.41854 -0.01033 0.33521
 C39 C 0.43944 0.00337 0.36542
 C40 C 0.45716 0.05598 0.32960
 C41 C 0.32715 -0.05803 0.26304
 C42 C 0.30884 -0.09157 0.26873
 C43 C 0.37178 -0.11807 0.28496
 C44 C 0.38897 -0.08399 0.27873
 N45 N 0.36639 -0.05456 0.26882
 H46 H 0.43428 0.05597 0.27457
 H47 H 0.40295 -0.03587 0.33751
 H48 H 0.43970 -0.01211 0.39058
 H49 H 0.47211 0.08168 0.32581
 H50 H 0.30990 -0.03493 0.25366
 H51 H 0.27742 -0.09328 0.26464
 H52 H 0.39029 -0.14100 0.29304
 H53 H 0.42037 -0.08088 0.28203
 C54 C 0.29374 0.08093 0.23932
 C55 C 0.47902 -0.02971 0.15718
 C56 C 0.33108 -0.12209 0.28022
 C57 C 0.45950 0.03682 0.36275
 C58 C 0.07995 -0.00222 0.68235
 H59 H 0.07926 -0.02903 0.69464
 C60 C 0.05410 0.00619 0.65424
 H61 H 0.03331 -0.01432 0.64544
 C62 C 0.10771 0.05711 0.67942
 H63 H 0.12855 0.07701 0.68930
 C64 C 0.08256 0.06662 0.65131
 H65 H 0.08504 0.09363 0.63974
 N66 N 0.10595 0.02324 0.69443
 C67 C 0.16721 -0.06234 0.74407
 H68 H 0.15265 -0.05778 0.77133
 C69 C 0.18567 -0.09676 0.73467
 H70 H 0.18498 -0.11780 0.75521
 C71 C 0.18400 -0.04107 0.68411
 H72 H 0.18223 -0.01966 0.66406
 C73 C 0.20290 -0.07510 0.67353
 H74 H 0.21630 -0.07870 0.64564
 Zn75 Zn 0.14128 0.01169 0.73219
 N76 N 0.16718 -0.03501 0.71911
 C77 C 0.13557 0.00584 0.80972
 N78 N 0.11337 0.00932 0.77925
 C79 C 0.07314 0.01202 0.78272
 C80 C 0.05377 0.01089 0.81799
 C81 C 0.11754 0.00507 0.84538
 C82 C 0.20734 0.05370 0.70874
 C83 C 0.23157 0.08443 0.70926
 C84 C 0.19671 0.10741 0.76618
 C85 C 0.17289 0.07651 0.76437
 N86 N 0.17843 0.05035 0.73593
 H87 H 0.16752 0.00387 0.80622
 H88 H 0.05600 0.01513 0.75823
 H89 H 0.02176 0.01302 0.82035
 H90 H 0.13596 0.00181 0.86902
 H91 H 0.21098 0.03318 0.68599
 H92 H 0.25405 0.08674 0.68711
 H93 H 0.19093 0.12828 0.78851
 H94 H 0.14891 0.07437 0.78497
 C95 C 0.20412 -0.10360 0.69902
 C96 C 0.05508 0.04114 0.63843
 C97 C 0.22608 0.11197 0.73805
 C98 C 0.07612 0.00762 0.84988
 C99 C 0.56685 0.49006 0.20131
 H100 H 0.56850 0.46857 0.22117
 C101 C 0.53613 0.49026 0.17664
 H102 H 0.51458 0.46871 0.17789
 C103 C 0.59333 0.54367 0.17525
 H104 H 0.61556 0.56458 0.17500
 C105 C 0.56309 0.54480 0.14981
 H106 H 0.56218 0.56689 0.13039
 N107 N 0.59426 0.51690 0.20079
 C108 C 0.68753 0.46603 0.26286
 H109 H 0.68770 0.48574 0.28648
 C110 C 0.71362 0.43538 0.26080
 H111 H 0.73368 0.43146 0.28313
 C112 C 0.66162 0.44779 0.20463
 H113 H 0.64188 0.45325 0.18246
 C114 C 0.68678 0.41631 0.20178
 H115 H 0.68628 0.39771 0.17727
 Zn116 Zn 0.63204 0.51673 0.23850
 N117 N 0.66292 0.47213 0.23460
 C118 C 0.60023 0.54932 0.30878
 N119 N 0.60434 0.51812 0.28602
 C120 C 0.58838 0.48580 0.29640
 C121 C 0.56621 0.48425 0.32997
 C122 C 0.57818 0.54902 0.34269
 C123 C 0.70623 0.54971 0.22922
 C124 C 0.73346 0.57786 0.23191
 C125 C 0.67905 0.62223 0.24248
 C126 C 0.65276 0.59312 0.23929
 N127 N 0.66673 0.55743 0.23468
 H128 H 0.61367 0.57463 0.30084
 H129 H 0.59318 0.46093 0.27872
 H130 H 0.55414 0.45803 0.33743
 H131 H 0.57468 0.57439 0.35985
 H132 H 0.71700 0.52152 0.22372
 H133 H 0.76467 0.57061 0.22833
 H134 H 0.66722 0.65012 0.24825
 H135 H 0.62119 0.59890 0.24205
 C136 C 0.71377 0.41037 0.22975
 C137 C 0.53352 0.51824 0.15090
 C138 C 0.72011 0.61454 0.24019
 C139 C 0.56052 0.51623 0.35353
 C140 C 0.95707 0.48968 0.72864
 H141 H 0.97071 0.49360 0.75517
 C142 C 0.98079 0.48047 0.69654
 H143 H 1.01244 0.47756 0.69909
 C144 C 0.89955 0.49035 0.69324
 H145 H 0.86779 0.49433 0.69229
 C146 C 0.92215 0.48102 0.66042
 H147 H 0.90728 0.47757 0.63442
 N148 N 0.91714 0.49366 0.72658
 C149 C 0.81664 0.55146 0.76589
 H150 H 0.80032 0.52710 0.77227
 C151 C 0.79605 0.58405 0.75811
 H152 H 0.76402 0.58427 0.75876
 C153 C 0.87806 0.58005 0.75515
 H154 H 0.91007 0.57801 0.75360
 C155 C 0.85864 0.61314 0.74685
 H156 H 0.87606 0.63663 0.73948
 Zn157 Zn 0.88487 0.50473 0.77041
 N158 N 0.85692 0.55000 0.76418
 C159 C 0.91893 0.53832 0.83512
 N160 N 0.91631 0.50719 0.81269
 C161 C 0.93406 0.47462 0.82120
 C162 C 0.95538 0.47227 0.85345
 C163 C 0.94009 0.53722 0.86780
 C164 C 0.84800 0.43591 0.75521
 C165 C 0.82392 0.40651 0.76419
 C166 C 0.80309 0.43994 0.82193
 C167 C 0.82738 0.46874 0.81176
 N168 N 0.84925 0.46626 0.77895
 H169 H 0.90393 0.56375 0.82818
 H170 H 0.93111 0.45022 0.80302
 H171 H 0.96933 0.44599 0.85933
 H172 H 0.94121 0.56204 0.88572
 H173 H 0.86641 0.43390 0.72979
 H174 H 0.82397 0.38231 0.74527
 H175 H 0.78597 0.44262 0.84817
 H176 H 0.82943 0.49296 0.83038
 C177 C 0.81707 0.61529 0.74789
 C178 C 0.96336 0.47546 0.66187
 C179 C 0.80144 0.40813 0.79816
 C180 C 0.95823 0.50369 0.87752
 C181 C 0.19794 0.41733 0.04765
 H182 H 0.22050 0.41678 0.06814
 C183 C 0.16677 0.44355 0.05183
 H184 H 0.16564 0.46291 0.07579
 C185 C 0.17390 0.39409 -0.00966
 H186 H 0.17737 0.37554 -0.03413
 C187 C 0.14229 0.41992 -0.00664
 H188 H 0.12123 0.42011 -0.02852
 N189 N 0.20099 0.39330 0.01727
 C190 C 0.28144 0.30387 0.04801
 H191 H 0.30416 0.30477 0.02588
 C192 C 0.28249 0.27554 0.07336
 H193 H 0.30651 0.25502 0.07083
 C194 C 0.22176 0.32884 0.07720
 H195 H 0.19741 0.34887 0.07793
 C196 C 0.22191 0.30130 0.10336
 H197 H 0.19759 0.30071 0.12396
 Zn198 Zn 0.24786 0.36329 0.01117
 N199 N 0.25111 0.32951 0.05006
 C200 C 0.31798 0.39746 0.03697
 N201 N 0.28937 0.39710 0.01144
 C202 C 0.28600 0.42437 -0.01327
 C203 C 0.31118 0.45419 -0.01228
 C204 C 0.34408 0.42687 0.03883
 C205 C 0.22053 0.31018 -0.04038
 C206 C 0.21993 0.28919 -0.07405
 C207 C 0.27910 0.31929 -0.09539
 C208 C 0.27843 0.33985 -0.06142
 N209 N 0.24910 0.33537 -0.03495
 H210 H 0.31959 0.37582 0.05679
 H211 H 0.26267 0.42353 -0.03299
 H212 H 0.30745 0.47581 -0.03190
 H213 H 0.36580 0.42751 0.06015
 H214 H 0.19799 0.30663 -0.01856
 H215 H 0.19688 0.26935 -0.07771
 H216 H 0.30237 0.32380 -0.11626
 H217 H 0.30142 0.35936 -0.05628
 C218 C 0.25213 0.27372 0.10118
 C219 C 0.13866 0.44540 0.02423
 C220 C 0.24937 0.29378 -0.10220
 C221 C 0.34009 0.45616 0.01455
 C222 C 0.71428 0.05451 -0.03223
 H223 H 0.73870 0.05216 -0.05282
 C224 C 0.68481 0.02836 -0.03264
 H225 H 0.68721 0.00567 -0.05343
 C226 C 0.68245 0.08687 0.02025
 H227 H 0.68176 0.10977 0.04075
 C228 C 0.65228 0.06119 0.02092
 H229 H 0.62834 0.06485 0.04191
 N230 N 0.71230 0.08333 -0.00645
 C231 C 0.76894 0.17627 -0.05708
 H232 H 0.79251 0.18206 -0.03840
 C233 C 0.76008 0.20103 -0.08470
 H234 H 0.77731 0.22566 -0.08726
 C235 C 0.71617 0.13839 -0.07465
 H236 H 0.69826 0.11462 -0.07016
 C237 C 0.70652 0.16212 -0.10262
 H238 H 0.68207 0.15524 -0.11983
 Zn239 Zn 0.75328 0.11760 -0.00976
 N240 N 0.74662 0.14595 -0.05226
 C241 C 0.82991 0.09391 -0.04053
 N242 N 0.80141 0.08962 -0.01317
 C243 C 0.80389 0.06162 0.01081
 C244 C 0.83502 0.03550 0.00683
 C245 C 0.86222 0.06875 -0.04495
 C246 C 0.72197 0.17814 0.03334
 C247 C 0.72149 0.20701 0.06055
 C248 C 0.77943 0.17882 0.08611
 C249 C 0.77920 0.15077 0.05799
 N250 N 0.75093 0.15118 0.03215
 H251 H 0.82700 0.11605 -0.05964
 H252 H 0.78061 0.05871 0.03207
 H253 H 0.83590 0.01279 0.02556
 H254 H 0.88426 0.07179 -0.06738
 H255 H 0.70008 0.17791 0.01220
 H256 H 0.69878 0.22873 0.06052
 H257 H 0.80283 0.17871 0.10579
 H258 H 0.80226 0.12936 0.05616
 C259 C 0.72788 0.19445 -0.10735
 C260 C 0.65304 0.03169 -0.00608
 C261 C 0.75081 0.20783 0.08702
 C262 C 0.86427 0.03858 -0.02168
 C263 C 0.18099 0.54925 0.46111
 H264 H 0.20337 0.54689 0.43854
 C265 C 0.14921 0.52548 0.46117
 H266 H 0.14737 0.50482 0.43854
 C267 C 0.15702 0.57850 0.51852
 H268 H 0.16020 0.59931 0.54073
 C269 C 0.12507 0.55476 0.52005
 H270 H 0.10367 0.55761 0.54345
 N271 N 0.18407 0.57544 0.48923
 C272 C 0.25172 0.66541 0.44196
 H273 H 0.27286 0.67063 0.46324
 C274 C 0.25186 0.68689 0.41043
 H275 H 0.27326 0.70844 0.40748
 C276 C 0.19837 0.63098 0.41953
 H277 H 0.17710 0.60963 0.42313
 C278 C 0.19829 0.65099 0.38713
 H279 H 0.17711 0.64467 0.36611
 Zn280 Zn 0.22854 0.60631 0.48714
 N281 N 0.22554 0.63769 0.44578
 C282 C 0.30865 0.58645 0.46425
 N283 N 0.27463 0.57495 0.48115
 C284 C 0.27266 0.54066 0.49524
 C285 C 0.30549 0.51632 0.49228
 C286 C 0.34230 0.56298 0.46078
 C287 C 0.22639 0.67190 0.53548
 C288 C 0.23347 0.69169 0.56889
 C289 C 0.24899 0.63373 0.59683
 C290 C 0.24169 0.61515 0.56300
 N291 N 0.23159 0.63437 0.53290
 H292 H 0.30990 0.61379 0.45341
 H293 H 0.24561 0.53225 0.50921
 H294 H 0.30316 0.48945 0.50424
 H295 H 0.36894 0.57259 0.44696
 H296 H 0.21755 0.68667 0.51149
 H297 H 0.23053 0.72162 0.56996
 H298 H 0.25741 0.61766 0.62013
 H299 H 0.24506 0.58529 0.56046
 C300 C 0.22548 0.67906 0.38223
 C301 C 0.12079 0.52806 0.49092
 C302 C 0.24591 0.67260 0.59987
 C303 C 0.34092 0.52732 0.47481
 C304 C 0.66280 0.88066 0.50437
 H305 H 0.66078 0.85106 0.50622
 C306 C 0.62892 0.90177 0.49745
 H307 H 0.60136 0.88793 0.49342
 C308 C 0.70092 0.93458 0.50797
 H309 H 0.72868 0.94751 0.51289
 C310 C 0.66783 0.95672 0.50088
 H311 H 0.67082 0.98644 0.50044
 N312 N 0.69808 0.89714 0.50893
 C313 C 0.74501 0.80370 0.56238
 H314 H 0.76070 0.78946 0.53876
 C315 C 0.73909 0.78564 0.59578
 H316 H 0.75022 0.75741 0.59742
 C317 C 0.71335 0.85844 0.58943
 H318 H 0.70386 0.88701 0.58678
 C319 C 0.70698 0.84153 0.62335
 H320 H 0.69187 0.85722 0.64640
 Zn321 Zn 0.74304 0.86598 0.51644
 N322 N 0.73217 0.83947 0.55988
 C323 C 0.80772 0.89025 0.55670
 N324 N 0.78888 0.89456 0.52431
 C325 C 0.80156 0.91945 0.49928
 C326 C 0.83321 0.94222 0.50722
 C327 C 0.83941 0.91235 0.56570
 C328 C 0.72376 0.80565 0.46956
 C329 C 0.72357 0.78401 0.43638
 C330 C 0.77953 0.81736 0.41282
 C331 C 0.77876 0.83830 0.44664
 N332 N 0.75040 0.83286 0.47380
 H333 H 0.79787 0.87001 0.57607
 H334 H 0.78623 0.92254 0.47367
 H335 H 0.84182 0.96271 0.48752
 H336 H 0.85354 0.90841 0.59180
 H337 H 0.70208 0.80106 0.49178
 H338 H 0.70175 0.76284 0.43387
 H339 H 0.80141 0.82323 0.39112
 H340 H 0.79999 0.85972 0.45047
 C341 C 0.72022 0.80474 0.62697
 C342 C 0.63126 0.94029 0.49531
 C343 C 0.75098 0.79042 0.40698
 C344 C 0.85205 0.93933 0.54122
 C345 C -0.00008 0.17839 0.42182
 H346 H 0.02551 0.19500 0.42655
 C347 C -0.00869 0.14926 0.44511
 H348 H 0.01059 0.14366 0.46765
 C349 C -0.05761 0.16713 0.38816
 H350 H -0.07729 0.17466 0.36663
 C351 C -0.06728 0.13792 0.41068
 H352 H -0.09381 0.12287 0.40532
 N353 N -0.02474 0.18700 0.39427
 C354 C 0.03437 0.25580 0.31313
 H355 H 0.01216 0.27799 0.31388
 C356 C 0.06512 0.25471 0.28592
 H357 H 0.06672 0.27655 0.26622
 C358 C 0.05804 0.19967 0.33720
 H359 H 0.05434 0.17774 0.35651
 C360 C 0.08974 0.19774 0.31058
 H361 H 0.11039 0.17424 0.30971
 Zn362 Zn -0.01677 0.23043 0.36731
 N363 N 0.03098 0.22828 0.33767
 C364 C 0.01306 0.29508 0.40263
 N365 N -0.01759 0.27155 0.40202
 C366 C -0.04925 0.27645 0.42662
 C367 C -0.05136 0.30650 0.45264
 C368 C 0.01212 0.32555 0.42806
 C369 C -0.05603 0.21083 0.30351
 C370 C -0.08163 0.21485 0.27442
 C371 C -0.10990 0.27014 0.30679
 C372 C -0.08350 0.26519 0.33523
 N373 N -0.05714 0.23596 0.33295
 H374 H 0.03833 0.29038 0.38335
 H375 H -0.07298 0.25700 0.42588
 H376 H -0.07694 0.30950 0.47178
 H377 H 0.03672 0.34401 0.42741
 H378 H -0.03443 0.18809 0.30225
 H379 H -0.07995 0.19466 0.25113
 H380 H -0.12994 0.29410 0.30856
 H381 H -0.08333 0.28531 0.35844
 C382 C 0.09287 0.22510 0.28396
 C383 C -0.04321 0.12912 0.44015
 C384 C -0.10862 0.24510 0.27557
 C385 C -0.02050 0.33181 0.45350
 C386 C -0.01044 0.72267 0.07172
 H387 H -0.03126 0.74558 0.06901
 C388 C -0.01442 0.68982 0.05059
 H389 H -0.03802 0.68814 0.03122
 C390 C 0.04555 0.69773 0.10041
 H391 H 0.06894 0.70097 0.11976
 C392 C 0.04267 0.66417 0.07968
 H393 H 0.06366 0.64171 0.08377
 N394 N 0.01833 0.72569 0.09692
 C395 C -0.04251 0.80269 0.17863
 H396 H -0.02339 0.82621 0.17859
 C397 C -0.07695 0.80373 0.20180
 H398 H -0.08381 0.82821 0.21961
 C399 C -0.05558 0.74174 0.15642
 H400 H -0.04687 0.71722 0.13943
 C401 C -0.09018 0.74161 0.17900
 H402 H -0.10786 0.71713 0.17814
 Zn403 Zn 0.01502 0.77073 0.12633
 N404 N -0.03269 0.77210 0.15629
 C405 C -0.01563 0.83324 0.08914
 N406 N 0.01552 0.80911 0.09213
 C407 C 0.04842 0.81019 0.06910
 C408 C 0.05116 0.83649 0.04186
 C409 C -0.01422 0.85999 0.06209
 C410 C 0.06711 0.74940 0.18229
 C411 C 0.09738 0.75451 0.20726
 C412 C 0.10554 0.81615 0.18515
 C413 C 0.07594 0.80953 0.15998
 N414 N 0.05756 0.77648 0.15874
 H415 H -0.04186 0.83140 0.10720
 H416 H 0.07260 0.79042 0.07195
 H417 H 0.07796 0.83687 0.02433
 H418 H -0.03962 0.87849 0.05982
 H419 H 0.05100 0.72395 0.18193
 H420 H 0.10485 0.73268 0.22572
 H421 H 0.11980 0.84264 0.18572
 H422 H 0.06703 0.83125 0.14207
 C423 C -0.10134 0.77283 0.20221
 C424 C 0.01166 0.65965 0.05511
 C425 C 0.11671 0.78838 0.20898
 C426 C 0.01946 0.86174 0.03782
 C427 C 0.50407 0.21708 0.57459
 H428 H 0.47595 0.23193 0.57348
 C429 C 0.51034 0.18294 0.55489
 H430 H 0.48670 0.17155 0.53898
 C431 C 0.56890 0.21384 0.59688
 H432 H 0.59224 0.22636 0.61217
 C433 C 0.57646 0.17991 0.57766
 H434 H 0.60552 0.16687 0.57887
 N435 N 0.53267 0.23105 0.59628
 C436 C 0.46515 0.30408 0.67830
 H437 H 0.48281 0.32857 0.67741
 C438 C 0.43115 0.30399 0.70188
 H439 H 0.42314 0.32863 0.71910
 C440 C 0.45541 0.24196 0.65771
 H441 H 0.46538 0.21748 0.64123
 C442 C 0.42123 0.24065 0.68084
 H443 H 0.40494 0.21531 0.68086
 Zn444 Zn 0.52309 0.27577 0.62558
 N445 N 0.47621 0.27359 0.65631
 C446 C 0.48669 0.33597 0.58976
 N447 N 0.52006 0.31454 0.59221
 C448 C 0.55250 0.31898 0.56934
 C449 C 0.55259 0.34635 0.54311
 C450 C 0.48537 0.36359 0.56371
 C451 C 0.57290 0.25418 0.68019
 C452 C 0.60718 0.25339 0.70029
 C453 C 0.62341 0.31323 0.67715
 C454 C 0.58923 0.31239 0.65650
 N455 N 0.56557 0.28252 0.65750
 H456 H 0.46084 0.33135 0.60754
 H457 H 0.57845 0.30114 0.57157
 H458 H 0.57913 0.34932 0.52576
 H459 H 0.45829 0.37994 0.56210
 H460 H 0.55322 0.23109 0.68084
 H461 H 0.61368 0.22981 0.71690
 H462 H 0.64284 0.33649 0.67545
 H463 H 0.58230 0.33507 0.63899
 C464 C 0.40847 0.27203 0.70318
 C465 C 0.54668 0.16351 0.55712
 C466 C 0.63316 0.28278 0.69818
 C467 C 0.51864 0.36911 0.53983
 C468 C 0.49351 0.70878 0.94100
 H469 H 0.51446 0.73083 0.94091
 C470 C 0.49321 0.68409 0.96979
 H471 H 0.51416 0.68741 0.99160
 C472 C 0.44158 0.67739 0.91199
 H473 H 0.42181 0.67477 0.88917
 C474 C 0.44053 0.65175 0.94018
 H475 H 0.41930 0.62989 0.93915
 N476 N 0.46760 0.70544 0.91317
 C477 C 0.53364 0.75565 0.82347
 H478 H 0.52052 0.78334 0.82396
 C479 C 0.56771 0.74685 0.80093
 H480 H 0.58051 0.76793 0.78400
 C481 C 0.53269 0.69450 0.84478
 H482 H 0.51896 0.67416 0.86195
 C483 C 0.56637 0.68441 0.82234
 H484 H 0.57850 0.65642 0.82295
 Zn485 Zn 0.47137 0.74152 0.87652
 N486 N 0.51707 0.72963 0.84506
 C487 C 0.44394 0.80605 0.91816
 N488 N 0.47682 0.78798 0.90247
 C489 C 0.51355 0.80114 0.90777
 C490 C 0.51819 0.83362 0.92955
 C491 C 0.44720 0.83873 0.93994
 C492 C 0.42979 0.74790 0.81010
 C493 C 0.39664 0.75304 0.78875
 C494 C 0.35490 0.74792 0.84452
 C495 C 0.38889 0.74298 0.86481
 N496 N 0.42548 0.74354 0.84755
 H497 H 0.41508 0.79487 0.91445
 H498 H 0.53943 0.78588 0.89600
 H499 H 0.54772 0.84347 0.93343
 H500 H 0.42063 0.85215 0.95264
 H501 H 0.45900 0.74828 0.79674
 H502 H 0.40124 0.75716 0.75920
 H503 H 0.32640 0.74751 0.85928
 H504 H 0.38601 0.73915 0.89456
 C505 C 0.58444 0.71077 0.80018
 C506 C 0.46633 0.65527 0.96979
 C507 C 0.35841 0.75358 0.80594
 C508 C 0.48472 0.85276 0.94611
 N509 N 0.11714 0.23374 0.21814
 N510 N 0.14814 0.22370 0.19593
 C511 C 0.17453 0.20543 0.21599
 C512 C 0.15962 0.20353 0.25255
 C513 C 0.12298 0.22175 0.25268
 H514 H 0.17309 0.19014 0.27547
 H515 H 0.09173 0.24710 0.20913
 H516 H 0.15012 0.22798 0.16728
 N517 N 0.63078 0.66601 0.76345
 N518 N 0.66503 0.66672 0.74432
 C519 C 0.67769 0.70175 0.74562
 C520 C 0.64989 0.72456 0.76560
 C521 C 0.62070 0.70067 0.77684
 H522 H 0.65101 0.75404 0.77180
 H523 H 0.61435 0.64219 0.76644
 H524 H 0.67866 0.64375 0.72982
 N525 N 0.28504 0.76360 0.79814
 N526 N 0.26085 0.76818 0.77058
 C527 C 0.28261 0.76812 0.73833
 C528 C 0.32222 0.76318 0.74524
 C529 C 0.32275 0.76023 0.78381
 H530 H 0.34664 0.76084 0.72468
 H531 H 0.27533 0.76246 0.82608
 H532 H 0.23002 0.77034 0.77384
 N533 N -0.12381 0.23983 0.20784
 N534 N -0.15078 0.25265 0.18576
 C535 C -0.17837 0.27248 0.20693
 C536 C -0.16865 0.27244 0.24409
 C537 C -0.13362 0.25147 0.24347
 H538 H -0.18444 0.28625 0.26792
 H539 H -0.09835 0.22472 0.19821
 H540 H -0.14928 0.24893 0.15665
 N541 N -0.15567 0.80277 0.24455
 N542 N -0.18670 0.79228 0.26476
 C543 C -0.18883 0.75513 0.26089
 C544 C -0.15828 0.74142 0.23677
 C545 C -0.13757 0.77252 0.22718
 H546 H -0.15178 0.71282 0.22796
 H547 H -0.14774 0.83034 0.24243
 H548 H -0.20628 0.81048 0.28025
 N549 N 0.35149 0.30183 0.74205
 N550 N 0.31923 0.29136 0.76038
 C551 C 0.31824 0.25412 0.75770
 C552 C 0.35126 0.24016 0.73703
 C553 C 0.37169 0.27142 0.72734
 H554 H 0.35890 0.21136 0.72992
 H555 H 0.35856 0.32949 0.73889
 H556 H 0.29783 0.30957 0.77338
 N557 N 0.69434 0.24971 0.71542
 N558 N 0.71999 0.25271 0.74200
 C559 C 0.71333 0.28550 0.76085
 C560 C 0.68220 0.30442 0.74555
 C561 C 0.67078 0.28047 0.71701
 H562 H 0.66631 0.32899 0.75719
 H563 H 0.69116 0.22582 0.69842
 H564 H 0.73918 0.23131 0.74923
 N565 N 0.15428 0.82810 0.25313
 N566 N 0.18526 0.82468 0.27408
 C567 C 0.19980 0.78956 0.26976
 C568 C 0.17638 0.76943 0.24586
 C569 C 0.14810 0.79509 0.23565
 H570 H 0.17985 0.74083 0.23594
 H571 H 0.13744 0.85259 0.25136
 H572 H 0.19560 0.84594 0.29143
 N573 N 0.22250 0.10071 0.24098
 N574 N 0.20053 0.12868 0.23012
 C575 C 0.22454 0.15341 0.21446
 C576 C 0.26352 0.14044 0.21490
 C577 C 0.26081 0.10688 0.23208
 H578 H 0.28999 0.15373 0.20492
 H579 H 0.21119 0.07746 0.25355
 H580 H 0.16967 0.13022 0.23294
 N581 N 0.81111 0.67397 0.71344
 N582 N 0.78357 0.69942 0.70746
 C583 C 0.74991 0.69124 0.72656
 C584 C 0.75664 0.65951 0.74611
 C585 C 0.79575 0.64916 0.73666
 H586 H 0.73639 0.64604 0.76494
 H587 H 0.83963 0.67341 0.70099
 H588 H 0.78813 0.72180 0.69049
 N589 N 0.76670 0.36927 0.84495
 N590 N 0.74689 0.33826 0.84502
 C591 C 0.74465 0.32519 0.80942
 C592 C 0.76371 0.34871 0.78558
 C593 C 0.77747 0.37642 0.80930
 H594 H 0.76709 0.34589 0.75541
 H595 H 0.77327 0.38463 0.86914
 H596 H 0.73512 0.32661 0.86908
 N597 N 0.32566 -0.18359 0.30994
 N598 N 0.29983 -0.21030 0.31226
 C599 C 0.26861 -0.20163 0.29179
 C600 C 0.27543 -0.16841 0.27500
 C601 C 0.31166 -0.15750 0.28771
 H602 H 0.25697 -0.15423 0.25595
 H603 H 0.35196 -0.18312 0.32415
 H604 H 0.30386 -0.23377 0.32779
 N605 N 0.23836 -0.15107 0.65392
 N606 N 0.25442 -0.18480 0.65477
 C607 C 0.25033 -0.19636 0.68989
 C608 C 0.23155 -0.16859 0.71258
 C609 C 0.22404 -0.14019 0.68862
 H610 H 0.22489 -0.16899 0.74233
 H611 H 0.23773 -0.13604 0.62975
 H612 H 0.26902 -0.19887 0.63186
 N613 N 0.78074 0.38192 0.23767
 N614 N 0.80077 0.35103 0.22721
 C615 C 0.77663 0.32838 0.20861
 C616 C 0.73962 0.34562 0.20700
 C617 C 0.74360 0.37967 0.22568
 H618 H 0.71364 0.33511 0.19402
 H619 H 0.79296 0.40463 0.25154
 H620 H 0.83074 0.34637 0.23180
 N621 N 0.78615 0.63684 0.25937
 N622 N 0.80210 0.66846 0.26958
 C623 C 0.77550 0.69610 0.26547
 C624 C 0.74102 0.68178 0.25216
 C625 C 0.74886 0.64376 0.24879
 H626 H 0.71381 0.69682 0.24717
 H627 H 0.80015 0.61099 0.26172
 H628 H 0.82997 0.67075 0.28079
 N629 N 0.26424 0.16102 0.70632
 N630 N 0.27959 0.19326 0.71541
 C631 C 0.27473 0.19954 0.75270
 C632 C 0.25546 0.17009 0.76807
 C633 C 0.24911 0.14623 0.73761
 H634 H 0.24680 0.16678 0.79714
 H635 H 0.26278 0.15030 0.67888
 H636 H 0.29173 0.21102 0.69606
 N637 N 0.26509 0.20757 0.11659
 N638 N 0.25379 0.18481 0.14266
 C639 C 0.23193 0.20433 0.16947
 C640 C 0.22933 0.24114 0.16013
 C641 C 0.25043 0.24201 0.12609
 H642 H 0.21305 0.26372 0.17520
 H643 H 0.28067 0.19901 0.09176
 H644 H 0.25930 0.15619 0.14082
 N645 N 0.71065 0.80535 0.69690
 N646 N 0.70905 0.78109 0.72344
 C647 C 0.71246 0.74687 0.70714
 C648 C 0.71662 0.74905 0.66878
 C649 C 0.71532 0.78686 0.66328
 H650 H 0.72045 0.72632 0.64813
 H651 H 0.70984 0.83402 0.70212
 H652 H 0.70691 0.78803 0.75208
 N653 N 0.71709 0.75125 0.35908
 N654 N 0.72470 0.73687 0.32491
 C655 C 0.76120 0.74661 0.31334
 C656 C 0.77784 0.76769 0.34152
 C657 C 0.74879 0.77008 0.37022
 H658 H 0.80730 0.77861 0.34147
 H659 H 0.69024 0.74836 0.37400
 H660 H 0.70488 0.72094 0.31011
 N661 N 0.21649 0.25712 -0.15269
 N662 N 0.22625 0.24116 -0.18585
 C663 C 0.26513 0.24576 -0.19329
 C664 C 0.28085 0.26565 -0.16382
 C665 C 0.24894 0.27236 -0.13847
 H666 H 0.31117 0.27387 -0.16129
 H667 H 0.18775 0.25831 -0.14074
 H668 H 0.20625 0.22834 -0.20329
 N669 N 0.67982 0.22204 -0.15037
 N670 N 0.67899 0.24827 -0.17479
 C671 C 0.71387 0.26523 -0.17495
 C672 C 0.73833 0.24910 -0.14989
 C673 C 0.71557 0.22143 -0.13491
 H674 H 0.76881 0.25535 -0.14493
 H675 H 0.65604 0.20504 -0.14475
 H676 H 0.65511 0.25399 -0.19137
 N677 N 0.22295 0.68286 0.31304
 N678 N 0.22625 0.70832 0.28783
 C679 C 0.23207 0.74112 0.30571
 C680 C 0.23298 0.73655 0.34383
 C681 C 0.22700 0.69904 0.34725
 H682 H 0.23651 0.75755 0.36583
 H683 H 0.21873 0.65477 0.30674
 H684 H 0.22541 0.70290 0.25904
 N685 N 0.28146 0.67850 0.65964
 N686 N 0.28728 0.70402 0.68619
 C687 C 0.26749 0.73547 0.67841
 C688 C 0.24755 0.72940 0.64569
 C689 C 0.25750 0.69287 0.63447
 H690 H 0.22804 0.74841 0.63230
 H691 H 0.29457 0.65195 0.65874
 H692 H 0.30463 0.69954 0.70903
 N693 N 0.74310 0.27518 0.10590
 N694 N 0.75364 0.29774 0.13353
 C695 C 0.77016 0.27729 0.15963
 C696 C 0.77030 0.24016 0.14808
 C697 C 0.75313 0.24002 0.11368
 H698 H 0.78253 0.21676 0.16202
 H699 H 0.73132 0.28409 0.08126
 H700 H 0.75142 0.32660 0.13321
 N701 N 0.54597 0.40171 0.48407
 N702 N 0.53529 0.42914 0.46315
 C703 C 0.49979 0.44304 0.47634
 C704 C 0.48763 0.42417 0.50741
 C705 C 0.51767 0.39777 0.51131
 H706 H 0.46090 0.42929 0.52473
 H707 H 0.57211 0.38593 0.47901
 H708 H 0.55208 0.43761 0.44009
 N709 N 0.04738 0.88706 -0.02172
 N710 N 0.04005 0.91499 -0.04323
 C711 C 0.00896 0.93513 -0.02786
 C712 C -0.00381 0.91982 0.00516
 C713 C 0.02125 0.88903 0.00801
 H714 H -0.02762 0.92992 0.02440
 H715 H 0.06947 0.86675 -0.02811
 H716 H 0.05571 0.91962 -0.06828
 N717 N -0.02993 0.61321 0.02240
 N718 N -0.02597 0.57933 0.00709
 C719 C 0.01177 0.56737 0.00990
 C720 C 0.03291 0.59470 0.02788
 C721 C 0.00524 0.62355 0.03528
 H722 H 0.06390 0.59380 0.03422
 H723 H -0.05674 0.62835 0.02469
 H724 H -0.04906 0.56459 -0.00428
 N725 N 0.58148 0.10158 0.54921
 N726 N 0.58015 0.07108 0.52773
 C727 C 0.55185 0.07570 0.50282
 C728 C 0.53364 0.11045 0.50946
 C729 C 0.55381 0.12621 0.53884
 H730 H 0.50906 0.12242 0.49537
 H731 H 0.60055 0.10473 0.57120
 H732 H 0.59824 0.04769 0.53089
 N733 N -0.09338 0.09058 0.47270
 N734 N -0.09483 0.06705 0.49986
 C735 C -0.05794 0.06145 0.51158
 C736 C -0.03179 0.08247 0.49112
 C737 C -0.05556 0.10069 0.46663
 H738 H -0.00026 0.08471 0.49422
 H739 H -0.11839 0.10063 0.45987
 H740 H -0.12099 0.05651 0.51107
 N741 N 0.47570 0.63859 1.03600
 N742 N 0.46905 0.61029 1.05730
 C743 C 0.45421 0.58269 1.03617
 C744 C 0.45112 0.59386 0.99984
 C745 C 0.46496 0.62966 1.00095
 H746 H 0.44002 0.57832 0.97621
 H747 H 0.48607 0.66398 1.04589
 H748 H 0.47332 0.61066 1.08600
 N749 N 0.46029 0.91305 0.97785
 N750 N 0.47442 0.93964 0.99957
 C751 C 0.51211 0.93038 1.00632
 C752 C 0.52276 0.89679 0.98831
 C753 C 0.48896 0.88661 0.97032
 H754 H 0.55119 0.88228 0.98813
 H755 H 0.43184 0.91378 0.96764
 H756 H 0.45885 0.96400 1.00855
 N757 N -0.05392 0.37517 0.50310
 N758 N -0.04530 0.40528 0.52309
 C759 C -0.00820 0.41469 0.51327
 C760 C 0.00786 0.38920 0.48646
 C761 C -0.02224 0.36449 0.48043
 H762 H 0.03756 0.38855 0.47396
 H763 H -0.08130 0.36264 0.50515
 H764 H -0.06479 0.41908 0.54275
 N765 N 0.37483 0.46463 0.47388
 N766 N 0.41126 0.45040 0.47031
 C767 C 0.43644 0.47825 0.46598
 C768 C 0.41530 0.51162 0.46611
 C769 C 0.37611 0.50181 0.47160
 H770 H 0.42694 0.53900 0.46328
 H771 H 0.34966 0.44877 0.47697
 H772 H 0.41833 0.42206 0.46986
 N773 N 0.88899 -0.02707 -0.02303
 N774 N 0.92270 -0.04600 -0.02952
 C775 C 0.95115 -0.02212 -0.03837
 C776 C 0.93479 0.01353 -0.03843
 C777 C 0.89524 0.00911 -0.02801
 H778 H 0.94976 0.03905 -0.04344
 H779 H 0.86216 -0.03894 -0.01549
 H780 H 0.92580 -0.07471 -0.02790
 N781 N 0.61246 -0.01675 -0.03715
 N782 N 0.58216 -0.03746 -0.02841
 C783 C 0.57103 -0.03002 0.00779
 C784 C 0.59477 -0.00284 0.02253
 C785 C 0.62100 0.00459 -0.00685
 H786 H 0.59304 0.00991 0.05046
 H787 H 0.62621 -0.01685 -0.06381
 H788 H 0.56938 -0.05583 -0.04733
 N789 N 0.07087 0.48815 0.46066
 N790 N 0.04209 0.46630 0.47102
 C791 C 0.03996 0.46610 0.50867
 C792 C 0.06792 0.48962 0.52295
 C793 C 0.08720 0.50274 0.49148
 H794 H 0.07397 0.49578 0.55194
 H795 H 0.07857 0.49336 0.43288
 H796 H 0.02403 0.45249 0.45240
 N797 N 0.09357 0.49310 0.05885
 N798 N 0.06428 0.51619 0.05123
 C799 C 0.05818 0.51265 0.01438
 C800 C 0.08456 0.48627 -0.00223
 C801 C 0.10652 0.47432 0.02699
 H802 H 0.08714 0.47711 -0.03142
 H803 H 0.10352 0.48975 0.08570
 H804 H 0.04812 0.53301 0.07123
 N805 N 0.55805 0.95422 0.49727
 N806 N 0.53413 0.98279 0.49157
 C807 C 0.55607 1.01026 0.47854
 C808 C 0.59548 0.99903 0.47563
 C809 C 0.59567 0.96332 0.48832
 H810 H 0.62046 1.01551 0.46774
 H811 H 0.54877 0.92984 0.50909
 H812 H 0.50375 0.98403 0.49833
 N813 N 0.89223 0.97356 0.58790
 N814 N 0.91835 1.00005 0.58831
 C815 C 0.92667 1.00921 0.55286
 C816 C 0.90494 0.98758 0.52874
 C817 C 0.88318 0.96534 0.55219
 H818 H 0.90432 0.98867 0.49865
 H819 H 0.87963 0.96274 0.61205
 H820 H 0.92869 1.01262 0.61267
 N821 N 0.35123 0.52389 0.00929
 N822 N 0.37771 0.54826 0.01903
 C823 C 0.40781 0.53019 0.03447
 C824 C 0.40017 0.49267 0.03476
 C825 C 0.36379 0.48984 0.01854
 H826 H 0.41814 0.47079 0.04576
 H827 H 0.32425 0.53100 -0.00201
 H828 H 0.37416 0.57682 0.01643
 N829 N 0.53880 0.53964 0.41863
 N830 N 0.51642 0.52835 0.44687
 C831 C 0.49951 0.49678 0.43574
 C832 C 0.51151 0.48715 0.39927
 C833 C 0.53679 0.51503 0.38926
 H834 H 0.50428 0.46233 0.38330
 H835 H 0.55644 0.56285 0.42036
 H836 H 0.51417 0.54122 0.47359
 N837 N 0.07449 0.01422 0.91979
 N838 N 0.05158 0.00422 0.94815
 C839 C 0.01851 -0.01002 0.93466
 C840 C 0.02032 -0.00946 0.89602
 C841 C 0.05668 0.00589 0.88760
 H842 H 0.00031 -0.02221 0.87686
 H843 H 0.10249 0.02518 0.92266
 H844 H 0.05951 0.00521 0.97602
 N845 N 0.01868 0.08650 0.60014
 N846 N -0.00843 0.08595 0.57468
 C847 C -0.01751 0.05049 0.56689
 C848 C 0.00471 0.02736 0.58827
 C849 C 0.02736 0.05136 0.60923
 H850 H 0.00378 -0.00251 0.58889
 H851 H 0.02967 0.11086 0.61190
 H852 H -0.02148 0.10963 0.56417
 N853 N 0.46339 0.50667 0.13530
 N854 N 0.43893 0.51475 0.10890
 C855 C 0.45877 0.53347 0.08274
 C856 C 0.49755 0.53771 0.09293
 C857 C 0.49926 0.52026 0.12660
 H858 H 0.52092 0.55167 0.07811
 H859 H 0.45496 0.49323 0.15947
 H860 H 0.40894 0.50856 0.10971
 N861 N 0.54633 -0.04040 0.12532
 N862 N 0.56181 -0.04453 0.09084
 C863 C 0.53232 -0.04262 0.06692
 C864 C 0.49644 -0.03764 0.08680
 C865 C 0.50662 -0.03596 0.12399
 H866 H 0.46734 -0.03477 0.07575
 H867 H 0.56300 -0.04130 0.14912
 H868 H 0.59191 -0.04933 0.08407
 N869 N 1.02518 0.44947 0.62766
 N870 N 1.03788 0.44147 0.59277
 C871 C 1.00901 0.45077 0.57007
 C872 C 0.97648 0.46533 0.59093
 C873 C 0.98790 0.46406 0.62768
 H874 H 0.94880 0.47549 0.58066
 H875 H 1.04175 0.44408 0.65081
 H876 H 1.06556 0.42940 0.58480
 N877 N 0.98567 0.46899 0.93019
 N878 N 1.00371 0.47638 0.96150
 C879 C 1.00892 0.51314 0.96480
 C880 C 0.99351 0.53006 0.93443
 C881 C 0.97899 0.50096 0.91296
 H882 H 0.99311 0.55926 0.92886
 H883 H 0.97723 0.44248 0.92161
 H884 H 1.01128 0.45658 0.98054
 N885 N 0.49804 0.08556 0.39653
 N886 N 0.51953 0.08837 0.42639
 C887 C 0.51843 0.05610 0.44376
 C888 C 0.49583 0.03143 0.42379
 C889 C 0.48320 0.05123 0.39393
 H890 H 0.49067 0.00279 0.42951
 H891 H 0.49440 0.10691 0.37818
 H892 H 0.53599 0.11147 0.43344
   
