data_POSCAR
  _audit_creation_date              2014-09-24
  _audit_creation_method            'ToBaCCo'
  _symmetry_space_group_name_H-M    'P1'
  _symmetry_Int_Tables_number       1
  _symmetry_cell_setting            triclinic
  loop_
  _symmetry_equiv_pos_as_xyz
 x,y,z
_cell_length_a 45.1695
_cell_length_b 44.8315
_cell_length_c 7.0203
_cell_angle_alpha 89.974300
_cell_angle_beta 89.964500
_cell_angle_gamma 90.078800
loop_
  _atom_site_label
  _atom_site_type_symbol
  _atom_site_fract_x
  _atom_site_fract_y
  _atom_site_fract_z
C1 C 0.18710 0.22201 0.21407
 C2 C 0.17212 0.24922 0.20544
 C3 C 0.18737 0.27627 0.21628
 C4 C 0.21854 0.27643 0.23259
 C5 C 0.23406 0.24896 0.24064
 C6 C 0.21830 0.22157 0.23193
 C7 C 0.23415 0.19460 0.24130
 C8 C 0.26487 0.19451 0.25787
 C9 C 0.28093 0.22140 0.26689
 C10 C 0.26538 0.24885 0.25817
 C11 C 0.23459 0.30329 0.24088
 C12 C 0.26530 0.30320 0.25699
 C13 C 0.28110 0.27624 0.26643
 C14 C 0.31224 0.27591 0.28371
 C15 C 0.32732 0.24881 0.29376
 C16 C 0.31215 0.22167 0.28450
 H17 H 0.22290 0.17327 0.23564
 H18 H 0.27595 0.17314 0.26375
 H19 H 0.22350 0.32466 0.23534
 H20 H 0.27657 0.32451 0.26267
 H21 H 0.14816 0.24941 0.19214
 H22 H 0.35128 0.24891 0.30741
 C23 C 0.81381 0.27690 0.21371
 C24 C 0.82858 0.24958 0.20485
 C25 C 0.81309 0.22264 0.21407
 C26 C 0.78193 0.22272 0.23108
 C27 C 0.76664 0.25032 0.24069
 C28 C 0.78261 0.27757 0.23161
 C29 C 0.76694 0.30466 0.24047
 C30 C 0.73624 0.30499 0.25869
 C31 C 0.72002 0.27825 0.26857
 C32 C 0.73535 0.25067 0.25966
 C33 C 0.76568 0.19598 0.24009
 C34 C 0.73500 0.19632 0.25909
 C35 C 0.71941 0.22341 0.26862
 C36 C 0.68827 0.22402 0.28706
 C37 C 0.67346 0.25129 0.29769
 C38 C 0.68885 0.27828 0.28712
 H39 H 0.77833 0.32589 0.23230
 H40 H 0.72530 0.32644 0.26472
 H41 H 0.77659 0.17452 0.23294
 H42 H 0.72358 0.17511 0.26649
 H43 H 0.85254 0.24919 0.19104
 H44 H 0.64953 0.25151 0.31190
 C45 C 0.68796 0.72348 0.71572
 C46 C 0.67284 0.75057 0.70614
 C47 C 0.68795 0.77772 0.71460
 C48 C 0.71910 0.77808 0.73217
 C49 C 0.73475 0.75072 0.74136
 C50 C 0.71914 0.72324 0.73297
 C51 C 0.73507 0.69638 0.74280
 C52 C 0.76580 0.69648 0.75944
 C53 C 0.78170 0.72345 0.76744
 C54 C 0.76606 0.75082 0.75955
 C55 C 0.73496 0.80506 0.74058
 C56 C 0.76565 0.80517 0.75918
 C57 C 0.78166 0.77831 0.76826
 C58 C 0.81288 0.77806 0.78583
 C59 C 0.82801 0.75092 0.79379
 C60 C 0.81287 0.72379 0.78332
 H61 H 0.72390 0.67501 0.73801
 H62 H 0.77701 0.67517 0.76596
 H63 H 0.72377 0.82635 0.73253
 H64 H 0.77675 0.82656 0.76604
 H65 H 0.64889 0.75053 0.69249
 H66 H 0.85198 0.75084 0.80648
 C67 C 0.18691 0.72208 0.78505
 C68 C 0.17157 0.74908 0.79447
 C69 C 0.18645 0.77638 0.78480
 C70 C 0.21766 0.77700 0.76775
 C71 C 0.23352 0.74973 0.75958
 C72 C 0.21814 0.72211 0.76744
 C73 C 0.23439 0.69538 0.75863
 C74 C 0.26512 0.69575 0.74296
 C75 C 0.28076 0.72285 0.73440
 C76 C 0.26487 0.75008 0.74268
 C77 C 0.23342 0.80409 0.75917
 C78 C 0.26414 0.80440 0.74306
 C79 C 0.28026 0.77766 0.73427
 C80 C 0.31144 0.77769 0.71741
 C81 C 0.32682 0.75075 0.70853
 C82 C 0.31192 0.72349 0.71744
 H83 H 0.22346 0.67388 0.76432
 H84 H 0.27653 0.67455 0.73696
 H85 H 0.22208 0.82533 0.76458
 H86 H 0.27515 0.82585 0.73774
 H87 H 0.14758 0.74884 0.80749
 H88 H 0.35077 0.75101 0.69519
 O89 O 0.97201 -0.01917 -0.21794
 O90 O 1.02984 0.03466 -0.07934
 O91 O 1.02996 -0.01934 -0.21439
 O92 O 0.97244 0.03489 -0.08128
 O93 O 0.97186 0.01810 0.21457
 O94 O 1.02939 -0.03620 0.08132
 O95 O 1.02977 0.01782 0.21646
 O96 O 0.97195 -0.03598 0.07784
 Cu97 Cu 1.00108 0.00965 -0.17715
 Cu98 Cu 1.00067 -0.01096 0.17607
 C99 C 0.96230 -0.03688 -0.09138
 C100 C 1.03953 0.03549 0.08982
 C101 C 1.03936 -0.03708 -0.08723
 C102 C 0.96256 0.03588 0.08738
 O103 O 0.52812 0.46499 0.57923
 O104 O 0.47018 0.51864 0.71608
 O105 O 0.47060 0.46460 0.58147
 O106 O 0.52800 0.51910 0.71562
 O107 O 0.52771 0.53581 0.41939
 O108 O 0.47026 0.48135 0.28538
 O109 O 0.47031 0.53537 0.41992
 O110 O 0.52818 0.48171 0.28306
 Cu111 Cu 0.49927 0.48991 0.67683
 Cu112 Cu 0.49911 0.51044 0.32304
 C113 C 0.53787 0.46409 0.41004
 C114 C 0.46055 0.53626 0.58896
 C115 C 0.46076 0.46365 0.41270
 C116 C 0.53742 0.53689 0.58857
 O117 O 0.02884 0.48093 0.21317
 O118 O -0.02885 0.53516 0.08235
 O119 O -0.02906 0.48105 0.21567
 O120 O 0.02858 0.53519 0.07969
 O121 O 0.02868 0.51861 -0.21647
 O122 O -0.02904 0.46452 -0.08074
 O123 O -0.02927 0.51865 -0.21412
 O124 O 0.02835 0.46438 -0.08317
 Cu125 Cu -0.00006 0.50996 0.17645
 Cu126 Cu -0.00033 0.48967 -0.17762
 C127 C 0.03822 0.46328 0.08543
 C128 C -0.03878 0.53620 -0.08619
 C129 C -0.03874 0.46349 0.08837
 C130 C 0.03827 0.53627 -0.08941
 O131 O 0.47136 1.03606 0.57966
 O132 O 0.52897 0.98206 0.71635
 O133 O 0.52882 1.03599 0.57971
 O134 O 0.47105 0.98186 0.71280
 O135 O 0.47121 0.96520 0.41669
 O136 O 0.52899 1.01933 0.28356
 O137 O 0.52868 0.96542 0.42006
 O138 O 0.47108 1.01943 0.28348
 Cu139 Cu 0.50000 1.01086 0.67555
 Cu140 Cu 0.49999 0.99045 0.32221
 C141 C 0.46158 1.03709 0.41083
 C142 C 0.53857 0.96448 0.58877
 C143 C 0.53863 1.03694 0.41075
 C144 C 0.46146 0.96420 0.58575
 C145 C 1.11450 0.11697 0.00217
 C146 C 1.10643 0.14762 0.08863
 C147 C 1.13629 0.14796 0.19335
 C148 C 1.14467 0.11765 0.10704
 C149 C 1.10058 0.10162 0.17678
 C150 C 1.13045 0.10183 0.28118
 C151 C 1.09228 0.13196 0.26310
 C152 C 1.12244 0.13262 0.36801
 C153 C 1.15547 0.17430 0.20066
 C154 C 1.17060 0.19644 0.20669
 C155 C 1.07965 0.07677 0.16060
 C156 C 1.06163 0.05733 0.13543
 H157 H 1.11119 0.11037 -0.14910
 H158 H 1.09674 0.16662 0.00889
 H159 H 1.16645 0.11216 0.04294
 H160 H 1.14013 0.08272 0.36014
 H161 H 1.07050 0.13752 0.32716
 H162 H 1.12590 0.13922 0.51902
 C163 C 0.61287 0.61824 0.50259
 C164 C 0.60537 0.64917 0.58730
 C165 C 0.63499 0.64884 0.69482
 C166 C 0.64281 0.61826 0.61018
 C167 C 0.59819 0.60339 0.67632
 C168 C 0.62782 0.60298 0.78365
 C169 C 0.59041 0.63400 0.76073
 C170 C 0.62034 0.63402 0.86854
 C171 C 0.65491 0.67464 0.70324
 C172 C 0.67048 0.69647 0.70869
 C173 C 0.57708 0.57869 0.65883
 C174 C 0.55919 0.55911 0.63390
 H175 H 0.60966 0.61163 0.35131
 H176 H 0.59632 0.66838 0.50638
 H177 H 0.66458 0.61218 0.54806
 H178 H 0.63684 0.58368 0.86379
 H179 H 0.56858 0.64017 0.82161
 H180 H 0.62363 0.64080 1.01920
 C181 C -0.11331 0.38149 0.00252
 C182 C -0.10529 0.35097 0.09126
 C183 C -0.13520 0.35080 0.19525
 C184 C -0.14354 0.38098 0.10680
 C185 C -0.09950 0.39709 0.17622
 C186 C -0.12943 0.39703 0.28037
 C187 C -0.09124 0.36689 0.26467
 C188 C -0.12147 0.36636 0.36910
 C189 C -0.15435 0.32446 0.20226
 C190 C -0.16952 0.30235 0.20718
 C191 C -0.07867 0.42199 0.15832
 C192 C -0.06074 0.44151 0.13318
 H193 H -0.10986 0.38788 -0.14900
 H194 H -0.09557 0.33181 0.01321
 H195 H -0.16530 0.38639 0.04215
 H196 H -0.13913 0.41627 0.35764
 H197 H -0.06951 0.36139 0.32922
 H198 H -0.12511 0.35978 0.51972
 C199 C 0.38461 0.88409 0.50317
 C200 C 0.39251 0.85282 0.58091
 C201 C 0.36359 0.85281 0.69627
 C202 C 0.35536 0.88374 0.61851
 C203 C 0.40041 0.89817 0.67511
 C204 C 0.37150 0.89825 0.79033
 C205 C 0.40859 0.86721 0.75247
 C206 C 0.37938 0.86685 0.86823
 C207 C 0.34391 0.82687 0.70492
 C208 C 0.32863 0.80486 0.71059
 C209 C 0.42156 0.92276 0.65714
 C210 C 0.43954 0.94221 0.63140
 H211 H 0.38700 0.89142 0.35275
 H212 H 0.40087 0.83397 0.49356
 H213 H 0.33327 0.89019 0.56303
 H214 H 0.36321 0.91717 0.87728
 H215 H 0.43071 0.86068 0.80723
 H216 H 0.37701 0.85958 1.01888
 C217 C -0.09072 0.63323 -0.24696
 C218 C -0.11939 0.63436 -0.36753
 C219 C -0.13561 0.64833 -0.19708
 C220 C -0.10722 0.64753 -0.07689
 C221 C -0.09983 0.60224 -0.17373
 C222 C -0.11609 0.61624 -0.00336
 C223 C -0.12822 0.60293 -0.29408
 C224 C -0.14481 0.61738 -0.12379
 C225 C -0.15474 0.67462 -0.20635
 C226 C -0.16980 0.69676 -0.21126
 C227 C -0.07888 0.57751 -0.15424
 C228 C -0.06086 0.55809 -0.12983
 H229 H -0.06822 0.63943 -0.29698
 H230 H -0.12098 0.64225 -0.51693
 H231 H -0.09880 0.66618 0.01180
 H232 H -0.11464 0.60851 0.14667
 H233 H -0.13666 0.58423 -0.38230
 H234 H -0.16735 0.61128 -0.07400
 C235 C 0.40893 1.13454 0.25290
 C236 C 0.38011 1.13528 0.13344
 C237 C 0.36368 1.14837 0.30596
 C238 C 0.39219 1.14799 0.42497
 C239 C 0.40061 1.10315 0.32282
 C240 C 0.38416 1.11629 0.49511
 C241 C 0.37211 1.10345 0.20367
 C242 C 0.35532 1.11701 0.37598
 C243 C 0.34392 1.17419 0.29800
 C244 C 0.32856 1.19611 0.29171
 C245 C 0.42175 1.07858 0.34101
 C246 C 0.43968 1.05912 0.36633
 H247 H 0.43115 1.14149 0.20205
 H248 H 0.37823 1.14340 -0.01549
 H249 H 0.40017 1.16655 0.51600
 H250 H 0.38604 1.10815 0.64384
 H251 H 0.36418 1.08483 0.11274
 H252 H 0.33312 1.11016 0.42756
 C253 C 1.12911 -0.10400 -0.28637
 C254 C 1.14447 -0.11919 -0.11407
 C255 C 1.13553 -0.14980 -0.19399
 C256 C 1.12052 -0.13508 -0.36656
 C257 C 1.09997 -0.10349 -0.17352
 C258 C 1.09110 -0.13412 -0.25324
 C259 C 1.11501 -0.11822 -0.00106
 C260 C 1.10639 -0.14918 -0.08113
 C261 C 1.15468 -0.17608 -0.20259
 C262 C 1.16985 -0.19816 -0.20848
 C263 C 1.07920 -0.07858 -0.15644
 C264 C 1.06132 -0.05904 -0.13195
 H265 H 1.13827 -0.08512 -0.37015
 H266 H 1.16667 -0.11344 -0.05717
 H267 H 1.12296 -0.14223 -0.51730
 H268 H 1.06888 -0.13991 -0.30969
 H269 H 1.11260 -0.11106 0.14970
 H270 H 1.09723 -0.16791 0.00414
 C271 C 0.60098 0.37318 0.46945
 C272 C 0.60254 0.35035 0.30481
 C273 C 0.63645 0.35325 0.30541
 C274 C 0.63514 0.37575 0.47008
 C275 C 0.59951 0.39854 0.32239
 C276 C 0.63341 0.40152 0.32316
 C277 C 0.60079 0.37604 0.15777
 C278 C 0.63504 0.37858 0.15797
 C279 C 0.65626 0.32740 0.29862
 C280 C 0.67164 0.30545 0.29374
 C281 C 0.57817 0.42300 0.34007
 C282 C 0.56001 0.44229 0.36482
 H283 H 0.58682 0.37118 0.59816
 H284 H 0.58998 0.32908 0.29759
 H285 H 0.64938 0.37531 0.59896
 H286 H 0.64590 0.42281 0.33157
 H287 H 0.58656 0.37648 0.02886
 H288 H 0.64919 0.38046 0.02901
 C289 C 0.90885 -0.13373 -0.26028
 C290 C 0.89391 -0.14853 -0.08534
 C291 C 0.86430 -0.14839 -0.19296
 C292 C 0.87893 -0.13389 -0.36784
 C293 C 0.90113 -0.10296 -0.17806
 C294 C 0.87149 -0.10269 -0.28506
 C295 C 0.88642 -0.11746 -0.00320
 C296 C 0.85648 -0.11766 -0.11080
 C297 C 0.84462 -0.17434 -0.19976
 C298 C 0.82930 -0.19634 -0.20604
 C299 C 0.92230 -0.07831 -0.16172
 C300 C 0.94031 -0.05885 -0.13692
 H301 H 0.93062 -0.14009 -0.32101
 H302 H 0.90284 -0.16766 -0.00306
 H303 H 0.87550 -0.14094 -0.51778
 H304 H 0.86257 -0.08356 -0.36709
 H305 H 0.88963 -0.11050 0.14737
 H306 H 0.83475 -0.11144 -0.04874
 C307 C 0.37033 0.39740 0.21890
 C308 C 0.37826 0.36667 0.13122
 C309 C 0.36400 0.35127 0.30417
 C310 C 0.35572 0.38153 0.39162
 C311 C 0.40002 0.39726 0.32543
 C312 C 0.38572 0.38185 0.49835
 C313 C 0.40823 0.36697 0.23835
 C314 C 0.39367 0.35123 0.41088
 C315 C 0.34476 0.32504 0.29510
 C316 C 0.32962 0.30294 0.28955
 C317 C 0.42093 0.42209 0.34278
 C318 C 0.43883 0.44162 0.36780
 H319 H 0.36099 0.41672 0.14061
 H320 H 0.37499 0.36021 -0.02022
 H321 H 0.33388 0.38715 0.45452
 H322 H 0.38895 0.38833 0.64971
 H323 H 0.43007 0.36124 0.17597
 H324 H 0.40301 0.33200 0.49022
 C325 C 0.09069 0.63385 -0.25134
 C326 C 0.10664 0.64810 -0.07872
 C327 C 0.13563 0.64837 -0.19338
 C328 C 0.11996 0.63447 -0.36646
 C329 C 0.09895 0.60282 -0.17546
 C330 C 0.12792 0.60301 -0.29009
 C331 C 0.11462 0.61674 -0.00252
 C332 C 0.14392 0.61735 -0.11728
 C333 C 0.15533 0.67432 -0.20130
 C334 C 0.17064 0.69636 -0.20761
 C335 C 0.07795 0.57803 -0.15880
 C336 C 0.06010 0.55841 -0.13448
 H337 H 0.06854 0.64036 -0.30571
 H338 H 0.09813 0.66681 0.00919
 H339 H 0.12234 0.64195 -0.51672
 H340 H 0.13633 0.58415 -0.37697
 H341 H 0.11218 0.60927 0.14763
 H342 H 0.16601 0.61086 -0.06204
 C343 C 0.63188 1.10286 0.39891
 C344 C 0.64206 1.11841 0.21250
 C345 C 0.63605 1.14884 0.30544
 C346 C 0.62625 1.13370 0.49141
 C347 C 0.59993 1.10286 0.32381
 C348 C 0.59404 1.13331 0.41676
 C349 C 0.60973 1.11796 0.13787
 C350 C 0.60410 1.14877 0.23064
 C351 C 0.65539 1.17506 0.29778
 C352 C 0.67065 1.19711 0.29264
 C353 C 0.57883 1.07817 0.34046
 C354 C 0.56074 1.05879 0.36558
 H355 H 0.64309 1.08377 0.46911
 H356 H 0.66200 1.11261 0.12784
 H357 H 0.63317 1.14039 0.63707
 H358 H 0.57413 1.13917 0.50149
 H359 H 0.60278 1.11115 -0.00734
 H360 H 0.59283 1.16788 0.16110
 C361 C 0.09067 0.36642 0.26201
 C362 C 0.10547 0.35079 0.09016
 C363 C 0.13510 0.35119 0.19743
 C364 C 0.12060 0.36646 0.36995
 C365 C 0.09871 0.39678 0.17447
 C366 C 0.12832 0.39726 0.28190
 C367 C 0.11323 0.38147 0.00244
 C368 C 0.14316 0.38153 0.10980
 C369 C 0.15470 0.32526 0.20575
 C370 C 0.17005 0.30332 0.21085
 C371 C 0.07781 0.42154 0.15502
 C372 C 0.06002 0.44113 0.12953
 H373 H 0.06877 0.36052 0.32297
 H374 H 0.09630 0.33152 0.01013
 H375 H 0.12382 0.36004 0.52145
 H376 H 0.13749 0.41679 0.35892
 H377 H 0.10994 0.38792 -0.14876
 H378 H 0.16495 0.38736 0.04669
 C379 C 0.59492 0.87120 0.80069
 C380 C 0.60382 0.85118 0.63072
 C381 C 0.63626 0.85303 0.69491
 C382 C 0.62769 0.87270 0.86540
 C383 C 0.60008 0.89885 0.67568
 C384 C 0.63255 0.90081 0.73995
 C385 C 0.60874 0.87913 0.50562
 C386 C 0.64148 0.88065 0.56990
 C387 C 0.65551 0.82683 0.70251
 C388 C 0.67062 0.80473 0.70781
 C389 C 0.57895 0.92344 0.65687
 C390 C 0.56078 0.94272 0.63231
 H391 H 0.57549 0.86758 0.89464
 H392 H 0.59224 0.83055 0.58461
 H393 H 0.63581 0.86973 1.01336
 H394 H 0.64416 0.92146 0.78518
 H395 H 0.60068 0.88204 0.35760
 H396 H 0.66094 0.88417 0.47591
 C397 C 0.91030 0.13352 0.24709
 C398 C 0.89368 0.14729 0.07564
 C399 C 0.86511 0.14754 0.19439
 C400 C 0.88144 0.13414 0.36630
 C401 C 0.90195 0.10228 0.17505
 C402 C 0.87339 0.10246 0.29389
 C403 C 0.88561 0.11573 0.00314
 C404 C 0.85672 0.11632 0.12210
 C405 C 0.84544 0.17344 0.20243
 C406 C 0.83018 0.19545 0.20784
 C407 C 0.92299 0.07762 0.15714
 C408 C 0.94080 0.05804 0.13193
 H409 H 0.93257 0.14036 0.29769
 H410 H 0.90175 0.16606 -0.01357
 H411 H 0.87949 0.14200 0.51575
 H412 H 0.86541 0.08365 0.38308
 H413 H 0.88756 0.10803 -0.14685
 H414 H 0.83445 0.10955 0.07123
 C415 C 0.37007 0.60236 0.78175
 C416 C 0.37793 0.63315 0.86909
 C417 C 0.36391 0.64845 0.69511
 C418 C 0.35569 0.61813 0.60802
 C419 C 0.39989 0.60250 0.67646
 C420 C 0.38583 0.61783 0.50263
 C421 C 0.40805 0.63285 0.76339
 C422 C 0.39372 0.64849 0.58991
 C423 C 0.34466 0.67462 0.70375
 C424 C 0.32945 0.69664 0.70992
 C425 C 0.42073 0.57770 0.65904
 C426 C 0.43861 0.55818 0.63405
 H427 H 0.36063 0.58306 0.86003
 H428 H 0.37448 0.63964 1.02040
 H429 H 0.33390 0.61241 0.54462
 H430 H 0.38924 0.61134 0.35135
 H431 H 0.42980 0.63864 0.82698
 H432 H 0.40321 0.66773 0.51103
   
