data_POSCAR
  _audit_creation_date              2014-09-24
  _audit_creation_method            'ToBaCCo'
  _symmetry_space_group_name_H-M    'P1'
  _symmetry_Int_Tables_number       1
  _symmetry_cell_setting            triclinic
  loop_
  _symmetry_equiv_pos_as_xyz
 x,y,z
_cell_length_a 55.4559
_cell_length_b 55.4754
_cell_length_c 55.4920
_cell_angle_alpha 90.014200
_cell_angle_beta 90.016700
_cell_angle_gamma 90.016300
loop_
  _atom_site_label
  _atom_site_type_symbol
  _atom_site_fract_x
  _atom_site_fract_y
  _atom_site_fract_z
O1 O 0.35009 0.31757 -0.02391
 O2 O 0.31700 0.35051 0.02301
 O3 O 0.35027 0.31739 0.02278
 O4 O 0.31690 0.35080 -0.02368
 O5 O 0.28862 0.32269 -0.02387
 O6 O 0.32217 0.28908 0.02282
 O7 O 0.28872 0.32240 0.02305
 O8 O 0.32200 0.28927 -0.02410
 Cu9 Cu 0.33639 0.33690 -0.00045
 Cu10 Cu 0.30252 0.30300 -0.00054
 C11 C 0.34179 0.29779 -0.03179
 C12 C 0.29721 0.34217 0.03083
 C13 C 0.34201 0.29753 0.03052
 C14 C 0.29706 0.34255 -0.03149
 O15 O 0.65001 0.68251 -0.02398
 O16 O 0.68308 0.64952 0.02293
 O17 O 0.64989 0.68273 0.02271
 O18 O 0.68313 0.64921 -0.02376
 O19 O 0.71147 0.67726 -0.02397
 O20 O 0.67805 0.71097 0.02273
 O21 O 0.71142 0.67758 0.02294
 O22 O 0.67817 0.71075 -0.02419
 Cu23 Cu 0.66369 0.66317 -0.00052
 Cu24 Cu 0.69764 0.69699 -0.00064
 C25 C 0.65834 0.70227 -0.03187
 C26 C 0.70290 0.65783 0.03073
 C27 C 0.65821 0.70257 0.03045
 C28 C 0.70298 0.65741 -0.03159
 O29 O 0.68310 0.35051 0.97705
 O30 O 0.65000 0.31751 1.02391
 O31 O 0.68315 0.35078 1.02373
 O32 O 0.64987 0.31734 0.97722
 O33 O 0.67799 0.28908 0.97718
 O34 O 0.71146 0.32272 1.02393
 O35 O 0.67812 0.28925 1.02410
 O36 O 0.71141 0.32244 0.97702
 Cu37 Cu 0.66370 0.33686 1.00047
 Cu38 Cu 0.69761 0.30301 1.00057
 C39 C 0.70291 0.34220 0.96924
 C40 C 0.65831 0.29773 1.03179
 C41 C 0.70299 0.34256 1.03156
 C42 C 0.65816 0.29750 0.96946
 O43 O 0.31722 0.64921 0.97725
 O44 O 0.35039 0.68225 1.02408
 O45 O 0.31723 0.64897 1.02394
 O46 O 0.35046 0.68239 0.97739
 O47 O 0.32234 0.71065 0.97737
 O48 O 0.28892 0.67704 1.02414
 O49 O 0.32227 0.71051 1.02429
 O50 O 0.28892 0.67728 0.97723
 Cu51 Cu 0.33665 0.66288 1.00066
 Cu52 Cu 0.30275 0.69673 1.00077
 C53 C 0.29740 0.65751 0.96945
 C54 C 0.34209 0.70203 1.03196
 C55 C 0.29739 0.65720 1.03177
 C56 C 0.34216 0.70222 0.96964
 O57 O -0.02379 0.35009 0.31728
 O58 O 0.02316 0.31717 0.35037
 O59 O 0.02293 0.35039 0.31721
 O60 O -0.02355 0.31694 0.35051
 O61 O -0.02359 0.28864 0.32244
 O62 O 0.02312 0.32228 0.28894
 O63 O 0.02335 0.28887 0.32230
 O64 O -0.02382 0.32198 0.28902
 Cu65 Cu -0.00032 0.33648 0.33667
 Cu66 Cu -0.00023 0.30258 0.30282
 C67 C -0.03161 0.34175 0.29749
 C68 C 0.03105 0.29739 0.34208
 C69 C 0.03075 0.34213 0.29738
 C70 C -0.03131 0.29708 0.34226
 O71 O 0.02332 0.68256 0.64947
 O72 O -0.02367 0.64973 0.68259
 O73 O -0.02339 0.68279 0.64927
 O74 O 0.02305 0.64942 0.68272
 O75 O 0.02324 0.67759 0.71092
 O76 O -0.02343 0.71115 0.67727
 O77 O -0.02370 0.67791 0.71079
 O78 O 0.02351 0.71092 0.67748
 Cu79 Cu -0.00018 0.66329 0.66320
 Cu80 Cu -0.00008 0.69726 0.69697
 C81 C 0.03122 0.70235 0.65773
 C82 C -0.03150 0.65812 0.70235
 C83 C -0.03113 0.70267 0.65746
 C84 C 0.03086 0.65771 0.70253
 O85 O 0.97683 0.68281 0.35039
 O86 O 1.02371 0.64987 0.31725
 O87 O 1.02354 0.68296 0.35054
 O88 O 0.97699 0.64964 0.31718
 O89 O 0.97683 0.67778 0.28896
 O90 O 1.02361 0.71130 0.32253
 O91 O 1.02378 0.67802 0.28903
 O92 O 0.97667 0.71115 0.32237
 Cu93 Cu 1.00027 0.66349 0.33666
 Cu94 Cu 1.00022 0.69743 0.30287
 C95 C 0.96896 0.70261 0.34213
 C96 C 1.03154 0.65823 0.29748
 C97 C 1.03132 0.70282 0.34233
 C98 C 0.96918 0.65792 0.29737
 O99 O 0.97654 0.31740 0.64913
 O100 O 1.02344 0.35030 0.68236
 O101 O 1.02325 0.31722 0.64904
 O102 O 0.97672 0.35056 0.68238
 O103 O 0.97651 0.32240 0.71058
 O104 O 1.02327 0.28887 0.67704
 O105 O 1.02345 0.32213 0.71056
 O106 O 0.97633 0.28905 0.67714
 Cu107 Cu 1.00000 0.33671 0.66291
 Cu108 Cu 0.99988 0.30275 0.69668
 C109 C 0.96865 0.29760 0.65736
 C110 C 1.03124 0.34192 0.70214
 C111 C 1.03100 0.29735 0.65725
 C112 C 0.96888 0.34227 0.70217
 O113 O 0.31714 -0.02332 0.35029
 O114 O 0.35017 0.02368 0.31737
 O115 O 0.31699 0.02338 0.35059
 O116 O 0.35043 -0.02302 0.31718
 O117 O 0.32235 -0.02312 0.28888
 O118 O 0.28871 0.02350 0.32249
 O119 O 0.32208 0.02380 0.28908
 O120 O 0.28887 -0.02342 0.32217
 Cu121 Cu 0.33651 0.00018 0.33669
 Cu122 Cu 0.30264 0.00019 0.30279
 C123 C 0.29737 -0.03118 0.34194
 C124 C 0.34185 0.03155 0.29760
 C125 C 0.29714 0.03115 0.34234
 C126 C 0.34219 -0.03078 0.29733
 O127 O 0.64984 0.02361 0.68263
 O128 O 0.68293 -0.02339 0.64978
 O129 O 0.64964 -0.02309 0.68288
 O130 O 0.68301 0.02331 0.64940
 O131 O 0.71130 0.02354 0.67750
 O132 O 0.67772 -0.02309 0.71118
 O133 O 0.71120 -0.02339 0.67789
 O134 O 0.67794 0.02384 0.71092
 Cu135 Cu 0.66353 0.00010 0.66334
 Cu136 Cu 0.69740 0.00024 0.69723
 C137 C 0.65815 0.03153 0.70240
 C138 C 0.70272 -0.03120 0.65814
 C139 C 0.65789 -0.03081 0.70274
 C140 C 0.70285 0.03113 0.65764
 O141 O 0.31674 1.02329 0.64998
 O142 O 0.34985 0.97642 0.68299
 O143 O 0.31669 0.97659 0.64975
 O144 O 0.35002 1.02312 0.68310
 O145 O 0.32194 1.02320 0.71139
 O146 O 0.28840 0.97644 0.67783
 O147 O 0.32175 0.97628 0.71127
 O148 O 0.28846 1.02337 0.67808
 Cu149 Cu 0.33615 0.99986 0.66363
 Cu150 Cu 0.30228 0.99981 0.69750
 C151 C 0.29695 1.03112 0.65831
 C152 C 0.34155 0.96856 0.70277
 C153 C 0.29685 0.96878 0.65800
 C154 C 0.34176 1.03090 0.70293
 O155 O 0.65008 0.97684 0.31755
 O156 O 0.68314 1.02369 0.35071
 O157 O 0.64987 1.02354 0.31755
 O158 O 0.68323 0.97698 0.35082
 O159 O 0.71153 0.97692 0.32276
 O160 O 0.67798 1.02371 0.28929
 O161 O 0.71143 1.02385 0.32264
 O162 O 0.67820 0.97678 0.28930
 Cu163 Cu 0.66375 1.00026 0.33698
 Cu164 Cu 0.69765 1.00032 0.30314
 C165 C 0.65840 0.96903 0.29776
 C166 C 0.70294 1.03156 0.34243
 C167 C 0.65814 1.03136 0.29774
 C168 C 0.70308 0.96921 0.34257
 C169 C 0.86263 0.78985 0.47863
 C170 C 0.87143 0.78117 0.50055
 C171 C 0.86268 0.78988 0.52247
 C172 C 0.84450 0.80772 0.52270
 C173 C 0.83540 0.81668 0.50053
 C174 C 0.84450 0.80771 0.47837
 C175 C 0.83532 0.81692 0.45662
 C176 C 0.81759 0.83470 0.45660
 C177 C 0.80839 0.84391 0.47833
 C178 C 0.81732 0.83478 0.50051
 C179 C 0.83529 0.81692 0.54444
 C180 C 0.81751 0.83466 0.54442
 C181 C 0.80833 0.84386 0.52267
 C182 C 0.79048 0.86201 0.52241
 C183 C 0.78184 0.87084 0.50048
 C184 C 0.79056 0.86209 0.47856
 H185 H 0.84183 0.81047 0.43939
 H186 H 0.81117 0.84122 0.43936
 H187 H 0.84178 0.81047 0.56167
 H188 H 0.81105 0.84115 0.56165
 H189 H 0.88549 0.76755 0.50054
 H190 H 0.76822 0.88490 0.50048
 C191 C 0.20942 0.13787 0.47853
 C192 C 0.21811 0.12909 0.50046
 C193 C 0.20944 0.13790 0.52238
 C194 C 0.19160 0.15607 0.52263
 C195 C 0.18266 0.16518 0.50047
 C196 C 0.19161 0.15607 0.47830
 C197 C 0.18244 0.16529 0.45655
 C198 C 0.16472 0.18309 0.45656
 C199 C 0.15553 0.19229 0.47831
 C200 C 0.16459 0.18329 0.50048
 C201 C 0.18240 0.16526 0.54438
 C202 C 0.16465 0.18303 0.54439
 C203 C 0.15547 0.19225 0.52265
 C204 C 0.13732 0.21011 0.52241
 C205 C 0.12859 0.21884 0.50048
 C206 C 0.13740 0.21017 0.47856
 H207 H 0.18888 0.15879 0.43932
 H208 H 0.15824 0.18956 0.43933
 H209 H 0.18884 0.15875 0.56161
 H210 H 0.15814 0.18947 0.56162
 H211 H 0.23171 0.11501 0.50046
 H212 H 0.11454 0.23247 0.50046
 C213 C 0.13765 0.78967 0.47746
 C214 C 0.12889 0.78092 0.49936
 C215 C 0.13768 0.78956 0.52130
 C216 C 0.15581 0.80744 0.52161
 C217 C 0.16491 0.81646 0.49947
 C218 C 0.15581 0.80753 0.47727
 C219 C 0.16503 0.81677 0.45556
 C220 C 0.18279 0.83454 0.45562
 C221 C 0.19196 0.84371 0.47740
 C222 C 0.18298 0.83458 0.49954
 C223 C 0.16497 0.81662 0.54338
 C224 C 0.18269 0.83442 0.54345
 C225 C 0.19189 0.84368 0.52173
 C226 C 0.20971 0.86189 0.52155
 C227 C 0.21843 0.87068 0.49965
 C228 C 0.20980 0.86188 0.47771
 H229 H 0.15854 0.81035 0.43831
 H230 H 0.18926 0.84107 0.43841
 H231 H 0.15847 0.81013 0.56059
 H232 H 0.18911 0.84092 0.56070
 H233 H 0.11483 0.76728 0.49933
 H234 H 0.23203 0.88477 0.49969
 C235 C 0.79025 0.13759 0.47730
 C236 C 0.78161 0.12882 0.49924
 C237 C 0.79033 0.13763 0.52114
 C238 C 0.80815 0.15584 0.52133
 C239 C 0.81708 0.16491 0.49913
 C240 C 0.80810 0.15576 0.47700
 C241 C 0.81727 0.16491 0.45522
 C242 C 0.83504 0.18267 0.45516
 C243 C 0.84425 0.19194 0.47688
 C244 C 0.83515 0.18303 0.49907
 C245 C 0.81736 0.16511 0.54305
 C246 C 0.83507 0.18291 0.54299
 C247 C 0.84425 0.19207 0.52121
 C248 C 0.86237 0.20996 0.52092
 C249 C 0.87116 0.21858 0.49898
 C250 C 0.86241 0.20981 0.47707
 H251 H 0.81081 0.15836 0.43801
 H252 H 0.84153 0.18908 0.43792
 H253 H 0.81093 0.15863 0.56029
 H254 H 0.84158 0.18942 0.56020
 H255 H 0.76800 0.11474 0.49928
 H256 H 0.88521 0.23222 0.49895
 C257 C 0.52172 0.86223 0.79027
 C258 C 0.49977 0.87099 0.78160
 C259 C 0.47785 0.86215 0.79026
 C260 C 0.47762 0.84399 0.80808
 C261 C 0.49980 0.83488 0.81701
 C262 C 0.52198 0.84402 0.80806
 C263 C 0.54374 0.83479 0.81720
 C264 C 0.54375 0.81697 0.83489
 C265 C 0.52200 0.80776 0.84409
 C266 C 0.49981 0.81676 0.83505
 C267 C 0.45586 0.83478 0.81729
 C268 C 0.45587 0.81701 0.83503
 C269 C 0.47763 0.80780 0.84419
 C270 C 0.47789 0.78993 0.86232
 C271 C 0.49985 0.78119 0.87101
 C272 C 0.52177 0.78986 0.86218
 H273 H 0.56098 0.84131 0.81076
 H274 H 0.56100 0.81050 0.84134
 H275 H 0.43861 0.84129 0.81087
 H276 H 0.43864 0.81057 0.84155
 H277 H 0.49975 0.88507 0.76801
 H278 H 0.49987 0.76755 0.88504
 C279 C 0.52184 0.21025 0.13797
 C280 C 0.49990 0.21885 0.12910
 C281 C 0.47796 0.21012 0.13784
 C282 C 0.47773 0.19233 0.15605
 C283 C 0.49992 0.18344 0.16521
 C284 C 0.52209 0.19243 0.15614
 C285 C 0.54386 0.18328 0.16538
 C286 C 0.54388 0.16555 0.18314
 C287 C 0.52213 0.15633 0.19232
 C288 C 0.49994 0.16539 0.18334
 C289 C 0.45598 0.18313 0.16524
 C290 C 0.45600 0.16543 0.18306
 C291 C 0.47777 0.15629 0.19230
 C292 C 0.47803 0.13820 0.21019
 C293 C 0.49996 0.12943 0.21889
 C294 C 0.52190 0.13819 0.21019
 H295 H 0.56110 0.18975 0.15889
 H296 H 0.56112 0.15908 0.18961
 H297 H 0.43874 0.18952 0.15870
 H298 H 0.43876 0.15893 0.18951
 H299 H 0.49991 0.23244 0.11502
 H300 H 0.49996 0.11540 0.23253
 C301 C 0.52199 0.13810 0.78990
 C302 C 0.50004 0.12928 0.78126
 C303 C 0.47811 0.13804 0.78999
 C304 C 0.47791 0.15623 0.80781
 C305 C 0.50011 0.16534 0.81674
 C306 C 0.52227 0.15624 0.80776
 C307 C 0.54405 0.16541 0.81695
 C308 C 0.54409 0.18314 0.83473
 C309 C 0.52235 0.19236 0.84394
 C310 C 0.50015 0.18343 0.83483
 C311 C 0.45617 0.16546 0.81701
 C312 C 0.45621 0.18325 0.83473
 C313 C 0.47799 0.19243 0.84391
 C314 C 0.47827 0.21030 0.86205
 C315 C 0.50022 0.21893 0.87087
 C316 C 0.52215 0.21018 0.86213
 H317 H 0.56128 0.15890 0.81049
 H318 H 0.56135 0.18957 0.84124
 H319 H 0.43892 0.15896 0.81058
 H320 H 0.43898 0.18973 0.84122
 H321 H 0.50002 0.11522 0.76765
 H322 H 0.50024 0.23254 0.88493
 C323 C 0.47849 0.86247 0.20979
 C324 C 0.50043 0.87127 0.21847
 C325 C 0.52237 0.86248 0.20982
 C326 C 0.52263 0.84432 0.19197
 C327 C 0.50046 0.83517 0.18303
 C328 C 0.47827 0.84426 0.19198
 C329 C 0.45652 0.83499 0.18282
 C330 C 0.45654 0.81718 0.16513
 C331 C 0.47831 0.80801 0.15593
 C332 C 0.50048 0.81705 0.16497
 C333 C 0.54440 0.83516 0.18277
 C334 C 0.54442 0.81740 0.16501
 C335 C 0.52267 0.80814 0.15584
 C336 C 0.52245 0.79028 0.13769
 C337 C 0.50051 0.78149 0.12899
 C338 C 0.47857 0.79011 0.13782
 H339 H 0.43927 0.84147 0.18927
 H340 H 0.43931 0.81067 0.15866
 H341 H 0.56164 0.84170 0.18920
 H342 H 0.56167 0.81099 0.15849
 H343 H 0.50042 0.88534 0.23208
 H344 H 0.50051 0.76785 0.11496
 C345 C 0.86194 0.52211 0.78998
 C346 C 0.87073 0.50019 0.78130
 C347 C 0.86202 0.47826 0.79005
 C348 C 0.84390 0.47802 0.80795
 C349 C 0.83480 0.50021 0.81690
 C350 C 0.84385 0.52237 0.80789
 C351 C 0.83466 0.54413 0.81709
 C352 C 0.81698 0.54415 0.83491
 C353 C 0.80783 0.52241 0.84416
 C354 C 0.81677 0.50022 0.83505
 C355 C 0.83475 0.45628 0.81720
 C356 C 0.81703 0.45630 0.83499
 C357 C 0.80785 0.47806 0.84419
 C358 C 0.79006 0.47832 0.86239
 C359 C 0.78139 0.50025 0.87120
 C360 C 0.79005 0.52218 0.86239
 H361 H 0.84113 0.56136 0.81059
 H362 H 0.81054 0.56139 0.84141
 H363 H 0.84124 0.43904 0.81075
 H364 H 0.81061 0.43907 0.84153
 H365 H 0.88475 0.50019 0.76764
 H366 H 0.76782 0.50024 0.88530
 C367 C 0.13781 0.47820 0.20979
 C368 C 0.12909 0.50013 0.21853
 C369 C 0.13794 0.52206 0.20989
 C370 C 0.15609 0.52231 0.19204
 C371 C 0.16514 0.50014 0.18304
 C372 C 0.15598 0.47796 0.19195
 C373 C 0.16515 0.45621 0.18272
 C374 C 0.18292 0.45622 0.16499
 C375 C 0.19216 0.47798 0.15583
 C376 C 0.18323 0.50015 0.16496
 C377 C 0.16533 0.54406 0.18289
 C378 C 0.18307 0.54407 0.16512
 C379 C 0.19223 0.52233 0.15588
 C380 C 0.21007 0.52209 0.13771
 C381 C 0.21873 0.50015 0.12892
 C382 C 0.21001 0.47823 0.13769
 H383 H 0.15861 0.43898 0.18913
 H384 H 0.18934 0.43899 0.15846
 H385 H 0.15886 0.56130 0.18937
 H386 H 0.18955 0.56131 0.15865
 H387 H 0.11503 0.50015 0.23214
 H388 H 0.23234 0.50014 0.11487
 C389 C 0.86200 0.47795 0.20994
 C390 C 0.87083 0.49988 0.21859
 C391 C 0.86212 0.52180 0.20984
 C392 C 0.84396 0.52203 0.19197
 C393 C 0.83483 0.49984 0.18304
 C394 C 0.84388 0.47768 0.19206
 C395 C 0.83466 0.45591 0.18288
 C396 C 0.81695 0.45589 0.16508
 C397 C 0.80780 0.47763 0.15582
 C398 C 0.81677 0.49982 0.16492
 C399 C 0.83480 0.54377 0.18272
 C400 C 0.81706 0.54374 0.16495
 C401 C 0.80784 0.52198 0.15577
 C402 C 0.79002 0.52171 0.13759
 C403 C 0.78133 0.49978 0.12880
 C404 C 0.78999 0.47785 0.13761
 H405 H 0.84113 0.43869 0.18937
 H406 H 0.81049 0.43865 0.15859
 H407 H 0.84132 0.56101 0.18914
 H408 H 0.81064 0.56097 0.15841
 H409 H 0.88487 0.49988 0.23223
 H410 H 0.76774 0.49977 0.11471
 C411 C 0.13773 0.47782 0.79027
 C412 C 0.12893 0.49976 0.78163
 C413 C 0.13766 0.52168 0.79040
 C414 C 0.15581 0.52189 0.80828
 C415 C 0.16491 0.49970 0.81720
 C416 C 0.15584 0.47754 0.80816
 C417 C 0.16503 0.45577 0.81733
 C418 C 0.18274 0.45573 0.83513
 C419 C 0.19192 0.47746 0.84440
 C420 C 0.18298 0.49965 0.83532
 C421 C 0.16500 0.54362 0.81755
 C422 C 0.18274 0.54358 0.83532
 C423 C 0.19193 0.52181 0.84448
 C424 C 0.20977 0.52153 0.86265
 C425 C 0.21843 0.49959 0.87142
 C426 C 0.20974 0.47767 0.86261
 H427 H 0.15854 0.43855 0.81082
 H428 H 0.18918 0.43848 0.84161
 H429 H 0.15850 0.56087 0.81113
 H430 H 0.18919 0.56080 0.84187
 H431 H 0.11489 0.49978 0.76799
 H432 H 0.23203 0.49957 0.88550
 C433 C 0.26067 0.38472 0.07804
 N434 N 0.23766 0.39141 0.07319
 N435 N 0.22686 0.40831 0.08641
 C436 C 0.23875 0.41904 0.10489
 N437 N 0.26173 0.41227 0.10982
 N438 N 0.27252 0.39537 0.09659
 C439 C 0.27313 0.36851 0.06223
 C440 C 0.28396 0.35590 0.04825
 C441 C 0.22808 0.43896 0.11742
 C442 C 0.21959 0.45646 0.12710
 C443 C 0.73940 0.61523 0.07793
 N444 N 0.72754 0.60459 0.09647
 N445 N 0.73832 0.58768 0.10968
 C446 C 0.76129 0.58089 0.10477
 N447 N 0.77320 0.59162 0.08631
 N448 N 0.76241 0.60853 0.07309
 C449 C 0.72696 0.63146 0.06213
 C450 C 0.71614 0.64408 0.04814
 C451 C 0.77196 0.56097 0.11730
 C452 C 0.78044 0.54348 0.12699
 C453 C 0.73944 0.38480 0.92206
 N454 N 0.72759 0.39541 0.90349
 N455 N 0.73838 0.41231 0.89027
 C456 C 0.76134 0.41913 0.89522
 N457 N 0.77323 0.40845 0.91372
 N458 N 0.76244 0.39154 0.92694
 C459 C 0.72698 0.36858 0.93787
 C460 C 0.71616 0.35596 0.95184
 C461 C 0.77200 0.43906 0.88269
 C462 C 0.78048 0.45655 0.87299
 C463 C 0.26074 0.61491 0.92233
 N464 N 0.23772 0.60825 0.92721
 N465 N 0.22686 0.59138 0.91399
 C466 C 0.23869 0.58065 0.89549
 N467 N 0.26167 0.58739 0.89053
 N468 N 0.27253 0.60426 0.90375
 C469 C 0.27325 0.63113 0.93811
 C470 C 0.28412 0.64374 0.95207
 C471 C 0.22794 0.56075 0.88295
 C472 C 0.21940 0.54328 0.87326
 C473 C 0.07815 0.26095 0.38487
 N474 N 0.09653 0.27286 0.39573
 N475 N 0.10968 0.26207 0.41270
 C476 C 0.10482 0.23904 0.41931
 N477 N 0.08651 0.22709 0.40836
 N478 N 0.07337 0.23788 0.39140
 C479 C 0.06240 0.27339 0.36857
 C480 C 0.04845 0.28419 0.35589
 C481 C 0.11727 0.22834 0.43928
 C482 C 0.12688 0.21981 0.45679
 C483 C 0.07834 0.73873 0.61492
 N484 N 0.09667 0.72679 0.60401
 N485 N 0.10983 0.73758 0.58705
 C486 C 0.10504 0.76063 0.58049
 N487 N 0.08678 0.77261 0.59148
 N488 N 0.07363 0.76182 0.60843
 C489 C 0.06259 0.72631 0.63122
 C490 C 0.04863 0.71553 0.64390
 C491 C 0.11749 0.77134 0.56054
 C492 C 0.12713 0.77988 0.54305
 C493 C 0.92192 0.73907 0.38495
 N494 N 0.92674 0.76212 0.39154
 N495 N 0.91360 0.77292 0.40850
 C496 C 0.89525 0.76099 0.41939
 N497 N 0.89035 0.73799 0.41272
 N498 N 0.90349 0.72719 0.39576
 C499 C 0.93765 0.72663 0.36865
 C500 C 0.95159 0.71583 0.35596
 C501 C 0.88280 0.77169 0.43935
 C502 C 0.87317 0.78021 0.45686
 C503 C 0.92164 0.26109 0.61449
 N504 N 0.90328 0.27296 0.60355
 N505 N 0.89014 0.26211 0.58661
 C506 C 0.89498 0.23905 0.58008
 N507 N 0.91326 0.22713 0.59110
 N508 N 0.92639 0.23799 0.60804
 C509 C 0.93736 0.27357 0.63080
 C510 C 0.95128 0.28439 0.64350
 C511 C 0.88253 0.22827 0.56015
 C512 C 0.87290 0.21968 0.54267
 C513 C 0.38450 0.07874 0.26111
 N514 N 0.39100 0.07398 0.23803
 N515 N 0.40790 0.08717 0.22720
 C516 C 0.41883 0.10552 0.23911
 N517 N 0.41225 0.11035 0.26215
 N518 N 0.39534 0.09716 0.27298
 C519 C 0.36826 0.06295 0.27358
 C520 C 0.35563 0.04897 0.28439
 C521 C 0.43876 0.11800 0.22838
 C522 C 0.45625 0.12765 0.21983
 C523 C 0.61547 0.07869 0.73887
 N524 N 0.60457 0.09706 0.72699
 N525 N 0.58767 0.11024 0.73784
 C526 C 0.58115 0.10545 0.76090
 N527 N 0.59213 0.08715 0.77282
 N528 N 0.60904 0.07397 0.76197
 C529 C 0.63171 0.06292 0.72640
 C530 C 0.64436 0.04895 0.71559
 C531 C 0.56123 0.11792 0.77166
 C532 C 0.54375 0.12756 0.78023
 C533 C 0.38426 0.92150 0.73935
 N534 N 0.39085 0.92636 0.76238
 N535 N 0.40777 0.91320 0.77323
 C536 C 0.41861 0.89478 0.76136
 N537 N 0.41194 0.88985 0.73837
 N538 N 0.39502 0.90301 0.72753
 C539 C 0.36800 0.93725 0.72685
 C540 C 0.35535 0.95119 0.71601
 C541 C 0.43855 0.88232 0.77210
 C542 C 0.45606 0.87268 0.78064
 C543 C 0.61577 0.92197 0.26100
 N544 N 0.60506 0.90340 0.27274
 N545 N 0.58819 0.89021 0.26183
 C546 C 0.58151 0.89521 0.23886
 N547 N 0.59231 0.91371 0.22708
 N548 N 0.60918 0.92689 0.23799
 C549 C 0.63199 0.93772 0.27357
 C550 C 0.64462 0.95166 0.28446
 C551 C 0.56161 0.88270 0.22805
 C552 C 0.54414 0.87304 0.21948
 C553 C 0.38459 0.26127 0.92119
 N554 N 0.39550 0.27315 0.90283
 N555 N 0.41246 0.26232 0.88971
 C556 C 0.41903 0.23928 0.89458
 N557 N 0.40805 0.22736 0.91287
 N558 N 0.39108 0.23820 0.92598
 C559 C 0.36829 0.27374 0.93691
 C560 C 0.35561 0.28457 0.95083
 C561 C 0.43900 0.22854 0.88216
 C562 C 0.45650 0.21998 0.87256
 C563 C 0.61555 0.73884 0.92116
 N564 N 0.60462 0.72698 0.90278
 N565 N 0.58764 0.73783 0.88969
 C566 C 0.58108 0.76086 0.89459
 N567 N 0.59209 0.77277 0.91288
 N568 N 0.60907 0.76192 0.92597
 C569 C 0.63185 0.72635 0.93685
 C570 C 0.64453 0.71551 0.95077
 C571 C 0.56109 0.77162 0.88221
 C572 C 0.54357 0.78018 0.87264
 C573 C 0.38493 0.73874 0.07885
 N574 N 0.39589 0.72693 0.09723
 N575 N 0.41284 0.73785 0.11031
 C576 C 0.41934 0.76090 0.10541
 N577 N 0.40829 0.77275 0.08710
 N578 N 0.39134 0.76183 0.07402
 C579 C 0.36862 0.72619 0.06318
 C580 C 0.35593 0.71531 0.04929
 C581 C 0.43929 0.77174 0.11779
 C582 C 0.45679 0.78037 0.12736
 C583 C 0.61553 0.26118 0.07879
 N584 N 0.60469 0.27304 0.09721
 N585 N 0.58773 0.26221 0.11033
 C586 C 0.58110 0.23919 0.10543
 N587 N 0.59202 0.22729 0.08708
 N588 N 0.60898 0.23813 0.07396
 C589 C 0.63183 0.27366 0.06307
 C590 C 0.64450 0.28449 0.04915
 C591 C 0.56113 0.22846 0.11785
 C592 C 0.54362 0.21991 0.12746
 C593 C 0.26033 0.07830 0.61576
 N594 N 0.23729 0.07345 0.60914
 N595 N 0.22645 0.08667 0.59227
 C596 C 0.23831 0.10513 0.58151
 N597 N 0.26131 0.11006 0.58822
 N598 N 0.27216 0.09684 0.60509
 C599 C 0.27283 0.06250 0.63196
 C600 C 0.28368 0.04852 0.64456
 C601 C 0.22758 0.11766 0.56162
 C602 C 0.21905 0.12733 0.54414
 C603 C 0.73897 0.07782 0.38416
 N604 N 0.72720 0.09639 0.39487
 N605 N 0.73813 0.10964 0.41167
 C606 C 0.76115 0.10473 0.41828
 N607 N 0.77296 0.08624 0.40750
 N608 N 0.76204 0.07299 0.39069
 C609 C 0.72640 0.06200 0.36803
 C610 C 0.71550 0.04799 0.35548
 C611 C 0.77197 0.11729 0.43813
 C612 C 0.78057 0.12699 0.45556
 C613 C 0.73938 0.92155 0.61571
 N614 N 0.76246 0.92634 0.60923
 N615 N 0.77335 0.91312 0.59238
 C616 C 0.76147 0.89471 0.58151
 N617 N 0.73843 0.88985 0.58809
 N618 N 0.72754 0.90307 0.60493
 C619 C 0.72685 0.93737 0.63187
 C620 C 0.71598 0.95136 0.64444
 C621 C 0.77225 0.88220 0.56163
 C622 C 0.78082 0.87255 0.54416
 C623 C 0.26079 0.92155 0.38442
 N624 N 0.23772 0.92631 0.39094
 N625 N 0.22686 0.91308 0.40780
 C626 C 0.23876 0.89469 0.41864
 N627 N 0.26180 0.88985 0.41203
 N628 N 0.27266 0.90308 0.39518
 C629 C 0.27329 0.93737 0.36824
 C630 C 0.28413 0.95138 0.35566
 C631 C 0.22801 0.88216 0.43852
 C632 C 0.21946 0.87247 0.45597
 C633 C 0.07835 0.38444 0.73895
 N634 N 0.09686 0.39524 0.72719
 N635 N 0.11004 0.41211 0.73811
 C636 C 0.10509 0.41870 0.76112
 N637 N 0.08665 0.40781 0.77292
 N638 N 0.07348 0.39095 0.76200
 C639 C 0.06258 0.36825 0.72637
 C640 C 0.04863 0.35565 0.71546
 C641 C 0.11757 0.43859 0.77194
 C642 C 0.12720 0.45606 0.78055
 C643 C 0.07864 0.61563 0.26084
 N644 N 0.07379 0.60906 0.23780
 N645 N 0.08695 0.59214 0.22696
 C646 C 0.10536 0.58128 0.23883
 N647 N 0.11029 0.58794 0.26182
 N648 N 0.09713 0.60486 0.27267
 C649 C 0.06288 0.63187 0.27334
 C650 C 0.04893 0.64448 0.28420
 C651 C 0.11781 0.56134 0.22809
 C652 C 0.12743 0.54383 0.21955
 C653 C 0.92127 0.38436 0.26089
 N654 N 0.90283 0.39518 0.27274
 N655 N 0.88968 0.41211 0.26191
 C656 C 0.89457 0.41873 0.23890
 N657 N 0.91293 0.40782 0.22701
 N658 N 0.92608 0.39089 0.23784
 C659 C 0.93703 0.36811 0.27338
 C660 C 0.95099 0.35549 0.28423
 C661 C 0.88212 0.43868 0.22816
 C662 C 0.87251 0.45618 0.21961
 C663 C 0.92130 0.61562 0.73898
 N664 N 0.90284 0.60481 0.72714
 N665 N 0.88966 0.58791 0.73799
 C666 C 0.89454 0.58131 0.76101
 N667 N 0.91293 0.59221 0.77289
 N668 N 0.92611 0.60911 0.76204
 C669 C 0.93709 0.63183 0.72648
 C670 C 0.95108 0.64442 0.71562
 C671 C 0.88208 0.56138 0.77176
 C672 C 0.87245 0.54388 0.78031
 C673 C 0.73903 0.61535 0.92241
 N674 N 0.76197 0.60853 0.92745
 N675 N 0.77286 0.59172 0.91417
 C676 C 0.76114 0.58122 0.89545
 N677 N 0.73825 0.58812 0.89034
 N678 N 0.72736 0.60493 0.90362
 C679 C 0.72648 0.63157 0.93818
 C680 C 0.71558 0.64422 0.95210
 C681 C 0.77192 0.56138 0.88280
 C682 C 0.78046 0.54395 0.87303
 C683 C 0.26087 0.38451 0.92252
 N684 N 0.27250 0.39491 0.90370
 N685 N 0.26157 0.41171 0.89044
 C686 C 0.23869 0.41862 0.89559
 N687 N 0.22702 0.40814 0.91434
 N688 N 0.23795 0.39134 0.92760
 C689 C 0.27347 0.36832 0.93829
 C690 C 0.28441 0.35570 0.95220
 C691 C 0.22789 0.43845 0.88296
 C692 C 0.21934 0.45588 0.87321
 C693 C 0.26129 0.61521 0.07780
 N694 N 0.23830 0.60848 0.07281
 N695 N 0.22738 0.59169 0.08607
 C696 C 0.23911 0.58111 0.10473
 N697 N 0.26205 0.58791 0.10979
 N698 N 0.27297 0.60471 0.09653
 C699 C 0.27387 0.63141 0.06202
 C700 C 0.28478 0.64404 0.04810
 C701 C 0.22829 0.56128 0.11736
 C702 C 0.21971 0.54385 0.12711
 C703 C 0.73904 0.38459 0.07762
 N704 N 0.76198 0.39143 0.07261
 N705 N 0.77285 0.40826 0.08588
 C706 C 0.76112 0.41877 0.10457
 N707 N 0.73822 0.41185 0.10966
 N708 N 0.72735 0.39502 0.09639
 C709 C 0.72650 0.36837 0.06183
 C710 C 0.71560 0.35572 0.04790
 C711 C 0.77186 0.43862 0.11721
 C712 C 0.78040 0.45608 0.12698
 C713 C 0.92281 0.73881 0.61552
 N714 N 0.92789 0.76172 0.60867
 N715 N 0.91459 0.77263 0.59190
 C716 C 0.89580 0.76096 0.58146
 N717 N 0.89065 0.73809 0.58839
 N718 N 0.90395 0.72718 0.60516
 C719 C 0.93862 0.72623 0.63170
 C720 C 0.95255 0.71530 0.64431
 C721 C 0.88312 0.77174 0.56166
 C722 C 0.87333 0.78029 0.54423
 C723 C 0.92258 0.26086 0.38407
 N724 N 0.90367 0.27245 0.39435
 N725 N 0.89035 0.26152 0.41110
 C726 C 0.89553 0.23867 0.41807
 N727 N 0.91438 0.22705 0.40771
 N728 N 0.92770 0.23797 0.39097
 C729 C 0.93841 0.27347 0.36794
 C730 C 0.95235 0.28442 0.35537
 C731 C 0.88284 0.22789 0.43787
 C732 C 0.87305 0.21936 0.45530
 C733 C 0.07712 0.26121 0.61539
 N734 N 0.07206 0.23828 0.60855
 N735 N 0.08538 0.22737 0.59179
 C736 C 0.10416 0.23904 0.58136
 N737 N 0.10929 0.26193 0.58828
 N738 N 0.09597 0.27284 0.60504
 C739 C 0.06130 0.27379 0.63154
 C740 C 0.04734 0.28472 0.64413
 C741 C 0.11685 0.22825 0.56157
 C742 C 0.12666 0.21970 0.54416
 C743 C 0.07748 0.73887 0.38426
 N744 N 0.07244 0.76177 0.39117
 N745 N 0.08575 0.77263 0.40797
 C746 C 0.10452 0.76091 0.41838
 N747 N 0.10963 0.73805 0.41139
 N748 N 0.09632 0.72720 0.39459
 C749 C 0.06164 0.72633 0.36807
 C750 C 0.04768 0.71543 0.35546
 C751 C 0.11721 0.77163 0.43822
 C752 C 0.12700 0.78013 0.45567
 C753 C 0.61503 0.92231 0.73950
 N754 N 0.60471 0.90344 0.72785
 N755 N 0.58786 0.89018 0.73868
 C756 C 0.58080 0.89537 0.76150
 N757 N 0.59119 0.91417 0.77319
 N758 N 0.60805 0.92744 0.76235
 C759 C 0.63130 0.93806 0.72699
 C760 C 0.64400 0.95194 0.71610
 C761 C 0.56094 0.88271 0.77221
 C762 C 0.54349 0.87291 0.78071
 C763 C 0.38512 0.92237 0.26060
 N764 N 0.39204 0.92746 0.23772
 N765 N 0.40891 0.91423 0.22688
 C766 C 0.41937 0.89549 0.23858
 N767 N 0.41237 0.89033 0.26142
 N768 N 0.39550 0.90356 0.27226
 C769 C 0.36883 0.93811 0.27311
 C770 C 0.35611 0.95198 0.28399
 C771 C 0.43924 0.88286 0.22786
 C772 C 0.45671 0.87310 0.21935
 C773 C 0.61526 0.07830 0.26108
 N774 N 0.60845 0.07331 0.23813
 N775 N 0.59158 0.08656 0.22729
 C776 C 0.58101 0.10520 0.23906
 N777 N 0.58790 0.11026 0.26196
 N778 N 0.60476 0.09701 0.27280
 C779 C 0.63154 0.06255 0.27358
 C780 C 0.64424 0.04865 0.28443
 C781 C 0.56114 0.11782 0.22832
 C782 C 0.54368 0.12757 0.21979
 C783 C 0.38464 0.07793 0.73953
 N784 N 0.39496 0.09673 0.72780
 N785 N 0.41185 0.11002 0.73857
 C786 C 0.41893 0.10491 0.76140
 N787 N 0.40853 0.08617 0.77317
 N788 N 0.39164 0.07289 0.76240
 C789 C 0.36834 0.06213 0.72708
 C790 C 0.35564 0.04821 0.71624
 C791 C 0.43884 0.11757 0.77203
 C792 C 0.45632 0.12737 0.78048
 C793 C 0.61556 0.73942 0.07745
 N794 N 0.60531 0.72780 0.09637
 N795 N 0.58853 0.73867 0.10968
 C796 C 0.58147 0.76150 0.10449
 N797 N 0.59180 0.77316 0.08565
 N798 N 0.60858 0.76228 0.07234
 C799 C 0.63175 0.72686 0.06165
 C800 C 0.64438 0.71595 0.04773
 C801 C 0.56165 0.77223 0.11720
 C802 C 0.54422 0.78074 0.12701
 C803 C 0.38478 0.26082 0.07753
 N804 N 0.39502 0.27247 0.09643
 N805 N 0.41184 0.26164 0.10974
 C806 C 0.41892 0.23882 0.10458
 N807 N 0.40859 0.22712 0.08575
 N808 N 0.39178 0.23795 0.07243
 C809 C 0.36855 0.27332 0.06173
 C810 C 0.35588 0.28420 0.04781
 C811 C 0.43875 0.22812 0.11729
 C812 C 0.45619 0.21964 0.12713
 C813 C 0.61543 0.26080 0.92239
 N814 N 0.60844 0.23793 0.92744
 N815 N 0.59160 0.22711 0.91412
 C816 C 0.58125 0.23884 0.89533
 N817 N 0.58833 0.26168 0.89021
 N818 N 0.60516 0.27249 0.90353
 C819 C 0.63167 0.27329 0.93821
 C820 C 0.64432 0.28416 0.95215
 C821 C 0.56139 0.22817 0.88263
 C822 C 0.54394 0.21970 0.87281
 C823 C 0.38482 0.73900 0.92259
 N824 N 0.39514 0.72734 0.90375
 N825 N 0.41193 0.73821 0.89043
 C826 C 0.41890 0.76108 0.89554
 N827 N 0.40850 0.77279 0.91431
 N828 N 0.39172 0.76192 0.92763
 C829 C 0.36862 0.72646 0.93840
 C830 C 0.35599 0.71557 0.95233
 C831 C 0.43871 0.77183 0.88283
 C832 C 0.45614 0.78036 0.87301
 C833 C 0.73979 0.92222 0.38534
 N834 N 0.72809 0.90340 0.39567
 N835 N 0.73893 0.89011 0.41250
 C836 C 0.76179 0.89524 0.41951
 N837 N 0.77353 0.91399 0.40910
 N838 N 0.76269 0.92727 0.39227
 C839 C 0.72728 0.93800 0.36909
 C840 C 0.71641 0.95192 0.35642
 C841 C 0.77251 0.88256 0.43936
 C842 C 0.78101 0.87277 0.45680
 C843 C 0.26023 0.92183 0.61507
 N844 N 0.23735 0.92689 0.60808
 N845 N 0.22656 0.91364 0.59118
 C846 C 0.23834 0.89493 0.58074
 N847 N 0.26118 0.88980 0.58781
 N848 N 0.27196 0.90304 0.60471
 C849 C 0.27269 0.93759 0.63138
 C850 C 0.28354 0.95149 0.64410
 C851 C 0.22769 0.88230 0.56083
 C852 C 0.21923 0.87253 0.54335
 C853 C 0.26034 0.07797 0.38524
 N854 N 0.23745 0.07285 0.39215
 N855 N 0.22659 0.08607 0.40901
 C856 C 0.23828 0.10484 0.41946
 N857 N 0.26113 0.11003 0.41247
 N858 N 0.27200 0.09680 0.39562
 C859 C 0.27288 0.06225 0.36895
 C860 C 0.28378 0.04839 0.35624
 C861 C 0.22754 0.11746 0.43932
 C862 C 0.21901 0.12722 0.45677
 C863 C 0.73957 0.07790 0.61463
 N864 N 0.76246 0.07279 0.60769
 N865 N 0.77329 0.08599 0.59079
 C866 C 0.76157 0.10471 0.58031
 N867 N 0.73872 0.10989 0.58733
 N868 N 0.72789 0.09669 0.60422
 C869 C 0.72707 0.06221 0.63096
 C870 C 0.71619 0.04836 0.64370
 C871 C 0.77228 0.11730 0.56041
 C872 C 0.78077 0.12703 0.54294
 C873 C 0.92219 0.61511 0.26064
 N874 N 0.90337 0.60474 0.27231
 N875 N 0.89010 0.58789 0.26147
 C876 C 0.89523 0.58089 0.23862
 N877 N 0.91399 0.59133 0.22691
 N878 N 0.92726 0.60818 0.23775
 C879 C 0.93797 0.63137 0.27315
 C880 C 0.95188 0.64405 0.28403
 C881 C 0.88257 0.56103 0.22790
 C882 C 0.87278 0.54358 0.21940
 C883 C 0.92196 0.38507 0.73897
 N884 N 0.92702 0.39188 0.76190
 N885 N 0.91377 0.40870 0.77279
 C886 C 0.89505 0.41922 0.76110
 N887 N 0.88992 0.41232 0.73821
 N888 N 0.90317 0.39551 0.72732
 C889 C 0.93772 0.36882 0.72641
 C890 C 0.95161 0.35615 0.71551
 C891 C 0.88241 0.43905 0.77189
 C892 C 0.87265 0.45649 0.78045
 C893 C 0.07773 0.61490 0.73939
 N894 N 0.07259 0.60800 0.76227
 N895 N 0.08584 0.59118 0.77317
 C896 C 0.10464 0.58075 0.76153
 N897 N 0.10984 0.58773 0.73869
 N898 N 0.09659 0.60455 0.72779
 C899 C 0.06199 0.63115 0.72682
 C900 C 0.04811 0.64383 0.71590
 C901 C 0.11727 0.56091 0.77230
 C902 C 0.12703 0.54346 0.78083
 C903 C 0.07768 0.38500 0.26067
 N904 N 0.07260 0.39190 0.23778
 N905 N 0.08588 0.40872 0.22692
 C906 C 0.10465 0.41917 0.23861
 N907 N 0.10980 0.41219 0.26147
 N908 N 0.09652 0.39537 0.27233
 C909 C 0.06192 0.36874 0.27319
 C910 C 0.04802 0.35605 0.28407
 C911 C 0.11733 0.43900 0.22787
 C912 C 0.12713 0.45643 0.21935
   
