data_POSCAR
  _audit_creation_date              2014-09-24
  _audit_creation_method            'ToBaCCo'
  _symmetry_space_group_name_H-M    'P1'
  _symmetry_Int_Tables_number       1
  _symmetry_cell_setting            triclinic
  loop_
  _symmetry_equiv_pos_as_xyz
 x,y,z
_cell_length_a 37.0604
_cell_length_b 36.9561
_cell_length_c 36.7483
_cell_angle_alpha 89.985400
_cell_angle_beta 89.996300
_cell_angle_gamma 89.985600
loop_
  _atom_site_label
  _atom_site_type_symbol
  _atom_site_fract_x
  _atom_site_fract_y
  _atom_site_fract_z
N1 N 0.16090 1.23661 0.13562
 N2 N 0.13583 1.23612 0.16088
 C3 C 0.11306 1.26401 0.15532
 C4 C 0.12452 1.28331 0.12492
 C5 C 0.15508 1.26480 0.11325
 H6 H 0.09007 1.26976 0.17239
 H7 H 0.17210 1.27115 0.09028
 Cu8 Cu 0.13608 1.19934 0.19886
 Cu9 Cu 0.19955 1.20088 0.13336
 Cu10 Cu 0.19620 1.13170 0.19680
 N11 N 0.13621 1.16165 0.23602
 N12 N 0.16024 1.13554 0.23525
 C13 C 0.15451 1.11307 0.26343
 C14 C 0.12507 1.12557 0.28324
 C15 C 0.11424 1.15662 0.26478
 H16 H 0.17068 1.08935 0.26871
 H17 H 0.09194 1.17421 0.27142
 N18 N 0.23468 1.13559 0.16005
 N19 N 0.23586 1.16192 0.13583
 C20 C 0.26476 1.15695 0.11421
 C21 C 0.28281 1.12598 0.12527
 C22 C 0.26288 1.11326 0.15453
 H23 H 0.27201 1.17463 0.09197
 H24 H 0.26820 1.08930 0.17047
 H25 H 0.16920 1.16093 0.15649
 H26 H 0.19950 1.18685 0.18781
 N27 N 0.83857 0.76376 0.13633
 N28 N 0.86335 0.76396 0.16189
 C29 C 0.88597 0.73592 0.15652
 C30 C 0.87473 0.71697 0.12592
 C31 C 0.84449 0.73562 0.11392
 H32 H 0.90887 0.72986 0.17362
 H33 H 0.82791 0.72941 0.09058
 Cu34 Cu 0.86357 0.80134 0.19918
 Cu35 Cu 0.80031 0.79990 0.13379
 Cu36 Cu 0.80066 0.86654 0.20040
 N37 N 0.86378 0.83875 0.23649
 N38 N 0.83903 0.86418 0.23663
 C39 C 0.84504 0.88664 0.26475
 C40 C 0.87541 0.87486 0.28353
 C41 C 0.88655 0.84426 0.26451
 H42 H 0.82839 0.90986 0.27071
 H43 H 0.90939 0.82713 0.27050
 N44 N 0.76416 0.86417 0.16143
 N45 N 0.76400 0.83888 0.13610
 C46 C 0.73578 0.84459 0.11371
 C47 C 0.71715 0.87496 0.12546
 C48 C 0.73607 0.88659 0.15582
 H49 H 0.72942 0.82787 0.09048
 H50 H 0.72979 0.90955 0.17283
 H51 H 0.82873 0.84080 0.15920
 H52 H 0.79949 0.81193 0.18861
 N53 N 0.83864 1.23594 -0.13626
 N54 N 0.86343 1.23578 -0.16181
 C55 C 0.88605 1.26377 -0.15638
 C56 C 0.87483 1.28266 -0.12572
 C57 C 0.84459 1.26401 -0.11378
 H58 H 0.90897 1.26986 -0.17347
 H59 H 0.82801 1.27015 -0.09040
 Cu60 Cu 0.86356 1.19847 -0.19920
 Cu61 Cu 0.80037 1.19984 -0.13379
 Cu62 Cu 0.80063 1.13331 -0.20049
 N63 N 0.86369 1.16115 -0.23660
 N64 N 0.83896 1.13571 -0.23674
 C65 C 0.84495 1.11331 -0.26492
 C66 C 0.87525 1.12516 -0.28375
 C67 C 0.88638 1.15573 -0.26470
 H68 H 0.82830 1.09009 -0.27089
 H69 H 0.90919 1.17290 -0.27070
 N70 N 0.76416 1.13565 -0.16147
 N71 N 0.76403 1.16091 -0.13612
 C72 C 0.73583 1.15524 -0.11373
 C73 C 0.71714 1.12492 -0.12549
 C74 C 0.73604 1.11328 -0.15587
 H75 H 0.72950 1.17196 -0.09049
 H76 H 0.72972 1.09034 -0.17290
 H77 H 0.82876 1.15894 -0.15930
 H78 H 0.79950 1.18787 -0.18863
 N79 N 0.16078 0.76439 -0.13562
 N80 N 0.13554 0.76508 -0.16070
 C81 C 0.11297 0.73700 -0.15536
 C82 C 0.12468 0.71758 -0.12522
 C83 C 0.15515 0.73599 -0.11349
 H84 H 0.08994 0.73108 -0.17232
 H85 H 0.17217 0.72934 -0.09058
 Cu86 Cu 0.13554 0.80236 -0.19814
 Cu87 Cu 0.19940 0.80013 -0.13349
 Cu88 Cu 0.19965 0.86638 -0.20052
 N89 N 0.13554 0.83965 -0.23558
 N90 N 0.16108 0.86425 -0.23658
 C91 C 0.15556 0.88620 -0.26521
 C92 C 0.12467 0.87496 -0.28345
 C93 C 0.11274 0.84520 -0.26359
 H94 H 0.17283 0.90878 -0.27186
 H95 H 0.08950 0.82850 -0.26913
 N96 N 0.23620 0.86387 -0.16156
 N97 N 0.23608 0.83870 -0.13610
 C98 C 0.26418 0.84430 -0.11360
 C99 C 0.28304 0.87453 -0.12533
 C100 C 0.26438 0.88616 -0.15586
 H101 H 0.27047 0.82745 -0.09044
 H102 H 0.27063 0.90933 -0.17263
 H103 H 0.17162 0.84140 -0.15900
 H104 H 0.19997 0.81176 -0.18849
 Si105 Si 0.49986 1.00019 0.00019
 Si106 Si 0.00033 0.49966 1.00041
 Si107 Si 1.00040 0.00027 0.49979
 C108 C 0.07792 0.37711 1.07854
 C109 C 0.06200 0.36147 1.10938
 C110 C 0.07757 0.33043 1.12479
 C111 C 0.10893 0.31470 1.10952
 C112 C 0.12436 0.33109 1.07839
 C113 C 0.10896 0.36209 1.06284
 C114 C 0.06131 0.40939 1.06188
 C115 C 0.07667 0.42436 1.03034
 C116 C 0.05969 0.45383 1.01348
 C117 C 0.02779 0.46827 1.02813
 C118 C 0.01293 0.45338 1.05994
 C119 C 0.02963 0.42385 1.07701
 C120 C 0.12383 0.37814 1.03157
 C121 C 0.10791 0.40870 1.01555
 C122 C 0.03055 0.37699 1.12401
 C123 C 0.01460 0.40761 1.10806
 H124 H 0.14779 0.36674 1.01918
 H125 H 0.11995 0.41993 0.99116
 H126 H 0.01793 0.36517 1.14780
 H127 H -0.00991 0.41844 1.11988
 H128 H 0.06486 0.31868 1.14849
 H129 H 0.14824 0.31991 1.06576
 H130 H 0.07033 0.46442 0.98815
 H131 H -0.01243 0.46365 1.07042
 C132 C -0.07746 0.62207 1.07849
 C133 C -0.06158 0.63771 1.10937
 C134 C -0.07729 0.66865 1.12482
 C135 C -0.10868 0.68409 1.10957
 C136 C -0.12410 0.66792 1.07844
 C137 C -0.10858 0.63702 1.06280
 C138 C -0.06075 0.58987 1.06182
 C139 C -0.07609 0.57485 1.03030
 C140 C -0.05907 0.54539 1.01350
 C141 C -0.02712 0.53106 1.02813
 C142 C -0.01224 0.54602 1.05989
 C143 C -0.02901 0.57551 1.07693
 C144 C -0.12338 0.62097 1.03152
 C145 C -0.10737 0.59046 1.01550
 C146 C -0.03006 0.62231 1.12396
 C147 C -0.01402 0.59177 1.10798
 H148 H -0.14736 0.63234 1.01910
 H149 H -0.11936 0.57921 0.99112
 H150 H -0.01749 0.63419 1.14774
 H151 H 0.01053 0.58103 1.11979
 H152 H -0.06481 0.68061 1.14855
 H153 H -0.14806 0.67925 1.06610
 H154 H -0.06975 0.53471 0.98823
 H155 H 0.01314 0.53579 1.07035
 C156 C -0.07733 0.37733 0.92208
 C157 C -0.10840 0.36228 0.93778
 C158 C -0.12392 0.33145 0.92200
 C159 C -0.10856 0.31545 0.89075
 C160 C -0.07723 0.33099 0.87550
 C161 C -0.06151 0.36186 0.89108
 C162 C -0.06062 0.40945 0.93889
 C163 C -0.02896 0.42394 0.92375
 C164 C -0.01223 0.45340 0.94086
 C165 C -0.02705 0.46818 0.97274
 C166 C -0.05890 0.45370 0.98742
 C167 C -0.07590 0.42428 0.97053
 C168 C -0.03005 0.37737 0.87648
 C169 C -0.01402 0.40785 0.89257
 C170 C -0.12315 0.37815 0.96918
 C171 C -0.10713 0.40858 0.98533
 H172 H -0.01753 0.36563 0.85261
 H173 H 0.01048 0.41869 0.88074
 H174 H -0.14709 0.36670 0.98158
 H175 H -0.11908 0.41969 1.00980
 H176 H -0.14785 0.32005 0.93435
 H177 H -0.06480 0.31916 0.85167
 H178 H 0.01308 0.46375 0.93035
 H179 H -0.06953 0.46423 1.01278
 C180 C 0.07748 0.62221 0.92188
 C181 C 0.06086 0.63855 0.89177
 C182 C 0.07642 0.66959 0.87636
 C183 C 0.10839 0.68445 0.89091
 C184 C 0.12461 0.66752 0.92123
 C185 C 0.10924 0.63653 0.93684
 C186 C 0.06087 0.58998 0.93860
 C187 C 0.07693 0.57432 0.96945
 C188 C 0.06001 0.54487 0.98639
 C189 C 0.02747 0.53116 0.97250
 C190 C 0.01189 0.54675 0.94139
 C191 C 0.02853 0.57626 0.92426
 C192 C 0.12479 0.61980 0.96739
 C193 C 0.10886 0.58928 0.98348
 C194 C 0.02874 0.62375 0.87791
 C195 C 0.01282 0.59317 0.89392
 H196 H 0.14928 0.63066 0.97921
 H197 H 0.12142 0.57752 1.00733
 H198 H 0.01561 0.63615 0.85471
 H199 H -0.01221 0.58293 0.88272
 H200 H 0.06333 0.68213 0.85326
 H201 H 0.14908 0.67835 0.93299
 H202 H 0.07124 0.53376 1.01122
 H203 H -0.01390 0.53698 0.93153
 C204 C 1.07844 0.07844 0.37701
 C205 C 1.06386 0.11054 0.36294
 C206 C 1.07947 0.12622 0.33191
 C207 C 1.10955 0.11000 0.31468
 C208 C 1.12364 0.07762 0.32951
 C209 C 1.10818 0.06176 0.36045
 C210 C 1.06179 0.06152 0.40929
 C211 C 1.07578 0.02880 0.42269
 C212 C 1.05875 0.01188 0.45220
 C213 C 1.02814 0.02759 0.46822
 C214 C 1.01459 0.06051 0.45485
 C215 C 1.03140 0.07769 0.42532
 C216 C 1.12168 0.02925 0.37491
 C217 C 1.10570 0.01301 0.40545
 C218 C 1.03367 0.12615 0.38000
 C219 C 1.01768 0.10997 0.41061
 H220 H 1.14458 0.01606 0.36227
 H221 H 1.11665 -0.01231 0.41541
 H222 H 1.02207 0.15091 0.36939
 H223 H 0.99416 0.12263 0.42264
 H224 H 1.06780 0.15091 0.32139
 H225 H 1.14645 0.06421 0.31710
 H226 H 1.06832 -0.01419 0.46167
 H227 H 0.99011 0.07185 0.46628
 C228 C 1.07766 -0.07855 0.62264
 C229 C 1.11021 -0.06463 0.63609
 C230 C 1.12574 -0.08020 0.66718
 C231 C 1.10902 -0.10967 0.68507
 C232 C 1.07623 -0.12322 0.67085
 C233 C 1.06044 -0.10768 0.63985
 C234 C 1.06087 -0.06177 0.59036
 C235 C 1.02769 -0.07499 0.57760
 C236 C 1.01096 -0.05778 0.54807
 C237 C 1.02728 -0.02771 0.53150
 C238 C 1.06068 -0.01499 0.54419
 C239 C 1.07767 -0.03198 0.57370
 C240 C 1.02747 -0.12045 0.62597
 C241 C 1.01133 -0.10432 0.59544
 C242 C 1.12647 -0.03511 0.61839
 C243 C 1.11045 -0.01904 0.58776
 H244 H 1.01382 -0.14286 0.63908
 H245 H 0.98565 -0.11466 0.58596
 H246 H 1.15163 -0.02410 0.62852
 H247 H 1.12363 0.00397 0.57524
 H248 H 1.15085 -0.06907 0.67708
 H249 H 1.06243 -0.14552 0.68387
 H250 H 0.98461 -0.06677 0.53899
 H251 H 1.07256 0.00904 0.53225
 C252 C 0.92268 -0.07810 0.37701
 C253 C 0.93868 -0.10871 0.36127
 C254 C 0.92290 -0.12434 0.33032
 C255 C 0.89125 -0.10950 0.31478
 C256 C 0.87579 -0.07853 0.33120
 C257 C 0.89136 -0.06281 0.36215
 C258 C 0.93946 -0.06127 0.40925
 C259 C 0.92394 -0.03002 0.42438
 C260 C 0.94100 -0.01308 0.45386
 C261 C 0.97311 -0.02736 0.46814
 C262 C 0.98815 -0.05888 0.45311
 C263 C 0.97139 -0.07600 0.42355
 C264 C 0.87636 -0.03180 0.37834
 C265 C 0.89242 -0.01564 0.40888
 C266 C 0.97044 -0.12290 0.37660
 C267 C 0.98654 -0.10679 0.40716
 H268 H 0.85218 -0.01970 0.36707
 H269 H 0.88024 0.00850 0.42023
 H270 H 0.98315 -0.14648 0.36464
 H271 H 1.01126 -0.11831 0.41782
 H272 H 0.93570 -0.14785 0.31848
 H273 H 0.85165 -0.06629 0.32019
 H274 H 0.93020 0.01199 0.46462
 H275 H 1.01362 -0.06909 0.46336
 C276 C 0.92244 0.07841 0.62258
 C277 C 0.89133 0.06286 0.63763
 C278 C 0.87578 0.07849 0.66865
 C279 C 0.89105 0.10961 0.68494
 C280 C 0.92248 0.12470 0.66921
 C281 C 0.93825 0.10917 0.63820
 C282 C 0.93923 0.06167 0.59029
 C283 C 0.97102 0.07659 0.57590
 C284 C 0.98788 0.05948 0.54638
 C285 C 0.97295 0.02794 0.53131
 C286 C 0.94095 0.01349 0.54569
 C287 C 0.92390 0.03030 0.57525
 C288 C 0.96981 0.12361 0.62272
 C289 C 0.98596 0.10754 0.59215
 C290 C 0.87655 0.03170 0.62156
 C291 C 0.89258 0.01567 0.59093
 H292 H 0.98236 0.14731 0.63457
 H293 H 1.01054 0.11923 0.58139
 H294 H 0.85255 0.01938 0.63299
 H295 H 0.88058 -0.00860 0.57969
 H296 H 0.85183 0.06603 0.67982
 H297 H 0.93511 0.14836 0.68093
 H298 H 1.01334 0.06976 0.53619
 H299 H 0.93027 -0.01165 0.53497
 C300 C 0.37767 1.07868 0.07772
 C301 C 0.36106 1.10823 0.06058
 C302 C 0.33022 1.12367 0.07630
 C303 C 0.31578 1.10972 0.10895
 C304 C 0.33289 1.07992 0.12568
 C305 C 0.36376 1.06428 0.11014
 C306 C 0.40979 1.06199 0.06098
 C307 C 0.42586 1.03180 0.07764
 C308 C 0.45534 1.01498 0.06068
 C309 C 0.46848 1.02821 0.02738
 C310 C 0.45236 1.05858 0.01115
 C311 C 0.42300 1.07571 0.02792
 C312 C 0.38078 1.03428 0.12619
 C313 C 0.41127 1.01828 0.11019
 C314 C 0.37537 1.12151 0.02778
 C315 C 0.40577 1.10546 0.01168
 H316 H 0.37020 1.02284 0.15115
 H317 H 0.42328 0.99488 0.12319
 H318 H 0.36272 1.14426 0.01426
 H319 H 0.41564 1.11620 -0.01388
 H320 H 0.31741 1.14625 0.06271
 H321 H 0.32238 1.06873 0.15073
 H322 H 0.46689 0.99071 0.07246
 H323 H 0.46164 1.06791 -0.01521
 C324 C 0.62216 1.07735 -0.07849
 C325 C 0.63504 1.11036 -0.06487
 C326 C 0.66598 1.12589 -0.08039
 C327 C 0.68419 1.10854 -0.10926
 C328 C 0.67077 1.07530 -0.12243
 C329 C 0.63985 1.05961 -0.10714
 C330 C 0.58999 1.06061 -0.06190
 C331 C 0.57777 1.02702 -0.07484
 C332 C 0.54835 1.01034 -0.05774
 C333 C 0.53127 1.02710 -0.02808
 C334 C 0.54345 1.06089 -0.01563
 C335 C 0.57289 1.07784 -0.03251
 C336 C 0.62651 1.02627 -0.11967
 C337 C 0.59603 1.01022 -0.10374
 C338 C 0.61695 1.12702 -0.03574
 C339 C 0.58644 1.11100 -0.01978
 H340 H 0.63998 1.01229 -0.14173
 H341 H 0.58692 0.98425 -0.11386
 H342 H 0.62669 1.15248 -0.02493
 H343 H 0.57360 1.12448 0.00297
 H344 H 0.67568 1.15142 -0.06983
 H345 H 0.68441 1.06127 -0.14430
 H346 H 0.53976 0.98366 -0.06644
 H347 H 0.53121 1.07312 0.00816
 C348 C 0.37771 0.92166 -0.07728
 C349 C 0.36500 0.93495 -0.11066
 C350 C 0.33415 0.91941 -0.12632
 C351 C 0.31586 0.89083 -0.10876
 C352 C 0.32907 0.87801 -0.07512
 C353 C 0.35991 0.89334 -0.05929
 C354 C 0.40982 0.93826 -0.06043
 C355 C 0.42186 0.92564 -0.02650
 C356 C 0.45123 0.94271 -0.00973
 C357 C 0.46843 0.97203 -0.02675
 C358 C 0.45648 0.98414 -0.06092
 C359 C 0.42706 0.96730 -0.07794
 C360 C 0.37306 0.88114 -0.02559
 C361 C 0.40348 0.89706 -0.00944
 C362 C 0.38321 0.96376 -0.12757
 C363 C 0.41368 0.97970 -0.11146
 H364 H 0.35951 0.85932 -0.01142
 H365 H 0.41246 0.88719 0.01680
 H366 H 0.37361 0.97432 -0.15331
 H367 H 0.42663 1.00218 -0.12515
 H368 H 0.32460 0.92971 -0.15214
 H369 H 0.31534 0.85639 -0.06090
 H370 H 0.45971 0.93422 0.01719
 H371 H 0.46888 1.00763 -0.07339
 C372 C 0.62218 0.92277 0.07858
 C373 C 0.64000 0.94051 0.10714
 C374 C 0.67092 0.92474 0.12237
 C375 C 0.68421 0.89142 0.10924
 C376 C 0.66587 0.87408 0.08046
 C377 C 0.63494 0.88968 0.06499
 C378 C 0.59000 0.93959 0.06206
 C379 C 0.57276 0.92234 0.03277
 C380 C 0.54329 0.93935 0.01597
 C381 C 0.53129 0.97324 0.02838
 C382 C 0.54847 0.98998 0.05796
 C383 C 0.57791 0.97323 0.07498
 C384 C 0.61669 0.87303 0.03595
 C385 C 0.58618 0.88912 0.02007
 C386 C 0.62680 0.97391 0.11964
 C387 C 0.59632 0.99003 0.10379
 H388 H 0.62633 0.84752 0.02516
 H389 H 0.57322 0.87563 -0.00260
 H390 H 0.64038 0.98789 0.14163
 H391 H 0.58731 1.01605 0.11389
 H392 H 0.68465 0.93878 0.14416
 H393 H 0.67548 0.84849 0.06993
 H394 H 0.53090 0.92710 -0.00772
 H395 H 0.53996 1.01668 0.06667
   
