data_POSCAR
  _audit_creation_date              2014-09-24
  _audit_creation_method            'ToBaCCo'
  _symmetry_space_group_name_H-M    'P1'
  _symmetry_Int_Tables_number       1
  _symmetry_cell_setting            triclinic
  loop_
  _symmetry_equiv_pos_as_xyz
 x,y,z
_cell_length_a 24.3004
_cell_length_b 24.3013
_cell_length_c 24.3228
_cell_angle_alpha 78.872800
_cell_angle_beta 101.254400
_cell_angle_gamma 78.309200
loop_
  _atom_site_label
  _atom_site_type_symbol
  _atom_site_fract_x
  _atom_site_fract_y
  _atom_site_fract_z
O1 O 0.58433 0.48638 0.05585
 O2 O 0.42736 0.50406 0.03863
 O3 O 0.51497 0.41659 0.05636
 O4 O 0.49645 0.57398 0.03636
 O5 O 0.48396 0.58474 -0.05800
 O6 O 0.50281 0.42759 -0.03800
 O7 O 0.41486 0.51472 -0.05570
 O8 O 0.57206 0.49736 -0.03851
 Cu9 Cu 0.50696 0.49423 0.05630
 Cu10 Cu 0.49223 0.50712 -0.05706
 C11 C 0.60455 0.48989 0.01137
 C12 C 0.39475 0.51137 -0.01111
 C13 C 0.51104 0.39573 0.01221
 C14 C 0.48807 0.60574 -0.01398
 O15 O -0.05408 0.58335 0.48872
 O16 O -0.03603 0.42604 0.50785
 O17 O -0.03543 0.49680 0.57654
 O18 O -0.05467 0.51263 0.41992
 O19 O 0.03996 0.50000 0.43125
 O20 O 0.05921 0.48410 0.58791
 O21 O 0.05860 0.41325 0.51911
 O22 O 0.04053 0.57072 0.50005
 Cu23 Cu -0.05457 0.50590 0.49720
 Cu24 Cu 0.05911 0.49078 0.51066
 C25 C -0.00962 0.60350 0.49201
 C26 C 0.01406 0.39321 0.51582
 C27 C 0.01486 0.48874 0.60848
 C28 C -0.01034 0.50814 0.39929
 O29 O 0.49906 0.04080 0.56871
 O30 O 0.48453 0.05740 0.41229
 O31 O 0.41285 0.05946 0.48016
 O32 O 0.57064 0.03875 0.50091
 O33 O 0.58199 -0.05582 0.51329
 O34 O 0.42440 -0.03512 0.49242
 O35 O 0.49598 -0.03718 0.42468
 O36 O 0.51040 -0.05374 0.58107
 Cu37 Cu 0.49067 0.05863 0.48931
 Cu38 Cu 0.50426 -0.05497 0.50402
 C39 C 0.50634 -0.00903 0.60117
 C40 C 0.48872 0.01266 0.39225
 C41 C 0.39215 0.01536 0.48373
 C42 C 0.60282 -0.01182 0.50980
 C43 C 0.49734 -0.00731 -0.06048
 C44 C 0.50126 -0.05430 -0.01422
 C45 C 0.50347 -0.04499 0.04127
 C46 C 0.50157 0.00996 0.05195
 C47 C 0.49799 0.05691 0.00579
 C48 C 0.49562 0.04765 -0.04975
 H49 H 0.49422 0.08344 -0.08485
 H50 H 0.50483 -0.08076 0.07637
 C51 C -0.00795 0.49840 1.05893
 C52 C -0.05435 0.50223 1.01198
 C53 C -0.04393 0.50458 0.95695
 C54 C 0.01147 0.50287 0.94750
 C55 C 0.05782 0.49935 0.99433
 C56 C 0.04745 0.49688 1.04942
 H57 H 0.08268 0.49552 1.08514
 H58 H -0.07914 0.50588 0.92122
 C59 C 0.05341 0.00890 0.49766
 C60 C 0.00887 0.05290 0.50391
 C61 C -0.04442 0.04087 0.50831
 C62 C -0.05486 -0.01341 0.50559
 C63 C -0.01106 -0.05667 0.49701
 C64 C 0.04259 -0.04499 0.49374
 H65 H 0.07665 -0.07850 0.48831
 H66 H -0.07844 0.07441 0.51375
 C67 C -0.22699 0.49412 1.02156
 C68 C -0.21769 0.54060 0.98369
 C69 C -0.16138 0.54414 0.98213
 C70 C -0.33521 0.48825 1.01705
 C71 C -0.12303 0.45536 1.05755
 C72 C -0.17956 0.45183 1.05902
 C73 C -0.28539 0.48968 1.02025
 C74 C -0.11355 0.50130 1.01862
 H75 H -0.25404 0.57361 0.95459
 H76 H -0.15503 0.57983 0.95175
 H77 H -0.08679 0.42141 1.08543
 H78 H -0.18626 0.41564 1.08846
 C79 C 0.22984 0.50747 0.98179
 C80 C 0.18205 0.54952 0.94465
 C81 C 0.12577 0.54616 0.94743
 C82 C 0.33781 0.51292 0.98396
 C83 C 0.16505 0.45814 1.02370
 C84 C 0.22113 0.46152 1.02085
 C85 C 0.28806 0.51168 0.98163
 C86 C 0.11687 0.50062 0.98733
 H87 H 0.18829 0.58535 0.91436
 H88 H 0.08926 0.57985 0.91960
 H89 H 0.15917 0.42273 1.05479
 H90 H 0.25777 0.42873 1.04977
 C91 C -0.02235 -0.22882 0.48794
 C92 C -0.03520 -0.20746 0.53476
 C93 C -0.03334 -0.15074 0.53713
 C94 C -0.01543 -0.33912 0.48886
 C95 C -0.00704 -0.13621 0.44521
 C96 C -0.00891 -0.19283 0.44290
 C97 C -0.01946 -0.28859 0.48777
 C98 C -0.01868 -0.11484 0.49258
 H99 H -0.04526 -0.23507 0.57007
 H100 H -0.04160 -0.13548 0.57445
 H101 H 0.00445 -0.10927 0.41047
 H102 H 0.00134 -0.20892 0.40660
 C103 C 0.02142 0.22463 0.51336
 C104 C -0.02135 0.21609 0.47052
 C105 C -0.02428 0.16011 0.46688
 C106 C 0.01969 0.33275 0.51833
 C107 C 0.05919 0.12045 0.54843
 C108 C 0.06206 0.17672 0.55207
 C109 C 0.02201 0.28287 0.51749
 C110 C 0.01569 0.11180 0.50594
 H111 H -0.05297 0.25277 0.44031
 H112 H -0.05816 0.15439 0.43386
 H113 H 0.08996 0.08377 0.57944
 H114 H 0.09531 0.18282 0.58546
 C115 C 0.50276 -0.01775 -0.23359
 C116 C 0.54508 -0.05592 -0.18678
 C117 C 0.54248 -0.05400 -0.13013
 C118 C 0.50754 -0.01407 -0.34198
 C119 C 0.45459 0.02337 -0.16707
 C120 C 0.45720 0.02138 -0.22352
 C121 C 0.50642 -0.01693 -0.29215
 C122 C 0.49744 -0.01392 -0.11986
 H123 H 0.58061 -0.08629 -0.19406
 H124 H 0.57647 -0.08254 -0.09442
 H125 H 0.41956 0.05464 -0.16015
 H126 H 0.42419 0.05108 -0.25937
 C127 C 0.49387 0.02104 0.22434
 C128 C 0.45188 0.05898 0.17714
 C129 C 0.45522 0.05682 0.12073
 C130 C 0.48777 0.01791 0.33226
 C131 C 0.54318 -0.02038 0.15872
 C132 C 0.53982 -0.01814 0.21493
 C133 C 0.48947 0.02051 0.28262
 C134 C 0.50069 0.01672 0.11112
 H135 H 0.41605 0.08939 0.18392
 H136 H 0.42150 0.08520 0.08469
 H137 H 0.57852 -0.05166 0.15229
 H138 H 0.57257 -0.04767 0.25111
 C139 C 0.49278 -0.22603 -0.02589
 C140 C 0.45014 -0.17847 -0.06263
 C141 C 0.45392 -0.12212 -0.06070
 C142 C 0.48629 -0.33401 -0.02067
 C143 C 0.54369 -0.16100 0.01355
 C144 C 0.53993 -0.21712 0.01152
 C145 C 0.48787 -0.28423 -0.02441
 C146 C 0.50040 -0.11307 -0.02200
 H147 H 0.41344 -0.18494 -0.09168
 H148 H 0.41968 -0.08572 -0.08787
 H149 H 0.57978 -0.15490 0.04374
 H150 H 0.57318 -0.25361 0.04005
 C151 C 0.50665 0.22787 0.02082
 C152 C 0.46008 0.21967 -0.01798
 C153 C 0.45644 0.16385 -0.02148
 C154 C 0.51290 0.33550 0.01840
 C155 C 0.54531 0.12385 0.05381
 C156 C 0.54896 0.17989 0.05722
 C157 C 0.51140 0.28584 0.02104
 C158 C 0.49926 0.11549 0.01398
 H159 H 0.42713 0.25652 -0.04634
 H160 H 0.42066 0.15831 -0.05249
 H161 H 0.57922 0.08714 0.08095
 H162 H 0.58526 0.18580 0.08728
 C163 C -0.22601 -0.02675 0.51531
 C164 C -0.19004 -0.01333 0.56047
 C165 C -0.13360 -0.01100 0.55805
 C166 C -0.33640 -0.01895 0.51381
 C167 C -0.14825 -0.03703 0.46588
 C168 C -0.20480 -0.03935 0.46836
 C169 C -0.28579 -0.02353 0.51523
 C170 C -0.11246 -0.02215 0.51044
 H171 H -0.20608 -0.00324 0.59684
 H172 H -0.10667 0.00066 0.59277
 H173 H -0.13310 -0.04495 0.42842
 H174 H -0.23247 -0.04936 0.43296
 C175 C 0.22387 0.02381 0.48681
 C176 C 0.17549 0.06333 0.44764
 C177 C 0.11953 0.05985 0.45183
 C178 C 0.33164 0.02187 0.48099
 C179 C 0.16055 -0.02188 0.53486
 C180 C 0.21618 -0.01832 0.53070
 C181 C 0.28180 0.02454 0.48202
 C182 C 0.11178 0.01682 0.49526
 H183 H 0.18100 0.09606 0.41346
 H184 H 0.08242 0.08964 0.42047
 H185 H 0.15543 -0.05536 0.56859
 H186 H 0.25329 -0.04906 0.56126
 C187 C -0.02059 0.50427 1.23104
 C188 C -0.05806 0.54682 1.18401
 C189 C -0.05560 0.54398 1.12757
 C190 C -0.01660 0.50969 1.33915
 C191 C 0.02081 0.45534 1.16523
 C192 C 0.01825 0.45818 1.22145
 C193 C -0.01979 0.50838 1.28937
 C194 C -0.01563 0.49850 1.11784
 H195 H -0.08818 0.58276 1.19098
 H196 H -0.08347 0.57815 1.09164
 H197 H 0.05196 0.42000 1.15864
 H198 H 0.04741 0.42502 1.25753
 C199 C 0.02466 0.49447 0.77614
 C200 C 0.06191 0.45229 0.82358
 C201 C 0.05924 0.45597 0.87976
 C202 C 0.02103 0.48765 0.66850
 C203 C -0.01693 0.54470 0.84099
 C204 C -0.01417 0.54103 0.78502
 C205 C 0.02408 0.48954 0.71809
 C206 C 0.01930 0.50192 0.88880
 H207 H 0.09201 0.41602 0.81714
 H208 H 0.08695 0.42210 0.91604
 H209 H -0.04806 0.58039 0.84707
 H210 H -0.04316 0.57390 0.74860
   
