data_POSCAR
  _audit_creation_date              2014-09-24
  _audit_creation_method            'ToBaCCo'
  _symmetry_space_group_name_H-M    'P1'
  _symmetry_Int_Tables_number       1
  _symmetry_cell_setting            triclinic
  loop_
  _symmetry_equiv_pos_as_xyz
 x,y,z
_cell_length_a 42.2174
_cell_length_b 40.6863
_cell_length_c 25.0053
_cell_angle_alpha 90.654000
_cell_angle_beta 89.235000
_cell_angle_gamma 89.883600
loop_
  _atom_site_label
  _atom_site_type_symbol
  _atom_site_fract_x
  _atom_site_fract_y
  _atom_site_fract_z
O1 O 0.20361 0.22596 0.24794
 O2 O 0.25677 0.28813 0.30351
 O3 O 0.20565 0.28973 0.24738
 O4 O 0.25755 0.22421 0.29891
 O5 O 0.28564 0.22575 0.22387
 O6 O 0.23269 0.28862 0.17111
 O7 O 0.28383 0.28941 0.22731
 O8 O 0.23160 0.22451 0.17267
 Cu9 Cu 0.22813 0.25680 0.28199
 Cu10 Cu 0.26116 0.25686 0.19109
 C11 C 0.20823 0.21481 0.20099
 C12 C 0.27904 0.29970 0.27500
 C13 C 0.21053 0.30031 0.20029
 C14 C 0.28104 0.21451 0.27038
 O15 O 0.76012 0.18711 0.36309
 O16 O 0.80992 0.25592 0.31803
 O17 O 0.75692 0.25134 0.36965
 O18 O 0.81426 0.19265 0.31012
 O19 O 0.78746 0.19239 0.23488
 O20 O 0.73200 0.25346 0.29264
 O21 O 0.78482 0.25634 0.24109
 O22 O 0.73304 0.18964 0.28830
 Cu23 Cu 0.78781 0.22125 0.34796
 Cu24 Cu 0.75672 0.22263 0.25651
 C25 C 0.73751 0.17733 0.33404
 C26 C 0.80572 0.26804 0.27209
 C27 C 0.73533 0.26320 0.34068
 C28 C 0.81095 0.18302 0.26209
 O29 O 0.73000 0.78813 0.67573
 O30 O 0.78389 0.72868 0.73549
 O31 O 0.72937 0.72431 0.68563
 O32 O 0.78130 0.79217 0.73077
 O33 O 0.75499 0.79408 0.80770
 O34 O 0.70171 0.72933 0.76088
 O35 O 0.75618 0.73032 0.81105
 O36 O 0.70370 0.79304 0.75239
 Cu37 Cu 0.75879 0.75769 0.69923
 Cu38 Cu 0.72636 0.76174 0.79057
 C39 C 0.70823 0.80135 0.70398
 C40 C 0.77967 0.71974 0.78340
 C41 C 0.70615 0.71594 0.71543
 C42 C 0.77687 0.80460 0.77725
 O43 O 0.29842 0.75606 0.80306
 O44 O 0.23999 0.69230 0.83836
 O45 O 0.29852 0.69236 0.79784
 O46 O 0.24236 0.75600 0.84435
 O47 O 0.22259 0.75870 0.76318
 O48 O 0.27855 0.69439 0.71678
 O49 O 0.22057 0.69446 0.75692
 O50 O 0.27856 0.75818 0.72185
 Cu51 Cu 0.27178 0.72344 0.82910
 Cu52 Cu 0.24797 0.72628 0.73156
 C53 C 0.29798 0.76838 0.75664
 C54 C 0.21986 0.68312 0.80394
 C55 C 0.29874 0.68322 0.74917
 C56 C 0.22351 0.76887 0.81144
 C57 C 1.02499 -0.07561 -0.17289
 C58 C 0.99263 -0.07320 -0.17377
 C59 C 0.98474 -0.04388 -0.14806
 N60 N 1.01117 -0.02813 -0.13203
 C61 C 1.03580 -0.04759 -0.14693
 C62 C 0.95365 -0.03171 -0.14104
 C63 C 0.94619 -0.00483 -0.10681
 C64 C 0.91794 0.01260 -0.10705
 C65 C 0.91863 0.03410 -0.06422
 C66 C 0.94738 0.02934 -0.03918
 N67 N 0.96412 0.00573 -0.06562
 C68 C 0.95639 0.04440 0.00948
 C69 C 0.98837 0.04511 0.02569
 C70 C 0.99894 0.05246 0.07670
 C71 C 1.03146 0.05283 0.07369
 C72 C 1.03966 0.04529 0.02115
 N73 N 1.01333 0.04045 -0.00804
 C74 C 1.07084 0.04440 -0.00015
 C75 C 1.07881 0.02571 -0.04649
 C76 C 1.10783 0.02657 -0.07327
 C77 C 1.10717 0.00230 -0.11202
 C78 C 1.07767 -0.01238 -0.10835
 N79 N 1.06052 0.00200 -0.06845
 C80 C 1.06794 -0.03976 -0.13910
 H81 H 1.03887 -0.09579 -0.18934
 H82 H 0.97676 -0.09122 -0.19084
 H83 H 1.03914 -0.00662 -0.05301
 H84 H 0.89858 0.00971 -0.13463
 H85 H 0.89990 0.05102 -0.05252
 H86 H 0.98484 0.05674 0.11255
 H87 H 1.04727 0.05755 0.10661
 H88 H 1.12627 -0.00393 -0.13965
 H89 H 0.98461 -0.00550 -0.05203
 H90 H 1.12770 0.04256 -0.06531
 C91 C 0.52818 0.54830 0.59970
 C92 C 0.49562 0.54813 0.59934
 C93 C 0.48688 0.53916 0.54796
 N94 N 0.51298 0.53327 0.51733
 C95 C 0.53822 0.53897 0.54879
 C96 C 0.45557 0.53804 0.52846
 C97 C 0.44831 0.52183 0.47988
 C98 C 0.42071 0.52628 0.45131
 C99 C 0.42143 0.50378 0.40984
 C100 C 0.44933 0.48607 0.41441
 N101 N 0.46571 0.49742 0.45692
 C102 C 0.45783 0.45843 0.38252
 C103 C 0.48893 0.44578 0.37990
 C104 C 0.49749 0.41602 0.35630
 C105 C 0.52970 0.41338 0.36089
 C106 C 0.53975 0.44171 0.38689
 N107 N 0.51480 0.46155 0.39827
 C108 C 0.57159 0.44958 0.39735
 C109 C 0.58045 0.47746 0.42771
 C110 C 0.61005 0.49203 0.42588
 C111 C 0.60946 0.51728 0.46294
 C112 C 0.57959 0.51715 0.48692
 N113 N 0.56202 0.49286 0.46491
 C114 C 0.57009 0.53722 0.53090
 H115 H 0.54278 0.55406 0.63378
 H116 H 0.48029 0.55363 0.63328
 H117 H 0.54006 0.48476 0.47870
 H118 H 0.40183 0.54370 0.45974
 H119 H 0.40321 0.50049 0.38023
 H120 H 0.48216 0.39793 0.33806
 H121 H 0.54401 0.39290 0.34667
 H122 H 0.62904 0.53353 0.47154
 H123 H 0.48547 0.48637 0.47351
 H124 H 0.62998 0.48520 0.40042
 C125 C -0.00349 0.41837 0.10927
 C126 C -0.03535 0.41540 0.10079
 C127 C -0.04621 0.44634 0.08716
 N128 N -0.02203 0.46802 0.08645
 C129 C 0.00410 0.45093 0.09986
 C130 C -0.07826 0.45479 0.07935
 C131 C -0.08758 0.48467 0.05602
 C132 C -0.11810 0.49724 0.05784
 C133 C -0.11767 0.52567 0.02865
 C134 C -0.08690 0.52961 0.00943
 N135 N -0.06872 0.50445 0.02634
 C136 C -0.07696 0.55485 -0.02552
 C137 C -0.04458 0.56174 -0.03609
 C138 C -0.03311 0.58141 -0.07689
 C139 C -0.00095 0.58382 -0.07021
 C140 C 0.00635 0.56492 -0.02629
 N141 N -0.02037 0.55164 -0.00538
 C142 C 0.03664 0.56234 -0.00314
 C143 C 0.04342 0.54009 0.03817
 C144 C 0.07007 0.54123 0.07007
 C145 C 0.06942 0.51355 0.10115
 C146 C 0.04259 0.49609 0.08701
 N147 N 0.02686 0.51245 0.04873
 C148 C 0.03438 0.46473 0.10649
 H149 H 0.01230 0.39876 0.12076
 H150 H -0.04891 0.39298 0.10441
 H151 H 0.00823 0.50327 0.02631
 H152 H -0.13858 0.48702 0.07810
 H153 H -0.13785 0.54151 0.02221
 H154 H -0.04640 0.59296 -0.10825
 H155 H 0.01504 0.59811 -0.09477
 H156 H 0.08702 0.50681 0.13015
 H157 H -0.04574 0.49910 0.01351
 H158 H 0.08844 0.55973 0.07042
 C159 C 0.49835 1.07155 0.40013
 C160 C 0.46592 1.06989 0.39780
 C161 C 0.45567 1.05501 0.44450
 N162 N 0.48076 1.04725 0.47500
 C163 C 0.50688 1.05740 0.44802
 C164 C 0.42365 1.05018 0.45994
 C165 C 0.41463 1.02691 0.49889
 C166 C 0.38448 1.02414 0.52131
 C167 C 0.38466 0.99668 0.55286
 C168 C 0.41498 0.98368 0.54944
 N169 N 0.43310 1.00218 0.51650
 C170 C 0.42472 0.95437 0.57397
 C171 C 0.45696 0.94666 0.58163
 C172 C 0.46853 0.91650 0.59788
 C173 C 0.50045 0.92039 0.60497
 C174 C 0.50737 0.95258 0.59178
 N175 N 0.48080 0.96865 0.57766
 C176 C 0.53744 0.96720 0.59575
 C177 C 0.54511 0.99710 0.57062
 C178 C 0.57125 1.01635 0.58207
 C179 C 0.57138 1.04168 0.54599
 C180 C 0.54546 1.03699 0.51325
 N181 N 0.52941 1.00997 0.52893
 C182 C 0.53800 1.05599 0.46804
 H183 H 0.51381 1.08188 0.36986
 H184 H 0.45160 1.07842 0.36515
 H185 H 0.51097 0.99882 0.50828
 H186 H 0.36424 1.03994 0.51518
 H187 H 0.36473 0.98735 0.57570
 H188 H 0.45548 0.89399 0.60411
 H189 H 0.51675 0.90159 0.61785
 H190 H 0.58867 1.06124 0.54413
 H191 H 0.45557 0.99598 0.50205
 H192 H 0.58852 1.01245 0.61297
 C193 C 1.18511 0.19132 0.17965
 C194 C 1.19020 0.17258 0.13340
 C195 C 1.16479 0.15182 0.11170
 N196 N 1.17170 0.12620 0.07826
 N197 N 1.14861 0.10753 0.05847
 C198 C 1.11778 0.11404 0.07098
 N199 N 1.11090 0.13986 0.10387
 N200 N 1.13396 0.15828 0.12409
 C201 C 1.09187 0.09448 0.04834
 C202 C 1.09655 0.06304 0.02684
 H203 H 1.21313 0.17275 0.11345
 H204 H 1.06842 0.10532 0.04859
 H205 H 1.16294 0.18879 0.20155
 H206 H 1.12024 0.05278 0.02642
 C207 C 0.68302 0.69141 0.69744
 C208 C 0.68809 0.67047 0.65373
 C209 C 0.66273 0.64865 0.63469
 N210 N 0.66975 0.62165 0.60442
 N211 N 0.64674 0.60212 0.58665
 C212 C 0.61586 0.60911 0.59805
 N213 N 0.60886 0.63629 0.62780
 N214 N 0.63185 0.65558 0.64605
 C215 C 0.59008 0.58870 0.57690
 C216 C 0.59497 0.55650 0.55892
 H217 H 0.71101 0.66973 0.63376
 H218 H 0.56676 0.59967 0.57462
 H219 H 0.66088 0.68991 0.71970
 H220 H 0.61854 0.54613 0.56140
 C221 C -0.17579 0.29464 0.25648
 C222 C -0.17946 0.31030 0.20754
 C223 C -0.16027 0.33899 0.19264
 N224 N -0.16365 0.35279 0.14388
 N225 N -0.14599 0.37845 0.12965
 C226 C -0.12444 0.39132 0.16384
 N227 N -0.12123 0.37766 0.21267
 N228 N -0.13883 0.35200 0.22686
 C229 C -0.10337 0.41828 0.14798
 C230 C -0.10335 0.43164 0.09691
 H231 H -0.19684 0.30145 0.17933
 H232 H -0.08575 0.42642 0.17631
 H233 H -0.15824 0.30372 0.28421
 H234 H -0.12216 0.42559 0.06946
 C235 C 0.32002 0.79511 0.74360
 C236 C 0.31852 0.81162 0.69516
 C237 C 0.33931 0.83940 0.68221
 N238 N 0.33690 0.85419 0.63410
 N239 N 0.35575 0.87920 0.62138
 C240 C 0.37762 0.89043 0.65644
 N241 N 0.37993 0.87574 0.70468
 N242 N 0.36110 0.85070 0.71739
 C243 C 0.39964 0.91689 0.64196
 C244 C 0.39982 0.93100 0.59142
 H245 H 0.30130 0.80417 0.66569
 H246 H 0.41731 0.92423 0.67073
 H247 H 0.33703 0.80259 0.77338
 H248 H 0.38081 0.92559 0.56403
 C249 C -0.19651 0.69809 -0.19315
 C250 C -0.20187 0.67987 -0.14719
 C251 C -0.17589 0.66120 -0.12323
 N252 N -0.18178 0.63270 -0.09728
 N253 N -0.15812 0.61559 -0.07625
 C254 C -0.12780 0.62665 -0.07973
 N255 N -0.12203 0.65543 -0.10482
 N256 N -0.14560 0.67226 -0.12654
 C257 C -0.10150 0.60828 -0.05629
 C258 C -0.10228 0.57417 -0.05183
 H259 H -0.22545 0.67840 -0.12982
 H260 H -0.08088 0.62188 -0.04349
 H261 H -0.17360 0.69647 -0.21312
 H262 H -0.12333 0.56127 -0.06464
 C263 C 0.30292 1.19215 0.28988
 C264 C 0.29960 1.17653 0.33894
 C265 C 0.32574 1.15691 0.36027
 N266 N 0.31976 1.13090 0.39232
 N267 N 0.34353 1.11324 0.41178
 C268 C 0.37411 1.12132 0.40054
 N269 N 0.38006 1.14763 0.36922
 N270 N 0.35631 1.16496 0.34912
 C271 C 0.40059 1.10263 0.42269
 C272 C 0.39794 1.06931 0.43431
 H273 H 0.27758 1.17827 0.36156
 H274 H 0.42272 1.11536 0.42906
 H275 H 0.32392 1.18707 0.26569
 H276 H 0.37545 1.05730 0.42751
 C277 C 1.20439 -0.20516 -0.17099
 C278 C 1.18457 -0.18784 -0.20496
 C279 C 1.16692 -0.15854 -0.18646
 N280 N 1.14755 -0.14258 -0.22043
 N281 N 1.13142 -0.11604 -0.20408
 C282 C 1.13423 -0.10439 -0.15323
 N283 N 1.15374 -0.12024 -0.11939
 N284 N 1.16982 -0.14678 -0.13571
 C285 C 1.11535 -0.07627 -0.13351
 C286 C 1.09223 -0.06147 -0.16434
 H287 H 1.18245 -0.19535 -0.24648
 H288 H 1.11769 -0.06896 -0.09194
 H289 H 1.20614 -0.19740 -0.12953
 H290 H 1.08876 -0.06985 -0.20511
 C291 C 0.71456 0.28912 0.36293
 C292 C 0.69349 0.30613 0.33083
 C293 C 0.67461 0.33420 0.35069
 N294 N 0.65489 0.34990 0.31701
 N295 N 0.63757 0.37541 0.33411
 C296 C 0.63942 0.38626 0.38553
 N297 N 0.65925 0.37065 0.41919
 N298 N 0.67658 0.34511 0.40208
 C299 C 0.61932 0.41341 0.40554
 C300 C 0.59651 0.42800 0.37372
 H301 H 0.69128 0.29922 0.28908
 H302 H 0.62078 0.42039 0.44738
 H303 H 0.71714 0.29612 0.40457
 H304 H 0.59402 0.41989 0.33259
 C305 C 0.79589 -0.17003 -0.20389
 C306 C 0.82046 -0.15618 -0.23386
 C307 C 0.84068 -0.13022 -0.21124
 N308 N 0.86494 -0.11770 -0.24065
 N309 N 0.88400 -0.09498 -0.21978
 C310 C 0.87942 -0.08394 -0.16875
 N311 N 0.85503 -0.09628 -0.13953
 N312 N 0.83600 -0.11896 -0.16039
 C313 C 0.90131 -0.06051 -0.14377
 C314 C 0.92800 -0.04861 -0.17047
 H315 H 0.82539 -0.16483 -0.27426
 H316 H 0.89770 -0.05448 -0.10181
 H317 H 0.79118 -0.16083 -0.16371
 H318 H 0.93244 -0.05598 -0.21166
 C319 C 0.29920 0.32521 0.29862
 C320 C 0.32443 0.33959 0.27116
 C321 C 0.34481 0.36420 0.29710
 N322 N 0.37030 0.37650 0.27053
 N323 N 0.38940 0.39804 0.29435
 C324 C 0.38364 0.40812 0.34557
 N325 N 0.35802 0.39602 0.37194
 N326 N 0.33896 0.37449 0.34816
 C327 C 0.40527 0.43051 0.37357
 C328 C 0.43337 0.44158 0.35025
 H329 H 0.32977 0.33219 0.23028
 H330 H 0.40004 0.43664 0.41504
 H331 H 0.29404 0.33266 0.33955
 H332 H 0.43948 0.43391 0.30978
 C333 C 0.19471 0.65975 -0.18161
 C334 C 0.18604 0.65412 -0.12852
 C335 C 0.15783 0.63481 -0.11382
 N336 N 0.14695 0.63533 -0.06252
 N337 N 0.12100 0.61870 -0.04874
 C338 C 0.10497 0.60085 -0.08575
 N339 N 0.11597 0.60012 -0.13699
 N340 N 0.14185 0.61690 -0.15084
 C341 C 0.07652 0.58196 -0.07087
 C342 C 0.06230 0.58481 -0.02043
 H343 H 0.19901 0.66611 -0.09672
 H344 H 0.06684 0.56490 -0.09992
 H345 H 0.18076 0.64920 -0.21352
 H346 H 0.07236 0.60123 0.00917
 C347 C 0.71591 1.15198 0.35458
 C348 C 0.68505 1.14909 0.33599
 C349 C 0.66164 1.12712 0.36096
 N350 N 0.63028 1.13254 0.35375
 N351 N 0.60869 1.11349 0.37719
 C352 C 0.61768 1.08808 0.40836
 N353 N 0.64906 1.08237 0.41499
 N354 N 0.67067 1.10164 0.39197
 C355 C 0.59405 1.06697 0.43475
 C356 C 0.56261 1.07692 0.44221
 H357 H 0.67697 1.16543 0.30508
 H358 H 0.60178 1.04339 0.44943
 H359 H 0.72332 1.13760 0.38843
 H360 H 0.55533 1.10037 0.42633
 C361 C 0.19070 0.32647 0.17840
 C362 C 0.16544 0.34061 0.20678
 C363 C 0.14572 0.36650 0.18347
 N364 N 0.11948 0.37747 0.21005
 N365 N 0.10103 0.40032 0.18871
 C366 C 0.10821 0.41314 0.14009
 N367 N 0.13461 0.40239 0.11377
 N368 N 0.15301 0.37949 0.13504
 C369 C 0.08733 0.43725 0.11489
 C370 C 0.05780 0.44544 0.13670
 H371 H 0.15955 0.33207 0.24656
 H372 H 0.09432 0.44706 0.07641
 H373 H 0.19621 0.33475 0.13832
 H374 H 0.04991 0.43384 0.17330
 C375 C 0.68863 0.82680 0.67948
 C376 C 0.66486 0.84379 0.70739
 C377 C 0.64618 0.86974 0.68193
 N378 N 0.62110 0.88347 0.70833
 N379 N 0.60358 0.90642 0.68514
 C380 C 0.61062 0.91662 0.63480
 N381 N 0.63591 0.90316 0.60866
 N382 N 0.65336 0.88015 0.63177
 C383 C 0.59040 0.94046 0.60742
 C384 C 0.56121 0.95028 0.62871
 H385 H 0.65956 0.83773 0.74862
 H386 H 0.59717 0.94803 0.56748
 H387 H 0.69355 0.83268 0.63805
 H388 H 0.55349 0.94080 0.66702
 C389 C 0.83558 0.16196 0.23748
 C390 C 0.83175 0.14660 0.18792
 C391 C 0.85835 0.13046 0.15948
 N392 N 0.85271 0.10840 0.11965
 N393 N 0.87665 0.09459 0.09228
 C394 C 0.90711 0.10268 0.10324
 N395 N 0.91274 0.12497 0.14273
 N396 N 0.88881 0.13849 0.17052
 C397 C 0.93372 0.08839 0.07226
 C398 C 0.93073 0.05890 0.04379
 H399 H 0.80878 0.14678 0.16911
 H400 H 0.95604 0.10142 0.07204
 H401 H 0.85787 0.15954 0.25807
 H402 H 0.90786 0.04685 0.04379
 C403 C 0.32381 0.66067 0.73010
 C404 C 0.32321 0.64569 0.67977
 C405 C 0.35105 0.62845 0.65712
 N406 N 0.34753 0.60610 0.61697
 N407 N 0.37274 0.59137 0.59469
 C408 C 0.40244 0.59883 0.61120
 N409 N 0.40597 0.62142 0.65097
 N410 N 0.38074 0.63584 0.67372
 C411 C 0.43049 0.58360 0.58557
 C412 C 0.42870 0.55337 0.55892
 H413 H 0.30199 0.64704 0.65600
 H414 H 0.45278 0.59661 0.58757
 H415 H 0.34406 0.65696 0.75552
 H416 H 0.40585 0.54136 0.55693
   
