data_POSCAR
  _audit_creation_date              2014-09-24
  _audit_creation_method            'ToBaCCo'
  _symmetry_space_group_name_H-M    'P1'
  _symmetry_Int_Tables_number       1
  _symmetry_cell_setting            triclinic
  loop_
  _symmetry_equiv_pos_as_xyz
 x,y,z
_cell_length_a 43.4062
_cell_length_b 43.8349
_cell_length_c 41.5004
_cell_angle_alpha 90.520200
_cell_angle_beta 90.176600
_cell_angle_gamma 91.001600
loop_
  _atom_site_label
  _atom_site_type_symbol
  _atom_site_fract_x
  _atom_site_fract_y
  _atom_site_fract_z
N1 N 0.17176 0.16950 0.21293
 N2 N 0.19883 0.16343 0.22531
 C3 C 0.19474 0.14831 0.25315
 C4 C 0.16322 0.14429 0.25834
 C5 C 0.14953 0.15809 0.23203
 H6 H 0.21341 0.14001 0.26776
 H7 H 0.12523 0.16029 0.22706
 Cu8 Cu 0.23660 0.17364 0.20219
 Cu9 Cu 0.16707 0.19187 0.17303
 Cu10 Cu 0.23362 0.22308 0.14111
 N11 N 0.26907 0.17591 0.16979
 N12 N 0.26710 0.19406 0.14486
 C13 C 0.29058 0.18854 0.12461
 C14 C 0.30862 0.16585 0.13773
 C15 C 0.29427 0.15871 0.16669
 H16 H 0.29414 0.20029 0.10209
 H17 H 0.30042 0.14097 0.18334
 N18 N 0.19269 0.23902 0.13131
 N19 N 0.16725 0.22568 0.14194
 C20 C 0.14286 0.24149 0.13180
 C21 C 0.15341 0.26619 0.11424
 C22 C 0.18521 0.26398 0.11444
 H23 H 0.11924 0.23652 0.13845
 H24 H 0.20166 0.27952 0.10353
 H25 H 0.20960 0.18514 0.15209
 H26 H 0.20647 0.21618 0.18306
 N27 N -0.19700 0.79444 0.27962
 N28 N -0.21592 0.81692 0.27427
 C29 C -0.20794 0.84080 0.29338
 C30 C -0.18253 0.83285 0.31170
 C31 C -0.17645 0.80310 0.30236
 H32 H -0.21917 0.86262 0.29307
 H33 H -0.15809 0.78886 0.31084
 Cu34 Cu -0.24831 0.81321 0.24172
 Cu35 Cu -0.19938 0.75635 0.25509
 Cu36 Cu -0.23103 0.76714 0.17950
 N37 N -0.27201 0.81340 0.20184
 N38 N -0.26393 0.79661 0.17700
 C39 C -0.28146 0.80362 0.15143
 C40 C -0.30225 0.82572 0.16078
 C41 C -0.29560 0.83113 0.19319
 H42 H -0.27929 0.79304 0.12793
 H43 H -0.30581 0.84796 0.20887
 N44 N -0.20605 0.73154 0.19055
 N45 N -0.19412 0.72723 0.21940
 C46 C -0.17812 0.70116 0.21909
 C47 C -0.18056 0.68820 0.18863
 C48 C -0.19848 0.70806 0.17125
 H49 H -0.16556 0.69238 0.23946
 H50 H -0.20503 0.70587 0.14616
 H51 H -0.20593 0.78493 0.21822
 H52 H -0.24008 0.75986 0.22698
 N53 N -0.18509 0.21220 -0.27899
 N54 N -0.20991 0.19519 -0.28382
 C55 C -0.20376 0.17336 -0.30573
 C56 C -0.17327 0.17666 -0.31520
 C57 C -0.16220 0.20171 -0.29768
 H58 H -0.21995 0.15559 -0.31300
 H59 H -0.13910 0.21129 -0.29791
 Cu60 Cu -0.24710 0.20076 -0.25877
 Cu61 Cu -0.18392 0.24521 -0.24705
 Cu62 Cu -0.25271 0.26073 -0.20881
 N63 N -0.27686 0.20122 -0.22387
 N64 N -0.27850 0.22432 -0.20363
 C65 C -0.29958 0.21781 -0.18086
 C66 C -0.31199 0.18890 -0.18717
 C67 C -0.29698 0.17928 -0.21493
 H68 H -0.30524 0.23310 -0.16125
 H69 H -0.29923 0.15741 -0.22703
 N70 N -0.21676 0.28846 -0.20683
 N71 N -0.19027 0.28242 -0.22080
 C72 C -0.16976 0.30477 -0.21315
 C73 C -0.18399 0.32577 -0.19316
 C74 C -0.21386 0.31462 -0.18985
 H75 H -0.14591 0.30504 -0.22056
 H76 H -0.23200 0.32417 -0.17534
 H77 H -0.21952 0.23006 -0.21745
 H78 H -0.22951 0.25386 -0.25297
 N79 N 0.17041 0.81079 -0.23277
 N80 N 0.19757 0.81839 -0.24444
 C81 C 0.19389 0.83661 -0.26998
 C82 C 0.16268 0.84088 -0.27463
 C83 C 0.14842 0.82420 -0.25047
 H84 H 0.21260 0.84656 -0.28369
 H85 H 0.12392 0.82142 -0.24659
 Cu86 Cu 0.23544 0.80570 -0.22426
 Cu87 Cu 0.16596 0.78213 -0.19713
 Cu88 Cu 0.23385 0.75845 -0.16164
 N89 N 0.26950 0.80414 -0.19387
 N90 N 0.26840 0.78631 -0.16868
 C91 C 0.29333 0.79179 -0.15006
 C92 C 0.31119 0.81458 -0.16428
 C93 C 0.29530 0.82153 -0.19236
 H94 H 0.29751 0.78038 -0.12753
 H95 H 0.30081 0.83920 -0.20951
 N96 N 0.19327 0.74238 -0.14929
 N97 N 0.16725 0.75241 -0.16147
 C98 C 0.14357 0.73714 -0.14773
 C99 C 0.15538 0.71643 -0.12611
 C100 C 0.18697 0.72042 -0.12776
 H101 H 0.11958 0.73985 -0.15399
 H102 H 0.20413 0.70823 -0.11430
 H103 H 0.20724 0.79425 -0.17533
 H104 H 0.20692 0.76110 -0.20385
 N105 N 0.20194 1.19042 0.74702
 N106 N 0.17627 1.20481 0.75298
 C107 C 0.15704 1.20125 0.72773
 C108 C 0.17119 1.18337 0.70455
 C109 C 0.19983 1.17708 0.71772
 H110 H 0.13382 1.20971 0.72719
 H111 H 0.21721 1.16247 0.70768
 Cu112 Cu 0.16841 1.22389 0.79441
 Cu113 Cu 0.23398 1.18633 0.77966
 Cu114 Cu 0.22493 1.22800 0.85010
 N115 N 0.16681 1.25177 0.83090
 N116 N 0.18934 1.25425 0.85203
 C117 C 0.18203 1.27534 0.87442
 C118 C 0.15318 1.28629 0.86705
 C119 C 0.14424 1.27085 0.83929
 H120 H 0.19613 1.28152 0.89508
 H121 H 0.12293 1.27345 0.82610
 N122 N 0.25922 1.19998 0.84326
 N123 N 0.26345 1.18507 0.81589
 C124 C 0.28768 1.16657 0.81928
 C125 C 0.29881 1.16964 0.85040
 C126 C 0.28023 1.19097 0.86494
 H127 H 0.29529 1.15038 0.80132
 H128 H 0.28127 1.19849 0.88981
 H129 H 0.20748 1.19335 0.82030
 H130 H 0.22389 1.22811 0.80013
 N131 N 0.81199 0.80930 0.72006
 N132 N 0.83322 0.78858 0.72386
 C133 C 0.85704 0.79474 0.70418
 C134 C 0.85013 0.82042 0.68668
 C135 C 0.82125 0.82895 0.69715
 H136 H 0.87793 0.78168 0.70290
 H137 H 0.80870 0.84890 0.68997
 Cu138 Cu 0.82752 0.75537 0.75389
 Cu139 Cu 0.77588 0.81076 0.74803
 Cu140 Cu 0.78838 0.77353 0.82027
 N141 N 0.82394 0.72722 0.78942
 N142 N 0.80853 0.73438 0.81552
 C143 C 0.81135 0.71193 0.83714
 C144 C 0.82948 0.68935 0.82381
 C145 C 0.83702 0.69994 0.79341
 H146 H 0.80193 0.71269 0.86122
 H147 H 0.85158 0.68909 0.77577
 N148 N 0.75829 0.80631 0.81534
 N149 N 0.75210 0.81905 0.78740
 C150 C 0.72953 0.83938 0.79159
 C151 C 0.72136 0.83963 0.82381
 C152 C 0.74006 0.81839 0.83813
 H153 H 0.72048 0.85366 0.77280
 H154 H 0.73998 0.81180 0.86317
 H155 H 0.80637 0.79907 0.78240
 H156 H 0.77641 0.76918 0.77341
 N157 N 0.20535 0.81467 1.25770
 N158 N 0.18027 0.79931 1.24949
 C159 C 0.15964 0.80115 1.27352
 C160 C 0.17245 0.81879 1.29820
 C161 C 0.20159 0.82685 1.28723
 H162 H 0.13661 0.79140 1.27243
 H163 H 0.21807 0.84216 1.29883
 Cu164 Cu 0.17557 0.78118 1.20690
 Cu165 Cu 0.23866 0.82152 1.22737
 Cu166 Cu 0.23980 0.77145 1.16232
 N167 N 0.17687 0.75236 1.17140
 N168 N 0.20230 0.74683 1.15541
 C169 C 0.19645 0.72454 1.13345
 C170 C 0.16560 0.71620 1.13567
 C171 C 0.15397 0.73430 1.15998
 H172 H 0.21306 0.71573 1.11654
 H173 H 0.13066 0.73385 1.16912
 N174 N 0.27443 0.79983 1.17317
 N175 N 0.27371 0.81903 1.19781
 C176 C 0.29847 0.83785 1.19663
 C177 C 0.31567 0.83058 1.16967
 C178 C 0.29969 0.80616 1.15550
 H179 H 0.30251 0.85671 1.21311
 H180 H 0.30491 0.79499 1.13292
 H181 H 0.21928 0.80837 1.18278
 H182 H 0.23121 0.77762 1.21088
 N183 N 0.80234 1.18803 1.29249
 N184 N 0.81773 1.21386 1.29676
 C185 C 0.84215 1.20905 1.31606
 C186 C 0.84220 1.17845 1.32384
 C187 C 0.81662 1.16580 1.30854
 H188 H 0.85944 1.22611 1.32251
 H189 H 0.80926 1.14209 1.30858
 Cu190 Cu 0.80642 1.25049 1.27375
 Cu191 Cu 0.76542 1.18515 1.26570
 Cu192 Cu 0.76603 1.23886 1.20544
 N193 N 0.80374 1.28189 1.24111
 N194 N 0.78787 1.27713 1.21447
 C195 C 0.79287 1.30053 1.19437
 C196 C 0.81329 1.32111 1.20892
 C197 C 0.81954 1.30850 1.23877
 H198 H 0.78419 1.30120 1.16996
 H199 H 0.83584 1.31692 1.25662
 N200 N 0.73930 1.20202 1.20421
 N201 N 0.73863 1.18174 1.22749
 C202 C 0.71877 1.15898 1.21937
 C203 C 0.70633 1.16518 1.18937
 C204 C 0.71981 1.19279 1.18068
 H205 H 0.71460 1.13889 1.23375
 H206 H 0.71589 1.20523 1.15874
 H207 H 0.79090 1.21072 1.23547
 H208 H 0.75701 1.23067 1.25275
 O209 O 0.53692 0.96791 0.93013
 O210 O 0.48372 0.98817 1.06364
 O211 O 0.57210 0.97757 1.01657
 O212 O 0.46988 0.94955 0.97214
 O213 O 0.53126 0.96360 1.04142
 O214 O 0.47913 0.97162 0.92788
 O215 O 0.47598 0.95764 1.02608
 O216 O 0.57431 0.98902 0.95888
 C217 C 0.56487 0.96981 0.93781
 C218 C 0.47095 0.96413 1.05456
 C219 C 0.55850 0.95896 1.03447
 C220 C 0.46875 0.94913 0.94248
 O221 O 0.48332 1.03006 0.93307
 O222 O 0.53900 1.01344 1.07209
 O223 O 0.55597 1.04696 0.97284
 O224 O 0.45592 1.01769 1.02083
 O225 O 0.49862 1.03893 1.03834
 O226 O 0.54109 1.02668 0.92823
 O227 O 0.44866 1.00774 0.96350
 O228 O 0.55457 1.03625 1.02894
 Co229 Co 0.51031 0.99892 0.93556
 Co230 Co 0.51578 1.00140 1.03775
 Co231 Co 0.55984 1.01109 0.99397
 Co232 Co 0.46626 0.98436 0.99534
 O233 O 0.51184 0.99803 0.98862
 C234 C 0.45627 1.02808 0.94338
 C235 C 0.55906 1.03149 1.05867
 C236 C 0.55426 1.04805 0.94308
 C237 C 0.47010 1.04007 1.03404
 O238 O 0.02351 0.46620 0.05798
 O239 O 0.02615 0.52759 -0.02721
 O240 O -0.00996 0.43848 -0.02722
 O241 O -0.00459 0.56076 0.04052
 O242 O 0.02483 0.47264 -0.03375
 O243 O 0.02730 0.52529 0.05336
 O244 O -0.00639 0.56221 -0.01746
 O245 O -0.00666 0.43384 0.03154
 C246 C 0.01719 0.43958 0.04820
 C247 C 0.02046 0.55512 -0.02472
 C248 C 0.01744 0.44524 -0.03328
 C249 C 0.02210 0.55287 0.04876
 O250 O -0.02967 0.52782 0.07772
 O251 O -0.03337 0.47553 -0.05908
 O252 O -0.06378 0.45056 0.03846
 O253 O -0.06334 0.53558 -0.01686
 O254 O -0.03093 0.53033 -0.05487
 O255 O -0.03424 0.47123 0.07617
 O256 O -0.06278 0.53741 0.04117
 O257 O -0.06599 0.46211 -0.02229
 Co258 Co -0.00453 0.49807 0.06082
 Co259 Co -0.00462 0.50137 -0.03935
 Co260 Co -0.03514 0.45137 0.00521
 Co261 Co -0.03300 0.54494 0.01157
 O262 O -0.01910 0.49880 0.00983
 C263 C -0.05621 0.53608 0.07011
 C264 C -0.05996 0.46608 -0.05129
 C265 C -0.05801 0.45600 0.06760
 C266 C -0.05752 0.53708 -0.04598
 O267 O 1.07394 0.03000 0.46710
 O268 O 0.93922 0.01612 0.52336
 O269 O 0.98870 0.01833 0.43815
 O270 O 1.03394 0.04971 0.54171
 O271 O 0.97374 0.04118 0.48202
 O272 O 1.07682 0.02977 0.52823
 O273 O 0.98015 0.03959 0.54109
 O274 O 1.04334 0.00736 0.43176
 C275 C 1.06403 0.02707 0.43878
 C276 C 0.95139 0.03486 0.54419
 C277 C 0.97741 0.04149 0.45206
 C278 C 1.06243 0.05123 0.54080
 O279 O 1.07308 -0.02950 0.52701
 O280 O 0.94682 -0.00921 0.46780
 O281 O 1.03263 -0.04984 0.45510
 O282 O 0.99049 -0.01900 0.56089
 O283 O 0.96727 -0.03372 0.51788
 O284 O 1.07594 -0.02873 0.46681
 O285 O 1.04568 -0.00711 0.56424
 O286 O 0.98068 -0.04120 0.46009
 Co287 Co 1.06950 0.00034 0.49743
 Co288 Co 0.97232 0.00380 0.50088
 Co289 Co 1.01169 -0.01498 0.45023
 Co290 Co 1.01296 0.01425 0.54733
 O291 O 1.01868 -0.00025 0.49777
 C292 C 1.06503 -0.02694 0.55581
 C293 C 0.95377 -0.03368 0.45492
 C294 C 1.06102 -0.05091 0.45568
 C295 C 0.97347 -0.03807 0.54659
 C296 C 1.11788 0.09749 0.33470
 C297 C 1.14983 0.10419 0.33662
 C298 C 1.16482 0.11940 0.31122
 C299 C 1.14828 0.12913 0.28401
 C300 C 1.11626 0.12339 0.28305
 C301 C 1.10135 0.10774 0.30780
 C302 C 1.10300 0.07997 0.36156
 C303 C 1.07209 0.06956 0.36038
 C304 C 1.05953 0.05265 0.38563
 C305 C 1.07724 0.04606 0.41290
 C306 C 1.10794 0.05654 0.41453
 C307 C 1.12110 0.07281 0.38882
 C308 C 1.16657 0.09600 0.36406
 C309 C 1.15240 0.08112 0.38980
 H310 H 1.19098 0.10138 0.36578
 H311 H 1.16635 0.07547 0.41055
 H312 H 1.18933 0.12407 0.31318
 H313 H 1.10235 0.13037 0.26287
 H314 H 1.03580 0.04471 0.38384
 H315 H 1.12192 0.05104 0.43532
 H316 H 1.07682 0.10409 0.30544
 H317 H 1.05738 0.07366 0.33995
 C318 C 0.87134 -0.10908 0.37605
 C319 C 0.88325 -0.13692 0.36436
 C320 C 0.86539 -0.15584 0.34392
 C321 C 0.83566 -0.14749 0.33439
 C322 C 0.82383 -0.11995 0.34611
 C323 C 0.84133 -0.10102 0.36669
 C324 C 0.89150 -0.08930 0.39742
 C325 C 0.88199 -0.06114 0.41044
 C326 C 0.90203 -0.04326 0.42951
 C327 C 0.93195 -0.05301 0.43608
 C328 C 0.94146 -0.08116 0.42369
 C329 C 0.92160 -0.09928 0.40453
 C330 C 0.91310 -0.14560 0.37273
 C331 C 0.93187 -0.12716 0.39230
 H332 H 0.92222 -0.16691 0.36377
 H333 H 0.95490 -0.13480 0.39782
 H334 H 0.87512 -0.17682 0.33489
 H335 H 0.80092 -0.11293 0.33945
 H336 H 0.89420 -0.02159 0.43884
 H337 H 0.96458 -0.08891 0.42869
 H338 H 0.83101 -0.08012 0.37477
 H339 H 0.85931 -0.05241 0.40604
 C340 C 0.87699 0.11529 0.62286
 C341 C 0.89287 0.13778 0.64148
 C342 C 0.87641 0.15799 0.66119
 C343 C 0.84409 0.15623 0.66284
 C344 C 0.82845 0.13420 0.64390
 C345 C 0.84457 0.11405 0.62422
 C346 C 0.89544 0.09385 0.60251
 C347 C 0.88190 0.07031 0.58355
 C348 C 0.90012 0.05107 0.56490
 C349 C 0.93225 0.05478 0.56458
 C350 C 0.94601 0.07792 0.58358
 C351 C 0.92794 0.09735 0.60250
 C352 C 0.92510 0.13991 0.64049
 C353 C 0.94223 0.12020 0.62136
 H354 H 0.93730 0.15710 0.65474
 H355 H 0.96711 0.12284 0.62142
 H356 H 0.88897 0.17477 0.67560
 H357 H 0.80357 0.13239 0.64413
 H358 H 0.88896 0.03328 0.55058
 H359 H 0.97086 0.08093 0.58356
 H360 H 0.83114 0.09768 0.61036
 H361 H 0.85733 0.06631 0.58274
 C362 C 1.12217 -0.10464 0.65087
 C363 C 1.10662 -0.10884 0.68048
 C364 C 1.11948 -0.12727 0.70449
 C365 C 1.14822 -0.14082 0.69979
 C366 C 1.16371 -0.13620 0.67061
 C367 C 1.15090 -0.11851 0.64644
 C368 C 1.10767 -0.08504 0.62577
 C369 C 1.12043 -0.08106 0.59490
 C370 C 1.10638 -0.06234 0.57246
 C371 C 1.07934 -0.04680 0.58012
 C372 C 1.06620 -0.05079 0.61071
 C373 C 1.07990 -0.07013 0.63335
 C374 C 1.07872 -0.09412 0.68617
 C375 C 1.06586 -0.07489 0.66330
 H376 H 1.06684 -0.09716 0.70888
 H377 H 1.04445 -0.06375 0.66906
 H378 H 1.10755 -0.13032 0.72717
 H379 H 1.18582 -0.14649 0.66628
 H380 H 1.11696 -0.05982 0.54900
 H381 H 1.04510 -0.03920 0.61674
 H382 H 1.16412 -0.11572 0.62470
 H383 H 1.14111 -0.09235 0.58742
 C384 C 0.38469 1.12018 1.09627
 C385 C 0.36476 1.13727 1.07669
 C386 C 0.34072 1.15385 1.09078
 C387 C 0.33446 1.15165 1.12401
 C388 C 0.35385 1.13373 1.14304
 C389 C 0.37880 1.11862 1.12954
 C390 C 0.40987 1.10261 1.08040
 C391 C 0.43291 1.08770 1.09797
 C392 C 0.45396 1.06906 1.08225
 C393 C 0.45234 1.06471 1.04883
 C394 C 0.43099 1.08108 1.03084
 C395 C 0.41017 1.10054 1.04635
 C396 C 0.36788 1.13630 1.04306
 C397 C 0.38948 1.11760 1.02818
 H398 H 0.35247 1.14912 1.02793
 H399 H 0.39003 1.11654 1.00209
 H400 H 0.32569 1.16674 1.07533
 H401 H 0.35015 1.13155 1.16869
 H402 H 0.47050 1.05666 1.09644
 H403 H 0.43040 1.07835 1.00490
 H404 H 0.39257 1.10501 1.14539
 H405 H 0.43474 1.08980 1.12383
 C406 C 0.38753 0.86413 0.87528
 C407 C 0.37162 0.84218 0.89399
 C408 C 0.34749 0.82460 0.88026
 C409 C 0.33773 0.82950 0.84832
 C410 C 0.35419 0.85091 0.82976
 C411 C 0.37875 0.86780 0.84290
 C412 C 0.41174 0.88382 0.89133
 C413 C 0.42900 0.90610 0.87468
 C414 C 0.44872 0.92620 0.89126
 C415 C 0.45192 0.92456 0.92483
 C416 C 0.43658 0.90102 0.94139
 C417 C 0.41654 0.88070 0.92490
 C418 C 0.37888 0.83889 0.92670
 C419 C 0.40060 0.85798 0.94192
 H420 H 0.36679 0.82201 0.94107
 H421 H 0.40455 0.85526 0.96753
 H422 H 0.33537 0.80836 0.89531
 H423 H 0.34816 0.85504 0.80490
 H424 H 0.46066 0.94383 0.87780
 H425 H 0.43920 0.89928 0.96730
 H426 H 0.38990 0.88421 0.82744
 H427 H 0.42714 0.90892 0.84897
 C428 C 0.63459 0.87358 1.10230
 C429 C 0.63148 0.87368 1.13621
 C430 C 0.65250 0.85792 1.15542
 C431 C 0.67598 0.84054 1.14138
 C432 C 0.67736 0.83865 1.10752
 C433 C 0.65725 0.85518 1.08827
 C434 C 0.61360 0.89319 1.08291
 C435 C 0.61806 0.89889 1.04982
 C436 C 0.59939 0.91944 1.03353
 C437 C 0.57527 0.93390 1.04957
 C438 C 0.56991 0.92752 1.08213
 C439 C 0.58950 0.90826 1.09913
 C440 C 0.60730 0.88934 1.15079
 C441 C 0.58628 0.90560 1.13256
 H442 H 0.60450 0.88895 1.17673
 H443 H 0.56797 0.91734 1.14500
 H444 H 0.64999 0.85879 1.18137
 H445 H 0.69478 0.82536 1.09556
 H446 H 0.60413 0.92447 1.00852
 H447 H 0.55189 0.93946 1.09487
 H448 H 0.65977 0.85325 1.06247
 H449 H 0.63667 0.88879 1.03651
 C450 C 0.62598 1.13594 0.86946
 C451 C 0.63289 1.12718 0.83743
 C452 C 0.65306 1.14500 0.81885
 C453 C 0.66637 1.17217 0.83120
 C454 C 0.65801 1.18171 0.86241
 C455 C 0.63832 1.16378 0.88136
 C456 C 0.60600 1.11496 0.88918
 C457 C 0.60018 1.11973 0.92230
 C458 C 0.58282 1.09841 0.93987
 C459 C 0.57041 1.07222 0.92471
 C460 C 0.57544 1.06779 0.89163
 C461 C 0.59354 1.08842 0.87406
 C462 C 0.61975 1.10058 0.82400
 C463 C 0.60015 1.08185 0.84177
 H464 H 0.62480 1.09405 0.79935
 H465 H 0.59070 1.06142 0.83030
 H466 H 0.65800 1.13757 0.79449
 H467 H 0.66743 1.20255 0.87292
 H468 H 0.57944 1.10221 0.96544
 H469 H 0.56637 1.04741 0.87969
 H470 H 0.63319 1.17200 0.90529
 H471 H 0.60950 1.13928 0.93522
 C472 C 0.09538 0.33798 0.08061
 C473 C 0.12584 0.34479 0.09103
 C474 C 0.14530 0.32113 0.10055
 C475 C 0.13437 0.29081 0.10108
 C476 C 0.10418 0.28420 0.09091
 C477 C 0.08498 0.30734 0.08060
 C478 C 0.07514 0.36381 0.07118
 C479 C 0.04514 0.35916 0.05893
 C480 C 0.02675 0.38383 0.05147
 C481 C 0.03755 0.41392 0.05612
 C482 C 0.06770 0.41890 0.06762
 C483 C 0.08664 0.39408 0.07480
 C484 C 0.13627 0.37520 0.09291
 C485 C 0.11698 0.39932 0.08540
 H486 H 0.15954 0.38050 0.10101
 H487 H 0.12599 0.42244 0.08787
 H488 H 0.16848 0.32647 0.10892
 H489 H 0.09528 0.26097 0.09105
 H490 H 0.00373 0.37923 0.04227
 H491 H 0.07652 0.44204 0.07068
 H492 H 0.06190 0.30074 0.07347
 H493 H 0.03537 0.33669 0.05478
 C494 C -0.13918 0.39819 -0.13857
 C495 C -0.12508 0.38617 -0.16654
 C496 C -0.14034 0.36351 -0.18504
 C497 C -0.16945 0.35215 -0.17588
 C498 C -0.18388 0.36511 -0.14895
 C499 C -0.16908 0.38784 -0.13061
 C500 C -0.12092 0.42004 -0.11769
 C501 C -0.13202 0.43151 -0.08816
 C502 C -0.11266 0.44826 -0.06746
 C503 C -0.08197 0.45455 -0.07591
 C504 C -0.07145 0.44552 -0.10640
 C505 C -0.09044 0.42784 -0.12702
 C506 C -0.09540 0.39601 -0.17524
 C507 C -0.07847 0.41644 -0.15593
 H508 H -0.08470 0.38706 -0.19682
 H509 H -0.05522 0.42254 -0.16318
 H510 H -0.12912 0.35421 -0.20613
 H511 H -0.20632 0.35705 -0.14117
 H512 H -0.12136 0.45521 -0.04413
 H513 H -0.04772 0.45021 -0.11309
 H514 H -0.18119 0.39635 -0.10986
 H515 H -0.15512 0.42675 -0.07989
 C516 C 0.10389 0.64801 -0.07417
 C517 C 0.09073 0.67662 -0.08091
 C518 C 0.10776 0.69893 -0.09756
 C519 C 0.13810 0.69348 -0.10716
 C520 C 0.15163 0.66573 -0.09915
 C521 C 0.13477 0.64320 -0.08298
 C522 C 0.08406 0.62395 -0.05865
 C523 C 0.09390 0.59383 -0.05363
 C524 C 0.07360 0.57161 -0.04159
 C525 C 0.04319 0.57897 -0.03390
 C526 C 0.03370 0.60922 -0.03728
 C527 C 0.05356 0.63147 -0.05015
 C528 C 0.06057 0.68273 -0.07130
 C529 C 0.04251 0.66076 -0.05589
 H530 H 0.05064 0.70476 -0.07605
 H531 H 0.01916 0.66650 -0.04930
 H532 H 0.09737 0.72059 -0.10305
 H533 H 0.17507 0.66101 -0.10621
 H534 H 0.08151 0.54846 -0.03900
 H535 H 0.01024 0.61520 -0.03137
 H536 H 0.14626 0.62217 -0.07787
 H537 H 0.11680 0.58670 -0.05977
 C538 C -0.13538 0.61073 0.14704
 C539 C -0.12185 0.62656 0.17355
 C540 C -0.13749 0.65077 0.18835
 C541 C -0.16593 0.66028 0.17619
 C542 C -0.17953 0.64412 0.15042
 C543 C -0.16466 0.61956 0.13617
 C544 C -0.11694 0.58687 0.13012
 C545 C -0.12830 0.57024 0.10330
 C546 C -0.10884 0.55190 0.08526
 C547 C -0.07772 0.54922 0.09371
 C548 C -0.06690 0.56313 0.12225
 C549 C -0.08623 0.58218 0.14034
 C550 C -0.09217 0.61920 0.18400
 C551 C -0.07463 0.59771 0.16755
 H552 H -0.08185 0.63113 0.20443
 H553 H -0.05131 0.59381 0.17575
 H554 H -0.12667 0.66333 0.20809
 H555 H -0.20166 0.65075 0.14090
 H556 H -0.11785 0.54083 0.06367
 H557 H -0.04290 0.56101 0.12904
 H558 H -0.17611 0.60855 0.11601
 H559 H -0.15178 0.57191 0.09507
 C560 C 1.12592 0.13838 0.62399
 C561 C 1.15705 0.13219 0.63126
 C562 C 1.17222 0.14801 0.65646
 C563 C 1.15673 0.16984 0.67504
 C564 C 1.12646 0.17720 0.66637
 C565 C 1.11127 0.16179 0.64124
 C566 C 1.10956 0.11873 0.59933
 C567 C 1.07792 0.12137 0.59231
 C568 C 1.06296 0.10032 0.57195
 C569 C 1.07917 0.07632 0.55776
 C570 C 1.11107 0.07466 0.56294
 C571 C 1.12622 0.09529 0.58394
 C572 C 1.17257 0.10951 0.61411
 C573 C 1.15753 0.09157 0.59084
 H574 H 1.19654 0.10503 0.61934
 H575 H 1.17036 0.07379 0.57886
 H576 H 1.19574 0.14233 0.66223
 H577 H 1.11396 0.19443 0.67944
 H578 H 1.03835 0.10224 0.56824
 H579 H 1.12387 0.05618 0.55212
 H580 H 1.08787 0.16814 0.63624
 H581 H 1.06401 0.13879 0.60316
 C582 C 0.90858 -0.12763 0.62340
 C583 C 0.87686 -0.13186 0.61623
 C584 C 0.85792 -0.14893 0.63696
 C585 C 0.87037 -0.16302 0.66408
 C586 C 0.90213 -0.16058 0.66996
 C587 C 0.92104 -0.14293 0.65003
 C588 C 0.92732 -0.10671 0.60250
 C589 C 0.95766 -0.09718 0.61035
 C590 C 0.97319 -0.07562 0.59152
 C591 C 0.95919 -0.06375 0.56401
 C592 C 0.92951 -0.07395 0.55527
 C593 C 0.91316 -0.09448 0.57481
 C594 C 0.86426 -0.11907 0.58847
 C595 C 0.88221 -0.10135 0.56780
 H596 H 0.84012 -0.12280 0.58263
 H597 H 0.87135 -0.09187 0.54667
 H598 H 0.83347 -0.15143 0.63192
 H599 H 0.91222 -0.17158 0.69064
 H600 H 0.99598 -0.06776 0.59880
 H601 H 0.91828 -0.06421 0.53446
 H602 H 0.94526 -0.14150 0.65588
 H603 H 0.96929 -0.10510 0.63162
 C604 C 1.12701 -0.13756 0.37780
 C605 C 1.10957 -0.15387 0.35425
 C606 C 1.12454 -0.16962 0.32938
 C607 C 1.15682 -0.16893 0.32714
 C608 C 1.17402 -0.15429 0.35160
 C609 C 1.15940 -0.13890 0.37666
 C610 C 1.11025 -0.11809 0.40163
 C611 C 1.12561 -0.09921 0.42441
 C612 C 1.10929 -0.07854 0.44318
 C613 C 1.07724 -0.07640 0.44008
 C614 C 1.06143 -0.09667 0.41924
 C615 C 1.07770 -0.11711 0.39970
 C616 C 1.07732 -0.15325 0.35480
 C617 C 1.06171 -0.13531 0.37710
 H618 H 1.06393 -0.16608 0.33705
 H619 H 1.03678 -0.13484 0.37585
 H620 H 1.11084 -0.18098 0.31086
 H621 H 1.19894 -0.15404 0.35108
 H622 H 1.12198 -0.06339 0.45939
 H623 H 1.03662 -0.09524 0.41671
 H624 H 1.17394 -0.12757 0.39431
 H625 H 1.15029 -0.09917 0.42733
 C626 C 0.90892 0.12833 0.37761
 C627 C 0.89810 0.11745 0.34731
 C628 C 0.87630 0.13400 0.33007
 C629 C 0.86593 0.16200 0.34182
 C630 C 0.87814 0.17390 0.37066
 C631 C 0.89920 0.15715 0.38861
 C632 C 0.92976 0.10833 0.39672
 C633 C 0.93823 0.11467 0.42899
 C634 C 0.95507 0.09364 0.44675
 C635 C 0.96450 0.06622 0.43251
 C636 C 0.95767 0.06058 0.39992
 C637 C 0.93965 0.08078 0.38235
 C638 C 0.90902 0.09012 0.33440
 C639 C 0.92987 0.07250 0.35126
 H640 H 0.90121 0.08213 0.31091
 H641 H 0.93742 0.05138 0.34032
 H642 H 0.86750 0.12518 0.30726
 H643 H 0.87066 0.19578 0.37979
 H644 H 0.95992 0.09840 0.47193
 H645 H 0.96441 0.03924 0.38879
 H646 H 0.90755 0.16705 0.41094
 H647 H 0.93088 0.13502 0.44134
 C648 C 0.09942 0.35309 -0.08290
 C649 C 0.08504 0.32743 -0.09796
 C650 C 0.10283 0.30580 -0.11411
 C651 C 0.13500 0.30869 -0.11475
 C652 C 0.14943 0.33311 -0.09835
 C653 C 0.13189 0.35522 -0.08274
 C654 C 0.07929 0.37688 -0.06812
 C655 C 0.09088 0.40491 -0.05575
 C656 C 0.07086 0.42705 -0.04403
 C657 C 0.03897 0.42153 -0.04384
 C658 C 0.02732 0.39342 -0.05523
 C659 C 0.04704 0.37147 -0.06798
 C660 C 0.05301 0.32346 -0.09689
 C661 C 0.03445 0.34476 -0.08173
 H662 H 0.04208 0.30356 -0.10800
 H663 H 0.00975 0.34068 -0.08164
 H664 H 0.09160 0.28649 -0.12603
 H665 H 0.17430 0.33556 -0.09833
 H666 H 0.08032 0.44862 -0.03528
 H667 H 0.00264 0.38910 -0.05552
 H668 H 0.14412 0.37376 -0.07081
 H669 H 0.11517 0.41049 -0.05569
 C670 C -0.13559 0.39053 0.15777
 C671 C -0.16411 0.37916 0.14566
 C672 C -0.18157 0.35812 0.16354
 C673 C -0.17068 0.34716 0.19307
 C674 C -0.14308 0.35947 0.20572
 C675 C -0.12579 0.38093 0.18841
 C676 C -0.11634 0.41077 0.13653
 C677 C -0.08730 0.42288 0.14587
 C678 C -0.06890 0.43888 0.12392
 C679 C -0.07900 0.44314 0.09218
 C680 C -0.10864 0.43288 0.08330
 C681 C -0.12728 0.41682 0.10510
 C682 C -0.17444 0.38767 0.11509
 C683 C -0.15632 0.40593 0.09516
 H684 H -0.19641 0.37918 0.10595
 H685 H -0.16488 0.41097 0.07126
 H686 H -0.20315 0.34942 0.15369
 H687 H -0.13404 0.35170 0.22847
 H688 H -0.04620 0.44681 0.13143
 H689 H -0.11689 0.43655 0.05897
 H690 H -0.10434 0.38886 0.19896
 H691 H -0.07804 0.41964 0.16971
 C692 C -0.13294 0.61307 -0.12543
 C693 C -0.11998 0.62258 -0.15502
 C694 C -0.13321 0.64650 -0.17220
 C695 C -0.15891 0.66178 -0.16003
 C696 C -0.17240 0.65153 -0.13135
 C697 C -0.15974 0.62745 -0.11432
 C698 C -0.11640 0.58953 -0.10631
 C699 C -0.12659 0.57954 -0.07590
 C700 C -0.10824 0.56085 -0.05711
 C701 C -0.07946 0.55137 -0.06827
 C702 C -0.07031 0.55898 -0.09961
 C703 C -0.08833 0.57823 -0.11849
 C704 C -0.09313 0.60911 -0.16663
 C705 C -0.07759 0.58746 -0.14871
 H706 H -0.08338 0.61618 -0.18945
 H707 H -0.05630 0.57854 -0.15822
 H708 H -0.12244 0.65408 -0.19429
 H709 H -0.19260 0.66241 -0.12165
 H710 H -0.11602 0.55492 -0.03316
 H711 H -0.04822 0.55152 -0.10858
 H712 H -0.17086 0.62104 -0.09214
 H713 H -0.14809 0.58676 -0.06564
 C714 C 0.11117 0.64657 0.08773
 C715 C 0.09910 0.67592 0.09350
 C716 C 0.11742 0.69868 0.10829
 C717 C 0.14804 0.69308 0.11680
 C718 C 0.16078 0.66483 0.10903
 C719 C 0.14253 0.64168 0.09482
 C720 C 0.08968 0.62196 0.07519
 C721 C 0.09811 0.59112 0.07227
 C722 C 0.07639 0.56871 0.06304
 C723 C 0.04590 0.57654 0.05611
 C724 C 0.03769 0.60732 0.05761
 C725 C 0.05899 0.62983 0.06774
 C726 C 0.06867 0.68229 0.08502
 C727 C 0.04920 0.65986 0.07190
 H728 H 0.05964 0.70492 0.08893
 H729 H 0.02572 0.66587 0.06609
 H730 H 0.10771 0.72079 0.11359
 H731 H 0.18449 0.66021 0.11520
 H732 H 0.08337 0.54512 0.06183
 H733 H 0.01420 0.61370 0.05229
 H734 H 0.15322 0.62009 0.09001
 H735 H 0.12105 0.58373 0.07796
 C736 C 0.36554 1.11162 0.89422
 C737 C 0.37023 1.12276 0.86266
 C738 C 0.34832 1.14167 0.84849
 C739 C 0.32242 1.15085 0.86586
 C740 C 0.31875 1.14134 0.89779
 C741 C 0.33991 1.12179 0.91180
 C742 C 0.38835 1.08980 0.90762
 C743 C 0.38361 1.07410 0.93674
 C744 C 0.40542 1.05367 0.94797
 C745 C 0.43282 1.04902 0.93097
 C746 C 0.43754 1.06420 0.90173
 C747 C 0.41523 1.08385 0.88958
 C748 C 0.39690 1.11528 0.84564
 C749 C 0.41929 1.09685 0.85914
 H750 H 0.40074 1.12416 0.82167
 H751 H 0.43973 1.09207 0.84518
 H752 H 0.35160 1.14959 0.82403
 H753 H 0.29897 1.14834 0.91170
 H754 H 0.40099 1.04178 0.97030
 H755 H 0.45828 1.06009 0.88796
 H756 H 0.33589 1.11503 0.93639
 H757 H 0.36300 1.07686 0.95085
 C758 C 0.38860 0.88576 1.12796
 C759 C 0.37711 0.85936 1.11170
 C760 C 0.35432 0.84087 1.12596
 C761 C 0.34220 0.84830 1.15629
 C762 C 0.35455 0.87383 1.17291
 C763 C 0.37739 0.89228 1.15902
 C764 C 0.41153 0.90594 1.11091
 C765 C 0.42357 0.93348 1.12423
 C766 C 0.44355 0.95223 1.10640
 C767 C 0.45197 0.94388 1.07504
 C768 C 0.44083 0.91615 1.06204
 C769 C 0.42070 0.89735 1.07948
 C770 C 0.38783 0.85187 1.08091
 C771 C 0.40918 0.87043 1.06518
 H772 H 0.37920 0.83157 1.06854
 H773 H 0.41636 0.86387 1.04113
 H774 H 0.34551 0.82115 1.11280
 H775 H 0.34630 0.88007 1.19657
 H776 H 0.45189 0.97354 1.11688
 H777 H 0.44727 0.90943 1.03779
 H778 H 0.38559 0.91177 1.17280
 H779 H 0.41745 0.94119 1.14807
 C780 C 0.64448 1.10903 1.13145
 C781 C 0.64750 1.10360 1.16486
 C782 C 0.66768 1.12190 1.18371
 C783 C 0.68483 1.14585 1.16977
 C784 C 0.68157 1.15114 1.13667
 C785 C 0.66177 1.13309 1.11777
 C786 C 0.62284 1.08903 1.11211
 C787 C 0.61873 1.09239 1.07867
 C788 C 0.59815 1.07352 1.06171
 C789 C 0.58101 1.05076 1.07745
 C790 C 0.58504 1.04692 1.11073
 C791 C 0.60587 1.06583 1.12812
 C792 C 0.63028 1.08008 1.17924
 C793 C 0.60985 1.06169 1.16131
 H794 H 0.63254 1.07587 1.20483
 H795 H 0.59698 1.04391 1.17362
 H796 H 0.66972 1.11764 1.20929
 H797 H 0.69463 1.16911 1.12499
 H798 H 0.59555 1.07698 1.03604
 H799 H 0.57200 1.02927 1.12308
 H800 H 0.66045 1.13846 1.09253
 H801 H 0.63110 1.10940 1.06502
 C802 C 0.65286 0.89477 0.86992
 C803 C 0.67968 0.88638 0.88692
 C804 C 0.70167 0.86794 0.87191
 C805 C 0.69799 0.85870 0.83965
 C806 C 0.67202 0.86802 0.82248
 C807 C 0.64962 0.88566 0.83740
 C808 C 0.62946 0.91361 0.88711
 C809 C 0.60066 0.92041 0.87349
 C810 C 0.57973 0.93829 0.89028
 C811 C 0.58706 0.95022 0.92087
 C812 C 0.61551 0.94329 0.93490
 C813 C 0.63639 0.92451 0.91858
 C814 C 0.68468 0.89697 0.91850
 C815 C 0.66381 0.91614 0.93375
 H816 H 0.70534 0.89078 0.93145
 H817 H 0.66899 0.92412 0.95800
 H818 H 0.72208 0.86143 0.88512
 H819 H 0.66877 0.86127 0.79751
 H820 H 0.55784 0.94318 0.87901
 H821 H 0.62116 0.95207 0.95874
 H822 H 0.63018 0.89221 0.82294
 H823 H 0.59367 0.91187 0.85009
   
