data_POSCAR
  _audit_creation_date              2014-09-24
  _audit_creation_method            'ToBaCCo'
  _symmetry_space_group_name_H-M    'P1'
  _symmetry_Int_Tables_number       1
  _symmetry_cell_setting            triclinic
  loop_
  _symmetry_equiv_pos_as_xyz
 x,y,z
_cell_length_a 19.4416
_cell_length_b 19.2247
_cell_length_c 19.9354
_cell_angle_alpha 85.545300
_cell_angle_beta 94.066900
_cell_angle_gamma 90.706700
loop_
  _atom_site_label
  _atom_site_type_symbol
  _atom_site_fract_x
  _atom_site_fract_y
  _atom_site_fract_z
C1 C -0.02860 0.43105 0.21223
 C2 C 0.04696 0.44754 0.23085
 C3 C 0.05705 0.49876 0.27417
 C4 C -0.01059 0.52983 0.29374
 C5 C -0.06006 0.41514 0.27998
 C6 C -0.05177 0.46688 0.32245
 C7 C -0.06053 0.50055 0.18406
 C8 C -0.04983 0.55259 0.22615
 H9 H 0.08869 0.41833 0.21352
 H10 H -0.00441 0.57191 0.32875
 H11 H -0.09782 0.37379 0.28765
 H12 H -0.08217 0.51002 0.13265
 C13 C 0.03864 0.45760 0.78171
 C14 C -0.02842 0.45995 0.74457
 C15 C -0.04126 0.52044 0.69972
 C16 C 0.01916 0.56751 0.69716
 C17 C 0.08586 0.46260 0.72845
 C18 C 0.07721 0.52329 0.68291
 C19 C 0.04511 0.52421 0.81350
 C20 C 0.03312 0.58575 0.76713
 H21 H -0.06644 0.41855 0.74955
 H22 H 0.01220 0.61148 0.65831
 H23 H 0.12623 0.42536 0.72380
 H24 H 0.05353 0.52679 0.86756
 C25 C 0.18709 -0.01298 0.46039
 C26 C 0.23451 0.05098 0.46333
 C27 C 0.27916 0.04997 0.51882
 C28 C 0.27352 -0.01603 0.56731
 C29 C 0.23625 -0.07450 0.46747
 C30 C 0.28015 -0.07708 0.52322
 C31 C 0.15182 -0.01651 0.52765
 C32 C 0.19756 -0.01873 0.58362
 H33 H 0.23013 0.09595 0.42704
 H34 H 0.31111 -0.01717 0.61201
 H35 H 0.23395 -0.11538 0.43279
 H36 H 0.09642 -0.01694 0.53054
 C37 C 0.80172 -0.02775 0.43107
 C38 C 0.73371 -0.05861 0.42916
 C39 C 0.69522 -0.04893 0.48620
 C40 C 0.73013 -0.00048 0.53070
 C41 C 0.78894 0.04967 0.43441
 C42 C 0.75122 0.06532 0.48602
 C43 C 0.83688 -0.05155 0.50047
 C44 C 0.79948 -0.03642 0.55269
 H45 H 0.71977 -0.09926 0.39562
 H46 H 0.69936 0.01159 0.57320
 H47 H 0.80574 0.08792 0.39621
 H48 H 0.88855 -0.07197 0.50859
 C49 C 0.43182 0.21800 1.01213
 C50 C 0.43340 0.26550 1.06529
 C51 C 0.49053 0.31259 1.06615
 C52 C 0.53761 0.30272 1.01313
 C53 C 0.43507 0.26251 0.95084
 C54 C 0.49399 0.30818 0.94896
 C55 C 0.49837 0.18213 1.02097
 C56 C 0.55707 0.22880 1.02195
 H57 H 0.39723 0.26256 1.10449
 H58 H 0.58154 0.34002 1.01391
 H59 H 0.39920 0.25619 0.90742
 H60 H 0.50407 0.12608 1.02820
 C61 C 0.42600 0.78166 0.96589
 C62 C 0.44569 0.75056 0.90149
 C63 C 0.50569 0.71480 0.90815
 C64 C 0.54256 0.71392 0.97921
 C65 C 0.42758 0.71964 1.01874
 C66 C 0.48935 0.68570 1.02938
 C67 C 0.48543 0.82430 0.98600
 C68 C 0.54996 0.78730 0.99185
 H69 H 0.41776 0.75864 0.85279
 H70 H 0.59149 0.68425 0.98373
 H71 H 0.38621 0.71116 1.05220
 H72 H 0.48205 0.88006 0.98957
 B73 B 0.97767 1.07091 0.04290
 B74 B 0.98029 1.07721 -0.04248
 B75 B 1.05363 1.05597 0.00598
 B76 B 1.03019 1.00553 0.07568
 B77 B 0.94222 0.99236 0.06697
 B78 B 0.91181 1.03701 -0.00585
 B79 B 0.99925 0.93225 -0.03747
 B80 B 0.99631 0.92963 0.04867
 B81 B 0.92374 0.94822 -0.00270
 B82 B 0.94585 1.00032 -0.07075
 B83 B 1.03251 1.01207 -0.06422
 B84 B 1.06476 0.96803 0.01027
 B85 B 0.58339 0.49929 0.46265
 B86 B 0.57503 0.49366 0.54819
 B87 B 0.55161 0.56821 0.49925
 B88 B 0.51306 0.54326 0.42242
 B89 B 0.51770 0.45473 0.42590
 B90 B 0.55358 0.42360 0.50400
 B91 B 0.43218 0.49184 0.52313
 B92 B 0.44188 0.49473 0.44002
 B93 B 0.46713 0.42096 0.48834
 B94 B 0.50110 0.44768 0.56425
 B95 B 0.50102 0.53580 0.56139
 B96 B 0.46424 0.56694 0.48486
 C97 C 0.95429 1.25043 0.15965
 C98 C 0.96041 1.25929 0.09004
 N99 N 0.96760 1.32455 0.05995
 C100 C 0.96943 1.38127 0.09690
 C101 C 0.96284 1.37215 0.16698
 N102 N 0.95566 1.30656 0.19614
 N103 N 0.95157 1.18569 0.19066
 C104 C 0.95633 1.12884 0.15546
 C105 C 0.96491 1.13655 0.08550
 N106 N 0.96453 1.20226 0.05469
 H107 H 0.97759 1.43245 0.07209
 H108 H 0.95745 1.07910 0.18370
 C109 C 0.99782 0.73305 0.17337
 C110 C 0.93861 0.75607 0.13418
 N111 N 0.88194 0.71425 0.13042
 C112 C 0.88253 0.64947 0.16300
 C113 C 0.94245 0.62576 0.20101
 N114 N 0.99841 0.66859 0.20594
 N115 N 1.05546 0.77333 0.17418
 C116 C 1.05684 0.83551 0.13704
 C117 C 0.99776 0.85900 0.09695
 N118 N 0.94006 0.81819 0.09745
 H119 H 0.83759 0.61601 0.15772
 H120 H 1.10437 0.86463 0.13731
 C121 C 0.98427 1.29692 -0.12432
 C122 C 1.04352 1.25642 -0.11943
 N123 N 1.10421 1.28690 -0.13577
 C124 C 1.10695 1.35507 -0.16079
 C125 C 1.04538 1.39445 -0.17241
 N126 N 0.98670 1.36404 -0.14974
 N127 N 0.92362 1.26731 -0.10896
 C128 C 0.91933 1.19896 -0.08746
 C129 C 0.97872 1.15653 -0.07997
 N130 N 1.03938 1.18755 -0.09766
 H131 H 1.15614 1.37691 -0.17398
 H132 H 0.86957 1.18052 -0.07636
 C133 C 1.03772 0.72933 -0.12098
 C134 C 1.01144 0.78557 -0.16341
 N135 N 0.99538 0.77584 -0.22938
 C136 C 1.00351 0.71254 -0.25441
 C137 C 1.02786 0.65444 -0.21112
 N138 N 1.04470 0.66567 -0.14522
 N139 N 1.05680 0.73930 -0.05612
 C140 C 1.04812 0.80184 -0.03089
 C141 C 1.01645 0.85846 -0.07093
 N142 N 1.00120 0.84842 -0.13761
 H143 H 0.98897 0.70862 -0.30707
 H144 H 1.07012 0.80708 0.01884
 C145 C 1.12209 1.02980 0.28108
 C146 C 1.08724 0.96860 0.26559
 N147 N 1.07816 0.91777 0.31552
 C148 C 1.10335 0.92533 0.38013
 C149 C 1.14178 0.98549 0.39524
 N150 N 1.14919 1.03649 0.34478
 N151 N 1.12981 1.08110 0.23185
 C152 C 1.10395 1.07411 0.16767
 C153 C 1.06860 1.01268 0.15048
 N154 N 1.06196 0.96155 0.20107
 H155 H 1.09727 0.88309 0.41847
 H156 H 1.10754 1.11821 0.13258
 C157 C 1.10691 1.02259 -0.26725
 C158 C 1.14095 0.98060 -0.21475
 N159 N 1.19359 0.93965 -0.22904
 C160 C 1.21309 0.93884 -0.29336
 C161 C 1.17710 0.97930 -0.34630
 N162 N 1.12496 1.02046 -0.33149
 N163 N 1.05597 1.06486 -0.25344
 C164 C 1.03621 1.06639 -0.18995
 C165 C 1.06729 1.02213 -0.13629
 N166 N 1.11972 0.98046 -0.15090
 H167 H 1.25581 0.90653 -0.30299
 H168 H 0.99320 1.09897 -0.18396
 C169 C 0.83165 0.97684 0.25043
 C170 C 0.89589 0.94580 0.24915
 N171 N 0.92860 0.91917 0.30779
 C172 C 0.90053 0.92442 0.36786
 C173 C 0.83696 0.95874 0.36886
 N174 N 0.80401 0.98256 0.30951
 N175 N 0.79865 1.00355 0.19288
 C176 C 0.82884 1.00456 0.13403
 C177 C 0.89660 0.97924 0.13193
 N178 N 0.92662 0.94765 0.19007
 H179 H 0.92835 0.90297 0.41334
 H180 H 0.79766 1.02344 0.09105
 C181 C 0.84138 1.00305 -0.27196
 C182 C 0.88208 0.94626 -0.24608
 N183 N 0.89365 0.89421 -0.28610
 C184 C 0.86675 0.89717 -0.35116
 C185 C 0.82615 0.95458 -0.37684
 N186 N 0.81403 1.00570 -0.33620
 N187 N 0.83245 1.05649 -0.23361
 C188 C 0.86295 1.05615 -0.17053
 C189 C 0.90371 0.99938 -0.14306
 N190 N 0.91175 0.94574 -0.18234
 H191 H 0.87703 0.85543 -0.38242
 H192 H 0.85484 1.10011 -0.14312
 C193 C 1.24741 1.17501 0.01346
 C194 C 1.24435 1.10742 -0.00722
 N195 N 1.30328 1.07572 -0.02089
 C196 C 1.36561 1.10859 -0.01375
 C197 C 1.36945 1.17633 0.00943
 N198 N 1.30910 1.20775 0.02063
 N199 N 1.18870 1.20701 0.02642
 C200 C 1.12697 1.17329 0.02191
 C201 C 1.12326 1.10337 0.00509
 N202 N 1.18263 1.07383 -0.01149
 H203 H 1.41083 1.08242 -0.02746
 H204 H 1.08240 1.20066 0.03346
 C205 C 0.70237 1.12093 -0.00998
 C206 C 0.75824 1.15562 0.02106
 N207 N 0.74689 1.21538 0.05065
 C208 C 0.68207 1.24177 0.05060
 C209 C 0.62520 1.20480 0.02265
 N210 N 0.63740 1.14488 -0.00671
 N211 N 0.71398 1.06493 -0.04459
 C212 C 0.77881 1.04074 -0.04828
 C213 C 0.83547 1.07148 -0.01285
 N214 N 0.82284 1.12897 0.02088
 H215 H 0.67497 1.28923 0.07504
 H216 H 0.78505 0.99632 -0.07708
 C217 C 1.27385 0.88136 0.01574
 C218 C 1.22513 0.87342 -0.03810
 N219 N 1.24188 0.83808 -0.09060
 C220 C 1.30545 0.81014 -0.09209
 C221 C 1.35605 0.81838 -0.03851
 N222 N 1.33799 0.85372 0.01456
 N223 N 1.25575 0.91569 0.06874
 C224 C 1.19115 0.94224 0.07016
 C225 C 1.14141 0.93433 0.01586
 N226 N 1.16117 0.90020 -0.03679
 H227 H 1.31408 0.78000 -0.13393
 H228 H 1.18025 0.97047 0.11252
 C229 C 0.73370 0.82438 -0.01554
 C230 C 0.74166 0.88085 0.02421
 N231 N 0.68640 0.90609 0.05215
 C232 C 0.62276 0.87738 0.04166
 C233 C 0.61451 0.81882 0.00363
 N234 N 0.67085 0.79328 -0.02338
 N235 N 0.78780 0.80465 -0.04914
 C236 C 0.84908 0.84006 -0.04573
 C237 C 0.85735 0.89721 -0.00557
 N238 N 0.80325 0.91378 0.02945
 H239 H 0.57979 0.89876 0.06473
 H240 H 0.88939 0.82401 -0.07507
 C241 C 0.78519 0.51971 0.38063
 C242 C 0.77218 0.46612 0.43000
 N243 N 0.82194 0.41834 0.44967
 C244 C 0.88323 0.42089 0.42043
 C245 C 0.89512 0.47378 0.36965
 N246 N 0.84600 0.52239 0.35190
 N247 N 0.73554 0.56623 0.35935
 C248 C 0.67234 0.56042 0.38344
 C249 C 0.65718 0.50545 0.43144
 N250 N 0.70888 0.46083 0.45479
 H251 H 0.92076 0.38016 0.43393
 H252 H 0.63818 0.60384 0.37198
 C253 C 0.24115 0.47545 0.32924
 C254 C 0.25657 0.53349 0.36578
 N255 N 0.20676 0.58155 0.37055
 C256 C 0.14209 0.57344 0.34069
 C257 C 0.12657 0.51429 0.30465
 N258 N 0.17722 0.46732 0.29988
 N259 N 0.28923 0.42612 0.32607
 C260 C 0.35265 0.43207 0.35761
 C261 C 0.37041 0.49079 0.39350
 N262 N 0.32041 0.53956 0.39748
 H263 H 0.10383 0.61277 0.34517
 H264 H 0.38695 0.38953 0.35592
 C265 C 0.77940 0.48046 0.65283
 C266 C 0.75301 0.54454 0.62697
 N267 N 0.79615 0.60091 0.62194
 C268 C 0.86474 0.59562 0.64238
 C269 C 0.89102 0.53097 0.67044
 N270 N 0.84655 0.47560 0.67427
 N271 N 0.73813 0.42331 0.65477
 C272 C 0.67186 0.42671 0.62859
 C273 C 0.64476 0.49040 0.59850
 N274 N 0.68616 0.54792 0.60191
 H275 H 0.89705 0.64165 0.63857
 H276 H 0.64219 0.37930 0.63046
 C277 C 0.21577 0.48943 0.57905
 C278 C 0.25666 0.54875 0.58611
 N279 N 0.23024 0.60454 0.61356
 C280 C 0.16580 0.60180 0.63723
 C281 C 0.12827 0.53864 0.63759
 N282 N 0.15416 0.48475 0.60679
 N283 N 0.23947 0.43604 0.54708
 C284 C 0.30430 0.43740 0.52583
 C285 C 0.35078 0.49172 0.54218
 N286 N 0.32315 0.54798 0.56852
 H287 H 0.14780 0.64550 0.66219
 H288 H 0.31753 0.39728 0.49499
 C289 C 0.47431 0.62835 0.20971
 C290 C 0.53688 0.59588 0.22984
 N291 N 0.58348 0.58928 0.18267
 C292 C 0.57012 0.61502 0.11692
 C293 C 0.50682 0.64849 0.09718
 N294 N 0.46100 0.65317 0.14501
 N295 N 0.42777 0.63632 0.25520
 C296 C 0.44064 0.61362 0.32059
 C297 C 0.50396 0.58148 0.34420
 N298 N 0.54966 0.57192 0.29607
 H299 H 0.60864 0.60999 0.08112
 H300 H 0.40068 0.62155 0.35312
 C301 C 0.48542 0.61242 0.76118
 C302 C 0.54139 0.63354 0.72374
 N303 N 0.59040 0.67598 0.75176
 C304 C 0.58448 0.69891 0.81454
 C305 C 0.52672 0.67876 0.85050
 N306 N 0.47927 0.63568 0.82247
 N307 N 0.43646 0.57043 0.73530
 C308 C 0.43980 0.54864 0.67310
 C309 C 0.49431 0.56989 0.63280
 N310 N 0.54496 0.61165 0.66022
 H311 H 0.62221 0.73516 0.83453
 H312 H 0.40210 0.51101 0.65881
 C313 C 0.54799 0.38029 0.22570
 C314 C 0.48893 0.41649 0.23859
 N315 N 0.43691 0.42591 0.19006
 C316 C 0.44002 0.39817 0.12988
 C317 C 0.49794 0.35916 0.11693
 N318 N 0.55154 0.35229 0.16511
 N319 N 0.59834 0.36926 0.27600
 C320 C 0.59148 0.39123 0.33866
 C321 C 0.53068 0.42509 0.35310
 N322 N 0.48248 0.43817 0.30088
 H323 H 0.39605 0.40359 0.09336
 H324 H 0.63375 0.38293 0.37542
 C325 C 0.47014 0.36235 0.77050
 C326 C 0.53306 0.39274 0.75549
 N327 N 0.58288 0.39890 0.80652
 C328 C 0.57237 0.37467 0.87159
 C329 C 0.50898 0.34217 0.88610
 N330 N 0.46000 0.33844 0.83426
 N331 N 0.41939 0.35724 0.72142
 C332 C 0.42877 0.38033 0.65694
 C333 C 0.49253 0.40933 0.63913
 N334 N 0.54262 0.41610 0.69035
 H335 H 0.61367 0.37896 0.91030
 H336 H 0.38438 0.38094 0.62241
 C337 C 0.66548 0.76672 0.51465
 C338 C 0.59689 0.76242 0.53054
 N339 N 0.56362 0.82238 0.54120
 C340 C 0.59576 0.88623 0.53343
 C341 C 0.66341 0.88977 0.51231
 N342 N 0.69640 0.82910 0.50618
 N343 N 0.69896 0.70931 0.50147
 C344 C 0.66599 0.64754 0.49920
 C345 C 0.59495 0.64137 0.50940
 N346 N 0.56351 0.69950 0.52876
 H347 H 0.56739 0.93332 0.53887
 H348 H 0.69788 0.60429 0.49290
 C349 C 0.64952 0.21614 0.52920
 C350 C 0.68091 0.27207 0.49344
 N351 N 0.73901 0.26095 0.46238
 C352 C 0.76545 0.19583 0.46316
 C353 C 0.73082 0.13820 0.49446
 N354 N 0.67444 0.15048 0.52839
 N355 N 0.59307 0.22807 0.56223
 C356 C 0.56494 0.29261 0.55866
 C357 C 0.59197 0.34827 0.51717
 N358 N 0.65129 0.33607 0.48807
 H359 H 0.81235 0.18957 0.43836
 H360 H 0.52085 0.29871 0.58690
 C361 C 0.38971 0.78015 0.48958
 C362 C 0.36980 0.72725 0.53657
 N363 N 0.32859 0.74298 0.58546
 C364 C 0.30493 0.80910 0.58779
 C365 C 0.32301 0.86136 0.53874
 N366 N 0.36548 0.84536 0.49123
 N367 N 0.43134 0.76533 0.44152
 C368 C 0.45296 0.69941 0.43718
 C369 C 0.43020 0.64383 0.48145
 N370 N 0.39083 0.66087 0.53156
 H371 H 0.26813 0.81925 0.62393
 H372 H 0.49309 0.69290 0.40383
 C373 C 0.38731 0.20483 0.48226
 C374 C 0.37594 0.24454 0.53600
 N375 N 0.34042 0.21612 0.58790
 C376 C 0.31401 0.15011 0.58704
 C377 C 0.32210 0.11176 0.53098
 N378 N 0.35917 0.14016 0.48015
 N379 N 0.42473 0.23226 0.43196
 C380 C 0.44994 0.29842 0.43201
 C381 C 0.43445 0.34195 0.48313
 N382 N 0.39953 0.31139 0.53475
 H383 H 0.28336 0.12959 0.62743
 H384 H 0.48168 0.31502 0.39228
   
