data_POSCAR
  _audit_creation_date              2014-09-24
  _audit_creation_method            'ToBaCCo'
  _symmetry_space_group_name_H-M    'P1'
  _symmetry_Int_Tables_number       1
  _symmetry_cell_setting            triclinic
  loop_
  _symmetry_equiv_pos_as_xyz
 x,y,z
_cell_length_a 32.2685
_cell_length_b 32.2535
_cell_length_c 32.2047
_cell_angle_alpha 90.110000
_cell_angle_beta 90.132600
_cell_angle_gamma 89.990400
loop_
  _atom_site_label
  _atom_site_type_symbol
  _atom_site_fract_x
  _atom_site_fract_y
  _atom_site_fract_z
O1 O 0.55854 0.10325 0.00393
 O2 O 0.60434 0.04894 0.00165
 C3 C 0.59591 0.08824 0.00354
 O4 O 0.44276 -0.00341 0.10605
 O5 O 0.39690 -0.00175 0.05161
 C6 C 0.40538 -0.00321 0.09098
 O7 O 0.55891 0.00223 0.10575
 O8 O 0.60465 0.00005 0.05157
 C9 C 0.59645 0.00183 0.09102
 O10 O 0.44223 0.10294 -0.00190
 O11 O 0.39629 0.04870 -0.00001
 C12 C 0.40482 0.08797 -0.00184
 Zr13 Zr 0.50051 0.07278 0.00119
 O14 O 0.49574 0.11930 0.04741
 O15 O 0.50522 0.11888 -0.04528
 Zr16 Zr 0.50066 -0.00071 0.07547
 O17 O 0.49600 0.04596 0.12155
 O18 O 0.50548 -0.04668 0.12206
 O19 O 0.53765 0.04188 0.04422
 O20 O 0.46447 0.04150 0.04366
 O21 O 0.44278 0.00170 -0.10348
 O22 O 0.39691 -0.00006 -0.04928
 C23 C 0.40540 0.00158 -0.08860
 O24 O 0.55816 -0.10587 -0.00115
 O25 O 0.60398 -0.05164 0.00072
 C26 C 0.59552 -0.09093 -0.00103
 O27 O 0.44251 -0.10564 0.00440
 O28 O 0.39681 -0.05133 0.00221
 C29 C 0.40519 -0.09062 0.00399
 O30 O 0.55889 -0.00440 -0.10266
 O31 O 0.60470 -0.00241 -0.04814
 C32 C 0.59626 -0.00412 -0.08753
 Zr33 Zr 0.50064 -0.00159 -0.07263
 O34 O 0.49577 -0.04869 -0.11829
 O35 O 0.50555 0.04392 -0.11964
 Zr36 Zr 0.50037 -0.07507 0.00159
 O37 O 0.49548 -0.12144 -0.04480
 O38 O 0.50511 -0.12096 0.04830
 Zr39 Zr 0.56241 -0.00117 0.00162
 Zr40 Zr 0.43854 -0.00101 0.00127
 O41 O 0.46431 -0.04363 -0.04099
 O42 O 0.53759 -0.04416 -0.04115
 O43 O 0.46358 0.04142 -0.04166
 O44 O 0.53660 -0.04335 0.04406
 O45 O 0.53660 0.04096 -0.04105
 O46 O 0.46344 -0.04356 0.04427
 H47 H 0.44574 0.05882 0.06079
 H48 H 0.55536 -0.06049 0.06135
 H49 H 0.44554 -0.06085 -0.05826
 H50 H 0.55523 0.05810 -0.05838
 H51 H 0.48250 -0.06652 0.11775
 H52 H 0.48189 -0.11668 0.06784
 H53 H 0.51850 -0.11723 -0.06456
 H54 H 0.51978 -0.06744 -0.11483
 H55 H 0.48354 0.06467 -0.11466
 H56 H 0.48189 0.11481 -0.06483
 H57 H 0.51892 0.11523 0.06712
 H58 H 0.51931 0.06541 0.11744
 O59 O -0.00225 0.55654 -0.10558
 O60 O -0.00067 0.60241 -0.05118
 C61 C -0.00228 0.59393 -0.09054
 O62 O -0.10402 0.44082 0.00175
 O63 O -0.04982 0.39495 0.00009
 C64 C -0.08907 0.40344 0.00179
 O65 O -0.10382 0.55682 -0.00383
 O66 O -0.04965 0.60275 -0.00112
 C67 C -0.08890 0.59423 -0.00323
 O68 O 0.00359 0.44054 -0.10531
 O69 O 0.00074 0.39467 -0.05127
 C70 C 0.00284 0.40297 -0.09068
 Zr71 Zr 0.00058 0.49868 -0.07485
 O72 O -0.04568 0.49383 -0.12134
 O73 O 0.04697 0.50344 -0.12098
 Zr74 Zr -0.07337 0.49871 -0.00132
 O75 O -0.11895 0.49384 -0.04850
 O76 O -0.12021 0.50347 0.04436
 O77 O -0.04219 0.53586 -0.04386
 O78 O -0.04174 0.46248 -0.04355
 O79 O 0.10506 0.44093 -0.00345
 O80 O 0.05091 0.39501 -0.00217
 C81 C 0.09016 0.40353 -0.00367
 O82 O 0.00268 0.55688 0.10369
 O83 O 0.00033 0.60276 0.04943
 C84 C 0.00207 0.59428 0.08877
 O85 O -0.00277 0.44085 0.10372
 O86 O -0.00067 0.39492 0.04937
 C87 C -0.00260 0.40345 0.08870
 O88 O 0.10492 0.55669 0.00256
 O89 O 0.05071 0.60253 0.00053
 C90 C 0.08997 0.59407 0.00230
 Zr91 Zr 0.07430 0.49879 -0.00032
 O92 O 0.11987 0.49398 0.04685
 O93 O 0.12100 0.50357 -0.04612
 Zr94 Zr 0.00025 0.49873 0.07312
 O95 O 0.04676 0.49402 0.11937
 O96 O -0.04596 0.50346 0.11945
 Zr97 Zr 0.00043 0.56081 -0.00079
 Zr98 Zr 0.00053 0.43659 -0.00099
 O99 O 0.04267 0.46250 0.04174
 O100 O 0.04300 0.53595 0.04229
 O101 O 0.04333 0.46167 -0.04349
 O102 O -0.04200 0.53477 0.04134
 O103 O 0.04287 0.53485 -0.04298
 O104 O -0.04233 0.46165 0.04160
 H105 H -0.05901 0.44377 -0.06084
 H106 H -0.05941 0.55325 0.05864
 H107 H 0.05983 0.44373 0.05900
 H108 H 0.06010 0.55356 -0.06015
 H109 H -0.11541 0.48113 0.06481
 H110 H -0.06584 0.48055 0.11493
 H111 H 0.06582 0.51775 0.11583
 H112 H 0.11609 0.51771 0.06597
 H113 H 0.11627 0.48114 -0.06655
 H114 H 0.06662 0.48027 -0.11674
 H115 H -0.06550 0.51680 -0.11700
 H116 H -0.11568 0.51794 -0.06715
 O117 O 0.10392 -0.00297 0.44248
 O118 O 0.04968 -0.00136 0.39643
 C119 C 0.08896 -0.00290 0.40501
 O120 O -0.00314 -0.10442 0.55820
 O121 O -0.00043 -0.05018 0.60424
 C122 C -0.00251 -0.08946 0.59567
 O123 O 0.00202 -0.10443 0.44193
 O124 O -0.00074 -0.05024 0.39601
 C125 C 0.00124 -0.08951 0.40449
 O126 O 0.10377 0.00292 0.55849
 O127 O 0.04968 0.00020 0.60440
 C128 C 0.08891 0.00226 0.59593
 Zr129 Zr 0.07327 0.00005 0.50033
 O130 O 0.11969 -0.04612 0.50507
 O131 O 0.11932 0.04656 0.49567
 Zr132 Zr -0.00046 -0.07397 0.50014
 O133 O 0.04616 -0.11996 0.50481
 O134 O -0.04655 -0.12047 0.49540
 O135 O 0.04212 -0.04276 0.46304
 O136 O 0.04187 -0.04232 0.53636
 O137 O 0.00202 0.10438 0.55842
 O138 O -0.00051 0.05022 0.60434
 C139 C 0.00141 0.08949 0.59586
 O140 O -0.10500 0.00251 0.44202
 O141 O -0.05089 -0.00014 0.39607
 C142 C -0.09013 0.00184 0.40456
 O143 O -0.10482 -0.00276 0.55835
 O144 O -0.05050 -0.00004 0.60432
 C145 C -0.08978 -0.00202 0.59582
 O146 O -0.00348 0.10426 0.44209
 O147 O -0.00087 0.04996 0.39614
 C148 C -0.00296 0.08923 0.40463
 Zr149 Zr -0.00064 0.07386 0.50024
 O150 O -0.04692 0.12018 0.50485
 O151 O 0.04574 0.12005 0.49562
 Zr152 Zr -0.07445 -0.00030 0.50020
 O153 O -0.12109 0.04564 0.50483
 O154 O -0.12035 -0.04700 0.49543
 Zr155 Zr -0.00070 -0.00007 0.43807
 Zr156 Zr -0.00050 -0.00000 0.56235
 O157 O -0.04291 0.04225 0.53628
 O158 O -0.04348 0.04259 0.46308
 O159 O 0.04215 0.04280 0.53752
 O160 O -0.04289 -0.04252 0.46401
 O161 O 0.04167 0.04230 0.46409
 O162 O -0.04319 -0.04291 0.53740
 H163 H 0.05922 -0.05960 0.55494
 H164 H -0.06025 -0.05987 0.44544
 H165 H -0.06025 0.05958 0.55481
 H166 H 0.05895 0.05949 0.44544
 H167 H -0.06643 -0.11598 0.51829
 H168 H -0.11657 -0.06606 0.51916
 H169 H -0.11648 0.06577 0.48218
 H170 H -0.06661 0.11587 0.48167
 H171 H 0.06515 0.11611 0.51909
 H172 H 0.11509 0.06620 0.51891
 H173 H 0.11502 -0.06624 0.48233
 H174 H 0.06518 -0.11629 0.48107
 C175 C -0.30318 0.17565 0.00890
 C176 C -0.34449 0.18931 0.00744
 C177 C -0.37704 0.16092 0.00561
 C178 C -0.36916 0.11806 0.00510
 C179 C -0.32779 0.10429 0.00630
 C180 C -0.29512 0.13282 0.00810
 C181 C -0.26895 0.20634 0.01101
 C182 C -0.23301 0.20141 -0.01310
 C183 C -0.20233 0.23211 -0.01326
 C184 C -0.20703 0.26829 0.01069
 C185 C -0.24227 0.27242 0.03590
 C186 C -0.27283 0.24184 0.03606
 C187 C -0.17638 0.30253 0.00826
 C188 C -0.19006 0.34385 0.00660
 C189 C -0.16171 0.37640 0.00442
 C190 C -0.11887 0.36852 0.00378
 C191 C -0.10509 0.32714 0.00522
 C192 C -0.13358 0.29447 0.00736
 H193 H -0.35169 0.22210 0.00722
 H194 H -0.40844 0.17272 0.00451
 H195 H -0.32062 0.07148 0.00608
 H196 H -0.26360 0.12138 0.00949
 H197 H -0.22931 0.17454 -0.03296
 H198 H -0.17565 0.22820 -0.03322
 H199 H -0.24633 0.29951 0.05539
 H200 H -0.29972 0.24610 0.05567
 H201 H -0.22284 0.35103 0.00646
 H202 H -0.17351 0.40780 0.00312
 H203 H -0.07230 0.31996 0.00489
 H204 H -0.12214 0.26295 0.00890
 C205 C 0.30452 0.82163 0.00334
 C206 C 0.29634 0.86438 0.00114
 C207 C 0.32891 0.89308 0.00182
 C208 C 0.37027 0.87954 0.00486
 C209 C 0.37820 0.83680 0.00793
 C210 C 0.34577 0.80826 0.00719
 C211 C 0.27054 0.79069 0.00121
 C212 C 0.27567 0.75425 -0.02216
 C213 C 0.24513 0.72368 -0.02236
 C214 C 0.20866 0.72875 0.00082
 C215 C 0.20278 0.76580 0.02312
 C216 C 0.23346 0.79652 0.02331
 C217 C 0.17773 0.69473 0.00254
 C218 C 0.13500 0.70293 0.00029
 C219 C 0.10632 0.67036 0.00065
 C220 C 0.11984 0.62896 0.00340
 C221 C 0.16256 0.62100 0.00647
 C222 C 0.19109 0.65344 0.00607
 H223 H 0.26485 0.87556 -0.00204
 H224 H 0.32170 0.92578 -0.00056
 H225 H 0.40959 0.82520 0.01068
 H226 H 0.35300 0.77558 0.00981
 H227 H 0.30347 0.74930 -0.04030
 H228 H 0.25012 0.69591 -0.04064
 H229 H 0.17508 0.77046 0.04146
 H230 H 0.22875 0.82420 0.04178
 H231 H 0.12382 0.73445 -0.00265
 H232 H 0.07362 0.67760 -0.00173
 H233 H 0.17414 0.58959 0.00900
 H234 H 0.22376 0.64619 0.00873
 C235 C 0.30411 0.17553 -0.00841
 C236 C 0.29597 0.13272 -0.00744
 C237 C 0.32858 0.10414 -0.00526
 C238 C 0.36996 0.11785 -0.00381
 C239 C 0.37791 0.16070 -0.00447
 C240 C 0.34543 0.18912 -0.00670
 C241 C 0.26994 0.20625 -0.01094
 C242 C 0.27405 0.24150 -0.03615
 C243 C 0.24352 0.27212 -0.03639
 C244 C 0.20810 0.26827 -0.01141
 C245 C 0.20318 0.23233 0.01272
 C246 C 0.23383 0.20160 0.01296
 C247 C 0.17747 0.30256 -0.00937
 C248 C 0.13467 0.29454 -0.00872
 C249 C 0.10618 0.32724 -0.00689
 C250 C 0.11997 0.36861 -0.00546
 C251 C 0.16281 0.37647 -0.00586
 C252 C 0.19116 0.34388 -0.00776
 H253 H 0.26444 0.12134 -0.00902
 H254 H 0.32135 0.07136 -0.00498
 H255 H 0.40933 0.17244 -0.00324
 H256 H 0.35268 0.22190 -0.00659
 H257 H 0.30109 0.24553 -0.05558
 H258 H 0.24775 0.29903 -0.05599
 H259 H 0.17637 0.22866 0.03253
 H260 H 0.22996 0.17493 0.03294
 H261 H 0.12322 0.26301 -0.01024
 H262 H 0.07340 0.32007 -0.00678
 H263 H 0.17461 0.40788 -0.00463
 H264 H 0.22394 0.35104 -0.00743
 C265 C -0.30363 0.82165 -0.00718
 C266 C -0.29557 0.86447 -0.00625
 C267 C -0.32822 0.89299 -0.00419
 C268 C -0.36958 0.87923 -0.00284
 C269 C -0.37746 0.83637 -0.00344
 C270 C -0.34492 0.80798 -0.00556
 C271 C -0.26940 0.79097 -0.00963
 C272 C -0.27349 0.75566 -0.03492
 C273 C -0.24285 0.72515 -0.03520
 C274 C -0.20734 0.72915 -0.01018
 C275 C -0.20247 0.76514 0.01404
 C276 C -0.23321 0.79578 0.01431
 C277 C -0.17656 0.69497 -0.00824
 C278 C -0.13377 0.70314 -0.00743
 C279 C -0.10515 0.67053 -0.00577
 C280 C -0.11880 0.62911 -0.00474
 C281 C -0.16162 0.62112 -0.00527
 C282 C -0.19009 0.65361 -0.00696
 H283 H -0.26406 0.87590 -0.00776
 H284 H -0.32105 0.92580 -0.00386
 H285 H -0.40885 0.82458 -0.00221
 H286 H -0.35211 0.77519 -0.00543
 H287 H -0.30057 0.75152 -0.05440
 H288 H -0.24707 0.69821 -0.05488
 H289 H -0.17559 0.76893 0.03388
 H290 H -0.22934 0.82251 0.03433
 H291 H -0.12243 0.73471 -0.00869
 H292 H -0.07239 0.67779 -0.00551
 H293 H -0.17333 0.58967 -0.00426
 H294 H -0.22285 0.64632 -0.00673
 C295 C 0.00114 -0.30496 0.17682
 C296 C -0.00117 -0.29684 0.13401
 C297 C -0.00047 -0.32944 0.10524
 C298 C 0.00267 -0.37080 0.11875
 C299 C 0.00575 -0.37869 0.16156
 C300 C 0.00502 -0.34621 0.19018
 C301 C -0.00087 -0.27089 0.20782
 C302 C -0.02392 -0.27605 0.24439
 C303 C -0.02404 -0.24538 0.27496
 C304 C -0.00113 -0.20874 0.26975
 C305 C 0.02085 -0.20285 0.23258
 C306 C 0.02098 -0.23367 0.20188
 C307 C 0.00069 -0.17766 0.30377
 C308 C -0.00182 -0.13495 0.29551
 C309 C -0.00127 -0.10613 0.32809
 C310 C 0.00194 -0.11949 0.36955
 C311 C 0.00522 -0.16220 0.37757
 C312 C 0.00462 -0.19086 0.34512
 H313 H -0.00440 -0.26536 0.12283
 H314 H -0.00288 -0.32226 0.07249
 H315 H 0.00858 -0.41007 0.17313
 H316 H 0.00773 -0.35341 0.22290
 H317 H -0.04186 -0.30396 0.24944
 H318 H -0.04206 -0.25040 0.30283
 H319 H 0.03899 -0.17503 0.22783
 H320 H 0.03921 -0.22893 0.17410
 H321 H -0.00508 -0.12390 0.26394
 H322 H -0.00382 -0.07346 0.32082
 H323 H 0.00809 -0.17367 0.40903
 H324 H 0.00747 -0.22350 0.35242
 C325 C 0.00265 0.30484 0.82367
 C326 C 0.00525 0.34611 0.81025
 C327 C 0.00575 0.37868 0.83875
 C328 C 0.00369 0.37106 0.88188
 C329 C 0.00208 0.32936 0.89527
 C330 C 0.00157 0.29675 0.86649
 C331 C 0.00058 0.27072 0.79271
 C332 C 0.02317 0.23384 0.79827
 C333 C 0.02290 0.20302 0.76757
 C334 C 0.00007 0.20856 0.73075
 C335 C -0.02354 0.24483 0.72593
 C336 C -0.02331 0.27548 0.75650
 C337 C 0.00169 0.17753 0.69669
 C338 C 0.00472 0.19082 0.65530
 C339 C 0.00504 0.16220 0.62281
 C340 C 0.00234 0.11946 0.63081
 C341 C 0.00004 0.10602 0.67230
 C342 C -0.00021 0.13480 0.70493
 H343 H 0.00708 0.35331 0.77747
 H344 H 0.00753 0.40992 0.82656
 H345 H 0.00066 0.32164 0.92796
 H346 H -0.00059 0.26520 0.87773
 H347 H 0.04206 0.22941 0.82574
 H348 H 0.04157 0.17548 0.77202
 H349 H -0.04221 0.24955 0.69834
 H350 H -0.04183 0.30308 0.75175
 H351 H 0.00708 0.22350 0.64802
 H352 H 0.00723 0.17373 0.59134
 H353 H -0.00202 0.07332 0.67957
 H354 H -0.00277 0.12368 0.73653
 C355 C -0.00860 0.30281 0.17630
 C356 C -0.00794 0.29461 0.13342
 C357 C -0.00600 0.32719 0.10481
 C358 C -0.00448 0.36861 0.11858
 C359 C -0.00486 0.37661 0.16149
 C360 C -0.00686 0.34415 0.18994
 C361 C -0.01084 0.26868 0.20706
 C362 C -0.03585 0.27285 0.24247
 C363 C -0.03580 0.24240 0.27316
 C364 C -0.01075 0.20699 0.26922
 C365 C 0.01319 0.20202 0.23312
 C366 C 0.01314 0.23260 0.20231
 C367 C -0.00849 0.17641 0.30354
 C368 C -0.00771 0.13358 0.29547
 C369 C -0.00585 0.10513 0.32821
 C370 C -0.00458 0.11899 0.36966
 C371 C -0.00504 0.16186 0.37754
 C372 C -0.00694 0.19017 0.34492
 H373 H -0.00954 0.26305 0.12200
 H374 H -0.00588 0.31993 0.07196
 H375 H -0.00351 0.40805 0.17328
 H376 H -0.00652 0.35143 0.22278
 H377 H -0.05533 0.29989 0.24658
 H378 H -0.05526 0.24667 0.30018
 H379 H 0.03305 0.17522 0.22937
 H380 H 0.03296 0.22869 0.17550
 H381 H -0.00918 0.12207 0.26389
 H382 H -0.00562 0.07231 0.32103
 H383 H -0.00383 0.17373 0.40900
 H384 H -0.00669 0.22298 0.35211
 C385 C -0.00790 -0.30495 0.82232
 C386 C -0.00612 -0.34623 0.80845
 C387 C -0.00424 -0.37888 0.83674
 C388 C -0.00404 -0.37111 0.87970
 C389 C -0.00560 -0.32977 0.89367
 C390 C -0.00743 -0.29702 0.86525
 C391 C -0.01007 -0.27058 0.79178
 C392 C 0.01372 -0.23442 0.79706
 C393 C 0.01369 -0.20352 0.76658
 C394 C -0.01013 -0.20821 0.73027
 C395 C -0.03500 -0.24370 0.72579
 C396 C -0.03495 -0.27450 0.75614
 C397 C -0.00789 -0.17731 0.69622
 C398 C -0.00624 -0.19075 0.65476
 C399 C -0.00438 -0.16222 0.62236
 C400 C -0.00402 -0.11939 0.63052
 C401 C -0.00536 -0.10581 0.67205
 C402 C -0.00719 -0.13451 0.70459
 H403 H -0.00566 -0.35332 0.77557
 H404 H -0.00281 -0.41026 0.82480
 H405 H -0.00558 -0.32267 0.92655
 H406 H -0.00909 -0.26553 0.87685
 H407 H 0.03344 -0.23068 0.82406
 H408 H 0.03340 -0.17666 0.77075
 H409 H -0.05439 -0.24779 0.69860
 H410 H -0.05431 -0.30156 0.75162
 H411 H -0.00589 -0.22351 0.64732
 H412 H -0.00313 -0.17388 0.59083
 H413 H -0.00523 -0.07304 0.67944
 H414 H -0.00871 -0.12324 0.73624
 C415 C 0.30466 0.00214 0.82332
 C416 C 0.29654 -0.00035 0.86611
 C417 C 0.32914 -0.00007 0.89489
 C418 C 0.37051 0.00279 0.88141
 C419 C 0.37841 0.00612 0.83864
 C420 C 0.34592 0.00583 0.81001
 C421 C 0.27059 0.00037 0.79230
 C422 C 0.27568 -0.02254 0.75552
 C423 C 0.24496 -0.02255 0.72501
 C424 C 0.20833 0.00034 0.73047
 C425 C 0.20252 0.02220 0.76782
 C426 C 0.23339 0.02222 0.79847
 C427 C 0.17717 0.00222 0.69654
 C428 C 0.13452 -0.00055 0.70485
 C429 C 0.10564 -0.00013 0.67231
 C430 C 0.11891 0.00321 0.63085
 C431 C 0.16155 0.00684 0.62280
 C432 C 0.19026 0.00636 0.65520
 H433 H 0.26507 -0.00344 0.87725
 H434 H 0.32194 -0.00263 0.92761
 H435 H 0.40979 0.00877 0.82711
 H436 H 0.35313 0.00867 0.77732
 H437 H 0.30355 -0.04050 0.75029
 H438 H 0.24992 -0.04047 0.69698
 H439 H 0.17470 0.04031 0.77276
 H440 H 0.22871 0.04035 0.82640
 H441 H 0.12356 -0.00395 0.73642
 H442 H 0.07302 -0.00292 0.67961
 H443 H 0.17294 0.00987 0.59135
 H444 H 0.22286 0.00944 0.64788
 C445 C -0.30529 0.00187 0.17652
 C446 C -0.34654 0.00388 0.19004
 C447 C -0.37915 0.00433 0.16159
 C448 C -0.37161 0.00278 0.11842
 C449 C -0.32993 0.00172 0.10495
 C450 C -0.29727 0.00130 0.13368
 C451 C -0.27112 -0.00004 0.20743
 C452 C -0.23467 0.02326 0.20225
 C453 C -0.20388 0.02321 0.23300
 C454 C -0.20904 -0.00012 0.26947
 C455 C -0.24485 -0.02445 0.27387
 C456 C -0.27547 -0.02443 0.24325
 C457 C -0.17809 0.00169 0.30361
 C458 C -0.19145 0.00403 0.34502
 C459 C -0.16287 0.00452 0.37757
 C460 C -0.12010 0.00267 0.36959
 C461 C -0.10660 0.00105 0.32808
 C462 C -0.13533 0.00065 0.29541
 H463 H -0.35368 0.00527 0.22285
 H464 H -0.41037 0.00563 0.17385
 H465 H -0.32228 0.00070 0.07222
 H466 H -0.26574 -0.00037 0.12237
 H467 H -0.23057 0.04254 0.17508
 H468 H -0.17670 0.04243 0.22887
 H469 H -0.24926 -0.04350 0.30116
 H470 H -0.30273 -0.04348 0.24769
 H471 H -0.22415 0.00571 0.35230
 H472 H -0.17445 0.00613 0.40906
 H473 H -0.07388 -0.00033 0.32081
 H474 H -0.12416 -0.00135 0.26379
 C475 C 0.30451 -0.00259 0.17845
 C476 C 0.29644 -0.00105 0.13558
 C477 C 0.32909 -0.00168 0.10701
 C478 C 0.37045 -0.00398 0.12079
 C479 C 0.37831 -0.00629 0.16367
 C480 C 0.34578 -0.00563 0.19210
 C481 C 0.27035 -0.00066 0.20921
 C482 C 0.27505 0.02299 0.24559
 C483 C 0.24433 0.02302 0.27596
 C484 C 0.20810 -0.00059 0.27076
 C485 C 0.20264 -0.02316 0.23375
 C486 C 0.23350 -0.02320 0.20324
 C487 C 0.17705 -0.00256 0.30464
 C488 C 0.13432 -0.00087 0.29618
 C489 C 0.10551 -0.00145 0.32865
 C490 C 0.11892 -0.00388 0.37019
 C491 C 0.16165 -0.00642 0.37840
 C492 C 0.19029 -0.00579 0.34608
 H493 H 0.26496 0.00154 0.12417
 H494 H 0.32192 0.00015 0.07420
 H495 H 0.40970 -0.00841 0.17545
 H496 H 0.35295 -0.00770 0.22489
 H497 H 0.30263 0.04146 0.25064
 H498 H 0.24899 0.04150 0.30370
 H499 H 0.17515 -0.04183 0.22901
 H500 H 0.22913 -0.04189 0.17562
 H501 H 0.12323 0.00183 0.26453
 H502 H 0.07282 0.00054 0.32122
 H503 H 0.17316 -0.00867 0.40993
 H504 H 0.22295 -0.00800 0.35354
 C505 C -0.30341 -0.00349 0.82437
 C506 C -0.29504 -0.00126 0.86718
 C507 C -0.32748 -0.00199 0.89601
 C508 C -0.36890 -0.00508 0.88254
 C509 C -0.37700 -0.00825 0.83974
 C510 C -0.34470 -0.00748 0.81108
 C511 C -0.26961 -0.00120 0.79325
 C512 C -0.27512 0.02211 0.75684
 C513 C -0.24475 0.02247 0.72611
 C514 C -0.20805 -0.00046 0.73097
 C515 C -0.20181 -0.02271 0.76797
 C516 C -0.23232 -0.02306 0.79885
 C517 C -0.17726 -0.00198 0.69680
 C518 C -0.13451 0.00034 0.70494
 C519 C -0.10594 0.00000 0.67226
 C520 C -0.11958 -0.00280 0.63080
 C521 C -0.16234 -0.00583 0.62288
 C522 C -0.19076 -0.00545 0.65544
 H523 H -0.26352 0.00201 0.87829
 H524 H -0.32014 0.00043 0.92876
 H525 H -0.40841 -0.01112 0.82820
 H526 H -0.35209 -0.01016 0.77837
 H527 H -0.30309 0.04006 0.75206
 H528 H -0.25005 0.04071 0.69840
 H529 H -0.17394 -0.04087 0.77247
 H530 H -0.22731 -0.04147 0.82649
 H531 H -0.12321 0.00326 0.73648
 H532 H -0.07322 0.00236 0.67947
 H533 H -0.17402 -0.00838 0.59143
 H534 H -0.22344 -0.00814 0.64821
   
