data_POSCAR
  _audit_creation_date              2014-09-24
  _audit_creation_method            'ToBaCCo'
  _symmetry_space_group_name_H-M    'P1'
  _symmetry_Int_Tables_number       1
  _symmetry_cell_setting            triclinic
  loop_
  _symmetry_equiv_pos_as_xyz
 x,y,z
_cell_length_a 30.3173
_cell_length_b 29.3624
_cell_length_c 30.0426
_cell_angle_alpha 87.525600
_cell_angle_beta 87.916100
_cell_angle_gamma 89.117100
loop_
  _atom_site_label
  _atom_site_type_symbol
  _atom_site_fract_x
  _atom_site_fract_y
  _atom_site_fract_z
C1 C 0.15612 0.14904 0.19598
 C2 C 0.13961 0.18844 0.17409
 C3 C 0.16011 0.20509 0.13497
 C4 C 0.19741 0.18240 0.11718
 C5 C 0.21406 0.14387 0.13935
 C6 C 0.19317 0.12687 0.17893
 C7 C 0.14398 0.12673 0.23549
 N8 N 0.17263 0.09145 0.24302
 C9 C 0.20297 0.09117 0.20853
 C10 C 0.25217 0.13120 0.11668
 N11 N 0.25887 0.16067 0.08103
 C12 C 0.22538 0.19203 0.08088
 C13 C 0.13926 0.24563 0.12328
 N14 N 0.10679 0.25386 0.15437
 C15 C 0.10656 0.21893 0.18547
 H16 H 0.11659 0.13604 0.25760
 H17 H 0.23050 0.06748 0.20546
 H18 H 0.27385 0.10294 0.12589
 H19 H 0.22231 0.22069 0.05724
 H20 H 0.14809 0.26833 0.09510
 H21 H 0.08528 0.21674 0.21518
 C22 C -0.14813 0.81822 0.21640
 C23 C -0.15624 0.79828 0.17593
 C24 C -0.19324 0.81133 0.15259
 C25 C -0.22288 0.84390 0.16966
 C26 C -0.21431 0.86403 0.20911
 C27 C -0.17669 0.85131 0.23249
 C28 C -0.11570 0.81145 0.24695
 N29 N -0.12392 0.83989 0.28098
 C30 C -0.16099 0.86461 0.27218
 C31 C -0.24836 0.89399 0.21800
 N32 N -0.27781 0.89225 0.18508
 C33 C -0.26249 0.86167 0.15532
 C34 C -0.19240 0.78722 0.11438
 N35 N -0.15586 0.75984 0.11397
 C36 C -0.13372 0.76602 0.15164
 H37 H -0.08838 0.78744 0.24447
 H38 H -0.17608 0.88963 0.29363
 H39 H -0.25163 0.91481 0.24683
 H40 H -0.27892 0.85301 0.12546
 H41 H -0.21673 0.78940 0.08885
 H42 H -0.10321 0.74880 0.16036
 C43 C -0.14271 0.19454 -0.23881
 C44 C -0.15052 0.21338 -0.19715
 C45 C -0.18259 0.19514 -0.16796
 C46 C -0.20706 0.15760 -0.17993
 C47 C -0.19816 0.13814 -0.22047
 C48 C -0.16603 0.15693 -0.25027
 C49 C -0.11529 0.20672 -0.27462
 N50 N -0.12136 0.17735 -0.30759
 C51 C -0.15215 0.14658 -0.29286
 C52 C -0.22646 0.10234 -0.22330
 N53 N -0.25304 0.10008 -0.18581
 C54 C -0.24149 0.13387 -0.15914
 C55 C -0.18325 0.22049 -0.13050
 N56 N -0.15227 0.25347 -0.13623
 C57 C -0.13220 0.24949 -0.17698
 H58 H -0.09282 0.23507 -0.27635
 H59 H -0.16414 0.11918 -0.31197
 H60 H -0.22824 0.08054 -0.25130
 H61 H -0.25688 0.14061 -0.12695
 H62 H -0.20476 0.21517 -0.10127
 H63 H -0.10637 0.27140 -0.19097
 C64 C 0.14138 0.82531 -0.18328
 C65 C 0.15703 0.78173 -0.16913
 C66 C 0.19201 0.77805 -0.14051
 C67 C 0.21086 0.81719 -0.12451
 C68 C 0.19369 0.85953 -0.13636
 C69 C 0.15915 0.86362 -0.16597
 C70 C 0.11368 0.84075 -0.21663
 N71 N 0.11455 0.88721 -0.21948
 C72 C 0.14159 0.90115 -0.18780
 C73 C 0.21944 0.89153 -0.11827
 N74 N 0.25257 0.86972 -0.09625
 C75 C 0.24755 0.82410 -0.09979
 C76 C 0.20132 0.73255 -0.13322
 N77 N 0.17236 0.70819 -0.15559
 C78 C 0.14512 0.73773 -0.17781
 H79 H 0.09657 0.81972 -0.23898
 H80 H 0.15135 0.93591 -0.18342
 H81 H 0.21562 0.92809 -0.12322
 H82 H 0.26964 0.79795 -0.08656
 H83 H 0.22623 0.71809 -0.11163
 H84 H 0.11838 0.72792 -0.19815
 C85 C 0.17974 1.13706 0.76870
 C86 C 0.21512 1.12258 0.79462
 C87 C 0.22272 1.14317 0.83411
 C88 C 0.19428 1.17813 0.84852
 C89 C 0.15968 1.19304 0.82258
 C90 C 0.15252 1.17243 0.78226
 C91 C 0.16567 1.12402 0.72822
 N92 N 0.13089 1.15103 0.71660
 C93 C 0.12252 1.18071 0.74956
 C94 C 0.13846 1.22810 0.84413
 N95 N 0.15893 1.23422 0.88285
 C96 C 0.19317 1.20379 0.88570
 C97 C 0.26075 1.12377 0.85083
 N98 N 0.27588 1.09187 0.82244
 C99 C 0.24810 1.09082 0.78811
 H100 H 0.18038 1.09759 0.70818
 H101 H 0.09684 1.20670 0.74981
 H102 H 0.11002 1.24741 0.83269
 H103 H 0.21610 1.20067 0.91247
 H104 H 0.27646 1.13241 0.88109
 H105 H 0.25220 1.06940 0.75978
 C106 C 0.82148 0.87505 0.81945
 C107 C 0.80034 0.85730 0.85877
 C108 C 0.81591 0.81723 0.87922
 C109 C 0.85221 0.79396 0.86023
 C110 C 0.87306 0.81152 0.82177
 C111 C 0.85773 0.85219 0.80151
 C112 C 0.81222 0.91138 0.79018
 N113 N 0.84206 0.91046 0.75520
 C114 C 0.86990 0.87447 0.76215
 C115 C 0.90458 0.78025 0.80848
 N116 N 0.90296 0.74370 0.83773
 C117 C 0.87122 0.75193 0.86966
 C118 C 0.78779 0.80663 0.91507
 N119 N 0.75543 0.83901 0.91669
 C120 C 0.76264 0.86996 0.88236
 H121 H 0.78508 0.93553 0.79348
 H122 H 0.89641 0.86425 0.73938
 H123 H 0.92546 0.78311 0.77853
 H124 H 0.86146 0.72831 0.89681
 H125 H 0.78977 0.77664 0.93721
 H126 H 0.74142 0.89902 0.87458
 C127 C 0.16950 0.83459 1.24354
 C128 C 0.20004 0.85443 1.21279
 C129 C 0.20670 0.83645 1.17129
 C130 C 0.18195 0.79928 1.15956
 C131 C 0.15153 0.77964 1.18970
 C132 C 0.14569 0.79714 1.23234
 C133 C 0.15767 0.84405 1.28677
 N134 N 0.12758 0.81301 1.30238
 C135 C 0.12000 0.78414 1.26929
 C136 C 0.13287 0.74393 1.16900
 N137 N 0.15136 0.74180 1.12725
 C138 C 0.18147 0.77546 1.12137
 C139 C 0.23987 0.86076 1.14929
 N140 N 0.25297 0.89330 1.17637
 C141 C 0.22874 0.88993 1.21521
 H142 H 0.17042 0.87124 1.30566
 H143 H 0.09747 0.75584 1.27161
 H144 H 0.10807 0.72098 1.18333
 H145 H 0.20181 0.78220 1.09156
 H146 H 0.25361 0.85517 1.11616
 H147 H 0.23258 0.91091 1.24355
 C148 C 0.80201 1.17278 1.21586
 C149 C 0.76499 1.17360 1.18867
 C150 C 0.74960 1.21502 1.17082
 C151 C 0.77098 1.25550 1.17882
 C152 C 0.80896 1.25446 1.20270
 C153 C 0.82455 1.21290 1.22108
 C154 C 0.82644 1.13791 1.23620
 N155 N 0.86366 1.15611 1.25152
 C156 C 0.86289 1.20168 1.24177
 C157 C 0.82694 1.29743 1.19829
 N158 N 0.80007 1.32433 1.17296
 C159 C 0.76593 1.29891 1.16079
 C160 C 0.72024 1.20605 1.13888
 N161 N 0.71762 1.16041 1.13598
 C162 C 0.74446 1.13993 1.16636
 H163 H 0.81924 1.10187 1.23703
 H164 H 0.88846 1.22520 1.24940
 H165 H 0.85818 1.30775 1.21069
 H166 H 0.74096 1.31025 1.13778
 H167 H 0.70566 1.23085 1.11584
 H168 H 0.75222 1.10379 1.16849
 N169 N 0.54475 1.07094 1.05007
 N170 N 0.57776 1.08134 1.07490
 N171 N 0.45970 1.09021 0.99786
 N172 N 0.42635 1.11676 0.98525
 N173 N 0.45327 1.07536 1.03938
 N174 N 0.41549 1.09095 1.05606
 N175 N 0.55237 1.08458 1.00831
 N176 N 0.59142 1.10408 1.00361
 C177 C 0.60641 1.10216 1.04567
 C178 C 0.39928 1.11696 1.02215
 N179 N 0.47180 1.00328 0.90187
 N180 N 0.43965 0.99524 0.87516
 N181 N 0.56269 1.04126 0.92415
 N182 N 0.59751 1.06291 0.90650
 N183 N 0.56295 0.99881 0.91206
 N184 N 0.59746 0.99057 0.88549
 N185 N 0.46984 1.04563 0.91436
 N186 N 0.43535 1.06719 0.89705
 Mn187 Mn 0.51124 1.06614 0.96084
 C188 C 0.41729 1.03522 0.87228
 C189 C 0.61896 1.03064 0.88273
 N190 N 0.44465 0.98864 1.08531
 N191 N 0.40920 0.99823 1.10989
 N192 N 0.53740 0.94144 1.08337
 N193 N 0.56955 0.91864 1.10343
 N194 N 0.53559 0.98376 1.09587
 N195 N 0.56568 0.99074 1.12527
 N196 N 0.44480 0.94601 1.07386
 N197 N 0.40885 0.92541 1.09029
 Mn198 Mn 0.49450 1.02992 1.06791
 C199 C 0.38707 0.95869 1.11252
 C200 C 0.58652 0.94993 1.12966
 N201 N 0.55411 0.91172 0.95810
 N202 N 0.59276 0.89812 0.94182
 N203 N 0.45489 0.90231 0.98985
 N204 N 0.41327 0.88988 0.99632
 N205 N 0.46230 0.91567 0.94792
 N206 N 0.42626 0.91167 0.92524
 N207 N 0.54806 0.89703 0.99975
 N208 N 0.58280 0.87279 1.01284
 Mn209 Mn 0.51290 0.95706 0.92975
 Mn210 Mn 0.49628 0.92092 1.03695
 Cl211 Cl 0.50372 0.99351 0.99884
 C212 C 0.61007 0.87350 0.97601
 C213 C 0.39624 0.89438 0.95531
 N214 N -0.04249 0.43711 -0.07534
 N215 N -0.05082 0.39661 -0.09081
 N216 N -0.06001 0.54191 -0.07743
 N217 N -0.07558 0.58184 -0.09151
 N218 N -0.02616 0.52919 -0.10269
 N219 N -0.01776 0.56061 -0.13467
 N220 N -0.07586 0.45094 -0.04997
 N221 N -0.10724 0.42044 -0.04695
 C222 C -0.09151 0.38690 -0.07265
 C223 C -0.04941 0.59280 -0.12743
 N224 N -0.04951 0.57288 0.04765
 N225 N -0.05886 0.61205 0.06640
 N226 N -0.09000 0.47810 0.03990
 N227 N -0.12671 0.45664 0.05143
 N228 N -0.06489 0.48110 0.07433
 N229 N -0.08370 0.46087 0.11025
 N230 N -0.07353 0.56859 0.01258
 N231 N -0.09933 0.60456 0.00623
 Mn232 Mn -0.07507 0.50988 -0.01894
 C233 C -0.08960 0.63158 0.03962
 C234 C -0.12210 0.44558 0.09506
 N235 N 0.06637 0.51598 -0.08822
 N236 N 0.08052 0.54290 -0.12212
 N237 N 0.07614 0.42886 -0.02627
 N238 N 0.10215 0.39329 -0.01921
 N239 N 0.05193 0.42359 -0.06102
 N240 N 0.06154 0.38392 -0.07890
 N241 N 0.09153 0.51971 -0.05392
 N242 N 0.12387 0.54831 -0.06371
 Mn243 Mn 0.01241 0.47608 -0.08255
 C244 C 0.11660 0.56249 -0.10621
 C245 C 0.09261 0.36531 -0.05178
 N246 N 0.02798 0.46688 0.08864
 N247 N 0.02010 0.43554 0.12082
 N248 N 0.07745 0.54612 0.03643
 N249 N 0.10852 0.57696 0.03396
 N250 N 0.04409 0.55905 0.06222
 N251 N 0.05197 0.59924 0.07849
 N252 N 0.06230 0.45486 0.06364
 N253 N 0.07873 0.41541 0.07816
 Mn254 Mn -0.01055 0.52015 0.06890
 Mn255 Mn 0.07715 0.48744 0.00508
 Cl256 Cl 0.00097 0.49833 -0.00687
 C257 C 0.05254 0.40405 0.11402
 C258 C 0.09241 0.60973 0.06039
 N259 N 0.92582 -0.05306 0.46089
 N260 N 0.90948 -0.06505 0.42291
 N261 N 0.93911 -0.05137 0.56364
 N262 N 0.92533 -0.06340 0.60443
 N263 N 0.91458 -0.01797 0.54705
 N264 N 0.88339 -0.00621 0.57656
 N265 N 0.94929 -0.08685 0.47863
 N266 N 0.94938 -0.12234 0.45328
 C267 C 0.92408 -0.10863 0.41910
 C268 C 0.89071 -0.03503 0.61210
 N269 N 1.06773 -0.04395 0.56988
 N270 N 1.08913 -0.03911 0.60673
 N271 N 1.04151 -0.10332 0.49337
 N272 N 1.04124 -0.13989 0.46952
 N273 N 1.07703 -0.07926 0.48362
 N274 N 1.10130 -0.09857 0.45191
 N275 N 1.03182 -0.06772 0.57823
 N276 N 1.02831 -0.08051 0.62101
 Mn277 Mn 0.99021 -0.07766 0.52880
 C278 C 1.06455 -0.06245 0.63816
 C279 C 1.07880 -0.13684 0.44420
 N280 N 0.93400 0.07205 0.51067
 N281 N 0.90930 0.09086 0.54233
 N282 N 0.98149 0.06010 0.41740
 N283 N 0.98423 0.08049 0.37774
 N284 N 0.94390 0.03876 0.42367
 N285 N 0.91945 0.04540 0.38799
 N286 N 0.96996 0.09575 0.50219
 N287 N 0.97009 0.13171 0.52690
 Mn288 Mn 0.92880 0.00992 0.48538
 C289 C 0.93200 0.12855 0.55139
 C290 C 0.94588 0.07087 0.35927
 N291 N 1.09687 0.01099 0.44715
 N292 N 1.12886 0.00077 0.41792
 N293 N 1.06220 0.07977 0.51654
 N294 N 1.06200 0.11509 0.54204
 N295 N 1.08626 0.04618 0.53350
 N296 N 1.10276 0.05803 0.57151
 N297 N 1.07261 0.04495 0.43152
 N298 N 1.08708 0.05883 0.39150
 Mn299 Mn 1.08264 -0.01673 0.50855
 Mn300 Mn 1.02160 0.07033 0.46684
 Cl301 Cl 1.00580 -0.00358 0.49739
 C302 C 1.12198 0.03103 0.38338
 C303 C 1.08772 0.10142 0.57584
 C304 C 1.17066 0.06297 0.27993
 C305 C 1.19964 0.02730 0.28949
 C306 C 1.18521 0.00936 0.33024
 C307 C 1.14883 0.03554 0.34201
 O308 O 1.13999 0.06780 0.31166
 H309 H 1.22792 0.01601 0.26978
 H310 H 1.19963 -0.01895 0.34916
 C311 C 0.89964 -0.15726 0.31836
 C312 C 0.93403 -0.18634 0.32990
 C313 C 0.94680 -0.17231 0.36998
 C314 C 0.91979 -0.13553 0.37953
 O315 O 0.89102 -0.12622 0.34834
 H316 H 0.94779 -0.21467 0.31190
 H317 H 0.97309 -0.18674 0.38971
 C318 C 0.89965 0.17812 0.65161
 C319 C 0.92982 0.21063 0.63656
 C320 C 0.94414 0.19724 0.59566
 C321 C 0.92177 0.15778 0.58882
 O322 O 0.89453 0.14607 0.62259
 H323 H 0.94082 0.23999 0.65338
 H324 H 0.96901 0.21350 0.57392
 C325 C 1.09707 -0.08496 0.74790
 C326 C 1.09969 -0.03786 0.74669
 C327 C 1.08525 -0.02370 0.70609
 C328 C 1.07421 -0.06276 0.68565
 O329 O 1.08112 -0.10024 0.71084
 H330 H 1.11233 -0.01623 0.77138
 H331 H 1.08460 0.01092 0.69213
 C332 C 0.29450 1.15923 1.05225
 C333 C 0.30038 1.18631 1.01370
 C334 C 0.34069 1.17339 0.99605
 C335 C 0.35622 1.14008 1.02546
 O336 O 0.32827 1.13128 1.05931
 H337 H 0.27818 1.21201 0.99996
 H338 H 0.35708 1.18709 0.96591
 C339 C 0.28672 0.89019 0.92289
 C340 C 0.28900 0.93659 0.92856
 C341 C 0.32956 0.94303 0.94484
 C342 C 0.34898 0.90037 0.94805
 O343 O 0.32325 0.86801 0.93461
 H344 H 0.26481 0.96288 0.92066
 H345 H 0.34433 0.97531 0.95134
 C346 C 0.68398 0.91683 1.18203
 C347 C 0.67133 0.95134 1.20991
 C348 C 0.63265 0.96801 1.19384
 C349 C 0.62428 0.94199 1.15808
 O350 O 0.65537 0.91095 1.15059
 H351 H 0.68852 0.96383 1.23774
 H352 H 0.61296 0.99602 1.20642
 C353 C 0.71392 1.06985 0.82332
 C354 C 0.70683 1.03188 0.79901
 C355 C 0.67099 1.01146 0.81931
 C356 C 0.65841 1.03880 0.85384
 O357 O 0.68451 1.07421 0.85666
 H358 H 0.72548 1.02014 0.77028
 H359 H 0.65522 0.98082 0.80949
 C360 C 0.08003 0.29458 0.15535
 C361 C 0.04555 0.30236 0.18555
 C362 C 0.03026 0.34529 0.17445
 C363 C 0.05674 0.36014 0.13862
 O364 O 0.08681 0.32948 0.12694
 H365 H 0.03294 0.27966 0.21218
 H366 H 0.00307 0.36344 0.19033
 C367 C -0.14308 0.28770 -0.10523
 C368 C -0.16722 0.29368 -0.06606
 C369 C -0.14998 0.33112 -0.04855
 C370 C -0.11637 0.34499 -0.07800
 O371 O -0.11197 0.31873 -0.11266
 H372 H -0.19480 0.27404 -0.05241
 H373 H -0.16109 0.34704 -0.01822
 C374 C 0.16942 0.65945 -0.15205
 C375 C 0.20600 0.63120 -0.14884
 C376 C 0.19004 0.58975 -0.13490
 C377 C 0.14493 0.59563 -0.13087
 O378 O 0.13217 0.63811 -0.14086
 H379 H 0.24032 0.64062 -0.15304
 H380 H 0.20915 0.55959 -0.12567
 C381 C -0.14293 0.72935 0.07965
 C382 C -0.16069 0.73060 0.03797
 C383 C -0.14152 0.69481 0.01706
 C384 C -0.11350 0.67452 0.04745
 O385 O -0.11405 0.69549 0.08557
 H386 H -0.18504 0.75424 0.02462
 H387 H -0.14794 0.68407 -0.01608
 C388 C 1.10945 0.14918 0.67780
 C389 C 1.07718 0.17994 0.66421
 C390 C 1.06587 0.16635 0.62354
 C391 C 1.09157 0.12819 0.61558
 O392 O 1.11818 0.11755 0.64841
 H393 H 1.06376 0.20898 0.68134
 H394 H 1.04134 0.18203 0.60233
 C395 C 0.84397 -0.06184 0.71774
 C396 C 0.81592 -0.02547 0.70799
 C397 C 0.82968 -0.00933 0.66629
 C398 C 0.86483 -0.03717 0.65426
 O399 O 0.87351 -0.06869 0.68534
 H400 H 0.78876 -0.01253 0.72828
 H401 H 0.81569 0.01894 0.64699
 C402 C 1.10828 -0.18783 0.34395
 C403 C 1.07885 -0.22042 0.36039
 C404 C 1.06599 -0.20668 0.40163
 C405 C 1.08834 -0.16687 0.40719
 O406 O 1.11428 -0.15539 0.37237
 H407 H 1.06731 -0.24996 0.34419
 H408 H 1.04183 -0.22277 0.42433
 C409 C 0.89796 0.13332 0.27060
 C410 C 0.94107 0.14695 0.26386
 C411 C 0.96442 0.12081 0.29296
 C412 C 0.93392 0.09401 0.31670
 O413 O 0.89317 0.10090 0.30269
 H414 H 0.95375 0.17367 0.24118
 H415 H 0.99930 0.12366 0.29876
 C416 C 0.14732 0.26578 -0.08683
 C417 C 0.16666 0.26876 -0.04612
 C418 C 0.14694 0.30543 -0.02737
 C419 C 0.11719 0.32231 -0.05785
 O420 O 0.11702 0.29817 -0.09406
 H421 H 0.19224 0.24731 -0.03177
 H422 H 0.15421 0.31905 0.00443
 C423 C -0.19085 0.36955 0.15567
 C424 C -0.22309 0.39915 0.14011
 C425 C -0.20081 0.43354 0.11806
 C426 C -0.15675 0.42260 0.12221
 O427 O -0.15041 0.38363 0.14498
 H428 H -0.25848 0.39469 0.14217
 H429 H -0.21489 0.46187 0.09888
 C430 C -0.07342 0.70414 -0.16526
 C431 C -0.04078 0.69539 -0.19733
 C432 C -0.02691 0.65163 -0.18772
 C433 C -0.05236 0.63728 -0.15098
 O434 O -0.08035 0.66898 -0.13724
 H435 H -0.02838 0.71790 -0.22421
 H436 H -0.00138 0.63257 -0.20521
 C437 C 0.14216 0.70860 0.09527
 C438 C 0.16544 0.70482 0.05520
 C439 C 0.14881 0.66764 0.03676
 C440 C 0.11640 0.65180 0.06660
 O441 O 0.11212 0.67652 0.10234
 H442 H 0.19210 0.72570 0.04146
 H443 H 0.15947 0.65325 0.00551
 C444 C 0.31496 1.06429 0.82721
 C445 C 0.32269 1.02451 0.80526
 C446 C 0.36251 1.00894 0.81917
 C447 C 0.37623 1.04056 0.84817
 O448 O 0.34731 1.07427 0.85346
 H449 H 0.30155 1.00836 0.78255
 H450 H 0.37946 0.97795 0.80964
 C451 C 0.28768 0.92483 1.16608
 C452 C 0.29043 0.96668 1.18472
 C453 C 0.32798 0.98526 1.16622
 C454 C 0.34538 0.95303 1.13817
 O455 O 0.32087 0.91628 1.13773
 H456 H 0.26766 0.98183 1.20851
 H457 H 0.34138 1.01817 1.17271
 C458 C 0.69885 1.13976 1.09900
 C459 C 0.71563 1.14570 1.05587
 C460 C 0.68332 1.13137 1.02951
 C461 C 0.64930 1.11831 1.05870
 O462 O 0.65847 1.12356 1.10088
 H463 H 0.74667 1.16098 1.04504
 H464 H 0.68393 1.13164 0.99346
 C465 C 0.71786 0.83918 0.94712
 C466 C 0.71494 0.81513 0.98765
 C467 C 0.67367 0.82507 1.00490
 C468 C 0.65477 0.85391 0.97328
 O469 O 0.68154 0.86266 0.93840
 H470 H 0.73980 0.79337 1.00284
 H471 H 0.65904 0.81261 1.03641
   
