data_POSCAR
  _audit_creation_date              2014-09-24
  _audit_creation_method            'ToBaCCo'
  _symmetry_space_group_name_H-M    'P1'
  _symmetry_Int_Tables_number       1
  _symmetry_cell_setting            triclinic
  loop_
  _symmetry_equiv_pos_as_xyz
 x,y,z
_cell_length_a 50.7422
_cell_length_b 50.7422
_cell_length_c 50.7422
_cell_angle_alpha 89.923100
_cell_angle_beta 89.922900
_cell_angle_gamma 89.922900
loop_
  _atom_site_label
  _atom_site_type_symbol
  _atom_site_fract_x
  _atom_site_fract_y
  _atom_site_fract_z
N1 N 0.18147 0.18146 0.18147
 N2 N 0.68170 0.68169 0.68170
 N3 N 0.31382 0.81704 0.68389
 N4 N 0.81375 0.31818 0.18354
 N5 N 0.81704 0.68389 0.31382
 N6 N 0.31819 0.18354 -0.18625
 N7 N 0.68389 0.31382 -0.18296
 N8 N 0.18354 0.81375 0.31819
 N9 N 0.43362 0.43362 0.43362
 N10 N -0.01817 -0.01817 0.98183
 N11 N 1.06658 0.56608 0.93063
 N12 N 0.56643 0.06553 0.42989
 N13 N -0.06938 0.06657 0.56608
 N14 N 0.42989 0.56642 0.06553
 N15 N 0.56608 -0.06938 0.06657
 N16 N 1.06553 0.42988 0.56642
 C17 C 0.41353 0.00765 0.21246
 H18 H 0.41389 0.02667 0.22207
 C19 C 0.43182 0.00187 0.19271
 H20 H 0.44627 0.01650 0.18697
 C21 C 0.39492 -0.03506 0.20887
 H22 H 0.38093 -0.04960 0.21565
 C23 C 0.41288 -0.04165 0.18903
 H24 H 0.41252 -0.06117 0.18043
 N25 N 0.39555 -0.01071 0.22010
 C26 C 0.33287 0.03414 0.25830
 H27 H 0.33249 0.02450 0.27733
 C28 C 0.31459 0.05391 0.25254
 H29 H 0.30012 0.05962 0.26719
 C30 C 0.35158 0.03788 0.21559
 H31 H 0.36562 0.03118 0.20105
 C32 C 0.33363 0.05774 0.20902
 H33 H 0.33405 0.06643 0.18951
 Zn34 Zn 0.37333 -0.00191 0.24876
 N35 N 0.35092 0.02659 0.23994
 C36 C 0.39482 0.03136 0.28850
 N37 N 0.39566 0.00705 0.27720
 C38 C 0.41389 -0.01118 0.28464
 C39 C 0.43220 -0.00531 0.30427
 C40 C 0.41281 0.03804 0.30822
 C41 C 0.33320 -0.03833 0.23966
 C42 C 0.31518 -0.05824 0.24565
 C43 C 0.33459 -0.06182 0.28898
 C44 C 0.35227 -0.04184 0.28219
 N45 N 0.35130 -0.03059 0.25783
 H46 H 0.38064 0.04580 0.28187
 H47 H 0.41440 -0.03017 0.27498
 H48 H 0.44682 -0.01984 0.30986
 H49 H 0.41227 0.05753 0.31690
 H50 H 0.33257 -0.02872 0.22063
 H51 H 0.30066 -0.06409 0.23116
 H52 H 0.33525 -0.07047 0.30850
 H53 H 0.36634 -0.03499 0.29657
 C54 C 0.31491 0.06573 0.22764
 C55 C 0.43157 -0.02305 0.18099
 C56 C 0.31581 -0.07000 0.27057
 C57 C 0.43173 0.01956 0.31607
 C58 C 0.08221 -0.00743 0.71467
 H59 H 0.08159 -0.02592 0.72529
 C60 C 0.06362 -0.00216 0.69508
 H61 H 0.04867 -0.01665 0.69050
 C62 C 0.10191 0.03447 0.70824
 H63 H 0.11649 0.04891 0.71380
 C64 C 0.08368 0.04054 0.68852
 H65 H 0.08441 0.05955 0.67880
 N66 N 0.10090 0.01076 0.72079
 C67 C 0.16441 -0.03310 0.75870
 H68 H 0.16580 -0.02234 0.77703
 C69 C 0.18233 -0.05327 0.75322
 H70 H 0.19750 -0.05817 0.76741
 C71 C 0.14364 -0.03917 0.71729
 H72 H 0.12894 -0.03320 0.70310
 C73 C 0.16119 -0.05947 0.71102
 H74 H 0.15982 -0.06924 0.69210
 Zn75 Zn 0.12395 0.00283 0.74899
 N76 N 0.14553 -0.02649 0.74084
 C77 C 0.10489 -0.02696 0.79281
 N78 N 0.10283 -0.00404 0.77897
 C79 C 0.08527 0.01497 0.78605
 C80 C 0.06958 0.01178 0.80842
 C81 C 0.08953 -0.03095 0.81536
 C82 C 0.16467 0.03811 0.73687
 C83 C 0.18336 0.05773 0.74164
 C84 C 0.16522 0.06318 0.78536
 C85 C 0.14689 0.04347 0.77980
 N86 N 0.14689 0.03142 0.75584
 H87 H 0.11854 -0.04206 0.78657
 H88 H 0.08383 0.03285 0.77448
 H89 H 0.05603 0.02725 0.81420
 H90 H 0.09158 -0.04902 0.82658
 H91 H 0.16457 0.02785 0.71820
 H92 H 0.19765 0.06272 0.72657
 H93 H 0.16533 0.07241 0.80460
 H94 H 0.13315 0.03743 0.79489
 C95 C 0.18079 -0.06647 0.72910
 C96 C 0.06432 0.02209 0.68197
 C97 C 0.18370 0.07027 0.76616
 C98 C 0.07191 -0.01129 0.82334
 C99 C 0.58240 0.49304 0.21320
 H100 H 0.58216 0.47420 0.22323
 C101 C 0.56399 0.49837 0.19348
 H102 H 0.54956 0.48358 0.18818
 C103 C 0.60087 0.53572 0.20849
 H104 H 0.61488 0.55041 0.21480
 C105 C 0.58278 0.54186 0.18866
 H106 H 0.58305 0.56120 0.17959
 N107 N 0.60039 0.51159 0.22026
 C108 C 0.66363 0.46777 0.25853
 H109 H 0.66418 0.47786 0.27729
 C110 C 0.68192 0.44795 0.25303
 H111 H 0.69658 0.44265 0.26761
 C112 C 0.64443 0.46296 0.21620
 H113 H 0.63019 0.46927 0.20170
 C114 C 0.66239 0.44303 0.20989
 H115 H 0.66178 0.43388 0.19063
 Zn116 Zn 0.62292 0.50336 0.24878
 N117 N 0.64533 0.47481 0.24024
 C118 C 0.60209 0.47049 0.28923
 N119 N 0.60100 0.49471 0.27770
 C120 C 0.58282 0.51294 0.28526
 C121 C 0.56480 0.50714 0.30526
 C122 C 0.58441 0.46389 0.30931
 C123 C 0.66294 0.53950 0.23838
 C124 C 0.68129 0.55923 0.24379
 C125 C 0.66251 0.56357 0.28738
 C126 C 0.64448 0.54374 0.28115
 N127 N 0.64502 0.53218 0.25696
 H128 H 0.61621 0.45605 0.28250
 H129 H 0.58209 0.53185 0.27542
 H130 H 0.55018 0.52164 0.31095
 H131 H 0.58515 0.44446 0.31815
 H132 H 0.66324 0.52962 0.21950
 H133 H 0.69573 0.56467 0.22901
 H134 H 0.66226 0.57241 0.30680
 H135 H 0.63054 0.53720 0.29587
 C136 C 0.68135 0.43555 0.22845
 C137 C 0.56411 0.52304 0.18119
 C138 C 0.68118 0.57124 0.26857
 C139 C 0.56553 0.48234 0.31728
 C140 C 0.91386 0.50788 0.71260
 H141 H 0.91434 0.52695 0.72209
 C142 C 0.93203 0.50192 0.69279
 H143 H 0.94650 0.51646 0.68689
 C144 C 0.89507 0.46522 0.70935
 H145 H 0.88107 0.45077 0.71629
 C146 C 0.91291 0.45845 0.68947
 H147 H 0.91243 0.43888 0.68097
 N148 N 0.89585 0.48963 0.72043
 C149 C 0.83342 0.53483 0.75863
 H150 H 0.83308 0.52526 0.77769
 C151 C 0.81515 0.55459 0.75283
 H152 H 0.80072 0.56037 0.76749
 C153 C 0.85202 0.53836 0.71585
 H154 H 0.86601 0.53157 0.70130
 C155 C 0.83407 0.55820 0.70924
 H156 H 0.83444 0.56679 0.68968
 Zn157 Zn 0.87376 0.49864 0.74912
 N158 N 0.85141 0.52717 0.74024
 C159 C 0.89542 0.53200 0.78868
 N160 N 0.89618 0.50765 0.77746
 C161 C 0.91437 0.48939 0.78494
 C162 C 0.93271 0.49526 0.80455
 C163 C 0.91344 0.53868 0.80838
 C164 C 0.83350 0.46237 0.74023
 C165 C 0.81548 0.44248 0.74626
 C166 C 0.83502 0.43885 0.78954
 C167 C 0.85270 0.45883 0.78270
 N168 N 0.85167 0.47007 0.75834
 H169 H 0.88127 0.54645 0.78203
 H170 H 0.91482 0.47037 0.77534
 H171 H 0.94729 0.48070 0.81018
 H172 H 0.91295 0.55819 0.81701
 H173 H 0.83283 0.47198 0.72120
 H174 H 0.80093 0.43664 0.73181
 H175 H 0.83574 0.43019 0.80905
 H176 H 0.86683 0.46565 0.79704
 C177 C 0.81540 0.56629 0.72787
 C178 C 0.93162 0.47693 0.68122
 C179 C 0.81620 0.43069 0.77117
 C180 C 0.93230 0.52017 0.81628
 C181 C 0.21246 0.41353 0.00765
 H182 H 0.22207 0.41389 0.02667
 C183 C 0.19271 0.43181 0.00188
 H184 H 0.18697 0.44626 0.01651
 C185 C 0.20887 0.39491 -0.03506
 H186 H 0.21565 0.38093 -0.04959
 C187 C 0.18903 0.41288 -0.04165
 H188 H 0.18043 0.41251 -0.06117
 N189 N 0.22010 0.39554 -0.01071
 C190 C 0.25830 0.33287 0.03415
 H191 H 0.27733 0.33249 0.02450
 C192 C 0.25254 0.31459 0.05392
 H193 H 0.26719 0.30012 0.05962
 C194 C 0.21559 0.35158 0.03789
 H195 H 0.20105 0.36562 0.03118
 C196 C 0.20902 0.33362 0.05774
 H197 H 0.18951 0.33405 0.06643
 Zn198 Zn 0.24876 0.37333 -0.00191
 N199 N 0.23994 0.35091 0.02659
 C200 C 0.28849 0.39482 0.03137
 N201 N 0.27720 0.39565 0.00706
 C202 C 0.28463 0.41388 -0.01118
 C203 C 0.30427 0.43219 -0.00531
 C204 C 0.30822 0.41280 0.03804
 C205 C 0.23966 0.33319 -0.03833
 C206 C 0.24565 0.31517 -0.05824
 C207 C 0.28898 0.33458 -0.06182
 C208 C 0.28219 0.35227 -0.04183
 N209 N 0.25783 0.35130 -0.03059
 H210 H 0.28187 0.38063 0.04580
 H211 H 0.27498 0.41439 -0.03017
 H212 H 0.30986 0.44682 -0.01984
 H213 H 0.31690 0.41226 0.05753
 H214 H 0.22062 0.33256 -0.02872
 H215 H 0.23116 0.30066 -0.06408
 H216 H 0.30850 0.33525 -0.07046
 H217 H 0.29657 0.36634 -0.03498
 C218 C 0.22764 0.31490 0.06573
 C219 C 0.18099 0.43157 -0.02304
 C220 C 0.27057 0.31581 -0.07000
 C221 C 0.31607 0.43172 0.01957
 C222 C 0.71467 0.08221 -0.00743
 H223 H 0.72529 0.08159 -0.02592
 C224 C 0.69508 0.06362 -0.00215
 H225 H 0.69050 0.04866 -0.01665
 C226 C 0.70824 0.10191 0.03447
 H227 H 0.71380 0.11648 0.04891
 C228 C 0.68852 0.08367 0.04054
 H229 H 0.67880 0.08441 0.05955
 N230 N 0.72079 0.10090 0.01076
 C231 C 0.75870 0.16441 -0.03310
 H232 H 0.77703 0.16579 -0.02234
 C233 C 0.75322 0.18232 -0.05326
 H234 H 0.76741 0.19749 -0.05817
 C235 C 0.71729 0.14363 -0.03917
 H236 H 0.70310 0.12894 -0.03320
 C237 C 0.71102 0.16119 -0.05947
 H238 H 0.69210 0.15982 -0.06924
 Zn239 Zn 0.74899 0.12395 0.00283
 N240 N 0.74084 0.14553 -0.02648
 C241 C 0.79281 0.10488 -0.02696
 N242 N 0.77897 0.10282 -0.00404
 C243 C 0.78605 0.08527 0.01498
 C244 C 0.80842 0.06957 0.01178
 C245 C 0.81536 0.08953 -0.03095
 C246 C 0.73687 0.16466 0.03812
 C247 C 0.74164 0.18335 0.05773
 C248 C 0.78536 0.16522 0.06319
 C249 C 0.77980 0.14689 0.04347
 N250 N 0.75584 0.14689 0.03142
 H251 H 0.78657 0.11854 -0.04206
 H252 H 0.77448 0.08383 0.03285
 H253 H 0.81420 0.05602 0.02725
 H254 H 0.82658 0.09158 -0.04902
 H255 H 0.71820 0.16457 0.02785
 H256 H 0.72657 0.19765 0.06272
 H257 H 0.80460 0.16532 0.07242
 H258 H 0.79489 0.13315 0.03743
 C259 C 0.72911 0.18078 -0.06647
 C260 C 0.68197 0.06431 0.02209
 C261 C 0.76616 0.18369 0.07027
 C262 C 0.82334 0.07190 -0.01129
 C263 C 0.21320 0.58239 0.49304
 H264 H 0.22323 0.58216 0.47421
 C265 C 0.19348 0.56398 0.49837
 H266 H 0.18818 0.54956 0.48358
 C267 C 0.20849 0.60087 0.53572
 H268 H 0.21480 0.61487 0.55041
 C269 C 0.18866 0.58278 0.54186
 H270 H 0.17959 0.58305 0.56120
 N271 N 0.22026 0.60038 0.51159
 C272 C 0.25853 0.66363 0.46777
 H273 H 0.27729 0.66418 0.47786
 C274 C 0.25303 0.68192 0.44795
 H275 H 0.26761 0.69657 0.44265
 C276 C 0.21620 0.64443 0.46296
 H277 H 0.20170 0.63018 0.46927
 C278 C 0.20989 0.66239 0.44303
 H279 H 0.19063 0.66177 0.43388
 Zn280 Zn 0.24878 0.62291 0.50336
 N281 N 0.24024 0.64533 0.47481
 C282 C 0.28923 0.60208 0.47049
 N283 N 0.27770 0.60100 0.49471
 C284 C 0.28526 0.58281 0.51294
 C285 C 0.30526 0.56479 0.50714
 C286 C 0.30931 0.58441 0.46389
 C287 C 0.23838 0.66294 0.53950
 C288 C 0.24379 0.68129 0.55923
 C289 C 0.28738 0.66251 0.56357
 C290 C 0.28115 0.64447 0.54374
 N291 N 0.25696 0.64501 0.53218
 H292 H 0.28250 0.61621 0.45605
 H293 H 0.27542 0.58209 0.53185
 H294 H 0.31095 0.55018 0.52164
 H295 H 0.31815 0.58514 0.44446
 H296 H 0.21950 0.66323 0.52962
 H297 H 0.22901 0.69572 0.56467
 H298 H 0.30680 0.66225 0.57241
 H299 H 0.29587 0.63054 0.53720
 C300 C 0.22845 0.68135 0.43556
 C301 C 0.18119 0.56411 0.52304
 C302 C 0.26857 0.68117 0.57124
 C303 C 0.31728 0.56553 0.48234
 C304 C 0.71260 0.91386 0.50788
 H305 H 0.72209 0.91434 0.52696
 C306 C 0.69279 0.93202 0.50192
 H307 H 0.68689 0.94650 0.51646
 C308 C 0.70935 0.89507 0.46522
 H309 H 0.71629 0.88107 0.45077
 C310 C 0.68946 0.91291 0.45845
 H311 H 0.68097 0.91243 0.43888
 N312 N 0.72043 0.89584 0.48963
 C313 C 0.75863 0.83342 0.53483
 H314 H 0.77769 0.83308 0.52526
 C315 C 0.75283 0.81514 0.55459
 H316 H 0.76749 0.80072 0.56037
 C317 C 0.71585 0.85202 0.53836
 H318 H 0.70130 0.86601 0.53157
 C319 C 0.70923 0.83406 0.55820
 H320 H 0.68968 0.83444 0.56680
 Zn321 Zn 0.74912 0.87376 0.49865
 N322 N 0.74024 0.85141 0.52717
 C323 C 0.78868 0.89542 0.53200
 N324 N 0.77746 0.89618 0.50765
 C325 C 0.78494 0.91437 0.48939
 C326 C 0.80454 0.93270 0.49527
 C327 C 0.80838 0.91343 0.53869
 C328 C 0.74023 0.83349 0.46237
 C329 C 0.74626 0.81548 0.44248
 C330 C 0.78953 0.83502 0.43886
 C331 C 0.78270 0.85270 0.45883
 N332 N 0.75834 0.85167 0.47008
 H333 H 0.78203 0.88127 0.54645
 H334 H 0.77534 0.91482 0.47037
 H335 H 0.81018 0.94729 0.48071
 H336 H 0.81701 0.91294 0.55820
 H337 H 0.72120 0.83283 0.47198
 H338 H 0.73181 0.80093 0.43664
 H339 H 0.80904 0.83574 0.43019
 H340 H 0.79704 0.86683 0.46566
 C341 C 0.72787 0.81540 0.56629
 C342 C 0.68122 0.93162 0.47693
 C343 C 0.77117 0.81619 0.43070
 C344 C 0.81628 0.93230 0.52018
 C345 C 0.00765 0.21246 0.41353
 H346 H 0.02667 0.22207 0.41389
 C347 C 0.00187 0.19271 0.43182
 H348 H 0.01651 0.18697 0.44626
 C349 C -0.03506 0.20887 0.39492
 H350 H -0.04959 0.21565 0.38093
 C351 C -0.04165 0.18903 0.41288
 H352 H -0.06117 0.18042 0.41252
 N353 N -0.01071 0.22010 0.39554
 C354 C 0.03415 0.25830 0.33287
 H355 H 0.02450 0.27733 0.33249
 C356 C 0.05392 0.25254 0.31459
 H357 H 0.05962 0.26719 0.30012
 C358 C 0.03788 0.21559 0.35158
 H359 H 0.03118 0.20105 0.36562
 C360 C 0.05774 0.20902 0.33363
 H361 H 0.06643 0.18951 0.33405
 Zn362 Zn -0.00191 0.24876 0.37333
 N363 N 0.02659 0.23993 0.35092
 C364 C 0.03137 0.28849 0.39482
 N365 N 0.00706 0.27719 0.39565
 C366 C -0.01118 0.28463 0.41388
 C367 C -0.00531 0.30427 0.43220
 C368 C 0.03804 0.30822 0.41281
 C369 C -0.03833 0.23966 0.33320
 C370 C -0.05824 0.24564 0.31518
 C371 C -0.06182 0.28898 0.33458
 C372 C -0.04184 0.28218 0.35227
 N373 N -0.03059 0.25782 0.35130
 H374 H 0.04580 0.28187 0.38063
 H375 H -0.03017 0.27497 0.41440
 H376 H -0.01984 0.30986 0.44682
 H377 H 0.05753 0.31690 0.41227
 H378 H -0.02872 0.22062 0.33257
 H379 H -0.06409 0.23116 0.30066
 H380 H -0.07047 0.30850 0.33525
 H381 H -0.03498 0.29657 0.36634
 C382 C 0.06573 0.22763 0.31491
 C383 C -0.02305 0.18099 0.43157
 C384 C -0.07000 0.27057 0.31581
 C385 C 0.01957 0.31607 0.43173
 C386 C -0.00742 0.71467 0.08221
 H387 H -0.02592 0.72529 0.08159
 C388 C -0.00215 0.69508 0.06362
 H389 H -0.01665 0.69050 0.04867
 C390 C 0.03447 0.70824 0.10191
 H391 H 0.04891 0.71380 0.11649
 C392 C 0.04054 0.68852 0.08368
 H393 H 0.05955 0.67880 0.08441
 N394 N 0.01077 0.72079 0.10090
 C395 C -0.03309 0.75870 0.16441
 H396 H -0.02234 0.77703 0.16579
 C397 C -0.05326 0.75321 0.18233
 H398 H -0.05817 0.76741 0.19750
 C399 C -0.03917 0.71729 0.14364
 H400 H -0.03320 0.70310 0.12894
 C401 C -0.05947 0.71102 0.16119
 H402 H -0.06924 0.69210 0.15982
 Zn403 Zn 0.00283 0.74899 0.12395
 N404 N -0.02648 0.74084 0.14553
 C405 C -0.02696 0.79281 0.10489
 N406 N -0.00404 0.77897 0.10283
 C407 C 0.01498 0.78604 0.08527
 C408 C 0.01178 0.80842 0.06958
 C409 C -0.03095 0.81536 0.08953
 C410 C 0.03812 0.73687 0.16467
 C411 C 0.05774 0.74164 0.18335
 C412 C 0.06319 0.78536 0.16522
 C413 C 0.04348 0.77980 0.14689
 N414 N 0.03142 0.75584 0.14689
 H415 H -0.04206 0.78657 0.11854
 H416 H 0.03285 0.77448 0.08383
 H417 H 0.02725 0.81420 0.05603
 H418 H -0.04902 0.82658 0.09158
 H419 H 0.02786 0.71820 0.16457
 H420 H 0.06272 0.72657 0.19765
 H421 H 0.07242 0.80460 0.16533
 H422 H 0.03743 0.79489 0.13315
 C423 C -0.06647 0.72910 0.18079
 C424 C 0.02209 0.68197 0.06432
 C425 C 0.07027 0.76616 0.18370
 C426 C -0.01129 0.82334 0.07191
 C427 C 0.49304 0.21320 0.58240
 H428 H 0.47421 0.22323 0.58216
 C429 C 0.49837 0.19348 0.56399
 H430 H 0.48358 0.18818 0.54956
 C431 C 0.53572 0.20849 0.60087
 H432 H 0.55041 0.21480 0.61487
 C433 C 0.54186 0.18866 0.58278
 H434 H 0.56120 0.17959 0.58305
 N435 N 0.51159 0.22026 0.60039
 C436 C 0.46778 0.25853 0.66363
 H437 H 0.47786 0.27729 0.66418
 C438 C 0.44796 0.25303 0.68192
 H439 H 0.44265 0.26761 0.69658
 C440 C 0.46297 0.21620 0.64443
 H441 H 0.46927 0.20170 0.63018
 C442 C 0.44304 0.20989 0.66239
 H443 H 0.43388 0.19063 0.66178
 Zn444 Zn 0.50336 0.24878 0.62291
 N445 N 0.47481 0.24024 0.64533
 C446 C 0.47049 0.28923 0.60209
 N447 N 0.49471 0.27770 0.60100
 C448 C 0.51294 0.28526 0.58282
 C449 C 0.50714 0.30526 0.56480
 C450 C 0.46389 0.30931 0.58441
 C451 C 0.53950 0.23838 0.66294
 C452 C 0.55923 0.24379 0.68129
 C453 C 0.56357 0.28738 0.66251
 C454 C 0.54374 0.28115 0.64448
 N455 N 0.53218 0.25696 0.64502
 H456 H 0.45605 0.28250 0.61621
 H457 H 0.53185 0.27542 0.58209
 H458 H 0.52165 0.31095 0.55018
 H459 H 0.44446 0.31815 0.58515
 H460 H 0.52962 0.21950 0.66323
 H461 H 0.56467 0.22901 0.69573
 H462 H 0.57241 0.30680 0.66226
 H463 H 0.53721 0.29587 0.63054
 C464 C 0.43556 0.22845 0.68135
 C465 C 0.52304 0.18119 0.56411
 C466 C 0.57124 0.26857 0.68118
 C467 C 0.48234 0.31728 0.56553
 C468 C 0.50788 0.71259 0.91386
 H469 H 0.52695 0.72209 0.91434
 C470 C 0.50192 0.69278 0.93202
 H471 H 0.51646 0.68688 0.94650
 C472 C 0.46522 0.70935 0.89507
 H473 H 0.45077 0.71628 0.88107
 C474 C 0.45845 0.68946 0.91291
 H475 H 0.43888 0.68097 0.91243
 N476 N 0.48963 0.72043 0.89585
 C477 C 0.53483 0.75862 0.83342
 H478 H 0.52526 0.77769 0.83308
 C479 C 0.55459 0.75282 0.81514
 H480 H 0.56037 0.76748 0.80072
 C481 C 0.53836 0.71584 0.85202
 H482 H 0.53157 0.70129 0.86601
 C483 C 0.55820 0.70923 0.83407
 H484 H 0.56680 0.68968 0.83444
 Zn485 Zn 0.49865 0.74911 0.87376
 N486 N 0.52717 0.74024 0.85141
 C487 C 0.53200 0.78868 0.89542
 N488 N 0.50765 0.77746 0.89618
 C489 C 0.48939 0.78493 0.91437
 C490 C 0.49527 0.80454 0.93271
 C491 C 0.53868 0.80837 0.91344
 C492 C 0.46237 0.74023 0.83350
 C493 C 0.44248 0.74626 0.81548
 C494 C 0.43885 0.78953 0.83502
 C495 C 0.45883 0.78269 0.85270
 N496 N 0.47007 0.75834 0.85167
 H497 H 0.54645 0.78203 0.88127
 H498 H 0.47037 0.77534 0.91482
 H499 H 0.48071 0.81017 0.94729
 H500 H 0.55820 0.81700 0.91295
 H501 H 0.47198 0.72119 0.83283
 H502 H 0.43664 0.73181 0.80093
 H503 H 0.43019 0.80904 0.83574
 H504 H 0.46565 0.79703 0.86683
 C505 C 0.56629 0.72786 0.81540
 C506 C 0.47693 0.68121 0.93162
 C507 C 0.43069 0.77117 0.81620
 C508 C 0.52018 0.81628 0.93230
 C509 C 0.16548 0.18894 0.20237
 C510 C 0.15125 0.19525 0.22036
 C511 C 0.13413 0.20240 0.24111
 C512 C 0.11909 0.20834 0.25854
 C513 C 0.10101 0.21514 0.27858
 C514 C 0.08516 0.22086 0.29535
 C515 C 0.66574 0.68913 0.70264
 C516 C 0.65156 0.69542 0.72067
 C517 C 0.63449 0.70255 0.74147
 C518 C 0.61951 0.70849 0.75894
 C519 C 0.60148 0.71531 0.77902
 C520 C 0.58567 0.72105 0.79582
 C521 C 0.32997 0.80993 0.70477
 C522 C 0.34434 0.80386 0.72271
 C523 C 0.36164 0.79685 0.74332
 C524 C 0.37682 0.79093 0.76059
 C525 C 0.39509 0.78405 0.78040
 C526 C 0.41110 0.77818 0.79694
 C527 C -0.17024 0.31058 0.20435
 C528 C -0.15598 0.30411 0.22224
 C529 C -0.13879 0.29675 0.24284
 C530 C -0.12369 0.29060 0.26010
 C531 C -0.10550 0.28354 0.27993
 C532 C -0.08955 0.27759 0.29650
 C533 C -0.16697 0.69127 0.29289
 C534 C -0.15273 0.69747 0.27486
 C535 C -0.13556 0.70446 0.25410
 C536 C -0.12046 0.71025 0.23669
 C537 C -0.10223 0.71689 0.21672
 C538 C -0.08619 0.72248 0.20009
 C539 C 0.33462 0.19104 0.79321
 C540 C 0.34916 0.19728 0.77546
 C541 C 0.36657 0.20425 0.75490
 C542 C 0.38179 0.20998 0.73757
 C543 C 0.40005 0.21649 0.71761
 C544 C 0.41602 0.22196 0.70088
 C545 C 0.66840 0.30635 0.79583
 C546 C 0.65464 0.30008 0.77752
 C547 C 0.63807 0.29304 0.75636
 C548 C 0.62349 0.28723 0.73857
 C549 C 0.60588 0.28062 0.71812
 C550 C 0.59037 0.27509 0.70104
 C551 C 0.16795 0.80566 0.29728
 C552 C 0.15408 0.79878 0.27928
 C553 C 0.13736 0.79101 0.25850
 C554 C 0.12266 0.78469 0.24099
 C555 C 0.10494 0.77771 0.22076
 C556 C 0.08938 0.77218 0.20373
 C557 C 0.20237 0.16547 0.18895
 C558 C 0.22036 0.15125 0.19526
 C559 C 0.24111 0.13412 0.20240
 C560 C 0.25854 0.11909 0.20834
 C561 C 0.27858 0.10101 0.21514
 C562 C 0.29535 0.08515 0.22087
 C563 C 0.70264 0.66574 0.68914
 C564 C 0.72067 0.65156 0.69542
 C565 C 0.74147 0.63449 0.70256
 C566 C 0.75894 0.61951 0.70849
 C567 C 0.77902 0.60148 0.71531
 C568 C 0.79582 0.58567 0.72106
 C569 C 0.70477 0.32997 0.80994
 C570 C 0.72271 0.34434 0.80386
 C571 C 0.74333 0.36163 0.79686
 C572 C 0.76059 0.37682 0.79094
 C573 C 0.78040 0.39509 0.78406
 C574 C 0.79694 0.41110 0.77819
 C575 C 0.20436 -0.17024 0.31058
 C576 C 0.22224 -0.15598 0.30412
 C577 C 0.24284 -0.13879 0.29675
 C578 C 0.26011 -0.12369 0.29061
 C579 C 0.27993 -0.10550 0.28354
 C580 C 0.29650 -0.08955 0.27760
 C581 C 0.29289 -0.16697 0.69127
 C582 C 0.27486 -0.15273 0.69747
 C583 C 0.25410 -0.13557 0.70446
 C584 C 0.23669 -0.12046 0.71025
 C585 C 0.21672 -0.10223 0.71689
 C586 C 0.20009 -0.08620 0.72248
 C587 C 0.79321 0.33462 0.19104
 C588 C 0.77546 0.34916 0.19729
 C589 C 0.75490 0.36657 0.20425
 C590 C 0.73757 0.38179 0.20998
 C591 C 0.71761 0.40005 0.21649
 C592 C 0.70088 0.41602 0.22196
 C593 C 0.79583 0.66840 0.30635
 C594 C 0.77752 0.65464 0.30008
 C595 C 0.75636 0.63807 0.29304
 C596 C 0.73857 0.62349 0.28723
 C597 C 0.71812 0.60588 0.28062
 C598 C 0.70104 0.59037 0.27509
 C599 C 0.29728 0.16795 0.80566
 C600 C 0.27928 0.15407 0.79878
 C601 C 0.25850 0.13736 0.79101
 C602 C 0.24099 0.12266 0.78469
 C603 C 0.22076 0.10494 0.77771
 C604 C 0.20373 0.08937 0.77218
 C605 C 0.18895 0.20237 0.16548
 C606 C 0.19526 0.22036 0.15125
 C607 C 0.20240 0.24111 0.13413
 C608 C 0.20834 0.25853 0.11909
 C609 C 0.21514 0.27857 0.10101
 C610 C 0.22087 0.29534 0.08516
 C611 C 0.68914 0.70264 0.66574
 C612 C 0.69542 0.72067 0.65156
 C613 C 0.70256 0.74146 0.63449
 C614 C 0.70849 0.75893 0.61951
 C615 C 0.71531 0.77902 0.60148
 C616 C 0.72106 0.79582 0.58567
 C617 C 0.80994 0.70477 0.32997
 C618 C 0.80386 0.72271 0.34434
 C619 C 0.79686 0.74332 0.36164
 C620 C 0.79094 0.76059 0.37682
 C621 C 0.78405 0.78040 0.39509
 C622 C 0.77819 0.79694 0.41110
 C623 C 0.31058 0.20435 -0.17024
 C624 C 0.30412 0.22224 -0.15598
 C625 C 0.29675 0.24284 -0.13879
 C626 C 0.29061 0.26010 -0.12369
 C627 C 0.28354 0.27993 -0.10550
 C628 C 0.27759 0.29650 -0.08955
 C629 C 0.69127 0.29288 -0.16697
 C630 C 0.69747 0.27486 -0.15273
 C631 C 0.70446 0.25409 -0.13556
 C632 C 0.71026 0.23668 -0.12046
 C633 C 0.71689 0.21672 -0.10223
 C634 C 0.72248 0.20008 -0.08619
 C635 C 0.19104 0.79321 0.33462
 C636 C 0.19729 0.77546 0.34916
 C637 C 0.20425 0.75490 0.36657
 C638 C 0.20998 0.73757 0.38179
 C639 C 0.21649 0.71760 0.40005
 C640 C 0.22196 0.70087 0.41602
 C641 C 0.30635 0.79582 0.66840
 C642 C 0.30008 0.77752 0.65464
 C643 C 0.29304 0.75636 0.63807
 C644 C 0.28723 0.73856 0.62349
 C645 C 0.28062 0.71811 0.60588
 C646 C 0.27509 0.70103 0.59037
 C647 C 0.80566 0.29728 0.16795
 C648 C 0.79878 0.27928 0.15408
 C649 C 0.79101 0.25850 0.13736
 C650 C 0.78469 0.24099 0.12266
 C651 C 0.77771 0.22076 0.10494
 C652 C 0.77218 0.20372 0.08937
 C653 C 0.44159 0.41752 0.45425
 C654 C 0.44833 0.40322 0.47201
 C655 C 0.45597 0.38603 0.49252
 C656 C 0.46229 0.37094 0.50975
 C657 C 0.46947 0.35278 0.52958
 C658 C 0.47542 0.33684 0.54617
 C659 C -0.01863 0.95746 -0.00576
 C660 C -0.01874 0.93642 0.00532
 C661 C -0.01839 0.91202 0.01868
 C662 C -0.01762 0.89138 0.03042
 C663 C -0.01611 0.86744 0.04454
 C664 C -0.01425 0.84721 0.05687
 C665 C 0.05929 0.58217 -0.04851
 C666 C 0.05313 0.59646 -0.03054
 C667 C 0.04617 0.61365 -0.00981
 C668 C 0.04040 0.62871 0.00762
 C669 C 0.03385 0.64680 0.02771
 C670 C 0.02841 0.66262 0.04457
 C671 C 0.55931 0.08161 0.45081
 C672 C 0.55334 0.09588 0.46886
 C673 C 0.54663 0.11300 0.48973
 C674 C 0.54108 0.12800 0.50728
 C675 C 0.53473 0.14602 0.52748
 C676 C 0.52938 0.16182 0.54439
 C677 C -0.06187 0.08236 0.54503
 C678 C -0.05555 0.09639 0.52689
 C679 C -0.04839 0.11327 0.50595
 C680 C -0.04244 0.12811 0.48836
 C681 C -0.03562 0.14599 0.46814
 C682 C -0.02987 0.16170 0.45124
 C683 C 0.43732 0.58224 1.04448
 C684 C 0.44366 0.59631 1.02638
 C685 C 0.45091 0.61325 1.00552
 C686 C 0.45698 0.62814 0.98802
 C687 C 0.46399 0.64609 0.96793
 C688 C 0.46992 0.66185 0.95115
 C689 C 0.55876 0.91481 1.04554
 C690 C 0.55256 0.90077 1.02743
 C691 C 0.54551 0.88386 1.00653
 C692 C 0.53962 0.86903 0.98898
 C693 C 0.53282 0.85117 0.96881
 C694 C 0.52706 0.83550 0.95195
 C695 C 0.05820 0.41423 0.54528
 C696 C 0.05199 0.40029 0.52708
 C697 C 0.04494 0.38350 0.50610
 C698 C 0.03904 0.36873 0.48849
 C699 C 0.03223 0.35092 0.46827
 C700 C 0.02646 0.33528 0.45138
 C701 C 0.41752 0.45424 0.44159
 C702 C 0.40322 0.47201 0.44833
 C703 C 0.38603 0.49251 0.45597
 C704 C 0.37094 0.50975 0.46229
 C705 C 0.35278 0.52957 0.46946
 C706 C 0.33684 0.54617 0.47542
 C707 C 0.95747 -0.00576 -0.01863
 C708 C 0.93642 0.00532 -0.01874
 C709 C 0.91202 0.01868 -0.01840
 C710 C 0.89138 0.03042 -0.01762
 C711 C 0.86744 0.04453 -0.01611
 C712 C 0.84721 0.05687 -0.01425
 C713 C 0.58217 -0.04851 0.05929
 C714 C 0.59647 -0.03055 0.05313
 C715 C 0.61365 -0.00982 0.04616
 C716 C 0.62871 0.00762 0.04040
 C717 C 0.64680 0.02771 0.03385
 C718 C 0.66262 0.04456 0.02841
 C719 C 0.08161 0.45081 0.55931
 C720 C 0.09588 0.46886 0.55334
 C721 C 0.11300 0.48972 0.54663
 C722 C 0.12800 0.50727 0.54107
 C723 C 0.14602 0.52748 0.53473
 C724 C 0.16182 0.54439 0.52938
 C725 C 0.08236 0.54503 -0.06187
 C726 C 0.09639 0.52688 -0.05555
 C727 C 0.11328 0.50594 -0.04839
 C728 C 0.12812 0.48835 -0.04244
 C729 C 0.14599 0.46813 -0.03562
 C730 C 0.16170 0.45124 -0.02987
 C731 C 0.58224 1.04448 0.43732
 C732 C 0.59631 1.02637 0.44366
 C733 C 0.61326 1.00551 0.45091
 C734 C 0.62815 0.98802 0.45699
 C735 C 0.64609 0.96793 0.46400
 C736 C 0.66186 0.95115 0.46992
 C737 C 0.91482 1.04554 0.55876
 C738 C 0.90077 1.02743 0.55256
 C739 C 0.88387 1.00653 0.54551
 C740 C 0.86903 0.98898 0.53962
 C741 C 0.85117 0.96881 0.53282
 C742 C 0.83550 0.95194 0.52706
 C743 C 0.41423 0.54528 0.05820
 C744 C 0.40030 0.52708 0.05200
 C745 C 0.38350 0.50609 0.04494
 C746 C 0.36873 0.48849 0.03904
 C747 C 0.35093 0.46826 0.03223
 C748 C 0.33528 0.45138 0.02646
 C749 C 0.45425 0.44159 0.41752
 C750 C 0.47201 0.44833 0.40322
 C751 C 0.49252 0.45597 0.38603
 C752 C 0.50975 0.46229 0.37094
 C753 C 0.52958 0.46946 0.35278
 C754 C 0.54617 0.47542 0.33684
 C755 C -0.00576 -0.01863 0.95747
 C756 C 0.00532 -0.01875 0.93642
 C757 C 0.01868 -0.01840 0.91202
 C758 C 0.03043 -0.01763 0.89138
 C759 C 0.04454 -0.01612 0.86744
 C760 C 0.05687 -0.01425 0.84721
 C761 C -0.04851 0.05929 0.58217
 C762 C -0.03054 0.05313 0.59647
 C763 C -0.00981 0.04616 0.61365
 C764 C 0.00762 0.04040 0.62871
 C765 C 0.02771 0.03385 0.64680
 C766 C 0.04457 0.02841 0.66262
 C767 C 0.45081 0.55931 0.08162
 C768 C 0.46886 0.55334 0.09588
 C769 C 0.48973 0.54663 0.11300
 C770 C 0.50728 0.54107 0.12800
 C771 C 0.52748 0.53472 0.14603
 C772 C 0.54439 0.52938 0.16182
 C773 C 0.54503 -0.06188 0.08236
 C774 C 0.52689 -0.05555 0.09639
 C775 C 0.50595 -0.04839 0.11328
 C776 C 0.48836 -0.04245 0.12812
 C777 C 0.46814 -0.03562 0.14599
 C778 C 0.45124 -0.02987 0.16170
 C779 C 1.04448 0.43732 0.58224
 C780 C 1.02637 0.44365 0.59631
 C781 C 1.00552 0.45090 0.61326
 C782 C 0.98802 0.45698 0.62815
 C783 C 0.96793 0.46399 0.64609
 C784 C 0.95115 0.46991 0.66186
 C785 C 1.04554 0.55876 0.91482
 C786 C 1.02743 0.55256 0.90077
 C787 C 1.00653 0.54551 0.88387
 C788 C 0.98898 0.53962 0.86903
 C789 C 0.96881 0.53282 0.85117
 C790 C 0.95195 0.52705 0.83550
 C791 C 0.54528 0.05820 0.41423
 C792 C 0.52708 0.05199 0.40030
 C793 C 0.50610 0.04494 0.38350
 C794 C 0.48849 0.03904 0.36873
 C795 C 0.46827 0.03223 0.35093
 C796 C 0.45138 0.02646 0.33528
   
