data_POSCAR
  _audit_creation_date              2014-09-24
  _audit_creation_method            'ToBaCCo'
  _symmetry_space_group_name_H-M    'P1'
  _symmetry_Int_Tables_number       1
  _symmetry_cell_setting            triclinic
  loop_
  _symmetry_equiv_pos_as_xyz
 x,y,z
_cell_length_a 29.6020
_cell_length_b 30.0811
_cell_length_c 23.2188
_cell_angle_alpha 88.738000
_cell_angle_beta 95.784600
_cell_angle_gamma 90.745900
loop_
  _atom_site_label
  _atom_site_type_symbol
  _atom_site_fract_x
  _atom_site_fract_y
  _atom_site_fract_z
C1 C 1.29115 0.21514 0.25692
 C2 C 1.25370 0.24292 0.25718
 C3 C 1.20970 0.22578 0.24485
 C4 C 1.20305 0.18164 0.22850
 C5 C 1.24089 0.15491 0.22308
 C6 C 1.28510 0.17092 0.23960
 C7 C 1.25977 0.29027 0.26922
 C8 C 1.28298 0.31812 0.23275
 C9 C 1.28164 0.36460 0.23775
 C10 C 1.25806 0.38245 0.28184
 C11 C 1.23759 0.35406 0.32048
 C12 C 1.23806 0.30827 0.31363
 H13 H 1.32498 0.22837 0.26891
 H14 H 1.18076 0.24729 0.24639
 H15 H 1.29956 0.30351 0.19825
 H16 H 1.22096 0.28650 0.34259
 H17 H 1.23547 0.12053 0.21097
 H18 H 1.25732 0.41792 0.28842
 C19 C 0.78843 -0.30190 0.30915
 C20 C 0.75310 -0.27089 0.30557
 C21 C 0.70810 -0.28577 0.29428
 C22 C 0.69895 -0.32982 0.27847
 C23 C 0.73507 -0.35889 0.27356
 C24 C 0.78018 -0.34539 0.28990
 C25 C 0.76375 -0.22367 0.29386
 C26 C 0.79256 -0.21453 0.25062
 C27 C 0.79687 -0.17175 0.22791
 C28 C 0.77345 -0.13692 0.24984
 C29 C 0.74274 -0.14546 0.29153
 C30 C 0.73882 -0.18891 0.31439
 H31 H 0.82314 -0.29021 0.31878
 H32 H 0.68061 -0.26210 0.29087
 H33 H 0.80934 -0.24144 0.23123
 H34 H 0.71417 -0.19631 0.34483
 H35 H 0.72762 -0.39240 0.25899
 H36 H 0.77666 -0.10394 0.23099
 C37 C 0.79190 0.21004 -0.24831
 C38 C 0.74921 0.22951 -0.24886
 C39 C 0.71025 0.20261 -0.25077
 C40 C 0.71354 0.15644 -0.25181
 C41 C 0.75643 0.13676 -0.24973
 C42 C 0.79581 0.16365 -0.24746
 C43 C 0.74485 0.27782 -0.24427
 C44 C 0.76653 0.30720 -0.28031
 C45 C 0.75983 0.35329 -0.27796
 C46 C 0.73163 0.36949 -0.23767
 C47 C 0.71261 0.34009 -0.19889
 C48 C 0.71862 0.29445 -0.20315
 H49 H 0.82216 0.23090 -0.24498
 H50 H 0.67707 0.21779 -0.25272
 H51 H 0.78741 0.29384 -0.31146
 H52 H 0.70339 0.27170 -0.17358
 H53 H 0.75917 0.10086 -0.24945
 H54 H 0.72715 0.40482 -0.23295
 C55 C 1.27996 -0.29637 -0.22116
 C56 C 1.24457 -0.26576 -0.22464
 C57 C 1.19936 -0.28066 -0.22874
 C58 C 1.18951 -0.32593 -0.23514
 C59 C 1.22511 -0.35609 -0.23726
 C60 C 1.27061 -0.34167 -0.22885
 C61 C 1.25458 -0.21856 -0.23432
 C62 C 1.27831 -0.20583 -0.28120
 C63 C 1.28495 -0.16093 -0.29475
 C64 C 1.26888 -0.12831 -0.25977
 C65 C 1.24388 -0.14110 -0.21343
 C66 C 1.23684 -0.18627 -0.20118
 H67 H 1.31483 -0.28432 -0.21715
 H68 H 1.17201 -0.25683 -0.23221
 H69 H 1.29020 -0.23102 -0.30862
 H70 H 1.21739 -0.19646 -0.16590
 H71 H 1.21704 -0.39102 -0.24318
 H72 H 1.27318 -0.09346 -0.27091
 C73 C 0.20627 0.27763 0.73723
 C74 C 0.24339 0.25201 0.76051
 C75 C 0.23692 0.21785 0.80074
 C76 C 0.19345 0.20704 0.81648
 C77 C 0.15641 0.23214 0.79189
 C78 C 0.16237 0.26831 0.75324
 C79 C 0.28815 0.25528 0.73778
 C80 C 0.32304 0.28247 0.76373
 C81 C 0.36778 0.27953 0.74800
 C82 C 0.37680 0.24746 0.70662
 C83 C 0.34183 0.22073 0.68008
 C84 C 0.29769 0.22518 0.69568
 H85 H 0.21145 0.30389 0.70582
 H86 H 0.26598 0.19800 0.81657
 H87 H 0.31528 0.30517 0.79689
 H88 H 0.27070 0.20389 0.67640
 H89 H 0.12318 0.22409 0.80480
 H90 H 0.41036 0.24374 0.69306
 C91 C 0.69586 0.76913 0.70936
 C92 C 0.72738 0.75527 0.75471
 C93 C 0.71229 0.74156 0.80740
 C94 C 0.66534 0.73843 0.81371
 C95 C 0.63391 0.75427 0.76821
 C96 C 0.64928 0.77047 0.71610
 C97 C 0.77471 0.74779 0.74283
 C98 C 0.81159 0.77097 0.77151
 C99 C 0.85615 0.76371 0.75747
 C100 C 0.86304 0.73146 0.71580
 C101 C 0.82617 0.70888 0.68660
 C102 C 0.78229 0.71736 0.70027
 H103 H 0.70818 0.77993 0.66884
 H104 H 0.73709 0.72848 0.84079
 H105 H 0.80537 0.79536 0.80336
 H106 H 0.75367 0.69970 0.67815
 H107 H 0.59784 0.75305 0.77282
 H108 H 0.89660 0.72500 0.70370
 C109 C 0.71008 0.27251 0.21541
 C110 C 0.73922 0.24948 0.25650
 C111 C 0.72183 0.22938 0.30458
 C112 C 0.67517 0.23114 0.31094
 C113 C 0.64610 0.25479 0.26985
 C114 C 0.66369 0.27592 0.22224
 C115 C 0.78679 0.24259 0.24579
 C116 C 0.82232 0.26628 0.27612
 C117 C 0.86750 0.26045 0.26405
 C118 C 0.87655 0.22895 0.22218
 C119 C 0.84087 0.20560 0.19114
 C120 C 0.79615 0.21289 0.20322
 H121 H 0.72362 0.28784 0.17799
 H122 H 0.74425 0.21042 0.33544
 H123 H 0.81453 0.29000 0.30805
 H124 H 0.76830 0.19516 0.17959
 H125 H 0.61010 0.25630 0.27452
 H126 H 0.91075 0.22388 0.21139
 C127 C 0.19627 0.76435 0.23530
 C128 C 0.22902 0.74824 0.27761
 C129 C 0.21568 0.72932 0.32873
 C130 C 0.16917 0.72335 0.33627
 C131 C 0.13624 0.74037 0.29326
 C132 C 0.14995 0.76183 0.24313
 C133 C 0.27555 0.74256 0.26220
 C134 C 0.31127 0.77115 0.28212
 C135 C 0.35442 0.76697 0.26220
 C136 C 0.36129 0.73263 0.22330
 C137 C 0.32526 0.70466 0.20260
 C138 C 0.28273 0.70976 0.22258
 H139 H 0.20715 0.77862 0.19556
 H140 H 0.24169 0.71482 0.35938
 H141 H 0.30495 0.79740 0.31139
 H142 H 0.25460 0.68843 0.20663
 H143 H 0.10040 0.73640 0.29833
 H144 H 0.39367 0.72875 0.20640
 N145 N 1.07682 0.03318 0.09077
 N146 N 1.10520 0.06471 0.10966
 N147 N 1.04218 -0.06124 0.11713
 N148 N 1.04051 -0.09941 0.14647
 N149 N 1.07763 -0.06007 0.08718
 N150 N 1.10056 -0.09736 0.09487
 N151 N 1.04046 0.03274 0.11856
 N152 N 1.04305 0.06436 0.15756
 C153 C 1.08375 0.08397 0.15084
 C154 C 1.07759 -0.12122 0.13271
 N155 N 0.92197 -0.06400 0.03350
 N156 N 0.88825 -0.09298 0.03524
 N157 N 0.94393 0.03082 0.08405
 N158 N 0.93288 0.06459 0.11529
 N159 N 0.91813 0.02971 0.03456
 N160 N 0.88912 0.06282 0.03070
 N161 N 0.94598 -0.06228 0.08419
 N162 N 0.92889 -0.08950 0.12181
 Mn163 Mn 0.99312 -0.01480 0.10172
 C164 C 0.89364 -0.10902 0.09030
 C165 C 0.89856 0.08423 0.08130
 N166 N 1.09760 -0.05248 -0.03261
 N167 N 1.13832 -0.06766 -0.03959
 N168 N 1.06842 0.04253 -0.07694
 N169 N 1.08451 0.07368 -0.11089
 N170 N 1.09405 0.03976 -0.02736
 N171 N 1.12797 0.06854 -0.02631
 N172 N 1.07256 -0.05057 -0.08279
 N173 N 1.09577 -0.06518 -0.12411
 Mn174 Mn 1.08653 -0.01018 0.02990
 C175 C 1.13618 -0.07683 -0.09631
 C176 C 1.12124 0.09008 -0.07800
 N177 N 0.93428 0.03304 -0.08536
 N178 N 0.90143 0.05804 -0.11040
 N179 N 0.97613 -0.05575 -0.11495
 N180 N 0.97888 -0.08903 -0.15039
 N181 N 0.93951 -0.05990 -0.08748
 N182 N 0.91590 -0.09582 -0.10452
 N183 N 0.97110 0.03760 -0.11222
 N184 N 0.96410 0.06597 -0.15642
 Mn185 Mn 0.92803 -0.01556 -0.02627
 Mn186 Mn 1.02189 -0.00630 -0.09712
 Cl187 Cl 1.00739 -0.01183 0.00181
 C188 C 0.92069 0.07878 -0.15400
 C189 C 0.94102 -0.11355 -0.14388
 N190 N 1.06205 0.54235 0.60638
 N191 N 1.08989 0.57263 0.62986
 N192 N 1.03071 0.44652 0.63327
 N193 N 1.03041 0.41083 0.66714
 N194 N 1.06862 0.44925 0.60843
 N195 N 1.09551 0.41555 0.62555
 N196 N 1.02461 0.54010 0.63197
 N197 N 1.02603 0.56924 0.67413
 C198 C 1.06693 0.58955 0.67125
 C199 C 1.07111 0.39199 0.66245
 N200 N 0.91250 0.43745 0.54286
 N201 N 0.87262 0.41819 0.54746
 N202 N 0.92977 0.53302 0.59093
 N203 N 0.91673 0.56713 0.61985
 N204 N 0.90590 0.53032 0.54028
 N205 N 0.87598 0.56261 0.53325
 N206 N 0.93540 0.43993 0.59445
 N207 N 0.91139 0.42183 0.63395
 Mn208 Mn 0.98017 0.49001 0.61306
 C209 C 0.87283 0.40739 0.60407
 C210 C 0.88306 0.58515 0.58327
 N211 N 1.09105 0.45466 0.49082
 N212 N 1.12889 0.43203 0.49332
 N213 N 1.05984 0.54824 0.43848
 N214 N 1.07011 0.58416 0.40806
 N215 N 1.08335 0.54773 0.48966
 N216 N 1.10975 0.58325 0.49560
 N217 N 1.07038 0.45538 0.43805
 N218 N 1.09433 0.43339 0.40303
 Mn219 Mn 1.07655 0.49831 0.54888
 C220 C 1.13024 0.41845 0.43875
 C221 C 1.10118 0.60583 0.44473
 N222 N 0.92791 0.53319 0.42410
 N223 N 0.89427 0.55695 0.39918
 N224 N 0.97504 0.44474 0.39873
 N225 N 0.98073 0.41132 0.36454
 N226 N 0.93717 0.43966 0.42355
 N227 N 0.91575 0.40266 0.40576
 N228 N 0.96392 0.53723 0.39566
 N229 N 0.95459 0.56278 0.34873
 Mn230 Mn 0.92076 0.48483 0.48239
 Mn231 Mn 1.01736 0.49659 0.41696
 Cl232 Cl 0.99862 0.49216 0.51529
 C233 C 0.91135 0.57594 0.35312
 C234 C 0.94352 0.38541 0.36892
 N235 N 0.57336 0.03925 0.57376
 N236 N 0.60686 0.06157 0.60198
 N237 N 0.53563 -0.05548 0.59291
 N238 N 0.53487 -0.09423 0.62118
 N239 N 0.57054 -0.05329 0.56192
 N240 N 0.59387 -0.09033 0.56768
 N241 N 0.53777 0.03755 0.60331
 N242 N 0.54649 0.05856 0.65269
 C243 C 0.58947 0.07390 0.65052
 C244 C 0.57175 -0.11533 0.60522
 N245 N 0.41348 -0.05075 0.51356
 N246 N 0.37740 -0.07684 0.51477
 N247 N 0.44003 0.04120 0.57076
 N248 N 0.43080 0.07473 0.60384
 N249 N 0.41357 0.04248 0.52169
 N250 N 0.38610 0.07665 0.51997
 N251 N 0.43819 -0.05213 0.56384
 N252 N 0.41908 -0.07867 0.60066
 Mn253 Mn 0.48785 -0.00708 0.58340
 C254 C 0.38183 -0.09451 0.56895
 C255 C 0.39685 0.09649 0.57130
 N256 N 0.58736 -0.04172 0.44123
 N257 N 0.62526 -0.06183 0.43100
 N258 N 0.56026 0.05573 0.40523
 N259 N 0.56989 0.09326 0.37800
 N260 N 0.58664 0.05119 0.45398
 N261 N 0.61429 0.08570 0.46179
 N262 N 0.56060 -0.03698 0.39288
 N263 N 0.57946 -0.05380 0.34937
 Mn264 Mn 0.57972 -0.00133 0.50789
 C265 C 0.61914 -0.07021 0.37366
 C266 C 0.60362 0.11157 0.41409
 N267 N 0.42755 0.05106 0.40172
 N268 N 0.39387 0.07496 0.37645
 N269 N 0.46484 -0.03816 0.36359
 N270 N 0.46801 -0.07205 0.32933
 N271 N 0.42910 -0.04274 0.39259
 N272 N 0.40673 -0.07998 0.37812
 N273 N 0.46308 0.05454 0.37226
 N274 N 0.45366 0.07985 0.32543
 Mn275 Mn 0.42060 -0.00020 0.45730
 Mn276 Mn 0.51217 0.00905 0.38332
 Cl277 Cl 0.50008 0.00010 0.48307
 C278 C 0.41100 0.09370 0.32992
 C279 C 0.43136 -0.09760 0.33810
 N280 N 0.56721 0.55717 0.09292
 N281 N 0.59582 0.58591 0.11890
 N282 N 0.54366 0.45791 0.11699
 N283 N 0.54617 0.41811 0.14265
 N284 N 0.57885 0.46504 0.08759
 N285 N 0.60583 0.43040 0.09213
 N286 N 0.53186 0.55091 0.12199
 N287 N 0.53544 0.57570 0.16864
 C288 C 0.57522 0.59784 0.16523
 C289 C 0.58569 0.40186 0.12749
 N290 N 0.42047 0.44548 0.03781
 N291 N 0.38157 0.42568 0.04683
 N292 N 0.43603 0.53956 0.08907
 N293 N 0.42187 0.57066 0.12218
 N294 N 0.40980 0.53742 0.04002
 N295 N 0.37700 0.56676 0.03851
 N296 N 0.44697 0.44693 0.08700
 N297 N 0.42643 0.42729 0.12876
 Mn298 Mn 0.48972 0.49887 0.10414
 C299 C 0.38601 0.41339 0.10330
 C300 C 0.38498 0.58724 0.08992
 N301 N 0.59382 0.47536 -0.03140
 N302 N 0.62731 0.44694 -0.02992
 N303 N 0.55547 0.56737 -0.07646
 N304 N 0.56370 0.60358 -0.10761
 N305 N 0.58081 0.56749 -0.02662
 N306 N 0.60635 0.60362 -0.02218
 N307 N 0.56936 0.47502 -0.08163
 N308 N 0.58596 0.44651 -0.11635
 Mn309 Mn 0.58041 0.51628 0.03067
 C310 C 0.62200 0.42931 -0.08304
 C311 C 0.59532 0.62609 -0.07259
 N312 N 0.42453 0.54525 -0.07989
 N313 N 0.38806 0.56499 -0.10477
 N314 N 0.47383 0.46056 -0.11297
 N315 N 0.47814 0.42953 -0.15112
 N316 N 0.43804 0.45258 -0.08481
 N317 N 0.41668 0.41593 -0.10412
 N318 N 0.45902 0.55205 -0.11061
 N319 N 0.44599 0.57545 -0.15823
 Mn320 Mn 0.42312 0.49494 -0.02199
 Mn321 Mn 0.51448 0.51394 -0.09605
 Cl322 Cl 0.50174 0.50583 0.00420
 C323 C 0.40204 0.58460 -0.15258
 C324 C 0.44236 0.40194 -0.14546
 C325 C 1.15699 0.16274 0.21728
 C326 C 1.11874 0.17587 0.24186
 C327 C 1.08483 0.14740 0.22095
 C328 C 1.10523 0.11973 0.18513
 O329 O 1.14865 0.12882 0.18303
 H330 H 1.11609 0.20224 0.27223
 H331 H 1.04975 0.14702 0.23034
 C332 C 1.14257 0.65819 0.75200
 C333 C 1.10407 0.67430 0.77315
 C334 C 1.06876 0.64951 0.74715
 C335 C 1.08890 0.62108 0.71192
 O336 O 1.13320 0.62622 0.71506
 H337 H 1.10204 0.70075 0.80361
 H338 H 1.03297 0.65262 0.75197
 C339 C 0.67146 0.13002 0.74100
 C340 C 0.63645 0.13320 0.77570
 C341 C 0.60064 0.11103 0.74731
 C342 C 0.61652 0.09683 0.69716
 O343 O 0.65936 0.10817 0.69324
 H344 H 0.63657 0.15125 0.81552
 H345 H 0.56671 0.10720 0.76037
 C346 C 0.65223 0.65589 0.25968
 C347 C 0.61381 0.66738 0.28488
 C348 C 0.57858 0.64648 0.25318
 C349 C 0.59847 0.62477 0.21077
 O350 O 0.64289 0.63022 0.21480
 H351 H 0.61189 0.68799 0.32215
 H352 H 0.54292 0.64734 0.25972
 C353 C 0.81993 -0.16518 0.17528
 C354 C 0.80995 -0.18940 0.12569
 C355 C 0.83643 -0.17130 0.08639
 C356 C 0.86097 -0.13816 0.11559
 O357 O 0.85090 -0.13401 0.16934
 H358 H 0.78543 -0.21624 0.11878
 H359 H 0.83784 -0.18106 0.04203
 C360 C 0.78274 0.38187 0.68604
 C361 C 0.77399 0.42663 0.67595
 C362 C 0.80522 0.44103 0.64040
 C363 C 0.83078 0.40433 0.63174
 O364 O 0.81749 0.36847 0.65921
 H365 H 0.74824 0.44670 0.69226
 H366 H 0.81014 0.47469 0.62458
 C367 C 0.30455 -0.14912 0.65121
 C368 C 0.28901 -0.16643 0.59822
 C369 C 0.31617 -0.14806 0.55999
 C370 C 0.34665 -0.12165 0.59283
 O371 O 0.33965 -0.12191 0.64822
 H372 H 0.26097 -0.18946 0.58879
 H373 H 0.31427 -0.15345 0.51388
 C374 C 0.30345 0.39189 0.19890
 C375 C 0.29668 0.43710 0.19017
 C376 C 0.32465 0.44981 0.14967
 C377 C 0.34668 0.41182 0.13682
 O378 O 0.33416 0.37662 0.16653
 H379 H 0.27410 0.45855 0.21032
 H380 H 0.32998 0.48324 0.13322
 C381 C 0.84110 0.14380 -0.23782
 C382 C 0.87875 0.15822 -0.26387
 C383 C 0.91420 0.13452 -0.23709
 C384 C 0.89542 0.10820 -0.19624
 O385 O 0.85119 0.11356 -0.19674
 H386 H 0.88024 0.18369 -0.29730
 H387 H 0.94956 0.13712 -0.24497
 C388 C 0.81705 0.62637 0.28579
 C389 C 0.81715 0.58977 0.25088
 C390 C 0.85852 0.57071 0.26461
 C391 C 0.88050 0.59643 0.30746
 O392 O 0.85547 0.63038 0.31976
 H393 H 0.78999 0.57740 0.22054
 H394 H 0.86890 0.53864 0.25064
 C395 C 0.32231 0.14253 0.24396
 C396 C 0.32569 0.10447 0.21246
 C397 C 0.36430 0.08437 0.23632
 C398 C 0.38108 0.11108 0.28115
 O399 O 0.35589 0.14642 0.28571
 H400 H 0.30218 0.09203 0.17763
 H401 H 0.37620 0.05185 0.22620
 C402 C 0.30658 0.62854 -0.22738
 C403 C 0.30471 0.58720 -0.25231
 C404 C 0.34540 0.56826 -0.23453
 C405 C 0.36888 0.59902 -0.19959
 O406 O 0.34550 0.63566 -0.19555
 H407 H 0.27668 0.57193 -0.27851
 H408 H 0.35466 0.53411 -0.24063
 C409 C 1.22216 -0.10851 -0.17924
 C410 C 1.23860 -0.06638 -0.16653
 C411 C 1.20887 -0.04925 -0.13181
 C412 C 1.17657 -0.08213 -0.12664
 O413 O 1.18434 -0.11798 -0.15538
 H414 H 1.26885 -0.05047 -0.18017
 H415 H 1.21004 -0.01650 -0.11332
 C416 C 1.21729 0.37108 0.37021
 C417 C 1.23452 0.36206 0.42649
 C418 C 1.20369 0.37869 0.45951
 C419 C 1.16973 0.39593 0.42070
 O420 O 1.17775 0.39141 0.36622
 H421 H 1.26545 0.34470 0.44135
 H422 H 1.20544 0.37799 0.50632
 C423 C 0.70976 -0.11112 0.30377
 C424 C 0.69664 -0.07668 0.26553
 C425 C 0.66156 -0.05700 0.28780
 C426 C 0.65584 -0.08032 0.33822
 O427 O 0.68481 -0.11342 0.34826
 H428 H 0.70915 -0.06826 0.22445
 H429 H 0.64171 -0.02939 0.26891
 C430 C 0.69027 0.35662 -0.15014
 C431 C 0.69891 0.34010 -0.09427
 C432 C 0.67401 0.36538 -0.06187
 C433 C 0.65159 0.39487 -0.10059
 O434 O 0.66152 0.39005 -0.15429
 H435 H 0.72174 0.31361 -0.07895
 H436 H 0.67247 0.36287 -0.01554
 C437 C 1.18691 0.17140 -0.14459
 C438 C 1.22112 0.15168 -0.10793
 C439 C 1.20034 0.11958 -0.07780
 C440 C 1.15518 0.12115 -0.09851
 O441 O 1.14661 0.15267 -0.13875
 H442 H 1.25687 0.16015 -0.10206
 H443 H 1.21634 0.09713 -0.04503
 C444 C 1.15693 0.69736 0.38360
 C445 C 1.18359 0.69352 0.43592
 C446 C 1.16394 0.66091 0.46637
 C447 C 1.12711 0.64623 0.43054
 O448 O 1.12211 0.66874 0.38042
 H449 H 1.21428 0.71183 0.45005
 H450 H 1.17645 0.64771 0.50865
 C451 C 0.65739 0.20589 0.35898
 C452 C 0.67608 0.20837 0.41566
 C453 C 0.65646 0.17447 0.44426
 C454 C 0.62744 0.15361 0.40291
 O455 O 0.62774 0.17264 0.35096
 H456 H 0.70240 0.23097 0.43330
 H457 H 0.66383 0.16487 0.48939
 C458 C 0.65101 0.71588 -0.13747
 C459 C 0.67594 0.71499 -0.08380
 C460 C 0.65560 0.68378 -0.05189
 C461 C 0.62013 0.66687 -0.08822
 O462 O 0.61660 0.68677 -0.14015
 H463 H 0.70625 0.73399 -0.06993
 H464 H 0.66706 0.67265 -0.00826
 C465 C 0.89460 -0.20827 -0.21663
 C466 C 0.93955 -0.21323 -0.22673
 C467 C 0.96243 -0.17871 -0.20005
 C468 C 0.93032 -0.15523 -0.17487
 O469 O 0.88907 -0.17298 -0.18458
 H470 H 0.95436 -0.23826 -0.25145
 H471 H 0.99833 -0.17121 -0.19950
 C472 C 0.90399 0.28952 0.29259
 C473 C 0.94967 0.28641 0.28554
 C474 C 0.97012 0.32135 0.31435
 C475 C 0.93588 0.34331 0.33753
 O476 O 0.89566 0.32412 0.32463
 H477 H 0.96642 0.26233 0.26138
 H478 H 1.00582 0.33024 0.31742
 C479 C 0.39064 -0.19945 0.27856
 C480 C 0.43373 -0.19951 0.26031
 C481 C 0.45422 -0.16153 0.28071
 C482 C 0.42267 -0.14092 0.31036
 O483 O 0.38402 -0.16375 0.30938
 H484 H 0.44869 -0.22361 0.23432
 H485 H 0.48818 -0.14998 0.27433
 C486 C 0.40213 0.30867 -0.22737
 C487 C 0.44686 0.30938 -0.24028
 C488 C 0.46723 0.34371 -0.21030
 C489 C 0.43417 0.36164 -0.18055
 O490 O 0.39458 0.34052 -0.19049
 H491 H 0.46327 0.28834 -0.26882
 H492 H 0.50214 0.35479 -0.21062
 C493 C 1.11902 -0.22056 0.19924
 C494 C 1.12048 -0.23162 0.14196
 C495 C 1.10080 -0.19743 0.11000
 C496 C 1.08894 -0.16746 0.14959
 O497 O 1.10013 -0.18111 0.20385
 H498 H 1.13801 -0.25932 0.12561
 H499 H 1.09905 -0.19294 0.06345
 C500 C 1.12295 0.29629 0.73028
 C501 C 1.07827 0.28713 0.73969
 C502 C 1.05376 0.32163 0.71513
 C503 C 1.08461 0.34947 0.69174
 O504 O 1.12675 0.33431 0.70053
 H505 H 1.06448 0.25900 0.76206
 H506 H 1.01748 0.32608 0.71441
 C507 C 0.61980 -0.21201 0.67041
 C508 C 0.62424 -0.22111 0.61317
 C509 C 0.60167 -0.18846 0.58156
 C510 C 0.58526 -0.16119 0.62128
 O511 O 0.59590 -0.17542 0.67547
 H512 H 0.64478 -0.24656 0.59677
 H513 H 0.60103 -0.18270 0.53530
 C514 C 0.63448 0.30120 0.17841
 C515 C 0.63374 0.29403 0.11987
 C516 C 0.61214 0.32971 0.09345
 C517 C 0.60106 0.35596 0.13769
 O518 O 0.61479 0.33898 0.18951
 H519 H 0.64983 0.26745 0.09910
 H520 H 0.60741 0.33717 0.04744
 C521 C 0.84896 0.17555 0.14347
 C522 C 0.82152 0.17455 0.09179
 C523 C 0.83747 0.14098 0.06156
 C524 C 0.87340 0.12355 0.09687
 O525 O 0.88080 0.14460 0.14674
 H526 H 0.79281 0.19553 0.07816
 H527 H 0.82388 0.12980 0.01925
 C528 C 0.83270 0.67731 0.64041
 C529 C 0.80438 0.67445 0.58957
 C530 C 0.82038 0.64006 0.56068
 C531 C 0.85699 0.62423 0.59621
 O532 O 0.86485 0.64689 0.64454
 H533 H 0.77535 0.69488 0.57551
 H534 H 0.80653 0.62745 0.51921
 C535 C 0.34980 0.18984 0.63329
 C536 C 0.32268 0.18931 0.58148
 C537 C 0.33786 0.15510 0.55182
 C538 C 0.37305 0.13666 0.58760
 O539 O 0.38072 0.15784 0.63740
 H540 H 0.29469 0.21107 0.56743
 H541 H 0.32422 0.14420 0.50939
 C542 C 0.33035 0.67235 0.15671
 C543 C 0.29764 0.66518 0.11103
 C544 C 0.31445 0.63284 0.07952
 C545 C 0.35597 0.62233 0.10845
 O546 O 0.36603 0.64639 0.15527
 H547 H 0.26540 0.68173 0.10176
 H548 H 0.29810 0.61814 0.04057
   
