data_POSCAR
  _audit_creation_date              2014-09-24
  _audit_creation_method            'ToBaCCo'
  _symmetry_space_group_name_H-M    'P1'
  _symmetry_Int_Tables_number       1
  _symmetry_cell_setting            triclinic
  loop_
  _symmetry_equiv_pos_as_xyz
 x,y,z
_cell_length_a 41.6621
_cell_length_b 42.6121
_cell_length_c 20.1576
_cell_angle_alpha 90.103400
_cell_angle_beta 90.117500
_cell_angle_gamma 89.793700
loop_
  _atom_site_label
  _atom_site_type_symbol
  _atom_site_fract_x
  _atom_site_fract_y
  _atom_site_fract_z
C1 C 0.79879 0.19955 0.44429
 C2 C 0.81008 0.19044 0.50707
 C3 C 0.79436 0.19865 0.56588
 C4 C 0.76707 0.21849 0.56287
 C5 C 0.75586 0.22945 0.50041
 C6 C 0.77170 0.22001 0.44092
 C7 C 0.76184 0.23363 0.38061
 C8 C 0.73615 0.25446 0.37786
 C9 C 0.71975 0.26348 0.43556
 C10 C 0.72978 0.25119 0.49771
 C11 C 0.75271 0.23011 0.62100
 C12 C 0.72757 0.25151 0.61835
 C13 C 0.71505 0.26196 0.55740
 C14 C 0.69038 0.28514 0.55433
 C15 C 0.68098 0.29661 0.49204
 C16 C 0.69484 0.28601 0.43313
 H17 H 0.77470 0.22944 0.33494
 H18 H 0.73008 0.26439 0.33006
 H19 H 0.76179 0.22395 0.66959
 H20 H 0.71912 0.26069 0.66514
 H21 H 0.82992 0.17394 0.51032
 H22 H 0.66164 0.31369 0.48895
 C23 C 0.30981 0.71955 0.44311
 C24 C 0.31897 0.70672 0.50413
 C25 C 0.30475 0.71619 0.56361
 C26 C 0.28005 0.73898 0.56243
 C27 C 0.27131 0.75330 0.50146
 C28 C 0.28627 0.74361 0.44142
 C29 C 0.27660 0.75756 0.38145
 C30 C 0.25345 0.78119 0.38050
 C31 C 0.23831 0.79099 0.43916
 C32 C 0.24699 0.77680 0.50033
 C33 C 0.26290 0.74673 0.62002
 C34 C 0.23836 0.76891 0.61851
 C35 C 0.23093 0.78549 0.56004
 C36 C 0.20630 0.80879 0.55808
 C37 C 0.19872 0.82261 0.49680
 C38 C 0.21441 0.81444 0.43828
 H39 H 0.28672 0.75035 0.33448
 H40 H 0.24710 0.79139 0.33307
 H41 H 0.26765 0.73498 0.66659
 H42 H 0.22491 0.77225 0.66370
 H43 H 0.33772 0.68899 0.50535
 H44 H 0.18092 0.84126 0.49452
 C45 C 0.22794 0.17310 -0.44390
 C46 C 0.21911 0.16109 -0.50626
 C47 C 0.22907 0.17473 -0.56610
 C48 C 0.25091 0.20026 -0.56377
 C49 C 0.26190 0.21170 -0.50149
 C50 C 0.25064 0.19800 -0.44154
 C51 C 0.26384 0.20840 -0.38108
 C52 C 0.28474 0.23368 -0.37859
 C53 C 0.29517 0.24841 -0.43683
 C54 C 0.28441 0.23685 -0.49911
 C55 C 0.26340 0.21362 -0.62198
 C56 C 0.28414 0.23900 -0.61962
 C57 C 0.29575 0.25066 -0.55892
 C58 C 0.31698 0.27678 -0.55597
 C59 C 0.32572 0.28861 -0.49350
 C60 C 0.31584 0.27459 -0.43446
 H61 H 0.25840 0.19694 -0.33468
 H62 H 0.29268 0.24146 -0.33020
 H63 H 0.25744 0.20459 -0.67056
 H64 H 0.29059 0.24945 -0.66646
 H65 H 0.20077 0.14313 -0.50862
 H66 H 0.34239 0.30808 -0.49037
 C67 C -0.31665 0.71838 -0.44289
 C68 C -0.32495 0.70607 -0.50519
 C69 C -0.31643 0.72067 -0.56491
 C70 C -0.29660 0.74774 -0.56253
 C71 C -0.28565 0.75925 -0.50017
 C72 C -0.29616 0.74497 -0.44023
 C73 C -0.28399 0.75628 -0.37958
 C74 C -0.26325 0.78165 -0.37724
 C75 C -0.25190 0.79562 -0.43557
 C76 C -0.26319 0.78446 -0.49778
 C77 C -0.28571 0.76243 -0.62066
 C78 C -0.26487 0.78775 -0.61802
 C79 C -0.25169 0.79806 -0.55757
 C80 C -0.22832 0.82243 -0.55497
 C81 C -0.21870 0.83369 -0.49246
 C82 C -0.22946 0.82041 -0.43328
 H83 H -0.28962 0.74521 -0.33290
 H84 H -0.25581 0.78984 -0.32881
 H85 H -0.29255 0.75424 -0.66937
 H86 H -0.25911 0.79901 -0.66446
 H87 H -0.34127 0.68629 -0.50731
 H88 H -0.20003 0.85130 -0.48924
 N89 N -0.03492 0.97188 0.12545
 N90 N -0.05572 0.97187 0.17468
 N91 N 0.02148 0.93473 0.06168
 N92 N 0.03901 0.90892 0.06592
 N93 N 0.03008 0.95507 0.10725
 N94 N 0.05404 0.94390 0.14309
 N95 N -0.04312 0.95131 0.07996
 N96 N -0.06954 0.93644 0.09744
 C97 C -0.07728 0.94977 0.15639
 C98 C 0.05945 0.91514 0.11659
 N99 N 0.01521 0.96044 -0.12489
 N100 N 0.03191 0.95057 -0.17638
 N101 N -0.05181 0.95444 -0.06228
 N102 N -0.07813 0.93803 -0.07350
 N103 N -0.04931 0.97736 -0.10546
 N104 N -0.07404 0.97741 -0.14642
 N105 N 0.01305 0.93826 -0.07999
 N106 N 0.02853 0.91275 -0.09944
 Mn107 Mn -0.01518 0.94434 -0.00014
 C108 C 0.04046 0.92106 -0.15926
 C109 C -0.09205 0.95305 -0.12537
 N110 N 0.04753 1.02000 0.10992
 N111 N 0.07219 1.01955 0.15091
 N112 N -0.01421 1.05936 0.08358
 N113 N -0.02941 1.08509 0.10254
 N114 N -0.01706 1.03720 0.12838
 N115 N -0.03407 1.04734 0.17931
 N116 N 0.05055 1.04266 0.06635
 N117 N 0.07720 1.05860 0.07747
 Mn118 Mn 0.00640 0.99600 0.11840
 C119 C 0.09073 1.04345 0.12966
 C120 C -0.04205 1.07700 0.16181
 N121 N -0.03162 1.04255 -0.10300
 N122 N -0.05267 1.05541 -0.14382
 N123 N 0.04192 1.04583 -0.07624
 N124 N 0.06834 1.06061 -0.09411
 N125 N 0.03328 1.02553 -0.12196
 N126 N 0.05385 1.02558 -0.17161
 N127 N -0.02239 1.06294 -0.05799
 N128 N -0.03650 1.09034 -0.06774
 Mn129 Mn -0.00819 1.00151 -0.11439
 Mn130 Mn 0.01410 1.05299 0.00395
 Cl131 Cl -0.00074 0.99872 0.00194
 C132 C -0.05596 1.08497 -0.12029
 C133 C 0.07567 1.04745 -0.15345
 N134 N 0.52909 0.46554 -0.11882
 N135 N 0.55062 0.46097 -0.16553
 N136 N 0.46362 0.44211 -0.06670
 N137 N 0.44163 0.42038 -0.07752
 N138 N 0.46163 0.46433 -0.11158
 N139 N 0.43802 0.45863 -0.15343
 N140 N 0.53087 0.44341 -0.07372
 N141 N 0.55351 0.42280 -0.08936
 C142 C 0.56585 0.43442 -0.14654
 C143 C 0.42559 0.43131 -0.13137
 N144 N 0.46723 0.46639 0.12020
 N145 N 0.44596 0.46140 0.16720
 N146 N 0.53430 0.44476 0.07014
 N147 N 0.55760 0.42438 0.08229
 N148 N 0.53472 0.46759 0.11399
 N149 N 0.55850 0.46367 0.15635
 N150 N 0.46701 0.44341 0.07673
 N151 N 0.44571 0.42192 0.09360
 Mn152 Mn 0.49900 0.44300 0.00164
 C153 C 0.43250 0.43374 0.14985
 C154 C 0.57273 0.43680 0.13586
 N155 N 0.46026 0.53160 -0.11401
 N156 N 0.43662 0.53572 -0.15656
 N157 N 0.52849 0.55549 -0.07730
 N158 N 0.55046 0.57643 -0.09355
 N159 N 0.52771 0.53268 -0.12113
 N160 N 0.54932 0.53718 -0.16770
 N161 N 0.46115 0.55466 -0.07077
 N162 N 0.43820 0.57537 -0.08345
 Mn163 Mn 0.49463 0.49853 -0.11688
 C164 C 0.42285 0.56291 -0.13674
 C165 C 0.56349 0.56442 -0.14981
 N166 N 0.53322 0.53475 0.11170
 N167 N 0.55651 0.54023 0.15431
 N168 N 0.46463 0.55601 0.07260
 N169 N 0.44225 0.57696 0.08723
 N170 N 0.46567 0.53385 0.11775
 N171 N 0.44377 0.53883 0.16372
 N172 N 0.53186 0.55691 0.06659
 N173 N 0.55398 0.57847 0.07825
 Mn174 Mn 0.50018 0.50065 0.11644
 Mn175 Mn 0.49656 0.55618 -0.00226
 Cl176 Cl 0.49760 0.49959 -0.00024
 C177 C 0.56945 0.56738 0.13278
 C178 C 0.42922 0.56566 0.14387
 C179 C 0.33163 0.32436 0.38377
 C180 C 0.34817 0.33944 0.33257
 C181 C 0.36414 0.32149 0.28370
 C182 C 0.36270 0.28863 0.28643
 C183 C 0.34636 0.27372 0.33809
 C184 C 0.33059 0.29136 0.38758
 C185 C 0.38208 0.33669 0.23431
 C186 C 0.38469 0.36957 0.23421
 C187 C 0.36816 0.38739 0.28273
 C188 C 0.34973 0.37226 0.33097
 C189 C 0.37115 0.42010 0.28370
 C190 C 0.39138 0.43503 0.23887
 C191 C 0.40858 0.41764 0.19148
 C192 C 0.40451 0.38492 0.18813
 H193 H 0.31957 0.33842 0.42117
 H194 H 0.37505 0.27444 0.24977
 H195 H 0.34739 0.24836 0.34100
 H196 H 0.39474 0.32292 0.19731
 H197 H 0.33744 0.38599 0.36856
 H198 H 0.35856 0.43407 0.32039
 H199 H 0.39401 0.46027 0.24201
 H200 H 0.41787 0.37134 0.15193
 C201 C -0.20390 0.86627 0.38456
 C202 C -0.18362 0.87747 0.33458
 C203 C -0.17164 0.85659 0.28603
 C204 C -0.18024 0.82486 0.28837
 C205 C -0.19962 0.81367 0.33960
 C206 C -0.21189 0.83415 0.38856
 C207 C -0.15026 0.86751 0.23759
 C208 C -0.13980 0.89879 0.23875
 C209 C -0.15180 0.91963 0.28756
 C210 C -0.17413 0.90900 0.33424
 C211 C -0.14041 0.95051 0.29037
 C212 C -0.11652 0.96039 0.24678
 C213 C -0.10425 0.93984 0.19853
 C214 C -0.11652 0.90926 0.19366
 H215 H -0.21315 0.88263 0.42118
 H216 H -0.17087 0.80841 0.25215
 H217 H -0.20348 0.78860 0.34273
 H218 H -0.14086 0.85142 0.20061
 H219 H -0.18313 0.92497 0.37189
 H220 H -0.14931 0.96676 0.32750
 H221 H -0.10742 0.98409 0.25109
 H222 H -0.10689 0.89319 0.15692
 C223 C 0.67249 0.67496 0.36569
 C224 C 0.65603 0.66073 0.31309
 C225 C 0.63752 0.67924 0.26920
 C226 C 0.63685 0.71195 0.27756
 C227 C 0.65323 0.72600 0.33057
 C228 C 0.67098 0.70764 0.37583
 C229 C 0.61902 0.66461 0.21959
 C230 C 0.61835 0.63169 0.21458
 C231 C 0.63777 0.61343 0.25754
 C232 C 0.65677 0.62807 0.30574
 C233 C 0.63683 0.58066 0.25378
 C234 C 0.61549 0.56595 0.21064
 C235 C 0.59515 0.58366 0.16948
 C236 C 0.59744 0.61659 0.16982
 H237 H 0.68613 0.66044 0.39988
 H238 H 0.62268 0.72655 0.24464
 H239 H 0.65047 0.75103 0.33827
 H240 H 0.60423 0.67873 0.18678
 H241 H 0.67110 0.61393 0.33941
 H242 H 0.65168 0.56637 0.28609
 H243 H 0.61425 0.54055 0.21075
 H244 H 0.58162 0.63038 0.13849
 C245 C 0.21078 1.13121 0.36414
 C246 C 0.19224 1.11983 0.31133
 C247 C 0.17715 1.14111 0.26746
 C248 C 0.18157 1.17344 0.27639
 C249 C 0.19967 1.18463 0.32985
 C250 C 0.21444 1.16371 0.37474
 C251 C 0.15676 1.12979 0.21737
 C252 C 0.15051 1.09752 0.21212
 C253 C 0.16623 1.07625 0.25526
 C254 C 0.18743 1.08750 0.30372
 C255 C 0.15932 1.04415 0.25143
 C256 C 0.13566 1.03339 0.20807
 C257 C 0.11910 1.05440 0.16665
 C258 C 0.12744 1.08632 0.16704
 H259 H 0.22197 1.11469 0.39802
 H260 H 0.16993 1.19012 0.24365
 H261 H 0.20059 1.20974 0.33805
 H262 H 0.14467 1.14616 0.18449
 H263 H 0.19901 1.07119 0.33749
 H264 H 0.17123 1.02754 0.28395
 H265 H 0.12964 1.00868 0.20820
 H266 H 0.11451 1.10268 0.13560
 C267 C 0.67202 0.33115 -0.38433
 C268 C 0.65484 0.34497 -0.33228
 C269 C 0.64005 0.32590 -0.28403
 C270 C 0.64356 0.29317 -0.28806
 C271 C 0.66090 0.27950 -0.34023
 C272 C 0.67524 0.29833 -0.38924
 C273 C 0.62137 0.33989 -0.23386
 C274 C 0.61710 0.37265 -0.23215
 C275 C 0.63273 0.39154 -0.27983
 C276 C 0.65167 0.37762 -0.32904
 C277 C 0.62836 0.42410 -0.27911
 C278 C 0.60748 0.43784 -0.23368
 C279 C 0.59093 0.41941 -0.18739
 C280 C 0.59652 0.38684 -0.18541
 H281 H 0.68310 0.34607 -0.42129
 H282 H 0.63228 0.27810 -0.25176
 H283 H 0.66194 0.25414 -0.34377
 H284 H 0.60952 0.32528 -0.19742
 H285 H 0.66319 0.39220 -0.36605
 H286 H 0.64031 0.43886 -0.31507
 H287 H 0.60372 0.46300 -0.23571
 H288 H 0.58367 0.37248 -0.15004
 C289 C 0.15575 0.82478 -0.39066
 C290 C 0.13868 0.83941 -0.33952
 C291 C 0.15474 0.84850 -0.28086
 C292 C 0.18775 0.84256 -0.27453
 C293 C 0.20485 0.82867 -0.32671
 C294 C 0.18910 0.81959 -0.38564
 C295 C 0.13776 0.86436 -0.23074
 C296 C 0.10523 0.87213 -0.23989
 C297 C 0.08934 0.86297 -0.29896
 C298 C 0.10599 0.84614 -0.34766
 C299 C 0.05730 0.87175 -0.30956
 C300 C 0.04136 0.89032 -0.26305
 C301 C 0.05688 0.89953 -0.20456
 C302 C 0.08859 0.88997 -0.19228
 H303 H 0.14301 0.81773 -0.43524
 H304 H 0.20059 0.84973 -0.23026
 H305 H 0.23067 0.82657 -0.32209
 H306 H 0.15008 0.87159 -0.18583
 H307 H 0.09380 0.83933 -0.39305
 H308 H 0.04488 0.86503 -0.35465
 H309 H 0.01692 0.89775 -0.27291
 H310 H 0.10060 0.89756 -0.14729
 C311 C 0.31659 0.66900 -0.36740
 C312 C 0.33295 0.65454 -0.31480
 C313 C 0.34963 0.67309 -0.26788
 C314 C 0.34860 0.70592 -0.27320
 C315 C 0.33260 0.72012 -0.32642
 C316 C 0.31702 0.70173 -0.37442
 C317 C 0.36817 0.65850 -0.21837
 C318 C 0.37094 0.62564 -0.21652
 C319 C 0.35344 0.60722 -0.26247
 C320 C 0.33419 0.62176 -0.31054
 C321 C 0.35659 0.57451 -0.26167
 C322 C 0.37826 0.56020 -0.21844
 C323 C 0.39675 0.57824 -0.17436
 C324 C 0.39218 0.61092 -0.17188
 H325 H 0.30470 0.65479 -0.40471
 H326 H 0.36117 0.72055 -0.23770
 H327 H 0.33340 0.74540 -0.33162
 H328 H 0.38153 0.67271 -0.18325
 H329 H 0.32134 0.60757 -0.34653
 H330 H 0.34322 0.56007 -0.29626
 H331 H 0.38121 0.53495 -0.22074
 H332 H 0.40649 0.62499 -0.13820
 C333 C -0.16094 1.18729 -0.35982
 C334 C -0.14770 1.16995 -0.30755
 C335 C -0.16734 1.14934 -0.27087
 C336 C -0.20043 1.14839 -0.28384
 C337 C -0.21364 1.16648 -0.33501
 C338 C -0.19385 1.18534 -0.37485
 C339 C -0.15337 1.12935 -0.22353
 C340 C -0.12014 1.13023 -0.21182
 C341 C -0.10104 1.15266 -0.24502
 C342 C -0.11490 1.17218 -0.29302
 C343 C -0.06811 1.15453 -0.23120
 C344 C -0.05390 1.13341 -0.18719
 C345 C -0.07227 1.10984 -0.15749
 C346 C -0.10544 1.10852 -0.16896
 H347 H -0.14552 1.20205 -0.38976
 H348 H -0.21592 1.13296 -0.25581
 H349 H -0.23896 1.16409 -0.34627
 H350 H -0.16817 1.11266 -0.19706
 H351 H -0.10002 1.18855 -0.32022
 H352 H -0.05324 1.17180 -0.25564
 H353 H -0.02823 1.13449 -0.17876
 H354 H -0.11955 1.09030 -0.14561
 C355 C 0.66824 0.67111 -0.38161
 C356 C 0.65121 0.65646 -0.33052
 C357 C 0.63524 0.67482 -0.28232
 C358 C 0.63717 0.70763 -0.28554
 C359 C 0.65389 0.72211 -0.33719
 C360 C 0.66960 0.70409 -0.38618
 C361 C 0.61674 0.66010 -0.23322
 C362 C 0.61348 0.62728 -0.23287
 C363 C 0.62999 0.60902 -0.28068
 C364 C 0.64907 0.62368 -0.32850
 C365 C 0.62628 0.57639 -0.28149
 C366 C 0.60532 0.56199 -0.23728
 C367 C 0.58815 0.57986 -0.19063
 C368 C 0.59297 0.61246 -0.18733
 H369 H 0.68032 0.65674 -0.41844
 H370 H 0.62485 0.72213 -0.24938
 H371 H 0.65314 0.74747 -0.34058
 H372 H 0.60409 0.67419 -0.19677
 H373 H 0.66135 0.60962 -0.36559
 H374 H 0.63883 0.56207 -0.31764
 H375 H 0.60211 0.53681 -0.24034
 H376 H 0.57963 0.62640 -0.15171
 C377 C 0.20323 1.12953 -0.38246
 C378 C 0.18263 1.11868 -0.33262
 C379 C 0.17045 1.13987 -0.28490
 C380 C 0.17910 1.17157 -0.28800
 C381 C 0.19872 1.18242 -0.33919
 C382 C 0.21124 1.16164 -0.38735
 C383 C 0.14885 1.12929 -0.23652
 C384 C 0.13833 1.09802 -0.23694
 C385 C 0.15045 1.07687 -0.28503
 C386 C 0.17302 1.08717 -0.33160
 C387 C 0.13897 1.04601 -0.28722
 C388 C 0.11495 1.03641 -0.24362
 C389 C 0.10263 1.05722 -0.19591
 C390 C 0.11492 1.08783 -0.19177
 H391 H 0.21271 1.11289 -0.41824
 H392 H 0.16958 1.18826 -0.25245
 H393 H 0.20256 1.20747 -0.34291
 H394 H 0.13934 1.14563 -0.20013
 H395 H 0.18214 1.07095 -0.36864
 H396 H 0.14794 1.02953 -0.32382
 H397 H 0.10583 1.01270 -0.24740
 H398 H 0.10524 1.10410 -0.15550
 C399 C 0.32360 0.32010 -0.35832
 C400 C 0.34039 0.33495 -0.30685
 C401 C 0.36185 0.31741 -0.26694
 C402 C 0.36558 0.28511 -0.27854
 C403 C 0.34947 0.27070 -0.33133
 C404 C 0.32863 0.28815 -0.37192
 C405 C 0.38037 0.33271 -0.21847
 C406 C 0.37869 0.36548 -0.21154
 C407 C 0.35690 0.38287 -0.25114
 C408 C 0.33739 0.36741 -0.29739
 C409 C 0.35609 0.41566 -0.24626
 C410 C 0.37783 0.43125 -0.20525
 C411 C 0.40006 0.41433 -0.16694
 C412 C 0.39969 0.38137 -0.16846
 H413 H 0.30787 0.33370 -0.39027
 H414 H 0.38202 0.27130 -0.24870
 H415 H 0.35413 0.24619 -0.34202
 H416 H 0.39720 0.31935 -0.18854
 H417 H 0.32107 0.38085 -0.32836
 H418 H 0.33954 0.42931 -0.27619
 H419 H 0.37772 0.45668 -0.20447
 H420 H 0.41709 0.36824 -0.13951
 C421 C -0.21301 0.86367 -0.35638
 C422 C -0.19352 0.87505 -0.30491
 C423 C -0.17544 0.85379 -0.26594
 C424 C -0.17742 0.82150 -0.27884
 C425 C -0.19596 0.81049 -0.33176
 C426 C -0.21386 0.83144 -0.37103
 C427 C -0.15447 0.86521 -0.21702
 C428 C -0.15022 0.89765 -0.20876
 C429 C -0.16840 0.91888 -0.24768
 C430 C -0.19048 0.90745 -0.29434
 C431 C -0.16306 0.95123 -0.24157
 C432 C -0.13884 0.96237 -0.19986
 C433 C -0.12027 0.94146 -0.16201
 C434 C -0.12677 0.90917 -0.16496
 H435 H -0.22629 0.87997 -0.38737
 H436 H -0.16352 0.80489 -0.24989
 H437 H -0.19554 0.78568 -0.34345
 H438 H -0.14033 0.84890 -0.18770
 H439 H -0.20412 0.92376 -0.32466
 H440 H -0.17674 0.96782 -0.27102
 H441 H -0.13416 0.98735 -0.19809
 H442 H -0.11219 0.89290 -0.13649
 C443 C 0.32272 0.67353 0.37178
 C444 C 0.34082 0.65903 0.32183
 C445 C 0.36086 0.67734 0.28083
 C446 C 0.36219 0.70997 0.29046
 C447 C 0.34479 0.72410 0.34189
 C448 C 0.32503 0.70596 0.38300
 C449 C 0.38017 0.66258 0.23287
 C450 C 0.38060 0.62969 0.22743
 C451 C 0.36052 0.61151 0.26875
 C452 C 0.34028 0.62634 0.31459
 C453 C 0.36190 0.57869 0.26548
 C454 C 0.38388 0.56390 0.22360
 C455 C 0.40413 0.58164 0.18285
 C456 C 0.40184 0.61455 0.18357
 H457 H 0.30782 0.65942 0.40409
 H458 H 0.37757 0.72437 0.25985
 H459 H 0.34738 0.74904 0.35079
 H460 H 0.39577 0.67655 0.20174
 H461 H 0.32510 0.61233 0.34656
 H462 H 0.34672 0.56445 0.29688
 H463 H 0.38529 0.53851 0.22352
 H464 H 0.41775 0.62832 0.15274
 C465 C -0.15197 1.18260 0.38795
 C466 C -0.13649 1.16497 0.33877
 C467 C -0.15456 1.15147 0.28679
 C468 C -0.18789 1.15617 0.28484
 C469 C -0.20332 1.17301 0.33532
 C470 C -0.18566 1.18633 0.38804
 C471 C -0.13914 1.13266 0.23908
 C472 C -0.10606 1.12651 0.24408
 C473 C -0.08810 1.14013 0.29635
 C474 C -0.10333 1.15967 0.34259
 C475 C -0.05528 1.13336 0.30261
 C476 C -0.04043 1.11280 0.25827
 C477 C -0.05801 1.09919 0.20650
 C478 C -0.09071 1.10630 0.19885
 H479 H -0.13770 1.19302 0.42725
 H480 H -0.20220 1.14572 0.24574
 H481 H -0.22930 1.17397 0.33492
 H482 H -0.15301 1.12210 0.19935
 H483 H -0.08954 1.16991 0.38284
 H484 H -0.04123 1.14354 0.34245
 H485 H -0.01516 1.10740 0.26440
 H486 H -0.10422 1.09554 0.15884
 C487 C 0.68289 0.33238 0.36203
 C488 C 0.66575 0.34648 0.31008
 C489 C 0.64836 0.32761 0.26488
 C490 C 0.64941 0.29481 0.27132
 C491 C 0.66603 0.28098 0.32423
 C492 C 0.68234 0.29972 0.37055
 C493 C 0.62905 0.34188 0.21621
 C494 C 0.62610 0.37473 0.21381
 C495 C 0.64419 0.39345 0.25820
 C496 C 0.66432 0.37922 0.30513
 C497 C 0.64073 0.42614 0.25717
 C498 C 0.61825 0.44014 0.21523
 C499 C 0.59934 0.42181 0.17253
 C500 C 0.60412 0.38915 0.17028
 H501 H 0.69529 0.34687 0.39814
 H502 H 0.63627 0.27994 0.23718
 H503 H 0.66508 0.25577 0.33064
 H504 H 0.61519 0.32744 0.18236
 H505 H 0.67766 0.39364 0.33992
 H506 H 0.65450 0.44080 0.29065
 H507 H 0.61511 0.46537 0.21732
 H508 H 0.58944 0.37486 0.13770
 C509 C 0.18203 0.82018 0.33462
 C510 C 0.16641 0.84014 0.28934
 C511 C 0.17444 0.87239 0.28767
 C512 C 0.19929 0.88369 0.32802
 C513 C 0.21437 0.86379 0.37335
 C514 C 0.20516 0.83226 0.37834
 C515 C 0.15635 0.89315 0.24866
 C516 C 0.13006 0.88220 0.21196
 C517 C 0.12321 0.84972 0.21031
 C518 C 0.14154 0.82884 0.24880
 C519 C 0.09729 0.83887 0.17219
 C520 C 0.07737 0.86014 0.13884
 C521 C 0.08285 0.89254 0.14385
 C522 C 0.10970 0.90339 0.17909
 H523 H 0.17462 0.79593 0.33933
 H524 H 0.20588 0.90826 0.32704
 H525 H 0.23191 0.87340 0.40746
 H526 H 0.16185 0.91802 0.24919
 H527 H 0.13559 0.80409 0.24939
 H528 H 0.09187 0.81405 0.16972
 H529 H 0.05684 0.85134 0.11163
 H530 H 0.11426 0.92839 0.18233
   
