data_POSCAR
  _audit_creation_date              2014-09-24
  _audit_creation_method            'ToBaCCo'
  _symmetry_space_group_name_H-M    'P1'
  _symmetry_Int_Tables_number       1
  _symmetry_cell_setting            triclinic
  loop_
  _symmetry_equiv_pos_as_xyz
 x,y,z
_cell_length_a 45.3273
_cell_length_b 48.0658
_cell_length_c 47.4791
_cell_angle_alpha 84.836300
_cell_angle_beta 96.277300
_cell_angle_gamma 95.130800
loop_
  _atom_site_label
  _atom_site_type_symbol
  _atom_site_fract_x
  _atom_site_fract_y
  _atom_site_fract_z
C1 C 0.21410 0.27375 0.27492
 C2 C 0.23215 0.29070 0.25267
 C3 C 0.24886 0.27503 0.23911
 C4 C 0.24559 0.24360 0.24848
 C5 C 0.19550 0.25138 0.25783
 C6 C 0.21192 0.23552 0.24408
 C7 C 0.23695 0.25753 0.29451
 C8 C 0.25335 0.24165 0.28085
 H9 H 0.23167 0.31313 0.24795
 H10 H 0.25916 0.23097 0.23723
 H11 H 0.17144 0.24987 0.25464
 H12 H 0.23890 0.25775 0.31743
 C13 C 0.72206 0.78560 0.27398
 C14 C 0.74145 0.80158 0.25222
 C15 C 0.75668 0.78482 0.23840
 C16 C 0.75098 0.75342 0.24719
 C17 C 0.70193 0.76472 0.25634
 C18 C 0.71689 0.74774 0.24236
 C19 C 0.74326 0.76748 0.29341
 C20 C 0.75824 0.75039 0.27967
 H21 H 0.74189 0.82391 0.24669
 H22 H 0.76329 0.74013 0.23544
 H23 H 0.67789 0.76351 0.25529
 H24 H 0.74593 0.76824 0.31628
 C25 C 0.72253 0.28718 0.77555
 C26 C 0.74153 0.30409 0.75671
 C27 C 0.75892 0.28836 0.74130
 C28 C 0.75350 0.25804 0.74765
 C29 C 0.70345 0.26741 0.75578
 C30 C 0.71954 0.25199 0.74118
 C31 C 0.74315 0.26817 0.79455
 C32 C 0.75925 0.25265 0.78017
 H33 H 0.74205 0.32668 0.75426
 H34 H 0.76601 0.24505 0.73586
 H35 H 0.67940 0.26629 0.75298
 H36 H 0.74443 0.26693 0.81754
 C37 C 0.22525 0.77883 0.77494
 C38 C 0.24753 0.79585 0.75658
 C39 C 0.26416 0.77993 0.74323
 C40 C 0.25690 0.74825 0.74910
 C41 C 0.20676 0.75990 0.75401
 C42 C 0.22317 0.74377 0.74061
 C43 C 0.24407 0.75904 0.79497
 C44 C 0.26095 0.74318 0.78174
 H45 H 0.24865 0.81843 0.75269
 H46 H 0.27052 0.73561 0.73790
 H47 H 0.18282 0.75981 0.74959
 H48 H 0.24397 0.75797 0.81784
 C49 C 0.04745 0.03157 0.00431
 H50 H 0.04744 0.03664 -0.01835
 C51 C 0.06478 0.04849 0.02328
 H52 H 0.07796 0.06667 0.01498
 C53 C 0.02889 0.00256 0.04253
 H54 H 0.01450 -0.01504 0.05002
 C55 C 0.04592 0.01883 0.06222
 H56 H 0.04484 0.01312 0.08469
 N57 N 0.02990 0.00917 0.01418
 C58 C 0.01177 -0.04808 -0.05315
 H59 H -0.01232 -0.04985 -0.05545
 C60 C 0.02720 -0.06365 -0.06928
 H61 H 0.01477 -0.07704 -0.08434
 C62 C 0.05711 -0.02835 -0.03069
 H63 H 0.06868 -0.01494 -0.01529
 C64 C 0.07343 -0.04356 -0.04635
 H65 H 0.09750 -0.04170 -0.04272
 Zn66 Zn 0.00450 -0.01109 -0.01256
 N67 N 0.02684 -0.03069 -0.03451
 C68 C -0.01950 0.01664 -0.06475
 N69 N -0.01792 0.01522 -0.03588
 C70 C -0.03209 0.03310 -0.02240
 C71 C -0.04965 0.05265 -0.03800
 C72 C -0.03684 0.03593 -0.08122
 C73 C -0.00924 -0.06018 0.02171
 C74 C -0.02691 -0.07962 0.03756
 C75 C -0.06917 -0.05296 0.02158
 C76 C -0.05077 -0.03422 0.00585
 N77 N -0.02124 -0.03773 0.00671
 H78 H -0.00758 0.00268 -0.07510
 H79 H -0.02996 0.03191 0.00059
 H80 H -0.06081 0.06662 -0.02681
 H81 H -0.03847 0.03626 -0.10417
 H82 H 0.01424 -0.06270 0.02172
 H83 H -0.01685 -0.09727 0.04941
 H84 H -0.09232 -0.04899 0.02148
 H85 H -0.06009 -0.01658 -0.00655
 C86 C 0.05848 -0.06150 -0.06599
 C87 C 0.06392 0.04236 0.05270
 C88 C -0.05726 -0.07590 0.03803
 C89 C -0.05249 0.05404 -0.06783
 C90 C 0.05272 0.53808 0.50316
 H91 H 0.05062 0.54175 0.48024
 C92 C 0.07119 0.55641 0.51977
 H93 H 0.08362 0.57402 0.50947
 C94 C 0.03846 0.51096 0.54441
 H95 H 0.02515 0.49360 0.55394
 C96 C 0.05687 0.52865 0.56183
 H97 H 0.05752 0.52472 0.58470
 N98 N 0.03668 0.51600 0.51565
 C99 C 0.01371 0.45421 0.45319
 H100 H -0.01033 0.45242 0.45231
 C101 C 0.02794 0.43766 0.43699
 H102 H 0.01461 0.42349 0.42331
 C103 C 0.06017 0.47513 0.47200
 H104 H 0.07267 0.48948 0.48596
 C105 C 0.07530 0.45895 0.45623
 H106 H 0.09941 0.46098 0.45838
 Zn107 Zn 0.00941 0.49433 0.49173
 N108 N 0.02990 0.47272 0.46999
 C109 C -0.01780 0.51869 0.43914
 N110 N -0.01367 0.51976 0.46786
 C111 C -0.02566 0.53957 0.48076
 C112 C -0.04360 0.55862 0.46486
 C113 C -0.03564 0.53738 0.42238
 C114 C -0.00410 0.44687 0.52877
 C115 C -0.02182 0.42833 0.54553
 C116 C -0.06292 0.45689 0.53123
 C117 C -0.04459 0.47457 0.51446
 N118 N -0.01562 0.46958 0.51384
 H119 H -0.00760 0.50321 0.42917
 H120 H -0.02152 0.54032 0.50357
 H121 H -0.05300 0.57415 0.47561
 H122 H -0.03937 0.53573 0.39966
 H123 H 0.01893 0.44317 0.52765
 H124 H -0.01224 0.41022 0.55694
 H125 H -0.08555 0.46203 0.53208
 H126 H -0.05357 0.49246 0.50223
 C127 C 0.05918 0.43997 0.43831
 C128 C 0.07322 0.55193 0.54952
 C129 C -0.05168 0.43334 0.54713
 C130 C -0.04912 0.55746 0.43529
 C131 C 0.55537 0.03712 0.51011
 H132 H 0.55741 0.03869 0.48752
 C133 C 0.57267 0.05565 0.52747
 H134 H 0.58811 0.07144 0.51817
 C135 C 0.53176 0.01551 0.54954
 H136 H 0.51528 0.00036 0.55799
 C137 C 0.54823 0.03388 0.56754
 H138 H 0.54471 0.03229 0.58985
 N139 N 0.53564 0.01734 0.52139
 C140 C 0.51839 -0.04364 0.45732
 H141 H 0.49430 -0.04547 0.45537
 C142 C 0.53355 -0.05936 0.44112
 H143 H 0.52092 -0.07300 0.42642
 C144 C 0.56398 -0.02342 0.47880
 H145 H 0.57579 -0.00990 0.49396
 C146 C 0.58005 -0.03871 0.46296
 H147 H 0.60414 -0.03666 0.46604
 Zn148 Zn 0.51096 -0.00578 0.49661
 N149 N 0.53369 -0.02583 0.47541
 C150 C 0.48674 0.02002 0.44355
 N151 N 0.48663 0.01815 0.47230
 C152 C 0.46989 0.03445 0.48504
 C153 C 0.45192 0.05324 0.46874
 C154 C 0.46904 0.03854 0.42640
 C155 C 0.50167 -0.05061 0.53719
 C156 C 0.48561 -0.06989 0.55464
 C157 C 0.44005 -0.05284 0.53084
 C158 C 0.45701 -0.03367 0.51403
 N159 N 0.48727 -0.03252 0.51790
 H160 H 0.50079 0.00745 0.43385
 H161 H 0.47051 0.03278 0.50797
 H162 H 0.43840 0.06569 0.47932
 H163 H 0.46963 0.03998 0.40358
 H164 H 0.52575 -0.04955 0.53947
 H165 H 0.49745 -0.08377 0.57029
 H166 H 0.41601 -0.05296 0.52806
 H167 H 0.44595 -0.01958 0.49812
 C168 C 0.56481 -0.05690 0.44373
 C169 C 0.56894 0.05428 0.55652
 C170 C 0.45440 -0.07091 0.55180
 C171 C 0.45133 0.05549 0.43899
 C172 C 0.55183 0.52900 0.01806
 H173 H 0.55414 0.53168 -0.00448
 C174 C 0.56912 0.54644 0.03653
 H175 H 0.58479 0.56255 0.02810
 C176 C 0.52751 0.50560 0.05628
 H177 H 0.51086 0.49005 0.06382
 C178 C 0.54401 0.52286 0.07541
 H179 H 0.54026 0.52015 0.09767
 N180 N 0.53163 0.50898 0.02818
 C181 C 0.51455 0.45094 -0.03860
 H182 H 0.49049 0.45000 -0.04176
 C183 C 0.53005 0.43553 -0.05481
 H184 H 0.51773 0.42306 -0.07073
 C185 C 0.55972 0.46874 -0.01421
 H186 H 0.57121 0.48128 0.00199
 C187 C 0.57612 0.45364 -0.02991
 H188 H 0.60013 0.45479 -0.02558
 Zn189 Zn 0.50680 0.48803 0.00167
 N190 N 0.52952 0.46751 -0.01912
 C191 C 0.48606 0.51600 -0.05152
 N192 N 0.48524 0.51411 -0.02285
 C193 C 0.46963 0.53167 -0.01042
 C194 C 0.45316 0.55147 -0.02699
 C195 C 0.46992 0.53556 -0.06893
 C196 C 0.49238 0.44066 0.03781
 C197 C 0.47423 0.42134 0.05329
 C198 C 0.43173 0.44613 0.03342
 C199 C 0.45063 0.46475 0.01808
 N200 N 0.48044 0.46206 0.02095
 H201 H 0.49931 0.50250 -0.06099
 H202 H 0.46977 0.53004 0.01247
 H203 H 0.44027 0.56470 -0.01666
 H204 H 0.47095 0.53684 -0.09169
 H205 H 0.51612 0.43878 0.03940
 H206 H 0.48425 0.40442 0.06646
 H207 H 0.40825 0.44940 0.03157
 H208 H 0.44141 0.48153 0.00420
 C209 C 0.56130 0.43691 -0.05070
 C210 C 0.56502 0.54366 0.06554
 C211 C 0.44345 0.42413 0.05154
 C212 C 0.45303 0.55352 -0.05670
 C213 C 0.17443 -0.17306 -0.17658
 C214 C 0.20247 -0.16225 -0.18437
 C215 C 0.21879 -0.17762 -0.19989
 C216 C 0.20720 -0.20397 -0.20874
 C217 C 0.17965 -0.21522 -0.19985
 C218 C 0.16334 -0.19987 -0.18426
 C219 C 0.15709 -0.15659 -0.16026
 N220 N 0.13070 -0.16748 -0.15129
 N221 N 0.11516 -0.15261 -0.13667
 C222 C 0.12531 -0.12619 -0.13043
 N223 N 0.15168 -0.11530 -0.13942
 N224 N 0.16723 -0.13017 -0.15401
 C225 C 0.10806 -0.10961 -0.11412
 C226 C 0.11795 -0.08178 -0.10897
 C227 C 0.10182 -0.06618 -0.09349
 C228 C 0.07544 -0.07802 -0.08272
 C229 C 0.06549 -0.10582 -0.08792
 C230 C 0.08160 -0.12142 -0.10346
 H231 H 0.21205 -0.14196 -0.17825
 H232 H 0.24071 -0.16886 -0.20449
 H233 H 0.17069 -0.23607 -0.20471
 H234 H 0.14207 -0.20910 -0.17815
 H235 H 0.13815 -0.07195 -0.11697
 H236 H 0.10986 -0.04470 -0.09021
 H237 H 0.04548 -0.11569 -0.07959
 H238 H 0.07337 -0.14282 -0.10692
 C239 C 0.16654 0.32377 0.32448
 C240 C 0.15410 0.29730 0.31693
 C241 C 0.16916 0.28121 0.30094
 C242 C 0.19687 0.29136 0.29158
 C243 C 0.20976 0.31738 0.30022
 C244 C 0.19466 0.33352 0.31610
 C245 C 0.15050 0.34094 0.34130
 N246 N 0.16149 0.36734 0.34683
 N247 N 0.14708 0.38281 0.36188
 C248 C 0.12108 0.37256 0.37208
 N249 N 0.11009 0.34615 0.36657
 N250 N 0.12447 0.33069 0.35148
 C251 C 0.10511 0.38980 0.38890
 C252 C 0.07955 0.37841 0.40147
 C253 C 0.06465 0.39465 0.41746
 C254 C 0.07490 0.42269 0.42120
 C255 C 0.10037 0.43411 0.40852
 C256 C 0.11532 0.41786 0.39261
 H257 H 0.13273 0.28888 0.32349
 H258 H 0.15914 0.26061 0.29646
 H259 H 0.23173 0.32529 0.29487
 H260 H 0.20522 0.35355 0.32203
 H261 H 0.07113 0.35685 0.39917
 H262 H 0.04535 0.38510 0.42727
 H263 H 0.10858 0.45575 0.41059
 H264 H 0.13483 0.42738 0.38311
 C265 C 0.67454 -0.16611 0.32530
 C266 C 0.69823 -0.15310 0.31092
 C267 C 0.71351 -0.16829 0.29426
 C268 C 0.70518 -0.19689 0.29110
 C269 C 0.68202 -0.21001 0.30627
 C270 C 0.66671 -0.19480 0.32287
 C271 C 0.65840 -0.14997 0.34304
 N272 N 0.63483 -0.16225 0.35616
 N273 N 0.62032 -0.14775 0.37207
 C274 C 0.62878 -0.12035 0.37558
 N275 N 0.65237 -0.10807 0.36247
 N276 N 0.66685 -0.12256 0.34653
 C277 C 0.61257 -0.10418 0.39323
 C278 C 0.62209 -0.07613 0.39774
 C279 C 0.60670 -0.06086 0.41423
 C280 C 0.58138 -0.07325 0.42653
 C281 C 0.57190 -0.10130 0.42211
 C282 C 0.58733 -0.11660 0.40569
 H283 H 0.70522 -0.13113 0.31271
 H284 H 0.73222 -0.15749 0.28455
 H285 H 0.67582 -0.23222 0.30545
 H286 H 0.64890 -0.20565 0.33401
 H287 H 0.64141 -0.06587 0.38845
 H288 H 0.61434 -0.03918 0.41699
 H289 H 0.55269 -0.11153 0.43162
 H290 H 0.57940 -0.13817 0.40274
 C291 C 0.67409 0.33254 -0.17102
 C292 C 0.70201 0.34354 -0.17898
 C293 C 0.71748 0.32909 -0.19617
 C294 C 0.70509 0.30360 -0.20663
 C295 C 0.67769 0.29211 -0.19750
 C296 C 0.66227 0.30652 -0.18027
 C297 C 0.65760 0.34786 -0.15284
 N298 N 0.63125 0.33663 -0.14406
 N299 N 0.61636 0.35042 -0.12784
 C300 C 0.62716 0.37606 -0.11970
 N301 N 0.65352 0.38730 -0.12847
 N302 N 0.66843 0.37350 -0.14468
 C303 C 0.61047 0.39150 -0.10179
 C304 C 0.62097 0.41862 -0.09457
 C305 C 0.60508 0.43327 -0.07794
 C306 C 0.57834 0.42115 -0.06809
 C307 C 0.56791 0.39399 -0.07519
 C308 C 0.58377 0.37935 -0.09185
 H309 H 0.71216 0.36321 -0.17168
 H310 H 0.73939 0.33784 -0.20088
 H311 H 0.66820 0.27167 -0.20314
 H312 H 0.64113 0.29707 -0.17402
 H313 H 0.64138 0.42868 -0.10193
 H314 H 0.61351 0.45431 -0.07319
 H315 H 0.54761 0.38391 -0.06760
 H316 H 0.57508 0.35846 -0.09688
 C317 C -0.18456 0.19084 -0.17694
 C318 C -0.17663 0.20627 -0.20197
 C319 C -0.19493 0.22622 -0.21603
 C320 C -0.22144 0.23127 -0.20530
 C321 C -0.22951 0.21563 -0.18047
 C322 C -0.21133 0.19568 -0.16648
 C323 C -0.16507 0.17003 -0.16155
 N324 N -0.17310 0.15519 -0.13749
 N325 N -0.15555 0.13677 -0.12331
 C326 C -0.12916 0.13237 -0.13253
 N327 N -0.12111 0.14716 -0.15665
 N328 N -0.13870 0.16560 -0.17086
 C329 C -0.10956 0.11209 -0.11635
 C330 C -0.08197 0.10762 -0.12544
 C331 C -0.06346 0.08872 -0.10981
 C332 C -0.07210 0.07394 -0.08473
 C333 C -0.09974 0.07828 -0.07578
 C334 C -0.11823 0.09710 -0.09138
 H335 H -0.15617 0.20309 -0.21064
 H336 H -0.18797 0.23805 -0.23493
 H337 H -0.25012 0.21855 -0.17196
 H338 H -0.21829 0.18411 -0.14737
 H339 H -0.07456 0.11883 -0.14455
 H340 H -0.04216 0.08601 -0.11711
 H341 H -0.10727 0.06686 -0.05682
 H342 H -0.13936 0.09988 -0.08378
 C343 C -0.18438 0.69035 0.32439
 C344 C -0.20919 0.69786 0.33648
 C345 C -0.22775 0.71722 0.32194
 C346 C -0.22200 0.72966 0.29493
 C347 C -0.19748 0.72183 0.28263
 C348 C -0.17881 0.70248 0.29723
 C349 C -0.16447 0.67014 0.34021
 N350 N -0.13981 0.66339 0.32928
 N351 N -0.12182 0.64547 0.34378
 C352 C -0.12775 0.63354 0.36982
 N353 N -0.15244 0.64026 0.38068
 N354 N -0.17039 0.65816 0.36621
 C355 C -0.10768 0.61382 0.38625
 C356 C -0.11437 0.60145 0.41301
 C357 C -0.09541 0.58316 0.42878
 C358 C -0.06925 0.57678 0.41823
 C359 C -0.06260 0.58896 0.39139
 C360 C -0.08160 0.60731 0.37557
 H361 H -0.21434 0.68881 0.35726
 H362 H -0.24688 0.72211 0.33180
 H363 H -0.19232 0.73090 0.26193
 H364 H -0.15995 0.69713 0.28723
 H365 H -0.13431 0.60585 0.42187
 H366 H -0.10143 0.57374 0.44916
 H367 H -0.04246 0.58466 0.38280
 H368 H -0.07572 0.61649 0.35507
 C369 C 0.31678 0.18745 0.32556
 C370 C 0.29960 0.17957 0.30063
 C371 C 0.27923 0.19730 0.28601
 C372 C 0.27556 0.22327 0.29598
 C373 C 0.29292 0.23130 0.32072
 C374 C 0.31331 0.21361 0.33533
 C375 C 0.33779 0.16832 0.34157
 N376 N 0.35406 0.17576 0.36588
 N377 N 0.37247 0.15839 0.38060
 C378 C 0.37541 0.13281 0.37166
 N379 N 0.35923 0.12540 0.34728
 N380 N 0.34082 0.14279 0.33256
 C381 C 0.39543 0.11325 0.38844
 C382 C 0.39817 0.08658 0.37946
 C383 C 0.41649 0.06794 0.39570
 C384 C 0.43245 0.07551 0.42131
 C385 C 0.42998 0.10226 0.43013
 C386 C 0.41171 0.12091 0.41390
 H387 H 0.30162 0.15956 0.29252
 H388 H 0.26585 0.19030 0.26727
 H389 H 0.29089 0.25137 0.32872
 H390 H 0.32624 0.22043 0.35439
 H391 H 0.38594 0.07996 0.35999
 H392 H 0.41769 0.04737 0.38849
 H393 H 0.44236 0.10889 0.44953
 H394 H 0.41028 0.14130 0.42142
 C395 C 0.32271 0.68793 -0.17193
 C396 C 0.30897 0.68200 -0.19896
 C397 C 0.28917 0.70000 -0.21405
 C398 C 0.28237 0.72423 -0.20243
 C399 C 0.29648 0.73035 -0.17555
 C400 C 0.31638 0.71244 -0.16050
 C401 C 0.34324 0.66856 -0.15563
 N402 N 0.35774 0.67502 -0.13018
 N403 N 0.37575 0.65741 -0.11526
 C404 C 0.38002 0.63256 -0.12511
 N405 N 0.36560 0.62613 -0.15060
 N406 N 0.34762 0.64376 -0.16555
 C407 C 0.39950 0.61266 -0.10813
 C408 C 0.40190 0.58595 -0.11714
 C409 C 0.41951 0.56690 -0.10063
 C410 C 0.43516 0.57412 -0.07475
 C411 C 0.43311 0.60097 -0.06596
 C412 C 0.41547 0.62000 -0.08242
 H413 H 0.31341 0.66337 -0.20849
 H414 H 0.27893 0.69456 -0.23462
 H415 H 0.29249 0.74920 -0.16617
 H416 H 0.32669 0.71780 -0.13982
 H417 H 0.38986 0.57957 -0.13678
 H418 H 0.42031 0.54627 -0.10784
 H419 H 0.44528 0.60735 -0.04637
 H420 H 0.41431 0.64044 -0.07490
 C421 C -0.18848 -0.18167 0.17303
 C422 C -0.17829 -0.20212 0.19403
 C423 C -0.19638 -0.21339 0.21496
 C424 C -0.22474 -0.20413 0.21557
 C425 C -0.23509 -0.18391 0.19448
 C426 C -0.21722 -0.17293 0.17330
 C427 C -0.16896 -0.16883 0.15153
 N428 N -0.18044 -0.15402 0.12776
 N429 N -0.16276 -0.14149 0.10898
 C430 C -0.13282 -0.14311 0.11326
 N431 N -0.12134 -0.15806 0.13695
 N432 N -0.13905 -0.17073 0.15565
 C433 C -0.11307 -0.12779 0.09319
 C434 C -0.08254 -0.12226 0.10146
 C435 C -0.06434 -0.10593 0.08336
 C436 C -0.07616 -0.09501 0.05641
 C437 C -0.10651 -0.10145 0.04778
 C438 C -0.12478 -0.11749 0.06602
 H439 H -0.15629 -0.20933 0.19436
 H440 H -0.18785 -0.22875 0.23112
 H441 H -0.25706 -0.17667 0.19433
 H442 H -0.22572 -0.15718 0.15748
 H443 H -0.07286 -0.12976 0.12232
 H444 H -0.04121 -0.10108 0.09094
 H445 H -0.11625 -0.09394 0.02695
 H446 H -0.14815 -0.12166 0.05889
 C447 C -0.18437 0.32693 0.68061
 C448 C -0.20818 0.34066 0.68775
 C449 C -0.22657 0.32811 0.70784
 C450 C -0.22215 0.30105 0.72103
 C451 C -0.19840 0.28722 0.71327
 C452 C -0.17956 0.30015 0.69365
 C453 C -0.16467 0.34066 0.65975
 N454 N -0.13593 0.33434 0.66070
 N455 N -0.11801 0.34742 0.64236
 C456 C -0.12823 0.36709 0.62217
 N457 N -0.15703 0.37319 0.62108
 N458 N -0.17484 0.36033 0.63957
 C459 C -0.10831 0.38228 0.60225
 C460 C -0.12022 0.39450 0.57599
 C461 C -0.10174 0.41021 0.55775
 C462 C -0.07093 0.41463 0.56559
 C463 C -0.05897 0.40185 0.59170
 C464 C -0.07744 0.38566 0.60971
 H465 H -0.21248 0.36134 0.67797
 H466 H -0.24494 0.33950 0.71195
 H467 H -0.19325 0.26683 0.72294
 H468 H -0.16132 0.28906 0.68852
 H469 H -0.14390 0.39192 0.56951
 H470 H -0.11171 0.41900 0.53752
 H471 H -0.03547 0.40504 0.59870
 H472 H -0.06767 0.37660 0.62992
 C473 C 0.32684 -0.18226 0.68659
 C474 C 0.30816 -0.20608 0.67936
 C475 C 0.28821 -0.21881 0.69806
 C476 C 0.28626 -0.20766 0.72405
 C477 C 0.30509 -0.18407 0.73140
 C478 C 0.32532 -0.17162 0.71297
 C479 C 0.34728 -0.16800 0.66656
 N480 N 0.36969 -0.14926 0.67573
 N481 N 0.38740 -0.13554 0.65764
 C482 C 0.38338 -0.13984 0.62956
 N483 N 0.36105 -0.15871 0.62037
 N484 N 0.34341 -0.17256 0.63852
 C485 C 0.40232 -0.12353 0.60938
 C486 C 0.39376 -0.12212 0.57994
 C487 C 0.41082 -0.10529 0.56115
 C488 C 0.43696 -0.08984 0.57138
 C489 C 0.44589 -0.09179 0.60071
 C490 C 0.42871 -0.10834 0.61951
 H491 H 0.30889 -0.21481 0.65923
 H492 H 0.27374 -0.23688 0.69186
 H493 H 0.30419 -0.17528 0.75148
 H494 H 0.33934 -0.15330 0.71918
 H495 H 0.37354 -0.13354 0.57146
 H496 H 0.40356 -0.10431 0.53860
 H497 H 0.46579 -0.07988 0.60920
 H498 H 0.43599 -0.10902 0.64204
 C499 C 0.30666 0.31221 0.17764
 C500 C 0.27763 0.32050 0.17708
 C501 C 0.25876 0.30830 0.19694
 C502 C 0.26838 0.28727 0.21746
 C503 C 0.29706 0.27840 0.21759
 C504 C 0.31614 0.29093 0.19803
 C505 C 0.32718 0.32635 0.15764
 N506 N 0.35711 0.32534 0.16333
 N507 N 0.37562 0.33914 0.14599
 C508 C 0.36496 0.35436 0.12214
 N509 N 0.33502 0.35511 0.11630
 N510 N 0.31652 0.34147 0.13373
 C511 C 0.38549 0.37073 0.10350
 C512 C 0.37520 0.38056 0.07572
 C513 C 0.39418 0.39722 0.05862
 C514 C 0.42381 0.40481 0.06902
 C515 C 0.43418 0.39454 0.09669
 C516 C 0.41531 0.37755 0.11364
 H517 H 0.26967 0.33686 0.16168
 H518 H 0.23660 0.31526 0.19622
 H519 H 0.30502 0.26233 0.23334
 H520 H 0.33834 0.28402 0.19892
 H521 H 0.35242 0.37541 0.06718
 H522 H 0.38557 0.40418 0.03722
 H523 H 0.45667 0.40028 0.10564
 H524 H 0.42386 0.37046 0.13503
 C525 C 0.17102 0.17368 0.18858
 C526 C 0.15863 0.17789 0.21360
 C527 C 0.17208 0.19772 0.23172
 C528 C 0.19824 0.21386 0.22527
 C529 C 0.21090 0.20943 0.20049
 C530 C 0.19745 0.18956 0.18234
 C531 C 0.15606 0.15328 0.16892
 N532 N 0.16818 0.14845 0.14504
 N533 N 0.15431 0.13055 0.12713
 C534 C 0.12771 0.11675 0.13232
 N535 N 0.11568 0.12152 0.15624
 N536 N 0.12955 0.13938 0.17414
 C537 C 0.11182 0.09729 0.11216
 C538 C 0.08325 0.08492 0.11666
 C539 C 0.06788 0.06705 0.09747
 C540 C 0.08071 0.06097 0.07331
 C541 C 0.10936 0.07317 0.06886
 C542 C 0.12474 0.09114 0.08806
 H543 H 0.13840 0.16595 0.21919
 H544 H 0.16204 0.20033 0.25088
 H545 H 0.23079 0.22182 0.19469
 H546 H 0.20756 0.18693 0.16322
 H547 H 0.07251 0.08927 0.13489
 H548 H 0.04564 0.05843 0.10128
 H549 H 0.12001 0.06865 0.05064
 H550 H 0.14675 0.10021 0.08398
 C551 C 0.18285 0.68761 0.67900
 C552 C 0.20707 0.67996 0.69836
 C553 C 0.22042 0.69840 0.71802
 C554 C 0.20970 0.72474 0.71900
 C555 C 0.18572 0.73257 0.69944
 C556 C 0.17252 0.71425 0.67958
 C557 C 0.16805 0.66770 0.65877
 N558 N 0.14766 0.67625 0.63735
 N559 N 0.13383 0.65820 0.61960
 C560 C 0.13972 0.63081 0.62256
 N561 N 0.16018 0.62228 0.64393
 N562 N 0.17409 0.64035 0.66162
 C563 C 0.12365 0.61059 0.60331
 C564 C 0.12531 0.58158 0.60958
 C565 C 0.10916 0.56252 0.59200
 C566 C 0.09127 0.57206 0.56763
 C567 C 0.09002 0.60104 0.56108
 C568 C 0.10593 0.62010 0.57877
 H569 H 0.21566 0.65964 0.69845
 H570 H 0.23861 0.69169 0.73292
 H571 H 0.17725 0.75293 0.69940
 H572 H 0.15394 0.72086 0.66495
 H573 H 0.13873 0.57354 0.62831
 H574 H 0.11072 0.54029 0.59742
 H575 H 0.07614 0.60899 0.54260
 H576 H 0.10418 0.64229 0.57327
 C577 C 0.67742 0.19354 0.68245
 C578 C 0.70518 0.18874 0.69754
 C579 C 0.71897 0.20776 0.71651
 C580 C 0.70544 0.23212 0.72050
 C581 C 0.67802 0.23718 0.70481
 C582 C 0.66410 0.21804 0.68620
 C583 C 0.66192 0.17294 0.66339
 N584 N 0.63213 0.17302 0.65602
 N585 N 0.61789 0.15435 0.63922
 C586 C 0.63286 0.13490 0.62891
 N587 N 0.66271 0.13487 0.63613
 N588 N 0.67694 0.15345 0.65313
 C589 C 0.61677 0.11409 0.61042
 C590 C 0.63200 0.09982 0.59263
 C591 C 0.61647 0.08051 0.57490
 C592 C 0.58556 0.07476 0.57507
 C593 C 0.57041 0.08883 0.59301
 C594 C 0.58580 0.10843 0.61034
 H595 H 0.71591 0.16995 0.69523
 H596 H 0.73981 0.20294 0.72856
 H597 H 0.66728 0.25605 0.70672
 H598 H 0.64289 0.22253 0.67461
 H599 H 0.65584 0.10382 0.59216
 H600 H 0.62863 0.06981 0.56131
 H601 H 0.54653 0.08493 0.59332
 H602 H 0.57344 0.11900 0.62386
 C603 C 0.67244 0.68470 0.18991
 C604 C 0.70101 0.68123 0.20384
 C605 C 0.71537 0.70161 0.22095
 C606 C 0.70166 0.72609 0.22417
 C607 C 0.67322 0.72964 0.20989
 C608 C 0.65870 0.70910 0.19316
 C609 C 0.65688 0.66301 0.17218
 N610 N 0.62686 0.66194 0.16589
 N611 N 0.61274 0.64256 0.14986
 C612 C 0.62804 0.62352 0.13928
 N613 N 0.65808 0.62459 0.14551
 N614 N 0.67220 0.64387 0.16173
 C615 C 0.61224 0.60233 0.12107
 C616 C 0.62762 0.58871 0.10287
 C617 C 0.61234 0.56954 0.08487
 C618 C 0.58150 0.56327 0.08512
 C619 C 0.56623 0.57646 0.10369
 C620 C 0.58140 0.59594 0.12133
 H621 H 0.71206 0.66253 0.20193
 H622 H 0.73696 0.69783 0.23207
 H623 H 0.66219 0.74845 0.21129
 H624 H 0.63683 0.71253 0.18245
 H625 H 0.65137 0.59326 0.10213
 H626 H 0.62460 0.55952 0.07082
 H627 H 0.54241 0.57217 0.10408
 H628 H 0.56894 0.60599 0.13518
   
