data_POSCAR
  _audit_creation_date              2014-09-24
  _audit_creation_method            'ToBaCCo'
  _symmetry_space_group_name_H-M    'P1'
  _symmetry_Int_Tables_number       1
  _symmetry_cell_setting            triclinic
  loop_
  _symmetry_equiv_pos_as_xyz
 x,y,z
_cell_length_a 45.1659
_cell_length_b 45.2993
_cell_length_c 45.1614
_cell_angle_alpha 90.030400
_cell_angle_beta 89.613700
_cell_angle_gamma 89.689600
loop_
  _atom_site_label
  _atom_site_type_symbol
  _atom_site_fract_x
  _atom_site_fract_y
  _atom_site_fract_z
C1 C 0.20429 0.52255 1.03490
 H2 H 0.20353 0.53973 1.01828
 C3 C 0.18380 0.52263 1.05819
 H4 H 0.16726 0.54001 1.05956
 C5 C 0.22622 0.47842 1.05288
 H6 H 0.24236 0.46090 1.05038
 C7 C 0.20613 0.47765 1.07653
 H8 H 0.20709 0.45965 1.09230
 N9 N 0.22502 0.50073 1.03273
 C10 C 0.29537 0.53729 0.97750
 H11 H 0.29643 0.52066 0.96031
 C12 C 0.31540 0.56064 0.97730
 H13 H 0.33190 0.56213 0.95985
 C14 C 0.27325 0.55514 1.02187
 H15 H 0.25725 0.55256 1.03954
 C16 C 0.29291 0.57886 1.02251
 H17 H 0.29182 0.59462 1.04054
 Zn18 Zn 0.25038 0.50120 0.99921
 N19 N 0.27479 0.53500 0.99951
 C20 C 0.22683 0.52330 0.94515
 N21 N 0.22592 0.50103 0.96537
 C22 C 0.20611 0.47864 0.96299
 C23 C 0.18636 0.47788 0.93936
 C24 C 0.20743 0.52339 0.92117
 C25 C 0.29604 0.46625 1.02152
 C26 C 0.31661 0.44317 1.02224
 C27 C 0.29569 0.42409 0.97703
 C28 C 0.27548 0.44757 0.97713
 N29 N 0.27593 0.46796 0.99928
 H30 H 0.24221 0.54126 0.94781
 H31 H 0.20552 0.46152 0.97967
 H32 H 0.17055 0.46006 0.93771
 H33 H 0.20809 0.54129 0.90529
 H34 H 0.29622 0.48306 1.03854
 H35 H 0.33267 0.44208 1.03993
 H36 H 0.29538 0.40804 0.95924
 H37 H 0.25984 0.44969 0.95927
 C38 C 0.31422 0.58153 1.00008
 C39 C 0.18467 0.49991 1.07914
 C40 C 0.31646 0.42195 0.99977
 C41 C 0.18700 0.50050 0.91832
 C42 C 0.79529 0.52166 -0.03500
 H43 H 0.79598 0.53840 -0.01793
 C44 C 0.81519 0.52271 -0.05875
 H45 H 0.83123 0.54037 -0.06010
 C46 C 0.77414 0.47767 -0.05373
 H47 H 0.75853 0.45984 -0.05138
 C48 C 0.79369 0.47787 -0.07785
 H49 H 0.79291 0.46034 -0.09415
 N50 N 0.77519 0.49947 -0.03300
 C51 C 0.70497 0.53384 0.02426
 H52 H 0.70452 0.51679 0.04102
 C53 C 0.68443 0.55696 0.02535
 H54 H 0.66814 0.55784 0.04306
 C55 C 0.72605 0.55303 -0.01992
 H56 H 0.74184 0.55106 -0.03788
 C57 C 0.70589 0.57654 -0.01966
 H58 H 0.70640 0.59277 -0.03726
 Zn59 Zn 0.75047 0.49883 0.00097
 N60 N 0.72528 0.53233 0.00192
 C61 C 0.77452 0.52006 0.05504
 N62 N 0.77560 0.49824 0.03431
 C63 C 0.79615 0.47621 0.03569
 C64 C 0.81661 0.47545 0.05871
 C65 C 0.79460 0.52012 0.07845
 C66 C 0.70518 0.46399 -0.02132
 C67 C 0.68496 0.44083 -0.02218
 C68 C 0.70712 0.42083 0.02212
 C69 C 0.72697 0.44440 0.02216
 N70 N 0.72570 0.46531 0.00055
 H71 H 0.75853 0.53776 0.05317
 H72 H 0.79683 0.45945 0.01862
 H73 H 0.83309 0.45800 0.05948
 H74 H 0.79385 0.53772 0.09469
 H75 H 0.70436 0.48119 -0.03791
 H76 H 0.66852 0.44009 -0.03953
 H77 H 0.70803 0.40440 0.03952
 H78 H 0.74295 0.44622 0.03973
 C79 C 0.68484 0.57843 0.00313
 C80 C 0.81441 0.50058 -0.08032
 C81 C 0.68588 0.41913 -0.00021
 C82 C 0.81589 0.49767 0.08020
 C83 C -0.02463 0.29622 0.46517
 H84 H -0.04139 0.29689 0.48239
 C85 C -0.02555 0.31655 0.44198
 H86 H -0.04317 0.33287 0.44127
 C87 C 0.01940 0.27478 0.44565
 H88 H 0.03722 0.25891 0.44753
 C89 C 0.01932 0.29472 0.42204
 H90 H 0.03697 0.29392 0.40567
 N91 N -0.00244 0.27584 0.46656
 C92 C -0.03657 0.20571 0.52314
 H93 H -0.01947 0.20511 0.53980
 C94 C -0.05958 0.18529 0.52408
 H95 H -0.06033 0.16894 0.54157
 C96 C -0.05595 0.22705 0.47934
 H97 H -0.05409 0.24290 0.46159
 C98 C -0.07937 0.20700 0.47946
 H99 H -0.09563 0.20764 0.46195
 Zn100 Zn -0.00171 0.25097 0.50019
 N101 N -0.03519 0.22608 0.50105
 C102 C -0.02283 0.27485 0.55488
 N103 N -0.00115 0.27587 0.53381
 C104 C 0.02087 0.29620 0.53506
 C105 C 0.02181 0.31648 0.55831
 C106 C -0.02270 0.29476 0.57855
 C107 C 0.03366 0.20567 0.47726
 C108 C 0.05698 0.18534 0.47626
 C109 C 0.07655 0.20716 0.52084
 C110 C 0.05283 0.22712 0.52102
 N111 N 0.03205 0.22607 0.49935
 H112 H -0.04052 0.25902 0.55312
 H113 H 0.03751 0.29684 0.51773
 H114 H 0.03929 0.33275 0.55900
 H115 H -0.04015 0.29404 0.59510
 H116 H 0.01654 0.20500 0.46063
 H117 H 0.05793 0.16898 0.45877
 H118 H 0.09284 0.20789 0.53831
 H119 H 0.05078 0.24298 0.53878
 C120 C -0.08109 0.18587 0.50197
 C121 C -0.00330 0.31587 0.42028
 C122 C 0.07854 0.18603 0.49831
 C123 C -0.00022 0.31579 0.58018
 C124 C 0.97901 0.70497 0.53412
 H125 H 0.96232 0.70423 0.51706
 C126 C 0.97824 0.68471 0.55738
 H127 H 0.96085 0.66835 0.55837
 C128 C 1.02271 0.72650 0.55317
 H129 H 1.04036 0.74236 0.55109
 C130 C 1.02275 0.70662 0.57683
 H131 H 1.04029 0.70741 0.59306
 N132 N 1.00096 0.72537 0.53247
 C133 C 0.96621 0.79530 0.47604
 H134 H 0.98339 0.79590 0.45925
 C135 C 0.94291 0.81564 0.47523
 H136 H 0.94202 0.83193 0.45770
 C137 C 0.94688 0.77402 0.52006
 H138 H 0.94887 0.75822 0.53784
 C139 C 0.92318 0.79399 0.52007
 H140 H 0.90682 0.79333 0.53771
 Zn141 Zn 1.00154 0.75015 0.49878
 N142 N 0.96774 0.77499 0.49818
 C143 C 0.98075 0.72606 0.44449
 N144 N 1.00250 0.72516 0.46521
 C145 C 1.02474 0.70481 0.46371
 C146 C 1.02579 0.68435 0.44061
 C147 C 0.98098 0.70597 0.42099
 C148 C 1.03610 0.79552 0.52138
 C149 C 1.05917 0.81587 0.52228
 C150 C 1.07946 0.79402 0.47767
 C151 C 1.05598 0.77404 0.47758
 N152 N 1.03497 0.77510 0.49932
 H153 H 0.96289 0.74189 0.44645
 H154 H 1.04143 0.70427 0.48078
 H155 H 1.04339 0.66802 0.43976
 H156 H 0.96344 0.70656 0.40475
 H157 H 1.01881 0.79618 0.53807
 H158 H 1.05975 0.83224 0.53977
 H159 H 1.09596 0.79329 0.46015
 H160 H 1.05431 0.75813 0.45986
 C161 C 0.92128 0.81504 0.49751
 C162 C 1.00038 0.68549 0.57885
 C163 C 1.08097 0.81517 0.50018
 C164 C 1.00364 0.68487 0.41913
 C165 C 0.46514 -0.02314 0.29483
 H166 H 0.48228 -0.03988 0.29569
 C167 C 0.44138 -0.02408 0.31473
 H168 H 0.44010 -0.04165 0.33095
 C169 C 0.44625 0.02077 0.27325
 H170 H 0.44854 0.03854 0.25748
 C171 C 0.42213 0.02067 0.29279
 H172 H 0.40577 0.03823 0.29185
 N173 N 0.46707 -0.00103 0.27453
 C174 C 0.52457 -0.03564 0.20464
 H175 H 0.54130 -0.01865 0.20409
 C176 C 0.52568 -0.05877 0.18420
 H177 H 0.54341 -0.05964 0.16793
 C178 C 0.48039 -0.05464 0.22580
 H179 H 0.46242 -0.05258 0.24157
 C180 C 0.48066 -0.07815 0.20577
 H181 H 0.46300 -0.09426 0.20640
 Zn182 Zn 0.50108 -0.00045 0.24985
 N183 N 0.50221 -0.03403 0.22493
 C184 C 0.55535 -0.02138 0.27410
 N185 N 0.53436 0.00029 0.27502
 C186 C 0.53548 0.02239 0.29540
 C187 C 0.55852 0.02341 0.31582
 C188 C 0.57879 -0.02118 0.29415
 C189 C 0.47871 0.03437 0.20425
 C190 C 0.47781 0.05754 0.18393
 C191 C 0.52200 0.07745 0.20607
 C192 C 0.52209 0.05387 0.22602
 N193 N 0.50055 0.03300 0.22482
 H194 H 0.55370 -0.03913 0.25824
 H195 H 0.51822 0.03904 0.29595
 H196 H 0.55909 0.04094 0.33214
 H197 H 0.59526 -0.03865 0.29352
 H198 H 0.46217 0.01720 0.20349
 H199 H 0.46048 0.05833 0.16747
 H200 H 0.53934 0.09385 0.20694
 H201 H 0.53965 0.05202 0.24203
 C202 C 0.50344 -0.08015 0.18469
 C203 C 0.41974 -0.00193 0.31373
 C204 C 0.49970 0.07922 0.18480
 C205 C 0.58029 0.00137 0.31524
 C206 C 0.53267 -0.02332 0.70446
 H207 H 0.51569 -0.04006 0.70379
 C208 C 0.55596 -0.02402 0.68399
 H209 H 0.55703 -0.04140 0.66751
 C210 C 0.55159 0.02035 0.72613
 H211 H 0.54947 0.03795 0.74216
 C212 C 0.57525 0.02047 0.70604
 H213 H 0.59144 0.03801 0.70683
 N214 N 0.53097 -0.00143 0.72506
 C215 C 0.47529 -0.03667 0.79577
 H216 H 0.45835 -0.01972 0.79677
 C217 C 0.47483 -0.05997 0.81599
 H218 H 0.45743 -0.06107 0.83257
 C219 C 0.51934 -0.05541 0.77366
 H220 H 0.53700 -0.05319 0.75760
 C221 C 0.51971 -0.07908 0.79349
 H222 H 0.53753 -0.09516 0.79248
 Zn223 Zn 0.49749 -0.00108 0.75048
 N224 N 0.49727 -0.03485 0.77511
 C225 C 0.44301 -0.02197 0.72716
 N226 N 0.46363 -0.00018 0.72605
 C227 C 0.46166 0.02219 0.70605
 C228 C 0.43805 0.02342 0.68629
 C229 C 0.41904 -0.02159 0.70775
 C230 C 0.52043 0.03348 0.79587
 C231 C 0.52153 0.05656 0.81631
 C232 C 0.47661 0.07654 0.79528
 C233 C 0.47634 0.05305 0.77522
 N234 N 0.49816 0.03220 0.77578
 H235 H 0.44535 -0.03994 0.74269
 H236 H 0.47865 0.03892 0.70531
 H237 H 0.43675 0.04120 0.67031
 H238 H 0.40285 -0.03913 0.70854
 H239 H 0.53718 0.01632 0.79616
 H240 H 0.53923 0.05730 0.83236
 H241 H 0.45907 0.09294 0.79489
 H242 H 0.45843 0.05127 0.75960
 C243 C 0.49732 -0.08127 0.81491
 C244 C 0.57739 -0.00188 0.68475
 C245 C 0.49938 0.07824 0.81604
 C246 C 0.41661 0.00129 0.68711
 Si247 Si 0.24961 0.00079 0.50019
 Si248 Si 0.75010 0.00026 0.50023
 Si249 Si 0.50085 0.24980 1.00009
 Si250 Si 0.49986 0.75001 0.00128
 Si251 Si 1.00088 0.49863 0.25002
 Si252 Si 0.00119 0.50129 0.75001
 C253 C 0.18644 0.07677 0.49866
 C254 C 0.19458 0.10602 0.50584
 C255 C 0.17289 0.12889 0.50568
 C256 C 0.14319 0.12232 0.49838
 C257 C 0.13508 0.09304 0.49117
 C258 C 0.15677 0.07021 0.49125
 C259 C 0.14813 0.04111 0.48391
 C260 C 0.11889 0.03474 0.47682
 C261 C 0.09765 0.05705 0.47681
 C262 C 0.10553 0.08590 0.48385
 C263 C 0.18153 0.15796 0.51296
 C264 C 0.21077 0.16427 0.52022
 C265 C 0.23197 0.14190 0.52039
 C266 C 0.22409 0.11306 0.51330
 C267 C 0.12088 0.14553 0.49845
 C268 C 0.10186 0.16430 0.49842
 C269 C 0.20832 0.05321 0.49924
 C270 C 0.22561 0.03290 0.49967
 H271 H 0.16384 0.02301 0.48351
 H272 H 0.11268 0.01236 0.47129
 H273 H 0.07495 0.05198 0.47129
 H274 H 0.08820 0.10249 0.48348
 H275 H 0.16582 0.17609 0.51314
 H276 H 0.21701 0.18663 0.52574
 H277 H 0.25464 0.14691 0.52606
 H278 H 0.24134 0.09639 0.51373
 C279 C 0.57538 0.68617 0.00203
 C280 C 0.56798 0.65584 0.00307
 C281 C 0.59078 0.63411 0.00351
 C282 C 0.62085 0.64282 0.00281
 C283 C 0.62824 0.67314 0.00176
 C284 C 0.60542 0.69489 0.00139
 C285 C 0.61332 0.72506 0.00036
 C286 C 0.64294 0.73352 -0.00030
 C287 C 0.66525 0.71226 0.00006
 C288 C 0.65811 0.68238 0.00107
 C289 C 0.58282 0.60393 0.00464
 C290 C 0.55320 0.59548 0.00522
 C291 C 0.53091 0.61673 0.00469
 C292 C 0.53807 0.64659 0.00364
 C293 C 0.64406 0.62051 0.00300
 C294 C 0.66292 0.60157 0.00310
 C295 C 0.55197 0.70822 0.00166
 C296 C 0.53178 0.72570 0.00143
 H297 H 0.59674 0.74239 0.00004
 H298 H 0.64860 0.75669 -0.00108
 H299 H 0.68822 0.71895 -0.00045
 H300 H 0.67623 0.66666 0.00132
 H301 H 0.59935 0.58656 0.00506
 H302 H 0.54752 0.57231 0.00606
 H303 H 0.50794 0.61005 0.00505
 H304 H 0.51993 0.66227 0.00323
 C305 C 0.81322 -0.07581 0.49854
 C306 C 0.80555 -0.10465 0.50777
 C307 C 0.82729 -0.12748 0.50746
 C308 C 0.85655 -0.12130 0.49797
 C309 C 0.86418 -0.09246 0.48866
 C310 C 0.84244 -0.06967 0.48889
 C311 C 0.85059 -0.04102 0.47941
 C312 C 0.87941 -0.03503 0.47013
 C313 C 0.90069 -0.05729 0.47000
 C314 C 0.89329 -0.08572 0.47910
 C315 C 0.81912 -0.15613 0.51682
 C316 C 0.79031 -0.16205 0.52622
 C317 C 0.76907 -0.13972 0.52653
 C318 C 0.77648 -0.11130 0.51743
 C319 C 0.87892 -0.14446 0.49792
 C320 C 0.89796 -0.16321 0.49778
 C321 C 0.79133 -0.05225 0.49931
 C322 C 0.77404 -0.03192 0.49981
 H323 H 0.83481 -0.02298 0.47901
 H324 H 0.88524 -0.01299 0.46300
 H325 H 0.92306 -0.05252 0.46278
 H326 H 0.91063 -0.10229 0.47854
 H327 H 0.83488 -0.17421 0.51697
 H328 H 0.78443 -0.18409 0.53331
 H329 H 0.74672 -0.14444 0.53385
 H330 H 0.75921 -0.09465 0.51804
 C331 C 0.42523 0.31353 1.00024
 C332 C 0.43218 0.34327 1.00677
 C333 C 0.40953 0.36516 1.00649
 C334 C 0.38004 0.35717 0.99983
 C335 C 0.37309 0.32741 0.99341
 C336 C 0.39577 0.30552 0.99360
 C337 C 0.38833 0.27593 0.98705
 C338 C 0.35929 0.26817 0.98052
 C339 C 0.33710 0.28956 0.98034
 C340 C 0.34380 0.31888 0.98669
 C341 C 0.41706 0.39478 1.01293
 C342 C 0.44610 0.40252 1.01948
 C343 C 0.46823 0.38110 1.01986
 C344 C 0.46147 0.35178 1.01362
 C345 C 0.35697 0.37962 0.99963
 C346 C 0.33824 0.39868 0.99961
 C347 C 0.44860 0.29141 1.00009
 C348 C 0.46880 0.27395 1.00004
 H349 H 0.40484 0.25852 0.98694
 H350 H 0.35397 0.24543 0.97556
 H351 H 0.31457 0.28342 0.97524
 H352 H 0.32580 0.33474 0.98626
 H353 H 0.40062 0.41225 1.01296
 H354 H 0.45146 0.42527 1.02433
 H355 H 0.49075 0.38720 1.02503
 H356 H 0.47944 0.33592 1.01430
 C357 C 0.81249 0.07627 0.50131
 C358 C 0.84261 0.06944 0.50675
 C359 C 0.86403 0.09229 0.50683
 C360 C 0.85520 0.12188 0.50160
 C361 C 0.82508 0.12871 0.49627
 C362 C 0.80365 0.10582 0.49611
 C363 C 0.77368 0.11316 0.49068
 C364 C 0.76511 0.14230 0.48556
 C365 C 0.78604 0.16468 0.48572
 C366 C 0.81572 0.15810 0.49100
 C367 C 0.89402 0.08488 0.51217
 C368 C 0.90259 0.05574 0.51732
 C369 C 0.88162 0.03341 0.51734
 C370 C 0.85196 0.04004 0.51215
 C371 C 0.87720 0.14515 0.50166
 C372 C 0.89594 0.16400 0.50177
 C373 C 0.79084 0.05272 0.50084
 C374 C 0.77374 0.03241 0.50053
 H375 H 0.75661 0.09650 0.49035
 H376 H 0.74209 0.14754 0.48145
 H377 H 0.77926 0.18728 0.48173
 H378 H 0.83120 0.17625 0.49089
 H379 H 0.91116 0.10148 0.51244
 H380 H 0.92562 0.05048 0.52135
 H381 H 0.88837 0.01081 0.52142
 H382 H 0.83648 0.02190 0.51249
 C383 C 0.42277 0.68892 0.00330
 C384 C 0.39575 0.69514 -0.01118
 C385 C 0.37286 0.67371 -0.01137
 C386 C 0.37716 0.64619 0.00287
 C387 C 0.40408 0.64012 0.01764
 C388 C 0.42693 0.66156 0.01789
 C389 C 0.45368 0.65495 0.03274
 C390 C 0.45776 0.62791 0.04687
 C391 C 0.43544 0.60692 0.04656
 C392 C 0.40887 0.61283 0.03218
 C393 C 0.34607 0.68038 -0.02608
 C394 C 0.34203 0.70744 -0.04021
 C395 C 0.36443 0.72837 -0.04004
 C396 C 0.39104 0.72240 -0.02572
 C397 C 0.35424 0.62386 0.00187
 C398 C 0.33570 0.60483 0.00104
 C399 C 0.44668 0.71016 0.00255
 C400 C 0.46730 0.72691 0.00198
 H401 H 0.47168 0.67057 0.03366
 H402 H 0.47836 0.62323 0.05808
 H403 H 0.43873 0.58594 0.05756
 H404 H 0.39216 0.59581 0.03261
 H405 H 0.32801 0.66480 -0.02680
 H406 H 0.32141 0.71218 -0.05136
 H407 H 0.36118 0.74934 -0.05105
 H408 H 0.40781 0.73937 -0.02615
 C409 C 0.18740 -0.07531 0.50080
 C410 C 0.15759 -0.06901 0.50854
 C411 C 0.13622 -0.09190 0.50830
 C412 C 0.14480 -0.12100 0.50042
 C413 C 0.17463 -0.12731 0.49277
 C414 C 0.19600 -0.10437 0.49293
 C415 C 0.22565 -0.11115 0.48510
 C416 C 0.23398 -0.13981 0.47734
 C417 C 0.21310 -0.16225 0.47720
 C418 C 0.18373 -0.15620 0.48481
 C419 C 0.10652 -0.08501 0.51596
 C420 C 0.09819 -0.05633 0.52364
 C421 C 0.11910 -0.03396 0.52395
 C422 C 0.14849 -0.04009 0.51654
 C423 C 0.12284 -0.14429 0.50013
 C424 C 0.10406 -0.16310 0.50006
 C425 C 0.20895 -0.05168 0.50057
 C426 C 0.22598 -0.03132 0.50041
 H427 H 0.24267 -0.09442 0.48489
 H428 H 0.25676 -0.14462 0.47139
 H429 H 0.21969 -0.18447 0.47116
 H430 H 0.16828 -0.17437 0.48437
 H431 H 0.08943 -0.10166 0.51609
 H432 H 0.07538 -0.05146 0.52941
 H433 H 0.11254 -0.01172 0.52997
 H434 H 0.16394 -0.02195 0.51721
 C435 C 0.57716 0.31186 0.99926
 C436 C 0.60607 0.30395 1.00831
 C437 C 0.62885 0.32549 1.00843
 C438 C 0.62253 0.35482 0.99953
 C439 C 0.59361 0.36271 0.99041
 C440 C 0.57088 0.34115 0.99020
 C441 C 0.54215 0.34954 0.98090
 C442 C 0.53603 0.37843 0.97222
 C443 C 0.55823 0.39953 0.97252
 C444 C 0.58673 0.39189 0.98144
 C445 C 0.65758 0.31708 1.01759
 C446 C 0.66363 0.28821 1.02640
 C447 C 0.64135 0.26715 1.02631
 C448 C 0.61285 0.27481 1.01738
 C449 C 0.64563 0.37699 0.99984
 C450 C 0.66430 0.39591 0.99993
 C451 C 0.55362 0.29019 0.99968
 C452 C 0.53323 0.27317 0.99992
 H453 H 0.52415 0.33391 0.98017
 H454 H 0.51393 0.38445 0.96522
 H455 H 0.55336 0.42195 0.96576
 H456 H 0.60325 0.40910 0.98124
 H457 H 0.67562 0.33270 1.01805
 H458 H 0.68573 0.28214 1.03335
 H459 H 0.64617 0.24475 1.03318
 H460 H 0.59624 0.25767 1.01766
 C461 C 0.49948 0.18719 1.07624
 C462 C 0.49005 0.15811 1.06994
 C463 C 0.49011 0.13638 1.09261
 C464 C 0.49947 0.14389 1.12151
 C465 C 0.50871 0.17303 1.12786
 C466 C 0.50873 0.19475 1.10514
 C467 C 0.51815 0.22369 1.11196
 C468 C 0.52727 0.23099 1.14044
 C469 C 0.52724 0.20977 1.16266
 C470 C 0.51809 0.18107 1.15657
 C471 C 0.48078 0.10740 1.08570
 C472 C 0.47163 0.10012 1.05722
 C473 C 0.47147 0.12139 1.03508
 C474 C 0.48052 0.15009 1.04123
 C475 C 0.49971 0.12154 1.14454
 C476 C 0.49978 0.10251 1.16318
 C477 C 0.50008 0.20902 1.05275
 C478 C 0.50048 0.22620 1.03241
 H479 H 0.51854 0.24094 1.09539
 H480 H 0.53440 0.25324 1.14529
 H481 H 0.53435 0.21555 1.18475
 H482 H 0.51845 0.16532 1.17457
 H483 H 0.48045 0.09007 1.10218
 H484 H 0.46459 0.07785 1.05233
 H485 H 0.46430 0.11565 1.01299
 H486 H 0.47988 0.16586 1.02328
 C487 C 0.00124 0.57676 0.68666
 C488 C -0.00231 0.56951 0.65639
 C489 C -0.00232 0.59220 0.63468
 C490 C 0.00114 0.62203 0.64338
 C491 C 0.00474 0.62926 0.67365
 C492 C 0.00481 0.60654 0.69536
 C493 C 0.00850 0.61426 0.72547
 C494 C 0.01201 0.64362 0.73391
 C495 C 0.01193 0.66585 0.71269
 C496 C 0.00834 0.65887 0.68287
 C497 C -0.00581 0.58439 0.60454
 C498 C -0.00920 0.55501 0.59611
 C499 C -0.00927 0.53282 0.61735
 C500 C -0.00590 0.53986 0.64716
 C501 C 0.00096 0.64513 0.62111
 C502 C 0.00072 0.66383 0.60212
 C503 C 0.00133 0.55343 0.70866
 C504 C 0.00132 0.53326 0.72601
 H505 H 0.00872 0.59773 0.74277
 H506 H 0.01482 0.64916 0.75704
 H507 H 0.01466 0.68862 0.71936
 H508 H 0.00844 0.67691 0.66716
 H509 H -0.00594 0.60084 0.58719
 H510 H -0.01183 0.54944 0.57297
 H511 H -0.01198 0.51004 0.61070
 H512 H -0.00618 0.52182 0.66284
 C513 C 0.50076 0.81148 -0.07584
 C514 C 0.48737 0.80480 -0.10327
 C515 C 0.48695 0.82626 -0.12623
 C516 C 0.49988 0.85428 -0.12158
 C517 C 0.51349 0.86086 -0.09421
 C518 C 0.51399 0.83937 -0.07130
 C519 C 0.52773 0.84646 -0.04413
 C520 C 0.54050 0.87402 -0.03968
 C521 C 0.53993 0.89507 -0.06204
 C522 C 0.52665 0.88868 -0.08904
 C523 C 0.47338 0.81912 -0.15344
 C524 C 0.46055 0.79156 -0.15783
 C525 C 0.46093 0.77059 -0.13536
 C526 C 0.47416 0.77702 -0.10834
 C527 C 0.49887 0.87655 -0.14468
 C528 C 0.49810 0.89551 -0.16339
 C529 C 0.50035 0.79009 -0.05194
 C530 C 0.50009 0.77324 -0.03132
 H531 H 0.52881 0.83082 -0.02607
 H532 H 0.55087 0.87906 -0.01875
 H533 H 0.54987 0.91646 -0.05847
 H534 H 0.52682 0.90578 -0.10576
 H535 H 0.47254 0.83471 -0.17156
 H536 H 0.45026 0.78645 -0.17878
 H537 H 0.45093 0.74922 -0.13889
 H538 H 0.47393 0.76000 -0.09153
 C539 C 0.99803 0.42316 0.31337
 C540 C 1.00547 0.39381 0.30539
 C541 C 1.00501 0.37116 0.32717
 C542 C 0.99714 0.37802 0.35680
 C543 C 0.98956 0.40737 0.36475
 C544 C 0.98995 0.42998 0.34296
 C545 C 0.98221 0.45915 0.35143
 C546 C 0.97445 0.46579 0.38059
 C547 C 0.97417 0.44370 0.40192
 C548 C 0.98158 0.41478 0.39422
 C549 C 1.01259 0.34199 0.31869
 C550 C 1.02039 0.33539 0.28951
 C551 C 1.02084 0.35754 0.26822
 C552 C 1.01349 0.38646 0.27594
 C553 C 0.99701 0.35504 0.37922
 C554 C 0.99688 0.33640 0.39827
 C555 C 0.99908 0.44653 0.29143
 C556 C 0.99988 0.46669 0.27408
 H557 H 0.98198 0.47709 0.33563
 H558 H 0.96862 0.48822 0.38666
 H559 H 0.96814 0.44897 0.42456
 H560 H 0.98098 0.39836 0.41160
 H561 H 1.01256 0.32402 0.33447
 H562 H 1.02612 0.31295 0.28339
 H563 H 1.02691 0.35229 0.24558
 H564 H 1.01413 0.40295 0.25862
 C565 C 0.50133 0.81362 0.07668
 C566 C 0.50302 0.80482 0.10668
 C567 C 0.50366 0.82651 0.12944
 C568 C 0.50264 0.85687 0.12201
 C569 C 0.50100 0.86567 0.09197
 C570 C 0.50028 0.84398 0.06925
 C571 C 0.49848 0.85332 0.03938
 C572 C 0.49750 0.88321 0.03218
 C573 C 0.49832 0.90441 0.05440
 C574 C 0.50003 0.89588 0.08398
 C575 C 0.50531 0.81719 0.15928
 C576 C 0.50633 0.78728 0.16645
 C577 C 0.50572 0.76607 0.14420
 C578 C 0.50409 0.77462 0.11461
 C579 C 0.50308 0.87911 0.14517
 C580 C 0.50332 0.89802 0.16397
 C581 C 0.50078 0.79163 0.05332
 C582 C 0.50037 0.77422 0.03317
 H583 H 0.49773 0.83768 0.02130
 H584 H 0.49607 0.88995 0.00924
 H585 H 0.49758 0.92761 0.04870
 H586 H 0.50058 0.91321 0.10046
 H587 H 0.50584 0.83287 0.17735
 H588 H 0.50759 0.78052 0.18940
 H589 H 0.50652 0.74287 0.14989
 H590 H 0.50366 0.75733 0.09807
 C591 C 0.00123 0.42497 0.68761
 C592 C -0.01093 0.39715 0.69488
 C593 C -0.01125 0.37424 0.67336
 C594 C 0.00053 0.37933 0.64469
 C595 C 0.01270 0.40718 0.63743
 C596 C 0.01309 0.43005 0.65896
 C597 C 0.02537 0.45771 0.65119
 C598 C 0.03680 0.46268 0.62291
 C599 C 0.03636 0.44034 0.60183
 C600 C 0.02452 0.41286 0.60888
 C601 C -0.02355 0.34662 0.68112
 C602 C -0.03526 0.34179 0.70933
 C603 C -0.03499 0.36422 0.73036
 C604 C -0.02298 0.39164 0.72334
 C605 C -0.00002 0.35614 0.62249
 C606 C -0.00024 0.33742 0.60351
 C607 C 0.00109 0.44866 0.70923
 C608 C 0.00109 0.46907 0.72632
 H609 H 0.02631 0.47577 0.66683
 H610 H 0.04603 0.48398 0.61734
 H611 H 0.04527 0.44430 0.57988
 H612 H 0.02473 0.39619 0.59172
 H613 H -0.02428 0.32851 0.66550
 H614 H -0.04460 0.32054 0.71490
 H615 H -0.04413 0.36037 0.75223
 H616 H -0.02326 0.40841 0.74042
 C617 C 0.50095 0.18644 0.92448
 C618 C 0.50709 0.15658 0.93152
 C619 C 0.50667 0.13475 0.90893
 C620 C 0.50025 0.14293 0.87938
 C621 C 0.49425 0.17281 0.87232
 C622 C 0.49458 0.19464 0.89496
 C623 C 0.48845 0.22435 0.88741
 C624 C 0.48217 0.23230 0.85830
 C625 C 0.48185 0.21096 0.83616
 C626 C 0.48781 0.18153 0.84297
 C627 C 0.51271 0.10501 0.91655
 C628 C 0.51901 0.09708 0.94566
 C629 C 0.51952 0.11844 0.96774
 C630 C 0.51367 0.14787 0.96088
 C631 C 0.49981 0.12053 0.85638
 C632 C 0.49955 0.10149 0.83772
 C633 C 0.50087 0.20849 0.94780
 C634 C 0.50084 0.22586 0.96800
 H635 H 0.48845 0.24172 0.90388
 H636 H 0.47753 0.25513 0.85290
 H637 H 0.47697 0.21725 0.81359
 H638 H 0.48729 0.16572 0.82500
 H639 H 0.51263 0.08758 0.90016
 H640 H 0.52356 0.07424 0.95109
 H641 H 0.52449 0.11219 0.99031
 H642 H 0.51444 0.16367 0.97882
 C643 C 1.00304 0.57504 0.31230
 C644 C 1.00978 0.56844 0.34217
 C645 C 1.00997 0.59136 0.36366
 C646 C 1.00355 0.62078 0.35514
 C647 C 0.99701 0.62741 0.32524
 C648 C 0.99674 0.60445 0.30375
 C649 C 0.99008 0.61157 0.27402
 C650 C 0.98386 0.64056 0.26574
 C651 C 0.98413 0.66301 0.28673
 C652 C 0.99061 0.65664 0.31618
 C653 C 1.01660 0.58417 0.39341
 C654 C 1.02289 0.55518 0.40167
 C655 C 1.02279 0.53278 0.38064
 C656 C 1.01635 0.53920 0.35121
 C657 C 1.00354 0.64409 0.37724
 C658 C 1.00356 0.66297 0.39606
 C659 C 1.00224 0.55139 0.29064
 C660 C 1.00163 0.53097 0.27357
 H661 H 0.98963 0.59485 0.25691
 H662 H 0.97881 0.64564 0.24289
 H663 H 0.97928 0.68550 0.28018
 H664 H 0.99055 0.67483 0.33172
 H665 H 1.01701 0.60082 0.41058
 H666 H 1.02790 0.55009 0.42452
 H667 H 1.02776 0.51031 0.38715
 H668 H 1.01666 0.52103 0.33567
 C669 C 1.07738 0.49614 0.18705
 C670 C 1.10537 0.50823 0.19377
 C671 C 1.12809 0.50861 0.17182
 C672 C 1.12264 0.49694 0.14329
 C673 C 1.09474 0.48451 0.13670
 C674 C 1.07206 0.48406 0.15866
 C675 C 1.04434 0.47153 0.15155
 C676 C 1.03915 0.45987 0.12352
 C677 C 1.06129 0.46040 0.10202
 C678 C 1.08881 0.47252 0.10841
 C679 C 1.15587 0.52091 0.17902
 C680 C 1.16105 0.53250 0.20709
 C681 C 1.13883 0.53213 0.22854
 C682 C 1.11126 0.52016 0.22208
 C683 C 1.14550 0.49805 0.12056
 C684 C 1.16410 0.49895 0.10130
 C685 C 1.05368 0.49684 0.20890
 C686 C 1.03323 0.49750 0.22615
 H687 H 1.02643 0.47053 0.16754
 H688 H 1.01781 0.45040 0.11847
 H689 H 1.05714 0.45133 0.08026
 H690 H 1.10533 0.47236 0.09095
 H691 H 1.17384 0.52168 0.16307
 H692 H 1.18243 0.54182 0.21223
 H693 H 1.14298 0.54116 0.25031
 H694 H 1.09467 0.52033 0.23948
 C695 C 0.68658 0.00042 0.57627
 C696 C 0.65789 0.01173 0.57054
 C697 C 0.63586 0.01127 0.59315
 C698 C 0.64269 -0.00035 0.62141
 C699 C 0.67145 -0.01143 0.62721
 C700 C 0.69346 -0.01107 0.60455
 C701 C 0.72201 -0.02237 0.61080
 C702 C 0.72865 -0.03370 0.63867
 C703 C 0.70715 -0.03403 0.66084
 C704 C 0.67884 -0.02306 0.65530
 C705 C 0.60727 0.02248 0.58680
 C706 C 0.60066 0.03386 0.55894
 C707 C 0.62224 0.03443 0.53688
 C708 C 0.65056 0.02355 0.54249
 C709 C 0.62002 -0.00104 0.64436
 C710 C 0.60080 -0.00150 0.66301
 C711 C 0.70866 0.00016 0.55278
 C712 C 0.72607 0.00007 0.53247
 H713 H 0.73946 -0.02256 0.59426
 H714 H 0.75060 -0.04226 0.64309
 H715 H 0.71243 -0.04285 0.68246
 H716 H 0.66285 -0.02379 0.67324
 H717 H 0.58974 0.02258 0.60324
 H718 H 0.57868 0.04232 0.55447
 H719 H 0.61702 0.04334 0.51528
 H720 H 0.66659 0.02458 0.52462
 C721 C -0.07761 0.50186 0.81018
 C722 C -0.08630 0.52846 0.82432
 C723 C -0.10952 0.52827 0.84571
 C724 C -0.12393 0.50148 0.85281
 C725 C -0.11579 0.47502 0.83806
 C726 C -0.09255 0.47522 0.81668
 C727 C -0.08464 0.44847 0.80237
 C728 C -0.09931 0.42228 0.80898
 C729 C -0.12204 0.42209 0.82989
 C730 C -0.13027 0.44809 0.84434
 C731 C -0.11767 0.55510 0.85971
 C732 C -0.10330 0.58137 0.85276
 C733 C -0.08059 0.58155 0.83184
 C734 C -0.07208 0.55547 0.81772
 C735 C -0.14635 0.50099 0.87599
 C736 C -0.16450 0.50073 0.89569
 C737 C -0.05262 0.50172 0.78984
 C738 C -0.03143 0.50158 0.77351
 H739 H -0.06714 0.44753 0.78591
 H740 H -0.09300 0.40203 0.79781
 H741 H -0.13337 0.40169 0.83493
 H742 H -0.14812 0.44685 0.86040
 H743 H -0.13523 0.55609 0.87610
 H744 H -0.10983 0.60170 0.86366
 H745 H -0.06950 0.60202 0.82651
 H746 H -0.05433 0.55674 0.80157
 C747 C 0.31018 -0.00050 0.42168
 C748 C 0.32012 0.02636 0.40919
 C749 C 0.34154 0.02596 0.38600
 C750 C 0.35291 -0.00131 0.37546
 C751 C 0.34238 -0.02820 0.38742
 C752 C 0.32093 -0.02779 0.41059
 C753 C 0.31084 -0.05494 0.42232
 C754 C 0.32164 -0.08174 0.41146
 C755 C 0.34263 -0.08214 0.38881
 C756 C 0.35297 -0.05574 0.37685
 C757 C 0.35129 0.05311 0.37398
 C758 C 0.34017 0.07989 0.38458
 C759 C 0.31922 0.08028 0.40727
 C760 C 0.30924 0.05389 0.41953
 C761 C 0.37612 -0.00165 0.35305
 C762 C 0.39580 -0.00183 0.33489
 C763 C 0.28976 -0.00005 0.44662
 C764 C 0.27333 0.00032 0.46773
 H765 H 0.29449 -0.05577 0.43993
 H766 H 0.31367 -0.10230 0.42066
 H767 H 0.35095 -0.10301 0.38044
 H768 H 0.36927 -0.05719 0.35923
 H769 H 0.36751 0.05394 0.35627
 H770 H 0.34784 0.10045 0.37512
 H771 H 0.31065 0.10113 0.41542
 H772 H 0.29289 0.05532 0.43710
 C773 C 0.07966 0.50064 0.80961
 C774 C 0.09369 0.52741 0.81730
 C775 C 0.11678 0.52736 0.83853
 C776 C 0.12570 0.50052 0.85193
 C777 C 0.11220 0.47363 0.84364
 C778 C 0.08911 0.47369 0.82241
 C779 C 0.07581 0.44658 0.81461
 C780 C 0.08507 0.42015 0.82743
 C781 C 0.10763 0.42009 0.84821
 C782 C 0.12111 0.44645 0.85632
 C783 C 0.13034 0.55442 0.84601
 C784 C 0.12135 0.58080 0.83289
 C785 C 0.09876 0.58085 0.81214
 C786 C 0.08499 0.55453 0.80435
 C787 C 0.14799 0.50065 0.87495
 C788 C 0.16603 0.50065 0.89450
 C789 C 0.05479 0.50092 0.78942
 C790 C 0.03371 0.50110 0.77324
 H791 H 0.05821 0.44549 0.79852
 H792 H 0.07467 0.39960 0.82120
 H793 H 0.11474 0.39949 0.85810
 H794 H 0.13860 0.44527 0.87254
 H795 H 0.14804 0.55549 0.86200
 H796 H 0.13198 0.60130 0.83885
 H797 H 0.09186 0.60139 0.80200
 H798 H 0.06756 0.55568 0.78806
 C799 C 0.68740 0.00051 0.42436
 C800 C 0.65712 -0.00347 0.43158
 C801 C 0.63553 -0.00317 0.40884
 C802 C 0.64436 0.00094 0.37898
 C803 C 0.67465 0.00480 0.37175
 C804 C 0.69624 0.00462 0.39453
 C805 C 0.72637 0.00857 0.38680
 C806 C 0.73495 0.01258 0.35739
 C807 C 0.71386 0.01275 0.33511
 C808 C 0.68402 0.00891 0.34208
 C809 C 0.60538 -0.00703 0.41664
 C810 C 0.59682 -0.01115 0.44604
 C811 C 0.61794 -0.01158 0.46827
 C812 C 0.64776 -0.00780 0.46125
 C813 C 0.62221 0.00117 0.35581
 C814 C 0.60336 0.00129 0.33704
 C815 C 0.70923 0.00056 0.44778
 C816 C 0.72643 0.00052 0.46805
 H817 H 0.74357 0.00859 0.40337
 H818 H 0.75810 0.01557 0.35185
 H819 H 0.72065 0.01586 0.31230
 H820 H 0.66842 0.00921 0.32400
 H821 H 0.58811 -0.00692 0.40014
 H822 H 0.57367 -0.01408 0.45160
 H823 H 0.61120 -0.01489 0.49107
 H824 H 0.66335 -0.00840 0.47933
 C825 C 0.92513 0.49969 0.18717
 C826 C 0.89515 0.49776 0.19622
 C827 C 0.87236 0.49741 0.17465
 C828 C 0.87973 0.49894 0.14416
 C829 C 0.90974 0.50097 0.13512
 C830 C 0.93250 0.50141 0.15668
 C831 C 0.96233 0.50358 0.14710
 C832 C 0.96947 0.50519 0.11709
 C833 C 0.94722 0.50464 0.09600
 C834 C 0.91767 0.50257 0.10478
 C835 C 0.84254 0.49547 0.18423
 C836 C 0.83543 0.49393 0.21427
 C837 C 0.85771 0.49427 0.23535
 C838 C 0.88728 0.49616 0.22656
 C839 C 0.85655 0.49843 0.12203
 C840 C 0.83775 0.49805 0.10322
 C841 C 0.94856 0.49956 0.20900
 C842 C 0.96879 0.49931 0.22623
 H843 H 0.98044 0.50416 0.16264
 H844 H 0.99239 0.50691 0.11016
 H845 H 0.95288 0.50586 0.07270
 H846 H 0.90116 0.50226 0.08752
 H847 H 0.82444 0.49514 0.16865
 H848 H 0.81250 0.49247 0.22122
 H849 H 0.85207 0.49307 0.25865
 H850 H 0.90384 0.49637 0.24376
 C851 C 0.30849 0.00155 0.57919
 C852 C 0.31951 0.02866 0.59003
 C853 C 0.34058 0.02872 0.61327
 C854 C 0.35047 0.00168 0.62554
 C855 C 0.33880 -0.02538 0.61527
 C856 C 0.31775 -0.02544 0.59201
 C857 C 0.30656 -0.05278 0.58195
 C858 C 0.31589 -0.07930 0.59453
 C859 C 0.33646 -0.07924 0.61728
 C860 C 0.34787 -0.05266 0.62761
 C861 C 0.35147 0.05608 0.62357
 C862 C 0.34178 0.08262 0.61130
 C863 C 0.32116 0.08255 0.58859
 C864 C 0.31009 0.05595 0.57798
 C865 C 0.37340 0.00162 0.64793
 C866 C 0.39287 0.00150 0.66605
 C867 C 0.28856 0.00137 0.55413
 C868 C 0.27258 0.00118 0.53289
 H869 H 0.29047 -0.05395 0.56435
 H870 H 0.30709 -0.10000 0.58659
 H871 H 0.34363 -0.09990 0.62699
 H872 H 0.36379 -0.05374 0.64539
 H873 H 0.36750 0.05726 0.64123
 H874 H 0.35032 0.10335 0.61947
 H875 H 0.31369 0.10323 0.57914
 H876 H 0.29404 0.05703 0.56032
   
