data_POSCAR
  _audit_creation_date              2014-09-24
  _audit_creation_method            'ToBaCCo'
  _symmetry_space_group_name_H-M    'P1'
  _symmetry_Int_Tables_number       1
  _symmetry_cell_setting            triclinic
  loop_
  _symmetry_equiv_pos_as_xyz
 x,y,z
_cell_length_a 52.4589
_cell_length_b 52.2827
_cell_length_c 52.4387
_cell_angle_alpha 89.929900
_cell_angle_beta 89.999400
_cell_angle_gamma 90.082600
loop_
  _atom_site_label
  _atom_site_type_symbol
  _atom_site_fract_x
  _atom_site_fract_y
  _atom_site_fract_z
N1 N 0.59493 0.66555 0.61459
 N2 N 0.58492 0.65510 0.63512
 C3 C 0.56423 0.66864 0.64212
 C4 C 0.56124 0.68863 0.62509
 C5 C 0.58100 0.68609 0.60787
 H6 H 0.55221 0.66439 0.65833
 H7 H 0.58489 0.69825 0.59164
 Cu8 Cu 0.60014 0.62475 0.65033
 Cu9 Cu 0.62524 0.65184 0.59800
 Cu10 Cu 0.65224 0.59763 0.62510
 N11 N 0.61520 0.59431 0.66551
 N12 N 0.63564 0.58383 0.65544
 C13 C 0.64227 0.56320 0.66931
 C14 C 0.62504 0.56060 0.68911
 C15 C 0.60808 0.58064 0.68613
 H16 H 0.65836 0.55095 0.66524
 H17 H 0.59183 0.58488 0.69810
 N18 N 0.66618 0.61447 0.59441
 N19 N 0.65591 0.63509 0.58410
 C20 C 0.66969 0.64192 0.56350
 C21 C 0.68952 0.62480 0.56075
 C22 C 0.68676 0.60767 0.58062
 H23 H 0.66567 0.65813 0.55133
 H24 H 0.69889 0.59146 0.58466
 H25 H 0.62007 0.61442 0.60965
 H26 H 0.64070 0.63503 0.63007
 N27 N 0.90564 0.33369 0.11444
 N28 N 0.91564 0.34412 0.13496
 C29 C 0.93635 0.33060 0.14196
 C30 C 0.93936 0.31064 0.12494
 C31 C 0.91957 0.31318 0.10772
 H32 H 0.94837 0.33490 0.15816
 H33 H 0.91561 0.30101 0.09153
 Cu34 Cu 0.90052 0.37446 0.15011
 Cu35 Cu 0.87535 0.34740 0.09783
 Cu36 Cu 0.84836 0.40156 0.12487
 N37 N 0.88539 0.40481 0.16525
 N38 N 0.86497 0.41531 0.15517
 C39 C 0.85839 0.43594 0.16900
 C40 C 0.87561 0.43851 0.18875
 C41 C 0.89253 0.41848 0.18582
 H42 H 0.84227 0.44818 0.16502
 H43 H 0.90879 0.41430 0.19779
 N44 N 0.83442 0.38476 0.09423
 N45 N 0.84469 0.36416 0.08394
 C46 C 0.83089 0.35733 0.06337
 C47 C 0.81106 0.37445 0.06062
 C48 C 0.81383 0.39157 0.08046
 H49 H 0.83492 0.34114 0.05122
 H50 H 0.80170 0.40777 0.08448
 H51 H 0.88054 0.38479 0.10941
 H52 H 0.85994 0.36415 0.12988
 N53 N 0.40500 0.16588 -0.11437
 N54 N 0.41507 0.15537 -0.13480
 C55 C 0.43570 0.16901 -0.14190
 C56 C 0.43865 0.18904 -0.12498
 C57 C 0.41888 0.18650 -0.10778
 H58 H 0.44769 0.16480 -0.15813
 H59 H 0.41490 0.19877 -0.09168
 Cu60 Cu 0.39990 0.12499 -0.14989
 Cu61 Cu 0.37467 0.15217 -0.09780
 Cu62 Cu 0.34756 0.09797 -0.12481
 N63 N 0.38471 0.09466 -0.16506
 N64 N 0.36417 0.08422 -0.15508
 C65 C 0.35746 0.06370 -0.16903
 C66 C 0.37469 0.06117 -0.18877
 C67 C 0.39173 0.08112 -0.18574
 H68 H 0.34124 0.05151 -0.16514
 H69 H 0.40796 0.08537 -0.19775
 N70 N 0.33368 0.11477 -0.09417
 N71 N 0.34400 0.13539 -0.08390
 C72 C 0.33023 0.14223 -0.06334
 C73 C 0.31036 0.12512 -0.06059
 C74 C 0.31307 0.10797 -0.08040
 H75 H 0.33428 0.15844 -0.05121
 H76 H 0.30088 0.09178 -0.08441
 H77 H 0.37963 0.11479 -0.10932
 H78 H 0.35925 0.13541 -0.12998
 N79 N 0.09434 0.83400 0.38549
 N80 N 0.08388 0.84491 0.36545
 C81 C 0.06325 0.83128 0.35834
 C82 C 0.06067 0.81080 0.37490
 C83 C 0.08072 0.81311 0.39188
 H84 H 0.05102 0.83582 0.34236
 H85 H 0.08507 0.80055 0.40768
 Cu86 Cu 0.09888 0.87563 0.35078
 Cu87 Cu 0.12480 0.84765 0.40202
 Cu88 Cu 0.15151 0.90232 0.37529
 N89 N 0.11401 0.90589 0.33532
 N90 N 0.13472 0.91616 0.34512
 C91 C 0.14161 0.93652 0.33099
 C92 C 0.12433 0.93912 0.31130
 C93 C 0.10707 0.91939 0.31455
 H94 H 0.15800 0.94851 0.33468
 H95 H 0.09077 0.91523 0.30261
 N96 N 0.16558 0.88535 0.40579
 N97 N 0.15552 0.86449 0.41589
 C98 C 0.16941 0.85762 0.43639
 C99 C 0.18908 0.87495 0.43926
 C100 C 0.18612 0.89226 0.41960
 H101 H 0.16552 0.84127 0.44843
 H102 H 0.19807 0.90868 0.41573
 H103 H 0.11985 0.88520 0.39109
 H104 H 0.13986 0.86494 0.36980
 C105 C 0.10600 0.14394 0.12514
 N106 N 0.12433 0.14389 0.10685
 C107 C 0.14267 0.12558 0.10681
 N108 N 0.14261 0.10726 0.12519
 C109 C 0.12436 0.10718 0.14355
 N110 N 0.10608 0.12555 0.14346
 C111 C 0.39355 0.85659 0.62512
 N112 N 0.37522 0.85666 0.60683
 C113 C 0.35687 0.87498 0.60677
 N114 N 0.35693 0.89328 0.62513
 C115 C 0.37520 0.89334 0.64349
 N116 N 0.39347 0.87496 0.64341
 C117 C 0.89400 0.64337 0.37473
 N118 N 0.89394 0.62496 0.35647
 C119 C 0.87565 0.60654 0.35640
 N120 N 0.85735 0.60659 0.37472
 C121 C 0.85726 0.62493 0.39305
 N122 N 0.87562 0.64329 0.39299
 C123 C 0.60675 0.35679 -0.12536
 N124 N 0.62512 0.35682 -0.10712
 C125 C 0.64350 0.37513 -0.10707
 N126 N 0.64346 0.39350 -0.12543
 C127 C 0.62516 0.39360 -0.14376
 N128 N 0.60684 0.37521 -0.14366
 N129 N -0.02349 0.25539 0.10709
 C130 C -0.00519 0.25536 0.12533
 N131 N -0.00542 0.27381 0.14347
 N132 N -0.02341 0.29178 0.14336
 C133 C -0.04178 0.29191 0.12509
 N134 N -0.04147 0.27336 0.10697
 C135 C 0.01417 0.23602 0.12541
 C136 C 0.03042 0.21975 0.12540
 C137 C 0.04974 0.20038 0.12533
 N138 N 0.06802 0.20028 0.10706
 N139 N 0.08597 0.18227 0.10698
 C140 C 0.08622 0.16376 0.12517
 N141 N 0.06786 0.16392 0.14343
 N142 N 0.04992 0.18192 0.14351
 N143 N 0.50502 0.72655 0.64351
 C144 C 0.50483 0.74503 0.62534
 N145 N 0.52312 0.74493 0.60707
 N146 N 0.54107 0.72692 0.60699
 C147 C 0.54134 0.70840 0.62517
 N148 N 0.52298 0.70854 0.64343
 C149 C 0.48547 0.76442 0.62537
 C150 C 0.46922 0.78072 0.62533
 C151 C 0.44989 0.80013 0.62526
 N152 N 0.44971 0.81854 0.64344
 N153 N 0.43175 0.83655 0.64338
 C154 C 0.41337 0.83675 0.62515
 N155 N 0.41361 0.81828 0.60695
 N156 N 0.43157 0.80027 0.60701
 N157 N 1.00519 0.77404 0.35664
 C158 C 1.00529 0.75523 0.37446
 N159 N 1.02392 0.75497 0.39237
 N160 N 1.04191 0.77299 0.39247
 C161 C 1.04189 0.79190 0.37467
 N162 N 1.02318 0.79207 0.35674
 C163 C 0.98590 0.73582 0.37442
 C164 C 0.96964 0.71949 0.37447
 C165 C 0.95031 0.70002 0.37456
 N166 N 0.95017 0.68156 0.35642
 N167 N 0.93223 0.66349 0.35649
 C168 C 0.91382 0.66327 0.37470
 N169 N 0.91403 0.68178 0.39285
 N170 N 0.93197 0.69985 0.39278
 N171 N 0.49508 0.22676 -0.14338
 C172 C 0.49539 0.24519 -0.12520
 N173 N 0.47705 0.24518 -0.10699
 N174 N 0.45895 0.22727 -0.10695
 C175 C 0.45858 0.20879 -0.12512
 N176 N 0.47698 0.20885 -0.14334
 C177 C 0.51481 0.26451 -0.12527
 C178 C 0.53109 0.28080 -0.12529
 C179 C 0.55043 0.30023 -0.12530
 N180 N 0.56878 0.30038 -0.10710
 N181 N 0.58674 0.31843 -0.10711
 C182 C 0.58693 0.33693 -0.12532
 N183 N 0.56850 0.33672 -0.14351
 N184 N 0.55055 0.31867 -0.14349
 N185 N 0.10597 -0.02286 0.25507
 C186 C 0.12435 -0.00460 0.25469
 N187 N 0.14275 -0.00490 0.27283
 N188 N 0.14275 -0.02289 0.29084
 C189 C 0.12436 -0.04119 0.29130
 N190 N 0.10597 -0.04086 0.27308
 C191 C 0.12429 0.01485 0.23540
 C192 C 0.12430 0.03122 0.21920
 C193 C 0.12435 0.05068 0.19992
 N194 N 0.10616 0.06908 0.19977
 N195 N 0.10617 0.08712 0.18180
 C196 C 0.12437 0.08735 0.16338
 N197 N 0.14257 0.06889 0.16360
 N198 N 0.14255 0.05086 0.18157
 N199 N 0.60664 0.52370 -0.25551
 C200 C 0.62484 0.50531 -0.25521
 N201 N 0.64304 0.50537 -0.27356
 N202 N 0.64307 0.52330 -0.29164
 C203 C 0.62490 0.54180 -0.29201
 N204 N 0.60667 0.54164 -0.27359
 C205 C 0.62483 0.48596 -0.23576
 C206 C 0.62488 0.46965 -0.21947
 C207 C 0.62497 0.45021 -0.20012
 N208 N 0.64324 0.45005 -0.18184
 N209 N 0.64332 0.43200 -0.16387
 C210 C 0.62513 0.41349 -0.16359
 N211 N 0.60686 0.41370 -0.18195
 N212 N 0.60678 0.43176 -0.19991
 N213 N 0.35684 1.00490 0.77300
 C214 C 0.37515 1.00486 0.75475
 N215 N 0.39331 1.02334 0.75503
 N216 N 0.39317 1.04132 0.77303
 C217 C 0.37485 1.04141 0.79133
 N218 N 0.35670 1.02287 0.79099
 C219 C 0.37527 0.98550 0.73538
 C220 C 0.37529 0.96922 0.71913
 C221 C 0.37527 0.94982 0.69979
 N222 N 0.39345 0.93141 0.69966
 N223 N 0.39342 0.91339 0.68171
 C224 C 0.37521 0.91318 0.66330
 N225 N 0.35702 0.93164 0.66350
 N226 N 0.35706 0.94966 0.68145
 N227 N 0.85759 0.49465 0.22703
 C228 C 0.87582 0.49473 0.24535
 N229 N 0.89400 0.47632 0.24510
 N230 N 0.89397 0.45839 0.22705
 C231 C 0.87575 0.45828 0.20865
 N232 N 0.85755 0.47673 0.20899
 C233 C 0.87586 0.51409 0.26474
 C234 C 0.87584 0.53041 0.28097
 C235 C 0.87578 0.54987 0.30025
 N236 N 0.89396 0.56833 0.30035
 N237 N 0.89391 0.58641 0.31824
 C238 C 0.87567 0.58664 0.33663
 N239 N 0.85747 0.56813 0.33645
 N240 N 0.85753 0.55005 0.31855
 N241 N 0.27237 0.14357 -0.00453
 C242 C 0.25394 0.12536 -0.00438
 N243 N 0.25404 0.10707 -0.02268
 N244 N 0.27204 0.10699 -0.04061
 C245 C 0.29052 0.12519 -0.04082
 N246 N 0.29036 0.14348 -0.02246
 C247 C 0.23458 0.12544 0.01494
 C248 C 0.21833 0.12549 0.03118
 C249 C 0.19899 0.12553 0.05052
 N250 N 0.19881 0.10729 0.06892
 N251 N 0.18084 0.10731 0.08687
 C252 C 0.16246 0.12557 0.08702
 N253 N 0.16270 0.14382 0.06857
 N254 N 0.18067 0.14379 0.05061
 N255 N 0.74562 0.60652 0.52266
 C256 C 0.74577 0.62476 0.50426
 N257 N 0.72743 0.64302 0.50441
 N258 N 0.70950 0.64303 0.52242
 C259 C 0.70931 0.62479 0.54089
 N260 N 0.72769 0.60653 0.54067
 C261 C 0.76513 0.62479 0.48490
 C262 C 0.78141 0.62482 0.46865
 C263 C 0.80080 0.62485 0.44931
 N264 N 0.80099 0.60659 0.43098
 N265 N 0.81899 0.60661 0.41304
 C266 C 0.83741 0.62490 0.41284
 N267 N 0.83715 0.64316 0.43123
 N268 N 0.81915 0.64314 0.44917
 N269 N 0.77308 0.35628 0.00439
 C270 C 0.75474 0.37453 0.00426
 N271 N 0.75492 0.39276 0.02263
 N272 N 0.77288 0.39273 0.04060
 C273 C 0.79127 0.37448 0.04080
 N274 N 0.79105 0.35625 0.02236
 C275 C 0.73541 0.37459 -0.01510
 C276 C 0.71917 0.37468 -0.03137
 C277 C 0.69982 0.37480 -0.05073
 N278 N 0.69975 0.39312 -0.06905
 N279 N 0.68179 0.39324 -0.08702
 C280 C 0.66331 0.37503 -0.08727
 N281 N 0.66343 0.35671 -0.06888
 N282 N 0.68139 0.35660 -0.05091
 N283 N 0.24520 0.89348 0.47724
 C284 C 0.24554 0.87509 0.49549
 N285 N 0.22733 0.85666 0.49528
 N286 N 0.20932 0.85662 0.47736
 C287 C 0.20892 0.87501 0.45905
 N288 N 0.22719 0.89344 0.45932
 C289 C 0.26493 0.87513 0.51481
 C290 C 0.28119 0.87514 0.53106
 C291 C 0.30055 0.87511 0.55040
 N292 N 0.31888 0.85685 0.55053
 N293 N 0.33684 0.85680 0.56851
 C294 C 0.33707 0.87501 0.58696
 N295 N 0.31868 0.89327 0.58676
 N296 N 0.30072 0.89332 0.56879
   
