data_POSCAR
  _audit_creation_date              2014-09-24
  _audit_creation_method            'ToBaCCo'
  _symmetry_space_group_name_H-M    'P1'
  _symmetry_Int_Tables_number       1
  _symmetry_cell_setting            triclinic
  loop_
  _symmetry_equiv_pos_as_xyz
 x,y,z
_cell_length_a 49.3961
_cell_length_b 49.4867
_cell_length_c 49.6464
_cell_angle_alpha 90.003000
_cell_angle_beta 90.002300
_cell_angle_gamma 89.996300
loop_
  _atom_site_label
  _atom_site_type_symbol
  _atom_site_fract_x
  _atom_site_fract_y
  _atom_site_fract_z
N1 N 0.29315 0.23900 0.21788
 N2 N 0.28198 0.26067 0.20729
 C3 C 0.29633 0.26823 0.18545
 C4 C 0.31739 0.25024 0.18234
 C5 C 0.31490 0.23196 0.20312
 H6 H 0.29179 0.28536 0.17268
 H7 H 0.32792 0.21488 0.20720
 Cu8 Cu 0.24990 0.27670 0.22336
 Cu9 Cu 0.27861 0.22145 0.24990
 Cu10 Cu 0.22118 0.25012 0.27849
 N11 N 0.21771 0.29270 0.23924
 N12 N 0.20663 0.28216 0.26092
 C13 C 0.18478 0.29685 0.26785
 C14 C 0.18222 0.31761 0.24956
 C15 C 0.20333 0.31457 0.23168
 H16 H 0.17178 0.29278 0.28489
 H17 H 0.20773 0.32725 0.21447
 N18 N 0.23901 0.21768 0.29322
 N19 N 0.26085 0.20676 0.28234
 C20 C 0.26807 0.18494 0.29692
 C21 C 0.24992 0.18218 0.31778
 C22 C 0.23178 0.20310 0.31498
 H23 H 0.28520 0.17201 0.29273
 H24 H 0.21463 0.20731 0.32784
 H25 H 0.23899 0.23373 0.24468
 H26 H 0.26075 0.25545 0.26630
 N27 N 0.70641 -0.23906 0.21712
 N28 N 0.71751 -0.26080 0.20658
 C29 C 0.70317 -0.26832 0.18471
 C30 C 0.68213 -0.25028 0.18164
 C31 C 0.68464 -0.23198 0.20239
 H32 H 0.70764 -0.28551 0.17201
 H33 H 0.67164 -0.21488 0.20651
 Cu34 Cu 0.74964 -0.27693 0.22262
 Cu35 Cu 0.72084 -0.22156 0.24922
 Cu36 Cu 0.77791 -0.25064 0.27813
 N37 N 0.78176 -0.29307 0.23869
 N38 N 0.79266 -0.28267 0.26055
 C39 C 0.81452 -0.29736 0.26755
 C40 C 0.81733 -0.31794 0.24905
 C41 C 0.79635 -0.31478 0.23099
 H42 H 0.82738 -0.29333 0.28471
 H43 H 0.79213 -0.32727 0.21361
 N44 N 0.76009 -0.21815 0.29289
 N45 N 0.73849 -0.20699 0.28179
 C46 C 0.73139 -0.18505 0.29625
 C47 C 0.74936 -0.18243 0.31728
 C48 C 0.76728 -0.20359 0.31469
 H49 H 0.71447 -0.17190 0.29185
 H50 H 0.78430 -0.20791 0.32769
 H51 H 0.76036 -0.23391 0.24414
 H52 H 0.73822 -0.25561 0.26551
 N53 N 0.70708 0.23915 0.78223
 N54 N 0.71863 0.26044 0.79321
 C55 C 0.70419 0.26805 0.81497
 C56 C 0.68267 0.25051 0.81762
 C57 C 0.68499 0.23244 0.79664
 H58 H 0.70890 0.28500 0.82791
 H59 H 0.67164 0.21569 0.79221
 Cu60 Cu 0.75117 0.27588 0.77736
 Cu61 Cu 0.72145 0.22162 0.75007
 Cu62 Cu 0.77894 0.25037 0.72146
 N63 N 0.78297 0.29257 0.76124
 N64 N 0.79367 0.28241 0.73917
 C65 C 0.81519 0.29745 0.73188
 C66 C 0.81797 0.31804 0.75038
 C67 C 0.79730 0.31453 0.76874
 H68 H 0.82783 0.29367 0.71449
 H69 H 0.79304 0.32700 0.78612
 N70 N 0.76101 0.21791 0.70666
 N71 N 0.73917 0.20698 0.71756
 C72 C 0.73195 0.18514 0.70302
 C73 C 0.75009 0.18233 0.68215
 C74 C 0.76823 0.20327 0.68492
 H75 H 0.71484 0.17219 0.70725
 H76 H 0.78539 0.20744 0.67206
 H77 H 0.76115 0.23320 0.75498
 H78 H 0.73935 0.25575 0.73417
 N79 N 0.29334 -0.23926 0.78248
 N80 N 0.28218 -0.26093 0.79309
 C81 C 0.29660 -0.26849 0.81487
 C82 C 0.31775 -0.25056 0.81790
 C83 C 0.31519 -0.23227 0.79713
 H84 H 0.29217 -0.28569 0.82756
 H85 H 0.32821 -0.21519 0.79301
 Cu86 Cu 0.24996 -0.27697 0.77710
 Cu87 Cu 0.27878 -0.22167 0.75048
 Cu88 Cu 0.22131 -0.25036 0.72191
 N89 N 0.21776 -0.29308 0.76110
 N90 N 0.20668 -0.28250 0.73941
 C91 C 0.18490 -0.29729 0.73234
 C92 C 0.18235 -0.31813 0.75059
 C93 C 0.20341 -0.31501 0.76858
 H94 H 0.17194 -0.29317 0.71527
 H95 H 0.20791 -0.32776 0.78570
 N96 N 0.23911 -0.21781 0.70722
 N97 N 0.26096 -0.20691 0.71809
 C98 C 0.26822 -0.18510 0.70351
 C99 C 0.25009 -0.18230 0.68263
 C100 C 0.23192 -0.20322 0.68544
 H101 H 0.28540 -0.17221 0.70767
 H102 H 0.21480 -0.20743 0.67253
 H103 H 0.23919 -0.23378 0.75579
 H104 H 0.26097 -0.25561 0.73418
 N105 N 0.70709 -0.23912 0.78227
 N106 N 0.71827 -0.26079 0.79282
 C107 C 0.70395 -0.26831 0.81470
 C108 C 0.68284 -0.25035 0.81780
 C109 C 0.68531 -0.23209 0.79700
 H110 H 0.70848 -0.28546 0.82741
 H111 H 0.67228 -0.21500 0.79292
 Cu112 Cu 0.75042 -0.27687 0.77681
 Cu113 Cu 0.72157 -0.22158 0.75021
 Cu114 Cu 0.77900 -0.25030 0.72158
 N115 N 0.78258 -0.29294 0.76078
 N116 N 0.79367 -0.28239 0.73910
 C117 C 0.81547 -0.29715 0.73208
 C118 C 0.81804 -0.31794 0.75038
 C119 C 0.79697 -0.31483 0.76834
 H120 H 0.82844 -0.29307 0.71499
 H121 H 0.79250 -0.32749 0.78552
 N122 N 0.76114 -0.21780 0.70686
 N123 N 0.73930 -0.20688 0.71776
 C124 C 0.73202 -0.18509 0.70317
 C125 C 0.75011 -0.18232 0.68226
 C126 C 0.76829 -0.20322 0.68506
 H127 H 0.71487 -0.17219 0.70737
 H128 H 0.78540 -0.20743 0.67213
 H129 H 0.73934 -0.25553 0.73385
 H130 H 0.76116 -0.23373 0.75545
 N131 N 0.29345 0.23915 0.78196
 N132 N 0.28211 0.26063 0.79276
 C133 C 0.29631 0.26799 0.81474
 C134 C 0.31746 0.25006 0.81773
 C135 C 0.31511 0.23196 0.79678
 H136 H 0.29165 0.28500 0.82764
 H137 H 0.32829 0.21502 0.79248
 Cu138 Cu 0.25011 0.27689 0.77670
 Cu139 Cu 0.27909 0.22189 0.74976
 Cu140 Cu 0.22170 0.25050 0.72117
 N141 N 0.21789 0.29275 0.76071
 N142 N 0.20701 0.28238 0.73883
 C143 C 0.18510 0.29699 0.73191
 C144 C 0.18234 0.31758 0.75036
 C145 C 0.20335 0.31447 0.76836
 H146 H 0.17229 0.29303 0.71467
 H147 H 0.20762 0.32703 0.78570
 N148 N 0.23958 0.21812 0.70644
 N149 N 0.26142 0.20721 0.71732
 C150 C 0.26838 0.18512 0.70303
 C151 C 0.25014 0.18224 0.68226
 C152 C 0.23211 0.20327 0.68494
 H153 H 0.28537 0.17204 0.70735
 H154 H 0.21482 0.20734 0.67220
 H155 H 0.26106 0.25604 0.73366
 H156 H 0.23933 0.23404 0.75523
 N157 N 0.29341 -0.23901 0.21800
 N158 N 0.28227 -0.26072 0.20743
 C159 C 0.29659 -0.26823 0.18559
 C160 C 0.31774 -0.25034 0.18255
 C161 C 0.31524 -0.23204 0.20331
 H162 H 0.29209 -0.28542 0.17291
 H163 H 0.32829 -0.21497 0.20741
 Cu164 Cu 0.25011 -0.27670 0.22336
 Cu165 Cu 0.27886 -0.22146 0.24999
 Cu166 Cu 0.22132 -0.25005 0.27848
 N167 N 0.21796 -0.29266 0.23928
 N168 N 0.20678 -0.28205 0.26090
 C169 C 0.18497 -0.29679 0.26786
 C170 C 0.18247 -0.31757 0.24959
 C171 C 0.20354 -0.31447 0.23169
 H172 H 0.17193 -0.29271 0.28489
 H173 H 0.20804 -0.32719 0.21456
 N174 N 0.23916 -0.21763 0.29322
 N175 N 0.26104 -0.20674 0.28239
 C176 C 0.26827 -0.18495 0.29699
 C177 C 0.25009 -0.18216 0.31782
 C178 C 0.23192 -0.20305 0.31498
 H179 H 0.28544 -0.17205 0.29286
 H180 H 0.21475 -0.20724 0.32783
 H181 H 0.26090 -0.25541 0.26636
 H182 H 0.23920 -0.23362 0.24469
 N183 N 0.70703 0.23869 0.21749
 N184 N 0.71795 0.26059 0.20713
 C185 C 0.70345 0.26830 0.18545
 C186 C 0.68248 0.25022 0.18226
 C187 C 0.68517 0.23175 0.20285
 H188 H 0.70773 0.28566 0.17290
 H189 H 0.67228 0.21455 0.20680
 Cu190 Cu 0.74998 0.27663 0.22326
 Cu191 Cu 0.72176 0.22101 0.24933
 Cu192 Cu 0.77869 0.25013 0.27850
 N193 N 0.78214 0.29262 0.23912
 N194 N 0.79318 0.28214 0.26086
 C195 C 0.81499 0.29687 0.26780
 C196 C 0.81756 0.31758 0.24947
 C197 C 0.79654 0.31446 0.23151
 H198 H 0.82796 0.29282 0.28486
 H199 H 0.79216 0.32716 0.21430
 N200 N 0.76089 0.21760 0.29306
 N201 N 0.73938 0.20638 0.28185
 C202 C 0.73204 0.18465 0.29649
 C203 C 0.74992 0.18210 0.31760
 C204 C 0.76791 0.20318 0.31499
 H205 H 0.71502 0.17160 0.29218
 H206 H 0.78481 0.20761 0.32810
 H207 H 0.73909 0.25519 0.26613
 H208 H 0.76138 0.23386 0.24465
 C209 C 0.24999 -0.01394 0.41527
 C210 C 0.24997 0.01380 0.41525
 C211 C 0.24998 0.02191 0.44201
 N212 N 0.25000 -0.00005 0.45819
 C213 C 0.25001 -0.02202 0.44204
 C214 C 0.24997 0.04919 0.45077
 C215 C 0.24997 0.05786 0.47804
 C216 C 0.24995 0.08469 0.48623
 C217 C 0.24996 0.08469 0.51395
 C218 C 0.24999 0.05786 0.52214
 N219 N 0.24999 0.04182 0.50009
 C220 C 0.25002 0.04919 0.54941
 C221 C 0.25003 0.02191 0.55820
 C222 C 0.25005 0.01383 0.58497
 C223 C 0.25007 -0.01392 0.58499
 C224 C 0.25006 -0.02203 0.55824
 N225 N 0.25004 -0.00007 0.54206
 C226 C 0.25009 -0.04933 0.54949
 C227 C 0.25007 -0.05799 0.52220
 C228 C 0.25009 -0.08482 0.51400
 C229 C 0.25007 -0.08481 0.48628
 C230 C 0.25005 -0.05798 0.47810
 N231 N 0.25005 -0.04195 0.50015
 C232 C 0.25003 -0.04930 0.45083
 H233 H 0.24999 -0.02668 0.39754
 H234 H 0.24996 0.02651 0.39752
 H235 H 0.25004 -0.02125 0.50014
 H236 H 0.24994 0.10251 0.47358
 H237 H 0.24995 0.10251 0.52660
 H238 H 0.25005 0.02657 0.60270
 H239 H 0.25009 -0.02663 0.60273
 H240 H 0.25007 -0.10262 0.47363
 H241 H 0.25001 0.02112 0.50011
 H242 H 0.25010 -0.10264 0.52665
 C243 C 0.74990 -0.01402 0.58467
 C244 C 0.74990 0.01372 0.58469
 C245 C 0.74988 0.02184 0.55794
 N246 N 0.74986 -0.00013 0.54176
 C247 C 0.74987 -0.02211 0.55790
 C248 C 0.74988 0.04913 0.54919
 C249 C 0.74987 0.05780 0.52190
 C250 C 0.74989 0.08462 0.51371
 C251 C 0.74988 0.08462 0.48598
 C252 C 0.74986 0.05778 0.47780
 N253 N 0.74985 0.04175 0.49985
 C254 C 0.74984 0.04910 0.45052
 C255 C 0.74980 0.02183 0.44173
 C256 C 0.74977 0.01374 0.41497
 C257 C 0.74974 -0.01400 0.41494
 C258 C 0.74975 -0.02212 0.44169
 N259 N 0.74979 -0.00016 0.45788
 C260 C 0.74973 -0.04941 0.45044
 C261 C 0.74976 -0.05808 0.47772
 C262 C 0.74975 -0.08490 0.48592
 C263 C 0.74979 -0.08490 0.51364
 C264 C 0.74981 -0.05807 0.52184
 N265 N 0.74980 -0.04203 0.49978
 C266 C 0.74985 -0.04940 0.54912
 H267 H 0.74991 -0.02675 0.60240
 H268 H 0.74992 0.02644 0.60243
 H269 H 0.74981 -0.02133 0.49980
 H270 H 0.74990 0.10244 0.52635
 H271 H 0.74988 0.10243 0.47333
 H272 H 0.74976 0.02648 0.39724
 H273 H 0.74971 -0.02671 0.39720
 H274 H 0.74979 -0.10271 0.52629
 H275 H 0.74984 0.02105 0.49984
 H276 H 0.74972 -0.10272 0.47327
 C277 C 0.41471 0.25045 -0.01384
 C278 C 0.41470 0.25046 0.01381
 C279 C 0.44159 0.25045 0.02189
 N280 N 0.45784 0.25044 -0.00001
 C281 C 0.44160 0.25044 -0.02191
 C282 C 0.45039 0.25046 0.04909
 C283 C 0.47781 0.25046 0.05773
 C284 C 0.48605 0.25047 0.08447
 C285 C 0.51391 0.25047 0.08446
 C286 C 0.52213 0.25045 0.05771
 N287 N 0.49996 0.25045 0.04173
 C288 C 0.54954 0.25042 0.04905
 C289 C 0.55835 0.25042 0.02186
 C290 C 0.58525 0.25042 0.01379
 C291 C 0.58526 0.25041 -0.01386
 C292 C 0.55837 0.25040 -0.02195
 N293 N 0.54212 0.25042 -0.00005
 C294 C 0.54957 0.25038 -0.04915
 C295 C 0.52215 0.25039 -0.05777
 C296 C 0.51391 0.25039 -0.08452
 C297 C 0.48606 0.25041 -0.08450
 C298 C 0.47783 0.25042 -0.05776
 N299 N 0.50000 0.25042 -0.04178
 C300 C 0.45042 0.25045 -0.04911
 H301 H 0.39690 0.25045 -0.02654
 H302 H 0.39687 0.25047 0.02649
 H303 H 0.50000 0.25043 -0.02114
 H304 H 0.47334 0.25048 0.10223
 H305 H 0.52662 0.25047 0.10222
 H306 H 0.60306 0.25042 0.02648
 H307 H 0.60308 0.25039 -0.02655
 H308 H 0.47334 0.25040 -0.10226
 H309 H 0.49997 0.25043 0.02110
 H310 H 0.52661 0.25038 -0.10228
 C311 C 0.58572 0.74952 -0.01341
 C312 C 0.58573 0.74952 0.01425
 C313 C 0.55884 0.74952 0.02234
 N314 N 0.54259 0.74952 0.00043
 C315 C 0.55882 0.74952 -0.02148
 C316 C 0.55005 0.74951 0.04954
 C317 C 0.52263 0.74950 0.05817
 C318 C 0.51439 0.74949 0.08491
 C319 C 0.48653 0.74947 0.08490
 C320 C 0.47831 0.74948 0.05815
 N321 N 0.50047 0.74950 0.04217
 C322 C 0.45090 0.74947 0.04950
 C323 C 0.44207 0.74947 0.02230
 C324 C 0.41518 0.74946 0.01424
 C325 C 0.41516 0.74946 -0.01342
 C326 C 0.44204 0.74948 -0.02151
 N327 N 0.45830 0.74949 0.00039
 C328 C 0.45083 0.74949 -0.04872
 C329 C 0.47826 0.74950 -0.05735
 C330 C 0.48650 0.74950 -0.08409
 C331 C 0.51436 0.74952 -0.08408
 C332 C 0.52259 0.74952 -0.05733
 N333 N 0.50042 0.74950 -0.04135
 C334 C 0.55001 0.74952 -0.04868
 H335 H 0.60353 0.74953 -0.02610
 H336 H 0.60355 0.74952 0.02693
 H337 H 0.50043 0.74949 -0.02071
 H338 H 0.52709 0.74948 0.10268
 H339 H 0.47382 0.74946 0.10266
 H340 H 0.39737 0.74945 0.02693
 H341 H 0.39733 0.74945 -0.02609
 H342 H 0.52707 0.74952 -0.10183
 H343 H 0.50046 0.74950 0.02154
 H344 H 0.47379 0.74950 -0.10185
 C345 C -0.01421 0.41529 0.24933
 C346 C 0.01357 0.41526 0.24935
 C347 C 0.02169 0.44209 0.24934
 N348 N -0.00029 0.45834 0.24931
 C349 C -0.02230 0.44215 0.24931
 C350 C 0.04900 0.45087 0.24934
 C351 C 0.05765 0.47823 0.24934
 C352 C 0.08452 0.48646 0.24935
 C353 C 0.08448 0.51427 0.24934
 C354 C 0.05758 0.52245 0.24931
 N355 N 0.04155 0.50032 0.24931
 C356 C 0.04884 0.54979 0.24929
 C357 C 0.02152 0.55863 0.24926
 C358 C 0.01346 0.58549 0.24922
 C359 C -0.01434 0.58556 0.24919
 C360 C -0.02251 0.55873 0.24920
 N361 N -0.00052 0.54247 0.24925
 C362 C -0.04985 0.54997 0.24917
 C363 C -0.05846 0.52258 0.24920
 C364 C -0.08532 0.51431 0.24918
 C365 C -0.08525 0.48650 0.24921
 C366 C -0.05835 0.47833 0.24925
 N367 N -0.04234 0.50048 0.24925
 C368 C -0.04961 0.45099 0.24928
 H369 H -0.02697 0.39751 0.24934
 H370 H 0.02631 0.39745 0.24937
 H371 H -0.02160 0.50047 0.24927
 H372 H 0.10238 0.47379 0.24937
 H373 H 0.10231 0.52697 0.24934
 H374 H 0.02625 0.60325 0.24922
 H375 H -0.02706 0.60337 0.24915
 H376 H -0.10306 0.47376 0.24920
 H377 H 0.02081 0.50035 0.24929
 H378 H -0.10319 0.52696 0.24914
 C379 C -0.01398 0.58536 0.75063
 C380 C 0.01382 0.58540 0.75065
 C381 C 0.02197 0.55857 0.75063
 N382 N -0.00005 0.54233 0.75059
 C383 C -0.02209 0.55851 0.75060
 C384 C 0.04933 0.54982 0.75065
 C385 C 0.05795 0.52242 0.75062
 C386 C 0.08482 0.51414 0.75063
 C387 C 0.08475 0.48633 0.75061
 C388 C 0.05785 0.47816 0.75059
 N389 N 0.04183 0.50031 0.75059
 C390 C 0.04912 0.45080 0.75056
 C391 C 0.02179 0.44197 0.75054
 C392 C 0.01371 0.41510 0.75051
 C393 C -0.01408 0.41504 0.75049
 C394 C -0.02225 0.44187 0.75051
 N395 N -0.00026 0.45814 0.75053
 C396 C -0.04960 0.45062 0.75050
 C397 C -0.05823 0.47803 0.75052
 C398 C -0.08509 0.48629 0.75051
 C399 C -0.08505 0.51411 0.75053
 C400 C -0.05816 0.52231 0.75055
 N401 N -0.04213 0.50016 0.75054
 C402 C -0.04945 0.54970 0.75058
 H403 H -0.02674 0.60314 0.75065
 H404 H 0.02656 0.60319 0.75068
 H405 H -0.02138 0.50018 0.75056
 H406 H 0.10270 0.52678 0.75065
 H407 H 0.10257 0.47360 0.75061
 H408 H 0.02649 0.39733 0.75050
 H409 H -0.02679 0.39722 0.75047
 H410 H -0.10288 0.52681 0.75053
 H411 H 0.02109 0.50030 0.75059
 H412 H -0.10294 0.47362 0.75049
 C413 C 0.33780 0.25050 0.16174
 C414 C 0.35499 0.25061 0.14451
 C415 C 0.37515 0.25067 0.12437
 C416 C 0.39236 0.25065 0.10718
 C417 C 0.41249 0.25057 0.08704
 C418 C 0.42969 0.25050 0.06981
 C419 C 0.66274 0.74948 0.16218
 C420 C 0.64551 0.74937 0.14498
 C421 C 0.62532 0.74933 0.12486
 C422 C 0.60809 0.74935 0.10767
 C423 C 0.58794 0.74942 0.08751
 C424 C 0.57075 0.74947 0.07027
 C425 C 0.66218 0.25073 -0.16185
 C426 C 0.64496 0.25074 -0.14464
 C427 C 0.62480 0.25062 -0.12449
 C428 C 0.60760 0.25051 -0.10728
 C429 C 0.58747 0.25040 -0.08711
 C430 C 0.57027 0.25037 -0.06987
 C431 C 0.33818 0.74927 -0.16148
 C432 C 0.35534 0.74924 -0.14421
 C433 C 0.37547 0.74930 -0.12401
 C434 C 0.39269 0.74937 -0.10679
 C435 C 0.41287 0.74943 -0.08665
 C436 C 0.43010 0.74947 -0.06944
 C437 C 0.16182 0.33826 0.24932
 C438 C 0.14466 0.35554 0.24924
 C439 C 0.12454 0.37575 0.24924
 C440 C 0.10731 0.39296 0.24928
 C441 C 0.08710 0.41306 0.24931
 C442 C 0.06981 0.43022 0.24933
 C443 C 0.16293 0.66232 0.75082
 C444 C 0.14564 0.64508 0.75093
 C445 C 0.12532 0.62494 0.75096
 C446 C 0.10795 0.60777 0.75091
 C447 C 0.08759 0.58768 0.75081
 C448 C 0.07022 0.57051 0.75074
 C449 C -0.16321 0.66257 0.24880
 C450 C -0.14594 0.64533 0.24873
 C451 C -0.12567 0.62515 0.24877
 C452 C -0.10836 0.60796 0.24887
 C453 C -0.08806 0.58784 0.24899
 C454 C -0.07072 0.57066 0.24909
 C455 C -0.16270 0.33766 0.75053
 C456 C -0.14547 0.35497 0.75058
 C457 C -0.12523 0.37518 0.75056
 C458 C -0.10796 0.39243 0.75053
 C459 C -0.08773 0.41264 0.75050
 C460 C -0.07045 0.42989 0.75049
 C461 C 0.24992 0.16170 0.33827
 C462 C 0.24991 0.14453 0.35547
 C463 C 0.24990 0.12443 0.37563
 C464 C 0.24991 0.10727 0.39284
 C465 C 0.24992 0.08716 0.41297
 C466 C 0.24994 0.06995 0.43015
 C467 C 0.75007 0.16179 0.66169
 C468 C 0.75003 0.14457 0.64451
 C469 C 0.74998 0.12443 0.62436
 C470 C 0.74994 0.10725 0.60715
 C471 C 0.74991 0.08712 0.58701
 C472 C 0.74989 0.06990 0.56982
 C473 C 0.25015 -0.16183 0.66211
 C474 C 0.25018 -0.14466 0.64489
 C475 C 0.25018 -0.12456 0.62471
 C476 C 0.25018 -0.10740 0.60748
 C477 C 0.25015 -0.08730 0.58731
 C478 C 0.25013 -0.07009 0.57012
 C479 C 0.74943 -0.16187 0.33772
 C480 C 0.74949 -0.14466 0.35492
 C481 C 0.74955 -0.12455 0.37510
 C482 C 0.74959 -0.10741 0.39235
 C483 C 0.74965 -0.08735 0.41256
 C484 C 0.74969 -0.07017 0.42979
 C485 C 0.66246 0.74944 -0.16155
 C486 C 0.64532 0.74937 -0.14427
 C487 C 0.62521 0.74938 -0.12407
 C488 C 0.60803 0.74943 -0.10683
 C489 C 0.58791 0.74949 -0.08665
 C490 C 0.57071 0.74952 -0.06941
 C491 C 0.33788 0.25028 -0.16171
 C492 C 0.35504 0.25039 -0.14448
 C493 C 0.37517 0.25046 -0.12434
 C494 C 0.39241 0.25049 -0.10718
 C495 C 0.41256 0.25049 -0.08707
 C496 C 0.42974 0.25048 -0.06984
 C497 C 0.33816 0.74939 0.16198
 C498 C 0.35535 0.74928 0.14477
 C499 C 0.37555 0.74927 0.12466
 C500 C 0.39280 0.74931 0.10751
 C501 C 0.41297 0.74938 0.08740
 C502 C 0.43019 0.74943 0.07021
 C503 C 0.66202 0.25050 0.16172
 C504 C 0.64481 0.25061 0.14453
 C505 C 0.62467 0.25063 0.12439
 C506 C 0.60749 0.25057 0.10717
 C507 C 0.58741 0.25048 0.08700
 C508 C 0.57023 0.25043 0.06976
 C509 C -0.16260 0.66250 0.75062
 C510 C -0.14538 0.64520 0.75074
 C511 C -0.12516 0.62499 0.75075
 C512 C -0.10787 0.60777 0.75070
 C513 C -0.08761 0.58762 0.75065
 C514 C -0.07029 0.57041 0.75061
 C515 C -0.16207 0.33822 0.24924
 C516 C -0.14494 0.35551 0.24918
 C517 C -0.12488 0.37573 0.24919
 C518 C -0.10772 0.39299 0.24923
 C519 C -0.08760 0.41314 0.24927
 C520 C -0.07037 0.43033 0.24927
 C521 C 0.16192 0.33818 0.75057
 C522 C 0.14473 0.35543 0.75066
 C523 C 0.12456 0.37557 0.75069
 C524 C 0.10732 0.39277 0.75065
 C525 C 0.08715 0.41291 0.75057
 C526 C 0.06991 0.43012 0.75054
 C527 C 0.16205 0.66186 0.24929
 C528 C 0.14482 0.64466 0.24917
 C529 C 0.12459 0.62459 0.24916
 C530 C 0.10726 0.60749 0.24920
 C531 C 0.08697 0.58750 0.24925
 C532 C 0.06964 0.57040 0.24929
 C533 C 0.75003 -0.16185 0.66175
 C534 C 0.74997 -0.14468 0.64453
 C535 C 0.74992 -0.12459 0.62435
 C536 C 0.74989 -0.10745 0.60711
 C537 C 0.74987 -0.08736 0.58694
 C538 C 0.74985 -0.07016 0.56974
 C539 C 0.25008 -0.16171 0.33831
 C540 C 0.25006 -0.14455 0.35552
 C541 C 0.25004 -0.12448 0.37569
 C542 C 0.25003 -0.10734 0.39290
 C543 C 0.25002 -0.08725 0.41304
 C544 C 0.25002 -0.07005 0.43022
 C545 C 0.74983 0.16168 0.33813
 C546 C 0.74978 0.14453 0.35535
 C547 C 0.74978 0.12441 0.37548
 C548 C 0.74982 0.10720 0.39263
 C549 C 0.74986 0.08706 0.41273
 C550 C 0.74986 0.06986 0.42990
 C551 C 0.24999 0.16162 0.66194
 C552 C 0.24990 0.14438 0.64480
 C553 C 0.24989 0.12429 0.62465
 C554 C 0.24993 0.10718 0.60739
 C555 C 0.25000 0.08715 0.58720
 C556 C 0.25002 0.06995 0.57001
   
