data_POSCAR
  _audit_creation_date              2014-09-24
  _audit_creation_method            'ToBaCCo'
  _symmetry_space_group_name_H-M    'P1'
  _symmetry_Int_Tables_number       1
  _symmetry_cell_setting            triclinic
  loop_
  _symmetry_equiv_pos_as_xyz
 x,y,z
_cell_length_a 21.8559
_cell_length_b 21.8046
_cell_length_c 21.9236
_cell_angle_alpha 89.596100
_cell_angle_beta 89.941600
_cell_angle_gamma 89.392700
loop_
  _atom_site_label
  _atom_site_type_symbol
  _atom_site_fract_x
  _atom_site_fract_y
  _atom_site_fract_z
Si1 Si 0.00856 0.49734 0.25069
 Si2 Si 0.01178 0.50439 0.74829
 Si3 Si 0.24752 0.00383 0.50045
 Si4 Si 0.75479 -0.00221 0.50299
 Si5 Si 0.48625 0.25120 1.00444
 Si6 Si 0.48973 0.74691 0.99976
 B7 B 0.98979 1.06728 0.03878
 B8 B 1.03151 1.00427 0.06492
 B9 B 0.95320 1.00320 0.06875
 B10 B 0.92494 1.04002 0.00358
 B11 B 0.98764 1.06489 -0.03920
 B12 B 1.05314 1.04188 -0.00137
 B13 B 0.99028 0.93649 -0.03439
 B14 B 0.94913 0.99950 -0.05955
 B15 B 1.02799 1.00005 -0.06292
 B16 B 1.05543 0.96359 0.00153
 B17 B 0.99338 0.93847 0.04417
 B18 B 0.92666 0.96126 0.00612
 B19 B 0.57149 0.49797 0.45954
 B20 B 0.57579 0.49917 0.53732
 B21 B 0.55063 0.56384 0.49832
 B22 B 0.50722 0.54027 0.43735
 B23 B 0.50410 0.46169 0.43829
 B24 B 0.54646 0.43543 0.50030
 B25 B 0.44803 0.50388 0.54469
 B26 B 0.44314 0.50378 0.46583
 B27 B 0.46766 0.43849 0.50473
 B28 B 0.51108 0.46192 0.56654
 B29 B 0.51426 0.54123 0.56439
 B30 B 0.47167 0.56721 0.50191
 C31 C 0.99888 1.31205 0.15371
 C32 C 1.03556 1.31775 0.20532
 C33 C 1.04175 1.37487 0.23176
 C34 C 1.01315 1.42642 0.20549
 C35 C 0.97730 1.41902 0.15323
 N36 N 0.97106 1.36234 0.12859
 C37 C 0.99537 1.25283 0.12394
 N38 N 0.94316 1.21992 0.12472
 C39 C 0.94013 1.16370 0.09835
 C40 C 0.99141 1.13631 0.06987
 C41 C 1.04143 1.17621 0.06177
 C42 C 1.04511 1.23199 0.09092
 H43 H 1.06702 1.37815 0.27402
 H44 H 0.95269 1.45761 0.13345
 H45 H 0.89583 1.14664 0.09012
 H46 H 1.07486 1.17045 0.02746
 H47 H 1.05821 1.27807 0.22546
 H48 H 1.08507 1.26041 0.08462
 C49 C 1.00646 0.68590 0.15225
 C50 C 1.05671 0.64567 0.14537
 C51 C 1.05436 0.58686 0.17027
 C52 C 1.00301 0.56822 0.20326
 C53 C 0.95262 0.60832 0.20683
 N54 N 0.95575 0.66559 0.18205
 C55 C 1.00733 0.74989 0.12883
 N56 N 0.96513 0.79114 0.14903
 C57 C 0.96137 0.84970 0.12718
 C58 C 1.00099 0.87138 0.08090
 C59 C 1.04476 0.82786 0.06104
 C60 C 1.04836 0.76854 0.08401
 H61 H 1.09405 0.55716 0.16614
 H62 H 0.91143 0.59519 0.23053
 H63 H 0.92429 0.87721 0.14415
 H64 H 1.07227 0.83549 0.02238
 H65 H 1.09860 0.65952 0.12331
 H66 H 1.08069 0.73713 0.06334
 C67 C 0.99839 1.31299 -0.15681
 C68 C 0.99988 1.36610 -0.12063
 C69 C 1.00250 1.42385 -0.14843
 C70 C 1.00329 1.42882 -0.21201
 C71 C 1.00297 1.37474 -0.24646
 N72 N 1.00066 1.31898 -0.21850
 C73 C 0.99364 1.25105 -0.12915
 N74 N 1.01735 1.20096 -0.15777
 C75 C 1.01431 1.14326 -0.13326
 C76 C 0.98713 1.13245 -0.07561
 C77 C 0.95794 1.18430 -0.05000
 C78 C 0.96180 1.24256 -0.07503
 H79 H 1.00524 1.46414 -0.12016
 H80 H 1.00611 1.37649 -0.29556
 H81 H 1.03320 1.10667 -0.15949
 H82 H 0.92845 1.18081 -0.01157
 H83 H 1.00022 1.36313 -0.07133
 H84 H 0.93802 1.28013 -0.05293
 C85 C 0.99690 0.68631 -0.14299
 C86 C 0.95722 0.63789 -0.12854
 C87 C 0.96496 0.58118 -0.15707
 C88 C 1.01163 0.57263 -0.20013
 C89 C 1.05212 0.62101 -0.21079
 N90 N 1.04340 0.67590 -0.18301
 C91 C 0.98910 0.74892 -0.11779
 N92 N 1.01497 0.79708 -0.14740
 C93 C 1.01320 0.85530 -0.12541
 C94 C 0.98728 0.86855 -0.06791
 C95 C 0.95588 0.81935 -0.04029
 C96 C 0.95754 0.76018 -0.06367
 H97 H 0.93203 0.54538 -0.14853
 H98 H 1.08913 0.61665 -0.24305
 H99 H 1.03604 0.88910 -0.15167
 H100 H 0.93243 0.82451 0.00187
 H101 H 0.91882 0.64408 -0.09802
 H102 H 0.93619 0.72377 -0.03789
 C103 C 1.14161 1.00105 0.31525
 C104 C 1.11944 1.03818 0.36310
 C105 C 1.14908 1.03736 0.41982
 C106 C 1.19984 0.99893 0.42945
 C107 C 1.21938 0.96135 0.38116
 N108 N 1.19034 0.96333 0.32631
 C109 C 1.11513 1.00336 0.25256
 N110 N 1.12164 0.95448 0.21464
 C111 C 1.09880 0.95416 0.15664
 C112 C 1.06761 1.00598 0.13175
 C113 C 1.06110 1.05639 0.17179
 C114 C 1.08492 1.05565 0.23062
 H115 H 1.13314 1.06749 0.45565
 H116 H 1.25928 0.93203 0.38584
 H117 H 1.10397 0.91269 0.13069
 H118 H 1.03578 1.09664 0.16030
 H119 H 1.07993 1.06786 0.35705
 H120 H 1.07942 1.09617 0.25834
 C121 C 1.16103 0.99694 -0.30456
 C122 C 1.22414 1.00565 -0.31257
 C123 C 1.24851 1.00792 -0.37142
 C124 C 1.21069 1.00206 -0.42258
 C125 C 1.14805 0.99377 -0.41325
 N126 N 1.12516 0.99155 -0.35532
 C127 C 1.13146 0.99513 -0.24307
 N128 N 1.06969 0.99573 -0.24047
 C129 C 1.03777 0.99600 -0.18738
 C130 C 1.06676 0.99664 -0.12941
 C131 C 1.13151 0.99297 -0.13232
 C132 C 1.16364 0.99261 -0.18777
 H133 H 1.29728 1.01440 -0.37702
 H134 H 1.11751 0.98874 -0.45163
 H135 H 0.99026 0.99403 -0.19304
 H136 H 1.15906 0.99345 -0.09183
 H137 H 1.25478 1.01137 -0.27449
 H138 H 1.21299 0.99060 -0.18633
 C139 C 0.87211 1.02043 0.33026
 C140 C 0.84682 1.07304 0.35725
 C141 C 0.81740 1.06783 0.41341
 C142 C 0.81267 1.01041 0.44195
 C143 C 0.84506 0.96078 0.41703
 N144 N 0.87269 0.96662 0.36190
 C145 C 0.89263 1.02016 0.26640
 N146 N 0.93578 0.97934 0.24865
 C147 C 0.95292 0.97315 0.18953
 C148 C 0.92556 1.00725 0.14104
 C149 C 0.88045 1.04952 0.16140
 C150 C 0.86402 1.05616 0.22229
 H151 H 0.79606 1.10818 0.43278
 H152 H 0.84542 0.91639 0.43874
 H153 H 0.98931 0.94155 0.18209
 H154 H 0.85501 1.07872 0.13287
 H155 H 0.84773 1.11714 0.33431
 H156 H 0.82758 1.08798 0.23411
 C157 C 0.83430 0.98752 -0.30213
 C158 C 0.78688 0.94825 -0.31830
 C159 C 0.76439 0.95012 -0.37750
 C160 C 0.79026 0.98963 -0.42085
 C161 C 0.83763 1.02814 -0.40310
 N162 N 0.85803 1.02653 -0.34458
 C163 C 0.85721 0.98923 -0.23941
 N164 N 0.87296 1.04386 -0.21545
 C165 C 0.89687 1.04881 -0.15873
 C166 C 0.90949 0.99635 -0.12256
 C167 C 0.89029 0.93971 -0.14671
 C168 C 0.86439 0.93597 -0.20444
 H169 H 0.72557 0.92194 -0.38853
 H170 H 0.85720 1.06050 -0.43509
 H171 H 0.90942 1.09350 -0.14542
 H172 H 0.89279 0.89787 -0.12083
 H173 H 0.76581 0.91823 -0.28500
 H174 H 0.85159 0.89162 -0.22197
 C175 C 1.29867 1.15596 -0.01415
 C176 C 1.31722 1.19833 -0.05855
 C177 C 1.37512 1.22360 -0.05492
 C178 C 1.41508 1.20664 -0.00755
 C179 C 1.39575 1.16270 0.03491
 N180 N 1.33844 1.13929 0.03106
 C181 C 1.23570 1.13231 -0.01266
 N182 N 1.21186 1.11461 0.04158
 C183 C 1.15511 1.09063 0.04661
 C184 C 1.11874 1.07891 -0.00532
 C185 C 1.14064 1.10467 -0.06006
 C186 C 1.19906 1.12913 -0.06469
 H187 H 1.38673 1.25872 -0.08778
 H188 H 1.42466 1.14966 0.07297
 H189 H 1.13966 1.08116 0.09159
 H190 H 1.11496 1.10320 -0.10108
 H191 H 1.28656 1.21457 -0.09395
 H192 H 1.21539 1.14362 -0.10903
 C193 C 0.67229 1.14643 0.00609
 C194 C 0.61884 1.11320 0.01875
 C195 C 0.56214 1.14371 0.01935
 C196 C 0.55932 1.20698 0.00857
 C197 C 0.61373 1.23822 -0.00383
 N198 N 0.66795 1.20760 -0.00520
 C199 C 0.73340 1.11735 0.00438
 N200 N 0.77596 1.13873 -0.03529
 C201 C 0.83419 1.11621 -0.03732
 C202 C 0.85516 1.07133 0.00458
 C203 C 0.80901 1.04696 0.04298
 C204 C 0.74942 1.06978 0.04385
 H205 H 0.52098 1.11790 0.02768
 H206 H 0.61321 1.28685 -0.01393
 H207 H 0.86221 1.13345 -0.07281
 H208 H 0.81804 1.00831 0.07264
 H209 H 0.62065 1.06415 0.02665
 H210 H 0.71675 1.05075 0.07573
 C211 C 1.30514 0.85241 -0.00976
 C212 C 1.35925 0.88634 -0.00486
 C213 C 1.41562 0.85558 -0.00270
 C214 C 1.41736 0.79155 -0.00463
 C215 C 1.36237 0.75944 -0.00895
 N216 N 1.30826 0.79024 -0.01200
 C217 C 1.24468 0.88225 -0.00866
 N218 N 1.19975 0.86304 -0.04640
 C219 C 1.14205 0.88700 -0.04444
 C220 C 1.12472 0.93148 -0.00079
 C221 C 1.17230 0.95046 0.03788
 C222 C 1.23140 0.92706 0.03404
 H223 H 1.45737 0.88152 0.00110
 H224 H 1.36247 0.70981 -0.01030
 H225 H 1.11044 0.87069 -0.07692
 H226 H 1.16565 0.98345 0.07232
 H227 H 1.35780 0.93595 -0.00285
 H228 H 1.26590 0.94257 0.06570
 C229 C 0.67537 0.84883 -0.00131
 C230 C 0.63438 0.85630 -0.05047
 C231 C 0.57705 0.82883 -0.04807
 C232 C 0.56049 0.79351 0.00258
 C233 C 0.60201 0.78756 0.05104
 N234 N 0.65767 0.81478 0.04783
 C235 C 0.73770 0.87560 -0.00195
 N236 N 0.78077 0.85466 0.03784
 C237 C 0.83833 0.87805 0.04075
 C238 C 0.85798 0.92599 0.00194
 C239 C 0.81165 0.94750 -0.03881
 C240 C 0.75324 0.92330 -0.04110
 H241 H 0.54657 0.83321 -0.08682
 H242 H 0.59128 0.75992 0.09066
 H243 H 0.86754 0.85702 0.07250
 H244 H 0.81656 0.98788 -0.06621
 H245 H 0.64660 0.88108 -0.09145
 H246 H 0.72022 0.94461 -0.07141
 C247 C 0.82359 0.47840 0.35404
 C248 C 0.84783 0.42800 0.32253
 C249 C 0.90530 0.43232 0.29564
 C250 C 0.93934 0.48640 0.29999
 C251 C 0.91588 0.53382 0.33601
 N252 N 0.85902 0.52909 0.36092
 C253 C 0.76027 0.47963 0.37865
 N254 N 0.74343 0.52812 0.41306
 C255 C 0.68652 0.53492 0.43657
 C256 C 0.63937 0.49232 0.42533
 C257 C 0.65848 0.43933 0.39352
 C258 C 0.71726 0.43344 0.36886
 H259 H 0.92147 0.39341 0.26989
 H260 H 0.94087 0.57602 0.34123
 H261 H 0.68206 0.56966 0.47023
 H262 H 0.62842 0.40148 0.38711
 H263 H 0.82296 0.38591 0.31707
 H264 H 0.72792 0.39274 0.34306
 C265 C 0.19873 0.51626 0.34350
 C266 C 0.14622 0.54081 0.37239
 C267 C 0.08875 0.53407 0.34574
 C268 C 0.08358 0.50401 0.29014
 C269 C 0.13724 0.48345 0.26094
 N270 N 0.19259 0.48926 0.28824
 C271 C 0.25963 0.51600 0.37325
 N272 N 0.31200 0.50915 0.34006
 C273 C 0.36860 0.50550 0.36654
 C274 C 0.37580 0.50814 0.43069
 C275 C 0.32068 0.51433 0.46362
 C276 C 0.26401 0.51805 0.43624
 H277 H 0.04869 0.55266 0.36832
 H278 H 0.13529 0.46234 0.21650
 H279 H 0.40762 0.50141 0.33679
 H280 H 0.31799 0.51348 0.51143
 H281 H 0.14905 0.56523 0.41502
 H282 H 0.22397 0.51981 0.46525
 C283 C 0.83388 0.51227 0.63172
 C284 C 0.88290 0.47409 0.61319
 C285 C 0.93813 0.47488 0.64530
 C286 C 0.94497 0.51352 0.69539
 C287 C 0.89713 0.55477 0.70875
 N288 N 0.84344 0.55244 0.67779
 C289 C 0.77129 0.50878 0.60535
 N290 N 0.72871 0.55201 0.62031
 C291 C 0.66961 0.55024 0.60065
 C292 C 0.64731 0.50104 0.56559
 C293 C 0.69379 0.45979 0.54607
 C294 C 0.75377 0.46184 0.56665
 H295 H 0.97492 0.44442 0.63160
 H296 H 0.90075 0.58745 0.74507
 H297 H 0.64132 0.58832 0.61225
 H298 H 0.68649 0.42747 0.51057
 H299 H 0.87921 0.44308 0.57527
 H300 H 0.78544 0.42710 0.55087
 C301 C 0.20695 0.50113 0.66448
 C302 C 0.16349 0.54324 0.64151
 C303 C 0.10346 0.54198 0.66353
 C304 C 0.08746 0.49984 0.70908
 C305 C 0.13196 0.45754 0.72954
 N306 N 0.18972 0.45898 0.70683
 C307 C 0.27100 0.50205 0.64389
 N308 N 0.30093 0.44870 0.63164
 C309 C 0.35814 0.44777 0.60714
 C310 C 0.38786 0.50280 0.59033
 C311 C 0.36166 0.55636 0.61500
 C312 C 0.30262 0.55695 0.63889
 H313 H 0.07025 0.57525 0.64682
 H314 H 0.12192 0.42460 0.76510
 H315 H 0.38022 0.40397 0.60273
 H316 H 0.38390 0.59922 0.61248
 H317 H 0.17597 0.57674 0.60709
 H318 H 0.28178 0.59993 0.65280
 C319 C 0.48576 0.64955 0.18881
 C320 C 0.51016 0.61764 0.13855
 C321 C 0.50878 0.64470 0.08054
 C322 C 0.48321 0.70323 0.07282
 C323 C 0.45744 0.73264 0.12371
 N324 N 0.45930 0.70552 0.17969
 C325 C 0.49242 0.62545 0.25170
 N326 N 0.44749 0.63410 0.29389
 C327 C 0.45206 0.61172 0.35207
 C328 C 0.50400 0.57736 0.37127
 C329 C 0.55203 0.57368 0.32849
 C330 C 0.54638 0.59619 0.26946
 H331 H 0.52914 0.62074 0.04245
 H332 H 0.43766 0.77816 0.11950
 H333 H 0.41346 0.61855 0.38188
 H334 H 0.59551 0.55356 0.33941
 H335 H 0.53094 0.57267 0.14426
 H336 H 0.58459 0.59149 0.23828
 C337 C 0.51407 0.65245 0.81114
 C338 C 0.55613 0.63942 0.85834
 C339 C 0.54709 0.66493 0.91609
 C340 C 0.49640 0.70297 0.92709
 C341 C 0.45583 0.71508 0.87874
 N342 N 0.46554 0.68995 0.82309
 C343 C 0.52044 0.62755 0.74856
 N344 N 0.48761 0.65366 0.70222
 C345 C 0.48731 0.63068 0.64459
 C346 C 0.52005 0.57659 0.63029
 C347 C 0.55735 0.55218 0.67750
 C348 C 0.55724 0.57652 0.73590
 H349 H 0.58088 0.65679 0.95137
 H350 H 0.41756 0.74624 0.88380
 H351 H 0.46304 0.65611 0.60986
 H352 H 0.58392 0.51074 0.67105
 H353 H 0.59663 0.61165 0.85086
 H354 H 0.58355 0.55316 0.77086
 C355 C 0.47482 0.34815 0.19240
 C356 C 0.42272 0.31894 0.16969
 C357 C 0.42451 0.29333 0.11143
 C358 C 0.47785 0.29659 0.07589
 C359 C 0.52743 0.32917 0.09871
 N360 N 0.52485 0.35330 0.15560
 C361 C 0.47845 0.37396 0.25472
 N362 N 0.52658 0.41004 0.26732
 C363 C 0.53546 0.43573 0.32250
 C364 C 0.49512 0.42676 0.37175
 C365 C 0.44508 0.38835 0.35899
 C366 C 0.43647 0.36198 0.30151
 H367 H 0.38440 0.27010 0.09504
 H368 H 0.56902 0.33378 0.07252
 H369 H 0.57467 0.46275 0.32595
 H370 H 0.41010 0.38069 0.39154
 H371 H 0.38118 0.31532 0.19616
 H372 H 0.39735 0.33299 0.29454
 C373 C 0.50056 0.35355 0.81969
 C374 C 0.48942 0.38846 0.87260
 C375 C 0.48707 0.35913 0.92949
 C376 C 0.49631 0.29579 0.93316
 C377 C 0.50988 0.26314 0.88001
 N378 N 0.51138 0.29232 0.82536
 C379 C 0.50034 0.38034 0.75766
 N380 N 0.52666 0.34864 0.71148
 C381 C 0.52865 0.36989 0.65308
 C382 C 0.50468 0.42807 0.63623
 C383 C 0.47236 0.45755 0.68463
 C384 C 0.47063 0.43510 0.74396
 H385 H 0.47685 0.38542 0.97001
 H386 H 0.51745 0.21399 0.88158
 H387 H 0.54786 0.33889 0.62219
 H388 H 0.45044 0.50130 0.67986
 H389 H 0.48251 0.43759 0.87046
 H390 H 0.44593 0.46090 0.77819
 C391 C 0.66172 0.81029 0.47964
 C392 C 0.62691 0.86334 0.46751
 C393 C 0.65464 0.92069 0.47193
 C394 C 0.71638 0.92407 0.48831
 C395 C 0.74928 0.86963 0.49944
 N396 N 0.72142 0.81477 0.49531
 C397 C 0.63392 0.75009 0.48233
 N398 N 0.61325 0.72890 0.53647
 C399 C 0.59135 0.67140 0.54361
 C400 C 0.58885 0.62959 0.49467
 C401 C 0.61360 0.65205 0.43912
 C402 C 0.63594 0.71126 0.43267
 H403 H 0.62776 0.96195 0.46407
 H404 H 0.79620 0.87052 0.51497
 H405 H 0.57714 0.66042 0.58809
 H406 H 0.61757 0.62428 0.40018
 H407 H 0.57878 0.86033 0.45632
 H408 H 0.65507 0.72629 0.38955
 C409 C 0.64908 0.18200 0.50554
 C410 C 0.66714 0.15467 0.56097
 C411 C 0.69405 0.09666 0.56087
 C412 C 0.70189 0.06518 0.50604
 C413 C 0.67677 0.09067 0.45269
 N414 N 0.65243 0.14841 0.45342
 C415 C 0.62828 0.24678 0.50246
 N416 N 0.59311 0.26631 0.45506
 C417 C 0.57080 0.32469 0.45090
 C418 C 0.58245 0.36856 0.49686
 C419 C 0.62056 0.34815 0.54459
 C420 C 0.64428 0.28892 0.54721
 H421 H 0.71067 0.07786 0.60358
 H422 H 0.68085 0.06682 0.40973
 H423 H 0.54121 0.33429 0.41343
 H424 H 0.62955 0.37686 0.58328
 H425 H 0.66205 0.17802 0.60405
 H426 H 0.67383 0.27660 0.58496
 C427 C 0.35333 0.81670 0.50105
 C428 C 0.38746 0.87102 0.50531
 C429 C 0.35717 0.92798 0.50663
 C430 C 0.29330 0.93079 0.50306
 C431 C 0.26097 0.87554 0.50187
 N432 N 0.29121 0.82083 0.50055
 C433 C 0.38263 0.75503 0.49747
 N434 N 0.34975 0.70435 0.51158
 C435 C 0.37401 0.64653 0.50963
 C436 C 0.43641 0.63572 0.49626
 C437 C 0.46619 0.68761 0.47175
 C438 C 0.44148 0.74665 0.47452
 H439 H 0.38372 0.96913 0.51117
 H440 H 0.21145 0.87591 0.50068
 H441 H 0.34349 0.61019 0.51865
 H442 H 0.50619 0.68348 0.44475
 H443 H 0.43685 0.86973 0.50841
 H444 H 0.46714 0.78448 0.45562
 C445 C 0.33897 0.19681 0.49609
 C446 C 0.37099 0.14635 0.47156
 C447 C 0.34387 0.08848 0.47097
 C448 C 0.28578 0.08043 0.49644
 C449 C 0.25426 0.13249 0.51808
 N450 N 0.28122 0.18857 0.51764
 C451 C 0.36873 0.25740 0.50189
 N452 N 0.33844 0.31057 0.48832
 C453 C 0.36595 0.36659 0.49124
 C454 C 0.42858 0.37253 0.50741
 C455 C 0.45625 0.31739 0.52760
 C456 C 0.42825 0.26072 0.52337
 H457 H 0.36818 0.05057 0.45031
 H458 H 0.20842 0.12840 0.53626
 H459 H 0.33888 0.40538 0.47888
 H460 H 0.50042 0.31561 0.54622
 H461 H 0.41652 0.15176 0.45286
 H462 H 0.45296 0.21977 0.53775
   
