data_POSCAR
  _audit_creation_date              2014-09-24
  _audit_creation_method            'ToBaCCo'
  _symmetry_space_group_name_H-M    'P1'
  _symmetry_Int_Tables_number       1
  _symmetry_cell_setting            triclinic
  loop_
  _symmetry_equiv_pos_as_xyz
 x,y,z
_cell_length_a 18.4684
_cell_length_b 18.0270
_cell_length_c 18.6812
_cell_angle_alpha 89.149100
_cell_angle_beta 87.489900
_cell_angle_gamma 92.065100
loop_
  _atom_site_label
  _atom_site_type_symbol
  _atom_site_fract_x
  _atom_site_fract_y
  _atom_site_fract_z
C1 C 0.48762 0.98774 -0.69529
 C2 C 0.42550 0.99901 -0.65075
 C3 C 0.43479 1.01098 -0.57760
 C4 C 0.50277 1.00290 -0.54707
 C5 C 0.56320 0.98821 -0.59293
 C6 C 0.55688 0.98434 -0.66754
 C7 C 0.51024 1.00777 -0.46752
 C8 C 0.57804 1.02511 -0.43850
 C9 C 0.58674 1.02409 -0.36435
 C10 C 0.52544 1.00986 -0.31812
 C11 C 0.45665 0.99609 -0.34529
 C12 C 0.45005 0.99250 -0.41971
 H13 H 0.48356 0.98532 -0.75275
 H14 H 0.38800 1.02508 -0.54441
 H15 H 0.61466 0.97806 -0.57042
 H16 H 0.62512 1.03927 -0.47308
 H17 H 0.53090 1.00758 -0.26071
 H18 H 0.39848 0.97475 -0.43981
 C19 C -0.67100 1.52328 -0.05089
 C20 C -0.64405 1.45190 -0.04528
 C21 C -0.57458 1.44376 -0.01880
 C22 C -0.53610 1.50470 0.00967
 C23 C -0.56782 1.57472 0.00871
 C24 C -0.63321 1.58563 -0.02463
 C25 C -0.46287 1.49600 0.03966
 C26 C -0.41308 1.55730 0.04033
 C27 C -0.34447 1.55062 0.06864
 C28 C -0.32397 1.48114 0.09255
 C29 C -0.36916 1.41782 0.08512
 C30 C -0.44007 1.42617 0.06361
 H31 H -0.72453 1.52822 -0.07104
 H32 H -0.55017 1.39049 -0.02131
 H33 H -0.54164 1.62168 0.03371
 H34 H -0.42619 1.60924 0.01563
 H35 H -0.27039 1.47562 0.11305
 H36 H -0.47546 1.37718 0.06267
 C37 C -0.06348 0.29083 0.50487
 C38 C -0.03003 0.31954 0.44102
 C39 C -0.00982 0.39664 0.43657
 C40 C -0.02386 0.44305 0.49619
 C41 C -0.05684 0.41043 0.55934
 C42 C -0.07347 0.33460 0.56456
 C43 C -0.00464 0.52496 0.49669
 C44 C 0.01365 0.55687 0.56252
 C45 C 0.00895 0.63305 0.57397
 C46 C -0.00059 0.67961 0.51434
 C47 C -0.00908 0.65101 0.44539
 C48 C -0.01350 0.57288 0.43703
 H49 H -0.07739 0.23189 0.51041
 H50 H 0.01621 0.42041 0.38812
 H51 H -0.06982 0.44360 0.60566
 H52 H 0.02518 0.52130 0.60758
 H53 H 0.00123 0.73923 0.52058
 H54 H -0.02670 0.54971 0.38594
 O55 O -0.18861 1.04258 -0.06451
 O56 O 0.17372 0.98777 -0.13420
 O57 O -0.00956 1.12487 -0.17856
 O58 O -0.03423 0.92719 -0.19440
 O59 O -0.03482 0.82658 -0.11631
 O60 O 0.02171 1.20425 -0.08835
 O61 O 0.07804 1.01113 -0.20556
 O62 O -0.11650 1.03855 -0.16837
 Zr63 Zr -0.01175 1.01851 -0.13026
 O64 O 0.04898 0.93691 -0.08648
 O65 O -0.05565 1.08614 -0.05345
 C66 C -0.17818 1.04703 -0.13341
 C67 C 0.14598 0.99822 -0.19584
 C68 C 0.00311 1.19036 -0.15299
 C69 C -0.03918 0.85687 -0.17978
 H70 H 0.10336 1.09996 -0.11227
 O71 O 0.07226 1.06892 -0.07841
 H72 H -0.11850 0.92940 -0.08772
 O73 O -0.07877 0.95366 -0.06180
 O74 O 0.19970 0.97107 0.05394
 O75 O -0.16344 1.01307 0.12299
 O76 O 0.13510 1.17784 -0.01304
 O77 O 0.06683 0.80397 -0.04051
 O78 O -0.12240 0.82932 0.00370
 O79 O -0.05659 1.20463 0.02052
 O80 O 0.04592 1.08802 0.18038
 O81 O 0.01038 0.88465 0.16948
 O82 O 0.05454 1.18403 0.09675
 O83 O -0.01563 0.80517 0.07718
 O84 O 0.20589 1.07668 -0.03179
 O85 O -0.15914 1.12785 0.03372
 O86 O -0.19359 0.92970 0.02557
 O87 O 0.16922 0.88118 -0.04877
 O88 O 0.12771 0.97694 0.15778
 O89 O -0.06691 0.99302 0.19422
 Zr90 Zr 0.12898 0.98750 -0.02932
 Zr91 Zr -0.11833 1.02077 0.01791
 Zr92 Zr 0.02846 1.13244 0.00116
 Zr93 Zr -0.01701 0.87566 -0.01465
 Zr94 Zr 0.02256 0.99130 0.11910
 O95 O -0.06065 0.93976 0.06580
 O96 O 0.09014 1.05531 0.05011
 C97 C 0.18964 0.97026 0.12294
 C98 C -0.13549 1.00056 0.18428
 C99 C 0.19692 1.14706 -0.02473
 C100 C 0.13571 0.81691 -0.05189
 C101 C -0.18376 0.85917 0.01988
 C102 C -0.12571 1.19253 0.03142
 C103 C 0.05636 1.15781 0.16130
 C104 C -0.00476 0.81915 0.14406
 H105 H -0.05934 1.10366 0.11122
 O106 O -0.03788 1.07189 0.07383
 H107 H 0.09498 0.88429 0.06368
 O108 O 0.06587 0.92285 0.04176
 C109 C 0.35486 1.00020 0.32285
 C110 C 0.33782 0.97441 0.25847
 C111 C 0.26499 0.97995 0.22978
 C112 C 0.25566 0.95960 0.16223
 H113 H 0.37785 0.94764 0.22490
 H114 H 0.22135 1.00388 0.26135
 H115 H 0.31138 1.02062 0.35727
 H116 H 0.30149 0.93878 0.13126
 C117 C -0.38343 0.97834 0.28337
 C118 C -0.31291 0.98408 0.29842
 C119 C -0.25798 0.98487 0.23870
 C120 C -0.18663 0.99478 0.24738
 H121 H -0.29521 0.99233 0.35219
 H122 H -0.27728 0.97892 0.18500
 H123 H -0.39564 0.97232 0.22736
 H124 H -0.16597 0.99850 0.30065
 C125 C -0.33866 1.03178 -0.33747
 C126 C -0.32481 1.05345 -0.27113
 C127 C -0.25185 1.04913 -0.24199
 C128 C -0.24400 1.06152 -0.17239
 H129 H -0.36861 1.07170 -0.23600
 H130 H -0.20676 1.03059 -0.27537
 H131 H -0.29373 1.01696 -0.37310
 H132 H -0.29094 1.07754 -0.14003
 C133 C 0.39380 0.98236 -0.29389
 C134 C 0.32412 0.99146 -0.30897
 C135 C 0.26746 0.98277 -0.25101
 C136 C 0.19751 0.99819 -0.25896
 H137 H 0.30924 1.00904 -0.36181
 H138 H 0.28494 0.96611 -0.19869
 H139 H 0.40611 0.96817 -0.23921
 H140 H 0.17915 1.01430 -0.31104
 C141 C 0.30935 1.39187 -0.06230
 C142 C 0.31940 1.32038 -0.04649
 C143 C 0.25781 1.26696 -0.05059
 C144 C 0.26220 1.19603 -0.03067
 H145 H 0.36853 1.30190 -0.02364
 H146 H 0.20607 1.28722 -0.06623
 H147 H 0.25753 1.40511 -0.08373
 H148 H 0.31395 1.17398 -0.01775
 C149 C 0.33927 0.65757 -0.02655
 C150 C 0.28193 0.67601 -0.06359
 C151 C 0.24741 0.74725 -0.05370
 C152 C 0.17794 0.75215 -0.06912
 H153 H 0.25643 0.63763 -0.09938
 H154 H 0.27593 0.79271 -0.02834
 H155 H 0.36525 0.70042 0.00467
 H156 H 0.14889 0.70410 -0.08954
 C157 C -0.28868 0.61168 0.06593
 C158 C -0.30131 0.68321 0.05375
 C159 C -0.23940 0.73632 0.04438
 C160 C -0.24750 0.80868 0.03248
 H161 H -0.35571 0.70250 0.04911
 H162 H -0.18528 0.71503 0.04608
 H163 H -0.23309 0.59625 0.07273
 H164 H -0.30122 0.83105 0.03298
 C165 C -0.33917 1.34283 0.08986
 C166 C -0.27111 1.33264 0.06554
 C167 C -0.23739 1.26021 0.06192
 C168 C -0.16731 1.25941 0.04113
 H169 H -0.23869 1.37994 0.04430
 H170 H -0.26860 1.20938 0.07497
 H171 H -0.37423 1.29560 0.10637
 H172 H -0.13760 1.31174 0.03031
 C173 C -0.01788 1.26689 0.38709
 C174 C 0.02348 1.27530 0.32683
 C175 C 0.02922 1.21076 0.27875
 C176 C 0.06657 1.21472 0.21618
 H177 H 0.05235 1.32724 0.31311
 H178 H -0.00256 1.16031 0.29237
 H179 H -0.04266 1.21185 0.39687
 H180 H 0.09507 1.26637 0.20022
 C181 C -0.09297 1.29707 -0.36644
 C182 C -0.05275 1.30830 -0.30960
 C183 C -0.05240 1.25107 -0.25290
 C184 C -0.00434 1.25408 -0.20155
 H185 H -0.01248 1.35363 -0.31006
 H186 H -0.08842 1.20247 -0.25641
 H187 H -0.12941 1.24852 -0.36700
 H188 H 0.02996 1.30343 -0.19541
 C189 C 0.01141 0.65958 -0.35512
 C190 C -0.01707 0.72373 -0.33434
 C191 C -0.01525 0.75081 -0.25987
 C192 C -0.05229 0.81089 -0.24260
 H193 H -0.04491 0.75713 -0.37231
 H194 H 0.02032 0.72637 -0.22214
 H195 H 0.03166 0.62371 -0.31397
 H196 H -0.08485 0.83565 -0.28293
 C197 C -0.01585 0.70708 0.38650
 C198 C -0.01012 0.69566 0.31571
 C199 C -0.00948 0.76071 0.26555
 C200 C -0.00836 0.75404 0.19415
 H201 H -0.00314 0.64047 0.29507
 H202 H -0.00930 0.81585 0.28798
 H203 H -0.02209 0.76398 0.40323
 H204 H -0.01053 0.69905 0.17148
   
