data_POSCAR
  _audit_creation_date              2014-09-24
  _audit_creation_method            'ToBaCCo'
  _symmetry_space_group_name_H-M    'P1'
  _symmetry_Int_Tables_number       1
  _symmetry_cell_setting            triclinic
  loop_
  _symmetry_equiv_pos_as_xyz
 x,y,z
_cell_length_a 40.6471
_cell_length_b 40.7033
_cell_length_c 22.9678
_cell_angle_alpha 89.847000
_cell_angle_beta 90.076900
_cell_angle_gamma 120.005800
loop_
  _atom_site_label
  _atom_site_type_symbol
  _atom_site_fract_x
  _atom_site_fract_y
  _atom_site_fract_z
O1 O 0.45485 0.96378 0.55566
 O2 O 0.49138 1.03771 0.44206
 O3 O 0.45439 0.96386 0.44221
 O4 O 0.49183 1.03762 0.55555
 O5 O 0.54624 1.03762 0.55492
 O6 O 0.50880 0.96386 0.44159
 O7 O 0.54578 1.03771 0.44144
 O8 O 0.50925 0.96378 0.55504
 Cu9 Cu 0.46762 1.00075 0.49893
 Cu10 Cu 0.53301 1.00075 0.49818
 C11 C 0.47591 0.95134 0.57458
 C12 C 0.52472 1.05014 0.42249
 C13 C 0.47529 0.95145 0.42272
 C14 C 0.52532 1.05001 0.57445
 O15 O 0.03696 0.49168 0.55934
 O16 O -0.03698 0.45404 0.44588
 O17 O 0.03695 0.49110 0.44587
 O18 O -0.03699 0.45462 0.55935
 O19 O -0.03712 0.50888 0.55823
 O20 O 0.03681 0.54537 0.44476
 O21 O -0.03711 0.50830 0.44476
 O22 O 0.03683 0.54594 0.55823
 Cu23 Cu 0.00000 0.46739 0.50274
 Cu24 Cu -0.00016 0.53260 0.50139
 C25 C 0.04934 0.52514 0.57801
 C26 C -0.04946 0.47485 0.42607
 C27 C 0.04930 0.52436 0.42607
 C28 C -0.04950 0.47561 0.57802
 O29 O 0.54620 0.50853 0.44452
 O30 O 0.50876 0.54490 0.55786
 O31 O 0.54577 0.50801 0.55800
 O32 O 0.50924 0.54545 0.44441
 O33 O 0.45483 0.49111 0.44379
 O34 O 0.49137 0.45367 0.55739
 O35 O 0.45436 0.49055 0.55723
 O36 O 0.49179 0.45419 0.44391
 Cu37 Cu 0.53298 0.53220 0.50126
 Cu38 Cu 0.46760 0.46689 0.50052
 C39 C 0.52528 0.47525 0.42499
 C40 C 0.47525 0.52384 0.57672
 C41 C 0.52471 0.47454 0.57696
 C42 C 0.47589 0.52458 0.42486
 O43 O 0.39025 0.65803 -0.04936
 O44 O 0.38864 0.72052 -0.06717
 C45 C 0.37054 0.73762 -0.07809
 O46 O 0.34147 0.73233 -0.04977
 O47 O 0.27887 0.66824 -0.06698
 C48 C 0.26173 0.63306 -0.07767
 O49 O 0.26706 0.60932 -0.04923
 O50 O 0.33123 0.61092 -0.06673
 C51 C 0.36645 0.62898 -0.07758
 O52 O 0.38874 0.66830 0.06649
 O53 O 0.39033 0.73239 0.04867
 C54 C 0.36657 0.73769 0.07695
 O55 O 0.33133 0.72057 0.06619
 O56 O 0.26715 0.65806 0.04899
 C57 C 0.26190 0.62904 0.07747
 O58 O 0.27900 0.61096 0.06667
 O59 O 0.34156 0.60937 0.04919
 C60 C 0.37065 0.63312 0.07745
 Cr61 Cr 0.38735 0.69374 -0.00034
 Cr62 Cr 0.30577 0.69373 -0.00039
 Cr63 Cr 0.30578 0.61227 -0.00004
 O64 O 0.33297 0.66658 -0.00026
 O65 O 0.61120 0.33175 -0.06706
 O66 O 0.60961 0.26765 -0.04954
 C67 C 0.63342 0.26242 -0.07783
 O68 O 0.66863 0.27950 -0.06690
 O69 O 0.73280 0.34196 -0.04928
 C70 C 0.73812 0.37104 -0.07765
 O71 O 0.72097 0.38909 -0.06690
 O72 O 0.65838 0.39065 -0.04957
 C73 C 0.62931 0.36694 -0.07792
 O74 O 0.60953 0.34178 0.04885
 O75 O 0.61110 0.27927 0.06638
 C76 C 0.62919 0.26215 0.07728
 O77 O 0.65829 0.26748 0.04900
 O78 O 0.72084 0.33154 0.06661
 C79 C 0.73794 0.36670 0.07747
 O80 O 0.73270 0.39050 0.04905
 O81 O 0.66853 0.38889 0.06637
 C82 C 0.63330 0.37078 0.07720
 Cr83 Cr 0.61249 0.30618 -0.00034
 Cr84 Cr 0.69407 0.30618 -0.00015
 Cr85 Cr 0.69408 0.38765 -0.00026
 O86 O 0.66688 0.33334 -0.00025
 C87 C 0.46183 0.92284 -0.38076
 C88 C 0.45009 0.89908 -0.34293
 C89 C 0.43620 0.87094 -0.29743
 C90 C 0.44196 0.88223 -0.23898
 C91 C 0.42851 0.85496 -0.19466
 C92 C 0.40925 0.81628 -0.20859
 C93 C 0.40348 0.80498 -0.26705
 C94 C 0.41693 0.83226 -0.31139
 C95 C 0.39546 0.78830 -0.16288
 C96 C 0.38402 0.76505 -0.12431
 H97 H 0.45682 0.91206 -0.22770
 H98 H 0.43313 0.86401 -0.14961
 H99 H 0.38862 0.77515 -0.27830
 H100 H 0.41233 0.82323 -0.35644
 C101 C 0.07631 0.53887 -0.37977
 C102 C 0.10009 0.55097 -0.34200
 C103 C 0.12825 0.56529 -0.29657
 C104 C 0.16697 0.58361 -0.31058
 C105 C 0.19427 0.59748 -0.26631
 C106 C 0.18294 0.59307 -0.20787
 C107 C 0.14422 0.57475 -0.19388
 C108 C 0.11693 0.56089 -0.23813
 C109 C 0.21096 0.60728 -0.16224
 C110 C 0.23424 0.61910 -0.12375
 H111 H 0.17603 0.58716 -0.35563
 H112 H 0.22414 0.61159 -0.27761
 H113 H 0.13515 0.57119 -0.14884
 H114 H 0.08707 0.54677 -0.22681
 C115 C 0.46078 0.53787 -0.37879
 C116 C 0.44869 0.54955 -0.34112
 C117 C 0.43435 0.56338 -0.29584
 C118 C 0.41682 0.58450 -0.31003
 C119 C 0.40291 0.59791 -0.26591
 C120 C 0.40648 0.59024 -0.20745
 C121 C 0.42400 0.56912 -0.19330
 C122 C 0.43790 0.55571 -0.23739
 C123 C 0.39223 0.60402 -0.16197
 C124 C 0.38040 0.61547 -0.12358
 H125 H 0.41392 0.59059 -0.35509
 H126 H 0.38941 0.61423 -0.27733
 H127 H 0.42691 0.56302 -0.14824
 H128 H 0.45141 0.53941 -0.22594
 C129 C 0.53973 0.07838 -0.38089
 C130 C 0.55173 0.10201 -0.34303
 C131 C 0.56593 0.12995 -0.29745
 C132 C 0.55896 0.11845 -0.23906
 C133 C 0.57275 0.14553 -0.19466
 C134 C 0.59356 0.18423 -0.20844
 C135 C 0.60053 0.19575 -0.26684
 C136 C 0.58674 0.16866 -0.31126
 C137 C 0.60773 0.21203 -0.16265
 C138 C 0.61951 0.23513 -0.12404
 H139 H 0.54291 0.08859 -0.22789
 H140 H 0.56719 0.13631 -0.14966
 H141 H 0.61660 0.22561 -0.27798
 H142 H 0.59229 0.17786 -0.35627
 C143 C 0.92353 0.46231 -0.37977
 C144 C 0.89975 0.45058 -0.34199
 C145 C 0.87160 0.43671 -0.29656
 C146 C 0.83288 0.41868 -0.31060
 C147 C 0.80558 0.40524 -0.26633
 C148 C 0.81690 0.40979 -0.20786
 C149 C 0.85561 0.42782 -0.19385
 C150 C 0.88289 0.44125 -0.23810
 C151 C 0.78888 0.39602 -0.16223
 C152 C 0.76560 0.38457 -0.12374
 H153 H 0.82384 0.41502 -0.35567
 H154 H 0.77572 0.39135 -0.27765
 H155 H 0.86467 0.43149 -0.14879
 H156 H 0.91275 0.45515 -0.22675
 C157 C 0.53803 0.46090 -0.38075
 C158 C 0.54977 0.44887 -0.34289
 C159 C 0.56366 0.43464 -0.29735
 C160 C 0.58349 0.41576 -0.31125
 C161 C 0.59695 0.40195 -0.26687
 C162 C 0.59063 0.40696 -0.20843
 C163 C 0.57080 0.42584 -0.19457
 C164 C 0.55734 0.43965 -0.23893
 C165 C 0.60441 0.39276 -0.16269
 C166 C 0.61584 0.38093 -0.12411
 H167 H 0.58853 0.41173 -0.35628
 H168 H 0.61225 0.38739 -0.27807
 H169 H 0.56574 0.42987 -0.14954
 H170 H 0.54204 0.45420 -0.22769
 C171 C 0.92212 0.46038 0.38133
 C172 C 0.89847 0.44832 0.34338
 C173 C 0.87051 0.43405 0.29767
 C174 C 0.88199 0.43678 0.23952
 C175 C 0.85490 0.42299 0.19499
 C176 C 0.81620 0.40640 0.20841
 C177 C 0.80470 0.40364 0.26657
 C178 C 0.83181 0.41744 0.31112
 C179 C 0.78839 0.39229 0.16249
 C180 C 0.76527 0.38055 0.12378
 H181 H 0.91184 0.44957 0.22863
 H182 H 0.86410 0.42527 0.15017
 H183 H 0.77485 0.39087 0.27743
 H184 H 0.82262 0.41519 0.35594
 C185 C 0.53802 0.07707 0.38018
 C186 C 0.54973 0.10081 0.34231
 C187 C 0.56359 0.12891 0.29675
 C188 C 0.58346 0.16760 0.31062
 C189 C 0.59688 0.19484 0.26622
 C190 C 0.59048 0.18349 0.20780
 C191 C 0.57062 0.14481 0.19396
 C192 C 0.55720 0.11758 0.23833
 C193 C 0.60425 0.21145 0.16204
 C194 C 0.61569 0.23469 0.12345
 H195 H 0.58856 0.17667 0.35564
 H196 H 0.61221 0.22469 0.27740
 H197 H 0.56551 0.13572 0.14893
 H198 H 0.54187 0.08774 0.22712
 C199 C 0.53968 0.46127 0.38032
 C200 C 0.55165 0.44961 0.34244
 C201 C 0.56581 0.43582 0.29685
 C202 C 0.55787 0.43936 0.23853
 C203 C 0.57162 0.42603 0.19411
 C204 C 0.59337 0.40909 0.20781
 C205 C 0.60131 0.40553 0.26613
 C206 C 0.58755 0.41887 0.31057
 C207 C 0.60754 0.39546 0.16200
 C208 C 0.61934 0.38414 0.12339
 H209 H 0.54109 0.45241 0.22743
 H210 H 0.56533 0.42893 0.14917
 H211 H 0.61810 0.39249 0.27720
 H212 H 0.59385 0.41600 0.35552
 C213 C 0.07771 0.53838 0.38132
 C214 C 0.10136 0.55004 0.34336
 C215 C 0.12932 0.56383 0.29765
 C216 C 0.16812 0.58372 0.31129
 C217 C 0.19522 0.59708 0.26674
 C218 C 0.18363 0.59058 0.20839
 C219 C 0.14483 0.57069 0.19477
 C220 C 0.11774 0.55734 0.23930
 C221 C 0.21144 0.60426 0.16247
 C222 C 0.23457 0.61563 0.12377
 H223 H 0.17738 0.58889 0.35626
 H224 H 0.22515 0.61243 0.27775
 H225 H 0.13556 0.56551 0.14980
 H226 H 0.08782 0.54199 0.22826
 C227 C 0.46084 0.92298 0.37821
 C228 C 0.44878 0.89923 0.34053
 C229 C 0.43449 0.87109 0.29524
 C230 C 0.41430 0.83242 0.30947
 C231 C 0.40042 0.80513 0.26534
 C232 C 0.40669 0.81642 0.20681
 C233 C 0.42689 0.85508 0.19259
 C234 C 0.44076 0.88236 0.23671
 C235 C 0.39243 0.78842 0.16131
 C236 C 0.38057 0.76515 0.12293
 H237 H 0.40929 0.82340 0.35459
 H238 H 0.38483 0.77531 0.27681
 H239 H 0.43189 0.86412 0.14748
 H240 H 0.45633 0.91217 0.22521
 C241 C 0.46182 0.53902 0.38019
 C242 C 0.45009 0.55106 0.34235
 C243 C 0.43622 0.56533 0.29683
 C244 C 0.43964 0.55753 0.23849
 C245 C 0.42623 0.57139 0.19415
 C246 C 0.40934 0.59312 0.20796
 C247 C 0.40591 0.60092 0.26631
 C248 C 0.41933 0.58705 0.31067
 C249 C 0.39560 0.60736 0.16223
 C250 C 0.38417 0.61919 0.12365
 H251 H 0.45266 0.54077 0.22730
 H252 H 0.42903 0.56519 0.14918
 H253 H 0.39290 0.61769 0.27747
 H254 H 0.41654 0.59325 0.35565
   
