data_POSCAR
  _audit_creation_date              2014-09-24
  _audit_creation_method            'ToBaCCo'
  _symmetry_space_group_name_H-M    'P1'
  _symmetry_Int_Tables_number       1
  _symmetry_cell_setting            triclinic
  loop_
  _symmetry_equiv_pos_as_xyz
 x,y,z
_cell_length_a 16.0135
_cell_length_b 15.9673
_cell_length_c 18.7013
_cell_angle_alpha 90.000000
_cell_angle_beta 90.000000
_cell_angle_gamma 89.899500
loop_
  _atom_site_label
  _atom_site_type_symbol
  _atom_site_fract_x
  _atom_site_fract_y
  _atom_site_fract_z
B1 B 0.29314 0.21980 0.32394
 B2 B 0.19157 0.19550 0.30099
 B3 B 0.22081 0.29682 0.32417
 B4 B 0.31548 0.31376 0.28891
 B5 B 0.34487 0.22381 0.24568
 B6 B 0.26901 0.15114 0.25480
 B7 B 0.19974 0.27976 0.17804
 B8 B 0.30403 0.30405 0.20003
 B9 B 0.27448 0.20310 0.17682
 B10 B 0.18042 0.18525 0.21285
 B11 B 0.15125 0.27466 0.25662
 B12 B 0.22740 0.34843 0.24674
 B13 B 0.72081 0.79682 0.17587
 B14 B 0.69157 0.69550 0.19905
 B15 B 0.79314 0.71980 0.17609
 B16 B 0.81548 0.81376 0.21113
 B17 B 0.72740 0.84843 0.25330
 B18 B 0.65125 0.77466 0.24341
 B19 B 0.77448 0.70310 0.32322
 B20 B 0.80403 0.80405 0.30001
 B21 B 0.69974 0.77976 0.32199
 B22 B 0.68042 0.68525 0.28718
 B23 B 0.76901 0.65114 0.24524
 B24 B 0.84487 0.72381 0.25436
 B25 B 0.71931 0.20574 -0.17943
 B26 B 0.69870 0.30832 -0.20418
 B27 B 0.79900 0.27613 -0.18178
 B28 B 0.81218 0.17942 -0.21403
 B29 B 0.72103 0.15142 -0.25620
 B30 B 0.65099 0.23092 -0.24855
 B31 B 0.78088 0.29047 -0.32787
 B32 B 0.80208 0.18781 -0.30240
 B33 B 0.70213 0.22007 -0.32645
 B34 B 0.68775 0.31662 -0.29320
 B35 B 0.77855 0.34448 -0.25198
 B36 B 0.84910 0.26513 -0.25934
 B37 B 0.29900 0.77613 -0.31818
 B38 B 0.19870 0.80832 -0.29579
 B39 B 0.21931 0.70574 -0.32053
 B40 B 0.31218 0.67942 -0.28594
 B41 B 0.34910 0.76513 -0.24062
 B42 B 0.27855 0.84448 -0.24798
 B43 B 0.20213 0.72007 -0.17352
 B44 B 0.30208 0.68781 -0.19756
 B45 B 0.28088 0.79047 -0.17209
 B46 B 0.18775 0.81662 -0.20676
 B47 B 0.15099 0.73092 -0.25142
 B48 B 0.22103 0.65142 -0.24377
 B49 B 1.22027 1.30138 0.67878
 B50 B 1.19249 1.19754 0.69982
 B51 B 1.29389 1.22380 0.67619
 B52 B 1.31546 1.31704 0.71304
 B53 B 1.22795 1.34903 0.75777
 B54 B 1.15174 1.27522 0.74786
 B55 B 1.27800 1.20378 0.82338
 B56 B 1.30603 1.30506 0.80132
 B57 B 1.20415 1.27916 0.82487
 B58 B 1.18337 1.18521 0.78879
 B59 B 1.27141 1.15304 0.74455
 B60 B 1.34660 1.22636 0.75381
 B61 B 0.79389 0.72380 0.82384
 B62 B 0.69249 0.69754 0.80022
 B63 B 0.72027 0.80138 0.82126
 B64 B 0.81546 0.81704 0.78699
 B65 B 0.84660 0.72636 0.74622
 B66 B 0.77141 0.65304 0.75549
 B67 B 0.70415 0.77916 0.67516
 B68 B 0.80603 0.80506 0.69871
 B69 B 0.77800 0.70378 0.67665
 B70 B 0.68337 0.68521 0.71124
 B71 B 0.65174 0.77522 0.75217
 B72 B 0.72795 0.84903 0.74226
 B73 B 1.20701 0.72011 0.17226
 B74 B 1.30837 0.69371 0.19679
 B75 B 1.28133 0.79508 0.17284
 B76 B 1.18631 0.81498 0.20689
 B77 B 1.15422 0.72598 0.24892
 B78 B 1.22956 0.65118 0.24104
 B79 B 1.29685 0.77832 0.31976
 B80 B 1.19538 0.80444 0.29608
 B81 B 1.22245 0.70246 0.31859
 B82 B 1.31754 0.68374 0.28528
 B83 B 1.34967 0.77310 0.24246
 B84 B 1.27432 0.84739 0.25042
 B85 B 0.79685 1.27832 0.18028
 B86 B 0.69538 1.30444 0.20395
 B87 B 0.72245 1.20246 0.18145
 B88 B 0.81754 1.18374 0.21475
 B89 B 0.84967 1.27310 0.25757
 B90 B 0.77432 1.34739 0.24961
 B91 B 0.70701 1.22011 0.32778
 B92 B 0.80837 1.19371 0.30325
 B93 B 0.78133 1.29508 0.32720
 B94 B 0.68631 1.31498 0.29315
 B95 B 0.65422 1.22598 0.25111
 B96 B 0.72956 1.15118 0.25899
 O97 O 0.59991 1.16167 0.12530
 O98 O 0.70640 1.08565 0.07452
 C99 C 0.67723 1.14475 0.11910
 O100 O 0.39483 0.82282 0.09049
 O101 O 0.29045 0.91585 0.07130
 C102 C 0.32111 0.84854 0.10438
 O103 O 0.60362 0.82583 0.10341
 O104 O 0.70522 0.91982 0.07458
 C105 C 0.67800 0.85215 0.10997
 O106 O 0.38968 1.17648 0.09784
 O107 O 0.28787 1.08238 0.07326
 C108 C 0.31593 1.14960 0.10842
 Zr109 Zr 0.49495 1.10190 0.08988
 O110 O 0.47499 1.08314 0.19964
 O111 O 0.50691 1.22872 0.12329
 Zr112 Zr 0.49966 0.89931 0.08669
 O113 O 0.50478 0.92808 0.19523
 O114 O 0.49662 0.79795 0.16052
 O115 O 0.57606 1.00192 0.10342
 O116 O 0.41983 0.99871 0.10285
 O117 O 0.39267 1.17809 -0.09960
 O118 O 0.28958 1.08510 -0.07187
 C119 C 0.31854 1.15138 -0.10820
 O120 O 0.60577 0.88858 -0.14719
 O121 O 0.70838 0.91607 -0.06721
 C122 C 0.67887 0.87356 -0.12345
 O123 O 0.40041 0.82255 -0.10014
 O124 O 0.29375 0.91173 -0.07109
 C125 C 0.32411 0.84513 -0.10645
 O126 O 0.59900 1.17921 -0.10848
 O127 O 0.70273 1.08789 -0.07438
 C128 C 0.67455 1.15369 -0.11253
 Zr129 Zr 0.49710 1.10439 -0.08616
 O130 O 0.50545 1.06428 -0.19180
 O131 O 0.48897 1.21603 -0.14579
 Zr132 Zr 0.49749 0.90619 -0.09039
 O133 O 0.46730 0.91432 -0.20005
 O134 O 0.51608 0.78525 -0.12653
 Zr135 Zr 0.63239 1.00338 0.00089
 Zr136 Zr 0.36292 1.00058 0.00035
 O137 O 0.41802 1.00529 -0.10226
 O138 O 0.57734 1.00631 -0.10205
 O139 O 0.41960 1.11905 0.00153
 O140 O 0.57345 0.88618 -0.00365
 O141 O 0.57109 1.11872 0.00290
 O142 O 0.42402 0.88288 -0.00149
 H143 H 0.38150 0.99585 0.14449
 H144 H 0.60980 0.83791 -0.01162
 H145 H 0.37949 1.00627 -0.14378
 H146 H 0.60863 1.16656 0.00631
 H147 H 0.49641 0.74176 0.13825
 H148 H 0.56414 0.76460 -0.09954
 H149 H 0.48762 0.86450 -0.22623
 H150 H 0.55881 1.08708 -0.20960
 H151 H 0.49647 1.20717 -0.19773
 H152 H 0.48896 1.23881 0.17332
 H153 H 0.50787 1.12493 0.22613
 H154 H 0.56297 0.91868 0.21068
 O155 O 1.09900 0.67921 0.60852
 O156 O 1.20273 0.58789 0.57442
 C157 C 1.17455 0.65369 0.61256
 O158 O 0.90041 0.32255 0.60017
 O159 O 0.79375 0.41173 0.57112
 C160 C 0.82411 0.34513 0.60649
 O161 O 1.10577 0.38858 0.64722
 O162 O 1.20838 0.41607 0.56725
 C163 C 1.17887 0.37356 0.62349
 O164 O 0.89267 0.67809 0.59963
 O165 O 0.78958 0.58510 0.57190
 C166 C 0.81854 0.65138 0.60824
 Zr167 Zr 0.99710 0.60439 0.58620
 O168 O 1.00545 0.56428 0.69183
 O169 O 0.98897 0.71603 0.64582
 Zr170 Zr 0.99749 0.40619 0.59043
 O171 O 0.96730 0.41432 0.70009
 O172 O 1.01608 0.28525 0.62656
 O173 O 1.07734 0.50631 0.60208
 O174 O 0.91802 0.50529 0.60229
 O175 O 0.88968 0.67648 0.40220
 O176 O 0.78787 0.58238 0.42678
 C177 C 0.81593 0.64960 0.39162
 O178 O 1.10362 0.32583 0.39663
 O179 O 1.20522 0.41982 0.42546
 C180 C 1.17800 0.35215 0.39006
 O181 O 0.89483 0.32282 0.40954
 O182 O 0.79045 0.41585 0.42874
 C183 C 0.82111 0.34854 0.39566
 O184 O 1.09991 0.66167 0.37474
 O185 O 1.20640 0.58565 0.42552
 C186 C 1.17723 0.64475 0.38094
 Zr187 Zr 0.99495 0.60190 0.41015
 O188 O 0.97499 0.58314 0.30039
 O189 O 1.00691 0.72872 0.37675
 Zr190 Zr 0.99966 0.39931 0.41334
 O191 O 1.00478 0.42808 0.30481
 O192 O 0.99662 0.29795 0.33952
 Zr193 Zr 1.13239 0.50338 0.49915
 Zr194 Zr 0.86292 0.50058 0.49969
 O195 O 0.91983 0.49871 0.39718
 O196 O 1.07606 0.50192 0.39661
 O197 O 0.91960 0.61905 0.49851
 O198 O 1.07345 0.38618 0.50369
 O199 O 1.07109 0.61872 0.49713
 O200 O 0.92402 0.38288 0.50152
 H201 H 0.87949 0.50627 0.64382
 H202 H 1.10980 0.33791 0.51166
 H203 H 0.88150 0.49585 0.35555
 H204 H 1.10863 0.66656 0.49373
 H205 H 1.06414 0.26460 0.59958
 H206 H 0.99641 0.24176 0.36178
 H207 H 1.06297 0.41868 0.28935
 H208 H 1.00787 0.62493 0.27390
 H209 H 0.98896 0.73881 0.32672
 H210 H 0.99647 0.70717 0.69777
 H211 H 1.05881 0.58708 0.70963
 H212 H 0.98762 0.36450 0.72626
 O213 O 0.83868 0.39804 -0.12448
 O214 O 0.91758 0.29211 -0.07579
 C215 C 0.85745 0.32086 -0.11962
 O216 O 1.17443 0.60800 -0.09010
 O217 O 1.08005 0.71104 -0.07173
 C218 C 1.14792 0.68119 -0.10457
 O219 O 1.17440 0.39751 -0.10270
 O220 O 1.08241 0.29422 -0.07391
 C221 C 1.14934 0.32239 -0.10920
 O222 O 0.82111 0.60803 -0.09635
 O223 O 0.91370 0.71145 -0.07267
 C224 C 0.84688 0.68240 -0.10744
 Zr225 Zr 0.89778 0.50349 -0.08980
 O226 O 0.91721 0.52299 -0.19956
 O227 O 0.77105 0.49655 -0.12300
 Zr228 Zr 1.09996 0.50165 -0.08642
 O229 O 1.07297 0.49706 -0.19530
 O230 O 1.20403 0.50482 -0.15680
 O231 O 0.99887 0.42357 -0.10355
 O232 O 0.99946 0.58032 -0.10271
 O233 O 0.81854 0.60412 0.09678
 O234 O 0.91059 0.70899 0.07165
 C235 C 0.84446 0.67878 0.10709
 O236 O 1.10964 0.39404 0.14729
 O237 O 1.08692 0.29157 0.06602
 C238 C 1.12754 0.32140 0.12293
 O239 O 1.17566 0.60192 0.09832
 O240 O 1.08462 0.70756 0.07139
 C241 C 1.15218 0.67788 0.10582
 O242 O 0.82322 0.39745 0.10914
 O243 O 0.91590 0.29492 0.07523
 C244 C 0.84985 0.32231 0.11346
 Zr245 Zr 0.89531 0.50052 0.08611
 O246 O 0.93581 0.49499 0.19174
 O247 O 0.78422 0.49917 0.14623
 Zr248 Zr 1.09282 0.50371 0.09061
 O249 O 1.08504 0.53483 0.20005
 O250 O 1.21371 0.48716 0.12674
 Zr251 Zr 0.99859 0.36677 -0.00103
 Zr252 Zr 0.99628 0.63718 -0.00018
 O253 O 0.99255 0.58182 0.10249
 O254 O 0.99451 0.42180 0.10182
 O255 O 0.87830 0.57791 -0.00128
 O256 O 1.11451 0.42826 0.00387
 O257 O 0.88344 0.42579 -0.00304
 O258 O 1.11416 0.57794 0.00170
 H259 H 1.00155 0.61886 -0.14431
 H260 H 1.16408 0.39396 0.01206
 H261 H 0.99093 0.62075 0.14382
 H262 H 0.83842 0.38500 -0.00581
 H263 H 1.25826 0.50315 -0.13159
 H264 H 1.23254 0.43539 0.10350
 H265 H 1.13367 0.51228 0.22635
 H266 H 0.91507 0.44081 0.20992
 H267 H 0.79427 0.50326 0.19822
 H268 H 0.76218 0.50846 -0.17448
 H269 H 0.87596 0.48963 -0.22610
 H270 H 1.08331 0.43894 -0.21097
 O271 O 0.32322 0.89745 0.39090
 O272 O 0.41590 0.79492 0.42480
 C273 C 0.34985 0.82231 0.38658
 O274 O 0.67566 1.10192 0.40171
 O275 O 0.58462 1.20756 0.42864
 C276 C 0.65218 1.17788 0.39421
 O277 O 0.60964 0.89404 0.35275
 O278 O 0.58692 0.79157 0.43401
 C279 C 0.62754 0.82140 0.37710
 O280 O 0.31854 1.10412 0.40325
 O281 O 0.41059 1.20899 0.42838
 C282 C 0.34446 1.17878 0.39294
 Zr283 Zr 0.39531 1.00052 0.41392
 O284 O 0.43581 0.99499 0.30830
 O285 O 0.28422 0.99917 0.35381
 Zr286 Zr 0.59282 1.00371 0.40942
 O287 O 0.58504 1.03483 0.29998
 O288 O 0.71371 0.98716 0.37330
 O289 O 0.49451 0.92180 0.39821
 O290 O 0.49255 1.08182 0.39754
 O291 O 0.32111 1.10803 0.59639
 O292 O 0.41370 1.21145 0.57270
 C293 C 0.34688 1.18240 0.60748
 O294 O 0.67440 0.89751 0.60274
 O295 O 0.58241 0.79422 0.57394
 C296 C 0.64934 0.82239 0.60924
 O297 O 0.67443 1.10800 0.59014
 O298 O 0.58005 1.21104 0.57176
 C299 C 0.64792 1.18119 0.60460
 O300 O 0.33868 0.89804 0.62451
 O301 O 0.41758 0.79211 0.57583
 C302 C 0.35745 0.82086 0.61965
 Zr303 Zr 0.39778 1.00349 0.58984
 O304 O 0.41721 1.02299 0.69959
 O305 O 0.27105 0.99655 0.62303
 Zr306 Zr 0.59996 1.00165 0.58646
 O307 O 0.57297 0.99706 0.69533
 O308 O 0.70403 1.00482 0.65683
 Zr309 Zr 0.49859 0.86677 0.50107
 Zr310 Zr 0.49628 1.13718 0.50022
 O311 O 0.49946 1.08032 0.60274
 O312 O 0.49887 0.92357 0.60358
 O313 O 0.37830 1.07791 0.50132
 O314 O 0.61451 0.92826 0.49617
 O315 O 0.38344 0.92579 0.50307
 O316 O 0.61416 1.07794 0.49834
 H317 H 0.49093 1.12075 0.35621
 H318 H 0.66408 0.89396 0.48797
 H319 H 0.50155 1.11886 0.64435
 H320 H 0.33842 0.88500 0.50585
 H321 H 0.73254 0.93539 0.39654
 H322 H 0.75826 1.00315 0.63163
 H323 H 0.58331 0.93894 0.71100
 H324 H 0.37596 0.98963 0.72614
 H325 H 0.26218 1.00846 0.67452
 H326 H 0.29427 1.00326 0.30181
 H327 H 0.41507 0.94081 0.29012
 H328 H 0.63367 1.01228 0.27369
 O329 O 1.16492 0.85838 0.59097
 O330 O 1.08814 0.92353 0.67905
 C331 C 1.14649 0.87073 0.65635
 O332 O 1.14945 1.15239 0.41178
 O333 O 1.07532 1.08571 0.32334
 C334 C 1.13163 1.14038 0.34678
 O335 O 1.15151 1.14915 0.58788
 O336 O 1.07887 1.08324 0.67729
 C337 C 1.13495 1.13770 0.65343
 O338 O 1.15030 0.84499 0.41024
 O339 O 1.08366 0.91907 0.32163
 C340 C 1.13764 0.86193 0.34454
 Zr341 Zr 1.11629 0.91092 0.50009
 O342 O 1.23337 0.96913 0.49395
 O343 O 1.17774 0.79306 0.50317
 Zr344 Zr 1.08742 1.11164 0.49908
 O345 O 1.20340 1.17688 0.50116
 O346 O 1.02808 1.22824 0.48459
 O347 O 1.11888 1.01280 0.56617
 O348 O 1.11608 1.01086 0.43439
 O349 O 0.85161 0.84526 0.41152
 O350 O 0.92422 0.91157 0.32238
 C351 C 0.86699 0.85805 0.34604
 O352 O 0.84356 1.14194 0.58864
 O353 O 0.91365 1.07179 0.67743
 C354 C 0.85736 1.12634 0.65355
 O355 O 0.85448 1.15035 0.41313
 O356 O 0.91856 1.07716 0.32306
 C357 C 0.86578 1.13443 0.34765
 O358 O 0.84309 0.86015 0.58810
 O359 O 0.92547 0.91191 0.67733
 C360 C 0.86471 0.86320 0.65320
 Zr361 Zr 0.91562 0.88241 0.50029
 O362 O 0.82117 0.78838 0.50090
 O363 O 0.96892 0.76340 0.50484
 Zr364 Zr 0.88697 1.08291 0.50103
 O365 O 0.76746 1.02871 0.50184
 O366 O 0.80385 1.18707 0.49979
 Zr367 Zr 1.00195 0.99749 0.61384
 Zr368 Zr 1.00094 0.99726 0.38667
 O369 O 0.88670 0.98326 0.43601
 O370 O 0.88468 0.98152 0.56692
 O371 O 1.01690 0.87968 0.43393
 O372 O 0.98722 1.11268 0.56501
 O373 O 1.01684 0.88225 0.56515
 O374 O 0.98535 1.11532 0.43435
 H375 H 1.16071 1.00926 0.39936
 H376 H 0.98582 1.15862 0.59834
 H377 H 0.84401 0.99024 0.40068
 H378 H 1.01907 0.83613 0.59884
 H379 H 0.97048 1.23240 0.50282
 H380 H 0.83402 1.24098 0.50373
 H381 H 0.76908 0.96743 0.50708
 H382 H 0.76320 0.81028 0.49881
 H383 H 1.02968 0.76563 0.49988
 H384 H 1.23918 0.79848 0.49823
 H385 H 1.23326 1.03043 0.50023
 H386 H 1.19593 1.23871 0.50111
 O387 O 0.64945 0.65239 0.08826
 O388 O 0.57532 0.58571 0.17670
 C389 C 0.63163 0.64038 0.15326
 O390 O 0.34356 0.64194 -0.08860
 O391 O 0.41365 0.57179 -0.17739
 C392 C 0.35736 0.62634 -0.15352
 O393 O 0.35448 0.65035 0.08690
 O394 O 0.41856 0.57716 0.17697
 C395 C 0.36578 0.63443 0.15238
 O396 O 0.65151 0.64915 -0.08785
 O397 O 0.57887 0.58324 -0.17726
 C398 C 0.63495 0.63770 -0.15340
 Zr399 Zr 0.58742 0.61164 0.00096
 O400 O 0.52808 0.72824 0.01545
 O401 O 0.70340 0.67688 -0.00113
 Zr402 Zr 0.38697 0.58291 -0.00100
 O403 O 0.30385 0.68707 0.00025
 O404 O 0.26746 0.52871 -0.00180
 O405 O 0.48535 0.61532 0.06568
 O406 O 0.48722 0.61268 -0.06497
 O407 O 0.66492 0.35838 -0.09094
 O408 O 0.58814 0.42353 -0.17902
 C409 C 0.64649 0.37073 -0.15632
 O410 O 0.35161 0.34526 0.08852
 O411 O 0.42422 0.41157 0.17765
 C412 C 0.36699 0.35805 0.15399
 O413 O 0.34309 0.36015 -0.08806
 O414 O 0.42547 0.41191 -0.17730
 C415 C 0.36471 0.36320 -0.15317
 O416 O 0.65030 0.34499 0.08979
 O417 O 0.58366 0.41907 0.17840
 C418 C 0.63764 0.36193 0.15550
 Zr419 Zr 0.61629 0.41092 -0.00006
 O420 O 0.67774 0.29306 -0.00314
 O421 O 0.73337 0.46913 0.00609
 Zr422 Zr 0.41562 0.38241 -0.00025
 O423 O 0.46892 0.26340 -0.00480
 O424 O 0.32117 0.28838 -0.00086
 Zr425 Zr 0.50094 0.49726 0.11337
 Zr426 Zr 0.50195 0.49749 -0.11381
 O427 O 0.51684 0.38225 -0.06512
 O428 O 0.51690 0.37968 0.06611
 O429 O 0.61888 0.51280 -0.06614
 O430 O 0.38670 0.48326 0.06403
 O431 O 0.61608 0.51086 0.06564
 O432 O 0.38468 0.48152 -0.06688
 H433 H 0.48582 0.65862 -0.09830
 H434 H 0.34401 0.49024 0.09936
 H435 H 0.51907 0.33613 -0.09880
 H436 H 0.66071 0.50926 0.10067
 H437 H 0.26908 0.46743 -0.00705
 H438 H 0.26320 0.31028 0.00122
 H439 H 0.52968 0.26563 0.00016
 H440 H 0.73918 0.29848 0.00181
 H441 H 0.73326 0.53043 -0.00020
 H442 H 0.69593 0.73871 -0.00108
 H443 H 0.47048 0.73240 -0.00279
 H444 H 0.33402 0.74098 -0.00369
   
