data_POSCAR
  _audit_creation_date              2014-09-24
  _audit_creation_method            'ToBaCCo'
  _symmetry_space_group_name_H-M    'P1'
  _symmetry_Int_Tables_number       1
  _symmetry_cell_setting            triclinic
  loop_
  _symmetry_equiv_pos_as_xyz
 x,y,z
_cell_length_a 23.0887
_cell_length_b 23.0958
_cell_length_c 23.1676
_cell_angle_alpha 89.671400
_cell_angle_beta 90.161900
_cell_angle_gamma 90.077700
loop_
  _atom_site_label
  _atom_site_type_symbol
  _atom_site_fract_x
  _atom_site_fract_y
  _atom_site_fract_z
C1 C 0.17775 0.36426 -0.02065
 C2 C 0.21033 0.36623 0.03006
 C3 C 0.26816 0.34874 0.02789
 C4 C 0.29443 0.33304 -0.02528
 C5 C 0.26412 0.34823 -0.07681
 C6 C 0.20624 0.36782 -0.07415
 C7 C 0.35459 0.30711 -0.02611
 C8 C 0.38127 0.28778 -0.07822
 C9 C 0.43764 0.26413 -0.07711
 C10 C 0.46772 0.26352 -0.02456
 C11 C 0.43842 0.26981 0.02743
 C12 C 0.38302 0.29336 0.02680
 H13 H 0.13219 0.37515 -0.01783
 H14 H 0.29273 0.35210 0.06730
 H15 H 0.28602 0.34889 -0.11796
 H16 H 0.35731 0.28646 -0.11832
 H17 H 0.51062 0.24436 -0.02310
 H18 H 0.36116 0.29474 0.06775
 C19 C 0.81959 0.63461 0.02256
 C20 C 0.79031 0.63275 0.07561
 C21 C 0.73231 0.65144 0.07677
 C22 C 0.70361 0.66789 0.02457
 C23 C 0.73090 0.65281 -0.02812
 C24 C 0.78829 0.63408 -0.02895
 C25 C 0.64461 0.69601 0.02437
 C26 C 0.61694 0.71150 -0.02883
 C27 C 0.56374 0.74026 -0.02895
 C28 C 0.53429 0.74531 0.02315
 C29 C 0.56342 0.74076 0.07565
 C30 C 0.61875 0.71572 0.07659
 H31 H 0.86493 0.62276 0.02069
 H32 H 0.70968 0.65030 0.11749
 H33 H 0.70747 0.65119 -0.06832
 H34 H 0.63834 0.70773 -0.06985
 H35 H 0.49171 0.76480 0.02273
 H36 H 0.64217 0.71551 0.11699
 C37 C 0.73625 0.46932 1.00309
 C38 C 0.72873 0.44108 0.95054
 C39 C 0.70501 0.38529 0.95070
 C40 C 0.69181 0.35654 1.00380
 C41 C 0.71218 0.38242 1.05565
 C42 C 0.73676 0.43783 1.05468
 C43 C 0.66491 0.29697 1.00516
 C44 C 0.64600 0.27140 1.05801
 C45 C 0.62645 0.21362 1.05966
 C46 C 0.63093 0.18106 1.00881
 C47 C 0.63211 0.20955 0.95552
 C48 C 0.65241 0.26657 0.95348
 H49 H 0.75577 0.51211 1.00275
 H50 H 0.70154 0.36411 0.90955
 H51 H 0.71408 0.35825 1.09568
 H52 H 0.64296 0.29682 1.09690
 H53 H 0.61887 0.13568 1.00913
 H54 H 0.65420 0.28724 0.91175
 C55 C 0.26402 0.52753 1.00010
 C56 C 0.26608 0.55709 0.94743
 C57 C 0.29141 0.61206 0.94550
 C58 C 0.31143 0.63925 0.99686
 C59 C 0.29757 0.61209 1.05055
 C60 C 0.27230 0.55694 1.05193
 C61 C 0.33901 0.69852 0.99389
 C62 C 0.35095 0.73124 1.04454
 C63 C 0.37387 0.78746 1.04042
 C64 C 0.37677 0.81319 0.98564
 C65 C 0.37602 0.77945 0.93551
 C66 C 0.35765 0.72186 0.93998
 H67 H 0.24283 0.48560 1.00136
 H68 H 0.28994 0.63503 0.90480
 H69 H 0.30204 0.63400 1.09122
 H70 H 0.34650 0.71276 1.08707
 H71 H 0.39044 0.85800 0.98267
 H72 H 0.35993 0.69556 0.90168
 C73 C -0.00267 0.26755 0.47559
 C74 C 0.04995 0.27525 0.44712
 C75 C 0.04972 0.30031 0.39195
 C76 C -0.00348 0.31482 0.36387
 C77 C -0.05564 0.29514 0.39005
 C78 C -0.05470 0.26912 0.44477
 C79 C -0.00465 0.34116 0.30407
 C80 C -0.05761 0.35954 0.27789
 C81 C -0.05911 0.37620 0.21932
 C82 C -0.00798 0.36958 0.18712
 C83 C 0.04547 0.36983 0.21540
 C84 C 0.04734 0.35249 0.27330
 H85 H -0.00232 0.24629 0.51752
 H86 H 0.09092 0.30351 0.37048
 H87 H -0.09595 0.29423 0.36628
 H88 H -0.09669 0.36381 0.30306
 H89 H -0.00809 0.37896 0.14121
 H90 H 0.08911 0.35179 0.29408
 C91 C 0.00037 0.73215 0.52536
 C92 C 0.05256 0.73113 0.55585
 C93 C 0.05386 0.70569 0.61070
 C94 C 0.00213 0.68498 0.63704
 C95 C -0.05140 0.69869 0.60928
 C96 C -0.05205 0.72401 0.55415
 C97 C 0.00447 0.65704 0.69610
 C98 C -0.04670 0.64442 0.72811
 C99 C -0.04308 0.62145 0.78429
 C100 C 0.01156 0.61891 0.81051
 C101 C 0.06230 0.62038 0.77750
 C102 C 0.05844 0.63884 0.72000
 H103 H -0.00033 0.75325 0.48338
 H104 H 0.09424 0.70765 0.63425
 H105 H -0.09246 0.69426 0.63081
 H106 H -0.08915 0.64861 0.70917
 H107 H 0.01416 0.60519 0.85524
 H108 H 0.09730 0.63710 0.69426
 C109 C 1.02104 0.82386 0.36326
 C110 C 0.97015 0.79142 0.36435
 C111 C 0.97252 0.73404 0.34593
 C112 C 1.02597 0.70814 0.32991
 C113 C 1.07762 0.73778 0.34624
 C114 C 1.07472 0.79514 0.36702
 C115 C 1.02655 0.64878 0.30262
 C116 C 1.07886 0.62106 0.28468
 C117 C 1.07698 0.56505 0.26050
 C118 C 1.02365 0.53627 0.25866
 C119 C 0.97207 0.56678 0.26340
 C120 C 0.97326 0.62211 0.28666
 H121 H 1.01789 0.86918 0.37482
 H122 H 0.93306 0.70926 0.34892
 H123 H 1.11888 0.71578 0.34669
 H124 H 1.11973 0.64389 0.28501
 H125 H 1.02177 0.49326 0.24007
 H126 H 0.93272 0.64515 0.28677
 C127 C 0.97905 0.17476 0.63873
 C128 C 0.92592 0.20416 0.63587
 C129 C 0.92423 0.26170 0.65577
 C130 C 0.97624 0.29023 0.67321
 C131 C 1.02937 0.26320 0.65859
 C132 C 1.03051 0.20634 0.63872
 C133 C 0.97586 0.34927 0.70096
 C134 C 1.02892 0.37763 0.71595
 C135 C 1.02842 0.43102 0.74402
 C136 C 0.97573 0.45976 0.74920
 C137 C 0.92335 0.43030 0.74449
 C138 C 0.92310 0.37480 0.72019
 H139 H 0.98124 0.12970 0.62611
 H140 H 0.88346 0.28452 0.65394
 H141 H 1.06966 0.28665 0.65759
 H142 H 1.07040 0.35683 0.71207
 H143 H 0.97561 0.50244 0.76813
 H144 H 0.88275 0.35111 0.71991
 C145 C 0.37288 0.02843 0.17914
 C146 C 0.36948 0.08118 0.20873
 C147 C 0.34749 0.08077 0.26514
 C148 C 0.32990 0.02777 0.29172
 C149 C 0.34588 -0.02475 0.26405
 C150 C 0.37022 -0.02438 0.20878
 C151 C 0.30035 0.02670 0.34983
 C152 C 0.28381 -0.02679 0.37614
 C153 C 0.25871 -0.02791 0.43085
 C154 C 0.25419 0.02366 0.46128
 C155 C 0.25828 0.07687 0.43289
 C156 C 0.28212 0.07872 0.37728
 H157 H 0.38845 0.02826 0.13508
 H158 H 0.34626 0.12135 0.28794
 H159 H 0.34399 -0.06581 0.28618
 H160 H 0.28555 -0.06740 0.35363
 H161 H 0.23505 0.02227 0.50384
 H162 H 0.28259 0.11991 0.35506
 C163 C 0.63439 -0.02192 0.82487
 C164 C 0.63348 0.02902 0.79234
 C165 C 0.65343 0.02713 0.73553
 C166 C 0.67015 -0.02612 0.71005
 C167 C 0.65346 -0.07793 0.73943
 C168 C 0.63194 -0.07550 0.79640
 C169 C 0.69858 -0.02655 0.65130
 C170 C 0.71591 -0.07902 0.62406
 C171 C 0.73964 -0.07774 0.56818
 C172 C 0.74393 -0.02470 0.53936
 C173 C 0.73994 0.02713 0.56944
 C174 C 0.71557 0.02651 0.62447
 H175 H 0.62196 -0.01910 0.86986
 H176 H 0.65137 0.06675 0.71082
 H177 H 0.65356 -0.11915 0.71767
 H178 H 0.71470 -0.12001 0.64664
 H179 H 0.76276 -0.02368 0.49662
 H180 H 0.71485 0.06717 0.64705
 C181 C 0.47226 1.00121 0.73659
 C182 C 0.44326 0.94823 0.73357
 C183 C 0.38872 0.94617 0.70731
 C184 C 0.36111 0.99775 0.68771
 C185 C 0.38751 1.05161 0.70265
 C186 C 0.44247 1.05311 0.72834
 C187 C 0.30218 0.99483 0.65931
 C188 C 0.26982 1.04588 0.64693
 C189 C 0.21411 1.04236 0.62292
 C190 C 0.18820 0.98781 0.61896
 C191 C 0.22146 0.93715 0.62072
 C192 C 0.27881 0.94092 0.64036
 H193 H 0.51395 1.00244 0.75822
 H194 H 0.36630 0.90513 0.70779
 H195 H 0.36520 1.09234 0.69859
 H196 H 0.28832 1.08838 0.65174
 H197 H 0.14367 0.98549 0.60426
 H198 H 0.30478 0.90213 0.63895
 C199 C 0.52903 1.00150 0.25649
 C200 C 0.55788 0.94958 0.26607
 C201 C 0.61240 0.95095 0.29246
 C202 C 0.63828 1.00487 0.30840
 C203 C 0.61136 1.05675 0.28788
 C204 C 0.55858 1.05418 0.25785
 C205 C 0.69648 1.00707 0.33836
 C206 C 0.72086 1.06063 0.35686
 C207 C 0.77814 1.06321 0.37703
 C208 C 0.81073 1.01202 0.37814
 C209 C 0.78380 0.95811 0.37450
 C210 C 0.72741 0.95552 0.35232
 H211 H 0.48681 0.99993 0.23604
 H212 H 0.63471 0.91022 0.29659
 H213 H 0.63358 1.09788 0.28911
 H214 H 0.69567 1.09995 0.35770
 H215 H 0.85525 1.01322 0.39297
 H216 H 0.70774 0.91334 0.34946
 O217 O 0.83386 0.89403 0.55056
 O218 O 0.93403 0.85148 0.43783
 O219 O 0.84999 0.92244 0.44365
 O220 O 0.91573 0.81786 0.54081
 O221 O 0.85867 0.74983 0.50581
 O222 O 0.79145 0.85775 0.40495
 O223 O 0.87258 0.78761 0.40211
 O224 O 0.76634 0.83854 0.51248
 Cu225 Cu 0.88859 0.87742 0.49696
 Cu226 Cu 0.81480 0.80050 0.45808
 C227 C 0.78136 0.87920 0.54641
 C228 C 0.92219 0.81207 0.40164
 C229 C 0.81033 0.90953 0.40774
 C230 C 0.90254 0.76503 0.53562
 O231 O 0.14703 0.07679 0.55792
 O232 O 0.08214 0.18127 0.46019
 O233 O 0.16420 0.10466 0.45115
 O234 O 0.06464 0.14812 0.56333
 O235 O 0.12760 0.20988 0.60020
 O236 O 0.23189 0.16100 0.48777
 O237 O 0.13899 0.24912 0.49580
 O238 O 0.20848 0.14016 0.59409
 Cu239 Cu 0.10925 0.12185 0.50420
 Cu240 Cu 0.18382 0.19831 0.54259
 C241 C 0.18838 0.08875 0.59230
 C242 C 0.09517 0.23407 0.46584
 C243 C 0.21665 0.11979 0.45467
 C244 C 0.07764 0.18617 0.60049
 O245 O 0.07671 0.82360 0.52334
 O246 O 0.17616 0.93567 0.47682
 O247 O 0.10290 0.86672 0.42882
 O248 O 0.14427 0.88835 0.57722
 O249 O 0.22998 0.85426 0.55745
 O250 O 0.15881 0.78996 0.42552
 O251 O 0.23848 0.87005 0.44712
 O252 O 0.15040 0.76364 0.53428
 Cu253 Cu 0.11946 0.88647 0.50272
 Cu254 Cu 0.20265 0.81161 0.49212
 C255 C 0.09621 0.77429 0.53761
 C256 C 0.22332 0.92289 0.45198
 C257 C 0.11573 0.81876 0.40589
 C258 C 0.19789 0.88754 0.58723
 O259 O 0.85530 0.10975 0.42286
 O260 O 0.89597 0.13214 0.57138
 O261 O 0.82234 0.06344 0.52288
 O262 O 0.92123 0.17625 0.47635
 O263 O 0.84754 0.23626 0.46586
 O264 O 0.76001 0.12907 0.55244
 O265 O 0.84017 0.20905 0.57416
 O266 O 0.76976 0.14514 0.44160
 Cu267 Cu 0.87932 0.11275 0.49741
 Cu268 Cu 0.79603 0.18747 0.50763
 C269 C 0.80188 0.11169 0.41195
 C270 C 0.88272 0.17988 0.59438
 C271 C 0.77519 0.07623 0.54771
 C272 C 0.90167 0.22567 0.46240
 O273 O 0.47555 0.92255 0.82528
 O274 O 0.51620 0.81992 0.93663
 O275 O 0.57116 0.89375 0.86837
 O276 O 0.42051 0.85604 0.88644
 O277 O 0.44079 0.76998 0.85393
 O278 O 0.57396 0.84041 0.79034
 O279 O 0.55358 0.76206 0.87155
 O280 O 0.46612 0.84988 0.76447
 Cu281 Cu 0.49599 0.87881 0.88719
 Cu282 Cu 0.50762 0.79672 0.81250
 C283 C 0.46207 0.90386 0.77577
 C284 C 0.54413 0.77433 0.92437
 C285 C 0.59369 0.88265 0.81983
 C286 C 0.41007 0.80253 0.88598
 O287 O 0.56746 0.14220 0.09541
 O288 O 0.41625 0.12518 0.13072
 O289 O 0.47293 0.18139 0.06113
 O290 O 0.51284 0.08060 0.17434
 O291 O 0.54737 0.15150 0.22726
 O292 O 0.45968 0.24772 0.12807
 O293 O 0.43387 0.16430 0.21435
 O294 O 0.56738 0.22484 0.14178
 Cu295 Cu 0.49240 0.12347 0.11057
 Cu296 Cu 0.50067 0.20538 0.18602
 C297 C 0.58847 0.19236 0.10264
 C298 C 0.40416 0.12949 0.18346
 C299 C 0.45776 0.23200 0.07525
 C300 C 0.53939 0.09748 0.21933
 O301 O 0.56121 0.06567 0.85373
 O302 O 0.45708 0.17016 0.90472
 O303 O 0.45469 0.08877 0.82092
 O304 O 0.56020 0.14538 0.92249
 O305 O 0.59458 0.20693 0.85789
 O306 O 0.49254 0.14181 0.75126
 O307 O 0.48309 0.23319 0.83785
 O308 O 0.59379 0.12574 0.78675
 Cu309 Cu 0.50261 0.11181 0.87949
 Cu310 Cu 0.53992 0.18539 0.80156
 C311 C 0.59587 0.07685 0.81268
 C312 C 0.45620 0.22116 0.88453
 C313 C 0.46097 0.09969 0.76777
 C314 C 0.59547 0.18536 0.90866
 O315 O 0.43786 0.85613 0.07314
 O316 O 0.54059 0.91734 0.17376
 O317 O 0.54427 0.83534 0.09953
 O318 O 0.43596 0.93820 0.14493
 O319 O 0.40397 0.87938 0.21289
 O320 O 0.51212 0.76987 0.16135
 O321 O 0.50966 0.85953 0.24332
 O322 O 0.40547 0.79335 0.13723
 Cu323 Cu 0.49310 0.89189 0.11701
 Cu324 Cu 0.45612 0.81860 0.19631
 C325 C 0.40493 0.81391 0.08600
 C326 C 0.53862 0.90353 0.22655
 C327 C 0.54279 0.78369 0.11769
 C328 C 0.40270 0.92854 0.18742
 O329 O 0.82192 0.45945 0.91985
 O330 O 0.92344 0.55847 0.85370
 O331 O 0.85179 0.56333 0.93570
 O332 O 0.89662 0.45074 0.83778
 O333 O 0.83716 0.48291 0.77026
 O334 O 0.78570 0.59521 0.87435
 O335 O 0.85980 0.58980 0.78992
 O336 O 0.75305 0.48844 0.86018
 Cu337 Cu 0.87944 0.50454 0.89177
 Cu338 Cu 0.80081 0.53975 0.81678
 C339 C 0.76917 0.46120 0.90549
 C340 C 0.91097 0.59066 0.81077
 C341 C 0.81056 0.59751 0.92355
 C342 C 0.87999 0.45169 0.78580
 O343 O 0.09604 0.54332 0.16767
 O344 O 0.14624 0.43632 0.06648
 O345 O 0.07832 0.43892 0.14794
 O346 O 0.17943 0.54253 0.08670
 O347 O 0.24971 0.50824 0.14156
 O348 O 0.14373 0.40647 0.20966
 O349 O 0.21489 0.40669 0.12621
 O350 O 0.16274 0.51884 0.23148
 Cu351 Cu 0.12079 0.49544 0.11153
 Cu352 Cu 0.19951 0.46085 0.18544
 C353 C 0.11600 0.54552 0.21852
 C354 C 0.18864 0.40319 0.07771
 C355 C 0.09251 0.40509 0.18903
 C356 C 0.23277 0.53805 0.09835
 O357 O 0.86804 0.57808 0.11101
 O358 O 0.90567 0.43053 0.14440
 O359 O 0.82647 0.47724 0.07969
 O360 O 0.93754 0.52874 0.17709
 O361 O 0.87111 0.54571 0.24318
 O362 O 0.76845 0.45750 0.15265
 O363 O 0.85812 0.43628 0.22604
 O364 O 0.78752 0.56896 0.15992
 Cu365 Cu 0.88922 0.50325 0.12045
 Cu366 Cu 0.81372 0.50282 0.20334
 C367 C 0.81686 0.59442 0.12054
 C368 C 0.89782 0.41296 0.19558
 C369 C 0.77883 0.45754 0.09866
 C370 C 0.92379 0.54683 0.22670
 O371 O 0.17402 0.52471 0.92266
 O372 O 0.06283 0.48033 0.82201
 O373 O 0.13310 0.42802 0.89595
 O374 O 0.11163 0.57756 0.85488
 O375 O 0.14489 0.55642 0.76948
 O376 O 0.21067 0.42520 0.84143
 O377 O 0.12834 0.44337 0.76426
 O378 O 0.23492 0.53322 0.84979
 Cu379 Cu 0.11238 0.50258 0.87960
 Cu380 Cu 0.18722 0.49066 0.79737
 C381 C 0.22361 0.53805 0.90358
 C382 C 0.07526 0.45195 0.77698
 C383 C 0.18183 0.40571 0.88426
 C384 C 0.11218 0.58716 0.80131
   
