data_POSCAR
  _audit_creation_date              2014-09-24
  _audit_creation_method            'ToBaCCo'
  _symmetry_space_group_name_H-M    'P1'
  _symmetry_Int_Tables_number       1
  _symmetry_cell_setting            triclinic
  loop_
  _symmetry_equiv_pos_as_xyz
 x,y,z
_cell_length_a 52.9740
_cell_length_b 52.9059
_cell_length_c 31.6455
_cell_angle_alpha 89.997400
_cell_angle_beta 89.893400
_cell_angle_gamma 90.004500
loop_
  _atom_site_label
  _atom_site_type_symbol
  _atom_site_fract_x
  _atom_site_fract_y
  _atom_site_fract_z
C1 C -0.00073 0.26569 -0.02033
 C2 C -0.00030 0.26569 0.02277
 C3 C -0.02391 0.26669 0.04812
 C4 C 0.02376 0.26404 0.04667
 C5 C 0.02289 0.26667 -0.04568
 C6 C -0.02479 0.26407 -0.04425
 C7 C -0.04172 0.28603 0.04193
 C8 C -0.06443 0.28601 0.06453
 C9 C -0.06943 0.26680 0.09391
 C10 C -0.05141 0.24789 0.10106
 C11 C -0.02874 0.24791 0.07842
 C12 C 0.02961 0.28247 0.07703
 C13 C 0.05244 0.28139 0.09907
 C14 C 0.06953 0.26175 0.09123
 C15 C 0.06358 0.24302 0.06161
 C16 C 0.04076 0.24407 0.03959
 C17 C 0.02769 0.24788 -0.07598
 C18 C 0.05035 0.24786 -0.09863
 C19 C 0.06835 0.26675 -0.09150
 C20 C 0.06341 0.28594 -0.06215
 C21 C 0.04072 0.28600 -0.03950
 C22 C -0.04181 0.24413 -0.03719
 C23 C -0.06459 0.24307 -0.05934
 C24 C -0.07046 0.26176 -0.08908
 C25 C -0.05334 0.28138 -0.09687
 C26 C -0.03057 0.28248 -0.07470
 H27 H -0.03814 0.30094 0.01924
 H28 H -0.07811 0.30084 0.05870
 H29 H -0.05494 0.23291 0.12371
 H30 H -0.01520 0.23291 0.08378
 H31 H 0.01667 0.29790 0.08314
 H32 H 0.05682 0.29593 0.12202
 H33 H 0.03636 0.22939 0.01691
 H34 H 0.01414 0.23288 -0.08133
 H35 H 0.05398 0.23294 -0.12130
 H36 H 0.07718 0.30069 -0.05650
 H37 H 0.03717 0.30091 -0.01681
 H38 H -0.03747 0.22947 -0.01445
 H39 H -0.07763 0.22771 -0.05323
 H40 H -0.05766 0.29589 -0.11991
 H41 H -0.01760 0.29789 -0.08080
 H42 H 0.07661 0.22766 0.05546
 C43 C 0.49958 0.76770 0.47899
 C44 C 0.50018 0.76772 0.52209
 C45 C 0.47666 0.76874 0.54766
 C46 C 0.52432 0.76603 0.54575
 C47 C 0.52310 0.76871 0.45341
 C48 C 0.47544 0.76601 0.45533
 C49 C 0.45883 0.78808 0.54159
 C50 C 0.43620 0.78804 0.56438
 C51 C 0.43131 0.76885 0.59376
 C52 C 0.44932 0.74996 0.60081
 C53 C 0.47192 0.74996 0.57801
 C54 C 0.53025 0.78440 0.57619
 C55 C 0.55309 0.78321 0.59817
 C56 C 0.57012 0.76354 0.59019
 C57 C 0.56410 0.74489 0.56046
 C58 C 0.54126 0.74604 0.53850
 C59 C 0.52781 0.74992 0.42306
 C60 C 0.55039 0.74993 0.40021
 C61 C 0.56840 0.76882 0.40720
 C62 C 0.56355 0.78801 0.43659
 C63 C 0.54093 0.78805 0.45944
 C64 C 0.45850 0.74602 0.46261
 C65 C 0.43566 0.74485 0.44064
 C66 C 0.42965 0.76348 0.41087
 C67 C 0.44668 0.78316 0.40288
 C68 C 0.46951 0.78436 0.42487
 H69 H 0.46233 0.80298 0.51885
 H70 H 0.42242 0.80279 0.55879
 H71 H 0.44573 0.73504 0.62348
 H72 H 0.48547 0.73495 0.58327
 H73 H 0.51734 0.79984 0.58244
 H74 H 0.55752 0.79769 0.62121
 H75 H 0.53681 0.73141 0.51578
 H76 H 0.51425 0.73492 0.41783
 H77 H 0.55396 0.73501 0.37752
 H78 H 0.57733 0.80276 0.44215
 H79 H 0.53745 0.80295 0.48217
 H80 H 0.46295 0.73140 0.48535
 H81 H 0.42269 0.72946 0.44689
 H82 H 0.44226 0.79762 0.37981
 H83 H 0.48242 0.79980 0.41860
 H84 H 0.57708 0.72951 0.55421
 C85 C 1.00056 0.73336 -0.02224
 C86 C 1.00000 0.73332 0.02086
 C87 C 1.02353 0.73232 0.04626
 C88 C 0.97588 0.73496 0.04471
 C89 C 0.97703 0.73240 -0.04763
 C90 C 1.02469 0.73507 -0.04608
 C91 C 1.04140 0.71302 0.04006
 C92 C 1.06402 0.71307 0.06277
 C93 C 1.06884 0.73223 0.09220
 C94 C 1.05081 0.75109 0.09936
 C95 C 1.02822 0.75108 0.07664
 C96 C 0.96994 0.71652 0.07506
 C97 C 0.94710 0.71766 0.09717
 C98 C 0.93007 0.73735 0.08940
 C99 C 0.93609 0.75607 0.05976
 C100 C 0.95894 0.75497 0.03768
 C101 C 0.97229 0.75124 -0.07785
 C102 C 0.94967 0.75130 -0.10046
 C103 C 0.93164 0.73242 -0.09336
 C104 C 0.93652 0.71317 -0.06412
 C105 C 0.95918 0.71306 -0.04151
 C106 C 1.04161 0.75507 -0.03892
 C107 C 1.06447 0.75623 -0.06096
 C108 C 1.07053 0.73756 -0.09072
 C109 C 1.05348 0.71788 -0.09862
 C110 C 1.03063 0.71670 -0.07653
 H111 H 1.03794 0.69814 0.01730
 H112 H 1.07782 0.69835 0.05708
 H113 H 1.05435 0.76598 0.12209
 H114 H 1.01464 0.76605 0.08202
 H115 H 0.98285 0.70107 0.08113
 H116 H 0.94266 0.70313 0.12014
 H117 H 0.96340 0.76965 0.01501
 H118 H 0.98585 0.76624 -0.08315
 H119 H 0.94608 0.76627 -0.12304
 H120 H 0.92273 0.69843 -0.05849
 H121 H 0.96267 0.69812 -0.01888
 H122 H 1.03714 0.76970 -0.01617
 H123 H 1.07740 0.77165 -0.05469
 H124 H 1.05787 0.70336 -0.12165
 H125 H 1.01773 0.70126 -0.08270
 H126 H 0.92312 0.77146 0.05368
 C127 C 0.50048 0.23326 0.47752
 C128 C 0.49987 0.23320 0.52063
 C129 C 0.52337 0.23214 0.54609
 C130 C 0.47570 0.23480 0.54442
 C131 C 0.47697 0.23223 0.45205
 C132 C 0.52464 0.23499 0.45375
 C133 C 0.54120 0.21280 0.53988
 C134 C 0.56380 0.21277 0.56264
 C135 C 0.56865 0.23189 0.59213
 C136 C 0.55064 0.25078 0.59931
 C137 C 0.52808 0.25085 0.57654
 C138 C 0.46981 0.21639 0.57485
 C139 C 0.44696 0.21749 0.59695
 C140 C 0.42987 0.23713 0.58911
 C141 C 0.43585 0.25581 0.55939
 C142 C 0.45871 0.25475 0.53731
 C143 C 0.47222 0.25103 0.42178
 C144 C 0.44964 0.25100 0.39905
 C145 C 0.43167 0.23206 0.40610
 C146 C 0.43657 0.21285 0.43541
 C147 C 0.45918 0.21284 0.45812
 C148 C 0.54160 0.25494 0.46105
 C149 C 0.56448 0.25610 0.43906
 C150 C 0.57053 0.23749 0.40924
 C151 C 0.55347 0.21785 0.40120
 C152 C 0.53059 0.21666 0.42321
 H153 H 0.53773 0.19795 0.51706
 H154 H 0.57757 0.19802 0.55695
 H155 H 0.55420 0.26564 0.62209
 H156 H 0.51452 0.26584 0.58192
 H157 H 0.48275 0.20098 0.58100
 H158 H 0.44256 0.20299 0.61998
 H159 H 0.46313 0.26941 0.51459
 H160 H 0.48575 0.26607 0.41651
 H161 H 0.44604 0.26593 0.37642
 H162 H 0.42282 0.19806 0.44100
 H163 H 0.46269 0.19792 0.48080
 H164 H 0.53714 0.26954 0.48386
 H165 H 0.57748 0.27145 0.44536
 H166 H 0.55792 0.20340 0.37810
 H167 H 0.51768 0.20125 0.41693
 H168 H 0.42284 0.27117 0.55325
 C169 C 0.73385 -0.00052 -0.02249
 C170 C 0.73393 -0.00013 0.02062
 C171 C 0.73300 -0.02379 0.04588
 C172 C 0.73561 0.02394 0.04461
 C173 C 0.73282 0.02315 -0.04772
 C174 C 0.73549 -0.02458 -0.04651
 C175 C 0.71371 -0.04166 0.03975
 C176 C 0.71377 -0.06437 0.06238
 C177 C 0.73295 -0.06930 0.09168
 C178 C 0.75182 -0.05124 0.09874
 C179 C 0.75178 -0.02858 0.07608
 C180 C 0.71726 0.02977 0.07516
 C181 C 0.71840 0.05259 0.09735
 C182 C 0.73802 0.06969 0.08946
 C183 C 0.75667 0.06376 0.05965
 C184 C 0.75556 0.04094 0.03749
 C185 C 0.75152 0.02798 -0.07817
 C186 C 0.75149 0.05067 -0.10074
 C187 C 0.73263 0.06871 -0.09337
 C188 C 0.71352 0.06373 -0.06383
 C189 C 0.71353 0.04100 -0.04128
 C190 C 0.75547 -0.04156 -0.03968
 C191 C 0.75654 -0.06438 -0.06185
 C192 C 0.73780 -0.07035 -0.09140
 C193 C 0.71813 -0.05325 -0.09898
 C194 C 0.71704 -0.03043 -0.07677
 H195 H 0.69880 -0.03813 0.01713
 H196 H 0.69899 -0.07812 0.05670
 H197 H 0.76676 -0.05478 0.12134
 H198 H 0.76674 -0.01499 0.08139
 H199 H 0.70185 0.01681 0.08130
 H200 H 0.70393 0.05695 0.12045
 H201 H 0.77018 0.03656 0.01467
 H202 H 0.76647 0.01441 -0.08372
 H203 H 0.76637 0.05424 -0.12353
 H204 H 0.69876 0.07747 -0.05790
 H205 H 0.69869 0.03743 -0.01847
 H206 H 0.77016 -0.03716 -0.01708
 H207 H 0.77195 -0.07736 -0.05582
 H208 H 0.70354 -0.05757 -0.12185
 H209 H 0.70160 -0.01749 -0.08268
 H210 H 0.77201 0.07680 0.05348
 C211 C 0.23299 0.49957 0.47925
 C212 C 0.23297 0.50026 0.52234
 C213 C 0.23192 0.47677 0.54797
 C214 C 0.23464 0.52449 0.54595
 C215 C 0.23200 0.52306 0.45362
 C216 C 0.23463 0.47534 0.45563
 C217 C 0.21258 0.45894 0.54202
 C218 C 0.21261 0.43630 0.56481
 C219 C 0.23180 0.43142 0.59407
 C220 C 0.25068 0.44944 0.60102
 C221 C 0.25069 0.47205 0.57823
 C222 C 0.21629 0.53047 0.57645
 C223 C 0.21746 0.55338 0.59838
 C224 C 0.23709 0.57044 0.59031
 C225 C 0.25571 0.56438 0.56052
 C226 C 0.25458 0.54147 0.53860
 C227 C 0.25080 0.52774 0.42327
 C228 C 0.25082 0.55033 0.40042
 C229 C 0.23196 0.56838 0.40743
 C230 C 0.21275 0.56354 0.43680
 C231 C 0.21268 0.54092 0.45964
 C232 C 0.25454 0.45833 0.46288
 C233 C 0.25565 0.43543 0.44093
 C234 C 0.23705 0.42941 0.41119
 C235 C 0.21745 0.44651 0.40322
 C236 C 0.21630 0.46940 0.42520
 H237 H 0.19769 0.46243 0.51935
 H238 H 0.19786 0.42251 0.55928
 H239 H 0.26560 0.44585 0.62362
 H240 H 0.26570 0.48561 0.58340
 H241 H 0.20089 0.51754 0.58278
 H242 H 0.20300 0.55783 0.62147
 H243 H 0.26920 0.53699 0.51584
 H244 H 0.26578 0.51416 0.41804
 H245 H 0.26576 0.55389 0.37775
 H246 H 0.19802 0.57736 0.44237
 H247 H 0.19777 0.53746 0.48238
 H248 H 0.26914 0.46278 0.48560
 H249 H 0.27099 0.42241 0.44716
 H250 H 0.20301 0.44208 0.38018
 H251 H 0.20092 0.48235 0.41894
 H252 H 0.27106 0.57738 0.55420
 C253 C 0.26611 1.00052 -0.02211
 C254 C 0.26613 1.00016 0.02099
 C255 C 0.26710 1.02384 0.04620
 C256 C 0.26452 0.97611 0.04506
 C257 C 0.26702 0.97684 -0.04731
 C258 C 0.26449 1.02458 -0.04616
 C259 C 0.28638 1.04171 0.03985
 C260 C 0.28634 1.06442 0.06246
 C261 C 0.26721 1.06936 0.09197
 C262 C 0.24835 1.05130 0.09924
 C263 C 0.24836 1.02863 0.07660
 C264 C 0.28298 0.97030 0.07532
 C265 C 0.28191 0.94749 0.09756
 C266 C 0.26226 0.93039 0.09002
 C267 C 0.24351 0.93630 0.06050
 C268 C 0.24454 0.95911 0.03827
 C269 C 0.24820 0.97203 -0.07745
 C270 C 0.24810 0.94931 -0.09996
 C271 C 0.26694 0.93124 -0.09284
 C272 C 0.28617 0.93621 -0.06362
 C273 C 0.28629 0.95896 -0.04114
 C274 C 0.24455 1.04161 -0.03917
 C275 C 0.24351 1.06442 -0.06136
 C276 C 0.26223 1.07032 -0.09111
 C277 C 0.28185 1.05317 -0.09886
 C278 C 0.28291 1.03036 -0.07663
 H279 H 0.30125 1.03817 0.01708
 H280 H 0.30111 1.07818 0.05661
 H281 H 0.23345 1.05484 0.12200
 H282 H 0.23341 1.01504 0.08209
 H283 H 0.29841 0.98325 0.08120
 H284 H 0.29646 0.94314 0.12044
 H285 H 0.22985 0.96348 0.01568
 H286 H 0.23325 0.98562 -0.08279
 H287 H 0.23313 0.94575 -0.12250
 H288 H 0.30092 0.92244 -0.05789
 H289 H 0.30121 0.96251 -0.01856
 H290 H 0.22989 1.03725 -0.01641
 H291 H 0.22814 1.07744 -0.05520
 H292 H 0.29642 1.05744 -0.12188
 H293 H 0.29831 1.01738 -0.08266
 H294 H 0.22814 0.92326 0.05459
 C295 C 0.76702 0.50041 0.47870
 C296 C 0.76699 0.49971 0.52179
 C297 C 0.76798 0.52320 0.54742
 C298 C 0.76533 0.47548 0.54540
 C299 C 0.76814 0.47692 0.45305
 C300 C 0.76533 0.52464 0.45510
 C301 C 0.78731 0.54106 0.54138
 C302 C 0.78722 0.56370 0.56417
 C303 C 0.76800 0.56855 0.59350
 C304 C 0.74913 0.55051 0.60054
 C305 C 0.74917 0.52790 0.57774
 C306 C 0.78362 0.46954 0.57591
 C307 C 0.78244 0.44664 0.59786
 C308 C 0.76286 0.42953 0.58981
 C309 C 0.74430 0.43555 0.56000
 C310 C 0.74544 0.45845 0.53806
 C311 C 0.74943 0.47220 0.42268
 C312 C 0.74954 0.44963 0.39979
 C313 C 0.76845 0.43165 0.40677
 C314 C 0.78757 0.43652 0.43617
 C315 C 0.78751 0.45912 0.45905
 C316 C 0.74535 0.54158 0.46245
 C317 C 0.74418 0.56449 0.44051
 C318 C 0.76279 0.57057 0.41071
 C319 C 0.78245 0.55355 0.40265
 C320 C 0.78366 0.53065 0.42460
 H321 H 0.80222 0.53759 0.51866
 H322 H 0.80195 0.57751 0.55859
 H323 H 0.73419 0.55407 0.62319
 H324 H 0.73419 0.51432 0.58297
 H325 H 0.79898 0.48250 0.58223
 H326 H 0.79685 0.44222 0.62096
 H327 H 0.73086 0.46290 0.51529
 H328 H 0.73441 0.48574 0.41747
 H329 H 0.73468 0.44604 0.37709
 H330 H 0.80234 0.42276 0.44171
 H331 H 0.80235 0.46262 0.48181
 H332 H 0.73074 0.53707 0.48521
 H333 H 0.72880 0.57745 0.44683
 H334 H 0.79690 0.55803 0.37956
 H335 H 0.79909 0.51775 0.41827
 H336 H 0.72898 0.42252 0.55369
 O337 O 0.22862 0.26198 0.19721
 O338 O 0.29056 0.25433 0.24836
 O339 O 0.26358 0.22747 0.19653
 O340 O 0.25588 0.28914 0.24887
 O341 O 0.23756 0.27043 0.30312
 O342 O 0.24523 0.20872 0.25074
 O343 O 0.27219 0.23559 0.30256
 O344 O 0.21030 0.24327 0.25147
 Cu345 Cu 0.26146 0.26015 0.21731
 Cu346 Cu 0.23944 0.23767 0.28240
 C347 C 0.20887 0.25377 0.21544
 C348 C 0.29198 0.24363 0.28422
 C349 C 0.25574 0.20752 0.21466
 C350 C 0.24557 0.29035 0.28509
 O351 O 0.75481 0.79130 0.25032
 O352 O 0.76227 0.72958 0.30274
 O353 O 0.78957 0.75659 0.25077
 O354 O 0.72778 0.76457 0.30243
 O355 O 0.70928 0.74589 0.24843
 O356 O 0.77110 0.73792 0.19672
 O357 O 0.74380 0.71092 0.24869
 O358 O 0.73631 0.77260 0.19633
 Cu359 Cu 0.76050 0.76234 0.28198
 Cu360 Cu 0.73831 0.73992 0.21714
 C361 C 0.74426 0.79253 0.21435
 C362 C 0.75416 0.70969 0.28481
 C363 C 0.79091 0.74606 0.21476
 C364 C 0.70794 0.75662 0.28429
 O365 O 0.72967 0.23763 0.30236
 O366 O 0.79155 0.24504 0.25055
 O367 O 0.76464 0.27213 0.30228
 O368 O 0.75683 0.21028 0.25073
 O369 O 0.73846 0.22879 0.19645
 O370 O 0.74625 0.29068 0.24804
 O371 O 0.77315 0.26358 0.19631
 O372 O 0.71130 0.25615 0.24808
 Cu373 Cu 0.76248 0.23937 0.28192
 Cu374 Cu 0.74041 0.26162 0.21678
 C375 C 0.70989 0.24578 0.28422
 C376 C 0.79295 0.25561 0.21456
 C377 C 0.75681 0.29200 0.28400
 C378 C 0.74648 0.20895 0.21462
 O379 O 0.26248 0.77137 0.19742
 O380 O 0.25482 0.70948 0.24910
 O381 O 0.22799 0.73639 0.19719
 O382 O 0.28959 0.74419 0.24921
 O383 O 0.27092 0.76265 0.30338
 O384 O 0.20928 0.75487 0.25132
 O385 O 0.23612 0.72797 0.30322
 O386 O 0.24380 0.78982 0.25159
 Cu387 Cu 0.26064 0.73855 0.21781
 Cu388 Cu 0.23820 0.76072 0.28280
 C389 C 0.25428 0.79119 0.21552
 C390 C 0.24411 0.70812 0.28499
 C391 C 0.20808 0.74427 0.21534
 C392 C 0.29080 0.75459 0.28534
 O393 O 0.76239 0.27039 0.69712
 O394 O 0.75467 0.20852 0.74899
 O395 O 0.72782 0.23547 0.69709
 O396 O 0.78949 0.24319 0.74894
 O397 O 0.77090 0.26172 0.80312
 O398 O 0.70920 0.25401 0.75122
 O399 O 0.73606 0.22708 0.80312
 O400 O 0.74379 0.28891 0.75129
 Cu401 Cu 0.76049 0.23758 0.71761
 Cu402 Cu 0.73816 0.25983 0.78261
 C403 C 0.75424 0.29024 0.71519
 C404 C 0.74402 0.20720 0.78494
 C405 C 0.70794 0.24340 0.71527
 C406 C 0.79075 0.25360 0.78506
 O407 O 0.29023 0.74600 0.75205
 O408 O 0.22835 0.73814 0.80362
 O409 O 0.25570 0.71103 0.75187
 O410 O 0.26314 0.77283 0.80389
 O411 O 0.24471 0.79141 0.74972
 O412 O 0.23728 0.72958 0.69766
 O413 O 0.20994 0.75669 0.74941
 O414 O 0.27178 0.76457 0.69788
 Cu415 Cu 0.26116 0.74010 0.78328
 Cu416 Cu 0.23904 0.76238 0.71824
 C417 C 0.29160 0.75666 0.71614
 C418 C 0.20855 0.74623 0.78548
 C419 C 0.24539 0.70973 0.71572
 C420 C 0.25523 0.79271 0.78571
 O421 O 0.25463 0.29012 0.75174
 O422 O 0.26241 0.22816 0.80309
 O423 O 0.28952 0.25553 0.75136
 O424 O 0.22780 0.26301 0.80353
 O425 O 0.20924 0.24457 0.74934
 O426 O 0.27100 0.23711 0.69713
 O427 O 0.24389 0.20974 0.74886
 O428 O 0.23609 0.27167 0.69755
 Cu429 Cu 0.26049 0.26101 0.78286
 Cu430 Cu 0.23824 0.23888 0.71779
 C431 C 0.24398 0.29151 0.71587
 C432 C 0.25430 0.20835 0.78491
 C433 C 0.29083 0.24521 0.71517
 C434 C 0.20794 0.25510 0.78536
 O435 O 0.72900 0.76295 0.69699
 O436 O 0.79075 0.75528 0.74868
 O437 O 0.76381 0.72829 0.69707
 O438 O 0.75620 0.79020 0.74855
 O439 O 0.73766 0.77179 0.80289
 O440 O 0.74524 0.70985 0.75137
 O441 O 0.77218 0.73684 0.80298
 O442 O 0.71046 0.74454 0.75132
 Cu443 Cu 0.76176 0.76107 0.71738
 Cu444 Cu 0.73948 0.73895 0.78258
 C445 C 0.70916 0.75490 0.71516
 C446 C 0.79205 0.74470 0.78467
 C447 C 0.75587 0.70845 0.71542
 C448 C 0.74580 0.79159 0.78468
 C449 C 0.26367 0.13575 0.15255
 C450 C 0.25244 0.13714 0.19255
 C451 C 0.25000 0.16046 0.21293
 C452 C 0.26650 0.09187 0.11281
 C453 C 0.27018 0.18111 0.15339
 C454 C 0.27260 0.15776 0.13308
 C455 C 0.26543 0.11185 0.13105
 C456 C 0.25875 0.18274 0.19349
 H457 H 0.24541 0.12022 0.20785
 H458 H 0.24112 0.16106 0.24376
 H459 H 0.27712 0.19788 0.13757
 H460 H 0.28127 0.15690 0.10208
 C461 C 0.76405 0.63637 0.65456
 C462 C 0.77306 0.65826 0.63485
 C463 C 0.77054 0.68172 0.65473
 C464 C 0.76712 0.59234 0.61544
 C465 C 0.75008 0.66141 0.71434
 C466 C 0.75263 0.63797 0.69437
 C467 C 0.76593 0.61237 0.63346
 C468 C 0.75893 0.68357 0.69465
 H469 H 0.78187 0.65722 0.60397
 H470 H 0.77756 0.69840 0.63874
 H471 H 0.74107 0.66218 0.74505
 H472 H 0.74553 0.62114 0.70985
 C473 C 0.73649 0.86431 0.15226
 C474 C 0.74778 0.86289 0.19212
 C475 C 0.75018 0.83956 0.21249
 C476 C 0.73368 0.90819 0.11254
 C477 C 0.72983 0.81897 0.15319
 C478 C 0.72746 0.84233 0.13290
 C479 C 0.73475 0.88821 0.13077
 C480 C 0.74131 0.81731 0.19317
 H481 H 0.75490 0.87979 0.20734
 H482 H 0.75910 0.83894 0.24323
 H483 H 0.72280 0.80222 0.13746
 H484 H 0.71874 0.84321 0.10199
 C485 C 0.23569 0.36360 0.65512
 C486 C 0.24710 0.36201 0.69486
 C487 C 0.24967 0.33857 0.71480
 C488 C 0.23264 0.40763 0.61600
 C489 C 0.22925 0.31825 0.65531
 C490 C 0.22670 0.34171 0.63545
 C491 C 0.23381 0.38760 0.63402
 C492 C 0.24087 0.31640 0.69516
 H493 H 0.25419 0.37885 0.71030
 H494 H 0.25869 0.33780 0.74546
 H495 H 0.22226 0.30156 0.63935
 H496 H 0.21790 0.34274 0.60462
 C497 C 0.86494 0.26334 0.15318
 C498 C 0.84309 0.27242 0.13358
 C499 C 0.81967 0.27006 0.15364
 C500 C 0.90893 0.26610 0.11381
 C501 C 0.83993 0.24964 0.21319
 C502 C 0.86332 0.25202 0.19305
 C503 C 0.88891 0.26506 0.13191
 C504 C 0.81781 0.25854 0.19363
 H505 H 0.84412 0.28115 0.10266
 H506 H 0.80302 0.27711 0.13773
 H507 H 0.83915 0.24069 0.24395
 H508 H 0.88012 0.24487 0.20845
 C509 C 0.36358 0.76497 0.65505
 C510 C 0.36200 0.75354 0.69484
 C511 C 0.33860 0.75097 0.71489
 C512 C 0.40755 0.76801 0.61575
 C513 C 0.31828 0.77143 0.65543
 C514 C 0.34170 0.77397 0.63545
 C515 C 0.38754 0.76685 0.63384
 C516 C 0.31646 0.75979 0.69532
 H517 H 0.37882 0.74645 0.71023
 H518 H 0.33785 0.74194 0.74558
 H519 H 0.30161 0.77843 0.63951
 H520 H 0.34272 0.78279 0.60459
 C521 C 0.13638 0.73605 0.15372
 C522 C 0.15835 0.72711 0.13421
 C523 C 0.18168 0.72962 0.15436
 C524 C 0.09256 0.73304 0.11421
 C525 C 0.16108 0.74995 0.21380
 C526 C 0.13778 0.74741 0.19358
 C527 C 0.11251 0.73419 0.13236
 C528 C 0.18332 0.74118 0.19433
 H529 H 0.15748 0.71835 0.10330
 H530 H 0.19843 0.72266 0.13852
 H531 H 0.16169 0.75892 0.24454
 H532 H 0.12088 0.75446 0.20890
 C533 C 0.63618 0.23544 0.65372
 C534 C 0.65812 0.22640 0.63420
 C535 C 0.68146 0.22882 0.65434
 C536 C 0.59235 0.23262 0.61419
 C537 C 0.66096 0.24923 0.71379
 C538 C 0.63764 0.24679 0.69358
 C539 C 0.61230 0.23369 0.63236
 C540 C 0.68316 0.24037 0.69430
 H541 H 0.65720 0.21765 0.60329
 H542 H 0.69818 0.22180 0.63848
 H543 H 0.66161 0.25820 0.74452
 H544 H 0.62077 0.25391 0.70891
 C545 C 0.73611 0.13525 0.84646
 C546 C 0.72704 0.15717 0.86600
 C547 C 0.72944 0.18058 0.84588
 C548 C 0.73333 0.09126 0.88590
 C549 C 0.74990 0.16016 0.78640
 C550 C 0.74747 0.13678 0.80659
 C551 C 0.73437 0.11129 0.86779
 C552 C 0.74101 0.18235 0.80590
 H553 H 0.71827 0.15620 0.89691
 H554 H 0.72239 0.19729 0.86175
 H555 H 0.75889 0.16087 0.75566
 H556 H 0.75462 0.11992 0.79124
 C557 C 0.23589 0.63611 0.34611
 C558 C 0.22681 0.65802 0.36567
 C559 C 0.22934 0.68145 0.34570
 C560 C 0.23282 0.59214 0.38541
 C561 C 0.24994 0.66108 0.28630
 C562 C 0.24739 0.63767 0.30635
 C563 C 0.23401 0.61214 0.36731
 C564 C 0.24103 0.68326 0.30584
 H565 H 0.21794 0.65702 0.39651
 H566 H 0.22227 0.69815 0.36158
 H567 H 0.25902 0.66182 0.25563
 H568 H 0.25454 0.62082 0.29099
 C569 C 0.26316 0.86466 0.84719
 C570 C 0.27212 0.84272 0.86676
 C571 C 0.26968 0.81931 0.84667
 C572 C 0.26613 0.90867 0.88650
 C573 C 0.24940 0.83976 0.78718
 C574 C 0.25187 0.86315 0.80734
 C575 C 0.26499 0.88864 0.86845
 C576 C 0.25820 0.81755 0.80670
 H577 H 0.28084 0.84368 0.89766
 H578 H 0.27666 0.80259 0.86255
 H579 H 0.24049 0.83907 0.75644
 H580 H 0.24481 0.88002 0.79196
 C581 C 0.76489 0.36397 0.34523
 C582 C 0.77384 0.34204 0.36483
 C583 C 0.77138 0.31862 0.34480
 C584 C 0.76773 0.40791 0.38468
 C585 C 0.75112 0.33906 0.28526
 C586 C 0.75360 0.36245 0.30537
 C587 C 0.76666 0.38792 0.36651
 C588 C 0.75988 0.31686 0.30485
 H589 H 0.78255 0.34301 0.39575
 H590 H 0.77833 0.30191 0.36073
 H591 H 0.74219 0.33835 0.25453
 H592 H 0.74655 0.37932 0.28998
 C593 C 0.13608 0.26302 0.84706
 C594 C 0.15799 0.27199 0.86660
 C595 C 0.18137 0.26956 0.84644
 C596 C 0.09214 0.26595 0.88653
 C597 C 0.16095 0.24927 0.78692
 C598 C 0.13759 0.25173 0.80715
 C599 C 0.11214 0.26483 0.86840
 C600 C 0.18313 0.25808 0.80642
 H601 H 0.15703 0.28070 0.89755
 H602 H 0.19807 0.27654 0.86231
 H603 H 0.16164 0.24036 0.75614
 H604 H 0.12075 0.24466 0.79180
 C605 C 0.63605 0.76497 0.34563
 C606 C 0.63758 0.75347 0.30589
 C607 C 0.66095 0.75090 0.28575
 C608 C 0.59214 0.76800 0.38512
 C609 C 0.68134 0.77148 0.34502
 C610 C 0.65795 0.77403 0.36509
 C611 C 0.61212 0.76684 0.36695
 C612 C 0.68311 0.75978 0.30518
 H613 H 0.62074 0.74633 0.29061
 H614 H 0.66166 0.74181 0.25511
 H615 H 0.69803 0.77853 0.36083
 H616 H 0.65697 0.78290 0.39591
 C617 C 0.86393 0.73643 0.84570
 C618 C 0.86242 0.74778 0.80584
 C619 C 0.83905 0.75036 0.78583
 C620 C 0.90787 0.73331 0.88481
 C621 C 0.81861 0.73008 0.84547
 C622 C 0.84200 0.72753 0.86541
 C623 C 0.88787 0.73452 0.86683
 C624 C 0.81686 0.74162 0.80550
 H625 H 0.87928 0.75480 0.79036
 H626 H 0.83837 0.75931 0.75508
 H627 H 0.80190 0.72314 0.86146
 H628 H 0.84295 0.71877 0.89632
 C629 C 0.36398 0.23568 0.34499
 C630 C 0.36235 0.24715 0.30525
 C631 C 0.33896 0.24960 0.28529
 C632 C 0.40793 0.23283 0.38415
 C633 C 0.31872 0.22894 0.34475
 C634 C 0.34214 0.22652 0.36464
 C635 C 0.38794 0.23392 0.36612
 C636 C 0.31685 0.24061 0.30491
 H637 H 0.37915 0.25438 0.28982
 H638 H 0.33817 0.25867 0.25464
 H639 H 0.30207 0.22181 0.36071
 H640 H 0.34318 0.21766 0.39546
 C641 C 0.74041 0.86338 0.84747
 C642 C 0.73093 0.84159 0.86692
 C643 C 0.73242 0.81826 0.84632
 C644 C 0.73862 0.90721 0.88754
 C645 C 0.75273 0.83849 0.78651
 C646 C 0.75121 0.86180 0.80718
 C647 C 0.73938 0.88727 0.86914
 C648 C 0.74345 0.81642 0.80595
 H649 H 0.72253 0.84261 0.89812
 H650 H 0.72512 0.80165 0.86217
 H651 H 0.76135 0.83773 0.75548
 H652 H 0.75862 0.87855 0.79185
 C653 C 0.24004 0.36191 0.34869
 C654 C 0.23074 0.34000 0.36800
 C655 C 0.23229 0.31674 0.34717
 C656 C 0.23804 0.40569 0.38898
 C657 C 0.25231 0.33728 0.28738
 C658 C 0.25073 0.36051 0.30829
 C659 C 0.23890 0.38576 0.37054
 C660 C 0.24320 0.31509 0.30667
 H661 H 0.22243 0.34087 0.39928
 H662 H 0.22512 0.30004 0.36291
 H663 H 0.26082 0.33667 0.25627
 H664 H 0.25799 0.37735 0.29305
 C665 C 0.25972 0.13657 0.84768
 C666 C 0.26919 0.15836 0.86706
 C667 C 0.26771 0.18169 0.84646
 C668 C 0.26144 0.09275 0.88781
 C669 C 0.24742 0.16145 0.78677
 C670 C 0.24893 0.13814 0.80744
 C671 C 0.26072 0.11269 0.86938
 C672 C 0.25668 0.18352 0.80615
 H673 H 0.27757 0.15735 0.89822
 H674 H 0.27500 0.19831 0.86226
 H675 H 0.23881 0.16221 0.75579
 H676 H 0.24153 0.12139 0.79217
 C677 C 0.75967 0.63811 0.34834
 C678 C 0.76904 0.66000 0.36755
 C679 C 0.76748 0.68327 0.34675
 C680 C 0.76174 0.59431 0.38854
 C681 C 0.74730 0.66278 0.28720
 C682 C 0.74888 0.63954 0.30808
 C683 C 0.76084 0.61425 0.37013
 C684 C 0.75649 0.68494 0.30638
 H685 H 0.77742 0.65911 0.39872
 H686 H 0.77472 0.69995 0.36240
 H687 H 0.73872 0.66341 0.25619
 H688 H 0.74156 0.62271 0.29291
 C689 C 0.13681 0.74050 0.84828
 C690 C 0.13840 0.75136 0.80804
 C691 C 0.16169 0.75299 0.78737
 C692 C 0.09298 0.73849 0.88830
 C693 C 0.18191 0.73269 0.84708
 C694 C 0.15859 0.73109 0.86767
 C695 C 0.11293 0.73935 0.86993
 C696 C 0.18375 0.74378 0.80675
 H697 H 0.12165 0.75871 0.79275
 H698 H 0.16245 0.76164 0.75638
 H699 H 0.19851 0.72544 0.86288
 H700 H 0.15757 0.72265 0.89883
 C701 C 0.63814 0.24041 0.34715
 C702 C 0.63975 0.25121 0.30687
 C703 C 0.66305 0.25274 0.28618
 C704 C 0.59427 0.23847 0.38712
 C705 C 0.68322 0.23247 0.34595
 C706 C 0.65990 0.23097 0.36657
 C707 C 0.61424 0.23930 0.36880
 C708 C 0.68508 0.24348 0.30557
 H709 H 0.62302 0.25858 0.29156
 H710 H 0.66382 0.26133 0.25515
 H711 H 0.69981 0.22518 0.36176
 H712 H 0.65887 0.22258 0.39776
 C713 C 0.86224 0.25903 0.84833
 C714 C 0.84040 0.26849 0.86761
 C715 C 0.81716 0.26699 0.84686
 C716 C 0.90590 0.26086 0.88862
 C717 C 0.83759 0.24671 0.78722
 C718 C 0.86080 0.24824 0.80804
 C719 C 0.88603 0.26008 0.87014
 C720 C 0.81547 0.25596 0.80649
 H721 H 0.84130 0.27687 0.89881
 H722 H 0.80051 0.27427 0.86259
 H723 H 0.83694 0.23810 0.75619
 H724 H 0.87759 0.24085 0.79283
 C725 C 0.36228 0.76034 0.34856
 C726 C 0.34040 0.76968 0.36788
 C727 C 0.31717 0.76806 0.34716
 C728 C 0.40598 0.76244 0.38870
 C729 C 0.33767 0.74788 0.28749
 C730 C 0.36088 0.74953 0.30828
 C731 C 0.38609 0.76154 0.37031
 C732 C 0.31551 0.75703 0.30678
 H733 H 0.34128 0.77808 0.39907
 H734 H 0.30049 0.77527 0.36290
 H735 H 0.33705 0.73928 0.25646
 H736 H 0.37770 0.74223 0.29304
 C737 C 0.25966 0.86291 0.15251
 C738 C 0.24880 0.86136 0.19276
 C739 C 0.24729 0.83807 0.21350
 C740 C 0.26141 0.90670 0.11232
 C741 C 0.26772 0.81780 0.15385
 C742 C 0.26920 0.84112 0.13318
 C743 C 0.26067 0.88678 0.13076
 C744 C 0.25663 0.81599 0.19418
 H745 H 0.24134 0.87811 0.20800
 H746 H 0.23863 0.83733 0.24450
 H747 H 0.27507 0.80119 0.13809
 H748 H 0.27764 0.84211 0.10200
 C749 C 0.75984 0.36195 0.65206
 C750 C 0.74897 0.36043 0.69232
 C751 C 0.74738 0.33715 0.71309
 C752 C 0.76186 0.40579 0.61196
 C753 C 0.76773 0.31680 0.65344
 C754 C 0.76930 0.34011 0.63275
 C755 C 0.76099 0.38583 0.63034
 C756 C 0.75664 0.31504 0.69379
 H757 H 0.74159 0.37722 0.70756
 H758 H 0.73872 0.33645 0.74409
 H759 H 0.77502 0.30015 0.63770
 H760 H 0.77774 0.34106 0.60158
 C761 C 0.74086 0.13720 0.15179
 C762 C 0.73152 0.15904 0.13237
 C763 C 0.73309 0.18236 0.15298
 C764 C 0.73895 0.09339 0.11171
 C765 C 0.75319 0.16202 0.21275
 C766 C 0.75160 0.13872 0.19207
 C767 C 0.73976 0.11332 0.13011
 C768 C 0.74406 0.18414 0.19334
 H769 H 0.72318 0.15807 0.10117
 H770 H 0.72589 0.19901 0.13715
 H771 H 0.76176 0.16273 0.24377
 H772 H 0.75890 0.12193 0.20738
 C773 C 0.24002 0.63804 0.65251
 C774 C 0.25076 0.63954 0.69280
 C775 C 0.25228 0.66282 0.71358
 C776 C 0.23807 0.59420 0.61243
 C777 C 0.23215 0.68319 0.65388
 C778 C 0.23065 0.65989 0.63317
 C779 C 0.23891 0.61415 0.63079
 C780 C 0.24309 0.68494 0.69427
 H781 H 0.25808 0.62275 0.70806
 H782 H 0.26083 0.66351 0.74462
 H783 H 0.22491 0.69984 0.63812
 H784 H 0.22231 0.65894 0.60197
 C785 C 0.86259 0.74028 0.15177
 C786 C 0.86104 0.75119 0.19197
 C787 C 0.83777 0.75283 0.21270
 C788 C 0.90637 0.73829 0.11163
 C789 C 0.81749 0.73243 0.15315
 C790 C 0.84079 0.73082 0.13249
 C791 C 0.88645 0.73913 0.13004
 C792 C 0.81570 0.74357 0.19343
 H793 H 0.87780 0.75858 0.20717
 H794 H 0.83704 0.76153 0.24365
 H795 H 0.80088 0.72514 0.13743
 H796 H 0.84178 0.72234 0.10136
 C797 C 0.36241 0.23990 0.65169
 C798 C 0.36091 0.25063 0.69203
 C799 C 0.33767 0.25213 0.71291
 C800 C 0.40617 0.23805 0.61138
 C801 C 0.31733 0.23197 0.65320
 C802 C 0.34060 0.23050 0.63240
 C803 C 0.38626 0.23884 0.62985
 C804 C 0.31558 0.24291 0.69364
 H805 H 0.37769 0.25797 0.70725
 H806 H 0.33699 0.26067 0.74398
 H807 H 0.30070 0.22472 0.63747
 H808 H 0.34154 0.22216 0.60116
 C809 C 0.13709 0.25914 0.15308
 C810 C 0.13873 0.24826 0.19329
 C811 C 0.16204 0.24676 0.21381
 C812 C 0.09325 0.26090 0.11330
 C813 C 0.18214 0.26722 0.15404
 C814 C 0.15881 0.26870 0.13359
 C815 C 0.11319 0.26016 0.13156
 C816 C 0.18404 0.25611 0.19433
 H817 H 0.12203 0.24079 0.20866
 H818 H 0.16284 0.23808 0.24478
 H819 H 0.19871 0.27458 0.13815
 H820 H 0.15775 0.27715 0.10245
 C821 C 0.63757 0.76051 0.65229
 C822 C 0.63905 0.74974 0.69258
 C823 C 0.66230 0.74813 0.71327
 C824 C 0.59381 0.76254 0.61231
 C825 C 0.68267 0.76829 0.65345
 C826 C 0.65940 0.76987 0.63284
 C827 C 0.61372 0.76167 0.63064
 C828 C 0.68441 0.75730 0.69384
 H829 H 0.62226 0.74243 0.70792
 H830 H 0.66298 0.73955 0.74431
 H831 H 0.69932 0.77550 0.63761
 H832 H 0.65846 0.77824 0.60164
   
