data_POSCAR
  _audit_creation_date              2014-09-24
  _audit_creation_method            'ToBaCCo'
  _symmetry_space_group_name_H-M    'P1'
  _symmetry_Int_Tables_number       1
  _symmetry_cell_setting            triclinic
  loop_
  _symmetry_equiv_pos_as_xyz
 x,y,z
_cell_length_a 59.5569
_cell_length_b 59.5563
_cell_length_c 21.0564
_cell_angle_alpha 90.000000
_cell_angle_beta 90.000000
_cell_angle_gamma 120.000000
loop_
  _atom_site_label
  _atom_site_type_symbol
  _atom_site_fract_x
  _atom_site_fract_y
  _atom_site_fract_z
O1 O 0.20437 0.45564 0.43614
 O2 O 0.25491 0.45886 0.56556
 O3 O 0.20434 0.45565 0.56631
 O4 O 0.25484 0.45861 0.43648
 O5 O 0.27213 0.50060 0.43722
 O6 O 0.22072 0.49752 0.56435
 O7 O 0.27183 0.50083 0.56537
 O8 O 0.22136 0.49762 0.43670
 Cu9 Cu 0.22801 0.45386 0.50117
 Cu10 Cu 0.24802 0.50246 0.50096
 C11 C 0.20311 0.47560 0.41606
 C12 C 0.27334 0.48099 0.58532
 C13 C 0.20260 0.47548 0.58552
 C14 C 0.27347 0.48068 0.41692
 O15 O 0.54427 -0.20464 0.56199
 O16 O 0.54129 -0.25600 0.43483
 O17 O 0.54311 -0.20623 0.43270
 O18 O 0.54417 -0.25313 0.56383
 O19 O 0.50204 -0.27482 0.56806
 O20 O 0.50118 -0.22423 0.44053
 O21 O 0.49921 -0.27485 0.43992
 O22 O 0.50216 -0.22459 0.56902
 Cu23 Cu 0.54643 -0.22840 0.49795
 Cu24 Cu 0.49777 -0.25124 0.50472
 C25 C 0.52403 -0.20484 0.58556
 C26 C 0.51923 -0.27539 0.41764
 C27 C 0.52245 -0.20573 0.41619
 C28 C 0.52371 -0.27310 0.58624
 O29 O 1.20459 0.74664 0.56453
 O30 O 1.25224 0.79408 0.43424
 O31 O 1.20463 0.74426 0.43586
 O32 O 1.25229 0.79558 0.56363
 O33 O 1.27589 0.77711 0.56893
 O34 O 1.22816 0.72574 0.44163
 O35 O 1.27653 0.77640 0.44092
 O36 O 1.22661 0.72650 0.56996
 Cu37 Cu 1.22677 0.77172 0.49917
 Cu38 Cu 1.25358 0.74982 0.50565
 C39 C 1.20620 0.72742 0.58764
 C40 C 1.27341 0.79472 0.41714
 C41 C 1.20749 0.72496 0.41910
 C42 C 1.27293 0.79629 0.58627
 O43 O 0.79465 0.54254 0.43664
 O44 O 0.74419 0.53977 0.56605
 O45 O 0.79472 0.54272 0.56663
 O46 O 0.74415 0.53962 0.43689
 O47 O 0.72685 0.49762 0.43775
 O48 O 0.77770 0.50075 0.56577
 O49 O 0.72689 0.49777 0.56580
 O50 O 0.77761 0.50057 0.43800
 Cu51 Cu 0.77104 0.54451 0.50154
 Cu52 Cu 0.75076 0.49587 0.50187
 C53 C 0.79590 0.52252 0.41707
 C54 C 0.72558 0.51772 0.58576
 C55 C 0.79602 0.52275 0.58648
 C56 C 0.72554 0.51752 0.41740
 O57 O 0.45665 0.20543 0.57055
 O58 O 0.45601 0.25258 0.43961
 O59 O 0.45551 0.20381 0.44115
 O60 O 0.45868 0.25542 0.56871
 O61 O 0.50072 0.27405 0.56307
 O62 O 0.49761 0.22317 0.43511
 O63 O 0.49818 0.27324 0.43451
 O64 O 0.49860 0.22327 0.56331
 Cu65 Cu 0.45348 0.22773 0.50543
 Cu66 Cu 0.50215 0.25007 0.49884
 C67 C 0.47724 0.20482 0.58723
 C68 C 0.47672 0.27197 0.41644
 C69 C 0.47567 0.20366 0.41802
 C70 C 0.48081 0.27482 0.58559
 O71 O 0.74632 0.20495 0.43990
 O72 O 0.79313 0.25509 0.57071
 O73 O 0.74359 0.20493 0.57001
 O74 O 0.79455 0.25527 0.44105
 O75 O 0.77059 0.27330 0.43475
 O76 O 0.72237 0.22578 0.56308
 O77 O 0.77088 0.27488 0.56193
 O78 O 0.72272 0.22345 0.43596
 Cu79 Cu 0.77112 0.22836 0.50588
 Cu80 Cu 0.74496 0.25088 0.49874
 C81 C 0.72576 0.20444 0.41762
 C82 C 0.79102 0.27499 0.58582
 C83 C 0.72317 0.20613 0.58637
 C84 C 0.79178 0.27396 0.41790
 N85 N 0.97248 0.51250 -0.11695
 N86 N 0.95421 0.50838 -0.16091
 N87 N 1.03053 0.55619 -0.07082
 N88 N 1.04865 0.58074 -0.08549
 N89 N 1.03042 0.54046 -0.11565
 N90 N 1.04865 0.55445 -0.15986
 N91 N 0.97274 0.52833 -0.07219
 N92 N 0.95481 0.53507 -0.08681
 C93 C 0.94257 0.52239 -0.14246
 C94 C 1.06067 0.58011 -0.14124
 N95 N 1.02927 0.53860 0.12058
 N96 N 1.04746 0.55101 0.16536
 N97 N 0.97223 0.52758 0.07624
 N98 N 0.95456 0.53456 0.09145
 N99 N 0.97149 0.51112 0.11977
 N100 N 0.95315 0.50685 0.16366
 N101 N 1.03015 0.55554 0.07832
 N102 N 1.04898 0.57967 0.09596
 Mn103 Mn 1.00143 0.54185 0.00281
 C104 C 1.06025 0.57708 0.15129
 C105 C 0.94195 0.52140 0.14624
 N106 N 1.02900 0.48814 -0.11719
 N107 N 1.04738 0.49242 -0.16101
 N108 N 0.96987 0.44365 -0.07589
 N109 N 0.95076 0.41962 -0.09330
 N110 N 0.97119 0.46067 -0.11862
 N111 N 0.95294 0.44838 -0.16334
 N112 N 1.02781 0.47120 -0.07436
 N113 N 1.04522 0.46390 -0.09028
 Mn114 Mn 1.00083 0.50045 -0.11642
 C115 C 1.05819 0.47743 -0.14450
 C116 C 0.93973 0.42235 -0.14885
 N117 N 0.97027 0.45932 0.11815
 N118 N 0.95212 0.44659 0.16278
 N119 N 1.02728 0.47051 0.07433
 N120 N 1.04501 0.46354 0.08910
 N121 N 1.02791 0.48671 0.11857
 N122 N 1.04618 0.49079 0.16242
 N123 N 0.96939 0.44271 0.07479
 N124 N 0.95060 0.41845 0.09176
 Mn125 Mn 0.99975 0.49894 0.11842
 Mn126 Mn 0.99849 0.45697 -0.00029
 Cl127 Cl 1.00013 0.49953 0.00109
 C128 C 0.93938 0.42065 0.14770
 C129 C 1.05746 0.47641 0.14433
 N130 N 0.47125 0.44235 0.07161
 N131 N 0.46442 0.41767 0.08645
 N132 N 0.45948 0.48766 0.11756
 N133 N 0.44686 0.49327 0.16216
 N134 N 0.44277 0.47195 0.07434
 N135 N 0.41857 0.46672 0.09134
 N136 N 0.48755 0.45795 0.11563
 N137 N 0.49181 0.44383 0.15935
 C138 C 0.47749 0.41816 0.14148
 C139 C 0.42088 0.48023 0.14727
 N140 N 0.52742 0.55510 0.07746
 N141 N 0.53297 0.57932 0.09502
 N142 N 0.53913 0.50890 0.11751
 N143 N 0.55172 0.50309 0.16172
 N144 N 0.55599 0.52555 0.07592
 N145 N 0.58023 0.53117 0.09358
 N146 N 0.51089 0.53823 0.11922
 N147 N 0.50510 0.55079 0.16352
 Mn148 Mn 0.49930 0.49819 0.11649
 C149 C 0.51883 0.57686 0.14981
 C150 C 0.57780 0.51691 0.14813
 N151 N 0.44307 0.47296 -0.07606
 N152 N 0.41883 0.46739 -0.09341
 N153 N 0.48817 0.46018 -0.11969
 N154 N 0.49401 0.44754 -0.16379
 N155 N 0.47161 0.44336 -0.07789
 N156 N 0.46609 0.41911 -0.09524
 N157 N 0.45989 0.48957 -0.11776
 N158 N 0.44728 0.49542 -0.16179
 Mn159 Mn 0.45712 0.45764 -0.00196
 C160 C 0.42124 0.48165 -0.14789
 C161 C 0.48022 0.42144 -0.15000
 N162 N 0.55621 0.52660 -0.07449
 N163 N 0.58040 0.53178 -0.09123
 N164 N 0.51134 0.54061 -0.11590
 N165 N 0.50701 0.55469 -0.15964
 N166 N 0.52783 0.55629 -0.07225
 N167 N 0.53485 0.58099 -0.08774
 N168 N 0.53952 0.51091 -0.11778
 N169 N 0.55215 0.50525 -0.16221
 Mn170 Mn 0.54192 0.54091 0.00161
 Mn171 Mn 0.49971 0.50032 -0.11683
 Cl172 Cl 0.49951 0.49926 -0.00018
 C173 C 0.57810 0.51827 -0.14707
 C174 C 0.52150 0.58044 -0.14238
 N175 N 0.44391 -0.02953 0.07524
 N176 N 0.41940 -0.04761 0.09026
 N177 N 0.48845 0.02850 0.11931
 N178 N 0.49247 0.04662 0.16371
 N179 N 0.47244 0.02822 0.07501
 N180 N 0.46551 0.04594 0.09038
 N181 N 0.45977 -0.02945 0.11966
 N182 N 0.44590 -0.04766 0.16401
 C183 C 0.42018 -0.05960 0.14588
 C184 C 0.47826 0.05817 0.14592
 N185 N 0.55588 0.02884 0.07360
 N186 N 0.58045 0.04681 0.08866
 N187 N 0.51149 -0.02916 0.11901
 N188 N 0.50724 -0.04746 0.16306
 N189 N 0.52736 -0.02899 0.07443
 N190 N 0.53388 -0.04707 0.08917
 N191 N 0.54013 0.02877 0.11838
 N192 N 0.55410 0.04691 0.16274
 Mn193 Mn 0.49996 -0.00035 0.11853
 C194 C 0.57978 0.05879 0.14444
 C195 C 0.52113 -0.05928 0.14479
 N196 N 0.47217 0.02790 -0.07362
 N197 N 0.46581 0.04610 -0.08811
 N198 N 0.45899 -0.03031 -0.11731
 N199 N 0.44497 -0.04846 -0.16161
 N200 N 0.44326 -0.02991 -0.07325
 N201 N 0.41860 -0.04755 -0.08885
 N202 N 0.48770 0.02772 -0.11857
 N203 N 0.49199 0.04602 -0.16269
 Mn204 Mn 0.45807 -0.00081 0.00085
 C205 C 0.47839 0.05809 -0.14397
 C206 C 0.41923 -0.05993 -0.14403
 N207 N 0.52710 -0.02927 -0.07421
 N208 N 0.53415 -0.04689 -0.08943
 N209 N 0.53895 0.02784 -0.11919
 N210 N 0.55165 0.04611 -0.16365
 N211 N 0.55563 0.02864 -0.07618
 N212 N 0.57987 0.04746 -0.09313
 N213 N 0.51075 -0.02991 -0.11803
 N214 N 0.50666 -0.04816 -0.16210
 Mn215 Mn 0.54146 -0.00013 -0.00052
 Mn216 Mn 0.49908 -0.00122 -0.11757
 Cl217 Cl 0.49966 -0.00063 0.00035
 C218 C 0.52116 -0.05940 -0.14445
 C219 C 0.57763 0.05879 -0.14879
 C220 C 1.14800 0.48418 0.31689
 C221 C 1.13752 0.46213 0.28037
 C222 C 1.14707 0.44482 0.28572
 C223 C 1.16771 0.44988 0.32911
 C224 C 1.18033 0.47248 0.36836
 C225 C 1.16966 0.49001 0.36082
 O226 O 1.13549 0.49777 0.30530
 C227 C 1.11691 0.48414 0.26051
 C228 C 1.11762 0.46224 0.24351
 C229 C 1.10043 0.44548 0.19696
 C230 C 1.08206 0.45097 0.16681
 C231 C 1.07935 0.47294 0.18176
 C232 C 1.09775 0.48985 0.23089
 H233 H 1.13861 0.42737 0.25719
 H234 H 1.17410 0.43579 0.33159
 H235 H 1.17766 0.50750 0.38909
 H236 H 1.10117 0.42833 0.18346
 H237 H 1.06942 0.43743 0.13122
 H238 H 1.09740 0.50711 0.24529
 C239 C 0.52874 0.67300 0.30375
 C240 C 0.50384 0.65242 0.30507
 C241 C 0.48449 0.65440 0.33868
 C242 C 0.49039 0.67774 0.37201
 C243 C 0.51569 0.70026 0.37484
 C244 C 0.53533 0.69716 0.33885
 O245 O 0.54411 0.66684 0.26777
 C246 C 0.52863 0.64198 0.24634
 C247 C 0.50383 0.63238 0.26865
 C248 C 0.48461 0.60681 0.25416
 C249 C 0.49056 0.59044 0.21628
 C250 C 0.51555 0.59848 0.18946
 C251 C 0.53503 0.62552 0.20580
 H252 H 0.46489 0.63812 0.33936
 H253 H 0.47464 0.67795 0.39712
 H254 H 0.55513 0.71303 0.33804
 H255 H 0.46515 0.59929 0.27237
 H256 H 0.47502 0.57086 0.20740
 H257 H 0.55469 0.63337 0.18881
 C258 C 0.33769 -0.15008 0.31939
 C259 C 0.32592 -0.14082 0.27957
 C260 C 0.29887 -0.15133 0.28200
 C261 C 0.28329 -0.17168 0.32591
 C262 C 0.29344 -0.18306 0.36875
 C263 C 0.32187 -0.17145 0.36415
 O264 O 0.36396 -0.13672 0.30994
 C265 C 0.36877 -0.11886 0.26323
 C266 C 0.34593 -0.12085 0.24300
 C267 C 0.34613 -0.10457 0.19429
 C268 C 0.37002 -0.08578 0.16515
 C269 C 0.39493 -0.08179 0.18311
 C270 C 0.39368 -0.09928 0.23449
 H271 H 0.28974 -0.14381 0.25081
 H272 H 0.26263 -0.17880 0.32606
 H273 H 0.33150 -0.17842 0.39528
 H274 H 0.32804 -0.10632 0.17837
 H275 H 0.36892 -0.07389 0.12778
 H276 H 0.41148 -0.09791 0.25129
 C277 C 0.85110 0.51369 0.31834
 C278 C 0.86178 0.53581 0.28208
 C279 C 0.85232 0.55321 0.28742
 C280 C 0.83160 0.54817 0.33053
 C281 C 0.81877 0.52552 0.36959
 C282 C 0.82935 0.50789 0.36205
 O283 O 0.86355 0.50001 0.30675
 C284 C 0.88227 0.51365 0.26224
 C285 C 0.88172 0.53566 0.24542
 C286 C 0.89908 0.55247 0.19919
 C287 C 0.91745 0.54694 0.16917
 C288 C 0.92002 0.52486 0.18385
 C289 C 0.90143 0.50788 0.23268
 H290 H 0.86093 0.57071 0.25908
 H291 H 0.82532 0.56235 0.33297
 H292 H 0.82121 0.49035 0.39014
 H293 H 0.89848 0.56971 0.18583
 H294 H 0.93021 0.56054 0.13383
 H295 H 0.90164 0.49054 0.24690
 C296 C 0.48597 0.33592 0.31575
 C297 C 0.46427 0.32413 0.27801
 C298 C 0.44731 0.29720 0.28269
 C299 C 0.45229 0.28177 0.32671
 C300 C 0.47451 0.29189 0.36740
 C301 C 0.49176 0.32021 0.36047
 O302 O 0.49919 0.36210 0.30456
 C303 C 0.48570 0.36683 0.25884
 C304 C 0.46423 0.34403 0.24088
 C305 C 0.44764 0.34420 0.19343
 C306 C 0.45283 0.36798 0.16330
 C307 C 0.47434 0.39287 0.17903
 C308 C 0.49111 0.39163 0.22913
 H309 H 0.43013 0.28804 0.25324
 H310 H 0.43836 0.26123 0.32867
 H311 H 0.50888 0.32988 0.38995
 H312 H 0.43082 0.32616 0.17923
 H313 H 0.43942 0.36685 0.12704
 H314 H 0.50802 0.40940 0.24427
 C315 C 0.66218 0.14940 0.31777
 C316 C 0.67379 0.13879 0.28184
 C317 C 0.70060 0.14823 0.28781
 C318 C 0.71610 0.16889 0.33123
 C319 C 0.70610 0.18166 0.36985
 C320 C 0.67795 0.17111 0.36167
 O321 O 0.63611 0.13693 0.30569
 C322 C 0.63122 0.11828 0.26118
 C323 C 0.65385 0.11889 0.24482
 C324 C 0.65351 0.10164 0.19858
 C325 C 0.62973 0.08330 0.16807
 C326 C 0.60503 0.08066 0.18238
 C327 C 0.60642 0.09912 0.23124
 H328 H 0.70961 0.13966 0.25976
 H329 H 0.73655 0.17518 0.33422
 H330 H 0.66844 0.17922 0.38947
 H331 H 0.67141 0.10231 0.18557
 H332 H 0.63070 0.07063 0.13271
 H333 H 0.58879 0.09884 0.24514
 C334 C 0.48637 0.14919 -0.31618
 C335 C 0.46550 0.13999 -0.27585
 C336 C 0.44909 0.15068 -0.27759
 C337 C 0.45381 0.17112 -0.32126
 C338 C 0.47517 0.18248 -0.36463
 C339 C 0.49186 0.17066 -0.36074
 O340 O 0.49917 0.13566 -0.30738
 C341 C 0.48623 0.11777 -0.26058
 C342 C 0.46553 0.11990 -0.23965
 C343 C 0.44960 0.10361 -0.19073
 C344 C 0.45466 0.08468 -0.16212
 C345 C 0.47540 0.08049 -0.18077
 C346 C 0.49151 0.09803 -0.23236
 H347 H 0.43256 0.14323 -0.24602
 H348 H 0.44034 0.17832 -0.32080
 H349 H 0.50834 0.17756 -0.39228
 H350 H 0.43339 0.10545 -0.17422
 H351 H 0.44176 0.07281 -0.12458
 H352 H 0.50782 0.09657 -0.24974
 C353 C 0.67390 0.52751 -0.30134
 C354 C 0.65363 0.50244 -0.30046
 C355 C 0.65586 0.48286 -0.33231
 C356 C 0.67911 0.48870 -0.36608
 C357 C 0.70128 0.51416 -0.37115
 C358 C 0.69793 0.53402 -0.33697
 O359 O 0.66761 0.54311 -0.26678
 C360 C 0.64297 0.52762 -0.24401
 C361 C 0.63362 0.50256 -0.26410
 C362 C 0.60826 0.48328 -0.24796
 C363 C 0.59186 0.48944 -0.21073
 C364 C 0.59970 0.51471 -0.18608
 C365 C 0.62651 0.53424 -0.20411
 H366 H 0.63983 0.46312 -0.33128
 H367 H 0.67953 0.47279 -0.38977
 H368 H 0.71352 0.55395 -0.33793
 H369 H 0.60090 0.46361 -0.26447
 H370 H 0.57243 0.47384 -0.20060
 H371 H 0.63418 0.55410 -0.18894
 C372 C 0.85223 0.32631 -0.30029
 C373 C 0.84899 0.34752 -0.30465
 C374 C 0.82831 0.34606 -0.34021
 C375 C 0.81040 0.32259 -0.37243
 C376 C 0.81210 0.29944 -0.37216
 C377 C 0.83419 0.30201 -0.33422
 O378 O 0.87326 0.33205 -0.26282
 C379 C 0.88345 0.35728 -0.24353
 C380 C 0.86923 0.36753 -0.26865
 C381 C 0.87655 0.39354 -0.25670
 C382 C 0.89884 0.40970 -0.21849
 C383 C 0.91478 0.40102 -0.18885
 C384 C 0.90623 0.37353 -0.20260
 H385 H 0.82583 0.36283 -0.34327
 H386 H 0.79499 0.32278 -0.39920
 H387 H 0.83729 0.28563 -0.33106
 H388 H 0.86539 0.40155 -0.27712
 H389 H 0.90364 0.42963 -0.21159
 H390 H 0.91723 0.36515 -0.18329
 C391 C 0.51428 -0.15023 -0.31541
 C392 C 0.53686 -0.13868 -0.28090
 C393 C 0.55483 -0.14737 -0.28754
 C394 C 0.54990 -0.16822 -0.33016
 C395 C 0.52680 -0.18196 -0.36731
 C396 C 0.50857 -0.17216 -0.35846
 O397 O 0.50009 -0.13838 -0.30294
 C398 C 0.51388 -0.11916 -0.25962
 C399 C 0.53648 -0.11881 -0.24440
 C400 C 0.55353 -0.10086 -0.19947
 C401 C 0.54764 -0.08279 -0.16913
 C402 C 0.52495 -0.08110 -0.18230
 C403 C 0.50774 -0.10029 -0.22984
 H404 H 0.57270 -0.13807 -0.26064
 H405 H 0.56453 -0.17387 -0.33369
 H406 H 0.49065 -0.18100 -0.38514
 H407 H 0.57123 -0.10077 -0.18732
 H408 H 0.56144 -0.06956 -0.13480
 H409 H 0.48994 -0.10077 -0.24284
 C410 C 0.32524 0.47162 -0.30214
 C411 C 0.34528 0.49680 -0.30071
 C412 C 0.34284 0.51634 -0.33206
 C413 C 0.31958 0.51033 -0.36593
 C414 C 0.29765 0.48475 -0.37153
 C415 C 0.30122 0.46495 -0.33786
 O416 O 0.33173 0.45609 -0.26800
 C417 C 0.35627 0.47174 -0.24494
 C418 C 0.36536 0.49683 -0.26442
 C419 C 0.39057 0.51628 -0.24790
 C420 C 0.40711 0.51028 -0.21087
 C421 C 0.39954 0.48498 -0.18687
 C422 C 0.37287 0.46525 -0.20526
 H423 H 0.35869 0.53616 -0.33057
 H424 H 0.31896 0.52621 -0.38927
 H425 H 0.28580 0.44494 -0.33930
 H426 H 0.39770 0.53597 -0.26394
 H427 H 0.42642 0.52601 -0.20036
 H428 H 0.36542 0.44537 -0.19052
 C429 C 1.15144 0.66299 -0.31382
 C430 C 1.14165 0.67461 -0.27513
 C431 C 1.15173 0.70158 -0.27846
 C432 C 1.17216 0.71724 -0.32215
 C433 C 1.18413 0.70729 -0.36373
 C434 C 1.17296 0.67893 -0.35821
 O435 O 1.13838 0.63675 -0.30381
 C436 C 1.12019 0.63180 -0.25786
 C437 C 1.12168 0.65454 -0.23864
 C438 C 1.10501 0.65419 -0.19076
 C439 C 1.08635 0.63027 -0.16144
 C440 C 1.08282 0.60544 -0.17846
 C441 C 1.10071 0.60685 -0.22901
 H442 H 1.14378 0.71059 -0.24824
 H443 H 1.17888 0.73782 -0.32316
 H444 H 1.18032 0.66941 -0.38852
 H445 H 1.10637 0.67219 -0.17559
 H446 H 1.07415 0.63126 -0.12473
 H447 H 1.09973 0.58913 -0.24507
 C448 C 0.85155 0.51433 -0.31484
 C449 C 0.86189 0.53627 -0.27793
 C450 C 0.85213 0.55342 -0.28288
 C451 C 0.83144 0.54833 -0.32622
 C452 C 0.81893 0.52584 -0.36590
 C453 C 0.82982 0.50846 -0.35875
 O454 O 0.86426 0.50088 -0.30361
 C455 C 0.88281 0.51447 -0.25866
 C456 C 0.88190 0.53622 -0.24120
 C457 C 0.89902 0.55290 -0.19439
 C458 C 0.91752 0.54752 -0.16448
 C459 C 0.92049 0.52572 -0.17985
 C460 C 0.90213 0.50888 -0.22927
 H461 H 0.86047 0.57079 -0.25407
 H462 H 0.82493 0.56234 -0.32831
 H463 H 0.82195 0.49106 -0.38731
 H464 H 0.89813 0.56993 -0.18049
 H465 H 0.93007 0.56101 -0.12869
 H466 H 0.90264 0.49174 -0.24405
 C467 C 0.47070 0.32552 -0.30572
 C468 C 0.49603 0.34507 -0.30097
 C469 C 0.51581 0.34221 -0.32960
 C470 C 0.50996 0.31910 -0.36413
 C471 C 0.48425 0.29762 -0.37349
 C472 C 0.46417 0.30162 -0.34233
 O473 O 0.45493 0.33232 -0.27359
 C474 C 0.47056 0.35655 -0.24851
 C475 C 0.49592 0.36516 -0.26475
 C476 C 0.51544 0.39003 -0.24577
 C477 C 0.50926 0.40669 -0.20958
 C478 C 0.48368 0.39961 -0.18866
 C479 C 0.46388 0.37326 -0.20964
 H480 H 0.53575 0.35764 -0.32543
 H481 H 0.52619 0.31835 -0.38495
 H482 H 0.44405 0.28666 -0.34633
 H483 H 0.53535 0.39683 -0.25928
 H484 H 0.52510 0.42572 -0.19721
 H485 H 0.44379 0.36616 -0.19745
 C486 C 0.67340 0.14524 -0.30380
 C487 C 0.65341 0.15042 -0.30059
 C488 C 0.65570 0.17255 -0.33044
 C489 C 0.67871 0.18995 -0.36473
 C490 C 0.70071 0.18641 -0.37262
 C491 C 0.69731 0.16281 -0.34015
 O492 O 0.66693 0.12298 -0.27059
 C493 C 0.64250 0.11407 -0.24645
 C494 C 0.63347 0.13028 -0.26433
 C495 C 0.60839 0.12463 -0.24665
 C496 C 0.59189 0.10196 -0.21000
 C497 C 0.59936 0.08397 -0.18749
 C498 C 0.62593 0.09081 -0.20712
 H499 H 0.63990 0.17655 -0.32742
 H500 H 0.67895 0.20653 -0.38652
 H501 H 0.71267 0.15817 -0.34297
 H502 H 0.60134 0.13739 -0.26151
 H503 H 0.57268 0.09847 -0.19861
 H504 H 0.63328 0.07818 -0.19359
 C505 C 1.15017 0.48541 -0.31376
 C506 C 1.13592 0.46111 -0.28781
 C507 C 1.14247 0.44195 -0.30165
 C508 C 1.16390 0.44739 -0.34275
 C509 C 1.18054 0.47221 -0.37112
 C510 C 1.17288 0.49166 -0.35477
 O511 O 1.13994 0.50057 -0.29577
 C512 C 1.11904 0.48564 -0.25754
 C513 C 1.11605 0.46136 -0.25082
 C514 C 1.09608 0.44290 -0.21190
 C515 C 1.07868 0.44907 -0.17896
 C516 C 1.07956 0.47348 -0.18382
 C517 C 1.10080 0.49212 -0.22534
 H518 H 1.13102 0.42274 -0.28161
 H519 H 1.16765 0.43167 -0.35183
 H520 H 1.18388 0.51098 -0.37440
 H521 H 1.09393 0.42386 -0.20630
 H522 H 1.06384 0.43412 -0.14951
 H523 H 1.10335 0.51128 -0.23180
 C524 C 0.51289 0.66444 -0.31075
 C525 C 0.53761 0.67397 -0.28785
 C526 C 0.55708 0.69919 -0.30427
 C527 C 0.55158 0.71522 -0.34490
 C528 C 0.52640 0.70773 -0.37023
 C529 C 0.50655 0.68108 -0.35111
 O530 O 0.49751 0.63933 -0.29075
 C531 C 0.51274 0.63309 -0.25436
 C532 C 0.53743 0.65393 -0.25073
 C533 C 0.55631 0.65219 -0.21406
 C534 C 0.55017 0.62882 -0.18020
 C535 C 0.52536 0.60568 -0.18204
 C536 C 0.50626 0.60850 -0.22133
 H537 H 0.57660 0.70650 -0.28670
 H538 H 0.56765 0.73427 -0.35600
 H539 H 0.48693 0.67320 -0.36837
 H540 H 0.57568 0.66877 -0.21090
 H541 H 0.56546 0.62874 -0.15259
 H542 H 0.48679 0.59219 -0.22541
 C543 C 0.33501 -0.15191 -0.31185
 C544 C 0.32557 -0.13661 -0.28918
 C545 C 0.30036 -0.14227 -0.30562
 C546 C 0.28425 -0.16388 -0.34602
 C547 C 0.29178 -0.18157 -0.37087
 C548 C 0.31836 -0.17483 -0.35187
 O549 O 0.36007 -0.14236 -0.29194
 C550 C 0.36642 -0.12086 -0.25578
 C551 C 0.34569 -0.11681 -0.25220
 C552 C 0.34760 -0.09610 -0.21565
 C553 C 0.37103 -0.07903 -0.18187
 C554 C 0.39400 -0.08099 -0.18377
 C555 C 0.39102 -0.10296 -0.22288
 H556 H 0.29311 -0.12999 -0.28821
 H557 H 0.26519 -0.16693 -0.35732
 H558 H 0.32617 -0.18668 -0.36886
 H559 H 0.33113 -0.09315 -0.21249
 H560 H 0.37129 -0.06357 -0.15425
 H561 H 0.40722 -0.10631 -0.22688
 C562 C 0.51321 -0.15019 0.31853
 C563 C 0.53405 -0.14110 0.27811
 C564 C 0.55042 -0.15182 0.28013
 C565 C 0.54573 -0.17217 0.32413
 C566 C 0.52440 -0.18345 0.36768
 C567 C 0.50773 -0.17159 0.36348
 O568 O 0.50042 -0.13665 0.30941
 C569 C 0.51334 -0.11886 0.26234
 C570 C 0.53401 -0.12105 0.24153
 C571 C 0.54991 -0.10485 0.19238
 C572 C 0.54485 -0.08595 0.16344
 C573 C 0.52414 -0.08168 0.18189
 C574 C 0.50806 -0.09914 0.23374
 H575 H 0.56693 -0.14446 0.24851
 H576 H 0.55919 -0.17938 0.32378
 H577 H 0.49128 -0.17839 0.39507
 H578 H 0.56611 -0.10673 0.17596
 H579 H 0.55774 -0.07416 0.12579
 H580 H 0.49177 -0.09763 0.25107
 C581 C 0.32511 0.47095 0.30298
 C582 C 0.34546 0.49599 0.30242
 C583 C 0.34330 0.51551 0.33481
 C584 C 0.32006 0.50968 0.36877
 C585 C 0.29780 0.48426 0.37358
 C586 C 0.30109 0.46445 0.33882
 O587 O 0.33132 0.45539 0.26793
 C588 C 0.35599 0.47085 0.24515
 C589 C 0.36544 0.49587 0.26574
 C590 C 0.39084 0.51510 0.24965
 C591 C 0.40717 0.50895 0.21199
 C592 C 0.39927 0.48374 0.18677
 C593 C 0.37239 0.46424 0.20480
 H594 H 0.35938 0.53523 0.33405
 H595 H 0.31973 0.52557 0.39282
 H596 H 0.28544 0.44454 0.33948
 H597 H 0.39829 0.53473 0.26651
 H598 H 0.42662 0.52453 0.20199
 H599 H 0.36463 0.44441 0.18927
 C600 C 1.14658 0.67326 0.30493
 C601 C 1.15060 0.65250 0.30748
 C602 C 1.17171 0.65438 0.34198
 C603 C 1.18923 0.67780 0.37495
 C604 C 1.18673 0.70049 0.37656
 C605 C 1.16422 0.69749 0.33968
 O606 O 1.12527 0.66721 0.26822
 C607 C 1.11569 0.64221 0.24758
 C608 C 1.13056 0.63243 0.27111
 C609 C 1.12393 0.60671 0.25758
 C610 C 1.10167 0.59037 0.21944
 C611 C 1.08509 0.59860 0.19135
 C612 C 1.09293 0.62580 0.20671
 H613 H 1.17480 0.63796 0.34362
 H614 H 1.20501 0.67794 0.40079
 H615 H 1.16051 0.71350 0.33791
 H616 H 1.13560 0.59905 0.27676
 H617 H 1.09741 0.57068 0.21133
 H618 H 1.08141 0.63382 0.18870
 C619 C 0.48520 0.14888 0.31837
 C620 C 0.46267 0.13749 0.28363
 C621 C 0.44479 0.14629 0.29038
 C622 C 0.44974 0.16708 0.33329
 C623 C 0.47279 0.18070 0.37072
 C624 C 0.49093 0.17077 0.36173
 O625 O 0.49932 0.13695 0.30576
 C626 C 0.48555 0.11784 0.26211
 C627 C 0.46304 0.11764 0.24680
 C628 C 0.44605 0.09982 0.20151
 C629 C 0.45191 0.08176 0.17091
 C630 C 0.47451 0.07989 0.18412
 C631 C 0.49165 0.09895 0.23207
 H632 H 0.42696 0.13712 0.26331
 H633 H 0.43516 0.17281 0.33681
 H634 H 0.50882 0.17949 0.38852
 H635 H 0.42841 0.09983 0.18924
 H636 H 0.43814 0.06866 0.13633
 H637 H 0.50940 0.09933 0.24519
 C638 C 0.67377 0.52696 0.30373
 C639 C 0.65358 0.50185 0.30292
 C640 C 0.65588 0.48237 0.33503
 C641 C 0.67913 0.48834 0.36902
 C642 C 0.70123 0.51385 0.37406
 C643 C 0.69780 0.53361 0.33959
 O644 O 0.66740 0.54245 0.26890
 C645 C 0.64279 0.52685 0.24602
 C646 C 0.63355 0.50183 0.26631
 C647 C 0.60825 0.48244 0.25007
 C648 C 0.59180 0.48843 0.21253
 C649 C 0.59950 0.51364 0.18767
 C650 C 0.62627 0.53331 0.20581
 H651 H 0.63992 0.46260 0.33404
 H652 H 0.67959 0.47249 0.39289
 H653 H 0.71333 0.55357 0.34048
 H654 H 0.60099 0.46281 0.26671
 H655 H 0.57244 0.47273 0.20233
 H656 H 0.63386 0.55314 0.19045
 C657 C 0.85363 0.32511 0.30442
 C658 C 0.84860 0.34521 0.30237
 C659 C 0.82676 0.34304 0.33369
 C660 C 0.80950 0.31999 0.36811
 C661 C 0.81292 0.29792 0.37449
 C662 C 0.83622 0.30122 0.34084
 O663 O 0.87558 0.33143 0.27002
 C664 C 0.88448 0.35590 0.24624
 C665 C 0.86855 0.36510 0.26552
 C666 C 0.87425 0.39023 0.24833
 C667 C 0.89669 0.40662 0.21081
 C668 C 0.91436 0.39897 0.18693
 C669 C 0.90747 0.37235 0.20606
 H670 H 0.82288 0.35895 0.33170
 H671 H 0.79311 0.31967 0.39124
 H672 H 0.84068 0.28571 0.34264
 H673 H 0.86174 0.39743 0.26424
 H674 H 0.90025 0.42589 0.19987
 H675 H 0.91989 0.36486 0.19152
   
