data_POSCAR
  _audit_creation_date              2014-09-24
  _audit_creation_method            'ToBaCCo'
  _symmetry_space_group_name_H-M    'P1'
  _symmetry_Int_Tables_number       1
  _symmetry_cell_setting            triclinic
  loop_
  _symmetry_equiv_pos_as_xyz
 x,y,z
_cell_length_a 68.9333
_cell_length_b 11.0645
_cell_length_c 10.9844
_cell_angle_alpha 80.829200
_cell_angle_beta 92.518500
_cell_angle_gamma 95.749700
loop_
  _atom_site_label
  _atom_site_type_symbol
  _atom_site_fract_x
  _atom_site_fract_y
  _atom_site_fract_z
C1 C 0.74461 0.20123 0.52717
 C2 C 0.74700 0.23061 0.40191
 C3 C 0.76635 0.23101 0.34546
 C4 C 0.73018 0.26645 0.31899
 C5 C 0.72471 0.17739 0.58228
 C6 C 0.76201 0.19246 0.61047
 C7 C 0.78170 0.32085 0.36035
 C8 C 0.80036 0.31264 0.31739
 C9 C 0.80428 0.21520 0.25436
 C10 C 0.78795 0.13146 0.23222
 C11 C 0.76971 0.13739 0.28002
 C12 C 0.71929 0.35743 0.34813
 C13 C 0.70033 0.36678 0.30229
 C14 C 0.69218 0.29073 0.21852
 C15 C 0.70423 0.21237 0.17470
 C16 C 0.72297 0.19877 0.22598
 C17 C 0.71004 0.10275 0.52957
 C18 C 0.69059 0.09887 0.56083
 C19 C 0.68530 0.16715 0.64891
 C20 C 0.70008 0.23060 0.71293
 C21 C 0.71969 0.23556 0.68000
 C22 C 0.77226 0.08814 0.62278
 C23 C 0.79162 0.09320 0.66678
 C24 C 0.80067 0.20146 0.70433
 C25 C 0.78950 0.30077 0.70522
 C26 C 0.77039 0.29700 0.65700
 H27 H 0.77932 0.39656 0.40732
 H28 H 0.81129 0.38600 0.33227
 H29 H 0.78897 0.05282 0.18725
 H30 H 0.75850 0.06378 0.27067
 H31 H 0.72479 0.41272 0.41658
 H32 H 0.69175 0.42717 0.34099
 H33 H 0.73089 0.12862 0.19910
 H34 H 0.71343 0.05367 0.45783
 H35 H 0.67952 0.04729 0.51157
 H36 H 0.69632 0.28360 0.78181
 H37 H 0.73060 0.29149 0.72533
 H38 H 0.76555 0.00589 0.59116
 H39 H 0.79974 0.01440 0.66712
 H40 H 0.79600 0.38439 0.73520
 H41 H 0.76263 0.37845 0.64821
 H42 H 0.69879 0.15545 0.10683
 C43 C 0.25059 0.74461 0.39227
 C44 C 0.25034 0.73536 0.51813
 C45 C 0.23152 0.71933 0.58496
 C46 C 0.26918 0.74182 0.58982
 C47 C 0.26902 0.74787 0.32793
 C48 C 0.23277 0.75999 0.31511
 C49 C 0.22822 0.79440 0.67251
 C50 C 0.20961 0.79126 0.72106
 C51 C 0.19408 0.71174 0.68410
 C52 C 0.19761 0.63382 0.60022
 C53 C 0.21617 0.63502 0.55431
 C54 C 0.28301 0.84377 0.56066
 C55 C 0.30249 0.83712 0.59936
 C56 C 0.30832 0.73064 0.67263
 C57 C 0.29427 0.63230 0.71037
 C58 C 0.27480 0.63756 0.66846
 C59 C 0.28057 0.64920 0.35545
 C60 C 0.30028 0.66585 0.32759
 C61 C 0.30853 0.78107 0.27057
 C62 C 0.29640 0.87537 0.23108
 C63 C 0.27667 0.85846 0.25877
 C64 C 0.22485 0.66529 0.25198
 C65 C 0.20541 0.66256 0.21047
 C66 C 0.19404 0.75612 0.22936
 C67 C 0.20298 0.85919 0.27629
 C68 C 0.22227 0.86092 0.31943
 H69 H 0.23978 0.85880 0.69968
 H70 H 0.20726 0.85117 0.78665
 H71 H 0.18585 0.57280 0.56848
 H72 H 0.21834 0.57232 0.49127
 H73 H 0.27895 0.92562 0.50108
 H74 H 0.31307 0.91478 0.57130
 H75 H 0.26443 0.55760 0.69100
 H76 H 0.27470 0.56327 0.40815
 H77 H 0.30933 0.59193 0.35928
 H78 H 0.30240 0.96421 0.18496
 H79 H 0.26786 0.93518 0.23642
 H80 H 0.23308 0.58852 0.24499
 H81 H 0.19897 0.58345 0.17161
 H82 H 0.19473 0.93544 0.28447
 H83 H 0.22869 0.93681 0.36322
 H84 H 0.29854 0.54971 0.76769
 C85 C 0.24699 0.20527 -0.31679
 C86 C 0.24764 0.22693 -0.44284
 C87 C 0.26658 0.24788 -0.50672
 C88 C 0.22905 0.21738 -0.51663
 C89 C 0.22864 0.21250 -0.25501
 C90 C 0.26429 0.17282 -0.23899
 C91 C 0.28184 0.32647 -0.46536
 C92 C 0.30053 0.33222 -0.51020
 C93 C 0.30437 0.26482 -0.60361
 C94 C 0.28855 0.19474 -0.65319
 C95 C 0.26994 0.18497 -0.60387
 C96 C 0.22133 0.32091 -0.58468
 C97 C 0.20165 0.31436 -0.62605
 C98 C 0.18935 0.20347 -0.59976
 C99 C 0.19820 0.09796 -0.54243
 C100 C 0.21754 0.10542 -0.50086
 C101 C 0.21937 0.11016 -0.18040
 C102 C 0.20001 0.11142 -0.14648
 C103 C 0.18966 0.21450 -0.18967
 C104 C 0.19995 0.31986 -0.25418
 C105 C 0.21924 0.31964 -0.28425
 C106 C 0.27300 0.06660 -0.25135
 C107 C 0.29122 0.04605 -0.19645
 C108 C 0.30122 0.13355 -0.13166
 C109 C 0.29190 0.23585 -0.11189
 C110 C 0.27332 0.25416 -0.16344
 H111 H 0.27939 0.38171 -0.39562
 H112 H 0.31183 0.39290 -0.47363
 H113 H 0.29071 0.14061 -0.72437
 H114 H 0.25840 0.12428 -0.63821
 H115 H 0.23010 0.40833 -0.59732
 H116 H 0.19589 0.39861 -0.66899
 H117 H 0.22332 0.02431 -0.45017
 H118 H 0.22673 0.02751 -0.15479
 H119 H 0.19279 0.02849 -0.09562
 H120 H 0.19308 0.40331 -0.28186
 H121 H 0.22657 0.40103 -0.33713
 H122 H 0.26615 0.00350 -0.30933
 H123 H 0.29811 -0.03362 -0.21182
 H124 H 0.29937 0.30410 -0.06148
 H125 H 0.26672 0.33657 -0.15288
 H126 H 0.19031 0.00780 -0.52712
 C127 C -0.24665 0.70546 -0.45587
 C128 C -0.24570 0.73812 -0.58144
 C129 C -0.22663 0.77160 -0.63972
 C130 C -0.26358 0.75808 -0.65939
 C131 C -0.26572 0.68473 -0.39729
 C132 C -0.22884 0.68848 -0.37575
 C133 C -0.21465 0.86928 -0.60317
 C134 C -0.19471 0.87986 -0.61967
 C135 C -0.18604 0.79114 -0.67233
 C136 C -0.19856 0.70118 -0.72304
 C137 C -0.21873 0.69174 -0.70681
 C138 C -0.27376 0.85899 -0.65043
 C139 C -0.29283 0.86464 -0.69784
 C140 C -0.30183 0.77233 -0.76172
 C141 C -0.29042 0.67957 -0.78472
 C142 C -0.27159 0.67134 -0.73184
 C143 C -0.27650 0.57164 -0.39786
 C144 C -0.29664 0.56117 -0.38694
 C145 C -0.30640 0.66386 -0.37137
 C146 C -0.29484 0.77303 -0.35322
 C147 C -0.27468 0.78344 -0.36681
 C148 C -0.21474 0.61707 -0.40695
 C149 C -0.19587 0.62861 -0.35738
 C150 C -0.19092 0.70478 -0.26733
 C151 C -0.20596 0.76228 -0.22302
 C152 C -0.22469 0.75562 -0.27814
 H153 H -0.22059 0.93256 -0.55348
 H154 H -0.18619 0.95689 -0.58810
 H155 H -0.19294 0.62972 -0.76397
 H156 H -0.22774 0.61445 -0.73480
 H157 H -0.26711 0.92966 -0.60044
 H158 H -0.30051 0.94229 -0.68606
 H159 H -0.26365 0.59457 -0.74300
 H160 H -0.26933 0.49386 -0.41472
 H161 H -0.30447 0.47260 -0.39271
 H162 H -0.30123 0.85504 -0.34050
 H163 H -0.26643 0.87183 -0.36516
 H164 H -0.21788 0.56006 -0.47788
 H165 H -0.18509 0.58278 -0.39636
 H166 H -0.20314 0.81699 -0.14977
 H167 H -0.23553 0.80869 -0.24946
 H168 H -0.29645 0.60759 -0.83514
 N169 N 0.01848 1.17921 0.15113
 N170 N 0.03557 1.18724 0.20997
 N171 N -0.02334 1.22428 0.04781
 N172 N -0.03943 1.27947 0.05050
 N173 N -0.02276 1.13220 0.13898
 N174 N -0.03850 1.12189 0.20595
 N175 N 0.01789 1.26968 0.05780
 N176 N 0.03462 1.34020 0.05181
 C177 C 0.04545 1.28889 0.14845
 C178 C -0.04867 1.21502 0.14997
 N179 N -0.02105 1.16534 -0.29463
 N180 N -0.03766 1.14562 -0.35577
 N181 N 0.01856 1.29043 -0.20669
 N182 N 0.03489 1.36415 -0.20570
 N183 N 0.01964 1.21443 -0.28589
 N184 N 0.03642 1.23650 -0.34214
 N185 N -0.02286 1.24117 -0.21591
 N186 N -0.04094 1.27259 -0.22071
 Mn187 Mn -0.00246 1.25799 -0.07966
 C188 C -0.04992 1.21387 -0.31002
 C189 C 0.04564 1.33161 -0.29328
 N190 N -0.01866 0.87199 0.16003
 N191 N -0.03538 0.84607 0.21629
 N192 N 0.02365 0.84323 0.09619
 N193 N 0.03994 0.79001 0.11808
 N194 N 0.02199 0.91921 0.17455
 N195 N 0.03716 0.91930 0.25244
 N196 N -0.01697 0.79499 0.08242
 N197 N -0.03261 0.71560 0.08348
 Mn198 Mn -0.00030 1.02552 0.15722
 C199 C -0.04382 0.74729 0.16898
 C200 C 0.04818 0.83759 0.21618
 N201 N 0.02425 0.95557 -0.25941
 N202 N 0.04124 0.97982 -0.31359
 N203 N -0.01550 0.81410 -0.18079
 N204 N -0.03100 0.73383 -0.17998
 N205 N -0.01697 0.90598 -0.27134
 N206 N -0.03371 0.89088 -0.33288
 N207 N 0.02512 0.86418 -0.16749
 N208 N 0.04257 0.82341 -0.15802
 Mn209 Mn 0.00147 1.06059 -0.27875
 Mn210 Mn 0.00413 0.82806 -0.04229
 Cl211 Cl 0.00070 1.04316 -0.06079
 C212 C 0.05241 0.89529 -0.25078
 C213 C -0.04206 0.78166 -0.27666
 N214 N 0.47842 0.28393 -0.02657
 N215 N 0.46014 0.23709 -0.00870
 N216 N 0.52107 0.36250 -0.11973
 N217 N 0.53720 0.34786 -0.17464
 N218 N 0.51975 0.29073 -0.01247
 N219 N 0.53495 0.22561 0.00801
 N220 N 0.47984 0.35357 -0.13541
 N221 N 0.46265 0.35467 -0.19257
 C222 C 0.45053 0.28056 -0.11392
 C223 C 0.54569 0.26117 -0.09423
 N224 N 0.52346 0.72285 -0.14995
 N225 N 0.54013 0.79139 -0.16830
 N226 N 0.48244 0.61521 -0.22025
 N227 N 0.46677 0.60715 -0.29323
 N228 N 0.48243 0.71026 -0.16223
 N229 N 0.46653 0.76723 -0.19233
 N230 N 0.52326 0.62440 -0.20296
 N231 N 0.53981 0.62364 -0.25861
 Mn232 Mn 0.50174 0.48824 -0.17070
 C233 C 0.55009 0.72936 -0.23737
 C234 C 0.45703 0.70289 -0.27553
 N235 N 0.51968 0.33549 0.23916
 N236 N 0.53683 0.29031 0.25230
 N237 N 0.47955 0.42304 0.28281
 N238 N 0.46378 0.42445 0.34600
 N239 N 0.47815 0.32699 0.22538
 N240 N 0.46106 0.26228 0.24588
 N241 N 0.52022 0.43311 0.29423
 N242 N 0.53750 0.45456 0.34653
 Mn243 Mn 0.49895 0.30739 0.10700
 C244 C 0.54772 0.36443 0.32120
 C245 C 0.45242 0.32376 0.32259
 N246 N 0.48227 0.75248 0.08998
 N247 N 0.46511 0.79471 0.06192
 N248 N 0.52272 0.69541 0.21110
 N249 N 0.53904 0.71287 0.27614
 N250 N 0.52379 0.76375 0.10181
 N251 N 0.54116 0.82644 0.08895
 N252 N 0.48189 0.68340 0.19907
 N253 N 0.46461 0.67861 0.24715
 Mn254 Mn 0.50298 0.73900 -0.03036
 Mn255 Mn 0.50112 0.55895 0.24763
 Cl256 Cl 0.50121 0.52337 0.03819
 C257 C 0.45445 0.75065 0.16240
 C258 C 0.55033 0.79583 0.19959
 C259 C 0.33979 0.27719 0.43831
 C260 C 0.35890 0.27701 0.39937
 C261 C 0.36223 0.27094 0.27479
 C262 C 0.34630 0.26217 0.19229
 C263 C 0.32723 0.25723 0.23224
 C264 C 0.32363 0.26658 0.35559
 C265 C 0.38138 0.27170 0.23525
 C266 C 0.39726 0.27749 0.31946
 C267 C 0.39380 0.28187 0.44463
 C268 C 0.37470 0.28163 0.48371
 C269 C 0.40955 0.28895 0.52869
 C270 C 0.42863 0.29889 0.48877
 C271 C 0.43229 0.29592 0.36492
 C272 C 0.41657 0.28215 0.28064
 H273 H 0.33756 0.27973 0.53489
 H274 H 0.34858 0.25928 0.09670
 H275 H 0.31542 0.25189 0.16445
 H276 H 0.38392 0.26803 0.13934
 H277 H 0.37216 0.28585 0.57961
 H278 H 0.40709 0.28936 0.62476
 H279 H 0.44060 0.31047 0.55452
 H280 H 0.41939 0.28193 0.18432
 C281 C -0.15575 0.73141 0.25162
 C282 C -0.13549 0.72634 0.26191
 C283 C -0.12470 0.77869 0.35619
 C284 C -0.13423 0.83364 0.43920
 C285 C -0.15430 0.83794 0.42906
 C286 C -0.16551 0.78801 0.33457
 C287 C -0.10447 0.77768 0.36494
 C288 C -0.09476 0.72851 0.27804
 C289 C -0.10542 0.67401 0.18449
 C290 C -0.12580 0.67200 0.17783
 C291 C -0.09540 0.62753 0.09627
 C292 C -0.07502 0.64280 0.09608
 C293 C -0.06451 0.70356 0.18480
 C294 C -0.07443 0.74062 0.27885
 H295 H -0.16358 0.69563 0.17544
 H296 H -0.12616 0.87263 0.51289
 H297 H -0.16091 0.87632 0.49988
 H298 H -0.09622 0.81959 0.43647
 H299 H -0.13401 0.63188 0.10516
 H300 H -0.10329 0.58465 0.02438
 H301 H -0.06758 0.61343 0.02263
 H302 H -0.06636 0.78686 0.34798
 C303 C 0.66473 0.81420 0.27579
 C304 C 0.64479 0.81119 0.24289
 C305 C 0.63811 0.77097 0.13134
 C306 C 0.65128 0.72834 0.05815
 C307 C 0.67097 0.72658 0.09416
 C308 C 0.67815 0.77178 0.20213
 C309 C 0.61826 0.77018 0.09671
 C310 C 0.60491 0.80647 0.17348
 C311 C 0.61149 0.84307 0.28718
 C312 C 0.63140 0.84562 0.32101
 C313 C 0.59791 0.87210 0.36699
 C314 C 0.57796 0.86047 0.33671
 C315 C 0.57134 0.82405 0.22428
 C316 C 0.58489 0.79942 0.14195
 H317 H 0.66954 0.84416 0.36240
 H318 H 0.64631 0.69469 -0.02632
 H319 H 0.68064 0.69400 0.03411
 H320 H 0.61313 0.73741 0.01213
 H321 H 0.63646 0.87448 0.40770
 H322 H 0.60269 0.90076 0.45421
 H323 H 0.56764 0.87808 0.40195
 H324 H 0.57974 0.76753 0.05687
 C325 C 0.15922 1.28378 0.29192
 C326 C 0.13856 1.27673 0.28019
 C327 C 0.12735 1.18540 0.35889
 C328 C 0.13651 1.09952 0.44118
 C329 C 0.15663 1.10567 0.45246
 C330 C 0.16866 1.19785 0.37967
 C331 C 0.10700 1.17903 0.35422
 C332 C 0.09733 1.25875 0.26678
 C333 C 0.10814 1.34730 0.18275
 C334 C 0.12877 1.35703 0.19079
 C335 C 0.09802 1.42175 0.09085
 C336 C 0.07752 1.40776 0.08241
 C337 C 0.06680 1.31843 0.16563
 C338 C 0.07691 1.24638 0.25918
 H339 H 0.16771 1.35373 0.23067
 H340 H 0.12796 1.02694 0.49756
 H341 H 0.16244 1.04041 0.52458
 H342 H 0.09864 1.10990 0.41739
 H343 H 0.13713 1.42445 0.12633
 H344 H 0.10597 1.48761 0.02304
 H345 H 0.07014 1.46381 0.00822
 H346 H 0.06890 1.17655 0.32357
 C347 C 0.65461 0.15984 -0.23031
 C348 C 0.63479 0.18145 -0.22707
 C349 C 0.62512 0.23529 -0.33531
 C350 C 0.63488 0.25728 -0.44632
 C351 C 0.65431 0.23395 -0.45005
 C352 C 0.66448 0.18706 -0.34225
 C353 C 0.60577 0.26475 -0.33151
 C354 C 0.59542 0.23297 -0.22205
 C355 C 0.60445 0.16737 -0.11750
 C356 C 0.62425 0.14647 -0.11906
 C357 C 0.59335 0.11998 -0.01434
 C358 C 0.57410 0.14734 -0.00885
 C359 C 0.56544 0.22242 -0.10747
 C360 C 0.57608 0.26264 -0.21566
 H361 H 0.66221 0.12067 -0.14709
 H362 H 0.62744 0.29285 -0.53018
 H363 H 0.66157 0.25451 -0.53731
 H364 H 0.59870 0.31004 -0.41411
 H365 H 0.63113 0.09649 -0.03884
 H366 H 0.59959 0.06035 0.06136
 H367 H 0.56611 0.11134 0.07386
 H368 H 0.56941 0.31738 -0.29415
 C369 C 0.16485 0.81900 -0.27842
 C370 C 0.14469 0.81363 -0.25856
 C371 C 0.13381 0.69828 -0.22779
 C372 C 0.14344 0.59135 -0.20915
 C373 C 0.16329 0.59701 -0.23116
 C374 C 0.17402 0.70998 -0.27101
 C375 C 0.11356 0.69130 -0.21375
 C376 C 0.10382 0.79821 -0.23628
 C377 C 0.11465 0.91338 -0.26915
 C378 C 0.13507 0.92087 -0.27376
 C379 C 0.10476 1.01858 -0.30351
 C380 C 0.08447 1.01098 -0.30315
 C381 C 0.07365 0.89858 -0.26362
 C382 C 0.08339 0.79197 -0.22992
 H383 H 0.17316 0.90687 -0.30572
 H384 H 0.13558 0.50379 -0.17597
 H385 H 0.17027 0.51271 -0.21792
 H386 H 0.10531 0.60247 -0.18977
 H387 H 0.14333 1.00981 -0.29496
 H388 H 0.11271 1.10606 -0.33506
 H389 H 0.07724 1.09385 -0.33089
 H390 H 0.07506 0.70435 -0.20126
 C391 C 0.34303 0.71652 -0.37770
 C392 C 0.36299 0.71977 -0.34360
 C393 C 0.36897 0.73452 -0.22167
 C394 C 0.35487 0.73634 -0.13416
 C395 C 0.33508 0.73062 -0.16779
 C396 C 0.32907 0.72386 -0.29012
 C397 C 0.38890 0.74642 -0.18876
 C398 C 0.40297 0.73700 -0.27436
 C399 C 0.39695 0.71287 -0.39365
 C400 C 0.37704 0.70721 -0.42840
 C401 C 0.41089 0.68921 -0.47398
 C402 C 0.43057 0.68977 -0.43694
 C403 C 0.43674 0.71718 -0.32012
 C404 C 0.42288 0.74216 -0.23960
 H405 H 0.33833 0.70869 -0.47180
 H406 H 0.35920 0.74240 -0.03985
 H407 H 0.32446 0.73414 -0.09893
 H408 H 0.39342 0.76040 -0.09587
 H409 H 0.37245 0.68946 -0.51992
 H410 H 0.40647 0.66538 -0.56349
 H411 H 0.44097 0.66722 -0.49900
 H412 H 0.42744 0.75734 -0.14705
 C413 C -0.16508 1.17499 -0.34578
 C414 C -0.14484 1.19341 -0.32544
 C415 C -0.13734 1.25300 -0.22627
 C416 C -0.15022 1.29428 -0.15010
 C417 C -0.17037 1.27575 -0.17110
 C418 C -0.17800 1.21541 -0.26858
 C419 C -0.11710 1.27078 -0.20519
 C420 C -0.10427 1.22973 -0.28207
 C421 C -0.11181 1.16965 -0.38094
 C422 C -0.13203 1.15247 -0.40239
 C423 C -0.09899 1.12688 -0.45626
 C424 C -0.07887 1.14411 -0.43459
 C425 C -0.07117 1.20442 -0.33722
 C426 C -0.08399 1.24710 -0.26119
 H427 H -0.17077 1.13121 -0.42320
 H428 H -0.14472 1.34102 -0.07431
 H429 H -0.18000 1.30821 -0.11064
 H430 H -0.11135 1.31661 -0.12915
 H431 H -0.13779 1.10649 -0.47831
 H432 H -0.10450 1.07985 -0.53182
 H433 H -0.06931 1.10914 -0.49367
 H434 H -0.07823 1.29195 -0.18464
 C435 C 0.66264 0.73771 -0.32241
 C436 C 0.64223 0.72978 -0.32885
 C437 C 0.63172 0.64069 -0.39100
 C438 C 0.64179 0.56616 -0.45170
 C439 C 0.66206 0.57459 -0.44633
 C440 C 0.67295 0.65823 -0.37875
 C441 C 0.61132 0.62628 -0.39038
 C442 C 0.60124 0.70221 -0.33079
 C443 C 0.61172 0.79489 -0.27305
 C444 C 0.63213 0.80812 -0.27198
 C445 C 0.60164 0.87073 -0.21384
 C446 C 0.58141 0.85457 -0.20922
 C447 C 0.57092 0.75937 -0.26168
 C448 C 0.58087 0.68487 -0.32485
 H449 H 0.67019 0.80239 -0.26822
 H450 H 0.63390 0.50182 -0.50411
 H451 H 0.66903 0.51751 -0.49932
 H452 H 0.60332 0.55423 -0.43340
 H453 H 0.64013 0.87777 -0.22518
 H454 H 0.60951 0.93811 -0.16583
 H455 H 0.57411 0.91243 -0.15871
 H456 H 0.57287 0.61110 -0.36565
 C457 C 0.15788 1.27767 -0.26637
 C458 C 0.13810 1.28526 -0.25013
 C459 C 0.12947 1.22932 -0.13832
 C460 C 0.14063 1.16083 -0.04751
 C461 C 0.16036 1.15114 -0.06574
 C462 C 0.16944 1.21356 -0.17343
 C463 C 0.10977 1.24102 -0.12048
 C464 C 0.09851 1.30449 -0.21470
 C465 C 0.10707 1.35766 -0.32793
 C466 C 0.12688 1.34897 -0.34431
 C467 C 0.09546 1.41351 -0.42482
 C468 C 0.07535 1.41146 -0.41160
 C469 C 0.06681 1.35849 -0.29988
 C470 C 0.07847 1.30769 -0.20086
 H471 H 0.16418 1.32046 -0.35332
 H472 H 0.13414 1.11519 0.03789
 H473 H 0.16865 1.10019 0.00754
 H474 H 0.10305 1.19734 -0.03514
 H475 H 0.13352 1.39051 -0.43067
 H476 H 0.10176 1.45386 -0.51242
 H477 H 0.06637 1.44805 -0.48952
 H478 H 0.07164 1.26133 -0.11678
 C479 C 0.33555 0.22648 -0.14057
 C480 C 0.35561 0.21673 -0.12308
 C481 C 0.36239 0.10496 -0.06423
 C482 C 0.34886 0.00556 -0.02294
 C483 C 0.32889 0.01535 -0.04145
 C484 C 0.32211 0.12582 -0.10028
 C485 C 0.38252 0.09444 -0.04801
 C486 C 0.39592 0.19505 -0.08918
 C487 C 0.38896 0.30747 -0.14522
 C488 C 0.36893 0.31764 -0.16192
 C489 C 0.40214 0.40804 -0.18625
 C490 C 0.42206 0.39716 -0.17643
 C491 C 0.42926 0.28600 -0.12332
 C492 C 0.41616 0.18549 -0.07677
 H493 H 0.33039 0.31149 -0.18802
 H494 H 0.35373 -0.07986 0.02293
 H495 H 0.31873 -0.06367 -0.01090
 H496 H 0.38770 0.00809 -0.00474
 H497 H 0.36372 0.40384 -0.20614
 H498 H 0.39694 0.49364 -0.22944
 H499 H 0.43192 0.47608 -0.21049
 H500 H 0.42168 0.10003 -0.03385
 C501 C -0.15599 0.65276 -0.24717
 C502 C -0.13603 0.69098 -0.24325
 C503 C -0.12966 0.80797 -0.21263
 C504 C -0.14340 0.88375 -0.18501
 C505 C -0.16333 0.84849 -0.19723
 C506 C -0.16996 0.73355 -0.23166
 C507 C -0.10976 0.84904 -0.21458
 C508 C -0.09624 0.77563 -0.25023
 C509 C -0.10259 0.65801 -0.28009
 C510 C -0.12244 0.61598 -0.27532
 C511 C -0.08897 0.58461 -0.31465
 C512 C -0.06914 0.62592 -0.31647
 C513 C -0.06286 0.74281 -0.28842
 C514 C -0.07641 0.81784 -0.25628
 H515 H -0.16052 0.56167 -0.26800
 H516 H -0.13873 0.97288 -0.15960
 H517 H -0.17336 0.91452 -0.18514
 H518 H -0.10487 0.93928 -0.19165
 H519 H -0.12735 0.52648 -0.29971
 H520 H -0.09362 0.49518 -0.33925
 H521 H -0.05869 0.56676 -0.33923
 H522 H -0.07139 0.90709 -0.23155
 C523 C 0.34114 0.71928 0.22819
 C524 C 0.36145 0.74238 0.22377
 C525 C 0.37069 0.85373 0.25553
 C526 C 0.35948 0.93797 0.29515
 C527 C 0.33924 0.91489 0.29814
 C528 C 0.32991 0.80618 0.26334
 C529 C 0.39091 0.87954 0.24606
 C530 C 0.40198 0.79584 0.20420
 C531 C 0.39274 0.68359 0.17419
 C532 C 0.37259 0.65690 0.18575
 C533 C 0.40385 0.59952 0.13330
 C534 C 0.42398 0.62473 0.12556
 C535 C 0.43321 0.73451 0.15751
 C536 C 0.42226 0.82069 0.19533
 H537 H 0.33403 0.63485 0.20204
 H538 H 0.36638 1.02170 0.32327
 H539 H 0.33088 0.98130 0.32942
 H540 H 0.39798 0.96493 0.27028
 H541 H 0.36554 0.57097 0.16244
 H542 H 0.39701 0.51404 0.10854
 H543 H 0.43247 0.55753 0.09665
 H544 H 0.42956 0.90476 0.22099
 C545 C -0.16004 1.26322 0.26589
 C546 C -0.14116 1.24132 0.23494
 C547 C -0.13892 1.15282 0.15866
 C548 C -0.15542 1.09106 0.11110
 C549 C -0.17406 1.11511 0.13896
 C550 C -0.17714 1.19945 0.21991
 C551 C -0.12022 1.12847 0.12915
 C552 C -0.10358 1.19351 0.17332
 C553 C -0.10571 1.28406 0.24812
 C554 C -0.12446 1.30659 0.27941
 C555 C -0.08901 1.35044 0.29037
 C556 C -0.07041 1.32762 0.25858
 C557 C -0.06822 1.23709 0.18560
 C558 C -0.08483 1.17026 0.14303
 H559 H -0.16086 1.32675 0.33019
 H560 H -0.15396 1.02516 0.04962
 H561 H -0.18578 1.06805 0.09160
 H562 H -0.11865 1.05983 0.07072
 H563 H -0.12603 1.37548 0.33748
 H564 H -0.09033 1.42000 0.34789
 H565 H -0.05771 1.38045 0.29119
 H566 H -0.08313 1.10126 0.08536
 C567 C 0.65964 0.37718 0.20655
 C568 C 0.63946 0.35602 0.22202
 C569 C 0.62990 0.23822 0.21596
 C570 C 0.64058 0.14526 0.18995
 C571 C 0.66079 0.16453 0.18160
 C572 C 0.67070 0.27951 0.19472
 C573 C 0.61001 0.21383 0.24111
 C574 C 0.59951 0.30606 0.27118
 C575 C 0.60923 0.42284 0.28094
 C576 C 0.62903 0.44802 0.25364
 C577 C 0.59923 0.51073 0.32324
 C578 C 0.57941 0.48748 0.34637
 C579 C 0.56919 0.37561 0.32605
 C580 C 0.57946 0.28332 0.29271
 H581 H 0.66681 0.46773 0.21260
 H582 H 0.63333 0.05652 0.17975
 H583 H 0.66860 0.08671 0.17236
 H584 H 0.60288 0.12200 0.24295
 H585 H 0.63653 0.53675 0.26363
 H586 H 0.60679 0.59709 0.33904
 H587 H 0.57195 0.55963 0.37467
 H588 H 0.57176 0.19592 0.27925
 C589 C 0.16040 0.77381 0.29642
 C590 C 0.14013 0.76423 0.27633
 C591 C 0.13218 0.72130 0.16874
 C592 C 0.14437 0.68318 0.08719
 C593 C 0.16449 0.69498 0.10598
 C594 C 0.17270 0.74243 0.20943
 C595 C 0.11220 0.71951 0.14234
 C596 C 0.09998 0.76045 0.22188
 C597 C 0.10763 0.79991 0.33193
 C598 C 0.12771 0.79931 0.35990
 C599 C 0.09511 0.84374 0.40879
 C600 C 0.07552 0.85456 0.37335
 C601 C 0.06810 0.81729 0.26270
 C602 C 0.08030 0.76696 0.18962
 H603 H 0.16660 0.80641 0.37907
 H604 H 0.13820 0.64387 0.00936
 H605 H 0.17361 0.66873 0.03864
 H606 H 0.10626 0.69147 0.05713
 H607 H 0.13372 0.82942 0.44403
 H608 H 0.10061 0.87360 0.49376
 H609 H 0.06629 0.89357 0.43132
 H610 H 0.07473 0.73847 0.10363
   
