data_POSCAR
  _audit_creation_date              2014-09-24
  _audit_creation_method            'ToBaCCo'
  _symmetry_space_group_name_H-M    'P1'
  _symmetry_Int_Tables_number       1
  _symmetry_cell_setting            triclinic
  loop_
  _symmetry_equiv_pos_as_xyz
 x,y,z
_cell_length_a 54.6661
_cell_length_b 54.5846
_cell_length_c 20.4172
_cell_angle_alpha 90.009600
_cell_angle_beta 90.015100
_cell_angle_gamma 120.133700
loop_
  _atom_site_label
  _atom_site_type_symbol
  _atom_site_fract_x
  _atom_site_fract_y
  _atom_site_fract_z
C1 C 0.31225 0.51731 0.56018
 C2 C 0.32441 0.51853 0.49895
 C3 C 0.31113 0.51824 0.44058
 C4 C 0.28492 0.51731 0.44212
 C5 C 0.27212 0.51647 0.50324
 C6 C 0.28592 0.51668 0.56270
 C7 C 0.27161 0.51321 0.62215
 C8 C 0.24455 0.50951 0.62360
 C9 C 0.23046 0.50935 0.56574
 C10 C 0.24438 0.51280 0.50464
 C11 C 0.27047 0.51537 0.38394
 C12 C 0.24341 0.51157 0.38520
 C13 C 0.22984 0.51034 0.44474
 C14 C 0.20119 0.50381 0.44627
 C15 C 0.18780 0.49960 0.50709
 C16 C 0.20181 0.50281 0.56672
 H17 H 0.28056 0.51200 0.66837
 H18 H 0.23432 0.50526 0.67083
 H19 H 0.27959 0.51575 0.33663
 H20 H 0.23287 0.50823 0.33858
 H21 H 0.34420 0.51840 0.49644
 H22 H 0.16620 0.49550 0.50819
 C23 C 0.48983 -0.30521 0.56206
 C24 C 0.49345 -0.31611 0.50345
 C25 C 0.49124 -0.30578 0.44208
 C26 C 0.48541 -0.28312 0.43982
 C27 C 0.48206 -0.27153 0.49950
 C28 C 0.48403 -0.28280 0.56071
 C29 C 0.48146 -0.27056 0.61896
 C30 C 0.47772 -0.24717 0.61751
 C31 C 0.47644 -0.23512 0.55775
 C32 C 0.47836 -0.24753 0.49819
 C33 C 0.48531 -0.27007 0.38040
 C34 C 0.48141 -0.24677 0.37923
 C35 C 0.47823 -0.23499 0.43747
 C36 C 0.47589 -0.21036 0.43668
 C37 C 0.47376 -0.19856 0.49562
 C38 C 0.47446 -0.21028 0.55596
 H39 H 0.48291 -0.27861 0.66637
 H40 H 0.47630 -0.23831 0.66382
 H41 H 0.48918 -0.27700 0.33401
 H42 H 0.48155 -0.23764 0.33206
 H43 H 0.49769 -0.33350 0.50599
 H44 H 0.47313 -0.17901 0.49463
 C45 C 1.20845 0.68761 0.56274
 C46 C 1.19854 0.67355 0.50264
 C47 C 1.20824 0.68777 0.44311
 C48 C 1.23018 0.71631 0.44231
 C49 C 1.24198 0.73054 0.50213
 C50 C 1.23088 0.71630 0.56256
 C51 C 1.24303 0.73088 0.62110
 C52 C 1.26408 0.75918 0.62072
 C53 C 1.27546 0.77386 0.56167
 C54 C 1.26417 0.75938 0.50152
 C55 C 1.23995 0.73117 0.38316
 C56 C 1.26117 0.75944 0.38249
 C57 C 1.27421 0.77389 0.44081
 C58 C 1.29532 0.80306 0.44049
 C59 C 1.30491 0.81715 0.50067
 C60 C 1.29631 0.80309 0.56105
 H61 H 1.23627 0.72063 0.66826
 H62 H 1.27076 0.76947 0.66779
 H63 H 1.23097 0.72114 0.33665
 H64 H 1.26657 0.77000 0.33554
 H65 H 1.18081 0.65199 0.50184
 H66 H 1.32174 0.83914 0.50046
 C67 C 0.79805 0.48980 0.55907
 C68 C 0.81016 0.49007 0.49834
 C69 C 0.79691 0.48870 0.43906
 C70 C 0.77001 0.48634 0.43926
 C71 C 0.75697 0.48587 0.49994
 C72 C 0.77092 0.48751 0.56016
 C73 C 0.75866 0.48973 0.61881
 C74 C 0.73316 0.48962 0.61891
 C75 C 0.71867 0.48750 0.56033
 C76 C 0.73094 0.48595 0.50007
 C77 C 0.75656 0.48601 0.38038
 C78 C 0.73115 0.48596 0.38058
 C79 C 0.71833 0.48653 0.43964
 C80 C 0.69397 0.48917 0.43965
 C81 C 0.68231 0.49092 0.49886
 C82 C 0.69390 0.48991 0.55948
 H83 H 0.76919 0.49290 0.66540
 H84 H 0.72574 0.49264 0.66559
 H85 H 0.76590 0.48655 0.33335
 H86 H 0.72203 0.48629 0.33374
 H87 H 0.83071 0.49151 0.49686
 H88 H 0.66359 0.49304 0.49747
 C89 C 0.52522 0.21119 0.56146
 C90 C 0.52806 0.20077 0.50070
 C91 C 0.52421 0.21130 0.44164
 C92 C 0.51963 0.23453 0.44200
 C93 C 0.51837 0.24661 0.50250
 C94 C 0.52099 0.23489 0.56248
 C95 C 0.52075 0.24811 0.62155
 C96 C 0.51608 0.27094 0.62208
 C97 C 0.51248 0.28218 0.56344
 C98 C 0.51406 0.27021 0.50298
 C99 C 0.51638 0.24602 0.38328
 C100 C 0.51196 0.26899 0.38377
 C101 C 0.51097 0.28158 0.44299
 C102 C 0.50634 0.30485 0.44401
 C103 C 0.50410 0.31586 0.50410
 C104 C 0.50709 0.30493 0.56351
 H105 H 0.52453 0.24119 0.66815
 H106 H 0.51548 0.27980 0.66907
 H107 H 0.51736 0.23741 0.33623
 H108 H 0.50913 0.27662 0.33712
 H109 H 0.53035 0.18214 0.49902
 H110 H 0.50026 0.33353 0.50469
 C111 C 0.69433 0.20002 0.55887
 C112 C 0.68392 0.18706 0.49791
 C113 C 0.69525 0.20091 0.43873
 C114 C 0.71806 0.22906 0.43934
 C115 C 0.72919 0.24283 0.50026
 C116 C 0.71741 0.22837 0.56033
 C117 C 0.73061 0.24185 0.61946
 C118 C 0.75391 0.26913 0.62003
 C119 C 0.76555 0.28383 0.56144
 C120 C 0.75314 0.27063 0.50101
 C121 C 0.73081 0.24336 0.38083
 C122 C 0.75400 0.27067 0.38175
 C123 C 0.76565 0.28456 0.44122
 C124 C 0.79009 0.31172 0.44245
 C125 C 0.80151 0.32482 0.50237
 C126 C 0.78998 0.31104 0.56161
 H127 H 0.72376 0.23124 0.66612
 H128 H 0.76307 0.27844 0.66698
 H129 H 0.72335 0.23342 0.33358
 H130 H 0.76300 0.28069 0.33526
 H131 H 0.66586 0.16572 0.49615
 H132 H 0.82097 0.34516 0.50286
 O133 O 0.95904 0.43700 0.12292
 O134 O 0.92905 0.44512 0.05990
 C135 C 0.93402 0.43200 0.10646
 O136 O 1.04288 0.56237 0.11479
 O137 O 1.07294 0.55246 0.05740
 C138 C 1.06799 0.56706 0.10003
 O139 O 0.96368 0.52400 0.11898
 O140 O 0.93132 0.48688 0.05664
 C141 C 0.93788 0.50564 0.10244
 O142 O 1.03786 0.47177 0.11974
 O143 O 1.07064 0.50949 0.05961
 C144 C 1.06378 0.49021 0.10427
 Zr145 Zr 0.99907 0.46672 0.08499
 O146 O 1.00140 0.46732 0.18851
 O147 O 0.99399 0.42562 0.08284
 Zr148 Zr 1.00261 0.53049 0.08159
 O149 O 1.00523 0.53412 0.18488
 O150 O 1.00175 0.56877 0.07481
 O151 O 0.97571 0.48715 0.09595
 O152 O 1.02513 0.50986 0.09616
 O153 O 1.03855 0.47020 -0.11048
 O154 O 1.07094 0.50870 -0.05169
 C155 C 1.06436 0.48883 -0.09462
 O156 O 0.96448 0.52241 -0.12259
 O157 O 0.93162 0.48614 -0.05924
 C158 C 0.93855 0.50431 -0.10654
 O159 O 1.04354 0.56128 -0.11530
 O160 O 1.07313 0.55153 -0.05514
 C161 C 1.06842 0.56572 -0.09931
 O162 O 0.95971 0.43575 -0.11796
 O163 O 0.92944 0.44454 -0.05799
 C164 C 0.93462 0.43104 -0.10315
 Zr165 Zr 0.99956 0.46565 -0.07902
 O166 O 1.00269 0.46477 -0.18220
 O167 O 0.99425 0.42452 -0.07249
 Zr168 Zr 1.00316 0.52948 -0.08244
 O169 O 1.00658 0.53164 -0.18579
 O170 O 1.00212 0.56775 -0.08047
 Zr171 Zr 0.95867 0.47859 0.00043
 Zr172 Zr 1.04334 0.51744 0.00215
 O173 O 1.02572 0.50865 -0.09261
 O174 O 0.97634 0.48597 -0.09438
 O175 O 1.02456 0.47298 0.00377
 O176 O 0.97823 0.52306 -0.00118
 O177 O 0.97412 0.45022 0.00270
 O178 O 1.02872 0.54660 -0.00013
 H179 H 1.03732 0.51577 0.13563
 H180 H 0.96607 0.53172 -0.00224
 H181 H 1.03817 0.51405 -0.13156
 H182 H 0.96030 0.42962 0.00309
 H183 H 1.01980 0.58320 0.05490
 H184 H 1.01963 0.58226 -0.05876
 H185 H 0.99206 0.51305 -0.20319
 H186 H 0.98974 0.47067 -0.20084
 H187 H 1.01132 0.42627 -0.05122
 H188 H 1.01118 0.42715 0.06279
 H189 H 0.98776 0.47273 0.20509
 H190 H 0.99097 0.51557 0.20301
 O191 O 0.52449 0.56305 -0.11989
 O192 O 0.48710 0.55741 -0.05748
 C193 C 0.50566 0.56979 -0.10363
 O194 O 0.47519 0.43589 -0.11041
 O195 O 0.51472 0.44367 -0.05368
 C196 C 0.49456 0.42968 -0.09563
 O197 O 0.43928 0.47860 -0.11697
 O198 O 0.44592 0.51684 -0.05636
 C199 C 0.43303 0.49787 -0.10171
 O200 O 0.56459 0.52431 -0.11549
 O201 O 0.55709 0.48547 -0.05619
 C202 C 0.57060 0.50483 -0.10021
 Zr203 Zr 0.53218 0.53154 -0.08201
 O204 O 0.53366 0.53030 -0.18551
 O205 O 0.56975 0.57157 -0.08090
 Zr206 Zr 0.46985 0.46983 -0.07891
 O207 O 0.46829 0.46570 -0.18210
 O208 O 0.43039 0.43223 -0.06860
 O209 O 0.48861 0.51344 -0.09355
 O210 O 0.51286 0.48814 -0.09310
 O211 O 0.56655 0.52591 0.11355
 O212 O 0.55785 0.48620 0.05609
 C213 C 0.57215 0.50615 0.09834
 O214 O 0.44002 0.47943 0.12269
 O215 O 0.44675 0.51745 0.06094
 C216 C 0.43400 0.49884 0.10683
 O217 O 0.47645 0.43720 0.11690
 O218 O 0.51523 0.44431 0.05810
 C219 C 0.49556 0.43073 0.10139
 O220 O 0.52587 0.56392 0.11989
 O221 O 0.48791 0.55819 0.05971
 C222 C 0.50706 0.57082 0.10478
 Zr223 Zr 0.53338 0.53242 0.08203
 O224 O 0.53652 0.53240 0.18536
 O225 O 0.57078 0.57252 0.07745
 Zr226 Zr 0.47094 0.47091 0.08482
 O227 O 0.47283 0.46976 0.18829
 O228 O 0.43066 0.43372 0.08469
 Zr229 Zr 0.48079 0.52295 0.00163
 Zr230 Zr 0.52235 0.47960 0.00109
 O231 O 0.51419 0.48921 0.09559
 O232 O 0.48994 0.51464 0.09672
 O233 O 0.55014 0.52378 -0.00044
 O234 O 0.45372 0.47874 0.00307
 O235 O 0.52508 0.54911 0.00004
 O236 O 0.47813 0.45265 0.00299
 H237 H 0.51852 0.48147 -0.13228
 H238 H 0.43300 0.47106 0.00353
 H239 H 0.52052 0.48303 0.13449
 H240 H 0.53322 0.56994 -0.00041
 H241 H 0.42357 0.42553 -0.11365
 H242 H 0.43157 0.42015 0.05405
 H243 H 0.47543 0.48790 0.20516
 H244 H 0.51808 0.52835 0.20343
 H245 H 0.58524 0.57008 0.05398
 H246 H 0.58459 0.56925 -0.05896
 H247 H 0.51537 0.52725 -0.20235
 H248 H 0.47513 0.48480 -0.20053
 O249 O 0.47938 0.04206 0.12188
 O250 O 0.51820 0.07156 0.05984
 C251 C 0.50003 0.06692 0.10598
 O252 O 0.51840 -0.04408 0.11203
 O253 O 0.47769 -0.07342 0.05545
 C254 C 0.49741 -0.06895 0.09723
 O255 O 0.56060 0.03503 0.11877
 O256 O 0.55703 0.06813 0.05691
 C257 C 0.56879 0.06104 0.10255
 O258 O 0.43336 -0.03658 0.11706
 O259 O 0.43732 -0.06995 0.05720
 C260 C 0.42507 -0.06265 0.10129
 Zr261 Zr 0.46820 0.00179 0.08371
 O262 O 0.46655 -0.00100 0.18719
 O263 O 0.43298 0.00806 0.08241
 Zr264 Zr 0.52732 -0.00349 0.08078
 O265 O 0.52818 -0.00635 0.18404
 O266 O 0.56482 -0.00537 0.07068
 O267 O 0.51203 0.02426 0.09535
 O268 O 0.48405 -0.02528 0.09466
 O269 O 0.43208 -0.03666 -0.11295
 O270 O 0.43677 -0.06995 -0.05456
 C271 C 0.42410 -0.06271 -0.09760
 O272 O 0.55908 0.03497 -0.12183
 O273 O 0.55639 0.06820 -0.05849
 C274 C 0.56750 0.06102 -0.10546
 O275 O 0.51670 -0.04410 -0.11585
 O276 O 0.47694 -0.07349 -0.05659
 C277 C 0.49598 -0.06903 -0.10037
 O278 O 0.47848 0.04208 -0.11943
 O279 O 0.51790 0.07146 -0.05877
 C280 C 0.49959 0.06681 -0.10445
 Zr281 Zr 0.46710 0.00180 -0.08040
 O282 O 0.46316 -0.00095 -0.18360
 O283 O 0.43207 0.00826 -0.07352
 Zr284 Zr 0.52622 -0.00351 -0.08315
 O285 O 0.52473 -0.00658 -0.18660
 O286 O 0.56465 -0.00409 -0.08188
 Zr287 Zr 0.52119 0.04156 0.00015
 Zr288 Zr 0.47324 -0.04318 0.00037
 O289 O 0.48281 -0.02525 -0.09405
 O290 O 0.51077 0.02419 -0.09497
 O291 O 0.44864 -0.02332 0.00192
 O292 O 0.54507 0.02104 -0.00139
 O293 O 0.47756 0.02712 0.00172
 O294 O 0.51680 -0.02942 -0.00129
 H295 H 0.47734 -0.03772 0.13372
 H296 H 0.56599 0.03272 -0.00207
 H297 H 0.47565 -0.03763 -0.13315
 H298 H 0.47141 0.04139 0.00201
 H299 H 0.57131 -0.00577 0.11578
 H300 H 0.56190 -0.01979 -0.05283
 H301 H 0.52272 0.00926 -0.20376
 H302 H 0.48233 0.01088 -0.20195
 H303 H 0.41615 -0.00897 -0.05404
 H304 H 0.41732 -0.00830 0.05961
 H305 H 0.48545 0.01308 0.20399
 H306 H 0.52398 0.00792 0.20227
 C307 C 1.14899 0.49674 0.28435
 C308 C 1.13945 0.47531 0.33265
 C309 C 1.15725 0.47749 0.38440
 C310 C 1.18487 0.50075 0.38965
 C311 C 1.19448 0.52182 0.34104
 C312 C 1.17687 0.51983 0.28900
 C313 C 1.12846 0.49437 0.23227
 C314 C 1.13531 0.51486 0.18287
 C315 C 1.11466 0.51278 0.13905
 C316 C 1.08668 0.49023 0.14330
 C317 C 1.08012 0.46891 0.18990
 C318 C 1.10058 0.47088 0.23435
 C319 C 1.11193 0.45208 0.33024
 C320 C 1.09291 0.44992 0.28219
 H321 H 1.10475 0.43557 0.36701
 H322 H 1.07163 0.43183 0.28340
 H323 H 1.14951 0.46090 0.42116
 H324 H 1.21522 0.54057 0.34481
 H325 H 1.12045 0.52941 0.10321
 H326 H 1.05870 0.45118 0.19341
 H327 H 1.18525 0.53692 0.25397
 H328 H 1.15627 0.53299 0.17819
 C329 C 0.50499 0.65195 0.28420
 C330 C 0.48108 0.65553 0.28339
 C331 C 0.47715 0.67090 0.33383
 C332 C 0.49652 0.68223 0.38618
 C333 C 0.52026 0.67869 0.38581
 C334 C 0.52461 0.66410 0.33565
 C335 C 0.50751 0.63380 0.23267
 C336 C 0.53060 0.62922 0.22983
 C337 C 0.53066 0.60974 0.18619
 C338 C 0.50785 0.59427 0.14342
 C339 C 0.48573 0.60038 0.14190
 C340 C 0.48539 0.61999 0.18648
 C341 C 0.46075 0.64275 0.23378
 C342 C 0.46285 0.62535 0.18646
 H343 H 0.44254 0.64564 0.23249
 H344 H 0.44638 0.61565 0.14981
 H345 H 0.45814 0.67245 0.33449
 H346 H 0.53569 0.68730 0.42504
 H347 H 0.54853 0.60631 0.18739
 H348 H 0.46834 0.58919 0.10797
 H349 H 0.54310 0.66196 0.33950
 H350 H 0.54867 0.63999 0.26167
 C351 C 0.34179 -0.14641 0.27752
 C352 C 0.33003 -0.13612 0.32426
 C353 C 0.31360 -0.15347 0.37592
 C354 C 0.30842 -0.18132 0.38282
 C355 C 0.31953 -0.19174 0.33527
 C356 C 0.33587 -0.17462 0.28328
 C357 C 0.36113 -0.12628 0.22611
 C358 C 0.37481 -0.13386 0.17839
 C359 C 0.39453 -0.11354 0.13543
 C360 C 0.40115 -0.08518 0.13908
 C361 C 0.38635 -0.07788 0.18381
 C362 C 0.36669 -0.09800 0.22727
 C363 C 0.33545 -0.10823 0.32070
 C364 C 0.35340 -0.08958 0.27331
 H365 H 0.32622 -0.10046 0.35620
 H366 H 0.35747 -0.06799 0.27372
 H367 H 0.30498 -0.14511 0.41162
 H368 H 0.31695 -0.21267 0.34019
 H369 H 0.40525 -0.11993 0.10075
 H370 H 0.39088 -0.05616 0.18667
 H371 H 0.34439 -0.18359 0.24942
 H372 H 0.37110 -0.15517 0.17440
 C373 C 0.85032 0.49799 0.27519
 C374 C 0.85852 0.51994 0.32185
 C375 C 0.83992 0.51735 0.37201
 C376 C 0.81362 0.49260 0.37878
 C377 C 0.80540 0.47073 0.33300
 C378 C 0.82340 0.47346 0.28126
 C379 C 0.87153 0.50105 0.22451
 C380 C 0.86519 0.48146 0.17331
 C381 C 0.88646 0.48387 0.13127
 C382 C 0.91461 0.50557 0.13986
 C383 C 0.92063 0.52639 0.18749
 C384 C 0.89935 0.52445 0.22916
 C385 C 0.88579 0.54362 0.32063
 C386 C 0.90595 0.54556 0.27610
 H387 H 0.89202 0.56038 0.35647
 H388 H 0.92712 0.56376 0.27885
 H389 H 0.84648 0.53404 0.40826
 H390 H 0.78542 0.45121 0.33852
 H391 H 0.88093 0.46820 0.09307
 H392 H 0.94209 0.54383 0.19341
 H393 H 0.81640 0.45573 0.24827
 H394 H 0.84402 0.46405 0.16535
 C395 C 0.50083 0.35051 0.27814
 C396 C 0.47746 0.33559 0.32075
 C397 C 0.47900 0.31960 0.37264
 C398 C 0.50372 0.31855 0.38381
 C399 C 0.52677 0.33297 0.34140
 C400 C 0.52534 0.34863 0.28885
 C401 C 0.49894 0.36892 0.22607
 C402 C 0.52091 0.38475 0.18110
 C403 C 0.51914 0.40367 0.13784
 C404 C 0.49555 0.40740 0.13858
 C405 C 0.47279 0.39028 0.18003
 C406 C 0.47430 0.37123 0.22354
 C407 C 0.45309 0.33762 0.31311
 C408 C 0.45163 0.35521 0.26586
 H409 H 0.43517 0.32608 0.34551
 H410 H 0.43263 0.35673 0.26329
 H411 H 0.46130 0.30869 0.40598
 H412 H 0.54618 0.33270 0.35010
 H413 H 0.53674 0.41611 0.10540
 H414 H 0.45414 0.39247 0.18024
 H415 H 0.54390 0.35975 0.25855
 H416 H 0.53985 0.38328 0.17944
 C417 C 0.65063 0.14788 0.27440
 C418 C 0.66430 0.13944 0.32052
 C419 C 0.68071 0.15797 0.37057
 C420 C 0.68256 0.18438 0.37800
 C421 C 0.66886 0.19274 0.33282
 C422 C 0.65335 0.17488 0.28104
 C423 C 0.63204 0.12679 0.22389
 C424 C 0.61905 0.13351 0.17293
 C425 C 0.59967 0.11238 0.13120
 C426 C 0.59246 0.08400 0.13985
 C427 C 0.60703 0.07757 0.18712
 C428 C 0.62692 0.09873 0.22846
 C429 C 0.66010 0.11194 0.31906
 C430 C 0.64132 0.09183 0.27494
 H431 H 0.67053 0.10548 0.35454
 H432 H 0.63783 0.07048 0.27762
 H433 H 0.69079 0.15124 0.40639
 H434 H 0.66938 0.21271 0.33897
 H435 H 0.58970 0.11821 0.09331
 H436 H 0.60244 0.05592 0.19296
 H437 H 0.64259 0.18201 0.24866
 H438 H 0.62338 0.15486 0.16495
 C439 C 0.51587 0.15675 -0.28046
 C440 C 0.53988 0.16755 -0.32166
 C441 C 0.54329 0.18623 -0.37264
 C442 C 0.52375 0.19553 -0.38200
 C443 C 0.50087 0.18605 -0.33833
 C444 C 0.49695 0.16696 -0.28833
 C445 C 0.51142 0.13451 -0.23122
 C446 C 0.48623 0.11930 -0.19470
 C447 C 0.48246 0.09749 -0.15249
 C448 C 0.50397 0.09098 -0.14453
 C449 C 0.52917 0.10611 -0.17974
 C450 C 0.53280 0.12727 -0.22412
 C451 C 0.56018 0.15941 -0.31227
 C452 C 0.55700 0.14013 -0.26362
 H453 H 0.57881 0.16802 -0.34314
 H454 H 0.57324 0.13442 -0.25852
 H455 H 0.56133 0.19369 -0.40522
 H456 H 0.48494 0.19210 -0.34511
 H457 H 0.46268 0.08557 -0.12627
 H458 H 0.54527 0.10020 -0.17535
 H459 H 0.47875 0.16010 -0.25707
 H460 H 0.46889 0.12329 -0.19962
 C461 C 0.64953 0.49760 -0.27847
 C462 C 0.66031 0.51824 -0.32873
 C463 C 0.67551 0.51574 -0.38083
 C464 C 0.68115 0.49334 -0.38371
 C465 C 0.67168 0.47358 -0.33223
 C466 C 0.65597 0.47559 -0.28034
 C467 C 0.63111 0.49986 -0.22691
 C468 C 0.61700 0.47922 -0.17790
 C469 C 0.59826 0.48135 -0.13454
 C470 C 0.59327 0.50415 -0.13878
 C471 C 0.60833 0.52542 -0.18531
 C472 C 0.62662 0.52323 -0.22973
 C473 C 0.65553 0.54112 -0.32762
 C474 C 0.63933 0.54374 -0.27874
 H475 H 0.66417 0.55711 -0.36568
 H476 H 0.63593 0.56165 -0.28063
 H477 H 0.68314 0.53145 -0.41963
 H478 H 0.67525 0.45578 -0.33369
 H479 H 0.58701 0.46464 -0.09904
 H480 H 0.60490 0.54328 -0.18919
 H481 H 0.64867 0.45951 -0.24287
 H482 H 0.61947 0.46088 -0.17361
 C483 C 0.84577 0.35363 -0.27761
 C484 C 0.82550 0.36123 -0.29648
 C485 C 0.80637 0.34651 -0.34741
 C486 C 0.80685 0.32394 -0.37871
 C487 C 0.82568 0.31533 -0.35745
 C488 C 0.84489 0.32989 -0.30734
 C489 C 0.86781 0.37174 -0.22833
 C490 C 0.89100 0.36822 -0.21291
 C491 C 0.91225 0.38705 -0.17078
 C492 C 0.91065 0.40947 -0.14185
 C493 C 0.88716 0.41258 -0.15489
 C494 C 0.86619 0.39442 -0.19917
 C495 C 0.82489 0.38379 -0.26535
 C496 C 0.84450 0.39971 -0.21690
 H497 H 0.80916 0.38938 -0.27903
 H498 H 0.84328 0.41710 -0.19470
 H499 H 0.79162 0.35300 -0.36396
 H500 H 0.82611 0.29783 -0.38135
 H501 H 0.93023 0.38429 -0.16148
 H502 H 0.88605 0.43013 -0.13351
 H503 H 0.85912 0.32251 -0.29348
 H504 H 0.89370 0.35171 -0.23455
 C505 C 0.48240 -0.15757 -0.27932
 C506 C 0.50594 -0.15116 -0.31974
 C507 C 0.50321 -0.16920 -0.37159
 C508 C 0.47726 -0.19351 -0.38469
 C509 C 0.45401 -0.20034 -0.34434
 C510 C 0.45651 -0.18264 -0.29196
 C511 C 0.48588 -0.13663 -0.22707
 C512 C 0.46383 -0.14050 -0.18472
 C513 C 0.46755 -0.11915 -0.14093
 C514 C 0.49329 -0.09344 -0.13830
 C515 C 0.51584 -0.09014 -0.17751
 C516 C 0.51234 -0.11133 -0.22170
 C517 C 0.53186 -0.12633 -0.30972
 C518 C 0.53496 -0.10680 -0.26193
 H519 H 0.54989 -0.12157 -0.34044
 H520 H 0.55528 -0.08754 -0.25732
 H521 H 0.52112 -0.16394 -0.40328
 H522 H 0.43379 -0.21905 -0.35430
 H523 H 0.44985 -0.12237 -0.11094
 H524 H 0.53599 -0.07055 -0.17536
 H525 H 0.43786 -0.18860 -0.26300
 H526 H 0.44337 -0.15952 -0.18573
 C527 C 0.35457 0.50294 -0.28357
 C528 C 0.35013 0.52633 -0.28058
 C529 C 0.33467 0.53043 -0.33055
 C530 C 0.32478 0.51213 -0.38505
 C531 C 0.32988 0.48939 -0.38779
 C532 C 0.34423 0.48466 -0.33784
 C533 C 0.37189 0.49967 -0.23130
 C534 C 0.37571 0.47610 -0.22849
 C535 C 0.39455 0.47532 -0.18418
 C536 C 0.41009 0.49786 -0.14071
 C537 C 0.40446 0.52035 -0.13884
 C538 C 0.38534 0.52131 -0.18387
 C539 C 0.36229 0.54604 -0.22945
 C540 C 0.37984 0.54380 -0.18271
 H541 H 0.35898 0.56399 -0.22678
 H542 H 0.38932 0.55998 -0.14526
 H543 H 0.33179 0.54868 -0.32900
 H544 H 0.32263 0.47502 -0.42925
 H545 H 0.39745 0.45709 -0.18545
 H546 H 0.41554 0.53744 -0.10407
 H547 H 0.34776 0.46707 -0.34408
 H548 H 0.36468 0.45813 -0.26061
 C549 C 1.15602 0.64209 -0.27666
 C550 C 1.16870 0.62998 -0.31539
 C551 C 1.18647 0.64534 -0.36774
 C552 C 1.19325 0.67340 -0.38026
 C553 C 1.18192 0.68586 -0.33902
 C554 C 1.16356 0.67047 -0.28805
 C555 C 1.13471 0.62390 -0.22608
 C556 C 1.11741 0.63220 -0.19279
 C557 C 1.09629 0.61357 -0.14994
 C558 C 1.09261 0.58671 -0.13776
 C559 C 1.11013 0.57848 -0.16911
 C560 C 1.13047 0.59645 -0.21464
 C561 C 1.16345 0.60260 -0.30188
 C562 C 1.14528 0.58645 -0.25149
 H563 H 1.17355 0.59348 -0.33072
 H564 H 1.14188 0.56536 -0.24307
 H565 H 1.19533 0.63554 -0.39858
 H566 H 1.18604 0.70715 -0.34833
 H567 H 1.08252 0.61997 -0.12690
 H568 H 1.10652 0.55727 -0.16149
 H569 H 1.15525 0.68105 -0.25865
 H570 H 1.11906 0.65249 -0.20119
 C571 C 0.85197 0.49838 -0.28197
 C572 C 0.86178 0.51779 -0.33473
 C573 C 0.84331 0.51542 -0.38487
 C574 C 0.81479 0.49381 -0.38465
 C575 C 0.80478 0.47498 -0.33134
 C576 C 0.82309 0.47723 -0.28056
 C577 C 0.87318 0.50061 -0.23190
 C578 C 0.86609 0.48218 -0.17784
 C579 C 0.88712 0.48403 -0.13551
 C580 C 0.91571 0.50414 -0.14621
 C581 C 0.92268 0.52343 -0.19794
 C582 C 0.90185 0.52180 -0.24056
 C583 C 0.89023 0.53898 -0.33871
 C584 C 0.90985 0.54090 -0.29275
 H585 H 0.89761 0.55394 -0.37898
 H586 H 0.93176 0.55728 -0.29890
 H587 H 0.85132 0.53038 -0.42522
 H588 H 0.78315 0.45755 -0.33058
 H589 H 0.88099 0.46925 -0.09510
 H590 H 0.94458 0.53940 -0.20644
 H591 H 0.81445 0.46175 -0.24180
 H592 H 0.84456 0.46598 -0.16801
 C593 C 0.49698 0.34786 -0.27155
 C594 C 0.52392 0.35145 -0.28623
 C595 C 0.52696 0.33620 -0.33806
 C596 C 0.50350 0.31760 -0.37580
 C597 C 0.47675 0.31334 -0.35995
 C598 C 0.47341 0.32807 -0.30821
 C599 C 0.49501 0.36642 -0.22008
 C600 C 0.46953 0.36577 -0.20504
 C601 C 0.46929 0.38553 -0.16217
 C602 C 0.49428 0.40615 -0.13217
 C603 C 0.51947 0.40588 -0.14345
 C604 C 0.52011 0.38653 -0.18792
 C605 C 0.54777 0.37098 -0.25080
 C606 C 0.54590 0.38809 -0.20260
 H607 H 0.56835 0.37357 -0.26160
 H608 H 0.56511 0.40339 -0.17781
 H609 H 0.54770 0.33963 -0.35088
 H610 H 0.45849 0.29906 -0.38900
 H611 H 0.44951 0.38512 -0.15379
 H612 H 0.53894 0.42184 -0.12077
 H613 H 0.45233 0.32416 -0.29905
 H614 H 0.44968 0.35082 -0.22735
 C615 C 0.64863 0.14689 -0.28118
 C616 C 0.65934 0.13713 -0.33165
 C617 C 0.67553 0.15537 -0.38217
 C618 C 0.68130 0.18353 -0.38466
 C619 C 0.67104 0.19335 -0.33396
 C620 C 0.65502 0.17535 -0.28275
 C621 C 0.62982 0.12596 -0.23045
 C622 C 0.61784 0.13317 -0.17803
 C623 C 0.59858 0.11231 -0.13549
 C624 C 0.59067 0.08375 -0.14435
 C625 C 0.60382 0.07672 -0.19395
 C626 C 0.62316 0.09743 -0.23676
 C627 C 0.65305 0.10893 -0.33305
 C628 C 0.63519 0.08946 -0.28686
 H629 H 0.66143 0.10158 -0.37160
 H630 H 0.63034 0.06767 -0.29116
 H631 H 0.68347 0.14746 -0.42059
 H632 H 0.67409 0.21455 -0.33561
 H633 H 0.58908 0.11846 -0.09707
 H634 H 0.59838 0.05485 -0.20075
 H635 H 0.64709 0.18385 -0.24617
 H636 H 0.62259 0.15464 -0.16988
 C637 C 1.15044 0.49423 -0.26915
 C638 C 1.14090 0.47295 -0.31788
 C639 C 1.15859 0.47546 -0.37006
 C640 C 1.18608 0.49889 -0.37531
 C641 C 1.19593 0.51951 -0.32564
 C642 C 1.17840 0.51723 -0.27320
 C643 C 1.12977 0.49190 -0.21760
 C644 C 1.13643 0.51253 -0.16863
 C645 C 1.11554 0.51073 -0.12607
 C646 C 1.08751 0.48833 -0.13126
 C647 C 1.08118 0.46676 -0.17696
 C648 C 1.10186 0.46849 -0.22027
 C649 C 1.11340 0.44969 -0.31578
 C650 C 1.09430 0.44749 -0.26796
 H651 H 1.10626 0.43326 -0.35276
 H652 H 1.07301 0.42944 -0.26953
 H653 H 1.15078 0.45917 -0.40758
 H654 H 1.21669 0.53825 -0.32914
 H655 H 1.12115 0.52757 -0.09084
 H656 H 1.05972 0.44913 -0.18108
 H657 H 1.18685 0.53408 -0.23752
 H658 H 1.15738 0.53065 -0.16364
 C659 C 0.50178 0.65228 -0.27527
 C660 C 0.47484 0.64931 -0.28661
 C661 C 0.47123 0.66466 -0.33733
 C662 C 0.49420 0.68294 -0.37678
 C663 C 0.52108 0.68706 -0.36311
 C664 C 0.52495 0.67212 -0.31275
 C665 C 0.50414 0.63315 -0.22617
 C666 C 0.52930 0.63246 -0.21648
 C667 C 0.52981 0.61244 -0.17506
 C668 C 0.50544 0.59282 -0.14128
 C669 C 0.48061 0.59422 -0.14788
 C670 C 0.47963 0.61380 -0.19104
 C671 C 0.45158 0.63034 -0.24884
 C672 C 0.45402 0.61323 -0.20154
 H673 H 0.43104 0.62831 -0.25677
 H674 H 0.43534 0.59865 -0.17428
 H675 H 0.45040 0.66144 -0.34821
 H676 H 0.53899 0.70118 -0.39327
 H677 H 0.54934 0.61202 -0.17034
 H678 H 0.46165 0.57909 -0.12217
 H679 H 0.54609 0.67590 -0.30533
 H680 H 0.54863 0.64653 -0.24190
 C681 C 0.34261 -0.14634 -0.27596
 C682 C 0.32999 -0.13648 -0.32150
 C683 C 0.31390 -0.15377 -0.37361
 C684 C 0.30991 -0.18112 -0.38193
 C685 C 0.32230 -0.19093 -0.33627
 C686 C 0.33825 -0.17391 -0.28385
 C687 C 0.36124 -0.12635 -0.22359
 C688 C 0.37538 -0.13369 -0.17656
 C689 C 0.39464 -0.11339 -0.13300
 C690 C 0.40027 -0.08533 -0.13516
 C691 C 0.38485 -0.07838 -0.17882
 C692 C 0.36564 -0.09849 -0.22301
 C693 C 0.33416 -0.10907 -0.31617
 C694 C 0.35168 -0.09045 -0.26811
 H695 H 0.32430 -0.10163 -0.35080
 H696 H 0.35484 -0.06920 -0.26718
 H697 H 0.30448 -0.14584 -0.40827
 H698 H 0.32079 -0.21134 -0.34276
 H699 H 0.40594 -0.11948 -0.09928
 H700 H 0.38864 -0.05689 -0.18043
 H701 H 0.34765 -0.18244 -0.25130
 H702 H 0.37244 -0.15472 -0.17365
 C703 C 0.48744 -0.15686 0.27187
 C704 C 0.45979 -0.17645 0.29394
 C705 C 0.45595 -0.19476 0.34630
 C706 C 0.47932 -0.19407 0.37625
 C707 C 0.50651 -0.17582 0.35228
 C708 C 0.51060 -0.15747 0.30053
 C709 C 0.49086 -0.13560 0.22087
 C710 C 0.51751 -0.11322 0.20133
 C711 C 0.51958 -0.09225 0.15883
 C712 C 0.49522 -0.09335 0.13356
 C713 C 0.46861 -0.11631 0.14985
 C714 C 0.46622 -0.13700 0.19446
 C715 C 0.43627 -0.17712 0.26476
 C716 C 0.43940 -0.15805 0.21549
 H717 H 0.41509 -0.19236 0.28094
 H718 H 0.42054 -0.15914 0.19528
 H719 H 0.43491 -0.20904 0.36499
 H720 H 0.52470 -0.17521 0.37512
 H721 H 0.54034 -0.07469 0.14691
 H722 H 0.44969 -0.11704 0.13131
 H723 H 0.53206 -0.14364 0.28465
 H724 H 0.53701 -0.11084 0.22020
 C725 C 0.35312 0.50524 0.27875
 C726 C 0.35699 0.53256 0.29041
 C727 C 0.34205 0.53668 0.34123
 C728 C 0.32319 0.51380 0.38006
 C729 C 0.31809 0.48657 0.36595
 C730 C 0.33272 0.48222 0.31571
 C731 C 0.37184 0.50224 0.22967
 C732 C 0.37184 0.47668 0.22021
 C733 C 0.39147 0.47556 0.17868
 C734 C 0.41137 0.49970 0.14462
 C735 C 0.41069 0.52495 0.15110
 C736 C 0.39152 0.52655 0.19439
 C737 C 0.37630 0.55562 0.25259
 C738 C 0.39287 0.55256 0.20493
 H739 H 0.37896 0.57645 0.26061
 H740 H 0.40766 0.57105 0.17743
 H741 H 0.34586 0.55774 0.35233
 H742 H 0.30344 0.46874 0.39565
 H743 H 0.39137 0.45573 0.17413
 H744 H 0.42606 0.54375 0.12522
 H745 H 0.32818 0.46081 0.30781
 H746 H 0.35755 0.45751 0.24596
 C747 C 1.15585 0.64281 0.27859
 C748 C 1.14943 0.66001 0.31873
 C749 C 1.16742 0.67542 0.37053
 C750 C 1.19149 0.67356 0.38410
 C751 C 1.19822 0.65690 0.34442
 C752 C 1.18068 0.64175 0.29185
 C753 C 1.13509 0.62538 0.22617
 C754 C 1.13929 0.60756 0.18337
 C755 C 1.11807 0.58974 0.13969
 C756 C 1.09214 0.58921 0.13764
 C757 C 1.08853 0.60822 0.17701
 C758 C 1.10967 0.62619 0.22101
 C759 C 1.12460 0.66097 0.30866
 C760 C 1.10504 0.64424 0.26118
 H761 H 1.11981 0.67424 0.33928
 H762 H 1.08572 0.64510 0.25665
 H763 H 1.16225 0.68821 0.40195
 H764 H 1.21676 0.65526 0.35489
 H765 H 1.12158 0.57553 0.10937
 H766 H 1.06878 0.60838 0.17513
 H767 H 1.18654 0.62885 0.26338
 H768 H 1.15850 0.60657 0.18386
 C769 C 0.51252 0.15618 0.28004
 C770 C 0.54007 0.17448 0.30469
 C771 C 0.54409 0.19335 0.35593
 C772 C 0.52106 0.19469 0.38178
 C773 C 0.49412 0.17781 0.35484
 C774 C 0.48983 0.15883 0.30441
 C775 C 0.50862 0.13422 0.23056
 C776 C 0.48174 0.11264 0.20982
 C777 C 0.47909 0.09127 0.16783
 C778 C 0.50311 0.09121 0.14425
 C779 C 0.52998 0.11309 0.16264
 C780 C 0.53291 0.13410 0.20692
 C781 C 0.56326 0.17341 0.27892
 C782 C 0.55981 0.15399 0.23024
 H783 H 0.58440 0.18766 0.29703
 H784 H 0.57840 0.15386 0.21234
 H785 H 0.56495 0.20655 0.37682
 H786 H 0.47617 0.17869 0.37451
 H787 H 0.45813 0.07446 0.15441
 H788 H 0.54853 0.11272 0.14569
 H789 H 0.46857 0.14616 0.28600
 H790 H 0.46246 0.11125 0.22723
 C791 C 0.65214 0.50078 0.27468
 C792 C 0.64752 0.47342 0.28970
 C793 C 0.66229 0.46978 0.34173
 C794 C 0.68145 0.49308 0.37916
 C795 C 0.68682 0.52021 0.36281
 C796 C 0.67253 0.52413 0.31098
 C797 C 0.63408 0.50347 0.22311
 C798 C 0.63555 0.52940 0.20826
 C799 C 0.61623 0.53036 0.16525
 C800 C 0.59527 0.50565 0.13486
 C801 C 0.59476 0.48002 0.14591
 C802 C 0.61357 0.47864 0.19070
 C803 C 0.62755 0.44983 0.25421
 C804 C 0.61104 0.45240 0.20557
 H805 H 0.62418 0.42893 0.26522
 H806 H 0.59541 0.43339 0.18065
 H807 H 0.65814 0.44878 0.35479
 H808 H 0.70162 0.53835 0.39153
 H809 H 0.61724 0.55046 0.15709
 H810 H 0.57859 0.46082 0.12282
 H811 H 0.67731 0.54549 0.30137
 H812 H 0.65077 0.54906 0.23093
 C813 C 0.84568 0.35462 0.28157
 C814 C 0.82531 0.36206 0.30053
 C815 C 0.80636 0.34737 0.35178
 C816 C 0.80717 0.32503 0.38331
 C817 C 0.82616 0.31662 0.36209
 C818 C 0.84517 0.33113 0.31168
 C819 C 0.86745 0.37263 0.23175
 C820 C 0.89064 0.36917 0.21598
 C821 C 0.91171 0.38797 0.17357
 C822 C 0.90997 0.41033 0.14471
 C823 C 0.88641 0.41329 0.15783
 C824 C 0.86558 0.39513 0.20241
 C825 C 0.82439 0.38439 0.26909
 C826 C 0.84381 0.40027 0.22029
 H827 H 0.80856 0.38986 0.28281
 H828 H 0.84236 0.41749 0.19791
 H829 H 0.79144 0.35366 0.36821
 H830 H 0.82679 0.29924 0.38607
 H831 H 0.92973 0.38529 0.16413
 H832 H 0.88519 0.43075 0.13644
 H833 H 0.85949 0.32387 0.29782
 H834 H 0.89351 0.35277 0.23759
   
