data_POSCAR
  _audit_creation_date              2014-09-24
  _audit_creation_method            'ToBaCCo'
  _symmetry_space_group_name_H-M    'P1'
  _symmetry_Int_Tables_number       1
  _symmetry_cell_setting            triclinic
  loop_
  _symmetry_equiv_pos_as_xyz
 x,y,z
_cell_length_a 47.9911
_cell_length_b 47.9796
_cell_length_c 48.0367
_cell_angle_alpha 89.551400
_cell_angle_beta 90.492100
_cell_angle_gamma 90.170900
loop_
  _atom_site_label
  _atom_site_type_symbol
  _atom_site_fract_x
  _atom_site_fract_y
  _atom_site_fract_z
N1 N 0.22343 0.21955 0.21486
 N2 N -0.21309 0.78155 0.21448
 N3 N -0.21371 0.21846 -0.22314
 N4 N 0.14123 0.86482 -0.14006
 N5 N 0.14708 1.14983 0.85181
 N6 N 0.78619 0.79032 0.78234
 N7 N 0.21782 0.78757 1.21378
 N8 N 0.86119 1.14544 1.13849
 N9 N 0.53219 1.05184 0.96562
 N10 N 0.55263 1.06960 0.96060
 N11 N 0.47260 1.03317 0.94827
 N12 N 0.44998 1.03591 0.93268
 N13 N 0.47357 1.05254 0.96744
 N14 N 0.45161 1.06899 0.96542
 N15 N 0.53120 1.03246 0.94648
 N16 N 0.55094 1.03649 0.92788
 C17 C 0.56414 1.05961 0.93713
 C18 C 0.43732 1.05844 0.94351
 N19 N 0.47208 0.95386 0.96837
 N20 N 0.44966 0.93794 0.96669
 N21 N 0.53028 0.97239 0.94708
 N22 N 0.55020 0.96809 0.92883
 N23 N 0.53070 0.95306 0.96660
 N24 N 0.55092 0.93507 0.96219
 N25 N 0.47167 0.97317 0.94884
 N26 N 0.44896 0.97091 0.93330
 Mn27 Mn 0.50144 1.00279 0.94733
 C28 C 0.43567 0.94873 0.94459
 C29 C 0.56286 0.94483 0.93865
 N30 N 0.47601 1.05272 1.02737
 N31 N 0.45609 1.07099 1.03201
 N32 N 0.53496 1.03249 1.04509
 N33 N 0.55754 1.03483 1.06080
 N34 N 0.53461 1.05182 1.02557
 N35 N 0.55695 1.06786 1.02746
 N36 N 0.47636 1.03337 1.04686
 N37 N 0.45669 1.03792 1.06532
 Mn38 Mn 0.50410 1.05256 0.99650
 C39 C 0.44423 1.06134 1.05563
 C40 C 0.57084 1.05707 1.04964
 N41 N 0.53292 0.95310 1.02659
 N42 N 0.55290 0.93463 1.03073
 N43 N 0.47532 0.97330 1.04740
 N44 N 0.45541 0.96942 1.06586
 N45 N 0.47436 0.95388 1.02829
 N46 N 0.45378 0.93624 1.03319
 N47 N 0.53388 0.97247 1.04576
 N48 N 0.55454 0.96772 1.06347
 Mn49 Mn 0.50253 0.95315 0.99744
 Mn50 Mn 0.50513 1.00293 1.04660
 Cl51 Cl 0.50331 1.00286 0.99697
 C52 C 0.56624 0.94421 1.05365
 C53 C 0.44216 0.94633 1.05657
 N54 N 0.03399 0.47265 0.04383
 N55 N 0.03912 0.45241 0.06190
 N56 N 0.05214 0.53208 0.02550
 N57 N 0.06987 0.55264 0.03017
 N58 N 0.03292 0.53124 0.04480
 N59 N 0.03703 0.55121 0.06315
 N60 N 0.05320 0.47350 0.02452
 N61 N 0.07196 0.45384 0.02893
 C62 C 0.06270 0.44080 0.05214
 C63 C 0.06002 0.56439 0.05359
 N64 N 0.03211 0.53371 -0.05381
 N65 N 0.03403 0.55630 -0.06956
 N66 N 0.05262 0.47490 -0.03547
 N67 N 0.06899 0.45302 -0.03816
 N68 N 0.03313 0.47503 -0.05484
 N69 N 0.03569 0.45325 -0.07124
 N70 N 0.05162 0.53361 -0.03446
 N71 N 0.06736 0.55614 -0.03651
 Mn72 Mn 0.05273 0.50352 -0.00502
 C73 C 0.05625 0.56985 -0.05862
 C74 C 0.05828 0.43997 -0.06071
 N75 N -0.02713 0.52992 0.04473
 N76 N -0.03160 0.54976 0.06304
 N77 N -0.04550 0.47137 0.02427
 N78 N -0.06145 0.44901 0.02649
 N79 N -0.02601 0.47128 0.04363
 N80 N -0.02814 0.44884 0.05957
 N81 N -0.04664 0.52999 0.02538
 N82 N -0.06494 0.54989 0.02997
 Mn83 Mn 0.00342 0.50128 0.04456
 C84 C -0.05514 0.56203 0.05341
 C85 C -0.05044 0.43538 0.04870
 N86 N -0.02686 0.47387 -0.05500
 N87 N -0.03096 0.45393 -0.07338
 N88 N -0.04709 0.53158 -0.03461
 N89 N -0.06543 0.55174 -0.03848
 N90 N -0.02790 0.53246 -0.05393
 N91 N -0.03264 0.55324 -0.07151
 N92 N -0.04605 0.47298 -0.03568
 N93 N -0.06376 0.45239 -0.04038
 Mn94 Mn 0.00266 0.50378 -0.05472
 Mn95 Mn -0.04664 0.50148 -0.00514
 Cl96 Cl 0.00304 0.50252 -0.00507
 C97 C -0.05391 0.44070 -0.06383
 C98 C -0.05599 0.56506 -0.06146
 N99 N 0.95316 0.03269 0.52319
 N100 N 0.93468 0.03704 0.54287
 N101 N 0.97456 0.05093 0.46496
 N102 N 0.97254 0.06695 0.44255
 N103 N 0.95527 0.03146 0.46465
 N104 N 0.93957 0.03367 0.44204
 N105 N 0.97246 0.05216 0.52347
 N106 N 0.96765 0.07032 0.54336
 C107 C 0.94412 0.06049 0.55525
 C108 C 0.95053 0.05599 0.42866
 N109 N 1.05389 0.03207 0.46888
 N110 N 1.07252 0.03605 0.44916
 N111 N 1.03245 0.05242 0.52615
 N112 N 1.03434 0.06918 0.54776
 N113 N 1.05188 0.03321 0.52741
 N114 N 1.06753 0.03637 0.54990
 N115 N 1.03454 0.05135 0.46761
 N116 N 1.03944 0.06898 0.44698
 Mn117 Mn 1.00350 0.05205 0.49554
 C118 C 1.06307 0.05902 0.43566
 C119 C 1.05643 0.05898 0.56217
 N120 N 0.95528 -0.02859 0.46645
 N121 N 0.93779 -0.03358 0.44572
 N122 N 0.97266 -0.04659 0.52629
 N123 N 0.96783 -0.06413 0.54701
 N124 N 0.95326 -0.02735 0.52493
 N125 N 0.93468 -0.03126 0.54472
 N126 N 0.97466 -0.04784 0.46782
 N127 N 0.97090 -0.06647 0.44805
 Mn128 Mn 0.95392 0.00207 0.49479
 C129 C 0.94797 -0.05712 0.43440
 C130 C 0.94420 -0.05416 0.55830
 N131 N 1.05199 -0.02677 0.52907
 N132 N 1.06757 -0.02878 0.55176
 N133 N 1.03466 -0.04747 0.47036
 N134 N 1.03934 -0.06562 0.45045
 N135 N 1.05397 -0.02801 0.47055
 N136 N 1.07235 -0.03238 0.45077
 N137 N 1.03264 -0.04619 0.52889
 N138 N 1.03451 -0.06195 0.55148
 Mn139 Mn 1.05327 0.00262 0.49896
 Mn140 Mn 1.00368 -0.04734 0.49834
 Cl141 Cl 1.00358 0.00235 0.49690
 C142 C 1.05652 -0.05093 0.56532
 C143 C 1.06282 -0.05583 0.43844
 C144 C 1.20727 0.20352 0.23268
 C145 C 1.19345 0.18968 0.24848
 C146 C 1.17734 0.17334 0.26780
 C147 C 1.18517 0.14594 0.27420
 C148 C 1.17026 0.13047 0.29388
 C149 C 1.14729 0.14224 0.30746
 C150 C 1.13937 0.16969 0.30061
 C151 C 1.15433 0.18512 0.28093
 C152 C 1.13209 0.12625 0.32919
 C153 C 1.10288 0.12779 0.33099
 C154 C 1.08873 0.11343 0.35204
 C155 C 1.10356 0.09737 0.37155
 C156 C 1.13258 0.09549 0.36977
 C157 C 1.14677 0.10980 0.34874
 C158 C 1.08913 0.08346 0.39384
 C159 C 1.07717 0.07213 0.41280
 H160 H 1.20295 0.13662 0.26414
 H161 H 1.17664 0.10928 0.29844
 H162 H 1.12203 0.17947 0.31095
 H163 H 1.14818 0.20637 0.27624
 H164 H 1.09098 0.14000 0.31607
 H165 H 1.06626 0.11502 0.35321
 H166 H 1.14428 0.08323 0.38484
 H167 H 1.16928 0.10850 0.34816
 C168 C 0.80300 -0.20258 0.23253
 C169 C 0.81687 -0.18892 0.24844
 C170 C 0.83323 -0.17284 0.26778
 C171 C 0.86073 -0.18050 0.27390
 C172 C 0.87631 -0.16547 0.29344
 C173 C 0.86454 -0.14256 0.30712
 C174 C 0.83696 -0.13485 0.30058
 C175 C 0.82143 -0.14991 0.28105
 C176 C 0.88068 -0.12715 0.32859
 C177 C 0.87891 -0.09794 0.33031
 C178 C 0.89334 -0.08358 0.35118
 C179 C 0.90973 -0.09819 0.37056
 C180 C 0.91189 -0.12720 0.36884
 C181 C 0.89750 -0.14160 0.34799
 C182 C 0.92365 -0.08354 0.39273
 C183 C 0.93494 -0.07141 0.41160
 H184 H 0.87007 -0.19819 0.26371
 H185 H 0.89758 -0.17170 0.29777
 H186 H 0.82719 -0.11757 0.31102
 H187 H 0.80012 -0.14388 0.27654
 H188 H 0.86643 -0.08620 0.31547
 H189 H 0.89155 -0.06111 0.35231
 H190 H 0.92442 -0.13873 0.38383
 H191 H 0.89900 -0.16411 0.34746
 C192 C 0.80187 0.20274 0.75857
 C193 C 0.81525 0.18922 0.74242
 C194 C 0.83097 0.17331 0.72275
 C195 C 0.85475 0.18486 0.71050
 C196 C 0.86946 0.16985 0.69062
 C197 C 0.86054 0.14307 0.68269
 C198 C 0.83676 0.13154 0.69536
 C199 C 0.82209 0.14658 0.71524
 C200 C 0.87560 0.12753 0.66087
 C201 C 0.86074 0.11251 0.64051
 C202 C 0.87486 0.09848 0.61952
 C203 C 0.90398 0.09924 0.61859
 C204 C 0.91898 0.11394 0.63886
 C205 C 0.90490 0.12800 0.65987
 C206 C 0.91838 0.08538 0.59652
 C207 C 0.93023 0.07393 0.57779
 H208 H 0.86173 0.20559 0.71607
 H209 H 0.88745 0.17945 0.68100
 H210 H 0.82958 0.11084 0.68996
 H211 H 0.80371 0.13744 0.72462
 H212 H 0.83819 0.11207 0.64047
 H213 H 0.86305 0.08727 0.60386
 H214 H 0.94154 0.11463 0.63835
 H215 H 0.91693 0.13910 0.67543
 C216 C 1.13452 -0.12817 0.83265
 C217 C 1.12857 -0.12208 0.80893
 C218 C 1.12129 -0.11481 0.78070
 C219 C 1.13799 -0.09624 0.76560
 C220 C 1.13068 -0.08885 0.73830
 C221 C 1.10653 -0.09998 0.72574
 C222 C 1.08998 -0.11877 0.74106
 C223 C 1.09733 -0.12611 0.76836
 C224 C 1.09844 -0.09176 0.69694
 C225 C 1.08767 -0.11160 0.67827
 C226 C 1.07961 -0.10371 0.65130
 C227 C 1.08222 -0.07591 0.64266
 C228 C 1.09303 -0.05605 0.66102
 C229 C 1.10111 -0.06389 0.68798
 C230 C 1.07335 -0.06759 0.61516
 C231 C 1.06576 -0.06023 0.59229
 H232 H 1.15663 -0.08744 0.77494
 H233 H 1.14403 -0.07463 0.72693
 H234 H 1.07109 -0.12740 0.73211
 H235 H 1.08422 -0.14045 0.77990
 H236 H 1.08568 -0.13327 0.68444
 H237 H 1.07129 -0.11925 0.63724
 H238 H 1.09502 -0.03444 0.65458
 H239 H 1.10897 -0.04806 0.70197
 C240 C 0.24175 1.20385 1.19929
 C241 C 0.25791 1.19035 1.18586
 C242 C 0.27755 1.17454 1.17000
 C243 C 0.29063 1.15126 1.18194
 C244 C 0.31045 1.13646 1.16690
 C245 C 0.31747 1.14481 1.13969
 C246 C 0.30397 1.16807 1.12778
 C247 C 0.28415 1.18282 1.14285
 C248 C 0.33921 1.12969 1.12404
 C249 C 0.35879 1.14448 1.10800
 C250 C 0.37964 1.13034 1.09375
 C251 C 0.38122 1.10125 1.09531
 C252 C 0.36173 1.08631 1.11104
 C253 C 0.34086 1.10042 1.12533
 C254 C 0.40315 1.08686 1.08117
 C255 C 0.42178 1.07506 1.06945
 H256 H 0.28575 1.14474 1.20299
 H257 H 0.32072 1.11888 1.17678
 H258 H 0.30865 1.17478 1.10675
 H259 H 0.27412 1.20079 1.13340
 H260 H 0.35833 1.16702 1.10691
 H261 H 0.39469 1.14211 1.08172
 H262 H 0.36274 1.06379 1.11234
 H263 H 0.32589 1.08843 1.13722
 C264 C 0.16856 0.87139 0.86687
 C265 C 0.19230 0.87717 0.87297
 C266 C 0.22056 0.88419 0.88035
 C267 C 0.23449 0.86913 0.90126
 C268 C 0.26177 0.87626 0.90880
 C269 C 0.27548 0.89858 0.89550
 C270 C 0.26135 0.91346 0.87436
 C271 C 0.23406 0.90630 0.86687
 C272 C 0.30425 0.90656 0.90389
 C273 C 0.32396 0.91444 0.88376
 C274 C 0.35089 0.92241 0.89177
 C275 C 0.35845 0.92262 0.91996
 C276 C 0.33905 0.91470 0.94013
 C277 C 0.31213 0.90671 0.93217
 C278 C 0.38592 0.93147 0.92830
 C279 C 0.40875 0.93917 0.93557
 H280 H 0.22425 0.85192 0.91178
 H281 H 0.27222 0.86418 0.92489
 H282 H 0.27120 0.93097 0.86399
 H283 H 0.22343 0.91814 0.85071
 H284 H 0.31862 0.91422 0.86181
 H285 H 0.36576 0.92850 0.87599
 H286 H 0.34465 0.91493 0.96203
 H287 H 0.29733 0.90114 0.94818
 C288 C 0.76870 0.79746 1.19843
 C289 C 0.75267 0.81117 1.18458
 C290 C 0.73322 0.82733 1.16826
 C291 C 0.72953 0.85567 1.17378
 C292 C 0.70994 0.87115 1.15855
 C293 C 0.69376 0.85846 1.13759
 C294 C 0.69787 0.83002 1.13201
 C295 C 0.71746 0.81458 1.14727
 C296 C 0.67220 0.87458 1.12210
 C297 C 0.66806 0.87066 1.09335
 C298 C 0.64713 0.88524 1.07903
 C299 C 0.63010 0.90390 1.09323
 C300 C 0.63422 0.90813 1.12176
 C301 C 0.65513 0.89360 1.13611
 C302 C 0.60795 0.91824 1.07878
 C303 C 0.58907 0.93014 1.06708
 H304 H 0.74167 0.86576 1.18996
 H305 H 0.70752 0.89308 1.16310
 H306 H 0.68548 0.81955 1.11629
 H307 H 0.72007 0.79262 1.14291
 H308 H 0.68107 0.85643 1.08193
 H309 H 0.64413 0.88183 1.05693
 H310 H 0.62107 0.92243 1.13298
 H311 H 0.65752 0.89679 1.15829
 C312 C 0.76804 1.20252 0.79262
 C313 C 0.75190 1.18880 0.80616
 C314 C 0.73226 1.17266 0.82206
 C315 C 0.72758 1.17892 0.85003
 C316 C 0.70773 1.16391 0.86517
 C317 C 0.69225 1.14244 0.85249
 C318 C 0.69737 1.13610 0.82444
 C319 C 0.71722 1.15114 0.80935
 C320 C 0.67038 1.12720 0.86821
 C321 C 0.66676 1.09828 0.86498
 C322 C 0.64565 1.08415 0.87926
 C323 C 0.62791 1.09873 0.89691
 C324 C 0.63147 1.12745 0.90039
 C325 C 0.65255 1.14161 0.88617
 C326 C 0.60572 1.08443 0.91111
 C327 C 0.58687 1.07286 0.92299
 H328 H 0.73914 1.19552 0.86008
 H329 H 0.70453 1.16905 0.88682
 H330 H 0.68556 1.11995 0.81398
 H331 H 0.72059 1.14621 0.78766
 H332 H 0.68035 1.08656 0.85156
 H333 H 0.64310 1.06191 0.87644
 H334 H 0.61776 1.13896 0.91391
 H335 H 0.65452 1.16392 0.88878
 C336 C 0.20802 0.23821 0.19884
 C337 C 0.19489 0.25471 0.18497
 C338 C 0.17962 0.27481 0.16856
 C339 C 0.15045 0.27482 0.16867
 C340 C 0.13571 0.29487 0.15327
 C341 C 0.14998 0.31521 0.13762
 C342 C 0.17930 0.31483 0.13745
 C343 C 0.19398 0.29477 0.15282
 C344 C 0.13442 0.33705 0.12193
 C345 C 0.14399 0.36480 0.12173
 C346 C 0.12928 0.38545 0.10720
 C347 C 0.10483 0.37870 0.09265
 C348 C 0.09512 0.35116 0.09268
 C349 C 0.10980 0.33045 0.10723
 C350 C 0.08969 0.40017 0.07797
 C351 C 0.07725 0.41852 0.06599
 H352 H 0.13913 0.25952 0.18086
 H353 H 0.11317 0.29481 0.15408
 H354 H 0.19087 0.32996 0.12530
 H355 H 0.21656 0.29491 0.15255
 H356 H 0.16261 0.37064 0.13317
 H357 H 0.13690 0.40673 0.10744
 H358 H 0.07622 0.34570 0.08147
 H359 H 0.10208 0.30923 0.10674
 C360 C -0.19764 0.23653 -0.20728
 C361 C -0.18381 0.25252 -0.19364
 C362 C -0.16757 0.27202 -0.17764
 C363 C -0.17901 0.28451 -0.15415
 C364 C -0.16370 0.30433 -0.13925
 C365 C -0.13670 0.31196 -0.14770
 C366 C -0.12526 0.29901 -0.17116
 C367 C -0.14061 0.27918 -0.18602
 C368 C -0.12087 0.33384 -0.13254
 C369 C -0.10539 0.35397 -0.14727
 C370 C -0.09121 0.37511 -0.13310
 C371 C -0.09227 0.37640 -0.10404
 C372 C -0.10737 0.35633 -0.08916
 C373 C -0.12159 0.33517 -0.10329
 C374 C -0.07844 0.39876 -0.08961
 C375 C -0.06711 0.41776 -0.07773
 H376 H -0.19992 0.27921 -0.14756
 H377 H -0.17323 0.31418 -0.12152
 H378 H -0.10441 0.30417 -0.17797
 H379 H -0.13154 0.26962 -0.20416
 H380 H -0.10474 0.35376 -0.16979
 H381 H -0.07968 0.39062 -0.14483
 H382 H -0.10831 0.35712 -0.06665
 H383 H -0.13305 0.31979 -0.09135
 C384 C 0.13442 0.83744 -0.13356
 C385 C 0.12840 0.81366 -0.12791
 C386 C 0.12108 0.78534 -0.12113
 C387 C 0.13363 0.77195 -0.09830
 C388 C 0.12617 0.74458 -0.09140
 C389 C 0.10600 0.73027 -0.10726
 C390 C 0.09366 0.74386 -0.13029
 C391 C 0.10116 0.77122 -0.13716
 C392 C 0.09758 0.70144 -0.09957
 C393 C 0.06939 0.69336 -0.10086
 C394 C 0.06137 0.66638 -0.09315
 C395 C 0.08137 0.64712 -0.08408
 C396 C 0.10948 0.65488 -0.08286
 C397 C 0.11756 0.68187 -0.09055
 C398 C 0.07291 0.61961 -0.07546
 C399 C 0.06549 0.59677 -0.06794
 H400 H 0.14903 0.78273 -0.08572
 H401 H 0.13579 0.73482 -0.07335
 H402 H 0.07835 0.73327 -0.14312
 H403 H 0.09139 0.78137 -0.15493
 H404 H 0.05348 0.70805 -0.10732
 H405 H 0.03953 0.66063 -0.09403
 H406 H 0.12513 0.64012 -0.07587
 H407 H 0.13944 0.68736 -0.08964
 C408 C -0.19743 0.76331 0.19880
 C409 C -0.18395 0.74725 0.18525
 C410 C -0.16812 0.72779 0.16919
 C411 C -0.14600 0.71320 0.18157
 C412 C -0.13118 0.69363 0.16624
 C413 C -0.13834 0.68836 0.13830
 C414 C -0.16044 0.70335 0.12597
 C415 C -0.17522 0.72293 0.14133
 C416 C -0.12321 0.66689 0.12230
 C417 C -0.13784 0.64868 0.10456
 C418 C -0.12375 0.62793 0.09012
 C419 C -0.09487 0.62510 0.09317
 C420 C -0.08008 0.64327 0.11056
 C421 C -0.09414 0.66404 0.12504
 C422 C -0.08058 0.60317 0.07893
 C423 C -0.06884 0.58452 0.06718
 H424 H -0.14040 0.71673 0.20316
 H425 H -0.11452 0.68217 0.17643
 H426 H -0.16622 0.70002 0.10441
 H427 H -0.19229 0.73415 0.13154
 H428 H -0.16026 0.65009 0.10230
 H429 H -0.13541 0.61390 0.07681
 H430 H -0.05771 0.64128 0.11304
 H431 H -0.08226 0.67795 0.13826
 C432 C 1.14010 0.14302 0.82461
 C433 C 1.13382 0.13697 0.80105
 C434 C 1.12603 0.12954 0.77308
 C435 C 1.13762 0.10598 0.76075
 C436 C 1.12949 0.09827 0.73387
 C437 C 1.10959 0.11404 0.71896
 C438 C 1.09822 0.13782 0.73147
 C439 C 1.10641 0.14550 0.75835
 C440 C 1.10042 0.10544 0.69068
 C441 C 1.07215 0.10703 0.68281
 C442 C 1.06342 0.09833 0.65642
 C443 C 1.08280 0.08797 0.63755
 C444 C 1.11099 0.08650 0.64509
 C445 C 1.11977 0.09518 0.67147
 C446 C 1.07364 0.07821 0.61072
 C447 C 1.06584 0.06966 0.58844
 H448 H 1.15275 0.09341 0.77202
 H449 H 1.13834 0.07965 0.72498
 H450 H 1.08314 0.15058 0.72041
 H451 H 1.09734 0.16381 0.76769
 H452 H 1.05670 0.11445 0.69725
 H453 H 1.04153 0.09941 0.65086
 H454 H 1.12616 0.07853 0.63063
 H455 H 1.14171 0.09402 0.67679
 C456 C 0.80102 -0.19452 0.76502
 C457 C 0.81447 -0.18077 0.74878
 C458 C 0.83023 -0.16471 0.72895
 C459 C 0.81703 -0.14419 0.71277
 C460 C 0.83201 -0.12938 0.69263
 C461 C 0.86043 -0.13495 0.68839
 C462 C 0.87359 -0.15538 0.70503
 C463 C 0.85857 -0.17016 0.72516
 C464 C 0.87606 -0.12004 0.66621
 C465 C 0.89500 -0.13449 0.64944
 C466 C 0.90911 -0.12069 0.62804
 C467 C 0.90454 -0.09229 0.62308
 C468 C 0.88594 -0.07765 0.63978
 C469 C 0.87177 -0.09141 0.66121
 C470 C 0.91856 -0.07839 0.60051
 C471 C 0.93026 -0.06712 0.58136
 H472 H 0.79507 -0.13990 0.71544
 H473 H 0.82119 -0.11406 0.67993
 H474 H 0.89551 -0.15989 0.70252
 H475 H 0.86899 -0.18599 0.73758
 H476 H 0.89845 -0.15660 0.65248
 H477 H 0.92339 -0.13225 0.61516
 H478 H 0.88228 -0.05564 0.63615
 H479 H 0.85759 -0.07964 0.67396
 C480 C 1.20228 -0.19695 0.23229
 C481 C 1.18897 -0.18365 0.24870
 C482 C 1.17340 -0.16805 0.26872
 C483 C 1.14836 -0.17872 0.27910
 C484 C 1.13379 -0.16416 0.29941
 C485 C 1.14411 -0.13870 0.30965
 C486 C 1.16914 -0.12798 0.29883
 C487 C 1.18368 -0.14259 0.27852
 C488 C 1.12917 -0.12372 0.33195
 C489 C 1.12695 -0.09447 0.33132
 C490 C 1.11329 -0.08043 0.35263
 C491 C 1.10171 -0.09541 0.37483
 C492 C 1.10371 -0.12449 0.37559
 C493 C 1.11733 -0.13857 0.35431
 C494 C 1.08798 -0.08104 0.39701
 C495 C 1.07650 -0.06934 0.41582
 H496 H 1.14020 -0.19841 0.27165
 H497 H 1.11440 -0.17278 0.30705
 H498 H 1.17781 -0.10863 0.30652
 H499 H 1.20312 -0.13421 0.27072
 H500 H 1.13556 -0.08248 0.31423
 H501 H 1.11180 -0.05791 0.35181
 H502 H 1.09489 -0.13629 0.39272
 H503 H 1.11903 -0.16104 0.35562
 C504 C 0.86779 0.13895 0.16433
 C505 C 0.87403 0.13284 0.18799
 C506 C 0.88170 0.12532 0.21608
 C507 C 0.90179 0.14092 0.23046
 C508 C 0.90981 0.13317 0.25748
 C509 C 0.89782 0.10968 0.27046
 C510 C 0.87747 0.09429 0.25590
 C511 C 0.86950 0.10207 0.22888
 C512 C 0.90684 0.10097 0.29888
 C513 C 0.88729 0.09120 0.31835
 C514 C 0.89592 0.08249 0.34490
 C515 C 0.92416 0.08345 0.35233
 C516 C 0.94374 0.09325 0.33316
 C517 C 0.93517 0.10197 0.30662
 C518 C 0.93317 0.07399 0.37944
 C519 C 0.94095 0.06588 0.40200
 H520 H 0.91134 0.15898 0.22076
 H521 H 0.92526 0.14564 0.26827
 H522 H 0.86813 0.07591 0.26517
 H523 H 0.85402 0.08979 0.21788
 H524 H 0.86530 0.09048 0.31313
 H525 H 0.88058 0.07496 0.35959
 H526 H 0.96568 0.09394 0.33865
 H527 H 0.95076 0.10901 0.29199
 C528 C 0.14067 0.17718 -0.14171
 C529 C 0.13483 0.20087 -0.13596
 C530 C 0.12744 0.22897 -0.12893
 C531 C 0.14066 0.24228 -0.10659
 C532 C 0.13282 0.26924 -0.09916
 C533 C 0.11156 0.28323 -0.11397
 C534 C 0.09861 0.26976 -0.13658
 C535 C 0.10651 0.24282 -0.14398
 C536 C 0.10254 0.31149 -0.10551
 C537 C 0.07408 0.31847 -0.10546
 C538 C 0.06549 0.34485 -0.09696
 C539 C 0.08519 0.36464 -0.08841
 C540 C 0.11357 0.35799 -0.08854
 C541 C 0.12221 0.33159 -0.09702
 C542 C 0.07616 0.39151 -0.07897
 C543 C 0.06822 0.41378 -0.07079
 H544 H 0.15682 0.23170 -0.09473
 H545 H 0.14294 0.27889 -0.08144
 H546 H 0.08245 0.28011 -0.14861
 H547 H 0.09616 0.23272 -0.16134
 H548 H 0.05840 0.30334 -0.11147
 H549 H 0.04346 0.34973 -0.09680
 H550 H 0.12900 0.37316 -0.08197
 H551 H 0.14428 0.32696 -0.09712
 C552 C -0.13235 0.17126 0.13191
 C553 C -0.12627 0.19492 0.12570
 C554 C -0.11885 0.22300 0.11803
 C555 C -0.13470 0.23749 0.09811
 C556 C -0.12706 0.26450 0.09008
 C557 C -0.10342 0.27737 0.10189
 C558 C -0.08777 0.26271 0.12209
 C559 C -0.09544 0.23570 0.13008
 C560 C -0.09483 0.30577 0.09282
 C561 C -0.08481 0.32523 0.11228
 C562 C -0.07624 0.35176 0.10360
 C563 C -0.07757 0.35918 0.07539
 C564 C -0.08763 0.34003 0.05590
 C565 C -0.09623 0.31351 0.06453
 C566 C -0.06821 0.38626 0.06633
 C567 C -0.06020 0.40878 0.05846
 H568 H -0.15289 0.22787 0.08870
 H569 H -0.13974 0.27538 0.07476
 H570 H -0.06927 0.27190 0.13130
 H571 H -0.08297 0.22462 0.14545
 H572 H -0.08380 0.32001 0.13424
 H573 H -0.06851 0.36645 0.11887
 H574 H -0.08863 0.34552 0.03399
 H575 H -0.10347 0.29888 0.04899
 C576 C -0.19872 0.77296 -0.20262
 C577 C -0.18503 0.75669 -0.18898
 C578 C -0.16901 0.73684 -0.17298
 C579 C -0.17677 0.73005 -0.14574
 C580 C -0.16193 0.70988 -0.13061
 C581 C -0.13911 0.69620 -0.14258
 C582 C -0.13126 0.70345 -0.16986
 C583 C -0.14614 0.72361 -0.18495
 C584 C -0.12404 0.67392 -0.12700
 C585 C -0.09487 0.67164 -0.12860
 C586 C -0.08087 0.65005 -0.11469
 C587 C -0.09583 0.63047 -0.09901
 C588 C -0.12480 0.63272 -0.09706
 C589 C -0.13883 0.65429 -0.11093
 C590 C -0.08157 0.60768 -0.08548
 C591 C -0.06981 0.58834 -0.07439
 H592 H -0.19444 0.74017 -0.13627
 H593 H -0.16826 0.70503 -0.10954
 H594 H -0.11405 0.69305 -0.17980
 H595 H -0.14004 0.72860 -0.20608
 H596 H -0.08286 0.68661 -0.14051
 H597 H -0.05843 0.64852 -0.11631
 H598 H -0.13660 0.61761 -0.08508
 H599 H -0.16132 0.65523 -0.10959
 C600 C 0.20182 0.76949 0.19784
 C601 C 0.18812 0.75344 0.18414
 C602 C 0.17210 0.73382 0.16805
 C603 C 0.14936 0.72004 0.18001
 C604 C 0.13450 0.70010 0.16482
 C605 C 0.14223 0.69362 0.13743
 C606 C 0.16491 0.70786 0.12547
 C607 C 0.17974 0.72781 0.14070
 C608 C 0.12718 0.67159 0.12171
 C609 C 0.14198 0.65256 0.10535
 C610 C 0.12797 0.63130 0.09120
 C611 C 0.09900 0.62876 0.09315
 C612 C 0.08404 0.64771 0.10918
 C613 C 0.09802 0.66900 0.12337
 C614 C 0.08480 0.60638 0.07911
 C615 C 0.07328 0.58735 0.06743
 H616 H 0.14336 0.72443 0.20122
 H617 H 0.11739 0.68926 0.17474
 H618 H 0.17115 0.70361 0.10432
 H619 H 0.19730 0.73836 0.13123
 H620 H 0.16446 0.65373 0.10396
 H621 H 0.13977 0.61667 0.07895
 H622 H 0.06159 0.64596 0.11081
 H623 H 0.08601 0.68352 0.13552
 C624 C 0.17416 1.14254 0.85900
 C625 C 0.19760 1.13597 0.86543
 C626 C 0.22540 1.12776 0.87336
 C627 C 0.24409 1.14737 0.88425
 C628 C 0.27086 1.13919 0.89259
 C629 C 0.27924 1.11123 0.89019
 C630 C 0.26034 1.09173 0.87902
 C631 C 0.23361 1.09997 0.87067
 C632 C 0.30744 1.10234 0.89958
 C633 C 0.31111 1.07688 0.91388
 C634 C 0.33761 1.06847 0.92271
 C635 C 0.36083 1.08534 0.91740
 C636 C 0.35744 1.11071 0.90322
 C637 C 0.33092 1.11919 0.89438
 C638 C 0.38807 1.07645 0.92647
 C639 C 0.41068 1.06852 0.93419
 H640 H 0.23791 1.16893 0.88651
 H641 H 0.28480 1.15462 0.90141
 H642 H 0.26629 1.07015 0.87653
 H643 H 0.21932 1.08462 0.86222
 H644 H 0.29342 1.06364 0.91856
 H645 H 0.34000 1.04881 0.93373
 H646 H 0.37528 1.12389 0.89893
 H647 H 0.32882 1.13873 0.88314
 C648 C 0.23604 0.80366 1.19813
 C649 C 0.25220 0.81750 1.18473
 C650 C 0.27193 0.83375 1.16904
 C651 C 0.28334 0.82302 1.14466
 C652 C 0.30342 0.83826 1.13005
 C653 C 0.31240 0.86445 1.13968
 C654 C 0.30054 0.87520 1.16404
 C655 C 0.28045 0.85993 1.17860
 C656 C 0.33453 0.88013 1.12477
 C657 C 0.35567 0.89401 1.13975
 C658 C 0.37700 0.90805 1.12577
 C659 C 0.37751 0.90847 1.09665
 C660 C 0.35644 0.89497 1.08154
 C661 C 0.33509 0.88089 1.09549
 C662 C 0.40002 0.92217 1.08234
 C663 C 0.41913 0.93336 1.07052
 H664 H 0.27699 0.80272 1.13715
 H665 H 0.31240 0.82925 1.11160
 H666 H 0.30675 0.89544 1.17178
 H667 H 0.27173 0.86844 1.19745
 H668 H 0.35607 0.89348 1.16229
 H669 H 0.39328 0.91832 1.13767
 H670 H 0.35661 0.89519 1.05898
 H671 H 0.31894 0.87070 1.08338
 C672 C 0.83535 1.13897 1.13198
 C673 C 0.81167 1.13288 1.12581
 C674 C 0.78357 1.12541 1.11824
 C675 C 0.76917 1.10532 1.13378
 C676 C 0.74215 1.09748 1.12600
 C677 C 0.72915 1.10965 1.10253
 C678 C 0.74372 1.13002 1.08719
 C679 C 0.77076 1.13781 1.09500
 C680 C 0.70074 1.10077 1.09379
 C681 C 0.68117 1.12043 1.08404
 C682 C 0.65460 1.11191 1.07540
 C683 C 0.64724 1.08368 1.07637
 C684 C 0.66650 1.06399 1.08614
 C685 C 0.69306 1.07245 1.09481
 C686 C 0.62008 1.07477 1.06705
 C687 C 0.59750 1.06691 1.05915
 H688 H 0.77888 1.09562 1.15184
 H689 H 0.73135 1.08201 1.13844
 H690 H 0.73444 1.13951 1.06882
 H691 H 0.78177 1.15332 1.08276
 H692 H 0.68634 1.14240 1.08332
 H693 H 0.63982 1.12733 1.06791
 H694 H 0.66106 1.04207 1.08688
 H695 H 0.70776 1.05677 1.10183
 C696 C 0.76888 0.80512 0.79720
 C697 C 0.75265 0.81855 0.81067
 C698 C 0.73285 0.83427 0.82643
 C699 C 0.71833 0.85630 0.81379
 C700 C 0.69824 0.87089 0.82868
 C701 C 0.69236 0.86358 0.85645
 C702 C 0.70731 0.84160 0.86907
 C703 C 0.72741 0.82705 0.85414
 C704 C 0.67026 0.87838 0.87192
 C705 C 0.65181 0.86347 0.88916
 C706 C 0.63047 0.87725 0.90305
 C707 C 0.62727 0.90609 0.89996
 C708 C 0.64566 0.92117 0.88308
 C709 C 0.66702 0.90743 0.86914
 C710 C 0.60481 0.92006 0.91374
 C711 C 0.58577 0.93150 0.92516
 H712 H 0.72227 0.86197 0.79230
 H713 H 0.68684 0.88743 0.81826
 H714 H 0.70352 0.83570 0.89051
 H715 H 0.73854 0.81004 0.86413
 H716 H 0.65350 0.84107 0.89143
 H717 H 0.61629 0.86536 0.91598
 H718 H 0.64340 0.94351 0.88058
 H719 H 0.68109 0.91953 0.85631
   
