data_POSCAR
  _audit_creation_date              2014-09-24
  _audit_creation_method            'ToBaCCo'
  _symmetry_space_group_name_H-M    'P1'
  _symmetry_Int_Tables_number       1
  _symmetry_cell_setting            triclinic
  loop_
  _symmetry_equiv_pos_as_xyz
 x,y,z
_cell_length_a 53.5200
_cell_length_b 54.4582
_cell_length_c 53.8947
_cell_angle_alpha 89.966300
_cell_angle_beta 90.020300
_cell_angle_gamma 90.092700
loop_
  _atom_site_label
  _atom_site_type_symbol
  _atom_site_fract_x
  _atom_site_fract_y
  _atom_site_fract_z
C1 C 0.26680 0.37067 0.02134
 C2 C 0.26557 0.37013 -0.00403
 C3 C 0.28887 0.36270 -0.01252
 N4 N 0.30392 0.35773 0.00705
 C5 C 0.29047 0.36265 0.02776
 C6 C 0.29697 0.36242 -0.03768
 C7 C 0.31792 0.34795 -0.04460
 C8 C 0.33336 0.35200 -0.06490
 C9 C 0.35039 0.33310 -0.06546
 C10 C 0.34498 0.31789 -0.04549
 N11 N 0.32548 0.32739 -0.03263
 C12 C 0.35727 0.29559 -0.03932
 C13 C 0.35640 0.28708 -0.01447
 C14 C 0.35952 0.26298 -0.00662
 C15 C 0.36121 0.26360 0.01874
 C16 C 0.35860 0.28795 0.02558
 N17 N 0.35534 0.30226 0.00533
 C18 C 0.36154 0.29718 0.04984
 C19 C 0.34961 0.31920 0.05701
 C20 C 0.35390 0.33240 0.07860
 C21 C 0.33624 0.35080 0.07934
 C22 C 0.32207 0.34863 0.05789
 N23 N 0.33037 0.32939 0.04447
 C24 C 0.30034 0.36210 0.05211
 H25 H 0.25175 0.37628 0.03341
 H26 H 0.24912 0.37456 -0.01477
 H27 H 0.32139 0.32183 0.02910
 H28 H 0.33310 0.36738 -0.07760
 H29 H 0.36551 0.33151 -0.07863
 H30 H 0.36047 0.24658 -0.01790
 H31 H 0.36391 0.24792 0.03080
 H32 H 0.33400 0.36392 0.09420
 H33 H 0.31642 0.31911 -0.01764
 H34 H 0.36794 0.32910 0.09263
 C35 C 0.60470 0.71010 0.01343
 C36 C 0.60499 0.70985 -0.01199
 C37 C 0.62764 0.69966 -0.01896
 N38 N 0.64115 0.69358 0.00131
 C39 C 0.62719 0.70007 0.02115
 C40 C 0.63651 0.69819 -0.04356
 C41 C 0.65729 0.68373 -0.05025
 C42 C 0.67085 0.68643 -0.07197
 C43 C 0.68889 0.66849 -0.07180
 C44 C 0.68566 0.65504 -0.05011
 N45 N 0.66642 0.66462 -0.03700
 C46 C 0.69998 0.63431 -0.04288
 C47 C 0.70052 0.62634 -0.01780
 C48 C 0.70776 0.60316 -0.00980
 C49 C 0.70768 0.60368 0.01557
 C50 C 0.69996 0.62696 0.02234
 N51 N 0.69540 0.64081 0.00197
 C52 C 0.69895 0.63560 0.04699
 C53 C 0.68469 0.65624 0.05385
 C54 C 0.68644 0.66855 0.07629
 C55 C 0.66830 0.68645 0.07605
 C56 C 0.65603 0.68452 0.05345
 N57 N 0.66610 0.66604 0.04009
 C58 C 0.63536 0.69882 0.04604
 H59 H 0.58967 0.71700 0.02489
 H60 H 0.59027 0.71657 -0.02396
 H61 H 0.65906 0.65884 0.02361
 H62 H 0.66833 0.70017 -0.08626
 H63 H 0.70308 0.66617 -0.08588
 H64 H 0.71234 0.58731 -0.02101
 H65 H 0.71248 0.58854 0.02768
 H66 H 0.66462 0.69940 0.09082
 H67 H 0.65853 0.65718 -0.02100
 H68 H 0.69939 0.66502 0.09130
 C69 C 0.70974 0.39543 1.00869
 C70 C 0.70958 0.39506 0.98331
 C71 C 0.70161 0.37187 0.97641
 N72 N 0.69700 0.35792 0.99671
 C73 C 0.70232 0.37224 1.01656
 C74 C 0.70031 0.36344 0.95169
 C75 C 0.68578 0.34295 0.94475
 C76 C 0.68718 0.33088 0.92216
 C77 C 0.66883 0.31313 0.92235
 C78 C 0.65680 0.31489 0.94507
 N79 N 0.66721 0.33314 0.95857
 C80 C 0.63605 0.30065 0.95248
 C81 C 0.62815 0.29906 0.97744
 C82 C 0.60570 0.28894 0.98524
 C83 C 0.60627 0.28883 1.01067
 C84 C 0.62903 0.29890 1.01755
 N85 N 0.64236 0.30525 0.99723
 C86 C 0.63814 0.30012 1.04209
 C87 C 0.65905 0.31452 1.04874
 C88 C 0.67275 0.31167 1.07035
 C89 C 0.69078 0.32966 1.07025
 C90 C 0.68743 0.34328 1.04869
 N91 N 0.66812 0.33375 1.03559
 C92 C 0.70171 0.36413 1.04160
 H93 H 0.71447 0.41119 1.01996
 H94 H 0.71445 0.41026 0.97128
 H95 H 0.66013 0.34134 1.01971
 H96 H 0.70003 0.33447 0.90708
 H97 H 0.66486 0.30038 0.90746
 H98 H 0.59052 0.28222 0.97383
 H99 H 0.59163 0.28199 1.02268
 H100 H 0.70504 0.33195 1.08428
 H101 H 0.66040 0.34019 0.97518
 H102 H 0.67031 0.29781 1.08454
 C103 C 0.35561 0.74002 1.00914
 C104 C 0.35688 0.73968 0.98374
 C105 C 0.35381 0.71544 0.97668
 N106 N 0.35065 0.70094 0.99681
 C107 C 0.35226 0.71587 1.01676
 C108 C 0.35638 0.70641 0.95230
 C109 C 0.34414 0.68454 0.94508
 C110 C 0.34824 0.67133 0.92347
 C111 C 0.33042 0.65302 0.92278
 C112 C 0.31635 0.65524 0.94427
 N113 N 0.32484 0.67446 0.95765
 C114 C 0.29462 0.64176 0.95020
 C115 C 0.28488 0.64140 0.97460
 C116 C 0.26115 0.63363 0.98122
 C117 C 0.26021 0.63406 1.00660
 C118 C 0.28371 0.64116 1.01488
 N119 N 0.29862 0.64608 0.99520
 C120 C 0.29215 0.64100 1.03992
 C121 C 0.31334 0.65521 1.04682
 C122 C 0.32900 0.65075 1.06686
 C123 C 0.34634 0.66943 1.06740
 C124 C 0.34089 0.68491 1.04766
 N125 N 0.32104 0.67581 1.03499
 C126 C 0.35354 0.70706 1.04147
 H127 H 0.35705 0.75626 1.02061
 H128 H 0.35967 0.75545 0.97183
 H129 H 0.31193 0.68433 1.02019
 H130 H 0.36228 0.67452 0.90942
 H131 H 0.32806 0.63992 0.90791
 H132 H 0.24588 0.62826 0.96929
 H133 H 0.24384 0.62970 1.01751
 H134 H 0.36170 0.67065 1.08036
 H135 H 0.31603 0.68204 0.97309
 H136 H 0.32871 0.63522 1.07937
 C137 C -0.00955 0.26071 0.35598
 C138 C 0.01600 0.26139 0.35757
 C139 C 0.02283 0.28581 0.35543
 N140 N 0.00241 0.30011 0.35251
 C141 C -0.01749 0.28484 0.35333
 C142 C 0.04724 0.29512 0.35851
 C143 C 0.05430 0.31752 0.34730
 C144 C 0.07587 0.33089 0.35203
 C145 C 0.07657 0.34968 0.33488
 C146 C 0.05512 0.34754 0.32059
 N147 N 0.04173 0.32798 0.32832
 C148 C 0.04937 0.36129 0.29919
 C149 C 0.02493 0.36165 0.28923
 C150 C 0.01852 0.36972 0.26572
 C151 C -0.00701 0.36891 0.26438
 C152 C -0.01560 0.36129 0.28747
 N153 N 0.00406 0.35644 0.30249
 C154 C -0.04094 0.36093 0.29547
 C155 C -0.04806 0.34605 0.31597
 C156 C -0.06858 0.34974 0.33126
 C157 C -0.06910 0.33061 0.34795
 C158 C -0.04890 0.31561 0.34249
 N159 N -0.03596 0.32545 0.32325
 C160 C -0.04251 0.29323 0.35452
 H161 H -0.02091 0.24427 0.35672
 H162 H 0.02816 0.24570 0.35993
 H163 H -0.02076 0.31743 0.31424
 H164 H 0.08991 0.32746 0.36602
 H165 H 0.09142 0.36303 0.33304
 H166 H 0.03072 0.37554 0.25087
 H167 H -0.01782 0.37335 0.24804
 H168 H -0.08239 0.32878 0.36293
 H169 H 0.02644 0.32038 0.31910
 H170 H -0.08142 0.36505 0.33116
 C171 C -0.00660 0.63339 0.73794
 C172 C 0.01893 0.63232 0.73698
 C173 C 0.02577 0.63996 0.71342
 N174 N 0.00513 0.64517 0.69981
 C175 C -0.01477 0.64072 0.71462
 C176 C 0.05031 0.63982 0.70371
 C177 C 0.05647 0.65325 0.68219
 C178 C 0.07796 0.65064 0.66806
 C179 C 0.07761 0.66912 0.65055
 C180 C 0.05622 0.68280 0.65490
 N181 N 0.04343 0.67284 0.67403
 C182 C 0.04950 0.70501 0.64314
 C183 C 0.02527 0.71474 0.64599
 C184 C 0.01893 0.73923 0.64332
 C185 C -0.00661 0.74036 0.64478
 C186 C -0.01505 0.71641 0.64785
 N187 N 0.00455 0.70084 0.64909
 C188 C -0.04024 0.70840 0.64680
 C189 C -0.04697 0.68613 0.65888
 C190 C -0.06727 0.67125 0.65327
 C191 C -0.06711 0.65219 0.67006
 C192 C -0.04672 0.65584 0.68556
 N193 N -0.03432 0.67631 0.67829
 C194 C -0.03999 0.64105 0.70624
 H195 H -0.01771 0.62925 0.75418
 H196 H 0.03081 0.62662 0.75211
 H197 H -0.01914 0.68428 0.68742
 H198 H 0.09262 0.63717 0.67019
 H199 H 0.09176 0.67212 0.63656
 H200 H 0.03142 0.75466 0.64070
 H201 H -0.01760 0.75697 0.64372
 H202 H -0.08012 0.63698 0.67008
 H203 H 0.02816 0.68075 0.68298
 H204 H -0.08038 0.67311 0.63814
 C205 C 1.00960 0.73430 0.37164
 C206 C 0.98400 0.73410 0.37232
 C207 C 0.97644 0.71187 0.36228
 N208 N 0.99666 0.69836 0.35587
 C209 C 1.01696 0.71195 0.36177
 C210 C 0.95158 0.70300 0.36161
 C211 C 0.94499 0.68184 0.34794
 C212 C 0.92308 0.66842 0.35047
 C213 C 0.92337 0.65065 0.33228
 C214 C 0.94515 0.65411 0.31877
 N215 N 0.95821 0.67302 0.32856
 C216 C 0.95200 0.64162 0.29685
 C217 C 0.97643 0.64360 0.28722
 C218 C 0.98292 0.64016 0.26262
 C219 C 1.00849 0.64092 0.26164
 C220 C 1.01681 0.64436 0.28580
 N221 N 0.99710 0.64648 0.30136
 C222 C 1.04199 0.64333 0.29397
 C223 C 1.04885 0.65582 0.31614
 C224 C 1.06972 0.65125 0.33079
 C225 C 1.06959 0.66833 0.34961
 C226 C 1.04851 0.68267 0.34625
 N227 N 1.03589 0.67483 0.32599
 C228 C 1.04180 0.70312 0.36093
 H229 H 1.02136 0.74917 0.37806
 H230 H 0.97254 0.74864 0.37981
 H231 H 1.02044 0.68345 0.31804
 H232 H 0.90826 0.67109 0.36381
 H233 H 0.90896 0.63702 0.32937
 H234 H 0.97049 0.63751 0.24699
 H235 H 1.01957 0.63926 0.24495
 H236 H 1.08321 0.66963 0.36440
 H237 H 0.97388 0.68124 0.32062
 H238 H 1.08337 0.63678 0.32886
 C239 C 0.98169 0.26426 0.63228
 C240 C 1.00718 0.26250 0.63298
 C241 C 1.01631 0.28552 0.63943
 N242 N 0.99702 0.30101 0.64363
 C243 C 0.97584 0.28804 0.63924
 C244 C 1.04190 0.29268 0.63963
 C245 C 1.04975 0.31339 0.65380
 C246 C 1.07209 0.32617 0.65103
 C247 C 1.07310 0.34336 0.66965
 C248 C 1.05100 0.34138 0.68286
 N249 N 1.03688 0.32311 0.67308
 C250 C 1.04489 0.35492 0.70441
 C251 C 1.01992 0.35770 0.71243
 C252 C 1.01249 0.36816 0.73469
 C253 C 0.98700 0.37019 0.73373
 C254 C 0.97964 0.36142 0.71072
 N255 N 0.99979 0.35364 0.69781
 C256 C 0.95511 0.36272 0.70099
 C257 C 0.94777 0.34922 0.67979
 C258 C 0.92601 0.35286 0.66629
 C259 C 0.92489 0.33449 0.64880
 C260 C 0.94626 0.32042 0.65177
 N261 N 0.96003 0.32950 0.67069
 C262 C 0.95161 0.29833 0.63920
 H263 H 0.96917 0.24950 0.62731
 H264 H 1.01763 0.24591 0.62931
 H265 H 0.97534 0.32090 0.67883
 H266 H 1.08627 0.32390 0.63695
 H267 H 1.08842 0.35594 0.67274
 H268 H 1.02400 0.37421 0.74999
 H269 H 0.97534 0.37757 0.74831
 H270 H 0.90981 0.33174 0.63575
 H271 H 1.02054 0.31600 0.68079
 H272 H 0.91213 0.36705 0.66887
 C273 C 0.39577 0.01460 0.28887
 C274 C 0.39619 -0.01052 0.28940
 C275 C 0.37270 -0.01815 0.29722
 N276 N 0.35815 0.00155 0.30208
 C277 C 0.37222 0.02156 0.29676
 C278 C 0.36436 -0.04287 0.29828
 C279 C 0.34355 -0.04964 0.31311
 C280 C 0.32905 -0.07054 0.30981
 C281 C 0.31129 -0.07050 0.32819
 C282 C 0.31530 -0.04957 0.34232
 N283 N 0.33483 -0.03678 0.33280
 C284 C 0.30119 -0.04265 0.36347
 C285 C 0.30051 -0.01786 0.37149
 C286 C 0.29336 -0.00997 0.39494
 C287 C 0.29281 0.01514 0.39419
 C288 C 0.30008 0.02183 0.37049
 N289 N 0.30500 0.00168 0.35664
 C290 C 0.30035 0.04614 0.36146
 C291 C 0.31410 0.05300 0.34028
 C292 C 0.31179 0.07505 0.32760
 C293 C 0.32981 0.07501 0.30935
 C294 C 0.34251 0.05293 0.31146
 N295 N 0.33282 0.03967 0.33032
 C296 C 0.36350 0.04598 0.29737
 H297 H 0.41114 0.02640 0.28352
 H298 H 0.41213 -0.02180 0.28475
 H299 H 0.34033 0.02361 0.33768
 H300 H 0.33045 -0.08407 0.29520
 H301 H 0.29659 -0.08399 0.33023
 H302 H 0.28912 -0.02107 0.41106
 H303 H 0.28785 0.02712 0.40942
 H304 H 0.33322 0.08962 0.29615
 H305 H 0.34300 -0.02115 0.34052
 H306 H 0.29865 0.08970 0.33120
 C307 C 0.70834 -0.00631 0.60274
 C308 C 0.70761 0.01881 0.60296
 C309 C 0.69870 0.02558 0.62606
 N310 N 0.69405 0.00545 0.64009
 C311 C 0.70029 -0.01416 0.62594
 C312 C 0.69668 0.05007 0.63439
 C313 C 0.68154 0.05679 0.65468
 C314 C 0.68245 0.07916 0.66691
 C315 C 0.66372 0.07876 0.68442
 C316 C 0.65191 0.05616 0.68232
 N317 N 0.66286 0.04293 0.66411
 C318 C 0.63094 0.04857 0.69628
 C319 C 0.62318 0.02378 0.69744
 C320 C 0.60053 0.01578 0.70698
 C321 C 0.60130 -0.00938 0.70692
 C322 C 0.62440 -0.01591 0.69736
 N323 N 0.63771 0.00437 0.69146
 C324 C 0.63381 -0.04009 0.69644
 C325 C 0.65534 -0.04640 0.68272
 C326 C 0.66925 -0.06752 0.68630
 C327 C 0.68801 -0.06720 0.66889
 C328 C 0.68486 -0.04602 0.65483
 N329 N 0.66497 -0.03334 0.66359
 C330 C 0.69980 -0.03893 0.63422
 H331 H 0.71380 -0.01741 0.58703
 H332 H 0.71275 0.03074 0.58772
 H333 H 0.65702 -0.01780 0.65554
 H334 H 0.69525 0.09421 0.66361
 H335 H 0.65939 0.09343 0.69724
 H336 H 0.58511 0.02688 0.71344
 H337 H 0.58661 -0.02146 0.71338
 H338 H 0.70258 -0.08083 0.66731
 H339 H 0.65644 0.02639 0.65681
 H340 H 0.66648 -0.08153 0.70029
 C341 C 0.29276 1.00893 0.60510
 C342 C 0.29236 0.98382 0.60589
 C343 C 0.29910 0.97724 0.62977
 N344 N 0.30356 0.99746 0.64370
 C345 C 0.29931 1.01692 0.62870
 C346 C 0.29926 0.95297 0.63889
 C347 C 0.31254 0.94634 0.66043
 C348 C 0.31002 0.92437 0.67321
 C349 C 0.32764 0.92466 0.69186
 C350 C 0.34033 0.94679 0.68984
 N351 N 0.33100 0.95986 0.67069
 C352 C 0.36111 0.95393 0.70419
 C353 C 0.36980 0.97839 0.70472
 C354 C 0.39331 0.98551 0.71267
 C355 C 0.39369 1.01062 0.71197
 C356 C 0.37022 1.01810 0.70399
 N357 N 0.35572 0.99830 0.69920
 C358 C 0.36185 1.04275 0.70273
 C359 C 0.34120 1.04932 0.68761
 C360 C 0.32658 1.07012 0.69060
 C361 C 0.30905 1.06985 0.67199
 C362 C 0.31334 1.04887 0.65802
 N363 N 0.33280 1.03630 0.66787
 C364 C 0.29958 1.04171 0.63670
 H365 H 0.28882 1.01997 0.58888
 H366 H 0.28781 0.97176 0.59057
 H367 H 0.34115 1.02070 0.66035
 H368 H 0.29700 0.90962 0.66943
 H369 H 0.33082 0.91016 0.70523
 H370 H 0.40869 0.97381 0.71813
 H371 H 0.40961 1.02200 0.71659
 H372 H 0.29431 1.08322 0.66967
 H373 H 0.33865 0.97589 0.66334
 H374 H 0.32773 1.08375 0.70515
 C375 C 0.73657 0.97943 0.37035
 C376 C 0.73755 1.00455 0.37019
 C377 C 0.71413 1.01283 0.36289
 N378 N 0.69924 0.99337 0.35762
 C379 C 0.71292 0.97294 0.36221
 C380 C 0.70591 1.03771 0.36273
 C381 C 0.68468 1.04447 0.34840
 C382 C 0.66957 1.06486 0.35225
 C383 C 0.65226 1.06526 0.33336
 C384 C 0.65701 1.04498 0.31861
 N385 N 0.67656 1.03227 0.32805
 C386 C 0.64431 1.03890 0.29645
 C387 C 0.64471 1.01467 0.28721
 C388 C 0.63877 1.00770 0.26318
 C389 C 0.63771 0.98253 0.26314
 C390 C 0.64310 0.97500 0.28712
 N391 N 0.64764 0.99467 0.30173
 C392 C 0.64133 0.95067 0.29605
 C393 C 0.65395 0.94350 0.31796
 C394 C 0.65014 0.92191 0.33111
 C395 C 0.66790 0.92130 0.34962
 C396 C 0.68169 0.94280 0.34760
 N397 N 0.67309 0.95613 0.32828
 C398 C 0.70332 0.94873 0.36135
 H399 H 0.75178 0.96756 0.37573
 H400 H 0.75396 1.01525 0.37469
 H401 H 0.68178 0.97160 0.32082
 H402 H 0.67034 1.07788 0.36737
 H403 H 0.63755 1.07868 0.33115
 H404 H 0.63534 1.01948 0.24738
 H405 H 0.63337 0.97111 0.24728
 H406 H 0.67042 0.90651 0.36275
 H407 H 0.68536 1.01732 0.31970
 H408 H 0.63626 0.90785 0.32777
 O409 O 0.81940 0.85300 0.52754
 O410 O 0.85142 0.81617 0.48025
 O411 O 0.81737 0.84933 0.47959
 O412 O 0.85390 0.81876 0.52827
 O413 O 0.82465 0.79038 0.53233
 O414 O 0.78788 0.82111 0.48320
 O415 O 0.82285 0.78708 0.48406
 O416 O 0.79018 0.82453 0.53121
 Cu417 Cu 0.83846 0.83717 0.50377
 Cu418 Cu 0.80347 0.80286 0.50806
 C419 C 0.79913 0.84536 0.53707
 C420 C 0.84266 0.79540 0.47408
 C421 C 0.79641 0.84050 0.47313
 C422 C 0.84576 0.79925 0.53837
 O423 O 0.14763 0.17979 0.47749
 O424 O 0.18158 0.14506 0.52480
 O425 O 0.14704 0.17874 0.52495
 O426 O 0.18196 0.14622 0.47674
 O427 O 0.21156 0.17452 0.47785
 O428 O 0.17603 0.20766 0.52625
 O429 O 0.21078 0.17374 0.52625
 O430 O 0.17694 0.20843 0.47773
 Cu431 Cu 0.16172 0.15951 0.50095
 Cu432 Cu 0.19681 0.19400 0.50215
 C433 C 0.15627 0.20007 0.46970
 C434 C 0.20196 0.15329 0.53351
 C435 C 0.15523 0.19891 0.53348
 C436 C 0.20270 0.15466 0.46913
 O437 O 0.18325 0.85165 0.47343
 O438 O 0.14993 0.81736 0.52150
 O439 O 0.18388 0.85124 0.52154
 O440 O 0.14929 0.81704 0.47419
 O441 O 0.17888 0.78881 0.47313
 O442 O 0.21376 0.82330 0.52113
 O443 O 0.17947 0.78904 0.52165
 O444 O 0.21303 0.82362 0.47269
 Cu445 Cu 0.16374 0.83724 0.49758
 Cu446 Cu 0.19932 0.80334 0.49703
 C447 C 0.20387 0.84377 0.46504
 C448 C 0.15875 0.79731 0.52960
 C449 C 0.20463 0.84317 0.52947
 C450 C 0.15778 0.79687 0.46605
 O451 O 0.81838 0.14846 0.47473
 O452 O 0.84980 0.18571 0.52207
 O453 O 0.81639 0.15176 0.52226
 O454 O 0.85240 0.18327 0.47393
 O455 O 0.82271 0.21110 0.46983
 O456 O 0.78667 0.17973 0.51926
 O457 O 0.82101 0.21448 0.51811
 O458 O 0.78869 0.17637 0.47106
 Cu459 Cu 0.83728 0.16458 0.49838
 Cu460 Cu 0.80180 0.19829 0.49422
 C461 C 0.79793 0.15566 0.46530
 C462 C 0.84084 0.20639 0.52818
 C463 C 0.79538 0.16022 0.52894
 C464 C 0.84393 0.20259 0.46379
 O465 O 0.47903 0.85243 0.81946
 O466 O 0.52900 0.81892 0.85143
 O467 O 0.52743 0.85310 0.81778
 O468 O 0.48088 0.81836 0.85328
 O469 O 0.47890 0.79044 0.82360
 O470 O 0.52715 0.82468 0.78855
 O471 O 0.52768 0.78998 0.82275
 O472 O 0.47858 0.82456 0.78968
 Cu473 Cu 0.50419 0.83855 0.83838
 Cu474 Cu 0.50310 0.80452 0.80318
 C475 C 0.47047 0.84440 0.79904
 C476 C 0.53649 0.79852 0.84288
 C477 C 0.53511 0.84500 0.79708
 C478 C 0.47194 0.79855 0.84460
 O479 O 0.53132 0.17979 0.14910
 O480 O 0.48040 0.14783 0.18137
 O481 O 0.48323 0.18210 0.14790
 O482 O 0.52850 0.14549 0.18293
 O483 O 0.53071 0.17431 0.21168
 O484 O 0.48225 0.20964 0.17797
 O485 O 0.48189 0.17509 0.21169
 O486 O 0.53097 0.20895 0.17757
 Cu487 Cu 0.50587 0.16098 0.16241
 Cu488 Cu 0.50660 0.19485 0.19773
 C489 C 0.53931 0.20014 0.15738
 C490 C 0.47274 0.15571 0.20218
 C491 C 0.47492 0.20199 0.15691
 C492 C 0.53727 0.15350 0.20325
 O493 O 0.51920 0.15021 0.81729
 O494 O 0.47254 0.18364 0.85378
 O495 O 0.47100 0.14962 0.81975
 O496 O 0.52072 0.18384 0.85117
 O497 O 0.51870 0.21292 0.82264
 O498 O 0.46905 0.17794 0.79045
 O499 O 0.46994 0.21214 0.82471
 O500 O 0.51764 0.17872 0.78815
 Cu501 Cu 0.49597 0.16399 0.83839
 Cu502 Cu 0.49365 0.19835 0.80355
 C503 C 0.52628 0.15860 0.79648
 C504 C 0.46344 0.20361 0.84570
 C505 C 0.46184 0.15762 0.79960
 C506 C 0.52804 0.20427 0.84249
 O507 O 0.47348 0.81669 0.14577
 O508 O 0.51992 0.85104 0.18165
 O509 O 0.52177 0.81707 0.14778
 O510 O 0.47198 0.85066 0.17971
 O511 O 0.47141 0.82274 0.20947
 O512 O 0.52001 0.78773 0.17606
 O513 O 0.52024 0.82197 0.21026
 O514 O 0.47123 0.78849 0.17517
 Cu515 Cu 0.49688 0.83666 0.16079
 Cu516 Cu 0.49560 0.80232 0.19569
 C517 C 0.46441 0.79684 0.15420
 C518 C 0.52795 0.84252 0.20205
 C519 C 0.52913 0.79655 0.15619
 C520 C 0.46362 0.84281 0.20026
 O521 O 0.85205 0.52628 0.81687
 O522 O 0.81795 0.47748 0.84913
 O523 O 0.85226 0.47948 0.81498
 O524 O 0.81780 0.52505 0.85112
 O525 O 0.78860 0.52677 0.82219
 O526 O 0.82263 0.47947 0.78640
 O527 O 0.78805 0.47887 0.82089
 O528 O 0.82316 0.52744 0.78760
 Cu529 Cu 0.83784 0.50198 0.83600
 Cu530 Cu 0.80260 0.50325 0.80136
 C531 C 0.84387 0.53475 0.79651
 C532 C 0.79713 0.46999 0.84075
 C533 C 0.84359 0.47195 0.79445
 C534 C 0.79739 0.53367 0.84296
 O535 O 0.14838 0.52522 0.18375
 O536 O 0.18558 0.47738 0.15324
 O537 O 0.15168 0.47777 0.18680
 O538 O 0.18303 0.52464 0.14921
 O539 O 0.21198 0.52941 0.17804
 O540 O 0.18023 0.48210 0.21611
 O541 O 0.21516 0.48183 0.18151
 O542 O 0.17748 0.52981 0.21245
 Cu543 Cu 0.16422 0.50106 0.16538
 Cu544 Cu 0.19914 0.50619 0.19997
 C545 C 0.15633 0.53543 0.20341
 C546 C 0.20671 0.47151 0.16208
 C547 C 0.16056 0.47188 0.20778
 C548 C 0.20299 0.53470 0.15689
 O549 O 0.81701 0.52204 0.14944
 O550 O 0.85197 0.47471 0.18294
 O551 O 0.81797 0.47449 0.14831
 O552 O 0.85127 0.52164 0.18348
 O553 O 0.82178 0.52138 0.21217
 O554 O 0.78851 0.47291 0.17697
 O555 O 0.82281 0.47334 0.21192
 O556 O 0.78721 0.52081 0.17777
 Cu557 Cu 0.83740 0.49827 0.16310
 Cu558 Cu 0.80207 0.49695 0.19763
 C559 C 0.79616 0.52944 0.15774
 C560 C 0.84373 0.46634 0.20334
 C561 C 0.79756 0.46575 0.15642
 C562 C 0.84247 0.52940 0.20384
 O563 O 0.18386 0.52130 0.84884
 O564 O 0.15017 0.47119 0.81743
 O565 O 0.18419 0.47403 0.85231
 O566 O 0.15039 0.51920 0.81475
 O567 O 0.18006 0.51789 0.78628
 O568 O 0.21321 0.47078 0.82337
 O569 O 0.17906 0.47030 0.78818
 O570 O 0.21429 0.51853 0.82128
 Cu571 Cu 0.16411 0.49641 0.83611
 Cu572 Cu 0.19963 0.49412 0.80189
 C573 C 0.20495 0.52821 0.84060
 C574 C 0.15858 0.46259 0.79718
 C575 C 0.20456 0.46497 0.84453
 C576 C 0.15955 0.52651 0.79434
 C577 C 0.26274 0.40396 0.10565
 N578 N 0.28697 0.40886 0.10003
 N579 N 0.29913 0.39524 0.08341
 C580 C 0.28755 0.37612 0.07196
 N581 N 0.26352 0.37092 0.07805
 N582 N 0.25129 0.38468 0.09444
 C583 C 0.24840 0.42035 0.12192
 N584 N 0.22309 0.42064 0.12051
 N585 N 0.20989 0.43666 0.13372
 C586 C 0.22145 0.45280 0.14910
 N587 N 0.24676 0.45229 0.15086
 N588 N 0.26002 0.43644 0.13737
 C589 C 0.74146 0.59589 0.09857
 N590 N 0.71736 0.60181 0.10372
 N591 N 0.70393 0.61499 0.08768
 C592 C 0.71413 0.62267 0.06592
 N593 N 0.73831 0.61700 0.06100
 N594 N 0.75170 0.60388 0.07700
 C595 C 0.75597 0.57987 0.11508
 N596 N 0.77945 0.57310 0.10857
 N597 N 0.79232 0.55738 0.12248
 C598 C 0.78222 0.54783 0.14346
 N599 N 0.75880 0.55476 0.15017
 N600 N 0.74588 0.57050 0.13620
 C601 C 0.74266 0.40320 0.89990
 N602 N 0.71846 0.39743 0.89495
 N603 N 0.70507 0.38427 0.91108
 C604 C 0.71541 0.37646 0.93272
 N605 N 0.73968 0.38200 0.93744
 N606 N 0.75304 0.39510 0.92135
 C607 C 0.75715 0.41919 0.88329
 N608 N 0.78075 0.42582 0.88960
 N609 N 0.79358 0.44159 0.87568
 C610 C 0.78333 0.45132 0.85486
 N611 N 0.75979 0.44452 0.84833
 N612 N 0.74691 0.42873 0.86232
 C613 C 0.25795 0.59787 0.89756
 N614 N 0.24590 0.61681 0.90866
 N615 N 0.25779 0.63123 0.92477
 C616 C 0.28207 0.62704 0.93067
 N617 N 0.29420 0.60824 0.91936
 N618 N 0.28239 0.59398 0.90301
 C619 C 0.24423 0.58085 0.88140
 N620 N 0.25651 0.56554 0.86571
 N621 N 0.24396 0.54918 0.85213
 C622 C 0.21872 0.54734 0.85405
 N623 N 0.20647 0.56267 0.86970
 N624 N 0.21898 0.57922 0.88300
 C625 C 0.09610 0.25525 0.40443
 N626 N 0.07113 0.25516 0.40853
 N627 N 0.05588 0.26804 0.39407
 C628 C 0.06488 0.28130 0.37469
 N629 N 0.08995 0.28132 0.37055
 N630 N 0.10532 0.26865 0.38525
 C631 C 0.11242 0.24066 0.42052
 N632 N 0.13715 0.24583 0.42291
 N633 N 0.15139 0.23287 0.43847
 C634 C 0.14138 0.21413 0.45186
 N635 N 0.11676 0.20887 0.44920
 N636 N 0.10253 0.22197 0.43394
 C637 C 0.09866 0.74318 0.59598
 N638 N 0.10781 0.73030 0.61555
 N639 N 0.09236 0.71813 0.63063
 C640 C 0.06728 0.71816 0.62650
 N641 N 0.05836 0.73086 0.60673
 N642 N 0.07369 0.74323 0.59189
 C643 C 0.11501 0.75741 0.57955
 N644 N 0.10510 0.77578 0.56574
 N645 N 0.11930 0.78862 0.55021
 C646 C 0.14393 0.78342 0.54766
 N647 N 0.15397 0.76499 0.56144
 N648 N 0.13975 0.75228 0.57726
 C649 C 0.89934 0.74060 0.40539
 N650 N 0.90413 0.71648 0.40958
 N651 N 0.92036 0.70437 0.39538
 C652 C 0.93220 0.71587 0.37634
 N653 N 0.92701 0.73986 0.37189
 N654 N 0.91101 0.75203 0.38624
 C655 C 0.88329 0.75467 0.42229
 N656 N 0.88532 0.77949 0.42324
 N657 N 0.87207 0.79238 0.43955
 C658 C 0.85604 0.78100 0.45532
 N659 N 0.85369 0.75619 0.45417
 N660 N 0.86721 0.74323 0.43804
 C661 C 0.89768 0.26157 0.59653
 N662 N 0.90817 0.25057 0.61658
 N663 N 0.92463 0.26255 0.63062
 C664 C 0.93154 0.28587 0.62494
 N665 N 0.92083 0.29700 0.60503
 N666 N 0.90411 0.28511 0.59114
 C667 C 0.88138 0.24747 0.57986
 N668 N 0.86604 0.25888 0.56340
 N669 N 0.85246 0.24583 0.54735
 C670 C 0.85405 0.22094 0.54697
 N671 N 0.86934 0.20959 0.56345
 N672 N 0.88262 0.22260 0.57970
 C673 C 0.40417 0.09703 0.25528
 N674 N 0.39631 0.07557 0.24512
 N675 N 0.38290 0.05969 0.25836
 C676 C 0.37681 0.06464 0.28229
 N677 N 0.38435 0.08628 0.29238
 N678 N 0.39782 0.10218 0.27911
 C679 C 0.42058 0.11345 0.24104
 N680 N 0.43008 0.13424 0.25131
 N681 N 0.44630 0.14811 0.23876
 C682 C 0.45359 0.14164 0.21553
 N683 N 0.44389 0.12100 0.20523
 N684 N 0.42769 0.10718 0.21774
 C685 C 0.59072 0.09906 0.73944
 N686 N 0.59589 0.10408 0.71528
 N687 N 0.60900 0.08827 0.70159
 C688 C 0.61734 0.06686 0.71156
 N689 N 0.61238 0.06204 0.73578
 N690 N 0.59931 0.07781 0.74942
 C691 C 0.57512 0.11556 0.75444
 N692 N 0.56905 0.10921 0.77802
 N693 N 0.55389 0.12325 0.79145
 C694 C 0.54423 0.14423 0.78187
 N695 N 0.55046 0.15077 0.75833
 N696 N 0.56563 0.13666 0.74484
 C697 C 0.40179 0.90323 0.74653
 N698 N 0.39420 0.92483 0.75651
 N699 N 0.38074 0.94060 0.74322
 C700 C 0.37436 0.93539 0.71941
 N701 N 0.38164 0.91361 0.70951
 N702 N 0.39512 0.89781 0.72283
 C703 C 0.41827 0.88691 0.76070
 N704 N 0.42701 0.86573 0.75066
 N705 N 0.44327 0.85185 0.76307
 C706 C 0.45139 0.85869 0.78592
 N707 N 0.44247 0.87974 0.79602
 N708 N 0.42621 0.89358 0.78365
 C709 C 0.59382 0.90221 0.25749
 N710 N 0.58856 0.92649 0.25906
 N711 N 0.60349 0.94159 0.27158
 C712 C 0.62455 0.93316 0.28275
 N713 N 0.62982 0.90878 0.28117
 N714 N 0.61465 0.89354 0.26890
 C715 C 0.57735 0.88610 0.24299
 N716 N 0.57611 0.86153 0.24729
 N717 N 0.56041 0.84742 0.23430
 C718 C 0.54571 0.85740 0.21637
 N719 N 0.54719 0.88188 0.21201
 N720 N 0.56257 0.89597 0.22516
 C721 C 0.39987 0.25692 0.90959
 N722 N 0.38321 0.27400 0.90170
 N723 N 0.36935 0.28642 0.91802
 C724 C 0.37169 0.28245 0.94288
 N725 N 0.38865 0.26547 0.95045
 N726 N 0.40230 0.25291 0.93426
 C727 C 0.41535 0.24279 0.89220
 N728 N 0.42790 0.22280 0.90053
 N729 N 0.44277 0.21017 0.88547
 C730 C 0.44584 0.21712 0.86150
 N731 N 0.43324 0.23711 0.85304
 N732 N 0.41815 0.24968 0.86811
 C733 C 0.60019 0.74215 0.90365
 N734 N 0.60487 0.71812 0.89878
 N735 N 0.61683 0.70419 0.91531
 C736 C 0.62443 0.71379 0.93733
 N737 N 0.62005 0.73789 0.94199
 N738 N 0.60813 0.75178 0.92549
 C739 C 0.58538 0.75723 0.88653
 N740 N 0.57948 0.78065 0.89276
 N741 N 0.56448 0.79397 0.87840
 C742 C 0.55485 0.78441 0.85721
 N743 N 0.56100 0.76108 0.85074
 N744 N 0.57600 0.74772 0.86516
 C745 C 0.39850 0.74432 0.09175
 N746 N 0.38162 0.72753 0.09995
 N747 N 0.36700 0.71555 0.08390
 C748 C 0.36876 0.71970 0.05902
 N749 N 0.38594 0.73636 0.05114
 N750 N 0.40035 0.74847 0.06706
 C751 C 0.41473 0.75810 0.10880
 N752 N 0.42749 0.77786 0.10017
 N753 N 0.44292 0.79028 0.11488
 C754 C 0.44638 0.78335 0.13879
 N755 N 0.43360 0.76356 0.14757
 N756 N 0.41794 0.75120 0.13283
 C757 C 0.60221 0.25609 0.09521
 N758 N 0.60951 0.24656 0.07312
 N759 N 0.62125 0.26046 0.05648
 C760 C 0.62609 0.28448 0.06124
 N761 N 0.61909 0.29397 0.08348
 N762 N 0.60731 0.28003 0.10015
 C763 C 0.58765 0.24102 0.11261
 N764 N 0.57902 0.25052 0.13427
 N765 N 0.56424 0.23725 0.14904
 C766 C 0.55759 0.21401 0.14266
 N767 N 0.56649 0.20445 0.12116
 N768 N 0.58126 0.21769 0.10645
 C769 C 0.25671 0.09183 0.59777
 N770 N 0.27763 0.09932 0.60988
 N771 N 0.29132 0.08329 0.62276
 C772 C 0.28482 0.05913 0.62379
 N773 N 0.26370 0.05193 0.61180
 N774 N 0.24995 0.06789 0.59911
 C775 C 0.24197 0.10878 0.58251
 N776 N 0.22013 0.10102 0.57240
 N777 N 0.20720 0.11552 0.55728
 C778 C 0.21564 0.13833 0.55158
 N779 N 0.23741 0.14625 0.56183
 N780 N 0.25034 0.13173 0.57709
 C781 C 0.74400 0.08940 0.40496
 N782 N 0.74609 0.06511 0.40989
 N783 N 0.73356 0.04866 0.39653
 C784 C 0.71860 0.05560 0.37739
 N785 N 0.71643 0.08009 0.37268
 N786 N 0.72876 0.09666 0.38622
 C787 C 0.75835 0.10719 0.41970
 N788 N 0.75209 0.13136 0.42034
 N789 N 0.76485 0.14703 0.43458
 C790 C 0.78451 0.13911 0.44839
 N791 N 0.79088 0.11504 0.44748
 N792 N 0.77800 0.09937 0.43349
 C793 C 0.74376 0.91002 0.59766
 N794 N 0.72231 0.90295 0.60907
 N795 N 0.70829 0.91929 0.62110
 C796 C 0.71498 0.94340 0.62207
 N797 N 0.73663 0.95023 0.61077
 N798 N 0.75070 0.93393 0.59885
 C799 C 0.75881 0.89248 0.58332
 N800 N 0.78071 0.89977 0.57295
 N801 N 0.79382 0.88449 0.55876
 C802 C 0.78553 0.86134 0.55435
 N803 N 0.76372 0.85394 0.56488
 N804 N 0.75061 0.86922 0.57916
 C805 C 0.25852 0.90632 0.40158
 N806 N 0.27974 0.89927 0.38978
 N807 N 0.29337 0.91559 0.37720
 C808 C 0.28651 0.93965 0.37615
 N809 N 0.26511 0.94642 0.38784
 N810 N 0.25141 0.93014 0.40023
 C811 C 0.24378 0.88901 0.41652
 N812 N 0.22158 0.89626 0.42615
 N813 N 0.20867 0.88148 0.44105
 C814 C 0.21748 0.85889 0.44698
 N815 N 0.23961 0.85147 0.43720
 N816 N 0.25253 0.86627 0.42216
 C817 C 0.09839 0.39594 0.74358
 N818 N 0.08535 0.37779 0.75503
 N819 N 0.06900 0.36419 0.74238
 C820 C 0.06483 0.36844 0.71789
 N821 N 0.07797 0.38655 0.70645
 N822 N 0.09457 0.39992 0.71900
 C823 C 0.11517 0.41201 0.75779
 N824 N 0.13303 0.42545 0.74611
 N825 N 0.14732 0.44106 0.75882
 C826 C 0.14405 0.44407 0.78361
 N827 N 0.12621 0.43062 0.79531
 N828 N 0.11214 0.41476 0.78265
 C829 C 0.09235 0.60033 0.25474
 N830 N 0.06741 0.59786 0.25134
 N831 N 0.05143 0.61168 0.26402
 C832 C 0.05952 0.62883 0.28052
 N833 N 0.08464 0.63127 0.28378
 N834 N 0.10073 0.61726 0.27126
 C835 C 0.10962 0.58449 0.24087
 N836 N 0.13399 0.58229 0.24756
 N837 N 0.14907 0.56691 0.23546
 C838 C 0.14036 0.55337 0.21612
 N839 N 0.11609 0.55581 0.20930
 N840 N 0.10100 0.57100 0.22149
 C841 C 0.90770 0.40487 0.25871
 N842 N 0.89971 0.38609 0.27327
 N843 N 0.91616 0.37202 0.28531
 C844 C 0.94120 0.37622 0.28342
 N845 N 0.94881 0.39548 0.26928
 N846 N 0.93252 0.40935 0.25706
 C847 C 0.89031 0.41993 0.24417
 N848 N 0.89915 0.43302 0.22464
 N849 N 0.88403 0.44729 0.21144
 C850 C 0.85950 0.44923 0.21736
 N851 N 0.85053 0.43614 0.23693
 N852 N 0.86567 0.42157 0.25002
 C853 C 0.90809 0.59713 0.74238
 N854 N 0.90032 0.61581 0.72760
 N855 N 0.91694 0.62990 0.71578
 C856 C 0.94196 0.62580 0.71809
 N857 N 0.94935 0.60665 0.73246
 N858 N 0.93289 0.59277 0.74446
 C859 C 0.89053 0.58201 0.75668
 N860 N 0.89911 0.56917 0.77646
 N861 N 0.88392 0.55468 0.78937
 C862 C 0.85956 0.55227 0.78289
 N863 N 0.85083 0.56514 0.76309
 N864 N 0.86604 0.57993 0.75028
 C865 C 0.74266 0.59627 0.90601
 N866 N 0.74991 0.59803 0.93003
 N867 N 0.73623 0.61045 0.94632
 C868 C 0.71470 0.62172 0.93937
 N869 N 0.70768 0.62024 0.91513
 N870 N 0.72132 0.60766 0.89878
 C871 C 0.75735 0.58136 0.88869
 N872 N 0.74878 0.57603 0.86558
 N873 N 0.76170 0.56118 0.85067
 C874 C 0.78365 0.55125 0.85837
 N875 N 0.79228 0.55683 0.88135
 N876 N 0.77936 0.57157 0.89623
 C877 C 0.25952 0.40512 0.91045
 N878 N 0.25751 0.40979 0.93504
 N879 N 0.26987 0.39630 0.95153
 C880 C 0.28457 0.37726 0.94435
 N881 N 0.28674 0.37283 0.91955
 N882 N 0.27456 0.38651 0.90293
 C883 C 0.24508 0.41987 0.89271
 N884 N 0.25101 0.42063 0.86819
 N885 N 0.23802 0.43478 0.85260
 C886 C 0.21847 0.44837 0.86097
 N887 N 0.21247 0.44735 0.88539
 N888 N 0.22557 0.43346 0.90096
 C889 C 0.25542 0.59708 0.09128
 N890 N 0.25304 0.59295 0.06663
 N891 N 0.26513 0.60688 0.05030
 C892 C 0.27992 0.62581 0.05771
 N893 N 0.28242 0.62972 0.08256
 N894 N 0.27050 0.61561 0.09902
 C895 C 0.24152 0.58169 0.10891
 N896 N 0.22237 0.56755 0.10063
 N897 N 0.20985 0.55303 0.11612
 C898 C 0.21611 0.55194 0.14048
 N899 N 0.23528 0.56609 0.14886
 N900 N 0.24768 0.58084 0.13335
 C901 C 0.74389 0.40222 0.09321
 N902 N 0.72250 0.39072 0.10020
 N903 N 0.70905 0.37811 0.08370
 C904 C 0.71629 0.37671 0.05952
 N905 N 0.73788 0.38807 0.05281
 N906 N 0.75138 0.40052 0.06927
 C907 C 0.75835 0.41726 0.11067
 N908 N 0.78047 0.42706 0.10339
 N909 N 0.79314 0.44200 0.11832
 C910 C 0.78415 0.44780 0.14110
 N911 N 0.76210 0.43785 0.14856
 N912 N 0.74942 0.42279 0.13360
 C913 C 0.90927 0.74776 0.60392
 N914 N 0.90095 0.73079 0.62045
 N915 N 0.91708 0.71822 0.63445
 C916 C 0.94218 0.72190 0.63237
 N917 N 0.95019 0.73884 0.61561
 N918 N 0.93418 0.75155 0.60182
 C919 C 0.89203 0.76169 0.58804
 N920 N 0.90064 0.78124 0.57496
 N921 N 0.88567 0.79347 0.55961
 C922 C 0.86151 0.78653 0.55661
 N923 N 0.85278 0.76701 0.56976
 N924 N 0.86775 0.75486 0.58530
 C925 C 0.90693 0.25432 0.39783
 N926 N 0.93181 0.25034 0.39970
 N927 N 0.94782 0.26292 0.38577
 C928 C 0.93984 0.27993 0.36909
 N929 N 0.91477 0.28383 0.36726
 N930 N 0.89863 0.27137 0.38139
 C931 C 0.88975 0.24040 0.41382
 N932 N 0.86551 0.24719 0.41677
 N933 N 0.85066 0.23498 0.43241
 C934 C 0.85949 0.21547 0.44547
 N935 N 0.88361 0.20859 0.44226
 N936 N 0.89845 0.22086 0.42681
 C937 C 0.09206 0.25324 0.59660
 N938 N 0.10042 0.26727 0.61567
 N939 N 0.08435 0.27993 0.62960
 C940 C 0.05934 0.27933 0.62492
 N941 N 0.05133 0.26545 0.60552
 N942 N 0.06724 0.25257 0.59180
 C943 C 0.10918 0.23871 0.58128
 N944 N 0.10009 0.21968 0.56779
 N945 N 0.11504 0.20676 0.55308
 C946 C 0.13962 0.21251 0.55107
 N947 N 0.14882 0.23156 0.56457
 N948 N 0.13387 0.24435 0.57957
 C949 C 0.09449 0.73936 0.40579
 N950 N 0.07075 0.73576 0.41374
 N951 N 0.05439 0.72360 0.39981
 C952 C 0.06093 0.71492 0.37713
 N953 N 0.08489 0.71816 0.36932
 N954 N 0.10142 0.73007 0.38345
 C955 C 0.11154 0.75440 0.42070
 N956 N 0.13672 0.75125 0.41987
 N957 N 0.15172 0.76485 0.43415
 C958 C 0.14203 0.78234 0.44933
 N959 N 0.11693 0.78559 0.44986
 N960 N 0.10197 0.77179 0.43594
 C961 C 0.59720 0.90725 0.74028
 N962 N 0.60427 0.92917 0.74999
 N963 N 0.61623 0.94565 0.73615
 C964 C 0.62155 0.94090 0.71200
 N965 N 0.61479 0.91883 0.70232
 N966 N 0.60278 0.90231 0.71621
 C967 C 0.58254 0.88997 0.75537
 N968 N 0.57606 0.89609 0.77890
 N969 N 0.56145 0.88139 0.79230
 C970 C 0.55279 0.85997 0.78272
 N971 N 0.55948 0.85366 0.75926
 N972 N 0.57410 0.86841 0.74581
 C973 C 0.40087 0.90567 0.25506
 N974 N 0.39947 0.92947 0.24785
 N975 N 0.38757 0.94588 0.26172
 C976 C 0.37646 0.93929 0.28340
 N977 N 0.37755 0.91527 0.29037
 N978 N 0.38964 0.89881 0.27656
 C979 C 0.41542 0.88822 0.24020
 N980 N 0.42122 0.86554 0.24898
 N981 N 0.43607 0.85066 0.23602
 C982 C 0.44551 0.85792 0.21379
 N983 N 0.43940 0.88043 0.20492
 N984 N 0.42467 0.89531 0.21789
 C985 C 0.59956 0.09024 0.25858
 N986 N 0.59333 0.06612 0.25923
 N987 N 0.60732 0.05012 0.27161
 C988 C 0.62839 0.05743 0.28357
 N989 N 0.63455 0.08168 0.28307
 N990 N 0.62033 0.09783 0.27091
 C991 C 0.58419 0.10730 0.24403
 N992 N 0.58392 0.13181 0.24878
 N993 N 0.56911 0.14676 0.23577
 C994 C 0.55438 0.13772 0.21735
 N995 N 0.55492 0.11330 0.21250
 N996 N 0.56942 0.09837 0.22567
 C997 C 0.39818 0.09455 0.74584
 N998 N 0.39679 0.07079 0.75315
 N999 N 0.38488 0.05428 0.73934
 C1000 C 0.37378 0.06074 0.71762
 N1001 N 0.37482 0.08474 0.71058
 N1002 N 0.38691 0.10130 0.72433
 C1003 C 0.41290 0.11206 0.76052
 N1004 N 0.41843 0.13482 0.75172
 N1005 N 0.43351 0.14974 0.76444
 C1006 C 0.44348 0.14244 0.78642
 N1007 N 0.43763 0.11985 0.79532
 N1008 N 0.42267 0.10495 0.78260
 C1009 C 0.59590 0.74167 0.09737
 N1010 N 0.60071 0.71766 0.10225
 N1011 N 0.61372 0.70411 0.08623
 C1012 C 0.62231 0.71408 0.06474
 N1013 N 0.61778 0.73816 0.06008
 N1014 N 0.60480 0.75168 0.07607
 C1015 C 0.57999 0.75632 0.11386
 N1016 N 0.57382 0.77963 0.10749
 N1017 N 0.55805 0.79257 0.12135
 C1018 C 0.54788 0.78271 0.14215
 N1019 N 0.55425 0.75947 0.14874
 N1020 N 0.57002 0.74648 0.13482
 C1021 C 0.40903 0.25786 0.09774
 N1022 N 0.38935 0.27054 0.10712
 N1023 N 0.37419 0.28310 0.09209
 C1024 C 0.37834 0.28367 0.06719
 N1025 N 0.39823 0.27116 0.05803
 N1026 N 0.41315 0.25841 0.07294
 C1027 C 0.42554 0.24324 0.11369
 N1028 N 0.43977 0.22533 0.10347
 N1029 N 0.45518 0.21208 0.11743
 C1030 C 0.45719 0.21641 0.14213
 N1031 N 0.44302 0.23439 0.15245
 N1032 N 0.42732 0.24750 0.13848
 C1033 C 0.59577 0.25868 0.90091
 N1034 N 0.60496 0.24832 0.92190
 N1035 N 0.61818 0.26157 0.93797
 C1036 C 0.62267 0.28574 0.93369
 N1037 N 0.61381 0.29607 0.91249
 N1038 N 0.60055 0.28278 0.89639
 C1039 C 0.57962 0.24425 0.88440
 N1040 N 0.56926 0.25433 0.86375
 N1041 N 0.55326 0.24145 0.84990
 C1042 C 0.54705 0.21809 0.85628
 N1043 N 0.55762 0.20800 0.87676
 N1044 N 0.57361 0.22082 0.89053
 C1045 C 0.40448 0.74503 0.90433
 N1046 N 0.38456 0.73261 0.89499
 N1047 N 0.36916 0.72035 0.91006
 C1048 C 0.37330 0.71981 0.93496
 N1049 N 0.39340 0.73210 0.94409
 N1050 N 0.40856 0.74456 0.92914
 C1051 C 0.42138 0.75911 0.88827
 N1052 N 0.43615 0.77675 0.89832
 N1053 N 0.45196 0.78945 0.88422
 C1054 C 0.45384 0.78479 0.85958
 N1055 N 0.43912 0.76707 0.84945
 N1056 N 0.42304 0.75454 0.86355
 C1057 C 0.74099 0.89612 0.40411
 N1058 N 0.71668 0.90150 0.40882
 N1059 N 0.70453 0.91783 0.39490
 C1060 C 0.71616 0.92920 0.37565
 N1061 N 0.74027 0.92335 0.37063
 N1062 N 0.75251 0.90726 0.38470
 C1063 C 0.75525 0.88013 0.42086
 N1064 N 0.78053 0.88186 0.42167
 N1065 N 0.79360 0.86885 0.43806
 C1066 C 0.78192 0.85337 0.45405
 N1067 N 0.75664 0.85131 0.45301
 N1068 N 0.74352 0.86459 0.43681
 C1069 C 0.25767 0.90201 0.59772
 N1070 N 0.28142 0.89667 0.60478
 N1071 N 0.29453 0.91253 0.61846
 C1072 C 0.28433 0.93428 0.62549
 N1073 N 0.26050 0.93940 0.61868
 N1074 N 0.24742 0.92357 0.60507
 C1075 C 0.24360 0.88566 0.58116
 N1076 N 0.22042 0.89222 0.57345
 N1077 N 0.20795 0.87840 0.55729
 C1078 C 0.21818 0.85748 0.54820
 N1079 N 0.24130 0.85074 0.55605
 N1080 N 0.25382 0.86462 0.57224
 C1081 C 0.25747 0.09670 0.40167
 N1082 N 0.24752 0.07508 0.39400
 N1083 N 0.26102 0.05937 0.38072
 C1084 C 0.28501 0.06467 0.37457
 N1085 N 0.29492 0.08648 0.38193
 N1086 N 0.28139 0.10221 0.39527
 C1087 C 0.24290 0.11290 0.41790
 N1088 N 0.25283 0.13396 0.42718
 N1089 N 0.23989 0.14765 0.44316
 C1090 C 0.21662 0.14071 0.45043
 N1091 N 0.20668 0.11979 0.44096
 N1092 N 0.21957 0.10616 0.42500
 C1093 C 0.73935 0.10193 0.59534
 N1094 N 0.71483 0.10630 0.60013
 N1095 N 0.70131 0.09016 0.61308
 C1096 C 0.71183 0.06907 0.62161
 N1097 N 0.73639 0.06493 0.61705
 N1098 N 0.74987 0.08104 0.60418
 C1099 C 0.75411 0.11847 0.57953
 N1100 N 0.77810 0.11265 0.57400
 N1101 N 0.79128 0.12638 0.55834
 C1102 C 0.78104 0.14653 0.54760
 N1103 N 0.75711 0.15261 0.55332
 N1104 N 0.74385 0.13879 0.56901
 C1105 C 0.90256 0.59478 0.25885
 N1106 N 0.89360 0.61477 0.27097
 N1107 N 0.90913 0.62973 0.28313
 C1108 C 0.93409 0.62507 0.28385
 N1109 N 0.94280 0.60487 0.27195
 N1110 N 0.92741 0.59015 0.25957
 C1111 C 0.88622 0.57857 0.24443
 N1112 N 0.89625 0.56465 0.22614
 N1113 N 0.88204 0.54936 0.21309
 C1114 C 0.85730 0.54715 0.21800
 N1115 N 0.84715 0.56102 0.23636
 N1116 N 0.86137 0.57663 0.24927
 C1117 C 0.90482 0.40972 0.73728
 N1118 N 0.89685 0.38778 0.72831
 N1119 N 0.91267 0.37291 0.71651
 C1120 C 0.93692 0.37957 0.71303
 N1121 N 0.94459 0.40179 0.72155
 N1122 N 0.92893 0.41647 0.73362
 C1123 C 0.88838 0.42550 0.75199
 N1124 N 0.89850 0.44080 0.76909
 N1125 N 0.88401 0.45524 0.78278
 C1126 C 0.85888 0.45518 0.77965
 N1127 N 0.84865 0.43999 0.76241
 N1128 N 0.86317 0.42520 0.74894
 C1129 C 0.10273 0.59554 0.74038
 N1130 N 0.09166 0.61459 0.75226
 N1131 N 0.07565 0.62912 0.74037
 C1132 C 0.06978 0.62493 0.71624
 N1133 N 0.08108 0.60601 0.70426
 N1134 N 0.09736 0.59165 0.71608
 C1135 C 0.11870 0.57844 0.75422
 N1136 N 0.13496 0.56331 0.74237
 N1137 N 0.14850 0.54708 0.75513
 C1138 C 0.14594 0.54518 0.78014
 N1139 N 0.12969 0.56029 0.79192
 N1140 N 0.11645 0.57672 0.77923
 C1141 C 0.10345 0.40383 0.26272
 N1142 N 0.09229 0.38464 0.25107
 N1143 N 0.07570 0.37070 0.26293
 C1144 C 0.06934 0.37561 0.28678
 N1145 N 0.08073 0.39464 0.29855
 N1146 N 0.09755 0.40846 0.28676
 C1147 C 0.11990 0.42042 0.24875
 N1148 N 0.13527 0.43655 0.26049
 N1149 N 0.14894 0.45254 0.24749
 C1150 C 0.14741 0.45313 0.22234
 N1151 N 0.13211 0.43695 0.21067
 N1152 N 0.11874 0.42080 0.22361
   
