data_POSCAR
  _audit_creation_date              2014-09-24
  _audit_creation_method            'ToBaCCo'
  _symmetry_space_group_name_H-M    'P1'
  _symmetry_Int_Tables_number       1
  _symmetry_cell_setting            triclinic
  loop_
  _symmetry_equiv_pos_as_xyz
 x,y,z
_cell_length_a 45.3879
_cell_length_b 45.3675
_cell_length_c 45.4479
_cell_angle_alpha 89.926000
_cell_angle_beta 89.950500
_cell_angle_gamma 90.010800
loop_
  _atom_site_label
  _atom_site_type_symbol
  _atom_site_fract_x
  _atom_site_fract_y
  _atom_site_fract_z
C1 C 0.25012 0.27232 0.22759
 C2 C 0.27208 0.27216 0.20584
 C3 C 0.29387 0.25030 0.20591
 C4 C 0.29391 0.22844 0.22771
 C5 C 0.27212 0.22826 0.24962
 C6 C 0.25010 0.25029 0.24960
 C7 C 0.22818 0.29410 0.22773
 C8 C 0.20636 0.29404 0.24956
 C9 C 0.20629 0.27223 0.27140
 C10 C 0.22807 0.25028 0.27159
 C11 C 0.22821 0.22832 0.29336
 C12 C 0.25006 0.20651 0.29333
 C13 C 0.27193 0.20648 0.27156
 H14 H 0.27225 0.28899 0.18886
 H15 H 0.31088 0.21161 0.22756
 H16 H 0.22803 0.31109 0.21092
 H17 H 0.18930 0.27238 0.28820
 H18 H 0.21138 0.22815 0.31031
 H19 H 0.28875 0.18949 0.27173
 C20 C 0.74965 -0.27215 0.22758
 C21 C 0.72766 -0.27204 0.20591
 C22 C 0.70577 -0.25024 0.20600
 C23 C 0.70572 -0.22838 0.22779
 C24 C 0.72756 -0.22818 0.24962
 C25 C 0.74964 -0.25014 0.24956
 C26 C 0.77166 -0.29387 0.22768
 C27 C 0.79353 -0.29378 0.24944
 C28 C 0.79356 -0.27196 0.27126
 C29 C 0.77171 -0.25008 0.27147
 C30 C 0.77153 -0.22815 0.29321
 C31 C 0.74962 -0.20641 0.29323
 C32 C 0.72772 -0.20641 0.27153
 H33 H 0.72757 -0.28889 0.18898
 H34 H 0.68872 -0.21157 0.22775
 H35 H 0.77176 -0.31082 0.21085
 H36 H 0.81055 -0.27201 0.28804
 H37 H 0.78839 -0.22796 0.31011
 H38 H 0.71085 -0.18948 0.27174
 C39 C 0.75024 0.27252 0.77207
 C40 C 0.72829 0.27233 0.79383
 C41 C 0.70645 0.25046 0.79380
 C42 C 0.70643 0.22862 0.77200
 C43 C 0.72822 0.22850 0.75009
 C44 C 0.75024 0.25052 0.75008
 C45 C 0.77218 0.29431 0.77191
 C46 C 0.79402 0.29430 0.75007
 C47 C 0.79406 0.27250 0.72824
 C48 C 0.77227 0.25055 0.72809
 C49 C 0.77211 0.22863 0.70634
 C50 C 0.75026 0.20682 0.70639
 C51 C 0.72840 0.20675 0.72817
 H52 H 0.72819 0.28917 0.81077
 H53 H 0.68947 0.21175 0.77209
 H54 H 0.77227 0.31124 0.78875
 H55 H 0.81102 0.27262 0.71139
 H56 H 0.78894 0.22849 0.68937
 H57 H 0.71157 0.18976 0.72801
 C58 C 0.24949 -0.27295 0.77285
 C59 C 0.27139 -0.27279 0.79462
 C60 C 0.29325 -0.25098 0.79452
 C61 C 0.29340 -0.22917 0.77267
 C62 C 0.27167 -0.22900 0.75073
 C63 C 0.24959 -0.25097 0.75079
 C64 C 0.22749 -0.29469 0.77275
 C65 C 0.20571 -0.29464 0.75089
 C66 C 0.20578 -0.27285 0.72898
 C67 C 0.22761 -0.25096 0.72877
 C68 C 0.22789 -0.22906 0.70696
 C69 C 0.24979 -0.20730 0.70695
 C70 C 0.27160 -0.20726 0.72875
 H71 H 0.27147 -0.28958 0.81163
 H72 H 0.31042 -0.21239 0.77279
 H73 H 0.22732 -0.31161 0.78964
 H74 H 0.18886 -0.27294 0.71212
 H75 H 0.21110 -0.22889 0.68998
 H76 H 0.28846 -0.19032 0.72855
 C77 C 0.75020 -0.27245 0.77254
 C78 C 0.72829 -0.27229 0.79433
 C79 C 0.70647 -0.25046 0.79427
 C80 C 0.70636 -0.22862 0.77246
 C81 C 0.72810 -0.22844 0.75051
 C82 C 0.75015 -0.25044 0.75051
 C83 C 0.77216 -0.29420 0.77238
 C84 C 0.79395 -0.29415 0.75050
 C85 C 0.79393 -0.27234 0.72862
 C86 C 0.77213 -0.25042 0.72847
 C87 C 0.77191 -0.22849 0.70668
 C88 C 0.75003 -0.20672 0.70674
 C89 C 0.72821 -0.20668 0.72856
 H90 H 0.72817 -0.28910 0.81132
 H91 H 0.68936 -0.21182 0.77263
 H92 H 0.77229 -0.31115 0.78926
 H93 H 0.81087 -0.27242 0.71175
 H94 H 0.78870 -0.22832 0.68969
 H95 H 0.71137 -0.18972 0.72840
 C96 C 0.25011 0.27188 0.77172
 C97 C 0.27211 0.27175 0.79338
 C98 C 0.29395 0.24993 0.79325
 C99 C 0.29398 0.22809 0.77150
 C100 C 0.27215 0.22789 0.74968
 C101 C 0.25009 0.24987 0.74975
 C102 C 0.22813 0.29361 0.77163
 C103 C 0.20628 0.29353 0.74989
 C104 C 0.20619 0.27174 0.72808
 C105 C 0.22800 0.24984 0.72784
 C106 C 0.22815 0.22790 0.70612
 C107 C 0.25004 0.20615 0.70611
 C108 C 0.27196 0.20612 0.72779
 H109 H 0.27229 0.28856 0.81033
 H110 H 0.31099 0.21130 0.77161
 H111 H 0.22799 0.31059 0.78841
 H112 H 0.18916 0.27187 0.71135
 H113 H 0.21128 0.22772 0.68923
 H114 H 0.28881 0.18917 0.72757
 C115 C 0.24985 -0.27264 0.22751
 C116 C 0.27187 -0.27253 0.20583
 C117 C 0.29380 -0.25076 0.20597
 C118 C 0.29386 -0.22895 0.22779
 C119 C 0.27200 -0.22875 0.24962
 C120 C 0.24987 -0.25067 0.24952
 C121 C 0.22781 -0.29433 0.22758
 C122 C 0.20590 -0.29423 0.24935
 C123 C 0.20589 -0.27246 0.27120
 C124 C 0.22777 -0.25062 0.27145
 C125 C 0.22796 -0.22873 0.29321
 C126 C 0.24992 -0.20703 0.29325
 C127 C 0.27185 -0.20703 0.27156
 H128 H 0.27195 -0.28936 0.18887
 H129 H 0.31089 -0.21216 0.22776
 H130 H 0.22769 -0.31125 0.21072
 H131 H 0.18887 -0.27251 0.28799
 H132 H 0.21108 -0.22853 0.31012
 H133 H 0.28875 -0.19012 0.27179
 C134 C 0.75080 0.27296 0.22777
 C135 C 0.72894 0.27274 0.20598
 C136 C 0.70718 0.25084 0.20602
 C137 C 0.70710 0.22899 0.22782
 C138 C 0.72879 0.22887 0.24978
 C139 C 0.75077 0.25094 0.24980
 C140 C 0.77270 0.29479 0.22795
 C141 C 0.79444 0.29480 0.24983
 C142 C 0.79445 0.27298 0.27170
 C143 C 0.77272 0.25099 0.27184
 C144 C 0.77251 0.22905 0.29362
 C145 C 0.75070 0.20720 0.29354
 C146 C 0.72892 0.20710 0.27172
 H147 H 0.72880 0.28956 0.18899
 H148 H 0.69015 0.21213 0.22765
 H149 H 0.77281 0.31175 0.21108
 H150 H 0.81135 0.27311 0.28858
 H151 H 0.78927 0.22892 0.31062
 H152 H 0.71214 0.19008 0.27186
 O153 O 0.22566 0.02806 0.47123
 O154 O 0.22569 -0.02938 0.52859
 O155 O 0.22565 0.02802 0.52853
 O156 O 0.22569 -0.02934 0.47128
 O157 O 0.27441 -0.02931 0.47124
 O158 O 0.27438 0.02806 0.52849
 O159 O 0.27442 -0.02935 0.52855
 O160 O 0.27439 0.02810 0.47119
 Cu161 Cu 0.22076 -0.00067 0.49991
 Cu162 Cu 0.27932 -0.00063 0.49986
 C163 C 0.25002 0.03778 0.46153
 C164 C 0.25006 -0.03906 0.53826
 C165 C 0.25001 0.03772 0.53817
 C166 C 0.25006 -0.03900 0.46159
 O167 O 0.72572 0.02879 0.52864
 O168 O 0.72556 -0.02855 0.47132
 O169 O 0.72559 -0.02862 0.52864
 O170 O 0.72573 0.02886 0.47134
 O171 O 0.77446 0.02874 0.47129
 O172 O 0.77432 -0.02873 0.52858
 O173 O 0.77429 -0.02867 0.47127
 O174 O 0.77445 0.02868 0.52859
 Cu175 Cu 0.72073 0.00013 0.49999
 Cu176 Cu 0.77930 -0.00001 0.49992
 C177 C 0.75011 0.03842 0.53828
 C178 C 0.74990 -0.03828 0.46162
 C179 C 0.74994 -0.03836 0.53828
 C180 C 0.75012 0.03850 0.46165
 O181 O 0.47218 0.22598 0.02808
 O182 O 0.52959 0.22600 -0.02926
 O183 O 0.52956 0.22608 0.02805
 O184 O 0.47222 0.22591 -0.02922
 O185 O 0.47215 0.27466 -0.02935
 O186 O 0.52949 0.27483 0.02792
 O187 O 0.52953 0.27475 -0.02939
 O188 O 0.47211 0.27473 0.02796
 Cu189 Cu 0.50089 0.22107 -0.00058
 Cu190 Cu 0.50081 0.27966 -0.00073
 C191 C 0.46245 0.25035 0.03769
 C192 C 0.53925 0.25038 -0.03900
 C193 C 0.53920 0.25048 0.03765
 C194 C 0.46250 0.25026 -0.03895
 O195 O 0.52861 0.72499 0.02977
 O196 O 0.47125 0.72484 -0.02753
 O197 O 0.52862 0.72494 -0.02754
 O198 O 0.47122 0.72489 0.02977
 O199 O 0.47114 0.77364 0.02967
 O200 O 0.52855 0.77369 -0.02764
 O201 O 0.47117 0.77359 -0.02763
 O202 O 0.52853 0.77374 0.02966
 Cu203 Cu 0.49994 0.72000 0.00113
 Cu204 Cu 0.49984 0.77859 0.00101
 C205 C 0.53826 0.74939 0.03938
 C206 C 0.46153 0.74919 -0.03725
 C207 C 0.53827 0.74933 -0.03727
 C208 C 0.46149 0.74925 0.03939
 O209 O 0.02824 0.47220 0.22512
 O210 O -0.02916 0.52960 0.22506
 O211 O 0.02824 0.52960 0.22502
 O212 O -0.02913 0.47219 0.22517
 O213 O -0.02913 0.47221 0.27383
 O214 O 0.02823 0.52962 0.27368
 O215 O -0.02916 0.52962 0.27372
 O216 O 0.02824 0.47222 0.27379
 Cu217 Cu -0.00045 0.50090 0.22018
 Cu218 Cu -0.00046 0.50093 0.27867
 C219 C 0.03793 0.46252 0.24947
 C220 C -0.03885 0.53930 0.24938
 C221 C 0.03793 0.53929 0.24933
 C222 C -0.03880 0.46250 0.24952
 O223 O 0.02823 0.52900 0.72629
 O224 O -0.02920 0.47162 0.72610
 O225 O -0.02916 0.52903 0.72623
 O226 O 0.02817 0.47161 0.72614
 O227 O 0.02809 0.47143 0.77481
 O228 O -0.02924 0.52885 0.77489
 O229 O -0.02929 0.47144 0.77476
 O230 O 0.02815 0.52882 0.77495
 Cu231 Cu -0.00048 0.50033 0.72128
 Cu232 Cu -0.00059 0.50012 0.77977
 C233 C 0.03789 0.53859 0.75065
 C234 C -0.03893 0.46184 0.75040
 C235 C -0.03887 0.53863 0.75057
 C236 C 0.03780 0.46183 0.75046
 C237 C 0.35798 0.25030 0.14192
 C238 C 0.35481 0.22511 0.11963
 C239 C 0.37606 0.22512 0.09843
 C240 C 0.39841 0.25032 0.10160
 C241 C 0.41061 0.24726 0.13295
 C242 C 0.38935 0.24725 0.15415
 C243 C 0.35854 0.27856 0.12330
 C244 C 0.37980 0.27857 0.10211
 C245 C 0.33510 0.25029 0.16474
 C246 C 0.31630 0.25029 0.18350
 C247 C 0.42130 0.25032 0.07877
 C248 C 0.44010 0.25034 0.06002
 H249 H 0.33740 0.20871 0.12042
 H250 H 0.37686 0.20873 0.08106
 H251 H 0.43389 0.24527 0.13805
 H252 H 0.39443 0.24526 0.17741
 H253 H 0.34356 0.29694 0.12649
 H254 H 0.38303 0.29695 0.08713
 C255 C 0.64276 0.74963 0.14341
 C256 C 0.65125 0.76704 0.11568
 C257 C 0.62998 0.76700 0.09453
 C258 C 0.60231 0.74955 0.10317
 C259 C 0.59219 0.76306 0.13244
 C260 C 0.61346 0.76310 0.15359
 C261 C 0.63480 0.71869 0.13233
 C262 C 0.61353 0.71864 0.11118
 C263 C 0.66566 0.74967 0.16618
 C264 C 0.68448 0.74971 0.18488
 C265 C 0.57941 0.74950 0.08040
 C266 C 0.56061 0.74945 0.06167
 H267 H 0.67212 0.77840 0.11291
 H268 H 0.63264 0.77832 0.07364
 H269 H 0.57026 0.77182 0.13622
 H270 H 0.60974 0.77190 0.17548
 H271 H 0.64497 0.69858 0.14038
 H272 H 0.60549 0.69850 0.10112
 C273 C 0.64359 0.25041 -0.14336
 C274 C 0.63475 0.21942 -0.13303
 C275 C 0.61353 0.21941 -0.11179
 C276 C 0.60323 0.25040 -0.10297
 C277 C 0.59345 0.26500 -0.13185
 C278 C 0.61467 0.26501 -0.15308
 C279 C 0.65263 0.26680 -0.11525
 C280 C 0.63141 0.26679 -0.09402
 C281 C 0.66643 0.25042 -0.16622
 C282 C 0.68522 0.25043 -0.18500
 C283 C 0.58038 0.25038 -0.08011
 C284 C 0.56160 0.25038 -0.06133
 H285 H 0.64431 0.19926 -0.14163
 H286 H 0.60492 0.19924 -0.10220
 H287 H 0.57178 0.27450 -0.13531
 H288 H 0.61117 0.27452 -0.17473
 H289 H 0.67383 0.27747 -0.11229
 H290 H 0.63444 0.27745 -0.07286
 C291 C 0.35723 0.74904 -0.14148
 C292 C 0.34533 0.75543 -0.11051
 C293 C 0.36655 0.75545 -0.08930
 C294 C 0.39758 0.74908 -0.10114
 C295 C 0.40265 0.77215 -0.12536
 C296 C 0.38143 0.77213 -0.14657
 C297 C 0.37362 0.71958 -0.13866
 C298 C 0.39484 0.71960 -0.11746
 C299 C 0.33439 0.74902 -0.16430
 C300 C 0.31563 0.74901 -0.18307
 C301 C 0.42042 0.74910 -0.07832
 C302 C 0.43920 0.74913 -0.05956
 H303 H 0.32228 0.75957 -0.10565
 H304 H 0.36166 0.75962 -0.06629
 H305 H 0.42126 0.78718 -0.12582
 H306 H 0.38187 0.78714 -0.16518
 H307 H 0.36898 0.70039 -0.15214
 H308 H 0.40837 0.70043 -0.11278
 C309 C 0.14229 0.35811 0.24952
 C310 C 0.13038 0.36535 0.28030
 C311 C 0.10915 0.38659 0.28029
 C312 C 0.10190 0.39851 0.24951
 C313 C 0.09377 0.37122 0.23131
 C314 C 0.11500 0.34998 0.23131
 C315 C 0.15275 0.38774 0.23694
 C316 C 0.13152 0.40898 0.23693
 C317 C 0.16514 0.33525 0.24951
 C318 C 0.18393 0.31646 0.24953
 C319 C 0.07904 0.42138 0.24950
 C320 C 0.06027 0.44017 0.24949
 H321 H 0.13796 0.35473 0.30033
 H322 H 0.09854 0.39416 0.30033
 H323 H 0.07315 0.36878 0.21947
 H324 H 0.11257 0.32935 0.21947
 H325 H 0.17488 0.39169 0.22875
 H326 H 0.13547 0.43112 0.22875
 C327 C 0.14263 0.64266 0.75090
 C328 C 0.12708 0.63922 0.72112
 C329 C 0.10576 0.61806 0.72108
 C330 C 0.10208 0.60241 0.75083
 C331 C 0.09647 0.62722 0.77308
 C332 C 0.11779 0.64838 0.77312
 C333 C 0.15417 0.61176 0.75842
 C334 C 0.13286 0.59060 0.75838
 C335 C 0.16557 0.66545 0.75093
 C336 C 0.18442 0.68418 0.75093
 C337 C 0.07914 0.57962 0.75078
 C338 C 0.06029 0.56089 0.75073
 H339 H 0.13234 0.65226 0.70177
 H340 H 0.09277 0.61297 0.70170
 H341 H 0.07744 0.62808 0.78754
 H342 H 0.11701 0.66737 0.78761
 H343 H 0.17707 0.60692 0.76334
 H344 H 0.13750 0.56763 0.76326
 C345 C -0.14343 0.64350 0.24936
 C346 C -0.14392 0.62378 0.27683
 C347 C -0.12264 0.60259 0.27682
 C348 C -0.10295 0.60319 0.24935
 C349 C -0.09071 0.63471 0.24795
 C350 C -0.11199 0.65590 0.24796
 C351 C -0.14559 0.62214 0.22327
 C352 C -0.12431 0.60095 0.22327
 C353 C -0.16635 0.66630 0.24937
 C354 C -0.18518 0.68504 0.24939
 C355 C -0.08004 0.58038 0.24935
 C356 C -0.06122 0.56162 0.24936
 H357 H -0.15960 0.62624 0.29471
 H358 H -0.12009 0.58691 0.29470
 H359 H -0.06738 0.63993 0.24705
 H360 H -0.10689 0.67927 0.24706
 H361 H -0.16235 0.62354 0.20630
 H362 H -0.12284 0.58420 0.20629
 C363 C -0.14317 0.35726 0.75013
 C364 C -0.14230 0.37565 0.72177
 C365 C -0.12110 0.39693 0.72181
 C366 C -0.10284 0.39774 0.75022
 C367 C -0.09061 0.36638 0.75371
 C368 C -0.11180 0.34510 0.75366
 C369 C -0.14671 0.37982 0.77503
 C370 C -0.12552 0.40110 0.77508
 C371 C -0.16599 0.33436 0.75009
 C372 C -0.18476 0.31554 0.75007
 C373 C -0.08002 0.42065 0.75028
 C374 C -0.06126 0.43946 0.75033
 H375 H -0.15703 0.37225 0.70327
 H376 H -0.11768 0.41176 0.70336
 H377 H -0.06734 0.36134 0.75601
 H378 H -0.10669 0.32183 0.75592
 H379 H -0.16432 0.37914 0.79120
 H380 H -0.12497 0.41865 0.79129
 C381 C 0.25001 0.14234 0.35730
 C382 C 0.23639 0.15241 0.38654
 C383 C 0.23639 0.13113 0.40774
 C384 C 0.25001 0.10187 0.39763
 C385 C 0.28093 0.10997 0.38654
 C386 C 0.28093 0.13125 0.36534
 C387 C 0.23271 0.11458 0.34871
 C388 C 0.23271 0.09331 0.36991
 C389 C 0.25002 0.16525 0.33449
 C390 C 0.25003 0.18406 0.31573
 C391 C 0.25000 0.07897 0.42045
 C392 C 0.25000 0.06015 0.43920
 H393 H 0.22753 0.17431 0.39027
 H394 H 0.22752 0.13482 0.42962
 H395 H 0.30105 0.09989 0.39462
 H396 H 0.30105 0.13938 0.35527
 H397 H 0.22146 0.11187 0.32782
 H398 H 0.22145 0.07237 0.36717
 C399 C 0.75025 0.14279 0.64244
 C400 C 0.75845 0.15436 0.61175
 C401 C 0.75843 0.13312 0.59057
 C402 C 0.75022 0.10239 0.60214
 C403 C 0.72024 0.10644 0.61728
 C404 C 0.72026 0.12767 0.63846
 C405 C 0.77202 0.11760 0.64844
 C406 C 0.77200 0.09636 0.62726
 C407 C 0.75026 0.16564 0.66525
 C408 C 0.75026 0.18442 0.68400
 C409 C 0.75019 0.07953 0.57934
 C410 C 0.75016 0.06075 0.56059
 H411 H 0.76381 0.17721 0.60707
 H412 H 0.76377 0.13779 0.56774
 H413 H 0.70072 0.09374 0.61184
 H414 H 0.70075 0.13316 0.65116
 H415 H 0.78620 0.11654 0.66764
 H416 H 0.78617 0.07711 0.62831
 C417 C 0.24998 -0.14333 0.64277
 C418 C 0.26238 -0.15391 0.61318
 C419 C 0.26241 -0.13270 0.59191
 C420 C 0.25003 -0.10300 0.60231
 C421 C 0.26843 -0.09491 0.62946
 C422 C 0.26840 -0.11611 0.65073
 C423 C 0.21919 -0.13129 0.63563
 C424 C 0.21922 -0.11009 0.61436
 C425 C 0.24994 -0.16616 0.66567
 C426 C 0.24988 -0.18491 0.68449
 C427 C 0.25006 -0.08017 0.57942
 C428 C 0.25006 -0.06140 0.56061
 H429 H 0.27043 -0.17610 0.60927
 H430 H 0.27048 -0.13673 0.56978
 H431 H 0.28042 -0.07433 0.63177
 H432 H 0.28037 -0.11370 0.67126
 H433 H 0.19914 -0.13876 0.64633
 H434 H 0.19919 -0.09940 0.60685
 C435 C 0.74966 -0.14244 0.35725
 C436 C 0.76986 -0.14958 0.38338
 C437 C 0.76990 -0.12840 0.40461
 C438 C 0.74973 -0.10214 0.39764
 C439 C 0.71926 -0.11573 0.39214
 C440 C 0.71922 -0.13692 0.37091
 C441 C 0.75996 -0.11215 0.34619
 C442 C 0.76000 -0.09097 0.36742
 C443 C 0.74962 -0.16525 0.33439
 C444 C 0.74961 -0.18401 0.31562
 C445 C 0.74978 -0.07934 0.42050
 C446 C 0.74983 -0.06059 0.43928
 H447 H 0.78297 -0.16952 0.38505
 H448 H 0.78305 -0.13020 0.42447
 H449 H 0.69945 -0.10928 0.40389
 H450 H 0.69938 -0.14861 0.36447
 H451 H 0.76663 -0.10773 0.32366
 H452 H 0.76670 -0.06840 0.36309
 C453 C 0.64252 0.74946 -0.14164
 C454 C 0.63370 0.71845 -0.13131
 C455 C 0.61250 0.71843 -0.11007
 C456 C 0.60219 0.74940 -0.10123
 C457 C 0.59239 0.76402 -0.13009
 C458 C 0.61359 0.76405 -0.15134
 C459 C 0.65158 0.76583 -0.11353
 C460 C 0.63037 0.76580 -0.09228
 C461 C 0.66534 0.74948 -0.16450
 C462 C 0.68409 0.74952 -0.18330
 C463 C 0.57937 0.74937 -0.07837
 C464 C 0.56060 0.74935 -0.05959
 H465 H 0.64327 0.69830 -0.13993
 H466 H 0.60390 0.69825 -0.10048
 H467 H 0.57071 0.77351 -0.13354
 H468 H 0.61008 0.77356 -0.17298
 H469 H 0.67278 0.77651 -0.11057
 H470 H 0.63341 0.77645 -0.07112
 C471 C 0.35810 0.25003 -0.14298
 C472 C 0.34626 0.25644 -0.11199
 C473 C 0.36751 0.25648 -0.09083
 C474 C 0.39852 0.25011 -0.10273
 C475 C 0.40354 0.27318 -0.12697
 C476 C 0.38228 0.27314 -0.14813
 C477 C 0.37451 0.22058 -0.14019
 C478 C 0.39576 0.22062 -0.11903
 C479 C 0.33523 0.24999 -0.16574
 C480 C 0.31641 0.24996 -0.18444
 C481 C 0.42139 0.25015 -0.07996
 C482 C 0.44017 0.25020 -0.06123
 H483 H 0.32321 0.26058 -0.10710
 H484 H 0.36267 0.26065 -0.06781
 H485 H 0.42214 0.28821 -0.12747
 H486 H 0.38268 0.28814 -0.16675
 H487 H 0.36985 0.20139 -0.15365
 H488 H 0.40931 0.20146 -0.11437
 C489 C 0.35686 0.74919 0.14338
 C490 C 0.35373 0.72400 0.12108
 C491 C 0.37503 0.72401 0.09993
 C492 C 0.39737 0.74920 0.10315
 C493 C 0.40950 0.74615 0.13453
 C494 C 0.38820 0.74614 0.15568
 C495 C 0.35746 0.77744 0.12477
 C496 C 0.37876 0.77745 0.10362
 C497 C 0.33394 0.74919 0.16613
 C498 C 0.31509 0.74920 0.18484
 C499 C 0.42029 0.74921 0.08039
 C500 C 0.43912 0.74923 0.06167
 H501 H 0.33632 0.70760 0.12184
 H502 H 0.37587 0.70761 0.08257
 H503 H 0.43277 0.74416 0.13968
 H504 H 0.39322 0.74415 0.17895
 H505 H 0.34248 0.79583 0.12792
 H506 H 0.38203 0.79584 0.08865
 C507 C 0.64333 0.25071 0.14195
 C508 C 0.65193 0.26813 0.11427
 C509 C 0.63075 0.26809 0.09304
 C510 C 0.60305 0.25063 0.10157
 C511 C 0.59281 0.26414 0.13080
 C512 C 0.61399 0.26418 0.15203
 C513 C 0.63541 0.21977 0.13084
 C514 C 0.61423 0.21973 0.10961
 C515 C 0.66612 0.25074 0.16480
 C516 C 0.68485 0.25078 0.18359
 C517 C 0.58025 0.25059 0.07873
 C518 C 0.56150 0.25054 0.05996
 H519 H 0.67282 0.27949 0.11158
 H520 H 0.63349 0.27942 0.07215
 H521 H 0.57086 0.27290 0.13449
 H522 H 0.61019 0.27298 0.17391
 H523 H 0.64555 0.19966 0.13894
 H524 H 0.60622 0.19959 0.09952
 C525 C -0.14318 0.64302 0.75054
 C526 C -0.14374 0.62333 0.77802
 C527 C -0.12251 0.60209 0.77804
 C528 C -0.10281 0.60263 0.75058
 C529 C -0.09048 0.63412 0.74918
 C530 C -0.11171 0.65535 0.74915
 C531 C -0.14538 0.62166 0.72446
 C532 C -0.12415 0.60042 0.72449
 C533 C -0.16603 0.66587 0.75051
 C534 C -0.18482 0.68465 0.75050
 C535 C -0.07997 0.57977 0.75060
 C536 C -0.06120 0.56098 0.75059
 H537 H -0.15943 0.62584 0.79589
 H538 H -0.12002 0.58641 0.79593
 H539 H -0.06714 0.63928 0.74828
 H540 H -0.10656 0.67871 0.74824
 H541 H -0.16212 0.62309 0.70748
 H542 H -0.12271 0.58366 0.70752
 C543 C -0.14287 0.35784 0.24978
 C544 C -0.14210 0.37616 0.22137
 C545 C -0.12093 0.39747 0.22132
 C546 C -0.10262 0.39836 0.24969
 C547 C -0.09032 0.36704 0.25322
 C548 C -0.11149 0.34573 0.25327
 C549 C -0.14640 0.38045 0.27464
 C550 C -0.12523 0.40175 0.27459
 C551 C -0.16565 0.33491 0.24983
 C552 C -0.18438 0.31607 0.24984
 C553 C -0.07983 0.42129 0.24963
 C554 C -0.06110 0.44012 0.24958
 H555 H -0.15688 0.37271 0.20292
 H556 H -0.11758 0.41227 0.20283
 H557 H -0.06704 0.36203 0.25548
 H558 H -0.10635 0.32247 0.25558
 H559 H -0.16397 0.37978 0.29085
 H560 H -0.12467 0.41934 0.29076
 C561 C 0.14217 0.35750 0.75012
 C562 C 0.13033 0.36466 0.78094
 C563 C 0.10908 0.38588 0.78102
 C564 C 0.10176 0.39786 0.75028
 C565 C 0.09361 0.37060 0.73204
 C566 C 0.11485 0.34938 0.73195
 C567 C 0.15259 0.38716 0.73758
 C568 C 0.13134 0.40838 0.73766
 C569 C 0.16503 0.33467 0.75002
 C570 C 0.18383 0.31591 0.74996
 C571 C 0.07891 0.42070 0.75036
 C572 C 0.06013 0.43948 0.75042
 H573 H 0.13796 0.35401 0.80093
 H574 H 0.09851 0.39341 0.80109
 H575 H 0.07297 0.36818 0.72023
 H576 H 0.11242 0.32878 0.72007
 H577 H 0.17470 0.39114 0.72936
 H578 H 0.13526 0.43055 0.72951
 C579 C 0.14274 0.64322 0.24923
 C580 C 0.12716 0.63977 0.21946
 C581 C 0.10581 0.61865 0.21947
 C582 C 0.10214 0.60304 0.24924
 C583 C 0.09658 0.62787 0.27147
 C584 C 0.11793 0.64900 0.27146
 C585 C 0.15424 0.61230 0.25676
 C586 C 0.13290 0.59118 0.25676
 C587 C 0.16571 0.66595 0.24924
 C588 C 0.18458 0.68464 0.24927
 C589 C 0.07917 0.58029 0.24925
 C590 C 0.06032 0.56158 0.24928
 H591 H 0.13243 0.65278 0.20009
 H592 H 0.09279 0.61355 0.20010
 H593 H 0.07756 0.62879 0.28594
 H594 H 0.11720 0.66801 0.28593
 H595 H 0.17714 0.60743 0.26165
 H596 H 0.13751 0.56821 0.26166
 C597 C 0.74992 -0.14270 0.64266
 C598 C 0.76231 -0.15324 0.61305
 C599 C 0.76229 -0.13202 0.59180
 C600 C 0.74989 -0.10234 0.60225
 C601 C 0.76831 -0.09425 0.62938
 C602 C 0.76832 -0.11547 0.65063
 C603 C 0.71912 -0.13069 0.63557
 C604 C 0.71910 -0.10947 0.61432
 C605 C 0.74994 -0.16554 0.66552
 C606 C 0.74997 -0.18431 0.68431
 C607 C 0.74989 -0.07950 0.57939
 C608 C 0.74990 -0.06071 0.56061
 H609 H 0.77038 -0.17541 0.60911
 H610 H 0.77035 -0.13601 0.56966
 H611 H 0.78028 -0.07366 0.63170
 H612 H 0.78031 -0.11306 0.67115
 H613 H 0.69908 -0.13819 0.64629
 H614 H 0.69905 -0.09879 0.60684
 C615 C 0.24998 -0.14314 0.35729
 C616 C 0.27018 -0.15028 0.38342
 C617 C 0.27020 -0.12910 0.40465
 C618 C 0.25003 -0.10285 0.39767
 C619 C 0.21956 -0.11645 0.39217
 C620 C 0.21953 -0.13763 0.37094
 C621 C 0.26028 -0.11286 0.34623
 C622 C 0.26030 -0.09167 0.36746
 C623 C 0.24995 -0.16593 0.33444
 C624 C 0.24993 -0.18466 0.31566
 C625 C 0.25006 -0.08005 0.42052
 C626 C 0.25006 -0.06131 0.43928
 H627 H 0.28330 -0.17022 0.38510
 H628 H 0.28335 -0.13089 0.42452
 H629 H 0.19975 -0.11001 0.40392
 H630 H 0.19970 -0.14934 0.36450
 H631 H 0.26696 -0.10844 0.32371
 H632 H 0.26701 -0.06911 0.36312
 C633 C 0.75051 0.14308 0.35751
 C634 C 0.73685 0.15317 0.38672
 C635 C 0.73676 0.13189 0.40791
 C636 C 0.75034 0.10261 0.39781
 C637 C 0.78130 0.11065 0.38680
 C638 C 0.78139 0.13193 0.36561
 C639 C 0.73317 0.11536 0.34888
 C640 C 0.73308 0.09408 0.37007
 C641 C 0.75060 0.16598 0.33471
 C642 C 0.75066 0.18478 0.31595
 C643 C 0.75024 0.07971 0.42062
 C644 C 0.75018 0.06089 0.43936
 H645 H 0.72803 0.17510 0.39044
 H646 H 0.72786 0.13559 0.42978
 H647 H 0.80138 0.10052 0.39492
 H648 H 0.80155 0.14003 0.35558
 H649 H 0.72195 0.11269 0.32796
 H650 H 0.72178 0.07318 0.36730
 C651 C 0.25000 0.14210 0.64222
 C652 C 0.25821 0.15366 0.61154
 C653 C 0.25820 0.13242 0.59036
 C654 C 0.24999 0.10170 0.60196
 C655 C 0.22001 0.10574 0.61708
 C656 C 0.22001 0.12698 0.63825
 C657 C 0.27178 0.11693 0.64825
 C658 C 0.27177 0.09569 0.62708
 C659 C 0.25000 0.16496 0.66501
 C660 C 0.25001 0.18374 0.68374
 C661 C 0.24998 0.07884 0.57917
 C662 C 0.24999 0.06005 0.56045
 H663 H 0.26355 0.17652 0.60684
 H664 H 0.26354 0.13708 0.56753
 H665 H 0.20049 0.09303 0.61163
 H666 H 0.20050 0.13247 0.65094
 H667 H 0.28595 0.11588 0.66746
 H668 H 0.28594 0.07644 0.62815
   
