data_POSCAR
  _audit_creation_date              2014-09-24
  _audit_creation_method            'ToBaCCo'
  _symmetry_space_group_name_H-M    'P1'
  _symmetry_Int_Tables_number       1
  _symmetry_cell_setting            triclinic
  loop_
  _symmetry_equiv_pos_as_xyz
 x,y,z
_cell_length_a 33.4395
_cell_length_b 34.8559
_cell_length_c 31.2198
_cell_angle_alpha 93.488400
_cell_angle_beta 86.135100
_cell_angle_gamma 93.332300
loop_
  _atom_site_label
  _atom_site_type_symbol
  _atom_site_fract_x
  _atom_site_fract_y
  _atom_site_fract_z
N1 N 0.16527 0.17178 0.13049
 N2 N -0.18361 0.83079 0.15047
 N3 N -0.25303 0.25680 -0.25591
 N4 N 0.17165 0.81974 -0.17236
 N5 N 0.18478 1.17987 0.84768
 N6 N 0.83956 0.80540 0.84298
 N7 N 0.24942 0.75315 1.24706
 N8 N 0.81967 1.18685 1.19866
 O9 O 0.54567 0.96117 0.91086
 O10 O 0.46040 0.98262 1.08717
 O11 O 0.58039 0.98252 1.02456
 O12 O 0.45540 0.92993 0.96317
 O13 O 0.52715 0.95838 1.05736
 O14 O 0.47002 0.95733 0.90488
 O15 O 0.45628 0.94139 1.03648
 O16 O 0.58770 0.99723 0.94898
 C17 C 0.58008 0.96809 0.92410
 C18 C 0.44701 0.95044 1.07456
 C19 C 0.56347 0.95683 1.04659
 C20 C 0.45413 0.92961 0.92396
 O21 O 0.46846 1.03086 0.91322
 O22 O 0.52798 1.02205 1.10106
 O23 O 0.55383 1.06554 0.97053
 O24 O 0.42506 1.01319 1.03092
 O25 O 0.47608 1.04774 1.05539
 O26 O 0.54452 1.03616 0.90930
 O27 O 0.42278 0.99934 0.95383
 O28 O 0.54929 1.05203 1.04484
 Co29 Co 0.50704 0.99632 0.91703
 Co30 Co 0.50283 1.00334 1.05386
 Co31 Co 0.56254 1.02205 0.99664
 Co32 Co 0.44458 0.97296 0.99583
 O33 O 0.50288 0.99716 0.98815
 C34 C 0.43274 1.02521 0.92767
 C35 C 0.55458 1.04562 1.08342
 C36 C 0.55509 1.06591 0.93087
 C37 C 0.43964 1.04438 1.04779
 O38 O 0.03133 0.46331 0.08707
 O39 O 0.02449 0.51984 -0.10139
 O40 O 0.01217 0.42152 -0.02991
 O41 O 0.06904 0.54471 0.02936
 O42 O 0.04960 0.46960 -0.05482
 O43 O 0.03802 0.53640 0.09067
 O44 O 0.05509 0.53968 -0.04496
 O45 O -0.00270 0.42021 0.04719
 C46 C 0.02443 0.42919 0.07301
 C47 C 0.04870 0.54529 -0.08344
 C48 C 0.04513 0.43466 -0.04707
 C49 C 0.06882 0.54747 0.06904
 O50 O -0.03984 0.53851 0.08921
 O51 O -0.01826 0.45619 -0.08635
 O52 O -0.07418 0.45270 0.03810
 O53 O -0.01627 0.57154 -0.02540
 O54 O -0.04212 0.52099 -0.05788
 O55 O -0.04515 0.46609 0.09588
 O56 O -0.00173 0.57831 0.05018
 O57 O -0.06190 0.45316 -0.03574
 Co58 Co -0.00394 0.50091 0.08319
 Co59 Co 0.00407 0.49644 -0.05374
 Co60 Co -0.02949 0.44139 0.00511
 Co61 Co 0.02414 0.55361 0.00295
 O62 O -0.00304 0.49687 0.01207
 C63 C -0.03183 0.57147 0.07588
 C64 C -0.05223 0.44422 -0.07379
 C65 C -0.07427 0.45110 0.07732
 C66 C -0.04284 0.55602 -0.04787
 O67 O 1.07840 0.04190 0.45684
 O68 O 0.91489 0.01672 0.54903
 O69 O 0.97228 0.01961 0.42039
 O70 O 1.02975 0.07102 0.55623
 O71 O 0.94187 0.04232 0.47832
 O72 O 1.08469 0.04515 0.53766
 O73 O 0.96135 0.05871 0.55487
 O74 O 1.04309 0.00574 0.41172
 C75 C 1.06684 0.03437 0.41980
 C76 C 0.92572 0.04912 0.56351
 C77 C 0.95101 0.04451 0.43932
 C78 C 1.06650 0.07179 0.55675
 O79 O 1.07884 -0.02821 0.53820
 O80 O 0.90214 -0.02167 0.47651
 O81 O 1.02483 -0.06311 0.44684
 O82 O 0.96789 -0.01384 0.58626
 O83 O 0.94586 -0.04774 0.53083
 O84 O 1.08152 -0.03298 0.45696
 O85 O 1.03998 0.00110 0.58834
 O86 O 0.95510 -0.05046 0.45263
 Co87 Co 1.07379 0.00641 0.49762
 Co88 Co 0.94626 -0.00292 0.50326
 Co89 Co 0.99941 -0.01985 0.43859
 Co90 Co 0.99998 0.02726 0.56623
 O91 O 1.00743 0.00435 0.50292
 C92 C 1.06593 -0.02321 0.57671
 C93 C 0.91902 -0.04422 0.44714
 C94 C 1.06194 -0.06285 0.44509
 C95 C 0.95230 -0.04487 0.57002
 C96 C 1.12959 0.12673 0.24437
 C97 C 1.13871 0.08403 0.24319
 C98 C 1.12688 0.06678 0.28022
 C99 C 1.10707 0.09388 0.31487
 C100 C 1.07249 0.11043 0.29321
 C101 C 1.08434 0.12771 0.25612
 C102 C 1.14973 0.14516 0.28397
 C103 C 1.13786 0.12785 0.32112
 C104 C 1.14230 0.14456 0.20405
 C105 C 1.15290 0.15775 0.17007
 C106 C 1.09400 0.07451 0.35415
 C107 C 1.08226 0.05697 0.38501
 H108 H 1.15328 0.06869 0.21568
 H109 H 1.13131 0.03666 0.28443
 H110 H 1.04145 0.10882 0.30595
 H111 H 1.06347 0.14091 0.23708
 H112 H 1.17133 0.16962 0.28292
 H113 H 1.14927 0.13746 0.35193
 C114 C 0.84461 -0.12421 0.26798
 C115 C 0.88776 -0.13314 0.27601
 C116 C 0.90034 -0.11758 0.31410
 C117 C 0.86857 -0.09457 0.34055
 C118 C 0.83166 -0.12266 0.34554
 C119 C 0.81902 -0.13829 0.30727
 C120 C 0.84398 -0.08015 0.27230
 C121 C 0.85659 -0.06456 0.31046
 C122 C 0.83216 -0.14080 0.22643
 C123 C 0.82407 -0.15414 0.19136
 C124 C 0.88338 -0.07752 0.38088
 C125 C 0.89825 -0.06275 0.41229
 H126 H 0.90677 -0.15028 0.25373
 H127 H 0.93014 -0.12139 0.32445
 H128 H 0.81677 -0.12959 0.37630
 H129 H 0.79328 -0.15862 0.30521
 H130 H 0.83434 -0.06273 0.24762
 H131 H 0.85776 -0.03378 0.31849
 C132 C 0.81137 0.17857 0.67158
 C133 C 0.79818 0.13709 0.68218
 C134 C 0.82020 0.11000 0.65968
 C135 C 0.85324 0.12704 0.62879
 C136 C 0.87825 0.15556 0.65696
 C137 C 0.85626 0.18262 0.67944
 C138 C 0.80943 0.17935 0.62265
 C139 C 0.83147 0.15224 0.60013
 C140 C 0.78791 0.20759 0.69634
 C141 C 0.76886 0.23082 0.71804
 C142 C 0.87747 0.09812 0.60488
 C143 C 0.89870 0.07514 0.58575
 H144 H 0.77364 0.12965 0.70529
 H145 H 0.81454 0.07937 0.66350
 H146 H 0.91045 0.15459 0.65905
 H147 H 0.86961 0.20483 0.70076
 H148 H 0.79227 0.19939 0.60709
 H149 H 0.83317 0.14903 0.56526
 C150 C 1.13300 -0.12515 0.72897
 C151 C 1.15124 -0.08373 0.72826
 C152 C 1.13788 -0.06330 0.69681
 C153 C 1.10760 -0.08629 0.66914
 C154 C 1.07404 -0.10072 0.70115
 C155 C 1.08740 -0.12117 0.73261
 C156 C 1.14230 -0.14296 0.68347
 C157 C 1.12891 -0.12249 0.65195
 C158 C 1.14728 -0.14657 0.76329
 C159 C 1.15876 -0.16284 0.79274
 C160 C 1.09313 -0.06407 0.63560
 C161 C 1.08093 -0.04546 0.60850
 H162 H 1.17279 -0.07153 0.75051
 H163 H 1.14795 -0.03358 0.69210
 H164 H 1.04258 -0.09529 0.69931
 H165 H 1.06736 -0.13335 0.75770
 H166 H 1.15796 -0.16928 0.67662
 H167 H 1.13311 -0.13126 0.61805
 C168 C 0.27924 1.14352 1.09847
 C169 C 0.28953 1.11439 1.13038
 C170 C 0.32557 1.09883 1.12078
 C171 C 0.34796 1.11384 1.08016
 C172 C 0.35117 1.15784 1.08801
 C173 C 0.31483 1.17353 1.09771
 C174 C 0.28234 1.12179 1.05427
 C175 C 0.31840 1.10618 1.04467
 C176 C 0.23943 1.15816 1.10920
 C177 C 0.20525 1.16596 1.11884
 C178 C 0.38546 1.09467 1.06968
 C179 C 0.41267 1.07400 1.06027
 H180 H 0.27025 1.10678 1.15832
 H181 H 0.33714 1.07793 1.14051
 H182 H 0.37929 1.17503 1.08611
 H183 H 0.31178 1.20421 1.10412
 H184 H 0.25839 1.11910 1.03227
 H185 H 0.32527 1.09001 1.01449
 C186 C 0.28737 0.84675 0.85262
 C187 C 0.29315 0.84408 0.90065
 C188 C 0.33033 0.85673 0.91222
 C189 C 0.35819 0.87082 0.87465
 C190 C 0.33518 0.90158 0.85505
 C191 C 0.29803 0.88895 0.84350
 C192 C 0.32136 0.82416 0.82924
 C193 C 0.35880 0.83689 0.84088
 C194 C 0.24660 0.83454 0.84134
 C195 C 0.21199 0.82694 0.83424
 C196 C 0.39705 0.88648 0.88862
 C197 C 0.42562 0.90389 0.90326
 H198 H 0.27010 0.83301 0.92355
 H199 H 0.33914 0.85647 0.94504
 H200 H 0.34714 0.93079 0.85044
 H201 H 0.27819 0.90730 0.82900
 H202 H 0.31647 0.80036 0.80577
 H203 H 0.38601 0.82404 0.82743
 C204 C 0.70974 0.85997 1.11221
 C205 C 0.70364 0.85153 1.06416
 C206 C 0.67026 0.86686 1.05096
 C207 C 0.64637 0.88912 1.08711
 C208 C 0.67676 0.91914 1.10585
 C209 C 0.70992 0.90388 1.11899
 C210 C 0.67051 0.84507 1.13564
 C211 C 0.63705 0.86047 1.12240
 C212 C 0.74659 0.84543 1.12637
 C213 C 0.77860 0.83730 1.13777
 C214 C 0.61196 0.90787 1.07282
 C215 C 0.58736 0.92798 1.06086
 H216 H 0.72355 0.83474 1.04252
 H217 H 0.66150 0.86311 1.01804
 H218 H 0.67254 0.94988 1.10869
 H219 H 0.73405 0.92154 1.13305
 H220 H 0.66912 0.82423 1.16023
 H221 H 0.60698 0.85284 1.13560
 C222 C 0.66740 1.19464 0.81961
 C223 C 0.67757 1.19477 0.86685
 C224 C 0.65264 1.17080 0.89071
 C225 C 0.62001 1.14907 0.86498
 C226 C 0.64290 1.12841 0.82692
 C227 C 0.66775 1.15230 0.80314
 C228 C 0.62312 1.20452 0.82116
 C229 C 0.59815 1.18051 0.84507
 C230 C 0.69489 1.21939 0.79341
 C231 C 0.71875 1.23758 0.77082
 C232 C 0.59407 1.12215 0.89011
 C233 C 0.57491 1.09765 0.90950
 H234 H 0.70209 1.21223 0.88039
 H235 H 0.65580 1.16774 0.92470
 H236 H 0.63982 1.09761 0.81926
 H237 H 0.68594 1.14196 0.77515
 H238 H 0.61237 1.22829 0.80504
 H239 H 0.56600 1.18368 0.84943
 C240 C 0.12174 0.27523 0.11346
 C241 C 0.08097 0.27845 0.13876
 C242 C 0.06257 0.31125 0.13245
 C243 C 0.08673 0.33764 0.10148
 C244 C 0.09466 0.31237 0.06013
 C245 C 0.11311 0.27958 0.06641
 C246 C 0.14637 0.31209 0.12672
 C247 C 0.12790 0.34503 0.12039
 C248 C 0.14035 0.23926 0.12001
 C249 C 0.15299 0.20831 0.12502
 C250 C 0.06610 0.37225 0.09398
 C251 C 0.04764 0.39917 0.08574
 H252 H 0.06775 0.25687 0.15990
 H253 H 0.03359 0.31778 0.14815
 H254 H 0.08647 0.31959 0.02864
 H255 H 0.12087 0.25879 0.04028
 H256 H 0.17563 0.31231 0.13985
 H257 H 0.14131 0.37351 0.12810
 C258 C -0.17833 0.33084 -0.18951
 C259 C -0.13408 0.32176 -0.19865
 C260 C -0.10827 0.34567 -0.17623
 C261 C -0.12920 0.37634 -0.14684
 C262 C -0.16002 0.35365 -0.11814
 C263 C -0.18583 0.32975 -0.14056
 C264 C -0.18012 0.37341 -0.19899
 C265 C -0.15428 0.39735 -0.17654
 C266 C -0.20597 0.30478 -0.21352
 C267 C -0.22813 0.28268 -0.23318
 C268 C -0.10140 0.40173 -0.12225
 C269 C -0.07875 0.42169 -0.10087
 H270 H -0.12392 0.29859 -0.22081
 H271 H -0.07600 0.34298 -0.17919
 H272 H -0.16146 0.35614 -0.08324
 H273 H -0.20935 0.31178 -0.12487
 H274 H -0.19992 0.38383 -0.22135
 H275 H -0.15192 0.42826 -0.17967
 C276 C 0.12909 0.71073 -0.15329
 C277 C 0.14537 0.67766 -0.18303
 C278 C 0.12985 0.64214 -0.17229
 C279 C 0.09970 0.64346 -0.13294
 C280 C 0.06782 0.67057 -0.14401
 C281 C 0.08328 0.70595 -0.15472
 C282 C 0.13778 0.70072 -0.10780
 C283 C 0.12235 0.66541 -0.09712
 C284 C 0.14533 0.74926 -0.16328
 C285 C 0.15789 0.78182 -0.16853
 C286 C 0.08265 0.60612 -0.11970
 C287 C 0.06765 0.57716 -0.10506
 H288 H 0.16704 0.68177 -0.21007
 H289 H 0.13820 0.61578 -0.19009
 H290 H 0.03591 0.66261 -0.14364
 H291 H 0.06464 0.72833 -0.16355
 H292 H 0.15472 0.71969 -0.08589
 H293 H 0.12606 0.65413 -0.06604
 C294 C -0.13677 0.72686 0.12521
 C295 C -0.09093 0.73359 0.12205
 C296 C -0.07100 0.70081 0.11375
 C297 C -0.09877 0.66442 0.10941
 C298 C -0.12689 0.67232 0.07440
 C299 C -0.14687 0.70522 0.08269
 C300 C -0.14556 0.69735 0.15968
 C301 C -0.12553 0.66442 0.15135
 C302 C -0.15697 0.76289 0.13409
 C303 C -0.17059 0.79400 0.14158
 C304 C -0.07640 0.62974 0.09984
 C305 C -0.05655 0.60247 0.09012
 H306 H -0.07545 0.76170 0.12607
 H307 H -0.03846 0.70084 0.11066
 H308 H -0.13100 0.65355 0.04581
 H309 H -0.16799 0.71473 0.06117
 H310 H -0.16579 0.70186 0.18800
 H311 H -0.12856 0.64070 0.17251
 C312 C 1.14866 0.15129 0.73041
 C313 C 1.17361 0.16619 0.69106
 C314 C 1.15830 0.15403 0.65271
 C315 C 1.11961 0.12825 0.65770
 C316 C 1.09077 0.15186 0.68754
 C317 C 1.10603 0.16398 0.72573
 C318 C 1.14577 0.10741 0.72261
 C319 C 1.13055 0.09534 0.68452
 C320 C 1.16412 0.16330 0.77232
 C321 C 1.17476 0.17161 0.80808
 C322 C 1.10229 0.11339 0.61760
 C323 C 1.08651 0.09685 0.58761
 H324 H 1.20078 0.18465 0.69313
 H325 H 1.17231 0.16207 0.62193
 H326 H 1.06106 0.15867 0.67931
 H327 H 1.08936 0.18116 0.75021
 H328 H 1.15502 0.08751 0.74502
 H329 H 1.12679 0.06505 0.67437
 C330 C 0.88491 -0.15412 0.72986
 C331 C 0.93078 -0.15353 0.72210
 C332 C 0.94495 -0.13473 0.68663
 C333 C 0.91185 -0.11835 0.66244
 C334 C 0.88873 -0.09302 0.69631
 C335 C 0.87463 -0.11173 0.73158
 C336 C 0.86851 -0.17177 0.68780
 C337 C 0.88271 -0.15292 0.65226
 C338 C 0.86927 -0.17265 0.76902
 C339 C 0.85567 -0.18424 0.80293
 C340 C 0.92685 -0.09632 0.62551
 C341 C 0.93872 -0.07461 0.59821
 H342 H 0.95036 -0.16694 0.74245
 H343 H 0.97665 -0.13209 0.67656
 H344 H 0.88375 -0.06288 0.69285
 H345 H 0.85759 -0.09760 0.75826
 H346 H 0.84778 -0.19688 0.68606
 H347 H 0.87415 -0.16187 0.62009
 C348 C 1.17479 -0.18598 0.32579
 C349 C 1.17858 -0.19037 0.37400
 C350 C 1.15404 -0.16770 0.39996
 C351 C 1.12813 -0.14289 0.37514
 C352 C 1.10542 -0.17149 0.34486
 C353 C 1.12997 -0.19416 0.31890
 C354 C 1.18256 -0.14282 0.31964
 C355 C 1.15811 -0.12023 0.34550
 C356 C 1.20161 -0.20964 0.29745
 C357 C 1.22434 -0.22779 0.27345
 C358 C 1.10235 -0.11738 0.40244
 C359 C 1.08280 -0.09388 0.42312
 H360 H 1.19869 -0.20964 0.38661
 H361 H 1.15311 -0.16756 0.43479
 H362 H 1.07297 -0.17381 0.34397
 H363 H 1.11853 -0.21589 0.29577
 H364 H 1.20533 -0.13100 0.29690
 H365 H 1.15997 -0.08906 0.34488
 C366 C 0.86791 0.14689 0.29910
 C367 C 0.91396 0.14844 0.29359
 C368 C 0.93153 0.13095 0.32479
 C369 C 0.90136 0.11360 0.35852
 C370 C 0.87288 0.08658 0.33260
 C371 C 0.85536 0.10402 0.30148
 C372 C 0.85821 0.16463 0.34463
 C373 C 0.87584 0.14708 0.37596
 C374 C 0.84918 0.16438 0.26435
 C375 C 0.83461 0.17603 0.23358
 C376 C 0.92014 0.09314 0.39097
 C377 C 0.93487 0.07279 0.41483
 H378 H 0.93126 0.16224 0.26755
 H379 H 0.96385 0.12979 0.32549
 H380 H 0.86690 0.05629 0.33828
 H381 H 0.83440 0.08866 0.28058
 H382 H 0.83930 0.18880 0.35162
 H383 H 0.87204 0.15622 0.40978
 C384 C 0.15150 0.28380 -0.11026
 C385 C 0.16139 0.29905 -0.06476
 C386 C 0.14372 0.33253 -0.05172
 C387 C 0.11789 0.34733 -0.08548
 C388 C 0.08796 0.31366 -0.09613
 C389 C 0.10553 0.28044 -0.10910
 C390 C 0.16378 0.31718 -0.13921
 C391 C 0.14607 0.35063 -0.12616
 C392 C 0.16844 0.24696 -0.12484
 C393 C 0.17783 0.21517 -0.13778
 C394 C 0.09677 0.38218 -0.07170
 C395 C 0.07523 0.40801 -0.06053
 H396 H 0.18064 0.28493 -0.04467
 H397 H 0.14791 0.34714 -0.02050
 H398 H 0.05559 0.31571 -0.09365
 H399 H 0.08818 0.25412 -0.11771
 H400 H 0.18467 0.31482 -0.16728
 H401 H 0.15180 0.37691 -0.14304
 C402 C -0.15505 0.29410 0.16450
 C403 C -0.16871 0.32867 0.19366
 C404 C -0.15681 0.36350 0.17764
 C405 C -0.13252 0.36010 0.13413
 C406 C -0.15927 0.33470 0.10462
 C407 C -0.17113 0.30004 0.12057
 C408 C -0.10941 0.30063 0.15779
 C409 C -0.09760 0.33518 0.14189
 C410 C -0.16652 0.25595 0.18032
 C411 C -0.17374 0.22320 0.19024
 C412 C -0.11768 0.39643 0.11583
 C413 C -0.10059 0.42349 0.09889
 H414 H -0.18616 0.32605 0.22404
 H415 H -0.16408 0.39071 0.19426
 H416 H -0.16832 0.34327 0.07400
 H417 H -0.19032 0.27892 0.10358
 H418 H -0.08813 0.27994 0.16505
 H419 H -0.06617 0.34400 0.13554
 C420 C -0.13369 0.70081 -0.12027
 C421 C -0.09647 0.68661 -0.14656
 C422 C -0.08260 0.65405 -0.13236
 C423 C -0.10723 0.63867 -0.09316
 C424 C -0.15055 0.63350 -0.10698
 C425 C -0.16452 0.66629 -0.12129
 C426 C -0.12143 0.70516 -0.07366
 C427 C -0.10754 0.67261 -0.05947
 C428 C -0.14693 0.73695 -0.13513
 C429 C -0.15442 0.76829 -0.14597
 C430 C -0.09005 0.60471 -0.07744
 C431 C -0.07108 0.58012 -0.06400
 H432 H -0.08230 0.70083 -0.17410
 H433 H -0.05654 0.64044 -0.14776
 H434 H -0.16858 0.60663 -0.10566
 H435 H -0.19452 0.66749 -0.13223
 H436 H -0.12354 0.73155 -0.05347
 H437 H -0.09767 0.67121 -0.02720
 C438 C 0.19035 0.67240 0.17589
 C439 C 0.14651 0.66738 0.19341
 C440 C 0.12448 0.64015 0.17077
 C441 C 0.14830 0.62044 0.13269
 C442 C 0.18444 0.60463 0.15228
 C443 C 0.20657 0.63197 0.17501
 C444 C 0.18810 0.68083 0.12844
 C445 C 0.16600 0.65353 0.10574
 C446 C 0.21339 0.70206 0.20090
 C447 C 0.23098 0.72661 0.22261
 C448 C 0.12328 0.59168 0.10867
 C449 C 0.09997 0.57004 0.08994
 H450 H 0.13385 0.68381 0.22122
 H451 H 0.09296 0.63328 0.17926
 H452 H 0.19203 0.57470 0.14857
 H453 H 0.23312 0.62542 0.19076
 H454 H 0.20265 0.70597 0.11393
 H455 H 0.16165 0.65530 0.07178
 C456 C 0.28321 1.13034 0.87639
 C457 C 0.31633 1.12732 0.84000
 C458 C 0.34762 1.10665 0.84966
 C459 C 0.34271 1.09102 0.89476
 C460 C 0.30224 1.06793 0.89612
 C461 C 0.27104 1.08854 0.88648
 C462 C 0.30465 1.14722 0.91583
 C463 C 0.33597 1.12655 0.92547
 C464 C 0.24876 1.15153 0.86588
 C465 C 0.21871 1.16622 0.85712
 C466 C 0.37591 1.06818 0.90531
 C467 C 0.40227 1.04869 0.91480
 H468 H 0.31535 1.14035 0.80940
 H469 H 0.37343 1.10197 0.82733
 H470 H 0.29839 1.03798 0.90403
 H471 H 0.24049 1.07618 0.88615
 H472 H 0.29604 1.17308 0.93448
 H473 H 0.35422 1.13479 0.95236
 C474 C 0.32519 0.82594 1.18375
 C475 C 0.31933 0.86801 1.19939
 C476 C 0.34481 0.89383 1.17874
 C477 C 0.37370 0.87510 1.14444
 C478 C 0.34652 0.85063 1.11440
 C479 C 0.32105 0.82482 1.13504
 C480 C 0.36974 0.82000 1.18884
 C481 C 0.39523 0.84584 1.16817
 C482 C 0.29754 0.79831 1.20615
 C483 C 0.27452 0.77634 1.22532
 C484 C 0.40092 0.90283 1.12165
 C485 C 0.42251 0.92505 1.10130
 H486 H 0.29709 0.87675 1.22450
 H487 H 0.34440 0.92464 1.18618
 H488 H 0.34722 0.85335 1.07989
 H489 H 0.29998 0.80546 1.11823
 H490 H 0.38032 0.79749 1.20705
 H491 H 0.42763 0.84544 1.16872
 C492 C 0.71435 1.13771 1.16740
 C493 C 0.67630 1.14723 1.19548
 C494 C 0.64209 1.12893 1.18104
 C495 C 0.64946 1.10300 1.14000
 C496 C 0.68087 1.07540 1.15108
 C497 C 0.71495 1.09363 1.16547
 C498 C 0.70556 1.14761 1.12187
 C499 C 0.67152 1.12939 1.10749
 C500 C 0.75177 1.15694 1.18162
 C501 C 0.78389 1.17170 1.19068
 C502 C 0.61345 1.08307 1.12317
 C503 C 0.58553 1.06618 1.10652
 H504 H 0.67623 1.16654 1.22410
 H505 H 0.61271 1.13256 1.19729
 H506 H 0.67666 1.04425 1.14802
 H507 H 0.73992 1.07809 1.17475
 H508 H 0.72440 1.16731 1.10261
 H509 H 0.66124 1.13350 1.07592
 C510 C 0.73535 0.85727 0.87380
 C511 C 0.69510 0.83482 0.86748
 C512 C 0.66257 0.85656 0.87658
 C513 C 0.67359 0.89857 0.89104
 C514 C 0.70250 0.91368 0.85493
 C515 C 0.73490 0.89202 0.84588
 C516 C 0.73201 0.87429 0.92034
 C517 C 0.69958 0.89599 0.92938
 C518 C 0.77115 0.83510 0.86368
 C519 C 0.80234 0.81992 0.85443
 C520 C 0.63914 0.92256 0.90109
 C521 C 0.61175 0.94313 0.91058
 H522 H 0.69238 0.80458 0.85692
 H523 H 0.63197 0.84493 0.87378
 H524 H 0.69790 0.93914 0.83787
 H525 H 0.75804 0.89897 0.82103
 H526 H 0.75316 0.86960 0.94415
 H527 H 0.69307 0.90999 0.96090
   
