data_POSCAR
  _audit_creation_date              2014-09-24
  _audit_creation_method            'ToBaCCo'
  _symmetry_space_group_name_H-M    'P1'
  _symmetry_Int_Tables_number       1
  _symmetry_cell_setting            triclinic
  loop_
  _symmetry_equiv_pos_as_xyz
 x,y,z
_cell_length_a 25.7909
_cell_length_b 25.2206
_cell_length_c 25.4240
_cell_angle_alpha 90.101600
_cell_angle_beta 92.430600
_cell_angle_gamma 93.002600
loop_
  _atom_site_label
  _atom_site_type_symbol
  _atom_site_fract_x
  _atom_site_fract_y
  _atom_site_fract_z
N1 N 0.21669 1.25497 0.10824
 N2 N 0.18498 1.25988 0.14695
 C3 C 0.15717 1.30301 0.13853
 C4 C 0.17258 1.32651 0.09221
 C5 C 0.21046 1.29500 0.07397
 H6 H 0.12786 1.31621 0.16405
 H7 H 0.23133 1.30008 0.03816
 Cu8 Cu 0.18267 1.20861 0.20406
 Cu9 Cu 0.26215 1.19558 0.10492
 Cu10 Cu 0.29399 1.14915 0.22957
 N11 N 0.19091 1.16204 0.26439
 N12 N 0.23494 1.13929 0.27460
 C13 C 0.23064 1.10955 0.31826
 C14 C 0.18095 1.11349 0.33594
 C15 C 0.15683 1.14728 0.30099
 H16 H 0.26114 1.08620 0.33511
 H17 H 0.11738 1.15975 0.30189
 N18 N 0.33772 1.14040 0.16870
 N19 N 0.32304 1.15358 0.12028
 C20 C 0.35719 1.13592 0.08653
 C21 C 0.39564 1.11151 0.11541
 C22 C 0.38235 1.11519 0.16728
 H23 H 0.35463 1.14107 0.04429
 H24 H 0.40226 1.09836 0.20111
 H25 H 0.24106 1.14598 0.16808
 H26 H 0.27397 1.21255 0.18160
 N27 N 0.84934 0.70098 0.18202
 N28 N 0.87567 0.71633 0.22529
 C29 C 0.91031 0.67982 0.23831
 C30 C 0.90552 0.63994 0.20071
 C31 C 0.86662 0.65469 0.16561
 H32 H 0.93892 0.68358 0.27063
 H33 H 0.85349 0.63446 0.12952
 Cu34 Cu 0.86650 0.78606 0.25530
 Cu35 Cu 0.79865 0.74503 0.14708
 Cu36 Cu 0.75194 0.83953 0.23000
 N37 N 0.85003 0.85277 0.28737
 N38 N 0.80395 0.87213 0.27975
 C39 C 0.80150 0.91633 0.30922
 C40 C 0.84926 0.92573 0.33550
 C41 C 0.87912 0.88480 0.32060
 H42 H 0.76806 0.94041 0.31018
 H43 H 0.91872 0.87834 0.33379
 N44 N 0.71605 0.81662 0.16288
 N45 N 0.73441 0.78138 0.13104
 C46 C 0.70404 0.77768 0.08670
 C47 C 0.66504 0.81279 0.09054
 C48 C 0.67371 0.83679 0.13926
 H49 H 0.71119 0.75308 0.05317
 H50 H 0.65233 0.86848 0.15517
 H51 H 0.81084 0.81951 0.18437
 H52 H 0.77859 0.76316 0.22014
 N53 N 0.79933 1.29052 -0.13453
 N54 N 0.84452 1.29976 -0.15574
 C55 C 0.87313 1.33554 -0.12615
 C56 C 0.84415 1.34982 -0.08454
 C57 C 0.79730 1.32083 -0.09102
 H58 H 0.91250 1.34942 -0.13368
 H59 H 0.76541 1.31974 -0.06469
 Cu60 Cu 0.86402 1.26268 -0.21829
 Cu61 Cu 0.75063 1.23475 -0.16177
 Cu62 Cu 0.77757 1.16498 -0.26950
 N63 N 0.87242 1.22860 -0.28682
 N64 N 0.84096 1.18926 -0.30518
 C65 C 0.85951 1.17091 -0.35014
 C66 C 0.90402 1.20119 -0.36107
 C67 C 0.91076 1.23772 -0.32044
 H68 H 0.84205 1.13798 -0.37311
 H69 H 0.94248 1.26716 -0.31453
 N70 N 0.72783 1.13804 -0.21908
 N71 N 0.71691 1.16548 -0.17729
 C72 C 0.68170 1.13730 -0.14964
 C73 C 0.66993 1.08978 -0.17560
 C74 C 0.69974 1.09153 -0.21961
 H75 H 0.66638 1.15008 -0.11302
 H76 H 0.70141 1.06113 -0.24946
 H77 H 0.81946 1.19264 -0.20578
 H78 H 0.78956 1.24488 -0.24752
 N79 N 0.09374 0.76732 -0.09801
 N80 N 0.05075 0.77470 -0.12609
 C81 C 0.01420 0.73744 -0.11368
 C82 C 0.03555 0.70468 -0.07605
 C83 C 0.08611 0.72466 -0.06687
 H84 H -0.02469 0.73394 -0.13143
 H85 H 0.11505 0.70945 -0.03966
 Cu86 Cu 0.04638 0.83122 -0.17749
 Cu87 Cu 0.15547 0.81466 -0.10506
 Cu88 Cu 0.15968 0.86454 -0.23183
 N89 N 0.04928 0.87448 -0.24021
 N90 N 0.09356 0.88657 -0.26222
 C91 C 0.08420 0.91466 -0.30627
 C92 C 0.03125 0.92077 -0.31170
 C93 C 0.01019 0.89475 -0.26908
 H94 H 0.11374 0.92977 -0.33214
 H95 H -0.03038 0.89034 -0.25998
 N96 N 0.22184 0.86006 -0.18420
 N97 N 0.21958 0.84494 -0.13460
 C98 C 0.26703 0.85229 -0.11074
 C99 C 0.30080 0.87215 -0.14745
 C100 C 0.27108 0.87642 -0.19359
 H101 H 0.27639 0.84330 -0.06996
 H102 H 0.28394 0.89241 -0.23056
 H103 H 0.13217 0.87413 -0.15860
 H104 H 0.13566 0.80412 -0.18160
 C105 C 0.49738 0.99777 0.00737
 C106 C 0.52553 0.95034 0.03003
 C107 C 0.53941 0.91538 -0.00684
 C108 C 0.52297 0.93055 -0.06346
 C109 C 0.53399 1.02200 -0.03331
 C110 C 0.54731 0.98687 -0.07059
 C111 C 0.45084 0.97279 -0.02524
 C112 C 0.46434 0.93802 -0.06258
 H113 H 0.53572 0.94618 0.07154
 H114 H 0.53343 0.90149 -0.09331
 H115 H 0.54779 1.06332 -0.03266
 H116 H 0.41119 0.98386 -0.02118
 C117 C 0.05445 0.46381 1.05311
 C118 C 0.05405 0.51495 1.02002
 C119 C 0.00814 0.53929 1.02030
 C120 C -0.03255 0.51119 1.05440
 C121 C 0.04044 0.48170 1.10828
 C122 C -0.00489 0.50719 1.10877
 C123 C 0.00713 0.42984 1.03199
 C124 C -0.03829 0.45448 1.03282
 H125 H 0.08668 0.53045 0.99832
 H126 H -0.06981 0.53118 1.05507
 H127 H 0.06671 0.47915 1.14241
 H128 H 0.00982 0.39034 1.01582
 C129 C 1.05301 0.06031 0.46087
 C130 C 1.03753 0.11453 0.48038
 C131 C 0.99095 0.11336 0.50389
 C132 C 0.96318 0.05804 0.50399
 C133 C 1.04984 0.02432 0.50962
 C134 C 1.00274 0.02301 0.53206
 C135 C 1.00777 0.03986 0.42426
 C136 C 0.96087 0.03888 0.44659
 H137 H 1.06414 0.14915 0.48062
 H138 H 0.92462 0.05736 0.52174
 H139 H 1.08168 0.00227 0.52554
 H140 H 1.01277 0.02562 0.38465
 C141 C 0.15246 0.37126 1.06843
 C142 C 0.16966 0.39414 1.02264
 C143 C 0.13738 0.43425 1.01204
 C144 C 0.10307 0.43324 1.05238
 O145 O 0.11208 0.39477 1.08640
 H146 H 0.20088 0.38213 0.99889
 H147 H 0.13741 0.45926 0.97754
 C148 C -0.06035 0.59598 1.19331
 C149 C -0.02243 0.58013 1.22888
 C150 C 0.00275 0.54204 1.20316
 C151 C -0.02176 0.53787 1.15381
 O152 O -0.06007 0.57036 1.14811
 H153 H -0.01322 0.59559 1.26808
 H154 H 0.03608 0.52150 1.21801
 C155 C -0.13784 0.38524 0.95899
 C156 C -0.16941 0.41074 0.99220
 C157 C -0.13621 0.44088 1.02481
 C158 C -0.08708 0.43057 1.00940
 O159 O -0.08801 0.39703 0.96944
 H160 H -0.21143 0.40840 0.99197
 H161 H -0.14651 0.46687 1.05618
 C162 C 0.00967 0.65831 0.94845
 C163 C -0.04337 0.64784 0.94636
 C164 C -0.05107 0.60196 0.97363
 C165 C -0.00210 0.58760 0.98998
 O166 O 0.03495 0.62176 0.97474
 H167 H -0.07292 0.67098 0.92737
 H168 H -0.08800 0.58106 0.97985
 C169 C 1.15896 0.08813 0.37897
 C170 C 1.18413 0.05402 0.41253
 C171 C 1.14840 0.03830 0.44814
 C172 C 1.10395 0.06402 0.43367
 O173 O 1.11047 0.09423 0.39170
 H174 H 1.22369 0.04190 0.41130
 H175 H 1.15462 0.01136 0.48051
 C176 C 1.00518 -0.05231 0.64827
 C177 C 0.95230 -0.04597 0.64499
 C178 C 0.94389 -0.01679 0.60065
 C179 C 0.99223 -0.00767 0.58011
 O180 O 1.02941 -0.02924 0.60893
 H181 H 0.92331 -0.06056 0.67171
 H182 H 0.90681 -0.00415 0.58533
 C183 C 0.86506 -0.03287 0.36987
 C184 C 0.83303 0.00362 0.39014
 C185 C 0.86461 0.03523 0.42300
 C186 C 0.91348 0.01631 0.41922
 O187 O 0.91385 -0.02501 0.38729
 H188 H 0.79163 0.00632 0.38270
 H189 H 0.85360 0.06855 0.44618
 C190 C 0.93719 0.19403 0.59787
 C191 C 0.97889 0.22807 0.58672
 C192 C 1.00298 0.20420 0.54709
 C193 C 0.97455 0.15697 0.53727
 O194 O 0.93426 0.15110 0.56772
 H195 H 0.99110 0.26526 0.60588
 H196 H 1.03842 0.21866 0.52949
 C197 C 0.43990 1.08472 0.09529
 C198 C 0.48831 1.08516 0.12035
 C199 C 0.51700 1.05461 0.08968
 C200 C 0.48348 1.03670 0.04890
 O201 O 0.43672 1.05548 0.05195
 H202 H 0.50102 1.10536 0.15659
 H203 H 0.55712 1.04513 0.09689
 C204 C 0.63449 1.04619 -0.15869
 C205 C 0.62581 0.99853 -0.18495
 C206 C 0.59172 0.96960 -0.15557
 C207 C 0.58202 1.00184 -0.11348
 O208 O 0.60797 1.04842 -0.11541
 H209 H 0.64252 0.98619 -0.22104
 H210 H 0.57601 0.92985 -0.16431
 C211 C 0.35625 0.88719 -0.13890
 C212 C 0.39218 0.88599 -0.17741
 C213 C 0.43820 0.90314 -0.15327
 C214 C 0.42663 0.91431 -0.10208
 O215 O 0.37688 0.90458 -0.09317
 H216 H 0.38553 0.87401 -0.21814
 H217 H 0.47533 0.90857 -0.17133
 C218 C 0.62694 0.82716 0.04904
 C219 C 0.61995 0.80242 0.00066
 C220 C 0.58466 0.83119 -0.02687
 C221 C 0.57280 0.87131 0.00686
 O222 O 0.59830 0.86875 0.05296
 H223 H 0.63916 0.76831 -0.01334
 H224 H 0.57026 0.82406 -0.06696
   
