data_POSCAR
  _audit_creation_date              2014-09-24
  _audit_creation_method            'ToBaCCo'
  _symmetry_space_group_name_H-M    'P1'
  _symmetry_Int_Tables_number       1
  _symmetry_cell_setting            triclinic
  loop_
  _symmetry_equiv_pos_as_xyz
 x,y,z
_cell_length_a 26.8399
_cell_length_b 24.0366
_cell_length_c 21.4649
_cell_angle_alpha 90.281000
_cell_angle_beta 89.475700
_cell_angle_gamma 86.759800
loop_
  _atom_site_label
  _atom_site_type_symbol
  _atom_site_fract_x
  _atom_site_fract_y
  _atom_site_fract_z
C1 C 1.22570 0.20259 0.19149
 C2 C 1.24639 0.25095 0.15545
 C3 C 1.26411 0.29133 0.19258
 C4 C 1.25823 0.27997 0.26335
 C5 C 1.26799 0.18215 0.23421
 C6 C 1.28451 0.22215 0.27259
 C7 C 1.18613 0.22917 0.23568
 C8 C 1.20277 0.26879 0.27365
 H9 H 1.24767 0.25262 0.10504
 H10 H 1.27207 0.31292 0.29411
 H11 H 1.27824 0.13826 0.24052
 H12 H 1.14985 0.21293 0.24343
 C13 C 0.72529 -0.29686 0.20224
 C14 C 0.74723 -0.25941 0.15297
 C15 C 0.77364 -0.21797 0.17678
 C16 C 0.77598 -0.21729 0.24815
 C17 C 0.76952 -0.31691 0.24234
 C18 C 0.79601 -0.27561 0.26666
 C19 C 0.69392 -0.25660 0.24504
 C20 C 0.72094 -0.21493 0.26926
 H21 H 0.74056 -0.26393 0.10353
 H22 H 0.79787 -0.18329 0.26710
 H23 H 0.77674 -0.36043 0.25353
 H24 H 0.65508 -0.26157 0.25644
 C25 C 0.72660 0.19601 -0.28759
 C26 C 0.76256 0.21779 -0.33056
 C27 C 0.79269 0.25876 -0.30471
 C28 C 0.78029 0.27149 -0.23912
 C29 C 0.75511 0.17665 -0.23417
 C30 C 0.78497 0.21752 -0.20778
 C31 C 0.69643 0.24487 -0.26459
 C32 C 0.72612 0.28654 -0.23601
 H33 H 0.76698 0.20339 -0.37843
 H34 H 0.80417 0.30283 -0.21822
 H35 H 0.75181 0.13595 -0.21323
 H36 H 0.65613 0.24628 -0.26133
 C37 C 1.21097 -0.27915 -0.32445
 C38 C 1.24672 -0.24340 -0.35910
 C39 C 1.27974 -0.21899 -0.32195
 C40 C 1.27667 -0.23671 -0.25290
 C41 C 1.24398 -0.32318 -0.29088
 C42 C 1.27811 -0.30138 -0.25215
 C43 C 1.18850 -0.24218 -0.27260
 C44 C 1.22250 -0.21952 -0.23524
 H45 H 1.23995 -0.22972 -0.40653
 H46 H 1.30499 -0.21844 -0.22275
 H47 H 1.23603 -0.36685 -0.29023
 H48 H 1.14862 -0.23386 -0.26772
 C49 C 0.22827 0.21401 0.82120
 C50 C 0.25076 0.26265 0.84630
 C51 C 0.26627 0.30057 0.79952
 C52 C 0.25462 0.28289 0.73564
 C53 C 0.18523 0.23629 0.77995
 C54 C 0.19869 0.27169 0.73516
 C55 C 0.26662 0.18838 0.77459
 C56 C 0.27986 0.22395 0.72914
 H57 H 0.25833 0.26753 0.89542
 H58 H 0.26568 0.31170 0.69829
 H59 H 0.14859 0.21982 0.77942
 H60 H 0.27716 0.14419 0.77279
 C61 C 0.72500 0.71632 0.80941
 C62 C 0.74942 0.76196 0.84097
 C63 C 0.76959 0.80154 0.79845
 C64 C 0.76142 0.78764 0.73311
 C65 C 0.68823 0.74333 0.76810
 C66 C 0.70810 0.78264 0.72655
 C67 C 0.76315 0.69170 0.76727
 C68 C 0.78355 0.73092 0.72514
 H69 H 0.75346 0.76471 0.89105
 H70 H 0.77629 0.81752 0.69920
 H71 H 0.65028 0.73136 0.76315
 H72 H 0.77505 0.64789 0.76789
 C73 C 0.72823 0.21347 0.31236
 C74 C 0.77334 0.23999 0.34032
 C75 C 0.80076 0.26781 0.29916
 C76 C 0.77944 0.26897 0.23287
 C77 C 0.69726 0.26184 0.28177
 C78 C 0.72406 0.29074 0.23922
 C79 C 0.74900 0.17852 0.25763
 C80 C 0.77554 0.20740 0.21631
 H81 H 0.78527 0.23315 0.38794
 H82 H 0.80201 0.29183 0.19890
 H83 H 0.65754 0.26943 0.28936
 H84 H 0.74254 0.13470 0.25154
 C85 C 0.20923 0.72655 0.32454
 C86 C 0.24691 0.76320 0.35457
 C87 C 0.27945 0.78501 0.31376
 C88 C 0.27281 0.76505 0.24576
 C89 C 0.18520 0.76223 0.27337
 C90 C 0.21804 0.78240 0.23200
 C91 C 0.24048 0.68085 0.28946
 C92 C 0.27340 0.70053 0.24723
 H93 H 0.24207 0.77896 0.40180
 H94 H 0.30006 0.78156 0.21230
 H95 H 0.14523 0.77068 0.27086
 H96 H 0.23275 0.63720 0.29159
 O97 O 1.07343 0.08167 0.11423
 O98 O 1.12772 0.02658 0.05448
 C99 C 1.11824 0.06450 0.09608
 O100 O 0.92825 -0.10593 0.09286
 O101 O 0.87649 -0.04586 0.03702
 C102 C 0.88438 -0.08769 0.07425
 O103 O 1.06941 -0.11259 0.10378
 O104 O 1.12588 -0.06438 0.04813
 C105 C 1.11482 -0.10122 0.08859
 O106 O 0.93210 0.09947 0.10458
 O107 O 0.87834 0.05201 0.04421
 C108 C 0.88773 0.08996 0.08466
 Zr109 Zr 1.00255 0.06024 0.08024
 O110 O 0.99744 0.04617 0.17705
 O111 O 1.00701 0.14665 0.09652
 Zr112 Zr 0.99992 -0.07883 0.06954
 O113 O 0.99178 -0.08125 0.16767
 O114 O 1.00367 -0.16696 0.06616
 O115 O 1.04572 -0.01375 0.08825
 O116 O 0.95687 -0.00581 0.08430
 O117 O 0.94076 0.11410 -0.10051
 O118 O 0.88287 0.06160 -0.05303
 C119 C 0.89530 0.10430 -0.08530
 O120 O 1.07587 -0.10159 -0.12061
 O121 O 1.12924 -0.05861 -0.05580
 C122 C 1.12030 -0.09203 -0.10089
 O123 O 0.93472 -0.09542 -0.12110
 O124 O 0.87911 -0.03967 -0.06372
 C125 C 0.88965 -0.07759 -0.10579
 O126 O 1.07999 0.09521 -0.10036
 O127 O 1.13120 0.03427 -0.04567
 C128 C 1.12371 0.07679 -0.08129
 Zr129 Zr 1.00771 0.06862 -0.07861
 O130 O 1.00599 0.06382 -0.17708
 O131 O 1.01282 0.15566 -0.08670
 Zr132 Zr 1.00457 -0.07055 -0.08878
 O133 O 1.00222 -0.06174 -0.18683
 O134 O 1.00828 -0.15821 -0.09952
 Zr135 Zr 1.07715 -0.01149 -0.00204
 Zr136 Zr 0.92975 0.00160 -0.00716
 O137 O 0.96234 0.00392 -0.09640
 O138 O 1.05150 -0.00423 -0.09438
 O139 O 0.96209 0.07926 0.00020
 O140 O 1.04478 -0.08902 -0.00895
 O141 O 1.04726 0.07140 0.00328
 O142 O 0.95814 -0.08188 -0.01198
 H143 H 0.93235 -0.00531 0.11914
 H144 H 1.06646 -0.12377 -0.01041
 H145 H 0.93954 0.00870 -0.13229
 H146 H 1.06841 0.10365 0.00741
 H147 H 0.97871 -0.17811 0.03559
 H148 H 0.98395 -0.17282 -0.06979
 H149 H 1.03295 -0.04394 -0.19995
 H150 H 1.04092 0.05818 -0.19201
 H151 H 1.01091 0.17084 -0.04382
 H152 H 0.99270 0.16577 0.05955
 H153 H 0.99735 0.08347 0.19689
 H154 H 1.01936 -0.06096 0.18569
 O155 O 1.08384 0.42030 0.61735
 O156 O 1.04358 0.35720 0.55841
 C157 C 1.07604 0.37001 0.60020
 O158 O 0.89464 0.57386 0.60892
 O159 O 0.94036 0.63665 0.55603
 C160 C 0.90485 0.62434 0.59429
 O161 O 0.90575 0.41917 0.61348
 O162 O 0.95574 0.35756 0.55522
 C163 C 0.92037 0.36905 0.59616
 O164 O 1.08192 0.57244 0.61055
 O165 O 1.03167 0.63593 0.55757
 C166 C 1.06903 0.62268 0.59348
 Zr167 Zr 1.05220 0.49668 0.58655
 O168 O 1.03863 0.50259 0.68384
 O169 O 1.12946 0.49359 0.60533
 Zr170 Zr 0.92866 0.49651 0.58031
 O171 O 0.92711 0.50203 0.67883
 O172 O 0.85023 0.49149 0.57738
 O173 O 0.99284 0.44549 0.59456
 O174 O 0.98776 0.54645 0.59527
 O175 O 1.08770 0.57385 0.40526
 O176 O 1.03579 0.63657 0.45883
 C177 C 1.07424 0.62390 0.42321
 O178 O 0.91599 0.42215 0.38370
 O179 O 0.96061 0.35846 0.44361
 C180 C 0.92947 0.37160 0.39901
 O181 O 0.90479 0.57535 0.39204
 O182 O 0.94559 0.63790 0.45104
 C183 C 0.91389 0.62572 0.40837
 O184 O 1.09059 0.42160 0.39560
 O185 O 1.04834 0.35788 0.45167
 C186 C 1.08240 0.37116 0.41156
 Zr187 Zr 1.05866 0.49760 0.42869
 O188 O 1.05730 0.50382 0.33031
 O189 O 1.13763 0.49271 0.42668
 Zr190 Zr 0.93429 0.49791 0.42371
 O191 O 0.93141 0.49841 0.32518
 O192 O 0.85572 0.49670 0.43008
 Zr193 Zr 0.99850 0.41291 0.50300
 Zr194 Zr 0.98972 0.58109 0.50550
 O195 O 0.99475 0.54713 0.41521
 O196 O 0.99961 0.44752 0.41297
 O197 O 1.06323 0.54557 0.50864
 O198 O 0.92497 0.44821 0.50050
 O199 O 1.06778 0.44947 0.50731
 O200 O 0.91905 0.54717 0.50209
 H201 H 0.98586 0.57259 0.63120
 H202 H 0.89678 0.42338 0.49832
 H203 H 0.99591 0.57326 0.37974
 H204 H 1.09947 0.42629 0.50802
 H205 H 0.83755 0.51804 0.54536
 H206 H 0.84345 0.49676 0.38668
 H207 H 0.96117 0.51657 0.30970
 H208 H 1.04225 0.47011 0.31390
 H209 H 1.14881 0.51404 0.46300
 H210 H 1.14685 0.49156 0.56454
 H211 H 1.03542 0.46439 0.69981
 H212 H 0.94649 0.46912 0.69517
 O213 O 0.56779 0.09063 0.62112
 O214 O 0.62297 0.03562 0.56200
 C215 C 0.61260 0.07247 0.60547
 O216 O 0.42365 -0.09478 0.60087
 O217 O 0.37061 -0.03383 0.54819
 C218 C 0.37959 -0.07552 0.58581
 O219 O 0.55962 -0.10798 0.60662
 O220 O 0.61986 -0.06261 0.55395
 C221 C 0.60549 -0.10164 0.59079
 O222 O 0.43030 0.11090 0.61009
 O223 O 0.37411 0.06765 0.54901
 C224 C 0.38555 0.10462 0.59008
 Zr225 Zr 0.49857 0.06912 0.58468
 O226 O 0.49342 0.05363 0.68125
 O227 O 0.50288 0.15538 0.60190
 Zr228 Zr 0.49346 -0.06862 0.57440
 O229 O 0.48674 -0.06862 0.67284
 O230 O 0.49392 -0.15673 0.57158
 O231 O 0.54103 -0.00543 0.59342
 O232 O 0.45127 0.00485 0.58927
 O233 O 0.43614 0.11868 0.39844
 O234 O 0.37687 0.07092 0.45013
 C235 C 0.39042 0.11062 0.41397
 O236 O 0.56875 -0.09549 0.38454
 O237 O 0.62372 -0.05341 0.44852
 C238 C 0.61361 -0.08682 0.40322
 O239 O 0.42971 -0.08991 0.38778
 O240 O 0.37374 -0.03147 0.44155
 C241 C 0.38461 -0.07177 0.40195
 O242 O 0.57340 0.10056 0.39754
 O243 O 0.62538 0.04172 0.45455
 C244 C 0.61716 0.08267 0.41597
 Zr245 Zr 0.50295 0.07663 0.42686
 O246 O 0.50395 0.07276 0.32849
 O247 O 0.50959 0.16398 0.42751
 Zr248 Zr 0.49854 -0.06112 0.41675
 O249 O 0.49602 -0.04762 0.31933
 O250 O 0.50042 -0.14793 0.40010
 Zr251 Zr 0.57306 -0.00418 0.50362
 Zr252 Zr 0.42328 0.01202 0.49830
 O253 O 0.45644 0.01302 0.40921
 O254 O 0.54649 0.00360 0.41169
 O255 O 0.45744 0.08870 0.50506
 O256 O 0.53830 -0.08023 0.49618
 O257 O 0.54395 0.07884 0.50788
 O258 O 0.45148 -0.07152 0.49351
 H259 H 0.42724 0.00655 0.62468
 H260 H 0.55835 -0.11606 0.49375
 H261 H 0.43405 0.01706 0.37284
 H262 H 0.56646 0.10998 0.51084
 H263 H 0.46876 -0.16713 0.54086
 H264 H 0.49324 -0.16551 0.44044
 H265 H 0.52882 -0.03464 0.30615
 H266 H 0.50490 0.11176 0.31402
 H267 H 0.48672 0.17973 0.46031
 H268 H 0.50861 0.17298 0.56119
 H269 H 0.49254 0.09063 0.70185
 H270 H 0.51723 -0.05335 0.69011
 O271 O 0.56521 0.58903 0.11683
 O272 O 0.62133 0.53543 0.05761
 C273 C 0.61045 0.57232 0.10068
 O274 O 0.42519 0.39800 0.10197
 O275 O 0.37180 0.45599 0.04581
 C276 C 0.38051 0.41620 0.08577
 O277 O 0.56560 0.39527 0.11310
 O278 O 0.62162 0.44253 0.05522
 C279 C 0.61096 0.40757 0.09876
 O280 O 0.42589 0.60118 0.11032
 O281 O 0.37197 0.55382 0.04999
 C282 C 0.38123 0.58994 0.09340
 Zr283 Zr 0.49610 0.56544 0.08007
 O284 O 0.49253 0.55558 0.17775
 O285 O 0.49970 0.65292 0.08806
 Zr286 Zr 0.49643 0.42499 0.07340
 O287 O 0.48946 0.41963 0.17138
 O288 O 0.50252 0.33703 0.06499
 O289 O 0.54060 0.49230 0.08972
 O290 O 0.45246 0.49768 0.08691
 O291 O 0.43084 0.60643 -0.11041
 O292 O 0.37485 0.55561 -0.05671
 C293 C 0.38558 0.59358 -0.09692
 O294 O 0.57053 0.40036 -0.12072
 O295 O 0.62432 0.44569 -0.05833
 C296 C 0.61522 0.41166 -0.10389
 O297 O 0.43158 0.40588 -0.11960
 O298 O 0.37430 0.45812 -0.06059
 C299 C 0.38604 0.42208 -0.10463
 O300 O 0.57094 0.59866 -0.10493
 O301 O 0.62447 0.54128 -0.04860
 C302 C 0.61557 0.58225 -0.08686
 Zr303 Zr 0.49998 0.57069 -0.07732
 O304 O 0.49933 0.57088 -0.17599
 O305 O 0.50299 0.65849 -0.07414
 Zr306 Zr 0.50046 0.42995 -0.08342
 O307 O 0.49845 0.42978 -0.18190
 O308 O 0.50550 0.34169 -0.08167
 Zr309 Zr 0.57302 0.49334 -0.00015
 Zr310 Zr 0.42345 0.50252 -0.00377
 O311 O 0.45723 0.50328 -0.09272
 O312 O 0.54526 0.49815 -0.09160
 O313 O 0.45325 0.58172 0.00068
 O314 O 0.54246 0.41478 -0.00429
 O315 O 0.54101 0.57545 0.00316
 O316 O 0.45347 0.41947 -0.00679
 H317 H 0.42923 0.49817 0.12307
 H318 H 0.56583 0.38135 -0.00500
 H319 H 0.43622 0.50573 -0.13041
 H320 H 0.56222 0.60775 0.00614
 H321 H 0.47218 0.32535 0.04388
 H322 H 0.47352 0.32918 -0.06503
 H323 H 0.51941 0.45981 -0.19622
 H324 H 0.53180 0.55400 -0.19087
 H325 H 0.47423 0.67335 -0.04880
 H326 H 0.47687 0.66990 0.05671
 H327 H 0.49221 0.59364 0.19577
 H328 H 0.50811 0.45018 0.18920
 N329 N 1.20682 0.07921 0.10224
 N330 N 1.23645 0.11712 0.12340
 C331 C 1.20680 0.15627 0.15287
 C332 C 1.15811 0.14082 0.14936
 N333 N 1.15991 0.09240 0.11852
 H334 H 1.12426 0.16268 0.16611
 N335 N 1.10354 0.71274 0.58041
 N336 N 1.14418 0.73761 0.59667
 C337 C 1.16993 0.70261 0.63540
 C338 C 1.14276 0.65674 0.64450
 N339 N 1.10184 0.66456 0.60945
 H340 H 1.15148 0.62126 0.67413
 N341 N 0.69901 0.07184 0.63571
 N342 N 0.72991 0.10409 0.66423
 C343 C 0.70306 0.15030 0.68403
 C344 C 0.65398 0.14497 0.66674
 N345 N 0.65340 0.09545 0.63676
 H346 H 0.62248 0.17473 0.67260
 N347 N 0.69828 0.57840 0.11994
 N348 N 0.72939 0.61221 0.14558
 C349 C 0.70159 0.65413 0.17303
 C350 C 0.65176 0.64487 0.16312
 N351 N 0.65159 0.59700 0.12988
 H352 H 0.61931 0.67148 0.17566
 N353 N 0.80005 -0.11710 0.06229
 N354 N 0.76974 -0.15245 0.08755
 C355 C 0.79363 -0.17490 0.13721
 C356 C 0.83956 -0.15251 0.14172
 N357 N 0.84209 -0.11670 0.09400
 H358 H 0.86885 -0.16272 0.17480
 N359 N 0.88729 0.27841 0.58563
 N360 N 0.85160 0.24921 0.60960
 C361 C 0.83342 0.27683 0.66061
 C362 C 0.85981 0.32445 0.66735
 N363 N 0.89281 0.32389 0.61912
 H364 H 0.85308 0.35807 0.70064
 N365 N 0.29138 -0.08693 0.60801
 N366 N 0.26371 -0.12409 0.63489
 C367 C 0.29536 -0.16422 0.65859
 C368 C 0.34309 -0.15103 0.64484
 N369 N 0.33908 -0.10274 0.61325
 H370 H 0.37719 -0.17620 0.65267
 N371 N 0.29131 0.41187 0.10557
 N372 N 0.25935 0.38099 0.13517
 C373 C 0.28638 0.34068 0.16522
 C374 C 0.33644 0.34725 0.15168
 N375 N 0.33784 0.39236 0.11444
 H376 H 0.36823 0.32024 0.16474
 N377 N 0.81362 0.15160 -0.07253
 N378 N 0.78400 0.18793 -0.10261
 C379 C 0.80951 0.20611 -0.15249
 C380 C 0.85595 0.17798 -0.15225
 N381 N 0.85675 0.14450 -0.10230
 H382 H 0.88356 0.17612 -0.18945
 N383 N 0.88980 0.72379 0.38459
 N384 N 0.85876 0.75161 0.34635
 C385 C 0.83619 0.71314 0.31209
 C386 C 0.85430 0.66135 0.33044
 N387 N 0.88727 0.66950 0.37557
 H388 H 0.84409 0.62112 0.31347
 N389 N 0.31531 0.17215 0.42226
 N390 N 0.28816 0.20648 0.38626
 C391 C 0.31036 0.20512 0.32954
 C392 C 0.35143 0.16836 0.33156
 N393 N 0.35302 0.14863 0.38978
 H394 H 0.37571 0.15433 0.29337
 N395 N 0.29846 0.60427 -0.12563
 N396 N 0.26923 0.63050 -0.16666
 C397 C 0.29771 0.66478 -0.19921
 C398 C 0.34595 0.65872 -0.17633
 N399 N 0.34470 0.62028 -0.13049
 H400 H 0.37884 0.67813 -0.19325
 N401 N 1.20930 -0.11646 -0.11563
 N402 N 1.23821 -0.15101 -0.15045
 C403 C 1.20728 -0.17868 -0.18708
 C404 C 1.15900 -0.16006 -0.17409
 N405 N 1.16182 -0.12145 -0.12976
 H406 H 1.12476 -0.17282 -0.19457
 N407 N 1.11638 0.27521 0.39973
 N408 N 1.15088 0.24720 0.36574
 C409 C 1.17299 0.28456 0.32925
 C410 C 1.15022 0.33606 0.34083
 N411 N 1.11509 0.32850 0.38474
 H412 H 1.15628 0.37462 0.31675
 N413 N 0.70184 -0.10593 0.38155
 N414 N 0.73134 -0.13931 0.34644
 C415 C 0.70164 -0.17220 0.31403
 C416 C 0.65270 -0.15782 0.33027
 N417 N 0.65459 -0.11628 0.37240
 H418 H 0.61917 -0.17542 0.31312
 N419 N 0.70402 0.39691 -0.12899
 N420 N 0.73443 0.36457 -0.16442
 C421 C 0.70610 0.33031 -0.19718
 C422 C 0.65654 0.34337 -0.18030
 N423 N 0.65703 0.38492 -0.13744
 H424 H 0.62364 0.32349 -0.19584
 N425 N 1.21294 0.09077 -0.08974
 N426 N 1.24232 0.12877 -0.11174
 C427 C 1.21229 0.17188 -0.13205
 C428 C 1.16361 0.15889 -0.12101
 N429 N 1.16564 0.10786 -0.09672
 H430 H 1.12948 0.18264 -0.13223
 N431 N 1.10500 0.71740 0.42915
 N432 N 1.14286 0.74451 0.40682
 C433 C 1.16957 0.70884 0.36874
 C434 C 1.14597 0.65964 0.36708
 N435 N 1.10607 0.66661 0.40514
 H436 H 1.15588 0.62267 0.33970
 N437 N 0.70205 0.10990 0.42491
 N438 N 0.73104 0.14746 0.40179
 C439 C 0.70426 0.17679 0.35874
 C440 C 0.65825 0.15453 0.35470
 N441 N 0.65846 0.11314 0.39677
 H442 H 0.62814 0.16622 0.32330
 N443 N 0.70346 0.60504 -0.08675
 N444 N 0.73304 0.64154 -0.11179
 C445 C 0.70481 0.67507 -0.14954
 C446 C 0.65623 0.65695 -0.14628
 N447 N 0.65725 0.61319 -0.10730
 H448 H 0.62313 0.67307 -0.16990
 N449 N 0.84285 -0.08267 -0.20021
 N450 N 0.81156 -0.11522 -0.22769
 C451 C 0.79820 -0.15325 -0.18553
 C452 C 0.82240 -0.14225 -0.13015
 N453 N 0.84982 -0.09782 -0.14174
 H454 H 0.82347 -0.16668 -0.08790
 N455 N 0.91821 0.27444 0.37124
 N456 N 0.88489 0.24541 0.34202
 C457 C 0.85131 0.28232 0.31626
 C458 C 0.86478 0.33494 0.33146
 N459 N 0.90655 0.32832 0.36567
 H460 H 0.84321 0.37382 0.32449
 N461 N 0.29767 -0.07914 0.37250
 N462 N 0.26899 -0.11592 0.34692
 C463 C 0.29892 -0.16059 0.32983
 C464 C 0.34702 -0.15023 0.34662
 N465 N 0.34461 -0.09899 0.37294
 H466 H 0.37974 -0.17868 0.34433
 N467 N 0.34403 0.41305 -0.20315
 N468 N 0.31294 0.38016 -0.23096
 C469 C 0.29603 0.34566 -0.18720
 C470 C 0.31783 0.35936 -0.13078
 N471 N 0.34726 0.40179 -0.14295
 H472 H 0.31576 0.33795 -0.08667
 N473 N 1.20312 -0.12530 0.10371
 N474 N 1.23224 -0.15606 0.14116
 C475 C 1.20159 -0.18162 0.18044
 C476 C 1.15290 -0.16590 0.16586
 N477 N 1.15555 -0.13082 0.11803
 H478 H 1.11879 -0.17753 0.18831
 N479 N 1.10309 0.27299 0.62128
 N480 N 1.13709 0.24551 0.65553
 C481 C 1.16457 0.28392 0.68326
 C482 C 1.14591 0.33565 0.66601
 N483 N 1.10754 0.32719 0.62768
 H484 H 1.15713 0.37560 0.68271
 N485 N 0.62465 -0.19785 0.60587
 N486 N 0.64926 -0.23058 0.64545
 C487 C 0.68142 -0.19879 0.67474
 C488 C 0.67602 -0.14500 0.65148
 N489 N 0.63950 -0.14630 0.60880
 H490 H 0.69131 -0.10778 0.67025
 N491 N 0.69927 0.39296 0.12111
 N492 N 0.73003 0.36368 0.15792
 C493 C 0.70195 0.33289 0.19529
 C494 C 0.65215 0.34438 0.17952
 N495 N 0.65232 0.38201 0.13279
 H496 H 0.61945 0.32611 0.19869
 N497 N 0.80038 0.12100 0.08613
 N498 N 0.76914 0.15444 0.11874
 C499 C 0.79681 0.18040 0.16080
 C500 C 0.84578 0.16115 0.15415
 N501 N 0.84632 0.12408 0.10719
 H502 H 0.87694 0.16950 0.18382
 N503 N 0.87543 0.72202 0.60773
 N504 N 0.84249 0.75194 0.64236
 C505 C 0.82064 0.71607 0.68087
 C506 C 0.84119 0.66328 0.66863
 N507 N 0.87501 0.66875 0.62291
 H508 H 0.83245 0.62441 0.69029
 N509 N 0.30999 0.16535 0.58105
 N510 N 0.28288 0.20147 0.61607
 C511 C 0.30456 0.20181 0.67255
 C512 C 0.34511 0.16428 0.67147
 N513 N 0.34709 0.14233 0.61395
 H514 H 0.36943 0.15214 0.70963
 N515 N 0.29370 0.59988 0.12458
 N516 N 0.26448 0.62759 0.16560
 C517 C 0.29268 0.66402 0.19524
 C518 C 0.34064 0.65762 0.17063
 N519 N 0.33965 0.61700 0.12673
 H520 H 0.37331 0.67851 0.18515
   
