data_POSCAR
  _audit_creation_date              2014-09-24
  _audit_creation_method            'ToBaCCo'
  _symmetry_space_group_name_H-M    'P1'
  _symmetry_Int_Tables_number       1
  _symmetry_cell_setting            triclinic
  loop_
  _symmetry_equiv_pos_as_xyz
 x,y,z
_cell_length_a 27.0956
_cell_length_b 27.0956
_cell_length_c 27.0957
_cell_angle_alpha 96.085800
_cell_angle_beta 83.913900
_cell_angle_gamma 96.090800
loop_
  _atom_site_label
  _atom_site_type_symbol
  _atom_site_fract_x
  _atom_site_fract_y
  _atom_site_fract_z
O1 O 0.55856 0.51238 0.04717
 O2 O 0.42405 0.50388 0.03349
 O3 O 0.48654 0.44098 0.04772
 O4 O 0.49608 0.57524 0.03293
 O5 O 0.51163 0.55895 -0.04839
 O6 O 0.50208 0.42470 -0.03361
 O7 O 0.43958 0.48760 -0.04775
 O8 O 0.57411 0.49609 -0.03415
 Cu9 Cu 0.48977 0.50973 0.04847
 Cu10 Cu 0.50838 0.49021 -0.04912
 C11 C 0.58937 0.50540 0.00892
 C12 C 0.40865 0.49462 -0.00956
 C13 C 0.49300 0.40986 0.00965
 C14 C 0.50519 0.59008 -0.01033
 O15 O -0.04729 0.56024 0.51241
 O16 O -0.03369 0.42572 0.50392
 O17 O -0.03308 0.49775 0.57528
 O18 O -0.04787 0.48821 0.44103
 O19 O 0.03346 0.50376 0.42475
 O20 O 0.04824 0.51331 0.55900
 O21 O 0.04764 0.44127 0.48764
 O22 O 0.03395 0.57579 0.49613
 Cu23 Cu -0.04863 0.49145 0.50978
 Cu24 Cu 0.04896 0.51008 0.49026
 C25 C -0.00910 0.59118 0.50540
 C26 C 0.00939 0.41047 0.49463
 C27 C 0.01018 0.50684 0.59012
 C28 C -0.00980 0.49466 0.40990
 O29 O 0.50415 0.03355 0.57569
 O30 O 0.51265 0.04722 0.44117
 O31 O 0.44127 0.04776 0.51320
 O32 O 0.57553 0.03297 0.50366
 O33 O 0.55924 -0.04835 0.48812
 O34 O 0.42499 -0.03356 0.49766
 O35 O 0.49635 -0.03410 0.42563
 O36 O 0.48787 -0.04770 0.56016
 Cu37 Cu 0.51002 0.04852 0.50997
 Cu38 Cu 0.49050 -0.04907 0.49135
 C39 C 0.49486 -0.00950 0.59109
 C40 C 0.50564 0.00897 0.41038
 C41 C 0.41015 0.00969 0.50675
 C42 C 0.59037 -0.01029 0.49457
 C43 C 0.49753 -0.04751 -0.10880
 C44 C 0.50027 -0.09643 -0.09821
 C45 C 0.50272 -0.10767 -0.04946
 C46 C 0.50248 -0.06927 -0.00987
 C47 C 0.49969 -0.01944 -0.02014
 C48 C 0.49720 -0.00845 -0.06982
 C49 C 0.49446 0.04121 -0.07916
 C50 C 0.49414 0.07936 -0.04044
 C51 C 0.49657 0.06929 0.00908
 C52 C 0.49939 0.01946 0.01934
 C53 C 0.50491 -0.07934 0.03964
 C54 C 0.50465 -0.04118 0.07836
 C55 C 0.50192 0.00848 0.06902
 C56 C 0.50164 0.04754 0.10799
 C57 C 0.49882 0.09645 0.09742
 C58 C 0.49628 0.10769 0.04868
 H59 H 0.49252 0.05100 -0.11658
 H60 H 0.49197 0.11693 -0.04969
 H61 H 0.50707 -0.11691 0.04889
 H62 H 0.50661 -0.05098 0.11577
 H63 H 0.50047 -0.12620 -0.12837
 H64 H 0.49863 0.12622 0.12757
 C65 C 0.04934 0.50349 0.89225
 C66 C 0.09808 0.50096 0.90349
 C67 C 0.10866 0.49815 0.95239
 C68 C 0.06969 0.49786 0.99146
 C69 C 0.02001 0.50038 0.98048
 C70 C 0.00974 0.50320 0.93065
 C71 C -0.03977 0.50563 0.92057
 C72 C -0.07849 0.50532 0.95873
 C73 C -0.06915 0.50258 1.00839
 C74 C -0.01947 0.50008 1.01938
 C75 C 0.07903 0.49513 1.04112
 C76 C 0.04031 0.49486 1.07928
 C77 C -0.00920 0.49730 1.06921
 C78 C -0.04880 0.49706 1.10761
 C79 C -0.09754 0.49953 1.09637
 C80 C -0.10812 0.50227 1.04745
 H81 H -0.04902 0.50780 0.88301
 H82 H -0.11590 0.50726 0.94894
 H83 H 0.11644 0.49317 1.05091
 H84 H 0.04956 0.49271 1.11685
 H85 H 0.12824 0.50117 0.87371
 H86 H -0.12770 0.49934 1.12614
 C87 C -0.04725 -0.10877 0.50248
 C88 C -0.09617 -0.09819 0.49972
 C89 C -0.10741 -0.04944 0.49725
 C90 C -0.06901 -0.00985 0.49750
 C91 C -0.01918 -0.02011 0.50030
 C92 C -0.00819 -0.06980 0.50280
 C93 C 0.04147 -0.07913 0.50553
 C94 C 0.07963 -0.04041 0.50584
 C95 C 0.06955 0.00910 0.50341
 C96 C 0.01972 0.01937 0.50060
 C97 C -0.07908 0.03967 0.49507
 C98 C -0.04091 0.07839 0.49534
 C99 C 0.00875 0.06905 0.49807
 C100 C 0.04781 0.10802 0.49836
 C101 C 0.09672 0.09744 0.50116
 C102 C 0.10796 0.04870 0.50368
 H103 H 0.05126 -0.11655 0.50748
 H104 H 0.11719 -0.04966 0.50800
 H105 H -0.11665 0.04892 0.49291
 H106 H -0.05071 0.11580 0.49339
 H107 H -0.12594 -0.12835 0.49952
 H108 H 0.12649 0.12760 0.50135
 C109 C -0.25462 0.50759 1.02634
 C110 C -0.28866 0.51699 1.06799
 C111 C -0.33934 0.51692 1.06228
 C112 C -0.35668 0.50737 1.01472
 C113 C -0.32207 0.49850 0.97297
 C114 C -0.27137 0.49859 0.97880
 C115 C -0.20275 0.50613 1.03270
 C116 C -0.15955 0.50452 1.03887
 H117 H -0.27610 0.52395 1.10497
 H118 H -0.36496 0.52386 1.09517
 H119 H -0.33418 0.49100 0.93587
 H120 H -0.24532 0.49122 0.94631
 C121 C 0.25514 0.49259 0.97341
 C122 C 0.27190 0.50135 1.02092
 C123 C 0.32259 0.50142 1.02674
 C124 C 0.35743 0.49281 0.98495
 C125 C 0.33985 0.48339 0.93735
 C126 C 0.28916 0.48335 0.93173
 C127 C 0.20327 0.49413 0.96709
 C128 C 0.16008 0.49581 0.96095
 H129 H 0.24584 0.50856 1.05344
 H130 H 0.33441 0.50875 1.06399
 H131 H 0.36522 0.47651 0.90423
 H132 H 0.27656 0.47653 0.89476
 C133 C -0.02618 -0.25529 0.50771
 C134 C -0.06785 -0.28934 0.51690
 C135 C -0.06221 -0.34003 0.51675
 C136 C -0.01461 -0.35760 0.50728
 C137 C 0.02718 -0.32273 0.49871
 C138 C 0.02133 -0.27203 0.49888
 C139 C -0.03252 -0.20341 0.50629
 C140 C -0.03868 -0.16020 0.50471
 H141 H -0.10482 -0.27675 0.52376
 H142 H -0.09532 -0.36543 0.52360
 H143 H 0.06443 -0.33453 0.49134
 H144 H 0.05385 -0.24594 0.49171
 C145 C 0.02676 0.25448 0.49271
 C146 C -0.02077 0.27123 0.50163
 C147 C -0.02659 0.32192 0.50162
 C148 C 0.01517 0.35652 0.49272
 C149 C 0.06273 0.33917 0.48325
 C150 C 0.06843 0.28850 0.48328
 C151 C 0.03311 0.20262 0.49430
 C152 C 0.03925 0.15943 0.49600
 H153 H -0.05328 0.24520 0.50902
 H154 H -0.06369 0.33405 0.50906
 H155 H 0.09563 0.36478 0.47629
 H156 H 0.10541 0.27593 0.47638
 C157 C 0.49242 -0.02650 -0.25535
 C158 C 0.50127 0.02101 -0.27212
 C159 C 0.50150 0.02682 -0.32283
 C160 C 0.49295 -0.01498 -0.35768
 C161 C 0.48346 -0.06258 -0.34009
 C162 C 0.48327 -0.06818 -0.28938
 C163 C 0.49379 -0.03280 -0.20345
 C164 C 0.49534 -0.03894 -0.16024
 H165 H 0.50843 0.05353 -0.24605
 H166 H 0.50889 0.06406 -0.33466
 H167 H 0.47663 -0.09570 -0.36547
 H168 H 0.47639 -0.10515 -0.27677
 C169 C 0.50742 0.02643 0.25441
 C170 C 0.49849 -0.02112 0.27115
 C171 C 0.49856 -0.02696 0.32183
 C172 C 0.50752 0.01478 0.35643
 C173 C 0.51700 0.06235 0.33910
 C174 C 0.51692 0.06807 0.28844
 C175 C 0.50578 0.03281 0.20257
 C176 C 0.50403 0.03898 0.15939
 H177 H 0.49105 -0.05361 0.24512
 H178 H 0.49110 -0.06407 0.33394
 H179 H 0.52401 0.09523 0.36471
 H180 H 0.52382 0.10506 0.27588
 C181 C 0.50811 -0.25418 -0.02884
 C182 C 0.49958 -0.27050 0.01888
 C183 C 0.49929 -0.32112 0.02506
 C184 C 0.50750 -0.35607 -0.01653
 C185 C 0.51662 -0.33916 -0.06430
 C186 C 0.51689 -0.28854 -0.07036
 C187 C 0.50672 -0.20240 -0.03545
 C188 C 0.50509 -0.15920 -0.04149
 H189 H 0.49270 -0.24418 0.05126
 H190 H 0.49214 -0.33292 0.06231
 H191 H 0.52305 -0.36507 -0.09708
 H192 H 0.52348 -0.27628 -0.10748
 C193 C 0.49043 0.25414 0.02812
 C194 C 0.48160 0.28848 0.06965
 C195 C 0.48172 0.33908 0.06361
 C196 C 0.49076 0.35601 0.01584
 C197 C 0.49901 0.32108 -0.02576
 C198 C 0.49886 0.27047 -0.01960
 C199 C 0.49199 0.20238 0.03471
 C200 C 0.49376 0.15920 0.04073
 H201 H 0.47508 0.27620 0.10677
 H202 H 0.47527 0.36497 0.09639
 H203 H 0.50611 0.33289 -0.06302
 H204 H 0.50579 0.24417 -0.05199
 C205 C -0.25391 -0.02882 0.49176
 C206 C -0.27022 0.01891 0.50026
 C207 C -0.32083 0.02509 0.50051
 C208 C -0.35579 -0.01650 0.49228
 C209 C -0.33888 -0.06427 0.48318
 C210 C -0.28827 -0.07033 0.48296
 C211 C -0.20213 -0.03543 0.49319
 C212 C -0.15894 -0.04148 0.49485
 H213 H -0.24389 0.05129 0.50716
 H214 H -0.33262 0.06235 0.50765
 H215 H -0.36479 -0.09704 0.47674
 H216 H -0.27602 -0.10746 0.47638
 C217 C 0.25442 0.02815 0.50941
 C218 C 0.28877 0.06969 0.51822
 C219 C 0.33937 0.06365 0.51806
 C220 C 0.35630 0.01588 0.50901
 C221 C 0.32137 -0.02572 0.50078
 C222 C 0.27075 -0.01957 0.50097
 C223 C 0.20266 0.03474 0.50790
 C224 C 0.15947 0.04075 0.50617
 H225 H 0.27649 0.10680 0.52475
 H226 H 0.36527 0.09643 0.52450
 H227 H 0.33317 -0.06298 0.49368
 H228 H 0.24445 -0.05196 0.49406
 C229 C -0.02824 0.49170 1.25414
 C230 C -0.06977 0.48294 1.28849
 C231 C -0.06374 0.48322 1.33911
 C232 C -0.01598 0.49234 1.35605
 C233 C 0.02563 0.50052 1.32111
 C234 C 0.01948 0.50022 1.27048
 C235 C -0.03481 0.49307 1.20235
 C236 C -0.04083 0.49469 1.15914
 H237 H -0.10689 0.47636 1.27621
 H238 H -0.09653 0.47681 1.36501
 H239 H 0.06288 0.50767 1.33292
 H240 H 0.05188 0.50708 1.24417
 C241 C 0.02872 0.50936 0.74582
 C242 C -0.01901 0.50090 0.72950
 C243 C -0.02520 0.50077 0.67891
 C244 C 0.01639 0.50906 0.64397
 C245 C 0.06417 0.51813 0.66088
 C246 C 0.07023 0.51824 0.71147
 C247 C 0.03534 0.50779 0.79757
 C248 C 0.04138 0.50601 0.84075
 H249 H -0.05139 0.49395 0.75582
 H250 H -0.06246 0.49365 0.66711
 H251 H 0.09693 0.52461 0.63498
 H252 H 0.10736 0.52477 0.72373
   
