data_POSCAR
  _audit_creation_date              2014-09-24
  _audit_creation_method            'ToBaCCo'
  _symmetry_space_group_name_H-M    'P1'
  _symmetry_Int_Tables_number       1
  _symmetry_cell_setting            triclinic
  loop_
  _symmetry_equiv_pos_as_xyz
 x,y,z
_cell_length_a 22.9729
_cell_length_b 22.7315
_cell_length_c 25.5883
_cell_angle_alpha 89.583600
_cell_angle_beta 90.173000
_cell_angle_gamma 118.800600
loop_
  _atom_site_label
  _atom_site_type_symbol
  _atom_site_fract_x
  _atom_site_fract_y
  _atom_site_fract_z
O1 O 0.34590 0.56296 0.28755
 O2 O 0.23415 0.56287 0.30450
 C3 C 0.20247 0.59350 0.31683
 O4 O 0.20982 0.64593 0.29285
 O5 O 0.31917 0.75549 0.31358
 C6 C 0.38061 0.78693 0.32407
 O7 O 0.42363 0.78036 0.29732
 O8 O 0.42273 0.66586 0.31064
 C9 C 0.39298 0.60266 0.31711
 O10 O 0.33031 0.57484 0.18395
 O11 O 0.21533 0.56851 0.20076
 C12 C 0.20531 0.61194 0.17648
 O13 O 0.23412 0.67325 0.18958
 O14 O 0.34088 0.78515 0.21040
 C15 C 0.39179 0.79538 0.18386
 O16 O 0.42470 0.76487 0.19302
 O17 O 0.43139 0.65437 0.20646
 C18 C 0.39263 0.60667 0.17694
 Cr19 Cr 0.28306 0.57086 0.24434
 Cr20 Cr 0.27784 0.71317 0.25152
 Cr21 Cr 0.42211 0.71458 0.25177
 O22 O 0.32758 0.66622 0.24922
 O23 O 0.57571 0.33327 0.68860
 O24 O 0.57482 0.21877 0.70193
 C25 C 0.61780 0.21217 0.67517
 O26 O 0.67924 0.24359 0.68564
 O27 O 0.78862 0.35312 0.70625
 C28 C 0.79608 0.40566 0.68238
 O29 O 0.76451 0.43638 0.69479
 O30 O 0.65269 0.43620 0.71150
 C31 C 0.60552 0.39646 0.68203
 O32 O 0.56705 0.34475 0.79277
 O33 O 0.57382 0.23429 0.80622
 C34 C 0.60675 0.20379 0.81539
 O35 O 0.65767 0.21403 0.78886
 O36 O 0.76458 0.32591 0.80953
 C37 C 0.79295 0.38715 0.82251
 O38 O 0.78303 0.43079 0.79861
 O39 O 0.66807 0.42448 0.81516
 C40 C 0.60577 0.39258 0.82220
 Cr41 Cr 0.57637 0.28457 0.74747
 Cr42 Cr 0.72067 0.28595 0.74766
 Cr43 Cr 0.71544 0.42839 0.75486
 O44 O 0.67094 0.33297 0.75003
 C45 C 0.35796 -0.15599 0.39884
 C46 C 0.37987 -0.11077 0.44039
 C47 C 0.44773 -0.07387 0.45245
 C48 C 0.49330 -0.08450 0.42278
 C49 C 0.47141 -0.12975 0.38126
 C50 C 0.40353 -0.16577 0.36858
 C51 C 0.46845 -0.02653 0.49697
 C52 C 0.52987 0.02561 0.50229
 C53 C 0.55060 0.07295 0.54680
 C54 C 0.61847 0.10986 0.55883
 C55 C 0.64040 0.15509 0.60038
 C56 C 0.59485 0.16486 0.63066
 C57 C 0.52696 0.12882 0.61803
 C58 C 0.50504 0.08356 0.57651
 H59 H 0.30528 -0.18315 0.39039
 H60 H 0.34363 -0.10412 0.46293
 H61 H 0.54574 -0.05908 0.43183
 H62 H 0.50781 -0.13661 0.35918
 H63 H 0.43087 -0.03504 0.52584
 H64 H 0.56744 0.03412 0.47341
 H65 H 0.65469 0.10322 0.53627
 H66 H 0.69309 0.18226 0.60880
 H67 H 0.49057 0.13567 0.64013
 H68 H 0.45260 0.05812 0.56748
 C69 C 1.14469 0.50878 0.38809
 C70 C 1.10170 0.48518 0.43092
 C71 C 1.06754 0.51884 0.44762
 C72 C 1.07793 0.57739 0.42072
 C73 C 1.12093 0.60101 0.37783
 C74 C 1.15492 0.56706 0.36104
 C75 C 1.02376 0.49249 0.49415
 C76 C 0.97481 0.50676 0.50507
 C77 C 0.93103 0.48039 0.55160
 C78 C 0.89694 0.51409 0.56836
 C79 C 0.85395 0.49047 0.61120
 C80 C 0.84365 0.43212 0.63818
 C81 C 0.87757 0.39814 0.62132
 C82 C 0.92057 0.42177 0.57844
 H83 H 1.17030 0.48154 0.37646
 H84 H 1.09508 0.44031 0.45112
 H85 H 1.05448 0.60628 0.43318
 H86 H 1.12827 0.64652 0.35832
 H87 H 1.03242 0.45954 0.51987
 H88 H 0.96615 0.53971 0.47937
 H89 H 0.90362 0.55901 0.54822
 H90 H 0.82840 0.51775 0.62287
 H91 H 0.87017 0.35258 0.64079
 H92 H 0.94396 0.39285 0.56593
 C93 C 0.38142 0.50367 0.36905
 C94 C 0.40021 0.47600 0.41038
 C95 C 0.45236 0.51716 0.44380
 C96 C 0.48478 0.58713 0.43548
 C97 C 0.46593 0.61486 0.39413
 C98 C 0.41407 0.57345 0.36037
 C99 C 0.46958 0.48518 0.48755
 C100 C 0.52887 0.51374 0.51148
 C101 C 0.54611 0.48180 0.55525
 C102 C 0.59832 0.52298 0.58860
 C103 C 0.61713 0.49537 0.62996
 C104 C 0.58442 0.42560 0.63873
 C105 C 0.53249 0.38416 0.60505
 C106 C 0.51362 0.41185 0.56366
 H107 H 0.34097 0.47025 0.34406
 H108 H 0.37401 0.42207 0.41614
 H109 H 0.52368 0.62095 0.46131
 H110 H 0.49161 0.66886 0.38893
 H111 H 0.43172 0.43578 0.49969
 H112 H 0.56673 0.56314 0.49932
 H113 H 0.62457 0.57690 0.58277
 H114 H 0.65763 0.52881 0.65489
 H115 H 0.50675 0.33017 0.61031
 H116 H 0.47465 0.37799 0.53789
 C117 C 0.37855 -0.11978 1.12916
 C118 C 0.39760 -0.07458 1.08723
 C119 C 0.45219 -0.06292 1.05589
 C120 C 0.48708 -0.09823 1.06709
 C121 C 0.46804 -0.14344 1.10906
 C122 C 0.41350 -0.15484 1.14056
 C123 C 0.46929 -0.01558 1.01110
 C124 C 0.52925 0.01476 0.98815
 C125 C 0.54635 0.06209 0.94336
 C126 C 0.60093 0.07374 0.91201
 C127 C 0.61997 0.11894 0.87008
 C128 C 0.58504 0.15401 0.85869
 C129 C 0.53051 0.14263 0.89020
 C130 C 0.51147 0.09742 0.93216
 H131 H 0.33605 -0.12759 1.15238
 H132 H 0.36952 -0.04853 1.07927
 H133 H 0.52802 -0.09263 1.04301
 H134 H 0.49558 -0.17019 1.11633
 H135 H 0.43055 -0.00533 0.99721
 H136 H 0.56798 0.00451 1.00204
 H137 H 0.62900 0.04768 0.91997
 H138 H 0.66246 0.12673 0.84685
 H139 H 0.50298 0.16939 0.88294
 H140 H 0.47053 0.09183 0.95625
 C141 C 1.14959 0.63857 1.10783
 C142 C 1.10526 0.61800 1.06584
 C143 C 1.07171 0.55055 1.05062
 C144 C 1.08451 0.50395 1.07777
 C145 C 1.12888 0.52432 1.11978
 C146 C 1.16220 0.59206 1.13579
 C147 C 1.02560 0.53161 1.00544
 C148 C 0.97635 0.46902 0.99704
 C149 C 0.93025 0.45012 0.95186
 C150 C 0.89671 0.38262 0.93656
 C151 C 0.85241 0.36221 0.89454
 C152 C 0.84016 0.40888 0.86699
 C153 C 0.87304 0.47638 0.88274
 C154 C 0.91741 0.49680 0.92476
 H155 H 1.17394 0.69125 1.11811
 H156 H 1.09682 0.65506 1.04530
 H157 H 1.06158 0.45189 1.06625
 H158 H 1.13714 0.48657 1.13940
 H159 H 1.03257 0.57154 0.97869
 H160 H 0.96936 0.42908 1.02378
 H161 H 0.90513 0.34550 0.95703
 H162 H 0.82770 0.30974 0.88372
 H163 H 0.86422 0.51353 0.86279
 H164 H 0.94029 0.54885 0.93631
 C165 C 0.49063 0.62319 1.12343
 C166 C 0.51878 0.60434 1.08300
 C167 C 0.47933 0.54848 1.05195
 C168 C 0.41042 0.51272 1.06133
 C169 C 0.38217 0.53170 1.10174
 C170 C 0.42202 0.58690 1.13349
 C171 C 0.51183 0.53058 1.00961
 C172 C 0.48646 0.46880 0.98938
 C173 C 0.51898 0.45088 0.94706
 C174 C 0.47955 0.39497 0.91605
 C175 C 0.50773 0.37608 0.87565
 C176 C 0.57634 0.41239 0.86559
 C177 C 0.61616 0.46766 0.89730
 C178 C 0.58789 0.48666 0.93768
 H179 H 0.52280 0.66628 1.14684
 H180 H 0.57182 0.63318 1.07629
 H181 H 0.37782 0.47081 1.03717
 H182 H 0.32906 0.50307 1.10807
 H183 H 0.55900 0.57002 0.99551
 H184 H 0.43929 0.42935 1.00348
 H185 H 0.42651 0.36611 0.92276
 H186 H 0.47558 0.33295 0.85227
 H187 H 0.66927 0.49630 0.89097
 H188 H 0.62047 0.52861 0.96181
   
