data_POSCAR
  _audit_creation_date              2014-09-24
  _audit_creation_method            'ToBaCCo'
  _symmetry_space_group_name_H-M    'P1'
  _symmetry_Int_Tables_number       1
  _symmetry_cell_setting            triclinic
  loop_
  _symmetry_equiv_pos_as_xyz
 x,y,z
_cell_length_a 25.7506
_cell_length_b 25.8786
_cell_length_c 25.7507
_cell_angle_alpha 78.620800
_cell_angle_beta 101.143100
_cell_angle_gamma 77.098500
loop_
  _atom_site_label
  _atom_site_type_symbol
  _atom_site_fract_x
  _atom_site_fract_y
  _atom_site_fract_z
O1 O 0.57577 0.46913 0.04677
 O2 O 0.42924 0.49931 0.04861
 O3 O 0.50174 0.41398 0.04358
 O4 O 0.50285 0.55322 0.05337
 O5 O 0.48031 0.58202 -0.03641
 O6 O 0.47766 0.44273 -0.04649
 O7 O 0.40522 0.52741 -0.04112
 O8 O 0.55155 0.49779 -0.04318
 Cu9 Cu 0.50484 0.48092 0.05707
 Cu10 Cu 0.47621 0.51535 -0.05083
 C11 C 0.58871 0.47878 0.00130
 C12 C 0.39191 0.51857 0.00424
 C13 C 0.48818 0.40490 -0.00312
 C14 C 0.49346 0.59115 0.01043
 O15 O -0.02461 0.57965 0.49875
 O16 O -0.03783 0.44035 0.49975
 O17 O -0.02770 0.49755 0.57275
 O18 O -0.03720 0.52293 0.42527
 O19 O 0.05287 0.49062 0.44247
 O20 O 0.06270 0.46755 0.59028
 O21 O 0.05258 0.40903 0.51859
 O22 O 0.06469 0.54869 0.51402
 Cu23 Cu -0.04088 0.51325 0.49743
 Cu24 Cu 0.06723 0.47594 0.51811
 C25 C 0.02279 0.58815 0.50745
 C26 C 0.00513 0.40125 0.50819
 C27 C 0.01909 0.47970 0.60659
 C28 C 0.00609 0.51027 0.40864
 O29 O 0.51067 0.04482 0.57020
 O30 O 0.48711 0.04949 0.42385
 O31 O 0.42518 0.05235 0.49394
 O32 O 0.57162 0.04043 0.50128
 O33 O 0.58875 -0.04974 0.52042
 O34 O 0.44296 -0.03771 0.51378
 O35 O 0.50334 -0.04031 0.44338
 O36 O 0.52787 -0.04484 0.59039
 Cu37 Cu 0.49667 0.05586 0.49524
 Cu38 Cu 0.51740 -0.05220 0.51898
 C39 C 0.52385 -0.00057 0.60571
 C40 C 0.49140 0.00544 0.40839
 C41 C 0.40914 0.00919 0.50289
 C42 C 0.60487 -0.00670 0.51131
 C43 C 0.49129 -0.02168 0.02368
 C44 C 0.49520 0.01750 -0.01783
 C45 C 0.50023 0.00629 -0.07111
 C46 C 0.49343 0.07411 -0.01318
 C47 C 0.48950 -0.01240 0.07833
 C48 C 0.49150 -0.07717 0.01747
 C49 C 0.54977 -0.02570 -0.07640
 C50 C 0.55649 -0.03044 -0.12800
 C51 C 0.51403 -0.00256 -0.17482
 C52 C 0.46414 0.02850 -0.16949
 C53 C 0.45735 0.03301 -0.11792
 C54 C 0.53360 0.09829 -0.02874
 C55 C 0.53088 0.15254 -0.02787
 C56 C 0.48775 0.18365 -0.01178
 C57 C 0.44806 0.15936 0.00479
 C58 C 0.45044 0.10520 0.00338
 C59 C 0.44397 -0.01740 0.09938
 C60 C 0.44290 -0.01094 0.15173
 C61 C 0.48747 0.00027 0.18390
 C62 C 0.53316 0.00508 0.16314
 C63 C 0.53408 -0.00100 0.11052
 C64 C 0.44193 -0.09085 0.00293
 C65 C 0.44238 -0.14502 0.00325
 C66 C 0.49249 -0.18591 0.01717
 C67 C 0.54205 -0.17115 0.02827
 C68 C 0.54152 -0.11753 0.03000
 H69 H 0.58394 -0.04501 -0.04095
 H70 H 0.59545 -0.05396 -0.13168
 H71 H 0.43122 0.05057 -0.20543
 H72 H 0.41923 0.05856 -0.11456
 H73 H 0.56698 0.07518 -0.04186
 H74 H 0.56204 0.17056 -0.04043
 H75 H 0.41826 0.08791 0.01430
 H76 H 0.40913 -0.02607 0.07528
 H77 H 0.40753 -0.01511 0.16742
 H78 H 0.56801 0.01337 0.18776
 H79 H 0.56979 0.00238 0.09513
 H80 H 0.40298 -0.05993 -0.00721
 H81 H 0.40366 -0.15523 -0.00631
 H82 H 0.58120 -0.20159 0.03729
 H83 H 0.58010 -0.10758 0.04168
 H84 H 0.41479 0.18270 0.01789
 C85 C -0.02301 0.48152 0.98553
 C86 C 0.01469 0.49177 1.02424
 C87 C 0.06879 0.49756 1.01565
 C88 C 0.00433 0.49796 1.07776
 C89 C -0.07800 0.47833 0.99328
 C90 C -0.01261 0.47594 0.93190
 C91 C 0.11716 0.46207 1.05188
 C92 C 0.16840 0.46948 1.04777
 C93 C 0.17219 0.51338 1.00818
 C94 C 0.12396 0.54792 0.97065
 C95 C 0.07252 0.54020 0.97448
 C96 C -0.00873 0.45646 1.11273
 C97 C -0.01416 0.46135 1.16468
 C98 C -0.00639 0.50763 1.18247
 C99 C 0.00678 0.54896 1.14756
 C100 C 0.01189 0.54425 1.09562
 C101 C -0.11647 0.52454 0.99691
 C102 C -0.16996 0.52237 0.99878
 C103 C -0.18572 0.47399 0.99706
 C104 C -0.14634 0.42714 0.99597
 C105 C -0.09325 0.42958 0.99313
 C106 C -0.05003 0.50989 0.88372
 C107 C -0.04062 0.50653 0.83281
 C108 C 0.00632 0.46914 0.82923
 C109 C 0.04325 0.43413 0.87713
 C110 C 0.03370 0.43730 0.92825
 H111 H 0.11511 0.42895 1.08383
 H112 H 0.20517 0.44182 1.07647
 H113 H 0.12606 0.58172 0.93949
 H114 H 0.03560 0.56828 0.94642
 H115 H -0.01325 0.41973 1.10040
 H116 H -0.02340 0.42859 1.19145
 H117 H 0.02263 0.57641 1.06955
 H118 H -0.10551 0.56261 0.99668
 H119 H -0.19949 0.55882 1.00018
 H120 H -0.15724 0.38908 0.99586
 H121 H -0.06404 0.39353 0.99042
 H122 H -0.08611 0.53973 0.88557
 H123 H -0.06954 0.53365 0.79609
 H124 H 0.07945 0.40476 0.87482
 H125 H 0.06245 0.40992 0.96488
 H126 H 0.01420 0.58435 1.16103
 C127 C 0.03123 -0.02628 0.51250
 C128 C -0.01222 0.01489 0.51192
 C129 C -0.06654 0.00531 0.51229
 C130 C -0.00840 0.07167 0.51030
 C131 C 0.08607 -0.01768 0.51271
 C132 C 0.02599 -0.08202 0.51175
 C133 C -0.11148 0.03357 0.46786
 C134 C -0.16352 0.02667 0.46842
 C135 C -0.17119 -0.00818 0.51366
 C136 C -0.12642 -0.03625 0.55834
 C137 C -0.07416 -0.02969 0.55758
 C138 C 0.01021 0.10096 0.46901
 C139 C 0.01176 0.15494 0.46735
 C140 C -0.00647 0.18084 0.50616
 C141 C -0.02478 0.15154 0.54750
 C142 C -0.02600 0.09753 0.54938
 C143 C 0.11430 0.00037 0.55488
 C144 C 0.16555 0.00952 0.55355
 C145 C 0.18882 0.00088 0.50999
 C146 C 0.16110 -0.01818 0.46851
 C147 C 0.11012 -0.02754 0.46993
 C148 C 0.05242 -0.12550 0.55796
 C149 C 0.05165 -0.17898 0.55652
 C150 C 0.02610 -0.19011 0.50816
 C151 C -0.00191 -0.14626 0.46239
 C152 C -0.00202 -0.09250 0.46420
 H153 H -0.10617 0.06101 0.43286
 H154 H -0.19799 0.04889 0.43392
 H155 H -0.13208 -0.06291 0.59366
 H156 H -0.03989 -0.05106 0.59252
 H157 H 0.02297 0.08226 0.43781
 H158 H 0.02649 0.17683 0.43542
 H159 H -0.04071 0.07579 0.58141
 H160 H 0.09656 0.00743 0.58857
 H161 H 0.18694 0.02356 0.58620
 H162 H 0.17908 -0.02581 0.43510
 H163 H 0.08898 -0.04169 0.43723
 H164 H 0.07402 -0.11799 0.59501
 H165 H 0.07230 -0.21201 0.59272
 H166 H -0.02245 -0.15383 0.42492
 H167 H -0.02249 -0.05927 0.42813
 H168 H -0.03873 0.17078 0.57792
 C169 C -0.33104 0.45496 0.95732
 C170 C -0.35249 0.47099 1.00038
 C171 C -0.31825 0.48507 1.04154
 C172 C -0.26465 0.48558 1.03970
 C173 C -0.24331 0.47249 0.99642
 C174 C -0.27687 0.45771 0.95424
 C175 C -0.36180 0.43553 0.91752
 C176 C -0.34152 0.42298 0.87379
 C177 C -0.29039 0.42937 0.86875
 C178 C -0.25828 0.44659 0.90839
 H179 H -0.40120 0.42871 0.92017
 H180 H -0.36576 0.40846 0.84349
 H181 H -0.27528 0.42045 0.83419
 H182 H -0.21908 0.45141 0.90237
 H183 H -0.33364 0.49744 1.07477
 H184 H -0.23963 0.49681 1.07227
 C185 C 0.31565 0.53477 1.05167
 C186 C 0.33579 0.52727 1.00492
 C187 C 0.29850 0.52461 0.95827
 C188 C 0.24528 0.52206 0.95951
 C189 C 0.22675 0.52315 1.00696
 C190 C 0.26101 0.53203 1.05270
 C191 C 0.34695 0.54830 1.09608
 C192 C 0.32654 0.55548 1.14125
 C193 C 0.27408 0.55101 1.14281
 C194 C 0.24124 0.54019 1.09882
 H195 H 0.38638 0.55604 1.09580
 H196 H 0.35119 0.56568 1.17480
 H197 H 0.25821 0.55735 1.17771
 H198 H 0.19979 0.53975 1.10084
 H199 H 0.31159 0.52039 0.92141
 H200 H 0.21911 0.51661 0.92378
 C201 C 0.07921 -0.34532 0.52524
 C202 C 0.02790 -0.35849 0.50932
 C203 C -0.02102 -0.31532 0.49352
 C204 C -0.02056 -0.26151 0.49239
 C205 C 0.02875 -0.24764 0.50583
 C206 C 0.07917 -0.28914 0.52008
 C207 C 0.13061 -0.38551 0.54782
 C208 C 0.17974 -0.37084 0.55863
 C209 C 0.17947 -0.31613 0.54810
 C210 C 0.12983 -0.27558 0.52928
 H211 H 0.13487 -0.42868 0.55969
 H212 H 0.21839 -0.40228 0.57530
 H213 H 0.21785 -0.30503 0.55562
 H214 H 0.13166 -0.23349 0.52184
 H215 H -0.06085 -0.32281 0.48165
 H216 H -0.05946 -0.23029 0.48138
 C217 C -0.03391 0.33692 0.45927
 C218 C 0.00008 0.34610 0.50507
 C219 C 0.03099 0.30155 0.54873
 C220 C 0.02790 0.24859 0.54836
 C221 C -0.00591 0.23838 0.50416
 C222 C -0.03775 0.28276 0.45933
 C223 C -0.06317 0.38008 0.41274
 C224 C -0.09733 0.37059 0.36866
 C225 C -0.10309 0.31821 0.36991
 C226 C -0.07374 0.27461 0.41470
 H227 H -0.05963 0.42134 0.40949
 H228 H -0.11960 0.40412 0.33340
 H229 H -0.13019 0.31124 0.33582
 H230 H -0.07974 0.23470 0.41398
 H231 H 0.05749 0.30790 0.58370
 H232 H 0.05249 0.21508 0.58282
 C233 C 0.53959 0.04314 -0.31605
 C234 C 0.53108 -0.00181 -0.33812
 C235 C 0.52533 -0.04817 -0.30286
 C236 C 0.52127 -0.04816 -0.24976
 C237 C 0.52312 -0.00212 -0.22977
 C238 C 0.53376 0.04343 -0.26209
 C239 C 0.55654 0.08649 -0.34469
 C240 C 0.56288 0.13055 -0.32284
 C241 C 0.55394 0.13206 -0.27160
 C242 C 0.54013 0.08876 -0.24110
 H243 H 0.56759 0.08617 -0.38298
 H244 H 0.57560 0.16336 -0.34553
 H245 H 0.55911 0.16630 -0.25480
 H246 H 0.53556 0.09072 -0.20058
 H247 H 0.52041 -0.08383 -0.31727
 H248 H 0.51446 -0.08371 -0.22471
 C249 C 0.45007 0.05046 0.30577
 C250 C 0.48576 0.00655 0.34954
 C251 C 0.51978 -0.03746 0.33718
 C252 C 0.52052 -0.03804 0.28348
 C253 C 0.48677 0.00501 0.24001
 C254 C 0.45126 0.04981 0.25068
 C255 C 0.41214 0.09434 0.31489
 C256 C 0.37815 0.13718 0.27148
 C257 C 0.38090 0.13732 0.21807
 C258 C 0.41697 0.09412 0.20754
 H259 H 0.40735 0.09600 0.35512
 H260 H 0.34943 0.17045 0.27938
 H261 H 0.35464 0.17088 0.18459
 H262 H 0.41774 0.09579 0.16538
 H263 H 0.54692 -0.07165 0.36948
 H264 H 0.54742 -0.07278 0.27569
 C265 C 0.53019 -0.34299 0.06050
 C266 C 0.49684 -0.35317 0.01463
 C267 C 0.46384 -0.30860 -0.02824
 C268 C 0.46270 -0.25508 -0.02635
 C269 C 0.49313 -0.24383 0.01925
 C270 C 0.52543 -0.28793 0.06424
 C271 C 0.56914 -0.38572 0.10229
 C272 C 0.59767 -0.37502 0.14898
 C273 C 0.58850 -0.32182 0.15502
 C274 C 0.55287 -0.27857 0.11317
 H275 H 0.57949 -0.42756 0.09925
 H276 H 0.62684 -0.40830 0.18080
 H277 H 0.60980 -0.31388 0.19193
 H278 H 0.54687 -0.23792 0.11982
 H279 H 0.43839 -0.31512 -0.06378
 H280 H 0.43791 -0.22203 -0.06112
 C281 C 0.43916 0.34016 -0.04081
 C282 C 0.48474 0.34954 -0.00678
 C283 C 0.52855 0.30501 0.02486
 C284 C 0.52866 0.25181 0.02242
 C285 C 0.48492 0.24137 -0.01166
 C286 C 0.43989 0.28569 -0.04424
 C287 C 0.39226 0.38340 -0.07058
 C288 C 0.34864 0.37362 -0.10503
 C289 C 0.35072 0.32086 -0.11057
 C290 C 0.39580 0.27720 -0.08062
 H291 H 0.38826 0.42494 -0.06713
 H292 H 0.31310 0.40722 -0.12769
 H293 H 0.31703 0.31364 -0.13793
 H294 H 0.39572 0.23698 -0.08646
 H295 H 0.56341 0.31154 0.05129
 H296 H 0.56325 0.21831 0.04755
 C297 C -0.30987 -0.03932 0.47861
 C298 C -0.33706 -0.01121 0.51207
 C299 C -0.30881 0.01478 0.54618
 C300 C -0.25429 0.01344 0.54767
 C301 C -0.22677 -0.01337 0.51460
 C302 C -0.25402 -0.04067 0.48022
 C303 C -0.33731 -0.06455 0.44223
 C304 C -0.30992 -0.09173 0.40950
 C305 C -0.25487 -0.09425 0.41221
 C306 C -0.22701 -0.06897 0.44713
 H307 H -0.38010 -0.06318 0.43829
 H308 H -0.33155 -0.11089 0.38186
 H309 H -0.23374 -0.11563 0.38691
 H310 H -0.18425 -0.07184 0.44803
 H311 H -0.32929 0.03651 0.57174
 H312 H -0.23376 0.03474 0.57378
 C313 C 0.30546 0.05055 0.46352
 C314 C 0.35115 0.01244 0.50328
 C315 C 0.34187 -0.02536 0.54519
 C316 C 0.28890 -0.02684 0.54790
 C317 C 0.24338 0.00924 0.50862
 C318 C 0.25109 0.04916 0.46668
 C319 C 0.31215 0.08882 0.41971
 C320 C 0.26672 0.12589 0.38130
 C321 C 0.21374 0.12560 0.38554
 C322 C 0.20578 0.08765 0.42773
 H323 H 0.35214 0.09046 0.41419
 H324 H 0.27268 0.15503 0.34808
 H325 H 0.17864 0.15473 0.35583
 H326 H 0.16392 0.08889 0.42967
 H327 H 0.37613 -0.05447 0.57610
 H328 H 0.28339 -0.05756 0.58008
 C329 C -0.03656 0.55747 1.30730
 C330 C 0.00195 0.51451 1.34969
 C331 C 0.03551 0.47132 1.33595
 C332 C 0.03118 0.46946 1.28178
 C333 C -0.00701 0.51062 1.23925
 C334 C -0.04195 0.55474 1.25173
 C335 C -0.06905 0.60370 1.31850
 C336 C -0.10805 0.64439 1.27653
 C337 C -0.11528 0.64016 1.22272
 C338 C -0.08260 0.59592 1.21022
 H339 H -0.06420 0.60959 1.35935
 H340 H -0.13287 0.67938 1.28582
 H341 H -0.14608 0.67159 1.19043
 H342 H -0.08977 0.59417 1.16789
 H343 H 0.06488 0.43794 1.36760
 H344 H 0.05837 0.43566 1.27292
 C345 C 0.05694 0.49647 0.69892
 C346 C 0.02207 0.47392 0.66543
 C347 C -0.01435 0.44857 0.68736
 C348 C -0.01724 0.44558 0.74118
 C349 C 0.01629 0.46770 0.77490
 C350 C 0.05428 0.49281 0.75433
 C351 C 0.09241 0.52499 0.67815
 C352 C 0.12560 0.54754 0.71148
 C353 C 0.12369 0.54297 0.76578
 C354 C 0.08815 0.51628 0.78708
 H355 H 0.09448 0.53106 0.63602
 H356 H 0.15264 0.56910 0.69491
 H357 H 0.14940 0.56078 0.79136
 H358 H 0.08720 0.51461 0.82919
 H359 H -0.04155 0.43166 0.66221
 H360 H -0.04684 0.42687 0.75641
   
