data_POSCAR
  _audit_creation_date              2014-09-24
  _audit_creation_method            'ToBaCCo'
  _symmetry_space_group_name_H-M    'P1'
  _symmetry_Int_Tables_number       1
  _symmetry_cell_setting            triclinic
  loop_
  _symmetry_equiv_pos_as_xyz
 x,y,z
_cell_length_a 41.5885
_cell_length_b 41.5977
_cell_length_c 41.4891
_cell_angle_alpha 90.100600
_cell_angle_beta 89.985600
_cell_angle_gamma 90.012700
loop_
  _atom_site_label
  _atom_site_type_symbol
  _atom_site_fract_x
  _atom_site_fract_y
  _atom_site_fract_z
C1 C 0.17126 0.16992 0.21105
 N2 N 0.19795 0.15663 0.19774
 C3 C 0.21136 0.16998 0.17110
 N4 N 0.19808 0.19664 0.15780
 C5 C 0.17139 0.20994 0.17111
 N6 N 0.15800 0.19658 0.19774
 C7 C -0.17117 0.83054 0.21028
 N8 N -0.15788 0.80385 0.19695
 C9 C -0.17121 0.79044 0.17029
 N10 N -0.19789 0.80369 0.15696
 C11 C -0.21120 0.83037 0.17028
 N12 N -0.19785 0.84378 0.19695
 C13 C -0.17111 0.16929 -0.21057
 N14 N -0.19779 0.15599 -0.19726
 C15 C -0.21111 0.16930 -0.17052
 N16 N -0.19776 0.19593 -0.15711
 C17 C -0.17109 0.20922 -0.17041
 N18 N -0.15778 0.19591 -0.19715
 C19 C 0.17105 0.82982 -0.20997
 N20 N 0.15780 0.80315 -0.19668
 C21 C 0.17117 0.78982 -0.17003
 N22 N 0.19782 0.80315 -0.15669
 C23 C 0.21109 0.82983 -0.16998
 N24 N 0.19771 0.84316 -0.19663
 C25 C 0.16953 1.17059 0.78938
 N26 N 0.15627 1.19726 0.80278
 C27 C 0.16961 1.21056 0.82952
 N28 N 0.19623 1.19719 0.84283
 C29 C 0.20949 1.17052 0.82944
 N30 N 0.19615 1.15723 0.80271
 C31 C 0.83020 0.82949 0.78853
 N32 N 0.84352 0.80285 0.80184
 C33 C 0.83020 0.78954 0.82855
 N34 N 0.80356 0.80286 0.84191
 C35 C 0.79024 0.82949 0.82861
 N36 N 0.80355 0.84279 0.80191
 C37 C 0.16964 0.82916 1.21041
 N38 N 0.15638 0.80245 1.19708
 C39 C 0.16976 0.78904 1.17043
 N40 N 0.19644 0.80233 1.15712
 C41 C 0.20971 0.82904 1.17044
 N42 N 0.19632 0.84244 1.19709
 C43 C 0.83038 1.17124 1.21076
 N44 N 0.80372 1.15793 1.19739
 C45 C 0.79039 1.17126 1.17072
 N46 N 0.80369 1.19792 1.15744
 C47 C 0.83034 1.21124 1.17079
 N48 N 0.84367 1.19791 1.19747
 N49 N 0.53374 1.05707 0.96532
 N50 N 0.55819 1.07691 0.96128
 N51 N 0.46604 1.03464 0.94303
 N52 N 0.44157 1.03861 0.92317
 N53 N 0.46605 1.05699 0.96543
 N54 N 0.44158 1.07681 0.96145
 N55 N 0.53372 1.03471 0.94292
 N56 N 0.55816 1.03870 0.92300
 C57 C 0.57306 1.06510 0.93481
 C58 C 0.42667 1.06498 0.93502
 N59 N 0.46616 0.94309 0.96534
 N60 N 0.44172 0.92321 0.96134
 N61 N 0.53378 0.96547 0.94287
 N62 N 0.55821 0.96146 0.92293
 N63 N 0.53383 0.94316 0.96524
 N64 N 0.55830 0.92335 0.96116
 N65 N 0.46611 0.96539 0.94297
 N66 N 0.44163 0.96134 0.92311
 Mn67 Mn 0.49991 1.00005 0.94256
 C68 C 0.42678 0.93496 0.93493
 C69 C 0.57314 0.93512 0.93470
 N70 N 0.46614 1.05706 1.03486
 N71 N 0.44172 1.07692 1.03898
 N72 N 0.53387 1.03483 1.05713
 N73 N 0.55833 1.03890 1.07699
 N74 N 0.53381 1.05713 1.03475
 N75 N 0.55825 1.07701 1.03876
 N76 N 0.46619 1.03475 1.05723
 N77 N 0.44180 1.03880 1.07721
 Mn78 Mn 0.49994 1.05745 1.00009
 C79 C 0.42689 1.06517 1.06546
 C80 C 0.57318 1.06528 1.06517
 N81 N 0.53393 0.94323 1.03467
 N82 N 0.55836 0.92337 1.03868
 N83 N 0.46625 0.96550 1.05717
 N84 N 0.44181 0.96147 1.07708
 N85 N 0.46625 0.94315 1.03476
 N86 N 0.44182 0.92329 1.03879
 N87 N 0.53393 0.96557 1.05707
 N88 N 0.55837 0.96156 1.07697
 Mn89 Mn 0.50004 0.94277 1.00000
 Mn90 Mn 0.50006 1.00016 1.05754
 Cl91 Cl 0.49999 1.00011 1.00005
 C92 C 0.57325 0.93517 1.06513
 C93 C 0.42693 0.93507 1.06525
 N94 N 0.03476 0.46601 0.05749
 N95 N 0.03879 0.44165 0.07744
 N96 N 0.05714 0.53360 0.03502
 N97 N 0.07699 0.55806 0.03902
 N98 N 0.03478 0.53368 0.05739
 N99 N 0.03879 0.55819 0.07725
 N100 N 0.05711 0.46594 0.03511
 N101 N 0.07698 0.44154 0.03920
 C102 C 0.06519 0.42675 0.06567
 C103 C 0.06518 0.57304 0.06544
 N104 N 0.03490 0.53332 -0.05681
 N105 N 0.03894 0.55772 -0.07672
 N106 N 0.05717 0.46571 -0.03432
 N107 N 0.07703 0.44126 -0.03833
 N108 N 0.03486 0.46566 -0.05672
 N109 N 0.03889 0.44117 -0.07661
 N110 N 0.05721 0.53337 -0.03441
 N111 N 0.07706 0.55781 -0.03843
 Mn112 Mn 0.05754 0.49966 0.00035
 C113 C 0.06531 0.57263 -0.06489
 C114 C 0.06526 0.42631 -0.06477
 N115 N -0.03449 0.53370 0.05734
 N116 N -0.03853 0.55821 0.07720
 N117 N -0.05683 0.46596 0.03504
 N118 N -0.07669 0.44154 0.03909
 N119 N -0.03451 0.46603 0.05744
 N120 N -0.03856 0.44166 0.07737
 N121 N -0.05679 0.53363 0.03493
 N122 N -0.07664 0.55808 0.03890
 Mn123 Mn 0.00014 0.49986 0.05780
 C124 C -0.06489 0.57305 0.06533
 C125 C -0.06494 0.42674 0.06557
 N126 N -0.03440 0.46567 -0.05677
 N127 N -0.03843 0.44117 -0.07664
 N128 N -0.05672 0.53342 -0.03450
 N129 N -0.07655 0.55786 -0.03858
 N130 N -0.03436 0.53333 -0.05687
 N131 N -0.03834 0.55771 -0.07680
 N132 N -0.05676 0.46575 -0.03440
 N133 N -0.07663 0.44132 -0.03840
 Mn134 Mn 0.00025 0.49949 -0.05718
 Mn135 Mn -0.05716 0.49969 0.00027
 Cl136 Cl 0.00019 0.49967 0.00031
 C137 C -0.06484 0.42634 -0.06482
 C138 C -0.06472 0.57265 -0.06504
 N139 N 0.96523 0.05734 0.46586
 N140 N 0.96123 0.07724 0.44144
 N141 N 0.94281 0.03494 0.53361
 N142 N 0.92293 0.03893 0.55810
 N143 N 0.96516 0.05726 0.53370
 N144 N 0.96111 0.07708 0.55826
 N145 N 0.94287 0.03502 0.46578
 N146 N 0.92303 0.03911 0.44129
 C147 C 0.93484 0.06551 0.42646
 C148 C 0.93470 0.06529 0.57312
 N149 N 0.96508 -0.05665 0.53337
 N150 N 0.96103 -0.07653 0.55780
 N151 N 0.94281 -0.03423 0.46559
 N152 N 0.92294 -0.03823 0.44110
 N153 N 0.96512 -0.05657 0.46553
 N154 N 0.96106 -0.07642 0.44100
 N155 N 0.94276 -0.03431 0.53343
 N156 N 0.92288 -0.03836 0.55791
 Mn157 Mn 0.94243 0.00036 0.49960
 C158 C 0.93464 -0.06477 0.57275
 C159 C 0.93468 -0.06461 0.42611
 N160 N 1.03443 0.05722 0.53373
 N161 N 1.03847 0.07708 0.55826
 N162 N 1.05680 0.03494 0.46585
 N163 N 1.07671 0.03898 0.44139
 N164 N 1.03450 0.05729 0.46589
 N165 N 1.03859 0.07717 0.44145
 N166 N 1.05675 0.03488 0.53368
 N167 N 1.07661 0.03890 0.55819
 Mn168 Mn 0.99983 0.05766 0.49980
 C169 C 1.06485 0.06529 0.57316
 C170 C 1.06498 0.06538 0.42653
 N171 N 1.03438 -0.05662 0.46558
 N172 N 1.03842 -0.07648 0.44106
 N173 N 1.05669 -0.03437 0.53348
 N174 N 1.07653 -0.03842 0.55798
 N175 N 1.03434 -0.05668 0.53342
 N176 N 1.03834 -0.07656 0.55787
 N177 N 1.05674 -0.03431 0.46564
 N178 N 1.07663 -0.03836 0.44116
 Mn179 Mn 0.99973 -0.05701 0.49947
 Mn180 Mn 1.05713 0.00029 0.49966
 Cl181 Cl 0.99978 0.00032 0.49963
 C182 C 1.06483 -0.06473 0.42618
 C183 C 1.06473 -0.06480 0.57283
 C184 C 1.15791 0.15667 0.23778
 C185 C 1.14604 0.14499 0.26155
 C186 C 1.13187 0.13116 0.28997
 C187 C 1.10921 0.14863 0.30783
 C188 C 1.09553 0.13525 0.33554
 C189 C 1.10446 0.10435 0.34550
 C190 C 1.12709 0.08686 0.32762
 C191 C 1.14077 0.10024 0.29991
 C192 C 1.09049 0.09064 0.37408
 C193 C 1.07882 0.07914 0.39803
 H194 H 1.10216 0.17255 0.30036
 H195 H 1.07806 0.14899 0.34919
 H196 H 1.13417 0.06295 0.33511
 H197 H 1.15827 0.08652 0.28629
 C198 C 0.84211 -0.15615 0.23705
 C199 C 0.85391 -0.14442 0.26086
 C200 C 0.86801 -0.13052 0.28933
 C201 C 0.89335 -0.14623 0.30501
 C202 C 0.90697 -0.13281 0.33276
 C203 C 0.89530 -0.10362 0.34494
 C204 C 0.86999 -0.08788 0.32924
 C205 C 0.85636 -0.10131 0.30149
 C206 C 0.90924 -0.08987 0.37357
 C207 C 0.92087 -0.07835 0.39756
 H208 H 0.90253 -0.16883 0.29582
 H209 H 0.92653 -0.14517 0.34472
 H210 H 0.86078 -0.06530 0.33846
 H211 H 0.83677 -0.08897 0.28956
 C212 C 0.84215 0.15608 0.76259
 C213 C 0.85395 0.14445 0.73873
 C214 C 0.86805 0.13069 0.71018
 C215 C 0.85944 0.09964 0.70030
 C216 C 0.87307 0.08634 0.67248
 C217 C 0.89535 0.10405 0.65444
 C218 C 0.90399 0.13509 0.66434
 C219 C 0.89037 0.14838 0.69216
 C220 C 0.90928 0.09041 0.62575
 C221 C 0.92091 0.07897 0.60172
 H222 H 0.84221 0.08575 0.71406
 H223 H 0.86622 0.06232 0.66504
 H224 H 0.92120 0.14899 0.65056
 H225 H 0.89719 0.17242 0.69958
 C226 C 1.15699 -0.15619 0.76177
 C227 C 1.14518 -0.14452 0.73798
 C228 C 1.13111 -0.13066 0.70953
 C229 C 1.10723 -0.14738 0.69258
 C230 C 1.09366 -0.13398 0.66484
 C231 C 1.10391 -0.10381 0.65394
 C232 C 1.12776 -0.08707 0.67092
 C233 C 1.14133 -0.10047 0.69866
 C234 C 1.09004 -0.09008 0.62533
 C235 C 1.07847 -0.07856 0.60136
 H236 H 1.09916 -0.17075 0.70077
 H237 H 1.07523 -0.14713 0.65189
 H238 H 1.13586 -0.06372 0.66271
 H239 H 1.15979 -0.08733 0.71158
 C240 C 0.23814 1.15676 1.15786
 C241 C 0.26196 1.14508 1.14613
 C242 C 0.29045 1.13119 1.13217
 C243 C 0.29021 1.12056 1.10010
 C244 C 0.31792 1.10713 1.08653
 C245 C 0.34600 1.10428 1.10497
 C246 C 0.34624 1.11491 1.13704
 C247 C 0.31852 1.12833 1.15061
 C248 C 0.37453 1.09049 1.09102
 C249 C 0.39844 1.07894 1.07935
 H250 H 0.26863 1.12267 1.08563
 H251 H 0.31748 1.09900 1.06171
 H252 H 0.36782 1.11282 1.15151
 H253 H 0.31898 1.13649 1.17542
 C254 C 0.23784 0.84309 0.84327
 C255 C 0.26163 0.85484 0.85499
 C256 C 0.29009 0.86882 0.86889
 C257 C 0.29825 0.86230 0.90099
 C258 C 0.32599 0.87579 0.91445
 C259 C 0.34569 0.89585 0.89586
 C260 C 0.33750 0.90240 0.86378
 C261 C 0.30976 0.88892 0.85032
 C262 C 0.37429 0.90964 0.90966
 C263 C 0.39826 0.92119 0.92120
 H264 H 0.28321 0.84679 0.91556
 H265 H 0.33210 0.87057 0.93928
 H266 H 0.35256 0.91788 0.84919
 H267 H 0.30368 0.89411 0.82548
 C268 C 0.76202 0.84354 1.15704
 C269 C 0.73819 0.85519 1.14533
 C270 C 0.70969 0.86904 1.13143
 C271 C 0.71227 0.89137 1.10632
 C272 C 0.68455 0.90483 1.09282
 C273 C 0.65415 0.89600 1.10439
 C274 C 0.65158 0.87365 1.12949
 C275 C 0.67930 0.86020 1.14298
 C276 C 0.62563 0.90982 1.09052
 C277 C 0.60171 0.92139 1.07893
 H278 H 0.73565 0.89837 1.09720
 H279 H 0.68681 0.92207 1.07342
 H280 H 0.62820 0.86665 1.13861
 H281 H 0.67703 0.84295 1.16239
 C282 C 0.76212 1.15609 0.84273
 C283 C 0.73831 1.14444 0.85447
 C284 C 0.70984 1.13060 0.86848
 C285 C 0.69792 1.14243 0.89778
 C286 C 0.67016 1.12909 0.91131
 C287 C 0.65420 1.10388 0.89560
 C288 C 0.66614 1.09202 0.86632
 C289 C 0.69391 1.10536 0.85278
 C290 C 0.62557 1.09023 0.90946
 C291 C 0.60159 1.07878 0.92104
 H292 H 0.71005 1.16194 0.91011
 H293 H 0.66113 1.13844 0.93396
 H294 H 0.65399 1.07253 0.85396
 H295 H 0.70291 1.09603 0.83012
 C296 C 0.15744 0.23821 0.15716
 C297 C 0.14571 0.26201 0.14552
 C298 C 0.13173 0.29048 0.13172
 C299 C 0.13549 0.32024 0.14712
 C300 C 0.12191 0.34792 0.13373
 C301 C 0.10451 0.34595 0.10489
 C302 C 0.10074 0.31619 0.08948
 C303 C 0.11433 0.28850 0.10287
 C304 C 0.09059 0.37445 0.09109
 C305 C 0.07898 0.39833 0.07951
 H306 H 0.14890 0.32204 0.16944
 H307 H 0.12497 0.37082 0.14584
 H308 H 0.08734 0.31439 0.06716
 H309 H 0.11127 0.26561 0.09076
 C310 C -0.15706 0.23745 -0.15633
 C311 C -0.14529 0.26122 -0.14457
 C312 C -0.13128 0.28965 -0.13062
 C313 C -0.14995 0.30993 -0.11117
 C314 C -0.13639 0.33766 -0.09776
 C315 C -0.10411 0.34524 -0.10375
 C316 C -0.08542 0.32493 -0.12316
 C317 C -0.09898 0.29720 -0.13657
 C318 C -0.09021 0.37384 -0.09004
 C319 C -0.07861 0.39781 -0.07855
 H320 H -0.17494 0.30432 -0.10642
 H321 H -0.15105 0.35319 -0.08278
 H322 H -0.06044 0.33056 -0.12794
 H323 H -0.08434 0.28169 -0.15159
 C324 C 0.15722 0.76153 -0.15608
 C325 C 0.14550 0.73772 -0.14444
 C326 C 0.13152 0.70925 -0.13064
 C327 C 0.11180 0.68935 -0.14943
 C328 C 0.09829 0.66161 -0.13607
 C329 C 0.10444 0.65366 -0.10385
 C330 C 0.12413 0.67357 -0.08505
 C331 C 0.13765 0.70131 -0.09842
 C332 C 0.09062 0.62507 -0.09013
 C333 C 0.07906 0.60113 -0.07863
 H334 H 0.10691 0.69526 -0.17438
 H335 H 0.08310 0.64638 -0.15082
 H336 H 0.12905 0.66764 -0.06011
 H337 H 0.15286 0.71652 -0.08367
 C338 C -0.15722 0.76213 0.15632
 C339 C -0.14545 0.73831 0.14469
 C340 C -0.13140 0.70981 0.13091
 C341 C -0.11056 0.69078 0.14931
 C342 C -0.09697 0.66303 0.13598
 C343 C -0.10417 0.65419 0.10418
 C344 C -0.12498 0.67323 0.08577
 C345 C -0.13857 0.70099 0.09911
 C346 C -0.09027 0.62557 0.09050
 C347 C -0.07867 0.60159 0.07903
 H348 H -0.10486 0.69738 0.17393
 H349 H -0.08091 0.64847 0.15043
 H350 H -0.13071 0.66662 0.06116
 H351 H -0.15466 0.71553 0.08467
 C352 C 1.15628 0.15737 0.76254
 C353 C 1.14458 0.14566 0.73867
 C354 C 1.13069 0.13172 0.71011
 C355 C 1.12665 0.09835 0.70782
 C356 C 1.11326 0.08481 0.68001
 C357 C 1.10386 0.10458 0.65438
 C358 C 1.10787 0.13795 0.65669
 C359 C 1.12126 0.15149 0.68449
 C360 C 1.09012 0.09067 0.62574
 C361 C 1.07861 0.07906 0.60173
 H362 H 1.13387 0.08284 0.72748
 H363 H 1.11026 0.05898 0.67848
 H364 H 1.10068 0.15346 0.63702
 H365 H 1.12429 0.17732 0.68601
 C366 C 0.84343 -0.15726 0.76175
 C367 C 0.85510 -0.14547 0.73793
 C368 C 0.86895 -0.13142 0.70946
 C369 C 0.85858 -0.10119 0.69884
 C370 C 0.87193 -0.08758 0.67109
 C371 C 0.89571 -0.10415 0.65384
 C372 C 0.90611 -0.13436 0.66449
 C373 C 0.89276 -0.14797 0.69224
 C374 C 0.90940 -0.09021 0.62524
 C375 C 0.92089 -0.07857 0.60127
 H376 H 0.84018 -0.08819 0.71197
 H377 H 0.86372 -0.06421 0.66307
 H378 H 0.92449 -0.14738 0.65133
 H379 H 0.90095 -0.17135 0.70023
 C380 C 1.15635 -0.15749 0.23716
 C381 C 1.14462 -0.14565 0.26096
 C382 C 1.13072 -0.13152 0.28941
 C383 C 1.10424 -0.14609 0.30431
 C384 C 1.09083 -0.13243 0.33206
 C385 C 1.10385 -0.10416 0.34502
 C386 C 1.13031 -0.08957 0.33010
 C387 C 1.14372 -0.10322 0.30235
 C388 C 1.09012 -0.09019 0.37364
 C389 C 1.07861 -0.07854 0.39763
 H390 H 1.09401 -0.16798 0.29452
 H391 H 1.07037 -0.14391 0.34341
 H392 H 1.14056 -0.06770 0.33992
 H393 H 1.16420 -0.09177 0.29103
 C394 C 0.84362 0.15798 0.23752
 C395 C 0.85532 0.14620 0.26132
 C396 C 0.86919 0.13217 0.28978
 C397 C 0.88893 0.15069 0.30992
 C398 C 0.90230 0.13710 0.33767
 C399 C 0.89597 0.10493 0.34539
 C400 C 0.87626 0.08640 0.32523
 C401 C 0.86290 0.09999 0.29749
 C402 C 0.90965 0.09099 0.37399
 C403 C 0.92113 0.07934 0.39795
 H404 H 0.89395 0.17559 0.30420
 H405 H 0.91751 0.15164 0.35308
 H406 H 0.87121 0.06151 0.33098
 H407 H 0.84766 0.08546 0.28209
 C408 C 0.15644 0.23733 -0.15715
 C409 C 0.14483 0.26114 -0.14533
 C410 C 0.13105 0.28962 -0.13125
 C411 C 0.09761 0.29373 -0.13073
 C412 C 0.08424 0.32147 -0.11714
 C413 C 0.10426 0.34522 -0.10401
 C414 C 0.13769 0.34110 -0.10450
 C415 C 0.15106 0.31336 -0.11809
 C416 C 0.09052 0.37382 -0.09013
 C417 C 0.07901 0.39779 -0.07854
 H418 H 0.08192 0.27553 -0.14084
 H419 H 0.05836 0.32441 -0.11689
 H420 H 0.15339 0.35931 -0.09442
 H421 H 0.17694 0.31044 -0.11837
 C422 C -0.15644 0.23800 0.15758
 C423 C -0.14475 0.26180 0.14587
 C424 C -0.13084 0.29025 0.13195
 C425 C -0.11633 0.31336 0.15179
 C426 C -0.10292 0.34108 0.13828
 C427 C -0.10397 0.34581 0.10487
 C428 C -0.11845 0.32269 0.08502
 C429 C -0.13186 0.29497 0.09853
 C430 C -0.09022 0.37436 0.09099
 C431 C -0.07870 0.39828 0.07938
 H432 H -0.11542 0.30996 0.17766
 H433 H -0.09178 0.35880 0.15386
 H434 H -0.11939 0.32610 0.05915
 H435 H -0.14303 0.27726 0.08296
 C436 C -0.15581 0.76130 -0.15745
 C437 C -0.14414 0.73754 -0.14569
 C438 C -0.13029 0.70912 -0.13167
 C439 C -0.13758 0.70072 -0.09980
 C440 C -0.12423 0.67302 -0.08622
 C441 C -0.10354 0.65359 -0.10445
 C442 C -0.09622 0.66201 -0.13631
 C443 C -0.10957 0.68971 -0.14989
 C444 C -0.08987 0.62504 -0.09052
 C445 C -0.07841 0.60112 -0.07888
 H446 H -0.15358 0.71555 -0.08550
 H447 H -0.13004 0.66673 -0.06156
 H448 H -0.08025 0.64716 -0.15062
 H449 H -0.10378 0.69598 -0.17455
 C450 C 0.15658 0.76224 0.15719
 C451 C 0.14491 0.73839 0.14548
 C452 C 0.13101 0.70988 0.13156
 C453 C 0.11058 0.69043 0.14998
 C454 C 0.09716 0.66265 0.13651
 C455 C 0.10414 0.65421 0.10456
 C456 C 0.12455 0.67368 0.08612
 C457 C 0.13796 0.70146 0.09959
 C458 C 0.09041 0.62558 0.09073
 C459 C 0.07890 0.60159 0.07918
 H460 H 0.10505 0.69671 0.17473
 H461 H 0.08141 0.64777 0.15098
 H462 H 0.13010 0.66738 0.06139
 H463 H 0.15374 0.71633 0.08514
 C464 C 0.23773 1.15650 0.84342
 C465 C 0.26151 1.14477 0.85513
 C466 C 0.28996 1.13082 0.86904
 C467 C 0.29992 1.14000 0.89998
 C468 C 0.32766 1.12656 0.91343
 C469 C 0.34555 1.10390 0.89599
 C470 C 0.33557 1.09469 0.86507
 C471 C 0.30783 1.10812 0.85162
 C472 C 0.37416 1.09017 0.90977
 C473 C 0.39814 1.07868 0.92129
 H474 H 0.28629 1.15753 0.91365
 H475 H 0.33517 1.13385 0.93735
 H476 H 0.34922 1.07719 0.85138
 H477 H 0.30034 1.10087 0.82768
 C478 C 0.23801 0.84300 1.15647
 C479 C 0.26183 0.85473 1.14484
 C480 C 0.29031 0.86874 1.13105
 C481 C 0.29509 0.86801 1.09763
 C482 C 0.32282 0.88156 1.08426
 C483 C 0.34590 0.89589 1.10426
 C484 C 0.34111 0.89664 1.13768
 C485 C 0.31338 0.88309 1.15105
 C486 C 0.37448 0.90974 1.09052
 C487 C 0.39843 0.92132 1.07901
 H488 H 0.27741 0.85697 1.08194
 H489 H 0.32629 0.88085 1.05838
 H490 H 0.35880 0.90766 1.15337
 H491 H 0.30993 0.88378 1.17693
 C492 C 0.76212 1.15725 1.15670
 C493 C 0.73833 1.14551 1.14499
 C494 C 0.70987 1.13151 1.13110
 C495 C 0.69164 1.10938 1.14880
 C496 C 0.66389 1.09588 1.13537
 C497 C 0.65427 1.10445 1.10418
 C498 C 0.67253 1.12654 1.08646
 C499 C 0.70027 1.14005 1.09989
 C500 C 0.62566 1.09063 1.09041
 C501 C 0.60170 1.07906 1.07890
 H502 H 0.69884 1.10262 1.17294
 H503 H 0.64995 1.07882 1.14928
 H504 H 0.66530 1.13333 1.06233
 H505 H 0.71420 1.15713 1.08600
 C506 C 0.76198 0.84348 0.84266
 C507 C 0.73820 0.85521 0.85440
 C508 C 0.70976 0.86918 0.86836
 C509 C 0.69044 0.88983 0.85006
 C510 C 0.66272 0.90329 0.86356
 C511 C 0.65419 0.89614 0.89543
 C512 C 0.67354 0.87553 0.91376
 C513 C 0.70127 0.86207 0.90025
 C514 C 0.62560 0.90990 0.90929
 C515 C 0.60165 0.92141 0.92088
 H516 H 0.69679 0.89548 0.82538
 H517 H 0.64793 0.91920 0.84919
 H518 H 0.66717 0.86985 0.93842
 H519 H 0.71603 0.84613 0.91461
   
