data_POSCAR
  _audit_creation_date              2014-09-24
  _audit_creation_method            'ToBaCCo'
  _symmetry_space_group_name_H-M    'P1'
  _symmetry_Int_Tables_number       1
  _symmetry_cell_setting            triclinic
  loop_
  _symmetry_equiv_pos_as_xyz
 x,y,z
_cell_length_a 51.3291
_cell_length_b 51.2529
_cell_length_c 51.2605
_cell_angle_alpha 94.315100
_cell_angle_beta 93.594300
_cell_angle_gamma 93.731800
loop_
  _atom_site_label
  _atom_site_type_symbol
  _atom_site_fract_x
  _atom_site_fract_y
  _atom_site_fract_z
C1 C 0.21124 0.50548 1.04420
 H2 H 0.21183 0.51956 1.02950
 C3 C 0.19292 0.50704 1.06314
 H4 H 0.17945 0.52247 1.06310
 C5 C 0.22728 0.46745 1.06138
 H6 H 0.24024 0.45168 1.06016
 C7 C 0.20920 0.46825 1.08069
 H8 H 0.20847 0.45320 1.09444
 N9 N 0.22789 0.48589 1.04361
 C10 C 0.29027 0.51389 0.99677
 H11 H 0.28940 0.49770 0.98186
 C12 C 0.30934 0.53453 0.99662
 H13 H 0.32317 0.53433 0.98150
 C14 C 0.27382 0.53356 1.03520
 H15 H 0.26030 0.53281 1.05048
 C16 C 0.29266 0.55463 1.03579
 H17 H 0.29347 0.57018 1.05141
 Zn18 Zn 0.24942 0.48375 1.01505
 N19 N 0.27295 0.51380 1.01579
 C20 C 0.22767 0.49976 0.96690
 N21 N 0.22674 0.48094 0.98427
 C22 C 0.20792 0.46078 0.98143
 C23 C 0.18890 0.45909 0.96055
 C24 C 0.20901 0.49879 0.94574
 C25 C 0.28823 0.45497 1.03684
 C26 C 0.30641 0.43590 1.03751
 C27 C 0.28688 0.41625 0.99591
 C28 C 0.26900 0.43570 0.99602
 N29 N 0.27014 0.45466 1.01623
 H30 H 0.24231 0.51601 0.96986
 H31 H 0.20734 0.44640 0.99582
 H32 H 0.17365 0.44329 0.95876
 H33 H 0.20950 0.51416 0.93234
 H34 H 0.28901 0.47059 1.05235
 H35 H 0.32119 0.43673 1.05365
 H36 H 0.28638 0.40167 0.97942
 H37 H 0.25494 0.43619 0.97951
 C38 C 0.31062 0.55503 1.01635
 C39 C 0.19172 0.48812 1.08142
 C40 C 0.30593 0.41657 1.01670
 C41 C 0.18932 0.47841 0.94270
 C42 C 0.78890 0.53707 -0.04413
 H43 H 0.78978 0.55252 -0.02844
 C44 C 0.80707 0.53778 -0.06325
 H45 H 0.82193 0.55388 -0.06240
 C46 C 0.76947 0.49635 -0.06352
 H47 H 0.75533 0.47986 -0.06306
 C48 C 0.78732 0.49629 -0.08303
 H49 H 0.78673 0.47985 -0.09769
 N50 N 0.77072 0.51649 -0.04448
 C51 C 0.71202 0.54438 0.00668
 H52 H 0.71256 0.52961 0.02068
 C53 C 0.69377 0.56334 0.00836
 H54 H 0.68028 0.56330 0.02378
 C55 C 0.72809 0.56170 -0.03132
 H56 H 0.74102 0.56052 -0.04714
 C57 C 0.71007 0.58102 -0.03038
 H58 H 0.70932 0.59484 -0.04534
 Zn59 Zn 0.75003 0.51522 -0.01533
 N60 N 0.72865 0.54384 -0.01296
 C61 C 0.77457 0.53507 0.03448
 N62 N 0.77357 0.51575 0.01462
 C63 C 0.79079 0.49666 0.01455
 C64 C 0.80987 0.49636 0.03511
 C65 C 0.79342 0.53551 0.05546
 C66 C 0.70837 0.48181 -0.03833
 C67 C 0.68925 0.46097 -0.04008
 C68 C 0.70929 0.44587 -0.00055
 C69 C 0.72805 0.46699 0.00048
 N70 N 0.72720 0.48448 -0.01822
 H71 H 0.76112 0.55041 0.03386
 H72 H 0.78982 0.48181 -0.00171
 H73 H 0.82361 0.48119 0.03477
 H74 H 0.79432 0.55106 0.07109
 H75 H 0.70786 0.49629 -0.05262
 H76 H 0.67399 0.45930 -0.05583
 H77 H 0.70971 0.43237 0.01473
 H78 H 0.74271 0.46983 0.01668
 C79 C 0.69263 0.58168 -0.01047
 C80 C 0.80647 0.51704 -0.08268
 C81 C 0.68958 0.44299 -0.02088
 C82 C 0.81126 0.51600 0.05569
 C83 C -0.00578 0.28774 0.45249
 H84 H -0.01992 0.28719 0.46727
 C85 C -0.00728 0.30599 0.43368
 H86 H -0.02272 0.31944 0.43391
 C87 C 0.03235 0.27171 0.43499
 H88 H 0.04813 0.25879 0.43604
 C89 C 0.03161 0.28972 0.41581
 H90 H 0.04673 0.29044 0.40199
 N91 N 0.01383 0.27114 0.45287
 C92 C -0.01406 0.20898 0.49974
 H93 H 0.00209 0.21001 0.51448
 C94 C -0.03464 0.18988 0.50006
 H95 H -0.03443 0.17617 0.51516
 C96 C -0.03369 0.22509 0.46157
 H97 H -0.03295 0.23851 0.44632
 C98 C -0.05470 0.20622 0.46117
 H99 H -0.07022 0.20528 0.44573
 Zn100 Zn 0.01592 0.24985 0.48135
 N101 N -0.01398 0.22617 0.48077
 C102 C -0.00035 0.27195 0.52974
 N103 N 0.01848 0.27285 0.51219
 C104 C 0.03851 0.29180 0.51495
 C105 C 0.04009 0.31098 0.53594
 C106 C 0.00051 0.29077 0.55102
 C107 C 0.04499 0.21087 0.45932
 C108 C 0.06409 0.19270 0.45859
 C109 C 0.08330 0.21280 0.50013
 C110 C 0.06383 0.23064 0.50009
 N111 N 0.04507 0.22921 0.47995
 H112 H -0.01648 0.25720 0.52685
 H113 H 0.05291 0.29235 0.50042
 H114 H 0.05580 0.32631 0.53769
 H115 H -0.01485 0.29028 0.56458
 H116 H 0.02952 0.20985 0.44386
 H117 H 0.06344 0.17770 0.44245
 H118 H 0.09771 0.21352 0.51659
 H119 H 0.06315 0.24490 0.51661
 C120 C -0.05509 0.18843 0.48057
 C121 C 0.01172 0.30717 0.41532
 C122 C 0.08321 0.19347 0.47934
 C123 C 0.02078 0.31057 0.55400
 C124 C 0.96280 0.71190 0.54772
 H125 H 0.94741 0.71096 0.53219
 C126 C 0.96203 0.69382 0.56675
 H127 H 0.94593 0.67896 0.56598
 C128 C 1.00345 0.73139 0.56678
 H129 H 1.01993 0.74550 0.56621
 C130 C 1.00345 0.71362 0.58618
 H131 H 1.01984 0.71425 0.60064
 N132 N 0.98338 0.73005 0.54794
 C133 C 0.95593 0.78843 0.49713
 H134 H 0.97076 0.78772 0.48304
 C135 C 0.93700 0.80668 0.49554
 H136 H 0.93714 0.82001 0.48010
 C137 C 0.93834 0.77275 0.53519
 H138 H 0.93938 0.75996 0.55099
 C139 C 0.91905 0.79079 0.53434
 H140 H 0.90511 0.79170 0.54935
 Zn141 Zn 0.98479 0.75050 0.51882
 N142 N 0.95630 0.77198 0.51674
 C143 C 0.96508 0.72555 0.46909
 N144 N 0.98428 0.72662 0.48879
 C145 C 1.00327 0.70930 0.48862
 C146 C 1.00361 0.69005 0.46793
 C147 C 0.96469 0.70654 0.44798
 C148 C 1.01822 0.79237 0.54159
 C149 C 1.03902 0.81152 0.54310
 C150 C 1.05404 0.79096 0.50333
 C151 C 1.03296 0.77219 0.50253
 N152 N 1.01551 0.77329 0.52146
 H153 H 0.94982 0.73908 0.46990
 H154 H 1.01801 0.71033 0.50476
 H155 H 1.01872 0.67624 0.46805
 H156 H 0.94926 0.70560 0.43246
 H157 H 1.00377 0.79308 0.55607
 H158 H 1.04070 0.82698 0.55885
 H159 H 1.06749 0.79033 0.48786
 H160 H 1.03011 0.75734 0.48633
 C161 C 0.91854 0.80802 0.51443
 C162 C 0.98270 0.69447 0.58593
 C163 C 1.05694 0.81093 0.52365
 C164 C 0.98411 0.68861 0.44747
 C165 C 0.45640 -0.00293 0.28836
 H166 H 0.47120 -0.01701 0.28765
 C167 C 0.43744 -0.00449 0.30662
 H168 H 0.43753 -0.01991 0.31997
 C169 C 0.43892 0.03512 0.27264
 H170 H 0.44001 0.05090 0.25983
 C171 C 0.41960 0.03429 0.29069
 H172 H 0.40570 0.04930 0.29159
 N173 N 0.45684 0.01667 0.27188
 C174 C 0.50376 -0.01155 0.20914
 H175 H 0.51854 0.00461 0.21013
 C176 C 0.50406 -0.03225 0.18990
 H177 H 0.51920 -0.03207 0.17608
 C178 C 0.46554 -0.03107 0.22550
 H179 H 0.45029 -0.03023 0.23907
 C180 C 0.46509 -0.05220 0.20650
 H181 H 0.44958 -0.06770 0.20567
 Zn182 Zn 0.48534 0.01872 0.25034
 N183 N 0.48478 -0.01136 0.22650
 C184 C 0.53347 0.00248 0.27196
 N185 N 0.51606 0.02141 0.27307
 C186 C 0.51880 0.04156 0.29211
 C187 C 0.53959 0.04311 0.31122
 C188 C 0.55455 0.00330 0.29069
 C189 C 0.46341 0.04753 0.21174
 C190 C 0.46264 0.06654 0.19366
 C191 C 0.50407 0.08607 0.21335
 C192 C 0.50406 0.06668 0.23113
 N193 N 0.48399 0.04780 0.22985
 H194 H 0.53059 -0.01375 0.25714
 H195 H 0.50438 0.05604 0.29283
 H196 H 0.54130 0.05889 0.32665
 H197 H 0.56796 -0.01217 0.29007
 H198 H 0.44801 0.03197 0.21084
 H199 H 0.44654 0.06573 0.17884
 H200 H 0.52046 0.10057 0.21393
 H201 H 0.52054 0.06615 0.24521
 C202 C 0.48450 -0.05273 0.18850
 C203 C 0.41902 0.01440 0.30795
 C204 C 0.48332 0.08578 0.19425
 C205 C 0.55747 0.02366 0.31063
 C206 C 0.54440 -0.04053 0.71040
 H207 H 0.52890 -0.05600 0.70940
 C208 C 0.56353 -0.04126 0.69222
 H209 H 0.56286 -0.05740 0.67722
 C210 C 0.56331 0.00025 0.73016
 H211 H 0.56266 0.01677 0.74442
 C212 C 0.58281 0.00029 0.71231
 H213 H 0.59726 0.01675 0.71302
 N214 N 0.54450 -0.01990 0.72874
 C215 C 0.49353 -0.04737 0.78733
 H216 H 0.47943 -0.03259 0.78681
 C217 C 0.49200 -0.06618 0.80558
 H218 H 0.47659 -0.06600 0.81909
 C219 C 0.53164 -0.06487 0.77125
 H220 H 0.54744 -0.06382 0.75832
 C221 C 0.53085 -0.08405 0.78927
 H222 H 0.54591 -0.09787 0.79003
 Zn223 Zn 0.51534 -0.01850 0.74942
 N224 N 0.51317 -0.04699 0.77071
 C225 C 0.46571 -0.03827 0.72475
 N226 N 0.48546 -0.01907 0.72579
 C227 C 0.48546 -0.00011 0.70860
 C228 C 0.46490 0.00022 0.68953
 C229 C 0.44472 -0.03867 0.70591
 C230 C 0.53797 0.01511 0.79133
 C231 C 0.53958 0.03611 0.81050
 C232 C 0.50005 0.05120 0.79036
 C233 C 0.49917 0.02991 0.77155
 N234 N 0.51795 0.01235 0.77241
 H235 H 0.46639 -0.05352 0.73817
 H236 H 0.50164 0.01463 0.70960
 H237 H 0.46517 0.01532 0.67583
 H238 H 0.42915 -0.05409 0.70500
 H239 H 0.55232 0.00058 0.79186
 H240 H 0.55528 0.03786 0.82581
 H241 H 0.48473 0.06476 0.78989
 H242 H 0.48304 0.02702 0.75682
 C243 C 0.51096 -0.08452 0.80673
 C244 C 0.58270 -0.02050 0.69298
 C245 C 0.52031 0.05418 0.81013
 C246 C 0.44440 -0.01926 0.68812
 C247 C 0.21998 -0.02235 0.50634
 C248 C 0.23533 0.00001 0.50085
 C249 C 0.22330 0.02317 0.49600
 C250 C 0.19616 0.02402 0.49692
 C251 C 0.18093 0.00159 0.50212
 C252 C 0.19278 -0.02163 0.50668
 C253 C 0.26392 -0.00085 0.50017
 C254 C 0.27611 0.00332 0.47691
 C255 C 0.30325 0.00222 0.47622
 C256 C 0.31831 -0.00246 0.49889
 C257 C 0.30630 -0.00634 0.52219
 C258 C 0.27910 -0.00583 0.52277
 H259 H 0.22916 -0.04034 0.50986
 H260 H 0.23510 0.04054 0.49194
 H261 H 0.26445 0.00698 0.45936
 H262 H 0.26980 -0.00882 0.54083
 H263 H 0.15987 0.00219 0.50257
 H264 H 0.33936 -0.00304 0.49841
 C265 C 0.77613 -0.02295 0.50302
 C266 C 0.76401 0.00031 0.49882
 C267 C 0.77926 0.02292 0.49384
 C268 C 0.80646 0.02234 0.49336
 C269 C 0.81840 -0.00097 0.49727
 C270 C 0.80327 -0.02364 0.50195
 C271 C 0.73542 0.00100 0.49965
 C272 C 0.72330 -0.00386 0.52279
 C273 C 0.69616 -0.00293 0.52362
 C274 C 0.68101 0.00226 0.50117
 C275 C 0.69295 0.00682 0.47797
 C276 C 0.72016 0.00649 0.47728
 H277 H 0.76442 -0.04050 0.50668
 H278 H 0.77001 0.04099 0.49083
 H279 H 0.73503 -0.00792 0.54016
 H280 H 0.72940 0.01001 0.45930
 H281 H 0.83946 -0.00145 0.49671
 H282 H 0.65995 0.00271 0.50175
 C283 C 0.52250 0.27957 0.99358
 C284 C 0.49996 0.26426 0.99863
 C285 C 0.47663 0.27632 1.00283
 C286 C 0.47579 0.30347 1.00170
 C287 C 0.49840 0.31868 0.99695
 C288 C 0.52178 0.30679 0.99303
 C289 C 0.50082 0.23568 0.99957
 C290 C 0.49666 0.22400 1.02301
 C291 C 0.49776 0.19686 1.02395
 C292 C 0.50243 0.18128 1.00133
 C293 C 0.50630 0.19279 0.97784
 C294 C 0.50579 0.22000 0.97702
 H295 H 0.54062 0.27036 0.99056
 H296 H 0.45914 0.26454 1.00657
 H297 H 0.49300 0.23607 1.04052
 H298 H 0.50878 0.22892 0.95882
 H299 H 0.49781 0.33974 0.99636
 H300 H 0.50300 0.16021 1.00200
 C301 C 0.52305 0.72382 -0.00159
 C302 C 0.49961 0.73591 0.00195
 C303 C 0.47682 0.72065 0.00631
 C304 C 0.47741 0.69341 0.00685
 C305 C 0.50088 0.68148 0.00360
 C306 C 0.52372 0.69665 -0.00048
 C307 C 0.49893 0.76449 0.00107
 C308 C 0.50250 0.77612 -0.02251
 C309 C 0.50155 0.80328 -0.02338
 C310 C 0.49760 0.81892 -0.00058
 C311 C 0.49431 0.80746 0.02304
 C312 C 0.49468 0.78023 0.02381
 H313 H 0.54072 0.73558 -0.00480
 H314 H 0.45865 0.72990 0.00883
 H315 H 0.50561 0.76399 -0.04016
 H316 H 0.49212 0.77133 0.04210
 H317 H 0.50136 0.66040 0.00419
 H318 H 0.49712 0.83999 -0.00120
 C319 C 0.99530 0.52239 0.27998
 C320 C 0.99966 0.49963 0.26432
 C321 C 1.00334 0.47613 0.27603
 C322 C 1.00239 0.47535 0.30321
 C323 C 0.99832 0.49818 0.31876
 C324 C 0.99491 0.52172 0.30721
 C325 C 1.00030 0.50041 0.23572
 C326 C 1.02367 0.49675 0.22352
 C327 C 1.02431 0.49780 0.19635
 C328 C 1.00147 0.50194 0.18128
 C329 C 0.97806 0.50532 0.19331
 C330 C 0.97752 0.50484 0.22055
 H331 H 0.99264 0.54062 0.27101
 H332 H 1.00652 0.45847 0.26397
 H333 H 1.04134 0.49350 0.23521
 H334 H 0.95939 0.50747 0.22988
 H335 H 0.99782 0.49762 0.33984
 H336 H 1.00191 0.50251 0.16019
 C337 C -0.00327 0.52322 0.72401
 C338 C 0.00100 0.49979 0.73566
 C339 C 0.00603 0.47728 0.71994
 C340 C 0.00649 0.47813 0.69273
 C341 C 0.00251 0.50161 0.68126
 C342 C -0.00222 0.52418 0.69687
 C343 C 0.00017 0.49881 0.76424
 C344 C -0.02312 0.50308 0.77639
 C345 C -0.02395 0.50190 0.80353
 C346 C -0.00137 0.49703 0.81865
 C347 C 0.02197 0.49304 0.80667
 C348 C 0.02268 0.49364 0.77946
 H349 H -0.00698 0.54069 0.73610
 H350 H 0.00909 0.45909 0.72883
 H351 H -0.04059 0.50691 0.76469
 H352 H 0.04076 0.49057 0.77018
 H353 H 0.00305 0.50230 0.66019
 H354 H -0.00196 0.49639 0.83971
 C355 C 0.15566 0.10620 0.46277
 C356 C 0.12592 0.10689 0.46619
 C357 C 0.13127 0.13274 0.48346
 C358 C 0.16078 0.13247 0.48002
 C359 C 0.15843 0.09128 0.48758
 C360 C 0.16380 0.11713 0.50487
 C361 C 0.12893 0.09164 0.49101
 C362 C 0.13408 0.11779 0.50825
 C363 C 0.11525 0.15524 0.48156
 C364 C 0.10114 0.17307 0.48037
 C365 C 0.17275 0.06773 0.49034
 C366 C 0.18379 0.04797 0.49308
 H367 H 0.16470 0.10116 0.44410
 H368 H 0.11017 0.10292 0.45026
 H369 H 0.17368 0.14953 0.47547
 H370 H 0.17955 0.12107 0.52080
 H371 H 0.11598 0.07461 0.49556
 H372 H 0.12504 0.12278 0.52693
 C373 C 0.61424 0.66421 -0.02327
 C374 C 0.63344 0.65993 0.00039
 C375 C 0.63244 0.63060 -0.00867
 C376 C 0.61365 0.63460 -0.03234
 C377 C 0.59117 0.65833 -0.00642
 C378 C 0.59023 0.62900 -0.01548
 C379 C 0.60996 0.65432 0.01724
 C380 C 0.60933 0.62479 0.00815
 C381 C 0.65478 0.61425 -0.00962
 C382 C 0.67245 0.59989 -0.01013
 C383 C 0.56765 0.67294 -0.00480
 C384 C 0.54784 0.68415 -0.00306
 H385 H 0.61598 0.68059 -0.03618
 H386 H 0.65148 0.67246 0.00690
 H387 H 0.61542 0.62632 -0.05274
 H388 H 0.57222 0.61643 -0.02199
 H389 H 0.60819 0.66259 0.03764
 H390 H 0.60753 0.60842 0.02107
 C391 C 0.84281 -0.11235 0.48701
 C392 C 0.87290 -0.11129 0.49227
 C393 C 0.86947 -0.13195 0.51224
 C394 C 0.83959 -0.13337 0.50702
 C395 C 0.84166 -0.09080 0.50935
 C396 C 0.83817 -0.11141 0.52935
 C397 C 0.87154 -0.08945 0.51456
 C398 C 0.86832 -0.11039 0.53458
 C399 C 0.88587 -0.15423 0.51345
 C400 C 0.90028 -0.17185 0.51408
 C401 C 0.82702 -0.06736 0.50729
 C402 C 0.81579 -0.04763 0.50512
 H403 H 0.83216 -0.11290 0.46743
 H404 H 0.88735 -0.11147 0.47703
 H405 H 0.82664 -0.15170 0.50394
 H406 H 0.82372 -0.11117 0.54457
 H407 H 0.88453 -0.07115 0.51764
 H408 H 0.87899 -0.10984 0.55415
 C409 C 0.40274 0.36473 0.99357
 C410 C 0.37409 0.35338 0.98779
 C411 C 0.36670 0.36846 1.01300
 C412 C 0.39504 0.38001 1.01878
 C413 C 0.40827 0.34129 1.00957
 C414 C 0.40088 0.35637 1.03478
 C415 C 0.37995 0.32968 1.00377
 C416 C 0.37217 0.34503 1.02904
 C417 C 0.34417 0.38449 1.01462
 C418 C 0.32633 0.39862 1.01569
 C419 C 0.43189 0.32694 1.00727
 C420 C 0.45172 0.31588 1.00496
 H421 H 0.41555 0.37269 0.97896
 H422 H 0.36282 0.35232 0.96849
 H423 H 0.40101 0.40087 1.02497
 H424 H 0.41216 0.35744 1.05407
 H425 H 0.37403 0.30880 0.99758
 H426 H 0.35932 0.33711 1.04364
 C427 C 0.85150 0.10862 0.46474
 C428 C 0.85910 0.13051 0.48701
 C429 C 0.88803 0.12845 0.48164
 C430 C 0.88077 0.10696 0.45936
 C431 C 0.85444 0.08798 0.48477
 C432 C 0.88338 0.08597 0.47940
 C433 C 0.86172 0.10948 0.50704
 C434 C 0.89091 0.10776 0.50163
 C435 C 0.90747 0.15049 0.48052
 C436 C 0.92418 0.16809 0.48022
 C437 C 0.83646 0.06502 0.48712
 C438 C 0.82241 0.04574 0.48965
 H439 H 0.83507 0.10870 0.44960
 H440 H 0.84934 0.14909 0.49012
 H441 H 0.88882 0.10617 0.43973
 H442 H 0.89319 0.06742 0.47629
 H443 H 0.85369 0.11027 0.52667
 H444 H 0.90731 0.10763 0.51679
 C445 C 0.39143 0.63681 -0.00917
 C446 C 0.39283 0.60802 -0.00231
 C447 C 0.37077 0.61186 0.01624
 C448 C 0.36902 0.64040 0.00940
 C449 C 0.41143 0.64541 0.01393
 C450 C 0.38940 0.64931 0.03251
 C451 C 0.41313 0.61687 0.02077
 C452 C 0.39076 0.62044 0.03936
 C453 C 0.34864 0.59245 0.01696
 C454 C 0.33099 0.57576 0.01698
 C455 C 0.43450 0.66337 0.01208
 C456 C 0.45388 0.67744 0.00999
 H457 H 0.39196 0.64373 -0.02915
 H458 H 0.39402 0.59085 -0.01662
 H459 H 0.35062 0.64985 0.00474
 H460 H 0.38827 0.66651 0.04680
 H461 H 0.43150 0.60737 0.02542
 H462 H 0.39022 0.61350 0.05933
 C463 C 0.14181 -0.10076 0.54221
 C464 C 0.11170 -0.10133 0.53692
 C465 C 0.11222 -0.12788 0.52098
 C466 C 0.14203 -0.12772 0.52630
 C467 C 0.14512 -0.08709 0.51684
 C468 C 0.14565 -0.11364 0.50090
 C469 C 0.11531 -0.08732 0.51154
 C470 C 0.11558 -0.11417 0.49564
 C471 C 0.09327 -0.15022 0.52266
 C472 C 0.07704 -0.16818 0.52344
 C473 C 0.16283 -0.06406 0.51393
 C474 C 0.17679 -0.04484 0.51094
 H475 H 0.15280 -0.09498 0.56133
 H476 H 0.09753 -0.09651 0.55175
 H477 H 0.15279 -0.14459 0.53239
 H478 H 0.15981 -0.11844 0.48605
 H479 H 0.10450 -0.07047 0.50543
 H480 H 0.10460 -0.11992 0.47650
 C481 C 0.58609 0.38393 0.98088
 C482 C 0.60881 0.38990 1.00221
 C483 C 0.62841 0.38752 0.98084
 C484 C 0.60600 0.38181 0.95946
 C485 C 0.58754 0.35451 0.98420
 C486 C 0.60710 0.35207 0.96281
 C487 C 0.60996 0.36023 1.00558
 C488 C 0.62992 0.35810 0.98417
 C489 C 0.65077 0.40654 0.97955
 C490 C 0.66872 0.42282 0.97905
 C491 C 0.56444 0.33676 0.98665
 C492 C 0.54513 0.32278 0.98926
 H493 H 0.56783 0.39437 0.97955
 H494 H 0.60975 0.40565 1.01841
 H495 H 0.60462 0.39089 0.94048
 H496 H 0.60612 0.33630 0.94663
 H497 H 0.61134 0.35117 1.02457
 H498 H 0.64820 0.34770 0.98551
 C499 C 0.49059 0.17253 1.12003
 C500 C 0.46728 0.15318 1.12516
 C501 C 0.48682 0.13338 1.13348
 C502 C 0.51008 0.15246 1.12874
 C503 C 0.49011 0.16005 1.09178
 C504 C 0.50962 0.14024 1.10014
 C505 C 0.46687 0.14096 1.09652
 C506 C 0.48636 0.12097 1.10520
 C507 C 0.48528 0.11758 1.15605
 C508 C 0.48426 0.10360 1.17390
 C509 C 0.49233 0.17407 1.06806
 C510 C 0.49457 0.18483 1.04813
 H511 H 0.49234 0.19391 1.12583
 H512 H 0.44986 0.15833 1.13572
 H513 H 0.52782 0.15703 1.14224
 H514 H 0.52704 0.13505 1.08961
 H515 H 0.44912 0.13638 1.08302
 H516 H 0.48461 0.09960 1.09933
 C517 C 0.01319 0.60701 0.64939
 C518 C -0.00302 0.60786 0.62302
 C519 C -0.01365 0.63368 0.63349
 C520 C 0.00254 0.63318 0.65967
 C521 C -0.01018 0.59198 0.66012
 C522 C -0.02083 0.61777 0.67066
 C523 C -0.02635 0.59253 0.63394
 C524 C -0.03704 0.61867 0.64421
 C525 C -0.01527 0.65626 0.61771
 C526 C -0.01633 0.67411 0.60375
 C527 C -0.00785 0.56827 0.67412
 C528 C -0.00552 0.54836 0.68487
 H529 H 0.03387 0.60196 0.65166
 H530 H 0.00430 0.60401 0.60327
 H531 H 0.01439 0.65015 0.67008
 H532 H -0.02813 0.62155 0.69043
 H533 H -0.03820 0.57557 0.62350
 H534 H -0.05772 0.62374 0.64191
 C535 C 0.48349 0.84585 -0.10903
 C536 C 0.49429 0.87478 -0.10881
 C537 C 0.50954 0.86736 -0.13282
 C538 C 0.49876 0.83863 -0.13340
 C539 C 0.50742 0.84033 -0.09127
 C540 C 0.52270 0.83285 -0.11524
 C541 C 0.51818 0.86906 -0.09075
 C542 C 0.53348 0.86185 -0.11506
 C543 C 0.51039 0.88337 -0.15529
 C544 C 0.51079 0.89750 -0.17303
 C545 C 0.50585 0.82615 -0.06760
 C546 C 0.50413 0.81531 -0.04765
 H547 H 0.46292 0.83913 -0.10629
 H548 H 0.48261 0.89218 -0.10639
 H549 H 0.49079 0.82631 -0.15121
 H550 H 0.53436 0.81544 -0.11760
 H551 H 0.52615 0.88143 -0.07297
 H552 H 0.55405 0.86860 -0.11781
 C553 C 1.01826 0.40851 0.36956
 C554 C 0.99447 0.38993 0.37465
 C555 C 1.01045 0.36631 0.36786
 C556 C 1.03428 0.38459 0.36298
 C557 C 1.00835 0.40768 0.34057
 C558 C 1.02436 0.38410 0.33372
 C559 C 0.98453 0.38939 0.34547
 C560 C 1.00053 0.36541 0.33888
 C561 C 1.01126 0.34395 0.38401
 C562 C 1.01161 0.32630 0.39826
 C563 C 1.00677 0.43126 0.32626
 C564 C 1.00503 0.45115 0.31532
 H565 H 1.02553 0.42647 0.38203
 H566 H 0.98218 0.39210 0.39164
 H567 H 1.05475 0.38235 0.37035
 H568 H 1.03663 0.38198 0.31671
 H569 H 0.96405 0.39162 0.33812
 H570 H 0.99326 0.34742 0.32645
 C571 C 0.48244 0.88575 0.08692
 C572 C 0.46252 0.88370 0.10827
 C573 C 0.48494 0.89088 0.12939
 C574 C 0.50482 0.89321 0.10834
 C575 C 0.48731 0.85668 0.08884
 C576 C 0.50972 0.86388 0.10997
 C577 C 0.46741 0.85429 0.10986
 C578 C 0.48982 0.86182 0.13138
 C579 C 0.48417 0.91061 0.15148
 C580 C 0.48407 0.92752 0.16913
 C581 C 0.48917 0.83832 0.06583
 C582 C 0.49123 0.82389 0.04651
 H583 H 0.47943 0.89541 0.06839
 H584 H 0.44310 0.89206 0.10782
 H585 H 0.52019 0.90941 0.10795
 H586 H 0.52915 0.85553 0.11042
 H587 H 0.45205 0.83807 0.11020
 H588 H 0.49284 0.85221 0.14992
 C589 C 0.01519 0.41369 0.61405
 C590 C 0.03840 0.39586 0.61356
 C591 C 0.01881 0.37169 0.61028
 C592 C -0.00436 0.38921 0.61050
 C593 C 0.01537 0.41248 0.64392
 C594 C -0.00423 0.38831 0.64063
 C595 C 0.03856 0.39499 0.64374
 C596 C 0.01898 0.37042 0.64014
 C597 C 0.02016 0.34936 0.59093
 C598 C 0.02073 0.33143 0.57441
 C599 C 0.01288 0.43554 0.66204
 C600 C 0.01027 0.45482 0.67634
 H601 H 0.01361 0.43173 0.60351
 H602 H 0.05596 0.39872 0.60223
 H603 H -0.02201 0.38661 0.59664
 H604 H -0.02179 0.38546 0.65197
 H605 H 0.05619 0.39764 0.65763
 H606 H 0.02056 0.35236 0.65064
 C607 C 0.49521 0.14047 0.88817
 C608 C 0.51822 0.14029 0.86997
 C609 C 0.51843 0.11045 0.87126
 C610 C 0.49547 0.11037 0.88911
 C611 C 0.51505 0.14405 0.91210
 C612 C 0.51527 0.11420 0.91334
 C613 C 0.53804 0.14418 0.89430
 C614 C 0.53827 0.11402 0.89519
 C615 C 0.51975 0.09111 0.84892
 C616 C 0.52029 0.07459 0.83099
 C617 C 0.51261 0.16215 0.93519
 C618 C 0.51003 0.17643 0.95449
 H619 H 0.47748 0.15155 0.88554
 H620 H 0.51945 0.15078 0.85187
 H621 H 0.47797 0.09627 0.88674
 H622 H 0.51403 0.10367 0.93141
 H623 H 0.55552 0.15830 0.89670
 H624 H 0.55600 0.10294 0.89783
 C625 C 1.00290 0.61421 0.35510
 C626 C 0.97769 0.62822 0.36062
 C627 C 0.98487 0.62827 0.39018
 C628 C 1.01003 0.61463 0.38494
 C629 C 0.98751 0.58762 0.35615
 C630 C 0.99467 0.58774 0.38572
 C631 C 0.96232 0.60122 0.36135
 C632 C 0.96949 0.60167 0.39122
 C633 C 0.98395 0.65042 0.40981
 C634 C 0.98374 0.66812 0.42664
 C635 C 0.98951 0.56456 0.33789
 C636 C 0.99169 0.54521 0.32355
 H637 H 1.01665 0.61911 0.34003
 H638 H 0.97070 0.64514 0.35054
 H639 H 1.02964 0.62038 0.39484
 H640 H 1.00168 0.57086 0.39586
 H641 H 0.94273 0.59544 0.35143
 H642 H 0.95574 0.59674 0.40627
 C643 C 1.09046 0.48344 0.12818
 C644 C 1.10996 0.50696 0.12446
 C645 C 1.13274 0.48962 0.12966
 C646 C 1.11355 0.46605 0.13317
 C647 C 1.09159 0.49178 0.15767
 C648 C 1.11433 0.47441 0.16294
 C649 C 1.11078 0.51534 0.15416
 C650 C 1.13393 0.49797 0.15916
 C651 C 1.15500 0.48875 0.11317
 C652 C 1.17261 0.48833 0.09868
 C653 C 1.06814 0.49339 0.17242
 C654 C 1.04837 0.49515 0.18374
 H655 H 1.07235 0.47748 0.11558
 H656 H 1.10838 0.52035 0.10847
 H657 H 1.11494 0.44578 0.12436
 H658 H 1.11585 0.46104 0.17894
 H659 H 1.10939 0.53562 0.16295
 H660 H 1.15207 0.50393 0.17171
 C661 C 0.66782 -0.00145 0.61877
 C662 C 0.64082 0.00973 0.62227
 C663 C 0.63091 -0.01639 0.63226
 C664 C 0.65766 -0.02764 0.62914
 C665 C 0.65818 -0.01228 0.59082
 C666 C 0.64828 -0.03841 0.60078
 C667 C 0.63143 -0.00106 0.59401
 C668 C 0.62131 -0.02720 0.60429
 C669 C 0.61482 -0.01829 0.65475
 C670 C 0.60067 -0.01948 0.67258
 C671 C 0.67258 -0.00952 0.56728
 C672 C 0.68369 -0.00678 0.54754
 H673 H 0.68713 0.00917 0.62444
 H674 H 0.63759 0.02951 0.63135
 H675 H 0.66826 -0.03858 0.64386
 H676 H 0.65151 -0.05818 0.59168
 H677 H 0.62078 0.00989 0.57932
 H678 H 0.60201 -0.03781 0.59858
 C679 C -0.11897 0.49828 0.83204
 C680 C -0.12199 0.48744 0.85919
 C681 C -0.13286 0.51337 0.86897
 C682 C -0.13022 0.52428 0.84208
 C683 C -0.09137 0.50989 0.84162
 C684 C -0.10221 0.53584 0.85139
 C685 C -0.09407 0.49901 0.86851
 C686 C -0.10524 0.52496 0.87850
 C687 C -0.15535 0.51499 0.88510
 C688 C -0.17316 0.51606 0.89930
 C689 C -0.06778 0.50756 0.82717
 C690 C -0.04798 0.50522 0.81603
 H691 H -0.12433 0.48728 0.81276
 H692 H -0.13037 0.46755 0.86256
 H693 H -0.14536 0.53467 0.83140
 H694 H -0.09381 0.55571 0.84803
 H695 H -0.07897 0.48861 0.87924
 H696 H -0.09983 0.53595 0.89778
 C697 C 0.33887 0.02983 0.38874
 C698 C 0.36908 0.03449 0.38976
 C699 C 0.36980 0.01231 0.36797
 C700 C 0.33985 0.00766 0.36654
 C701 C 0.34185 0.00950 0.40909
 C702 C 0.34257 -0.01267 0.38729
 C703 C 0.37179 0.01415 0.41044
 C704 C 0.37272 -0.00798 0.38835
 C705 C 0.38626 0.01348 0.34570
 C706 C 0.40072 0.01408 0.32808
 C707 C 0.32713 0.00749 0.43251
 C708 C 0.31583 0.00535 0.45223
 H709 H 0.32476 0.04536 0.38919
 H710 H 0.38016 0.05390 0.39053
 H711 H 0.32691 0.00501 0.34822
 H712 H 0.33150 -0.03209 0.38653
 H713 H 0.38478 0.01680 0.42873
 H714 H 0.38681 -0.02353 0.38796
 C715 C 0.11491 0.49720 0.85160
 C716 C 0.11647 0.50617 0.88123
 C717 C 0.12837 0.48035 0.88719
 C718 C 0.12719 0.47133 0.85785
 C719 C 0.08762 0.48388 0.85421
 C720 C 0.09948 0.45803 0.86015
 C721 C 0.08887 0.49288 0.88357
 C722 C 0.10106 0.46703 0.88979
 C723 C 0.15066 0.47896 0.90621
 C724 C 0.16854 0.47841 0.92251
 C725 C 0.06456 0.48644 0.83650
 C726 C 0.04529 0.48914 0.82257
 H727 H 0.12034 0.50964 0.83569
 H728 H 0.12369 0.52595 0.89009
 H729 H 0.14321 0.46245 0.84750
 H730 H 0.09222 0.43827 0.85127
 H731 H 0.07288 0.50177 0.89396
 H732 H 0.09561 0.45460 0.90569
 C733 C 0.64701 0.00218 0.38550
 C734 C 0.61711 -0.00462 0.38448
 C735 C 0.61268 0.02106 0.37174
 C736 C 0.64231 0.02792 0.37240
 C737 C 0.64549 0.01696 0.41251
 C738 C 0.64110 0.04268 0.39981
 C739 C 0.61585 0.01012 0.41179
 C740 C 0.61117 0.03584 0.39876
 C741 C 0.59376 0.02273 0.34942
 C742 C 0.57755 0.02348 0.33148
 C743 C 0.66314 0.01407 0.43554
 C744 C 0.67704 0.01108 0.45476
 H745 H 0.66195 -0.01169 0.38031
 H746 H 0.60704 -0.02406 0.37794
 H747 H 0.65297 0.03527 0.35593
 H748 H 0.65118 0.06209 0.40639
 H749 H 0.60515 0.00276 0.42822
 H750 H 0.59623 0.04971 0.40396
 C751 C 0.89338 0.48923 0.13506
 C752 C 0.86986 0.50602 0.13992
 C753 C 0.87144 0.51541 0.11226
 C754 C 0.89461 0.49864 0.10715
 C755 C 0.91210 0.51280 0.14561
 C756 C 0.91362 0.52218 0.11794
 C757 C 0.88896 0.52960 0.15079
 C758 C 0.89014 0.53901 0.12280
 C759 C 0.84930 0.51630 0.09295
 C760 C 0.83164 0.51646 0.07634
 C761 C 0.93517 0.51079 0.16346
 C762 C 0.95454 0.50859 0.17744
 H763 H 0.89496 0.46873 0.14029
 H764 H 0.85161 0.49939 0.14874
 H765 H 0.89671 0.48591 0.08901
 H766 H 0.93186 0.52881 0.10909
 H767 H 0.88692 0.54231 0.16896
 H768 H 0.88854 0.55949 0.11754
 C769 C 0.38232 -0.02287 0.58580
 C770 C 0.39179 0.00011 0.60620
 C771 C 0.38760 -0.01816 0.62823
 C772 C 0.37839 -0.04118 0.60813
 C773 C 0.35410 -0.01498 0.58780
 C774 C 0.34984 -0.03327 0.60979
 C775 C 0.36333 0.00803 0.60790
 C776 C 0.35939 -0.01026 0.63028
 C777 C 0.40701 -0.01930 0.65024
 C778 C 0.42369 -0.01961 0.66781
 C779 C 0.33617 -0.01261 0.56485
 C780 C 0.32217 -0.01006 0.54559
 H781 H 0.39156 -0.02802 0.56726
 H782 H 0.40923 0.01383 0.60494
 H783 H 0.38480 -0.06143 0.60849
 H784 H 0.33237 -0.04697 0.61099
 H785 H 0.35694 0.02829 0.60756
 H786 H 0.35019 -0.00510 0.64883
   
