data_POSCAR
  _audit_creation_date              2014-09-24
  _audit_creation_method            'ToBaCCo'
  _symmetry_space_group_name_H-M    'P1'
  _symmetry_Int_Tables_number       1
  _symmetry_cell_setting            triclinic
  loop_
  _symmetry_equiv_pos_as_xyz
 x,y,z
_cell_length_a 27.4915
_cell_length_b 27.9039
_cell_length_c 25.3520
_cell_angle_alpha 91.863500
_cell_angle_beta 90.760400
_cell_angle_gamma 92.203100
loop_
  _atom_site_label
  _atom_site_type_symbol
  _atom_site_fract_x
  _atom_site_fract_y
  _atom_site_fract_z
C1 C 0.22549 0.51431 1.11176
 H2 H 0.25595 0.53970 1.10982
 C3 C 0.19458 0.51641 1.15514
 H4 H 0.20258 0.54313 1.18631
 C5 C 0.17689 0.45052 1.07273
 H6 H 0.17001 0.42503 1.04021
 C7 C 0.14398 0.45266 1.11419
 H8 H 0.11249 0.42816 1.11312
 N9 N 0.21605 0.48181 1.07145
 C10 C 0.29489 0.55887 0.95399
 H11 H 0.26941 0.54814 0.92269
 C12 C 0.32819 0.59689 0.94614
 H13 H 0.32671 0.61562 0.90944
 C14 C 0.33008 0.54545 1.03761
 H15 H 0.33173 0.52418 1.07245
 C16 C 0.36399 0.58368 1.03155
 H17 H 0.39096 0.59182 1.06232
 Zn18 Zn 0.25030 0.48110 1.00664
 N19 N 0.29547 0.53457 0.99968
 C20 C 0.17808 0.52325 0.94564
 N21 N 0.20100 0.48166 0.95362
 C22 C 0.18518 0.43968 0.92911
 C23 C 0.14487 0.43854 0.89500
 C24 C 0.13887 0.52405 0.91019
 C25 C 0.29459 0.39460 1.03762
 C26 C 0.32337 0.35477 1.02877
 C27 C 0.33092 0.37673 0.93772
 C28 C 0.30338 0.41661 0.94861
 N29 N 0.28557 0.42465 0.99770
 H30 H 0.18988 0.55570 0.96740
 H31 H 0.20238 0.40662 0.93784
 H32 H 0.13156 0.40474 0.87696
 H33 H 0.12069 0.55726 0.90434
 H34 H 0.28044 0.40212 1.07650
 H35 H 0.33128 0.33162 1.06099
 H36 H 0.34503 0.37133 0.89839
 H37 H 0.29613 0.44144 0.91783
 C38 C 0.36313 0.61008 0.98528
 C39 C 0.15217 0.48642 1.15600
 C40 C 0.34183 0.34558 0.97818
 C41 C 0.12162 0.48115 0.88521
 C42 C 0.80806 0.55248 -0.07429
 H43 H 0.81255 0.58063 -0.04407
 C44 C 0.83801 0.55256 -0.11830
 H45 H 0.86526 0.58127 -0.12189
 C46 C 0.76868 0.47953 -0.10482
 H47 H 0.74306 0.45006 -0.09845
 C48 C 0.79744 0.47854 -0.14977
 H49 H 0.79331 0.44845 -0.17776
 N50 N 0.77497 0.51580 -0.06783
 C51 C 0.68458 0.56993 0.05889
 H52 H 0.69489 0.54553 0.08902
 C53 C 0.64935 0.60341 0.06943
 H54 H 0.63315 0.60521 0.10812
 C55 C 0.69156 0.59542 -0.02913
 H56 H 0.70722 0.59107 -0.06781
 C57 C 0.65549 0.62869 -0.02062
 H58 H 0.64449 0.65082 -0.05264
 Zn59 Zn 0.74336 0.51286 -0.00228
 N60 N 0.70478 0.56647 0.01030
 C61 C 0.80603 0.55455 0.07435
 N62 N 0.79269 0.51156 0.05060
 C63 C 0.81850 0.47176 0.05898
 C64 C 0.85870 0.47419 0.09374
 C65 C 0.84618 0.55873 0.10847
 C66 C 0.66241 0.46732 -0.04050
 C67 C 0.62218 0.43602 -0.04535
 C68 C 0.65564 0.38933 0.02412
 C69 C 0.69556 0.42234 0.02814
 N70 N 0.69790 0.46045 -0.00409
 H71 H 0.78652 0.58623 0.06540
 H72 H 0.80862 0.43845 0.03784
 H73 H 0.87892 0.44229 0.09992
 H74 H 0.85613 0.59346 0.12663
 H75 H 0.66502 0.49806 -0.06533
 H76 H 0.59419 0.44291 -0.07430
 H77 H 0.65335 0.35958 0.05045
 H78 H 0.72360 0.41819 0.05774
 C79 C 0.63358 0.63242 0.02904
 C80 C 0.83366 0.51456 -0.15598
 C81 C 0.61804 0.39677 -0.01253
 C82 C 0.87313 0.51833 0.11858
 C83 C -0.05011 0.29300 0.42418
 H84 H -0.08112 0.28100 0.44671
 C85 C -0.05718 0.32156 0.38090
 H86 H -0.09405 0.33023 0.37034
 C87 C 0.03531 0.29875 0.41343
 H88 H 0.07131 0.29010 0.42693
 C89 C 0.03004 0.32906 0.37095
 H90 H 0.06235 0.34304 0.35192
 N91 N -0.00450 0.28173 0.43929
 C92 C -0.05583 0.18742 0.56346
 H93 H -0.03325 0.20136 0.59611
 C94 C -0.09033 0.15035 0.57163
 H95 H -0.09508 0.13701 0.61094
 C96 C -0.07431 0.18488 0.47192
 H97 H -0.06639 0.19666 0.43268
 C98 C -0.10856 0.14741 0.47816
 H99 H -0.12798 0.13239 0.44370
 Zn100 Zn 0.00399 0.24849 0.50255
 N101 N -0.04935 0.20484 0.51438
 C102 C -0.02336 0.30528 0.59214
 N103 N 0.01246 0.29625 0.55702
 C104 C 0.05242 0.32624 0.55398
 C105 C 0.05687 0.36789 0.58595
 C106 C -0.01989 0.34608 0.62566
 C107 C 0.05330 0.17778 0.45413
 C108 C 0.08281 0.13859 0.45062
 C109 C 0.12358 0.16643 0.53167
 C110 C 0.09243 0.20506 0.53415
 N111 N 0.05747 0.20909 0.49617
 H112 H -0.05605 0.28258 0.59221
 H113 H 0.07981 0.31891 0.52489
 H114 H 0.08811 0.39222 0.58167
 H115 H -0.04955 0.35355 0.65197
 H116 H 0.02484 0.18168 0.42492
 H117 H 0.07732 0.11276 0.41805
 H118 H 0.14977 0.16195 0.56323
 H119 H 0.09414 0.22985 0.56787
 C120 C -0.11683 0.12960 0.52852
 C121 C -0.01680 0.34139 0.35452
 C122 C 0.11738 0.13180 0.49045
 C123 C 0.02004 0.37855 0.62173
 C124 C 1.03695 0.73565 0.61612
 H125 H 1.06784 0.75981 0.61012
 C126 C 1.03626 0.70709 0.66040
 H127 H 1.06645 0.71005 0.68835
 C128 C 0.96240 0.69896 0.58483
 H129 H 0.93466 0.69487 0.55416
 C130 C 0.96061 0.66933 0.62804
 H131 H 0.93076 0.64314 0.63084
 N132 N 1.00093 0.73021 0.57881
 C133 C 0.95769 0.82202 0.45078
 H134 H 0.98620 0.81531 0.42280
 C135 C 0.92216 0.85473 0.43924
 H136 H 0.92311 0.87257 0.40194
 C137 C 0.92300 0.80838 0.53428
 H138 H 0.92379 0.79065 0.57152
 C139 C 0.88740 0.84164 0.52482
 H140 H 0.86058 0.84860 0.55470
 Zn141 Zn 1.00761 0.75661 0.51132
 N142 N 0.95705 0.79899 0.49726
 C143 C 0.98244 0.70261 0.41528
 N144 N 1.00665 0.70362 0.46255
 C145 C 1.02949 0.66443 0.47952
 C146 C 1.02675 0.62151 0.44983
 C147 C 0.98040 0.66075 0.38330
 C148 C 1.07299 0.83162 0.53931
 C149 C 1.11433 0.86168 0.53552
 C150 C 1.14291 0.80934 0.46566
 C151 C 1.10118 0.77983 0.47131
 N152 N 1.06708 0.79182 0.50729
 H153 H 0.96394 0.73371 0.40261
 H154 H 1.04860 0.66610 0.51713
 H155 H 1.04379 0.59017 0.46465
 H156 H 0.96052 0.65999 0.34608
 H157 H 1.04488 0.84053 0.56702
 H158 H 1.11728 0.89379 0.56055
 H159 H 1.16905 0.80023 0.43574
 H160 H 1.09533 0.74823 0.44586
 C161 C 0.88666 0.86509 0.47667
 C162 C 0.99878 0.67209 0.66547
 C163 C 1.14953 0.85120 0.49758
 C164 C 1.00187 0.61945 0.40129
 C165 C 0.44375 -0.00996 0.33171
 H166 H 0.46974 -0.03728 0.33755
 C167 C 0.40541 -0.00548 0.36692
 H168 H 0.40295 -0.02919 0.39978
 C169 C 0.41467 0.05328 0.28143
 H170 H 0.41737 0.07535 0.24736
 C171 C 0.37600 0.05912 0.31569
 H172 H 0.34992 0.08621 0.30784
 N173 N 0.44817 0.01969 0.29031
 C174 C 0.52875 -0.05900 0.17134
 H175 H 0.56335 -0.03914 0.17205
 C176 C 0.52214 -0.10050 0.13922
 H177 H 0.55229 -0.11195 0.11559
 C178 C 0.44775 -0.06712 0.20138
 H179 H 0.41869 -0.05370 0.22533
 C180 C 0.43945 -0.10862 0.16978
 H181 H 0.40390 -0.12672 0.17025
 Zn182 Zn 0.50094 0.01424 0.24294
 N183 N 0.49173 -0.04311 0.20140
 C184 C 0.56960 -0.02484 0.31281
 N185 N 0.56073 0.01304 0.28200
 C186 C 0.59314 0.05104 0.28045
 C187 C 0.63380 0.05400 0.31399
 C188 C 0.61011 -0.02349 0.34695
 C189 C 0.49660 0.06252 0.14569
 C190 C 0.49539 0.10246 0.11387
 C191 C 0.50413 0.15386 0.19218
 C192 C 0.50485 0.11302 0.22247
 N193 N 0.50152 0.06841 0.19899
 H194 H 0.54487 -0.05590 0.31157
 H195 H 0.58724 0.07986 0.25415
 H196 H 0.65811 0.08544 0.31330
 H197 H 0.61545 -0.05319 0.37250
 H198 H 0.49332 0.02686 0.12776
 H199 H 0.49182 0.09681 0.07157
 H200 H 0.50702 0.18896 0.21172
 H201 H 0.50778 0.11684 0.26501
 C202 C 0.47678 -0.12590 0.13778
 C203 C 0.37110 0.02968 0.35920
 C204 C 0.49928 0.14891 0.13714
 C205 C 0.64199 0.01708 0.34886
 C206 C 0.56427 -0.06428 0.67854
 H207 H 0.54155 -0.09448 0.69033
 C208 C 0.60158 -0.07135 0.64272
 H209 H 0.60748 -0.10723 0.62716
 C210 C 0.58381 0.01923 0.68450
 H211 H 0.57649 0.05443 0.70090
 C212 C 0.62125 0.01385 0.64823
 H213 H 0.64290 0.04514 0.63749
 N214 N 0.55632 -0.01963 0.69888
 C215 C 0.46675 -0.08894 0.81123
 H216 H 0.43110 -0.07971 0.79750
 C217 C 0.47112 -0.12559 0.84729
 H218 H 0.43863 -0.14427 0.86079
 C219 C 0.55243 -0.07637 0.81029
 H220 H 0.58412 -0.05732 0.79553
 C221 C 0.55846 -0.11290 0.84560
 H222 H 0.59493 -0.12127 0.85800
 Zn223 Zn 0.50491 -0.01313 0.74722
 N224 N 0.50718 -0.06484 0.79394
 C225 C 0.40183 -0.00645 0.73304
 N226 N 0.44494 -0.01324 0.70852
 C227 C 0.44719 -0.01660 0.65496
 C228 C 0.40560 -0.01168 0.62392
 C229 C 0.35932 -0.00052 0.70335
 C230 C 0.55620 0.05154 0.81714
 C231 C 0.56321 0.09185 0.85088
 C232 C 0.48481 0.11873 0.82295
 C233 C 0.47974 0.07848 0.78894
 N234 N 0.51455 0.04509 0.78769
 H235 H 0.40081 -0.00339 0.77565
 H236 H 0.48157 -0.02164 0.63590
 H237 H 0.40887 -0.01315 0.58143
 H238 H 0.32562 0.00633 0.72338
 H239 H 0.58386 0.02515 0.81490
 H240 H 0.59622 0.09607 0.87465
 H241 H 0.45633 0.14448 0.82402
 H242 H 0.44766 0.07393 0.76415
 C243 C 0.51755 -0.13778 0.86495
 C244 C 0.63055 -0.03199 0.62703
 C245 C 0.52667 0.12535 0.85492
 C246 C 0.36111 -0.00263 0.64804
 C247 C 0.24282 0.00592 0.49691
 C248 C 0.76321 -0.00807 0.49497
 C249 C 0.49353 0.25928 0.98529
 C250 C 0.49435 0.74102 0.00617
 C251 C 0.99998 0.48979 0.25873
 C252 C -0.00801 0.51414 0.75184
 N253 N 0.15661 0.01265 0.47206
 N254 N 0.12322 0.04518 0.46839
 C255 C 0.14264 0.08626 0.49034
 C256 C 0.18915 0.07775 0.50813
 N257 N 0.19653 0.03110 0.49600
 H258 H 0.21602 0.10350 0.52480
 N259 N 0.54618 0.71307 0.07926
 N260 N 0.58294 0.68455 0.08661
 C261 C 0.59387 0.66553 0.03883
 C262 C 0.56201 0.68259 0.00212
 N263 N 0.53329 0.71273 0.02869
 H264 H 0.56000 0.67436 -0.03989
 N265 N 0.80201 -0.05469 0.42282
 N266 N 0.83515 -0.08763 0.41669
 C267 C 0.84950 -0.09957 0.46548
 C268 C 0.82430 -0.07258 0.50169
 N269 N 0.79469 -0.04537 0.47361
 H270 H 0.82782 -0.07181 0.54429
 N271 N 0.42566 0.26593 0.92177
 N272 N 0.38520 0.28985 0.91834
 C273 C 0.37525 0.30628 0.96739
 C274 C 0.41073 0.29062 1.00115
 N275 N 0.44182 0.26542 0.97125
 H276 H 0.41759 0.30286 1.04162
 N277 N 0.79452 0.04273 0.57183
 N278 N 0.82633 0.07890 0.58200
 C279 C 0.84755 0.08939 0.53587
 C280 C 0.82826 0.05790 0.49738
 N281 N 0.79466 0.02996 0.52102
 H282 H 0.83702 0.05577 0.45590
 N283 N 0.43808 0.70622 -0.06368
 N284 N 0.40361 0.67201 -0.07026
 C285 C 0.39859 0.65042 -0.02367
 C286 C 0.43142 0.67287 0.01188
 N287 N 0.45514 0.70767 -0.01454
 H288 H 0.43752 0.66505 0.05291
 N289 N 0.23834 -0.06978 0.44201
 N290 N 0.21371 -0.11158 0.44137
 C291 C 0.18993 -0.11389 0.48751
 C292 C 0.20190 -0.07256 0.51687
 N293 N 0.23157 -0.04567 0.48702
 H294 H 0.18672 -0.06054 0.55393
 N295 N 0.49987 0.34417 0.96153
 N296 N 0.53170 0.38077 0.96119
 C297 C 0.57308 0.36621 0.98358
 C298 C 0.56545 0.31915 0.99794
 N299 N 0.51911 0.30667 0.98337
 H300 H 0.59129 0.29586 1.01552
 N301 N 0.50962 0.26540 1.08206
 N302 N 0.51129 0.23705 1.12295
 C303 C 0.49921 0.19210 1.10469
 C304 C 0.48955 0.19405 1.05129
 N305 N 0.49690 0.24018 1.03856
 H306 H 0.47913 0.16480 1.02391
 N307 N 0.02973 0.59624 0.77081
 N308 N 0.03133 0.63894 0.74921
 C309 C 0.00247 0.63523 0.70567
 C310 C -0.01660 0.58890 0.70130
 N311 N 0.00187 0.56539 0.74196
 H312 H -0.03960 0.57281 0.67002
 N313 N 0.56070 0.77362 -0.04931
 N314 N 0.56797 0.80558 -0.08606
 C315 C 0.52444 0.82387 -0.09704
 C316 C 0.49011 0.80194 -0.06547
 N317 N 0.51414 0.77044 -0.03656
 H318 H 0.45180 0.80902 -0.06245
 N319 N 0.93738 0.42662 0.27175
 N320 N 0.93137 0.38760 0.29938
 C321 C 0.97585 0.37536 0.31573
 C322 C 1.00961 0.40790 0.29542
 N323 N 0.98408 0.43958 0.26804
 H324 H 1.04785 0.41242 0.30583
 N325 N 0.43052 0.77253 0.06529
 N326 N 0.42509 0.80798 0.10054
 C327 C 0.46820 0.83287 0.10497
 C328 C 0.50031 0.81106 0.07111
 N329 N 0.47552 0.77363 0.04728
 H330 H 0.53787 0.82130 0.06358
 N331 N 0.03581 0.50030 0.66841
 N332 N 0.04544 0.46498 0.63447
 C333 C 0.02142 0.42529 0.65088
 C334 C -0.00311 0.43748 0.69627
 N335 N 0.00604 0.48485 0.70544
 H336 H -0.02493 0.41414 0.72062
 N337 N 0.56433 0.22136 0.94461
 N338 N 0.57479 0.18589 0.91115
 C339 C 0.53200 0.16668 0.89257
 C340 C 0.49506 0.19112 0.91618
 N341 N 0.51659 0.22574 0.94778
 H342 H 0.45643 0.18259 0.91268
 N343 N 0.98486 0.49830 0.35473
 N344 N 0.98587 0.53126 0.39349
 C345 C 0.99629 0.57356 0.37141
 C346 C 1.00190 0.56555 0.31799
 N347 N 0.99440 0.51786 0.30881
 H348 H 1.01287 0.59166 0.28942
 N349 N 1.08583 0.51951 0.26757
 N350 N 1.12668 0.51990 0.24052
 C351 C 1.11834 0.49184 0.19676
 C352 C 1.07052 0.47388 0.19831
 N353 N 1.05143 0.49246 0.24285
 H354 H 1.05042 0.45220 0.16863
 N355 N 0.72327 -0.07519 0.54221
 N356 N 0.68802 -0.08266 0.57643
 C357 C 0.67042 -0.03944 0.58939
 C358 C 0.69598 -0.00521 0.56161
 N359 N 0.72901 -0.02885 0.53311
 H360 H 0.69086 0.03305 0.56134
 N361 N -0.09252 0.47998 0.73531
 N362 N -0.13536 0.47997 0.75881
 C363 C -0.13021 0.50966 0.80183
 C364 C -0.08293 0.52773 0.80386
 N365 N -0.06038 0.50797 0.76229
 H366 H -0.06537 0.55036 0.83455
 N367 N 0.26520 0.06393 0.42865
 N368 N 0.29823 0.07128 0.39203
 C369 C 0.32990 0.03580 0.39530
 C370 C 0.31518 0.00651 0.43547
 N371 N 0.27450 0.02518 0.45533
 H372 H 0.33098 -0.02643 0.44723
 N373 N 0.00326 0.46359 0.82851
 N374 N 0.03716 0.45219 0.86294
 C375 C 0.07679 0.48012 0.85323
 C376 C 0.06639 0.50875 0.81164
 N377 N 0.01956 0.49818 0.79789
 H378 H 0.09101 0.53372 0.79264
 N379 N 0.73817 0.05735 0.43752
 N380 N 0.70695 0.06480 0.39877
 C381 C 0.68231 0.02282 0.38809
 C382 C 0.69965 -0.01078 0.42186
 N383 N 0.73468 0.01215 0.45188
 H384 H 0.68784 -0.04801 0.42499
 N385 N 0.96946 0.55673 0.20779
 N386 N 0.93666 0.56577 0.17115
 C387 C 0.91555 0.52331 0.15519
 C388 C 0.93718 0.48784 0.18291
 N389 N 0.96982 0.51023 0.21671
 H390 H 0.92883 0.44971 0.17932
 N391 N 0.24825 0.03223 0.59166
 N392 N 0.27818 0.02943 0.63283
 C393 C 0.31756 0.00654 0.61556
 C394 C 0.31061 -0.00465 0.56260
 N395 N 0.26732 0.01242 0.54884
 H396 H 0.33421 -0.02454 0.53703
   
