data_POSCAR
  _audit_creation_date              2014-09-24
  _audit_creation_method            'ToBaCCo'
  _symmetry_space_group_name_H-M    'P1'
  _symmetry_Int_Tables_number       1
  _symmetry_cell_setting            triclinic
  loop_
  _symmetry_equiv_pos_as_xyz
 x,y,z
_cell_length_a 26.1043
_cell_length_b 31.0376
_cell_length_c 26.4980
_cell_angle_alpha 89.699100
_cell_angle_beta 91.137700
_cell_angle_gamma 87.541900
loop_
  _atom_site_label
  _atom_site_type_symbol
  _atom_site_fract_x
  _atom_site_fract_y
  _atom_site_fract_z
C1 C 1.20789 0.22572 0.21035
 C2 C 1.23319 0.26027 0.17796
 C3 C 1.25928 0.28966 0.20551
 C4 C 1.25905 0.28140 0.26296
 C5 C 1.25308 0.20594 0.24131
 C6 C 1.27872 0.23420 0.26983
 C7 C 1.17529 0.25258 0.24729
 C8 C 1.20175 0.28110 0.27510
 H9 H 1.23063 0.26283 0.13738
 H10 H 1.28069 0.30483 0.28560
 H11 H 1.26194 0.17151 0.24319
 H12 H 1.13395 0.25104 0.24880
 C13 C 0.70362 -0.27049 0.20871
 C14 C 0.73435 -0.24011 0.17597
 C15 C 0.76331 -0.21269 0.20319
 C16 C 0.75996 -0.21844 0.26119
 C17 C 0.74503 -0.29308 0.24198
 C18 C 0.77342 -0.26680 0.27073
 C19 C 0.67311 -0.23962 0.24296
 C20 C 0.70206 -0.21324 0.27117
 H21 H 0.73161 -0.23734 0.13540
 H22 H 0.78339 -0.19612 0.28360
 H23 H 0.74936 -0.32792 0.24493
 H24 H 0.63158 -0.23839 0.24408
 C25 C 0.70360 0.23076 -0.29293
 C26 C 0.73249 0.26019 -0.32389
 C27 C 0.76471 0.28762 -0.29484
 C28 C 0.76171 0.28065 -0.23980
 C29 C 0.74285 0.20806 -0.26213
 C30 C 0.77415 0.23436 -0.23165
 C31 C 0.67540 0.25992 -0.25970
 C32 C 0.70657 0.28666 -0.22886
 H33 H 0.72581 0.26678 -0.36354
 H34 H 0.78581 0.30286 -0.21805
 H35 H 0.74778 0.17313 -0.26124
 H36 H 0.63384 0.26139 -0.25860
 C37 C 1.20850 -0.27444 -0.28900
 C38 C 1.23561 -0.24151 -0.32211
 C39 C 1.26156 -0.21185 -0.29511
 C40 C 1.25912 -0.21767 -0.23755
 C41 C 1.25227 -0.29362 -0.25563
 C42 C 1.27771 -0.26468 -0.22760
 C43 C 1.17519 -0.24602 -0.25440
 C44 C 1.20137 -0.21690 -0.22725
 H45 H 1.23439 -0.24006 -0.36278
 H46 H 1.28055 -0.19354 -0.21577
 H47 H 1.26167 -0.32796 -0.25355
 H48 H 1.13384 -0.24760 -0.25327
 C49 C 0.21549 0.22558 0.78915
 C50 C 0.23867 0.25969 0.81838
 C51 C 0.26696 0.28898 0.78867
 C52 C 0.26871 0.27751 0.73516
 C53 C 0.18432 0.25015 0.74757
 C54 C 0.21179 0.27702 0.71903
 C55 C 0.26124 0.20354 0.76324
 C56 C 0.28798 0.22980 0.73366
 H57 H 0.23742 0.26299 0.85881
 H58 H 0.29105 0.29932 0.71154
 H59 H 0.14291 0.24930 0.74429
 H60 H 0.26839 0.16885 0.76370
 C61 C 0.71299 0.72165 0.78639
 C62 C 0.74052 0.75385 0.81549
 C63 C 0.76926 0.78279 0.78496
 C64 C 0.76330 0.77378 0.73027
 C65 C 0.68087 0.74724 0.75096
 C66 C 0.70774 0.77583 0.71955
 C67 C 0.75359 0.70064 0.75770
 C68 C 0.77958 0.72808 0.72441
 H69 H 0.74731 0.75201 0.85578
 H70 H 0.78425 0.79571 0.70581
 H71 H 0.63936 0.74860 0.75279
 H72 H 0.76307 0.66631 0.76066
 C73 C 0.71281 0.22264 0.28692
 C74 C 0.74464 0.25389 0.31873
 C75 C 0.77213 0.28137 0.29073
 C76 C 0.76561 0.27558 0.23324
 C77 C 0.68006 0.25276 0.25223
 C78 C 0.70719 0.27979 0.22387
 C79 C 0.75288 0.20061 0.25323
 C80 C 0.77949 0.22750 0.22406
 H81 H 0.74568 0.25561 0.35936
 H82 H 0.78789 0.29823 0.21072
 H83 H 0.63851 0.25327 0.25114
 H84 H 0.75927 0.16587 0.25225
 C85 C 0.21497 0.72347 0.28642
 C86 C 0.24019 0.75929 0.31727
 C87 C 0.26638 0.78735 0.28866
 C88 C 0.26594 0.77694 0.23184
 C89 C 0.18225 0.74895 0.24667
 C90 C 0.20866 0.77620 0.21757
 C91 C 0.26008 0.70250 0.25822
 C92 C 0.28542 0.72966 0.22854
 H93 H 0.23676 0.76413 0.35735
 H94 H 0.28777 0.79939 0.20857
 H95 H 0.14085 0.74764 0.24436
 H96 H 0.26821 0.66795 0.25801
 N97 N 1.07766 0.04516 0.05241
 N98 N 1.11246 0.07348 0.06324
 N99 N 1.04047 -0.04527 0.08164
 N100 N 1.05127 -0.07601 0.11530
 N101 N 1.07585 -0.04498 0.04710
 N102 N 1.11165 -0.07548 0.05626
 N103 N 1.04251 0.04510 0.08705
 N104 N 1.05220 0.07357 0.12234
 C105 C 1.09614 0.09081 0.10715
 C106 C 1.09530 -0.09489 0.09839
 N107 N 0.89340 -0.03550 0.04569
 N108 N 0.85614 -0.06152 0.05552
 N109 N 0.93294 0.05108 0.08602
 N110 N 0.93049 0.08372 0.11758
 N111 N 0.89634 0.05499 0.05142
 N112 N 0.86773 0.09045 0.05899
 N113 N 0.92961 -0.03910 0.08086
 N114 N 0.91784 -0.06760 0.11542
 Mn115 Mn 0.98630 0.00281 0.08436
 C116 C 0.87197 -0.08136 0.09908
 C117 C 0.88985 0.10835 0.10022
 N118 N 1.07412 -0.03939 -0.06112
 N119 N 1.10804 -0.07062 -0.07130
 N120 N 1.03985 0.05433 -0.09061
 N121 N 1.05020 0.08437 -0.12370
 N122 N 1.07612 0.05066 -0.05565
 N123 N 1.11234 0.07803 -0.06413
 N124 N 1.03856 -0.03576 -0.09684
 N125 N 1.04762 -0.06431 -0.13271
 Mn126 Mn 1.07637 0.00284 -0.00435
 C127 C 1.09074 -0.08595 -0.11575
 C128 C 1.09541 0.09888 -0.10660
 N129 N 0.89463 0.06048 -0.05722
 N130 N 0.86376 0.09515 -0.06193
 N131 N 0.92777 -0.03041 -0.09788
 N132 N 0.91886 -0.05891 -0.13337
 N133 N 0.89158 -0.03019 -0.06420
 N134 N 0.85679 -0.05836 -0.07671
 N135 N 0.93011 0.06045 -0.09161
 N136 N 0.92451 0.09523 -0.12045
 Mn137 Mn 0.89325 0.01237 -0.00607
 Mn138 Mn 0.98397 0.01211 -0.09477
 Cl139 Cl 0.98490 0.00728 -0.00523
 C140 C 0.88329 0.11689 -0.10113
 C141 C 0.87421 -0.07618 -0.12040
 N142 N 1.07840 0.54460 0.55424
 N143 N 1.11358 0.57263 0.56485
 N144 N 1.04029 0.45451 0.58418
 N145 N 1.05005 0.42264 0.61658
 N146 N 1.07564 0.45478 0.54966
 N147 N 1.11037 0.42336 0.55776
 N148 N 1.04353 0.54474 0.58921
 N149 N 1.05371 0.57314 0.62437
 C150 C 1.09769 0.59001 0.60887
 C151 C 1.09343 0.40289 0.59895
 N152 N 0.89299 0.46556 0.55025
 N153 N 0.85534 0.43993 0.56035
 N154 N 0.93405 0.55202 0.58929
 N155 N 0.93184 0.58469 0.62089
 N156 N 0.89770 0.55634 0.55449
 N157 N 0.86959 0.59218 0.56178
 N158 N 0.92937 0.46158 0.58512
 N159 N 0.91727 0.43326 0.61987
 Mn160 Mn 0.98680 0.50303 0.58747
 C161 C 0.87096 0.41992 0.60394
 C162 C 0.89169 0.60981 0.60322
 N163 N 1.07405 0.45911 0.44165
 N164 N 1.10798 0.42781 0.43156
 N165 N 1.04054 0.55275 0.41090
 N166 N 1.05131 0.58194 0.37689
 N167 N 1.07689 0.54936 0.44579
 N168 N 1.11364 0.57602 0.43622
 N169 N 1.03834 0.46248 0.40608
 N170 N 1.04740 0.43376 0.37033
 Mn171 Mn 1.07670 0.50200 0.49786
 C172 C 1.09061 0.41214 0.38727
 C173 C 1.09696 0.59620 0.39317
 N174 N 0.89605 0.56033 0.44591
 N175 N 0.86642 0.59571 0.44165
 N176 N 0.92735 0.46897 0.40622
 N177 N 0.92011 0.43759 0.37380
 N178 N 0.89205 0.46959 0.44091
 N179 N 0.85993 0.43841 0.43295
 N180 N 0.93100 0.55939 0.41099
 N181 N 0.92615 0.59411 0.38209
 Mn182 Mn 0.89396 0.51296 0.49779
 Mn183 Mn 0.98413 0.51083 0.40798
 Cl184 Cl 0.98533 0.50699 0.49778
 C185 C 0.88605 0.61678 0.40202
 C186 C 0.87824 0.41843 0.39112
 N187 N 0.57766 0.04673 0.55644
 N188 N 0.61133 0.07640 0.56580
 N189 N 0.53935 -0.04318 0.58862
 N190 N 0.55000 -0.07326 0.62323
 N191 N 0.57537 -0.04334 0.55467
 N192 N 0.61144 -0.07328 0.56525
 N193 N 0.54224 0.04738 0.59085
 N194 N 0.55012 0.07796 0.62393
 C195 C 0.59372 0.09538 0.60842
 C196 C 0.59479 -0.09198 0.60768
 N197 N 0.39147 -0.03076 0.55228
 N198 N 0.35384 -0.05655 0.56159
 N199 N 0.43347 0.05491 0.59006
 N200 N 0.43125 0.08776 0.62132
 N201 N 0.39827 0.05972 0.55426
 N202 N 0.37111 0.09614 0.56027
 N203 N 0.42759 -0.03512 0.58742
 N204 N 0.41504 -0.06357 0.62181
 Mn205 Mn 0.48563 0.00566 0.58975
 C206 C 0.36882 -0.07673 0.60524
 C207 C 0.39259 0.11357 0.60207
 N208 N 0.57356 -0.04130 0.44635
 N209 N 0.60794 -0.07225 0.43657
 N210 N 0.54081 0.05078 0.41221
 N211 N 0.55126 0.07944 0.37756
 N212 N 0.57684 0.04859 0.44747
 N213 N 0.61331 0.07532 0.43723
 N214 N 0.53717 -0.03938 0.41135
 N215 N 0.54602 -0.06901 0.37671
 Mn216 Mn 0.57636 0.00278 0.50122
 C217 C 0.58974 -0.08986 0.39363
 C218 C 0.59667 0.09430 0.39342
 N219 N 0.39723 0.06244 0.44546
 N220 N 0.37035 0.09939 0.44004
 N221 N 0.42601 -0.03133 0.40923
 N222 N 0.41356 -0.05886 0.37366
 N223 N 0.39025 -0.02838 0.44334
 N224 N 0.35283 -0.05423 0.43209
 N225 N 0.43184 0.05873 0.41042
 N226 N 0.42934 0.09264 0.38028
 Mn227 Mn 0.39358 0.01588 0.49886
 Mn228 Mn 0.48393 0.00943 0.41034
 Cl229 Cl 0.48480 0.00811 0.50006
 C230 C 0.39129 0.11823 0.39929
 C231 C 0.36769 -0.07293 0.38831
 N232 N 0.57590 0.54694 0.05560
 N233 N 0.61003 0.57590 0.06601
 N234 N 0.53772 0.45766 0.08749
 N235 N 0.54849 0.42817 0.12270
 N236 N 0.57359 0.45690 0.05332
 N237 N 0.60913 0.42657 0.06382
 N238 N 0.53994 0.54770 0.08945
 N239 N 0.54800 0.57754 0.12337
 C240 C 0.59211 0.59448 0.10866
 C241 C 0.59261 0.40869 0.10672
 N242 N 0.39036 0.46921 0.04921
 N243 N 0.35202 0.44418 0.05887
 N244 N 0.43119 0.55520 0.08689
 N245 N 0.42875 0.58827 0.11775
 N246 N 0.39680 0.56010 0.05037
 N247 N 0.37003 0.59695 0.05552
 N248 N 0.42587 0.46516 0.08491
 N249 N 0.41205 0.43789 0.12009
 Mn250 Mn 0.48364 0.50610 0.08764
 C251 C 0.36579 0.42486 0.10340
 C252 C 0.39092 0.61449 0.09766
 N253 N 0.57536 0.45926 -0.05462
 N254 N 0.61141 0.42967 -0.06399
 N255 N 0.54276 0.55064 -0.08947
 N256 N 0.55362 0.57976 -0.12351
 N257 N 0.57755 0.54914 -0.05302
 N258 N 0.61354 0.57678 -0.06169
 N259 N 0.53952 0.45990 -0.09005
 N260 N 0.55043 0.43012 -0.12422
 Mn261 Mn 0.57602 0.50319 0.00038
 C262 C 0.59513 0.41070 -0.10674
 C263 C 0.59786 0.59573 -0.10581
 N264 N 0.39789 0.56134 -0.05867
 N265 N 0.37037 0.59781 -0.06467
 N266 N 0.42747 0.46818 -0.09387
 N267 N 0.41401 0.44144 -0.13002
 N268 N 0.39206 0.47079 -0.05936
 N269 N 0.35453 0.44524 -0.07053
 N270 N 0.43374 0.55833 -0.09262
 N271 N 0.43204 0.59277 -0.12201
 Mn272 Mn 0.39361 0.51549 -0.00468
 Mn273 Mn 0.48581 0.50893 -0.09212
 Cl274 Cl 0.48468 0.50809 -0.00224
 C275 C 0.39251 0.61743 -0.10408
 C276 C 0.36816 0.42732 -0.11497
 C277 C 1.15584 0.15618 0.21394
 C278 C 1.17678 0.19039 0.18508
 C279 C 1.16954 0.19009 0.13231
 C280 C 1.14377 0.15748 0.10826
 C281 C 1.12397 0.12364 0.13558
 C282 C 1.13087 0.12207 0.18872
 C283 C 1.15986 0.15431 0.26741
 C284 C 1.14208 0.11971 0.29464
 C285 C 1.12041 0.08565 0.26965
 C286 C 1.11513 0.08650 0.21733
 H287 H 1.17715 0.17892 0.28946
 H288 H 1.14599 0.11902 0.33539
 H289 H 1.10784 0.05829 0.29089
 H290 H 1.09967 0.05840 0.19994
 H291 H 1.18333 0.21502 0.10841
 H292 H 1.13879 0.15896 0.06757
 C293 C 1.15612 0.65629 0.71518
 C294 C 1.17767 0.69000 0.68603
 C295 C 1.17108 0.68912 0.63321
 C296 C 1.14572 0.65625 0.60938
 C297 C 1.12570 0.62274 0.63700
 C298 C 1.13183 0.62178 0.69021
 C299 C 1.15876 0.65540 0.76870
 C300 C 1.14061 0.62116 0.79628
 C301 C 1.11990 0.58651 0.77158
 C302 C 1.11581 0.58651 0.71917
 H303 H 1.17514 0.68058 0.79044
 H304 H 1.14349 0.62120 0.83710
 H305 H 1.10710 0.55940 0.79311
 H306 H 1.10105 0.55802 0.70202
 H307 H 1.18479 0.71390 0.60906
 H308 H 1.14109 0.65735 0.56864
 C309 C 0.64457 0.16790 0.71320
 C310 C 0.67054 0.19918 0.68328
 C311 C 0.66783 0.19490 0.63023
 C312 C 0.64274 0.16135 0.60732
 C313 C 0.61983 0.12985 0.63579
 C314 C 0.62162 0.13220 0.68918
 C315 C 0.64274 0.16985 0.76685
 C316 C 0.62152 0.13759 0.79528
 C317 C 0.60257 0.10177 0.77176
 C318 C 0.60317 0.09867 0.71952
 H319 H 0.65811 0.19555 0.78858
 H320 H 0.62108 0.13991 0.83603
 H321 H 0.58780 0.07597 0.79415
 H322 H 0.59046 0.06888 0.70395
 H323 H 0.68569 0.21664 0.60494
 H324 H 0.64160 0.15985 0.56645
 C325 C 0.64472 0.66476 0.21404
 C326 C 0.66965 0.69613 0.18416
 C327 C 0.66564 0.69346 0.13131
 C328 C 0.64040 0.66032 0.10807
 C329 C 0.61827 0.62831 0.13641
 C330 C 0.62089 0.62971 0.18985
 C331 C 0.64420 0.66636 0.26762
 C332 C 0.62315 0.63398 0.29604
 C333 C 0.60292 0.59868 0.27233
 C334 C 0.60222 0.59616 0.21996
 H335 H 0.66028 0.69203 0.28898
 H336 H 0.62358 0.63587 0.33683
 H337 H 0.58802 0.57290 0.29465
 H338 H 0.58811 0.56699 0.20401
 H339 H 0.68217 0.71654 0.10670
 H340 H 0.63820 0.65968 0.06718
 C341 C 0.76136 -0.14095 0.15681
 C342 C 0.78923 -0.17712 0.17809
 C343 C 0.84240 -0.18074 0.17277
 C344 C 0.86838 -0.14891 0.14794
 C345 C 0.84196 -0.11257 0.12717
 C346 C 0.78805 -0.10760 0.13287
 C347 C 0.70739 -0.13721 0.15873
 C348 C 0.68050 -0.10039 0.14064
 C349 C 0.70678 -0.06661 0.12027
 C350 C 0.75997 -0.06998 0.11638
 H351 H 0.68546 -0.16280 0.17372
 H352 H 0.63912 -0.09792 0.14287
 H353 H 0.68582 -0.03768 0.10722
 H354 H 0.77851 -0.04244 0.10129
 H355 H 0.86393 -0.20921 0.18601
 H356 H 0.90948 -0.15331 0.14368
 C357 C 0.76028 0.35858 0.66105
 C358 C 0.78860 0.32264 0.68278
 C359 C 0.84206 0.32044 0.67866
 C360 C 0.86765 0.35266 0.65396
 C361 C 0.84083 0.38826 0.63193
 C362 C 0.78664 0.39215 0.63671
 C363 C 0.70633 0.36269 0.66446
 C364 C 0.67910 0.39909 0.64576
 C365 C 0.70488 0.43239 0.62376
 C366 C 0.75803 0.42924 0.61946
 H367 H 0.68467 0.33809 0.68194
 H368 H 0.63782 0.40173 0.64903
 H369 H 0.68361 0.46101 0.61026
 H370 H 0.77610 0.45673 0.60371
 H371 H 0.86429 0.29229 0.69181
 H372 H 0.90890 0.34895 0.65056
 C373 C 0.25773 -0.14142 0.65573
 C374 C 0.28640 -0.17538 0.68060
 C375 C 0.33988 -0.17471 0.68270
 C376 C 0.36547 -0.14215 0.65863
 C377 C 0.33840 -0.10872 0.63235
 C378 C 0.28376 -0.10720 0.63250
 C379 C 0.20353 -0.14011 0.65478
 C380 C 0.17552 -0.10554 0.63269
 C381 C 0.20070 -0.07139 0.61179
 C382 C 0.25413 -0.07186 0.61198
 H383 H 0.18221 -0.16525 0.67193
 H384 H 0.13402 -0.10486 0.63264
 H385 H 0.17870 -0.04409 0.59580
 H386 H 0.27131 -0.04356 0.59731
 H387 H 0.36209 -0.20028 0.70209
 H388 H 0.40702 -0.14363 0.65973
 C389 C 0.25438 0.35845 0.15211
 C390 C 0.28303 0.32740 0.18189
 C391 C 0.33570 0.33197 0.18893
 C392 C 0.36106 0.36398 0.16367
 C393 C 0.33457 0.39361 0.13134
 C394 C 0.28004 0.39225 0.12729
 C395 C 0.20035 0.35763 0.14818
 C396 C 0.17209 0.38905 0.12064
 C397 C 0.19672 0.42240 0.09745
 C398 C 0.24989 0.42444 0.10113
 H399 H 0.17919 0.33346 0.16732
 H400 H 0.13072 0.38802 0.11818
 H401 H 0.17437 0.44734 0.07717
 H402 H 0.26614 0.45242 0.08472
 H403 H 0.35793 0.30987 0.21315
 H404 H 0.40227 0.36493 0.16875
 C405 C 0.85578 0.21938 -0.18099
 C406 C 0.80245 0.21464 -0.19071
 C407 C 0.77724 0.18369 -0.16235
 C408 C 0.80380 0.15489 -0.13029
 C409 C 0.85707 0.15499 -0.12572
 C410 C 0.88336 0.18878 -0.14878
 C411 C 0.88314 0.25200 -0.20406
 C412 C 0.93574 0.25504 -0.19551
 C413 C 0.96230 0.22563 -0.16379
 C414 C 0.93650 0.19284 -0.14043
 H415 H 0.86429 0.27580 -0.22808
 H416 H 0.95597 0.28053 -0.21343
 H417 H 1.00307 0.22837 -0.15704
 H418 H 0.95838 0.17126 -0.11519
 H419 H 0.73628 0.18044 -0.16660
 H420 H 0.78266 0.13015 -0.11190
 C421 C 0.85872 0.71584 0.31742
 C422 C 0.80473 0.71378 0.31327
 C423 C 0.77972 0.68567 0.34535
 C424 C 0.80699 0.65736 0.37737
 C425 C 0.86052 0.65506 0.37755
 C426 C 0.88703 0.68603 0.34969
 C427 C 0.88534 0.74594 0.28940
 C428 C 0.93865 0.74703 0.29295
 C429 C 0.96631 0.71830 0.32475
 C430 C 0.94089 0.68818 0.35315
 H431 H 0.86505 0.76937 0.26563
 H432 H 0.95854 0.77056 0.27130
 H433 H 1.00764 0.71960 0.32776
 H434 H 0.96372 0.66738 0.37847
 H435 H 0.73839 0.68371 0.34333
 H436 H 0.78583 0.63457 0.39895
 C437 C 0.36656 0.20583 0.29911
 C438 C 0.31488 0.21735 0.30954
 C439 C 0.29383 0.20311 0.35453
 C440 C 0.32097 0.17375 0.38600
 C441 C 0.37068 0.15866 0.37415
 C442 C 0.39575 0.17843 0.33331
 C443 C 0.38951 0.22007 0.25467
 C444 C 0.44134 0.21081 0.24613
 C445 C 0.47109 0.18724 0.28161
 C446 C 0.44871 0.17120 0.32483
 H447 H 0.36757 0.23844 0.22640
 H448 H 0.45867 0.22250 0.21218
 H449 H 0.51165 0.18115 0.27552
 H450 H 0.47371 0.15433 0.35198
 H451 H 0.25425 0.21138 0.36288
 H452 H 0.30130 0.16030 0.41766
 C453 C 0.31016 0.71927 -0.13812
 C454 C 0.31801 0.71959 -0.19096
 C455 C 0.35798 0.69371 -0.21051
 C456 C 0.38464 0.66327 -0.18040
 C457 C 0.37241 0.65773 -0.12952
 C458 C 0.33805 0.68835 -0.10690
 C459 C 0.27450 0.74823 -0.11568
 C460 C 0.26677 0.74742 -0.06380
 C461 C 0.29498 0.71822 -0.03315
 C462 C 0.33059 0.68915 -0.05424
 H463 H 0.25339 0.77249 -0.13759
 H464 H 0.23937 0.77009 -0.04720
 H465 H 0.28963 0.71839 0.00726
 H466 H 0.35306 0.66846 -0.02860
 H467 H 0.36498 0.69391 -0.25070
 H468 H 0.41203 0.64146 -0.19844
 C469 C 1.14448 -0.19664 -0.15380
 C470 C 1.17482 -0.18471 -0.19507
 C471 C 1.17731 -0.14118 -0.20836
 C472 C 1.14864 -0.10964 -0.18298
 C473 C 1.11747 -0.12078 -0.14310
 C474 C 1.11536 -0.16433 -0.12775
 C475 C 1.14339 -0.23980 -0.13701
 C476 C 1.11315 -0.25102 -0.09662
 C477 C 1.08365 -0.21951 -0.07203
 C478 C 1.08480 -0.17647 -0.08710
 H479 H 1.16673 -0.26499 -0.15410
 H480 H 1.11274 -0.28430 -0.08426
 H481 H 1.05993 -0.22844 -0.04100
 H482 H 1.06156 -0.15291 -0.06678
 H483 H 1.20084 -0.13157 -0.23929
 H484 H 1.15112 -0.07619 -0.19426
 C485 C 1.14662 0.30157 0.35003
 C486 C 1.17512 0.31334 0.30740
 C487 C 1.17505 0.35668 0.29244
 C488 C 1.14627 0.38812 0.31802
 C489 C 1.11759 0.37722 0.35987
 C490 C 1.11786 0.33387 0.37664
 C491 C 1.14659 0.25851 0.36730
 C492 C 1.11873 0.24749 0.40949
 C493 C 1.09035 0.27903 0.43522
 C494 C 1.08972 0.32186 0.41906
 H495 H 1.16831 0.23315 0.34871
 H496 H 1.11922 0.21429 0.42229
 H497 H 1.06877 0.27027 0.46792
 H498 H 1.06700 0.34538 0.43997
 H499 H 1.19651 0.36613 0.25992
 H500 H 1.14680 0.42136 0.30537
 C501 C 0.67868 -0.18577 0.35852
 C502 C 0.67757 -0.18100 0.30522
 C503 C 0.64578 -0.14840 0.28308
 C504 C 0.61712 -0.11979 0.31238
 C505 C 0.61808 -0.12343 0.36501
 C506 C 0.64764 -0.15754 0.38863
 C507 C 0.70824 -0.21911 0.38248
 C508 C 0.70611 -0.22592 0.43437
 C509 C 0.67440 -0.19948 0.46357
 C510 C 0.64534 -0.16561 0.44112
 H511 H 0.73283 -0.24020 0.36120
 H512 H 0.72850 -0.25230 0.45179
 H513 H 0.67189 -0.20542 0.50373
 H514 H 0.61997 -0.14704 0.46520
 H515 H 0.64229 -0.14522 0.24261
 H516 H 0.59421 -0.09431 0.29360
 C517 C 0.69915 0.32437 -0.14474
 C518 C 0.68338 0.31768 -0.19603
 C519 C 0.63858 0.34008 -0.21403
 C520 C 0.61106 0.36916 -0.18440
 C521 C 0.62530 0.37645 -0.13420
 C522 C 0.66866 0.35244 -0.11314
 C523 C 0.74176 0.30135 -0.12248
 C524 C 0.75520 0.30615 -0.07185
 C525 C 0.72490 0.33210 -0.04112
 C526 C 0.68139 0.35388 -0.06093
 H527 H 0.76493 0.27875 -0.14294
 H528 H 0.78853 0.28859 -0.05607
 H529 H 0.73444 0.33476 -0.00137
 H530 H 0.65748 0.36996 -0.03372
 H531 H 0.62495 0.33621 -0.25252
 H532 H 0.57815 0.38643 -0.20152
 C533 C 1.16206 0.15694 -0.21257
 C534 C 1.18261 0.19228 -0.18487
 C535 C 1.17259 0.19516 -0.13289
 C536 C 1.14487 0.16437 -0.10840
 C537 C 1.12579 0.12949 -0.13454
 C538 C 1.13528 0.12473 -0.18662
 C539 C 1.16786 0.15221 -0.26548
 C540 C 1.15067 0.11632 -0.29098
 C541 C 1.12747 0.08393 -0.26483
 C542 C 1.11996 0.08783 -0.21324
 H543 H 1.18579 0.17561 -0.28849
 H544 H 1.15607 0.11338 -0.33124
 H545 H 1.11522 0.05560 -0.28460
 H546 H 1.10294 0.06109 -0.19463
 H547 H 1.18535 0.22132 -0.11002
 H548 H 1.13767 0.16813 -0.06847
 C549 C 1.16144 0.65468 0.28551
 C550 C 1.18369 0.68933 0.31299
 C551 C 1.17698 0.69086 0.36559
 C552 C 1.14948 0.66016 0.39061
 C553 C 1.12747 0.62650 0.36446
 C554 C 1.13452 0.62266 0.31180
 C555 C 1.16588 0.65039 0.23246
 C556 C 1.14627 0.61556 0.20673
 C557 C 1.12237 0.58357 0.23290
 C558 C 1.11685 0.58673 0.28484
 H559 H 1.18502 0.67313 0.20965
 H560 H 1.15052 0.61303 0.16628
 H561 H 1.10833 0.55598 0.21292
 H562 H 1.09965 0.56007 0.30339
 H563 H 1.19242 0.71585 0.38857
 H564 H 1.14468 0.66311 0.43100
 C565 C 0.65409 0.15712 0.28510
 C566 C 0.68035 0.18925 0.31323
 C567 C 0.67726 0.18848 0.36622
 C568 C 0.65068 0.15719 0.39112
 C569 C 0.62617 0.12512 0.36446
 C570 C 0.62893 0.12395 0.31112
 C571 C 0.65289 0.15644 0.23157
 C572 C 0.63033 0.12347 0.20488
 C573 C 0.60907 0.08981 0.23052
 C574 C 0.60871 0.08967 0.28298
 H575 H 0.66954 0.18078 0.20908
 H576 H 0.63033 0.12364 0.16402
 H577 H 0.59299 0.06352 0.20967
 H578 H 0.59360 0.06172 0.30075
 H579 H 0.69478 0.21214 0.38966
 H580 H 0.64873 0.15841 0.43192
 C581 C 0.66139 0.65375 -0.21410
 C582 C 0.68267 0.68975 -0.18757
 C583 C 0.67309 0.69317 -0.13538
 C584 C 0.64676 0.66203 -0.10962
 C585 C 0.62828 0.62620 -0.13450
 C586 C 0.63675 0.62106 -0.18671
 C587 C 0.66446 0.64877 -0.26732
 C588 C 0.64742 0.61227 -0.29165
 C589 C 0.62727 0.57926 -0.26405
 C590 C 0.62221 0.58331 -0.21218
 H591 H 0.68062 0.67228 -0.29140
 H592 H 0.65089 0.60926 -0.33215
 H593 H 0.61548 0.55034 -0.28289
 H594 H 0.60771 0.55601 -0.19245
 H595 H 0.68458 0.72042 -0.11349
 H596 H 0.63981 0.66646 -0.06975
 C597 C 0.84423 -0.16796 -0.21471
 C598 C 0.79893 -0.18392 -0.19318
 C599 C 0.78152 -0.16429 -0.14847
 C600 C 0.80597 -0.12964 -0.12670
 C601 C 0.84815 -0.11128 -0.14915
 C602 C 0.86578 -0.12929 -0.19567
 C603 C 0.87139 -0.19115 -0.25215
 C604 C 0.91214 -0.17344 -0.27680
 C605 C 0.92736 -0.13256 -0.26412
 C606 C 0.90472 -0.11067 -0.22398
 H607 H 0.86265 -0.22370 -0.26165
 H608 H 0.93162 -0.19136 -0.30623
 H609 H 0.95771 -0.11810 -0.28472
 H610 H 0.91757 -0.07877 -0.21710
 H611 H 0.74740 -0.17483 -0.13032
 H612 H 0.79106 -0.11683 -0.09173
 C613 C 0.85636 0.31436 0.31647
 C614 C 0.80201 0.31574 0.31454
 C615 C 0.77482 0.34913 0.33897
 C616 C 0.80034 0.38144 0.36415
 C617 C 0.85404 0.38143 0.36608
 C618 C 0.88270 0.34698 0.34313
 C619 C 0.88515 0.28039 0.29394
 C620 C 0.93851 0.27809 0.29783
 C621 C 0.96421 0.30909 0.32490
 C622 C 0.93679 0.34301 0.34771
 H623 H 0.86673 0.25510 0.27368
 H624 H 0.96000 0.25172 0.28041
 H625 H 1.00561 0.30661 0.32872
 H626 H 0.95861 0.36508 0.36992
 H627 H 0.73326 0.35026 0.33836
 H628 H 0.77776 0.40714 0.38167
 C629 C 0.25925 -0.14042 0.33343
 C630 C 0.28930 -0.17378 0.31047
 C631 C 0.34251 -0.17076 0.30946
 C632 C 0.36664 -0.13741 0.33402
 C633 C 0.33837 -0.10537 0.35988
 C634 C 0.28381 -0.10561 0.35779
 C635 C 0.20512 -0.14021 0.33122
 C636 C 0.17575 -0.10661 0.35220
 C637 C 0.19950 -0.07229 0.37500
 C638 C 0.25285 -0.07145 0.37747
 H639 H 0.18493 -0.16543 0.31236
 H640 H 0.13431 -0.10682 0.34998
 H641 H 0.17642 -0.04583 0.39027
 H642 H 0.26898 -0.04307 0.39350
 H643 H 0.36595 -0.19513 0.29088
 H644 H 0.40815 -0.13739 0.33395
 C645 C 0.25906 0.35520 -0.15863
 C646 C 0.28719 0.32697 -0.19137
 C647 C 0.33708 0.33732 -0.20417
 C648 C 0.36186 0.37044 -0.17984
 C649 C 0.33691 0.39622 -0.14377
 C650 C 0.28367 0.39075 -0.13578
 C651 C 0.20575 0.35131 -0.15164
 C652 C 0.17784 0.38036 -0.12202
 C653 C 0.20152 0.41508 -0.10043
 C654 C 0.25341 0.42085 -0.10795
 H655 H 0.18426 0.32698 -0.17042
 H656 H 0.13716 0.37671 -0.11722
 H657 H 0.17920 0.43848 -0.07894
 H658 H 0.26798 0.45044 -0.09379
 H659 H 0.35875 0.31778 -0.23060
 H660 H 0.40171 0.37495 -0.18828
 C661 C 1.14566 -0.20556 0.14498
 C662 C 1.18239 -0.19286 0.18174
 C663 C 1.19129 -0.14896 0.18771
 C664 C 1.16300 -0.11773 0.15988
 C665 C 1.12480 -0.12944 0.12552
 C666 C 1.11594 -0.17349 0.11741
 C667 C 1.13830 -0.24937 0.13433
 C668 C 1.10083 -0.26132 0.09952
 C669 C 1.07047 -0.22994 0.07411
 C670 C 1.07819 -0.18635 0.08239
 H671 H 1.16184 -0.27469 0.15210
 H672 H 1.09540 -0.29511 0.09217
 H673 H 1.04110 -0.23944 0.04755
 H674 H 1.05445 -0.16290 0.06119
 H675 H 1.21913 -0.13859 0.21545
 H676 H 1.17024 -0.08401 0.16600
 C677 C 1.19191 0.31149 0.63290
 C678 C 1.18535 0.30985 0.68582
 C679 C 1.14824 0.33727 0.70781
 C680 C 1.11818 0.36617 0.67875
 C681 C 1.12315 0.36810 0.62629
 C682 C 1.15887 0.33927 0.60252
 C683 C 1.22966 0.28540 0.60929
 C684 C 1.23293 0.28426 0.55688
 C685 C 1.19842 0.30899 0.52700
 C686 C 1.16166 0.33620 0.54938
 H687 H 1.25721 0.26618 0.63114
 H688 H 1.26194 0.26368 0.53940
 H689 H 1.20014 0.30713 0.48627
 H690 H 1.13480 0.35355 0.52443
 H691 H 1.14241 0.33632 0.74813
 H692 H 1.09117 0.38765 0.69780
 C693 C 0.63565 -0.20371 0.65904
 C694 C 0.68153 -0.19402 0.68644
 C695 C 0.69932 -0.15198 0.68262
 C696 C 0.67080 -0.11954 0.65674
 C697 C 0.62324 -0.12763 0.63434
 C698 C 0.60548 -0.16995 0.63470
 C699 C 0.62096 -0.24656 0.65175
 C700 C 0.57555 -0.25555 0.62612
 C701 C 0.54442 -0.22220 0.60567
 C702 C 0.55941 -0.17978 0.60920
 H703 H 0.64531 -0.27357 0.66394
 H704 H 0.56487 -0.28864 0.62151
 H705 H 0.50924 -0.22932 0.58568
 H706 H 0.53513 -0.15499 0.59091
 H707 H 0.73400 -0.14304 0.70226
 H708 H 0.68528 -0.08736 0.65555
 C709 C 0.65377 0.29965 0.14565
 C710 C 0.68096 0.31183 0.18991
 C711 C 0.67883 0.35491 0.20517
 C712 C 0.64915 0.38580 0.17815
 C713 C 0.62185 0.37451 0.13456
 C714 C 0.62465 0.33148 0.11728
 C715 C 0.65528 0.25663 0.12863
 C716 C 0.62936 0.24536 0.08446
 C717 C 0.60117 0.27658 0.05656
 C718 C 0.59854 0.31927 0.07276
 H719 H 0.67756 0.23162 0.14852
 H720 H 0.63141 0.21227 0.07167
 H721 H 0.58117 0.26767 0.02225
 H722 H 0.57591 0.34251 0.05019
 H723 H 0.69900 0.36443 0.23919
 H724 H 0.64763 0.41885 0.19119
 C725 C 0.81171 0.21147 0.13534
 C726 C 0.81802 0.20898 0.18865
 C727 C 0.85477 0.17938 0.20928
 C728 C 0.88008 0.14917 0.17922
 C729 C 0.86955 0.14717 0.12722
 C730 C 0.83778 0.18036 0.10425
 C731 C 0.77926 0.24342 0.11215
 C732 C 0.77184 0.24466 0.05995
 C733 C 0.79801 0.21509 0.02959
 C734 C 0.83128 0.18361 0.05128
 H735 H 0.76000 0.26814 0.13382
 H736 H 0.74602 0.26899 0.04302
 H737 H 0.79289 0.21674 -0.01103
 H738 H 0.85242 0.16275 0.02593
 H739 H 0.86069 0.17713 0.24983
 H740 H 0.90529 0.12507 0.19770
 C741 C 0.81434 0.71395 0.63755
 C742 C 0.81632 0.70943 0.69131
 C743 C 0.85064 0.67785 0.71259
 C744 C 0.87710 0.64804 0.68310
 C745 C 0.87091 0.64831 0.63063
 C746 C 0.84262 0.68333 0.60721
 C747 C 0.78326 0.74609 0.61258
 C748 C 0.78282 0.75012 0.56016
 C749 C 0.81247 0.72185 0.53117
 C750 C 0.84189 0.68860 0.55427
 H751 H 0.75930 0.76878 0.63252
 H752 H 0.75963 0.77566 0.54198
 H753 H 0.81267 0.72561 0.49054
 H754 H 0.86496 0.66786 0.53026
 H755 H 0.85476 0.67450 0.75325
 H756 H 0.90002 0.62267 0.70206
 C757 C 0.37324 0.20451 0.69749
 C758 C 0.31929 0.20999 0.69349
 C759 C 0.29282 0.18887 0.65507
 C760 C 0.31824 0.16077 0.62270
 C761 C 0.37107 0.15211 0.62817
 C762 C 0.39971 0.17629 0.66351
 C763 C 0.40127 0.22534 0.73548
 C764 C 0.45463 0.22048 0.73831
 C765 C 0.48085 0.19483 0.70349
 C766 C 0.45384 0.17295 0.66635
 H767 H 0.38216 0.24544 0.76311
 H768 H 0.47577 0.23698 0.76738
 H769 H 0.52232 0.19182 0.70531
 H770 H 0.47589 0.15433 0.63940
 H771 H 0.25138 0.19206 0.65211
 H772 H 0.29555 0.14314 0.59579
 C773 C 0.37125 0.70168 0.19693
 C774 C 0.31843 0.71162 0.18856
 C775 C 0.29402 0.69646 0.14501
 C776 C 0.31961 0.66783 0.11288
 C777 C 0.37074 0.65426 0.12286
 C778 C 0.39838 0.67466 0.16229
 C779 C 0.39746 0.71719 0.23966
 C780 C 0.45015 0.70917 0.24620
 C781 C 0.47753 0.68560 0.21035
 C782 C 0.45208 0.66850 0.16873
 H783 H 0.37740 0.73563 0.26810
 H784 H 0.46993 0.72177 0.27886
 H785 H 0.51864 0.68040 0.21490
 H786 H 0.47515 0.65157 0.14116
 H787 H 0.25352 0.70378 0.13826
 H788 H 0.29795 0.65369 0.08235
   
