data_POSCAR
  _audit_creation_date              2014-09-24
  _audit_creation_method            'ToBaCCo'
  _symmetry_space_group_name_H-M    'P1'
  _symmetry_Int_Tables_number       1
  _symmetry_cell_setting            triclinic
  loop_
  _symmetry_equiv_pos_as_xyz
 x,y,z
_cell_length_a 42.6215
_cell_length_b 42.5870
_cell_length_c 42.5118
_cell_angle_alpha 89.703400
_cell_angle_beta 89.991200
_cell_angle_gamma 90.218000
loop_
  _atom_site_label
  _atom_site_type_symbol
  _atom_site_fract_x
  _atom_site_fract_y
  _atom_site_fract_z
C1 C 0.20172 0.52467 1.03597
 H2 H 0.19939 0.54008 1.01580
 C3 C 0.18104 0.52740 1.06121
 H4 H 0.16223 0.54432 1.05944
 C5 C 0.22720 0.48185 1.06063
 H6 H 0.24483 0.46372 1.06006
 C7 C 0.20729 0.48404 1.08665
 H8 H 0.21070 0.46793 1.10612
 N9 N 0.22436 0.50234 1.03618
 C10 C 0.29640 0.53817 0.97293
 H11 H 0.29548 0.52063 0.95463
 C12 C 0.31909 0.56183 0.97178
 H13 H 0.33549 0.56278 0.95232
 C14 C 0.27691 0.55767 1.02129
 H15 H 0.26094 0.55545 1.04092
 C16 C 0.29944 0.58160 1.02118
 H17 H 0.30055 0.59792 1.04061
 Zn18 Zn 0.24993 0.50054 0.99988
 N19 N 0.27608 0.53636 0.99755
 C20 C 0.22127 0.52245 0.94351
 N21 N 0.22262 0.49858 0.96489
 C22 C 0.20244 0.47381 0.96351
 C23 C 0.17963 0.47242 0.94001
 C24 C 0.19862 0.52211 0.91976
 C25 C 0.29853 0.46471 1.02479
 C26 C 0.32141 0.44140 1.02558
 C27 C 0.30007 0.42032 0.97741
 C28 C 0.27735 0.44389 0.97768
 N29 N 0.27709 0.46556 1.00111
 H30 H 0.23703 0.54226 0.94544
 H31 H 0.20374 0.45541 0.98110
 H32 H 0.16353 0.45271 0.93926
 H33 H 0.19725 0.54153 0.90327
 H34 H 0.29823 0.48264 1.04272
 H35 H 0.33846 0.44107 1.04447
 H36 H 0.30054 0.40358 0.95832
 H37 H 0.26066 0.44544 0.95863
 C38 C 0.32130 0.58329 0.99659
 C39 C 0.18396 0.50745 1.08761
 C40 C 0.32278 0.41937 1.00124
 C41 C 0.17712 0.49718 0.91830
 C42 C 0.79687 0.52530 -0.03958
 H43 H 0.79540 0.54448 -0.02306
 C44 C 0.81979 0.52570 -0.06299
 H45 H 0.83582 0.54543 -0.06477
 C46 C 0.77847 0.47563 -0.05675
 H47 H 0.76290 0.45578 -0.05366
 C48 C 0.80122 0.47499 -0.08041
 H49 H 0.80283 0.45481 -0.09572
 N50 N 0.77688 0.50048 -0.03682
 C51 C 0.70306 0.53765 0.02307
 H52 H 0.70432 0.52085 0.04220
 C53 C 0.68014 0.56092 0.02330
 H54 H 0.66391 0.56231 0.04285
 C55 C 0.72199 0.55567 -0.02632
 H56 H 0.73779 0.55297 -0.04599
 C57 C 0.69927 0.57925 -0.02711
 H58 H 0.69789 0.59490 -0.04722
 Zn59 Zn 0.75000 0.50009 -0.00151
 N60 N 0.72329 0.53536 -0.00154
 C61 C 0.77791 0.52500 0.05391
 N62 N 0.77639 0.49998 0.03417
 C63 C 0.79624 0.47524 0.03731
 C64 C 0.81903 0.47516 0.06084
 C65 C 0.80057 0.52598 0.07766
 C66 C 0.70360 0.46208 -0.02689
 C67 C 0.68078 0.43856 -0.02755
 C68 C 0.69897 0.42046 0.02323
 C69 C 0.72165 0.44426 0.02285
 N70 N 0.72336 0.46458 -0.00191
 H71 H 0.76243 0.54476 0.05053
 H72 H 0.79484 0.45592 0.02094
 H73 H 0.83498 0.45551 0.06288
 H74 H 0.80220 0.54634 0.09274
 H75 H 0.70518 0.47889 -0.04599
 H76 H 0.66493 0.43700 -0.04740
 H77 H 0.69722 0.40483 0.04334
 H78 H 0.73706 0.44714 0.04282
 C79 C 0.67766 0.58152 -0.00238
 C80 C 0.82257 0.49996 -0.08319
 C81 C 0.67784 0.41796 -0.00191
 C82 C 0.82187 0.50115 0.08075
 C83 C -0.02296 0.29974 0.45826
 H84 H -0.04233 0.29823 0.47465
 C85 C -0.02292 0.32275 0.43478
 H86 H -0.04245 0.33890 0.43343
 C87 C 0.02659 0.28128 0.44139
 H88 H 0.04604 0.26534 0.44431
 C89 C 0.02780 0.30422 0.41782
 H90 H 0.04778 0.30487 0.40207
 N91 N 0.00156 0.27963 0.46118
 C92 C -0.03709 0.20374 0.51888
 H93 H -0.01959 0.20306 0.53730
 C94 C -0.06223 0.18267 0.51953
 H95 H -0.06419 0.16580 0.53858
 C96 C -0.05546 0.22605 0.47112
 H97 H -0.05233 0.24247 0.45193
 C98 C -0.08092 0.20528 0.47078
 H99 H -0.09740 0.20592 0.45140
 Zn100 Zn 0.00127 0.25172 0.49593
 N101 N -0.03437 0.22512 0.49515
 C102 C -0.02242 0.27551 0.55387
 N103 N 0.00134 0.27687 0.53250
 C104 C 0.02540 0.29769 0.53565
 C105 C 0.02658 0.31779 0.56144
 C106 C -0.02217 0.29524 0.58003
 C107 C 0.03993 0.20567 0.47036
 C108 C 0.06484 0.18452 0.46910
 C109 C 0.08286 0.20401 0.51927
 C110 C 0.05765 0.22486 0.51955
 N111 N 0.03692 0.22543 0.49521
 H112 H -0.04183 0.25951 0.55049
 H113 H 0.04361 0.29874 0.51794
 H114 H 0.04573 0.33443 0.56360
 H115 H -0.04121 0.29409 0.59688
 H116 H 0.02274 0.20620 0.45165
 H117 H 0.06692 0.16878 0.44929
 H118 H 0.09895 0.20334 0.53898
 H119 H 0.05433 0.24004 0.53954
 C120 C -0.08461 0.18353 0.49540
 C121 C 0.00323 0.32604 0.41478
 C122 C 0.08670 0.18371 0.49371
 C123 C 0.00271 0.31645 0.58409
 C124 C 0.97280 0.70374 0.53889
 H125 H 0.95486 0.70360 0.52088
 C126 C 0.97149 0.68204 0.56356
 H127 H 0.95239 0.66522 0.56467
 C128 C 1.02016 0.72519 0.55886
 H129 H 1.03948 0.74151 0.55652
 C130 C 1.01978 0.70383 0.58392
 H131 H 1.03874 0.70391 0.60089
 N132 N 0.99676 0.72486 0.53709
 C133 C 0.96007 0.79942 0.47694
 H134 H 0.97789 0.79993 0.45881
 C135 C 0.93521 0.82062 0.47581
 H136 H 0.93377 0.83743 0.45666
 C137 C 0.94069 0.77749 0.52454
 H138 H 0.94331 0.76116 0.54387
 C139 C 0.91551 0.79839 0.52439
 H140 H 0.89876 0.79796 0.54356
 Zn141 Zn 0.99761 0.75159 0.50143
 N142 N 0.96219 0.77822 0.50088
 C143 C 0.97533 0.72668 0.44329
 N144 N 0.99808 0.72531 0.46572
 C145 C 1.02145 0.70369 0.46431
 C146 C 1.02289 0.68265 0.43933
 C147 C 0.97593 0.70607 0.41783
 C148 C 1.03624 0.79877 0.52573
 C149 C 1.06145 0.81977 0.52653
 C150 C 1.08044 0.79756 0.47795
 C151 C 1.05491 0.77691 0.47810
 N152 N 1.03356 0.77775 0.50188
 H153 H 0.95647 0.74341 0.44528
 H154 H 1.03889 0.70277 0.48277
 H155 H 1.04157 0.66549 0.43845
 H156 H 0.95764 0.70712 0.40018
 H157 H 1.01855 0.79935 0.54397
 H158 H 1.06329 0.83650 0.54555
 H159 H 1.09705 0.79706 0.45868
 H160 H 1.05188 0.76072 0.45886
 C161 C 0.91249 0.82006 0.49964
 C162 C 0.99513 0.68207 0.58646
 C163 C 1.08396 0.81912 0.50252
 C164 C 1.00005 0.68391 0.41568
 C165 C 0.46217 -0.02787 0.29579
 H166 H 0.47980 -0.04608 0.29548
 C167 C 0.43873 -0.02843 0.31867
 H168 H 0.43801 -0.04739 0.33574
 C169 C 0.44237 0.01977 0.27472
 H170 H 0.44443 0.03896 0.25812
 C171 C 0.41866 0.02027 0.29744
 H172 H 0.40231 0.03967 0.29801
 N173 N 0.46368 -0.00395 0.27452
 C174 C 0.52520 -0.03880 0.20077
 H175 H 0.54174 -0.01949 0.19986
 C176 C 0.52804 -0.06368 0.17978
 H177 H 0.54725 -0.06343 0.16310
 C178 C 0.48005 -0.06207 0.22369
 H179 H 0.46081 -0.06086 0.24016
 C180 C 0.48223 -0.08766 0.20336
 H181 H 0.46418 -0.10562 0.20422
 Zn182 Zn 0.49938 -0.00265 0.24821
 N183 N 0.50162 -0.03850 0.22227
 C184 C 0.55589 -0.02438 0.27648
 N185 N 0.53433 -0.00090 0.27545
 C186 C 0.53538 0.02340 0.29605
 C187 C 0.55869 0.02468 0.31902
 C188 C 0.57947 -0.02416 0.29932
 C189 C 0.47487 0.03464 0.19993
 C190 C 0.47451 0.05871 0.17751
 C191 C 0.52289 0.07869 0.19948
 C192 C 0.52233 0.05426 0.22150
 N193 N 0.49858 0.03280 0.22127
 H194 H 0.55425 -0.04380 0.26030
 H195 H 0.51765 0.04148 0.29496
 H196 H 0.55916 0.04403 0.33546
 H197 H 0.59612 -0.04328 0.30047
 H198 H 0.45658 0.01695 0.19996
 H199 H 0.45583 0.05968 0.16027
 H200 H 0.54212 0.09539 0.19948
 H201 H 0.54135 0.05199 0.23812
 C202 C 0.50672 -0.08900 0.18115
 C203 C 0.41723 -0.00367 0.32015
 C204 C 0.49903 0.08068 0.17690
 C205 C 0.58055 0.00027 0.32129
 C206 C 0.53542 -0.02251 0.70007
 H207 H 0.51819 -0.04122 0.70093
 C208 C 0.55894 -0.02286 0.67727
 H209 H 0.56006 -0.04209 0.66073
 C210 C 0.55449 0.02582 0.72007
 H211 H 0.55221 0.04506 0.73636
 C212 C 0.57829 0.02652 0.69744
 H213 H 0.59446 0.04618 0.69655
 N214 N 0.53357 0.00159 0.72083
 C215 C 0.47484 -0.03643 0.79593
 H216 H 0.45686 -0.01858 0.79650
 C217 C 0.47376 -0.06147 0.81719
 H218 H 0.45481 -0.06302 0.83410
 C219 C 0.52199 -0.05573 0.77374
 H220 H 0.54112 -0.05300 0.75728
 C221 C 0.52185 -0.08116 0.79466
 H222 H 0.54079 -0.09803 0.79410
 Zn223 Zn 0.49859 0.00166 0.74812
 N224 N 0.49853 -0.03416 0.77459
 C225 C 0.44112 -0.02171 0.72300
 N226 N 0.46250 0.00210 0.72224
 C227 C 0.45984 0.02627 0.70138
 C228 C 0.43458 0.02746 0.68054
 C229 C 0.41554 -0.02150 0.70246
 C230 C 0.52335 0.03950 0.79554
 C231 C 0.52358 0.06331 0.81798
 C232 C 0.47429 0.08198 0.79705
 C233 C 0.47497 0.05780 0.77501
 N234 N 0.49921 0.03709 0.77475
 H235 H 0.44416 -0.04120 0.73904
 H236 H 0.47756 0.04452 0.70084
 H237 H 0.43276 0.04677 0.66396
 H238 H 0.39892 -0.04080 0.70286
 H239 H 0.54204 0.02240 0.79512
 H240 H 0.54258 0.06468 0.83484
 H241 H 0.45466 0.09805 0.79748
 H242 H 0.45564 0.05508 0.75883
 C243 C 0.49737 -0.08426 0.81651
 C244 C 0.58022 0.00225 0.67537
 C245 C 0.49852 0.08445 0.81919
 C246 C 0.41201 0.00345 0.68111
 C247 C 0.29682 0.02476 0.46098
 H248 H 0.29568 0.04392 0.47754
 C249 C 0.31971 0.02484 0.43754
 H250 H 0.33604 0.04433 0.43578
 C251 C 0.27744 -0.02445 0.44356
 H252 H 0.26140 -0.04395 0.44648
 C253 C 0.30018 -0.02543 0.41990
 H254 H 0.30136 -0.04554 0.40447
 N255 N 0.27629 0.00036 0.46358
 C256 C 0.20137 0.03939 0.52116
 H257 H 0.20073 0.02210 0.53989
 C258 C 0.18049 0.06454 0.52143
 H259 H 0.16378 0.06672 0.54048
 C260 C 0.22338 0.05721 0.47301
 H261 H 0.23962 0.05387 0.45383
 C262 C 0.20284 0.08269 0.47231
 H263 H 0.20346 0.09897 0.45266
 Zn264 Zn 0.24879 0.00072 0.49848
 N265 N 0.22247 0.03637 0.49738
 C266 C 0.27399 0.02526 0.55550
 N267 N 0.27447 0.00105 0.53473
 C268 C 0.29507 -0.02306 0.53801
 C269 C 0.31596 -0.02376 0.56326
 C270 C 0.29460 0.02556 0.58106
 C271 C 0.20240 -0.03861 0.47384
 C272 C 0.18123 -0.06369 0.47323
 C273 C 0.20111 -0.08074 0.52372
 C274 C 0.22196 -0.05538 0.52335
 N275 N 0.22237 -0.03506 0.49853
 H276 H 0.25816 0.04470 0.55194
 H277 H 0.29540 -0.04164 0.52075
 H278 H 0.33233 -0.04302 0.56556
 H279 H 0.29445 0.04517 0.59717
 H280 H 0.20279 -0.02172 0.45475
 H281 H 0.16534 -0.06623 0.45352
 H282 H 0.20060 -0.09650 0.54379
 H283 H 0.23728 -0.05161 0.54321
 C284 C 0.18130 0.08664 0.49690
 C285 C 0.32198 -0.00084 0.41718
 C286 C 0.18062 -0.08516 0.49832
 C287 C 0.31571 0.00069 0.58519
 C288 C 0.70328 0.02821 0.53595
 H289 H 0.70467 0.04694 0.51871
 C290 C 0.68034 0.02900 0.55931
 H291 H 0.66425 0.04859 0.56033
 C292 C 0.72180 -0.02080 0.55493
 H293 H 0.73740 -0.04058 0.55256
 C294 C 0.69898 -0.02107 0.57856
 H295 H 0.69735 -0.04089 0.59455
 N296 N 0.72333 0.00352 0.53408
 C297 C 0.79627 0.04088 0.47221
 H298 H 0.79573 0.02338 0.45385
 C299 C 0.81745 0.06589 0.47035
 H300 H 0.83321 0.06775 0.45044
 C301 C 0.77702 0.05929 0.52107
 H302 H 0.76180 0.05619 0.54117
 C303 C 0.79794 0.08461 0.52021
 H304 H 0.79862 0.10100 0.53960
 Zn305 Zn 0.74989 0.00254 0.49851
 N306 N 0.77643 0.03818 0.49715
 C307 C 0.72142 0.02589 0.44237
 N308 N 0.72284 0.00166 0.46333
 C309 C 0.70252 -0.02298 0.46175
 C310 C 0.67951 -0.02389 0.43847
 C311 C 0.69853 0.02604 0.41883
 C312 C 0.79608 -0.03628 0.52405
 C313 C 0.81690 -0.06147 0.52546
 C314 C 0.79656 -0.07963 0.47568
 C315 C 0.77601 -0.05417 0.47528
 N316 N 0.77598 -0.03326 0.49938
 H317 H 0.73727 0.04562 0.44452
 H318 H 0.70385 -0.04164 0.47906
 H319 H 0.66330 -0.04352 0.43758
 H320 H 0.69707 0.04572 0.40267
 H321 H 0.79600 -0.01894 0.54255
 H322 H 0.83285 -0.06361 0.54518
 H323 H 0.79677 -0.09587 0.45616
 H324 H 0.76062 -0.05080 0.45538
 C325 C 0.81826 0.08818 0.49448
 C326 C 0.67753 0.00372 0.58037
 C327 C 0.81710 -0.08357 0.50115
 C328 C 0.67688 0.00123 0.41722
 C329 C 0.47442 0.20229 1.03660
 H330 H 0.45579 0.20288 1.01934
 C331 C 0.47413 0.17951 1.06032
 H332 H 0.45513 0.16258 1.06146
 C333 C 0.52273 0.22273 1.05537
 H334 H 0.54205 0.23903 1.05283
 C335 C 0.52333 0.20036 1.07949
 H336 H 0.54290 0.19978 1.09574
 N337 N 0.49857 0.22317 1.03445
 C338 C 0.46185 0.29756 0.97436
 H339 H 0.47876 0.29655 0.95540
 C340 C 0.43867 0.32056 0.97410
 H341 H 0.43741 0.33704 0.95466
 C342 C 0.44348 0.27789 1.02334
 H343 H 0.44599 0.26171 1.04282
 C344 C 0.42007 0.30078 1.02417
 H345 H 0.40437 0.30192 1.04416
 Zn346 Zn 0.49907 0.25006 0.99897
 N347 N 0.46392 0.27691 0.99876
 C348 C 0.47506 0.22389 0.94231
 N349 N 0.49924 0.22387 0.96322
 C350 C 0.52320 0.20300 0.96083
 C351 C 0.52336 0.18081 0.93679
 C352 C 0.47431 0.20207 0.91789
 C353 C 0.53668 0.29705 1.02392
 C354 C 0.56026 0.31980 1.02450
 C355 C 0.57935 0.30021 0.97481
 C356 C 0.55546 0.27762 0.97525
 N357 N 0.53462 0.27664 0.99950
 H358 H 0.45586 0.24012 0.94504
 H359 H 0.54183 0.20319 0.97812
 H360 H 0.54224 0.16392 0.93544
 H361 H 0.45475 0.20186 0.90163
 H362 H 0.51947 0.29604 1.04261
 H363 H 0.56147 0.33617 1.04389
 H364 H 0.59541 0.30135 0.95509
 H365 H 0.55298 0.26165 0.95574
 C366 C 0.41803 0.32283 0.99965
 C367 C 0.49911 0.17809 1.08166
 C368 C 0.58140 0.32199 0.99934
 C369 C 0.49841 0.17992 0.91540
 C370 C 0.47622 0.79790 -0.03931
 H371 H 0.45817 0.79786 -0.02142
 C372 C 0.47474 0.81924 -0.06427
 H373 H 0.45542 0.83564 -0.06569
 C374 C 0.52388 0.77709 -0.05889
 H375 H 0.54335 0.76113 -0.05630
 C376 C 0.52332 0.79808 -0.08426
 H377 H 0.54226 0.79808 -0.10124
 N378 N 0.50038 0.77722 -0.03721
 C379 C 0.46210 0.70416 0.02377
 H380 H 0.47891 0.70515 0.04281
 C381 C 0.43837 0.68153 0.02419
 H382 H 0.43663 0.66528 0.04381
 C383 C 0.44455 0.72336 -0.02563
 H384 H 0.44761 0.73911 -0.04540
 C385 C 0.42057 0.70089 -0.02626
 H386 H 0.40500 0.69967 -0.04636
 Zn387 Zn 0.50082 0.75044 -0.00163
 N388 N 0.46487 0.72436 -0.00096
 C389 C 0.47783 0.77792 0.05475
 N390 N 0.50234 0.77640 0.03429
 C391 C 0.52815 0.79491 0.03785
 C392 C 0.53051 0.81525 0.06337
 C393 C 0.47902 0.79833 0.08036
 C394 C 0.53733 0.70309 -0.02755
 C395 C 0.56052 0.68010 -0.02862
 C396 C 0.57969 0.69820 0.02165
 C397 C 0.55621 0.72101 0.02169
 N398 N 0.53558 0.72297 -0.00268
 H399 H 0.45708 0.76382 0.05089
 H400 H 0.54694 0.79379 0.02079
 H401 H 0.55132 0.82967 0.06605
 H402 H 0.45917 0.79981 0.09617
 H403 H 0.52025 0.70476 -0.04630
 H404 H 0.56157 0.66424 -0.04843
 H405 H 0.59562 0.69639 0.04141
 H406 H 0.55389 0.73635 0.04169
 C407 C 0.41785 0.67923 -0.00146
 C408 C 0.49839 0.81929 -0.08716
 C409 C 0.58157 0.67712 -0.00347
 C410 C 0.50583 0.81694 0.08511
 C411 C 1.03512 0.48828 0.19573
 H412 H 1.01431 0.47465 0.19055
 C413 C 1.05984 0.48923 0.17420
 H414 H 1.05799 0.47629 0.15241
 C415 C 1.06254 0.52248 0.23000
 H416 H 1.06341 0.53581 0.25148
 C417 C 1.08807 0.52351 0.20944
 H418 H 1.10863 0.53721 0.21553
 N419 N 1.03666 0.50513 0.22279
 C420 C 0.97840 0.46857 0.29835
 H421 H 0.96186 0.48762 0.30067
 C422 C 0.97897 0.44453 0.32075
 H423 H 0.96272 0.44503 0.34033
 C424 C 1.02081 0.44552 0.27079
 H425 H 1.03743 0.44642 0.25160
 C426 C 1.02192 0.42077 0.29248
 H427 H 1.03923 0.40242 0.28979
 Zn428 Zn 1.00044 0.50515 0.24867
 N429 N 0.99949 0.46893 0.27436
 C430 C 0.94370 0.48242 0.22197
 N431 N 0.96519 0.50614 0.22170
 C432 C 0.96374 0.52977 0.20011
 C433 C 0.94019 0.52997 0.17734
 C434 C 0.91987 0.48158 0.19941
 C435 C 1.02242 0.54032 0.29938
 C436 C 1.02337 0.56480 0.32102
 C437 C 0.97894 0.58829 0.29474
 C438 C 0.97890 0.56338 0.27348
 N439 N 1.00071 0.54023 0.27592
 H440 H 0.94558 0.46363 0.23904
 H441 H 0.98142 0.54807 0.20016
 H442 H 0.93947 0.54870 0.16003
 H443 H 0.90332 0.46222 0.19929
 H444 H 1.03884 0.52111 0.30142
 H445 H 1.04080 0.56462 0.33956
 H446 H 0.96132 0.60647 0.29282
 H447 H 0.96117 0.56241 0.25538
 C448 C 1.00144 0.42072 0.31834
 C449 C 1.08646 0.50751 0.18071
 C450 C 1.00160 0.58926 0.31862
 C451 C 0.91846 0.50520 0.17637
 C452 C -0.03673 0.47244 0.79621
 H453 H -0.01957 0.45381 0.79556
 C454 C -0.06014 0.47211 0.81913
 H455 H -0.06127 0.45295 0.83596
 C456 C -0.05556 0.52076 0.77577
 H457 H -0.05315 0.54009 0.75939
 C458 C -0.07925 0.52145 0.79848
 H459 H -0.09524 0.54113 0.79926
 N460 N -0.03479 0.49656 0.77519
 C461 C 0.02533 0.45871 0.70162
 H462 H 0.04354 0.47648 0.70120
 C463 C 0.02663 0.43349 0.68083
 H464 H 0.04587 0.43184 0.66428
 C465 C -0.02263 0.43980 0.72289
 H466 H -0.04213 0.44272 0.73882
 C467 C -0.02226 0.41420 0.70247
 H468 H -0.04132 0.39731 0.70301
 Zn469 Zn 0.00053 0.49711 0.74833
 N470 N 0.00110 0.46126 0.72226
 C471 C 0.05660 0.47364 0.77632
 N472 N 0.03588 0.49786 0.77515
 C473 C 0.03775 0.52218 0.79568
 C474 C 0.06099 0.52269 0.81875
 C475 C 0.08012 0.47310 0.79924
 C476 C -0.02455 0.53499 0.70110
 C477 C -0.02640 0.56029 0.68021
 C478 C 0.02224 0.58034 0.70152
 C479 C 0.02315 0.55464 0.72207
 N480 N -0.00023 0.53280 0.72169
 H481 H 0.05425 0.45417 0.76030
 H482 H 0.02061 0.54083 0.79457
 H483 H 0.06204 0.54201 0.83519
 H484 H 0.09605 0.45338 0.80053
 H485 H -0.04251 0.51697 0.70094
 H486 H -0.04589 0.56183 0.66393
 H487 H 0.04105 0.59750 0.70177
 H488 H 0.04275 0.55201 0.73796
 C489 C 0.00272 0.41080 0.68133
 C490 C -0.08121 0.49723 0.82085
 C491 C -0.00294 0.58342 0.68051
 C492 C 0.08195 0.49751 0.82117
 C493 C 0.12647 0.10503 0.49479
 C494 C 0.10375 0.12836 0.49353
 C495 C 0.11221 0.16017 0.49368
 C496 C 0.14443 0.16859 0.49474
 C497 C 0.16760 0.14477 0.49641
 C498 C 0.15842 0.11273 0.49617
 C499 C 0.19925 0.15395 0.49876
 N500 N 0.20706 0.18485 0.49822
 N501 N 0.18539 0.20715 0.49562
 C502 C 0.15439 0.20010 0.49380
 H503 H 0.11906 0.08066 0.49454
 H504 H 0.07924 0.12153 0.49279
 H505 H 0.21786 0.13694 0.50119
 H506 H 0.13792 0.21920 0.49144
 C507 C 0.63695 0.65985 -0.00335
 C508 C 0.66010 0.63684 -0.00362
 C509 C 0.65207 0.60492 -0.00359
 C510 C 0.61996 0.59601 -0.00377
 C511 C 0.59640 0.61943 -0.00293
 C512 C 0.60509 0.65162 -0.00311
 C513 C 0.56482 0.60971 -0.00145
 N514 N 0.55750 0.57872 -0.00224
 N515 N 0.57957 0.55679 -0.00425
 C516 C 0.61049 0.56434 -0.00513
 H517 H 0.64394 0.68434 -0.00347
 H518 H 0.68452 0.64399 -0.00349
 H519 H 0.54586 0.62636 0.00052
 H520 H 0.62728 0.54550 -0.00707
 C521 C 0.87210 -0.10159 0.50164
 C522 C 0.89503 -0.12473 0.50075
 C523 C 0.88680 -0.15658 0.49963
 C524 C 0.85463 -0.16522 0.49920
 C525 C 0.83123 -0.14162 0.50057
 C526 C 0.84018 -0.10951 0.50141
 C527 C 0.79958 -0.15107 0.50148
 N528 N 0.79202 -0.18197 0.49982
 N529 N 0.81393 -0.20403 0.49742
 C530 C 0.84492 -0.19674 0.49697
 H531 H 0.87935 -0.07718 0.50220
 H532 H 0.91949 -0.11772 0.50115
 H533 H 0.78078 -0.13427 0.50370
 H534 H 0.86159 -0.21565 0.49469
 C535 C 0.36284 0.34065 1.00174
 C536 C 0.33991 0.36388 1.00154
 C537 C 0.34820 0.39574 1.00045
 C538 C 0.38039 0.40432 0.99930
 C539 C 0.40374 0.38069 1.00030
 C540 C 0.39476 0.34856 1.00091
 C541 C 0.43543 0.39012 1.00104
 N542 N 0.44304 0.42101 0.99920
 N543 N 0.42115 0.44311 0.99681
 C544 C 0.39016 0.43585 0.99669
 H545 H 0.35561 0.31623 1.00223
 H546 H 0.31544 0.35695 1.00241
 H547 H 0.45426 0.37333 1.00329
 H548 H 0.37355 0.45482 0.99431
 C549 C 0.87357 0.10563 0.49328
 C550 C 0.89692 0.12853 0.49396
 C551 C 0.88928 0.16046 0.49513
 C552 C 0.85727 0.16945 0.49570
 C553 C 0.83343 0.14608 0.49457
 C554 C 0.84179 0.11389 0.49379
 C555 C 0.80195 0.15585 0.49387
 N556 N 0.79495 0.18684 0.49548
 N557 N 0.81727 0.20868 0.49765
 C558 C 0.84814 0.20107 0.49790
 H559 H 0.88038 0.08115 0.49275
 H560 H 0.92125 0.12126 0.49346
 H561 H 0.78284 0.13924 0.49185
 H562 H 0.86516 0.21981 0.49999
 C563 C 0.36237 0.66181 -0.00332
 C564 C 0.33912 0.63871 -0.00330
 C565 C 0.34700 0.60680 -0.00269
 C566 C 0.37907 0.59801 -0.00181
 C567 C 0.40274 0.62152 -0.00251
 C568 C 0.39419 0.65369 -0.00270
 C569 C 0.43430 0.61192 -0.00338
 N570 N 0.44150 0.58096 -0.00205
 N571 N 0.41931 0.55896 -0.00004
 C572 C 0.38841 0.56638 0.00023
 H573 H 0.35549 0.68628 -0.00351
 H574 H 0.31474 0.64578 -0.00393
 H575 H 0.45335 0.62863 -0.00532
 H576 H 0.37155 0.54747 0.00225
 C577 C 0.12537 -0.10280 0.49870
 C578 C 0.10213 -0.12579 0.50030
 C579 C 0.10994 -0.15767 0.50206
 C580 C 0.14199 -0.16651 0.50248
 C581 C 0.16570 -0.14307 0.50047
 C582 C 0.15718 -0.11093 0.49890
 C583 C 0.19721 -0.15272 0.49967
 N584 N 0.20436 -0.18364 0.50196
 N585 N 0.18216 -0.20554 0.50488
 C586 C 0.15127 -0.19806 0.50530
 H587 H 0.11846 -0.07836 0.49759
 H588 H 0.07776 -0.11864 0.49987
 H589 H 0.21624 -0.13605 0.49705
 H590 H 0.13433 -0.21683 0.50802
 C591 C 0.63688 0.33942 0.99904
 C592 C 0.66010 0.36254 0.99935
 C593 C 0.65218 0.39444 0.99893
 C594 C 0.62010 0.40321 0.99854
 C595 C 0.59648 0.37968 0.99761
 C596 C 0.60507 0.34753 0.99836
 C597 C 0.56496 0.38923 0.99555
 N598 N 0.55772 0.42020 0.99590
 N599 N 0.57982 0.44225 0.99805
 C600 C 0.61070 0.43485 0.99947
 H601 H 0.64378 0.31497 0.99961
 H602 H 0.68450 0.35551 0.99966
 H603 H 0.54598 0.37247 0.99344
 H604 H 0.62750 0.45380 1.00152
 C605 C 0.47718 0.15181 1.12886
 C606 C 0.47713 0.12831 1.15178
 C607 C 0.50023 0.10502 1.15198
 C608 C 0.52352 0.10501 1.12816
 C609 C 0.52355 0.12891 1.10478
 C610 C 0.50033 0.15266 1.10547
 C611 C 0.54637 0.12763 1.08089
 N612 N 0.56779 0.10418 1.08079
 N613 N 0.56780 0.08179 1.10276
 C614 C 0.54636 0.08131 1.12632
 H615 H 0.45911 0.16962 1.12945
 H616 H 0.45902 0.12839 1.16967
 H617 H 0.54721 0.14476 1.06206
 H618 H 0.54720 0.06219 1.14311
 C619 C -0.00294 0.60273 0.62566
 C620 C -0.00343 0.62645 0.60305
 C621 C -0.00504 0.65807 0.61180
 C622 C -0.00687 0.66586 0.64414
 C623 C -0.00636 0.64164 0.66723
 C624 C -0.00403 0.60984 0.65777
 C625 C -0.00912 0.65009 0.69905
 N626 N -0.01191 0.68074 0.70705
 N627 N -0.01239 0.70344 0.68541
 C628 C -0.01012 0.69707 0.65427
 H629 H -0.00132 0.57855 0.61804
 H630 H -0.00215 0.62010 0.57843
 H631 H -0.00950 0.63268 0.71763
 H632 H -0.01129 0.71644 0.63779
 C633 C 0.49928 0.87450 -0.10508
 C634 C 0.49903 0.89769 -0.12824
 C635 C 0.49726 0.88981 -0.16014
 C636 C 0.49510 0.85775 -0.16880
 C637 C 0.49538 0.83408 -0.14515
 C638 C 0.49777 0.84267 -0.11305
 C639 C 0.49231 0.80257 -0.15446
 N640 N 0.48942 0.79541 -0.18537
 N641 N 0.48913 0.81760 -0.20755
 C642 C 0.49172 0.84849 -0.20034
 H643 H 0.50096 0.88145 -0.08065
 H644 H 0.50055 0.92207 -0.12123
 H645 H 0.49177 0.78357 -0.13751
 H646 H 0.49069 0.86544 -0.21931
 C647 C 0.97720 0.37800 0.34958
 C648 C 0.97736 0.35557 0.37347
 C649 C 1.00426 0.35030 0.39190
 C650 C 1.03113 0.36986 0.38687
 C651 C 1.03083 0.39279 0.36238
 C652 C 1.00373 0.39643 0.34335
 C653 C 1.05719 0.41255 0.35883
 N654 N 1.08194 0.40976 0.37861
 N655 N 1.08194 0.38899 0.40207
 C656 C 1.05736 0.36933 0.40714
 H657 H 0.95614 0.38088 0.33561
 H658 H 0.95646 0.34133 0.37667
 H659 H 1.05820 0.43072 0.34106
 H660 H 1.05830 0.35437 0.42766
 C661 C 0.51299 0.87120 0.10407
 C662 C 0.51385 0.89394 0.12736
 C663 C 0.50860 0.88619 0.15916
 C664 C 0.50470 0.85387 0.16744
 C665 C 0.50398 0.83064 0.14347
 C666 C 0.50741 0.83963 0.11148
 C667 C 0.50129 0.79889 0.15250
 N668 N 0.49971 0.79095 0.18336
 N669 N 0.50116 0.81252 0.20584
 C670 C 0.50398 0.84352 0.19901
 H671 H 0.51598 0.87849 0.07979
 H672 H 0.51690 0.91816 0.12002
 H673 H 0.50123 0.78017 0.13545
 H674 H 0.50667 0.85954 0.21843
 C675 C -0.02166 0.38274 0.63678
 C676 C -0.02167 0.36001 0.61337
 C677 C 0.00292 0.33843 0.61098
 C678 C 0.02741 0.33899 0.63356
 C679 C 0.02742 0.36216 0.65744
 C680 C 0.00295 0.38460 0.65855
 C681 C 0.05168 0.36164 0.67987
 N682 N 0.07441 0.33952 0.67821
 N683 N 0.07440 0.31778 0.65580
 C684 C 0.05166 0.31667 0.63353
 H685 H -0.04061 0.39961 0.63740
 H686 H -0.04063 0.35980 0.59640
 H687 H 0.05258 0.37828 0.69896
 H688 H 0.05256 0.29810 0.61632
 C689 C 0.51999 0.15512 0.86761
 C690 C 0.52006 0.13208 0.84446
 C691 C 0.49720 0.10837 0.84426
 C692 C 0.47414 0.10749 0.86831
 C693 C 0.47407 0.13095 0.89188
 C694 C 0.49707 0.15509 0.89122
 C695 C 0.45145 0.12887 0.91593
 N696 N 0.43028 0.10502 0.91605
 N697 N 0.43035 0.08300 0.89395
 C698 C 0.45160 0.08331 0.87020
 H699 H 0.53791 0.17323 0.86705
 H700 H 0.53800 0.13284 0.82641
 H701 H 0.45057 0.14569 0.93486
 H702 H 0.45084 0.06444 0.85332
 C703 C 0.99711 0.60644 0.37381
 C704 C 0.99671 0.62920 0.39716
 C705 C 1.00070 0.66101 0.38964
 C706 C 1.00574 0.67002 0.35789
 C707 C 1.00628 0.64678 0.33406
 C708 C 1.00160 0.61476 0.34219
 C709 C 1.01248 0.65640 0.30295
 N710 N 1.01732 0.68721 0.29630
 N711 N 1.01667 0.70900 0.31863
 C712 C 1.01119 0.70147 0.34917
 H713 H 0.99364 0.58208 0.38045
 H714 H 0.99301 0.62195 0.42135
 H715 H 1.01394 0.63975 0.28392
 H716 H 1.01152 0.72011 0.36634
 C717 C 1.12652 0.48125 0.14815
 C718 C 1.15085 0.48116 0.12634
 C719 C 1.16252 0.50930 0.11315
 C720 C 1.15030 0.53828 0.12459
 C721 C 1.12436 0.53820 0.14562
 C722 C 1.11263 0.50934 0.15769
 C723 C 1.11091 0.56721 0.15372
 N724 N 1.12455 0.59440 0.14412
 N725 N 1.15061 0.59455 0.12690
 C726 C 1.16411 0.56754 0.11714
 H727 H 1.11804 0.45899 0.15731
 H728 H 1.15918 0.45854 0.11847
 H729 H 1.08975 0.56864 0.16760
 H730 H 1.18585 0.56925 0.10415
 C731 C 0.65927 0.00276 0.63568
 C732 C 0.63584 0.00299 0.65854
 C733 C 0.60409 0.00331 0.65004
 C734 C 0.59580 0.00378 0.61771
 C735 C 0.61964 0.00286 0.59444
 C736 C 0.65165 0.00286 0.60362
 C737 C 0.61051 0.00154 0.56264
 N738 N 0.57970 0.00266 0.55483
 N739 N 0.55740 0.00487 0.57662
 C740 C 0.56436 0.00556 0.60773
 H741 H 0.68361 0.00273 0.64304
 H742 H 0.64253 0.00264 0.68313
 H743 H 0.62748 -0.00059 0.54389
 H744 H 0.54524 0.00772 0.62426
 C745 C -0.13661 0.49791 0.83827
 C746 C -0.15978 0.49805 0.86139
 C747 C -0.15179 0.49884 0.89334
 C748 C -0.11969 0.49914 0.90217
 C749 C -0.09611 0.49961 0.87861
 C750 C -0.10477 0.49849 0.84641
 C751 C -0.06454 0.50160 0.88818
 N752 N -0.05724 0.50160 0.91922
 N753 N -0.07932 0.49989 0.94132
 C754 C -0.11022 0.49857 0.93390
 H755 H -0.14357 0.49708 0.81377
 H756 H -0.18420 0.49778 0.85430
 H757 H -0.04559 0.50336 0.87138
 H758 H -0.12701 0.49689 0.95289
 C759 C 0.33906 -0.00314 0.36156
 C760 C 0.36198 -0.00326 0.33818
 C761 C 0.39390 -0.00240 0.34596
 C762 C 0.40290 -0.00103 0.37806
 C763 C 0.37959 -0.00163 0.40188
 C764 C 0.34739 -0.00214 0.39343
 C765 C 0.38942 -0.00210 0.43350
 N766 N 0.42040 -0.00046 0.44058
 N767 N 0.44220 0.00148 0.41823
 C768 C 0.43455 0.00136 0.38728
 H769 H 0.31457 -0.00355 0.35474
 H770 H 0.35475 -0.00428 0.31377
 H771 H 0.37288 -0.00399 0.45268
 H772 H 0.45331 0.00335 0.37027
 C773 C 0.13717 0.49665 0.83924
 C774 C 0.16007 0.49708 0.86263
 C775 C 0.15172 0.49731 0.89451
 C776 C 0.11951 0.49730 0.90296
 C777 C 0.09621 0.49617 0.87915
 C778 C 0.10523 0.49644 0.84702
 C779 C 0.06453 0.49445 0.88842
 N780 N 0.05685 0.49538 0.91935
 N781 N 0.07866 0.49780 0.94162
 C782 C 0.10965 0.49889 0.93452
 H783 H 0.14442 0.49683 0.81481
 H784 H 0.18456 0.49712 0.85580
 H785 H 0.04578 0.49215 0.87147
 H786 H 0.12619 0.50120 0.95363
 C787 C 0.65915 0.00186 0.36177
 C788 C 0.63597 0.00103 0.33869
 C789 C 0.60414 0.00006 0.34687
 C790 C 0.59552 -0.00039 0.37912
 C791 C 0.61910 0.00117 0.40262
 C792 C 0.65120 0.00173 0.39375
 C793 C 0.60964 0.00252 0.43432
 N794 N 0.57876 0.00079 0.44183
 N795 N 0.55672 -0.00206 0.41985
 C796 C 0.56401 -0.00281 0.38882
 H797 H 0.68356 0.00229 0.35464
 H798 H 0.64291 0.00138 0.31417
 H799 H 0.62639 0.00516 0.45321
 H800 H 0.54508 -0.00552 0.37213
 C801 C 0.86296 0.50462 0.15913
 C802 C 0.83971 0.50416 0.13609
 C803 C 0.84758 0.50271 0.10414
 C804 C 0.87966 0.50209 0.09522
 C805 C 0.90331 0.50185 0.11870
 C806 C 0.89478 0.50365 0.15091
 C807 C 0.93480 0.49937 0.10906
 N808 N 0.94201 0.49880 0.07800
 N809 N 0.91990 0.50040 0.05595
 C810 C 0.88904 0.50211 0.06345
 H811 H 0.85609 0.50596 0.18362
 H812 H 0.81532 0.50469 0.14325
 H813 H 0.95378 0.49765 0.12582
 H814 H 0.87224 0.50369 0.04449
 C815 C 0.37086 0.00168 0.60290
 C816 C 0.39399 0.00278 0.62593
 C817 C 0.38608 0.00341 0.65790
 C818 C 0.35399 0.00324 0.66677
 C819 C 0.33037 0.00168 0.64326
 C820 C 0.33901 0.00120 0.61105
 C821 C 0.29883 0.00018 0.65293
 N822 N 0.29156 0.00145 0.68395
 N823 N 0.31367 0.00400 0.70593
 C824 C 0.34458 0.00502 0.69843
 H825 H 0.37787 0.00138 0.57840
 H826 H 0.41839 0.00284 0.61874
 H827 H 0.27988 -0.00218 0.63620
 H828 H 0.36142 0.00740 0.71727
   
