data_POSCAR
  _audit_creation_date              2014-09-24
  _audit_creation_method            'ToBaCCo'
  _symmetry_space_group_name_H-M    'P1'
  _symmetry_Int_Tables_number       1
  _symmetry_cell_setting            triclinic
  loop_
  _symmetry_equiv_pos_as_xyz
 x,y,z
_cell_length_a 58.4544
_cell_length_b 58.4744
_cell_length_c 58.2888
_cell_angle_alpha 89.957200
_cell_angle_beta 89.984200
_cell_angle_gamma 90.043800
loop_
  _atom_site_label
  _atom_site_type_symbol
  _atom_site_fract_x
  _atom_site_fract_y
  _atom_site_fract_z
N1 N 0.15181 0.16624 0.21317
 N2 N 0.16800 0.15069 0.21334
 C3 C 0.16448 0.13641 0.23115
 C4 C 0.14498 0.14338 0.24291
 C5 C 0.13747 0.16245 0.23082
 H6 H 0.17540 0.12207 0.23518
 H7 H 0.12273 0.17295 0.23446
 Cu8 Cu 0.19213 0.15075 0.19027
 Cu9 Cu 0.15046 0.19038 0.19023
 Cu10 Cu 0.19255 0.19040 0.14838
 N11 N 0.21531 0.15065 0.16624
 N12 N 0.21536 0.16621 0.14998
 C13 C 0.23305 0.16234 0.13575
 C14 C 0.24493 0.14321 0.14341
 C15 C 0.23300 0.13630 0.16288
 H16 H 0.23685 0.17280 0.12096
 H17 H 0.23684 0.12194 0.17389
 N18 N 0.16799 0.21344 0.14967
 N19 N 0.15196 0.21341 0.16560
 C20 C 0.13780 0.23118 0.16194
 C21 C 0.14522 0.24309 0.14275
 C22 C 0.16444 0.23126 0.13546
 H23 H 0.12317 0.23513 0.17252
 H24 H 0.17515 0.23533 0.12093
 H25 H 0.16701 0.17217 0.16474
 H26 H 0.18508 0.19123 0.18299
 N27 N -0.14997 0.83446 0.21276
 N28 N -0.16603 0.85015 0.21257
 C29 C -0.16269 0.86448 0.23035
 C30 C -0.14347 0.85740 0.24238
 C31 C -0.13589 0.83825 0.23061
 H32 H -0.17351 0.87893 0.23424
 H33 H -0.12124 0.82775 0.23463
 Cu34 Cu -0.18971 0.85018 0.18909
 Cu35 Cu -0.14844 0.81020 0.18998
 Cu36 Cu -0.19039 0.80987 0.14798
 N37 N -0.21318 0.84980 0.16540
 N38 N -0.21330 0.83400 0.14939
 C39 C -0.23118 0.83756 0.13531
 C40 C -0.24309 0.85671 0.14281
 C41 C -0.23102 0.86397 0.16204
 H42 H -0.23509 0.82684 0.12075
 H43 H -0.23483 0.87845 0.17286
 N44 N -0.16574 0.78693 0.14948
 N45 N -0.14979 0.78707 0.16548
 C46 C -0.13558 0.76931 0.16198
 C47 C -0.14286 0.75732 0.14282
 C48 C -0.16207 0.76907 0.13538
 H49 H -0.12103 0.76540 0.17269
 H50 H -0.17267 0.76496 0.12079
 H51 H -0.16470 0.82806 0.16407
 H52 H -0.18304 0.80955 0.18264
 N53 N -0.14971 0.16607 -0.21269
 N54 N -0.16536 0.14994 -0.21223
 C55 C -0.16191 0.13570 -0.23006
 C56 C -0.14304 0.14328 -0.24238
 C57 C -0.13581 0.16265 -0.23074
 H58 H -0.17238 0.12092 -0.23375
 H59 H -0.12154 0.17359 -0.23505
 Cu60 Cu -0.18875 0.14923 -0.18843
 Cu61 Cu -0.14847 0.19038 -0.18996
 Cu62 Cu -0.19048 0.19034 -0.14804
 N63 N -0.21263 0.14990 -0.16510
 N64 N -0.21315 0.16597 -0.14940
 C65 C -0.23122 0.16249 -0.13554
 C66 C -0.24287 0.14310 -0.14287
 C67 C -0.23042 0.13562 -0.16179
 H68 H -0.23545 0.17343 -0.12124
 H69 H -0.23397 0.12094 -0.17243
 N70 N -0.16606 0.21355 -0.14954
 N71 N -0.15006 0.21355 -0.16550
 C72 C -0.13597 0.23142 -0.16196
 C73 C -0.14339 0.24335 -0.14281
 C74 C -0.16255 0.23144 -0.13543
 H75 H -0.12135 0.23539 -0.17257
 H76 H -0.17324 0.23547 -0.12087
 H77 H -0.16434 0.17252 -0.16378
 H78 H -0.18313 0.19015 -0.18273
 N79 N 0.15097 0.83494 -0.21300
 N80 N 0.16671 0.85097 -0.21254
 C81 C 0.16332 0.86532 -0.23031
 C82 C 0.14438 0.85790 -0.24261
 C83 C 0.13704 0.83853 -0.23101
 H84 H 0.17389 0.88002 -0.23399
 H85 H 0.12268 0.82771 -0.23529
 Cu86 Cu 0.19015 0.85147 -0.18880
 Cu87 Cu 0.14967 0.81052 -0.19033
 Cu88 Cu 0.19179 0.81020 -0.14855
 N89 N 0.21407 0.85061 -0.16556
 N90 N 0.21456 0.83447 -0.14989
 C91 C 0.23266 0.83783 -0.13606
 C92 C 0.24437 0.85720 -0.14338
 C93 C 0.23193 0.86480 -0.16225
 H94 H 0.23688 0.82682 -0.12180
 H95 H 0.23550 0.87952 -0.17285
 N96 N 0.16727 0.78711 -0.15004
 N97 N 0.15123 0.78725 -0.16594
 C98 C 0.13707 0.76942 -0.16239
 C99 C 0.14451 0.75738 -0.14330
 C100 C 0.16374 0.76918 -0.13596
 H101 H 0.12241 0.76554 -0.17296
 H102 H 0.17445 0.76505 -0.12146
 H103 H 0.16567 0.82820 -0.16417
 H104 H 0.18434 0.81056 -0.18323
 N105 N 0.16672 1.15046 0.78692
 N106 N 0.15059 1.16606 0.78748
 C107 C 0.13630 1.16271 0.76966
 C108 C 0.14386 1.14395 0.75722
 C109 C 0.16327 1.13666 0.76879
 H110 H 0.12152 1.17318 0.76607
 H111 H 0.17418 1.12243 0.76440
 Cu112 Cu 0.14987 1.18928 0.81140
 Cu113 Cu 0.19106 1.14912 0.80963
 Cu114 Cu 0.19102 1.19084 0.85179
 N115 N 0.15056 1.21299 0.83483
 N116 N 0.16666 1.21348 0.85053
 C117 C 0.16317 1.23149 0.86444
 C118 C 0.14379 1.24305 0.85712
 C119 C 0.13628 1.23073 0.83822
 H120 H 0.17405 1.23581 0.87877
 H121 H 0.12154 1.23437 0.82767
 N122 N 0.21422 1.16647 0.85017
 N123 N 0.21424 1.15061 0.83410
 C124 C 0.23211 1.13652 0.83757
 C125 C 0.24402 1.14381 0.85679
 C126 C 0.23210 1.16288 0.86429
 H127 H 0.23613 1.12204 0.82683
 H128 H 0.23608 1.17342 0.87896
 H129 H 0.17320 1.16477 0.83590
 H130 H 0.19081 1.18372 0.81705
 N131 N 0.83449 0.84947 0.78662
 N132 N 0.85055 0.83378 0.78709
 C133 C 0.86482 0.83712 0.76925
 C134 C 0.85731 0.85598 0.75688
 C135 C 0.83797 0.86332 0.76853
 H136 H 0.87957 0.82662 0.76562
 H137 H 0.82724 0.87776 0.76435
 Cu138 Cu 0.85086 0.81043 0.81089
 Cu139 Cu 0.81063 0.85139 0.80986
 Cu140 Cu 0.81567 0.81453 0.85621
 N141 N 0.85133 0.78784 0.83540
 N142 N 0.83742 0.78951 0.85303
 C143 C 0.84124 0.77197 0.86747
 C144 C 0.85850 0.75843 0.85844
 C145 C 0.86446 0.76911 0.83802
 H146 H 0.83217 0.76945 0.88343
 H147 H 0.87730 0.76361 0.82590
 N148 N 0.79073 0.83701 0.85325
 N149 N 0.78859 0.85071 0.83539
 C150 C 0.76977 0.86366 0.83816
 C151 C 0.75944 0.85784 0.85875
 C152 C 0.77325 0.84081 0.86781
 H153 H 0.76397 0.87630 0.82597
 H154 H 0.77082 0.83183 0.88383
 H155 H 0.83142 0.83857 0.83485
 H156 H 0.81134 0.81763 0.82132
 N157 N 0.16445 0.85093 1.21107
 N158 N 0.14634 0.83787 1.20849
 C159 C 0.13198 0.84130 1.22622
 C160 C 0.14157 0.85749 1.24072
 C161 C 0.16223 0.86315 1.23047
 H162 H 0.11565 0.83284 1.22818
 H163 H 0.17470 0.87540 1.23650
 Cu164 Cu 0.14312 0.81782 1.18215
 Cu165 Cu 0.18890 0.85223 1.18845
 Cu166 Cu 0.18309 0.81724 1.14081
 N167 N 0.14539 0.79270 1.16043
 N168 N 0.16102 0.79259 1.14425
 C169 C 0.15837 0.77379 1.13125
 C170 C 0.14007 0.76124 1.13976
 C171 C 0.13229 0.77387 1.15836
 H172 H 0.16899 0.76977 1.11663
 H173 H 0.11807 0.76986 1.16952
 N174 N 0.20904 0.83826 1.14506
 N175 N 0.21153 0.85120 1.16341
 C176 C 0.23093 0.86345 1.16129
 C177 C 0.24123 0.85793 1.14061
 C178 C 0.22682 0.84183 1.13083
 H179 H 0.23704 0.87553 1.17388
 H180 H 0.22895 0.83342 1.11447
 H181 H 0.16921 0.84330 1.16101
 H182 H 0.18418 0.81933 1.17584
 N183 N 0.84023 1.14419 1.20638
 N184 N 0.85571 1.16046 1.20646
 C185 C 0.86875 1.15834 1.22537
 C186 C 0.86109 1.13960 1.23785
 C187 C 0.84293 1.13106 1.22513
 H188 H 0.88282 1.16959 1.22956
 H189 H 0.83247 1.11630 1.22898
 Cu190 Cu 0.85788 1.18236 1.18144
 Cu191 Cu 0.81829 1.14083 1.18155
 Cu192 Cu 0.81211 1.18870 1.14694
 N193 N 0.85453 1.20881 1.16159
 N194 N 0.83645 1.21142 1.14847
 C195 C 0.83857 1.23096 1.13647
 C196 C 0.85913 1.24126 1.14235
 C197 C 0.86876 1.22664 1.15843
 H198 H 0.82610 1.23706 1.12424
 H199 H 0.88503 1.22861 1.16700
 N200 N 0.78965 1.16354 1.14775
 N201 N 0.79231 1.14513 1.16056
 C202 C 0.77459 1.13086 1.15697
 C203 C 0.76004 1.14068 1.14099
 C204 C 0.77020 1.16141 1.13556
 H205 H 0.77259 1.11447 1.16530
 H206 H 0.76393 1.17405 1.12360
 H207 H 0.83199 1.16143 1.15561
 H208 H 0.81688 1.17578 1.17981
 N209 N 0.52469 1.02411 1.04081
 N210 N 0.54229 1.02668 1.05475
 N211 N 0.47660 1.04006 1.02478
 N212 N 0.45896 1.05391 1.02741
 N213 N 0.47654 1.02414 1.04067
 N214 N 0.45887 1.02672 1.05453
 N215 N 0.52476 1.04003 1.02491
 N216 N 0.54241 1.05386 1.02762
 C217 C 0.55318 1.04535 1.04634
 C218 C 0.44807 1.04539 1.04608
 N219 N 0.47679 1.02438 0.95943
 N220 N 0.45917 1.02703 0.94553
 N221 N 0.52494 1.04016 0.97551
 N222 N 0.54258 1.05404 0.97289
 N223 N 0.52495 1.02433 0.95956
 N224 N 0.54258 1.02699 0.94567
 N225 N 0.47678 1.04021 0.97539
 N226 N 0.45916 1.05406 0.97278
 Mn227 Mn 0.50077 1.04041 1.00015
 C228 C 0.44834 1.04566 0.95404
 C229 C 0.55343 1.04562 0.95416
 N230 N 0.47646 0.97490 1.04056
 N231 N 0.45881 0.97218 1.05443
 N232 N 0.52465 0.95906 1.02474
 N233 N 0.54230 0.94523 1.02734
 N234 N 0.52462 0.97488 1.04070
 N235 N 0.54225 0.97226 1.05459
 N236 N 0.47651 0.95908 1.02459
 N237 N 0.45890 0.94518 1.02715
 Mn238 Mn 0.50057 0.99951 1.04097
 C239 C 0.44802 0.95353 1.04587
 C240 C 0.55311 0.95365 1.04608
 N241 N 0.52488 0.97510 0.95947
 N242 N 0.54261 0.97253 0.94569
 N243 N 0.47663 0.95923 0.97521
 N244 N 0.45899 0.94539 0.97249
 N245 N 0.47671 0.97515 0.95932
 N246 N 0.45912 0.97258 0.94536
 N247 N 0.52477 0.95918 0.97537
 N248 N 0.54242 0.94535 0.97283
 Mn249 Mn 0.50083 0.99974 0.95916
 Mn250 Mn 0.50064 0.95886 0.99998
 Cl251 Cl 0.50071 0.99963 1.00006
 C252 C 0.55338 0.95386 0.95421
 C253 C 0.44823 0.95390 0.95376
 N254 N 0.02572 0.47613 0.04095
 N255 N 0.02841 0.45841 0.05472
 N256 N 0.04137 0.52439 0.02504
 N257 N 0.05512 0.54212 0.02761
 N258 N 0.02555 0.52427 0.04103
 N259 N 0.02810 0.54191 0.05490
 N260 N 0.04152 0.47624 0.02494
 N261 N 0.05538 0.45861 0.02739
 C262 C 0.04703 0.44765 0.04608
 C263 C 0.04665 0.55288 0.04636
 N264 N 0.02525 0.52445 -0.04022
 N265 N 0.02780 0.54211 -0.05411
 N266 N 0.04131 0.47633 -0.02444
 N267 N 0.05515 0.45870 -0.02711
 N268 N 0.02537 0.47631 -0.04029
 N269 N 0.02791 0.45867 -0.05416
 N270 N 0.04117 0.52447 -0.02435
 N271 N 0.05498 0.54213 -0.02699
 Mn272 Mn 0.04163 0.50036 0.00030
 C273 C 0.04646 0.55298 -0.04566
 C274 C 0.04661 0.44785 -0.04577
 N275 N -0.02369 0.52409 0.04122
 N276 N -0.02624 0.54178 0.05504
 N277 N -0.03948 0.47591 0.02533
 N278 N -0.05335 0.45830 0.02810
 N279 N -0.02353 0.47595 0.04117
 N280 N -0.02611 0.45838 0.05515
 N281 N -0.03963 0.52404 0.02536
 N282 N -0.05345 0.54168 0.02796
 Mn283 Mn 0.00101 0.50011 0.04138
 C284 C -0.04492 0.55258 0.04659
 C285 C -0.04482 0.44752 0.04681
 N286 N -0.02389 0.47611 -0.04007
 N287 N -0.02655 0.45850 -0.05398
 N288 N -0.03983 0.52417 -0.02402
 N289 N -0.05371 0.54178 -0.02655
 N290 N -0.02401 0.52426 -0.04000
 N291 N -0.02668 0.54193 -0.05383
 N292 N -0.03968 0.47603 -0.02406
 N293 N -0.05351 0.45837 -0.02663
 Mn294 Mn 0.00068 0.50028 -0.04044
 Mn295 Mn -0.03994 0.50003 0.00065
 Cl296 Cl 0.00085 0.50020 0.00047
 C297 C -0.04514 0.44760 -0.04540
 C298 C -0.04532 0.55270 -0.04526
 N299 N 1.02533 0.04131 0.52345
 N300 N 1.02796 0.05518 0.54110
 N301 N 1.04103 0.02532 0.47516
 N302 N 1.05486 0.02788 0.45745
 N303 N 1.02517 0.04120 0.47515
 N304 N 1.02779 0.05501 0.45741
 N305 N 1.04120 0.02545 0.52346
 N306 N 1.05507 0.02810 0.54113
 C307 C 1.04662 0.04676 0.55196
 C308 C 1.04642 0.04651 0.44653
 N309 N 1.02508 -0.03977 0.47541
 N310 N 1.02759 -0.05370 0.45780
 N311 N 1.04119 -0.02379 0.52357
 N312 N 1.05511 -0.02633 0.54121
 N313 N 1.02530 -0.03966 0.52370
 N314 N 1.02799 -0.05345 0.54144
 N315 N 1.04099 -0.02392 0.47527
 N316 N 1.05478 -0.02666 0.45754
 Mn317 Mn 1.04139 0.00077 0.49936
 C318 C 1.04622 -0.04535 0.44681
 C319 C 1.04670 -0.04495 0.55219
 N320 N 0.97592 0.04121 0.47538
 N321 N 0.97334 0.05496 0.45761
 N322 N 0.96020 0.02541 0.52377
 N323 N 0.94637 0.02804 0.54147
 N324 N 0.97607 0.04130 0.52370
 N325 N 0.97347 0.05517 0.54138
 N326 N 0.96001 0.02536 0.47549
 N327 N 0.94616 0.02791 0.45779
 Mn328 Mn 1.00062 0.04155 0.49942
 C329 C 0.95466 0.04649 0.44680
 C330 C 0.95483 0.04670 0.55230
 N331 N 0.97606 -0.03967 0.52386
 N332 N 0.97349 -0.05358 0.54151
 N333 N 0.95998 -0.02386 0.47564
 N334 N 0.94608 -0.02644 0.45800
 N335 N 0.97584 -0.03975 0.47559
 N336 N 0.97314 -0.05358 0.45790
 N337 N 0.96018 -0.02382 0.52392
 N338 N 0.94635 -0.02652 0.54164
 Mn339 Mn 1.00057 -0.04000 0.49964
 Mn340 Mn 0.95981 0.00077 0.49971
 Cl341 Cl 1.00060 0.00077 0.49953
 C342 C 0.95486 -0.04520 0.55244
 C343 C 0.95446 -0.04508 0.44710
 C344 C 1.11533 0.11394 0.30265
 C345 C 1.10546 0.13321 0.29227
 C346 C 1.11515 0.14285 0.27260
 C347 C 1.13508 0.13350 0.26270
 C348 C 1.14485 0.11406 0.27317
 C349 C 1.13509 0.10444 0.29285
 C350 C 1.10506 0.10387 0.32368
 C351 C 1.10361 0.08003 0.32642
 C352 C 1.09389 0.07061 0.34620
 C353 C 1.08542 0.08481 0.36370
 C354 C 1.08689 0.10864 0.36095
 C355 C 1.09659 0.11806 0.34118
 C356 C 1.07523 0.07482 0.38480
 C357 C 1.05564 0.08460 0.39479
 C358 C 1.04623 0.07536 0.41481
 C359 C 1.05622 0.05618 0.42527
 C360 C 1.07570 0.04630 0.41525
 C361 C 1.08511 0.05553 0.39523
 H362 H 1.09002 0.14073 0.29923
 H363 H 1.10679 0.15765 0.26534
 H364 H 1.16013 0.10615 0.26641
 H365 H 1.14325 0.08973 0.30061
 H366 H 1.10967 0.06866 0.31309
 H367 H 1.09270 0.05218 0.34765
 H368 H 1.08087 0.12004 0.37428
 H369 H 1.09780 0.13649 0.33974
 H370 H 1.04744 0.09926 0.38699
 H371 H 1.03113 0.08325 0.42210
 H372 H 1.08377 0.03151 0.42295
 H373 H 1.10036 0.04777 0.38813
 C374 C 0.88610 -0.11232 0.30307
 C375 C 0.86674 -0.10255 0.29271
 C376 C 0.85718 -0.11231 0.27303
 C377 C 0.86672 -0.13212 0.26326
 C378 C 0.88612 -0.14185 0.27369
 C379 C 0.89568 -0.13207 0.29333
 C380 C 0.89622 -0.10204 0.32404
 C381 C 0.92009 -0.10064 0.32666
 C382 C 0.92962 -0.09123 0.34651
 C383 C 0.91550 -0.08300 0.36419
 C384 C 0.89164 -0.08431 0.36152
 C385 C 0.88211 -0.09372 0.34167
 C386 C 0.92562 -0.07318 0.38537
 C387 C 0.91600 -0.05367 0.39561
 C388 C 0.92541 -0.04453 0.41565
 C389 C 0.94461 -0.05472 0.42587
 C390 C 0.95432 -0.07416 0.41563
 C391 C 0.94492 -0.08330 0.39559
 H392 H 0.85914 -0.08715 0.29965
 H393 H 0.84233 -0.10419 0.26556
 H394 H 0.89399 -0.15712 0.26686
 H395 H 0.91041 -0.14019 0.30110
 H396 H 0.93141 -0.10658 0.31322
 H397 H 0.94806 -0.09012 0.34789
 H398 H 0.88031 -0.07844 0.37498
 H399 H 0.86367 -0.09487 0.34031
 H400 H 0.90134 -0.04530 0.38798
 H401 H 0.91765 -0.02945 0.42310
 H402 H 0.96913 -0.08236 0.42316
 H403 H 0.95255 -0.09850 0.38827
 C404 C 0.88650 0.11383 0.69647
 C405 C 0.86669 0.10435 0.70629
 C406 C 0.85712 0.11385 0.72609
 C407 C 0.86714 0.13306 0.73660
 C408 C 0.88704 0.14244 0.72676
 C409 C 0.89657 0.13296 0.70696
 C410 C 0.89663 0.10385 0.67536
 C411 C 0.90514 0.11811 0.65790
 C412 C 0.91473 0.10876 0.63805
 C413 C 0.91604 0.08493 0.63519
 C414 C 0.90753 0.07067 0.65265
 C415 C 0.89792 0.08002 0.67250
 C416 C 0.92614 0.07501 0.61403
 C417 C 0.91617 0.05577 0.60359
 C418 C 0.92553 0.04656 0.58356
 C419 C 0.94505 0.05640 0.57354
 C420 C 0.95510 0.07556 0.58398
 C421 C 0.94574 0.08478 0.60401
 H422 H 0.85837 0.08976 0.69845
 H423 H 0.84178 0.10613 0.73299
 H424 H 0.89543 0.15710 0.73430
 H425 H 0.91203 0.14046 0.70000
 H426 H 0.90406 0.13653 0.65943
 H427 H 0.92077 0.12020 0.62475
 H428 H 0.90861 0.05225 0.65113
 H429 H 0.89183 0.06859 0.68580
 H430 H 0.90090 0.04803 0.61070
 H431 H 0.91741 0.03178 0.57587
 H432 H 0.97023 0.08342 0.57669
 H433 H 0.95401 0.09940 0.61182
 C434 C 1.11493 -0.11203 0.69647
 C435 C 1.10506 -0.13151 0.70655
 C436 C 1.11458 -0.14122 0.72626
 C437 C 1.13424 -0.13170 0.73643
 C438 C 1.14407 -0.11216 0.72632
 C439 C 1.13454 -0.10247 0.70658
 C440 C 1.10483 -0.10181 0.67544
 C441 C 1.11897 -0.09378 0.65766
 C442 C 1.10946 -0.08440 0.63777
 C443 C 1.08560 -0.08282 0.63521
 C444 C 1.07147 -0.09077 0.65303
 C445 C 1.08098 -0.10016 0.67291
 C446 C 1.07551 -0.07301 0.61399
 C447 C 1.05605 -0.08298 0.60393
 C448 C 1.04667 -0.07386 0.58386
 C449 C 1.05654 -0.05457 0.57345
 C450 C 1.07591 -0.04451 0.58352
 C451 C 1.08530 -0.05365 0.60358
 H452 H 1.09013 -0.13947 0.69900
 H453 H 1.10645 -0.15623 0.73339
 H454 H 1.15913 -0.10424 0.73355
 H455 H 1.14238 -0.08729 0.69938
 H456 H 1.13740 -0.09515 0.65893
 H457 H 1.12080 -0.07875 0.62421
 H458 H 1.05304 -0.08946 0.65172
 H459 H 1.06964 -0.10585 0.68646
 H460 H 1.04828 -0.09807 0.61139
 H461 H 1.03173 -0.08196 0.57646
 H462 H 1.08380 -0.02955 0.57593
 H463 H 1.10009 -0.04539 0.61108
 C464 C 0.30442 1.11321 1.11418
 C465 C 0.29444 1.13265 1.10424
 C466 C 0.27486 1.14250 1.11380
 C467 C 0.26465 1.13317 1.13366
 C468 C 0.27476 1.11359 1.14351
 C469 C 0.29434 1.10378 1.13391
 C470 C 0.32535 1.10288 1.10407
 C471 C 0.34304 1.09484 1.11827
 C472 C 0.36281 1.08533 1.10876
 C473 C 0.36537 1.08366 1.08484
 C474 C 0.34765 1.09164 1.07065
 C475 C 0.32787 1.10114 1.08015
 C476 C 0.38648 1.07372 1.07476
 C477 C 0.39661 1.08360 1.05523
 C478 C 0.41660 1.07438 1.04589
 C479 C 0.42687 1.05509 1.05587
 C480 C 0.41672 1.04511 1.07529
 C481 C 0.39674 1.05434 1.08465
 H482 H 0.30198 1.14051 1.08920
 H483 H 0.26798 1.15751 1.10549
 H484 H 0.26768 1.10560 1.15866
 H485 H 0.30146 1.08861 1.14180
 H486 H 0.34177 1.09627 1.13674
 H487 H 0.37630 1.07966 1.12015
 H488 H 0.34895 1.09026 1.05217
 H489 H 0.31439 1.10684 1.06877
 H490 H 0.38926 1.09869 1.04738
 H491 H 0.42407 1.08243 1.03091
 H492 H 0.42420 1.03015 1.08326
 H493 H 0.38918 1.04615 1.09949
 C494 C 0.30457 0.88630 0.88537
 C495 C 0.29421 0.89619 0.86605
 C496 C 0.27442 0.88666 0.85657
 C497 C 0.26437 0.86691 0.86617
 C498 C 0.27487 0.85710 0.88562
 C499 C 0.29465 0.86667 0.89505
 C500 C 0.32566 0.89636 0.89541
 C501 C 0.34340 0.88219 0.90331
 C502 C 0.36320 0.89162 0.91286
 C503 C 0.36573 0.91546 0.91470
 C504 C 0.34802 0.92964 0.90675
 C505 C 0.32820 0.92020 0.89722
 C506 C 0.38679 0.92545 0.92484
 C507 C 0.39696 0.94498 0.91511
 C508 C 0.41690 0.95424 0.92452
 C509 C 0.42708 0.94419 0.94388
 C510 C 0.41688 0.92477 0.95371
 C511 C 0.39696 0.91548 0.94428
 H512 H 0.30162 0.91117 0.85801
 H513 H 0.26722 0.89491 0.84163
 H514 H 0.26795 0.84204 0.89383
 H515 H 0.30204 0.85882 0.91016
 H516 H 0.34214 0.86378 0.90181
 H517 H 0.37670 0.88026 0.91847
 H518 H 0.34932 0.94805 0.90825
 H519 H 0.31470 0.93157 0.89161
 H520 H 0.38968 0.95289 0.89998
 H521 H 0.42440 0.96923 0.91659
 H522 H 0.42429 0.91674 0.96872
 H523 H 0.38935 0.90063 0.95237
 C524 C 0.69696 0.88598 1.11379
 C525 C 0.70708 0.86658 1.10391
 C526 C 0.72680 0.85698 1.11340
 C527 C 0.73702 0.86649 1.13314
 C528 C 0.72678 0.88603 1.14294
 C529 C 0.70706 0.89560 1.13338
 C530 C 0.67591 0.89606 1.10373
 C531 C 0.67327 0.91991 1.10222
 C532 C 0.65345 0.92936 1.09275
 C533 C 0.63582 0.91519 1.08458
 C534 C 0.63846 0.89135 1.08610
 C535 C 0.65827 0.88189 1.09557
 C536 C 0.61472 0.92521 1.07457
 C537 C 0.60457 0.91543 1.05503
 C538 C 0.58458 0.92470 1.04574
 C539 C 0.57431 0.94393 1.05582
 C540 C 0.58447 0.95380 1.07526
 C541 C 0.60447 0.94454 1.08454
 H542 H 0.69988 0.85895 1.08860
 H543 H 0.73388 0.84209 1.10505
 H544 H 0.73376 0.89407 1.15808
 H545 H 0.69949 0.91040 1.14157
 H546 H 0.68670 0.93126 1.10805
 H547 H 0.65207 0.94779 1.09151
 H548 H 0.62502 0.87998 1.08030
 H549 H 0.65962 0.86347 1.09684
 H550 H 0.61223 0.90073 1.04675
 H551 H 0.57719 0.91682 1.03066
 H552 H 0.57691 0.96864 1.08338
 H553 H 0.61172 0.95230 1.09976
 C554 C 0.69704 1.11373 0.88592
 C555 C 0.70743 1.10390 0.86659
 C556 C 0.72720 1.11352 0.85710
 C557 C 0.73718 1.13329 0.86670
 C558 C 0.72665 1.14302 0.88617
 C559 C 0.70690 1.13337 0.89560
 C560 C 0.67597 1.10358 0.89596
 C561 C 0.65819 1.11769 0.90389
 C562 C 0.63841 1.10818 0.91343
 C563 C 0.63594 1.08434 0.91526
 C564 C 0.65370 1.07022 0.90730
 C565 C 0.67349 1.07973 0.89777
 C566 C 0.61489 1.07427 0.92538
 C567 C 0.60480 1.05472 0.91564
 C568 C 0.58485 1.04540 0.92502
 C569 C 0.57459 1.05541 0.94435
 C570 C 0.58471 1.07485 0.95420
 C571 C 0.60464 1.08419 0.94480
 H572 H 0.70008 1.08891 0.85855
 H573 H 0.73443 1.10532 0.84215
 H574 H 0.73352 1.15809 0.89437
 H575 H 0.69949 1.14117 0.91072
 H576 H 0.65941 1.13611 0.90239
 H577 H 0.62488 1.11951 0.91905
 H578 H 0.65245 1.05180 0.90879
 H579 H 0.68703 1.06842 0.89215
 H580 H 0.61212 1.04684 0.90053
 H581 H 0.57742 1.03040 0.91708
 H582 H 0.57724 1.08285 0.96918
 H583 H 0.61219 1.09906 0.95289
 C584 C 0.11538 0.30372 0.11284
 C585 C 0.13456 0.29336 0.10275
 C586 C 0.14420 0.27371 0.11239
 C587 C 0.13491 0.26394 0.13240
 C588 C 0.11566 0.27436 0.14245
 C589 C 0.10602 0.29398 0.13278
 C590 C 0.10522 0.32468 0.10269
 C591 C 0.08135 0.32738 0.10156
 C592 C 0.07180 0.34720 0.09219
 C593 C 0.08590 0.36477 0.08375
 C594 C 0.10976 0.36204 0.08483
 C595 C 0.11931 0.34222 0.09418
 C596 C 0.07577 0.38593 0.07396
 C597 C 0.08529 0.39612 0.05430
 C598 C 0.07591 0.41615 0.04522
 C599 C 0.05684 0.42641 0.05562
 C600 C 0.04723 0.41621 0.07519
 C601 C 0.05660 0.39617 0.08427
 H602 H 0.14198 0.30030 0.08721
 H603 H 0.15890 0.26624 0.10401
 H604 H 0.10799 0.26753 0.15787
 H605 H 0.09142 0.30175 0.14113
 H606 H 0.07004 0.31401 0.10766
 H607 H 0.05335 0.34863 0.09127
 H608 H 0.12108 0.37543 0.07881
 H609 H 0.13776 0.34081 0.09514
 H610 H 0.09984 0.38846 0.04576
 H611 H 0.08359 0.42358 0.03003
 H612 H 0.03252 0.42376 0.08356
 H613 H 0.04905 0.38889 0.09959
 C614 C -0.11359 0.30408 -0.11304
 C615 C -0.10425 0.29436 -0.13298
 C616 C -0.11389 0.27472 -0.14261
 C617 C -0.13311 0.26425 -0.13254
 C618 C -0.14240 0.27401 -0.11254
 C619 C -0.13277 0.29367 -0.10293
 C620 C -0.10340 0.32503 -0.10289
 C621 C -0.11748 0.34252 -0.09431
 C622 C -0.10792 0.36229 -0.08486
 C623 C -0.08405 0.36503 -0.08376
 C624 C -0.06997 0.34753 -0.09232
 C625 C -0.07954 0.32776 -0.10179
 C626 C -0.07391 0.38610 -0.07380
 C627 C -0.05470 0.39643 -0.08400
 C628 C -0.04531 0.41639 -0.07474
 C629 C -0.05494 0.42643 -0.05512
 C630 C -0.07405 0.41606 -0.04483
 C631 C -0.08343 0.39611 -0.05407
 H632 H -0.08965 0.30215 -0.14135
 H633 H -0.10622 0.26790 -0.15803
 H634 H -0.15709 0.26651 -0.10413
 H635 H -0.14017 0.30059 -0.08738
 H636 H -0.13593 0.34109 -0.09525
 H637 H -0.11923 0.37562 -0.07876
 H638 H -0.05152 0.34897 -0.09140
 H639 H -0.06824 0.31444 -0.10794
 H640 H -0.04713 0.38929 -0.09935
 H641 H -0.03058 0.42402 -0.08303
 H642 H -0.08174 0.42335 -0.02959
 H643 H -0.09801 0.38838 -0.04562
 C644 C 0.11467 0.69660 -0.11357
 C645 C 0.13394 0.70688 -0.10355
 C646 C 0.14358 0.72657 -0.11314
 C647 C 0.13420 0.73647 -0.13303
 C648 C 0.11487 0.72613 -0.14301
 C649 C 0.10522 0.70646 -0.13339
 C650 C 0.10450 0.67561 -0.10343
 C651 C 0.08063 0.67295 -0.10213
 C652 C 0.07109 0.65317 -0.09263
 C653 C 0.08519 0.63559 -0.08424
 C654 C 0.10906 0.63826 -0.08555
 C655 C 0.11860 0.65805 -0.09502
 C656 C 0.07508 0.61453 -0.07421
 C657 C 0.08474 0.60444 -0.05458
 C658 C 0.07540 0.58448 -0.04528
 C659 C 0.05620 0.57418 -0.05542
 C660 C 0.04642 0.58428 -0.07495
 C661 C 0.05577 0.60425 -0.08426
 H662 H 0.14143 0.69986 -0.08809
 H663 H 0.15835 0.73396 -0.10481
 H664 H 0.10712 0.73307 -0.15835
 H665 H 0.09055 0.69876 -0.14169
 H666 H 0.06933 0.68633 -0.10814
 H667 H 0.05265 0.65178 -0.09154
 H668 H 0.12038 0.62488 -0.07958
 H669 H 0.13704 0.65943 -0.09612
 H670 H 0.09941 0.61212 -0.04625
 H671 H 0.08321 0.57713 -0.03014
 H672 H 0.03162 0.57669 -0.08313
 H673 H 0.04810 0.61146 -0.09955
 C674 C -0.11278 0.69657 0.11348
 C675 C -0.10284 0.70713 0.13268
 C676 C -0.11254 0.72681 0.14214
 C677 C -0.13246 0.73645 0.13265
 C678 C -0.14235 0.72586 0.11338
 C679 C -0.13262 0.70618 0.10391
 C680 C -0.10254 0.67557 0.10355
 C681 C -0.10120 0.67268 0.07965
 C682 C -0.09164 0.65286 0.07032
 C683 C -0.08320 0.63548 0.08467
 C684 C -0.08450 0.63839 0.10857
 C685 C -0.09405 0.65821 0.11790
 C686 C -0.07323 0.61432 0.07478
 C687 C -0.05364 0.60433 0.08454
 C688 C -0.04441 0.58429 0.07535
 C689 C -0.05459 0.57381 0.05624
 C690 C -0.07409 0.58381 0.04640
 C691 C -0.08333 0.60385 0.05557
 H692 H -0.08737 0.70031 0.14026
 H693 H -0.10427 0.73440 0.15687
 H694 H -0.15770 0.73259 0.10556
 H695 H -0.14084 0.69828 0.08928
 H696 H -0.10726 0.68590 0.06815
 H697 H -0.09055 0.65128 0.05184
 H698 H -0.07850 0.62516 0.12008
 H699 H -0.09516 0.65978 0.13637
 H700 H -0.04528 0.61217 0.09913
 H701 H -0.02927 0.57702 0.08320
 H702 H -0.08230 0.57609 0.03166
 H703 H -0.09859 0.61096 0.04784
 C704 C 1.11397 0.11467 0.69617
 C705 C 1.13340 0.10479 0.70628
 C706 C 1.14307 0.11426 0.72602
 C707 C 1.13354 0.13388 0.73621
 C708 C 1.11405 0.14374 0.72606
 C709 C 1.10440 0.13426 0.70629
 C710 C 1.10378 0.10462 0.67512
 C711 C 1.09581 0.11878 0.65735
 C712 C 1.08641 0.10932 0.63747
 C713 C 1.08476 0.08547 0.63489
 C714 C 1.09267 0.07131 0.65269
 C715 C 1.10207 0.08078 0.67258
 C716 C 1.07489 0.07543 0.61370
 C717 C 1.08481 0.05599 0.60358
 C718 C 1.07561 0.04665 0.58353
 C719 C 1.05632 0.05655 0.57320
 C720 C 1.04632 0.07589 0.58333
 C721 C 1.05552 0.08525 0.60336
 H722 H 1.14136 0.08987 0.69871
 H723 H 1.15804 0.10611 0.73318
 H724 H 1.10613 0.15879 0.73330
 H725 H 1.08926 0.14211 0.69908
 H726 H 1.09722 0.13720 0.65864
 H727 H 1.08079 0.12067 0.62391
 H728 H 1.09130 0.05289 0.65137
 H729 H 1.10772 0.06942 0.68612
 H730 H 1.09990 0.04819 0.61099
 H731 H 1.08367 0.03172 0.57608
 H732 H 1.03135 0.08380 0.57580
 H733 H 1.04730 0.10002 0.61092
 C734 C 0.88740 -0.11429 0.69612
 C735 C 0.89716 -0.13373 0.70634
 C736 C 0.88744 -0.14337 0.72602
 C737 C 0.86770 -0.13381 0.73595
 C738 C 0.85797 -0.11435 0.72564
 C739 C 0.86771 -0.10471 0.70599
 C740 C 0.89766 -0.10405 0.67519
 C741 C 0.89911 -0.08017 0.67271
 C742 C 0.90854 -0.07053 0.65291
 C743 C 0.91674 -0.08453 0.63514
 C744 C 0.91536 -0.10840 0.63765
 C745 C 0.90593 -0.11805 0.65745
 C746 C 0.92663 -0.07429 0.61403
 C747 C 0.94615 -0.08387 0.60377
 C748 C 0.95534 -0.07437 0.58379
 C749 C 0.94519 -0.05510 0.57364
 C750 C 0.92575 -0.04543 0.58391
 C751 C 0.91656 -0.05492 0.60390
 H752 H 0.91250 -0.14134 0.69929
 H753 H 0.89552 -0.15829 0.73338
 H754 H 0.84277 -0.10645 0.73260
 H755 H 0.85960 -0.08992 0.69833
 H756 H 0.89321 -0.06894 0.68623
 H757 H 0.90970 -0.05209 0.65164
 H758 H 0.92120 -0.11964 0.62411
 H759 H 0.90472 -0.13649 0.65870
 H760 H 0.95449 -0.09859 0.61134
 H761 H 0.97042 -0.08211 0.57631
 H762 H 0.91757 -0.03057 0.57644
 H763 H 0.90135 -0.04732 0.61125
 C764 C 1.11260 -0.11388 0.30244
 C765 C 1.13220 -0.10419 0.29244
 C766 C 1.14163 -0.11353 0.27252
 C767 C 1.13168 -0.13280 0.26208
 C768 C 1.11210 -0.14254 0.27217
 C769 C 1.10269 -0.13320 0.29213
 C770 C 1.10254 -0.10379 0.32353
 C771 C 1.09436 -0.11790 0.34126
 C772 C 1.08512 -0.10837 0.36119
 C773 C 1.08382 -0.08451 0.36384
 C774 C 1.09192 -0.07040 0.34607
 C775 C 1.10117 -0.07993 0.32615
 C776 C 1.07412 -0.07438 0.38508
 C777 C 1.08428 -0.05503 0.39517
 C778 C 1.07520 -0.04557 0.41522
 C779 C 1.05580 -0.05526 0.42558
 C780 C 1.04558 -0.07453 0.41549
 C781 C 1.05465 -0.08399 0.39546
 H782 H 1.14041 -0.08948 0.30014
 H783 H 1.15663 -0.10544 0.26530
 H784 H 1.10399 -0.15743 0.26475
 H785 H 1.08744 -0.14093 0.29931
 H786 H 1.09550 -0.13633 0.33990
 H787 H 1.07934 -0.11969 0.37472
 H788 H 1.09080 -0.05197 0.34743
 H789 H 1.10697 -0.06861 0.31264
 H790 H 1.09945 -0.04739 0.38774
 H791 H 1.08343 -0.03072 0.42264
 H792 H 1.03052 -0.08228 0.42305
 H793 H 1.04624 -0.09869 0.38792
 C794 C 0.88884 0.11228 0.30081
 C795 C 0.89924 0.13106 0.28997
 C796 C 0.89022 0.13998 0.26964
 C797 C 0.87053 0.13035 0.25965
 C798 C 0.86006 0.11164 0.27065
 C799 C 0.86911 0.10272 0.29095
 C800 C 0.89856 0.10262 0.32227
 C801 C 0.89956 0.07883 0.32558
 C802 C 0.90869 0.06971 0.34575
 C803 C 0.91702 0.08417 0.36310
 C804 C 0.91603 0.10796 0.35979
 C805 C 0.90692 0.11708 0.33959
 C806 C 0.92670 0.07447 0.38457
 C807 C 0.94628 0.08416 0.39465
 C808 C 0.95536 0.07507 0.41487
 C809 C 0.94504 0.05609 0.42544
 C810 C 0.92552 0.04633 0.41538
 C811 C 0.91644 0.05543 0.39516
 H812 H 0.91462 0.13864 0.29701
 H813 H 0.89888 0.15431 0.26174
 H814 H 0.84481 0.10381 0.26371
 H815 H 0.86050 0.08845 0.29908
 H816 H 0.89359 0.06723 0.31239
 H817 H 0.90956 0.05131 0.34762
 H818 H 0.92198 0.11956 0.37297
 H819 H 0.90607 0.13549 0.33769
 H820 H 0.95478 0.09862 0.38674
 H821 H 0.97050 0.08286 0.42218
 H822 H 0.91721 0.03170 0.42317
 H823 H 0.90118 0.04775 0.38798
 C824 C 0.11388 0.30390 -0.11354
 C825 C 0.10421 0.29370 -0.13308
 C826 C 0.11386 0.27399 -0.14257
 C827 C 0.13345 0.26399 -0.13277
 C828 C 0.14308 0.27426 -0.11319
 C829 C 0.13341 0.29395 -0.10370
 C830 C 0.10369 0.32490 -0.10350
 C831 C 0.10209 0.32755 -0.07958
 C832 C 0.09267 0.34739 -0.07014
 C833 C 0.08463 0.36503 -0.08439
 C834 C 0.08616 0.36236 -0.10830
 C835 C 0.09558 0.34252 -0.11775
 C836 C 0.07477 0.38619 -0.07436
 C837 C 0.05534 0.39643 -0.08418
 C838 C 0.04617 0.41644 -0.07486
 C839 C 0.05626 0.42664 -0.05554
 C840 C 0.07561 0.41640 -0.04564
 C841 C 0.08477 0.39638 -0.05495
 H842 H 0.08898 0.30080 -0.14089
 H843 H 0.10585 0.26668 -0.15758
 H844 H 0.15815 0.26722 -0.10510
 H845 H 0.14144 0.30158 -0.08882
 H846 H 0.10785 0.31413 -0.06815
 H847 H 0.09140 0.34878 -0.05166
 H848 H 0.08044 0.37579 -0.11973
 H849 H 0.09690 0.34115 -0.13623
 H850 H 0.04706 0.38882 -0.09893
 H851 H 0.03116 0.42389 -0.08276
 H852 H 0.08373 0.42391 -0.03074
 H853 H 0.09990 0.38906 -0.04716
 C854 C -0.11220 0.30355 0.11483
 C855 C -0.10235 0.29299 0.13410
 C856 C -0.11168 0.27286 0.14308
 C857 C -0.13109 0.26280 0.13301
 C858 C -0.14096 0.27344 0.11376
 C859 C -0.13163 0.29356 0.10479
 C860 C -0.10221 0.32482 0.10512
 C861 C -0.11645 0.34254 0.09726
 C862 C -0.10707 0.36242 0.08785
 C863 C -0.08324 0.36507 0.08607
 C864 C -0.06899 0.34741 0.09401
 C865 C -0.07837 0.32751 0.10343
 C866 C -0.07330 0.38617 0.07592
 C867 C -0.05378 0.39636 0.08562
 C868 C -0.04451 0.41628 0.07614
 C869 C -0.05456 0.42642 0.05676
 C870 C -0.07400 0.41621 0.04698
 C871 C -0.08328 0.39631 0.05647
 H872 H -0.08756 0.30045 0.14241
 H873 H -0.10370 0.26535 0.15803
 H874 H -0.15573 0.26616 0.10533
 H875 H -0.13942 0.30108 0.08972
 H876 H -0.13487 0.34114 0.09867
 H877 H -0.11849 0.37588 0.08224
 H878 H -0.05057 0.34879 0.09257
 H879 H -0.06696 0.31403 0.10900
 H880 H -0.04585 0.38911 0.10076
 H881 H -0.02952 0.42379 0.08404
 H882 H -0.08203 0.42360 0.03196
 H883 H -0.09812 0.38868 0.04841
 C884 C -0.11261 0.69699 -0.11249
 C885 C -0.13229 0.70690 -0.10291
 C886 C -0.14166 0.72679 -0.11233
 C887 C -0.13156 0.73727 -0.13156
 C888 C -0.11184 0.72731 -0.14111
 C889 C -0.10249 0.70742 -0.13170
 C890 C -0.10267 0.67583 -0.10250
 C891 C -0.09437 0.65837 -0.11682
 C892 C -0.08502 0.63846 -0.10744
 C893 C -0.08373 0.63556 -0.08354
 C894 C -0.09204 0.65301 -0.06922
 C895 C -0.10141 0.67292 -0.07860
 C896 C -0.07379 0.61438 -0.07359
 C897 C -0.08380 0.60398 -0.05428
 C898 C -0.07453 0.58395 -0.04505
 C899 C -0.05508 0.57391 -0.05494
 C900 C -0.04499 0.58433 -0.07416
 C901 C -0.05425 0.60434 -0.08340
 H902 H -0.14067 0.69909 -0.08830
 H903 H -0.15695 0.73374 -0.10458
 H904 H -0.10340 0.73492 -0.15576
 H905 H -0.08713 0.70037 -0.13927
 H906 H -0.09544 0.65994 -0.13530
 H907 H -0.07912 0.62517 -0.11893
 H908 H -0.09096 0.65144 -0.05074
 H909 H -0.10734 0.68621 -0.06712
 H910 H -0.09902 0.61113 -0.04651
 H911 H -0.08267 0.57628 -0.03023
 H912 H -0.02990 0.57703 -0.08206
 H913 H -0.04594 0.61212 -0.09807
 C914 C 0.11234 0.69828 0.11277
 C915 C 0.13158 0.70852 0.10262
 C916 C 0.14061 0.72883 0.11141
 C917 C 0.13062 0.73945 0.13061
 C918 C 0.11141 0.72910 0.14083
 C919 C 0.10238 0.70878 0.13201
 C920 C 0.10264 0.67680 0.10324
 C921 C 0.07883 0.67376 0.10166
 C922 C 0.06971 0.65366 0.09245
 C923 C 0.08419 0.63615 0.08460
 C924 C 0.10799 0.63916 0.08624
 C925 C 0.11711 0.65925 0.09546
 C926 C 0.07451 0.61482 0.07473
 C927 C 0.08453 0.60466 0.05532
 C928 C 0.07546 0.58455 0.04608
 C929 C 0.05621 0.57417 0.05607
 C930 C 0.04614 0.58433 0.07541
 C931 C 0.05518 0.60445 0.08464
 H932 H 0.13948 0.70101 0.08760
 H933 H 0.15537 0.73616 0.10298
 H934 H 0.10323 0.73660 0.15565
 H935 H 0.08772 0.70114 0.14041
 H936 H 0.06724 0.68711 0.10717
 H937 H 0.05131 0.65200 0.09110
 H938 H 0.11958 0.62582 0.08070
 H939 H 0.13551 0.66092 0.09679
 H940 H 0.09922 0.61242 0.04709
 H941 H 0.08351 0.57715 0.03108
 H942 H 0.03128 0.57669 0.08348
 H943 H 0.04724 0.61171 0.09975
 C944 C 0.30479 1.11391 0.88636
 C945 C 0.29501 1.13363 0.89597
 C946 C 0.27533 1.14331 0.88642
 C947 C 0.26492 1.13349 0.86702
 C948 C 0.27474 1.11369 0.85748
 C949 C 0.29442 1.10405 0.86702
 C950 C 0.32577 1.10370 0.89642
 C951 C 0.34326 1.09535 0.88217
 C952 C 0.36303 1.08578 0.89161
 C953 C 0.36576 1.08433 0.91552
 C954 C 0.34825 1.09265 0.92978
 C955 C 0.32848 1.10224 0.92033
 C956 C 0.38684 1.07428 0.92553
 C957 C 0.39717 1.08421 0.94490
 C958 C 0.41713 1.07488 0.95418
 C959 C 0.42718 1.05544 0.94430
 C960 C 0.41684 1.04541 0.92503
 C961 C 0.39687 1.05474 0.91574
 H962 H 0.30277 1.14180 0.91071
 H963 H 0.26846 1.15856 0.89429
 H964 H 0.26729 1.10548 0.84264
 H965 H 0.30137 1.08866 0.85940
 H966 H 0.34184 1.09657 0.86368
 H967 H 0.37637 1.07987 0.88017
 H968 H 0.34968 1.09146 0.94826
 H969 H 0.31515 1.10820 0.93175
 H970 H 0.39002 1.09942 0.95267
 H971 H 0.42475 1.08297 0.96904
 H972 H 0.42415 1.03033 0.91714
 H973 H 0.38915 1.04650 0.90102
 C974 C 0.30347 0.88593 1.11232
 C975 C 0.29316 0.86662 1.10238
 C976 C 0.27304 0.85750 1.11158
 C977 C 0.26273 0.86748 1.13093
 C978 C 0.27310 0.88679 1.14087
 C979 C 0.29322 0.89589 1.13168
 C980 C 0.32478 0.89572 1.10251
 C981 C 0.34235 0.90359 1.11695
 C982 C 0.36233 0.91299 1.10773
 C983 C 0.36519 0.91473 1.08385
 C984 C 0.34764 0.90681 1.06940
 C985 C 0.32767 0.89741 1.07863
 C986 C 0.38640 0.92475 1.07406
 C987 C 0.39673 0.91499 1.05461
 C988 C 0.41674 0.92436 1.04546
 C989 C 0.42684 0.94368 1.05554
 C990 C 0.41652 0.95352 1.07492
 C991 C 0.39651 0.94414 1.08409
 H992 H 0.30084 0.85836 1.08765
 H993 H 0.26575 0.84250 1.10356
 H994 H 0.26561 0.89514 1.15561
 H995 H 0.30056 0.91098 1.13953
 H996 H 0.34080 0.90218 1.13541
 H997 H 0.37569 0.91858 1.11929
 H998 H 0.34919 0.90823 1.05094
 H999 H 0.31429 0.89183 1.06706
 H1000 H 0.38951 0.89989 1.04667
 H1001 H 0.42435 0.91641 1.03051
 H1002 H 0.42388 0.96850 1.08297
 H1003 H 0.38878 0.95224 1.09889
 C1004 C 0.69773 1.11227 1.11334
 C1005 C 0.70819 1.10239 1.13264
 C1006 C 0.72833 1.11163 1.14165
 C1007 C 0.73852 1.13098 1.13156
 C1008 C 0.72798 1.14089 1.11228
 C1009 C 0.70784 1.13164 1.10329
 C1010 C 0.67641 1.10237 1.10367
 C1011 C 0.65873 1.11666 1.09585
 C1012 C 0.63875 1.10735 1.08659
 C1013 C 0.63598 1.08353 1.08493
 C1014 C 0.65363 1.06923 1.09281
 C1015 C 0.67362 1.07855 1.10207
 C1016 C 0.61478 1.07366 1.07498
 C1017 C 0.60455 1.05423 1.08485
 C1018 C 0.58453 1.04502 1.07553
 C1019 C 0.57435 1.05504 1.05616
 C1020 C 0.58459 1.07438 1.04623
 C1021 C 0.60459 1.08361 1.05555
 H1022 H 0.70063 1.08766 1.14099
 H1023 H 0.73574 1.10365 1.15665
 H1024 H 0.73538 1.15562 1.10386
 H1025 H 0.70038 1.13945 1.08819
 H1026 H 0.66022 1.13507 1.09719
 H1027 H 0.62530 1.11881 1.08102
 H1028 H 0.65215 1.05082 1.09145
 H1029 H 0.68708 1.06709 1.10762
 H1030 H 0.61184 1.04633 1.09998
 H1031 H 0.57699 1.03009 1.08355
 H1032 H 0.57718 1.08238 1.03121
 H1033 H 0.61225 1.09838 1.04736
 C1034 C 0.69794 0.88656 0.88780
 C1035 C 0.70844 0.89677 0.86868
 C1036 C 0.72836 0.88749 0.85931
 C1037 C 0.73830 0.86773 0.86881
 C1038 C 0.72779 0.85755 0.88798
 C1039 C 0.70786 0.86687 0.89737
 C1040 C 0.67672 0.89644 0.89767
 C1041 C 0.67371 0.89771 0.92155
 C1042 C 0.65378 0.90713 0.93081
 C1043 C 0.63641 0.91547 0.91639
 C1044 C 0.63941 0.91416 0.89251
 C1045 C 0.65934 0.90476 0.88325
 C1046 C 0.61519 0.92544 0.92621
 C1047 C 0.60524 0.94501 0.91637
 C1048 C 0.58517 0.95427 0.92549
 C1049 C 0.57464 0.94415 0.94462
 C1050 C 0.58460 0.92466 0.95454
 C1051 C 0.60467 0.91540 0.94542
 H1052 H 0.70141 0.91217 0.86114
 H1053 H 0.73602 0.89602 0.84475
 H1054 H 0.73476 0.84224 0.89569
 H1055 H 0.70000 0.85844 0.91192
 H1056 H 0.68695 0.89177 0.93310
 H1057 H 0.65212 0.90822 0.94928
 H1058 H 0.62618 0.92008 0.88095
 H1059 H 0.66101 0.90368 0.86478
 H1060 H 0.61312 0.95333 0.90176
 H1061 H 0.57793 0.96938 0.91758
 H1062 H 0.57684 0.91650 0.96930
 H1063 H 0.61176 0.90015 0.95322
   
