data_POSCAR
  _audit_creation_date              2014-09-24
  _audit_creation_method            'ToBaCCo'
  _symmetry_space_group_name_H-M    'P1'
  _symmetry_Int_Tables_number       1
  _symmetry_cell_setting            triclinic
  loop_
  _symmetry_equiv_pos_as_xyz
 x,y,z
_cell_length_a 34.8756
_cell_length_b 36.9836
_cell_length_c 35.6549
_cell_angle_alpha 90.148400
_cell_angle_beta 89.694800
_cell_angle_gamma 89.080000
loop_
  _atom_site_label
  _atom_site_type_symbol
  _atom_site_fract_x
  _atom_site_fract_y
  _atom_site_fract_z
C1 C 1.22066 0.27237 0.31323
 H2 H 1.23391 0.24828 0.32474
 C3 C 1.19787 0.29453 0.33638
 H4 H 1.19403 0.28692 0.36540
 C5 C 1.20749 0.30980 0.26095
 H6 H 1.21077 0.31549 0.23149
 C7 C 1.18445 0.33265 0.28305
 H8 H 1.17054 0.35591 0.27029
 N9 N 1.22545 0.28051 0.27630
 C10 C 1.23977 0.20402 0.18427
 H11 H 1.27053 0.20421 0.18015
 C12 C 1.21691 0.18318 0.16085
 H13 H 1.23081 0.16705 0.13927
 C14 C 1.18523 0.22363 0.21912
 H15 H 1.17309 0.23907 0.24219
 C16 C 1.16129 0.20328 0.19633
 H17 H 1.13075 0.20338 0.20201
 Zn18 Zn 1.25611 0.24958 0.24510
 N19 N 1.22372 0.22340 0.21292
 C20 C 1.28086 0.18045 0.27072
 N21 N 1.28457 0.21669 0.27563
 C22 C 1.30731 0.23000 0.30307
 C23 C 1.32763 0.20661 0.32668
 C24 C 1.30097 0.15600 0.29339
 C25 C 1.27381 0.29609 0.18571
 C26 C 1.29648 0.31770 0.16281
 C27 C 1.35184 0.29951 0.19887
 C28 C 1.32801 0.27830 0.22122
 N29 N 1.28958 0.27754 0.21483
 H30 H 1.26197 0.17027 0.24940
 H31 H 1.30931 0.25894 0.30690
 H32 H 1.34543 0.21816 0.34832
 H33 H 1.29635 0.12759 0.28854
 H34 H 1.24354 0.29389 0.18000
 H35 H 1.28313 0.33256 0.14008
 H36 H 1.38220 0.29921 0.20469
 H37 H 1.34040 0.26251 0.24362
 C38 C 1.17696 0.18264 0.16676
 C39 C 1.17975 0.32545 0.32136
 C40 C 1.33596 0.32016 0.16948
 C41 C 1.32515 0.16887 0.32199
 C42 C 0.69733 -0.22842 0.30148
 H43 H 0.69492 -0.25745 0.30392
 C44 C 0.67429 -0.20565 0.32360
 H45 H 0.65400 -0.21741 0.34298
 C46 C 0.72718 -0.17799 0.27361
 H47 H 0.74850 -0.16731 0.25478
 C48 C 0.70478 -0.15418 0.29533
 H49 H 0.70953 -0.12550 0.29270
 N50 N 0.72265 -0.21435 0.27661
 C51 C 0.73908 -0.30268 0.19651
 H52 H 0.77002 -0.30528 0.19690
 C53 C 0.71765 -0.32565 0.17398
 H54 H 0.73233 -0.34602 0.15711
 C55 C 0.68251 -0.27268 0.21781
 H56 H 0.66895 -0.25146 0.23426
 C57 C 0.65993 -0.29505 0.19561
 H58 H 0.62926 -0.29036 0.19535
 Zn59 Zn 0.75284 -0.24743 0.24806
 N60 N 0.72129 -0.27725 0.21833
 C61 C 0.77460 -0.31170 0.28639
 N62 N 0.78143 -0.27578 0.28259
 C63 C 0.80745 -0.25894 0.30461
 C64 C 0.82897 -0.27865 0.33068
 C65 C 0.79495 -0.33229 0.31260
 C66 C 0.76824 -0.20039 0.18924
 C67 C 0.79019 -0.17934 0.16516
 C68 C 0.84747 -0.20511 0.19278
 C69 C 0.82435 -0.22563 0.21645
 N70 N 0.78549 -0.22216 0.21498
 H71 H 0.75313 -0.32444 0.26934
 H72 H 0.81172 -0.23018 0.30163
 H73 H 0.85011 -0.26503 0.34752
 H74 H 0.78961 -0.36097 0.31465
 H75 H 0.73726 -0.19876 0.18810
 H76 H 0.77586 -0.16143 0.14553
 H77 H 0.87824 -0.20856 0.19452
 H78 H 0.83757 -0.24421 0.23598
 C79 C 0.67751 -0.32240 0.17369
 C80 C 0.67746 -0.16801 0.32044
 C81 C 0.83033 -0.18082 0.16731
 C82 C 0.82259 -0.31570 0.33510
 C83 C 0.69678 0.26504 -0.20290
 H84 H 0.69881 0.23621 -0.19808
 C85 C 0.67297 0.28660 -0.18017
 H86 H 0.65660 0.27423 -0.15786
 C87 C 0.71648 0.31637 -0.23720
 H88 H 0.73415 0.32804 -0.25880
 C89 C 0.69251 0.33885 -0.21553
 H90 H 0.69221 0.36768 -0.22070
 N91 N 0.71790 0.28011 -0.23079
 C92 C 0.73915 0.19078 -0.30910
 H93 H 0.77004 0.18790 -0.30777
 C94 C 0.71805 0.16716 -0.33134
 H95 H 0.73282 0.14605 -0.34712
 C96 C 0.68228 0.22175 -0.29009
 H97 H 0.66840 0.24308 -0.27401
 C98 C 0.66017 0.19916 -0.31246
 H99 H 0.62934 0.20301 -0.31275
 Zn100 Zn 0.75073 0.24836 -0.25846
 N101 N 0.72102 0.21710 -0.28863
 C102 C 0.77496 0.18512 -0.21923
 N103 N 0.77938 0.22146 -0.22261
 C104 C 0.80287 0.23982 -0.19918
 C105 C 0.82452 0.22136 -0.17227
 C106 C 0.79548 0.16570 -0.19219
 C107 C 0.76749 0.29450 -0.31867
 C108 C 0.78999 0.31609 -0.34184
 C109 C 0.84609 0.29563 -0.30812
 C110 C 0.82244 0.27424 -0.28583
 N111 N 0.78377 0.27488 -0.29062
 H112 H 0.75532 0.17109 -0.23724
 H113 H 0.80508 0.26885 -0.20173
 H114 H 0.84373 0.23623 -0.15436
 H115 H 0.79215 0.13670 -0.19049
 H116 H 0.73676 0.29392 -0.32256
 H117 H 0.77591 0.33199 -0.36341
 H118 H 0.87651 0.29397 -0.30291
 H119 H 0.83522 0.25727 -0.26458
 C120 C 0.67812 0.17146 -0.33351
 C121 C 0.67030 0.32389 -0.18662
 C122 C 0.82992 0.31786 -0.33630
 C123 C 0.82075 0.18391 -0.16839
 C124 C 1.19584 -0.23416 -0.19014
 H125 H 1.19800 -0.26275 -0.18401
 C126 C 1.17477 -0.21114 -0.16639
 H127 H 1.16012 -0.22234 -0.14235
 C128 C 1.21237 -0.18488 -0.22911
 H129 H 1.22756 -0.17456 -0.25314
 C130 C 1.19114 -0.16107 -0.20653
 H131 H 1.18988 -0.13261 -0.21361
 N132 N 1.21423 -0.22070 -0.22067
 C133 C 1.23210 -0.30714 -0.30227
 H134 H 1.26307 -0.30762 -0.30421
 C135 C 1.21070 -0.33032 -0.32457
 H136 H 1.22548 -0.34880 -0.34355
 C137 C 1.17534 -0.28201 -0.27546
 H138 H 1.16171 -0.26270 -0.25668
 C139 C 1.15278 -0.30462 -0.29737
 H140 H 1.12196 -0.30190 -0.29517
 Zn141 Zn 1.24510 -0.25264 -0.24954
 N142 N 1.21424 -0.28390 -0.27805
 C143 C 1.27331 -0.31593 -0.21360
 N144 N 1.27582 -0.27931 -0.21540
 C145 C 1.29844 -0.26077 -0.19131
 C146 C 1.32100 -0.27924 -0.16515
 C147 C 1.29478 -0.33540 -0.18736
 C148 C 1.25736 -0.21001 -0.31296
 C149 C 1.27716 -0.18696 -0.33693
 C150 C 1.33425 -0.19744 -0.30021
 C151 C 1.31355 -0.22072 -0.27731
 N152 N 1.27549 -0.22564 -0.28328
 H153 H 1.25444 -0.33014 -0.23226
 H154 H 1.29897 -0.23156 -0.19248
 H155 H 1.33940 -0.26422 -0.14657
 H156 H 1.29292 -0.36459 -0.18680
 H157 H 1.22718 -0.21470 -0.31735
 H158 H 1.26218 -0.17407 -0.35998
 H159 H 1.36441 -0.19350 -0.29475
 H160 H 1.32788 -0.23421 -0.25443
 C161 C 1.17052 -0.32955 -0.32212
 C162 C 1.17259 -0.17402 -0.17446
 C163 C 1.31572 -0.17958 -0.32991
 C164 C 1.31902 -0.31695 -0.16277
 C165 C 0.25470 0.19068 0.71331
 H166 H 0.22489 0.18719 0.72068
 C167 C 0.27315 0.16540 0.68995
 H168 H 0.25731 0.14274 0.67906
 C169 C 0.31197 0.22370 0.71932
 H170 H 0.32741 0.24588 0.73129
 C171 C 0.33135 0.19941 0.69564
 H172 H 0.36151 0.20329 0.68989
 N173 N 0.27406 0.21948 0.72703
 C174 C 0.17691 0.23274 0.79304
 H175 H 0.16371 0.25357 0.77604
 C176 C 0.15430 0.21245 0.81732
 H177 H 0.12368 0.21788 0.81849
 C178 C 0.23265 0.20033 0.81186
 H179 H 0.26322 0.19553 0.80908
 C180 C 0.21130 0.17987 0.83704
 H181 H 0.22615 0.15900 0.85266
 Zn182 Zn 0.24639 0.25312 0.75765
 N183 N 0.21535 0.22639 0.79082
 C184 C 0.19028 0.26719 0.70231
 N185 N 0.21490 0.28298 0.72667
 C186 C 0.21746 0.31961 0.72883
 C187 C 0.19566 0.34174 0.70523
 C188 C 0.16735 0.28838 0.67868
 C189 C 0.27937 0.28094 0.82407
 C190 C 0.30330 0.30260 0.84551
 C191 C 0.32904 0.32733 0.78828
 C192 C 0.30477 0.30501 0.76792
 N193 N 0.28047 0.28236 0.78595
 H194 H 0.18837 0.23810 0.70118
 H195 H 0.23632 0.33190 0.74888
 H196 H 0.19838 0.37083 0.70702
 H197 H 0.14837 0.27528 0.65913
 H198 H 0.25972 0.26321 0.83814
 H199 H 0.30214 0.30007 0.87568
 H200 H 0.34788 0.34542 0.77338
 H201 H 0.30478 0.30626 0.73761
 C202 C 0.17138 0.18588 0.84020
 C203 C 0.31167 0.17012 0.68018
 C204 C 0.32824 0.32668 0.82760
 C205 C 0.17010 0.32619 0.67996
 C206 C 0.76513 0.70223 0.69722
 H207 H 0.73422 0.70340 0.69479
 C208 C 0.78672 0.67963 0.67353
 H209 H 0.77180 0.66298 0.65358
 C210 C 0.82141 0.72184 0.72761
 H211 H 0.83473 0.73821 0.74888
 C212 C 0.84412 0.69965 0.70448
 H213 H 0.87494 0.69916 0.70813
 N214 N 0.78268 0.72279 0.72348
 C215 C 0.69221 0.74110 0.80675
 H216 H 0.68741 0.77001 0.80517
 C217 C 0.66959 0.72052 0.83073
 H218 H 0.64672 0.73372 0.84657
 C219 C 0.72900 0.68927 0.78950
 H220 H 0.75222 0.67717 0.77339
 C221 C 0.70860 0.66808 0.81481
 H222 H 0.71589 0.63960 0.81684
 Zn223 Zn 0.75137 0.75345 0.75343
 N224 N 0.72046 0.72508 0.78576
 C225 C 0.68260 0.78658 0.72438
 N226 N 0.72127 0.78247 0.72033
 C227 C 0.74020 0.79915 0.69189
 C228 C 0.72079 0.82289 0.66795
 C229 C 0.66220 0.81053 0.70151
 C230 C 0.78181 0.77941 0.82143
 C231 C 0.80374 0.80157 0.84437
 C232 C 0.82709 0.83162 0.78894
 C233 C 0.80484 0.80882 0.76708
 N234 N 0.78234 0.78361 0.78352
 H235 H 0.66724 0.77147 0.74517
 H236 H 0.77046 0.79390 0.68759
 H237 H 0.73637 0.83637 0.64581
 H238 H 0.63152 0.81367 0.70544
 H239 H 0.76464 0.75864 0.83407
 H240 H 0.80314 0.79703 0.87429
 H241 H 0.84457 0.85170 0.77529
 H242 H 0.80575 0.81129 0.73699
 C243 C 0.67812 0.68365 0.83566
 C244 C 0.82693 0.67846 0.67673
 C245 C 0.82634 0.82856 0.82811
 C246 C 0.68159 0.82968 0.67349
 C247 C 0.76151 0.20036 0.19818
 H248 H 0.73061 0.19957 0.19593
 C249 C 0.78453 0.17951 0.17407
 H250 H 0.77110 0.16264 0.15319
 C251 C 0.81645 0.22299 0.22856
 H252 H 0.82874 0.23988 0.25001
 C253 C 0.84057 0.20272 0.20492
 H254 H 0.87121 0.20515 0.20818
 N255 N 0.77773 0.22107 0.22513
 C256 C 0.69833 0.22791 0.31945
 H257 H 0.69609 0.25689 0.32335
 C258 C 0.67773 0.20502 0.34277
 H259 H 0.65943 0.21663 0.36445
 C260 C 0.72492 0.17775 0.28642
 H261 H 0.74366 0.16720 0.26467
 C262 C 0.70489 0.15381 0.30921
 H263 H 0.70905 0.12510 0.30470
 Zn264 Zn 0.74554 0.24686 0.25885
 N265 N 0.72059 0.21409 0.29130
 C266 C 0.67071 0.27391 0.24081
 N267 N 0.70850 0.27375 0.23097
 C268 C 0.72090 0.29292 0.20089
 C269 C 0.69533 0.31450 0.18047
 C270 C 0.64418 0.29521 0.22127
 C271 C 0.78359 0.27019 0.32418
 C272 C 0.80607 0.29293 0.34595
 C273 C 0.81292 0.33215 0.29237
 C274 C 0.79029 0.30869 0.27166
 N275 N 0.77573 0.27859 0.28786
 H276 H 0.66087 0.25787 0.26401
 H277 H 0.75080 0.29158 0.19278
 H278 H 0.70645 0.33047 0.15763
 H279 H 0.61437 0.29556 0.22998
 H280 H 0.77302 0.24548 0.33622
 H281 H 0.81245 0.28518 0.37449
 H282 H 0.82413 0.35608 0.27904
 H283 H 0.78457 0.31455 0.24261
 C284 C 0.68010 0.16750 0.33727
 C285 C 0.82459 0.17996 0.17767
 C286 C 0.82065 0.32469 0.33011
 C287 C 0.65632 0.31594 0.19076
 C288 C 0.27316 0.68293 0.22198
 H289 H 0.24755 0.67324 0.23558
 C290 C 0.29612 0.65894 0.20110
 H291 H 0.28816 0.63081 0.19909
 C292 C 0.31377 0.73149 0.20658
 H293 H 0.32006 0.75999 0.20838
 C294 C 0.33795 0.70826 0.18589
 H295 H 0.36257 0.71924 0.17155
 N296 N 0.28244 0.71843 0.22464
 C297 C 0.17822 0.72745 0.28267
 H298 H 0.16503 0.74638 0.26346
 C299 C 0.15513 0.70697 0.30643
 H300 H 0.12424 0.71004 0.30486
 C301 C 0.23426 0.70080 0.30860
 H302 H 0.26522 0.69850 0.30910
 C303 C 0.21231 0.67975 0.33277
 H304 H 0.22700 0.66090 0.35104
 Zn305 Zn 0.24997 0.75064 0.25241
 N306 N 0.21705 0.72371 0.28387
 C307 C 0.19646 0.76114 0.19452
 N308 N 0.22102 0.77885 0.21747
 C309 C 0.22454 0.81541 0.21544
 C310 C 0.20052 0.83579 0.19217
 C311 C 0.17246 0.78047 0.17014
 C312 C 0.31563 0.77016 0.29402
 C313 C 0.33674 0.79075 0.31927
 C314 C 0.28278 0.83226 0.32466
 C315 C 0.26213 0.80978 0.30092
 N316 N 0.27919 0.78020 0.28491
 H317 H 0.19489 0.73198 0.19583
 H318 H 0.24586 0.82902 0.23180
 H319 H 0.20324 0.86491 0.19146
 H320 H 0.15244 0.76610 0.15265
 H321 H 0.32825 0.74580 0.28216
 H322 H 0.36588 0.78212 0.32502
 H323 H 0.26869 0.85622 0.33612
 H324 H 0.23242 0.81618 0.29497
 C325 C 0.17204 0.68276 0.33197
 C326 C 0.32924 0.67136 0.18316
 C327 C 0.32050 0.82272 0.33483
 C328 C 0.17349 0.81831 0.16979
 N329 N 1.06866 0.03880 0.04107
 N330 N 1.09482 0.06317 0.04848
 N331 N 1.04187 -0.03693 0.06531
 N332 N 1.05056 -0.06113 0.09122
 N333 N 1.06794 -0.03725 0.03857
 N334 N 1.09479 -0.06190 0.04541
 N335 N 1.04199 0.03894 0.06724
 N336 N 1.04938 0.06332 0.09321
 C337 C 1.08220 0.07843 0.08094
 C338 C 1.08338 -0.07683 0.07811
 N339 N 0.93247 -0.03443 0.03954
 N340 N 0.90708 -0.05997 0.04518
 N341 N 0.95897 0.04048 0.06783
 N342 N 0.95178 0.06524 0.09381
 N343 N 0.93246 0.04155 0.04179
 N344 N 0.90674 0.06714 0.04917
 N345 N 0.95898 -0.03547 0.06556
 N346 N 0.95229 -0.06170 0.08966
 Mn347 Mn 1.00042 0.00179 0.06689
 C348 C 0.91996 -0.07688 0.07638
 C349 C 0.91928 0.08182 0.08152
 N350 N 1.06744 -0.03492 -0.04224
 N351 N 1.09180 -0.06175 -0.04958
 N352 N 1.04149 0.04295 -0.06512
 N353 N 1.04886 0.06847 -0.08981
 N354 N 1.06859 0.04102 -0.03975
 N355 N 1.09530 0.06504 -0.04662
 N356 N 1.04086 -0.03292 -0.06811
 N357 N 1.04635 -0.05821 -0.09377
 Mn358 Mn 1.06855 0.00186 -0.00059
 C359 C 1.07800 -0.07611 -0.08171
 C360 C 1.08239 0.08213 -0.07778
 N361 N 0.93182 0.04378 -0.03897
 N362 N 0.90412 0.06727 -0.04694
 N363 N 0.95869 -0.03139 -0.06749
 N364 N 0.95230 -0.05624 -0.09321
 N365 N 0.93217 -0.03203 -0.04127
 N366 N 0.90683 -0.05719 -0.04851
 N367 N 0.95891 0.04462 -0.06466
 N368 N 0.95054 0.06890 -0.09055
 Mn369 Mn 0.93186 0.00469 0.00034
 Mn370 Mn 1.00001 0.00590 -0.06667
 Cl371 Cl 1.00022 0.00360 0.00003
 C372 C 0.91655 0.08309 -0.07890
 C373 C 0.92001 -0.07221 -0.08088
 N374 N 1.06704 0.53387 0.53991
 N375 N 1.09273 0.55859 0.54765
 N376 N 1.04085 0.45672 0.56256
 N377 N 1.04849 0.43084 0.58695
 N378 N 1.06775 0.45801 0.53669
 N379 N 1.09456 0.43318 0.54298
 N380 N 1.04081 0.53269 0.56644
 N381 N 1.04799 0.55659 0.59296
 C382 C 1.08030 0.57271 0.58066
 C383 C 1.08186 0.41615 0.57408
 N384 N 0.93109 0.45966 0.53813
 N385 N 0.90474 0.43513 0.54435
 N386 N 0.95818 0.53376 0.56737
 N387 N 0.95111 0.55734 0.59445
 N388 N 0.93138 0.53557 0.54166
 N389 N 0.90527 0.56040 0.55066
 N390 N 0.95802 0.45779 0.56368
 N391 N 0.95070 0.43186 0.58801
 Mn392 Mn 0.99948 0.49517 0.56537
 C393 C 0.91747 0.41781 0.57536
 C394 C 0.91826 0.57397 0.58349
 N395 N 1.06715 0.46103 0.45588
 N396 N 1.09331 0.43607 0.44747
 N397 N 1.03982 0.53800 0.43324
 N398 N 1.04708 0.56296 0.40792
 N399 N 1.06673 0.53704 0.45886
 N400 N 1.09311 0.56133 0.45153
 N401 N 1.04020 0.46207 0.43030
 N402 N 1.04733 0.43789 0.40377
 Mn403 Mn 1.06755 0.49754 0.49785
 C404 C 1.08034 0.42167 0.41505
 C405 C 1.08013 0.57756 0.41987
 N406 N 0.93067 0.53859 0.46045
 N407 N 0.90344 0.56279 0.45320
 N408 N 0.95744 0.46315 0.43136
 N409 N 0.95077 0.43837 0.40561
 N410 N 0.93085 0.46277 0.45756
 N411 N 0.90541 0.43768 0.45042
 N412 N 0.95738 0.53914 0.43435
 N413 N 0.94929 0.56397 0.40896
 Mn414 Mn 0.93063 0.49923 0.49946
 Mn415 Mn 0.99870 0.50056 0.43198
 Cl416 Cl 0.99909 0.49816 0.49868
 C417 C 0.91580 0.57872 0.42126
 C418 C 0.91841 0.42256 0.41806
 N419 N 0.53148 0.03607 0.56878
 N420 N 0.55634 0.04413 0.59527
 N421 N 0.44983 0.05922 0.54346
 N422 N 0.42515 0.08495 0.55333
 N423 N 0.45082 0.03349 0.56882
 N424 N 0.42666 0.04112 0.59652
 N425 N 0.53007 0.06171 0.54340
 N426 N 0.55362 0.08799 0.55210
 C427 C 0.57018 0.07645 0.58426
 C428 C 0.41046 0.07303 0.58615
 N429 N 0.45085 0.03669 0.43581
 N430 N 0.42636 0.04529 0.40902
 N431 N 0.53034 0.06314 0.46258
 N432 N 0.55720 0.08738 0.45759
 N433 N 0.53132 0.03900 0.43550
 N434 N 0.55886 0.04622 0.41124
 N435 N 0.44989 0.06123 0.46254
 N436 N 0.42479 0.08714 0.45457
 Mn437 Mn 0.49003 0.06158 0.50296
 C438 C 0.41000 0.07662 0.42138
 C439 C 0.57482 0.07638 0.42559
 N440 N 0.45532 -0.04487 0.56639
 N441 N 0.43099 -0.05483 0.59277
 N442 N 0.53735 -0.06595 0.53939
 N443 N 0.56345 -0.09111 0.54678
 N444 N 0.53552 -0.04191 0.56653
 N445 N 0.56015 -0.05027 0.59325
 N446 N 0.45689 -0.06905 0.53933
 N447 N 0.43342 -0.09584 0.54639
 Mn448 Mn 0.49323 -0.00431 0.56796
 C449 C 0.41718 -0.08642 0.57957
 C450 C 0.57774 -0.08072 0.58019
 N451 N 0.53554 -0.03887 0.43291
 N452 N 0.56149 -0.04511 0.40644
 N453 N 0.45751 -0.06761 0.45853
 N454 N 0.43606 -0.09510 0.44881
 N455 N 0.45479 -0.04153 0.43370
 N456 N 0.43064 -0.05035 0.40683
 N457 N 0.53754 -0.06395 0.45884
 N458 N 0.56489 -0.08781 0.45086
 Mn459 Mn 0.49304 -0.00114 0.43410
 Mn460 Mn 0.49736 -0.06686 0.49905
 Cl461 Cl 0.49331 -0.00267 0.50103
 C462 C 0.57983 -0.07553 0.41837
 C463 C 0.41906 -0.08378 0.41682
 N464 N 0.57334 0.53980 0.03774
 N465 N 0.59883 0.56485 0.04491
 N466 N 0.54926 0.46274 0.06104
 N467 N 0.55785 0.43632 0.08462
 N468 N 0.57472 0.46390 0.03382
 N469 N 0.60111 0.43836 0.03795
 N470 N 0.54737 0.53873 0.06453
 N471 N 0.55462 0.56297 0.09072
 C472 C 0.58664 0.57924 0.07787
 C473 C 0.59014 0.42124 0.06952
 N474 N 0.43957 0.46264 0.03756
 N475 N 0.41406 0.43745 0.04428
 N476 N 0.46425 0.53823 0.06674
 N477 N 0.45647 0.56225 0.09338
 N478 N 0.43706 0.53854 0.04136
 N479 N 0.41012 0.56262 0.05006
 N480 N 0.46638 0.46214 0.06331
 N481 N 0.45973 0.43663 0.08827
 Mn482 Mn 0.50684 0.50049 0.06435
 C483 C 0.42719 0.42122 0.07575
 C484 C 0.42274 0.57746 0.08230
 N485 N 0.57313 0.46733 -0.04674
 N486 N 0.60002 0.44347 -0.05631
 N487 N 0.54425 0.54517 -0.06763
 N488 N 0.55177 0.56993 -0.09318
 N489 N 0.57213 0.54296 -0.04309
 N490 N 0.59976 0.56542 -0.05181
 N491 N 0.54639 0.46913 -0.07248
 N492 N 0.55450 0.44667 -0.10038
 Mn493 Mn 0.57361 0.50346 -0.00449
 C494 C 0.58783 0.43058 -0.08965
 C495 C 0.58640 0.58242 -0.08277
 N496 N 0.43520 0.54212 -0.03943
 N497 N 0.40688 0.56530 -0.04613
 N498 N 0.46379 0.46820 -0.07011
 N499 N 0.45683 0.44435 -0.09675
 N500 N 0.43789 0.46640 -0.04334
 N501 N 0.41251 0.44143 -0.05111
 N502 N 0.46169 0.54416 -0.06562
 N503 N 0.45230 0.56899 -0.09059
 Mn504 Mn 0.43710 0.50237 -0.00093
 Mn505 Mn 0.50399 0.50674 -0.06928
 Cl506 Cl 0.50537 0.50330 -0.00258
 C507 C 0.41829 0.58220 -0.07785
 C508 C 0.42492 0.42769 -0.08434
 C509 C 1.15099 0.15954 0.14455
 C510 C 1.16045 0.14472 0.11126
 C511 C 1.13611 0.11950 0.08992
 C512 C 1.10297 0.10590 0.10231
 H513 H 1.18760 0.15092 0.09826
 H514 H 1.14731 0.11069 0.06295
 H515 H 1.12296 0.15506 0.15650
 H516 H 1.09092 0.11363 0.12915
 C517 C 1.14866 0.64550 0.65361
 C518 C 1.11158 0.63758 0.65898
 C519 C 1.09035 0.61138 0.63582
 C520 C 1.10135 0.60033 0.60153
 H521 H 1.09607 0.64873 0.68274
 H522 H 1.06410 0.60111 0.64782
 H523 H 1.16469 0.63186 0.63156
 H524 H 1.12659 0.61114 0.58819
 C525 C 0.65578 0.14642 0.64291
 C526 C 0.62426 0.15729 0.62447
 C527 C 0.60125 0.13341 0.60046
 C528 C 0.59687 0.09799 0.60676
 H529 H 0.61572 0.18556 0.62517
 H530 H 0.58469 0.14646 0.57857
 H531 H 0.66674 0.11907 0.63911
 H532 H 0.61090 0.08506 0.63031
 C533 C 0.65550 0.65255 0.14969
 C534 C 0.61805 0.64588 0.15454
 C535 C 0.59662 0.61927 0.13208
 C536 C 0.60772 0.60726 0.09817
 H537 H 0.60245 0.65833 0.17758
 H538 H 0.57015 0.60959 0.14419
 H539 H 0.67165 0.63753 0.12869
 H540 H 0.63311 0.61764 0.08470
 C541 C 0.85275 -0.15651 0.14279
 C542 C 0.88923 -0.14739 0.14946
 C543 C 0.91058 -0.12012 0.12772
 C544 C 0.89927 -0.10633 0.09477
 H545 H 0.90391 -0.15814 0.17371
 H546 H 0.93686 -0.11065 0.14018
 H547 H 0.83728 -0.14375 0.12009
 H548 H 0.87384 -0.11581 0.08095
 C549 C 0.85057 0.34077 0.64214
 C550 C 0.88977 0.34826 0.64682
 C551 C 0.91046 0.37316 0.62540
 C552 C 0.89704 0.39053 0.59306
 H553 H 0.90558 0.33629 0.66969
 H554 H 0.93916 0.37903 0.63495
 H555 H 0.83506 0.35569 0.62087
 H556 H 0.87001 0.38326 0.58071
 C557 C 0.33607 -0.15358 0.64607
 C558 C 0.36256 -0.13137 0.65986
 C559 C 0.38401 -0.10532 0.63691
 C560 C 0.39142 -0.11026 0.60038
 H561 H 0.36815 -0.13115 0.68971
 H562 H 0.39695 -0.08298 0.65161
 H563 H 0.32736 -0.15133 0.61705
 H564 H 0.38108 -0.13389 0.58588
 C565 C 0.35885 0.34432 0.14502
 C566 C 0.39507 0.35417 0.15205
 C567 C 0.41678 0.38052 0.12929
 C568 C 0.40616 0.39268 0.09543
 H569 H 0.40945 0.34454 0.17691
 H570 H 0.44281 0.39063 0.14169
 H571 H 0.34401 0.35579 0.12124
 H572 H 0.38093 0.38261 0.08173
 C573 C 0.84461 0.16425 -0.14071
 C574 C 0.83211 0.13512 -0.12233
 C575 C 0.85622 0.11363 -0.09644
 C576 C 0.89409 0.10907 -0.10131
 H577 H 0.80264 0.12689 -0.12551
 H578 H 0.84156 0.09810 -0.07518
 H579 H 0.87271 0.17477 -0.13461
 H580 H 0.90854 0.12206 -0.12447
 C581 C 0.84623 0.66329 0.36191
 C582 C 0.83267 0.63485 0.38075
 C583 C 0.85643 0.61199 0.40570
 C584 C 0.89389 0.60574 0.39967
 H585 H 0.80262 0.62825 0.37867
 H586 H 0.84165 0.59701 0.42731
 H587 H 0.87517 0.67223 0.36698
 H588 H 0.90830 0.61829 0.37622
 C589 C 0.34563 0.14696 0.34514
 C590 C 0.34918 0.10912 0.34161
 C591 C 0.37045 0.08699 0.36596
 C592 C 0.38437 0.09789 0.40089
 H593 H 0.33771 0.09552 0.31742
 H594 H 0.37589 0.05938 0.35688
 H595 H 0.36188 0.15989 0.36703
 H596 H 0.37578 0.12366 0.41289
 C597 C 0.34357 0.66344 -0.13574
 C598 C 0.33202 0.63350 -0.11820
 C599 C 0.35701 0.61190 -0.09330
 C600 C 0.39485 0.60832 -0.09899
 H601 H 0.30281 0.62458 -0.12150
 H602 H 0.34312 0.59545 -0.07231
 H603 H 0.37136 0.67457 -0.12943
 H604 H 0.40853 0.62225 -0.12201
 C605 C 1.15064 -0.14822 -0.15078
 C606 C 1.14665 -0.15195 -0.11358
 C607 C 1.12639 -0.12456 -0.09037
 C608 C 1.09635 -0.10548 -0.10321
 H609 H 1.16108 -0.17399 -0.09921
 H610 H 1.13617 -0.12056 -0.06190
 H611 H 1.13973 -0.12394 -0.16423
 H612 H 1.08478 -0.11119 -0.13069
 C613 C 1.15508 0.35023 0.34412
 C614 C 1.15729 0.35308 0.38159
 C615 C 1.13438 0.37941 0.40399
 C616 C 1.10089 0.39391 0.39280
 H617 H 1.17871 0.33759 0.39671
 H618 H 1.14564 0.38663 0.43121
 H619 H 1.13607 0.36830 0.32892
 H620 H 1.08811 0.38577 0.36660
 C621 C 0.65247 -0.14467 0.34445
 C622 C 0.64638 -0.10910 0.33893
 C623 C 0.61963 -0.08693 0.36216
 C624 C 0.60948 -0.09566 0.39723
 H625 H 0.65896 -0.09579 0.31502
 H626 H 0.60793 -0.06253 0.34961
 H627 H 0.63688 -0.15817 0.36652
 H628 H 0.62208 -0.11903 0.41087
 C629 C 0.64575 0.34664 -0.16175
 C630 C 0.62759 0.37664 -0.17371
 C631 C 0.60336 0.39989 -0.14917
 C632 C 0.61018 0.40456 -0.11255
 H633 H 0.62890 0.38385 -0.20310
 H634 H 0.58110 0.41591 -0.16258
 H635 H 0.64115 0.33739 -0.13330
 H636 H 0.63429 0.39091 -0.09943
 C637 C 1.14788 0.16561 -0.13583
 C638 C 1.16172 0.14294 -0.10728
 C639 C 1.13919 0.11881 -0.08697
 C640 C 1.10211 0.10877 -0.09704
 H641 H 1.19143 0.14435 -0.09900
 H642 H 1.15286 0.10529 -0.06353
 H643 H 1.11719 0.16898 -0.13896
 H644 H 1.08863 0.11977 -0.12183
 C645 C 1.14680 0.66009 0.35567
 C646 C 1.15869 0.64254 0.38660
 C647 C 1.13482 0.61773 0.40913
 C648 C 1.10082 0.60505 0.39831
 H649 H 1.18751 0.64629 0.39672
 H650 H 1.14719 0.60803 0.43511
 H651 H 1.11719 0.65849 0.34715
 H652 H 1.08807 0.61335 0.37212
 C653 C 0.65594 0.14414 0.36108
 C654 C 0.64708 0.10995 0.35230
 C655 C 0.61923 0.08809 0.37354
 C656 C 0.60568 0.09669 0.40769
 H657 H 0.65803 0.09780 0.32674
 H658 H 0.60888 0.06411 0.35961
 H659 H 0.64273 0.15704 0.38521
 H660 H 0.61614 0.11976 0.42292
 C661 C 0.65587 0.66341 -0.13941
 C662 C 0.66964 0.63209 -0.12177
 C663 C 0.64694 0.60984 -0.09961
 C664 C 0.60722 0.60708 -0.10372
 H665 H 0.70010 0.62599 -0.12249
 H666 H 0.66181 0.59091 -0.08140
 H667 H 0.62814 0.67432 -0.13081
 H668 H 0.59277 0.62120 -0.12630
 C669 C 0.84992 -0.14643 -0.14949
 C670 C 0.84461 -0.14018 -0.11270
 C671 C 0.86662 -0.11350 -0.09104
 C672 C 0.90061 -0.10068 -0.10190
 H673 H 0.82148 -0.15299 -0.09779
 H674 H 0.85399 -0.10424 -0.06484
 H675 H 0.87096 -0.13108 -0.16479
 H676 H 0.91468 -0.11051 -0.12710
 C677 C 0.84468 0.35006 0.35147
 C678 C 0.84390 0.35279 0.38900
 C679 C 0.86615 0.37966 0.41005
 C680 C 0.89858 0.39421 0.39721
 H681 H 0.82409 0.33684 0.40519
 H682 H 0.85540 0.38719 0.43759
 H683 H 0.86176 0.36866 0.33532
 H684 H 0.91097 0.38563 0.37071
 C685 C 0.33970 -0.15552 0.35853
 C686 C 0.37282 -0.16611 0.37803
 C687 C 0.39431 -0.14270 0.40004
 C688 C 0.39542 -0.10520 0.39490
 H689 H 0.38069 -0.19448 0.37958
 H690 H 0.41410 -0.15517 0.41966
 H691 H 0.32730 -0.12915 0.36515
 H692 H 0.38088 -0.09283 0.37132
 C693 C 0.35364 0.35136 -0.15142
 C694 C 0.34795 0.36054 -0.11531
 C695 C 0.37124 0.38679 -0.09432
 C696 C 0.40479 0.40000 -0.10603
 H697 H 0.32357 0.35021 -0.10018
 H698 H 0.35959 0.39563 -0.06753
 H699 H 0.37642 0.36375 -0.16724
 H700 H 0.41781 0.39123 -0.13213
 C701 C 1.14668 -0.16081 0.14585
 C702 C 1.12930 -0.13047 0.15835
 C703 C 1.10261 -0.10822 0.13574
 C704 C 1.10671 -0.10362 0.09872
 H705 H 1.13351 -0.12203 0.18713
 H706 H 1.08145 -0.09210 0.15093
 H707 H 1.13955 -0.17163 0.11855
 H708 H 1.12991 -0.11721 0.08375
 C709 C 1.14770 0.35004 0.65479
 C710 C 1.11194 0.34271 0.64390
 C711 C 1.08896 0.36839 0.62135
 C712 C 1.10421 0.38821 0.59386
 H713 H 1.09769 0.31908 0.65467
 H714 H 1.05850 0.37043 0.62727
 H715 H 1.16006 0.37576 0.64730
 H716 H 1.13401 0.38427 0.58590
 C717 C 0.66128 -0.14421 0.64912
 C718 C 0.63250 -0.12312 0.66203
 C719 C 0.61026 -0.09784 0.63839
 C720 C 0.60494 -0.10305 0.60165
 H721 H 0.62517 -0.12357 0.69158
 H722 H 0.59472 -0.07622 0.65268
 H723 H 0.67148 -0.14123 0.62058
 H724 H 0.61797 -0.12610 0.58748
 C725 C 0.62811 0.33994 0.17174
 C726 C 0.63278 0.35187 0.13669
 C727 C 0.60584 0.37828 0.12006
 C728 C 0.61306 0.39185 0.08617
 H729 H 0.65717 0.34276 0.12008
 H730 H 0.58127 0.38793 0.13616
 H731 H 0.60255 0.34810 0.18723
 H732 H 0.63810 0.38244 0.07062
 C733 C 0.84819 0.15629 0.15268
 C734 C 0.88488 0.14686 0.15953
 C735 C 0.90750 0.12080 0.13646
 C736 C 0.89784 0.11026 0.10186
 H737 H 0.89878 0.15632 0.18462
 H738 H 0.93327 0.10965 0.14908
 H739 H 0.83356 0.14446 0.12912
 H740 H 0.87300 0.12167 0.08799
 C741 C 0.85170 0.65459 0.65305
 C742 C 0.84077 0.64096 0.61988
 C743 C 0.86420 0.61578 0.59644
 C744 C 0.89791 0.60108 0.60669
 H745 H 0.81311 0.64846 0.60850
 H746 H 0.85199 0.60811 0.56976
 H747 H 0.88019 0.64903 0.66347
 H748 H 0.91086 0.60760 0.63323
 C749 C 0.33095 0.14404 0.65452
 C750 C 0.35755 0.15451 0.62975
 C751 C 0.37815 0.12984 0.60375
 C752 C 0.38483 0.09470 0.61058
 H753 H 0.36388 0.18296 0.62713
 H754 H 0.39131 0.14227 0.57951
 H755 H 0.32153 0.11628 0.65473
 H756 H 0.37414 0.08228 0.63594
 C757 C 0.35273 0.64557 0.16048
 C758 C 0.39072 0.64857 0.15546
 C759 C 0.41390 0.62190 0.13366
 C760 C 0.40021 0.60459 0.10366
 H761 H 0.40599 0.66974 0.16978
 H762 H 0.44354 0.61769 0.14172
 H763 H 0.33840 0.62212 0.14934
 H764 H 0.37149 0.61066 0.09386
   
