data_POSCAR
  _audit_creation_date              2014-09-24
  _audit_creation_method            'ToBaCCo'
  _symmetry_space_group_name_H-M    'P1'
  _symmetry_Int_Tables_number       1
  _symmetry_cell_setting            triclinic
  loop_
  _symmetry_equiv_pos_as_xyz
 x,y,z
_cell_length_a 55.1868
_cell_length_b 52.9206
_cell_length_c 16.3742
_cell_angle_alpha 90.429000
_cell_angle_beta 89.568600
_cell_angle_gamma 118.136700
loop_
  _atom_site_label
  _atom_site_type_symbol
  _atom_site_fract_x
  _atom_site_fract_y
  _atom_site_fract_z
C1 C 0.19804 0.42066 0.45649
 C2 C 0.19306 0.41641 0.54269
 C3 C 0.21357 0.41549 0.59184
 C4 C 0.23888 0.41978 0.55937
 C5 C 0.24306 0.42295 0.47378
 C6 C 0.22250 0.42259 0.42387
 H7 H 0.22656 0.42573 0.35879
 H8 H 0.21012 0.41205 0.65697
 C9 C 0.41304 -0.31062 0.46087
 C10 C 0.41237 -0.30884 0.54747
 C11 C 0.41135 -0.28540 0.58461
 C12 C 0.41168 -0.26287 0.53849
 C13 C 0.41110 -0.26535 0.45184
 C14 C 0.41148 -0.28911 0.41477
 H15 H 0.41203 -0.28997 0.34860
 H16 H 0.41170 -0.28414 0.65078
 C17 C 1.28696 0.76190 0.46053
 C18 C 1.28927 0.75823 0.54560
 C19 C 1.26741 0.73655 0.58801
 C20 C 1.24213 0.71954 0.55027
 C21 C 1.23893 0.72375 0.46636
 C22 C 1.26154 0.74441 0.42235
 H23 H 1.25908 0.74695 0.35784
 H24 H 1.26942 0.73436 0.65311
 C25 C 0.79869 0.55120 0.44519
 C26 C 0.80019 0.54512 0.52870
 C27 C 0.77713 0.53796 0.57944
 C28 C 0.75307 0.53769 0.54986
 C29 C 0.75117 0.54133 0.46447
 C30 C 0.77419 0.54882 0.41422
 H31 H 0.77255 0.55120 0.34905
 H32 H 0.77909 0.53531 0.64422
 C33 C 0.58153 0.31815 0.43929
 C34 C 0.56916 0.31204 0.51835
 C35 C 0.56807 0.28866 0.56189
 C36 C 0.57463 0.26854 0.52421
 C37 C 0.58330 0.27303 0.44101
 C38 C 0.58833 0.29848 0.40180
 H39 H 0.59525 0.30175 0.33873
 H40 H 0.56028 0.28506 0.62390
 C41 C 0.71025 0.24270 0.47552
 C42 C 0.71364 0.24446 0.56101
 C43 C 0.73933 0.26289 0.59474
 C44 C 0.76241 0.27946 0.54502
 C45 C 0.75821 0.27904 0.45871
 C46 C 0.73230 0.26069 0.42588
 H47 H 0.72940 0.25974 0.36026
 H48 H 0.74164 0.26190 0.66010
 N49 N 1.02417 0.46304 -0.11641
 N50 N 1.04320 0.46289 -0.16542
 N51 N 0.96555 0.42990 -0.03977
 N52 N 0.94162 0.40632 -0.03474
 N53 N 0.96743 0.44310 -0.10893
 N54 N 0.94526 0.42874 -0.15349
 N55 N 1.02311 0.44995 -0.04759
 N56 N 1.04185 0.44113 -0.04707
 C57 C 1.05397 0.44910 -0.12126
 C58 C 0.92938 0.40590 -0.10663
 N59 N 0.97508 0.46785 0.17348
 N60 N 0.95461 0.46238 0.22447
 N61 N 1.02770 0.46472 0.12295
 N62 N 1.04528 0.45576 0.14572
 N63 N 1.03196 0.48784 0.16397
 N64 N 1.05225 0.49509 0.21614
 N65 N 0.97044 0.44487 0.13114
 N66 N 0.94657 0.42315 0.15204
 Mn67 Mn 0.99660 0.44696 0.04192
 C68 C 0.93699 0.43441 0.21068
 C69 C 1.06052 0.47504 0.20376
 N70 N 0.97489 0.49907 -0.14832
 N71 N 0.95246 0.48969 -0.19299
 N72 N 1.03606 0.54252 -0.11546
 N73 N 1.05852 0.56515 -0.14059
 N74 N 1.03221 0.51963 -0.15716
 N75 N 1.05189 0.52614 -0.21205
 N76 N 0.97904 0.52223 -0.10748
 N77 N 0.95990 0.52961 -0.12471
 Mn78 Mn 0.99972 0.48119 -0.13365
 C79 C 0.94354 0.50911 -0.17811
 C80 C 1.06820 0.55463 -0.20092
 N81 N 1.03984 0.54405 0.12340
 N82 N 1.06195 0.55900 0.16779
 N83 N 0.98306 0.53660 0.06484
 N84 N 0.96112 0.54069 0.06254
 N85 N 0.98316 0.52370 0.13299
 N86 N 0.96166 0.51876 0.17830
 N87 N 1.04094 0.55741 0.05516
 N88 N 1.06423 0.58166 0.05041
 Mn89 Mn 1.00764 0.50598 0.14904
 Mn90 Mn 1.00980 0.54009 -0.02595
 Cl91 Cl 1.00347 0.49356 0.00772
 C92 C 1.07697 0.58231 0.12141
 C93 C 0.94829 0.52974 0.13476
 N94 N 0.55111 0.53306 0.13586
 N95 N 0.56839 0.52990 0.18491
 N96 N 0.52698 0.57305 0.08195
 N97 N 0.52370 0.59617 0.08669
 N98 N 0.51347 0.55514 0.14106
 N99 N 0.50046 0.56553 0.18702
 N100 N 0.56455 0.55134 0.07763
 N101 N 0.59123 0.56124 0.08548
 C102 C 0.59336 0.54764 0.15240
 C103 C 0.50725 0.59126 0.15292
 N104 N 0.50943 0.55182 -0.14771
 N105 N 0.49753 0.56227 -0.19682
 N106 N 0.56229 0.54901 -0.09724
 N107 N 0.58862 0.55874 -0.11421
 N108 N 0.54695 0.52968 -0.15119
 N109 N 0.56239 0.52587 -0.20674
 N110 N 0.52499 0.57122 -0.09435
 N111 N 0.52464 0.59568 -0.10682
 Mn112 Mn 0.54491 0.56149 -0.00792
 C113 C 0.50728 0.58962 -0.17062
 C114 C 0.58827 0.54382 -0.18206
 N115 N 0.46850 0.49810 0.14875
 N116 N 0.45343 0.50345 0.20213
 N117 N 0.48961 0.45641 0.08933
 N118 N 0.49285 0.43332 0.09041
 N119 N 0.50599 0.47542 0.14242
 N120 N 0.52091 0.46561 0.18069
 N121 N 0.45277 0.47906 0.09471
 N122 N 0.42656 0.47039 0.11100
 Mn123 Mn 0.50984 0.51540 0.14325
 C124 C 0.42737 0.48595 0.17794
 C125 C 0.51221 0.43910 0.14789
 N126 N 0.50153 0.47228 -0.14369
 N127 N 0.51416 0.46128 -0.18893
 N128 N 0.45026 0.47738 -0.08278
 N129 N 0.42377 0.46903 -0.09354
 N130 N 0.46486 0.49510 -0.14085
 N131 N 0.44904 0.49963 -0.19166
 N132 N 0.48741 0.45460 -0.08485
 N133 N 0.49050 0.43136 -0.08750
 Mn134 Mn 0.50571 0.51215 -0.14670
 Mn135 Mn 0.46962 0.46658 0.00417
 Cl136 Cl 0.50751 0.51391 -0.00173
 C137 C 0.50691 0.43571 -0.15319
 C138 C 0.42349 0.48338 -0.16179
 N139 N 0.43803 -0.01893 0.08221
 N140 N 0.41251 -0.04005 0.08512
 N141 N 0.48790 0.03788 0.14252
 N142 N 0.49941 0.06099 0.18891
 N143 N 0.47270 0.04079 0.08587
 N144 N 0.47308 0.06584 0.09305
 N145 N 0.45282 -0.02179 0.14032
 N146 N 0.43787 -0.04492 0.18377
 C147 C 0.41273 -0.05599 0.14932
 C148 C 0.48980 0.07808 0.15766
 N149 N 0.55086 0.02498 0.09471
 N150 N 0.57668 0.04454 0.10545
 N151 N 0.49959 -0.03145 0.14609
 N152 N 0.48843 -0.05378 0.19508
 N153 N 0.51590 -0.03444 0.09261
 N154 N 0.51675 -0.05865 0.10473
 N155 N 0.53483 0.02830 0.14857
 N156 N 0.54929 0.05034 0.19699
 Mn157 Mn 0.49377 0.00328 0.14537
 C158 C 0.57539 0.06018 0.16965
 C159 C 0.49937 -0.07047 0.16854
 N160 N 0.47540 0.04168 -0.08994
 N161 N 0.47564 0.06659 -0.09837
 N162 N 0.45692 -0.02081 -0.14769
 N163 N 0.44283 -0.04262 -0.19699
 N164 N 0.44059 -0.01785 -0.09416
 N165 N 0.41480 -0.03728 -0.10663
 N166 N 0.49183 0.03901 -0.14374
 N167 N 0.50380 0.06211 -0.18981
 Mn168 Mn 0.45633 0.01144 -0.00399
 C169 C 0.49341 0.07911 -0.16109
 C170 C 0.41666 -0.05251 -0.17093
 N171 N 0.51782 -0.03433 -0.08355
 N172 N 0.51561 -0.06027 -0.08800
 N173 N 0.53866 0.02906 -0.13778
 N174 N 0.55441 0.05124 -0.18360
 N175 N 0.55318 0.02510 -0.08105
 N176 N 0.57936 0.04421 -0.08752
 N177 N 0.50361 -0.03063 -0.14192
 N178 N 0.49131 -0.05397 -0.18726
 Mn179 Mn 0.53472 -0.00477 0.00564
 Mn180 Mn 0.49781 0.00422 -0.14381
 Cl181 Cl 0.49566 0.00354 0.00078
 C182 C 0.49916 -0.07219 -0.15350
 C183 C 0.57971 0.06031 -0.15176
 C184 C 1.17093 0.44508 0.42427
 C185 C 1.15248 0.44869 0.37351
 C186 C 1.14423 0.43339 0.29898
 C187 C 1.15534 0.41550 0.27526
 C188 C 1.17369 0.41197 0.32622
 C189 C 1.18090 0.42583 0.40280
 C190 C 1.12481 0.43599 0.24985
 C191 C 1.11361 0.45377 0.27431
 C192 C 1.12251 0.46971 0.34779
 C193 C 1.14185 0.46704 0.39692
 C194 C 1.11169 0.48786 0.37144
 C195 C 1.09190 0.48989 0.32351
 C196 C 1.08237 0.47359 0.25158
 C197 C 1.09345 0.45570 0.22689
 H198 H 1.17738 0.45710 0.48097
 H199 H 1.14947 0.40383 0.21796
 H200 H 1.18115 0.39719 0.30742
 H201 H 1.11822 0.42396 0.19316
 H202 H 1.14832 0.47893 0.45387
 H203 H 1.11838 0.50032 0.42731
 H204 H 1.08367 0.50386 0.34366
 H205 H 1.08637 0.44326 0.17105
 C206 C 0.43828 0.67724 0.35755
 C207 C 0.44649 0.65792 0.32443
 C208 C 0.43405 0.62931 0.35224
 C209 C 0.41294 0.62027 0.41049
 C210 C 0.40510 0.63971 0.44379
 C211 C 0.41833 0.66871 0.42029
 C212 C 0.44321 0.61034 0.32236
 C213 C 0.46487 0.61976 0.26561
 C214 C 0.47691 0.64823 0.23646
 C215 C 0.46759 0.66709 0.26586
 C216 C 0.49833 0.65747 0.17906
 C217 C 0.50804 0.63883 0.15152
 C218 C 0.49664 0.61072 0.18137
 C219 C 0.47491 0.60125 0.23812
 H220 H 0.44890 0.69944 0.33835
 H221 H 0.40270 0.59824 0.43111
 H222 H 0.38829 0.63185 0.48707
 H223 H 0.43382 0.58845 0.34430
 H224 H 0.47708 0.68902 0.24426
 H225 H 0.50770 0.67917 0.15582
 H226 H 0.52471 0.64654 0.10749
 H227 H 0.46579 0.57948 0.26085
 C228 C 0.30453 -0.20006 0.35612
 C229 C 0.32675 -0.17633 0.31991
 C230 C 0.35394 -0.16944 0.34143
 C231 C 0.35854 -0.18698 0.39572
 C232 C 0.33644 -0.21040 0.43146
 C233 C 0.30909 -0.21661 0.41542
 C234 C 0.37613 -0.14482 0.30968
 C235 C 0.37153 -0.12681 0.25689
 C236 C 0.34444 -0.13400 0.23325
 C237 C 0.32220 -0.15877 0.26481
 C238 C 0.34011 -0.11599 0.17950
 C239 C 0.36233 -0.09079 0.15087
 C240 C 0.38919 -0.08311 0.17612
 C241 C 0.39363 -0.10144 0.22844
 H242 H 0.28380 -0.20421 0.34232
 H243 H 0.37926 -0.18237 0.41150
 H244 H 0.34085 -0.22380 0.47176
 H245 H 0.39693 -0.13934 0.32749
 H246 H 0.30139 -0.16405 0.24780
 H247 H 0.31952 -0.12122 0.16031
 H248 H 0.35848 -0.07704 0.11023
 H249 H 0.41433 -0.09589 0.24747
 C250 C 0.82519 0.53191 0.36696
 C251 C 0.84617 0.53531 0.31235
 C252 C 0.86292 0.56237 0.27667
 C253 C 0.85751 0.58527 0.29383
 C254 C 0.83620 0.58154 0.34739
 C255 C 0.82045 0.55506 0.38569
 C256 C 0.88507 0.56616 0.22601
 C257 C 0.89070 0.54325 0.21120
 C258 C 0.87309 0.51595 0.24454
 C259 C 0.85092 0.51215 0.29434
 C260 C 0.87862 0.49307 0.23075
 C261 C 0.90236 0.49753 0.18913
 C262 C 0.92075 0.52478 0.15926
 C263 C 0.91440 0.54742 0.16747
 H264 H 0.81265 0.51135 0.39565
 H265 H 0.86992 0.60610 0.26658
 H266 H 0.83243 0.59946 0.36077
 H267 H 0.89834 0.58706 0.20024
 H268 H 0.83789 0.49136 0.32121
 H269 H 0.86529 0.47202 0.25546
 H270 H 0.90705 0.47988 0.18335
 H271 H 0.92880 0.56856 0.14551
 C272 C 0.57148 0.34077 0.31990
 C273 C 0.56725 0.36322 0.29042
 C274 C 0.57890 0.38990 0.33183
 C275 C 0.59589 0.39411 0.39943
 C276 C 0.59907 0.37127 0.43033
 C277 C 0.58570 0.34407 0.39325
 C278 C 0.57204 0.41122 0.30810
 C279 C 0.55290 0.40576 0.24544
 C280 C 0.54203 0.37935 0.20262
 C281 C 0.54965 0.35853 0.22437
 C282 C 0.52280 0.37364 0.14065
 C283 C 0.51354 0.39334 0.12309
 C284 C 0.52345 0.41932 0.16653
 C285 C 0.54364 0.42572 0.22670
 H286 H 0.56100 0.31978 0.29141
 H287 H 0.60523 0.41445 0.43156
 H288 H 0.61028 0.37422 0.48667
 H289 H 0.58051 0.43144 0.34098
 H290 H 0.54071 0.33807 0.19265
 H291 H 0.51441 0.35361 0.10695
 H292 H 0.49827 0.38798 0.07575
 H293 H 0.55159 0.44579 0.26009
 C294 C 0.68851 0.19901 0.38802
 C295 C 0.66551 0.17597 0.35315
 C296 C 0.63900 0.17303 0.36736
 C297 C 0.63615 0.19384 0.41409
 C298 C 0.65932 0.21717 0.44685
 C299 C 0.68556 0.21948 0.43602
 C300 C 0.61588 0.14943 0.33450
 C301 C 0.61904 0.12902 0.28654
 C302 C 0.64568 0.13248 0.27079
 C303 C 0.66868 0.15577 0.30470
 C304 C 0.64893 0.11256 0.22127
 C305 C 0.62602 0.08927 0.18787
 C306 C 0.59944 0.08522 0.20435
 C307 C 0.59604 0.10521 0.25378
 H308 H 0.70878 0.20089 0.37887
 H309 H 0.61605 0.19212 0.42512
 H310 H 0.65672 0.23335 0.48076
 H311 H 0.59551 0.14696 0.34618
 H312 H 0.68906 0.15820 0.29328
 H313 H 0.66920 0.11500 0.20832
 H314 H 0.62909 0.07416 0.14991
 H315 H 0.57559 0.10241 0.26602
 C316 C 0.54810 0.22937 -0.37849
 C317 C 0.54263 0.20317 -0.34238
 C318 C 0.55971 0.19063 -0.36023
 C319 C 0.58252 0.20500 -0.41148
 C320 C 0.58795 0.23112 -0.44662
 C321 C 0.57037 0.24334 -0.43333
 C322 C 0.55358 0.16384 -0.32718
 C323 C 0.53056 0.14941 -0.27621
 C324 C 0.51386 0.16230 -0.25673
 C325 C 0.51995 0.18902 -0.29006
 C326 C 0.49117 0.14812 -0.20465
 C327 C 0.48481 0.12126 -0.17290
 C328 C 0.50083 0.10792 -0.19329
 C329 C 0.52383 0.12221 -0.24475
 H330 H 0.53388 0.23778 -0.36739
 H331 H 0.59617 0.19602 -0.42469
 H332 H 0.60635 0.24203 -0.48331
 H333 H 0.56653 0.15410 -0.34181
 H334 H 0.50690 0.19867 -0.27585
 H335 H 0.47824 0.15774 -0.18875
 H336 H 0.46707 0.11071 -0.13323
 H337 H 0.53650 0.11223 -0.26015
 C338 C 0.71803 0.55133 -0.40706
 C339 C 0.69610 0.54782 -0.35656
 C340 C 0.68875 0.52914 -0.28915
 C341 C 0.70375 0.51448 -0.27328
 C342 C 0.72527 0.51760 -0.32517
 C343 C 0.73223 0.53542 -0.39448
 C344 C 0.66642 0.52530 -0.23934
 C345 C 0.65117 0.53960 -0.25720
 C346 C 0.65864 0.55827 -0.32502
 C347 C 0.68119 0.56246 -0.37365
 C348 C 0.64317 0.57218 -0.34390
 C349 C 0.62031 0.56746 -0.29657
 C350 C 0.61281 0.54908 -0.22933
 C351 C 0.62830 0.53528 -0.20925
 H352 H 0.72416 0.56678 -0.45611
 H353 H 0.69847 0.50011 -0.22169
 H354 H 0.73550 0.50491 -0.31288
 H355 H 0.66071 0.51092 -0.18757
 H356 H 0.68681 0.57669 -0.42579
 H357 H 0.64859 0.58647 -0.39575
 H358 H 0.60837 0.57810 -0.31249
 H359 H 0.62226 0.52092 -0.15740
 C360 C 0.79244 0.30642 -0.33921
 C361 C 0.81871 0.32133 -0.30405
 C362 C 0.84198 0.32462 -0.34881
 C363 C 0.83853 0.31123 -0.42486
 C364 C 0.81235 0.29550 -0.45781
 C365 C 0.78891 0.29404 -0.41815
 C366 C 0.86838 0.34116 -0.31691
 C367 C 0.87184 0.35389 -0.23959
 C368 C 0.84857 0.34915 -0.19214
 C369 C 0.82212 0.33323 -0.22517
 C370 C 0.85228 0.36088 -0.11307
 C371 C 0.87879 0.37802 -0.08269
 C372 C 0.90182 0.38410 -0.13166
 C373 C 0.89826 0.37171 -0.20953
 H374 H 0.77502 0.30558 -0.30605
 H375 H 0.85607 0.31260 -0.45859
 H376 H 0.81062 0.28397 -0.51405
 H377 H 0.88624 0.34427 -0.35246
 H378 H 0.80428 0.33025 -0.18980
 H379 H 0.83471 0.35725 -0.07541
 H380 H 0.88129 0.38766 -0.02265
 H381 H 0.91613 0.37637 -0.24718
 C382 C 0.43499 -0.22583 -0.35709
 C383 C 0.44236 -0.19854 -0.32473
 C384 C 0.42998 -0.18249 -0.35517
 C385 C 0.40962 -0.19452 -0.41504
 C386 C 0.40236 -0.22171 -0.44678
 C387 C 0.41579 -0.23728 -0.42120
 C388 C 0.43841 -0.15458 -0.32612
 C389 C 0.45920 -0.14247 -0.26722
 C390 C 0.47120 -0.15876 -0.23560
 C391 C 0.46266 -0.18670 -0.26441
 C392 C 0.49184 -0.14668 -0.17638
 C393 C 0.50080 -0.11858 -0.14938
 C394 C 0.48939 -0.10203 -0.18142
 C395 C 0.46842 -0.11420 -0.24003
 H396 H 0.44582 -0.23713 -0.33616
 H397 H 0.39941 -0.18283 -0.43773
 H398 H 0.38596 -0.23066 -0.49093
 H399 H 0.42913 -0.14215 -0.35027
 H400 H 0.47214 -0.19903 -0.24087
 H401 H 0.50118 -0.15891 -0.15131
 H402 H 0.51686 -0.10970 -0.10392
 H403 H 0.45929 -0.10169 -0.26458
 C404 C 0.28631 0.44607 -0.39425
 C405 C 0.30739 0.44957 -0.34116
 C406 C 0.30235 0.42935 -0.27885
 C407 C 0.27578 0.40640 -0.26930
 C408 C 0.25465 0.40332 -0.32193
 C409 C 0.25990 0.42262 -0.38679
 C410 C 0.32393 0.43253 -0.22739
 C411 C 0.35036 0.45583 -0.23755
 C412 C 0.35487 0.47644 -0.29858
 C413 C 0.33343 0.47318 -0.34976
 C414 C 0.38094 0.49982 -0.30888
 C415 C 0.40276 0.50229 -0.26159
 C416 C 0.39899 0.48151 -0.20279
 C417 C 0.37255 0.45862 -0.18936
 H418 H 0.29023 0.46245 -0.43921
 H419 H 0.27136 0.39081 -0.22134
 H420 H 0.23441 0.38521 -0.31372
 H421 H 0.32023 0.41682 -0.18027
 H422 H 0.33714 0.48882 -0.39720
 H423 H 0.38463 0.51590 -0.35481
 H424 H 0.42285 0.52033 -0.27238
 H425 H 0.36949 0.44253 -0.14409
 C426 C 1.20326 0.67058 -0.41686
 C427 C 1.18025 0.65282 -0.36911
 C428 C 1.17319 0.66444 -0.30040
 C429 C 1.18929 0.69338 -0.28010
 C430 C 1.21190 0.71088 -0.32815
 C431 C 1.21892 0.69980 -0.39727
 C432 C 1.14999 0.64710 -0.25345
 C433 C 1.13357 0.61825 -0.27428
 C434 C 1.14063 0.60643 -0.34238
 C435 C 1.16396 0.62379 -0.38940
 C436 C 1.12407 0.57746 -0.36247
 C437 C 1.10063 0.56049 -0.31602
 C438 C 1.09331 0.57223 -0.24894
 C439 C 1.11001 0.60112 -0.22820
 H440 H 1.20872 0.66193 -0.46993
 H441 H 1.18416 0.70260 -0.22770
 H442 H 1.22362 0.73338 -0.31245
 H443 H 1.14458 0.65613 -0.20109
 H444 H 1.16929 0.61480 -0.44199
 H445 H 1.12916 0.56798 -0.41430
 H446 H 1.08809 0.53825 -0.33307
 H447 H 1.10463 0.61035 -0.17631
 C448 C 0.82301 0.52488 -0.38622
 C449 C 0.84703 0.52616 -0.35369
 C450 C 0.87264 0.55062 -0.36767
 C451 C 0.87393 0.57282 -0.41656
 C452 C 0.85012 0.57081 -0.45169
 C453 C 0.82435 0.54690 -0.43696
 C454 C 0.89658 0.55241 -0.33308
 C455 C 0.89543 0.52951 -0.28771
 C456 C 0.87002 0.50440 -0.27730
 C457 C 0.84590 0.50313 -0.30884
 C458 C 0.86925 0.48086 -0.23617
 C459 C 0.89340 0.48223 -0.20543
 C460 C 0.91842 0.50745 -0.21293
 C461 C 0.91937 0.53110 -0.25363
 H462 H 0.80339 0.50611 -0.37518
 H463 H 0.89338 0.59172 -0.42792
 H464 H 0.85176 0.58863 -0.48768
 H465 H 0.91614 0.57142 -0.34261
 H466 H 0.82636 0.48408 -0.29964
 H467 H 0.85004 0.46134 -0.22837
 H468 H 0.89249 0.46382 -0.17418
 H469 H 0.93884 0.55043 -0.26031
 C470 C 0.55816 0.33551 -0.36684
 C471 C 0.54631 0.35237 -0.33838
 C472 C 0.53169 0.36071 -0.39316
 C473 C 0.52742 0.35047 -0.47333
 C474 C 0.53860 0.33323 -0.50037
 C475 C 0.55561 0.32701 -0.44956
 C476 C 0.52145 0.37908 -0.36715
 C477 C 0.52489 0.38868 -0.28623
 C478 C 0.53810 0.37915 -0.22977
 C479 C 0.54910 0.36138 -0.25649
 C480 C 0.54004 0.38764 -0.14763
 C481 C 0.52926 0.40562 -0.12219
 C482 C 0.51723 0.41599 -0.17898
 C483 C 0.51512 0.40755 -0.26080
 H484 H 0.57049 0.33038 -0.32569
 H485 H 0.51535 0.35572 -0.51521
 H486 H 0.53369 0.32457 -0.56158
 H487 H 0.51076 0.38588 -0.40991
 H488 H 0.55981 0.35461 -0.21377
 H489 H 0.54980 0.38036 -0.10320
 H490 H 0.53093 0.41203 -0.05862
 H491 H 0.50542 0.41529 -0.30420
 C492 C 0.69353 0.19930 -0.36000
 C493 C 0.67176 0.17777 -0.31643
 C494 C 0.64807 0.18070 -0.29853
 C495 C 0.64742 0.20601 -0.31973
 C496 C 0.66949 0.22760 -0.36183
 C497 C 0.69206 0.22379 -0.38486
 C498 C 0.62535 0.15815 -0.26098
 C499 C 0.62627 0.13300 -0.23970
 C500 C 0.65062 0.13086 -0.25286
 C501 C 0.67311 0.15315 -0.29198
 C502 C 0.65191 0.10625 -0.22766
 C503 C 0.62901 0.08360 -0.19176
 C504 C 0.60441 0.08500 -0.18280
 C505 C 0.60314 0.10978 -0.20611
 H506 H 0.71129 0.19671 -0.37686
 H507 H 0.62973 0.20890 -0.30479
 H508 H 0.66856 0.24685 -0.37897
 H509 H 0.60690 0.16004 -0.24912
 H510 H 0.69150 0.15119 -0.30425
 H511 H 0.67050 0.10442 -0.23641
 H512 H 0.63019 0.06457 -0.17366
 H513 H 0.58417 0.11096 -0.19790
 C514 C 1.16894 0.42544 -0.34264
 C515 C 1.14521 0.42507 -0.30967
 C516 C 1.12030 0.41178 -0.35349
 C517 C 1.11902 0.39716 -0.42626
 C518 C 1.14257 0.39708 -0.45781
 C519 C 1.16828 0.41266 -0.41928
 C520 C 1.09721 0.41365 -0.32444
 C521 C 1.09859 0.42815 -0.25109
 C522 C 1.12302 0.43985 -0.20457
 C523 C 1.14627 0.43853 -0.23463
 C524 C 1.12387 0.45299 -0.12913
 C525 C 1.10094 0.45511 -0.10088
 C526 C 1.07720 0.44490 -0.14871
 C527 C 1.07600 0.43131 -0.22357
 H528 H 1.18824 0.43751 -0.31091
 H529 H 1.09988 0.38606 -0.45942
 H530 H 1.14069 0.38523 -0.51366
 H531 H 1.07830 0.40411 -0.35926
 H532 H 1.16524 0.44825 -0.20010
 H533 H 1.14230 0.46176 -0.09226
 H534 H 1.10202 0.46554 -0.04283
 H535 H 1.05744 0.42308 -0.25986
 C536 C 0.44649 0.67912 -0.38986
 C537 C 0.45316 0.66099 -0.34418
 C538 C 0.43193 0.63580 -0.30941
 C539 C 0.40451 0.63021 -0.31659
 C540 C 0.39814 0.64896 -0.35999
 C541 C 0.41899 0.67282 -0.39939
 C542 C 0.43847 0.61661 -0.26851
 C543 C 0.46601 0.62281 -0.25955
 C544 C 0.48727 0.64890 -0.28991
 C545 C 0.48069 0.66758 -0.33322
 C546 C 0.51480 0.65582 -0.27673
 C547 C 0.52125 0.63683 -0.23515
 C548 C 0.50031 0.61035 -0.20858
 C549 C 0.47271 0.60339 -0.22066
 H550 H 0.46258 0.69798 -0.41897
 H551 H 0.38802 0.61128 -0.28922
 H552 H 0.37688 0.64421 -0.36602
 H553 H 0.42219 0.59692 -0.24364
 H554 H 0.49697 0.68722 -0.35837
 H555 H 0.53132 0.67585 -0.29875
 H556 H 0.54261 0.64238 -0.22602
 H557 H 0.45656 0.58301 -0.19909
 C558 C 0.31065 -0.19291 -0.39448
 C559 C 0.33086 -0.17090 -0.34789
 C560 C 0.35205 -0.17489 -0.31218
 C561 C 0.35171 -0.20150 -0.32008
 C562 C 0.33102 -0.22363 -0.36510
 C563 C 0.31089 -0.21911 -0.40426
 C564 C 0.37315 -0.15225 -0.26932
 C565 C 0.37282 -0.12601 -0.25994
 C566 C 0.35065 -0.12274 -0.29138
 C567 C 0.33005 -0.14505 -0.33626
 C568 C 0.34955 -0.09709 -0.27781
 C569 C 0.37059 -0.07457 -0.23522
 C570 C 0.39330 -0.07715 -0.20791
 C571 C 0.39433 -0.10290 -0.21984
 H572 H 0.29461 -0.18980 -0.42318
 H573 H 0.36744 -0.20516 -0.29162
 H574 H 0.33109 -0.24399 -0.37125
 H575 H 0.38973 -0.15504 -0.24320
 H576 H 0.31341 -0.14229 -0.36212
 H577 H 0.33254 -0.09438 -0.30064
 H578 H 0.36967 -0.05474 -0.22626
 H579 H 0.41184 -0.10489 -0.19775
 C580 C 0.44380 -0.21885 0.39028
 C581 C 0.44959 -0.19464 0.34336
 C582 C 0.42788 -0.19214 0.30534
 C583 C 0.40096 -0.21478 0.31092
 C584 C 0.39550 -0.23923 0.35609
 C585 C 0.41675 -0.24086 0.39820
 C586 C 0.43347 -0.16703 0.26283
 C587 C 0.46057 -0.14485 0.25593
 C588 C 0.48240 -0.14824 0.28967
 C589 C 0.47672 -0.17290 0.33426
 C590 C 0.50960 -0.12676 0.27868
 C591 C 0.51513 -0.10184 0.23617
 C592 C 0.49353 -0.09774 0.20636
 C593 C 0.46628 -0.11926 0.21596
 H594 H 0.46023 -0.22056 0.42153
 H595 H 0.38415 -0.21346 0.28101
 H596 H 0.37460 -0.25637 0.36101
 H597 H 0.41680 -0.16479 0.23514
 H598 H 0.49339 -0.17517 0.36195
 H599 H 0.52656 -0.12917 0.30332
 H600 H 0.53622 -0.08529 0.22898
 H601 H 0.44965 -0.11610 0.19197
 C602 C 0.28799 0.45100 0.40168
 C603 C 0.31155 0.45282 0.36312
 C604 C 0.31419 0.42771 0.35147
 C605 C 0.29381 0.40149 0.38196
 C606 C 0.27099 0.40013 0.42345
 C607 C 0.26789 0.42478 0.43310
 C608 C 0.33719 0.42925 0.30993
 C609 C 0.35812 0.45575 0.28289
 C610 C 0.35616 0.48107 0.29857
 C611 C 0.33264 0.47936 0.33705
 C612 C 0.37792 0.50771 0.27605
 C613 C 0.40134 0.50925 0.23802
 C614 C 0.40291 0.48417 0.21940
 C615 C 0.38123 0.45744 0.24153
 H616 H 0.28550 0.47003 0.40923
 H617 H 0.29560 0.38208 0.37418
 H618 H 0.25549 0.37977 0.44697
 H619 H 0.33897 0.40992 0.29960
 H620 H 0.33091 0.49871 0.34771
 H621 H 0.37693 0.52735 0.28847
 H622 H 0.41802 0.53002 0.22158
 H623 H 0.38273 0.43811 0.22838
 C624 C 1.20996 0.69339 0.35030
 C625 C 1.18420 0.67661 0.31401
 C626 C 1.16018 0.67394 0.35323
 C627 C 1.16244 0.68961 0.42466
 C628 C 1.18816 0.70689 0.45885
 C629 C 1.21200 0.70789 0.42436
 C630 C 1.13427 0.65546 0.32099
 C631 C 1.13204 0.64007 0.24892
 C632 C 1.15604 0.64410 0.20664
 C633 C 1.18200 0.66211 0.23996
 C634 C 1.15359 0.62956 0.13251
 C635 C 1.12762 0.61047 0.10217
 C636 C 1.10389 0.60528 0.14639
 C637 C 1.10614 0.62032 0.21915
 H638 H 1.22832 0.69455 0.32227
 H639 H 1.14430 0.68835 0.45442
 H640 H 1.18936 0.71895 0.51375
 H641 H 1.11586 0.65282 0.35244
 H642 H 1.20040 0.66457 0.20886
 H643 H 1.17172 0.63259 0.09880
 H644 H 1.12607 0.59884 0.04605
 H645 H 1.08771 0.61631 0.25299
 C646 C 0.55079 0.22898 0.36941
 C647 C 0.54448 0.20423 0.32400
 C648 C 0.56582 0.19844 0.29759
 C649 C 0.59330 0.21869 0.31239
 C650 C 0.59945 0.24381 0.35629
 C651 C 0.57812 0.24840 0.38760
 C652 C 0.55924 0.17242 0.25785
 C653 C 0.53166 0.15262 0.24263
 C654 C 0.51056 0.15948 0.26415
 C655 C 0.51709 0.18507 0.30564
 C656 C 0.48316 0.14041 0.24486
 C657 C 0.47657 0.11431 0.20675
 C658 C 0.49716 0.10667 0.18974
 C659 C 0.52471 0.12591 0.20695
 H660 H 0.53442 0.23306 0.39201
 H661 H 0.60996 0.21495 0.29091
 H662 H 0.62067 0.25901 0.36873
 H663 H 0.57548 0.16751 0.23939
 H664 H 0.50084 0.18994 0.32437
 H665 H 0.46684 0.14555 0.26004
 H666 H 0.45527 0.09959 0.19348
 H667 H 0.54062 0.12003 0.19259
 C668 C 0.72302 0.55393 0.37026
 C669 C 0.69776 0.54832 0.33621
 C670 C 0.67374 0.52281 0.35653
 C671 C 0.67560 0.50295 0.40880
 C672 C 0.70091 0.50861 0.44193
 C673 C 0.72467 0.53440 0.42440
 C674 C 0.64829 0.51765 0.32458
 C675 C 0.64664 0.53757 0.27195
 C676 C 0.67082 0.56272 0.25018
 C677 C 0.69616 0.56801 0.28281
 C678 C 0.66929 0.58226 0.19606
 C679 C 0.64403 0.57706 0.16396
 C680 C 0.61983 0.55248 0.18634
 C681 C 0.62121 0.53276 0.24046
 H682 H 0.74131 0.57383 0.35646
 H683 H 0.65749 0.48317 0.42447
 H684 H 0.70190 0.49306 0.48253
 H685 H 0.62983 0.49822 0.34073
 H686 H 0.71462 0.58745 0.26674
 H687 H 0.68762 0.60155 0.17848
 H688 H 0.64340 0.59253 0.12227
 H689 H 0.60262 0.51358 0.25725
 C690 C 0.79586 0.32695 0.41397
 C691 C 0.81908 0.34328 0.36549
 C692 C 0.82604 0.32998 0.30079
 C693 C 0.80928 0.30082 0.28427
 C694 C 0.78657 0.28462 0.33382
 C695 C 0.78014 0.29734 0.40036
 C696 C 0.85009 0.34578 0.25526
 C697 C 0.86755 0.37459 0.27445
 C698 C 0.86031 0.38808 0.33794
 C699 C 0.83602 0.37240 0.38266
 C700 C 0.87783 0.41692 0.35676
 C701 C 0.90261 0.43203 0.31458
 C702 C 0.91030 0.41858 0.25286
 C703 C 0.89246 0.38995 0.23225
 H704 H 0.79076 0.33687 0.46475
 H705 H 0.81424 0.29033 0.23475
 H706 H 0.77469 0.26181 0.32239
 H707 H 0.85558 0.33545 0.20638
 H708 H 0.83069 0.38264 0.43218
 H709 H 0.87255 0.42767 0.40482
 H710 H 0.91591 0.45419 0.33097
 H711 H 0.89811 0.37948 0.18422
   
