data_POSCAR
  _audit_creation_date              2014-09-24
  _audit_creation_method            'ToBaCCo'
  _symmetry_space_group_name_H-M    'P1'
  _symmetry_Int_Tables_number       1
  _symmetry_cell_setting            triclinic
  loop_
  _symmetry_equiv_pos_as_xyz
 x,y,z
_cell_length_a 23.5981
_cell_length_b 31.5846
_cell_length_c 24.5010
_cell_angle_alpha 90.101500
_cell_angle_beta 90.444600
_cell_angle_gamma 89.543800
loop_
  _atom_site_label
  _atom_site_type_symbol
  _atom_site_fract_x
  _atom_site_fract_y
  _atom_site_fract_z
O1 O 0.27385 0.28468 0.14926
 O2 O 0.34540 0.19773 0.22377
 O3 O 0.27561 0.19865 0.14870
 O4 O 0.35242 0.27622 0.23264
 O5 O 0.27834 0.28247 0.28674
 O6 O 0.19827 0.21148 0.19610
 O7 O 0.27276 0.19752 0.28005
 O8 O 0.20681 0.28889 0.21148
 Cu9 Cu 0.31769 0.24127 0.18121
 Cu10 Cu 0.23314 0.24349 0.25063
 C11 C 0.22836 0.30140 0.16724
 C12 C 0.32016 0.18244 0.26470
 C13 C 0.22341 0.19226 0.15751
 C14 C 0.32908 0.29154 0.27494
 O15 O 0.76088 0.20080 0.20689
 O16 O 0.68108 0.28831 0.26608
 O17 O 0.76660 0.28420 0.20293
 O18 O 0.68271 0.20868 0.28555
 O19 O 0.75616 0.20147 0.34095
 O20 O 0.82802 0.28720 0.27117
 O21 O 0.73824 0.28716 0.33779
 O22 O 0.82932 0.20709 0.26823
 Cu23 Cu 0.71697 0.24429 0.23340
 Cu24 Cu 0.79258 0.24719 0.31233
 C25 C 0.80920 0.18995 0.22526
 C26 C 0.69522 0.30243 0.31246
 C27 C 0.81123 0.29959 0.22456
 C28 C 0.70659 0.19103 0.32658
 O29 O 0.83293 0.70422 0.73470
 O30 O 0.75014 0.78215 0.65577
 O31 O 0.83227 0.78689 0.72724
 O32 O 0.75020 0.70019 0.66547
 O33 O 0.68668 0.70681 0.73089
 O34 O 0.77317 0.78910 0.79656
 O35 O 0.69123 0.78981 0.72475
 O36 O 0.77025 0.70736 0.80107
 Cu37 Cu 0.79764 0.74305 0.68908
 Cu38 Cu 0.72390 0.74877 0.76991
 C39 C 0.81534 0.69193 0.78085
 C40 C 0.70703 0.79969 0.67699
 C41 C 0.81720 0.80245 0.77286
 C42 C 0.70444 0.68889 0.68782
 O43 O 0.32931 0.78793 0.77786
 O44 O 0.23579 0.70840 0.84020
 O45 O 0.32219 0.70530 0.77445
 O46 O 0.24576 0.78938 0.84726
 O47 O 0.18929 0.79853 0.77599
 O48 O 0.26196 0.71030 0.70532
 O49 O 0.17602 0.71588 0.77101
 O50 O 0.27128 0.79166 0.70683
 Cu51 Cu 0.28939 0.74710 0.81682
 Cu52 Cu 0.21844 0.75468 0.73298
 C53 C 0.31616 0.80305 0.73130
 C54 C 0.18973 0.69884 0.81613
 C55 C 0.30509 0.69316 0.72778
 C56 C 0.20480 0.80866 0.82412
 C57 C 1.01077 0.04974 -0.00026
 C58 C 0.95229 0.04198 0.00918
 C59 C 0.92563 0.00822 -0.01782
 C60 C 0.95531 -0.01948 -0.05238
 C61 C 1.01359 -0.01196 -0.06152
 C62 C 1.04022 0.02219 -0.03555
 H63 H 1.08498 0.02702 -0.04282
 H64 H 0.88085 0.00326 -0.01111
 C65 C 0.50692 0.52919 0.53494
 C66 C 0.44713 0.52800 0.53168
 C67 C 0.42116 0.49659 0.49981
 C68 C 0.45297 0.46619 0.47059
 C69 C 0.51271 0.46497 0.47917
 C70 C 0.53856 0.49662 0.51081
 H71 H 0.58438 0.49683 0.51474
 H72 H 0.37534 0.49551 0.49889
 C73 C -0.03901 0.46742 0.03924
 C74 C 0.02061 0.47086 0.04561
 C75 C 0.04929 0.50367 0.01967
 C76 C 0.02053 0.53414 -0.01172
 C77 C -0.03906 0.53114 -0.01803
 C78 C -0.06788 0.49792 0.00753
 H79 H -0.11355 0.49618 0.00312
 H80 H 0.09498 0.50552 0.02417
 C81 C 0.46016 0.97292 0.54708
 C82 C 0.51846 0.98129 0.55428
 C83 C 0.54302 1.01548 0.52687
 C84 C 0.51091 1.04192 0.49184
 C85 C 0.45239 1.03271 0.48401
 C86 C 0.42795 0.99922 0.51262
 H87 H 0.38316 0.99305 0.50695
 H88 H 0.58791 1.02120 0.53263
 C89 C 1.10597 0.14291 0.08541
 C90 C 1.13215 0.10661 0.06410
 N91 N 1.18882 0.10086 0.07094
 C92 C 1.22032 0.12953 0.09916
 C93 C 1.19328 0.16411 0.12470
 N94 N 1.13652 0.16999 0.11683
 N95 N 1.05094 0.15116 0.07280
 C96 C 1.02015 0.12359 0.04211
 C97 C 1.04399 0.08420 0.02694
 N98 N 1.10040 0.07771 0.03687
 H99 H 1.26542 0.12405 0.10409
 H100 H 0.97757 0.13254 0.03028
 C101 C 0.59715 0.63065 0.60736
 C102 C 0.61281 0.58841 0.61787
 N103 N 0.65792 0.58001 0.65095
 C104 C 0.68808 0.61198 0.67405
 C105 C 0.67217 0.65414 0.66390
 N106 N 0.62702 0.66256 0.63071
 N107 N 0.55295 0.63905 0.57326
 C108 C 0.52330 0.60715 0.54949
 C109 C 0.53785 0.56473 0.56094
 N110 N 0.58293 0.55652 0.59447
 H111 H 0.72404 0.60462 0.70018
 H112 H 0.48895 0.61481 0.52162
 C113 C -0.13622 0.37210 0.11650
 C114 C -0.09258 0.39305 0.14449
 N115 N -0.08116 0.38320 0.19724
 C116 C -0.11144 0.35324 0.22352
 C117 C -0.15562 0.33214 0.19600
 N118 N -0.16700 0.34220 0.14284
 N119 N -0.14694 0.38204 0.06346
 C120 C -0.11605 0.41203 0.03732
 C121 C -0.07227 0.43321 0.06545
 N122 N -0.06224 0.42306 0.11854
 H123 H -0.10121 0.34619 0.26569
 H124 H -0.12539 0.41913 -0.00501
 C125 C 0.37317 0.87285 0.62438
 C126 C 0.41360 0.89641 0.65327
 N127 N 0.42342 0.88791 0.70689
 C128 C 0.39405 0.85715 0.73308
 C129 C 0.35230 0.83437 0.70450
 N130 N 0.34326 0.84279 0.65066
 N131 N 0.36364 0.88087 0.57074
 C132 C 0.39223 0.91192 0.54468
 C133 C 0.43173 0.93663 0.57371
 N134 N 0.44148 0.92796 0.62748
 H135 H 0.40220 0.85131 0.77595
 H136 H 0.38390 0.91742 0.50177
 C137 C -0.13519 0.62219 -0.10634
 C138 C -0.09254 0.59839 -0.13199
 N139 N -0.08068 0.60551 -0.18525
 C140 C -0.10950 0.63551 -0.21416
 C141 C -0.15254 0.65934 -0.18880
 N142 N -0.16443 0.65190 -0.13533
 N143 N -0.14620 0.61549 -0.05274
 C144 C -0.11606 0.58631 -0.02349
 C145 C -0.07280 0.56283 -0.04893
 N146 N -0.06292 0.56905 -0.10294
 H147 H -0.09910 0.64048 -0.25661
 H148 H -0.12530 0.58175 0.01929
 C149 C 0.35377 1.10932 0.37840
 C150 C 0.40281 1.08880 0.35933
 N151 N 0.42213 1.09754 0.30861
 C152 C 0.39523 1.12649 0.27638
 C153 C 0.34692 1.14788 0.29590
 N154 N 0.32701 1.13828 0.34633
 N155 N 0.33555 1.10175 0.42981
 C156 C 0.36502 1.07544 0.46364
 C157 C 0.41549 1.05630 0.44550
 N158 N 0.43240 1.06267 0.39315
 H159 H 0.41210 1.13332 0.23643
 H160 H 0.35061 1.07098 0.50505
 C161 C 1.11167 -0.10121 -0.14904
 C162 C 1.11698 -0.09742 -0.09214
 N163 N 1.15317 -0.12336 -0.06461
 C164 C 1.18380 -0.15344 -0.09126
 C165 C 1.17639 -0.15902 -0.14799
 N166 N 1.14047 -0.13241 -0.17549
 N167 N 1.07799 -0.07351 -0.17686
 C168 C 1.04809 -0.04301 -0.15005
 C169 C 1.04961 -0.04161 -0.09271
 N170 N 1.08531 -0.06821 -0.06523
 H171 H 1.21209 -0.17372 -0.06790
 H172 H 1.02148 -0.02122 -0.17296
 C173 C 0.62392 0.37267 0.41320
 C174 C 0.58914 0.39752 0.37886
 N175 N 0.59087 0.39157 0.32415
 C176 C 0.62544 0.36168 0.30209
 C177 C 0.66030 0.33656 0.33619
 N178 N 0.65889 0.34287 0.39116
 N179 N 0.62136 0.37827 0.46804
 C180 C 0.58550 0.40745 0.49007
 C181 C 0.55040 0.43214 0.45580
 N182 N 0.55367 0.42687 0.40081
 H183 H 0.62556 0.35751 0.25823
 H184 H 0.58421 0.41136 0.53395
 C185 C 0.86462 -0.12089 -0.12597
 C186 C 0.90827 -0.10063 -0.15381
 N187 N 0.92208 -0.11348 -0.20491
 C188 C 0.89382 -0.14566 -0.22972
 C189 C 0.84873 -0.16540 -0.20256
 N190 N 0.83548 -0.15235 -0.15107
 N191 N 0.85226 -0.10891 -0.07417
 C192 C 0.88133 -0.07723 -0.04910
 C193 C 0.92437 -0.05587 -0.07740
 N194 N 0.93630 -0.06844 -0.12923
 H195 H 0.90583 -0.15505 -0.27057
 H196 H 0.87100 -0.06906 -0.00744
 C197 C 0.36532 0.38433 0.36038
 C198 C 0.41710 0.37169 0.38391
 N199 N 0.44028 0.33376 0.36970
 C200 C 0.41368 0.30783 0.33331
 C201 C 0.36088 0.31992 0.31119
 N202 N 0.33793 0.35797 0.32542
 N203 N 0.34367 0.42309 0.37205
 C204 C 0.37109 0.44981 0.40658
 C205 C 0.42230 0.43699 0.43219
 N206 N 0.44374 0.39788 0.41982
 H207 H 0.43273 0.27762 0.32286
 H208 H 0.35322 0.48102 0.41289
 C209 C 0.12323 0.62910 -0.08140
 C210 C 0.08299 0.60762 -0.11325
 N211 N 0.07750 0.61684 -0.16710
 C212 C 0.11070 0.64653 -0.19069
 C213 C 0.15197 0.66751 -0.15919
 N214 N 0.15713 0.65821 -0.10511
 N215 N 0.12790 0.62037 -0.02734
 C216 C 0.09429 0.59091 -0.00373
 C217 C 0.05440 0.56880 -0.03567
 N218 N 0.05028 0.57767 -0.08988
 H219 H 0.10555 0.65315 -0.23379
 H220 H 0.09893 0.58454 0.03948
 C221 C 0.59501 1.13655 0.39967
 C222 C 0.62448 1.10107 0.41983
 N223 N 0.68075 1.09691 0.41019
 C224 C 0.70877 1.12649 0.38080
 C225 C 0.67850 1.16043 0.35688
 N226 N 0.62202 1.16460 0.36701
 N227 N 0.54087 1.14356 0.41568
 C228 C 0.51408 1.11561 0.44866
 C229 C 0.54083 1.07694 0.46280
 N230 N 0.59645 1.07166 0.44940
 H231 H 0.75384 1.12255 0.37425
 H232 H 0.47209 1.12351 0.46283
 C233 C 0.12685 0.38760 0.13507
 C234 C 0.12929 0.38905 0.07792
 N235 N 0.16720 0.36409 0.05122
 C236 C 0.20210 0.33710 0.07910
 C237 C 0.19801 0.33433 0.13619
 N238 N 0.16052 0.35992 0.16271
 N239 N 0.09063 0.41369 0.16202
 C240 C 0.05587 0.44071 0.13425
 C241 C 0.05565 0.44043 0.07692
 N242 N 0.09357 0.41531 0.05013
 H243 H 0.23101 0.31684 0.05679
 H244 H 0.02862 0.46219 0.15664
 C245 C 0.61722 0.89348 0.64441
 C246 C 0.61520 0.89181 0.58713
 N247 N 0.64383 0.86074 0.56045
 C248 C 0.67423 0.83105 0.58843
 C249 C 0.67518 0.83189 0.64581
 N250 N 0.64658 0.86327 0.67246
 N251 N 0.58976 0.92528 0.67095
 C252 C 0.55960 0.95509 0.64281
 C253 C 0.55550 0.95232 0.58570
 N254 N 0.58399 0.92094 0.55915
 H255 H 0.69660 0.80657 0.56611
 H256 H 0.53746 0.97987 0.66477
 C257 C 0.85280 0.12005 0.11187
 C258 C 0.90344 0.10201 0.13164
 N259 N 0.92206 0.11224 0.18261
 C260 C 0.89251 0.13997 0.21447
 C261 C 0.84190 0.15819 0.19446
 N262 N 0.82336 0.14740 0.14364
 N263 N 0.83475 0.11116 0.06051
 C264 C 0.86547 0.08540 0.02747
 C265 C 0.91683 0.06775 0.04648
 N266 N 0.93417 0.07597 0.09871
 H267 H 0.90852 0.14789 0.25469
 H268 H 0.85070 0.07961 -0.01379
 C269 C 0.34894 0.61784 0.61926
 C270 C 0.39582 0.59767 0.64370
 N271 N 0.41157 0.60835 0.69523
 C272 C 0.38273 0.63856 0.72347
 C273 C 0.33597 0.65920 0.69902
 N274 N 0.32012 0.64809 0.64737
 N275 N 0.33372 0.60745 0.56742
 C276 C 0.36361 0.57803 0.53869
 C277 C 0.41122 0.55822 0.56275
 N278 N 0.42570 0.56843 0.61504
 H279 H 0.39650 0.64655 0.76442
 H280 H 0.35123 0.57101 0.49704
   
