data_POSCAR
  _audit_creation_date              2014-09-24
  _audit_creation_method            'ToBaCCo'
  _symmetry_space_group_name_H-M    'P1'
  _symmetry_Int_Tables_number       1
  _symmetry_cell_setting            triclinic
  loop_
  _symmetry_equiv_pos_as_xyz
 x,y,z
_cell_length_a 49.7596
_cell_length_b 26.6764
_cell_length_c 20.3221
_cell_angle_alpha 90.043100
_cell_angle_beta 89.887000
_cell_angle_gamma 90.051600
loop_
  _atom_site_label
  _atom_site_type_symbol
  _atom_site_fract_x
  _atom_site_fract_y
  _atom_site_fract_z
O1 O 0.73539 0.30254 0.56207
 O2 O 0.78254 0.25945 0.43423
 O3 O 0.73540 0.30241 0.43408
 O4 O 0.78250 0.25955 0.56173
 O5 O 0.76295 0.18505 0.56188
 O6 O 0.71583 0.22795 0.43416
 O7 O 0.76300 0.18495 0.43430
 O8 O 0.71582 0.22808 0.56220
 Cu9 Cu 0.76089 0.28854 0.49799
 Cu10 Cu 0.73739 0.19902 0.49813
 C11 C 0.71757 0.27267 0.58349
 C12 C 0.78093 0.21476 0.41323
 C13 C 0.71757 0.27252 0.41283
 C14 C 0.78085 0.21492 0.58285
 O15 O 0.23456 0.80344 0.56505
 O16 O 0.28173 0.75977 0.43748
 O17 O 0.23472 0.80312 0.43703
 O18 O 0.28162 0.76018 0.56496
 O19 O 0.26193 0.68581 0.56526
 O20 O 0.21500 0.72879 0.43725
 O21 O 0.26203 0.68541 0.43770
 O22 O 0.21485 0.72912 0.56533
 Cu23 Cu 0.26010 0.78916 0.50112
 Cu24 Cu 0.23642 0.69982 0.50143
 C25 C 0.21665 0.77375 0.58649
 C26 C 0.28003 0.71506 0.41657
 C27 C 0.21687 0.77329 0.41575
 C28 C 0.27989 0.71558 0.58615
 O29 O 0.26244 0.31496 -0.56733
 O30 O 0.21535 0.27201 -0.43912
 O31 O 0.26249 0.31509 -0.43980
 O32 O 0.21525 0.27181 -0.56721
 O33 O 0.23479 0.19740 -0.56726
 O34 O 0.28201 0.24063 -0.43992
 O35 O 0.23490 0.19759 -0.43925
 O36 O 0.28195 0.24051 -0.56738
 Cu37 Cu 0.23687 0.30095 -0.50339
 Cu38 Cu 0.26034 0.21149 -0.50350
 C39 C 0.28036 0.28517 -0.58840
 C40 C 0.21712 0.22747 -0.41773
 C41 C 0.28040 0.28530 -0.41886
 C42 C 0.21695 0.22720 -0.58847
 O43 O -0.23794 0.81476 -0.56203
 O44 O -0.28520 0.77117 -0.43450
 O45 O -0.23808 0.81445 -0.43450
 O46 O -0.28505 0.77140 -0.56257
 O47 O -0.26540 0.69707 -0.56286
 O48 O -0.21847 0.74008 -0.43486
 O49 O -0.26557 0.69683 -0.43483
 O50 O -0.21833 0.74040 -0.56231
 Cu51 Cu -0.26360 0.80042 -0.49837
 Cu52 Cu -0.24001 0.71106 -0.49875
 C53 C -0.21996 0.78510 -0.58313
 C54 C -0.28344 0.72655 -0.41335
 C55 C -0.22015 0.78469 -0.41364
 C56 C -0.28322 0.72689 -0.58411
 O57 O -0.03657 0.91523 0.12312
 O58 O -0.06635 0.95882 0.05870
 C59 C -0.06069 0.92803 0.10590
 O60 O 0.03848 1.09119 0.11615
 O61 O 0.06819 1.04389 0.05574
 C62 C 0.06258 1.07783 0.09926
 O63 O -0.03667 1.08672 0.12209
 O64 O -0.06637 1.04210 0.05850
 C65 C -0.06075 1.07344 0.10515
 O66 O 0.03842 0.90969 0.11559
 O67 O 0.06816 0.95711 0.05534
 C68 C 0.06253 0.92311 0.09875
 Zr69 Zr 0.00086 0.93666 0.08200
 O70 O 0.00175 0.92838 0.18544
 O71 O -0.00028 0.85804 0.06973
 Zr72 Zr 0.00087 1.06372 0.08307
 O73 O 0.00341 1.06493 0.18704
 O74 O -0.00208 1.14289 0.08033
 O75 O -0.02293 1.00016 0.09572
 O76 O 0.02411 1.00021 0.09481
 O77 O 0.03850 0.90955 -0.11584
 O78 O 0.06819 0.95733 -0.05613
 C79 C 0.06260 0.92317 -0.09935
 O80 O -0.03656 1.08669 -0.12175
 O81 O -0.06633 1.04216 -0.05802
 C82 C -0.06067 1.07345 -0.10470
 O83 O 0.03859 1.09152 -0.11544
 O84 O 0.06827 1.04401 -0.05560
 C85 C 0.06268 1.07808 -0.09882
 O86 O -0.03664 0.91417 -0.12191
 O87 O -0.06636 0.95875 -0.05813
 C88 C -0.06073 0.92741 -0.10481
 Zr89 Zr 0.00087 0.93717 -0.08296
 O90 O 0.00384 0.93544 -0.18687
 O91 O -0.00187 0.85798 -0.07988
 Zr92 Zr 0.00092 1.06415 -0.08236
 O93 O 0.00390 1.06730 -0.18616
 O94 O -0.00220 1.14326 -0.07766
 Zr95 Zr -0.03943 1.00044 0.00012
 Zr96 Zr 0.04107 1.00060 -0.00010
 O97 O 0.02413 1.00071 -0.09498
 O98 O -0.02297 1.00066 -0.09566
 O99 O 0.02511 0.92735 -0.00052
 O100 O -0.02273 1.07295 0.00045
 O101 O -0.02290 0.92786 -0.00028
 O102 O 0.02507 1.07379 0.00033
 H103 H 0.03605 1.00024 0.13375
 H104 H -0.03506 1.10210 0.00053
 H105 H 0.03601 1.00075 -0.13416
 H106 H -0.03532 0.89879 -0.00015
 H107 H 0.01404 1.15580 0.05730
 H108 H 0.01434 1.15616 -0.05662
 H109 H -0.00899 1.04264 -0.20411
 H110 H -0.01002 0.95833 -0.20444
 H111 H 0.01326 0.84564 -0.05282
 H112 H -0.00085 0.84373 0.11468
 H113 H 0.00511 0.96198 0.20411
 H114 H -0.01054 1.04188 0.20418
 O115 O 0.46312 0.41378 0.12170
 O116 O 0.43337 0.45756 0.05742
 C117 C 0.43901 0.42662 0.10443
 O118 O 0.53811 0.58993 0.11599
 O119 O 0.56787 0.54285 0.05543
 C120 C 0.56222 0.57667 0.09907
 O121 O 0.46298 0.58530 0.12180
 O122 O 0.43332 0.54086 0.05789
 C123 C 0.43891 0.57204 0.10474
 O124 O 0.53814 0.40842 0.11454
 O125 O 0.56789 0.45607 0.05463
 C126 C 0.56226 0.42195 0.09786
 Zr127 Zr 0.50057 0.43542 0.08091
 O128 O 0.50134 0.42679 0.18431
 O129 O 0.49949 0.35684 0.06816
 Zr130 Zr 0.50054 0.56247 0.08271
 O131 O 0.50303 0.56328 0.18669
 O132 O 0.49755 0.64164 0.08051
 O133 O 0.47676 0.49884 0.09491
 O134 O 0.52380 0.49896 0.09416
 O135 O 0.53830 0.40899 -0.11691
 O136 O 0.56795 0.45660 -0.05684
 C137 C 0.56238 0.42255 -0.10023
 O138 O 0.46321 0.58625 -0.12190
 O139 O 0.43343 0.54142 -0.05856
 C140 C 0.43910 0.57295 -0.10495
 O141 O 0.53839 0.59095 -0.11559
 O142 O 0.56803 0.54326 -0.05591
 C143 C 0.56248 0.57744 -0.09900
 O144 O 0.46319 0.41373 -0.12346
 O145 O 0.43342 0.45801 -0.05948
 C146 C 0.43909 0.42690 -0.10642
 Zr147 Zr 0.50066 0.43650 -0.08405
 O148 O 0.50371 0.43498 -0.18793
 O149 O 0.49790 0.35730 -0.08131
 Zr150 Zr 0.50069 0.56348 -0.08273
 O151 O 0.50370 0.56684 -0.18652
 O152 O 0.49759 0.64258 -0.07766
 Zr153 Zr 0.46031 0.49945 -0.00074
 Zr154 Zr 0.54081 0.49968 -0.00070
 O155 O 0.52392 0.50009 -0.09563
 O156 O 0.47682 0.50002 -0.09647
 O157 O 0.52486 0.42642 -0.00158
 O158 O 0.47700 0.57198 0.00007
 O159 O 0.47685 0.42688 -0.00151
 O160 O 0.52479 0.57285 0.00010
 H161 H 0.53573 0.49890 0.13312
 H162 H 0.46467 0.60113 0.00033
 H163 H 0.53582 0.50025 -0.13477
 H164 H 0.46443 0.39781 -0.00165
 H165 H 0.51362 0.65467 0.05741
 H166 H 0.51411 0.65540 -0.05647
 H167 H 0.49061 0.54262 -0.20462
 H168 H 0.49006 0.45830 -0.20544
 H169 H 0.51305 0.34487 -0.05443
 H170 H 0.49891 0.34238 0.11302
 H171 H 0.50499 0.46022 0.20319
 H172 H 0.48913 0.54005 0.20361
 C173 C 0.35252 0.33892 0.18707
 C174 C 0.35599 0.30259 0.24595
 C175 C 0.33710 0.33580 0.28694
 C176 C 0.33326 0.37184 0.22879
 C177 C 0.37638 0.36987 0.21262
 C178 C 0.35748 0.40308 0.25362
 C179 C 0.38018 0.33386 0.27079
 C180 C 0.36098 0.36677 0.31236
 C181 C 0.31575 0.31704 0.33007
 C182 C 0.29878 0.30188 0.36747
 C183 C 0.39856 0.38925 0.17260
 C184 C 0.41699 0.40585 0.14089
 H185 H 0.34933 0.32770 0.13505
 H186 H 0.35513 0.26105 0.24325
 H187 H 0.31372 0.38723 0.21202
 H188 H 0.35835 0.44462 0.25633
 H189 H 0.39971 0.31846 0.28762
 H190 H 0.36422 0.37805 0.36434
 C191 C -0.14690 0.84002 0.18973
 C192 C -0.14325 0.80403 0.24891
 C193 C -0.16227 0.83717 0.28968
 C194 C -0.16628 0.87286 0.23122
 C195 C -0.12316 0.87144 0.21493
 C196 C -0.14218 0.90458 0.25571
 C197 C -0.11918 0.83577 0.27341
 C198 C -0.13851 0.86862 0.31476
 C199 C -0.18356 0.81826 0.33293
 C200 C -0.20052 0.80295 0.37027
 C201 C -0.10106 0.89086 0.17461
 C202 C -0.08268 0.90741 0.14264
 H203 H -0.15008 0.82849 0.13783
 H204 H -0.14394 0.76247 0.24657
 H205 H -0.18589 0.88789 0.21437
 H206 H -0.14148 0.94614 0.25805
 H207 H -0.09958 0.82074 0.29032
 H208 H -0.13528 0.88021 0.36663
 C209 C 0.64781 0.66943 0.18243
 C210 C 0.64298 0.70683 0.23974
 C211 C 0.66110 0.67469 0.28392
 C212 C 0.66630 0.63763 0.22740
 C213 C 0.62357 0.63859 0.20617
 C214 C 0.64172 0.60650 0.25037
 C215 C 0.61842 0.67564 0.26271
 C216 C 0.63685 0.64383 0.30747
 C217 C 0.68153 0.69412 0.32907
 C218 C 0.69786 0.70944 0.36790
 C219 C 0.60218 0.61768 0.16503
 C220 C 0.58414 0.59952 0.13356
 H221 H 0.65205 0.67971 0.13052
 H222 H 0.64374 0.74831 0.23589
 H223 H 0.68622 0.62221 0.21341
 H224 H 0.64097 0.56501 0.25428
 H225 H 0.59851 0.69106 0.27678
 H226 H 0.63254 0.63348 0.35933
 C227 C 0.11909 1.17618 0.26316
 C228 C 0.13791 1.14429 0.30684
 C229 C 0.16189 1.17580 0.28308
 C230 C 0.14337 1.20802 0.23997
 C231 C 0.12414 1.13975 0.20586
 C232 C 0.14810 1.17124 0.18192
 C233 C 0.14267 1.10758 0.24900
 C234 C 0.16698 1.13937 0.22580
 C235 C 0.18245 1.19524 0.32792
 C236 C 0.19889 1.21058 0.36650
 C237 C 0.10265 1.11885 0.16496
 C238 C 0.08455 1.10070 0.13363
 H239 H 0.09917 1.19111 0.27809
 H240 H 0.13392 1.13338 0.35866
 H241 H 0.14389 1.24955 0.23675
 H242 H 0.15203 1.18209 0.13006
 H243 H 0.14216 1.06605 0.25227
 H244 H 0.18691 1.12444 0.21096
 C245 C 0.63941 0.39179 -0.25845
 C246 C 0.66594 0.36742 -0.23489
 C247 C 0.66165 0.32483 -0.28474
 C248 C 0.63544 0.34895 -0.30887
 C249 C 0.62395 0.36079 -0.20710
 C250 C 0.61969 0.31823 -0.25698
 C251 C 0.65014 0.33671 -0.18278
 C252 C 0.64622 0.29378 -0.23342
 C253 C 0.68216 0.30544 -0.32981
 C254 C 0.69857 0.29014 -0.36858
 C255 C 0.60248 0.38163 -0.16604
 C256 C 0.58437 0.39974 -0.13464
 H257 H 0.63639 0.43232 -0.26829
 H258 H 0.68519 0.38743 -0.22634
 H259 H 0.62960 0.35380 -0.36117
 H260 H 0.60045 0.29821 -0.26560
 H261 H 0.65593 0.33193 -0.13044
 H262 H 0.64926 0.25325 -0.22364
 C263 C 0.12471 0.86794 -0.28164
 C264 C 0.15493 0.88123 -0.27748
 C265 C 0.16175 0.82531 -0.28437
 C266 C 0.13180 0.81176 -0.28911
 C267 C 0.12410 0.86129 -0.20654
 C268 C 0.13089 0.80536 -0.21337
 C269 C 0.15404 0.87490 -0.20172
 C270 C 0.16121 0.81859 -0.20928
 C271 C 0.18225 0.80587 -0.32951
 C272 C 0.19864 0.79048 -0.36830
 C273 C 0.10265 0.88216 -0.16536
 C274 C 0.08456 0.90030 -0.13385
 H275 H 0.10948 0.88845 -0.31101
 H276 H 0.16502 0.91224 -0.30430
 H277 H 0.12286 0.78561 -0.32554
 H278 H 0.12077 0.77440 -0.18652
 H279 H 0.16295 0.90109 -0.16530
 H280 H 0.17647 0.79808 -0.18004
 C281 C 0.37198 0.61465 -0.28435
 C282 C 0.34163 0.60863 -0.26943
 C283 C 0.33746 0.66413 -0.28671
 C284 C 0.36751 0.67039 -0.30222
 C285 C 0.37661 0.63012 -0.21242
 C286 C 0.37245 0.68561 -0.22969
 C287 C 0.34657 0.62379 -0.19682
 C288 C 0.34204 0.67965 -0.21479
 C289 C 0.31617 0.68285 -0.32981
 C290 C 0.29925 0.69797 -0.36714
 C291 C 0.39872 0.61067 -0.17251
 C292 C 0.41711 0.59394 -0.14100
 H293 H 0.38453 0.58772 -0.31250
 H294 H 0.32872 0.57716 -0.28620
 H295 H 0.37589 0.68975 -0.34604
 H296 H 0.38538 0.71703 -0.21291
 H297 H 0.33824 0.60440 -0.15298
 H298 H 0.32947 0.70657 -0.18667
 C299 C -0.12639 1.11658 -0.28658
 C300 C -0.15678 1.10809 -0.27435
 C301 C -0.16182 1.16379 -0.28898
 C302 C -0.13174 1.17251 -0.30180
 C303 C -0.12295 1.13003 -0.21356
 C304 C -0.12799 1.18572 -0.22817
 C305 C -0.15303 1.12124 -0.20064
 C306 C -0.15843 1.17729 -0.21595
 C307 C -0.18297 1.18239 -0.33262
 C308 C -0.19982 1.19741 -0.37026
 C309 C -0.10097 1.11075 -0.17303
 C310 C -0.08265 1.09420 -0.14110
 H311 H -0.11299 1.09141 -0.31518
 H312 H -0.16884 1.07635 -0.29377
 H313 H -0.12320 1.19379 -0.34387
 H314 H -0.11590 1.21742 -0.20872
 H315 H -0.16151 1.09993 -0.15854
 H316 H -0.17186 1.20245 -0.18741
 C317 C 0.64978 0.66522 -0.18199
 C318 C 0.66622 0.63404 -0.23240
 C319 C 0.66166 0.67520 -0.28404
 C320 C 0.64558 0.70672 -0.23442
 C321 C 0.62402 0.63933 -0.20610
 C322 C 0.61949 0.68046 -0.25777
 C323 C 0.64012 0.60786 -0.25574
 C324 C 0.63588 0.64927 -0.30796
 C325 C 0.68216 0.69456 -0.32927
 C326 C 0.69855 0.70989 -0.36811
 C327 C 0.60256 0.61850 -0.16486
 C328 C 0.58446 0.60036 -0.13338
 H329 H 0.65523 0.67153 -0.12970
 H330 H 0.68566 0.61516 -0.22249
 H331 H 0.64806 0.74760 -0.22616
 H332 H 0.60006 0.69935 -0.26777
 H333 H 0.63766 0.56698 -0.26406
 H334 H 0.63038 0.64289 -0.36022
 C335 C 0.14991 1.16562 -0.18265
 C336 C 0.16617 1.13443 -0.23339
 C337 C 0.16152 1.17567 -0.28486
 C338 C 0.14562 1.20721 -0.23492
 C339 C 0.12405 1.13989 -0.20640
 C340 C 0.11944 1.18111 -0.25790
 C341 C 0.13997 1.10841 -0.25637
 C342 C 0.13565 1.14990 -0.30842
 C343 C 0.18191 1.19493 -0.33039
 C344 C 0.19822 1.21012 -0.36949
 C345 C 0.10269 1.11909 -0.16493
 C346 C 0.08464 1.10096 -0.13331
 H347 H 0.15551 1.17183 -0.13043
 H348 H 0.18561 1.11545 -0.22386
 H349 H 0.14819 1.24807 -0.22663
 H350 H 0.09999 1.20008 -0.26751
 H351 H 0.13744 1.06754 -0.26473
 H352 H 0.12998 1.14361 -0.36059
 C353 C 0.38077 0.33386 -0.27314
 C354 C 0.35619 0.30336 -0.24882
 C355 C 0.33784 0.33666 -0.29093
 C356 C 0.36212 0.36685 -0.31584
 C357 C 0.37677 0.37045 -0.21557
 C358 C 0.35842 0.40374 -0.25770
 C359 C 0.35251 0.34028 -0.19053
 C360 C 0.33380 0.37328 -0.23338
 C361 C 0.31665 0.31802 -0.33452
 C362 C 0.29977 0.30293 -0.37209
 C363 C 0.39877 0.38971 -0.17500
 C364 C 0.41711 0.40622 -0.14299
 H365 H 0.40032 0.31786 -0.28905
 H366 H 0.35502 0.26188 -0.24562
 H367 H 0.36585 0.37761 -0.36783
 H368 H 0.35958 0.44523 -0.26091
 H369 H 0.34883 0.32958 -0.13851
 H370 H 0.31424 0.38927 -0.21753
 C371 C -0.11952 0.83351 -0.26973
 C372 C -0.14401 0.80311 -0.24462
 C373 C -0.16252 0.83624 -0.28653
 C374 C -0.13834 0.86634 -0.31221
 C375 C -0.12331 0.87034 -0.21233
 C376 C -0.14183 0.90345 -0.25425
 C377 C -0.14747 0.84027 -0.18651
 C378 C -0.16635 0.87309 -0.22916
 C379 C -0.18384 0.81748 -0.32961
 C380 C -0.20078 0.80233 -0.36693
 C381 C -0.10117 0.88978 -0.17243
 C382 C -0.08275 0.90648 -0.14091
 H383 H -0.10003 0.81746 -0.28598
 H384 H -0.14517 0.76164 -0.24113
 H385 H -0.13482 0.87689 -0.36435
 H386 H -0.14068 0.94493 -0.25778
 H387 H -0.15095 0.82977 -0.13433
 H388 H -0.18585 0.88913 -0.21297
 C389 C 0.38052 0.66478 0.27175
 C390 C 0.35633 0.69620 0.24747
 C391 C 0.33748 0.66306 0.28871
 C392 C 0.36136 0.63194 0.31357
 C393 C 0.37645 0.62884 0.21352
 C394 C 0.35759 0.59570 0.25477
 C395 C 0.35259 0.65994 0.18852
 C396 C 0.33337 0.62710 0.23050
 C397 C 0.31628 0.68194 0.33223
 C398 C 0.29940 0.69723 0.36978
 C399 C 0.39849 0.60940 0.17307
 C400 C 0.41687 0.59279 0.14117
 H401 H 0.40013 0.68006 0.28827
 H402 H 0.35557 0.73774 0.24492
 H403 H 0.36474 0.62059 0.36544
 H404 H 0.35837 0.55415 0.25731
 H405 H 0.34926 0.67123 0.13662
 H406 H 0.31375 0.61181 0.21403
 C407 C -0.11942 1.16630 0.27156
 C408 C -0.14364 1.19750 0.24701
 C409 C -0.16247 1.16424 0.28812
 C410 C -0.13856 1.13333 0.31325
 C411 C -0.12332 1.13028 0.21336
 C412 C -0.14216 1.09702 0.25448
 C413 C -0.14721 1.16115 0.18809
 C414 C -0.16641 1.12819 0.22994
 C415 C -0.18376 1.18294 0.33149
 C416 C -0.20068 1.19806 0.36902
 C417 C -0.10119 1.11092 0.17317
 C418 C -0.08278 1.09430 0.14144
 H419 H -0.09986 1.18175 0.28822
 H420 H -0.14450 1.23903 0.24439
 H421 H -0.13523 1.12206 0.36517
 H422 H -0.14129 1.05548 0.25711
 H423 H -0.15049 1.17236 0.13613
 H424 H -0.18598 1.11274 0.21333
 C425 C 0.64812 0.32999 0.18034
 C426 C 0.66653 0.36189 0.22552
 C427 C 0.66153 0.32449 0.28171
 C428 C 0.64349 0.29225 0.23731
 C429 C 0.62378 0.36030 0.20449
 C430 C 0.61883 0.32292 0.26070
 C431 C 0.64184 0.39250 0.24892
 C432 C 0.63717 0.35484 0.30568
 C433 C 0.68209 0.30518 0.32655
 C434 C 0.69854 0.28993 0.36511
 C435 C 0.60229 0.38107 0.16358
 C436 C 0.58420 0.39914 0.13225
 H437 H 0.65236 0.32002 0.12831
 H438 H 0.68637 0.37771 0.21157
 H439 H 0.64440 0.25080 0.23304
 H440 H 0.59899 0.30709 0.27474
 H441 H 0.64094 0.43396 0.25325
 H442 H 0.63287 0.36487 0.35767
 C443 C 0.11919 0.82018 0.25736
 C444 C 0.14527 0.79391 0.23397
 C445 C 0.16131 0.82537 0.28363
 C446 C 0.13553 0.85131 0.30760
 C447 C 0.12385 0.86135 0.20576
 C448 C 0.13991 0.89275 0.25545
 C449 C 0.14961 0.83545 0.18161
 C450 C 0.16601 0.86656 0.23206
 C451 C 0.18169 0.80599 0.32885
 C452 C 0.19799 0.79071 0.36773
 C453 C 0.10249 0.88221 0.16460
 C454 C 0.08446 0.90032 0.13315
 H455 H 0.09970 0.80132 0.26731
 H456 H 0.14772 0.75303 0.22566
 H457 H 0.12995 0.85764 0.35986
 H458 H 0.13749 0.93364 0.26381
 H459 H 0.15514 0.82918 0.12930
 H460 H 0.18550 0.88542 0.22218
   
