data_POSCAR
  _audit_creation_date              2014-09-24
  _audit_creation_method            'ToBaCCo'
  _symmetry_space_group_name_H-M    'P1'
  _symmetry_Int_Tables_number       1
  _symmetry_cell_setting            triclinic
  loop_
  _symmetry_equiv_pos_as_xyz
 x,y,z
_cell_length_a 39.0489
_cell_length_b 38.9437
_cell_length_c 39.0473
_cell_angle_alpha 89.903100
_cell_angle_beta 90.054000
_cell_angle_gamma 90.151900
loop_
  _atom_site_label
  _atom_site_type_symbol
  _atom_site_fract_x
  _atom_site_fract_y
  _atom_site_fract_z
N1 N 0.58534 0.67964 0.61034
 N2 N 0.57230 0.66624 0.63839
 C3 C 0.54520 0.68518 0.64825
 C4 C 0.54151 0.71207 0.62539
 C5 C 0.56704 0.70744 0.60137
 H6 H 0.52965 0.68028 0.67064
 H7 H 0.57207 0.72337 0.57921
 Cu8 Cu 0.59273 0.62564 0.65899
 Cu9 Cu 0.62589 0.66105 0.58819
 Cu10 Cu 0.66109 0.58738 0.62376
 N11 N 0.61314 0.58506 0.67957
 N12 N 0.63845 0.56896 0.66438
 C13 C 0.64678 0.54100 0.68286
 C14 C 0.62661 0.54027 0.71205
 C15 C 0.60512 0.56838 0.70871
 H16 H 0.66725 0.52347 0.67651
 H17 H 0.58443 0.57544 0.72566
 N18 N 0.68025 0.61031 0.58288
 N19 N 0.66688 0.63844 0.56954
 C20 C 0.68527 0.64770 0.54188
 C21 C 0.71109 0.62401 0.53726
 C22 C 0.70756 0.60098 0.56398
 H23 H 0.68023 0.66988 0.52598
 H24 H 0.72345 0.57879 0.56883
 H25 H 0.61816 0.61087 0.60392
 H26 H 0.64703 0.63785 0.63092
 N27 N 0.91682 0.31868 0.11194
 N28 N 0.93017 0.33294 0.13931
 C29 C 0.95739 0.31452 0.14952
 C30 C 0.96069 0.28608 0.12836
 C31 C 0.93481 0.29029 0.10416
 H32 H 0.97437 0.32222 0.16999
 H33 H 0.92874 0.27337 0.08306
 Cu34 Cu 0.90983 0.37327 0.15999
 Cu35 Cu 0.87688 0.33808 0.08881
 Cu36 Cu 0.84067 0.41060 0.12594
 N37 N 0.88960 0.41369 0.18067
 N38 N 0.86337 0.42917 0.16639
 C39 C 0.85631 0.45799 0.18402
 C40 C 0.87954 0.46084 0.21074
 C41 C 0.89960 0.43167 0.20832
 H42 H 0.83613 0.47586 0.17759
 H43 H 0.92008 0.42418 0.22540
 N44 N 0.82167 0.38807 0.08494
 N45 N 0.83635 0.36169 0.06971
 C46 C 0.81892 0.35444 0.04077
 C47 C 0.79214 0.37747 0.03755
 C48 C 0.79417 0.39770 0.06657
 H49 H 0.82534 0.33414 0.02307
 H50 H 0.77685 0.41806 0.07376
 H51 H 0.88382 0.38789 0.10521
 H52 H 0.85568 0.35984 0.13196
 N53 N 0.41660 0.18039 -0.11143
 N54 N 0.43152 0.16543 -0.13755
 C55 C 0.46037 0.18287 -0.14538
 C56 C 0.46369 0.21004 -0.12272
 C57 C 0.43487 0.20814 -0.10225
 H58 H 0.47796 0.17608 -0.16559
 H59 H 0.42781 0.22555 -0.08194
 Cu60 Cu 0.41108 0.12488 -0.15825
 Cu61 Cu 0.37626 0.16152 -0.08915
 Cu62 Cu 0.33970 0.08899 -0.12563
 N63 N 0.39068 0.08414 -0.17864
 N64 N 0.36279 0.07022 -0.16577
 C65 C 0.35362 0.04310 -0.18510
 C66 C 0.37666 0.04028 -0.21178
 C67 C 0.40014 0.06639 -0.20661
 H68 H 0.33149 0.02698 -0.18057
 H69 H 0.42228 0.07201 -0.22225
 N70 N 0.32052 0.11203 -0.08491
 N71 N 0.33545 0.13871 -0.07032
 C72 C 0.31707 0.14819 -0.04285
 C73 C 0.28826 0.12760 -0.04079
 C74 C 0.29167 0.10447 -0.06748
 H75 H 0.32410 0.16868 -0.02557
 H76 H 0.27411 0.08395 -0.07390
 H77 H 0.38286 0.11098 -0.10426
 H78 H 0.35597 0.13871 -0.13240
 N79 N 0.08645 0.81802 0.38727
 N80 N 0.07165 0.83415 0.36167
 C81 C 0.04227 0.81785 0.35367
 C82 C 0.03835 0.78998 0.37551
 C83 C 0.06747 0.79042 0.39586
 H84 H 0.02542 0.82514 0.33290
 H85 H 0.07336 0.77311 0.41672
 Cu86 Cu 0.09218 0.87500 0.34148
 Cu87 Cu 0.12686 0.83632 0.41026
 Cu88 Cu 0.16232 0.91070 0.37654
 N89 N 0.11414 0.91499 0.32104
 N90 N 0.14044 0.92976 0.33604
 C91 C 0.15009 0.95732 0.31767
 C92 C 0.12964 0.95932 0.28876
 C93 C 0.10662 0.93237 0.29210
 H94 H 0.17062 0.97457 0.32482
 H95 H 0.08623 0.92576 0.27451
 N96 N 0.18094 0.88742 0.41723
 N97 N 0.16758 0.85896 0.42996
 C98 C 0.18545 0.84982 0.45803
 C99 C 0.21101 0.87383 0.46331
 C100 C 0.20780 0.89698 0.43673
 H101 H 0.18018 0.82756 0.47378
 H102 H 0.22358 0.91943 0.43239
 H103 H 0.11923 0.88700 0.39649
 H104 H 0.14691 0.86067 0.36777
 C105 C 0.10774 0.15126 0.10828
 C106 C 0.13677 0.13683 0.09292
 C107 C 0.15210 0.10827 0.10730
 C108 C 0.13821 0.09334 0.13689
 C109 C 0.10970 0.10761 0.15218
 C110 C 0.09426 0.13665 0.13766
 C111 C 0.08906 0.18041 0.10138
 N112 N 0.06471 0.18384 0.12593
 C113 C 0.06728 0.15678 0.14780
 C114 C 0.10347 0.08936 0.18177
 N115 N 0.12750 0.06436 0.18476
 C116 C 0.14834 0.06618 0.15693
 C117 C 0.18137 0.10174 0.08882
 N118 N 0.18417 0.12567 0.06362
 C119 C 0.15647 0.14667 0.06545
 H120 H 0.09332 0.19830 0.08055
 H121 H 0.05099 0.15237 0.16981
 H122 H 0.08335 0.09431 0.20016
 H123 H 0.16952 0.04909 0.15173
 H124 H 0.19983 0.08167 0.09393
 H125 H 0.15129 0.16795 0.04834
 C126 C 0.39055 0.84500 0.61191
 C127 C 0.36143 0.85983 0.59695
 C128 C 0.34712 0.88894 0.61129
 C129 C 0.36162 0.90357 0.64067
 C130 C 0.39028 0.88892 0.65551
 C131 C 0.40483 0.85946 0.64103
 C132 C 0.41050 0.81725 0.60313
 N133 N 0.43661 0.81496 0.62596
 C134 C 0.43317 0.84034 0.64946
 C135 C 0.39919 0.90895 0.68318
 N136 N 0.37684 0.93547 0.68508
 C137 C 0.35349 0.93219 0.65953
 C138 C 0.31909 0.89758 0.59182
 N139 N 0.31576 0.87409 0.56641
 C140 C 0.34177 0.85120 0.56892
 H141 H 0.40687 0.80046 0.58135
 H142 H 0.45042 0.84481 0.67073
 H143 H 0.42065 0.90498 0.70030
 H144 H 0.33253 0.94973 0.65477
 H145 H 0.30194 0.91895 0.59609
 H146 H 0.34557 0.82953 0.55203
 C147 C 0.89138 0.65426 0.39029
 C148 C 0.86253 0.63874 0.40510
 C149 C 0.84874 0.60929 0.39070
 C150 C 0.86367 0.59497 0.36137
 C151 C 0.89174 0.61071 0.34646
 C152 C 0.90581 0.64041 0.36105
 C153 C 0.91025 0.68291 0.39874
 N154 N 0.93557 0.68671 0.37524
 C155 C 0.93334 0.66076 0.35225
 C156 C 0.90062 0.59158 0.31833
 N157 N 0.87952 0.56382 0.31651
 C158 C 0.85635 0.56609 0.34235
 C159 C 0.82039 0.60050 0.40973
 N160 N 0.81652 0.62413 0.43495
 C161 C 0.84239 0.64733 0.43270
 H162 H 0.90594 0.69985 0.42025
 H163 H 0.95030 0.65724 0.33063
 H164 H 0.92116 0.59728 0.30059
 H165 H 0.83605 0.54775 0.34725
 H166 H 0.80331 0.57904 0.40518
 H167 H 0.84571 0.66924 0.44941
 C168 C 0.61482 0.34473 -0.11358
 C169 C 0.64453 0.35930 -0.09958
 C170 C 0.65923 0.38774 -0.11488
 C171 C 0.64411 0.40236 -0.14400
 C172 C 0.61438 0.38836 -0.15749
 C173 C 0.59955 0.35934 -0.14206
 C174 C 0.59481 0.31746 -0.10366
 N175 N 0.56704 0.31578 -0.12459
 C176 C 0.56999 0.34104 -0.14848
 C177 C 0.60454 0.40893 -0.18449
 N178 N 0.62736 0.43512 -0.18721
 C179 C 0.65175 0.43126 -0.16278
 C180 C 0.68671 0.39732 -0.09505
 N181 N 0.68826 0.37623 -0.06731
 C182 C 0.66288 0.35248 -0.07024
 H183 H 0.60006 0.30011 -0.08261
 H184 H 0.55168 0.34602 -0.16871
 H185 H 0.58210 0.40565 -0.20047
 H186 H 0.67301 0.44867 -0.15862
 H187 H 0.70394 0.41855 -0.10010
 H188 H 0.65754 0.33240 -0.05178
 C189 C 0.02055 0.21855 0.09833
 C190 C -0.00578 0.24257 0.09930
 C191 C -0.01444 0.25966 0.12986
 C192 C 0.00351 0.25043 0.16047
 C193 C 0.03203 0.22794 0.15866
 C194 C 0.03963 0.21085 0.12764
 C195 C 0.05201 0.22310 0.18825
 N196 N 0.04156 0.23623 0.21857
 N197 N 0.01251 0.25377 0.22118
 C198 C -0.00709 0.26082 0.19339
 H199 H 0.02601 0.20561 0.07443
 H200 H -0.01863 0.24841 0.07543
 H201 H 0.07583 0.20907 0.18763
 H202 H -0.03138 0.27311 0.19775
 C203 C 0.45547 0.75531 0.62912
 C204 C 0.48112 0.73049 0.62983
 C205 C 0.51566 0.73976 0.62632
 C206 C 0.52451 0.77497 0.62277
 C207 C 0.49830 0.80007 0.62145
 C208 C 0.46365 0.79008 0.62516
 C209 C 0.50765 0.83453 0.61603
 N210 N 0.54118 0.84336 0.61389
 N211 N 0.56590 0.82005 0.61673
 C212 C 0.55876 0.78626 0.62124
 H213 H 0.42899 0.74748 0.63198
 H214 H 0.47390 0.70374 0.63263
 H215 H 0.48870 0.85450 0.61324
 H216 H 0.57999 0.76878 0.62407
 C217 C 0.99475 0.70564 0.38190
 C218 C 1.01966 0.73127 0.38327
 C219 C 1.01142 0.76581 0.37657
 C220 C 0.97644 0.77456 0.37061
 C221 C 0.95127 0.74821 0.36914
 C222 C 0.96065 0.71369 0.37487
 C223 C 0.91713 0.75725 0.36228
 N224 N 0.90836 0.79075 0.35936
 N225 N 0.93143 0.81570 0.36290
 C226 C 0.96496 0.80883 0.36870
 H227 H 1.00203 0.67921 0.38650
 H228 H 1.04592 0.72364 0.38800
 H229 H 0.89729 0.73807 0.35945
 H230 H 0.98181 0.83036 0.37300
 C231 C 0.52936 0.27437 -0.15316
 C232 C 0.50512 0.24805 -0.15250
 C233 C 0.49143 0.23622 -0.12143
 C234 C 0.50303 0.25119 -0.09031
 C235 C 0.52554 0.27983 -0.09128
 C236 C 0.54005 0.29047 -0.12288
 C237 C 0.53239 0.29716 -0.06043
 N238 N 0.52084 0.28419 -0.03035
 N239 N 0.50267 0.25527 -0.02910
 C240 C 0.49359 0.23822 -0.05796
 H241 H 0.54012 0.28209 -0.17754
 H242 H 0.49681 0.23705 -0.17658
 H243 H 0.54638 0.32109 -0.05985
 H244 H 0.47983 0.21434 -0.05512
 C245 C 0.09912 0.02332 0.22299
 C246 C 0.09984 -0.00273 0.24747
 C247 C 0.13094 -0.01448 0.26106
 C248 C 0.16204 0.00044 0.24924
 C249 C 0.16102 0.02884 0.22643
 C250 C 0.12938 0.03926 0.21192
 C251 C 0.19188 0.04617 0.21936
 N252 N 0.22198 0.03339 0.23096
 N253 N 0.22324 0.00466 0.24940
 C254 C 0.19439 -0.01237 0.25870
 H255 H 0.07467 0.03096 0.21238
 H256 H 0.07575 -0.01363 0.25600
 H257 H 0.19243 0.06998 0.20517
 H258 H 0.19724 -0.03609 0.27270
 C259 C 0.63223 0.45506 -0.24615
 C260 C 0.63345 0.48114 -0.27054
 C261 C 0.62742 0.51558 -0.26152
 C262 C 0.62202 0.52371 -0.22630
 C263 C 0.62074 0.49689 -0.20162
 C264 C 0.62602 0.46251 -0.21177
 C265 C 0.61464 0.50534 -0.16719
 N266 N 0.61214 0.53869 -0.15774
 N267 N 0.61543 0.56404 -0.18039
 C268 C 0.62058 0.55777 -0.21414
 H269 H 0.63649 0.42876 -0.25401
 H270 H 0.63768 0.47399 -0.29701
 H271 H 0.61207 0.48580 -0.14767
 H272 H 0.62475 0.57959 -0.23064
 C273 C 0.37376 0.95418 0.74461
 C274 C 0.37298 0.97979 0.76948
 C275 C 0.37641 1.01449 0.76043
 C276 C 0.38007 1.02351 0.72536
 C277 C 0.38146 0.99732 0.70020
 C278 C 0.37773 0.96252 0.70999
 C279 C 0.38692 1.00683 0.66590
 N280 N 0.38905 1.04049 0.65725
 N281 N 0.38612 1.06518 0.68058
 C282 C 0.38157 1.05789 0.71424
 H283 H 0.37087 0.92759 0.75230
 H284 H 0.37009 0.97243 0.79609
 H285 H 0.38979 0.98791 0.64591
 H286 H 0.37871 1.07911 0.73173
 C287 C 0.85036 0.52685 0.27494
 C288 C 0.85060 0.50259 0.24876
 C289 C 0.88142 0.48840 0.23702
 C290 C 0.91275 0.49956 0.25198
 C291 C 0.91215 0.52218 0.28045
 C292 C 0.88080 0.53712 0.29099
 C293 C 0.94312 0.52865 0.29775
 N294 N 0.97300 0.51660 0.28498
 N295 N 0.97394 0.49832 0.25624
 C296 C 0.94494 0.48964 0.23918
 H297 H 0.82616 0.53789 0.28268
 H298 H 0.82636 0.49463 0.23780
 H299 H 0.94393 0.54274 0.32153
 H300 H 0.94759 0.47581 0.21544
 C301 C 0.22235 0.09716 0.02298
 C302 C 0.24687 0.09781 -0.00288
 C303 C 0.26055 0.12896 -0.01475
 C304 C 0.24880 0.16019 -0.00007
 C305 C 0.22596 0.15923 0.02818
 C306 C 0.21132 0.12753 0.03864
 C307 C 0.21904 0.19018 0.04534
 N308 N 0.23080 0.22034 0.03253
 N309 N 0.24923 0.22157 0.00391
 C310 C 0.25838 0.19262 -0.01295
 H311 H 0.21167 0.07267 0.03074
 H312 H 0.25540 0.07363 -0.01352
 H313 H 0.20488 0.19076 0.06906
 H314 H 0.27238 0.19547 -0.03659
 C315 C 0.79737 0.62131 0.49440
 C316 C 0.77162 0.62052 0.51909
 C317 C 0.73709 0.62349 0.50972
 C318 C 0.72837 0.62677 0.47456
 C319 C 0.75468 0.62818 0.44958
 C320 C 0.78932 0.62481 0.45965
 C321 C 0.74544 0.63336 0.41516
 N322 N 0.71194 0.63518 0.40626
 N323 N 0.68713 0.63223 0.42945
 C324 C 0.69416 0.62794 0.46320
 H325 H 0.82384 0.61886 0.50231
 H326 H 0.77875 0.61802 0.54581
 H327 H 0.76446 0.63622 0.39528
 H328 H 0.67288 0.62502 0.48058
 C329 C 0.72870 0.34747 -0.02897
 C330 C 0.75442 0.34796 -0.00423
 C331 C 0.76613 0.37901 0.00974
 C332 C 0.75146 0.41030 -0.00197
 C333 C 0.72339 0.40948 -0.02508
 C334 C 0.71307 0.37790 -0.03997
 C335 C 0.70624 0.44045 -0.03204
 N336 N 0.71889 0.47053 -0.01998
 N337 N 0.74735 0.47166 -0.00124
 C338 C 0.76419 0.44267 0.00793
 H339 H 0.72105 0.32307 -0.03987
 H340 H 0.76507 0.32372 0.00421
 H341 H 0.68266 0.44110 -0.04646
 H342 H 0.78771 0.44545 0.02217
 C343 C 0.29701 0.87701 0.50681
 C344 C 0.27139 0.87771 0.48195
 C345 C 0.23681 0.87442 0.49106
 C346 C 0.22788 0.87111 0.52613
 C347 C 0.25404 0.86979 0.55130
 C348 C 0.28875 0.87326 0.54147
 C349 C 0.24458 0.86463 0.58565
 N350 N 0.21102 0.86280 0.59430
 N351 N 0.18636 0.86566 0.57091
 C352 C 0.19360 0.86986 0.53721
 H353 H 0.32351 0.87975 0.49910
 H354 H 0.27865 0.88041 0.45530
 H355 H 0.26346 0.86178 0.60568
 H356 H 0.17244 0.87262 0.51962
   
