data_POSCAR
  _audit_creation_date              2014-09-24
  _audit_creation_method            'ToBaCCo'
  _symmetry_space_group_name_H-M    'P1'
  _symmetry_Int_Tables_number       1
  _symmetry_cell_setting            triclinic
  loop_
  _symmetry_equiv_pos_as_xyz
 x,y,z
_cell_length_a 17.6535
_cell_length_b 17.9591
_cell_length_c 17.9264
_cell_angle_alpha 91.284500
_cell_angle_beta 89.007800
_cell_angle_gamma 94.878000
loop_
  _atom_site_label
  _atom_site_type_symbol
  _atom_site_fract_x
  _atom_site_fract_y
  _atom_site_fract_z
O1 O 0.58743 0.56462 0.12957
 O2 O 0.38401 0.55159 0.08894
 O3 O 0.48013 0.45637 0.12197
 O4 O 0.49264 0.65886 0.08735
 O5 O 0.51986 0.63595 -0.03115
 O6 O 0.50623 0.43265 0.00331
 O7 O 0.40909 0.52920 -0.03012
 O8 O 0.61389 0.54002 0.01116
 Cu9 Cu 0.48360 0.56027 0.11869
 Cu10 Cu 0.51483 0.53254 -0.02374
 C11 C 0.63522 0.55321 0.07792
 C12 C 0.36151 0.53815 0.02287
 C13 C 0.49134 0.41005 0.06903
 C14 C 0.50816 0.68194 0.02192
 O15 O -0.09613 0.54323 0.53261
 O16 O -0.02467 0.35779 0.51347
 O17 O -0.01909 0.46060 0.61663
 O18 O -0.09409 0.44324 0.42598
 O19 O 0.01667 0.49308 0.38383
 O20 O 0.09054 0.51171 0.57280
 O21 O 0.08557 0.40801 0.47022
 O22 O 0.01395 0.59338 0.48930
 Cu23 Cu -0.06963 0.44603 0.52671
 Cu24 Cu 0.06268 0.50675 0.47459
 C25 C -0.05336 0.60012 0.51352
 C26 C 0.04247 0.35125 0.48926
 C27 C 0.04866 0.48862 0.62692
 C28 C -0.05085 0.46575 0.37227
 O29 O 0.49899 0.01597 0.59246
 O30 O 0.50599 0.05242 0.38955
 O31 O 0.39897 0.03755 0.49019
 O32 O 0.60667 0.02724 0.49004
 O33 O 0.58998 -0.09390 0.46513
 O34 O 0.38233 -0.08363 0.46521
 O35 O 0.49052 -0.06881 0.36468
 O36 O 0.48150 -0.10489 0.56650
 Cu37 Cu 0.50443 0.04541 0.49309
 Cu38 Cu 0.48463 -0.09985 0.46303
 C39 C 0.48874 -0.05121 0.61400
 C40 C 0.49883 -0.00186 0.34267
 C41 C 0.35531 -0.02114 0.47717
 C42 C 0.63375 -0.03523 0.47764
 C43 C 0.51429 -0.11057 -0.15218
 C44 C 0.50160 -0.03777 -0.17356
 C45 C 0.49622 0.01801 -0.11743
 C46 C 0.50656 0.00307 -0.04103
 C47 C 0.52112 -0.07066 -0.02270
 C48 C 0.52127 -0.12819 -0.07717
 C49 C 0.50323 0.06328 0.01956
 C50 C 0.49271 0.04375 0.09547
 C51 C 0.49710 0.09828 0.15327
 C52 C 0.50430 0.17378 0.13452
 C53 C 0.50789 0.19587 0.05972
 C54 C 0.51089 0.14047 0.00303
 H55 H 0.51963 -0.15463 -0.19341
 H56 H 0.48361 0.07285 -0.13445
 H57 H 0.53480 -0.08368 0.03359
 H58 H 0.47983 -0.01377 0.10993
 H59 H 0.50836 0.21525 0.17925
 H60 H 0.51926 0.15868 -0.05372
 C61 C -0.13365 0.50379 1.14381
 C62 C -0.15315 0.51836 1.07010
 C63 C -0.09723 0.51779 1.01366
 C64 C -0.02268 0.50106 1.02925
 C65 C -0.00492 0.48595 1.10313
 C66 C -0.05924 0.48851 1.16065
 C67 C 0.03632 0.49860 0.96879
 C68 C 0.11395 0.51632 0.98387
 C69 C 0.17019 0.51000 0.92777
 C70 C 0.14703 0.49186 0.85470
 C71 C 0.06959 0.47817 0.83799
 C72 C 0.01533 0.47812 0.89558
 H73 H -0.17588 0.50452 1.18794
 H74 H -0.11226 0.53143 0.95762
 H75 H 0.05141 0.47128 1.11659
 H76 H 0.12963 0.53561 1.03920
 H77 H 0.18968 0.48753 0.81103
 H78 H -0.04367 0.46301 0.88245
 C79 C -0.14451 -0.18249 0.48322
 C80 C -0.06773 -0.19293 0.49491
 C81 C -0.01447 -0.13083 0.49795
 C82 C -0.03505 -0.05851 0.48444
 C83 C -0.11239 -0.04941 0.47105
 C84 C -0.16782 -0.11067 0.47350
 C85 C 0.02418 0.00662 0.48524
 C86 C 0.00378 0.07943 0.50087
 C87 C 0.05828 0.14068 0.50060
 C88 C 0.13541 0.12862 0.49209
 C89 C 0.15812 0.05668 0.47897
 C90 C 0.10192 -0.00346 0.47179
 H91 H -0.18641 -0.23005 0.48049
 H92 H 0.04350 -0.13998 0.51116
 H93 H -0.12945 0.00467 0.45675
 H94 H -0.05471 0.08952 0.51303
 H95 H 0.17842 0.17507 0.49721
 H96 H 0.11863 -0.05770 0.45493
 C97 C -0.28439 0.55275 1.09751
 C98 C -0.23203 0.53014 1.04912
 H99 H -0.26949 0.56813 1.15438
 H100 H -0.24787 0.51786 0.99170
 C101 C 0.28346 0.53280 1.01024
 C102 C 0.25334 0.52057 0.94232
 H103 H 0.24734 0.53814 1.05889
 H104 H 0.29142 0.51572 0.89465
 C105 C -0.08172 -0.32979 0.51776
 C106 C -0.03911 -0.26771 0.49844
 H107 H -0.14004 -0.32666 0.53638
 H108 H 0.02037 -0.27123 0.48368
 C109 C 0.07146 0.27732 0.48286
 C110 C 0.03249 0.21643 0.51005
 H111 H 0.12533 0.27342 0.45395
 H112 H -0.02267 0.22148 0.53633
 C113 C 0.48623 -0.06846 -0.31012
 C114 C 0.49694 -0.01760 -0.25394
 H115 H 0.47574 -0.12705 -0.29780
 H116 H 0.50413 0.04124 -0.26704
 C117 C 0.50017 0.01181 0.26161
 C118 C 0.49406 0.07998 0.23418
 H119 H 0.50610 -0.03587 0.22483
 H120 H 0.48856 0.12601 0.27354
 C121 C 0.51023 -0.23701 0.00828
 C122 C 0.52856 -0.20776 -0.05858
 H123 H 0.49219 -0.20182 0.05383
 H124 H 0.54385 -0.24506 -0.10372
 C125 C 0.48661 0.32974 0.08620
 C126 C 0.51079 0.27647 0.03970
 H127 H 0.46260 0.31509 0.14030
 H128 H 0.53207 0.29207 -0.01532
 C129 C -0.28308 -0.03895 0.47939
 C130 C -0.25038 -0.10265 0.46508
 H131 H -0.24906 0.01143 0.49599
 H132 H -0.28642 -0.15281 0.45129
 C133 C 0.27225 -0.01753 0.47643
 C134 C 0.24108 0.04790 0.47415
 H135 H 0.23733 -0.06984 0.47876
 H136 H 0.27876 0.09878 0.47201
 C137 C -0.07996 0.46231 1.29587
 C138 C -0.03381 0.48089 1.23794
 H139 H -0.13975 0.44609 1.28801
 H140 H 0.02655 0.49274 1.24751
 C141 C 0.07987 0.49546 0.70214
 C142 C 0.04275 0.46496 0.76099
 H143 H 0.13368 0.52836 0.70894
 H144 H -0.01242 0.43460 0.75329
   
