data_POSCAR
  _audit_creation_date              2014-09-24
  _audit_creation_method            'ToBaCCo'
  _symmetry_space_group_name_H-M    'P1'
  _symmetry_Int_Tables_number       1
  _symmetry_cell_setting            triclinic
  loop_
  _symmetry_equiv_pos_as_xyz
 x,y,z
_cell_length_a 41.0920
_cell_length_b 40.5086
_cell_length_c 41.1146
_cell_angle_alpha 89.887000
_cell_angle_beta 89.998000
_cell_angle_gamma 89.980200
loop_
  _atom_site_label
  _atom_site_type_symbol
  _atom_site_fract_x
  _atom_site_fract_y
  _atom_site_fract_z
C1 C 0.60150 0.64818 0.62539
 N2 N 0.62498 0.64803 0.60213
 C3 C 0.64870 0.62466 0.60220
 N4 N 0.64875 0.60125 0.62592
 C5 C 0.62546 0.60095 0.64943
 N6 N 0.60193 0.62457 0.64891
 C7 C 0.89961 0.35103 0.12531
 N8 N 0.87609 0.35129 0.10203
 C9 C 0.85242 0.37472 0.10196
 N10 N 0.85239 0.39814 0.12556
 C11 C 0.87566 0.39833 0.14904
 N12 N 0.89914 0.37470 0.14871
 C13 C 0.39863 0.14851 -0.12508
 N14 N 0.39818 0.12497 -0.14858
 C15 C 0.37465 0.10142 -0.14897
 N16 N 0.35139 0.10159 -0.12548
 C17 C 0.35146 0.12494 -0.10179
 N18 N 0.37518 0.14830 -0.10178
 C19 C 0.10035 0.85135 0.37457
 N20 N 0.12387 0.85155 0.39784
 C21 C 0.14754 0.87495 0.39784
 N22 N 0.14757 0.89840 0.37418
 C23 C 0.12431 0.89872 0.35065
 N24 N 0.10083 0.87506 0.35111
 N25 N 0.08683 0.17755 0.11089
 N26 N 0.07411 0.16405 0.13710
 C27 C 0.04771 0.18157 0.14609
 C28 C 0.04393 0.20720 0.12433
 C29 C 0.06901 0.20407 0.10231
 H30 H 0.03239 0.17618 0.16681
 H31 H 0.07389 0.21988 0.08165
 Cu32 Cu 0.09334 0.12493 0.15679
 Cu33 Cu 0.12549 0.15976 0.08985
 Cu34 Cu 0.16015 0.09000 0.12459
 N35 N 0.11298 0.08582 0.17607
 N36 N 0.13914 0.07227 0.16333
 C37 C 0.14768 0.04574 0.18118
 C38 C 0.12570 0.04266 0.20629
 C39 C 0.10399 0.06832 0.20250
 H40 H 0.16829 0.02990 0.17628
 H41 H 0.08330 0.07374 0.21784
 N42 N 0.17783 0.11156 0.08538
 N43 N 0.16463 0.13814 0.07215
 C44 C 0.18217 0.14692 0.04582
 C45 C 0.20741 0.12482 0.04252
 C46 C 0.20411 0.10275 0.06781
 H47 H 0.17705 0.16778 0.03019
 H48 H 0.21972 0.08188 0.07294
 H49 H 0.11897 0.11152 0.10497
 H50 H 0.14517 0.13825 0.13103
 N51 N 0.41255 0.82227 0.61034
 N52 N 0.42525 0.83576 0.63652
 C53 C 0.45171 0.81831 0.64551
 C54 C 0.45557 0.79275 0.62379
 C55 C 0.43046 0.79583 0.60179
 H56 H 0.46703 0.82370 0.66622
 H57 H 0.42562 0.78005 0.58116
 Cu58 Cu 0.40588 0.87474 0.65618
 Cu59 Cu 0.37379 0.83995 0.58932
 Cu60 Cu 0.33889 0.90948 0.62402
 N61 N 0.38611 0.91372 0.67543
 N62 N 0.35987 0.92719 0.66270
 C63 C 0.35124 0.95363 0.68053
 C64 C 0.37325 0.95674 0.70561
 C65 C 0.39506 0.93119 0.70182
 H66 H 0.33057 0.96941 0.67563
 H67 H 0.41579 0.92582 0.71714
 N68 N 0.32126 0.88794 0.58485
 N69 N 0.33455 0.86146 0.57164
 C70 C 0.31702 0.85269 0.54534
 C71 C 0.29168 0.87469 0.54204
 C72 C 0.29492 0.89670 0.56730
 H73 H 0.32221 0.83190 0.52972
 H74 H 0.27925 0.91749 0.57243
 H75 H 0.38014 0.88817 0.60437
 H76 H 0.35408 0.86126 0.63049
 N77 N 0.91304 0.67806 0.38920
 N78 N 0.92539 0.66500 0.36265
 C79 C 0.95177 0.68254 0.35362
 C80 C 0.95591 0.70774 0.37570
 C81 C 0.93107 0.70433 0.39795
 H82 H 0.96683 0.67746 0.33265
 H83 H 0.92649 0.71978 0.41888
 Cu84 Cu 0.90582 0.62637 0.34252
 Cu85 Cu 0.87455 0.66009 0.41040
 Cu86 Cu 0.83992 0.59046 0.37580
 N87 N 0.88654 0.58687 0.32383
 N88 N 0.86075 0.57295 0.33697
 C89 C 0.85243 0.54623 0.31940
 C90 C 0.87418 0.54341 0.29406
 C91 C 0.89551 0.56942 0.29743
 H92 H 0.83213 0.53009 0.32463
 H93 H 0.91595 0.57511 0.28182
 N94 N 0.82236 0.61180 0.41509
 N95 N 0.83556 0.63833 0.42828
 C96 C 0.81808 0.64700 0.45465
 C97 C 0.79288 0.62487 0.45803
 C98 C 0.79614 0.60290 0.43274
 H99 H 0.82319 0.66783 0.47024
 H100 H 0.78053 0.58207 0.42762
 H101 H 0.88135 0.61211 0.39471
 H102 H 0.85435 0.63891 0.36940
 N103 N 0.58750 0.32254 -0.11050
 N104 N 0.57481 0.33607 -0.13672
 C105 C 0.54835 0.31865 -0.14567
 C106 C 0.54449 0.29307 -0.12388
 C107 C 0.56959 0.29611 -0.10188
 H108 H 0.53304 0.32407 -0.16639
 H109 H 0.57443 0.28029 -0.08121
 Cu110 Cu 0.59418 0.37506 -0.15647
 Cu111 Cu 0.62625 0.34018 -0.08951
 Cu112 Cu 0.66116 0.40972 -0.12439
 N113 N 0.61396 0.41405 -0.17583
 N114 N 0.64018 0.42748 -0.16314
 C115 C 0.64881 0.45395 -0.18103
 C116 C 0.62680 0.45711 -0.20611
 C117 C 0.60500 0.43156 -0.20227
 H118 H 0.66948 0.46971 -0.17617
 H119 H 0.58426 0.42623 -0.21757
 N120 N 0.67878 0.38813 -0.08517
 N121 N 0.66548 0.36164 -0.07188
 C122 C 0.68301 0.35283 -0.04555
 C123 C 0.70834 0.37481 -0.04230
 C124 C 0.70511 0.39685 -0.06763
 H125 H 0.67781 0.33203 -0.02987
 H126 H 0.72079 0.41763 -0.07281
 H127 H 0.61990 0.38842 -0.10470
 H128 H 0.64597 0.36152 -0.13074
 C129 C -0.02695 0.27778 0.12487
 C130 C -0.05102 0.27783 0.10083
 C131 C -0.07531 0.30200 0.10092
 C132 C -0.07594 0.32663 0.12517
 C133 C -0.05146 0.32622 0.14926
 C134 C -0.02722 0.30199 0.14905
 C135 C -0.00195 0.25288 0.12470
 C136 C 0.01899 0.23203 0.12454
 H137 H -0.05102 0.25918 0.08198
 H138 H -0.09355 0.30126 0.08192
 H139 H -0.05088 0.34457 0.16837
 H140 H -0.00867 0.30216 0.16778
 C141 C 0.52665 0.72238 0.62455
 C142 C 0.55074 0.72238 0.60051
 C143 C 0.57510 0.69827 0.60075
 C144 C 0.57568 0.67378 0.62510
 C145 C 0.55131 0.67404 0.64918
 C146 C 0.52699 0.69818 0.64887
 C147 C 0.50159 0.74721 0.62427
 C148 C 0.48059 0.76799 0.62404
 H149 H 0.55070 0.74101 0.58157
 H150 H 0.59344 0.69885 0.58185
 H151 H 0.55097 0.65561 0.66829
 H152 H 0.50844 0.69796 0.66761
 C153 C 1.02688 0.77818 0.37513
 C154 C 1.02717 0.80244 0.35091
 C155 C 1.05141 0.82664 0.35066
 C156 C 1.07589 0.82698 0.37476
 C157 C 1.07525 0.80230 0.39905
 C158 C 1.05094 0.77816 0.39917
 C159 C 1.00187 0.75331 0.37534
 C160 C 0.98091 0.73251 0.37550
 H161 H 1.00863 0.80267 0.33217
 H162 H 1.05085 0.84504 0.33152
 H163 H 1.09348 0.80150 0.41806
 H164 H 1.05093 0.75946 0.41806
 C165 C 0.47344 0.22271 -0.12445
 C166 C 0.47308 0.19858 -0.14874
 C167 C 0.44877 0.17444 -0.14898
 C168 C 0.42444 0.17412 -0.12486
 C169 C 0.42504 0.19853 -0.10054
 C170 C 0.44939 0.22264 -0.10037
 C171 C 0.49848 0.24754 -0.12424
 C172 C 0.51947 0.26832 -0.12407
 H173 H 0.49159 0.19842 -0.16751
 H174 H 0.44908 0.15607 -0.16807
 H175 H 0.40674 0.19906 -0.08160
 H176 H 0.44944 0.24122 -0.08144
 C177 C 0.12499 -0.02796 0.27720
 C178 C 0.10074 -0.05216 0.27747
 C179 C 0.10045 -0.07641 0.30171
 C180 C 0.12453 -0.07686 0.32620
 C181 C 0.14885 -0.05225 0.32558
 C182 C 0.14902 -0.02806 0.30128
 C183 C 0.12523 -0.00304 0.25220
 C184 C 0.12544 0.01782 0.23126
 H185 H 0.08201 -0.05230 0.25892
 H186 H 0.08129 -0.09475 0.30113
 H187 H 0.16785 -0.05154 0.34382
 H188 H 0.16792 -0.00942 0.30128
 C189 C 0.62617 0.52771 -0.27704
 C190 C 0.65024 0.52782 -0.30108
 C191 C 0.65007 0.55199 -0.32540
 C192 C 0.62571 0.57657 -0.32608
 C193 C 0.60159 0.57611 -0.30162
 C194 C 0.60188 0.55188 -0.27736
 C195 C 0.62640 0.50280 -0.25204
 C196 C 0.62659 0.48194 -0.23109
 H197 H 0.66917 0.50919 -0.30104
 H198 H 0.66909 0.55128 -0.34361
 H199 H 0.58239 0.59443 -0.30109
 H200 H 0.58312 0.55201 -0.25884
 C201 C 0.37388 1.02719 0.77641
 C202 C 0.34981 1.02725 0.80048
 C203 C 0.35002 1.05137 0.82476
 C204 C 0.37437 1.07582 0.82528
 C205 C 0.39846 1.07552 0.80092
 C206 C 0.39818 1.05136 0.77668
 C207 C 0.37364 1.00234 0.75144
 C208 C 0.37345 0.98153 0.73053
 H209 H 0.33087 1.00864 0.80049
 H210 H 0.33110 1.05082 0.84308
 H211 H 0.41757 1.09392 0.80054
 H212 H 0.41694 1.05154 0.75815
 C213 C 0.87498 0.47277 0.22345
 C214 C 0.89926 0.44854 0.22325
 C215 C 0.89951 0.42432 0.19907
 C216 C 0.87543 0.42401 0.17471
 C217 C 0.85112 0.44852 0.17516
 C218 C 0.85093 0.47270 0.19937
 C219 C 0.87474 0.49767 0.24836
 C220 C 0.87450 0.51854 0.26922
 H221 H 0.91800 0.44837 0.24179
 H222 H 0.91858 0.40587 0.19951
 H223 H 0.83221 0.44906 0.15682
 H224 H 0.83202 0.49135 0.19930
 C225 C 0.27756 0.12485 -0.02774
 C226 C 0.27733 0.10073 -0.05205
 C227 C 0.30135 0.10073 -0.07615
 C228 C 0.32596 0.12491 -0.07625
 C229 C 0.32594 0.14905 -0.05165
 C230 C 0.30189 0.14899 -0.02759
 C231 C 0.25282 0.12482 -0.00296
 C232 C 0.23210 0.12481 0.01780
 H233 H 0.25860 0.08192 -0.05239
 H234 H 0.30058 0.08178 -0.09467
 H235 H 0.34448 0.16803 -0.05095
 H236 H 0.30229 0.16778 -0.00887
 C237 C 0.72271 0.62475 0.52826
 C238 C 0.72290 0.60056 0.55260
 C239 C 0.69886 0.60050 0.57666
 C240 C 0.67424 0.62470 0.57670
 C241 C 0.67430 0.64892 0.55208
 C242 C 0.69838 0.64891 0.52806
 C243 C 0.74747 0.62477 0.50351
 C244 C 0.76820 0.62481 0.48276
 H245 H 0.74163 0.58173 0.55298
 H246 H 0.69959 0.58149 0.59520
 H247 H 0.65576 0.66791 0.55133
 H248 H 0.69801 0.66775 0.50932
 C249 C 0.77849 0.37474 0.02794
 C250 C 0.80278 0.35053 0.02787
 C251 C 0.82683 0.35049 0.05192
 C252 C 0.82691 0.37472 0.07643
 C253 C 0.80234 0.39897 0.07625
 C254 C 0.77832 0.39894 0.05216
 C255 C 0.75375 0.37474 0.00316
 C256 C 0.73303 0.37476 -0.01759
 H257 H 0.80314 0.33167 0.00922
 H258 H 0.84533 0.33146 0.05128
 H259 H 0.80162 0.41799 0.09470
 H260 H 0.75962 0.41780 0.05244
 C261 C 0.22150 0.87477 0.47183
 C262 C 0.22166 0.89901 0.44754
 C263 C 0.19763 0.89910 0.42347
 C264 C 0.17306 0.87488 0.42336
 C265 C 0.17314 0.85061 0.44793
 C266 C 0.19721 0.85058 0.47197
 C267 C 0.24625 0.87472 0.49659
 C268 C 0.26698 0.87470 0.51733
 H269 H 0.24037 0.91786 0.44721
 H270 H 0.19835 0.91815 0.40498
 H271 H 0.15463 0.83160 0.44863
 H272 H 0.19686 0.83170 0.49066
   
