data_POSCAR
  _audit_creation_date              2014-09-24
  _audit_creation_method            'ToBaCCo'
  _symmetry_space_group_name_H-M    'P1'
  _symmetry_Int_Tables_number       1
  _symmetry_cell_setting            triclinic
  loop_
  _symmetry_equiv_pos_as_xyz
 x,y,z
_cell_length_a 56.4708
_cell_length_b 56.6298
_cell_length_c 56.4585
_cell_angle_alpha 88.047000
_cell_angle_beta 88.047200
_cell_angle_gamma 88.402400
loop_
  _atom_site_label
  _atom_site_type_symbol
  _atom_site_fract_x
  _atom_site_fract_y
  _atom_site_fract_z
Si1 Si 0.76175 0.61321 0.99705
 Si2 Si 0.75477 0.37114 0.50089
 Si3 Si 0.25140 -0.12785 0.00773
 Si4 Si 0.26277 0.10860 0.50360
 Si5 Si 0.11883 0.49457 0.26050
 Si6 Si -0.12422 0.00107 0.25034
 Si7 Si 0.38049 0.50786 0.74483
 Si8 Si 0.61343 1.00342 0.76335
 Si9 Si 0.00705 0.25250 -0.12444
 Si10 Si 0.49955 0.26273 0.11579
 Si11 Si 0.99184 0.76458 0.61712
 Si12 Si 0.50197 0.75093 0.37598
 C13 C 0.41852 -0.02057 0.26682
 H14 H 0.41917 -0.00387 0.27550
 C15 C 0.43144 -0.04023 0.27557
 H16 H 0.44217 -0.03838 0.29089
 C17 C 0.40274 -0.04346 0.23707
 H18 H 0.39104 -0.04492 0.22250
 C19 C 0.41537 -0.06349 0.24516
 H20 H 0.41334 -0.08000 0.23643
 N21 N 0.40435 -0.02258 0.24804
 C22 C 0.38751 0.04706 0.21690
 H23 H 0.36855 0.04515 0.21618
 C24 C 0.39783 0.06771 0.20800
 H25 H 0.38656 0.08154 0.20037
 C26 C 0.42494 0.03115 0.22798
 H27 H 0.43537 0.01681 0.23580
 C28 C 0.43606 0.05162 0.21925
 H29 H 0.45508 0.05283 0.22047
 Zn30 Zn 0.38401 0.00320 0.23926
 N31 N 0.40102 0.02945 0.22694
 C32 C 0.36789 0.03468 0.27414
 N33 N 0.36630 0.01218 0.26678
 C34 C 0.35389 -0.00422 0.27986
 C35 C 0.34248 0.00184 0.30130
 C36 C 0.35673 0.04148 0.29529
 C37 C 0.37516 -0.00861 0.19343
 C38 C 0.36245 -0.01560 0.17428
 C39 C 0.32715 -0.01658 0.19968
 C40 C 0.34058 -0.00936 0.21840
 N41 N 0.36421 -0.00590 0.21500
 H42 H 0.37829 0.04736 0.26397
 H43 H 0.35330 -0.02213 0.27387
 H44 H 0.33293 -0.01151 0.31160
 H45 H 0.35854 0.05946 0.30077
 H46 H 0.39394 -0.00555 0.19120
 H47 H 0.37172 -0.01793 0.15738
 H48 H 0.30844 -0.01960 0.20276
 H49 H 0.33217 -0.00677 0.23563
 C50 C 0.42240 0.07034 0.20928
 C51 C 0.42963 -0.06218 0.26494
 C52 C 0.33815 -0.01994 0.17728
 C53 C 0.34399 0.02495 0.30935
 C54 C 0.08900 1.01993 0.78216
 H55 H 0.08637 1.00315 0.79149
 C56 C 0.07722 1.04035 0.79018
 H57 H 0.06539 1.03905 0.80564
 C58 C 0.10844 1.04206 0.75129
 H59 H 0.12112 1.04285 0.73656
 C60 C 0.09705 1.06285 0.75865
 H61 H 0.10095 1.07930 0.74917
 N62 N 0.10437 1.02116 0.76312
 C63 C 0.11595 0.95007 0.73711
 H64 H 0.13512 0.94987 0.73692
 C65 C 0.10423 0.93079 0.72899
 H66 H 0.11463 0.91585 0.72257
 C67 C 0.07943 0.97022 0.74546
 H68 H 0.06994 0.98577 0.75169
 C69 C 0.06690 0.95125 0.73733
 H70 H 0.04773 0.95235 0.73748
 Zn71 Zn 0.12256 0.99388 0.75482
 N72 N 0.10353 0.96917 0.74531
 C73 C 0.13521 0.96184 0.79171
 N74 N 0.13974 0.98348 0.78167
 C75 C 0.15521 0.99806 0.79142
 C76 C 0.16720 0.99078 0.81183
 C77 C 0.14672 0.95389 0.81200
 C78 C 0.13157 1.00572 0.70776
 C79 C 0.14449 1.01087 0.68687
 C80 C 0.18056 1.00610 0.70858
 C81 C 0.16687 1.00088 0.72914
 N82 N 0.14281 1.00110 0.72837
 H83 H 0.12231 0.95076 0.78428
 H84 H 0.15811 1.01542 0.78342
 H85 H 0.17945 1.00261 0.81933
 H86 H 0.14270 0.93658 0.81957
 H87 H 0.11243 1.00546 0.70764
 H88 H 0.13502 1.01469 0.67077
 H89 H 0.19968 1.00605 0.70952
 H90 H 0.17548 0.99666 0.74560
 C91 C 0.07936 0.93118 0.72894
 C92 C 0.08144 1.06227 0.77855
 C93 C 0.16933 1.01126 0.68708
 C94 C 0.16297 0.96838 0.82239
 C95 C 0.59032 0.52157 0.27959
 H96 H 0.58840 0.50453 0.28860
 C97 C 0.57777 0.54137 0.28805
 H98 H 0.56607 0.53932 0.30354
 C99 C 0.60868 0.54501 0.24903
 H100 H 0.62121 0.54656 0.23422
 C101 C 0.59648 0.56519 0.25684
 H102 H 0.59965 0.58195 0.24764
 N103 N 0.60551 0.52375 0.26047
 C104 C 0.61900 0.45385 0.23219
 H105 H 0.63816 0.45417 0.23175
 C106 C 0.60768 0.43455 0.22358
 H107 H 0.61839 0.42008 0.21655
 C108 C 0.58208 0.47275 0.24166
 H109 H 0.57225 0.48782 0.24851
 C110 C 0.56995 0.45372 0.23309
 H111 H 0.55076 0.45429 0.23356
 Zn112 Zn 0.62453 0.49727 0.25142
 N113 N 0.60619 0.47234 0.24118
 C114 C 0.63853 0.46448 0.28717
 N115 N 0.64202 0.48666 0.27798
 C116 C 0.65679 0.50156 0.28830
 C117 C 0.66914 0.49407 0.30841
 C118 C 0.65046 0.45630 0.30714
 C119 C 0.63342 0.51047 0.20465
 C120 C 0.64630 0.51650 0.18397
 C121 C 0.68230 0.51263 0.20590
 C122 C 0.66866 0.50647 0.22623
 N123 N 0.64464 0.50581 0.22526
 H124 H 0.62620 0.45310 0.27929
 H125 H 0.65886 0.51930 0.28095
 H126 H 0.68084 0.50616 0.31635
 H127 H 0.64729 0.43856 0.31403
 H128 H 0.61433 0.50951 0.20435
 H129 H 0.63685 0.52031 0.16786
 H130 H 0.70137 0.51326 0.20699
 H131 H 0.67728 0.50222 0.24268
 C132 C 0.58282 0.43426 0.22390
 C133 C 0.58100 0.56363 0.27679
 C134 C 0.67108 0.51779 0.18440
 C135 C 0.66604 0.47112 0.31807
 C136 C 0.91635 0.47816 0.76561
 H137 H 0.91626 0.49495 0.77421
 C138 C 0.92977 0.45899 0.77468
 H139 H 0.94014 0.46131 0.79017
 C140 C 0.90197 0.45453 0.73570
 H141 H 0.89064 0.45258 0.72092
 C142 C 0.91513 0.43499 0.74410
 H143 H 0.91387 0.41835 0.73540
 N144 N 0.90264 0.47556 0.74658
 C145 C 0.88428 0.54402 0.71368
 H146 H 0.86552 0.54124 0.71223
 C147 C 0.89399 0.56496 0.70475
 H148 H 0.88247 0.57810 0.69636
 C149 C 0.92176 0.53010 0.72671
 H150 H 0.93244 0.51644 0.73534
 C151 C 0.93227 0.55092 0.71801
 H152 H 0.95107 0.55307 0.72005
 Zn153 Zn 0.88170 0.50062 0.73712
 N154 N 0.89807 0.52727 0.72471
 C155 C 0.86323 0.53241 0.77071
 N156 N 0.86316 0.50953 0.76416
 C157 C 0.85157 0.49285 0.77765
 C158 C 0.83956 0.49898 0.79876
 C159 C 0.85135 0.53931 0.79145
 C160 C 0.87387 0.48793 0.69129
 C161 C 0.86155 0.48063 0.67201
 C162 C 0.82598 0.47915 0.69700
 C163 C 0.83903 0.48668 0.71586
 N164 N 0.86260 0.49059 0.71271
 H165 H 0.87294 0.54537 0.76019
 H166 H 0.85212 0.47468 0.77227
 H167 H 0.83073 0.48542 0.80945
 H168 H 0.85199 0.55761 0.79632
 H169 H 0.89259 0.49137 0.68927
 H170 H 0.87106 0.47841 0.65522
 H171 H 0.80729 0.47585 0.69985
 H172 H 0.83035 0.48923 0.73297
 C173 C 0.91825 0.56880 0.70706
 C174 C 0.92897 0.43691 0.76411
 C175 C 0.83730 0.47594 0.67472
 C176 C 0.83952 0.52250 0.80598
 C177 C 0.27166 0.42266 -0.02483
 H178 H 0.27996 0.42301 -0.00786
 C179 C 0.28087 0.43593 -0.04420
 H180 H 0.29616 0.44662 -0.04188
 C181 C 0.24240 0.40733 -0.04869
 H182 H 0.22785 0.39568 -0.05065
 C183 C 0.25093 0.42033 -0.06843
 H184 H 0.24254 0.41862 -0.08522
 N185 N 0.25288 0.40856 -0.02744
 C186 C 0.21909 0.39074 0.04104
 H187 H 0.21764 0.37201 0.03836
 C188 C 0.21015 0.40036 0.06196
 H189 H 0.20169 0.38881 0.07517
 C190 C 0.23234 0.42816 0.02694
 H191 H 0.24112 0.43883 0.01325
 C192 C 0.22363 0.43858 0.04777
 H193 H 0.22578 0.45732 0.04988
 Zn194 Zn 0.24312 0.38798 -0.00199
 N195 N 0.23025 0.40453 0.02422
 C196 C 0.27647 0.37120 0.03079
 N197 N 0.27003 0.36991 0.00789
 C198 C 0.28338 0.35726 -0.00799
 C199 C 0.30410 0.34520 -0.00093
 C200 C 0.29685 0.35941 0.03858
 C201 C 0.19768 0.37963 -0.01569
 C202 C 0.17853 0.36703 -0.02296
 C203 C 0.20325 0.33150 -0.02210
 C204 C 0.22198 0.34484 -0.01471
 N205 N 0.21892 0.36851 -0.01196
 H206 H 0.26611 0.38176 0.04308
 H207 H 0.27812 0.35685 -0.02621
 H208 H 0.31461 0.33538 -0.01383
 H209 H 0.30156 0.36095 0.05688
 H210 H 0.19569 0.39843 -0.01310
 H211 H 0.16189 0.37641 -0.02600
 H212 H 0.20604 0.31272 -0.02442
 H213 H 0.23892 0.33628 -0.01127
 C214 C 0.21260 0.42453 0.06574
 C215 C 0.27068 0.43457 -0.06649
 C216 C 0.18117 0.34265 -0.02642
 C217 C 0.31111 0.34629 0.02266
 C218 C 0.77987 0.09468 1.02125
 H219 H 0.78878 0.09271 1.00414
 C220 C 0.78853 0.08246 1.04124
 H221 H 0.80404 0.07093 1.03925
 C222 C 0.74945 0.11293 1.04470
 H223 H 0.73463 0.12531 1.04618
 C224 C 0.75746 0.10106 1.06507
 H225 H 0.74839 0.10431 1.08190
 N226 N 0.76073 0.10967 1.02334
 C227 C 0.73242 0.12279 0.95310
 H228 H 0.73203 0.14190 0.95326
 C229 C 0.72374 0.11143 0.93385
 H230 H 0.71671 0.12205 0.91928
 C231 C 0.74180 0.08605 0.97236
 H232 H 0.74863 0.07631 0.98756
 C233 C 0.73313 0.07388 0.95341
 H234 H 0.73350 0.05474 0.95418
 Zn235 Zn 0.75157 0.12849 0.99663
 N236 N 0.74139 0.11010 0.97174
 C237 C 0.78721 0.14318 0.96363
 N238 N 0.77805 0.14623 0.98593
 C239 C 0.78844 0.16065 1.00108
 C240 C 0.80873 0.17295 0.99381
 C241 C 0.80734 0.15513 0.95564
 C242 C 0.70482 0.13688 1.01006
 C243 C 0.68417 0.14954 1.01623
 C244 C 0.70595 0.18564 1.01184
 C245 C 0.72627 0.17222 1.00560
 N246 N 0.72536 0.14826 1.00513
 H247 H 0.77924 0.13113 0.95204
 H248 H 0.78109 0.16239 1.01890
 H249 H 0.81679 0.18428 1.00614
 H250 H 0.81428 0.15226 0.93783
 H251 H 0.70457 0.11783 1.00926
 H252 H 0.66812 0.13996 1.02027
 H253 H 0.70700 0.20468 1.01232
 H254 H 0.74267 0.18096 1.00116
 C255 C 0.72394 0.08663 0.93381
 C256 C 0.77746 0.08582 1.06360
 C257 C 0.68454 0.17426 1.01733
 C258 C 0.81846 0.17021 0.97079
 C259 C 0.27418 0.59716 0.51977
 H260 H 0.28299 0.59573 0.50254
 C261 C 0.28351 0.58504 0.53950
 H262 H 0.29942 0.57415 0.53719
 C263 C 0.24335 0.61398 0.54377
 H264 H 0.22809 0.62577 0.54557
 C265 C 0.25202 0.60220 0.56391
 H266 H 0.24302 0.60491 0.58088
 N267 N 0.25452 0.61138 0.52225
 C268 C 0.22440 0.62395 0.45272
 H269 H 0.22289 0.64302 0.45314
 C270 C 0.21621 0.61228 0.43342
 H271 H 0.20840 0.62263 0.41906
 C272 C 0.23629 0.58757 0.47128
 H273 H 0.24396 0.57807 0.48620
 C274 C 0.22824 0.57511 0.45225
 H275 H 0.22992 0.55601 0.45269
 Zn276 Zn 0.24446 0.63015 0.49585
 N277 N 0.23443 0.61158 0.47101
 C278 C 0.27900 0.64617 0.46225
 N279 N 0.27040 0.64852 0.48486
 C280 C 0.28115 0.66250 0.50017
 C281 C 0.30139 0.67486 0.49284
 C282 C 0.29904 0.65822 0.45419
 C283 C 0.19771 0.63757 0.51011
 C284 C 0.17701 0.64984 0.51692
 C285 C 0.19823 0.68630 0.51267
 C286 C 0.21860 0.67326 0.50581
 N287 N 0.21800 0.64931 0.50497
 H288 H 0.27071 0.63451 0.45050
 H289 H 0.27423 0.66373 0.51820
 H290 H 0.30983 0.68572 0.50534
 H291 H 0.30560 0.65582 0.43616
 H292 H 0.19771 0.61853 0.50901
 H293 H 0.16118 0.63998 0.52113
 H294 H 0.19905 0.70533 0.51347
 H295 H 0.23481 0.68228 0.50124
 C296 C 0.21809 0.58753 0.43293
 C297 C 0.27256 0.58774 0.56203
 C298 C 0.17709 0.67453 0.51844
 C299 C 0.31067 0.67267 0.46957
 C300 C 0.76208 0.92160 0.47944
 H301 H 0.77069 0.92209 0.49623
 C302 C 0.77128 0.93427 0.45967
 H303 H 0.78687 0.94465 0.46153
 C304 C 0.73205 0.90642 0.45641
 H305 H 0.71719 0.89505 0.45495
 C306 C 0.74058 0.91883 0.43628
 H307 H 0.73189 0.91696 0.41967
 N308 N 0.74294 0.90784 0.47742
 C309 C 0.71050 0.89198 0.54708
 H310 H 0.70898 0.87313 0.54523
 C311 C 0.70196 0.90249 0.56772
 H312 H 0.69376 0.89150 0.58158
 C313 C 0.72339 0.92885 0.53112
 H314 H 0.73182 0.93899 0.51679
 C315 C 0.71507 0.94016 0.55158
 H316 H 0.71719 0.95902 0.55278
 Zn317 Zn 0.73346 0.88783 0.50344
 N318 N 0.72130 0.90510 0.52947
 C319 C 0.76730 0.87065 0.53572
 N320 N 0.76047 0.86973 0.51292
 C321 C 0.77355 0.85738 0.49661
 C322 C 0.79443 0.84528 0.50307
 C323 C 0.78787 0.85876 0.54295
 C324 C 0.68762 0.87907 0.49072
 C325 C 0.66855 0.86618 0.48371
 C326 C 0.69366 0.83091 0.48473
 C327 C 0.71228 0.84453 0.49186
 N328 N 0.70902 0.86821 0.49433
 H329 H 0.75712 0.88097 0.54836
 H330 H 0.76795 0.85727 0.47848
 H331 H 0.80473 0.83574 0.48980
 H332 H 0.79295 0.86001 0.56118
 H333 H 0.68548 0.89789 0.49309
 H334 H 0.65180 0.87534 0.48065
 H335 H 0.69666 0.81214 0.48253
 H336 H 0.72933 0.83618 0.49520
 C337 C 0.70441 0.92686 0.57034
 C338 C 0.76072 0.93266 0.43760
 C339 C 0.67147 0.84179 0.48039
 C340 C 0.80188 0.84600 0.52653
 C341 C -0.01688 0.26084 0.41657
 H342 H 0.00000 0.26931 0.41732
 C343 C -0.03660 0.26978 0.42934
 H344 H -0.03463 0.28505 0.44006
 C345 C -0.04011 0.23137 0.40070
 H346 H -0.04163 0.21681 0.38904
 C347 C -0.06022 0.23968 0.41318
 H348 H -0.07690 0.23113 0.41108
 N349 N -0.01900 0.24209 0.40245
 C350 C 0.05088 0.21059 0.38718
 H351 H 0.04954 0.20975 0.36816
 C352 C 0.07120 0.20179 0.39806
 H353 H 0.08537 0.19412 0.38716
 C354 C 0.03384 0.22183 0.42419
 H355 H 0.01919 0.22965 0.43424
 C356 C 0.05395 0.21319 0.43587
 H357 H 0.05457 0.21449 0.45492
 Zn358 Zn 0.00710 0.23287 0.38258
 N359 N 0.03288 0.22067 0.40021
 C360 C 0.03942 0.26733 0.36658
 N361 N 0.01685 0.26004 0.36464
 C362 C 0.00087 0.27298 0.35174
 C363 C 0.00744 0.29421 0.34020
 C364 C 0.04673 0.28826 0.35532
 C365 C -0.00529 0.18716 0.37424
 C366 C -0.01236 0.16794 0.36173
 C367 C -0.01210 0.19269 0.32600
 C368 C -0.00483 0.21149 0.33925
 N369 N -0.00195 0.20846 0.36299
 H370 H 0.05175 0.25729 0.37737
 H371 H -0.01712 0.26706 0.35086
 H372 H -0.00559 0.30441 0.33026
 H373 H 0.06474 0.29369 0.35744
 H374 H -0.00267 0.18522 0.39311
 H375 H -0.01520 0.15128 0.37124
 H376 H -0.01466 0.19548 0.30719
 H377 H -0.00175 0.22850 0.33060
 C378 C 0.07308 0.20319 0.42270
 C379 C -0.05876 0.25939 0.42744
 C380 C -0.01612 0.17058 0.33731
 C381 C 0.03064 0.30218 0.34209
 C382 C 1.02096 0.77356 0.09458
 H383 H 1.00407 0.78280 0.09267
 C384 C 1.04119 0.78206 0.08249
 H385 H 1.03960 0.79778 0.07115
 C386 C 1.04361 0.74245 0.11255
 H387 H 1.04470 0.72741 0.12477
 C388 C 1.06422 0.75029 0.10081
 H389 H 1.08082 0.74088 0.10401
 N390 N 1.02254 0.75418 0.10939
 C391 C 0.95189 0.72634 0.12218
 H392 H 0.95210 0.72543 0.14134
 C393 C 0.93245 0.71823 0.11064
 H394 H 0.91779 0.71110 0.12119
 C395 C 0.97113 0.73658 0.08546
 H396 H 0.98638 0.74357 0.07579
 C397 C 0.95198 0.72854 0.07311
 H398 H 0.95265 0.72954 0.05392
 Zn399 Zn 0.99560 0.74524 0.12818
 N400 N 0.97061 0.73549 0.10958
 C401 C 0.96301 0.78090 0.14242
 N402 N 0.98517 0.77169 0.14583
 C403 C 1.00027 0.78212 0.16030
 C404 C 0.99311 0.80255 0.17221
 C405 C 0.95514 0.80114 0.15395
 C406 C 1.00765 0.69838 0.13655
 C407 C 1.01360 0.67761 0.14910
 C408 C 1.01096 0.69919 0.18534
 C409 C 1.00483 0.71964 0.17202
 N410 N 1.00363 0.71888 0.14803
 H411 H 0.95145 0.77291 0.13034
 H412 H 1.01799 0.77475 0.16233
 H413 H 1.00540 0.81068 0.18354
 H414 H 0.93744 0.80811 0.15074
 H415 H 1.00634 0.69827 0.11748
 H416 H 1.01695 0.66162 0.13943
 H417 H 1.01212 0.70012 0.20438
 H418 H 1.00117 0.73604 0.18084
 C419 C 0.93226 0.71925 0.08577
 C420 C 1.06328 0.77056 0.08581
 C421 C 1.01552 0.67782 0.17382
 C422 C 0.97025 0.81236 0.16901
 C423 C 0.52284 0.27683 0.58698
 H424 H 0.50609 0.28610 0.58424
 C425 C 0.54339 0.28451 0.57487
 H426 H 0.54220 0.29962 0.56266
 C427 C 0.54480 0.24656 0.60710
 H428 H 0.54549 0.23222 0.62017
 C429 C 0.56571 0.25359 0.59538
 H430 H 0.58215 0.24425 0.59944
 N431 N 0.52394 0.25828 0.60287
 C432 C 0.45223 0.23338 0.61603
 H433 H 0.45205 0.23393 0.63517
 C434 C 0.43272 0.22509 0.60478
 H435 H 0.41760 0.21928 0.61553
 C436 C 0.47261 0.23997 0.57911
 H437 H 0.48835 0.24559 0.56928
 C438 C 0.45343 0.23156 0.56705
 H439 H 0.45453 0.23091 0.54791
 Zn440 Zn 0.49658 0.25069 0.62161
 N441 N 0.47156 0.24081 0.60318
 C442 C 0.46506 0.28810 0.63370
 N443 N 0.48668 0.27805 0.63810
 C444 C 0.50166 0.28810 0.65296
 C445 C 0.49482 0.30883 0.66448
 C446 C 0.45753 0.30872 0.64477
 C447 C 0.50790 0.20398 0.63193
 C448 C 0.51329 0.18360 0.64538
 C449 C 0.50955 0.20648 0.68074
 C450 C 0.50404 0.22650 0.66653
 N451 N 0.50369 0.22492 0.64256
 H452 H 0.45367 0.28043 0.62124
 H453 H 0.51900 0.28009 0.65574
 H454 H 0.50697 0.31655 0.67626
 H455 H 0.44023 0.31629 0.64088
 H456 H 0.50721 0.20321 0.61284
 H457 H 0.51684 0.16724 0.63638
 H458 H 0.51004 0.20807 0.69977
 H459 H 0.50015 0.24321 0.67468
 C460 C 0.43311 0.22400 0.57997
 C461 C 0.56529 0.27304 0.57928
 C462 C 0.51438 0.18468 0.67012
 C463 C 0.47244 0.31940 0.66042
 C464 C 0.47981 0.76621 0.91824
 H465 H 0.49663 0.77477 0.91915
 C466 C 0.46017 0.77443 0.93165
 H467 H 0.46216 0.78921 0.94301
 C468 C 0.45660 0.73735 0.90135
 H469 H 0.45501 0.72335 0.88905
 C470 C 0.43658 0.74492 0.91445
 H471 H 0.41995 0.73636 0.91216
 N472 N 0.47765 0.74811 0.90330
 C473 C 0.54748 0.71803 0.88499
 H474 H 0.54536 0.71778 0.86603
 C475 C 0.56841 0.70928 0.89471
 H476 H 0.58222 0.70220 0.88299
 C477 C 0.53186 0.72789 0.92298
 H478 H 0.51754 0.73522 0.93386
 C479 C 0.55262 0.71925 0.93352
 H480 H 0.55407 0.72002 0.95255
 Zn481 Zn 0.50349 0.73994 0.88258
 N482 N 0.52989 0.72743 0.89906
 C483 C 0.53512 0.77522 0.86737
 N484 N 0.51263 0.76774 0.86534
 C485 C 0.49652 0.78069 0.85262
 C486 C 0.50293 0.80202 0.84119
 C487 C 0.54227 0.79625 0.85624
 C488 C 0.49115 0.69453 0.87293
 C489 C 0.48450 0.67559 0.85977
 C490 C 0.48501 0.70126 0.82469
 C491 C 0.49180 0.71977 0.83858
 N492 N 0.49441 0.71613 0.86230
 H493 H 0.54754 0.76519 0.87807
 H494 H 0.47859 0.77461 0.85166
 H495 H 0.48985 0.81218 0.83128
 H496 H 0.56025 0.80177 0.85837
 H497 H 0.49360 0.69210 0.89179
 H498 H 0.48180 0.65865 0.86878
 H499 H 0.48277 0.70451 0.80588
 H500 H 0.49488 0.73699 0.83041
 C501 C 0.57135 0.71001 0.91926
 C502 C 0.43807 0.76397 0.92956
 C503 C 0.48116 0.67882 0.83533
 C504 C 0.52610 0.81009 0.84303
 N505 N 0.50073 -0.18386 0.34501
 C506 C 0.48275 -0.18447 0.32977
 N507 N 0.47103 -0.20488 0.32785
 N508 N 0.47704 -0.22405 0.34088
 C509 C 0.49495 -0.22339 0.35624
 N510 N 0.50673 -0.20301 0.35803
 C511 C 0.47528 -0.16336 0.31699
 C512 C 0.46860 -0.14543 0.30684
 C513 C 0.46003 -0.12402 0.29534
 N514 N 0.44789 -0.12484 0.27512
 N515 N 0.43870 -0.10511 0.26521
 C516 C 0.44127 -0.08384 0.27515
 N517 N 0.45363 -0.08312 0.29535
 N518 N 0.46283 -0.10285 0.30527
 N519 N 0.97448 0.29601 0.82792
 C520 C 0.98601 0.31659 0.82938
 N521 N 1.00441 0.31752 0.84410
 N522 N 1.01097 0.29852 0.85708
 C523 C 0.99935 0.27798 0.85578
 N524 N 0.98106 0.27699 0.84091
 C525 C 0.97792 0.33752 0.81667
 C526 C 0.97067 0.35523 0.80653
 C527 C 0.96137 0.37630 0.79496
 N528 N 0.96308 0.39759 0.80497
 N529 N 0.95323 0.41695 0.79493
 C530 C 0.94128 0.41572 0.77453
 N531 N 0.93980 0.39433 0.76451
 N532 N 0.94964 0.37499 0.77453
 N533 N 0.01023 1.18665 0.85041
 C534 C 0.02955 1.18674 0.83550
 N535 N 0.04180 1.20693 0.83213
 N536 N 0.03498 1.22640 0.84344
 C537 C 0.01573 1.22626 0.85848
 N538 N 0.00344 1.20610 0.86171
 C539 C 0.03752 1.16539 0.82435
 C540 C 0.04436 1.14723 0.81553
 C541 C 0.05285 1.12550 0.80549
 N542 N 0.06670 1.12579 0.78542
 N543 N 0.07543 1.10567 0.77668
 C544 C 0.07065 1.08451 0.78767
 N545 N 0.05662 1.08434 0.80772
 N546 N 0.04789 1.10446 0.81648
 N547 N 0.50552 0.68525 0.35036
 C548 C 0.52504 0.68552 0.33570
 N549 N 0.53725 0.70576 0.33268
 N550 N 0.53022 0.72510 0.34407
 C551 C 0.51077 0.72479 0.35884
 N552 N 0.49851 0.70458 0.36174
 C553 C 0.53330 0.66434 0.32442
 C554 C 0.54059 0.64646 0.31535
 C555 C 0.54982 0.62521 0.30490
 N556 N 0.56345 0.62637 0.28470
 N557 N 0.57299 0.60676 0.27559
 C558 C 0.56929 0.58526 0.28633
 N559 N 0.55548 0.58421 0.30652
 N560 N 0.54593 0.60383 0.31564
 N561 N 0.53300 0.30060 0.16311
 C562 C 0.52151 0.32195 0.16210
 N563 N 0.50291 0.32518 0.14766
 N564 N 0.49608 0.30761 0.13457
 C565 C 0.50766 0.28630 0.13546
 N566 N 0.52616 0.28304 0.15002
 C567 C 0.53016 0.34138 0.17467
 C568 C 0.53832 0.35768 0.18456
 C569 C 0.54926 0.37689 0.19554
 N570 N 0.53620 0.39567 0.20345
 N571 N 0.54676 0.41385 0.21271
 C572 C 0.57074 0.41390 0.21430
 N573 N 0.58364 0.39496 0.20640
 N574 N 0.57312 0.37683 0.19718
 N575 N 0.02614 0.79918 0.66652
 C576 C 0.01580 0.82110 0.66586
 N577 N -0.00224 0.82575 0.65103
 N578 N -0.00965 0.80902 0.63723
 C579 C 0.00074 0.78714 0.63775
 N580 N 0.01870 0.78245 0.65271
 C581 C 0.02510 0.83968 0.67916
 C582 C 0.03362 0.85548 0.68952
 C583 C 0.04479 0.87430 0.70088
 N584 N 0.03216 0.89376 0.70778
 N585 N 0.04302 0.91174 0.71705
 C586 C 0.06689 0.91093 0.71963
 N587 N 0.07935 0.89131 0.71278
 N588 N 0.06853 0.87336 0.70356
 N589 N 0.99145 0.70449 0.65775
 C590 C 0.96927 0.69648 0.65534
 N591 N 0.95375 0.70944 0.64211
 N592 N 0.96021 0.72970 0.63144
 C593 C 0.98240 0.73768 0.63371
 N594 N 0.99792 0.72479 0.64707
 C595 C 0.96239 0.67415 0.66579
 C596 C 0.95568 0.65541 0.67385
 C597 C 0.94644 0.63332 0.68264
 N598 N 0.92317 0.62904 0.68048
 N599 N 0.91435 0.60853 0.68820
 C600 C 0.92845 0.59146 0.69833
 N601 N 0.95184 0.59583 0.70045
 N602 N 0.96069 0.61639 0.69271
 N603 N 0.46667 0.21587 0.16020
 C604 C 0.47874 0.19525 0.15624
 N605 N 0.49756 0.19519 0.14069
 N606 N 0.50404 0.21512 0.12936
 C607 C 0.49189 0.23572 0.13317
 N608 N 0.47316 0.23580 0.14886
 C609 C 0.47054 0.17348 0.16691
 C610 C 0.46293 0.15520 0.17518
 C611 C 0.45285 0.13361 0.18431
 N612 N 0.46670 0.11579 0.19337
 N613 N 0.45711 0.09564 0.20132
 C614 C 0.43335 0.09260 0.20042
 N615 N 0.41964 0.11057 0.19131
 N616 N 0.42920 0.13067 0.18338
 N617 N 0.32643 0.49634 -0.20767
 C618 C 0.33770 0.48851 -0.18793
 N619 N 0.36169 0.48662 -0.18860
 N620 N 0.37405 0.49241 -0.20834
 C621 C 0.36284 0.50025 -0.22808
 N622 N 0.33882 0.50216 -0.22746
 C623 C 0.32455 0.48146 -0.16677
 C624 C 0.31408 0.47488 -0.14888
 C625 C 0.30214 0.46618 -0.12763
 N626 N 0.31192 0.46830 -0.10622
 N627 N 0.30166 0.45875 -0.08669
 C628 C 0.28127 0.44668 -0.08786
 N629 N 0.27149 0.44480 -0.10937
 N630 N 0.28173 0.45435 -0.12889
 N631 N 0.82739 1.00356 0.30467
 C632 C 0.82853 0.98135 0.31444
 N633 N 0.84321 0.96495 0.30430
 N634 N 0.85650 0.97061 0.28512
 C635 C 0.85551 0.99283 0.27540
 N636 N 0.84070 1.00922 0.28545
 C637 C 0.81518 0.97534 0.33579
 C638 C 0.80455 0.96960 0.35387
 C639 C 0.79247 0.96185 0.37542
 N640 N 0.80241 0.96442 0.39667
 N641 N 0.79204 0.95567 0.41652
 C642 C 0.77139 0.94398 0.41583
 N643 N 0.76143 0.94166 0.39446
 N644 N 0.77178 0.95040 0.37463
 N645 N 0.83395 0.04003 1.20639
 C646 C 0.83670 0.02889 1.18553
 N647 N 0.85087 0.00922 1.18442
 N648 N 0.86198 0.00096 1.20354
 C649 C 0.85930 0.01209 1.22440
 N650 N 0.84508 0.03175 1.22554
 C651 C 0.82544 0.03815 1.16463
 C652 C 0.81640 0.04592 1.14685
 C653 C 0.80600 0.05535 1.12555
 N654 N 0.81651 0.05128 1.10407
 N655 N 0.80727 0.06066 1.08435
 C656 C 0.78720 0.07445 1.08539
 N657 N 0.77671 0.07835 1.10700
 N658 N 0.78593 0.06898 1.12671
 N659 N 0.33503 0.54469 0.70279
 C660 C 0.33657 0.53291 0.68223
 N661 N 0.35082 0.51332 0.68086
 N662 N 0.36323 0.50579 0.69942
 C663 C 0.36181 0.51759 0.71995
 N664 N 0.34746 0.53715 0.72137
 C665 C 0.32421 0.54161 0.66177
 C666 C 0.31437 0.54897 0.64427
 C667 C 0.30318 0.55797 0.62324
 N668 N 0.31348 0.55444 0.60156
 N669 N 0.30358 0.56356 0.58208
 C670 C 0.28301 0.57656 0.58356
 N671 N 0.27272 0.57992 0.60536
 N672 N 0.28261 0.57080 0.62484
 N673 N 0.16286 0.53254 0.29807
 C674 C 0.16179 0.52188 0.31996
 N675 N 0.14833 0.50257 0.32366
 N676 N 0.13624 0.49422 0.30604
 C677 C 0.13720 0.50494 0.28418
 N678 N 0.15076 0.52419 0.28045
 C679 C 0.17335 0.53191 0.33935
 C680 C 0.18236 0.54094 0.35572
 C681 C 0.19227 0.55257 0.37514
 N682 N 0.20146 0.53997 0.39368
 N683 N 0.20985 0.55101 0.41201
 C684 C 0.20925 0.57502 0.41247
 N685 N 0.20005 0.58747 0.39377
 N686 N 0.19170 0.57647 0.37548
 N687 N 0.63460 0.02358 0.82676
 C688 C 0.65840 0.02541 0.82373
 N689 N 0.66881 0.02034 0.80241
 N690 N 0.65578 0.01362 0.78469
 C691 C 0.63195 0.01188 0.78774
 N692 N 0.62160 0.01689 0.80906
 C693 C 0.67201 0.03401 0.84247
 C694 C 0.68267 0.04212 0.85832
 C695 C 0.69442 0.05300 0.87710
 N696 N 0.70209 0.04008 0.89615
 N697 N 0.71180 0.05064 0.91408
 C698 C 0.71407 0.07451 0.91361
 N699 N 0.70643 0.08727 0.89440
 N700 N 0.69677 0.07674 0.87650
 N701 N 0.63881 1.00238 0.69577
 C702 C 0.65446 0.98379 0.69586
 N703 N 0.65853 0.97176 0.71658
 N704 N 0.64716 0.97803 0.73657
 C705 C 0.63133 0.99649 0.73644
 N706 N 0.62745 1.00863 0.71575
 C707 C 0.66485 0.97559 0.67399
 C708 C 0.67274 0.96791 0.65561
 C709 C 0.68126 0.95769 0.63391
 N710 N 0.67905 0.93425 0.63091
 N711 N 0.68638 0.92458 0.61070
 C712 C 0.69615 0.93796 0.59268
 N713 N 0.69833 0.96151 0.59577
 N714 N 0.69098 0.97122 0.61602
 N715 N 0.14724 0.45774 0.20626
 C716 C 0.16051 0.47373 0.19378
 N717 N 0.16213 0.49584 0.20203
 N718 N 0.15061 0.50178 0.22207
 C719 C 0.13716 0.48580 0.23444
 N720 N 0.13573 0.46368 0.22624
 C721 C 0.17149 0.46748 0.17149
 C722 C 0.17977 0.46114 0.15273
 C723 C 0.18862 0.45213 0.13059
 N724 N 0.19854 0.46653 0.11352
 N725 N 0.20616 0.45787 0.09285
 C726 C 0.20403 0.43455 0.08851
 N727 N 0.19405 0.42031 0.10572
 N728 N 0.18647 0.42893 0.12633
 N729 N -0.20035 0.31585 0.48752
 C730 C -0.18028 0.32654 0.47944
 N731 N -0.18001 0.35045 0.47772
 N732 N -0.19916 0.36332 0.48395
 C733 C -0.21922 0.35271 0.49208
 N734 N -0.21955 0.32876 0.49378
 C735 C -0.15957 0.31292 0.47239
 C736 C -0.14184 0.30227 0.46597
 C737 C -0.12052 0.29038 0.45763
 N738 N -0.09911 0.29988 0.46071
 N739 N -0.07942 0.28975 0.45159
 C740 C -0.08042 0.26977 0.43901
 N741 N -0.10195 0.26025 0.43616
 N742 N -0.12164 0.27037 0.44528
 N743 N 0.29694 0.81726 0.99419
 C744 C 0.31639 0.82818 0.98483
 N745 N 0.31598 0.85205 0.98226
 N746 N 0.29680 0.86466 0.98892
 C747 C 0.27736 0.85383 0.99831
 N748 N 0.27771 0.82991 1.00086
 C749 C 0.33716 0.81486 0.97735
 C750 C 0.35495 0.80455 0.97051
 C751 C 0.37632 0.79315 0.96161
 N752 N 0.39766 0.80274 0.96482
 N753 N 0.41736 0.79316 0.95511
 C754 C 0.41643 0.77367 0.94180
 N755 N 0.39498 0.76405 0.93883
 N756 N 0.37529 0.77362 0.94852
 N757 N 1.20658 0.81969 0.02684
 C758 C 1.18653 0.83169 0.03381
 N759 N 1.18637 0.85563 0.03329
 N760 N 1.20558 0.86724 0.02594
 C761 C 1.22562 0.85532 0.01893
 N762 N 1.22584 0.83134 0.01948
 C763 C 1.16560 0.81942 0.04157
 C764 C 1.14766 0.80984 0.04831
 C765 C 1.12608 0.79912 0.05674
 N766 N 1.10482 0.80989 0.05252
 N767 N 1.08483 0.80061 0.06136
 C768 C 1.08536 0.78022 0.07478
 N769 N 1.10674 0.76944 0.07881
 N770 N 1.12673 0.77871 0.06997
 N771 N 0.71048 0.32711 0.53728
 C772 C 0.68999 0.32983 0.52546
 N773 N 0.68935 0.34447 0.50598
 N774 N 0.70855 0.35609 0.49860
 C775 C 0.72901 0.35347 0.51041
 N776 N 0.72971 0.33875 0.52986
 C777 C 0.66885 0.31842 0.53403
 C778 C 0.65072 0.30950 0.54123
 C779 C 0.62890 0.29953 0.54999
 N780 N 0.60785 0.31017 0.54469
 N781 N 0.58760 0.30153 0.55364
 C782 C 0.58767 0.28194 0.56823
 N783 N 0.60885 0.27128 0.57335
 N784 N 0.62909 0.27991 0.56441
 N785 N 0.31268 0.14057 0.53964
 C786 C 0.32131 0.15704 0.52392
 N787 N 0.31189 0.15938 0.50214
 N788 N 0.29444 0.14551 0.49629
 C789 C 0.28586 0.12894 0.51204
 N790 N 0.29528 0.12674 0.53378
 C791 C 0.34048 0.17134 0.53044
 C792 C 0.35661 0.18247 0.53736
 C793 C 0.37559 0.19469 0.54741
 N794 N 0.39559 0.19982 0.53447
 N795 N 0.41378 0.20958 0.54462
 C796 C 0.41262 0.21439 0.56808
 N797 N 0.39245 0.20933 0.58082
 N798 N 0.37431 0.19965 0.57071
 N799 N 0.82425 0.64503 0.00360
 C800 C 0.81999 0.65961 0.02189
 N801 N 0.79795 0.66077 0.03219
 N802 N 0.78072 0.64767 0.02447
 C803 C 0.78501 0.63297 0.00625
 N804 N 0.80703 0.63195 -0.00410
 C805 C 0.83904 0.67214 0.03145
 C806 C 0.85522 0.68185 0.04012
 C807 C 0.87447 0.69249 0.05141
 N808 N 0.87428 0.69348 0.07534
 N809 N 0.89255 0.70221 0.08613
 C810 C 0.91174 0.71024 0.07343
 N811 N 0.91180 0.70931 0.04939
 N812 N 0.89350 0.70054 0.03857
 N813 N 0.69712 0.62968 0.97253
 C814 C 0.69580 0.65360 0.97246
 N815 N 0.71467 0.66561 0.97948
 N816 N 0.73422 0.65397 0.98649
 C817 C 0.73547 0.63000 0.98660
 N818 N 0.71661 0.61808 0.97952
 C819 C 0.67472 0.66578 0.96460
 C820 C 0.65674 0.67500 0.95741
 C821 C 0.63525 0.68489 0.94791
 N822 N 0.61728 0.69279 0.96239
 N823 N 0.59698 0.70090 0.95337
 C824 C 0.59389 0.70127 0.92957
 N825 N 0.61201 0.69335 0.91522
 N826 N 0.63228 0.68527 0.92421
 N827 N 0.19688 0.12348 0.48163
 C828 C 0.19487 0.14736 0.48203
 N829 N 0.21341 0.15977 0.48920
 N830 N 0.23333 0.14857 0.49582
 C831 C 0.23531 0.12464 0.49536
 N832 N 0.21676 0.11231 0.48821
 C833 C 0.17381 0.15916 0.47364
 C834 C 0.15606 0.16816 0.46566
 C835 C 0.13509 0.17786 0.45497
 N836 N 0.11671 0.18664 0.46838
 N837 N 0.09699 0.19479 0.45820
 C838 C 0.09494 0.19435 0.43428
 N839 N 0.11346 0.18554 0.42102
 N840 N 0.13313 0.17743 0.43116
 N841 N 0.56411 0.04483 0.73125
 C842 C 0.56619 0.06602 0.74136
 N843 N 0.58165 0.06797 0.75900
 N844 N 0.59477 0.04932 0.76617
 C845 C 0.59288 0.02818 0.75589
 N846 N 0.57723 0.02619 0.73842
 C847 C 0.55429 0.08664 0.73161
 C848 C 0.54526 0.10391 0.72225
 C849 C 0.53565 0.12422 0.70969
 N850 N 0.53252 0.14524 0.72034
 N851 N 0.52531 0.16442 0.70793
 C852 C 0.52111 0.16326 0.68442
 N853 N 0.52414 0.14208 0.67396
 N854 N 0.53131 0.12294 0.68634
 N855 N 1.07140 0.54936 0.25998
 C856 C 1.07209 0.55704 0.23693
 N857 N 1.08615 0.54534 0.22106
 N858 N 1.09928 0.52665 0.22799
 C859 C 1.09876 0.51901 0.25100
 N860 N 1.08455 0.53060 0.26691
 C861 C 1.05915 0.57792 0.22929
 C862 C 1.04930 0.59547 0.22139
 C863 C 1.03875 0.61612 0.21022
 N864 N 1.03291 0.61560 0.18719
 N865 N 1.02508 0.63512 0.17587
 C866 C 1.02286 0.65595 0.18710
 N867 N 1.02854 0.65635 0.21030
 N868 N 1.03643 0.63679 0.22165
 N869 N 0.89313 0.93605 0.22785
 C870 C 0.91713 0.93505 0.22776
 N871 N 0.92893 0.95403 0.23476
 N872 N 0.91700 0.97342 0.24166
 C873 C 0.89294 0.97439 0.24167
 N874 N 0.88124 0.95539 0.23470
 C875 C 0.92952 0.91436 0.21931
 C876 C 0.93833 0.89654 0.21141
 C877 C 0.94685 0.87502 0.20101
 N878 N 0.96914 0.86633 0.20449
 N879 N 0.97665 0.84634 0.19448
 C880 C 0.96211 0.83436 0.18067
 N881 N 0.93982 0.84320 0.17736
 N882 N 0.93233 0.86312 0.18733
 N883 N 0.39676 0.44198 0.72421
 C884 C 0.42068 0.44160 0.72129
 N885 N 0.43275 0.46123 0.72589
 N886 N 0.42116 0.48066 0.73319
 C887 C 0.39719 0.48102 0.73600
 N888 N 0.38521 0.46136 0.73146
 C889 C 0.43260 0.42099 0.71213
 C890 C 0.44118 0.40331 0.70370
 C891 C 0.44960 0.38203 0.69279
 N892 N 0.47124 0.37229 0.69744
 N893 N 0.47859 0.35237 0.68720
 C894 C 0.46456 0.34152 0.67200
 N895 N 0.44293 0.35143 0.66749
 N896 N 0.43559 0.37128 0.67769
 N897 N 0.42830 0.54611 0.77699
 C898 C 0.42616 0.56782 0.76627
 N899 N 0.41103 0.57115 0.74823
 N900 N 0.39831 0.55332 0.74126
 C901 C 0.40029 0.53165 0.75214
 N902 N 0.41558 0.52831 0.77002
 C903 C 0.43790 0.58746 0.77559
 C904 C 0.44704 0.60373 0.78462
 C905 C 0.45710 0.62266 0.79682
 N906 N 0.45955 0.64435 0.78621
 N907 N 0.46756 0.66216 0.79828
 C908 C 0.47327 0.65893 0.82140
 N909 N 0.47086 0.63711 0.83182
 N910 N 0.46290 0.61933 0.81979
 N911 N -0.07590 0.05235 0.25199
 C912 C -0.07856 0.06004 0.27446
 N913 N -0.09453 0.04960 0.28958
 N914 N -0.10756 0.03211 0.28249
 C915 C -0.10503 0.02443 0.26005
 N916 N -0.08897 0.03480 0.24488
 C917 C -0.06511 0.07924 0.28233
 C918 C -0.05465 0.09530 0.29028
 C919 C -0.04314 0.11412 0.30133
 N920 N -0.03614 0.11109 0.32396
 N921 N -0.02715 0.12893 0.33514
 C922 C -0.02485 0.15051 0.32417
 N923 N -0.03172 0.15342 0.30137
 N924 N -0.04077 0.13555 0.29016
 N925 N 0.06732 0.44868 0.27963
 C926 C 0.07981 0.42917 0.28714
 N927 N 0.10379 0.42965 0.28685
 N928 N 0.11500 0.44896 0.27923
 C929 C 0.10261 0.46846 0.27168
 N930 N 0.07857 0.46805 0.27198
 C931 C 0.06816 0.40812 0.29548
 C932 C 0.05994 0.38981 0.30294
 C933 C 0.05209 0.36745 0.31249
 N934 N 0.06759 0.35287 0.32399
 N935 N 0.06073 0.33212 0.33315
 C936 C 0.03810 0.32509 0.33115
 N937 N 0.02258 0.33975 0.31950
 N938 N 0.02946 0.36058 0.31030
 N939 N 0.56245 0.95678 0.78148
 C940 C 0.57510 0.93684 0.78738
 N941 N 0.59910 0.93715 0.78603
 N942 N 0.61015 0.95673 0.77894
 C943 C 0.59758 0.97666 0.77302
 N944 N 0.57354 0.97641 0.77437
 C945 C 0.56360 0.91570 0.79563
 C946 C 0.55541 0.89738 0.80313
 C947 C 0.54756 0.87509 0.81282
 N948 N 0.56308 0.86057 0.82436
 N949 N 0.55620 0.83992 0.83374
 C950 C 0.53353 0.83294 0.83194
 N951 N 0.51799 0.84754 0.82025
 N952 N 0.52489 0.86827 0.81084
 N953 N 0.72183 0.58494 0.05052
 C954 C 0.73727 0.57097 0.06282
 N955 N 0.76022 0.56919 0.05497
 N956 N 0.76746 0.58117 0.03541
 C957 C 0.75197 0.59523 0.02316
 N958 N 0.72907 0.59689 0.03103
 C959 C 0.72917 0.55892 0.08420
 C960 C 0.72077 0.54974 0.10201
 C961 C 0.70891 0.53990 0.12277
 N962 N 0.72012 0.53695 0.14357
 N963 N 0.70827 0.52950 0.16314
 C964 C 0.68478 0.52489 0.16259
 N965 N 0.67376 0.52776 0.14163
 N966 N 0.68558 0.53516 0.12211
 N967 N 0.22980 1.05896 0.54460
 C968 C 0.23948 1.06096 0.56608
 N969 N 0.25707 1.07642 0.56838
 N970 N 0.26463 1.08962 0.54981
 C971 C 0.25483 1.08785 0.52837
 N972 N 0.23739 1.07217 0.52603
 C973 C 0.22934 1.04906 0.58667
 C974 C 0.21995 1.04023 0.60416
 C975 C 0.20764 1.03102 0.62495
 N976 N 0.21894 1.02735 0.64562
 N977 N 0.20690 1.02063 0.66533
 C978 C 0.18312 1.01750 0.66507
 N979 N 0.17199 1.02108 0.64424
 N980 N 0.18400 1.02776 0.62457
 N981 N 0.23309 0.92541 0.96182
 C982 C 0.22604 0.91377 0.94276
 N983 N 0.22698 0.88983 0.94335
 N984 N 0.23469 0.87784 0.96238
 C985 C 0.24169 0.88939 0.98145
 N986 N 0.24084 0.91338 0.98089
 C987 C 0.21661 0.92626 0.92250
 C988 C 0.20789 0.93529 0.90511
 C989 C 0.19657 0.94420 0.88414
 N990 N 0.18081 0.93067 0.87371
 N991 N 0.17023 0.93843 0.85413
 C992 C 0.17500 0.96003 0.84419
 N993 N 0.19086 0.97360 0.85473
 N994 N 0.20149 0.96581 0.87437
 N995 N 0.73669 0.42577 0.45647
 C996 C 0.73126 0.41479 0.43643
 N997 N 0.73353 0.39094 0.43582
 N998 N 0.74092 0.37839 0.45464
 C999 C 0.74625 0.38927 0.47471
 N1000 N 0.74413 0.41319 0.47534
 C1001 C 0.72166 0.42773 0.41653
 C1002 C 0.71269 0.43704 0.39941
 C1003 C 0.70102 0.44617 0.37874
 N1004 N 0.68609 0.43224 0.36765
 N1005 N 0.67508 0.44025 0.34842
 C1006 C 0.67856 0.46250 0.33948
 N1007 N 0.69359 0.47646 0.35066
 N1008 N 0.70465 0.46843 0.36997
 N1009 N 0.75408 0.41732 0.55404
 C1010 C 0.77623 0.41458 0.56254
 N1011 N 0.79176 0.39910 0.55222
 N1012 N 0.78540 0.38665 0.53403
 C1013 C 0.76331 0.38930 0.52550
 N1014 N 0.74771 0.40483 0.53579
 C1015 C 0.78346 0.42765 0.58225
 C1016 C 0.79105 0.43789 0.59864
 C1017 C 0.80184 0.44920 0.61773
 N1018 N 0.82421 0.45703 0.61472
 N1019 N 0.83522 0.46590 0.63274
 C1020 C 0.82433 0.46722 0.65451
 N1021 N 0.80179 0.45951 0.65741
 N1022 N 0.79075 0.45059 0.63935
 N1023 N 0.29023 -0.09819 0.05666
 C1024 C 0.27502 -0.08243 0.06701
 N1025 N 0.25259 -0.07995 0.05919
 N1026 N 0.24562 -0.09297 0.04157
 C1027 C 0.26088 -0.10880 0.03126
 N1028 N 0.28327 -0.11118 0.03910
 C1029 C 0.28279 -0.06896 0.08621
 C1030 C 0.29070 -0.05846 0.10225
 C1031 C 0.30178 -0.04689 0.12101
 N1032 N 0.29096 -0.04524 0.14273
 N1033 N 0.30227 -0.03619 0.16055
 C1034 C 0.32484 -0.02862 0.15729
 N1035 N 0.33545 -0.03019 0.13542
 N1036 N 0.32416 -0.03918 0.11763
 N1037 N 0.28675 0.09515 0.43749
 C1038 C 0.28907 0.07128 0.43735
 N1039 N 0.28366 0.05842 0.45743
 N1040 N 0.27605 0.06919 0.47704
 C1041 C 0.27373 0.09312 0.47712
 N1042 N 0.27917 0.10589 0.45704
 C1043 C 0.29754 0.06016 0.41612
 C1044 C 0.30506 0.05235 0.39766
 C1045 C 0.31459 0.04498 0.37515
 N1046 N 0.31278 0.02242 0.36819
 N1047 N 0.32192 0.01599 0.34720
 C1048 C 0.33315 0.03190 0.33245
 N1049 N 0.33479 0.05445 0.33957
 N1050 N 0.32568 0.06087 0.36049
 N1051 N 0.76466 0.56714 0.94391
 C1052 C 0.78694 0.56941 0.93450
 N1053 N 0.80189 0.58411 0.94461
 N1054 N 0.79477 0.59631 0.96342
 C1055 C 0.77247 0.59424 0.97275
 N1056 N 0.75756 0.57934 0.96277
 C1057 C 0.79406 0.55831 0.91284
 C1058 C 0.80072 0.55047 0.89410
 C1059 C 0.80951 0.54301 0.87135
 N1060 N 0.81813 0.55927 0.85543
 N1061 N 0.82728 0.55270 0.83459
 C1062 C 0.82817 0.52959 0.82881
 N1063 N 0.81933 0.51330 0.84478
 N1064 N 0.81017 0.51989 0.86571
 N1065 N 0.05803 0.75873 0.58849
 C1066 C 0.05645 0.74120 0.57289
 N1067 N 0.03514 0.73141 0.56998
 N1068 N 0.01602 0.73882 0.58237
 C1069 C 0.01762 0.75623 0.59810
 N1070 N 0.03890 0.76614 0.60088
 C1071 C 0.07738 0.73164 0.56128
 C1072 C 0.09494 0.72270 0.55228
 C1073 C 0.11563 0.71092 0.54243
 N1074 N 0.11540 0.68740 0.53891
 N1075 N 0.13486 0.67599 0.53101
 C1076 C 0.15531 0.68763 0.52637
 N1077 N 0.15541 0.71128 0.52982
 N1078 N 0.13592 0.72272 0.53776
 N1079 N 0.54266 0.23154 1.06711
 C1080 C 0.56375 0.24187 1.06972
 N1081 N 0.56515 0.25934 1.08541
 N1082 N 0.54607 0.26614 1.09822
 C1083 C 0.52503 0.25565 1.09580
 N1084 N 0.52358 0.23835 1.07992
 C1085 C 0.58477 0.23259 1.05804
 C1086 C 0.60238 0.22367 1.04913
 C1087 C 0.62306 0.21168 1.03955
 N1088 N 0.64369 0.22312 1.03560
 N1089 N 0.66319 0.21136 1.02817
 C1090 C 0.66277 0.18775 1.02456
 N1091 N 0.64199 0.17649 1.02845
 N1092 N 0.62252 0.18822 1.03584
 N1093 N 0.96279 0.22005 0.92297
 C1094 C 0.94171 0.23156 0.91972
 N1095 N 0.94061 0.25006 0.90388
 N1096 N 0.95996 0.25676 0.89156
 C1097 C 0.98100 0.24511 0.89463
 N1098 N 0.98215 0.22675 0.91065
 C1099 C 0.92041 0.22266 0.93085
 C1100 C 0.90233 0.21443 0.93904
 C1101 C 0.88073 0.20372 0.94734
 N1102 N 0.87208 0.20656 0.96980
 N1103 N 0.85219 0.19608 0.97729
 C1104 C 0.84029 0.18241 0.96258
 N1105 N 0.84908 0.17974 0.94010
 N1106 N 0.86891 0.19019 0.93263
 N1107 N 0.43517 0.74987 0.40359
 C1108 C 0.43563 0.73116 0.41922
 N1109 N 0.45637 0.71903 0.42253
 N1110 N 0.47602 0.72533 0.41048
 C1111 C 0.47552 0.74391 0.39467
 N1112 N 0.45482 0.75617 0.39154
 C1113 C 0.41399 0.72280 0.43014
 C1114 C 0.39562 0.71508 0.43817
 C1115 C 0.37365 0.70502 0.44633
 N1116 N 0.36548 0.70721 0.46904
 N1117 N 0.34533 0.69718 0.47644
 C1118 C 0.33266 0.68462 0.46139
 N1119 N 0.34094 0.68262 0.43865
 N1120 N 0.36104 0.69262 0.43126
 N1121 N 0.54194 0.76796 0.43057
 C1122 C 0.56305 0.77326 0.41977
 N1123 N 0.56583 0.77109 0.39600
 N1124 N 0.54804 0.76393 0.38338
 C1125 C 0.52689 0.75875 0.39411
 N1126 N 0.52412 0.76077 0.41793
 C1127 C 0.58164 0.78290 0.43283
 C1128 C 0.59728 0.79199 0.44296
 C1129 C 0.61577 0.80398 0.45405
 N1130 N 0.61251 0.82693 0.45968
 N1131 N 0.63010 0.83875 0.46843
 C1132 C 0.65164 0.82812 0.47182
 N1133 N 0.65478 0.80503 0.46629
 N1134 N 0.63717 0.79318 0.45751
 N1135 N 0.07136 0.25688 -0.09605
 C1136 C 0.06862 0.27558 -0.08172
 N1137 N 0.04709 0.28666 -0.07964
 N1138 N 0.02889 0.27939 -0.09162
 C1139 C 0.03165 0.26082 -0.10609
 N1140 N 0.05314 0.24960 -0.10803
 C1141 C 0.08859 0.28483 -0.07043
 C1142 C 0.10512 0.29370 -0.06150
 C1143 C 0.12434 0.30558 -0.05151
 N1144 N 0.12162 0.32864 -0.04614
 N1145 N 0.13963 0.34024 -0.03793
 C1146 C 0.16105 0.32927 -0.03481
 N1147 N 0.16366 0.30607 -0.04012
 N1148 N 0.14563 0.29444 -0.04838
 N1149 N 0.43375 0.28528 0.09951
 C1150 C 0.43457 0.28754 0.07553
 N1151 N 0.45513 0.28223 0.06348
 N1152 N 0.47427 0.27484 0.07513
 C1153 C 0.47340 0.27262 0.09916
 N1154 N 0.45284 0.27792 0.11114
 C1155 C 0.41401 0.29625 0.06343
 C1156 C 0.39616 0.30414 0.05470
 C1157 C 0.37438 0.31431 0.04617
 N1158 N 0.36868 0.31315 0.02309
 N1159 N 0.34847 0.32310 0.01554
 C1160 C 0.33332 0.33454 0.03081
 N1161 N 0.33918 0.33550 0.05388
 N1162 N 0.35930 0.32558 0.06142
 N1163 N 0.93840 0.76882 0.57118
 C1164 C 0.92874 0.79071 0.57450
 N1165 N 0.93864 0.80496 0.59000
 N1166 N 0.95751 0.79754 0.60194
 C1167 C 0.96712 0.77563 0.59881
 N1168 N 0.95733 0.76142 0.58313
 C1169 C 0.90722 0.79823 0.56338
 C1170 C 0.88869 0.80532 0.55547
 C1171 C 0.86627 0.81471 0.54783
 N1172 N 0.85106 0.82480 0.56380
 N1173 N 0.83054 0.83442 0.55699
 C1174 C 0.82439 0.83433 0.53395
 N1175 N 0.83965 0.82405 0.51796
 N1176 N 0.86026 0.81441 0.52478
   
