data_POSCAR
  _audit_creation_date              2014-09-24
  _audit_creation_method            'ToBaCCo'
  _symmetry_space_group_name_H-M    'P1'
  _symmetry_Int_Tables_number       1
  _symmetry_cell_setting            triclinic
  loop_
  _symmetry_equiv_pos_as_xyz
 x,y,z
_cell_length_a 28.8236
_cell_length_b 28.7368
_cell_length_c 34.9475
_cell_angle_alpha 89.958600
_cell_angle_beta 88.457500
_cell_angle_gamma 89.907300
loop_
  _atom_site_label
  _atom_site_type_symbol
  _atom_site_fract_x
  _atom_site_fract_y
  _atom_site_fract_z
C1 C 0.00062 0.54480 1.02118
 C2 C -0.00107 0.54473 0.98081
 C3 C -0.00213 0.50232 0.96106
 C4 C -0.00131 0.46006 0.98101
 C5 C 0.00082 0.46010 1.02127
 C6 C 0.00166 0.50245 1.04110
 H7 H 0.00313 0.50246 1.07212
 H8 H -0.00360 0.50212 0.93005
 C9 C 0.45802 -0.00603 0.51913
 C10 C 0.45923 -0.00572 0.47883
 C11 C 0.50200 -0.00581 0.45881
 C12 C 0.54362 -0.00590 0.47866
 C13 C 0.54237 -0.00579 0.51904
 C14 C 0.49957 -0.00601 0.53900
 H15 H 0.49860 -0.00598 0.57005
 H16 H 0.50279 -0.00563 0.42774
 C17 C 0.10246 0.00729 0.26253
 H18 H 0.10438 0.00953 0.23163
 C19 C 0.14309 0.00760 0.28338
 H20 H 0.17648 0.01001 0.26853
 C21 C 0.05661 0.00145 0.31973
 H22 H 0.02286 -0.00048 0.33381
 C23 C 0.09644 0.00166 0.34168
 H24 H 0.09327 -0.00051 0.37259
 N25 N 0.06036 0.00351 0.28084
 C26 C -0.02913 -0.06006 0.19684
 H27 H -0.05703 -0.03487 0.19604
 C28 C -0.03116 -0.10053 0.17479
 H29 H -0.06059 -0.10654 0.15681
 C30 C 0.04286 -0.08372 0.22188
 H31 H 0.07122 -0.07760 0.24078
 C32 C 0.04219 -0.12458 0.20033
 H33 H 0.07026 -0.14950 0.20244
 Zn34 Zn 0.00747 0.00239 0.24987
 N35 N 0.00772 -0.05222 0.21951
 C36 C 0.00855 0.05379 0.17989
 N37 N 0.00967 0.05637 0.21876
 C38 C 0.01306 0.09803 0.23695
 C39 C 0.01388 0.13942 0.21603
 C40 C 0.00930 0.09442 0.15785
 C41 C -0.05657 -0.03556 0.30323
 C42 C -0.09762 -0.03803 0.32535
 C43 C -0.12052 0.03630 0.29949
 C44 C -0.07910 0.03740 0.27788
 N45 N -0.04790 0.00198 0.28037
 H46 H 0.00691 0.02038 0.16589
 H47 H 0.01452 0.09901 0.26785
 H48 H 0.01590 0.17246 0.23079
 H49 H 0.00782 0.09219 0.12697
 H50 H -0.03158 -0.06365 0.30412
 H51 H -0.10429 -0.06800 0.34348
 H52 H -0.14519 0.06460 0.29728
 H53 H -0.07231 0.06632 0.25883
 C54 C 0.00489 -0.13303 0.17657
 C55 C 0.14004 0.00446 0.32328
 C56 C -0.12984 -0.00171 0.32344
 C57 C 0.01164 0.13759 0.17615
 C58 C -0.01319 0.09691 0.76317
 H59 H -0.01454 0.09803 0.73227
 C60 C -0.01411 0.13820 0.78418
 H61 H -0.01609 0.17132 0.76947
 C62 C -0.00886 0.05239 0.82016
 H63 H -0.00726 0.01891 0.83410
 C64 C -0.00971 0.09291 0.84228
 H65 H -0.00834 0.09053 0.87316
 N66 N -0.00982 0.05515 0.78129
 C67 C 0.05673 -0.03662 0.69681
 H68 H 0.03182 -0.06470 0.69592
 C69 C 0.09774 -0.03902 0.67462
 H70 H 0.10445 -0.06894 0.65645
 C71 C 0.07907 0.03628 0.72217
 H72 H 0.07222 0.06516 0.74123
 C73 C 0.12045 0.03524 0.70049
 H74 H 0.14502 0.06355 0.70266
 Zn75 Zn -0.00745 0.00128 0.75012
 N76 N 0.04797 0.00087 0.71969
 C77 C -0.05631 0.00069 0.68016
 N78 N -0.06025 0.00256 0.71904
 C79 C -0.10243 0.00627 0.73723
 C80 C -0.14296 0.00669 0.71626
 C81 C -0.09603 0.00101 0.65808
 C82 C 0.02916 -0.06130 0.80318
 C83 C 0.03116 -0.10173 0.82534
 C84 C -0.04212 -0.12564 0.79976
 C85 C -0.04277 -0.08481 0.77810
 N86 N -0.00766 -0.05340 0.78045
 H87 H -0.02250 -0.00117 0.66617
 H88 H -0.10450 0.00837 0.76814
 H89 H -0.17643 0.00904 0.73100
 H90 H -0.09272 -0.00100 0.62717
 H91 H 0.05703 -0.03617 0.80397
 H92 H 0.06054 -0.10777 0.84339
 H93 H -0.07019 -0.15047 0.79769
 H94 H -0.07110 -0.07864 0.75916
 C95 C 0.12982 -0.00269 0.67649
 C96 C -0.01201 0.13617 0.82406
 C97 C -0.00488 -0.13412 0.82361
 C98 C -0.13972 0.00373 0.67635
 C99 C 0.00164 -0.33387 0.07936
 C100 C -0.01931 -0.29327 0.05700
 C101 C -0.01905 -0.25205 0.07628
 C102 C 0.00214 -0.25552 0.11603
 C103 C 0.05069 -0.27630 0.10882
 C104 C 0.05043 -0.31748 0.08954
 C105 C -0.02584 -0.33512 0.11757
 C106 C -0.02558 -0.29393 0.13684
 C107 C 0.00138 -0.37821 0.05867
 C108 C 0.00110 -0.41448 0.04138
 C109 C 0.00258 -0.21136 0.13703
 C110 C 0.00336 -0.17543 0.15479
 H111 H -0.03316 -0.29661 0.02854
 H112 H -0.03262 -0.22008 0.06435
 H113 H 0.08249 -0.26005 0.11801
 H114 H 0.08200 -0.33652 0.08221
 H115 H -0.04393 -0.36566 0.12852
 H116 H -0.04346 -0.28919 0.16431
 C117 C 0.00538 0.33862 0.07913
 C118 C 0.02253 0.29776 0.05419
 C119 C 0.02413 0.25649 0.07338
 C120 C 0.00843 0.26017 0.11561
 C121 C -0.04029 0.28177 0.11494
 C122 C -0.04190 0.32301 0.09576
 C123 C 0.03768 0.33930 0.11332
 C124 C 0.03928 0.29806 0.13250
 C125 C 0.00364 0.38302 0.05854
 C126 C 0.00226 0.41935 0.04135
 C127 C 0.01004 0.21596 0.13653
 C128 C 0.01101 0.18001 0.15429
 H129 H 0.03256 0.30098 0.02414
 H130 H 0.03548 0.22434 0.05977
 H131 H -0.07087 0.26602 0.12832
 H132 H -0.07384 0.34258 0.09269
 H133 H 0.05755 0.36950 0.12172
 H134 H 0.06054 0.29293 0.15733
 C135 C 0.33286 -0.00611 0.57853
 C136 C 0.31716 0.04249 0.59169
 C137 C 0.27554 0.04266 0.61110
 C138 C 0.25366 -0.00579 0.61543
 C139 C 0.29077 -0.03564 0.63445
 C140 C 0.33241 -0.03581 0.61504
 C141 C 0.29266 -0.02479 0.55503
 C142 C 0.25099 -0.02462 0.57444
 C143 C 0.37770 -0.00619 0.55773
 C144 C 0.41443 -0.00614 0.54043
 C145 C 0.20902 -0.00538 0.63658
 C146 C 0.17270 -0.00450 0.65450
 H147 H 0.33697 0.07402 0.58621
 H148 H 0.25969 0.07434 0.62225
 H149 H 0.28485 -0.05499 0.66082
 H150 H 0.36216 -0.05529 0.62480
 H151 H 0.29659 -0.03710 0.52575
 H152 H 0.21922 -0.03674 0.56180
 C153 C -0.33639 -0.00234 0.57849
 C154 C -0.34013 0.02532 0.61599
 C155 C -0.29979 0.02678 0.63538
 C156 C -0.25963 0.00044 0.61537
 C157 C -0.25565 0.02161 0.57507
 C158 C -0.29603 0.02015 0.55567
 C159 C -0.31838 -0.05052 0.58999
 C160 C -0.27803 -0.04906 0.60939
 C161 C -0.37985 -0.00386 0.55770
 C162 C -0.41543 -0.00489 0.54040
 C163 C -0.21638 0.00195 0.63650
 C164 C -0.18122 0.00294 0.65439
 H165 H -0.37170 0.04229 0.62641
 H166 H -0.29680 0.04501 0.66240
 H167 H -0.22394 0.03639 0.56284
 H168 H -0.29892 0.03372 0.52682
 H169 H -0.33576 -0.08292 0.58342
 H170 H -0.26084 -0.08022 0.61944
 C171 C -0.00196 -0.33429 0.92200
 C172 C 0.01909 -0.29362 0.94410
 C173 C 0.01888 -0.25255 0.92455
 C174 C -0.00234 -0.25622 0.88484
 C175 C -0.05093 -0.27671 0.89220
 C176 C -0.05072 -0.31775 0.91174
 C177 C 0.02550 -0.33596 0.88379
 C178 C 0.02529 -0.29493 0.86425
 C179 C -0.00176 -0.37847 0.94297
 C180 C -0.00151 -0.41464 0.96044
 C181 C -0.00272 -0.21222 0.86356
 C182 C -0.00344 -0.17641 0.84559
 H183 H 0.03295 -0.29682 0.97257
 H184 H 0.03253 -0.22055 0.93627
 H185 H -0.08271 -0.26038 0.88292
 H186 H -0.08232 -0.33657 0.91922
 H187 H 0.04352 -0.36667 0.87303
 H188 H 0.04316 -0.29048 0.83675
 C189 C -0.00593 0.33653 0.92176
 C190 C 0.04184 0.31922 0.90744
 C191 C 0.04026 0.27813 0.88809
 C192 C -0.00895 0.25836 0.88499
 C193 C -0.03718 0.29742 0.86665
 C194 C -0.03560 0.33850 0.88599
 C195 C -0.02618 0.29625 0.94577
 C196 C -0.02776 0.25513 0.92642
 C197 C -0.00421 0.38079 0.94249
 C198 C -0.00283 0.41703 0.95973
 C199 C -0.01052 0.21431 0.86390
 C200 C -0.01145 0.17848 0.84602
 H201 H 0.07408 0.33758 0.91212
 H202 H 0.07115 0.26129 0.87620
 H203 H -0.05673 0.29316 0.84076
 H204 H -0.05378 0.36945 0.87666
 H205 H -0.03822 0.29973 0.97534
 H206 H -0.04112 0.22336 0.93941
 C207 C -0.33341 -0.00564 0.42060
 C208 C -0.31849 0.04283 0.40657
 C209 C -0.27675 0.04310 0.38733
 C210 C -0.25400 -0.00512 0.38402
 C211 C -0.29046 -0.03604 0.36543
 C212 C -0.33220 -0.03632 0.38466
 C213 C -0.29305 -0.02307 0.44462
 C214 C -0.25127 -0.02279 0.42537
 C215 C -0.37835 -0.00584 0.44125
 C216 C -0.41512 -0.00589 0.45851
 C217 C -0.20923 -0.00460 0.36305
 C218 C -0.17282 -0.00362 0.34528
 H219 H -0.33889 0.07418 0.41136
 H220 H -0.26139 0.07470 0.37564
 H221 H -0.28403 -0.05600 0.33945
 H222 H -0.36155 -0.05650 0.37517
 H223 H -0.29695 -0.03465 0.47411
 H224 H -0.21937 -0.03409 0.43838
 C225 C 0.33752 -0.00204 0.42008
 C226 C 0.32053 -0.05002 0.40728
 C227 C 0.27999 -0.04848 0.38814
 C228 C 0.26040 0.00089 0.38368
 C229 C 0.29980 0.02885 0.36426
 C230 C 0.34033 0.02731 0.38339
 C231 C 0.29683 0.01866 0.44373
 C232 C 0.25626 0.02019 0.42458
 C233 C 0.38118 -0.00364 0.44060
 C234 C 0.41691 -0.00475 0.45770
 C235 C 0.21696 0.00248 0.36281
 C236 C 0.18166 0.00356 0.34509
 H237 H 0.33870 -0.08235 0.41281
 H238 H 0.26343 -0.07950 0.37726
 H239 H 0.29617 0.04819 0.33780
 H240 H 0.37142 0.04532 0.37333
 H241 H 0.29964 0.03103 0.47293
 H242 H 0.22432 0.03384 0.43738
   
