data_POSCAR
  _audit_creation_date              2014-09-24
  _audit_creation_method            'ToBaCCo'
  _symmetry_space_group_name_H-M    'P1'
  _symmetry_Int_Tables_number       1
  _symmetry_cell_setting            triclinic
  loop_
  _symmetry_equiv_pos_as_xyz
 x,y,z
_cell_length_a 67.1449
_cell_length_b 67.2074
_cell_length_c 67.8002
_cell_angle_alpha 89.963100
_cell_angle_beta 89.834100
_cell_angle_gamma 90.099200
loop_
  _atom_site_label
  _atom_site_type_symbol
  _atom_site_fract_x
  _atom_site_fract_y
  _atom_site_fract_z
N1 N 0.27254 0.23513 0.22026
 N2 N 0.26324 0.24994 0.21161
 C3 C 0.27329 0.25511 0.19516
 C4 C 0.28986 0.24298 0.19351
 C5 C 0.28891 0.23050 0.20974
 H6 H 0.26906 0.26696 0.18524
 H7 H 0.29914 0.21867 0.21339
 Cu8 Cu 0.23916 0.26118 0.22304
 Cu9 Cu 0.26227 0.22233 0.24401
 Cu10 Cu 0.21876 0.24165 0.26398
 N11 N 0.21493 0.27212 0.23444
 N12 N 0.20714 0.26452 0.25058
 C13 C 0.19082 0.27497 0.25557
 C14 C 0.18815 0.28998 0.24180
 C15 C 0.20377 0.28767 0.22859
 H16 H 0.18154 0.27180 0.26824
 H17 H 0.20696 0.29683 0.21586
 N18 N 0.23278 0.21858 0.27534
 N19 N 0.24945 0.21139 0.26788
 C20 C 0.25519 0.19561 0.27871
 C21 C 0.24147 0.19265 0.29371
 C22 C 0.22748 0.20754 0.29110
 H23 H 0.26817 0.18665 0.27562
 H24 H 0.21438 0.21015 0.30002
 H25 H 0.23271 0.22959 0.23952
 H26 H 0.24767 0.24697 0.25502
 N27 N 0.72438 -0.23485 0.21762
 N28 N 0.73618 -0.24670 0.20760
 C29 C 0.72728 -0.25169 0.19053
 C30 C 0.70870 -0.24259 0.18982
 C31 C 0.70747 -0.23206 0.20742
 H32 H 0.73379 -0.26150 0.17968
 H33 H 0.69543 -0.22262 0.21234
 Cu34 Cu 0.76181 -0.25508 0.21796
 Cu35 Cu 0.73230 -0.22296 0.24255
 Cu36 Cu 0.77458 -0.24214 0.26433
 N37 N 0.78303 -0.26855 0.23212
 N38 N 0.78787 -0.26358 0.25021
 C39 C 0.80275 -0.27538 0.25642
 C40 C 0.80758 -0.28864 0.24141
 C41 C 0.79463 -0.28374 0.22619
 H42 H 0.80938 -0.27436 0.27089
 H43 H 0.79352 -0.29066 0.21187
 N44 N 0.75899 -0.22032 0.27608
 N45 N 0.74294 -0.21289 0.26768
 C46 C 0.73623 -0.19757 0.27861
 C47 C 0.74859 -0.19528 0.29475
 C48 C 0.76283 -0.21002 0.29267
 H49 H 0.72340 -0.18860 0.27498
 H50 H 0.77548 -0.21258 0.30217
 H51 H 0.76293 -0.22682 0.24045
 H52 H 0.74797 -0.24825 0.25035
 N53 N 0.72399 0.23573 0.78095
 N54 N 0.73574 0.24736 0.79129
 C55 C 0.72633 0.25270 0.80803
 C56 C 0.70762 0.24399 0.80815
 C57 C 0.70666 0.23335 0.79069
 H58 H 0.73261 0.26230 0.81920
 H59 H 0.69449 0.22412 0.78569
 Cu60 Cu 0.76223 0.25448 0.78205
 Cu61 Cu 0.73255 0.22349 0.75635
 Cu62 Cu 0.77694 0.24038 0.73659
 N63 N 0.78467 0.26701 0.76876
 N64 N 0.79024 0.26164 0.75097
 C65 C 0.80577 0.27295 0.74526
 C66 C 0.81031 0.28624 0.76032
 C67 C 0.79648 0.28190 0.77503
 H68 H 0.81311 0.27149 0.73114
 H69 H 0.79480 0.28914 0.78916
 N70 N 0.76110 0.21898 0.72441
 N71 N 0.74392 0.21284 0.73172
 C72 C 0.73689 0.19794 0.72042
 C73 C 0.75035 0.19442 0.70533
 C74 C 0.76552 0.20807 0.70834
 H75 H 0.72334 0.18974 0.72338
 H76 H 0.77886 0.20982 0.69955
 H77 H 0.76308 0.22592 0.75994
 H78 H 0.74989 0.24793 0.74912
 N79 N 0.27048 -0.23232 0.78510
 N80 N 0.26156 -0.24771 0.79323
 C81 C 0.27138 -0.25280 0.80979
 C82 C 0.28743 -0.24003 0.81199
 C83 C 0.28639 -0.22725 0.79603
 H84 H 0.26749 -0.26517 0.81926
 H85 H 0.29639 -0.21506 0.79269
 Cu86 Cu 0.23861 -0.26004 0.78068
 Cu87 Cu 0.26079 -0.21987 0.76101
 Cu88 Cu 0.21994 -0.24185 0.73848
 N89 N 0.21556 -0.27218 0.76814
 N90 N 0.20851 -0.26514 0.75150
 C91 C 0.19291 -0.27631 0.74580
 C92 C 0.18986 -0.29128 0.75966
 C93 C 0.20464 -0.28807 0.77366
 H94 H 0.18448 -0.27358 0.73252
 H95 H 0.20743 -0.29667 0.78681
 N96 N 0.23355 -0.21812 0.72774
 N97 N 0.24878 -0.20950 0.73658
 C98 C 0.25413 -0.19322 0.72624
 C99 C 0.24178 -0.19156 0.71004
 C100 C 0.22896 -0.20765 0.71141
 H101 H 0.26620 -0.18332 0.73012
 H102 H 0.21687 -0.21113 0.70150
 H103 H 0.23143 -0.22895 0.76363
 H104 H 0.24843 -0.24537 0.74919
 N105 N 0.72764 -0.23682 0.77974
 N106 N 0.73517 -0.25367 0.78612
 C107 C 0.72448 -0.26000 0.80176
 C108 C 0.70935 -0.24647 0.80527
 C109 C 0.71184 -0.23196 0.79097
 H110 H 0.72728 -0.27359 0.80982
 H111 H 0.70293 -0.21872 0.78899
 Cu112 Cu 0.75798 -0.26589 0.77318
 Cu113 Cu 0.73887 -0.22241 0.75740
 Cu114 Cu 0.78022 -0.24315 0.73475
 N115 N 0.78156 -0.27695 0.76057
 N116 N 0.79039 -0.26781 0.74583
 C117 C 0.80647 -0.27831 0.74023
 C118 C 0.80784 -0.29516 0.75203
 C119 C 0.79165 -0.29372 0.76477
 H120 H 0.81623 -0.27401 0.72826
 H121 H 0.78759 -0.30389 0.77645
 N122 N 0.76779 -0.21828 0.72567
 N123 N 0.75233 -0.21011 0.73457
 C124 C 0.74753 -0.19316 0.72509
 C125 C 0.76046 -0.19067 0.70937
 C126 C 0.77307 -0.20688 0.71017
 H127 H 0.73524 -0.18357 0.72902
 H128 H 0.78530 -0.21003 0.70025
 H129 H 0.75085 -0.24689 0.74334
 H130 H 0.76747 -0.23317 0.76074
 N131 N 0.27912 0.23857 0.77950
 N132 N 0.27011 0.25454 0.78623
 C133 C 0.27958 0.26087 0.80256
 C134 C 0.29546 0.24827 0.80618
 C135 C 0.29469 0.23430 0.79120
 H136 H 0.27537 0.27379 0.81108
 H137 H 0.30455 0.22177 0.78911
 Cu138 Cu 0.24696 0.26560 0.77299
 Cu139 Cu 0.26992 0.22436 0.75623
 Cu140 Cu 0.22777 0.24265 0.73320
 N141 N 0.22302 0.27530 0.76006
 N142 N 0.21534 0.26599 0.74483
 C143 C 0.19875 0.27554 0.73905
 C144 C 0.19592 0.29181 0.75123
 C145 C 0.21163 0.29120 0.76439
 H146 H 0.18962 0.27119 0.72665
 H147 H 0.21440 0.30145 0.77636
 N148 N 0.24244 0.21922 0.72360
 N149 N 0.25835 0.21207 0.73249
 C150 C 0.26496 0.19612 0.72239
 C151 C 0.25271 0.19320 0.70626
 C152 C 0.23861 0.20813 0.70752
 H153 H 0.27800 0.18755 0.72618
 H154 H 0.22641 0.21067 0.69747
 H155 H 0.25647 0.24838 0.74272
 H156 H 0.24047 0.23274 0.75919
 N157 N 0.27832 -0.23767 0.21981
 N158 N 0.26935 -0.25340 0.21248
 C159 C 0.27917 -0.25935 0.19617
 C160 C 0.29524 -0.24675 0.19318
 C161 C 0.29421 -0.23317 0.20851
 H162 H 0.27512 -0.27207 0.18729
 H163 H 0.30416 -0.22079 0.21114
 Cu164 Cu 0.24592 -0.26477 0.22518
 Cu165 Cu 0.26867 -0.22410 0.24334
 Cu166 Cu 0.22631 -0.24344 0.26562
 N167 N 0.22201 -0.27526 0.23771
 N168 N 0.21426 -0.26667 0.25335
 C169 C 0.19788 -0.27678 0.25898
 C170 C 0.19524 -0.29266 0.24627
 C171 C 0.21086 -0.29123 0.23295
 H172 H 0.18881 -0.27308 0.27166
 H173 H 0.21380 -0.30101 0.22064
 N174 N 0.24062 -0.22003 0.27584
 N175 N 0.25661 -0.21250 0.26726
 C176 C 0.26282 -0.19661 0.27769
 C177 C 0.25022 -0.19410 0.29368
 C178 C 0.23634 -0.20924 0.29202
 H179 H 0.27578 -0.18772 0.27415
 H180 H 0.22392 -0.21208 0.30181
 H181 H 0.25511 -0.24858 0.25605
 H182 H 0.23925 -0.23246 0.24010
 N183 N 0.72440 0.23644 0.21879
 N184 N 0.73251 0.25301 0.21229
 C185 C 0.72263 0.25910 0.19611
 C186 C 0.70741 0.24570 0.19237
 C187 C 0.70900 0.23152 0.20710
 H188 H 0.72603 0.27245 0.18785
 H189 H 0.69975 0.21848 0.20908
 Cu190 Cu 0.75498 0.26522 0.22576
 Cu191 Cu 0.73431 0.22247 0.24193
 Cu192 Cu 0.77492 0.24326 0.26568
 N193 N 0.77819 0.27627 0.23896
 N194 N 0.78608 0.26743 0.25436
 C195 C 0.80216 0.27776 0.26027
 C196 C 0.80445 0.29406 0.24800
 C197 C 0.78894 0.29267 0.23466
 H198 H 0.81138 0.27381 0.27271
 H199 H 0.78594 0.30265 0.22252
 N200 N 0.76162 0.21886 0.27491
 N201 N 0.74647 0.21062 0.26560
 C202 C 0.74106 0.19391 0.27525
 C203 C 0.75326 0.19168 0.29150
 C204 C 0.76608 0.20777 0.29082
 H205 H 0.72890 0.18427 0.27101
 H206 H 0.77797 0.21099 0.30107
 H207 H 0.74607 0.24718 0.25577
 H208 H 0.76324 0.23274 0.23947
 C209 C 0.25036 -0.01071 0.50072
 C210 C 0.25080 0.00951 0.50001
 C211 C 0.25004 0.02054 0.48106
 C212 C 0.25192 0.02190 0.51806
 C213 C 0.25015 -0.02196 0.51963
 C214 C 0.25023 -0.02285 0.48245
 C215 C 0.26515 0.03423 0.47648
 C216 C 0.26402 0.04581 0.45944
 C217 C 0.24763 0.04408 0.44670
 C218 C 0.23257 0.03021 0.45121
 C219 C 0.23376 0.01854 0.46826
 C220 C 0.26819 0.02061 0.53094
 C221 C 0.26963 0.03350 0.54709
 C222 C 0.25481 0.04789 0.55059
 C223 C 0.23835 0.04875 0.53784
 C224 C 0.23701 0.03600 0.52168
 C225 C 0.23600 -0.01805 0.53443
 C226 C 0.23546 -0.02957 0.55162
 C227 C 0.24881 -0.04550 0.55421
 C228 C 0.26287 -0.04938 0.53929
 C229 C 0.26355 -0.03773 0.52227
 C230 C 0.23452 -0.03617 0.47912
 C231 C 0.23486 -0.04882 0.46281
 C232 C 0.25109 -0.04864 0.44965
 C233 C 0.26669 -0.03500 0.45286
 C234 C 0.26626 -0.02222 0.46914
 H235 H 0.27773 0.03610 0.48628
 H236 H 0.27569 0.05657 0.45653
 H237 H 0.21983 0.02849 0.44160
 H238 H 0.22180 0.00827 0.47170
 H239 H 0.27998 0.00998 0.52820
 H240 H 0.28261 0.03260 0.55648
 H241 H 0.22433 0.03717 0.51191
 H242 H 0.22516 -0.00630 0.53254
 H243 H 0.22453 -0.02604 0.56284
 H244 H 0.27306 -0.06177 0.54049
 H245 H 0.27445 -0.04118 0.51097
 H246 H 0.22205 -0.03685 0.48927
 H247 H 0.22242 -0.05883 0.46058
 H248 H 0.27954 -0.03466 0.44319
 H249 H 0.27867 -0.01224 0.47168
 H250 H 0.22647 0.05934 0.54032
 C251 C 0.74815 0.00977 0.49968
 C252 C 0.74878 -0.01049 0.50025
 C253 C 0.75003 -0.02185 0.51905
 C254 C 0.74816 -0.02262 0.48196
 C255 C 0.74802 0.02097 0.48072
 C256 C 0.74777 0.02204 0.51793
 C257 C 0.76481 -0.01778 0.53313
 C258 C 0.76595 -0.02904 0.55046
 C259 C 0.75263 -0.04489 0.55385
 C260 C 0.73810 -0.04908 0.53954
 C261 C 0.73679 -0.03766 0.52241
 C262 C 0.76388 -0.03567 0.47778
 C263 C 0.76330 -0.04772 0.46104
 C264 C 0.74684 -0.04718 0.44832
 C265 C 0.73103 -0.03414 0.45256
 C266 C 0.73172 -0.02190 0.46924
 C267 C 0.73380 0.03594 0.47778
 C268 C 0.73412 0.04752 0.46069
 C269 C 0.74861 0.04431 0.44601
 C270 C 0.76276 0.02915 0.44890
 C271 C 0.76261 0.01778 0.46618
 C272 C 0.73315 0.01924 0.53254
 C273 C 0.73279 0.03141 0.54929
 C274 C 0.74689 0.04675 0.55161
 C275 C 0.76134 0.04959 0.53682
 C276 C 0.76177 0.03738 0.52020
 H277 H 0.77553 -0.00599 0.53066
 H278 H 0.77726 -0.02530 0.56119
 H279 H 0.72792 -0.06146 0.54133
 H280 H 0.72544 -0.04126 0.51165
 H281 H 0.77660 -0.03652 0.48753
 H282 H 0.77554 -0.05783 0.45828
 H283 H 0.71934 -0.01208 0.47239
 H284 H 0.72255 0.03885 0.48890
 H285 H 0.72328 0.05933 0.45925
 H286 H 0.77402 0.02611 0.43787
 H287 H 0.77407 0.00668 0.46832
 H288 H 0.72197 0.00773 0.53092
 H289 H 0.72154 0.02875 0.56046
 H290 H 0.77214 0.06152 0.53789
 H291 H 0.77303 0.03994 0.50901
 H292 H 0.71820 -0.03340 0.44295
 C293 C 0.49927 0.25176 -0.00865
 C294 C 0.49939 0.25139 0.01142
 C295 C 0.48075 0.25080 0.02334
 C296 C 0.51828 0.25149 0.02269
 C297 C 0.51793 0.25151 -0.02051
 C298 C 0.48045 0.25222 -0.02000
 C299 C 0.47827 0.26435 0.03888
 C300 C 0.46139 0.26354 0.05090
 C301 C 0.44649 0.24918 0.04763
 C302 C 0.44900 0.23560 0.03202
 C303 C 0.46606 0.23627 0.02014
 C304 C 0.53150 0.26766 0.02162
 C305 C 0.54883 0.26782 0.03303
 C306 C 0.55324 0.25172 0.04553
 C307 C 0.54003 0.23552 0.04641
 C308 C 0.52263 0.23549 0.03522
 C309 C 0.53220 0.23646 -0.01811
 C310 C 0.54922 0.23603 -0.03005
 C311 C 0.55213 0.25044 -0.04485
 C312 C 0.53772 0.26542 -0.04724
 C313 C 0.52084 0.26593 -0.03520
 C314 C 0.47621 0.23667 -0.03311
 C315 C 0.45893 0.23705 -0.04446
 C316 C 0.44572 0.25318 -0.04316
 C317 C 0.45001 0.26884 -0.03009
 C318 C 0.46723 0.26831 -0.01851
 H319 H 0.48952 0.27553 0.04180
 H320 H 0.46026 0.27392 0.06305
 H321 H 0.43779 0.22444 0.02895
 H322 H 0.46788 0.22528 0.00861
 H323 H 0.52824 0.28023 0.01216
 H324 H 0.55881 0.28046 0.03208
 H325 H 0.51251 0.22297 0.03631
 H326 H 0.53004 0.22488 -0.00720
 H327 H 0.56007 0.22438 -0.02770
 H328 H 0.53923 0.27649 -0.05875
 H329 H 0.50991 0.27754 -0.03747
 H330 H 0.48634 0.22421 -0.03453
 H331 H 0.45612 0.22495 -0.05462
 H332 H 0.44004 0.28142 -0.02883
 H333 H 0.47041 0.28054 -0.00861
 H334 H 0.54294 0.22307 0.05613
 C335 C 0.50134 0.74818 0.00821
 C336 C 0.50057 0.74868 -0.01185
 C337 C 0.51886 0.74872 -0.02416
 C338 C 0.48141 0.74938 -0.02282
 C339 C 0.48295 0.74784 0.02038
 C340 C 0.52046 0.74818 0.01927
 C341 C 0.52240 0.76475 -0.03691
 C342 C 0.53884 0.76468 -0.04951
 C343 C 0.55193 0.74836 -0.04991
 C344 C 0.54847 0.73237 -0.03689
 C345 C 0.53206 0.73256 -0.02410
 C346 C 0.46704 0.76403 -0.01893
 C347 C 0.44951 0.76486 -0.03002
 C348 C 0.44621 0.75134 -0.04554
 C349 C 0.46078 0.73685 -0.04947
 C350 C 0.47811 0.73585 -0.03821
 C351 C 0.46939 0.73196 0.01927
 C352 C 0.45245 0.73171 0.03135
 C353 C 0.44879 0.74739 0.04458
 C354 C 0.46240 0.76324 0.04559
 C355 C 0.47940 0.76338 0.03372
 C356 C 0.52325 0.73430 0.03447
 C357 C 0.54039 0.73478 0.04602
 C358 C 0.55534 0.74907 0.04257
 C359 C 0.55262 0.76287 0.02716
 C360 C 0.53524 0.76259 0.01582
 H361 H 0.51236 0.77735 -0.03711
 H362 H 0.54128 0.77744 -0.05897
 H363 H 0.55811 0.71947 -0.03698
 H364 H 0.52939 0.71995 -0.01450
 H365 H 0.46947 0.77499 -0.00749
 H366 H 0.43859 0.77612 -0.02642
 H367 H 0.48909 0.72458 -0.04165
 H368 H 0.47204 0.71973 0.00921
 H369 H 0.44214 0.71934 0.03029
 H370 H 0.46009 0.77536 0.05586
 H371 H 0.48981 0.77565 0.03486
 H372 H 0.51195 0.72320 0.03759
 H373 H 0.54163 0.72424 0.05803
 H374 H 0.56384 0.77398 0.02391
 H375 H 0.53322 0.77385 0.00458
 H376 H 0.45906 0.72650 -0.06157
 C377 C 0.00846 0.50112 0.24871
 C378 C -0.01173 0.50143 0.24960
 C379 C -0.02347 0.48277 0.25014
 C380 C -0.02335 0.52019 0.24979
 C381 C 0.02056 0.51955 0.24841
 C382 C 0.01971 0.48217 0.24797
 C383 C -0.03606 0.47813 0.23435
 C384 C -0.04790 0.46106 0.23496
 C385 C -0.04762 0.44855 0.25155
 C386 C -0.03497 0.45321 0.26738
 C387 C -0.02289 0.47017 0.26664
 C388 C -0.02150 0.53427 0.23458
 C389 C -0.03396 0.55095 0.23412
 C390 C -0.04860 0.55369 0.24875
 C391 C -0.05006 0.53978 0.26417
 C392 C -0.03762 0.52319 0.26463
 C393 C 0.02033 0.53289 0.26432
 C394 C 0.03329 0.54922 0.26452
 C395 C 0.04667 0.55246 0.24880
 C396 C 0.04634 0.53933 0.23266
 C397 C 0.03354 0.52298 0.23255
 C398 C 0.03341 0.47779 0.26291
 C399 C 0.04495 0.46057 0.26193
 C400 C 0.04316 0.44749 0.24587
 C401 C 0.02933 0.45186 0.23094
 C402 C 0.01769 0.46907 0.23199
 H403 H -0.03675 0.48780 0.22159
 H404 H -0.05769 0.45790 0.22268
 H405 H -0.03449 0.44375 0.28031
 H406 H -0.01337 0.47370 0.27902
 H407 H -0.01087 0.53204 0.22275
 H408 H -0.03263 0.56130 0.22194
 H409 H -0.03929 0.51250 0.27649
 H410 H 0.01057 0.53029 0.27681
 H411 H 0.03332 0.55890 0.27728
 H412 H 0.05612 0.54160 0.22013
 H413 H 0.03387 0.51284 0.22014
 H414 H 0.03527 0.48784 0.27525
 H415 H 0.05569 0.45774 0.27349
 H416 H 0.02757 0.44198 0.21845
 H417 H 0.00738 0.47238 0.22019
 H418 H -0.06097 0.54164 0.27581
 C419 C -0.00958 0.49660 0.75204
 C420 C 0.01061 0.49678 0.75114
 C421 C 0.02222 0.47808 0.75039
 C422 C 0.02230 0.51553 0.75101
 C423 C -0.02139 0.51516 0.75218
 C424 C -0.02108 0.47776 0.75290
 C425 C 0.03528 0.47351 0.76582
 C426 C 0.04698 0.45639 0.76498
 C427 C 0.04609 0.44376 0.74851
 C428 C 0.03296 0.44835 0.73305
 C429 C 0.02102 0.46536 0.73404
 C430 C 0.02092 0.52920 0.76660
 C431 C 0.03333 0.54595 0.76704
 C432 C 0.04742 0.54922 0.75197
 C433 C 0.04843 0.53568 0.73621
 C434 C 0.03607 0.51897 0.73580
 C435 C -0.02174 0.52777 0.73571
 C436 C -0.03448 0.54423 0.73537
 C437 C -0.04699 0.54837 0.75157
 C438 C -0.04600 0.53598 0.76828
 C439 C -0.03350 0.51944 0.76848
 C440 C -0.03504 0.47356 0.73814
 C441 C -0.04673 0.45640 0.73920
 C442 C -0.04486 0.44323 0.75520
 C443 C -0.03080 0.44744 0.76997
 C444 C -0.01898 0.46457 0.76881
 H445 H 0.03644 0.48327 0.77848
 H446 H 0.05716 0.45331 0.77696
 H447 H 0.03199 0.43880 0.72023
 H448 H 0.01112 0.46881 0.72193
 H449 H 0.01068 0.52659 0.77870
 H450 H 0.03238 0.55595 0.77952
 H451 H 0.03737 0.50857 0.72366
 H452 H -0.01264 0.52450 0.72291
 H453 H -0.03502 0.55327 0.72217
 H454 H -0.05503 0.53896 0.78120
 H455 H -0.03334 0.50984 0.78133
 H456 H -0.03696 0.48367 0.72584
 H457 H -0.05763 0.45369 0.72776
 H458 H -0.02899 0.43750 0.78240
 H459 H -0.00847 0.46773 0.78048
 H460 H 0.05888 0.53793 0.72422
 C461 C 0.33444 0.24356 0.14769
 C462 C 0.33895 0.23641 0.16667
 C463 C 0.32444 0.23609 0.18148
 C464 C 0.30516 0.24319 0.17777
 C465 C 0.30063 0.25047 0.15890
 C466 C 0.31506 0.25052 0.14399
 C467 C 0.34994 0.24390 0.13192
 C468 C 0.35059 0.25944 0.11802
 C469 C 0.36536 0.25995 0.10346
 C470 C 0.38006 0.24509 0.10257
 C471 C 0.37932 0.22947 0.11638
 C472 C 0.36439 0.22882 0.13076
 C473 C 0.39640 0.24614 0.08769
 C474 C 0.40438 0.22871 0.07935
 C475 C 0.42041 0.22969 0.06618
 C476 C 0.42875 0.24814 0.06083
 C477 C 0.42040 0.26558 0.06874
 C478 C 0.40455 0.26459 0.08209
 H479 H 0.35381 0.23135 0.17023
 H480 H 0.32845 0.23062 0.19596
 H481 H 0.28583 0.25580 0.15552
 H482 H 0.31090 0.25579 0.12949
 H483 H 0.33988 0.27145 0.11856
 H484 H 0.36524 0.27203 0.09290
 H485 H 0.39051 0.21790 0.11635
 H486 H 0.36419 0.21643 0.14097
 H487 H 0.39828 0.21426 0.08303
 H488 H 0.42656 0.21592 0.06058
 H489 H 0.42618 0.28007 0.06470
 H490 H 0.39900 0.27832 0.08835
 C491 C 0.66568 0.75497 0.14394
 C492 C 0.66105 0.76359 0.16228
 C493 C 0.67521 0.76447 0.17730
 C494 C 0.69439 0.75641 0.17464
 C495 C 0.69888 0.74743 0.15637
 C496 C 0.68480 0.74691 0.14121
 C497 C 0.65059 0.75440 0.12783
 C498 C 0.64978 0.73831 0.11458
 C499 C 0.63544 0.73771 0.09968
 C500 C 0.62127 0.75300 0.09781
 C501 C 0.62215 0.76911 0.11102
 C502 C 0.63670 0.76989 0.12568
 C503 C 0.60529 0.75191 0.08262
 C504 C 0.59776 0.76930 0.07381
 C505 C 0.58184 0.76837 0.06060
 C506 C 0.57321 0.74999 0.05556
 C507 C 0.58125 0.73254 0.06376
 C508 C 0.59691 0.73350 0.07725
 H509 H 0.64635 0.76948 0.16519
 H510 H 0.67079 0.77120 0.19111
 H511 H 0.71340 0.74118 0.15343
 H512 H 0.68908 0.74046 0.12720
 H513 H 0.66000 0.72595 0.11590
 H514 H 0.63549 0.72522 0.08962
 H515 H 0.61136 0.78102 0.11032
 H516 H 0.63702 0.78270 0.13533
 H517 H 0.60406 0.78372 0.07722
 H518 H 0.57599 0.78216 0.05478
 H519 H 0.57532 0.71807 0.05992
 H520 H 0.60207 0.71978 0.08384
 C521 C 0.66287 0.24627 -0.14622
 C522 C 0.68291 0.25047 -0.14189
 C523 C 0.69740 0.25001 -0.15674
 C524 C 0.69221 0.24514 -0.17621
 C525 C 0.67218 0.24106 -0.18057
 C526 C 0.65767 0.24171 -0.16578
 C527 C 0.64743 0.24651 -0.13042
 C528 C 0.63175 0.23262 -0.13053
 C529 C 0.61701 0.23305 -0.11595
 C530 C 0.61766 0.24726 -0.10075
 C531 C 0.63350 0.26099 -0.10048
 C532 C 0.64816 0.26066 -0.11516
 C533 C 0.60162 0.24802 -0.08558
 C534 C 0.59461 0.26638 -0.07848
 C535 C 0.57892 0.26714 -0.06493
 C536 C 0.56971 0.24957 -0.05824
 C537 C 0.57697 0.23119 -0.06503
 C538 C 0.59277 0.23043 -0.07847
 H539 H 0.68750 0.25374 -0.12695
 H540 H 0.71273 0.25302 -0.15286
 H541 H 0.66764 0.23756 -0.19548
 H542 H 0.64233 0.23883 -0.16974
 H543 H 0.63087 0.22132 -0.14186
 H544 H 0.60491 0.22243 -0.11681
 H545 H 0.63462 0.27198 -0.08887
 H546 H 0.65989 0.27172 -0.11472
 H547 H 0.60091 0.28024 -0.08377
 H548 H 0.57393 0.28154 -0.05977
 H549 H 0.57012 0.21737 -0.06037
 H550 H 0.59800 0.21602 -0.08336
 C551 C 0.33211 0.75894 -0.14253
 C552 C 0.31279 0.75162 -0.13884
 C553 C 0.29832 0.75185 -0.15363
 C554 C 0.30272 0.75968 -0.17234
 C555 C 0.32191 0.76713 -0.17604
 C556 C 0.33647 0.76662 -0.16137
 C557 C 0.34773 0.75837 -0.12696
 C558 C 0.36220 0.77347 -0.12573
 C559 C 0.37735 0.77254 -0.11168
 C560 C 0.37831 0.75662 -0.09824
 C561 C 0.36354 0.74177 -0.09913
 C562 C 0.34855 0.74256 -0.11338
 C563 C 0.39496 0.75524 -0.08381
 C564 C 0.40307 0.73666 -0.07870
 C565 C 0.41927 0.73538 -0.06589
 C566 C 0.42804 0.75267 -0.05804
 C567 C 0.41972 0.77123 -0.06286
 C568 C 0.40332 0.77248 -0.07546
 H569 H 0.30874 0.74592 -0.12444
 H570 H 0.28357 0.74621 -0.15030
 H571 H 0.32584 0.77301 -0.19041
 H572 H 0.35127 0.77193 -0.16496
 H573 H 0.36189 0.78608 -0.13567
 H574 H 0.38857 0.78413 -0.11168
 H575 H 0.36355 0.72946 -0.08883
 H576 H 0.33784 0.73052 -0.11397
 H577 H 0.39723 0.72304 -0.08497
 H578 H 0.42501 0.72080 -0.06224
 H579 H 0.42616 0.78489 -0.05730
 H580 H 0.39728 0.78703 -0.07872
 C581 C 0.14239 0.33494 0.24094
 C582 C 0.14584 0.32364 0.25803
 C583 C 0.16059 0.30899 0.25828
 C584 C 0.17230 0.30534 0.24145
 C585 C 0.16880 0.31659 0.22433
 C586 C 0.15400 0.33120 0.22407
 C587 C 0.12693 0.35076 0.24081
 C588 C 0.13049 0.36896 0.23119
 C589 C 0.11616 0.38401 0.23144
 C590 C 0.09798 0.38125 0.24139
 C591 C 0.09434 0.36302 0.25089
 C592 C 0.10864 0.34792 0.25057
 C593 C 0.08311 0.39755 0.24224
 C594 C 0.07326 0.40200 0.26001
 C595 C 0.06003 0.41800 0.26111
 C596 C 0.05625 0.42979 0.24442
 C597 C 0.06575 0.42507 0.22654
 C598 C 0.07909 0.40916 0.22548
 H599 H 0.13739 0.32639 0.27138
 H600 H 0.16299 0.30081 0.27180
 H601 H 0.17733 0.31404 0.21102
 H602 H 0.15152 0.33942 0.21057
 H603 H 0.14455 0.37175 0.22383
 H604 H 0.11952 0.39802 0.22427
 H605 H 0.08036 0.36037 0.25845
 H606 H 0.10531 0.33396 0.25785
 H607 H 0.07618 0.39343 0.27321
 H608 H 0.05280 0.42121 0.27504
 H609 H 0.06327 0.43403 0.21350
 H610 H 0.08631 0.40595 0.21154
 C611 C 0.14622 0.66279 0.75887
 C612 C 0.14724 0.67682 0.74355
 C613 C 0.16151 0.69199 0.74384
 C614 C 0.17525 0.69356 0.75947
 C615 C 0.17405 0.67946 0.77486
 C616 C 0.15975 0.66434 0.77454
 C617 C 0.13136 0.64637 0.75832
 C618 C 0.13668 0.62706 0.76424
 C619 C 0.12286 0.61152 0.76345
 C620 C 0.10338 0.61490 0.75669
 C621 C 0.09799 0.63425 0.75094
 C622 C 0.11183 0.64980 0.75173
 C623 C 0.08889 0.59821 0.75536
 C624 C 0.06883 0.60087 0.76074
 C625 C 0.05532 0.58503 0.75961
 C626 C 0.06158 0.56621 0.75301
 C627 C 0.08163 0.56361 0.74760
 C628 C 0.09510 0.57941 0.74873
 H629 H 0.13718 0.67588 0.73113
 H630 H 0.16169 0.70232 0.73161
 H631 H 0.18404 0.67996 0.78732
 H632 H 0.15917 0.65392 0.78673
 H633 H 0.15165 0.62386 0.76919
 H634 H 0.12742 0.59684 0.76820
 H635 H 0.08316 0.63730 0.74550
 H636 H 0.10720 0.66456 0.74728
 H637 H 0.06362 0.61513 0.76607
 H638 H 0.03994 0.58754 0.76375
 H639 H 0.08700 0.54925 0.74271
 H640 H 0.11039 0.57693 0.74424
 C641 C -0.14862 0.66574 0.24225
 C642 C -0.15122 0.67831 0.25857
 C643 C -0.16561 0.69331 0.25831
 C644 C -0.17780 0.69625 0.24165
 C645 C -0.17501 0.68361 0.22527
 C646 C -0.16066 0.66857 0.22560
 C647 C -0.13356 0.64957 0.24268
 C648 C -0.13812 0.63066 0.23509
 C649 C -0.12411 0.61533 0.23577
 C650 C -0.10520 0.61856 0.24403
 C651 C -0.10055 0.63753 0.25144
 C652 C -0.11461 0.65285 0.25083
 C653 C -0.09057 0.60205 0.24524
 C654 C -0.07029 0.60530 0.24105
 C655 C -0.05662 0.58964 0.24213
 C656 C -0.06293 0.57045 0.24756
 C657 C -0.08320 0.56725 0.25177
 C658 C -0.09684 0.58285 0.25063
 H659 H -0.14233 0.67633 0.27173
 H660 H -0.16705 0.70248 0.27132
 H661 H -0.18386 0.68513 0.21207
 H662 H -0.15884 0.65925 0.21269
 H663 H -0.15267 0.62760 0.22893
 H664 H -0.12804 0.60095 0.22973
 H665 H -0.08617 0.64042 0.25804
 H666 H -0.11061 0.66731 0.25664
 H667 H -0.06505 0.61991 0.23671
 H668 H -0.04108 0.59257 0.23893
 H669 H -0.08857 0.55257 0.25573
 H670 H -0.11230 0.57991 0.25418
 C671 C -0.14458 0.33076 0.76082
 C672 C -0.15652 0.32741 0.77753
 C673 C -0.17135 0.31278 0.77740
 C674 C -0.17462 0.30095 0.76053
 C675 C -0.16245 0.30428 0.74386
 C676 C -0.14772 0.31899 0.74399
 C677 C -0.12907 0.34661 0.76082
 C678 C -0.11074 0.34371 0.75115
 C679 C -0.09641 0.35882 0.75071
 C680 C -0.10002 0.37712 0.76004
 C681 C -0.11821 0.37995 0.76992
 C682 C -0.13259 0.36490 0.77026
 C683 C -0.08509 0.39340 0.75908
 C684 C -0.08084 0.40493 0.77584
 C685 C -0.06740 0.42080 0.77469
 C686 C -0.05807 0.42558 0.75672
 C687 C -0.06210 0.41387 0.74004
 C688 C -0.07541 0.39790 0.74122
 H689 H -0.15429 0.33598 0.79086
 H690 H -0.18006 0.31081 0.79068
 H691 H -0.16431 0.29578 0.73046
 H692 H -0.13901 0.32139 0.73074
 H693 H -0.10739 0.32969 0.74403
 H694 H -0.08241 0.35614 0.74319
 H695 H -0.12152 0.39402 0.77699
 H696 H -0.14667 0.36778 0.77754
 H697 H -0.08795 0.40168 0.78983
 H698 H -0.06471 0.42968 0.78775
 H699 H -0.05500 0.41713 0.72604
 H700 H -0.07852 0.38938 0.72803
 C701 C 0.24153 0.14622 0.33768
 C702 C 0.25883 0.15055 0.32677
 C703 C 0.25882 0.16560 0.31254
 C704 C 0.24150 0.17673 0.30890
 C705 C 0.22421 0.17242 0.31984
 C706 C 0.22421 0.15733 0.33404
 C707 C 0.24160 0.13029 0.35291
 C708 C 0.23153 0.13295 0.37092
 C709 C 0.23191 0.11815 0.38539
 C710 C 0.24241 0.10036 0.38223
 C711 C 0.25235 0.09761 0.36417
 C712 C 0.25193 0.11240 0.34966
 C713 C 0.24342 0.08500 0.39795
 C714 C 0.26149 0.07535 0.40212
 C715 C 0.26274 0.06173 0.41764
 C716 C 0.24595 0.05738 0.42930
 C717 C 0.22776 0.06662 0.42481
 C718 C 0.22652 0.08032 0.40933
 H719 H 0.27252 0.14250 0.32946
 H720 H 0.27248 0.16864 0.30460
 H721 H 0.21053 0.18049 0.31730
 H722 H 0.21055 0.15418 0.34198
 H723 H 0.22371 0.14668 0.37401
 H724 H 0.22439 0.12084 0.39928
 H725 H 0.26034 0.08395 0.36120
 H726 H 0.25957 0.10975 0.33583
 H727 H 0.27481 0.07876 0.39372
 H728 H 0.27691 0.05469 0.42064
 H729 H 0.21461 0.06371 0.43364
 H730 H 0.21234 0.08734 0.40633
 C731 C 0.74731 0.14834 0.66131
 C732 C 0.72992 0.15514 0.67065
 C733 C 0.73089 0.17011 0.68494
 C734 C 0.74926 0.17875 0.69000
 C735 C 0.76662 0.17208 0.68048
 C736 C 0.76567 0.15697 0.66636
 C737 C 0.74638 0.13233 0.64630
 C738 C 0.76028 0.11674 0.64651
 C739 C 0.75979 0.10194 0.63205
 C740 C 0.74551 0.10249 0.61692
 C741 C 0.73143 0.11798 0.61690
 C742 C 0.73182 0.13269 0.63147
 C743 C 0.74573 0.08739 0.60088
 C744 C 0.72787 0.08025 0.59268
 C745 C 0.72821 0.06679 0.57694
 C746 C 0.74640 0.06010 0.56909
 C747 C 0.76423 0.06687 0.57762
 C748 C 0.76390 0.08038 0.59325
 H749 H 0.71558 0.14866 0.66711
 H750 H 0.71723 0.17500 0.69189
 H751 H 0.78103 0.17830 0.68412
 H752 H 0.77929 0.15215 0.65924
 H753 H 0.77146 0.11593 0.65796
 H754 H 0.77059 0.09002 0.63276
 H755 H 0.72043 0.11906 0.60531
 H756 H 0.72106 0.14466 0.63085
 H757 H 0.71361 0.08511 0.59837
 H758 H 0.71420 0.06202 0.57062
 H759 H 0.77850 0.06179 0.57214
 H760 H 0.77794 0.08571 0.59902
 C761 C 0.24253 -0.14564 0.66566
 C762 C 0.23502 -0.16471 0.66137
 C763 C 0.23462 -0.17956 0.67581
 C764 C 0.24200 -0.17578 0.69480
 C765 C 0.24961 -0.15681 0.69911
 C766 C 0.24973 -0.14187 0.68476
 C767 C 0.24303 -0.12983 0.65024
 C768 C 0.25881 -0.11606 0.64942
 C769 C 0.25944 -0.10143 0.63476
 C770 C 0.24444 -0.10034 0.62036
 C771 C 0.22860 -0.11404 0.62125
 C772 C 0.22784 -0.12850 0.63606
 C773 C 0.24559 -0.08538 0.60416
 C774 C 0.22822 -0.07670 0.59644
 C775 C 0.22927 -0.06353 0.58049
 C776 C 0.24773 -0.05851 0.57198
 C777 C 0.26514 -0.06670 0.58011
 C778 C 0.26408 -0.08005 0.59588
 H779 H 0.22973 -0.16832 0.64673
 H780 H 0.22889 -0.19411 0.67199
 H781 H 0.25516 -0.15337 0.71369
 H782 H 0.25526 -0.12728 0.68876
 H783 H 0.27091 -0.11674 0.65991
 H784 H 0.27171 -0.09097 0.63476
 H785 H 0.21693 -0.11388 0.61028
 H786 H 0.21528 -0.13861 0.63640
 H787 H 0.21376 -0.08016 0.60265
 H788 H 0.21553 -0.05771 0.57452
 H789 H 0.27965 -0.06292 0.57420
 H790 H 0.27776 -0.08656 0.60125
 C791 C 0.74625 -0.15002 0.33971
 C792 C 0.75649 -0.16795 0.34299
 C793 C 0.75717 -0.18265 0.32844
 C794 C 0.74749 -0.17985 0.31032
 C795 C 0.73701 -0.16206 0.30711
 C796 C 0.73646 -0.14729 0.32161
 C797 C 0.74599 -0.13418 0.35502
 C798 C 0.72882 -0.12268 0.35831
 C799 C 0.72866 -0.10781 0.37273
 C800 C 0.74565 -0.10414 0.38426
 C801 C 0.76281 -0.11564 0.38094
 C802 C 0.76300 -0.13041 0.36647
 C803 C 0.74548 -0.08862 0.39991
 C804 C 0.76256 -0.07706 0.40357
 C805 C 0.76285 -0.06333 0.41902
 C806 C 0.74601 -0.06069 0.43107
 C807 C 0.72873 -0.07176 0.42708
 C808 C 0.72848 -0.08563 0.41171
 H809 H 0.76387 -0.17072 0.35690
 H810 H 0.76512 -0.19629 0.33152
 H811 H 0.72957 -0.15931 0.29324
 H812 H 0.72870 -0.13354 0.31847
 H813 H 0.71540 -0.12533 0.34990
 H814 H 0.71526 -0.09911 0.37475
 H815 H 0.77607 -0.11344 0.38973
 H816 H 0.77657 -0.13878 0.36415
 H817 H 0.77576 -0.07865 0.39450
 H818 H 0.77627 -0.05477 0.42160
 H819 H 0.71562 -0.07018 0.43630
 H820 H 0.71517 -0.09446 0.40950
 C821 C 0.66403 0.75110 -0.14965
 C822 C 0.66108 0.76215 -0.16702
 C823 C 0.67581 0.76299 -0.18157
 C824 C 0.69378 0.75261 -0.17924
 C825 C 0.69670 0.74136 -0.16201
 C826 C 0.68202 0.74069 -0.14734
 C827 C 0.64834 0.75049 -0.13409
 C828 C 0.64455 0.73294 -0.12335
 C829 C 0.62937 0.73232 -0.10918
 C830 C 0.61755 0.74915 -0.10561
 C831 C 0.62151 0.76675 -0.11609
 C832 C 0.63678 0.76745 -0.13007
 C833 C 0.60076 0.74835 -0.09140
 C834 C 0.58218 0.75626 -0.09661
 C835 C 0.56635 0.75596 -0.08325
 C836 C 0.56876 0.74797 -0.06423
 C837 C 0.58733 0.73981 -0.05909
 C838 C 0.60315 0.73991 -0.07259
 H839 H 0.64724 0.76998 -0.16953
 H840 H 0.67296 0.77153 -0.19480
 H841 H 0.71046 0.73335 -0.15969
 H842 H 0.68493 0.73226 -0.13404
 H843 H 0.65298 0.71953 -0.12623
 H844 H 0.62650 0.71853 -0.10139
 H845 H 0.61281 0.78003 -0.11337
 H846 H 0.63958 0.78134 -0.13769
 H847 H 0.57984 0.76251 -0.11115
 H848 H 0.55214 0.76189 -0.08792
 H849 H 0.58976 0.73372 -0.04452
 H850 H 0.61739 0.73383 -0.06819
 C851 C 0.33782 0.25108 -0.14625
 C852 C 0.34232 0.24076 -0.16374
 C853 C 0.32857 0.23985 -0.17913
 C854 C 0.31005 0.24940 -0.17751
 C855 C 0.30560 0.25993 -0.16015
 C856 C 0.31930 0.26071 -0.14467
 C857 C 0.35238 0.25168 -0.12977
 C858 C 0.35495 0.26902 -0.11844
 C859 C 0.36897 0.26961 -0.10323
 C860 C 0.38080 0.25289 -0.09903
 C861 C 0.37809 0.23553 -0.11027
 C862 C 0.36401 0.23490 -0.12536
 C863 C 0.39632 0.25362 -0.08343
 C864 C 0.40030 0.23675 -0.07180
 C865 C 0.41599 0.23681 -0.05834
 C866 C 0.42794 0.25381 -0.05602
 C867 C 0.42352 0.27096 -0.06699
 C868 C 0.40792 0.27084 -0.08062
 H869 H 0.35660 0.23354 -0.16565
 H870 H 0.33261 0.23188 -0.19241
 H871 H 0.29139 0.26729 -0.15834
 H872 H 0.31524 0.26856 -0.13131
 H873 H 0.34638 0.28228 -0.12156
 H874 H 0.37052 0.28316 -0.09473
 H875 H 0.38712 0.22247 -0.10766
 H876 H 0.36222 0.22120 -0.13356
 H877 H 0.39138 0.22340 -0.07323
 H878 H 0.41894 0.22349 -0.04984
 H879 H 0.43264 0.28419 -0.06560
 H880 H 0.40545 0.28401 -0.08948
 C881 C 0.33909 0.75069 0.14668
 C882 C 0.32044 0.74141 0.14443
 C883 C 0.30624 0.74217 0.15954
 C884 C 0.31030 0.75233 0.17719
 C885 C 0.32892 0.76160 0.17945
 C886 C 0.34317 0.76071 0.16442
 C887 C 0.35423 0.74998 0.13062
 C888 C 0.36641 0.76656 0.12674
 C889 C 0.38093 0.76584 0.11197
 C890 C 0.38354 0.74857 0.10055
 C891 C 0.37120 0.73205 0.10427
 C892 C 0.35675 0.73273 0.11915
 C893 C 0.39937 0.74777 0.08517
 C894 C 0.41055 0.73032 0.08219
 C895 C 0.42621 0.73000 0.06855
 C896 C 0.43114 0.74714 0.05775
 C897 C 0.41969 0.76441 0.06032
 C898 C 0.40393 0.76470 0.07379
 H899 H 0.31668 0.73383 0.13086
 H900 H 0.29197 0.73506 0.15723
 H901 H 0.33265 0.76930 0.19296
 H902 H 0.35751 0.76766 0.16684
 H903 H 0.36469 0.78019 0.13508
 H904 H 0.39034 0.77874 0.10974
 H905 H 0.37266 0.71859 0.09562
 H906 H 0.34777 0.71962 0.12187
 H907 H 0.40763 0.71710 0.09086
 H908 H 0.43494 0.71655 0.06697
 H909 H 0.42301 0.77774 0.05193
 H910 H 0.39535 0.77823 0.07535
 C911 C 0.66398 0.24798 0.14574
 C912 C 0.68219 0.25820 0.14393
 C913 C 0.69626 0.25753 0.15909
 C914 C 0.69251 0.24650 0.17632
 C915 C 0.67435 0.23625 0.17812
 C916 C 0.66022 0.23706 0.16306
 C917 C 0.64891 0.24872 0.12971
 C918 C 0.63737 0.23186 0.12522
 C919 C 0.62278 0.23266 0.11060
 C920 C 0.61946 0.25029 0.09994
 C921 C 0.63121 0.26708 0.10420
 C922 C 0.64572 0.26632 0.11894
 C923 C 0.60341 0.25123 0.08488
 C924 C 0.59165 0.26842 0.08284
 C925 C 0.57576 0.26882 0.06957
 C926 C 0.57116 0.25198 0.05820
 C927 C 0.58318 0.23499 0.05983
 C928 C 0.59919 0.23465 0.07293
 H929 H 0.68572 0.26649 0.13068
 H930 H 0.71020 0.26542 0.15715
 H931 H 0.67086 0.22786 0.19131
 H932 H 0.64620 0.22936 0.16515
 H933 H 0.63962 0.21797 0.13299
 H934 H 0.61384 0.21952 0.10794
 H935 H 0.62922 0.28083 0.09613
 H936 H 0.65418 0.27965 0.12214
 H937 H 0.59428 0.28136 0.09198
 H938 H 0.56658 0.28203 0.06873
 H939 H 0.58010 0.22191 0.05101
 H940 H 0.60820 0.22134 0.07377
 C941 C -0.14857 0.65922 0.74961
 C942 C -0.14653 0.67634 0.73797
 C943 C -0.16094 0.69132 0.73864
 C944 C -0.17763 0.68969 0.75124
 C945 C -0.17942 0.67247 0.76303
 C946 C -0.16515 0.65740 0.76210
 C947 C -0.13345 0.64323 0.74879
 C948 C -0.13938 0.62328 0.74709
 C949 C -0.12522 0.60810 0.74682
 C950 C -0.10479 0.61249 0.74855
 C951 C -0.09889 0.63254 0.75001
 C952 C -0.11307 0.64775 0.75002
 C953 C -0.08984 0.59618 0.74926
 C954 C -0.07096 0.59840 0.74045
 C955 C -0.05698 0.58300 0.74128
 C956 C -0.06160 0.56498 0.75083
 C957 C -0.08051 0.56278 0.75954
 C958 C -0.09436 0.57821 0.75889
 H959 H -0.13390 0.67802 0.72813
 H960 H -0.15870 0.70421 0.72935
 H961 H -0.19192 0.67031 0.77288
 H962 H -0.16696 0.64437 0.77136
 H963 H -0.15500 0.61944 0.74581
 H964 H -0.13030 0.59289 0.74518
 H965 H -0.08334 0.63647 0.75165
 H966 H -0.10816 0.66303 0.75150
 H967 H -0.06704 0.61195 0.73272
 H968 H -0.04251 0.58528 0.73458
 H969 H -0.08476 0.54901 0.76671
 H970 H -0.10859 0.57606 0.76613
 C971 C -0.14988 0.33893 0.25077
 C972 C -0.16826 0.34307 0.24183
 C973 C -0.18305 0.32845 0.24079
 C974 C -0.17983 0.30949 0.24890
 C975 C -0.16147 0.30540 0.25793
 C976 C -0.14659 0.31994 0.25873
 C977 C -0.13419 0.35439 0.25176
 C978 C -0.11446 0.34989 0.24648
 C979 C -0.09974 0.36461 0.24702
 C980 C -0.10444 0.38401 0.25314
 C981 C -0.12411 0.38843 0.25867
 C982 C -0.13888 0.37379 0.25786
 C983 C -0.08901 0.39977 0.25327
 C984 C -0.08713 0.41259 0.26951
 C985 C -0.07320 0.42807 0.26921
 C986 C -0.06113 0.43117 0.25254
 C987 C -0.06281 0.41817 0.23642
 C988 C -0.07653 0.40253 0.23683
 H989 H -0.17109 0.35757 0.23546
 H990 H -0.19707 0.33210 0.23385
 H991 H -0.15848 0.29089 0.26417
 H992 H -0.13258 0.31643 0.26580
 H993 H -0.11051 0.33507 0.24160
 H994 H -0.08466 0.36084 0.24275
 H995 H -0.12813 0.40333 0.26326
 H996 H -0.15396 0.37759 0.26212
 H997 H -0.09651 0.41067 0.28240
 H998 H -0.07229 0.43800 0.28175
 H999 H -0.05359 0.42023 0.22344
 H1000 H -0.07780 0.39292 0.22408
 C1001 C 0.14915 0.33534 0.74803
 C1002 C 0.14617 0.31606 0.74062
 C1003 C 0.16140 0.30194 0.74156
 C1004 C 0.17979 0.30674 0.75021
 C1005 C 0.18267 0.32597 0.75780
 C1006 C 0.16755 0.34017 0.75659
 C1007 C 0.13312 0.35039 0.74688
 C1008 C 0.13733 0.36972 0.74016
 C1009 C 0.12233 0.38408 0.73944
 C1010 C 0.10290 0.37945 0.74567
 C1011 C 0.09866 0.36010 0.75232
 C1012 C 0.11361 0.34565 0.75277
 C1013 C 0.08733 0.39502 0.74584
 C1014 C 0.07544 0.39790 0.76267
 C1015 C 0.06175 0.41351 0.76341
 C1016 C 0.05949 0.42635 0.74721
 C1017 C 0.07091 0.42308 0.73014
 C1018 C 0.08481 0.40764 0.72951
 H1019 H 0.13214 0.31201 0.73386
 H1020 H 0.15869 0.28720 0.73571
 H1021 H 0.19671 0.33017 0.76442
 H1022 H 0.17014 0.35490 0.76254
 H1023 H 0.15223 0.37369 0.73540
 H1024 H 0.12602 0.39894 0.73442
 H1025 H 0.08377 0.35617 0.75713
 H1026 H 0.11003 0.33087 0.75811
 H1027 H 0.07720 0.38845 0.77550
 H1028 H 0.05302 0.41569 0.77669
 H1029 H 0.06954 0.43287 0.71752
 H1030 H 0.09372 0.40562 0.71632
 C1031 C 0.14973 0.66221 0.24900
 C1032 C 0.14670 0.68081 0.25792
 C1033 C 0.16148 0.69548 0.25705
 C1034 C 0.17949 0.69190 0.24705
 C1035 C 0.18240 0.67336 0.23795
 C1036 C 0.16772 0.65864 0.23899
 C1037 C 0.13428 0.64648 0.25016
 C1038 C 0.13963 0.62678 0.25449
 C1039 C 0.12522 0.61178 0.25504
 C1040 C 0.10513 0.61611 0.25109
 C1041 C 0.09974 0.63591 0.24706
 C1042 C 0.11416 0.65095 0.24667
 C1043 C 0.09004 0.59990 0.25067
 C1044 C 0.07064 0.60292 0.25797
 C1045 C 0.05652 0.58760 0.25737
 C1046 C 0.06149 0.56890 0.24948
 C1047 C 0.08091 0.56590 0.24228
 C1048 C 0.09495 0.58121 0.24278
 H1049 H 0.13301 0.68390 0.26583
 H1050 H 0.15871 0.70965 0.26410
 H1051 H 0.19613 0.67005 0.23025
 H1052 H 0.17036 0.64449 0.23183
 H1053 H 0.15498 0.62299 0.25758
 H1054 H 0.12983 0.59679 0.25863
 H1055 H 0.08447 0.63971 0.24368
 H1056 H 0.10967 0.66600 0.24312
 H1057 H 0.06643 0.61708 0.26433
 H1058 H 0.04165 0.59045 0.26289
 H1059 H 0.08537 0.55161 0.23641
 H1060 H 0.10964 0.57843 0.23677
 C1061 C 0.76034 -0.14367 0.66613
 C1062 C 0.75300 -0.14033 0.68532
 C1063 C 0.75294 -0.15561 0.69933
 C1064 C 0.76050 -0.17447 0.69458
 C1065 C 0.76802 -0.17781 0.67554
 C1066 C 0.76779 -0.16265 0.66143
 C1067 C 0.75994 -0.12760 0.65098
 C1068 C 0.77508 -0.12615 0.63667
 C1069 C 0.77421 -0.11172 0.62185
 C1070 C 0.75833 -0.09813 0.62111
 C1071 C 0.74348 -0.09921 0.63576
 C1072 C 0.74420 -0.11383 0.65040
 C1073 C 0.75688 -0.08344 0.60470
 C1074 C 0.73824 -0.07835 0.59677
 C1075 C 0.73686 -0.06541 0.58072
 C1076 C 0.75410 -0.05743 0.57191
 C1077 C 0.77274 -0.06217 0.58007
 C1078 C 0.77409 -0.07491 0.59633
 H1079 H 0.74749 -0.12584 0.68962
 H1080 H 0.74725 -0.15255 0.71397
 H1081 H 0.77367 -0.19228 0.67136
 H1082 H 0.77312 -0.16597 0.64672
 H1083 H 0.78764 -0.13622 0.63683
 H1084 H 0.78579 -0.11156 0.61072
 H1085 H 0.73120 -0.08880 0.63589
 H1086 H 0.73214 -0.11458 0.66101
 H1087 H 0.72465 -0.08477 0.60261
 H1088 H 0.72223 -0.06180 0.57512
 H1089 H 0.78636 -0.05648 0.57360
 H1090 H 0.78869 -0.07817 0.60224
 C1091 C 0.25359 -0.14974 0.33935
 C1092 C 0.26256 -0.14635 0.32091
 C1093 C 0.26161 -0.16081 0.30610
 C1094 C 0.25143 -0.17882 0.30937
 C1095 C 0.24237 -0.18211 0.32779
 C1096 C 0.24352 -0.16778 0.34264
 C1097 C 0.25458 -0.13453 0.35514
 C1098 C 0.25892 -0.14014 0.37461
 C1099 C 0.25911 -0.12600 0.38969
 C1100 C 0.25478 -0.10593 0.38569
 C1101 C 0.25077 -0.10027 0.36612
 C1102 C 0.25075 -0.11442 0.35099
 C1103 C 0.25394 -0.09113 0.40198
 C1104 C 0.26087 -0.07155 0.39926
 C1105 C 0.25990 -0.05772 0.41465
 C1106 C 0.25203 -0.06316 0.43312
 C1107 C 0.24517 -0.08275 0.43583
 C1108 C 0.24602 -0.09651 0.42045
 H1109 H 0.27051 -0.13262 0.31803
 H1110 H 0.26862 -0.15776 0.29203
 H1111 H 0.23455 -0.19587 0.33085
 H1112 H 0.23630 -0.17069 0.35666
 H1113 H 0.26225 -0.15549 0.37815
 H1114 H 0.26271 -0.13081 0.40449
 H1115 H 0.24711 -0.08501 0.36256
 H1116 H 0.24718 -0.10973 0.33613
 H1117 H 0.26724 -0.06696 0.38529
 H1118 H 0.26515 -0.04270 0.41202
 H1119 H 0.23931 -0.08757 0.44994
 H1120 H 0.24027 -0.11135 0.42300
 C1121 C 0.75233 0.14505 0.33511
 C1122 C 0.75933 0.16420 0.33984
 C1123 C 0.75968 0.17927 0.32566
 C1124 C 0.75273 0.17568 0.30648
 C1125 C 0.74544 0.15669 0.30175
 C1126 C 0.74538 0.14149 0.31586
 C1127 C 0.75226 0.12895 0.35023
 C1128 C 0.73693 0.11466 0.35077
 C1129 C 0.73667 0.09987 0.36528
 C1130 C 0.75158 0.09913 0.37980
 C1131 C 0.76699 0.11332 0.37914
 C1132 C 0.76740 0.12791 0.36448
 C1133 C 0.75079 0.08406 0.39592
 C1134 C 0.76840 0.07608 0.40386
 C1135 C 0.76769 0.06298 0.41986
 C1136 C 0.74934 0.05726 0.42818
 C1137 C 0.73172 0.06470 0.41980
 C1138 C 0.73243 0.07802 0.40399
 H1139 H 0.76433 0.16768 0.35461
 H1140 H 0.76510 0.19385 0.32982
 H1141 H 0.74017 0.15345 0.28702
 H1142 H 0.74018 0.12688 0.31156
 H1143 H 0.72489 0.11509 0.34021
 H1144 H 0.72474 0.08903 0.36511
 H1145 H 0.77858 0.11345 0.39020
 H1146 H 0.77966 0.13840 0.36434
 H1147 H 0.78280 0.08007 0.39781
 H1148 H 0.78159 0.05777 0.42601
 H1149 H 0.71730 0.06036 0.42556
 H1150 H 0.71856 0.08398 0.39847
 C1151 C 0.25807 0.14870 0.66091
 C1152 C 0.24801 0.16662 0.65724
 C1153 C 0.24619 0.18099 0.67201
 C1154 C 0.25458 0.17784 0.69070
 C1155 C 0.26475 0.15996 0.69435
 C1156 C 0.26636 0.14546 0.67963
 C1157 C 0.25970 0.13346 0.64520
 C1158 C 0.25554 0.11337 0.64923
 C1159 C 0.25585 0.09925 0.63408
 C1160 C 0.26049 0.10491 0.61462
 C1161 C 0.26529 0.12493 0.61079
 C1162 C 0.26480 0.13904 0.62588
 C1163 C 0.25954 0.09024 0.59821
 C1164 C 0.25202 0.09595 0.57973
 C1165 C 0.25071 0.08226 0.56434
 C1166 C 0.25669 0.06241 0.56702
 C1167 C 0.26433 0.05667 0.58545
 C1168 C 0.26575 0.07044 0.60088
 H1169 H 0.24131 0.16942 0.64300
 H1170 H 0.23840 0.19466 0.66865
 H1171 H 0.27126 0.15704 0.70865
 H1172 H 0.27427 0.13180 0.68279
 H1173 H 0.25141 0.10871 0.66398
 H1174 H 0.25183 0.08402 0.63751
 H1175 H 0.26939 0.12973 0.59608
 H1176 H 0.26840 0.15438 0.62245
 H1177 H 0.24682 0.11097 0.57721
 H1178 H 0.24509 0.08730 0.55024
 H1179 H 0.26894 0.04147 0.58805
 H1180 H 0.27181 0.06560 0.61486
   
