data_POSCAR
  _audit_creation_date              2014-09-24
  _audit_creation_method            'ToBaCCo'
  _symmetry_space_group_name_H-M    'P1'
  _symmetry_Int_Tables_number       1
  _symmetry_cell_setting            triclinic
  loop_
  _symmetry_equiv_pos_as_xyz
 x,y,z
_cell_length_a 44.4751
_cell_length_b 42.1297
_cell_length_c 43.7677
_cell_angle_alpha 89.805100
_cell_angle_beta 90.759700
_cell_angle_gamma 83.982300
loop_
  _atom_site_label
  _atom_site_type_symbol
  _atom_site_fract_x
  _atom_site_fract_y
  _atom_site_fract_z
N1 N 0.32443 0.23345 0.21485
 N2 N 0.30794 0.25801 0.20253
 C3 C 0.32233 0.26810 0.17803
 C4 C 0.34923 0.24869 0.17467
 C5 C 0.34974 0.22696 0.19853
 H6 H 0.31347 0.28752 0.16320
 H7 H 0.36702 0.20756 0.20347
 Cu8 Cu 0.26882 0.27400 0.21899
 Cu9 Cu 0.31107 0.21033 0.24982
 Cu10 Cu 0.23953 0.23466 0.27668
 N11 N 0.23174 0.29084 0.23907
 N12 N 0.22067 0.27552 0.26180
 C13 C 0.19472 0.29180 0.27088
 C14 C 0.18907 0.31891 0.25286
 C15 C 0.21312 0.31748 0.23289
 H16 H 0.18062 0.28391 0.28872
 H17 H 0.21673 0.33445 0.21508
 N18 N 0.26579 0.19874 0.29457
 N19 N 0.29324 0.18983 0.28472
 C20 C 0.30517 0.16439 0.30112
 C21 C 0.28425 0.15682 0.32246
 C22 C 0.25956 0.17932 0.31761
 H23 H 0.32724 0.15190 0.29726
 H24 H 0.23839 0.18125 0.32960
 H25 H 0.26627 0.22010 0.23931
 H26 H 0.28196 0.24747 0.26750
 N27 N 0.68731 -0.23603 0.21446
 N28 N 0.71091 -0.23984 0.19636
 C29 C 0.70112 -0.23974 0.16715
 C30 C 0.66977 -0.23707 0.16691
 C31 C 0.66180 -0.23508 0.19743
 H32 H 0.71575 -0.24361 0.14767
 H33 H 0.63920 -0.23153 0.20651
 Cu34 Cu 0.75258 -0.25084 0.21201
 Cu35 Cu 0.69176 -0.22824 0.25848
 Cu36 Cu 0.76123 -0.24659 0.28771
 N37 N 0.78551 -0.27632 0.23371
 N38 N 0.78791 -0.27570 0.26363
 C39 C 0.81137 -0.29636 0.27282
 C40 C 0.82486 -0.31078 0.24716
 C41 C 0.80776 -0.29709 0.22269
 H42 H 0.81827 -0.29993 0.29644
 H43 H 0.81061 -0.30222 0.19866
 N44 N 0.73358 -0.21309 0.30532
 N45 N 0.70603 -0.20610 0.29438
 C46 C 0.69275 -0.18068 0.30948
 C47 C 0.71324 -0.17098 0.33091
 C48 C 0.73888 -0.19242 0.32758
 H49 H 0.67039 -0.16928 0.30409
 H50 H 0.76036 -0.19235 0.33937
 H51 H 0.73328 -0.21988 0.24465
 H52 H 0.72776 -0.26303 0.24755
 N53 N 0.70950 0.26076 0.78848
 N54 N 0.72102 0.28655 0.79785
 C55 C 0.70612 0.29793 0.82271
 C56 C 0.68409 0.27811 0.82957
 C57 C 0.68698 0.25471 0.80721
 H58 H 0.71168 0.31850 0.83543
 H59 H 0.67414 0.23443 0.80490
 Cu60 Cu 0.75614 0.30096 0.77824
 Cu61 Cu 0.72637 0.23580 0.75406
 Cu62 Cu 0.77349 0.27549 0.70778
 N63 N 0.78980 0.31597 0.75658
 N64 N 0.79658 0.30586 0.72893
 C65 C 0.82044 0.31997 0.71901
 C66 C 0.82941 0.34005 0.74184
 C67 C 0.80919 0.33676 0.76533
 H68 H 0.83034 0.31565 0.69681
 H69 H 0.80855 0.34840 0.78728
 N70 N 0.75600 0.23640 0.69512
 N71 N 0.73830 0.22121 0.71275
 C72 C 0.73089 0.19506 0.69804
 C73 C 0.74486 0.19347 0.66991
 C74 C 0.76064 0.22008 0.66890
 H75 H 0.71697 0.17798 0.70746
 H76 H 0.77473 0.22693 0.65057
 H77 H 0.76865 0.25282 0.74819
 H78 H 0.73392 0.27720 0.73372
 N79 N 0.28971 -0.26943 0.78781
 N80 N 0.27069 -0.28479 0.80362
 C81 C 0.28242 -0.29110 0.83175
 C82 C 0.31010 -0.27888 0.83392
 C83 C 0.31393 -0.26525 0.80556
 H84 H 0.27138 -0.30331 0.84948
 H85 H 0.33288 -0.25310 0.79832
 Cu86 Cu 0.23199 -0.29622 0.78677
 Cu87 Cu 0.28129 -0.25454 0.74559
 Cu88 Cu 0.21747 -0.27559 0.71349
 N89 N 0.20105 -0.31458 0.76276
 N90 N 0.19523 -0.30646 0.73415
 C91 C 0.17193 -0.32154 0.72384
 C92 C 0.16243 -0.34030 0.74733
 C93 C 0.18171 -0.33517 0.77170
 H94 H 0.16251 -0.31855 0.70102
 H95 H 0.18152 -0.34499 0.79453
 N96 N 0.23691 -0.23960 0.69821
 N97 N 0.26210 -0.23161 0.71054
 C98 C 0.27096 -0.20658 0.69515
 C99 C 0.25003 -0.19818 0.67193
 C100 C 0.22872 -0.21980 0.67467
 H101 H 0.29094 -0.19517 0.70089
 H102 H 0.20877 -0.22123 0.66060
 H103 H 0.23879 -0.25596 0.76055
 H104 H 0.25812 -0.29552 0.74912
 N105 N 0.68097 -0.23413 0.79564
 N106 N 0.69109 -0.26394 0.80165
 C107 C 0.67452 -0.27489 0.82418
 C108 C 0.65280 -0.25052 0.83273
 C109 C 0.65779 -0.22501 0.81408
 H110 H 0.67819 -0.29869 0.83375
 H111 H 0.64596 -0.20126 0.81419
 Cu112 Cu 0.72587 -0.28461 0.78020
 Cu113 Cu 0.69944 -0.20864 0.76552
 Cu114 Cu 0.74695 -0.25174 0.71502
 N115 N 0.76335 -0.30031 0.76017
 N116 N 0.77111 -0.28774 0.73432
 C117 C 0.79722 -0.30331 0.72487
 C118 C 0.80681 -0.32696 0.74614
 C119 C 0.78449 -0.32420 0.76828
 H120 H 0.80840 -0.29721 0.70422
 H121 H 0.78346 -0.33840 0.78876
 N122 N 0.72917 -0.20776 0.70681
 N123 N 0.71155 -0.19123 0.72638
 C124 C 0.70329 -0.16203 0.71468
 C125 C 0.71660 -0.15987 0.68646
 C126 C 0.73296 -0.18933 0.68225
 H127 H 0.68881 -0.14361 0.72601
 H128 H 0.74653 -0.19687 0.66275
 H129 H 0.70608 -0.24827 0.73920
 H130 H 0.74088 -0.23568 0.75785
 N131 N 0.32404 0.24372 0.78035
 N132 N 0.30715 0.26769 0.79261
 C133 C 0.32050 0.27619 0.81871
 C134 C 0.34721 0.25642 0.82300
 C135 C 0.34867 0.23619 0.79808
 H136 H 0.31110 0.29471 0.83390
 H137 H 0.36617 0.21715 0.79322
 Cu138 Cu 0.26883 0.28388 0.77346
 Cu139 Cu 0.31279 0.22338 0.74262
 Cu140 Cu 0.24018 0.24565 0.71462
 N141 N 0.23047 0.30006 0.75441
 N142 N 0.21935 0.28462 0.73154
 C143 C 0.19235 0.29967 0.72310
 C144 C 0.18603 0.32602 0.74168
 C145 C 0.21080 0.32547 0.76134
 H146 H 0.17809 0.29151 0.70520
 H147 H 0.21418 0.34221 0.77940
 N148 N 0.26551 0.20740 0.70060
 N149 N 0.29333 0.19945 0.71077
 C150 C 0.30449 0.17209 0.69741
 C151 C 0.28269 0.16221 0.67771
 C152 C 0.25826 0.18532 0.68040
 H153 H 0.32662 0.15993 0.70239
 H154 H 0.23657 0.18585 0.66891
 H155 H 0.28164 0.25924 0.72441
 H156 H 0.26731 0.23098 0.75241
 N157 N 0.28634 -0.25330 0.20888
 N158 N 0.27357 -0.27733 0.19717
 C159 C 0.28713 -0.28595 0.17072
 C160 C 0.30956 -0.26621 0.16549
 C161 C 0.30833 -0.24570 0.19020
 H162 H 0.28092 -0.30493 0.15613
 H163 H 0.32267 -0.22696 0.19451
 Cu164 Cu 0.24013 -0.29464 0.21735
 Cu165 Cu 0.27390 -0.23415 0.24779
 Cu166 Cu 0.21459 -0.26503 0.28444
 N167 N 0.20673 -0.31159 0.23793
 N168 N 0.19688 -0.29983 0.26414
 C169 C 0.17330 -0.31498 0.27301
 C170 C 0.16790 -0.33757 0.25119
 C171 C 0.18970 -0.33468 0.22924
 H172 H 0.16073 -0.30940 0.29358
 H173 H 0.19277 -0.34810 0.20833
 N174 N 0.23549 -0.22983 0.30125
 N175 N 0.25807 -0.21812 0.28734
 C176 C 0.26713 -0.19408 0.30418
 C177 C 0.24934 -0.19035 0.32992
 C178 C 0.22952 -0.21346 0.32723
 H179 H 0.28486 -0.17980 0.29777
 H180 H 0.21193 -0.21795 0.34298
 H181 H 0.25706 -0.27400 0.26588
 H182 H 0.22954 -0.24475 0.24522
 N183 N 0.71819 0.25140 0.20834
 N184 N 0.73482 0.27143 0.19527
 C185 C 0.72169 0.28166 0.16868
 C186 C 0.69538 0.26716 0.16465
 C187 C 0.69393 0.24804 0.19035
 H188 H 0.73094 0.29804 0.15320
 H189 H 0.67647 0.23296 0.19570
 Cu190 Cu 0.77246 0.28186 0.21356
 Cu191 Cu 0.72963 0.23115 0.24752
 Cu192 Cu 0.79132 0.25751 0.28520
 N193 N 0.80346 0.30048 0.23692
 N194 N 0.81085 0.29106 0.26489
 C195 C 0.83321 0.30755 0.27528
 C196 C 0.84026 0.32854 0.25254
 C197 C 0.82076 0.32327 0.22854
 H198 H 0.84371 0.30415 0.29762
 H199 H 0.81925 0.33491 0.20646
 N200 N 0.76844 0.22372 0.30168
 N201 N 0.74492 0.21377 0.28733
 C202 C 0.73472 0.19013 0.30375
 C203 C 0.75268 0.18478 0.32975
 C204 C 0.77384 0.20661 0.32761
 H205 H 0.71610 0.17716 0.29678
 H206 H 0.79204 0.20964 0.34357
 H207 H 0.75079 0.26987 0.26233
 H208 H 0.77566 0.23514 0.24700
 C209 C 0.27047 0.01380 0.43988
 C210 C 0.27272 -0.01511 0.42412
 C211 C 0.27354 -0.04434 0.43947
 C212 C 0.27246 -0.04496 0.47177
 C213 C 0.27039 -0.01581 0.48814
 C214 C 0.26948 0.01368 0.47216
 C215 C 0.26852 0.04216 0.48889
 C216 C 0.26788 0.04182 0.52063
 C217 C 0.26824 0.01298 0.53694
 C218 C 0.26981 -0.01615 0.52059
 C219 C 0.27422 -0.07389 0.48813
 C220 C 0.27366 -0.07421 0.51994
 C221 C 0.27136 -0.04562 0.53663
 C222 C 0.27144 -0.04567 0.56897
 C223 C 0.26990 -0.01675 0.58474
 C224 C 0.26797 0.01245 0.56923
 H225 H 0.26870 0.06504 0.47766
 H226 H 0.26758 0.06447 0.53224
 H227 H 0.27648 -0.09662 0.47650
 H228 H 0.27544 -0.09717 0.53135
 H229 H 0.27332 -0.01483 0.39934
 H230 H 0.26980 -0.01694 0.60953
 C231 C 0.72443 0.04116 0.56696
 C232 C 0.72630 0.01234 0.58319
 C233 C 0.72785 -0.01706 0.56830
 C234 C 0.72706 -0.01789 0.53599
 C235 C 0.72567 0.01107 0.51909
 C236 C 0.72431 0.04074 0.53459
 C237 C 0.72192 0.06910 0.51729
 C238 C 0.72161 0.06837 0.48546
 C239 C 0.72339 0.03926 0.46963
 C240 C 0.72499 0.01035 0.48660
 C241 C 0.72658 -0.04681 0.52017
 C242 C 0.72582 -0.04749 0.48844
 C243 C 0.72550 -0.01927 0.47117
 C244 C 0.72483 -0.01987 0.43885
 C245 C 0.72318 0.00880 0.42245
 C246 C 0.72274 0.03824 0.43727
 H247 H 0.71995 0.09222 0.52818
 H248 H 0.71947 0.09096 0.47337
 H249 H 0.72627 -0.06927 0.53212
 H250 H 0.72506 -0.07044 0.47761
 H251 H 0.72681 0.01279 0.60798
 H252 H 0.72301 0.00813 0.39767
 C253 C 0.44856 0.27680 0.02862
 C254 C 0.43244 0.27950 0.00094
 C255 C 0.44712 0.27758 -0.02711
 C256 C 0.47910 0.27332 -0.02775
 C257 C 0.49585 0.27055 0.00013
 C258 C 0.48055 0.27246 0.02844
 C259 C 0.49765 0.27091 0.05573
 C260 C 0.52911 0.26686 0.05531
 C261 C 0.54476 0.26411 0.02757
 C262 C 0.52798 0.26636 -0.00030
 C263 C 0.49475 0.27264 -0.05548
 C264 C 0.52619 0.26853 -0.05590
 C265 C 0.54325 0.26508 -0.02861
 C266 C 0.57522 0.26138 -0.02885
 C267 C 0.59144 0.25917 -0.00122
 C268 C 0.57677 0.26023 0.02690
 H269 H 0.48689 0.27331 0.07774
 H270 H 0.54100 0.26639 0.07704
 H271 H 0.48289 0.27575 -0.07718
 H272 H 0.53697 0.26851 -0.07791
 H273 H 0.40791 0.28239 0.00124
 H274 H 0.61597 0.25628 -0.00162
 C275 C 0.54971 0.74267 0.03489
 C276 C 0.56597 0.73469 0.00824
 C277 C 0.55166 0.73223 -0.02010
 C278 C 0.51975 0.73553 -0.02198
 C279 C 0.50265 0.74326 0.00459
 C280 C 0.51757 0.74766 0.03298
 C281 C 0.49985 0.75743 0.05834
 C282 C 0.46843 0.75941 0.05681
 C283 C 0.45328 0.75388 0.02929
 C284 C 0.47050 0.74680 0.00267
 C285 C 0.50454 0.73061 -0.04965
 C286 C 0.47315 0.73405 -0.05149
 C287 C 0.45564 0.74253 -0.02573
 C288 C 0.42364 0.74582 -0.02735
 C289 C 0.40711 0.75120 -0.00057
 C290 C 0.42140 0.75487 0.02765
 H291 H 0.50988 0.76374 0.07976
 H292 H 0.45616 0.76570 0.07745
 H293 H 0.51679 0.72345 -0.07012
 H294 H 0.46277 0.72932 -0.07326
 H295 H 0.59046 0.73102 0.00934
 H296 H 0.38262 0.75260 -0.00166
 C297 C 0.03457 0.42929 0.27884
 C298 C 0.00816 0.41403 0.27993
 C299 C -0.02047 0.43123 0.27832
 C300 C -0.02301 0.46491 0.27585
 C301 C 0.00358 0.48082 0.27514
 C302 C 0.03248 0.46299 0.27678
 C303 C 0.05845 0.47937 0.27721
 C304 C 0.05617 0.51252 0.27548
 C305 C 0.02783 0.53064 0.27332
 C306 C 0.00127 0.51467 0.27337
 C307 C -0.05138 0.48314 0.27483
 C308 C -0.05363 0.51631 0.27294
 C309 C -0.02761 0.53253 0.27232
 C310 C -0.02967 0.56621 0.27105
 C311 C -0.00336 0.58161 0.27089
 C312 C 0.02526 0.56439 0.27209
 H313 H 0.08085 0.46675 0.27939
 H314 H 0.07693 0.52380 0.27622
 H315 H -0.07216 0.47198 0.27580
 H316 H -0.07601 0.52917 0.27219
 H317 H 0.00991 0.38819 0.28147
 H318 H -0.00519 0.60749 0.27026
 C319 C 0.02780 0.43182 0.71685
 C320 C 0.00143 0.41645 0.71580
 C321 C -0.02721 0.43361 0.71643
 C322 C -0.02979 0.46737 0.71770
 C323 C -0.00325 0.48335 0.71875
 C324 C 0.02565 0.46555 0.71819
 C325 C 0.05159 0.48197 0.71801
 C326 C 0.04927 0.51512 0.71895
 C327 C 0.02091 0.53324 0.72003
 C328 C -0.00563 0.51725 0.71970
 C329 C -0.05815 0.48558 0.71695
 C330 C -0.06048 0.51876 0.71788
 C331 C -0.03453 0.53511 0.71959
 C332 C -0.03665 0.56888 0.72011
 C333 C -0.01025 0.58423 0.72033
 C334 C 0.01835 0.56698 0.72042
 H335 H 0.07401 0.46939 0.71666
 H336 H 0.07001 0.52642 0.71838
 H337 H -0.07891 0.47440 0.71513
 H338 H -0.08290 0.53144 0.71674
 H339 H 0.00324 0.39058 0.71497
 H340 H -0.01198 0.61011 0.72067
 C341 C 0.39218 0.22296 0.14374
 C342 C 0.37154 0.24974 0.14988
 C343 C 0.37185 0.27727 0.13167
 C344 C 0.39196 0.27784 0.10730
 C345 C 0.41219 0.25055 0.10099
 C346 C 0.41229 0.22335 0.11951
 C347 C 0.43147 0.25070 0.07586
 C348 C 0.43077 0.27781 0.05704
 C349 C 0.41092 0.30495 0.06370
 C350 C 0.39177 0.30505 0.08873
 H351 H 0.35637 0.29825 0.13627
 H352 H 0.42763 0.20222 0.11501
 H353 H 0.44643 0.22953 0.07041
 H354 H 0.37643 0.32618 0.09323
 H355 H 0.39240 0.20134 0.15718
 H356 H 0.40995 0.32590 0.04916
 C357 C 0.65981 0.77393 0.11282
 C358 C 0.65052 0.76297 0.14124
 C359 C 0.62202 0.75135 0.14324
 C360 C 0.60380 0.74943 0.11697
 C361 C 0.61269 0.76224 0.08907
 C362 C 0.64064 0.77461 0.08727
 C363 C 0.59397 0.76158 0.06313
 C364 C 0.56760 0.74578 0.06375
 C365 C 0.56026 0.73088 0.09110
 C366 C 0.57747 0.73380 0.11775
 H367 H 0.61486 0.74186 0.16470
 H368 H 0.64803 0.78405 0.06590
 H369 H 0.60040 0.77266 0.04215
 H370 H 0.57081 0.72283 0.13869
 H371 H 0.68146 0.78325 0.11052
 H372 H 0.54118 0.71692 0.09189
 C373 C 0.66212 0.30729 -0.12459
 C374 C 0.66364 0.28039 -0.14373
 C375 C 0.64607 0.25547 -0.13662
 C376 C 0.62788 0.25711 -0.11055
 C377 C 0.62710 0.28405 -0.09130
 C378 C 0.64409 0.30908 -0.09866
 C379 C 0.60956 0.28540 -0.06485
 C380 C 0.59265 0.26024 -0.05747
 C381 C 0.59326 0.23364 -0.07674
 C382 C 0.61072 0.23209 -0.10314
 H383 H 0.64685 0.23451 -0.15093
 H384 H 0.64362 0.32998 -0.08425
 H385 H 0.60910 0.30590 -0.04987
 H386 H 0.61101 0.21124 -0.11761
 H387 H 0.67493 0.32710 -0.12943
 H388 H 0.58041 0.21400 -0.07114
 C389 C 0.32787 0.69851 -0.11516
 C390 C 0.33052 0.72051 -0.13896
 C391 C 0.35234 0.74228 -0.13633
 C392 C 0.37078 0.74252 -0.11004
 C393 C 0.36764 0.72046 -0.08617
 C394 C 0.34630 0.69842 -0.08907
 C395 C 0.38554 0.72114 -0.05960
 C396 C 0.40645 0.74371 -0.05645
 C397 C 0.40945 0.76556 -0.08024
 C398 C 0.39192 0.76484 -0.10692
 H399 H 0.35452 0.75958 -0.15431
 H400 H 0.34368 0.68127 -0.07105
 H401 H 0.38301 0.70441 -0.04116
 H402 H 0.39457 0.78201 -0.12491
 H403 H 0.31159 0.68120 -0.11665
 H404 H 0.42514 0.78344 -0.07793
 C405 C 0.15487 0.36354 0.22874
 C406 C 0.16228 0.34303 0.25376
 C407 C 0.14344 0.34512 0.27939
 C408 C 0.11724 0.36676 0.27978
 C409 C 0.10972 0.38682 0.25426
 C410 C 0.12882 0.38521 0.22898
 C411 C 0.08300 0.40775 0.25429
 C412 C 0.06383 0.40894 0.27960
 C413 C 0.07160 0.38914 0.30494
 C414 C 0.09817 0.36830 0.30511
 H415 H 0.14898 0.32986 0.29906
 H416 H 0.12344 0.40044 0.20923
 H417 H 0.07678 0.42273 0.23454
 H418 H 0.10360 0.35312 0.32487
 H419 H 0.16880 0.36245 0.20863
 H420 H 0.05690 0.38969 0.32450
 C421 C 0.13186 0.62222 0.77258
 C422 C 0.13812 0.64061 0.74685
 C423 C 0.11924 0.63973 0.72074
 C424 C 0.09461 0.62147 0.72050
 C425 C 0.08870 0.60332 0.74652
 C426 C 0.10752 0.60377 0.77236
 C427 C 0.06393 0.58523 0.74632
 C428 C 0.04500 0.58522 0.72042
 C429 C 0.05086 0.60345 0.69473
 C430 C 0.07558 0.62133 0.69469
 H431 H 0.12316 0.65348 0.70054
 H432 H 0.10333 0.58997 0.79251
 H433 H 0.05916 0.57136 0.76627
 H434 H 0.07969 0.63519 0.67456
 H435 H 0.14567 0.62180 0.79310
 H436 H 0.03627 0.60374 0.67470
 C437 C -0.13656 0.65632 0.21825
 C438 C -0.14977 0.66608 0.24628
 C439 C -0.13688 0.65227 0.27350
 C440 C -0.11129 0.62978 0.27279
 C441 C -0.09797 0.62091 0.24454
 C442 C -0.11090 0.63415 0.21743
 C443 C -0.07169 0.59932 0.24397
 C444 C -0.05882 0.58646 0.27131
 C445 C -0.07247 0.59481 0.29922
 C446 C -0.09857 0.61631 0.29999
 H447 H -0.14660 0.65866 0.29544
 H448 H -0.10103 0.62755 0.19555
 H449 H -0.06093 0.59292 0.22245
 H450 H -0.10852 0.62276 0.32186
 H451 H -0.14549 0.66617 0.19675
 H452 H -0.06251 0.58514 0.32044
 C453 C -0.14044 0.37852 0.76670
 C454 C -0.14632 0.35920 0.74146
 C455 C -0.12721 0.35937 0.71596
 C456 C -0.10285 0.37805 0.71580
 C457 C -0.09734 0.39709 0.74136
 C458 C -0.11630 0.39720 0.76661
 C459 C -0.07283 0.41553 0.74133
 C460 C -0.05383 0.41522 0.71598
 C461 C -0.05933 0.39617 0.69071
 C462 C -0.08373 0.37782 0.69054
 H463 H -0.13086 0.34491 0.69616
 H464 H -0.11241 0.41168 0.78640
 H465 H -0.06831 0.42992 0.76103
 H466 H -0.08754 0.36331 0.67074
 H467 H -0.15434 0.37944 0.78680
 H468 H -0.04466 0.39553 0.67111
 C469 C 0.31345 0.10801 0.34546
 C470 C 0.28702 0.12956 0.34436
 C471 C 0.26304 0.12436 0.36385
 C472 C 0.26513 0.09780 0.38350
 C473 C 0.29164 0.07614 0.38393
 C474 C 0.31573 0.08160 0.36503
 C475 C 0.29345 0.04913 0.40293
 C476 C 0.26911 0.04352 0.42155
 C477 C 0.24290 0.06519 0.42118
 C478 C 0.24096 0.09224 0.40240
 H479 H 0.24251 0.14059 0.36360
 H480 H 0.33625 0.06527 0.36514
 H481 H 0.31362 0.03225 0.40308
 H482 H 0.22044 0.10855 0.40234
 H483 H 0.33244 0.11118 0.33103
 H484 H 0.22383 0.06091 0.43520
 C485 C 0.76784 0.16230 0.62570
 C486 C 0.74431 0.16789 0.64678
 C487 C 0.72058 0.14833 0.64618
 C488 C 0.72064 0.12311 0.62532
 C489 C 0.74482 0.11716 0.60475
 C490 C 0.76816 0.13709 0.60495
 C491 C 0.74553 0.09099 0.58484
 C492 C 0.72223 0.07093 0.58515
 C493 C 0.69803 0.07744 0.60523
 C494 C 0.69718 0.10335 0.62510
 H495 H 0.70207 0.15260 0.66200
 H496 H 0.78685 0.13295 0.58934
 H497 H 0.76450 0.08569 0.56972
 H498 H 0.67846 0.10757 0.64067
 H499 H 0.78647 0.17688 0.62572
 H500 H 0.68006 0.06199 0.60590
 C501 C 0.22454 -0.16284 0.63075
 C502 C 0.25002 -0.17154 0.64956
 C503 C 0.27530 -0.15423 0.64715
 C504 C 0.27493 -0.12835 0.62682
 C505 C 0.24903 -0.11966 0.60835
 C506 C 0.22406 -0.13721 0.61035
 C507 C 0.24834 -0.09321 0.58866
 C508 C 0.27317 -0.07530 0.58741
 C509 C 0.29888 -0.08419 0.60561
 C510 C 0.29986 -0.11065 0.62504
 H511 H 0.29527 -0.16062 0.66114
 H512 H 0.20401 -0.13088 0.59639
 H513 H 0.22833 -0.08604 0.57485
 H514 H 0.31989 -0.11693 0.63903
 H515 H 0.20465 -0.17547 0.63200
 H516 H 0.31806 -0.07035 0.60498
 C517 C 0.68327 -0.12085 0.34946
 C518 C 0.70990 -0.14210 0.35059
 C519 C 0.73379 -0.13494 0.37000
 C520 C 0.73144 -0.10686 0.38734
 C521 C 0.70473 -0.08554 0.38561
 C522 C 0.68072 -0.09289 0.36679
 C523 C 0.70262 -0.05718 0.40258
 C524 C 0.72683 -0.05005 0.42136
 C525 C 0.75329 -0.07130 0.42289
 C526 C 0.75556 -0.09956 0.40611
 H527 H 0.75446 -0.15089 0.37152
 H528 H 0.66003 -0.07688 0.36526
 H529 H 0.68223 -0.04067 0.40130
 H530 H 0.77624 -0.11560 0.40767
 H531 H 0.66438 -0.12551 0.33497
 H532 H 0.77222 -0.06590 0.43709
 C533 C 0.60671 0.77433 -0.14058
 C534 C 0.63007 0.74921 -0.14274
 C535 C 0.63190 0.72447 -0.12087
 C536 C 0.61126 0.72531 -0.09678
 C537 C 0.58836 0.75110 -0.09460
 C538 C 0.58610 0.77527 -0.11677
 C539 C 0.56847 0.75265 -0.06997
 C540 C 0.57100 0.72867 -0.04748
 C541 C 0.59360 0.70295 -0.04988
 C542 C 0.61351 0.70119 -0.07443
 H543 H 0.64972 0.70496 -0.12204
 H544 H 0.56855 0.79510 -0.11553
 H545 H 0.55141 0.77286 -0.06783
 H546 H 0.63093 0.68125 -0.07567
 H547 H 0.60425 0.79348 -0.15723
 H548 H 0.59601 0.68444 -0.03252
 C549 C 0.38921 0.22877 -0.14489
 C550 C 0.36874 0.25593 -0.15082
 C551 C 0.36871 0.28239 -0.13131
 C552 C 0.38862 0.28163 -0.10611
 C553 C 0.40886 0.25404 -0.10024
 C554 C 0.40904 0.22781 -0.11982
 C555 C 0.42832 0.25303 -0.07470
 C556 C 0.42799 0.27937 -0.05513
 C557 C 0.40793 0.30671 -0.06114
 C558 C 0.38845 0.30791 -0.08650
 H559 H 0.35332 0.30363 -0.13569
 H560 H 0.42436 0.20646 -0.11564
 H561 H 0.44347 0.23170 -0.06976
 H562 H 0.37307 0.32923 -0.09060
 H563 H 0.38962 0.20791 -0.15929
 H564 H 0.40727 0.32706 -0.04602
 C565 C 0.33567 0.70487 0.12188
 C566 C 0.33035 0.73284 0.13926
 C567 C 0.34482 0.75979 0.13126
 C568 C 0.36406 0.75889 0.10600
 C569 C 0.36918 0.73054 0.08879
 C570 C 0.35495 0.70370 0.09694
 C571 C 0.38827 0.72954 0.06356
 C572 C 0.40226 0.75650 0.05511
 C573 C 0.39687 0.78475 0.07195
 C574 C 0.37805 0.78588 0.09739
 H575 H 0.34074 0.78161 0.14427
 H576 H 0.35866 0.68181 0.08397
 H577 H 0.39221 0.70783 0.05030
 H578 H 0.37425 0.80789 0.11017
 H579 H 0.32518 0.68365 0.12770
 H580 H 0.40721 0.80585 0.06533
 C581 C 0.67454 0.29686 0.11804
 C582 C 0.67406 0.27087 0.13822
 C583 C 0.65350 0.24827 0.13258
 C584 C 0.63408 0.25133 0.10693
 C585 C 0.63497 0.27752 0.08679
 C586 C 0.65516 0.30019 0.09263
 C587 C 0.61586 0.28046 0.06098
 C588 C 0.59586 0.25755 0.05497
 C589 C 0.59519 0.23147 0.07491
 C590 C 0.61404 0.22846 0.10081
 H591 H 0.65296 0.22795 0.14772
 H592 H 0.65608 0.32044 0.07746
 H593 H 0.61657 0.30045 0.04542
 H594 H 0.61315 0.20813 0.11587
 H595 H 0.68981 0.31485 0.12189
 H596 H 0.58016 0.21338 0.07027
 C597 C -0.15908 0.62990 0.76984
 C598 C -0.16658 0.65152 0.74554
 C599 C -0.14665 0.65132 0.72068
 C600 C -0.11992 0.63046 0.72024
 C601 C -0.11264 0.60928 0.74496
 C602 C -0.13242 0.60913 0.76956
 C603 C -0.08559 0.58883 0.74472
 C604 C -0.06592 0.58920 0.71991
 C605 C -0.07337 0.61024 0.69542
 C606 C -0.10019 0.63066 0.69552
 H607 H -0.15160 0.66729 0.70145
 H608 H -0.12722 0.59301 0.78870
 H609 H -0.07963 0.57286 0.76383
 H610 H -0.10540 0.64675 0.67636
 H611 H -0.17351 0.62900 0.78943
 H612 H -0.05829 0.61089 0.67625
 C613 C -0.13055 0.36910 0.22716
 C614 C -0.13591 0.35085 0.25317
 C615 C -0.11792 0.35371 0.27954
 C616 C -0.09467 0.37383 0.27972
 C617 C -0.08933 0.39163 0.25326
 C618 C -0.10755 0.38927 0.22721
 C619 C -0.06554 0.41105 0.25314
 C620 C -0.04704 0.41283 0.27916
 C621 C -0.05257 0.39526 0.30541
 C622 C -0.07632 0.37604 0.30577
 H623 H -0.12164 0.34011 0.29991
 H624 H -0.10382 0.40279 0.20675
 H625 H -0.06098 0.42431 0.23273
 H626 H -0.08005 0.36257 0.32626
 H627 H -0.14386 0.36772 0.20647
 H628 H -0.03826 0.39626 0.32553
 C629 C 0.15081 0.36844 0.76662
 C630 C 0.15820 0.34878 0.74133
 C631 C 0.13843 0.35046 0.71589
 C632 C 0.11151 0.37103 0.71585
 C633 C 0.10412 0.39034 0.74158
 C634 C 0.12400 0.38898 0.76677
 C635 C 0.07687 0.41045 0.74174
 C636 C 0.05712 0.41162 0.71636
 C637 C 0.06465 0.39244 0.69090
 C638 C 0.09169 0.37236 0.69057
 H639 H 0.14388 0.33585 0.69601
 H640 H 0.11871 0.40361 0.78669
 H641 H 0.07086 0.42502 0.76155
 H642 H 0.09699 0.35771 0.67067
 H643 H 0.16544 0.36762 0.78661
 H644 H 0.04950 0.39301 0.67128
 C645 C 0.13872 0.62183 0.22525
 C646 C 0.14339 0.64098 0.25084
 C647 C 0.12405 0.63990 0.27594
 C648 C 0.10022 0.62059 0.27532
 C649 C 0.09563 0.60173 0.24935
 C650 C 0.11513 0.60239 0.22454
 C651 C 0.07141 0.58287 0.24854
 C652 C 0.05179 0.58278 0.27337
 C653 C 0.05651 0.60150 0.29906
 C654 C 0.08063 0.62017 0.30013
 H655 H 0.12723 0.65416 0.29600
 H656 H 0.11196 0.58808 0.20446
 H657 H 0.06752 0.56862 0.22857
 H658 H 0.08377 0.63451 0.32019
 H659 H 0.15304 0.62201 0.20550
 H660 H 0.04135 0.60173 0.31825
 C661 C 0.68905 -0.10862 0.66756
 C662 C 0.71401 -0.13189 0.66569
 C663 C 0.73662 -0.12796 0.64424
 C664 C 0.73451 -0.10088 0.62523
 C665 C 0.70924 -0.07769 0.62733
 C666 C 0.68661 -0.08184 0.64848
 C667 C 0.70711 -0.05061 0.60842
 C668 C 0.72997 -0.04629 0.58749
 C669 C 0.75525 -0.06914 0.58583
 C670 C 0.75740 -0.09638 0.60438
 H671 H 0.75614 -0.14554 0.64278
 H672 H 0.66708 -0.06431 0.65037
 H673 H 0.68773 -0.03280 0.60994
 H674 H 0.77704 -0.11377 0.60260
 H675 H 0.67117 -0.11120 0.68363
 H676 H 0.77330 -0.06581 0.57015
 C677 C 0.22555 -0.15872 0.37349
 C678 C 0.25030 -0.16586 0.35410
 C679 C 0.27568 -0.14878 0.35741
 C680 C 0.27601 -0.12436 0.37908
 C681 C 0.25070 -0.11694 0.39796
 C682 C 0.22575 -0.13450 0.39521
 C683 C 0.25049 -0.09155 0.41866
 C684 C 0.27522 -0.07349 0.42057
 C685 C 0.30045 -0.08134 0.40214
 C686 C 0.30095 -0.10672 0.38168
 H687 H 0.29514 -0.15421 0.34301
 H688 H 0.20617 -0.12915 0.40949
 H689 H 0.23082 -0.08515 0.43261
 H690 H 0.32054 -0.11209 0.36742
 H691 H 0.20563 -0.17129 0.37147
 H692 H 0.31954 -0.06736 0.40326
 C693 C 0.77470 0.15214 0.37446
 C694 C 0.75068 0.15989 0.35360
 C695 C 0.72502 0.14304 0.35516
 C696 C 0.72373 0.11832 0.37652
 C697 C 0.74827 0.11038 0.39694
 C698 C 0.77350 0.12765 0.39592
 C699 C 0.74743 0.08486 0.41754
 C700 C 0.72237 0.06716 0.41785
 C701 C 0.69796 0.07542 0.39773
 C702 C 0.69853 0.10092 0.37735
 H703 H 0.70608 0.14886 0.33964
 H704 H 0.79253 0.12192 0.41140
 H705 H 0.76649 0.07817 0.43276
 H706 H 0.67952 0.10666 0.36185
 H707 H 0.79481 0.16449 0.37390
 H708 H 0.67863 0.06178 0.39758
 C709 C 0.31133 0.11154 0.65900
 C710 C 0.28474 0.13285 0.65877
 C711 C 0.26010 0.12577 0.64040
 C712 C 0.26191 0.09790 0.62278
 C713 C 0.28872 0.07667 0.62342
 C714 C 0.31329 0.08376 0.64153
 C715 C 0.29050 0.04874 0.60593
 C716 C 0.26590 0.04193 0.58763
 C717 C 0.23928 0.06297 0.58716
 C718 C 0.23730 0.09083 0.60455
 H719 H 0.23940 0.14174 0.63971
 H720 H 0.33406 0.06781 0.64219
 H721 H 0.31101 0.03236 0.60632
 H722 H 0.21656 0.10682 0.60377
 H723 H 0.33080 0.11611 0.67269
 H724 H 0.22008 0.05778 0.57325
   
