data_POSCAR
  _audit_creation_date              2014-09-24
  _audit_creation_method            'ToBaCCo'
  _symmetry_space_group_name_H-M    'P1'
  _symmetry_Int_Tables_number       1
  _symmetry_cell_setting            triclinic
  loop_
  _symmetry_equiv_pos_as_xyz
 x,y,z
_cell_length_a 24.5753
_cell_length_b 24.9737
_cell_length_c 24.8284
_cell_angle_alpha 90.711600
_cell_angle_beta 90.748200
_cell_angle_gamma 89.891900
loop_
  _atom_site_label
  _atom_site_type_symbol
  _atom_site_fract_x
  _atom_site_fract_y
  _atom_site_fract_z
C1 C 0.00102 0.45027 0.20574
 C2 C 0.05132 0.45376 0.24227
 C3 C 0.05257 0.49796 0.27487
 C4 C 0.00252 0.53508 0.26831
 C5 C -0.04726 0.45379 0.24363
 C6 C -0.04699 0.49799 0.27620
 C7 C 0.00004 0.50306 0.17466
 C8 C 0.00083 0.54753 0.20751
 H9 H 0.08464 0.42511 0.24045
 H10 H 0.00318 0.57096 0.29521
 H11 H -0.08075 0.42538 0.24242
 H12 H -0.00138 0.50510 0.13099
 C13 C 0.00681 0.44582 0.78919
 C14 C -0.03834 0.44726 0.75091
 C15 C -0.03770 0.49318 0.71713
 C16 C 0.00839 0.52900 0.72778
 C17 C 0.05567 0.44890 0.75717
 C18 C 0.05659 0.49475 0.72333
 C19 C 0.00414 0.49610 0.81960
 C20 C 0.00507 0.54211 0.78528
 H21 H -0.07297 0.42016 0.75210
 H22 H 0.00918 0.56444 0.70100
 H23 H 0.08993 0.42143 0.76093
 H24 H 0.00165 0.49885 0.86324
 C25 C 0.21926 -0.00082 0.44130
 C26 C 0.25643 0.04790 0.44609
 C27 C 0.28797 0.04895 0.49154
 C28 C 0.27991 0.00016 0.52838
 C29 C 0.25701 -0.04917 0.44572
 C30 C 0.28853 -0.04921 0.49121
 C31 C 0.18633 -0.00053 0.49348
 C32 C 0.21821 -0.00004 0.53913
 H33 H 0.25490 0.08089 0.41793
 H34 H 0.30608 0.00059 0.56522
 H35 H 0.25559 -0.08281 0.41751
 H36 H 0.14215 -0.00107 0.49428
 C37 C 0.77083 -0.00582 0.43524
 C38 C 0.73269 -0.04968 0.43740
 C39 C 0.70034 -0.04899 0.48466
 C40 C 0.71154 -0.00405 0.52114
 C41 C 0.73666 0.04500 0.44088
 C42 C 0.70572 0.04609 0.48595
 C43 C 0.80465 -0.00850 0.48763
 C44 C 0.77318 -0.00747 0.53268
 H45 H 0.73381 -0.08391 0.40987
 H46 H 0.68581 -0.00312 0.55766
 H47 H 0.73973 0.07880 0.41389
 H48 H 0.84882 -0.01005 0.48903
 C49 C 0.44134 0.22359 1.00296
 C50 C 0.44547 0.25694 1.05116
 C51 C 0.49330 0.28953 1.05312
 C52 C 0.52821 0.28274 1.00579
 C53 C 0.44435 0.26014 0.95804
 C54 C 0.49226 0.29267 0.95910
 C55 C 0.49157 0.19224 1.00151
 C56 C 0.53971 0.22507 1.00308
 H57 H 0.41762 0.25435 1.08478
 H58 H 0.56512 0.30852 1.00708
 H59 H 0.41646 0.25886 0.92361
 H60 H 0.49282 0.14876 0.99880
 C61 C 0.44441 0.77746 1.00903
 C62 C 0.44808 0.73847 0.96134
 C63 C 0.49376 0.70753 0.96233
 C64 C 0.53145 0.71819 1.01141
 C65 C 0.44841 0.74244 1.05886
 C66 C 0.49403 0.71144 1.06025
 C67 C 0.49434 0.80839 1.00853
 C68 C 0.54215 0.77553 1.00987
 H69 H 0.41986 0.73893 0.92723
 H70 H 0.56843 0.69246 1.01256
 H71 H 0.41964 0.74449 1.09173
 H72 H 0.49555 0.85178 1.00585
 B73 B 0.99109 1.05170 0.02225
 B74 B 1.02539 0.99742 0.04340
 B75 B 0.95707 0.99740 0.04247
 B76 B 0.93550 1.03068 -0.01226
 B77 B 0.99095 1.05102 -0.04541
 B78 B 1.04644 1.03056 -0.01102
 B79 B 0.99120 0.94214 -0.04595
 B80 B 0.95670 0.99647 -0.06702
 B81 B 1.02533 0.99650 -0.06638
 B82 B 1.04642 0.96334 -0.01131
 B83 B 0.99135 0.94264 0.02191
 B84 B 0.93586 0.96318 -0.01254
 B85 B 0.56096 0.49976 0.47478
 B86 B 0.56144 0.50008 0.54245
 B87 B 0.53971 0.55417 0.50909
 B88 B 0.50521 0.53319 0.45399
 B89 B 0.50544 0.46571 0.45314
 B90 B 0.54023 0.44537 0.50823
 B91 B 0.45071 0.49993 0.54218
 B92 B 0.44986 0.49961 0.47423
 B93 B 0.47156 0.44502 0.50797
 B94 B 0.50648 0.46635 0.56318
 B95 B 0.50627 0.53359 0.56343
 B96 B 0.47139 0.55433 0.50884
 C97 C 0.99719 1.30303 0.12857
 C98 C 0.97375 1.26279 0.16841
 C99 C 0.97216 1.21154 0.14919
 C100 C 0.99415 1.20545 0.09199
 C101 C 1.05172 1.22918 0.09463
 C102 C 1.05332 1.28050 0.11391
 C103 C 0.96236 1.29633 0.07717
 C104 C 0.96075 1.24496 0.05791
 C105 C 0.99884 1.35770 0.15086
 C106 C 0.99999 1.40087 0.17312
 C107 C 0.99252 1.15038 0.07125
 C108 C 0.99154 1.10590 0.05213
 H109 H 0.95957 1.27367 0.20832
 H110 H 0.95668 1.17853 0.17254
 H111 H 1.08797 1.20768 0.08214
 H112 H 1.09095 1.30299 0.11796
 H113 H 0.94116 1.32902 0.05748
 H114 H 0.93815 1.23362 0.02167
 C115 C 0.99691 0.69950 0.14361
 C116 C 0.98504 0.69830 0.08272
 C117 C 0.98364 0.74772 0.06006
 C118 C 0.99426 0.79373 0.10041
 C119 C 1.04910 0.78014 0.12729
 C120 C 1.05050 0.73067 0.14998
 C121 C 0.95332 0.73681 0.16731
 C122 C 0.95193 0.78631 0.14462
 C123 C 0.99840 0.64580 0.16768
 C124 C 0.99955 0.60131 0.18640
 C125 C 0.99284 0.84677 0.07533
 C126 C 0.99193 0.88950 0.05315
 H127 H 0.97829 0.66179 0.05940
 H128 H 0.97564 0.75348 0.01740
 H129 H 1.08377 0.80705 0.12847
 H130 H 1.08638 0.71525 0.17056
 H131 H 0.92599 0.72538 0.19917
 H132 H 0.92345 0.81722 0.15706
 C133 C 1.00104 1.30238 -0.13948
 C134 C 1.03434 1.29159 -0.08810
 C135 C 1.03158 1.23974 -0.07190
 C136 C 0.99578 1.20420 -0.10883
 C137 C 1.01924 1.21011 -0.16522
 C138 C 1.02201 1.26180 -0.18137
 C139 C 0.94302 1.28407 -0.12701
 C140 C 0.94025 1.23229 -0.11080
 C141 C 1.00385 1.35709 -0.15890
 C142 C 1.00560 1.39991 -0.18026
 C143 C 0.99303 1.14898 -0.09137
 C144 C 0.99148 1.10446 -0.07418
 H145 H 1.05763 1.32190 -0.06623
 H146 H 1.05256 1.22550 -0.03606
 H147 H 1.03254 1.17672 -0.19023
 H148 H 1.03779 1.27278 -0.22037
 H149 H 0.90736 1.30963 -0.13022
 H150 H 0.90224 1.21332 -0.10007
 C151 C 0.99839 0.69344 -0.15703
 C152 C 0.94288 0.70883 -0.13371
 C153 C 0.94091 0.75988 -0.11386
 C154 C 0.99463 0.79043 -0.11935
 C155 C 1.00805 0.78726 -0.17947
 C156 C 1.01002 0.73617 -0.19932
 C157 C 1.03956 0.70433 -0.11123
 C158 C 1.03760 0.75536 -0.09141
 C159 C 1.00064 0.63850 -0.17813
 C160 C 1.00267 0.59325 -0.19527
 C161 C 0.99273 0.84485 -0.09726
 C162 C 0.99168 0.88859 -0.07665
 H163 H 0.90822 0.68198 -0.13280
 H164 H 0.90458 0.77682 -0.09589
 H165 H 1.01533 0.82200 -0.20421
 H166 H 1.01900 0.72708 -0.24115
 H167 H 1.06769 0.67456 -0.09562
 H168 H 1.06401 0.76933 -0.05878
 C169 C 1.14050 0.99814 0.29326
 C170 C 1.14425 0.94356 0.26435
 C171 C 1.12290 0.94347 0.21342
 C172 C 1.09995 0.99797 0.19642
 C173 C 1.14705 1.03751 0.20463
 C174 C 1.16837 1.03761 0.25553
 C175 C 1.07993 1.01311 0.29096
 C176 C 1.05859 1.01303 0.23999
 C177 C 1.16454 0.99834 0.34766
 C178 C 1.18726 0.99866 0.39099
 C179 C 1.07682 0.99790 0.14182
 C180 C 1.05609 0.99779 0.09767
 H181 H 1.16198 0.90807 0.28236
 H182 H 1.12234 0.90793 0.18776
 H183 H 1.16225 1.06323 0.17328
 H184 H 1.20191 1.06346 0.26779
 H185 H 1.05594 1.02287 0.32617
 H186 H 1.01630 1.02282 0.23151
 C187 C 1.15049 0.99828 -0.30958
 C188 C 1.19144 0.99268 -0.26268
 C189 C 1.16784 0.99208 -0.21324
 C190 C 1.10558 0.99714 -0.21548
 C191 C 1.08647 0.95155 -0.25318
 C192 C 1.11005 0.95214 -0.30257
 C193 C 1.11792 1.04921 -0.29635
 C194 C 1.09434 1.04860 -0.24697
 C195 C 1.17563 0.99894 -0.36314
 C196 C 1.19546 0.99945 -0.40744
 C197 C 1.07967 0.99658 -0.16247
 C198 C 1.05700 0.99635 -0.11967
 H199 H 1.23512 0.98948 -0.26786
 H200 H 1.19130 0.98837 -0.17611
 H201 H 1.05688 0.92153 -0.24209
 H202 H 1.10066 0.92259 -0.33374
 H203 H 1.11367 1.08278 -0.32346
 H204 H 1.06987 1.08162 -0.23183
 C205 C 0.84691 0.99431 0.28929
 C206 C 0.87191 1.04835 0.27460
 C207 C 0.89201 1.04923 0.22382
 C208 C 0.88499 0.99598 0.19306
 C209 C 0.82400 0.98375 0.19446
 C210 C 0.80391 0.98286 0.24520
 C211 C 0.89202 0.95288 0.27982
 C212 C 0.91213 0.95375 0.22900
 C213 C 0.82420 0.99359 0.34309
 C214 C 0.80214 0.99353 0.38587
 C215 C 0.90676 0.99694 0.13905
 C216 C 0.92683 0.99748 0.09545
 H217 H 0.87388 1.08274 0.30172
 H218 H 0.91128 1.08438 0.20727
 H219 H 0.79887 0.97638 0.15884
 H220 H 0.76140 0.97470 0.25318
 H221 H 0.90697 0.92551 0.31028
 H222 H 0.94441 0.92711 0.21575
 C223 C 0.83809 0.99324 -0.31438
 C224 C 0.90018 0.99965 -0.31312
 C225 C 0.92200 1.00034 -0.26246
 C226 C 0.87953 0.99456 -0.21812
 C227 C 0.84889 0.94267 -0.23215
 C228 C 0.82704 0.94197 -0.28287
 C229 C 0.81650 1.03903 -0.27871
 C230 C 0.83834 1.03972 -0.22800
 C231 C 0.81482 0.99262 -0.36887
 C232 C 0.79587 0.99240 -0.41376
 C233 C 0.90358 0.99534 -0.16412
 C234 C 0.92537 0.99593 -0.12059
 H235 H 0.92484 1.00328 -0.34885
 H236 H 0.96539 1.00458 -0.25472
 H237 H 0.84470 0.90946 -0.20470
 H238 H 0.80409 0.90814 -0.29896
 H239 H 0.78666 1.06826 -0.29209
 H240 H 0.82725 1.06951 -0.19784
 C241 C 1.29612 1.14637 -0.00242
 C242 C 1.28762 1.10633 -0.04917
 C243 C 1.23674 1.08467 -0.05120
 C244 C 1.19942 1.10520 -0.00628
 C245 C 1.19962 1.16631 -0.01124
 C246 C 1.25044 1.18795 -0.00922
 C247 C 1.28145 1.11543 0.04839
 C248 C 1.23058 1.09377 0.04636
 C249 C 1.35044 1.17069 -0.00028
 C250 C 1.39366 1.19354 0.00133
 C251 C 1.14489 1.08172 -0.00839
 C252 C 1.10079 1.06089 -0.00983
 H253 H 1.31885 1.09576 -0.07796
 H254 H 1.22436 1.05550 -0.08174
 H255 H 1.16309 1.19045 -0.01587
 H256 H 1.25743 1.23073 -0.01216
 H257 H 1.30868 1.11072 0.08279
 H258 H 1.21423 1.07046 0.07902
 C259 C 0.68993 1.15804 -0.00415
 C260 C 0.73774 1.19618 0.00758
 C261 C 0.78751 1.17194 0.00524
 C262 C 0.78468 1.11189 -0.00859
 C263 C 0.75205 1.10844 -0.06167
 C264 C 0.70232 1.13268 -0.05934
 C265 C 0.69737 1.11233 0.03612
 C266 C 0.74706 1.08813 0.03379
 C267 C 0.63590 1.18376 -0.00153
 C268 C 0.59106 1.20373 0.00066
 C269 C 0.83810 1.08526 -0.01084
 C270 C 0.88132 1.06223 -0.01201
 H271 H 0.73293 1.23851 0.01684
 H272 H 0.82528 1.19352 0.01248
 H273 H 0.76673 1.08871 -0.09791
 H274 H 0.67447 1.13368 -0.09362
 H275 H 0.66626 1.09998 0.06400
 H276 H 0.75843 1.05506 0.05964
 C277 C 1.29666 0.85358 0.00159
 C278 C 1.26813 0.84168 -0.05262
 C279 C 1.21672 0.86177 -0.05595
 C280 C 1.19921 0.89163 -0.00474
 C281 C 1.24287 0.93470 0.00521
 C282 C 1.29433 0.91461 0.00855
 C283 C 1.25840 0.83151 0.04434
 C284 C 1.20701 0.85159 0.04100
 C285 C 1.35114 0.83090 0.00500
 C286 C 1.39446 0.80885 0.00724
 C287 C 1.14451 0.91339 -0.00811
 C288 C 1.10030 0.93339 -0.01015
 H289 H 1.28672 0.81954 -0.08551
 H290 H 1.19110 0.85689 -0.09163
 H291 H 1.23409 0.97717 0.00928
 H292 H 1.32978 0.93976 0.01546
 H293 H 1.27064 0.80271 0.07461
 H294 H 1.17505 0.84006 0.06832
 C295 C 0.69149 0.84003 -0.00038
 C296 C 0.72764 0.83170 0.04970
 C297 C 0.77758 0.85486 0.04617
 C298 C 0.78629 0.88398 -0.00708
 C299 C 0.73907 0.92404 -0.01133
 C300 C 0.68918 0.90091 -0.00781
 C301 C 0.72506 0.81870 -0.04780
 C302 C 0.77503 0.84187 -0.05132
 C303 C 0.63769 0.81562 0.00345
 C304 C 0.59302 0.79642 0.00656
 C305 C 0.83946 0.90939 -0.01051
 C306 C 0.88247 0.93191 -0.01228
 H307 H 0.71514 0.80956 0.08479
 H308 H 0.80795 0.85261 0.07824
 H309 H 0.74436 0.96682 -0.01662
 H310 H 0.65165 0.92385 -0.01007
 H311 H 0.71086 0.78811 -0.07604
 H312 H 0.80374 0.83118 -0.08257
 C313 C 0.80938 0.51259 0.35730
 C314 C 0.79088 0.45533 0.36962
 C315 C 0.74062 0.45266 0.39183
 C316 C 0.71348 0.50747 0.39963
 C317 C 0.71344 0.53298 0.34373
 C318 C 0.76379 0.53567 0.32150
 C319 C 0.80506 0.54318 0.41108
 C320 C 0.75461 0.54052 0.43334
 C321 C 0.86330 0.51368 0.33211
 C322 C 0.90581 0.50972 0.30844
 C323 C 0.65928 0.50408 0.42361
 C324 C 0.61537 0.50140 0.44453
 H325 H 0.81530 0.41989 0.36171
 H326 H 0.72202 0.41502 0.40290
 H327 H 0.67709 0.54776 0.32346
 H328 H 0.77052 0.55281 0.28217
 H329 H 0.83855 0.56493 0.43000
 H330 H 0.74494 0.56001 0.47138
 C331 C 0.19864 0.51187 0.35580
 C332 C 0.20813 0.55264 0.40172
 C333 C 0.25913 0.55002 0.42412
 C334 C 0.29561 0.50689 0.39836
 C335 C 0.29536 0.51960 0.33808
 C336 C 0.24449 0.52221 0.31574
 C337 C 0.21247 0.45728 0.38042
 C338 C 0.26331 0.45468 0.40275
 C339 C 0.14407 0.51295 0.33050
 C340 C 0.10089 0.50919 0.30687
 C341 C 0.35045 0.50364 0.42246
 C342 C 0.39488 0.50110 0.44355
 H343 H 0.17754 0.58086 0.41555
 H344 H 0.27217 0.57601 0.45720
 H345 H 0.33193 0.52601 0.31497
 H346 H 0.23755 0.53096 0.27348
 H347 H 0.18458 0.42361 0.38053
 H348 H 0.27892 0.41886 0.42195
 C349 C 0.81631 0.51237 0.64753
 C350 C 0.81061 0.48547 0.59186
 C351 C 0.75833 0.48320 0.57319
 C352 C 0.71699 0.50808 0.61204
 C353 C 0.73739 0.56543 0.62274
 C354 C 0.78981 0.56770 0.64151
 C355 C 0.77785 0.48107 0.68392
 C356 C 0.72566 0.47883 0.66526
 C357 C 0.87206 0.51244 0.66886
 C358 C 0.91603 0.50653 0.68978
 C359 C 0.66117 0.50491 0.59160
 C360 C 0.61620 0.50205 0.57237
 H361 H 0.84462 0.46989 0.56899
 H362 H 0.74749 0.46555 0.53432
 H363 H 0.71285 0.60101 0.61620
 H364 H 0.81032 0.60517 0.65098
 H365 H 0.79057 0.46239 0.72131
 H366 H 0.69363 0.45833 0.68653
 C367 C 0.20048 0.51165 0.65206
 C368 C 0.23793 0.47149 0.68087
 C369 C 0.28911 0.46927 0.66084
 C370 C 0.29787 0.50741 0.61398
 C371 C 0.28206 0.56310 0.63571
 C372 C 0.23068 0.56532 0.65584
 C373 C 0.20209 0.49526 0.59234
 C374 C 0.25338 0.49304 0.57228
 C375 C 0.14581 0.51193 0.67467
 C376 C 0.10255 0.50675 0.69608
 C377 C 0.35265 0.50436 0.59219
 C378 C 0.39682 0.50169 0.57225
 H379 H 0.22532 0.44693 0.71425
 H380 H 0.32034 0.44292 0.67697
 H381 H 0.30877 0.59767 0.63520
 H382 H 0.21326 0.60177 0.67256
 H383 H 0.16618 0.48645 0.56791
 H384 H 0.26146 0.48224 0.53064
 C385 C 0.51332 0.63928 0.20529
 C386 C 0.55102 0.59109 0.21414
 C387 C 0.54948 0.57189 0.26530
 C388 C 0.51039 0.60292 0.30221
 C389 C 0.45517 0.60103 0.27291
 C390 C 0.45670 0.62016 0.22195
 C391 C 0.53025 0.68060 0.24865
 C392 C 0.52869 0.66145 0.29969
 C393 C 0.51293 0.66111 0.15098
 C394 C 0.50738 0.68228 0.10804
 C395 C 0.50813 0.58215 0.35670
 C396 C 0.50615 0.56287 0.40062
 H397 H 0.57638 0.57351 0.18310
 H398 H 0.57351 0.53770 0.27816
 H399 H 0.41817 0.58583 0.29056
 H400 H 0.42092 0.62131 0.19584
 H401 H 0.54246 0.72133 0.23999
 H402 H 0.53939 0.68570 0.33482
 C403 C 0.51545 0.63618 0.81625
 C404 C 0.48405 0.58354 0.80864
 C405 C 0.48265 0.56540 0.75673
 C406 C 0.51282 0.60174 0.71767
 C407 C 0.57073 0.60688 0.74129
 C408 C 0.57211 0.62512 0.79335
 C409 C 0.48850 0.67530 0.77668
 C410 C 0.48713 0.65717 0.72485
 C411 C 0.51467 0.65710 0.87143
 C412 C 0.50838 0.67801 0.91475
 C413 C 0.51051 0.58200 0.66224
 C414 C 0.50813 0.56327 0.61758
 H415 H 0.46500 0.56216 0.84119
 H416 H 0.46234 0.52847 0.74471
 H417 H 0.60729 0.59691 0.71918
 H418 H 0.60980 0.63080 0.81596
 H419 H 0.47202 0.71404 0.78840
 H420 H 0.46956 0.68024 0.69214
 C421 C 0.51333 0.35865 0.19957
 C422 C 0.48755 0.41452 0.20467
 C423 C 0.48623 0.43380 0.25627
 C424 C 0.51081 0.39542 0.29794
 C425 C 0.56857 0.38356 0.27779
 C426 C 0.56988 0.36418 0.22608
 C427 C 0.48091 0.32357 0.23819
 C428 C 0.47961 0.34284 0.28971
 C429 C 0.51267 0.33672 0.14409
 C430 C 0.50674 0.31605 0.10006
 C431 C 0.50869 0.41652 0.35350
 C432 C 0.50668 0.43586 0.39826
 H433 H 0.47199 0.43711 0.17070
 H434 H 0.46947 0.47286 0.26641
 H435 H 0.60516 0.38994 0.30198
 H436 H 0.60756 0.35402 0.20602
 H437 H 0.46077 0.28660 0.22607
 H438 H 0.45844 0.32242 0.32160
 C439 C 0.51359 0.36135 0.81504
 C440 C 0.54748 0.41235 0.80826
 C441 C 0.54659 0.43132 0.75686
 C442 C 0.51186 0.39744 0.71731
 C443 C 0.45554 0.39502 0.74296
 C444 C 0.45643 0.37609 0.79415
 C445 C 0.53571 0.32151 0.77298
 C446 C 0.53479 0.34046 0.72168
 C447 C 0.51251 0.33976 0.87003
 C448 C 0.50617 0.31921 0.91336
 C449 C 0.51016 0.41812 0.66211
 C450 C 0.50825 0.43708 0.61764
 H451 H 0.57000 0.43188 0.84083
 H452 H 0.56837 0.46716 0.74550
 H453 H 0.41818 0.40729 0.72274
 H454 H 0.41975 0.37220 0.81770
 H455 H 0.55092 0.28190 0.78270
 H456 H 0.54913 0.31709 0.68752
 C457 C 0.63740 0.80639 0.51030
 C458 C 0.58464 0.79846 0.54149
 C459 C 0.56802 0.74640 0.54236
 C460 C 0.60587 0.70779 0.51186
 C461 C 0.66238 0.71645 0.53729
 C462 C 0.67902 0.76843 0.53647
 C463 C 0.62602 0.78221 0.45413
 C464 C 0.60944 0.73039 0.45497
 C465 C 0.65644 0.86159 0.50724
 C466 C 0.67535 0.90508 0.49934
 C467 C 0.58747 0.65240 0.51173
 C468 C 0.56930 0.60789 0.51055
 H469 H 0.56236 0.83068 0.56104
 H470 H 0.53139 0.73394 0.56272
 H471 H 0.68707 0.68468 0.55444
 H472 H 0.71802 0.78130 0.55305
 H473 H 0.63050 0.80400 0.41687
 H474 H 0.59979 0.70768 0.41852
 C475 C 0.63967 0.19356 0.51076
 C476 C 0.62628 0.21500 0.45442
 C477 C 0.60928 0.26679 0.45459
 C478 C 0.60738 0.29208 0.51104
 C479 C 0.66472 0.28479 0.53486
 C480 C 0.68175 0.23287 0.53471
 C481 C 0.58790 0.20280 0.54343
 C482 C 0.57086 0.25481 0.54361
 C483 C 0.65920 0.13834 0.50847
 C484 C 0.67853 0.09466 0.50125
 C485 C 0.58865 0.34741 0.51037
 C486 C 0.57024 0.39186 0.50913
 H487 H 0.62961 0.19142 0.41757
 H488 H 0.59805 0.28766 0.41795
 H489 H 0.68964 0.31743 0.55055
 H490 H 0.72135 0.22092 0.55038
 H491 H 0.56652 0.17144 0.56436
 H492 H 0.53476 0.26811 0.56475
 C493 C 0.36221 0.80495 0.51279
 C494 C 0.32219 0.76314 0.48956
 C495 C 0.34198 0.71217 0.48935
 C496 C 0.39993 0.70774 0.51237
 C497 C 0.39730 0.73342 0.56889
 C498 C 0.37742 0.78456 0.56911
 C499 C 0.41402 0.79780 0.47954
 C500 C 0.43381 0.74678 0.47931
 C501 C 0.33966 0.85962 0.51118
 C502 C 0.31819 0.90275 0.50512
 C503 C 0.42152 0.65284 0.51144
 C504 C 0.44121 0.60857 0.51010
 H505 H 0.28166 0.77277 0.47463
 H506 H 0.31849 0.67825 0.47427
 H507 H 0.41005 0.71326 0.60544
 H508 H 0.37316 0.80819 0.60581
 H509 H 0.43369 0.83008 0.45836
 H510 H 0.47039 0.73540 0.45788
 C511 C 0.36241 0.19480 0.51229
 C512 C 0.41505 0.20034 0.48019
 C513 C 0.43496 0.25124 0.47962
 C514 C 0.40035 0.29180 0.51122
 C515 C 0.39632 0.26840 0.56803
 C516 C 0.37632 0.21739 0.56859
 C517 C 0.32305 0.23588 0.48747
 C518 C 0.34295 0.28671 0.48691
 C519 C 0.33966 0.14023 0.51106
 C520 C 0.31795 0.09710 0.50527
 C521 C 0.42196 0.34660 0.51000
 C522 C 0.44155 0.39083 0.50869
 H523 H 0.43517 0.16711 0.46000
 H524 H 0.47209 0.26157 0.45892
 H525 H 0.40833 0.28993 0.60453
 H526 H 0.37119 0.19526 0.60553
 H527 H 0.28287 0.22585 0.47173
 H528 H 0.31988 0.32012 0.47074
   
