data_POSCAR
  _audit_creation_date              2014-09-24
  _audit_creation_method            'ToBaCCo'
  _symmetry_space_group_name_H-M    'P1'
  _symmetry_Int_Tables_number       1
  _symmetry_cell_setting            triclinic
  loop_
  _symmetry_equiv_pos_as_xyz
 x,y,z
_cell_length_a 49.9179
_cell_length_b 49.9182
_cell_length_c 40.6775
_cell_angle_alpha 89.965800
_cell_angle_beta 89.965800
_cell_angle_gamma 89.961400
loop_
  _atom_site_label
  _atom_site_type_symbol
  _atom_site_fract_x
  _atom_site_fract_y
  _atom_site_fract_z
O1 O 0.02572 0.30725 -0.03134
 O2 O -0.02687 0.30712 0.03257
 O3 O 0.02558 0.30725 0.03269
 O4 O -0.02672 0.30719 -0.03146
 O5 O -0.02647 0.26288 -0.03130
 O6 O 0.02554 0.26295 0.03253
 O7 O -0.02661 0.26283 0.03241
 O8 O 0.02568 0.26295 -0.03118
 Cu9 Cu -0.00058 0.31170 0.00062
 Cu10 Cu -0.00045 0.25846 0.00062
 C11 C 0.03468 0.28505 -0.04186
 C12 C -0.03573 0.28488 0.04309
 C13 C 0.03449 0.28504 0.04325
 C14 C -0.03552 0.28495 -0.04202
 O15 O 0.47377 0.80686 0.53194
 O16 O 0.52609 0.80676 0.46774
 O17 O 0.47364 0.80681 0.46791
 O18 O 0.52622 0.80673 0.53177
 O19 O 0.52603 0.76243 0.53165
 O20 O 0.47375 0.76251 0.46811
 O21 O 0.52591 0.76246 0.46793
 O22 O 0.47387 0.76255 0.53183
 Cu23 Cu 0.49993 0.81129 0.49983
 Cu24 Cu 0.49989 0.75804 0.49988
 C25 C 0.46489 0.78465 0.54253
 C26 C 0.53494 0.78453 0.45719
 C27 C 0.46472 0.78460 0.45741
 C28 C 0.53510 0.78450 0.54230
 O29 O 1.02722 0.69381 0.03189
 O30 O 0.97470 0.69376 -0.03204
 O31 O 1.02715 0.69380 -0.03215
 O32 O 0.97477 0.69371 0.03199
 O33 O 0.97482 0.73801 0.03182
 O34 O 1.02691 0.73810 -0.03201
 O35 O 0.97475 0.73806 -0.03190
 O36 O 1.02698 0.73811 0.03171
 Cu37 Cu 1.00097 0.68927 -0.00008
 Cu38 Cu 1.00086 0.74251 -0.00010
 C39 C 1.03607 0.71605 0.04241
 C40 C 0.96576 0.71597 -0.04257
 C41 C 1.03597 0.71603 -0.04273
 C42 C 0.96585 0.71592 0.04254
 O43 O 0.52620 0.19215 0.53200
 O44 O 0.47391 0.19211 0.46783
 O45 O 0.52636 0.19225 0.46797
 O46 O 0.47375 0.19210 0.53187
 O47 O 0.47380 0.23640 0.53173
 O48 O 0.52610 0.23655 0.46815
 O49 O 0.47395 0.23641 0.46801
 O50 O 0.52595 0.23645 0.53186
 Cu51 Cu 0.50006 0.18765 0.49991
 Cu52 Cu 0.49993 0.24090 0.49994
 C53 C 0.53500 0.21438 0.54257
 C54 C 0.46501 0.21432 0.45727
 C55 C 0.53521 0.21450 0.45747
 C56 C 0.46480 0.21430 0.54240
 O57 O 0.69279 -0.02593 0.03134
 O58 O 0.69285 0.02666 -0.03256
 O59 O 0.69279 -0.02579 -0.03269
 O60 O 0.69278 0.02651 0.03146
 O61 O 0.73709 0.02631 0.03130
 O62 O 0.73709 -0.02569 -0.03253
 O63 O 0.73715 0.02646 -0.03241
 O64 O 0.73709 -0.02583 0.03118
 Cu65 Cu 0.68830 0.00037 -0.00061
 Cu66 Cu 0.74155 0.00030 -0.00062
 C67 C 0.71500 -0.03486 0.04187
 C68 C 0.71508 0.03555 -0.04309
 C69 C 0.71501 -0.03467 -0.04325
 C70 C 0.71501 0.03534 0.04202
 O71 O 0.19315 0.47381 0.53225
 O72 O 0.19303 0.52612 0.46805
 O73 O 0.19318 0.47368 0.46823
 O74 O 0.19307 0.52626 0.53209
 O75 O 0.23738 0.52617 0.53189
 O76 O 0.23749 0.47389 0.46835
 O77 O 0.23733 0.52605 0.46816
 O78 O 0.23746 0.47401 0.53206
 Cu79 Cu 0.18861 0.49996 0.50016
 Cu80 Cu 0.24186 0.50004 0.50011
 C81 C 0.21539 0.46497 0.54280
 C82 C 0.21523 0.53502 0.45745
 C83 C 0.21543 0.46481 0.45770
 C84 C 0.21528 0.53519 0.54259
 O85 O 0.30615 1.02718 0.03204
 O86 O 0.30625 0.97466 -0.03189
 O87 O 0.30619 1.02711 -0.03199
 O88 O 0.30628 0.97473 0.03214
 O89 O 0.26197 0.97483 0.03201
 O90 O 0.26189 1.02692 -0.03181
 O91 O 0.26195 0.97476 -0.03171
 O92 O 0.26185 1.02699 0.03191
 Cu93 Cu 0.31071 1.00093 0.00007
 Cu94 Cu 0.25748 1.00087 0.00010
 C95 C 0.28391 1.03606 0.04259
 C96 C 0.28405 0.96575 -0.04240
 C97 C 0.28396 1.03597 -0.04255
 C98 C 0.28407 0.96584 0.04271
 O99 O 0.80778 0.52590 0.53217
 O100 O 0.80773 0.47362 0.46801
 O101 O 0.80779 0.52606 0.46814
 O102 O 0.80763 0.47345 0.53203
 O103 O 0.76333 0.47372 0.53185
 O104 O 0.76348 0.52602 0.46828
 O105 O 0.76342 0.47388 0.46814
 O106 O 0.76348 0.52587 0.53199
 Cu107 Cu 0.81223 0.49975 0.50009
 Cu108 Cu 0.75898 0.49989 0.50006
 C109 C 0.78557 0.53481 0.54272
 C110 C 0.78550 0.46482 0.45743
 C111 C 0.78559 0.53502 0.45761
 C112 C 0.78538 0.46461 0.54254
 C113 C 0.24293 0.20842 0.19425
 C114 C 0.21984 0.21987 0.18091
 C115 C 0.20848 0.24292 0.19447
 C116 C 0.22038 0.25508 0.22220
 C117 C 0.24386 0.24364 0.23600
 C118 C 0.25521 0.22019 0.22198
 C119 C 0.27847 0.20919 0.23605
 C120 C 0.29039 0.22099 0.26341
 C121 C 0.27948 0.24422 0.27767
 C122 C 0.25600 0.25566 0.26386
 C123 C 0.20948 0.27831 0.23646
 C124 C 0.22140 0.29012 0.26380
 C125 C 0.24466 0.27911 0.27787
 C126 C 0.25694 0.29089 0.30560
 C127 C 0.28002 0.27943 0.31896
 C128 C 0.29137 0.25637 0.30541
 H129 H 0.28766 0.19133 0.22600
 H130 H 0.30827 0.21173 0.27330
 H131 H 0.19159 0.28757 0.22657
 H132 H 0.21221 0.30798 0.27385
 H133 H 0.21054 0.21068 0.15959
 H134 H 0.28932 0.28863 0.34027
 C135 C 0.74361 0.70877 0.30545
 C136 C 0.72046 0.72006 0.31886
 C137 C 0.70896 0.74306 0.30534
 C138 C 0.72077 0.75533 0.27759
 C139 C 0.74431 0.74405 0.26373
 C140 C 0.75580 0.72065 0.27770
 C141 C 0.77913 0.70981 0.26358
 C142 C 0.79096 0.72172 0.23621
 C143 C 0.77991 0.74490 0.22198
 C144 C 0.75637 0.75618 0.23585
 C145 C 0.70971 0.77851 0.26336
 C146 C 0.72155 0.79042 0.23600
 C147 C 0.74487 0.77958 0.22187
 C148 C 0.75706 0.79146 0.19412
 C149 C 0.78022 0.78017 0.18071
 C150 C 0.79172 0.75717 0.19424
 H151 H 0.78843 0.69199 0.27360
 H152 H 0.80890 0.71259 0.22628
 H153 H 0.69177 0.78764 0.27330
 H154 H 0.71224 0.80824 0.22598
 H155 H 0.71123 0.71078 0.34019
 H156 H 0.78945 0.78945 0.15938
 C157 C 0.70905 0.25678 0.30551
 C158 C 0.72044 0.27982 0.31900
 C159 C 0.74347 0.29125 0.30548
 C160 C 0.75567 0.27948 0.27767
 C161 C 0.74428 0.25606 0.26372
 C162 C 0.72085 0.24463 0.27768
 C163 C 0.70990 0.22142 0.26347
 C164 C 0.72173 0.20963 0.23604
 C165 C 0.74495 0.22062 0.22182
 C166 C 0.75634 0.24404 0.23577
 C167 C 0.77888 0.29047 0.26345
 C168 C 0.79072 0.27867 0.23602
 C169 C 0.77977 0.25547 0.22181
 C170 C 0.79158 0.24331 0.19399
 C171 C 0.78017 0.22028 0.18050
 C172 C 0.75713 0.20886 0.19400
 H173 H 0.69206 0.21218 0.27348
 H174 H 0.71251 0.19179 0.22604
 H175 H 0.78810 0.30832 0.27345
 H176 H 0.80856 0.28792 0.22602
 H177 H 0.71122 0.28902 0.34038
 H178 H 0.78939 0.21108 0.15912
 C179 C 0.20830 0.75714 0.19405
 C180 C 0.21965 0.78027 0.18069
 C181 C 0.24266 0.79168 0.19422
 C182 C 0.25489 0.77979 0.22193
 C183 C 0.24355 0.75627 0.23577
 C184 C 0.22014 0.74487 0.22178
 C185 C 0.20923 0.72158 0.23588
 C186 C 0.22109 0.70968 0.26323
 C187 C 0.24429 0.72063 0.27746
 C188 C 0.25564 0.74414 0.26362
 C189 C 0.27809 0.79074 0.23616
 C190 C 0.28996 0.77883 0.26349
 C191 C 0.27906 0.75553 0.27759
 C192 C 0.29091 0.74326 0.30531
 C193 C 0.27955 0.72015 0.31870
 C194 C 0.25651 0.70876 0.30519
 H195 H 0.19140 0.71235 0.22585
 H196 H 0.21191 0.69177 0.27315
 H197 H 0.28727 0.80866 0.22625
 H198 H 0.30780 0.78805 0.27351
 H199 H 0.21040 0.78956 0.15938
 H200 H 0.28879 0.71086 0.34001
 C201 C 0.79098 0.24271 0.80600
 C202 C 0.77956 0.21967 0.81950
 C203 C 0.75653 0.20826 0.80601
 C204 C 0.74437 0.22007 0.77819
 C205 C 0.75579 0.24350 0.76423
 C206 C 0.77921 0.25489 0.77818
 C207 C 0.79020 0.27810 0.76396
 C208 C 0.77841 0.28993 0.73653
 C209 C 0.75520 0.27898 0.72232
 C210 C 0.74378 0.25555 0.73628
 C211 C 0.72116 0.20911 0.76398
 C212 C 0.70937 0.22095 0.73655
 C213 C 0.72035 0.24416 0.72233
 C214 C 0.70858 0.25635 0.69452
 C215 C 0.72001 0.27939 0.68101
 C216 C 0.74305 0.29078 0.69449
 H217 H 0.80804 0.28733 0.77396
 H218 H 0.78765 0.30778 0.72652
 H219 H 0.71192 0.19127 0.77399
 H220 H 0.69152 0.21173 0.72655
 H221 H 0.78876 0.21045 0.84089
 H222 H 0.71081 0.28861 0.65962
 C223 C 0.29107 0.74336 0.69470
 C224 C 0.27967 0.72030 0.68128
 C225 C 0.25658 0.70894 0.69475
 C226 C 0.24436 0.72082 0.72248
 C227 C 0.25575 0.74428 0.73636
 C228 C 0.27922 0.75563 0.72242
 C229 C 0.29017 0.77887 0.73654
 C230 C 0.27830 0.79078 0.76388
 C231 C 0.25505 0.77988 0.77808
 C232 C 0.24366 0.75641 0.76421
 C233 C 0.22111 0.70991 0.73669
 C234 C 0.20924 0.72181 0.76403
 C235 C 0.22020 0.74506 0.77816
 C236 C 0.20836 0.75732 0.80588
 C237 C 0.21974 0.78039 0.81929
 C238 C 0.24282 0.79176 0.80580
 H239 H 0.30806 0.78806 0.72655
 H240 H 0.28752 0.80865 0.77381
 H241 H 0.21189 0.69204 0.72674
 H242 H 0.19137 0.71263 0.77403
 H243 H 0.28893 0.71102 0.65997
 H244 H 0.21049 0.78967 0.84060
 C245 C 0.24286 0.20850 0.80617
 C246 C 0.21985 0.22001 0.81965
 C247 C 0.20853 0.24311 0.80615
 C248 C 0.22041 0.25526 0.77836
 C249 C 0.24381 0.24375 0.76442
 C250 C 0.25511 0.22025 0.77837
 C251 C 0.27829 0.20917 0.76417
 C252 C 0.29018 0.22095 0.73675
 C253 C 0.27933 0.24423 0.72255
 C254 C 0.25593 0.25575 0.73650
 C255 C 0.20955 0.27854 0.76417
 C256 C 0.22145 0.29033 0.73676
 C257 C 0.24463 0.27925 0.72256
 C258 C 0.25689 0.29101 0.69477
 C259 C 0.27989 0.27949 0.68127
 C260 C 0.29119 0.25637 0.69475
 H261 H 0.28745 0.19126 0.77417
 H262 H 0.30801 0.21163 0.72675
 H263 H 0.19173 0.28785 0.77416
 H264 H 0.21230 0.30824 0.72677
 H265 H 0.21058 0.21082 0.84101
 H266 H 0.28916 0.28868 0.65991
 C267 C 0.74361 0.70861 0.69437
 C268 C 0.72052 0.71994 0.68089
 C269 C 0.70909 0.74303 0.69426
 C270 C 0.72091 0.75532 0.72195
 C271 C 0.74440 0.74399 0.73589
 C272 C 0.75583 0.72052 0.72206
 C273 C 0.77909 0.70963 0.73625
 C274 C 0.79095 0.72156 0.76355
 C275 C 0.77997 0.74482 0.77764
 C276 C 0.75648 0.75615 0.76371
 C277 C 0.70993 0.77858 0.73605
 C278 C 0.72178 0.79051 0.76335
 C279 C 0.74505 0.77962 0.77754
 C280 C 0.75726 0.79153 0.80523
 C281 C 0.78036 0.78020 0.81871
 C282 C 0.79179 0.75712 0.80533
 H283 H 0.78834 0.69175 0.72633
 H284 H 0.80884 0.71239 0.77354
 H285 H 0.69204 0.78775 0.72606
 H286 H 0.71253 0.80839 0.77327
 H287 H 0.71129 0.71063 0.65960
 H288 H 0.78959 0.78951 0.83999
 C289 C 0.28350 0.05607 0.06515
 C290 C 0.28217 0.07428 0.08455
 C291 C 0.27932 0.09650 0.10683
 C292 C 0.29041 0.12144 0.09880
 C293 C 0.28516 0.14378 0.11853
 C294 C 0.26881 0.14128 0.14637
 C295 C 0.25832 0.11618 0.15490
 C296 C 0.26357 0.09384 0.13517
 C297 C 0.26089 0.16477 0.16443
 C298 C 0.25326 0.18458 0.17856
 H299 H 0.30242 0.12378 0.07680
 H300 H 0.29318 0.16313 0.11154
 H301 H 0.24546 0.11406 0.17620
 H302 H 0.25470 0.07470 0.14146
 C303 C 0.78516 0.55591 0.56662
 C304 C 0.78375 0.57413 0.58598
 C305 C 0.78078 0.59639 0.60814
 C306 C 0.79200 0.62128 0.60016
 C307 C 0.78657 0.64370 0.61967
 C308 C 0.76990 0.64131 0.64724
 C309 C 0.75929 0.61626 0.65574
 C310 C 0.76472 0.59385 0.63622
 C311 C 0.76179 0.66487 0.66501
 C312 C 0.75403 0.68473 0.67891
 H313 H 0.80425 0.62353 0.57833
 H314 H 0.79469 0.66301 0.61272
 H315 H 0.74619 0.61424 0.67684
 H316 H 0.75575 0.57475 0.64246
 C317 C 0.71542 0.94396 0.06570
 C318 C 0.71685 0.92570 0.08503
 C319 C 0.71983 0.90342 0.10721
 C320 C 0.73550 0.90610 0.13558
 C321 C 0.74093 0.88372 0.15519
 C322 C 0.73070 0.85856 0.14651
 C323 C 0.71442 0.85603 0.11864
 C324 C 0.70900 0.87841 0.09903
 C325 C 0.73881 0.83507 0.16446
 C326 C 0.74659 0.81527 0.17851
 H327 H 0.74418 0.92529 0.14198
 H328 H 0.75373 0.88587 0.17653
 H329 H 0.70660 0.83664 0.11154
 H330 H 0.69705 0.87605 0.07699
 C331 C 0.21586 0.44385 0.56671
 C332 C 0.21729 0.42562 0.58606
 C333 C 0.22025 0.40334 0.60823
 C334 C 0.23640 0.40582 0.63622
 C335 C 0.24176 0.38339 0.65578
 C336 C 0.23099 0.35839 0.64741
 C337 C 0.21424 0.35607 0.61993
 C338 C 0.20888 0.37850 0.60038
 C339 C 0.23897 0.33481 0.66525
 C340 C 0.24661 0.31493 0.67922
 H341 H 0.24548 0.42487 0.64236
 H342 H 0.25492 0.38536 0.67680
 H343 H 0.20599 0.33679 0.61308
 H344 H 0.19656 0.37630 0.57863
 C345 C 0.94421 0.28445 0.06562
 C346 C 0.92596 0.28308 0.08497
 C347 C 0.90367 0.28017 0.10715
 C348 C 0.90629 0.26439 0.13547
 C349 C 0.88389 0.25903 0.15508
 C350 C 0.85878 0.26944 0.14645
 C351 C 0.85632 0.28584 0.11864
 C352 C 0.87871 0.29119 0.09903
 C353 C 0.83526 0.26142 0.16437
 C354 C 0.81542 0.25371 0.17840
 H355 H 0.92544 0.25557 0.14183
 H356 H 0.88599 0.24615 0.17636
 H357 H 0.83696 0.29380 0.11157
 H358 H 0.87641 0.30322 0.07704
 C359 C 0.44378 0.78427 0.56645
 C360 C 0.42555 0.78290 0.58583
 C361 C 0.40329 0.78000 0.60804
 C362 C 0.37841 0.79129 0.60010
 C363 C 0.35600 0.78597 0.61969
 C364 C 0.35838 0.76933 0.64729
 C365 C 0.38341 0.75865 0.65574
 C366 C 0.40582 0.76397 0.63615
 C367 C 0.33482 0.76135 0.66516
 C368 C 0.31496 0.75368 0.67915
 H369 H 0.37617 0.80352 0.57826
 H370 H 0.33670 0.79414 0.61277
 H371 H 0.38543 0.74557 0.67686
 H372 H 0.42491 0.75495 0.64236
 C373 C 0.05608 0.71645 0.06498
 C374 C 0.07428 0.71777 0.08439
 C375 C 0.09648 0.72061 0.10668
 C376 C 0.12146 0.70958 0.09864
 C377 C 0.14379 0.71484 0.11838
 C378 C 0.14123 0.73115 0.14623
 C379 C 0.11610 0.74157 0.15476
 C380 C 0.09377 0.73631 0.13503
 C381 C 0.16470 0.73910 0.16428
 C382 C 0.18449 0.74676 0.17840
 H383 H 0.12384 0.69761 0.07663
 H384 H 0.16316 0.70687 0.11138
 H385 H 0.11393 0.75440 0.17608
 H386 H 0.07461 0.74514 0.14132
 C387 C 0.55609 0.21482 0.56647
 C388 C 0.57431 0.21626 0.58583
 C389 C 0.59655 0.21925 0.60800
 C390 C 0.62148 0.20809 0.60003
 C391 C 0.64387 0.21353 0.61958
 C392 C 0.64140 0.23015 0.64716
 C393 C 0.61632 0.24070 0.65564
 C394 C 0.59393 0.23526 0.63610
 C395 C 0.66492 0.23824 0.66499
 C396 C 0.68474 0.24598 0.67896
 H397 H 0.62378 0.19588 0.57820
 H398 H 0.66321 0.20546 0.61264
 H399 H 0.61424 0.25376 0.67676
 H400 H 0.57480 0.24419 0.64232
 C401 C 0.71549 0.05561 0.93439
 C402 C 0.71684 0.07386 0.91504
 C403 C 0.71972 0.09615 0.89285
 C404 C 0.73549 0.09354 0.86451
 C405 C 0.74082 0.11594 0.84490
 C406 C 0.73042 0.14104 0.85355
 C407 C 0.71404 0.14351 0.88138
 C408 C 0.70871 0.12111 0.90099
 C409 C 0.73843 0.16457 0.83563
 C410 C 0.74614 0.18441 0.82160
 H411 H 0.74430 0.07439 0.85815
 H412 H 0.75370 0.11385 0.82361
 H413 H 0.70609 0.16286 0.88845
 H414 H 0.69669 0.12341 0.92299
 C415 C 0.21560 0.55611 0.43350
 C416 C 0.21696 0.57431 0.41410
 C417 C 0.21984 0.59655 0.39185
 C418 C 0.23593 0.59401 0.36378
 C419 C 0.24124 0.61641 0.34416
 C420 C 0.23050 0.64143 0.35254
 C421 C 0.21381 0.64381 0.38008
 C422 C 0.20849 0.62142 0.39971
 C423 C 0.23849 0.66499 0.33466
 C424 C 0.24617 0.68486 0.32069
 H425 H 0.24500 0.57494 0.35764
 H426 H 0.25436 0.61439 0.32308
 H427 H 0.20559 0.66311 0.38695
 H428 H 0.19622 0.62366 0.42151
 C429 C 0.28366 0.94457 0.93378
 C430 C 0.28228 0.92630 0.91448
 C431 C 0.27939 0.90400 0.89235
 C432 C 0.29054 0.87909 0.90044
 C433 C 0.28525 0.85667 0.88088
 C434 C 0.26878 0.85907 0.85315
 C435 C 0.25823 0.88413 0.84456
 C436 C 0.26352 0.90655 0.86412
 C437 C 0.26083 0.83551 0.83528
 C438 C 0.25317 0.81565 0.82130
 H439 H 0.30265 0.87683 0.92237
 H440 H 0.29332 0.83735 0.88791
 H441 H 0.24527 0.88617 0.82334
 H442 H 0.25460 0.92566 0.85779
 C443 C 0.78505 0.44373 0.43353
 C444 C 0.78361 0.42551 0.41417
 C445 C 0.78061 0.40327 0.39200
 C446 C 0.79177 0.37834 0.39996
 C447 C 0.78632 0.35595 0.38042
 C448 C 0.76969 0.35842 0.35285
 C449 C 0.75914 0.38351 0.34437
 C450 C 0.76459 0.40589 0.36391
 C451 C 0.76160 0.33491 0.33502
 C452 C 0.75385 0.31508 0.32105
 H453 H 0.80398 0.37604 0.42179
 H454 H 0.79439 0.33661 0.38736
 H455 H 0.74607 0.38559 0.32326
 H456 H 0.75566 0.42502 0.35769
 C457 C 0.05587 0.28466 0.93432
 C458 C 0.07415 0.28325 0.91501
 C459 C 0.09645 0.28029 0.89286
 C460 C 0.12145 0.29115 0.90108
 C461 C 0.14385 0.28575 0.88150
 C462 C 0.14136 0.26946 0.85363
 C463 C 0.11622 0.25921 0.84491
 C464 C 0.09382 0.26462 0.86448
 C465 C 0.16488 0.26137 0.83573
 C466 C 0.18470 0.25359 0.82172
 H467 H 0.12377 0.30310 0.92312
 H468 H 0.16323 0.29358 0.88863
 H469 H 0.11411 0.24640 0.82357
 H470 H 0.07464 0.25592 0.85805
 C471 C 0.55605 0.78408 0.43328
 C472 C 0.57429 0.78265 0.41392
 C473 C 0.59657 0.77970 0.39175
 C474 C 0.59411 0.76349 0.36380
 C475 C 0.61655 0.75814 0.34426
 C476 C 0.64153 0.76896 0.35260
 C477 C 0.64383 0.78577 0.38003
 C478 C 0.62139 0.79112 0.39957
 C479 C 0.66512 0.76099 0.33479
 C480 C 0.68502 0.75334 0.32084
 H481 H 0.57507 0.75437 0.35769
 H482 H 0.61459 0.74494 0.32327
 H483 H 0.66309 0.79406 0.38686
 H484 H 0.62357 0.80349 0.42129
 C485 C 0.94458 0.71637 0.93360
 C486 C 0.92632 0.71776 0.91429
 C487 C 0.90403 0.72066 0.89214
 C488 C 0.90657 0.73655 0.86390
 C489 C 0.88416 0.74183 0.84430
 C490 C 0.85911 0.73126 0.85287
 C491 C 0.85672 0.71478 0.88061
 C492 C 0.87913 0.70949 0.90020
 C493 C 0.83555 0.73919 0.83494
 C494 C 0.81569 0.74681 0.82091
 H495 H 0.92567 0.74548 0.85758
 H496 H 0.88619 0.75479 0.82307
 H497 H 0.83741 0.70669 0.88763
 H498 H 0.87688 0.69737 0.92214
 C499 C 0.44392 0.21473 0.43335
 C500 C 0.42572 0.21615 0.41397
 C501 C 0.40349 0.21912 0.39177
 C502 C 0.40607 0.23517 0.36368
 C503 C 0.38368 0.24060 0.34412
 C504 C 0.35862 0.23002 0.35259
 C505 C 0.35619 0.21335 0.38016
 C506 C 0.37858 0.20791 0.39971
 C507 C 0.33508 0.23814 0.33479
 C508 C 0.31523 0.24592 0.32087
 H509 H 0.42518 0.24413 0.35748
 H510 H 0.38574 0.25370 0.32303
 H511 H 0.33686 0.20525 0.38709
 H512 H 0.37630 0.19568 0.42154
 C513 C 0.71544 0.94423 0.93286
 C514 C 0.71689 0.92600 0.91353
 C515 C 0.71990 0.90373 0.89139
 C516 C 0.73598 0.90629 0.86331
 C517 C 0.74146 0.88387 0.84382
 C518 C 0.73090 0.85881 0.85234
 C519 C 0.71421 0.85640 0.87989
 C520 C 0.70873 0.87882 0.89938
 C521 C 0.73904 0.83525 0.83459
 C522 C 0.74683 0.81540 0.82069
 H523 H 0.74492 0.92540 0.85707
 H524 H 0.75457 0.88590 0.82273
 H525 H 0.70613 0.83708 0.88686
 H526 H 0.69647 0.87657 0.92120
 C527 C 0.21590 0.44361 0.43390
 C528 C 0.21734 0.42534 0.41462
 C529 C 0.22031 0.40304 0.39249
 C530 C 0.20924 0.37810 0.40060
 C531 C 0.21458 0.35570 0.38101
 C532 C 0.23102 0.35814 0.35324
 C533 C 0.24149 0.38321 0.34463
 C534 C 0.23615 0.40562 0.36422
 C535 C 0.23898 0.33460 0.33530
 C536 C 0.24663 0.31476 0.32124
 H537 H 0.19716 0.37582 0.42256
 H538 H 0.20656 0.33637 0.38806
 H539 H 0.25441 0.38528 0.32337
 H540 H 0.24501 0.42475 0.35786
 C541 C 0.28355 0.05595 0.93483
 C542 C 0.28223 0.07414 0.91540
 C543 C 0.27937 0.09636 0.89312
 C544 C 0.29066 0.12124 0.90099
 C545 C 0.28537 0.14362 0.88133
 C546 C 0.26877 0.14121 0.85373
 C547 C 0.25809 0.11618 0.84534
 C548 C 0.26338 0.09380 0.86500
 C549 C 0.26081 0.16475 0.83580
 C550 C 0.25316 0.18461 0.82176
 H551 H 0.30285 0.12350 0.92284
 H552 H 0.29353 0.16292 0.88821
 H553 H 0.24504 0.11414 0.82422
 H554 H 0.25436 0.07472 0.85885
 C555 C 0.78521 0.55621 0.43378
 C556 C 0.78380 0.57448 0.41447
 C557 C 0.78083 0.59677 0.39230
 C558 C 0.76520 0.59410 0.36389
 C559 C 0.75978 0.61649 0.34430
 C560 C 0.76997 0.64165 0.35303
 C561 C 0.78621 0.64418 0.38094
 C562 C 0.79163 0.62179 0.40054
 C563 C 0.76186 0.66515 0.33510
 C564 C 0.75408 0.68496 0.32106
 H565 H 0.75655 0.57491 0.35745
 H566 H 0.74701 0.61435 0.32294
 H567 H 0.79400 0.66357 0.38808
 H568 H 0.80354 0.62414 0.42260
 C569 C 0.05595 0.71644 0.93465
 C570 C 0.07413 0.71777 0.91520
 C571 C 0.09634 0.72064 0.89291
 C572 C 0.09373 0.73659 0.86474
 C573 C 0.11609 0.74191 0.84506
 C574 C 0.14116 0.73129 0.85348
 C575 C 0.14362 0.71472 0.88113
 C576 C 0.12125 0.70940 0.90081
 C577 C 0.16467 0.73928 0.83553
 C578 C 0.18450 0.74697 0.82149
 H579 H 0.07461 0.74557 0.85857
 H580 H 0.11401 0.75493 0.82390
 H581 H 0.16295 0.70659 0.88803
 H582 H 0.12356 0.69723 0.92269
 C583 C 0.55641 0.21499 0.43366
 C584 C 0.57469 0.21649 0.41436
 C585 C 0.59700 0.21954 0.39224
 C586 C 0.59435 0.23537 0.36396
 C587 C 0.61675 0.24084 0.34440
 C588 C 0.64189 0.23050 0.35304
 C589 C 0.64439 0.21407 0.38081
 C590 C 0.62199 0.20860 0.40037
 C591 C 0.66540 0.23860 0.33514
 C592 C 0.68522 0.24636 0.32111
 H593 H 0.57518 0.24413 0.35760
 H594 H 0.61463 0.25375 0.32314
 H595 H 0.66376 0.20616 0.38788
 H596 H 0.62431 0.19653 0.42233
 C597 C 0.94338 0.28449 0.93409
 C598 C 0.92517 0.28303 0.91473
 C599 C 0.90293 0.28000 0.89256
 C600 C 0.87797 0.29108 0.90054
 C601 C 0.85560 0.28560 0.88100
 C602 C 0.85810 0.26901 0.85340
 C603 C 0.88321 0.25853 0.84489
 C604 C 0.90559 0.26402 0.86444
 C605 C 0.83460 0.26087 0.83556
 C606 C 0.81480 0.25311 0.82158
 H607 H 0.87564 0.30327 0.92239
 H608 H 0.83623 0.29362 0.88796
 H609 H 0.88533 0.24549 0.82377
 H610 H 0.92474 0.25515 0.85820
 C611 C 0.44354 0.78420 0.43361
 C612 C 0.42527 0.78281 0.41431
 C613 C 0.40298 0.77990 0.39216
 C614 C 0.40560 0.76416 0.36383
 C615 C 0.38321 0.75884 0.34424
 C616 C 0.35810 0.76925 0.35289
 C617 C 0.35562 0.78559 0.38072
 C618 C 0.37802 0.79091 0.40032
 C619 C 0.33458 0.76128 0.33496
 C620 C 0.31475 0.75362 0.32091
 H621 H 0.42475 0.75535 0.35745
 H622 H 0.38531 0.74599 0.32293
 H623 H 0.33627 0.79355 0.38781
 H624 H 0.37570 0.80291 0.42232
 C625 C 0.28368 0.94469 0.06658
 C626 C 0.28230 0.92643 0.08591
 C627 C 0.27938 0.90413 0.10804
 C628 C 0.26326 0.90658 0.13609
 C629 C 0.25791 0.88412 0.15559
 C630 C 0.26866 0.85912 0.14711
 C631 C 0.28539 0.85682 0.11958
 C632 C 0.29073 0.87928 0.10009
 C633 C 0.26066 0.83551 0.16487
 C634 C 0.25299 0.81561 0.17877
 H635 H 0.25419 0.92564 0.14231
 H636 H 0.24477 0.88607 0.17666
 H637 H 0.29361 0.83755 0.11264
 H638 H 0.30303 0.87711 0.07829
 C639 C 0.78488 0.44341 0.56635
 C640 C 0.78338 0.42513 0.58564
 C641 C 0.78032 0.40283 0.60777
 C642 C 0.79125 0.37783 0.59964
 C643 C 0.78578 0.35544 0.61920
 C644 C 0.76934 0.35794 0.64696
 C645 C 0.75900 0.38307 0.65559
 C646 C 0.76448 0.40547 0.63604
 C647 C 0.76123 0.33443 0.66486
 C648 C 0.75347 0.31461 0.67889
 H649 H 0.80333 0.37551 0.57769
 H650 H 0.79369 0.33606 0.61214
 H651 H 0.74608 0.38520 0.67684
 H652 H 0.75572 0.42465 0.64239
 C653 C 0.71544 0.05644 0.06592
 C654 C 0.71688 0.07465 0.08528
 C655 C 0.71989 0.09689 0.10745
 C656 C 0.70881 0.12185 0.09945
 C657 C 0.71428 0.14422 0.11899
 C658 C 0.73086 0.14172 0.14661
 C659 C 0.74133 0.11662 0.15513
 C660 C 0.73586 0.09424 0.13558
 C661 C 0.73898 0.16522 0.16445
 C662 C 0.74674 0.18503 0.17843
 H663 H 0.69664 0.12417 0.07759
 H664 H 0.70627 0.16358 0.11202
 H665 H 0.75435 0.11450 0.17627
 H666 H 0.74473 0.07509 0.14183
 C667 C 0.21566 0.55636 0.56641
 C668 C 0.21704 0.57461 0.58574
 C669 C 0.21994 0.59688 0.60792
 C670 C 0.20886 0.62183 0.59984
 C671 C 0.21416 0.64421 0.61946
 C672 C 0.23056 0.64173 0.64725
 C673 C 0.24103 0.61664 0.65583
 C674 C 0.23573 0.59426 0.63621
 C675 C 0.23853 0.66525 0.66518
 C676 C 0.24621 0.68509 0.67921
 H677 H 0.19682 0.62414 0.57787
 H678 H 0.20615 0.66356 0.61243
 H679 H 0.25392 0.61454 0.67709
 H680 H 0.24459 0.57511 0.64254
 C681 C 0.94472 0.71630 0.06642
 C682 C 0.92646 0.71768 0.08576
 C683 C 0.90417 0.72060 0.10791
 C684 C 0.90661 0.73672 0.13593
 C685 C 0.88415 0.74205 0.15545
 C686 C 0.85917 0.73129 0.14702
 C687 C 0.85688 0.71456 0.11952
 C688 C 0.87934 0.70923 0.10000
 C689 C 0.83557 0.73925 0.16482
 C690 C 0.81566 0.74689 0.17874
 H691 H 0.92565 0.74580 0.14212
 H692 H 0.88610 0.75519 0.17650
 H693 H 0.83762 0.70632 0.11261
 H694 H 0.87717 0.69693 0.07822
 C695 C 0.44362 0.21469 0.56624
 C696 C 0.42537 0.21610 0.58559
 C697 C 0.40310 0.21907 0.60778
 C698 C 0.37807 0.20828 0.59959
 C699 C 0.35570 0.21371 0.61922
 C700 C 0.35827 0.22994 0.64713
 C701 C 0.38344 0.24012 0.65583
 C702 C 0.40581 0.23469 0.63619
 C703 C 0.33478 0.23806 0.66509
 C704 C 0.31499 0.24586 0.67914
 H705 H 0.37569 0.19637 0.57752
 H706 H 0.33630 0.20593 0.61211
 H707 H 0.38561 0.25289 0.67719
 H708 H 0.42501 0.24333 0.64261
 C709 C 0.05561 0.28464 0.06712
 C710 C 0.07386 0.28321 0.08643
 C711 C 0.09615 0.28022 0.10854
 C712 C 0.09364 0.26416 0.13662
 C713 C 0.11609 0.25869 0.15607
 C714 C 0.14113 0.26927 0.14750
 C715 C 0.14349 0.28595 0.11994
 C716 C 0.12104 0.29142 0.10049
 C717 C 0.16471 0.26114 0.16521
 C718 C 0.18459 0.25336 0.17906
 H719 H 0.07454 0.25520 0.14290
 H720 H 0.11409 0.24558 0.17717
 H721 H 0.16280 0.29405 0.11293
 H722 H 0.12326 0.30367 0.07867
 C723 C 0.55629 0.78404 0.56610
 C724 C 0.57457 0.78261 0.58538
 C725 C 0.59687 0.77965 0.60751
 C726 C 0.62179 0.79077 0.59943
 C727 C 0.64420 0.78544 0.61900
 C728 C 0.64179 0.76895 0.64674
 C729 C 0.61673 0.75841 0.65532
 C730 C 0.59432 0.76375 0.63574
 C731 C 0.66534 0.76099 0.66465
 C732 C 0.68520 0.75334 0.67868
 H733 H 0.62405 0.80290 0.57751
 H734 H 0.66352 0.79350 0.61198
 H735 H 0.61468 0.74545 0.67654
 H736 H 0.57520 0.75485 0.64207
   
