data_POSCAR
  _audit_creation_date              2014-09-24
  _audit_creation_method            'ToBaCCo'
  _symmetry_space_group_name_H-M    'P1'
  _symmetry_Int_Tables_number       1
  _symmetry_cell_setting            triclinic
  loop_
  _symmetry_equiv_pos_as_xyz
 x,y,z
_cell_length_a 22.9781
_cell_length_b 23.0151
_cell_length_c 38.0000
_cell_angle_alpha 89.443400
_cell_angle_beta 90.675300
_cell_angle_gamma 88.055000
loop_
  _atom_site_label
  _atom_site_type_symbol
  _atom_site_fract_x
  _atom_site_fract_y
  _atom_site_fract_z
O1 O -0.04996 0.44536 1.03257
 O2 O -0.04911 0.55977 0.96418
 O3 O -0.04860 0.44643 0.96414
 O4 O -0.04994 0.55877 1.03258
 O5 O 0.04627 0.55562 1.03383
 O6 O 0.04761 0.44344 0.96542
 O7 O 0.04706 0.55675 0.96545
 O8 O 0.04624 0.44225 1.03383
 Cu9 Cu -0.05906 0.50288 0.99825
 Cu10 Cu 0.05645 0.49919 0.99977
 C11 C -0.00201 0.42411 1.04469
 C12 C -0.00090 0.57804 0.95329
 C13 C -0.00023 0.42566 0.95326
 C14 C -0.00203 0.57655 1.04468
 O15 O 0.56034 -0.04940 0.53554
 O16 O 0.44514 -0.04996 0.46737
 O17 O 0.55875 -0.04979 0.46712
 O18 O 0.44685 -0.04896 0.53580
 O19 O 0.44379 0.04710 0.53484
 O20 O 0.55549 0.04626 0.46619
 O21 O 0.44193 0.04609 0.46643
 O22 O 0.55723 0.04662 0.53459
 Cu23 Cu 0.50308 -0.05917 0.50153
 Cu24 Cu 0.49929 0.05616 0.50040
 C25 C 0.57866 -0.00131 0.54658
 C26 C 0.42369 -0.00204 0.45546
 C27 C 0.57640 -0.00187 0.45513
 C28 C 0.42613 -0.00075 0.54689
 C29 C -0.00372 -0.00254 0.24964
 C30 C 0.00425 0.00309 0.75028
 N31 N -0.05375 -0.30990 0.10550
 C32 C -0.00297 -0.28939 0.11799
 N33 N 0.04809 -0.31356 0.10682
 N34 N 0.04836 -0.35684 0.08378
 C35 C -0.00242 -0.37735 0.07111
 N36 N -0.05349 -0.35318 0.08245
 C37 C -0.00320 -0.24122 0.14169
 C38 C -0.00329 -0.20005 0.16106
 C39 C -0.00332 -0.15024 0.18348
 N40 N -0.00064 -0.15674 0.21895
 N41 N -0.00057 -0.11031 0.23963
 C42 C -0.00301 -0.05559 0.22562
 N43 N -0.00595 -0.04956 0.18997
 N44 N -0.00601 -0.09597 0.16932
 N45 N -0.05378 0.31263 0.10583
 C46 C -0.00302 0.28841 0.11844
 N47 N 0.04806 0.30933 0.10719
 N48 N 0.04838 0.35307 0.08396
 C49 C -0.00238 0.37732 0.07120
 N50 N -0.05347 0.35637 0.08260
 C51 C -0.00332 0.23995 0.14247
 C52 C -0.00341 0.19862 0.16221
 C53 C -0.00326 0.14874 0.18516
 N54 N 0.04452 0.11274 0.18778
 N55 N 0.04431 0.06559 0.20837
 C56 C -0.00368 0.05271 0.22719
 N57 N -0.05154 0.08900 0.22434
 N58 N -0.05131 0.13616 0.20373
 N59 N 0.31428 0.05137 0.60867
 C60 C 0.29365 0.00081 0.62121
 N61 N 0.31712 -0.05031 0.60970
 N62 N 0.35987 -0.05084 0.58629
 C63 C 0.38050 -0.00026 0.57359
 N64 N 0.35702 0.05085 0.58527
 C65 C 0.24600 0.00143 0.64528
 C66 C 0.20517 0.00211 0.66492
 C67 C 0.15564 0.00302 0.68757
 N68 N 0.14665 -0.04197 0.70989
 N69 N 0.09945 -0.04200 0.72993
 C70 C 0.05931 0.00283 0.72825
 N71 N 0.06902 0.04810 0.70603
 N72 N 0.11621 0.04812 0.68601
 N73 N -0.30868 -0.05181 0.60765
 C74 C -0.28769 -0.00091 0.61910
 N75 N -0.31194 0.04986 0.60667
 N76 N -0.35578 0.04975 0.58340
 C77 C -0.37679 -0.00116 0.57171
 N78 N -0.35252 -0.05194 0.58438
 C79 C -0.23881 -0.00076 0.64295
 C80 C -0.19695 -0.00050 0.66235
 C81 C -0.14616 0.00003 0.68466
 N82 N -0.09249 0.00039 0.67032
 N83 N -0.04516 0.00139 0.69082
 C84 C -0.04966 0.00230 0.72648
 N85 N -0.10373 0.00145 0.74070
 N86 N -0.15110 0.00045 0.72016
 N87 N -0.05120 -0.30964 0.89211
 C88 C -0.00017 -0.28864 0.88086
 N89 N 0.05063 -0.31282 0.89343
 N90 N 0.05041 -0.35658 0.91665
 C91 C -0.00063 -0.37759 0.92815
 N92 N -0.05144 -0.35340 0.91533
 C93 C 0.00008 -0.23980 0.85711
 C94 C 0.00043 -0.19796 0.83780
 C95 C 0.00105 -0.14721 0.81560
 N96 N 0.00153 -0.15207 0.78008
 N97 N 0.00259 -0.10472 0.75965
 C98 C 0.00344 -0.05078 0.77398
 N99 N 0.00247 -0.04636 0.80965
 N100 N 0.00142 -0.09366 0.83005
 N101 N -0.04950 0.31616 0.89057
 C102 C 0.00176 0.29260 0.87928
 N103 N 0.05234 0.31331 0.89193
 N104 N 0.05169 0.35623 0.91522
 C105 C 0.00043 0.37982 0.92667
 N106 N -0.05016 0.35909 0.91386
 C107 C 0.00251 0.24480 0.85531
 C108 C 0.00322 0.20390 0.83573
 C109 C 0.00412 0.15432 0.81312
 N110 N 0.04923 0.11489 0.81478
 N111 N 0.04922 0.06772 0.79475
 C112 C 0.00394 0.05804 0.77241
 N113 N -0.04091 0.09817 0.77063
 N114 N -0.04088 0.14535 0.79068
 N115 N -0.31443 0.04872 0.39278
 C116 C -0.29030 -0.00214 0.38134
 N117 N -0.31057 -0.05296 0.39375
 N118 N -0.35359 -0.05291 0.41697
 C119 C -0.37772 -0.00203 0.42857
 N120 N -0.35743 0.04878 0.41600
 C121 C -0.24254 -0.00213 0.35735
 C122 C -0.20178 -0.00195 0.33767
 C123 C -0.15254 -0.00162 0.31480
 N124 N -0.14462 -0.04365 0.29043
 N125 N -0.09810 -0.04402 0.26982
 C126 C -0.05755 -0.00252 0.27289
 N127 N -0.06618 0.03977 0.29724
 N128 N -0.11269 0.04015 0.31784
 N129 N 0.31140 -0.05350 0.39446
 C130 C 0.28693 -0.00278 0.38209
 N131 N 0.30796 0.04818 0.39344
 N132 N 0.35203 0.04842 0.41654
 C133 C 0.37653 -0.00230 0.42907
 N134 N 0.35548 -0.05327 0.41756
 C135 C 0.23817 -0.00299 0.35815
 C136 C 0.19664 -0.00302 0.33847
 C137 C 0.14655 -0.00280 0.31555
 N138 N 0.10624 0.04146 0.31658
 N139 N 0.05915 0.04126 0.29582
 C140 C 0.05035 -0.00335 0.27334
 N141 N 0.09135 -0.04738 0.27226
 N142 N 0.13847 -0.04719 0.29304
   
