data_POSCAR
  _audit_creation_date              2014-09-24
  _audit_creation_method            'ToBaCCo'
  _symmetry_space_group_name_H-M    'P1'
  _symmetry_Int_Tables_number       1
  _symmetry_cell_setting            triclinic
  loop_
  _symmetry_equiv_pos_as_xyz
 x,y,z
_cell_length_a 29.1629
_cell_length_b 31.8790
_cell_length_c 35.3465
_cell_angle_alpha 89.859100
_cell_angle_beta 90.669100
_cell_angle_gamma 89.586200
loop_
  _atom_site_label
  _atom_site_type_symbol
  _atom_site_fract_x
  _atom_site_fract_y
  _atom_site_fract_z
Zr1 Zr 0.24838 0.24833 0.31967
 O2 O 0.28855 0.26518 0.36756
 O3 O 0.19080 0.22310 0.34635
 O4 O 0.21991 0.29713 0.35144
 O5 O 0.31132 0.15709 0.30533
 O6 O 0.19530 0.34564 0.30797
 O7 O 0.27452 0.19646 0.34971
 O8 O 0.14599 0.19859 0.29808
 O9 O 0.19280 0.26774 0.28590
 O10 O 0.23459 0.19793 0.28382
 O11 O 0.27083 0.30271 0.29203
 O12 O 0.31046 0.23605 0.29164
 Zr13 Zr 0.26202 0.26035 0.18971
 Zr14 Zr 0.21624 0.32034 0.25592
 Zr15 Zr 0.29462 0.18768 0.25342
 Zr16 Zr 0.18114 0.21793 0.24875
 O17 O 0.36541 0.17274 0.25594
 O18 O 0.11575 0.24740 0.24695
 O19 O 0.24011 0.20488 0.21683
 O20 O 0.20054 0.27159 0.21849
 O21 O 0.27656 0.31097 0.22511
 O22 O 0.31698 0.24042 0.22403
 C23 C 0.15504 0.20428 0.33346
 C24 C 0.29912 0.16490 0.33963
 C25 C 0.20146 0.33239 0.34204
 O26 O 0.14538 0.33451 0.25168
 O27 O 0.20270 0.35376 0.20505
 O28 O 0.23857 0.31412 0.16049
 C29 C 0.21517 0.34641 0.17083
 O30 O 0.36373 0.30750 0.31139
 Zr31 Zr 0.32938 0.28961 0.26082
 O32 O 0.31801 0.28783 0.16205
 O33 O 0.24266 0.38162 0.26202
 O34 O 0.34084 0.35502 0.26415
 O35 O 0.39504 0.26102 0.26496
 O36 O 0.36431 0.30669 0.21147
 C37 C 0.35497 0.30363 0.17599
 O38 O 0.21957 0.24436 0.14296
 O39 O 0.26830 0.12622 0.24900
 O40 O 0.28970 0.21184 0.15749
 O41 O 0.31370 0.16230 0.20040
 O42 O 0.16888 0.15260 0.24459
 O43 O 0.15219 0.20292 0.19505
 C44 C 0.30832 0.17654 0.16640
 H45 H 0.22577 0.17207 0.29738
 H46 H 0.17549 0.27969 0.20073
 H47 H 0.34500 0.23316 0.20987
 H48 H 0.27878 0.32529 0.31006
 H49 H 0.09254 0.22526 0.25066
 H50 H 0.14226 0.36535 0.25427
 H51 H 0.21611 0.40117 0.26064
 H52 H 0.37412 0.35956 0.26054
 H53 H 0.13554 0.14822 0.24784
 H54 H 0.29500 0.10690 0.25080
 H55 H 0.36802 0.14188 0.25330
 H56 H 0.41791 0.28358 0.26175
 H57 H 0.12031 0.19321 0.19835
 H58 H 0.23569 0.25303 0.11966
 H59 H 0.27169 0.25657 0.39054
 H60 H 0.36202 0.28331 0.32890
 Zr61 Zr 0.75284 0.74774 0.31757
 O62 O 0.71144 0.72759 0.36293
 O63 O 0.80744 0.77551 0.34825
 O64 O 0.78105 0.69732 0.34838
 O65 O 0.69016 0.83955 0.30371
 O66 O 0.80438 0.64996 0.30402
 O67 O 0.72470 0.79758 0.34821
 O68 O 0.85646 0.79442 0.30152
 O69 O 0.80911 0.72923 0.28516
 O70 O 0.76778 0.79950 0.28376
 O71 O 0.73071 0.69499 0.28681
 O72 O 0.69159 0.76143 0.28738
 Zr73 Zr 0.74270 0.74216 0.18639
 Zr74 Zr 0.78606 0.67845 0.25216
 Zr75 Zr 0.70865 0.81154 0.25156
 Zr76 Zr 0.82196 0.78054 0.25013
 O77 O 0.63785 0.82659 0.25162
 O78 O 0.88710 0.75069 0.24819
 O79 O 0.76411 0.79591 0.21654
 O80 O 0.80315 0.72884 0.21714
 O81 O 0.72682 0.68982 0.21925
 O82 O 0.68682 0.76062 0.21920
 C83 C 0.84516 0.79153 0.33655
 C84 C 0.70083 0.82979 0.33818
 C85 C 0.79808 0.66182 0.33832
 O86 O 0.85691 0.66391 0.25083
 O87 O 0.80159 0.64791 0.20046
 O88 O 0.76733 0.69014 0.15609
 C89 C 0.79052 0.65735 0.16601
 O90 O 0.63669 0.68931 0.30176
 Zr91 Zr 0.67315 0.70970 0.25363
 O92 O 0.68771 0.71626 0.15535
 O93 O 0.75881 0.61718 0.25438
 O94 O 0.66153 0.64421 0.25432
 O95 O 0.60764 0.73859 0.25631
 O96 O 0.63972 0.69527 0.20209
 C97 C 0.65024 0.69999 0.16711
 O98 O 0.78650 0.76049 0.14198
 O99 O 0.73541 0.87302 0.25070
 O100 O 0.71653 0.79278 0.15508
 O101 O 0.69162 0.84005 0.19901
 O102 O 0.83599 0.84573 0.25050
 O103 O 0.85174 0.79929 0.19821
 C104 C 0.69803 0.82776 0.16473
 H105 H 0.77627 0.82472 0.29845
 H106 H 0.82872 0.72161 0.20012
 H107 H 0.65932 0.76877 0.20417
 H108 H 0.72201 0.67164 0.30370
 H109 H 0.91049 0.77224 0.25390
 H110 H 0.85964 0.63293 0.25218
 H111 H 0.78520 0.59748 0.25323
 H112 H 0.62853 0.63987 0.24858
 H113 H 0.86933 0.84901 0.25527
 H114 H 0.70878 0.89240 0.25219
 H115 H 0.63539 0.85757 0.25003
 H116 H 0.58472 0.71656 0.25076
 H117 H 0.88363 0.80856 0.20291
 H118 H 0.77103 0.75318 0.11774
 H119 H 0.72731 0.73529 0.38691
 H120 H 0.63896 0.71205 0.32068
 Zr121 Zr 0.74302 0.25573 -0.31624
 O122 O 0.71336 0.29637 -0.35749
 O123 O 0.77850 0.21316 -0.35134
 O124 O 0.79118 0.29130 -0.34514
 O125 O 0.64680 0.19340 -0.30620
 O126 O 0.83467 0.32308 -0.29956
 O127 O 0.69081 0.22850 -0.34866
 O128 O 0.81801 0.17118 -0.30987
 O129 O 0.80438 0.24704 -0.28604
 O130 O 0.73557 0.19878 -0.28793
 O131 O 0.74856 0.30864 -0.28110
 O132 O 0.68316 0.26271 -0.28382
 Zr133 Zr 0.74407 0.24795 -0.18587
 Zr134 Zr 0.80824 0.29819 -0.24865
 Zr135 Zr 0.67849 0.20626 -0.25334
 Zr136 Zr 0.79546 0.19115 -0.25608
 O137 O 0.60739 0.21970 -0.25129
 O138 O 0.86814 0.19290 -0.25554
 O139 O 0.73790 0.19454 -0.22054
 O140 O 0.80339 0.24150 -0.21866
 O141 O 0.75128 0.30543 -0.21369
 O142 O 0.68335 0.25737 -0.21669
 C143 C 0.80662 0.18283 -0.34360
 C144 C 0.65656 0.20553 -0.33996
 C145 C 0.82271 0.31656 -0.33427
 O146 O 0.87920 0.28414 -0.24826
 O147 O 0.83498 0.31648 -0.19505
 O148 O 0.79306 0.27904 -0.15267
 C149 C 0.82488 0.30498 -0.16111
 O150 O 0.66230 0.34203 -0.29496
 Zr151 Zr 0.69156 0.31304 -0.24605
 O152 O 0.71196 0.29140 -0.15043
 O153 O 0.81143 0.36443 -0.24623
 O154 O 0.71127 0.37691 -0.24423
 O155 O 0.61907 0.31442 -0.24198
 O156 O 0.67555 0.33607 -0.19162
 C157 C 0.68728 0.32392 -0.15807
 O158 O 0.77540 0.20646 -0.14629
 O159 O 0.67573 0.14020 -0.25815
 O160 O 0.69463 0.21355 -0.15652
 O161 O 0.65240 0.18102 -0.20256
 O162 O 0.77862 0.12690 -0.26227
 O163 O 0.81766 0.15723 -0.20728
 C164 C 0.66213 0.18930 -0.16773
 H165 H 0.73095 0.17474 -0.30520
 H166 H 0.83092 0.23646 -0.20259
 H167 H 0.65580 0.25989 -0.20075
 H168 H 0.75036 0.33481 -0.29612
 H169 H 0.87935 0.16491 -0.26354
 H170 H 0.89524 0.31141 -0.24732
 H171 H 0.84433 0.37187 -0.24453
 H172 H 0.68417 0.39340 -0.23618
 H173 H 0.80719 0.11156 -0.26864
 H174 H 0.64282 0.13281 -0.25973
 H175 H 0.59134 0.19241 -0.25211
 H176 H 0.61010 0.34319 -0.23431
 H177 H 0.84113 0.13624 -0.21454
 H178 H 0.76656 0.21600 -0.12067
 H179 H 0.72267 0.28622 -0.38284
 H180 H 0.64593 0.36799 -0.28753
 Zr181 Zr 0.26364 0.75504 -0.31769
 O182 O 0.30331 0.72154 -0.35744
 O183 O 0.23189 0.80091 -0.35203
 O184 O 0.22139 0.72295 -0.35704
 O185 O 0.35925 0.80435 -0.28515
 O186 O 0.17028 0.68807 -0.32015
 O187 O 0.31776 0.79240 -0.33892
 O188 O 0.18592 0.83709 -0.31166
 O189 O 0.19781 0.76095 -0.29516
 O190 O 0.26565 0.80677 -0.28158
 O191 O 0.25141 0.69791 -0.28937
 O192 O 0.31606 0.74089 -0.27769
 Zr193 Zr 0.23756 0.74287 -0.18730
 Zr194 Zr 0.18694 0.70561 -0.26471
 Zr195 Zr 0.31485 0.79172 -0.24038
 Zr196 Zr 0.20103 0.81136 -0.25768
 O197 O 0.38397 0.77793 -0.22561
 O198 O 0.12880 0.81171 -0.26556
 O199 O 0.25070 0.80040 -0.21499
 O200 O 0.18594 0.75660 -0.22764
 O201 O 0.23563 0.69053 -0.22288
 O202 O 0.30308 0.73672 -0.21022
 C203 C 0.20169 0.82939 -0.34486
 C204 C 0.35331 0.80671 -0.32121
 C205 C 0.18758 0.69767 -0.35222
 O206 O 0.11752 0.72184 -0.27551
 O207 O 0.14678 0.68427 -0.21993
 O208 O 0.18384 0.70491 -0.16605
 C209 C 0.15116 0.68562 -0.18369
 O210 O 0.33682 0.65999 -0.29312
 Zr211 Zr 0.30049 0.68623 -0.24695
 O212 O 0.26571 0.69540 -0.15296
 O213 O 0.18223 0.63954 -0.26851
 O214 O 0.27906 0.62324 -0.25374
 O215 O 0.37189 0.68539 -0.23473
 O216 O 0.30866 0.65637 -0.19366
 C217 C 0.29239 0.66442 -0.16069
 O218 O 0.19753 0.77652 -0.14792
 O219 O 0.32052 0.85787 -0.24074
 O220 O 0.27971 0.77561 -0.14830
 O221 O 0.32957 0.81191 -0.18531
 O222 O 0.22027 0.87536 -0.25556
 O223 O 0.17221 0.84019 -0.20920
 C224 C 0.31322 0.80128 -0.15316
 H225 H 0.27324 0.83314 -0.29488
 H226 H 0.15579 0.76017 -0.21543
 H227 H 0.32743 0.73226 -0.19086
 H228 H 0.25203 0.67388 -0.30703
 H229 H 0.11930 0.84080 -0.27198
 H230 H 0.10080 0.69525 -0.27961
 H231 H 0.14947 0.63290 -0.27306
 H232 H 0.30369 0.60484 -0.24332
 H233 H 0.19379 0.89218 -0.26499
 H234 H 0.35355 0.86421 -0.23772
 H235 H 0.40021 0.80501 -0.22307
 H236 H 0.38035 0.65641 -0.22703
 H237 H 0.15140 0.86330 -0.21725
 H238 H 0.20266 0.76300 -0.12290
 H239 H 0.29813 0.73520 -0.38239
 H240 H 0.35312 0.63421 -0.28463
 Zr241 Zr 1.25810 1.25813 0.81127
 O242 O 1.21212 1.23706 0.85312
 O243 O 1.31231 1.28221 0.84432
 O244 O 1.28609 1.20898 0.84306
 O245 O 1.19867 1.35151 0.79810
 O246 O 1.31393 1.16289 0.79946
 O247 O 1.23121 1.30806 0.84237
 O248 O 1.36502 1.29934 0.79977
 O249 O 1.31595 1.24030 0.78063
 O250 O 1.27587 1.31058 0.77954
 O251 O 1.23769 1.20576 0.77926
 O252 O 1.19848 1.27298 0.77953
 Zr253 Zr 1.25501 1.25655 0.68057
 Zr254 Zr 1.29494 1.19024 0.74662
 Zr255 Zr 1.21827 1.32402 0.74601
 Zr256 Zr 1.33140 1.29206 0.74716
 O257 O 1.14740 1.33858 0.74373
 O258 O 1.39684 1.26297 0.74363
 O259 O 1.27534 1.30917 0.71248
 O260 O 1.31382 1.24132 0.71283
 O261 O 1.23769 1.20340 0.71190
 O262 O 1.19753 1.27403 0.71165
 C263 C 1.35199 1.29516 0.83420
 C264 C 1.20854 1.34104 0.83253
 C265 C 1.30637 1.17484 0.83373
 O266 O 1.36569 1.17523 0.74547
 O267 O 1.31088 1.16074 0.69477
 O268 O 1.27972 1.20469 0.65006
 C269 C 1.30130 1.17110 0.66027
 O270 O 1.14468 1.21005 0.79454
 Zr271 Zr 1.18174 1.22182 0.74424
 O272 O 1.20058 1.23254 0.64798
 O273 O 1.26776 1.12897 0.74857
 O274 O 1.17025 1.15630 0.74751
 O275 O 1.11541 1.24902 0.73865
 O276 O 1.15450 1.20162 0.69145
 C277 C 1.16604 1.20994 0.65718
 O278 O 1.30055 1.27436 0.63720
 O279 O 1.24482 1.38559 0.74794
 O280 O 1.23275 1.30971 0.64990
 O281 O 1.20562 1.35520 0.69434
 O282 O 1.34691 1.35667 0.75265
 O283 O 1.36150 1.31393 0.69639
 C284 C 1.21460 1.34477 0.66008
 H285 H 1.28445 1.33500 0.79527
 H286 H 1.33997 1.23433 0.69632
 H287 H 1.17117 1.28243 0.69535
 H288 H 1.22880 1.18218 0.79583
 H289 H 1.42000 1.28432 0.75052
 H290 H 1.36815 1.14425 0.74697
 H291 H 1.29432 1.10943 0.74822
 H292 H 1.13768 1.15141 0.74065
 H293 H 1.38018 1.35867 0.75834
 H294 H 1.21814 1.40499 0.74875
 H295 H 1.14484 1.36959 0.74316
 H296 H 1.09383 1.22606 0.73257
 H297 H 1.39270 1.32449 0.70194
 H298 H 1.28534 1.26811 0.61260
 H299 H 1.22593 1.24347 0.87823
 H300 H 1.11624 1.19465 0.78824
 Zr301 Zr 0.73592 0.73477 0.81249
 O302 O 0.77456 0.75137 0.86126
 O303 O 0.67887 0.70521 0.83632
 O304 O 0.70118 0.77856 0.84550
 O305 O 0.80172 0.64586 0.79627
 O306 O 0.67870 0.83006 0.80407
 O307 O 0.76161 0.68166 0.84101
 O308 O 0.63321 0.69360 0.78462
 O309 O 0.68227 0.75600 0.77740
 O310 O 0.72439 0.68681 0.77366
 O311 O 0.75874 0.79138 0.78872
 O312 O 0.79968 0.72509 0.78637
 Zr313 Zr 0.75697 0.75492 0.68390
 Zr314 Zr 0.70607 0.81066 0.75147
 Zr315 Zr 0.78634 0.67903 0.74554
 Zr316 Zr 0.67317 0.70903 0.73728
 O317 O 0.85742 0.66540 0.74833
 O318 O 0.60778 0.73762 0.72988
 O319 O 0.73400 0.69803 0.70760
 O320 O 0.69369 0.76437 0.71068
 O321 O 0.76820 0.80333 0.72262
 O322 O 0.81004 0.73354 0.71935
 C323 C 0.64136 0.69313 0.82048
 C324 C 0.78769 0.65135 0.83037
 C325 C 0.68121 0.81345 0.83739
 O326 O 0.63561 0.82486 0.74369
 O327 O 0.69604 0.84692 0.70163
 O328 O 0.73437 0.80990 0.65651
 C329 C 0.71033 0.84141 0.66757
 O330 O 0.84831 0.78869 0.81408
 Zr331 Zr 0.81950 0.78076 0.75906
 O332 O 0.81370 0.78568 0.65987
 O333 O 0.73081 0.87150 0.76319
 O334 O 0.82835 0.84605 0.76746
 O335 O 0.88636 0.75417 0.76135
 O336 O 0.85567 0.80385 0.71206
 C337 C 0.84846 0.80308 0.67606
 O338 O 0.71794 0.74216 0.63436
 O339 O 0.76131 0.61728 0.73906
 O340 O 0.78479 0.70655 0.65082
 O341 O 0.80525 0.65475 0.69269
 O342 O 0.65980 0.64385 0.73364
 O343 O 0.65017 0.69402 0.68169
 C344 C 0.80084 0.66991 0.65911
 H345 H 0.71486 0.66027 0.78575
 H346 H 0.66968 0.77320 0.69224
 H347 H 0.83863 0.72756 0.70546
 H348 H 0.76446 0.81271 0.80850
 H349 H 0.58454 0.71522 0.73192
 H350 H 0.63193 0.85536 0.74823
 H351 H 0.70391 0.89062 0.76176
 H352 H 0.86142 0.85208 0.76458
 H353 H 0.62620 0.64030 0.73575
 H354 H 0.78823 0.59820 0.74074
 H355 H 0.86075 0.63467 0.74501
 H356 H 0.90852 0.77752 0.75980
 H357 H 0.61885 0.68231 0.68275
 H358 H 0.73594 0.75190 0.61239
 H359 H 0.75776 0.74107 0.88367
 H360 H 0.87612 0.80622 0.81250
 Zr361 Zr 1.25284 0.75176 0.18607
 O362 O 1.22433 0.79497 0.14658
 O363 O 1.28330 0.70845 0.14968
 O364 O 1.30507 0.78138 0.15607
 O365 O 1.15798 0.68807 0.19754
 O366 O 1.34935 0.81327 0.20112
 O367 O 1.19963 0.72485 0.15446
 O368 O 1.32460 0.66640 0.19001
 O369 O 1.31467 0.74225 0.21535
 O370 O 1.24578 0.69478 0.21461
 O371 O 1.26041 0.80466 0.22074
 O372 O 1.19371 0.75862 0.21925
 Zr373 Zr 1.25718 0.74461 0.31613
 Zr374 Zr 1.32047 0.79326 0.25256
 Zr375 Zr 1.18989 0.70221 0.25010
 Zr376 Zr 1.30640 0.68655 0.24506
 O377 O 1.11924 0.71635 0.25490
 O378 O 1.37894 0.68858 0.24259
 O379 O 1.25021 0.69104 0.28165
 O380 O 1.31550 0.73675 0.28247
 O381 O 1.26420 0.80191 0.28825
 O382 O 1.19562 0.75345 0.28650
 C383 C 1.31077 0.67772 0.15669
 C384 C 1.16683 0.70028 0.16359
 C385 C 1.33921 0.80397 0.16660
 O386 O 1.39160 0.77959 0.25337
 O387 O 1.35029 0.81012 0.30538
 O388 O 1.30699 0.77504 0.34824
 C389 C 1.34049 0.79865 0.33934
 O390 O 1.17541 0.83868 0.20746
 Zr391 Zr 1.20368 0.80915 0.25649
 O392 O 1.22233 0.78747 0.35145
 O393 O 1.32343 0.85951 0.25337
 O394 O 1.22394 0.87281 0.25938
 O395 O 1.13112 0.81067 0.25977
 O396 O 1.18532 0.83172 0.31032
 C397 C 1.19614 0.81928 0.34389
 O398 O 1.29063 0.70544 0.35666
 O399 O 1.18499 0.63630 0.24437
 O400 O 1.21328 0.70634 0.34623
 O401 O 1.16956 0.67367 0.30137
 O402 O 1.28897 0.62228 0.24050
 O403 O 1.33121 0.65236 0.29287
 C404 C 1.18315 0.67969 0.33576
 H405 H 1.24028 0.67050 0.19782
 H406 H 1.34332 0.73124 0.29806
 H407 H 1.16865 0.75496 0.30320
 H408 H 1.26311 0.83050 0.20535
 H409 H 1.38958 0.66088 0.23339
 H410 H 1.40777 0.80683 0.25323
 H411 H 1.35636 0.86686 0.25463
 H412 H 1.19675 0.88949 0.26692
 H413 H 1.31678 0.60694 0.23223
 H414 H 1.15190 0.62942 0.24430
 H415 H 1.10311 0.68912 0.25486
 H416 H 1.12187 0.83972 0.26630
 H417 H 1.35511 0.63220 0.28474
 H418 H 1.28196 0.71510 0.38233
 H419 H 1.23233 0.78480 0.12096
 H420 H 1.15973 0.86502 0.21481
 Zr421 Zr 0.75185 1.25324 0.18584
 O422 O 0.78542 1.21416 0.14628
 O423 O 0.72196 1.29792 0.14958
 O424 O 0.70482 1.22234 0.15047
 O425 O 0.84455 1.31785 0.20751
 O426 O 0.65698 1.18819 0.19070
 O427 O 0.80681 1.28338 0.16000
 O428 O 0.67760 1.33696 0.18913
 O429 O 0.68773 1.25999 0.21096
 O430 O 0.75563 1.30830 0.21758
 O431 O 0.74278 1.19803 0.21728
 O432 O 0.80830 1.24480 0.22290
 Zr433 Zr 0.73757 1.25163 0.31582
 Zr434 Zr 0.68025 1.20649 0.24510
 Zr435 Zr 0.80881 1.29913 0.25666
 Zr436 Zr 0.69287 1.31367 0.24418
 O437 O 0.87947 1.28582 0.26440
 O438 O 0.62064 1.31131 0.23708
 O439 O 0.74624 1.30758 0.28461
 O440 O 0.68195 1.26093 0.27821
 O441 O 0.73367 1.19625 0.28449
 O442 O 0.80113 1.24536 0.28979
 C443 C 0.69331 1.32769 0.15621
 C444 C 0.83868 1.30742 0.17255
 C445 C 0.67087 1.19810 0.15738
 O446 O 0.60921 1.21984 0.24065
 O447 O 0.64647 1.18555 0.29440
 O448 O 0.68455 1.21909 0.34218
 C449 C 0.65252 1.19535 0.32946
 O450 O 0.82909 1.16582 0.20860
 Zr451 Zr 0.79646 1.19173 0.25675
 O452 O 0.76954 1.20630 0.35113
 O453 O 0.67818 1.14023 0.24309
 O454 O 0.77687 1.12783 0.25509
 O455 O 0.86860 1.19055 0.26510
 O456 O 0.81110 1.16595 0.31059
 C457 C 0.79723 1.17572 0.34383
 O458 O 0.70165 1.28873 0.35558
 O459 O 0.81140 1.36544 0.25589
 O460 O 0.78098 1.28612 0.35136
 O461 O 0.82722 1.32189 0.31097
 O462 O 0.70956 1.37830 0.24356
 O463 O 0.66426 1.34443 0.29179
 C464 C 0.81302 1.31229 0.34430
 H465 H 0.76172 1.33367 0.20232
 H466 H 0.65284 1.26514 0.29186
 H467 H 0.82707 1.24256 0.30795
 H468 H 0.74203 1.17311 0.20062
 H469 H 0.61021 1.33949 0.22862
 H470 H 0.59346 1.19255 0.23791
 H471 H 0.64540 1.13249 0.24108
 H472 H 0.80359 1.11090 0.26386
 H473 H 0.68211 1.39386 0.23425
 H474 H 0.84417 1.37313 0.25829
 H475 H 0.89496 1.31322 0.26714
 H476 H 0.87774 1.16119 0.27086
 H477 H 0.64116 1.36533 0.28307
 H478 H 0.70800 1.27695 0.38116
 H479 H 0.77937 1.22609 0.12073
 H480 H 0.84403 1.13889 0.21566
 N481 N 0.57257 1.05334 0.03442
 N482 N 0.59984 1.08593 0.03748
 N483 N 0.55755 0.96443 0.06745
 N484 N 0.57421 0.93886 0.09390
 N485 N 0.58550 0.96621 0.03863
 N486 N 0.62150 0.94186 0.04420
 N487 N 0.54464 1.05143 0.06329
 N488 N 0.55277 1.08240 0.08727
 C489 C 0.58683 1.10380 0.07025
 C490 C 0.61390 0.92502 0.07848
 N491 N 0.42661 0.94873 0.04634
 N492 N 0.40350 0.91413 0.05215
 N493 N 0.44604 1.04037 0.06814
 N494 N 0.43284 1.06855 0.09333
 N495 N 0.41437 1.03582 0.04176
 N496 N 0.37925 1.06088 0.04767
 N497 N 0.45904 0.95330 0.07206
 N498 N 0.45827 0.92211 0.09685
 Mn499 Mn 0.50185 1.00239 0.06831
 C500 C 0.42342 0.89815 0.08361
 C501 C 0.39130 1.08105 0.07961
 N502 N 0.57904 0.96029 -0.04201
 N503 N 0.61283 0.93335 -0.04704
 N504 N 0.53483 1.04225 -0.07250
 N505 N 0.53780 1.07196 -0.09869
 N506 N 0.56652 1.04744 -0.04623
 N507 N 0.59133 1.08072 -0.05314
 N508 N 0.54664 0.95513 -0.06771
 N509 N 0.55793 0.92501 -0.09158
 Mn510 Mn 0.57616 1.00685 -0.00385
 C511 C 0.59916 0.91185 -0.07795
 C512 C 0.57328 1.09552 -0.08575
 N513 N 0.40809 1.03028 -0.03904
 N514 N 0.37330 1.05614 -0.04475
 N515 N 0.44754 0.94408 -0.06270
 N516 N 0.43763 0.91287 -0.08613
 N517 N 0.42015 0.94316 -0.03347
 N518 N 0.39190 0.91132 -0.03547
 N519 N 0.43640 1.03138 -0.06765
 N520 N 0.42150 1.05786 -0.09394
 Mn521 Mn 0.41709 0.98961 0.00393
 Mn522 Mn 0.49133 0.99311 -0.06823
 Cl523 Cl 0.49665 0.99802 0.00002
 C524 C 0.38227 1.07298 -0.07892
 C525 C 0.40335 0.89252 -0.06801
 N526 N 0.94403 0.56949 0.53730
 N527 N 0.90695 0.59261 0.54081
 N528 N 1.04527 0.55785 0.56278
 N529 N 1.07858 0.57234 0.58481
 N530 N 1.03875 0.58286 0.53359
 N531 N 1.06751 0.61447 0.53437
 N532 N 0.95010 0.54471 0.56668
 N533 N 0.91739 0.55115 0.59177
 C534 C 0.89063 0.58076 0.57454
 C535 C 1.09208 0.60744 0.56623
 N536 N 1.06396 0.43835 0.54249
 N537 N 1.10199 0.41642 0.54672
 N538 N 0.96595 0.45439 0.57229
 N539 N 0.93527 0.44349 0.59785
 N540 N 0.96950 0.42516 0.54630
 N541 N 0.94147 0.39409 0.55285
 N542 N 1.06089 0.46763 0.56844
 N543 N 1.09664 0.46573 0.59186
 Mn544 Mn 1.00556 0.50622 0.56831
 C545 C 1.12201 0.43393 0.57725
 C546 C 0.92077 0.40566 0.58498
 N547 N 1.03372 0.57623 0.45353
 N548 N 1.06371 0.60599 0.44780
 N549 N 0.94272 0.53388 0.43152
 N550 N 0.90749 0.53619 0.40765
 N551 N 0.93928 0.56281 0.45769
 N552 N 0.90149 0.58492 0.45325
 N553 N 1.03733 0.54665 0.42798
 N554 N 1.06970 0.55576 0.40347
 Mn555 Mn 0.98892 0.57308 0.49552
 C556 C 1.08532 0.59296 0.41650
 C557 C 0.88196 0.56775 0.42239
 N558 N 0.96424 0.41896 0.46551
 N559 N 0.93630 0.38677 0.46268
 N560 N 1.05312 0.45730 0.43346
 N561 N 1.08629 0.45190 0.40868
 N562 N 1.05922 0.43226 0.46263
 N563 N 1.09686 0.40989 0.45929
 N564 N 0.95851 0.44459 0.43666
 N565 N 0.92691 0.43035 0.41301
 Mn566 Mn 1.01418 0.42839 0.50427
 Mn567 Mn 0.99793 0.49556 0.43179
 Cl568 Cl 1.00161 0.50076 0.50007
 C569 C 0.91332 0.39453 0.42998
 C570 C 1.11336 0.42261 0.42587
 N571 N 1.06842 0.43948 0.04245
 N572 N 1.10545 0.41684 0.04975
 N573 N 0.96797 0.44853 0.07040
 N574 N 0.94298 0.43250 0.09805
 N575 N 0.97471 0.42028 0.04394
 N576 N 0.95443 0.38491 0.05235
 N577 N 1.06177 0.46749 0.06913
 N578 N 1.09379 0.46383 0.09594
 C579 C 1.12105 0.43252 0.08284
 C580 C 0.93451 0.39292 0.08569
 N581 N 0.93851 0.56449 0.03792
 N582 N 0.90176 0.58778 0.04382
 N583 N 1.03944 0.55712 0.06470
 N584 N 1.06555 0.57512 0.09082
 N585 N 1.03255 0.58282 0.03590
 N586 N 1.05395 0.61851 0.04140
 N587 N 0.94586 0.53861 0.06649
 N588 N 0.91478 0.54455 0.09310
 Mn589 Mn 1.00369 0.50299 0.06817
 C590 C 0.88724 0.57490 0.07805
 C591 C 1.07461 0.61307 0.07536
 N592 N 0.97183 0.41598 -0.03703
 N593 N 0.94794 0.38137 -0.04168
 N594 N 1.05753 0.46018 -0.06731
 N595 N 1.08841 0.45467 -0.09406
 N596 N 1.06601 0.43519 -0.03849
 N597 N 1.10320 0.41258 -0.04425
 N598 N 0.96382 0.44230 -0.06503
 N599 N 0.93479 0.42608 -0.08994
 Mn600 Mn 1.02033 0.42763 0.00273
 C601 C 0.92501 0.38828 -0.07459
 C602 C 1.11689 0.42535 -0.07869
 N603 N 1.03064 0.57888 -0.04638
 N604 N 1.04903 0.61396 -0.05948
 N605 N 0.94247 0.53135 -0.06934
 N606 N 0.90988 0.53409 -0.09570
 N607 N 0.93633 0.56005 -0.04324
 N608 N 0.89905 0.58237 -0.05040
 N609 N 1.03677 0.54824 -0.07068
 N610 N 1.05964 0.56141 -0.10021
 Mn611 Mn 0.98456 0.57182 -0.00390
 Mn612 Mn 1.00000 0.49553 -0.06834
 Cl613 Cl 1.00210 0.49954 -0.00023
 C614 C 1.06847 0.60198 -0.09253
 C615 C 0.88287 0.56566 -0.08288
 N616 N 0.56735 1.06367 0.53646
 N617 N 0.58869 1.09972 0.53998
 N618 N 0.56623 0.97353 0.56939
 N619 N 0.58507 0.94961 0.59608
 N620 N 0.59480 0.97903 0.54139
 N621 N 0.63383 0.95908 0.54809
 N622 N 0.53906 1.05789 0.56461
 N623 N 0.54121 1.08944 0.58873
 C624 C 0.57164 1.11545 0.57235
 C625 C 0.62711 0.94082 0.58211
 N626 N 0.43904 0.93892 0.54877
 N627 N 0.41670 0.90547 0.56111
 N628 N 0.44360 1.03348 0.56860
 N629 N 0.42741 1.06196 0.59226
 N630 N 0.41235 1.02375 0.54307
 N631 N 0.37437 1.04556 0.54817
 N632 N 0.47185 0.94905 0.57279
 N633 N 0.47349 0.92269 0.60141
 Mn634 Mn 0.50512 1.00358 0.56917
 C635 C 0.43956 0.89544 0.59364
 C636 C 0.38429 1.06910 0.57886
 N637 N 0.59048 0.97295 0.45999
 N638 N 0.62865 0.95167 0.45406
 N639 N 0.53324 1.04839 0.42979
 N640 N 0.53339 1.07660 0.40220
 N641 N 0.56381 1.05776 0.45594
 N642 N 0.58487 1.09287 0.44758
 N643 N 0.55929 0.96386 0.43420
 N644 N 0.57554 0.93643 0.40966
 Mn645 Mn 0.57944 1.01835 0.49844
 C646 C 0.61868 0.92912 0.42274
 C647 C 0.56551 1.10418 0.41427
 N648 N 0.40871 1.01807 0.46171
 N649 N 0.37103 1.04056 0.45621
 N650 N 0.46390 0.93998 0.43823
 N651 N 0.46019 0.90964 0.41303
 N652 N 0.43632 0.93341 0.46682
 N653 N 0.41389 0.89809 0.46229
 N654 N 0.43768 1.02429 0.43404
 N655 N 0.42037 1.05081 0.40875
 Mn656 Mn 0.42366 0.97832 0.50502
 Mn657 Mn 0.49843 0.99412 0.43366
 Cl658 Cl 0.50165 0.99855 0.50159
 C659 C 0.37884 1.06054 0.42311
 C660 C 0.42964 0.88355 0.42904
 N661 N 1.07107 1.06212 0.53580
 N662 N 1.09561 1.09635 0.53991
 N663 N 1.06411 0.97125 0.56700
 N664 N 1.07971 0.94260 0.59121
 N665 N 1.09266 0.97579 0.53886
 N666 N 1.12818 0.95027 0.54275
 N667 N 1.04272 1.05756 0.56411
 N668 N 1.04819 1.08834 0.58897
 C669 C 1.08089 1.11248 0.57289
 C670 C 1.11974 0.93006 0.57552
 N671 N 0.93502 0.94272 0.54567
 N672 N 0.91153 0.90954 0.55714
 N673 N 0.94498 1.03743 0.56715
 N674 N 0.93174 1.06845 0.58954
 N675 N 0.91290 1.02913 0.54179
 N676 N 0.87749 1.05477 0.54576
 N677 N 0.96794 0.95138 0.57020
 N678 N 0.96855 0.92402 0.59816
 Mn679 Mn 1.00481 1.00454 0.56748
 C680 C 0.93362 0.89806 0.58966
 C681 C 0.88955 1.07879 0.57572
 N682 N 1.08859 0.97190 0.45789
 N683 N 1.12364 0.94584 0.45448
 N684 N 1.03560 1.05150 0.42898
 N685 N 1.03661 1.08129 0.40268
 N686 N 1.06698 1.05836 0.45515
 N687 N 1.08940 1.09318 0.44813
 N688 N 1.05740 0.96496 0.43159
 N689 N 1.07075 0.93404 0.40911
 Mn690 Mn 1.08000 1.01702 0.49691
 C691 C 1.11221 0.92267 0.42391
 C692 C 1.07028 1.10705 0.41547
 N693 N 0.90872 1.02513 0.46047
 N694 N 0.87295 1.05044 0.45693
 N695 N 0.96099 0.94516 0.43505
 N696 N 0.95983 0.91471 0.40993
 N697 N 0.93070 0.93882 0.46181
 N698 N 0.90718 0.90406 0.45473
 N699 N 0.93792 1.03133 0.43291
 N700 N 0.92225 1.06080 0.40950
 Mn701 Mn 0.92139 0.98356 0.50245
 Mn702 Mn 0.99780 0.99835 0.43170
 Cl703 Cl 1.00088 1.00081 0.49963
 C704 C 0.88168 1.07220 0.42504
 C705 C 0.92635 0.88938 0.42240
 N706 N 0.56247 0.56545 0.03679
 N707 N 0.58460 0.60063 0.04458
 N708 N 0.56161 0.47368 0.06530
 N709 N 0.57741 0.44440 0.08853
 N710 N 0.59082 0.48089 0.03809
 N711 N 0.62724 0.45625 0.04173
 N712 N 0.53198 0.55764 0.06296
 N713 N 0.53153 0.58753 0.08856
 C714 C 0.56400 0.61416 0.07657
 C715 C 0.61831 0.43410 0.07349
 N716 N 0.43518 0.43727 0.04405
 N717 N 0.41468 0.40222 0.05442
 N718 N 0.43858 0.53069 0.06657
 N719 N 0.42507 0.56155 0.08867
 N720 N 0.40678 0.52174 0.04130
 N721 N 0.37086 0.54678 0.04505
 N722 N 0.46819 0.44676 0.06811
 N723 N 0.47185 0.41822 0.09494
 Mn724 Mn 0.50010 0.50220 0.06602
 C725 C 0.43874 0.39059 0.08580
 C726 C 0.38286 0.57098 0.07491
 N727 N 0.58656 0.47796 -0.04297
 N728 N 0.62299 0.45363 -0.04690
 N729 N 0.52471 0.55254 -0.06992
 N730 N 0.52142 0.58026 -0.09743
 N731 N 0.55786 0.56233 -0.04603
 N732 N 0.57886 0.59680 -0.05742
 N733 N 0.55490 0.46872 -0.06827
 N734 N 0.56912 0.43826 -0.09060
 Mn735 Mn 0.57499 0.52196 -0.00357
 C736 C 0.61157 0.42945 -0.07686
 C737 C 0.55482 0.60780 -0.08908
 N738 N 0.40223 0.51816 -0.03972
 N739 N 0.36431 0.54050 -0.04442
 N740 N 0.46143 0.44157 -0.06437
 N741 N 0.46392 0.41029 -0.08849
 N742 N 0.43103 0.43391 -0.03811
 N743 N 0.41106 0.39733 -0.04424
 N744 N 0.43116 0.52552 -0.06708
 N745 N 0.41364 0.55287 -0.09149
 Mn746 Mn 0.41825 0.47755 0.00192
 Mn747 Mn 0.49304 0.49708 -0.06773
 Cl748 Cl 0.49661 0.49977 -0.00086
 C749 C 0.37203 0.56173 -0.07684
 C750 C 0.43274 0.38297 -0.07542
 N751 N 0.32948 1.13125 0.07702
 N752 N 0.30607 1.15642 0.09935
 C753 C 0.32408 1.15176 0.13439
 C754 C 0.35997 1.12329 0.13294
 N755 N 0.36209 1.11150 0.09647
 H756 H 0.38218 1.11244 0.15574
 N757 N 0.82337 0.62428 0.57024
 N758 N 0.79949 0.64998 0.59180
 C759 C 0.81464 0.64369 0.62748
 C760 C 0.84810 0.61284 0.62740
 N761 N 0.85258 0.60176 0.59098
 H762 H 0.87016 0.60288 0.65063
 N763 N 0.67892 0.87825 0.07674
 N764 N 0.70254 0.85243 0.09892
 C765 C 0.68345 0.85469 0.13338
 C766 C 0.64688 0.88243 0.13174
 N767 N 0.64532 0.89622 0.09575
 H768 H 0.62324 0.89082 0.15392
 N769 N 1.19422 0.39765 0.57346
 N770 N 1.21935 0.37195 0.59471
 C771 C 1.20254 0.37443 0.62995
 C772 C 1.16672 0.40298 0.62985
 N773 N 1.16261 0.41666 0.59396
 H774 H 1.14238 0.40871 0.65219
 N775 N 0.60623 1.16396 -0.08235
 N776 N 0.63202 1.18884 -0.10294
 C777 C 0.63311 1.17229 -0.13792
 C778 C 0.60627 1.13664 -0.13842
 N779 N 0.59016 1.13268 -0.10302
 H780 H 0.60268 1.11386 -0.16090
 N781 N 1.15179 0.63592 0.42342
 N782 N 1.17782 0.66034 0.40271
 C783 C 1.16418 0.65511 0.36647
 C784 C 1.12942 0.62608 0.36530
 N785 N 1.12297 0.61501 0.40154
 H786 H 1.10886 0.61635 0.34122
 N787 N 0.34866 0.83630 -0.06218
 N788 N 0.32285 0.81198 -0.08386
 C789 C 0.33525 0.81965 -0.11976
 C790 C 0.36997 0.84900 -0.11948
 N791 N 0.37722 0.85853 -0.08297
 H792 H 0.38623 0.86376 -0.14341
 N793 N 0.85794 0.33862 0.43492
 N794 N 0.83053 0.31628 0.41288
 C795 C 0.83560 0.33091 0.37734
 C796 C 0.86678 0.36321 0.37818
 N797 N 0.87975 0.36692 0.41464
 H798 H 0.87970 0.38131 0.35469
 N799 N 1.19573 0.39969 0.08375
 N800 N 1.22152 0.37597 0.10633
 C801 C 1.20155 0.37596 0.14052
 C802 C 1.16251 0.40104 0.13821
 N803 N 1.16026 0.41521 0.10221
 H804 H 1.13591 0.40455 0.15911
 N805 N 0.69989 0.90387 0.58451
 N806 N 0.72324 0.87768 0.60667
 C807 C 0.69844 0.87247 0.63827
 C808 C 0.65869 0.89619 0.63471
 N809 N 0.66101 0.91511 0.60064
 H810 H 0.63007 0.89777 0.65390
 N811 N 1.05968 0.62658 -0.15608
 N812 N 1.08246 0.64753 -0.18191
 C813 C 1.11890 0.66502 -0.16439
 C814 C 1.11718 0.65451 -0.12615
 N815 N 1.07956 0.63028 -0.12246
 H816 H 1.14268 0.66033 -0.10432
 N817 N 0.58922 1.17597 0.41240
 N818 N 0.61382 1.20080 0.39077
 C819 C 0.62024 1.18044 0.35788
 C820 C 0.59813 1.14226 0.35978
 N821 N 0.57918 1.14087 0.39438
 H822 H 0.60025 1.11640 0.34007
 N823 N 0.81437 0.61120 0.07695
 N824 N 0.78781 0.63342 0.09954
 C825 C 0.80571 0.63014 0.13477
 C826 C 0.84442 0.60456 0.13304
 N827 N 0.84850 0.59357 0.09632
 H828 H 0.86944 0.59829 0.15523
 N829 N 0.31708 1.11401 0.57503
 N830 N 0.29409 1.14130 0.59580
 C831 C 0.31561 1.14298 0.62971
 C832 C 0.35302 1.11606 0.62904
 N833 N 0.35263 1.09876 0.59431
 H834 H 0.37819 1.11013 0.65120
 N835 N 0.87807 0.32611 -0.07219
 N836 N 0.85131 0.30330 -0.09436
 C837 C 0.85138 0.32142 -0.12887
 C838 C 0.87894 0.35653 -0.12716
 N839 N 0.89477 0.35822 -0.09121
 H840 H 0.88661 0.37852 -0.14956
 N841 N 0.39004 0.81775 0.42933
 N842 N 0.36511 0.79474 0.40602
 C843 C 0.36897 0.81192 0.37131
 C844 C 0.39775 0.84592 0.37380
 N845 N 0.40992 0.84841 0.41057
 H846 H 0.40516 0.86887 0.35212
 N847 N 1.09698 1.17825 0.41785
 N848 N 1.12035 1.20487 0.39693
 C849 C 1.12323 1.18816 0.36206
 C850 C 1.10033 1.15010 0.36227
 N851 N 1.08441 1.14524 0.39774
 H852 H 1.10023 1.12631 0.34046
 N853 N 0.53838 0.65365 -0.14175
 N854 N 0.56048 0.67613 -0.16706
 C855 C 0.60466 0.67721 -0.15563
 C856 C 0.60902 0.65493 -0.12213
 N857 N 0.56675 0.64062 -0.11462
 H858 H 0.64029 0.64624 -0.10716
 N859 N 0.83002 1.13212 0.56859
 N860 N 0.80776 1.16046 0.58888
 C861 C 0.82540 1.15873 0.62429
 C862 C 0.85972 1.12826 0.62495
 N863 N 0.86140 1.11251 0.58958
 H864 H 0.88014 1.11763 0.64893
 N865 N 0.32207 0.62330 0.06960
 N866 N 0.30287 0.65296 0.09042
 C867 C 0.32481 0.65243 0.12426
 C868 C 0.35808 0.62161 0.12364
 N869 N 0.35515 0.60426 0.08911
 H870 H 0.38130 0.61203 0.14623
 N871 N 1.17924 0.87709 0.56954
 N872 N 1.20204 0.84920 0.59041
 C873 C 1.18599 0.85246 0.62594
 C874 C 1.15207 0.88321 0.62611
 N875 N 1.14908 0.89762 0.59033
 H876 H 1.13196 0.89420 0.64972
 N877 N 0.68097 0.38357 0.06930
 N878 N 0.70114 0.35421 0.09038
 C879 C 0.67943 0.35396 0.12390
 C880 C 0.64529 0.38404 0.12278
 N881 N 0.64748 0.40173 0.08830
 H882 H 0.62164 0.39259 0.14491
 N883 N 0.94450 0.82949 0.38374
 N884 N 0.92413 0.80300 0.36033
 C885 C 0.87858 0.80812 0.36437
 C886 C 0.87169 0.83919 0.39141
 N887 N 0.91392 0.85155 0.40282
 H888 H 0.83973 0.85462 0.39845
 N889 N 0.45167 0.32486 -0.11567
 N890 N 0.43094 0.30080 -0.14091
 C891 C 0.38552 0.30667 -0.13663
 C892 C 0.37895 0.33508 -0.10770
 N893 N 0.42119 0.34565 -0.09543
 H894 H 0.34736 0.35100 -0.10036
 N895 N 1.18894 0.38826 -0.07853
 N896 N 1.21390 0.36499 -0.10141
 C897 C 1.19463 0.36819 -0.13615
 C898 C 1.15706 0.39480 -0.13401
 N899 N 1.15480 0.40642 -0.09742
 H900 H 1.13148 0.40140 -0.15570
 N901 N 0.68718 0.88595 0.42406
 N902 N 0.70978 0.85935 0.40237
 C903 C 0.68674 0.85742 0.36913
 C904 C 0.64883 0.88357 0.37112
 N905 N 0.65047 0.90059 0.40598
 H906 H 0.62249 0.88912 0.34982
 N907 N 0.80720 0.59624 -0.08364
 N908 N 0.78114 0.61998 -0.10596
 C909 C 0.80178 0.62152 -0.13985
 C910 C 0.84138 0.59735 -0.13773
 N911 N 0.84333 0.58215 -0.10210
 H912 H 0.86844 0.59511 -0.15836
 N913 N 0.31172 1.10563 0.42461
 N914 N 0.28990 1.13365 0.40325
 C915 C 0.31237 1.13570 0.37017
 C916 C 0.34908 1.10802 0.37192
 N917 N 0.34736 1.09004 0.40645
 H918 H 0.37489 1.10226 0.35075
 N919 N 1.11214 0.68025 0.07555
 N920 N 1.13610 0.70471 0.09838
 C921 C 1.13875 0.68496 0.13209
 C922 C 1.11605 0.64717 0.12922
 N923 N 1.10016 0.64555 0.09336
 H924 H 1.11271 0.62290 0.15046
 N925 N 0.60889 1.18260 0.57010
 N926 N 0.63242 1.20741 0.59294
 C927 C 0.62800 1.19184 0.62820
 C928 C 0.60045 1.15691 0.62644
 N929 N 0.58947 1.15225 0.58963
 H930 H 0.59360 1.13455 0.64875
 N931 N 0.90355 0.32373 0.09013
 N932 N 0.87902 0.29985 0.11256
 C933 C 0.87022 0.32253 0.14373
 C934 C 0.89000 0.36177 0.13964
 N935 N 0.91028 0.36098 0.10551
 H936 H 0.88807 0.38844 0.15845
 N937 N 0.44936 0.86006 0.65292
 N938 N 0.42642 0.83702 0.67713
 C939 C 0.38669 0.82622 0.66000
 C940 C 0.38631 0.84320 0.62362
 N941 N 0.42603 0.86467 0.62086
 H942 H 0.35847 0.84357 0.60310
 N943 N 0.32099 1.12397 -0.07774
 N944 N 0.30011 1.15135 -0.10023
 C945 C 0.31980 1.14800 -0.13442
 C946 C 0.35383 1.11775 -0.13231
 N947 N 0.35335 1.10375 -0.09634
 H948 H 0.37693 1.10750 -0.15425
 N949 N 0.81181 0.60680 0.42449
 N950 N 0.78992 0.63466 0.40313
 C951 C 0.80884 0.63236 0.36865
 C952 C 0.84221 0.60161 0.36910
 N953 N 0.84309 0.58655 0.40462
 H954 H 0.86711 0.59483 0.34742
 N955 N 0.63589 1.16428 0.06601
 N956 N 0.65900 1.18992 0.08841
 C957 C 0.64757 1.18023 0.12421
 C958 C 0.61617 1.14795 0.12311
 N959 N 0.61002 1.13897 0.08621
 H960 H 0.60206 1.13070 0.14664
 N961 N 1.14707 0.66353 0.55777
 N962 N 1.17296 0.68883 0.57854
 C963 C 1.16737 0.67694 0.61478
 C964 C 1.13791 0.64329 0.61565
 N965 N 1.12613 0.63593 0.57956
 H966 H 1.12488 0.62693 0.64012
 N967 N 0.65238 0.85389 -0.07257
 N968 N 0.67469 0.82721 -0.09431
 C969 C 0.66171 0.83559 -0.13030
 C970 C 0.63016 0.86808 -0.13008
 N971 N 0.62539 0.87836 -0.09342
 H972 H 0.61345 0.88340 -0.15394
 N973 N 1.18205 0.38121 0.42987
 N974 N 1.20542 0.35503 0.40842
 C975 C 1.18847 0.35961 0.37306
 C976 C 1.15463 0.38995 0.37311
 N977 N 1.15162 0.40242 0.40925
 H978 H 1.13126 0.39851 0.35029
 N979 N 0.39119 0.82927 0.07978
 N980 N 0.36705 0.80369 0.10107
 C981 C 0.36832 0.81946 0.13637
 C982 C 0.39467 0.85526 0.13633
 N983 N 0.40818 0.86021 0.10036
 H984 H 0.39889 0.87789 0.15887
 N985 N 0.85775 0.35872 0.57818
 N986 N 0.83243 0.33341 0.59862
 C987 C 0.84425 0.33983 0.63508
 C988 C 0.87734 0.37075 0.63658
 N989 N 0.88450 0.38160 0.60026
 H990 H 0.89573 0.38256 0.66105
 N991 N 1.12075 1.17825 0.56806
 N992 N 1.14408 1.20471 0.58950
 C993 C 1.13882 1.19235 0.62566
 C994 C 1.11085 1.15724 0.62569
 N995 N 1.10048 1.14956 0.58905
 H996 H 1.10267 1.13717 0.64939
 N997 N 0.54810 0.66988 0.12022
 N998 N 0.57015 0.69292 0.14547
 C999 C 0.61528 0.68721 0.13947
 C1000 C 0.62031 0.65990 0.10938
 N1001 N 0.57739 0.64988 0.09825
 H1002 H 0.65151 0.64478 0.09997
 N1003 N 1.17121 0.86903 0.43172
 N1004 N 1.19409 0.84098 0.41158
 C1005 C 1.17749 0.84339 0.37589
 C1006 C 1.14318 0.87380 0.37487
 N1007 N 1.14042 0.88893 0.41034
 H1008 H 1.12336 0.88470 0.35065
 N1009 N 0.67310 0.37797 -0.07105
 N1010 N 0.69349 0.34884 -0.09170
 C1011 C 0.67266 0.34950 -0.12598
 C1012 C 0.63873 0.37981 -0.12577
 N1013 N 0.64021 0.39674 -0.09101
 H1014 H 0.61583 0.38912 -0.14867
 N1015 N 0.81924 1.12250 0.43111
 N1016 N 0.79605 1.15050 0.41061
 C1017 C 0.81435 1.15009 0.37577
 C1018 C 0.84992 1.12101 0.37564
 N1019 N 0.85175 1.10458 0.41074
 H1020 H 0.87168 1.11224 0.35230
 N1021 N 0.30466 0.60689 -0.07472
 N1022 N 0.28266 0.63475 -0.09620
 C1023 C 0.30528 0.63657 -0.12923
 C1024 C 0.34200 0.60913 -0.12736
 N1025 N 0.34035 0.59135 -0.09288
 H1026 H 0.36766 0.60312 -0.14861
 N1027 N 0.94942 0.85025 0.64105
 N1028 N 0.92804 0.82508 0.66467
 C1029 C 0.88407 0.82285 0.65282
 C1030 C 0.87916 0.84775 0.62058
 N1031 N 0.92098 0.86436 0.61442
 H1032 H 0.84782 0.85597 0.60552
 N1033 N 0.45684 0.34112 0.13530
 N1034 N 0.43537 0.31778 0.16033
 C1035 C 0.39059 0.31843 0.15055
 C1036 C 0.38513 0.34276 0.11838
 N1037 N 0.42743 0.35641 0.10997
 H1038 H 0.35337 0.35350 0.10534
   
