data_POSCAR
  _audit_creation_date              2014-09-24
  _audit_creation_method            'ToBaCCo'
  _symmetry_space_group_name_H-M    'P1'
  _symmetry_Int_Tables_number       1
  _symmetry_cell_setting            triclinic
  loop_
  _symmetry_equiv_pos_as_xyz
 x,y,z
_cell_length_a 25.2430
_cell_length_b 25.4596
_cell_length_c 26.0056
_cell_angle_alpha 90.481700
_cell_angle_beta 89.930400
_cell_angle_gamma 89.790600
loop_
  _atom_site_label
  _atom_site_type_symbol
  _atom_site_fract_x
  _atom_site_fract_y
  _atom_site_fract_z
C1 C 0.32354 0.38982 1.38698
 C2 C 0.35551 0.35053 1.40902
 C3 C 0.40207 0.33254 1.38441
 C4 C 0.41643 0.35502 1.33722
 C5 C 0.38637 0.39562 1.31589
 C6 C 0.34116 0.41405 1.34164
 H7 H 0.34283 0.33243 1.44452
 H8 H 0.45157 0.34142 1.31705
 H9 H 0.31772 0.44480 1.32405
 C10 C 1.17551 0.60593 0.89744
 C11 C 1.15787 0.58495 0.85003
 C12 C 1.11831 0.61048 0.82150
 C13 C 1.09961 0.65983 0.83806
 C14 C 1.11675 0.68162 0.88480
 C15 C 1.15164 0.65265 0.91554
 H16 H 1.17616 0.54999 0.83389
 H17 H 1.07196 0.68135 0.81425
 H18 H 1.16190 0.66798 0.95322
 C19 C 0.68425 -0.10983 0.11590
 C20 C 0.65542 -0.15046 0.09201
 C21 C 0.60754 -0.16910 0.11265
 C22 C 0.58701 -0.14432 0.15690
 C23 C 0.61349 -0.10178 0.17975
 C24 C 0.66179 -0.08465 0.15918
 H25 H 0.67013 -0.16770 0.05647
 H26 H 0.55172 -0.15955 0.17522
 H27 H 0.68318 -0.05371 0.17902
 C28 C -0.16787 1.11266 -0.39093
 C29 C -0.14714 1.15939 -0.41019
 C30 C -0.11263 1.19105 -0.38052
 C31 C -0.09468 1.17103 -0.33296
 C32 C -0.11332 1.12269 -0.31455
 C33 C -0.14923 1.09354 -0.34413
 H34 H -0.16001 1.17186 -0.44785
 H35 H -0.06907 1.19419 -0.30836
 H36 H -0.16518 1.05722 -0.32921
 C37 C 0.67606 0.62519 0.61501
 C38 C 0.65018 0.66881 0.59400
 C39 C 0.60320 0.68846 0.61604
 C40 C 0.58319 0.66499 0.66066
 C41 C 0.60867 0.62127 0.68227
 C42 C 0.65564 0.60242 0.65981
 H43 H 0.66673 0.68761 0.56040
 H44 H 0.54784 0.68091 0.67874
 H45 H 0.67636 0.56975 0.67723
 C46 C 0.83654 0.40239 0.10790
 C47 C 0.86240 0.35923 0.08496
 C48 C 0.90688 0.33569 0.10821
 C49 C 0.92513 0.35640 0.15529
 C50 C 0.89851 0.39836 0.17947
 C51 C 0.85451 0.42126 0.15563
 H52 H 0.84769 0.34388 0.04870
 H53 H 0.95765 0.33753 0.17523
 H54 H 0.83307 0.45253 0.17520
 C55 C 0.33397 0.11135 0.89567
 C56 C 0.35048 0.09593 0.84579
 C57 C 0.39482 0.11852 0.82258
 C58 C 0.42218 0.15872 0.84790
 C59 C 0.40525 0.17651 0.89623
 C60 C 0.36199 0.15241 0.92021
 H61 H 0.32739 0.06824 0.82337
 H62 H 0.45475 0.17812 0.82870
 H63 H 0.35048 0.16624 0.95811
 C64 C 0.17265 0.90617 0.39450
 C65 C 0.15307 0.92661 0.34795
 C66 C 0.10995 0.90347 0.32264
 C67 C 0.08696 0.85805 0.34290
 C68 C 0.10635 0.83630 0.38852
 C69 C 0.14892 0.86031 0.41399
 H70 H 0.17285 0.95922 0.32965
 H71 H 0.05471 0.83901 0.32263
 H72 H 0.16297 0.84322 0.44951
 Zn73 Zn -0.05707 1.04094 -0.01151
 Zn74 Zn 0.03605 0.99114 -0.06230
 Zn75 Zn 0.04917 1.04667 0.03930
 Zn76 Zn -0.00872 0.94489 0.03285
 O77 O 0.00501 1.00602 -0.00038
 O78 O -0.06923 1.05206 -0.07796
 O79 O 0.10043 1.01898 -0.06736
 O80 O 0.02166 1.11083 0.05283
 O81 O -0.00099 1.01440 -0.11666
 O82 O -0.05693 1.10514 0.01624
 O83 O 0.11249 1.05679 0.00869
 O84 O 0.01985 0.94269 0.09525
 O85 O 0.04723 0.92231 -0.07181
 O86 O 0.06282 1.01804 0.10114
 O87 O 0.01523 0.88773 -0.00036
 O88 O -0.07729 0.93502 0.04315
 O89 O -0.11457 1.00684 0.01241
 C90 C -0.04443 1.03963 -0.11868
 C91 C 0.12962 1.04330 -0.03556
 C92 C -0.02252 1.13142 0.04093
 C93 C 0.04798 0.97488 0.12054
 C94 C 0.03839 0.88305 -0.04339
 C95 C -0.11818 0.96218 0.03359
 Zn96 Zn 0.48218 -0.04708 0.46492
 Zn97 Zn 0.53415 -0.00345 0.55869
 Zn98 Zn 0.54748 0.05044 0.45766
 Zn99 Zn 0.44254 0.05165 0.51211
 O100 O 0.50176 0.01301 0.49824
 O101 O 0.50147 -0.10502 0.49848
 O102 O 0.60018 0.02037 0.56151
 O103 O 0.55965 0.01915 0.39673
 O104 O 0.54090 -0.07280 0.56744
 O105 O 0.51134 -0.05289 0.40260
 O106 O 0.61141 0.05992 0.48695
 O107 O 0.44556 0.11532 0.48439
 O108 O 0.50130 0.02400 0.61448
 O109 O 0.52263 0.11479 0.44328
 O110 O 0.43264 0.06325 0.57891
 O111 O 0.38274 0.02223 0.48899
 O112 O 0.41248 -0.05147 0.45413
 C113 C 0.52737 -0.11175 0.53962
 C114 C 0.62903 0.04546 0.53032
 C115 C 0.54225 -0.02340 0.37754
 C116 C 0.48009 0.13776 0.45685
 C117 C 0.45973 0.05213 0.61829
 C118 C 0.37458 -0.02035 0.46472
 Zn119 Zn 0.94060 0.47991 0.48514
 Zn120 Zn 1.04279 0.46521 0.54084
 Zn121 Zn 1.03822 0.52470 0.44142
 Zn122 Zn 0.98945 0.57120 0.53628
 O123 O 1.00318 0.51027 0.50110
 O124 O 0.93421 0.41773 0.51356
 O125 O 1.10487 0.44834 0.51104
 O126 O 1.00546 0.49954 0.38493
 O127 O 1.00950 0.40331 0.55315
 O128 O 0.93202 0.46747 0.41837
 O129 O 1.10213 0.49461 0.43926
 O130 O 1.01157 0.62843 0.50248
 O131 O 1.05888 0.49369 0.60268
 O132 O 1.04767 0.59374 0.43220
 O133 O 1.02059 0.57215 0.59773
 O134 O 0.92030 0.58090 0.55034
 O135 O 0.88426 0.51515 0.50746
 C136 C 0.96356 0.38800 0.53971
 C137 C 1.12538 0.46248 0.46876
 C138 C 0.96210 0.47493 0.38016
 C139 C 1.03487 0.63347 0.45945
 C140 C 1.04738 0.53828 0.62213
 C141 C 0.87987 0.55462 0.53702
 Zn142 Zn 0.56279 0.54266 0.98477
 Zn143 Zn 0.52370 0.44713 1.03731
 Zn144 Zn 0.46021 0.54674 1.04198
 Zn145 Zn 0.46977 0.48610 0.94333
 O146 O 0.50398 0.50568 1.00201
 O147 O 0.62331 0.51243 1.00600
 O148 O 0.49292 0.44384 1.09890
 O149 O 0.48744 0.61056 1.05616
 O150 O 0.59338 0.44392 1.04858
 O151 O 0.56270 0.60640 1.01292
 O152 O 0.44543 0.51722 1.10244
 O153 O 0.40309 0.50914 0.94161
 O154 O 0.50542 0.38704 1.00544
 O155 O 0.39673 0.55693 1.01290
 O156 O 0.46503 0.41688 0.93604
 O157 O 0.50006 0.51064 0.88614
 O158 O 0.56824 0.55418 0.91729
 C159 C 0.63147 0.47275 1.03419
 C160 C 0.46056 0.47418 1.12179
 C161 C 0.53047 0.63139 1.04156
 C162 C 0.37657 0.53816 0.97203
 C163 C 0.48042 0.37913 0.96381
 C164 C 0.53962 0.54031 0.87948
 C165 C 1.23527 0.36744 0.42511
 C166 C 1.27428 0.40455 0.40904
 C167 C 1.26256 0.45842 0.41361
 C168 C 1.21501 0.47594 0.43455
 C169 C 1.17701 0.44058 0.45212
 C170 C 1.18682 0.38574 0.44773
 C171 C 1.24074 0.31292 0.41485
 C172 C 1.20214 0.27734 0.43015
 C173 C 1.15624 0.29508 0.45417
 C174 C 1.14805 0.34864 0.46215
 H175 H 1.27372 0.29697 0.39331
 H176 H 1.20741 0.23580 0.42235
 H177 H 1.12608 0.26728 0.46536
 H178 H 1.11051 0.36024 0.47866
 H179 H 1.29107 0.48769 0.40179
 H180 H 1.20769 0.51787 0.43693
 C181 C 0.23245 0.53031 0.92598
 C182 C 0.22057 0.58509 0.92311
 C183 C 0.25775 0.62087 0.94358
 C184 C 0.30688 0.60441 0.96105
 C185 C 0.32140 0.55160 0.95874
 C186 C 0.28363 0.51362 0.94296
 C187 C 0.19363 0.49164 0.91603
 C188 C 0.20586 0.43830 0.91898
 C189 C 0.25636 0.42221 0.93338
 C190 C 0.29477 0.45930 0.94594
 H191 H 0.15306 0.50212 0.90751
 H192 H 0.17569 0.40929 0.91087
 H193 H 0.26543 0.38073 0.93615
 H194 H 0.33255 0.44484 0.95944
 H195 H 0.25101 0.66282 0.94266
 H196 H 0.33502 0.63378 0.97390
 C197 C -0.22741 0.86875 0.07710
 C198 C -0.26562 0.90557 0.09637
 C199 C -0.25396 0.95950 0.09337
 C200 C -0.20729 0.97708 0.07080
 C201 C -0.17055 0.94169 0.04966
 C202 C -0.18180 0.88706 0.05042
 C203 C -0.23138 0.81419 0.08658
 C204 C -0.19636 0.77847 0.06387
 C205 C -0.15600 0.79621 0.03217
 C206 C -0.14843 0.84991 0.02561
 H207 H -0.26080 0.79860 0.11244
 H208 H -0.20078 0.73682 0.07069
 H209 H -0.12967 0.76831 0.01350
 H210 H -0.11656 0.86177 0.00052
 H211 H -0.28185 0.98880 0.10726
 H212 H -0.19941 1.01889 0.07071
 C213 C 0.77906 0.07322 0.53444
 C214 C 0.78318 0.09042 0.58627
 C215 C 0.73803 0.09050 0.61756
 C216 C 0.68921 0.07538 0.59835
 C217 C 0.68329 0.05967 0.54695
 C218 C 0.72872 0.05740 0.51453
 C219 C 0.82411 0.07005 0.50241
 C220 C 0.81988 0.05199 0.45184
 C221 C 0.77107 0.03606 0.43252
 C222 C 0.72593 0.03826 0.46348
 H223 H 0.86301 0.08068 0.51639
 H224 H 0.85479 0.04971 0.42770
 H225 H 0.76825 0.02135 0.39344
 H226 H 0.68943 0.02385 0.44711
 H227 H 0.74022 0.10399 0.65712
 H228 H 0.65525 0.07720 0.62387
 C229 C 0.44194 0.28271 0.45715
 C230 C 0.43049 0.28901 0.40387
 C231 C 0.44488 0.24831 0.36944
 C232 C 0.46377 0.20042 0.38721
 C233 C 0.46950 0.19169 0.43979
 C234 C 0.46120 0.23348 0.47510
 C235 C 0.43798 0.32508 0.49251
 C236 C 0.45032 0.31839 0.54430
 C237 C 0.46794 0.26993 0.56182
 C238 C 0.47355 0.22780 0.52767
 H239 H 0.42695 0.36410 0.48029
 H240 H 0.44700 0.35123 0.57083
 H241 H 0.47809 0.26515 0.60195
 H242 H 0.48921 0.19131 0.54245
 H243 H 0.43729 0.25158 0.32860
 H244 H 0.47092 0.16886 0.35981
 C245 C 0.86934 0.27403 0.57127
 C246 C 0.90299 0.24167 0.60187
 C247 C 0.95479 0.25949 0.61159
 C248 C 0.97358 0.30601 0.59045
 C249 C 0.94282 0.33561 0.55622
 C250 C 0.89108 0.31687 0.54336
 C251 C 0.81378 0.26662 0.56962
 C252 C 0.78268 0.29240 0.53354
 C253 C 0.80606 0.32669 0.49917
 C254 C 0.85952 0.33917 0.50400
 H255 H 0.79392 0.24068 0.59608
 H256 H 0.74056 0.28486 0.53153
 H257 H 0.78239 0.34482 0.46946
 H258 H 0.87526 0.36486 0.47518
 H259 H 0.98214 0.23666 0.63443
 H260 H 1.01320 0.31850 0.60065
 C261 C 0.13435 0.77297 -0.07788
 C262 C 0.09872 0.73483 -0.09819
 C263 C 0.04429 0.74652 -0.09950
 C264 C 0.02496 0.79454 -0.08112
 C265 C 0.05927 0.83148 -0.05935
 C266 C 0.11396 0.82004 -0.05555
 C267 C 0.18992 0.76602 -0.07982
 C268 C 0.22369 0.80067 -0.05427
 C269 C 0.20305 0.84392 -0.02797
 C270 C 0.14888 0.85447 -0.02964
 H271 H 0.20787 0.73418 -0.10137
 H272 H 0.26607 0.79404 -0.05504
 H273 H 0.22936 0.87057 -0.00789
 H274 H 0.13459 0.88953 -0.01022
 H275 H 0.01639 0.71807 -0.11454
 H276 H -0.01706 0.80289 -0.08377
 C277 C 0.52933 0.77756 1.08362
 C278 C 0.58470 0.78427 1.09266
 C279 C 0.61894 0.74183 1.08247
 C280 C 0.59991 0.69349 1.06663
 C281 C 0.54574 0.68495 1.05909
 C282 C 0.50974 0.72756 1.06654
 C283 C 0.49359 0.82039 1.08688
 C284 C 0.43995 0.81393 1.07620
 C285 C 0.42086 0.76531 1.06040
 C286 C 0.45527 0.72273 1.05484
 H287 H 0.50675 0.85970 1.09602
 H288 H 0.41320 0.84716 1.07910
 H289 H 0.37930 0.76086 1.05118
 H290 H 0.43852 0.68686 1.03982
 H291 H 0.66113 0.74499 1.08928
 H292 H 0.62830 0.66190 1.06101
 C293 C 0.36877 0.41436 1.22150
 C294 C 0.40188 0.41756 1.26555
 C295 C 0.45219 0.44028 1.26140
 C296 C 0.47022 0.45955 1.21468
 C297 C 0.43812 0.45741 1.17101
 C298 C 0.38683 0.43528 1.17401
 C299 C 0.31902 0.38911 1.22292
 C300 C 0.28716 0.38640 1.17920
 C301 C 0.30434 0.40798 1.13315
 C302 C 0.35380 0.43192 1.13027
 H303 H 0.30446 0.37059 1.25736
 H304 H 0.24905 0.36713 1.18099
 H305 H 0.27948 0.40562 1.09932
 H306 H 0.36598 0.44742 1.09349
 H307 H 0.47799 0.44254 1.29461
 H308 H 0.50973 0.47587 1.21244
 C309 C 0.57827 -0.02546 0.23385
 C310 C 0.59350 -0.07893 0.22865
 C311 C 0.59012 -0.11209 0.27115
 C312 C 0.57314 -0.09313 0.31863
 C313 C 0.55905 -0.04025 0.32542
 C314 C 0.56058 -0.00591 0.28259
 C315 C 0.57865 0.00859 0.19128
 C316 C 0.56228 0.06070 0.19649
 C317 C 0.54444 0.07966 0.24378
 C318 C 0.54310 0.04679 0.28637
 H319 H 0.59083 -0.00483 0.15349
 H320 H 0.56275 0.08633 0.16349
 H321 H 0.53099 0.11996 0.24736
 H322 H 0.52723 0.06305 0.32167
 H323 H 0.60152 -0.15305 0.26769
 H324 H 0.57182 -0.11999 0.35072
 C325 C -0.13626 1.09111 -0.22476
 C326 C -0.09803 1.10346 -0.26287
 C327 C -0.04447 1.09334 -0.25331
 C328 C -0.02829 1.07114 -0.20713
 C329 C -0.06519 1.05737 -0.16916
 C330 C -0.12013 1.06543 -0.17880
 C331 C -0.19032 1.10412 -0.23120
 C332 C -0.22813 1.08838 -0.19551
 C333 C -0.21301 1.05939 -0.15290
 C334 C -0.15971 1.04780 -0.14452
 H335 H -0.20385 1.12685 -0.26359
 H336 H -0.26946 1.09813 -0.20132
 H337 H -0.24272 1.04598 -0.12602
 H338 H -0.15048 1.02385 -0.11165
 H339 H -0.01486 1.10242 -0.28207
 H340 H 0.01374 1.06546 -0.20073
 C341 C 1.04351 0.57829 0.76392
 C342 C 1.09832 0.58706 0.77271
 C343 C 1.13483 0.57492 0.73361
 C344 C 1.11784 0.55693 0.68561
 C345 C 1.06383 0.55122 0.67510
 C346 C 1.02613 0.56098 0.71452
 C347 C 1.00559 0.58542 0.80342
 C348 C 0.95186 0.57735 0.79401
 C349 C 0.93483 0.56141 0.74549
 C350 C 0.97144 0.55294 0.70610
 H351 H 1.01701 0.59648 0.84207
 H352 H 0.92330 0.58313 0.82464
 H353 H 0.89308 0.55497 0.73850
 H354 H 0.95654 0.53936 0.66935
 H355 H 1.17681 0.58099 0.73976
 H356 H 1.14696 0.54941 0.65577
 C357 C 0.73460 0.55065 0.58155
 C358 C 0.72599 0.60489 0.59164
 C359 C 0.76715 0.64050 0.58279
 C360 C 0.81631 0.62339 0.56497
 C361 C 0.82672 0.56987 0.55675
 C362 C 0.78611 0.53259 0.56717
 C363 C 0.69303 0.51385 0.58549
 C364 C 0.70297 0.46020 0.58090
 C365 C 0.75425 0.44219 0.57232
 C366 C 0.79548 0.47771 0.56539
 H367 H 0.65251 0.52609 0.59208
 H368 H 0.67090 0.43243 0.58500
 H369 H 0.76209 0.40043 0.57092
 H370 H 0.83455 0.46121 0.56023
 H371 H 0.76147 0.68203 0.59044
 H372 H 0.84668 0.65241 0.55780
 C373 C 0.77771 0.47811 1.07757
 C374 C 0.78696 0.42361 1.08490
 C375 C 0.74656 0.38791 1.07335
 C376 C 0.69744 0.40500 1.05616
 C377 C 0.68609 0.45863 1.05067
 C378 C 0.72635 0.49606 1.06230
 C379 C 0.81851 0.51521 1.08500
 C380 C 0.80834 0.56885 1.08111
 C381 C 0.75753 0.58659 1.06998
 C382 C 0.71684 0.55084 1.06084
 H383 H 0.85865 0.50319 1.09354
 H384 H 0.83993 0.59682 1.08737
 H385 H 0.74959 0.62837 1.06826
 H386 H 0.67812 0.56714 1.05370
 H387 H 0.75262 0.34617 1.07883
 H388 H 0.66760 0.37570 1.04765
 C389 C 0.27157 1.03652 -0.08971
 C390 C 0.28741 1.08979 -0.08187
 C391 C 0.25305 1.12323 -0.05387
 C392 C 0.20326 1.10662 -0.03800
 C393 C 0.18468 1.05651 -0.05059
 C394 C 0.21909 1.02058 -0.07651
 C395 C 0.30771 0.99778 -0.10759
 C396 C 0.29093 0.94712 -0.11940
 C397 C 0.23860 0.93306 -0.11119
 C398 C 0.20348 0.96851 -0.08821
 H399 H 0.34943 1.00602 -0.11213
 H400 H 0.31878 0.91854 -0.13464
 H401 H 0.22562 0.89381 -0.12107
 H402 H 0.16460 0.95390 -0.07930
 H403 H 0.26268 1.16405 -0.04690
 H404 H 0.17780 1.13438 -0.01792
 C405 C 0.22914 -0.01699 0.41963
 C406 C 0.21851 -0.07206 0.41798
 C407 C 0.25768 -0.10664 0.43618
 C408 C 0.30707 -0.08857 0.45147
 C409 C 0.32005 -0.03524 0.44912
 C410 C 0.28096 0.00130 0.43257
 C411 C 0.18875 0.02058 0.41108
 C412 C 0.20021 0.07399 0.40897
 C413 C 0.25188 0.09124 0.41593
 C414 C 0.29195 0.05550 0.42767
 H415 H 0.14782 0.00909 0.40680
 H416 H 0.16890 0.10207 0.40152
 H417 H 0.26084 0.13266 0.41300
 H418 H 0.33131 0.07118 0.43216
 H419 H 0.25179 -0.14875 0.43559
 H420 H 0.33603 -0.11709 0.46435
 C421 C 0.56668 -0.25860 0.54113
 C422 C 0.57735 -0.26403 0.59440
 C423 C 0.56785 -0.22148 0.62754
 C424 C 0.55027 -0.17358 0.60880
 C425 C 0.54293 -0.16560 0.55593
 C426 C 0.55221 -0.20844 0.52115
 C427 C 0.57037 -0.30212 0.50724
 C428 C 0.56454 -0.29586 0.45443
 C429 C 0.55531 -0.24629 0.43435
 C430 C 0.54945 -0.20297 0.46703
 H431 H 0.57754 -0.34139 0.52124
 H432 H 0.56810 -0.32949 0.42891
 H433 H 0.55250 -0.24135 0.39313
 H434 H 0.54413 -0.16565 0.44859
 H435 H 0.57564 -0.22480 0.66835
 H436 H 0.54354 -0.14191 0.63614
 C437 C 1.03251 0.78047 0.42622
 C438 C 1.08503 0.78591 0.40765
 C439 C 1.11854 0.74203 0.40611
 C440 C 1.10102 0.69318 0.42236
 C441 C 1.04948 0.68648 0.44121
 C442 C 1.01431 0.73023 0.44262
 C443 C 0.99781 0.82398 0.42924
 C444 C 0.94586 0.81796 0.44637
 C445 C 0.92747 0.76872 0.46063
 C446 C 0.96110 0.72516 0.45869
 H447 H 1.01049 0.86293 0.41853
 H448 H 0.91960 0.85164 0.44828
 H449 H 0.88686 0.76421 0.47324
 H450 H 0.94459 0.68766 0.46923
 H451 H 1.15871 0.74561 0.39184
 H452 H 1.12839 0.66030 0.42089
 C453 C -0.01653 1.27816 0.08251
 C454 C -0.07189 1.28821 0.08812
 C455 C -0.10763 1.24826 0.07503
 C456 C -0.09020 1.19867 0.06047
 C457 C -0.03609 1.18652 0.05650
 C458 C 0.00156 1.22725 0.06585
 C459 C 0.02102 1.31881 0.08895
 C460 C 0.07483 1.30959 0.08119
 C461 C 0.09241 1.26041 0.06512
 C462 C 0.05640 1.21991 0.05671
 H463 H 0.00923 1.35858 0.09840
 H464 H 0.10293 1.34120 0.08643
 H465 H 0.13418 1.25391 0.05790
 H466 H 0.07259 1.18393 0.04127
 H467 H -0.14998 1.25428 0.07903
 H468 H -0.11999 1.16902 0.05311
 C469 C 0.48113 0.23155 0.93188
 C470 C 0.42723 0.22571 0.91777
 C471 C 0.39319 0.26911 0.92018
 C472 C 0.41173 0.31808 0.93510
 C473 C 0.46489 0.32541 0.94862
 C474 C 0.50031 0.28198 0.94727
 C475 C 0.51631 0.18838 0.93116
 C476 C 0.56949 0.19489 0.94413
 C477 C 0.58856 0.24430 0.95784
 C478 C 0.55452 0.28758 0.95931
 H479 H 0.50298 0.14935 0.92084
 H480 H 0.59610 0.16146 0.94331
 H481 H 0.63001 0.24914 0.96736
 H482 H 0.57130 0.32527 0.96944
 H483 H 0.35199 0.26529 0.90911
 H484 H 0.38408 0.35076 0.93617
 C485 C 0.53477 0.58168 0.73671
 C486 C 0.58832 0.59719 0.73030
 C487 C 0.62350 0.59203 0.77148
 C488 C 0.60669 0.57284 0.81851
 C489 C 0.55355 0.55939 0.82712
 C490 C 0.51641 0.56533 0.78610
 C491 C 0.49905 0.58181 0.69493
 C492 C 0.44564 0.57066 0.70220
 C493 C 0.42670 0.55947 0.75105
 C494 C 0.46138 0.55701 0.79265
 H495 H 0.51202 0.59016 0.65623
 H496 H 0.41865 0.57152 0.66990
 H497 H 0.38483 0.55245 0.75676
 H498 H 0.44366 0.54986 0.82959
 H499 H 0.66453 0.60367 0.76746
 H500 H 0.63585 0.56902 0.84880
 C501 C 0.39898 0.13661 0.72728
 C502 C 0.40961 0.10349 0.76946
 C503 C 0.43576 0.05566 0.76144
 C504 C 0.45195 0.04031 0.71237
 C505 C 0.44253 0.07225 0.66958
 C506 C 0.41655 0.12173 0.67704
 C507 C 0.37104 0.18437 0.73419
 C508 C 0.36186 0.21764 0.69295
 C509 C 0.38084 0.20449 0.64438
 C510 C 0.40846 0.15759 0.63644
 H511 H 0.35581 0.19633 0.77140
 H512 H 0.34037 0.25408 0.69882
 H513 H 0.37423 0.23092 0.61262
 H514 H 0.42379 0.15091 0.59833
 H515 H 0.44387 0.03006 0.79358
 H516 H 0.47161 0.00265 0.70775
 C517 C 0.07244 0.97626 0.26647
 C518 C 0.09206 0.92433 0.27243
 C519 C 0.09629 0.89135 0.22932
 C520 C 0.08235 0.90899 0.18074
 C521 C 0.06398 0.96039 0.17334
 C522 C 0.05837 0.99458 0.21651
 C523 C 0.06473 1.00979 0.30938
 C524 C 0.04471 1.06043 0.30330
 C525 C 0.03096 1.07831 0.25470
 C526 C 0.03713 1.04574 0.21172
 H527 H 0.07311 0.99693 0.34803
 H528 H 0.03914 1.08568 0.33658
 H529 H 0.01474 1.11745 0.25035
 H530 H 0.02426 1.06101 0.17518
 H531 H 0.11120 0.85162 0.23324
 H532 H 0.08635 0.88219 0.14835
 C533 C 0.90995 0.38251 0.27496
 C534 C 0.91423 0.41581 0.23171
 C535 C 0.93435 0.46665 0.23799
 C536 C 0.95045 0.48488 0.28616
 C537 C 0.94681 0.45283 0.32953
 C538 C 0.92783 0.40053 0.32394
 C539 C 0.88781 0.33174 0.27068
 C540 C 0.88594 0.29851 0.31295
 C541 C 0.90624 0.31491 0.36006
 C542 C 0.92725 0.36518 0.36564
 H543 H 0.87153 0.31728 0.23485
 H544 H 0.86915 0.25963 0.30898
 H545 H 0.90566 0.28856 0.39253
 H546 H 0.94372 0.37535 0.40270
 H547 H 0.93768 0.49242 0.20520
 H548 H 0.96518 0.52466 0.28975
   
