data_POSCAR
  _audit_creation_date              2014-09-24
  _audit_creation_method            'ToBaCCo'
  _symmetry_space_group_name_H-M    'P1'
  _symmetry_Int_Tables_number       1
  _symmetry_cell_setting            triclinic
  loop_
  _symmetry_equiv_pos_as_xyz
 x,y,z
_cell_length_a 36.8641
_cell_length_b 36.8102
_cell_length_c 11.7872
_cell_angle_alpha 90.121600
_cell_angle_beta 89.999600
_cell_angle_gamma 120.701800
loop_
  _atom_site_label
  _atom_site_type_symbol
  _atom_site_fract_x
  _atom_site_fract_y
  _atom_site_fract_z
C1 C 0.15457 0.50580 0.53137
 C2 C 0.17333 0.51164 0.42342
 C3 C 0.21292 0.51490 0.41578
 C4 C 0.22966 0.50398 0.50898
 C5 C 0.20565 0.49082 0.61094
 C6 C 0.17080 0.49581 0.62612
 C7 C 0.27156 0.50604 0.50146
 C8 C 0.29232 0.50627 0.60251
 C9 C 0.32903 0.50436 0.60082
 C10 C 0.34758 0.50542 0.49603
 C11 C 0.32963 0.50776 0.39364
 C12 C 0.29134 0.50758 0.39621
 H13 H 0.12589 0.50689 0.54096
 H14 H 0.22903 0.52359 0.33515
 H15 H 0.21479 0.47874 0.68189
 H16 H 0.28053 0.50808 0.68481
 H17 H 0.37580 0.50342 0.49227
 H18 H 0.27692 0.50714 0.31609
 C19 C 0.51287 -0.34364 0.52416
 C20 C 0.51539 -0.32770 0.41563
 C21 C 0.50760 -0.29413 0.40038
 C22 C 0.49827 -0.27663 0.49615
 C23 C 0.49153 -0.29709 0.60205
 C24 C 0.49850 -0.33050 0.61665
 C25 C 0.49786 -0.23603 0.49218
 C26 C 0.50795 -0.21120 0.59218
 C27 C 0.50523 -0.17487 0.59662
 C28 C 0.49583 -0.16064 0.49724
 C29 C 0.48952 -0.18220 0.39375
 C30 C 0.48892 -0.22080 0.39210
 H31 H 0.52150 -0.36750 0.53583
 H32 H 0.51215 -0.27992 0.31740
 H33 H 0.47983 -0.28777 0.67394
 H34 H 0.51798 -0.21981 0.66859
 H35 H 0.49560 -0.13130 0.49905
 H36 H 0.48264 -0.23795 0.31299
 C37 C 1.33842 0.85341 0.50986
 C38 C 1.32027 0.83280 0.40699
 C39 C 1.28227 0.79365 0.41121
 C40 C 1.26590 0.77202 0.51619
 C41 C 1.28594 0.79372 0.61732
 C42 C 1.32060 0.83484 0.61372
 C43 C 1.22872 0.72726 0.52016
 C44 C 1.20485 0.70895 0.62172
 C45 C 1.16920 0.66769 0.61995
 C46 C 1.15744 0.64545 0.51803
 C47 C 1.17908 0.66289 0.41807
 C48 C 1.21567 0.70249 0.41971
 H49 H 1.36547 0.88532 0.50986
 H50 H 1.26690 0.78007 0.33143
 H51 H 1.27485 0.77961 0.69958
 H52 H 1.21104 0.72732 0.69845
 H53 H 1.12928 0.61420 0.51444
 H54 H 1.23255 0.71378 0.34084
 C55 C 0.84848 0.50136 0.48892
 C56 C 0.83401 0.51047 0.39064
 C57 C 0.79669 0.51147 0.39224
 C58 C 0.77215 0.50176 0.49254
 C59 C 0.78735 0.49139 0.59138
 C60 C 0.82633 0.49321 0.59064
 C61 C 0.73339 0.50602 0.49553
 C62 C 0.71478 0.50686 0.60003
 C63 C 0.68005 0.51262 0.60389
 C64 C 0.66646 0.52228 0.50264
 C65 C 0.68342 0.52134 0.39868
 C66 C 0.71568 0.51162 0.39444
 H67 H 0.87836 0.50226 0.48714
 H68 H 0.78874 0.52175 0.31555
 H69 H 0.77066 0.48360 0.67087
 H70 H 0.72635 0.50262 0.67986
 H71 H 0.64313 0.53183 0.50337
 H72 H 0.72715 0.51002 0.31158
 C73 C 0.48445 0.33567 0.50303
 C74 C 0.48430 0.31784 0.39902
 C75 C 0.48887 0.28232 0.39550
 C76 C 0.49013 0.26224 0.49676
 C77 C 0.48830 0.28011 0.60157
 C78 C 0.48825 0.31820 0.60534
 C79 C 0.49338 0.22310 0.49250
 C80 C 0.50791 0.21014 0.58735
 C81 C 0.50905 0.17255 0.58384
 C82 C 0.50259 0.15210 0.47831
 C83 C 0.48771 0.16363 0.38482
 C84 C 0.48119 0.19768 0.39336
 H85 H 0.47987 0.36250 0.50364
 H86 H 0.49050 0.27045 0.31300
 H87 H 0.48792 0.26541 0.68108
 H88 H 0.51655 0.22775 0.66582
 H89 H 0.50793 0.12592 0.46850
 H90 H 0.46674 0.20388 0.32200
 C91 C 0.64478 0.15845 0.50195
 C92 C 0.66303 0.17414 0.39712
 C93 C 0.70458 0.20866 0.39297
 C94 C 0.72487 0.23258 0.49318
 C95 C 0.70258 0.21795 0.59750
 C96 C 0.66414 0.17970 0.60193
 C97 C 0.76750 0.27300 0.48728
 C98 C 0.78774 0.29813 0.58528
 C99 C 0.82712 0.33596 0.57805
 C100 C 0.84552 0.34923 0.47008
 C101 C 0.82763 0.32440 0.37469
 C102 C 0.78894 0.28711 0.38223
 H103 H 0.61452 0.12923 0.50528
 H104 H 0.71940 0.21649 0.31094
 H105 H 0.71418 0.23491 0.67647
 H106 H 0.77446 0.28847 0.66888
 H107 H 0.87415 0.37915 0.45640
 H108 H 0.77701 0.27008 0.30410
 O109 O 0.92824 0.40450 0.18566
 O110 O 0.88872 0.41803 0.06113
 C111 C 0.89240 0.39727 0.14438
 O112 O 1.04935 0.59029 0.23017
 O113 O 1.10084 0.58168 0.14765
 C114 C 1.08821 0.59979 0.21843
 O115 O 0.93220 0.52926 0.19518
 O116 O 0.89049 0.47724 0.06779
 C117 C 0.89575 0.50175 0.15327
 O118 O 1.04436 0.45886 0.22946
 O119 O 1.09843 0.51908 0.14871
 C120 C 1.08361 0.48854 0.22266
 Zr121 Zr 0.99101 0.45049 0.14119
 O122 O 0.98102 0.43705 0.31664
 O123 O 0.99011 0.39337 0.11383
 Zr124 Zr 0.99342 0.54392 0.14968
 O125 O 0.98742 0.54293 0.32836
 O126 O 0.98995 0.59962 0.14339
 O127 O 0.95425 0.47846 0.15302
 O128 O 1.02676 0.51411 0.18169
 O129 O 1.06792 0.47311 -0.18175
 O130 O 1.10975 0.52768 -0.06087
 C131 C 1.10431 0.50289 -0.14632
 O132 O 0.95549 0.54537 -0.21619
 O133 O 0.90175 0.48548 -0.13417
 C134 C 0.91610 0.51636 -0.20626
 O135 O 1.07139 0.60484 -0.15527
 O136 O 1.11245 0.58889 -0.04364
 C137 C 1.10782 0.61162 -0.12004
 O138 O 0.95451 0.42275 -0.23653
 O139 O 0.90087 0.42508 -0.14452
 C140 C 0.91548 0.41227 -0.22592
 Zr141 Zr 1.00731 0.46083 -0.13611
 O142 O 1.01953 0.46045 -0.31124
 O143 O 1.00050 0.40023 -0.12307
 Zr144 Zr 1.00921 0.55434 -0.12808
 O145 O 1.02233 0.56533 -0.30348
 O146 O 1.00546 0.60976 -0.11610
 Zr147 Zr 0.93737 0.47158 -0.02029
 Zr148 Zr 1.06332 0.53325 0.03202
 O149 O 1.04491 0.52599 -0.13985
 O150 O 0.97314 0.49061 -0.17092
 O151 O 1.03758 0.46742 0.01819
 O152 O 0.96431 0.53734 -0.00395
 O153 O 0.96144 0.43062 -0.01406
 O154 O 1.03951 0.57480 0.02705
 H155 H 1.04029 0.52096 0.25745
 H156 H 0.94556 0.54921 -0.00935
 H157 H 1.06578 0.53769 -0.20219
 H158 H 0.94108 0.40003 -0.02443
 H159 H 1.01864 0.62378 0.12893
 H160 H 1.02876 0.62998 -0.06652
 H161 H 1.00522 0.53779 -0.34211
 H162 H 1.02027 0.48552 -0.34388
 H163 H 1.02680 0.40405 -0.08913
 H164 H 0.98285 0.37876 0.18803
 H165 H 0.98367 0.46240 0.35362
 H166 H 0.96725 0.51335 0.35003
 O167 O 0.40827 0.45633 0.21588
 O168 O 0.41352 0.51261 0.11751
 C169 C 0.39672 0.48352 0.19533
 O170 O 0.59832 0.53770 0.19161
 O171 O 0.58777 0.48079 0.08323
 C172 C 0.60971 0.51126 0.15487
 O173 O 0.53221 0.59014 0.20984
 O174 O 0.47352 0.57721 0.10824
 C175 C 0.50260 0.59820 0.18331
 O176 O 0.46719 0.39946 0.18837
 O177 O 0.52565 0.41558 0.08073
 C178 C 0.49607 0.39166 0.15227
 Zr179 Zr 0.45541 0.44805 0.14126
 O180 O 0.45538 0.44124 0.31945
 O181 O 0.39828 0.38978 0.12346
 Zr182 Zr 0.54542 0.54369 0.14595
 O183 O 0.54619 0.53791 0.32462
 O184 O 0.59984 0.60464 0.15418
 O185 O 0.48029 0.51264 0.17107
 O186 O 0.52036 0.47911 0.15953
 O187 O 0.46668 0.40636 -0.21177
 O188 O 0.52636 0.41987 -0.11504
 C189 C 0.49815 0.40088 -0.19331
 O190 O 0.52407 0.58550 -0.20919
 O191 O 0.46971 0.57530 -0.09272
 C192 C 0.49370 0.59157 -0.18089
 O193 O 0.59132 0.53842 -0.21019
 O194 O 0.58468 0.48124 -0.11403
 C195 C 0.60049 0.50937 -0.19341
 O196 O 0.41321 0.46806 -0.22000
 O197 O 0.41463 0.51686 -0.09592
 C198 C 0.40273 0.49526 -0.18965
 Zr199 Zr 0.45298 0.45052 -0.13999
 O200 O 0.44444 0.44083 -0.31709
 O201 O 0.39410 0.39402 -0.12019
 Zr202 Zr 0.54416 0.54678 -0.13656
 O203 O 0.55321 0.55659 -0.31345
 O204 O 0.59774 0.60772 -0.11313
 Zr205 Zr 0.46536 0.52593 0.00928
 Zr206 Zr 0.53363 0.46897 -0.00706
 O207 O 0.51738 0.48284 -0.16579
 O208 O 0.47926 0.51523 -0.15662
 O209 O 0.46827 0.42491 -0.00493
 O210 O 0.53091 0.56880 0.00796
 O211 O 0.42727 0.45964 0.00458
 O212 O 0.57240 0.53544 -0.00052
 H213 H 0.53103 0.46962 0.22308
 H214 H 0.54103 0.59945 0.00682
 H215 H 0.52554 0.47582 -0.23902
 H216 H 0.39630 0.44766 0.00426
 H217 H 0.61945 0.60584 0.09504
 H218 H 0.62285 0.60461 -0.11000
 H219 H 0.52808 0.53281 -0.34977
 H220 H 0.46770 0.46641 -0.35307
 H221 H 0.40003 0.37111 -0.10476
 H222 H 0.38926 0.37884 0.20143
 H223 H 0.46906 0.46999 0.35216
 H224 H 0.52240 0.54003 0.35578
 O225 O 0.47194 0.06258 0.19310
 O226 O 0.52669 0.10625 0.07559
 C227 C 0.50080 0.09973 0.15806
 O228 O 0.54360 -0.05229 0.20916
 O229 O 0.48444 -0.10421 0.11892
 C230 C 0.51493 -0.09149 0.19234
 O231 O 0.59835 0.06578 0.19011
 O232 O 0.58621 0.10814 0.07249
 C233 C 0.60731 0.10256 0.15168
 O234 O 0.41188 -0.05520 0.21534
 O235 O 0.42189 -0.10504 0.12599
 C236 C 0.40404 -0.09355 0.20149
 Zr237 Zr 0.45851 0.00188 0.13963
 O238 O 0.45449 0.00463 0.31810
 O239 O 0.40128 0.00092 0.11686
 Zr240 Zr 0.55168 0.00382 0.13746
 O241 O 0.55629 0.00599 0.31652
 O242 O 0.61145 0.00864 0.12617
 O243 O 0.52390 0.04082 0.15211
 O244 O 0.48783 -0.03260 0.16858
 O245 O 0.40324 -0.06917 -0.18321
 O246 O 0.41658 -0.11219 -0.07204
 C247 C 0.39507 -0.10611 -0.14895
 O248 O 0.59206 0.05118 -0.21930
 O249 O 0.58475 0.10154 -0.12275
 C250 C 0.60247 0.09001 -0.19859
 O251 O 0.53254 -0.06608 -0.20338
 O252 O 0.47690 -0.11037 -0.08881
 C253 C 0.50207 -0.10319 -0.17423
 O254 O 0.46561 0.04595 -0.22939
 O255 O 0.52292 0.09897 -0.13638
 C256 C 0.49460 0.08507 -0.21647
 Zr257 Zr 0.45285 -0.00814 -0.13992
 O258 O 0.44090 -0.01813 -0.31594
 O259 O 0.39803 -0.00368 -0.12383
 Zr260 Zr 0.54632 -0.00609 -0.14349
 O261 O 0.54848 -0.01226 -0.32124
 O262 O 0.60500 -0.00324 -0.12704
 Zr263 Zr 0.53355 0.06122 -0.01826
 Zr264 Zr 0.47112 -0.06573 0.01309
 O265 O 0.48132 -0.04333 -0.15537
 O266 O 0.51740 0.02894 -0.17506
 O267 O 0.42981 -0.04189 0.00976
 O268 O 0.57376 0.03630 -0.01197
 O269 O 0.46772 0.03457 -0.00991
 O270 O 0.53707 -0.03969 0.00589
 H271 H 0.48077 -0.04801 0.24153
 H272 H 0.60476 0.05557 -0.01499
 H273 H 0.47027 -0.06218 -0.22234
 H274 H 0.45702 0.05433 -0.01589
 H275 H 0.60699 -0.01859 0.09685
 H276 H 0.59908 -0.03167 -0.10461
 H277 H 0.53372 0.00111 -0.35567
 H278 H 0.46808 -0.00994 -0.35288
 H279 H 0.37559 -0.03035 -0.08988
 H280 H 0.39138 0.00240 0.19384
 H281 H 0.48340 0.02364 0.34652
 H282 H 0.54234 0.02121 0.34373
 C283 C 1.15227 0.51240 0.32406
 C284 C 1.11008 0.48879 0.31657
 H285 H 1.17023 0.52843 0.24898
 H286 H 1.09265 0.46764 0.38578
 C287 C 0.52664 0.65357 0.32951
 C288 C 0.50123 0.63331 0.24166
 H289 H 0.54914 0.64413 0.35259
 H290 H 0.47519 0.63808 0.22248
 C291 C 0.33915 -0.14805 0.30234
 C292 C 0.38117 -0.12269 0.29423
 H293 H 0.31986 -0.15487 0.22689
 H294 H 0.40126 -0.12029 0.36422
 C295 C 0.86196 0.52406 0.29198
 C296 C 0.85816 0.49625 0.21283
 H297 H 0.89168 0.55350 0.30195
 H298 H 0.82891 0.46625 0.20527
 C299 C 0.47469 0.33438 0.29687
 C300 C 0.49716 0.35383 0.20156
 H301 H 0.50390 0.34309 0.25266
 H302 H 0.47765 0.34754 0.12064
 C303 C 0.63446 0.15530 0.29807
 C304 C 0.64306 0.13990 0.20590
 H305 H 0.60130 0.14436 0.31496
 H306 H 0.67498 0.14668 0.18748
 C307 C 0.51350 0.15405 -0.31550
 C308 C 0.49504 0.11181 -0.30934
 H309 H 0.52729 0.17302 -0.23997
 H310 H 0.47521 0.09305 -0.37924
 C311 C 0.66047 0.51050 -0.29175
 C312 C 0.62092 0.50250 -0.28902
 H313 H 0.67720 0.51457 -0.21274
 H314 H 0.60183 0.49334 -0.36516
 C315 C 0.84794 0.35895 -0.32231
 C316 C 0.88931 0.38794 -0.32225
 H317 H 0.83106 0.35095 -0.24239
 H318 H 0.90816 0.39287 -0.39686
 C319 C 0.51459 -0.15052 -0.29602
 C320 C 0.48943 -0.13681 -0.25929
 H321 H 0.54203 -0.14405 -0.24661
 H322 H 0.46084 -0.14530 -0.30616
 C323 C 0.34568 0.49811 -0.29081
 C324 C 0.38590 0.50913 -0.28045
 H325 H 0.32418 0.48245 -0.22098
 H326 H 0.40782 0.52553 -0.34852
 C327 C 1.13923 0.64919 -0.29329
 C328 C 1.14545 0.64404 -0.18353
 H329 H 1.10722 0.62980 -0.32420
 H330 H 1.17691 0.65654 -0.14949
 C331 C 0.84684 0.49056 -0.30396
 C332 C 0.88757 0.51962 -0.28687
 H333 H 0.82983 0.46432 -0.24627
 H334 H 0.90252 0.54642 -0.34396
 C335 C 0.49003 0.33757 -0.29014
 C336 C 0.50672 0.37937 -0.28345
 H337 H 0.47885 0.31875 -0.21360
 H338 H 0.52306 0.39929 -0.35547
 C339 C 0.64296 0.15999 -0.29061
 C340 C 0.63701 0.12184 -0.26774
 H341 H 0.62571 0.17212 -0.24568
 H342 H 0.65454 0.11092 -0.31634
 C343 C 1.15080 0.48857 -0.26747
 C344 C 1.13953 0.51531 -0.22561
 H345 H 1.14622 0.46218 -0.21608
 H346 H 1.15048 0.54530 -0.26791
 C347 C 0.49313 0.65052 -0.27672
 C348 C 0.48116 0.60981 -0.27026
 H349 H 0.49894 0.66891 -0.19990
 H350 H 0.47091 0.59069 -0.34655
 C351 C 0.33718 -0.13871 -0.28431
 C352 C 0.36182 -0.14330 -0.20982
 H353 H 0.33745 -0.10919 -0.28632
 H354 H 0.36269 -0.17226 -0.20829
 C355 C 0.48720 -0.16154 0.28819
 C356 C 0.51767 -0.12145 0.26938
 H357 H 0.45976 -0.17740 0.23356
 H358 H 0.54472 -0.10759 0.32603
 C359 C 0.35123 0.50844 0.28598
 C360 C 0.36335 0.48002 0.27185
 H361 H 0.36167 0.53474 0.22830
 H362 H 0.35149 0.45411 0.33171
 C363 C 1.15823 0.64141 0.31173
 C364 C 1.11823 0.63176 0.29691
 H365 H 1.17348 0.63014 0.25504
 H366 H 1.10492 0.64442 0.35637
 C367 C 0.47669 0.13718 0.28212
 C368 C 0.50730 0.13691 0.22215
 H369 H 0.44418 0.11222 0.27080
 H370 H 0.53954 0.16257 0.23281
 C371 C 0.66901 0.53445 0.29796
 C372 C 0.65017 0.51417 0.19928
 H373 H 0.66373 0.50832 0.24372
 H374 H 0.65384 0.53522 0.12318
 C375 C 0.85285 0.33698 0.27032
 C376 C 0.85350 0.36633 0.20291
 H377 H 0.87893 0.33132 0.26794
 H378 H 0.82771 0.37248 0.20615
   
