data_POSCAR
  _audit_creation_date              2014-09-24
  _audit_creation_method            'ToBaCCo'
  _symmetry_space_group_name_H-M    'P1'
  _symmetry_Int_Tables_number       1
  _symmetry_cell_setting            triclinic
  loop_
  _symmetry_equiv_pos_as_xyz
 x,y,z
_cell_length_a 39.5411
_cell_length_b 40.3259
_cell_length_c 37.5869
_cell_angle_alpha 90.189500
_cell_angle_beta 89.867200
_cell_angle_gamma 90.413700
loop_
  _atom_site_label
  _atom_site_type_symbol
  _atom_site_fract_x
  _atom_site_fract_y
  _atom_site_fract_z
C1 C 0.27237 0.39629 0.01925
 C2 C 0.29335 0.39234 0.04882
 C3 C 0.32222 0.37275 0.04581
 C4 C 0.32889 0.35449 0.01439
 C5 C 0.30736 0.35913 -0.01528
 C6 C 0.27894 0.37995 -0.01318
 C7 C 0.35658 0.32907 0.01371
 C8 C 0.37139 0.31824 -0.01865
 C9 C 0.39470 0.29194 -0.01937
 C10 C 0.40564 0.27883 0.01333
 C11 C 0.39183 0.28938 0.04572
 C12 C 0.36716 0.31399 0.04571
 H13 H 0.25183 0.41375 0.02155
 H14 H 0.33883 0.37134 0.06855
 H15 H 0.31142 0.34535 -0.03963
 H16 H 0.36432 0.32959 -0.04356
 H17 H 0.42627 0.26143 0.01417
 H18 H 0.35576 0.32043 0.07094
 C19 C 0.72278 0.60548 -0.01775
 C20 C 0.70836 0.61551 0.01454
 C21 C 0.68424 0.64077 0.01456
 C22 C 0.67663 0.65851 -0.01686
 C23 C 0.69241 0.64826 -0.04892
 C24 C 0.71490 0.62167 -0.04947
 C25 C 0.65383 0.68832 -0.01598
 C26 C 0.64013 0.70140 -0.04782
 C27 C 0.62257 0.73151 -0.04787
 C28 C 0.61508 0.74649 -0.01505
 C29 C 0.62457 0.73201 0.01705
 C30 C 0.64572 0.70442 0.01655
 H31 H 0.73981 0.58457 -0.01846
 H32 H 0.67224 0.64656 0.03959
 H33 H 0.68859 0.66123 -0.07363
 H34 H 0.64338 0.68884 -0.07299
 H35 H 0.59917 0.76818 -0.01378
 H36 H 0.65468 0.69560 0.04186
 C37 C 0.73136 0.39769 1.01252
 C38 C 0.71750 0.38907 0.97953
 C39 C 0.69290 0.36386 0.97801
 C40 C 0.68443 0.34471 1.00848
 C41 C 0.69984 0.35363 1.04126
 C42 C 0.72296 0.38009 1.04332
 C43 C 0.66158 0.31451 1.00558
 C44 C 0.64735 0.29916 1.03624
 C45 C 0.62969 0.26874 1.03390
 C46 C 0.62306 0.25560 0.99993
 C47 C 0.63545 0.27075 0.96914
 C48 C 0.65501 0.29962 0.97203
 H49 H 0.74865 0.41857 1.01448
 H50 H 0.68126 0.35919 0.95254
 H51 H 0.69531 0.33962 1.06523
 H52 H 0.65048 0.31011 1.06229
 H53 H 0.60637 0.23442 0.99682
 H54 H 0.66547 0.30946 0.94771
 C55 C 0.26982 0.59603 0.98652
 C56 C 0.28381 0.60846 0.95497
 C57 C 0.31054 0.63142 0.95678
 C58 C 0.32386 0.64159 0.99008
 C59 C 0.30988 0.62750 1.02132
 C60 C 0.28191 0.60626 1.01969
 C61 C 0.35146 0.66723 0.99273
 C62 C 0.35546 0.68605 1.02430
 C63 C 0.38299 0.70767 1.02886
 C64 C 0.40438 0.71380 0.99970
 C65 C 0.39809 0.69895 0.96659
 C66 C 0.37333 0.67410 0.96380
 H67 H 0.24976 0.57761 0.98534
 H68 H 0.31997 0.64167 0.93214
 H69 H 0.32008 0.63323 1.04729
 H70 H 0.33762 0.68364 1.04600
 H71 H 0.42407 0.73257 1.00154
 H72 H 0.37055 0.66149 0.93857
 C73 C 0.01108 0.28060 0.39954
 C74 C 0.03903 0.29466 0.38206
 C75 C 0.03431 0.32178 0.35957
 C76 C 0.00187 0.33559 0.35494
 C77 C -0.02564 0.32157 0.37383
 C78 C -0.02140 0.29338 0.39510
 C79 C -0.00361 0.36432 0.33050
 C80 C -0.03564 0.36952 0.31488
 C81 C -0.04210 0.39800 0.29481
 C82 C -0.01506 0.41953 0.28682
 C83 C 0.01792 0.41218 0.29770
 C84 C 0.02309 0.38623 0.32160
 H85 H 0.01470 0.25957 0.41699
 H86 H 0.05603 0.33123 0.34525
 H87 H -0.05021 0.33292 0.37257
 H88 H -0.05601 0.35183 0.31875
 H89 H -0.01888 0.44044 0.26930
 H90 H 0.04831 0.38269 0.33184
 C91 C -0.00516 0.72002 0.59958
 C92 C 0.02633 0.70473 0.60369
 C93 C 0.02812 0.67504 0.62299
 C94 C -0.00058 0.66172 0.64070
 C95 C -0.03175 0.67846 0.63680
 C96 C -0.03428 0.70709 0.61593
 C97 C 0.00209 0.63077 0.66311
 C98 C -0.02709 0.61191 0.67253
 C99 C -0.02460 0.58355 0.69420
 C100 C 0.00752 0.57273 0.70411
 C101 C 0.03655 0.59149 0.69689
 C102 C 0.03385 0.62029 0.67640
 H103 H -0.00739 0.74125 0.58223
 H104 H 0.05221 0.66261 0.62383
 H105 H -0.05438 0.66998 0.65017
 H106 H -0.05160 0.61871 0.66265
 H107 H 0.00995 0.55020 0.71958
 H108 H 0.05654 0.63486 0.67229
 C109 C 0.99242 0.73643 0.39810
 C110 C 0.96258 0.72080 0.38695
 C111 C 0.96408 0.69656 0.36026
 C112 C 0.99468 0.69025 0.34179
 C113 C 1.02431 0.70740 0.35302
 C114 C 1.02355 0.72972 0.38195
 C115 C 0.99543 0.66747 0.30983
 C116 C 1.02632 0.65421 0.29718
 C117 C 1.02795 0.63646 0.26501
 C118 C 0.99753 0.62838 0.24758
 C119 C 0.96627 0.63943 0.26039
 C120 C 0.96548 0.65956 0.29084
 H121 H 0.99128 0.75395 0.42003
 H122 H 0.94094 0.68359 0.35365
 H123 H 1.04759 0.70472 0.33843
 H124 H 1.04956 0.65808 0.31171
 H125 H 0.99778 0.61118 0.22548
 H126 H 0.94121 0.66903 0.29903
 C127 C 1.00039 0.24463 0.60853
 C128 C 0.96968 0.25551 0.62269
 C129 C 0.96955 0.28268 0.64586
 C130 C 0.99989 0.29959 0.65468
 C131 C 1.03054 0.28838 0.63943
 C132 C 1.03097 0.26019 0.61748
 C133 C 0.99943 0.32742 0.68122
 C134 C 1.02779 0.33400 0.70310
 C135 C 1.02610 0.35713 0.73108
 C136 C 0.99553 0.37403 0.73674
 C137 C 0.96727 0.36827 0.71517
 C138 C 0.96971 0.34605 0.68672
 H139 H 1.00048 0.22445 0.58943
 H140 H 0.94566 0.28978 0.65756
 H141 H 1.05421 0.30102 0.64480
 H142 H 1.05079 0.31993 0.69986
 H143 H 0.99377 0.39323 0.75682
 H144 H 0.94797 0.34288 0.66960
 C145 C 0.38959 -0.01299 0.25390
 C146 C 0.38279 0.01754 0.27013
 C147 C 0.36119 0.01841 0.29970
 C148 C 0.34454 -0.01065 0.31178
 C149 C 0.35199 -0.04113 0.29485
 C150 C 0.37427 -0.04256 0.26575
 C151 C 0.31835 -0.00889 0.34069
 C152 C 0.31053 -0.03684 0.36207
 C153 C 0.28495 -0.03519 0.38801
 C154 C 0.26796 -0.00539 0.39345
 C155 C 0.27462 0.02235 0.37229
 C156 C 0.29982 0.02060 0.34617
 H157 H 0.40869 -0.01373 0.23326
 H158 H 0.35732 0.04197 0.31288
 H159 H 0.33930 -0.06373 0.30297
 H160 H 0.32451 -0.05963 0.35924
 H161 H 0.24886 -0.00395 0.41414
 H162 H 0.30388 0.04206 0.32948
 C163 C 0.59322 0.00964 0.71485
 C164 C 0.60967 0.03854 0.70358
 C165 C 0.63184 0.03707 0.67467
 C166 C 0.63749 0.00683 0.65652
 C167 C 0.62012 -0.02197 0.66812
 C168 C 0.59930 -0.02121 0.69848
 C169 C 0.66328 0.00506 0.62739
 C170 C 0.68252 -0.02403 0.62198
 C171 C 0.70887 -0.02460 0.59682
 C172 C 0.71664 0.00433 0.57803
 C173 C 0.69873 0.03368 0.58377
 C174 C 0.67104 0.03346 0.60693
 H175 H 0.57473 0.01193 0.73595
 H176 H 0.64554 0.05940 0.66753
 H177 H 0.62371 -0.04534 0.65440
 H178 H 0.67830 -0.04559 0.63845
 H179 H 0.73738 0.00419 0.55909
 H180 H 0.65671 0.05604 0.61005
 C181 C 0.38522 1.01087 0.73640
 C182 C 0.36920 0.98064 0.72861
 C183 C 0.34709 0.97867 0.69976
 C184 C 0.34109 1.00644 0.67795
 C185 C 0.35797 1.03663 0.68607
 C186 C 0.37911 1.03927 0.71597
 C187 C 0.31583 1.00400 0.64832
 C188 C 0.29699 1.03199 0.63792
 C189 C 0.27024 1.02909 0.61352
 C190 C 0.26271 0.99757 0.59918
 C191 C 0.28114 0.96951 0.60883
 C192 C 0.30842 0.97305 0.63217
 H193 H 0.40351 1.01199 0.75777
 H194 H 0.33399 0.95541 0.69524
 H195 H 0.35461 1.05828 0.66957
 H196 H 0.30170 1.05589 0.65016
 H197 H 0.24351 0.99460 0.57895
 H198 H 0.32313 0.95130 0.63827
 C199 C 0.60019 0.99527 0.27833
 C200 C 0.61816 0.96642 0.28617
 C201 C 0.64699 0.96858 0.30750
 C202 C 0.65817 0.99932 0.32134
 C203 C 0.63941 1.02815 0.31317
 C204 C 0.61092 1.02648 0.29066
 C205 C 0.69027 1.00137 0.34255
 C206 C 0.70978 1.03086 0.34285
 C207 C 0.74017 1.03285 0.36170
 C208 C 0.75183 1.00488 0.37978
 C209 C 0.73368 0.97491 0.37920
 C210 C 0.70235 0.97365 0.36174
 H211 H 0.57757 0.99339 0.26217
 H212 H 0.66122 0.94618 0.31201
 H213 H 0.64704 1.05171 0.32425
 H214 H 0.70195 1.05243 0.32809
 H215 H 0.77446 1.00688 0.39583
 H216 H 0.68774 0.95092 0.36316
 O217 O 0.88022 0.84881 0.48109
 O218 O 0.82854 0.88667 0.55081
 O219 O 0.88062 0.84769 0.54978
 O220 O 0.82963 0.88855 0.48204
 O221 O 0.79454 0.84578 0.47978
 O222 O 0.84660 0.80403 0.54864
 O223 O 0.79295 0.84422 0.54897
 O224 O 0.84630 0.80505 0.47938
 Cu225 Cu 0.85813 0.87216 0.51628
 Cu226 Cu 0.81655 0.82035 0.51434
 C227 C 0.87243 0.82058 0.46848
 C228 C 0.80145 0.87260 0.56097
 C229 C 0.87307 0.81870 0.56011
 C230 C 0.80358 0.87443 0.46916
 O231 O 0.12045 0.15924 0.45296
 O232 O 0.16845 0.11820 0.52207
 O233 O 0.12401 0.16454 0.52168
 O234 O 0.16892 0.11680 0.45350
 O235 O 0.20804 0.15601 0.45016
 O236 O 0.16291 0.20401 0.51915
 O237 O 0.20855 0.15647 0.51949
 O238 O 0.15842 0.19961 0.44999
 Cu239 Cu 0.14157 0.13591 0.48782
 Cu240 Cu 0.18842 0.18306 0.48436
 C241 C 0.13068 0.18638 0.43990
 C242 C 0.19673 0.12959 0.53238
 C243 C 0.13570 0.19236 0.53214
 C244 C 0.19638 0.12802 0.44047
 O245 O 0.16530 0.88296 0.45394
 O246 O 0.10651 0.84089 0.51449
 O247 O 0.15314 0.88539 0.52129
 O248 O 0.11661 0.83982 0.44649
 O249 O 0.15263 0.79888 0.45425
 O250 O 0.19209 0.84694 0.52824
 O251 O 0.14357 0.80097 0.52296
 O252 O 0.20248 0.84275 0.45999
 Cu253 Cu 0.13175 0.86615 0.48315
 Cu254 Cu 0.17647 0.81828 0.49215
 C255 C 0.19395 0.87051 0.44699
 C256 C 0.11478 0.81377 0.52895
 C257 C 0.17909 0.87460 0.53702
 C258 C 0.12749 0.81138 0.43814
 O259 O 0.88134 0.16501 0.52033
 O260 O 0.84231 0.12731 0.44170
 O261 O 0.88706 0.17378 0.45256
 O262 O 0.83899 0.11761 0.50948
 O263 O 0.79680 0.15318 0.51247
 O264 O 0.84626 0.21085 0.45553
 O265 O 0.80070 0.16346 0.44439
 O266 O 0.84024 0.20170 0.52363
 Cu267 Cu 0.86656 0.14236 0.48052
 Cu268 Cu 0.81677 0.18604 0.48412
 C269 C 0.86764 0.18977 0.53539
 C270 C 0.81444 0.13835 0.43012
 C271 C 0.87548 0.20207 0.44499
 C272 C 0.80988 0.12548 0.52059
 O273 O 0.44903 0.89263 0.84249
 O274 O 0.52118 0.85677 0.88830
 O275 O 0.51316 0.90241 0.84213
 O276 O 0.45635 0.84669 0.88978
 O277 O 0.46226 0.80831 0.84819
 O278 O 0.51875 0.86601 0.79844
 O279 O 0.52736 0.81933 0.84574
 O280 O 0.45382 0.85551 0.79950
 Cu281 Cu 0.48421 0.87815 0.87005
 Cu282 Cu 0.49083 0.83333 0.81861
 C283 C 0.43966 0.88096 0.81269
 C284 C 0.53676 0.83234 0.87495
 C285 C 0.52546 0.89413 0.81229
 C286 C 0.45003 0.81795 0.87778
 O287 O 0.54520 0.16411 0.13032
 O288 O 0.48032 0.11419 0.17545
 O289 O 0.48051 0.15698 0.12477
 O290 O 0.54559 0.11773 0.17816
 O291 O 0.54035 0.15580 0.22016
 O292 O 0.47483 0.19697 0.16462
 O293 O 0.47455 0.15300 0.21651
 O294 O 0.54035 0.20344 0.17091
 Cu295 Cu 0.51360 0.13443 0.14824
 Cu296 Cu 0.50714 0.18131 0.19720
 C297 C 0.55347 0.19253 0.14234
 C298 C 0.46630 0.12494 0.20365
 C299 C 0.46675 0.18359 0.13503
 C300 C 0.55357 0.12918 0.20841
 O301 O 0.54329 0.12645 0.82698
 O302 O 0.48684 0.16547 0.89135
 O303 O 0.47969 0.12071 0.84258
 O304 O 0.55027 0.17085 0.87583
 O305 O 0.53819 0.21072 0.83793
 O306 O 0.46785 0.15867 0.80234
 O307 O 0.47391 0.20466 0.85290
 O308 O 0.53203 0.16515 0.78744
 Cu309 Cu 0.51617 0.14203 0.86298
 Cu310 Cu 0.50176 0.18878 0.81615
 C311 C 0.54735 0.13881 0.79625
 C312 C 0.47102 0.19168 0.88359
 C313 C 0.46207 0.13063 0.81664
 C314 C 0.55613 0.19943 0.86312
 O315 O 0.46438 0.80942 0.12633
 O316 O 0.52355 0.87404 0.15578
 O317 O 0.52749 0.81974 0.11810
 O318 O 0.45981 0.86148 0.16596
 O319 O 0.47068 0.83210 0.21394
 O320 O 0.54158 0.79146 0.16604
 O321 O 0.53514 0.84554 0.20427
 O322 O 0.47830 0.77862 0.17250
 Cu323 Cu 0.49273 0.84434 0.13698
 Cu324 Cu 0.50735 0.80918 0.19439
 C325 C 0.46260 0.78236 0.14333
 C326 C 0.53910 0.87116 0.18504
 C327 C 0.54523 0.79773 0.13315
 C328 C 0.45354 0.85411 0.19808
 O329 O 0.85141 0.47812 0.89129
 O330 O 0.89531 0.52844 0.82452
 O331 O 0.85566 0.54075 0.87793
 O332 O 0.89355 0.46615 0.84098
 O333 O 0.85177 0.46055 0.80241
 O334 O 0.81116 0.53446 0.84305
 O335 O 0.85180 0.52398 0.78803
 O336 O 0.80830 0.47073 0.85475
 Cu337 Cu 0.87828 0.50410 0.86217
 Cu338 Cu 0.82634 0.49693 0.81827
 C339 C 0.82255 0.46570 0.88454
 C340 C 0.88137 0.53470 0.79495
 C341 C 0.82667 0.54983 0.86785
 C342 C 0.87964 0.45076 0.81547
 O343 O 0.16473 0.47353 0.13450
 O344 O 0.12652 0.54725 0.17324
 O345 O 0.17320 0.53673 0.12661
 O346 O 0.11940 0.48491 0.18260
 O347 O 0.15862 0.48382 0.22424
 O348 O 0.21199 0.53921 0.16867
 O349 O 0.16375 0.54754 0.21691
 O350 O 0.20568 0.47512 0.17438
 Cu351 Cu 0.14223 0.51048 0.15000
 Cu352 Cu 0.18911 0.51145 0.20029
 C353 C 0.19199 0.46218 0.14699
 C354 C 0.13756 0.55939 0.20218
 C355 C 0.20168 0.54693 0.13783
 C356 C 0.12930 0.47594 0.21316
 O357 O 0.86462 0.47907 0.19130
 O358 O 0.83267 0.52850 0.11730
 O359 O 0.87151 0.54021 0.17128
 O360 O 0.82508 0.46770 0.13748
 O361 O 0.78069 0.48122 0.16996
 O362 O 0.82741 0.55499 0.20366
 O363 O 0.78788 0.54239 0.14913
 O364 O 0.82140 0.49446 0.22472
 Cu365 Cu 0.85283 0.50235 0.15118
 Cu366 Cu 0.79973 0.51946 0.19014
 C367 C 0.84917 0.47922 0.22091
 C368 C 0.80478 0.54356 0.12033
 C369 C 0.85766 0.55988 0.19334
 C370 C 0.79478 0.46237 0.14726
 O371 O 0.11648 0.43981 0.84152
 O372 O 0.15475 0.51038 0.88757
 O373 O 0.10855 0.50319 0.84064
 O374 O 0.16366 0.44682 0.88903
 O375 O 0.20241 0.45073 0.84693
 O376 O 0.14652 0.50864 0.79779
 O377 O 0.19380 0.51508 0.84570
 O378 O 0.15377 0.44425 0.79802
 Cu379 Cu 0.13219 0.47435 0.86892
 Cu380 Cu 0.17815 0.47977 0.81778
 C381 C 0.12768 0.43054 0.81147
 C382 C 0.18045 0.52496 0.87464
 C383 C 0.11794 0.51577 0.81134
 C384 C 0.19263 0.43950 0.87686
 C385 C 0.28474 0.40902 0.08282
 C386 C 0.25273 0.40905 0.09450
 C387 C 0.24069 0.43110 0.12316
 C388 C 0.20735 0.43426 0.12793
 H389 H 0.23404 0.39441 0.08018
 H390 H 0.25828 0.44748 0.13679
 H391 H 0.30433 0.42211 0.09742
 H392 H 0.19028 0.41896 0.11224
 C393 C 0.71865 0.60014 0.04857
 C394 C 0.75029 0.58967 0.05372
 C395 C 0.76107 0.57387 0.08699
 C396 C 0.79241 0.56195 0.08941
 H397 H 0.76899 0.59283 0.03285
 H398 H 0.74329 0.57099 0.10878
 H399 H 0.70049 0.59879 0.07016
 H400 H 0.80950 0.56438 0.06693
 C401 C 0.72929 0.40589 0.94652
 C402 C 0.76150 0.41604 0.94303
 C403 C 0.77455 0.43426 0.91181
 C404 C 0.80649 0.44549 0.91249
 H405 H 0.77923 0.41091 0.96423
 H406 H 0.75824 0.43930 0.88937
 H407 H 0.71181 0.40894 0.92463
 H408 H 0.82186 0.44059 0.93574
 C409 C 0.27100 0.59604 0.92039
 C410 C 0.23800 0.58980 0.91623
 C411 C 0.22492 0.56643 0.88937
 C412 C 0.19421 0.55326 0.89462
 H413 H 0.22051 0.59864 0.93638
 H414 H 0.24122 0.55736 0.86831
 H415 H 0.28899 0.58868 0.90011
 H416 H 0.17914 0.56181 0.91696
 C417 C 0.07328 0.28157 0.38858
 C418 C 0.07839 0.24894 0.39034
 C419 C 0.10848 0.23468 0.40729
 C420 C 0.10851 0.20218 0.41385
 H421 H 0.05797 0.23227 0.38271
 H422 H 0.12783 0.25078 0.41844
 H423 H 0.09364 0.29884 0.39452
 H424 H 0.08802 0.18692 0.40353
 C425 C 0.05727 0.71876 0.58662
 C426 C 0.06116 0.75139 0.58105
 C427 C 0.09015 0.76558 0.56127
 C428 C 0.08972 0.79769 0.55239
 H429 H 0.04197 0.76832 0.59054
 H430 H 0.11046 0.74970 0.55226
 H431 H 0.07729 0.70199 0.57881
 H432 H 0.06836 0.81267 0.56051
 C433 C 0.92993 0.73062 0.40323
 C434 C 0.92379 0.76268 0.40979
 C435 C 0.89552 0.77443 0.43201
 C436 C 0.89511 0.80643 0.44151
 H437 H 0.94184 0.78108 0.40037
 H438 H 0.87724 0.75700 0.44280
 H439 H 0.91161 0.71172 0.41051
 H440 H 0.91452 0.82297 0.43118
 C441 C 0.93761 0.23976 0.61121
 C442 C 0.93591 0.20708 0.60468
 C443 C 0.91023 0.19055 0.58229
 C444 C 0.88486 0.20586 0.56558
 H445 H 0.95686 0.19161 0.61261
 H446 H 0.91521 0.16477 0.57612
 H447 H 0.91648 0.25579 0.60571
 H448 H 0.87831 0.23121 0.57175
 C449 C 0.39938 0.04824 0.25671
 C450 C 0.40520 0.05223 0.22174
 C451 C 0.42714 0.07777 0.20540
 C452 C 0.44086 0.10407 0.22198
 H453 H 0.39529 0.03392 0.20329
 H454 H 0.43321 0.07349 0.17763
 H455 H 0.40752 0.06676 0.27578
 H456 H 0.43423 0.11003 0.24918
 C457 C 0.60345 0.07005 0.72273
 C458 C 0.60315 0.07038 0.75838
 C459 C 0.58912 0.09672 0.78122
 C460 C 0.56875 0.12110 0.77027
 H461 H 0.61150 0.04845 0.77237
 H462 H 0.59227 0.09274 0.80952
 H463 H 0.59776 0.09206 0.70757
 H464 H 0.56509 0.12596 0.74226
 C465 C 0.37709 0.95052 0.74925
 C466 C 0.38291 0.95208 0.78431
 C467 C 0.39906 0.92589 0.80553
 C468 C 0.41400 0.89882 0.79201
 H469 H 0.37812 0.97511 0.79830
 H470 H 0.40268 0.93194 0.83338
 H471 H 0.37911 0.92733 0.73491
 H472 H 0.41096 0.89200 0.76437
 C473 C 0.60663 0.93381 0.27239
 C474 C 0.59255 0.93074 0.24022
 C475 C 0.57623 0.89977 0.22828
 C476 C 0.56077 0.89884 0.19671
 H477 H 0.59164 0.95207 0.22277
 H478 H 0.57484 0.87872 0.24609
 H479 H 0.60943 0.91216 0.28911
 H480 H 0.56225 0.92029 0.17942
 C481 C 0.40693 0.27961 0.94771
 C482 C 0.42115 0.24954 0.94443
 C483 C 0.43679 0.23686 0.91134
 C484 C 0.45006 0.20639 0.91182
 H485 H 0.42124 0.23285 0.96689
 H486 H 0.43927 0.25257 0.88814
 H487 H 0.40346 0.29429 0.92389
 H488 H 0.44751 0.19169 0.93582
 C489 C 0.61009 0.74478 0.92011
 C490 C 0.60176 0.77682 0.91727
 C491 C 0.57889 0.78945 0.88978
 C492 C 0.56552 0.81943 0.89489
 H493 H 0.60960 0.79423 0.93772
 H494 H 0.57005 0.77338 0.86853
 H495 H 0.60642 0.72849 0.89740
 H496 H 0.57384 0.83431 0.91739
 C497 C 0.38708 0.72471 0.06126
 C498 C 0.41734 0.73493 0.07292
 C499 C 0.42108 0.75817 0.10271
 C500 C 0.44560 0.75391 0.12655
 H501 H 0.44029 0.72713 0.05956
 H502 H 0.40795 0.78163 0.10111
 H503 H 0.36521 0.72852 0.07823
 H504 H 0.45755 0.72992 0.12898
 C505 C 0.61801 0.25241 0.06497
 C506 C 0.61076 0.21967 0.06520
 C507 C 0.59392 0.20076 0.09385
 C508 C 0.57712 0.21359 0.12161
 H509 H 0.61734 0.20451 0.04246
 H510 H 0.59231 0.17427 0.08910
 H511 H 0.61612 0.26640 0.08952
 H512 H 0.57819 0.23989 0.12729
 C513 C 0.25207 0.05757 0.60345
 C514 C 0.22086 0.05577 0.58951
 C515 C 0.20222 0.08343 0.57362
 C516 C 0.21649 0.10999 0.55804
 H517 H 0.20700 0.03256 0.58977
 H518 H 0.17544 0.07872 0.56990
 H519 H 0.26328 0.08178 0.60816
 H520 H 0.24328 0.11507 0.56077
 C521 C 0.75802 0.06503 0.36555
 C522 C 0.79177 0.06661 0.36864
 C523 C 0.81070 0.09410 0.38557
 C524 C 0.79642 0.12014 0.40185
 H525 H 0.80645 0.04468 0.36272
 H526 H 0.83744 0.08967 0.38942
 H527 H 0.74267 0.08691 0.36880
 H528 H 0.76996 0.12570 0.39823
 C529 C 0.73109 0.94648 0.59083
 C530 C 0.72301 0.91469 0.59743
 C531 C 0.74561 0.88762 0.58540
 C532 C 0.77933 0.89137 0.58505
 H533 H 0.69811 0.90819 0.60727
 H534 H 0.73403 0.86597 0.57325
 H535 H 0.75480 0.95175 0.57740
 H536 H 0.79061 0.91277 0.59805
 C537 C 0.27369 0.93625 0.40966
 C538 C 0.27126 0.90505 0.39751
 C539 C 0.24874 0.88109 0.41588
 C540 C 0.21731 0.89019 0.42494
 H541 H 0.28322 0.89771 0.37281
 H542 H 0.25765 0.85628 0.42121
 H543 H 0.26148 0.94207 0.43479
 H544 H 0.20851 0.91453 0.41716
 C545 C 0.05494 0.36382 0.75205
 C546 C 0.05275 0.37695 0.78487
 C547 C 0.08113 0.39078 0.80554
 C548 C 0.10840 0.40543 0.79103
 H549 H 0.02850 0.37826 0.79817
 H550 H 0.07591 0.39449 0.83358
 H551 H 0.07966 0.35757 0.74158
 H552 H 0.11365 0.40286 0.76288
 C553 C 0.05949 0.62579 0.25164
 C554 C 0.06409 0.61822 0.21709
 C555 C 0.09350 0.60120 0.20152
 C556 C 0.11789 0.58580 0.21972
 H557 H 0.04447 0.62369 0.19801
 H558 H 0.09199 0.59742 0.17300
 H559 H 0.08083 0.62480 0.26960
 H560 H 0.12064 0.58925 0.24812
 C561 C 0.92565 0.40287 0.28015
 C562 C 0.91393 0.43301 0.27231
 C563 C 0.88513 0.43774 0.24843
 C564 C 0.86569 0.46444 0.25183
 H565 H 0.92705 0.45508 0.28163
 H566 H 0.88346 0.42236 0.22477
 H567 H 0.90941 0.38150 0.27550
 H568 H 0.86621 0.47879 0.27626
 C569 C 0.94767 0.56646 0.70926
 C570 C 0.91537 0.57661 0.71032
 C571 C 0.89131 0.56083 0.73561
 C572 C 0.90127 0.55366 0.76882
 H573 H 0.90659 0.59725 0.69467
 H574 H 0.86561 0.55581 0.72719
 H575 H 0.95349 0.54446 0.72461
 H576 H 0.92647 0.56099 0.77723
 C577 C 0.73014 0.61027 0.91678
 C578 C 0.76318 0.60397 0.91495
 C579 C 0.77817 0.58433 0.88595
 C580 C 0.81106 0.57729 0.88745
 H581 H 0.77909 0.61073 0.93737
 H582 H 0.76194 0.57240 0.86646
 H583 H 0.71386 0.60526 0.89421
 H584 H 0.82653 0.58922 0.90764
 C585 C 0.25821 0.38476 0.95664
 C586 C 0.22619 0.39560 0.95926
 C587 C 0.20447 0.40619 0.92961
 C588 C 0.21563 0.41940 0.89899
 H589 H 0.21391 0.39666 0.98497
 H590 H 0.17783 0.40785 0.93613
 H591 H 0.26818 0.37869 0.93056
 H592 H 0.24223 0.41878 0.89216
 C593 C 0.26499 0.59490 0.05263
 C594 C 0.23117 0.59272 0.05403
 C595 C 0.21120 0.57770 0.08296
 C596 C 0.22337 0.56679 0.11402
 H597 H 0.21658 0.60074 0.03129
 H598 H 0.18462 0.57414 0.07702
 H599 H 0.28043 0.58871 0.07533
 H600 H 0.24947 0.57089 0.12141
 C601 C 0.73885 0.38987 0.07745
 C602 C 0.77219 0.39609 0.07869
 C603 C 0.79002 0.41475 0.10690
 C604 C 0.77510 0.43555 0.12994
 H605 H 0.78757 0.38943 0.05588
 H606 H 0.81732 0.41532 0.10437
 H607 H 0.72289 0.39372 0.10049
 H608 H 0.74786 0.43591 0.13269
 C609 C 0.93217 0.72205 0.60897
 C610 C 0.92849 0.75481 0.60517
 C611 C 0.89779 0.76959 0.58971
 C612 C 0.89704 0.80232 0.58416
 H613 H 0.94977 0.77106 0.61094
 H614 H 0.87789 0.75365 0.57939
 H615 H 0.91062 0.70568 0.60515
 H616 H 0.91773 0.81754 0.59407
 C617 C 0.95016 0.27586 0.41288
 C618 C 0.91732 0.27905 0.40450
 C619 C 0.89139 0.25687 0.42017
 C620 C 0.89766 0.22463 0.42503
 H621 H 0.90888 0.29771 0.38604
 H622 H 0.86707 0.26713 0.42735
 H623 H 0.95696 0.25759 0.43266
 H624 H 0.92147 0.21447 0.41591
 C625 C 0.06296 0.24698 0.60282
 C626 C 0.06736 0.21405 0.60054
 C627 C 0.09288 0.19696 0.57866
 C628 C 0.11673 0.21167 0.55877
 H629 H 0.04889 0.19781 0.61300
 H630 H 0.08979 0.17027 0.57698
 H631 H 0.08158 0.26424 0.59256
 H632 H 0.12150 0.23805 0.56064
 C633 C 0.05209 0.74679 0.39521
 C634 C 0.08468 0.74100 0.38702
 C635 C 0.11179 0.76017 0.40513
 C636 C 0.10843 0.79276 0.41103
 H637 H 0.09193 0.72033 0.37037
 H638 H 0.13311 0.74686 0.41592
 H639 H 0.04732 0.76553 0.41536
 H640 H 0.08756 0.80569 0.39872
 C641 C 0.58517 0.94911 0.71202
 C642 C 0.57460 0.94653 0.74587
 C643 C 0.55712 0.91724 0.76058
 C644 C 0.54716 0.91862 0.79456
 H645 H 0.57916 0.96674 0.76428
 H646 H 0.55076 0.89621 0.74381
 H647 H 0.58433 0.92722 0.69520
 H648 H 0.55344 0.94045 0.81026
 C649 C 0.38200 0.92669 0.24982
 C650 C 0.39328 0.92447 0.21619
 C651 C 0.40833 0.89490 0.19982
 C652 C 0.42769 0.87333 0.21748
 H653 H 0.39194 0.94575 0.19879
 H654 H 0.40900 0.89506 0.17099
 H655 H 0.37803 0.90411 0.26490
 H656 H 0.42813 0.87325 0.24628
 C657 C 0.59337 0.05436 0.27790
 C658 C 0.60038 0.08654 0.28452
 C659 C 0.58237 0.11277 0.26459
 C660 C 0.57730 0.10942 0.22951
 H661 H 0.61857 0.09414 0.30438
 H662 H 0.57263 0.13402 0.27888
 H663 H 0.57273 0.04936 0.25959
 H664 H 0.58865 0.08855 0.21581
 C665 C 0.39584 0.07126 0.72536
 C666 C 0.40188 0.07938 0.75939
 C667 C 0.42407 0.10723 0.77020
 C668 C 0.43507 0.10839 0.80384
 H669 H 0.39194 0.06352 0.78025
 H670 H 0.43371 0.12450 0.75055
 H671 H 0.40407 0.08766 0.70421
 H672 H 0.42650 0.08951 0.82236
 C673 C 0.60953 0.74466 0.05055
 C674 C 0.57627 0.75092 0.05109
 C675 C 0.55782 0.77011 0.07797
 C676 C 0.56807 0.77772 0.11093
 H677 H 0.56126 0.74417 0.02803
 H678 H 0.53310 0.77833 0.06937
 H679 H 0.62547 0.74977 0.07331
 H680 H 0.59116 0.76780 0.12187
 C681 C 0.40413 0.27537 0.07976
 C682 C 0.41257 0.24340 0.08226
 C683 C 0.43130 0.22978 0.11276
 C684 C 0.44200 0.19847 0.11083
 H685 H 0.40748 0.22706 0.05989
 H686 H 0.43884 0.24574 0.13464
 H687 H 0.40726 0.29171 0.10248
 H688 H 0.43475 0.18349 0.08801
 C689 C 0.62592 0.25699 0.93392
 C690 C 0.62536 0.22410 0.92864
 C691 C 0.60584 0.20642 0.90094
 C692 C 0.58275 0.22021 0.87957
 H693 H 0.63685 0.20832 0.94847
 H694 H 0.60728 0.17962 0.90212
 H695 H 0.61681 0.27386 0.91386
 H696 H 0.58083 0.24684 0.87708
 C697 C 0.41417 0.71295 0.93434
 C698 C 0.41232 0.74566 0.92891
 C699 C 0.42985 0.76334 0.89992
 C700 C 0.42849 0.79647 0.89975
 H701 H 0.39819 0.76048 0.94792
 H702 H 0.44570 0.75006 0.88122
 H703 H 0.42626 0.69684 0.91511
 H704 H 0.41351 0.80896 0.91989
 C705 C 0.74703 0.94556 0.39833
 C706 C 0.78046 0.93999 0.39944
 C707 C 0.79781 0.91708 0.42376
 C708 C 0.78358 0.89214 0.44210
 H709 H 0.79720 0.95567 0.38390
 H710 H 0.82460 0.92202 0.42713
 H711 H 0.72948 0.92970 0.41256
 H712 H 0.75746 0.88504 0.43782
 C713 C 0.27154 0.93654 0.59423
 C714 C 0.23891 0.92772 0.59184
 C715 C 0.22686 0.89886 0.57104
 C716 C 0.19366 0.89573 0.56504
 H717 H 0.22004 0.94401 0.60331
 H718 H 0.24477 0.88296 0.55749
 H719 H 0.29111 0.92008 0.58464
 H720 H 0.17654 0.91329 0.57736
 C721 C 0.25560 0.05332 0.37840
 C722 C 0.22247 0.05217 0.38613
 C723 C 0.20271 0.07931 0.40214
 C724 C 0.21590 0.10742 0.41545
 H725 H 0.20907 0.02876 0.38344
 H726 H 0.17630 0.07359 0.40707
 H727 H 0.26939 0.07657 0.37806
 H728 H 0.24210 0.11402 0.41093
 C729 C 0.71072 0.06503 0.56751
 C730 C 0.74386 0.07177 0.56634
 C731 C 0.75853 0.10037 0.54748
 C732 C 0.79204 0.10133 0.54292
 H733 H 0.76125 0.05459 0.57868
 H734 H 0.74239 0.11884 0.53554
 H735 H 0.69259 0.08261 0.55732
 H736 H 0.80731 0.08158 0.55385
 C737 C 0.93429 0.62718 0.24403
 C738 C 0.93242 0.61947 0.20928
 C739 C 0.90665 0.59743 0.19306
 C740 C 0.87757 0.58770 0.20836
 H741 H 0.95328 0.62617 0.19196
 H742 H 0.91350 0.58700 0.16745
 H743 H 0.91332 0.62183 0.26168
 H744 H 0.86897 0.59889 0.23292
 C745 C 0.93531 0.38589 0.72278
 C746 C 0.92471 0.38921 0.75640
 C747 C 0.89884 0.41327 0.76743
 C748 C 0.89709 0.42140 0.80187
 H749 H 0.93819 0.37614 0.77715
 H750 H 0.88469 0.42695 0.74773
 H751 H 0.92167 0.39742 0.70119
 H752 H 0.91339 0.40885 0.82062
 C753 C 0.06925 0.58109 0.71250
 C754 C 0.07006 0.57013 0.74609
 C755 C 0.09864 0.55194 0.76169
 C756 C 0.09422 0.53832 0.79380
 H757 H 0.04737 0.57249 0.76219
 H758 H 0.12154 0.54778 0.74649
 H759 H 0.09183 0.58091 0.69613
 H760 H 0.07069 0.54267 0.80792
 C761 C 0.04730 0.42896 0.28096
 C762 C 0.04714 0.43470 0.24583
 C763 C 0.07422 0.45076 0.22509
 C764 C 0.10574 0.45733 0.23628
 H765 H 0.02508 0.42765 0.23045
 H766 H 0.06702 0.45752 0.19829
 H767 H 0.06948 0.43420 0.29687
 H768 H 0.11397 0.45030 0.26260
   
