data_POSCAR
  _audit_creation_date              2014-09-24
  _audit_creation_method            'ToBaCCo'
  _symmetry_space_group_name_H-M    'P1'
  _symmetry_Int_Tables_number       1
  _symmetry_cell_setting            triclinic
  loop_
  _symmetry_equiv_pos_as_xyz
 x,y,z
_cell_length_a 29.8271
_cell_length_b 29.8526
_cell_length_c 29.7722
_cell_angle_alpha 90.107800
_cell_angle_beta 90.174000
_cell_angle_gamma 89.814900
loop_
  _atom_site_label
  _atom_site_type_symbol
  _atom_site_fract_x
  _atom_site_fract_y
  _atom_site_fract_z
C1 C 0.26689 0.96795 0.01295
 C2 C 0.24928 0.95643 -0.02993
 C3 C 0.23347 0.99180 -0.05725
 C4 C 0.23819 1.03766 -0.04579
 C5 C 0.25876 1.04783 -0.00394
 C6 C 0.27171 1.01295 0.02447
 H7 H 0.28639 1.02115 0.05690
 H8 H 0.21780 0.98351 -0.08887
 C9 C 0.75414 0.52008 0.47925
 C10 C 0.76653 0.51594 0.52495
 C11 C 0.75479 0.47782 0.54864
 C12 C 0.73103 0.44317 0.52850
 C13 C 0.72388 0.44381 0.48118
 C14 C 0.73550 0.48287 0.45710
 H15 H 0.72695 0.48562 0.42182
 H16 H 0.76215 0.47613 0.58434
 C17 C 0.75814 0.95940 0.95819
 C18 C 0.74863 1.00639 0.95763
 C19 C 0.74686 1.02968 0.99872
 C20 C 0.75139 1.00743 1.03975
 C21 C 0.76112 0.96085 1.03987
 C22 C 0.76323 0.93734 0.99935
 H23 H 0.77254 0.90218 0.99981
 H24 H 0.73819 1.06488 0.99920
 C25 C 0.25015 0.52190 0.44077
 C26 C 0.25485 0.47479 0.44801
 C27 C 0.24994 0.45779 0.49184
 C28 C 0.23999 0.48617 0.52833
 C29 C 0.23099 0.53181 0.51968
 C30 C 0.23667 0.54898 0.47680
 H31 H 0.22930 0.58412 0.47175
 H32 H 0.25643 0.42256 0.49774
 C33 C 0.93438 0.24581 -0.00775
 C34 C 0.94520 0.24622 0.03891
 C35 C 0.99060 0.24501 0.05211
 C36 C 1.02598 0.25012 0.02130
 C37 C 1.01459 0.25341 -0.02485
 C38 C 0.97029 0.24712 -0.03821
 H39 H 0.96452 0.24620 -0.07396
 H40 H 0.99771 0.24415 0.08774
 C41 C 0.45747 0.74864 0.48433
 C42 C 0.45776 0.74399 0.53194
 C43 C 0.49938 0.74254 0.55457
 C44 C 0.53971 0.74133 0.53005
 C45 C 0.53785 0.73827 0.48272
 C46 C 0.49750 0.74445 0.46065
 H47 H 0.49763 0.74546 0.42432
 H48 H 0.50038 0.74187 0.59093
 C49 C -0.01418 0.77426 0.05595
 C50 C 0.03310 0.77490 0.04930
 C51 C 0.05100 0.76021 0.00884
 C52 C 0.02401 0.74935 -0.02760
 C53 C -0.02268 0.75737 -0.02447
 C54 C -0.04163 0.76721 0.01763
 H55 H -0.07757 0.77186 0.01953
 H56 H 0.08710 0.75702 0.00640
 C57 C 0.50333 0.23181 0.46930
 C58 C 0.45955 0.25006 0.46755
 C59 C 0.43973 0.26562 0.50752
 C60 C 0.46504 0.26872 0.54772
 C61 C 0.51111 0.25655 0.54650
 C62 C 0.52823 0.23519 0.50873
 H63 H 0.56282 0.22383 0.50918
 H64 H 0.40571 0.27838 0.50643
 C65 C 0.97248 -0.01674 0.26501
 C66 C 0.97609 0.03056 0.26057
 C67 C 1.01621 0.04890 0.24426
 C68 C 1.05324 0.02233 0.23167
 C69 C 1.04904 -0.02542 0.23422
 C70 C 1.00940 -0.04343 0.25200
 H71 H 1.00728 -0.07940 0.25470
 H72 H 1.01891 0.08502 0.24322
 C73 C 0.54378 0.52338 0.73637
 C74 C 0.53874 0.47663 0.74385
 C75 C 0.49887 0.46014 0.76130
 C76 C 0.46096 0.48687 0.76426
 C77 C 0.46289 0.53141 0.74845
 C78 C 0.50480 0.55037 0.73795
 H79 H 0.50639 0.58518 0.72792
 H80 H 0.49670 0.42495 0.77006
 C81 C 1.02642 0.97208 0.75497
 C82 C 0.98003 0.97019 0.74521
 C83 C 0.95526 1.00981 0.74240
 C84 C 0.97643 1.05163 0.74583
 C85 C 1.02433 1.05294 0.74586
 C86 C 1.04854 1.01321 0.75292
 H87 H 1.08470 1.01416 0.75641
 H88 H 0.91933 1.00757 0.73801
 C89 C 0.52479 0.45794 0.24403
 C90 C 0.47967 0.47223 0.24376
 C91 C 0.46939 0.51714 0.25107
 C92 C 0.50155 0.55102 0.24863
 C93 C 0.54753 0.53779 0.24630
 C94 C 0.55795 0.49142 0.24655
 H95 H 0.59286 0.48151 0.24554
 H96 H 0.43432 0.52569 0.25507
 O97 O 0.27585 0.14925 0.14692
 O98 O 0.33391 0.14198 0.21049
 O99 O 0.15653 0.17642 0.21759
 O100 O 0.13090 0.22934 0.26567
 O101 O 0.20302 0.25982 0.10549
 O102 O 0.25772 0.32036 0.10214
 O103 O 0.26237 0.31050 0.34388
 O104 O 0.20862 0.24714 0.34986
 O105 O 0.37490 0.26648 0.28914
 O106 O 0.39330 0.21784 0.21845
 O107 O 0.31001 0.37610 0.22894
 O108 O 0.23633 0.38226 0.18170
 O109 O 0.25663 0.36695 0.29312
 O110 O 0.20131 0.38116 0.24294
 O111 O 0.36968 0.32886 0.23494
 O112 O 0.39464 0.27549 0.18134
 O113 O 0.32205 0.25306 0.34212
 O114 O 0.26447 0.19623 0.34918
 O115 O 0.27449 0.20950 0.10034
 O116 O 0.31178 0.27652 0.09503
 O117 O 0.14819 0.24597 0.15644
 O118 O 0.12824 0.28899 0.22315
 O119 O 0.21841 0.13194 0.21242
 O120 O 0.27809 0.12153 0.25701
 Zr121 Zr 0.27189 0.17684 0.21306
 O122 O 0.30665 0.21553 0.26135
 Zr123 Zr 0.18247 0.24316 0.21910
 O124 O 0.21473 0.28661 0.26588
 Zr125 Zr 0.26188 0.26275 0.14332
 O126 O 0.29832 0.30425 0.18627
 Zr127 Zr 0.26235 0.25092 0.30385
 O128 O 0.22734 0.20654 0.25993
 Zr129 Zr 0.34134 0.26562 0.22699
 O130 O 0.30982 0.22466 0.17854
 Zr131 Zr 0.25326 0.33429 0.23119
 O132 O 0.21562 0.29554 0.18513
 O133 O 0.22571 0.21202 0.17451
 O134 O 0.29911 0.29950 0.27078
 C135 C 0.27741 0.16753 0.10759
 C136 C 0.17591 0.13756 0.21563
 C137 C 0.16197 0.25367 0.11612
 C138 C 0.26191 0.35251 0.33322
 C139 C 0.36259 0.26102 0.33007
 C140 C 0.35226 0.36793 0.23195
 H141 H 0.32724 0.19596 0.27851
 H142 H 0.31455 0.32603 0.16741
 H143 H 0.20926 0.19230 0.15343
 H144 H 0.19272 0.30150 0.28577
 H145 H 0.18903 0.22252 0.33935
 H146 H 0.13655 0.24783 0.29268
 H147 H 0.38414 0.29700 0.15836
 H148 H 0.33951 0.26158 0.10567
 H149 H 0.28988 0.17671 0.34053
 H150 H 0.26204 0.12995 0.28484
 H151 H 0.26330 0.38702 0.16304
 H152 H 0.22945 0.33605 0.10976
 H153 H 0.32925 0.11334 0.19423
 H154 H 0.39554 0.19994 0.24631
 H155 H 0.13455 0.31351 0.20175
 H156 H 0.17324 0.36390 0.24554
 O157 O 0.76601 0.87340 0.21385
 O158 O 0.69891 0.87441 0.26862
 O159 O 0.87380 0.83412 0.28961
 O160 O 0.89133 0.77632 0.33848
 O161 O 0.84230 0.76607 0.16728
 O162 O 0.78606 0.70747 0.14968
 O163 O 0.76307 0.69614 0.39116
 O164 O 0.80907 0.75934 0.40728
 O165 O 0.64941 0.73980 0.33005
 O166 O 0.63812 0.79980 0.26485
 O167 O 0.71581 0.63874 0.26476
 O168 O 0.79299 0.63405 0.22509
 O169 O 0.76667 0.64167 0.33786
 O170 O 0.82367 0.62876 0.28653
 O171 O 0.65673 0.68703 0.26518
 O172 O 0.63960 0.74713 0.21894
 O173 O 0.69979 0.74431 0.38729
 O174 O 0.74523 0.80597 0.40396
 O175 O 0.77245 0.82006 0.15961
 O176 O 0.73353 0.75366 0.14110
 O177 O 0.88923 0.77282 0.22716
 O178 O 0.90076 0.72229 0.28747
 O179 O 0.81262 0.87980 0.29123
 O180 O 0.74583 0.89280 0.31699
 Zr181 Zr 0.75949 0.83767 0.27449
 O182 O 0.71940 0.79538 0.31393
 Zr183 Zr 0.84709 0.76871 0.28325
 O184 O 0.80983 0.72154 0.32014
 Zr185 Zr 0.77758 0.76021 0.19646
 O186 O 0.73534 0.71518 0.23075
 Zr187 Zr 0.76027 0.75611 0.35563
 O188 O 0.79961 0.80369 0.32216
 Zr189 Zr 0.68801 0.74949 0.27089
 O190 O 0.72557 0.79438 0.23047
 Zr191 Zr 0.77374 0.67831 0.27720
 O192 O 0.81708 0.72106 0.24013
 O193 O 0.80974 0.80598 0.23791
 O194 O 0.72553 0.71083 0.31521
 C195 C 0.77030 0.86099 0.17269
 C196 C 0.85499 0.87299 0.29302
 C197 C 0.88165 0.77094 0.18476
 C198 C 0.76298 0.65496 0.37893
 C199 C 0.66044 0.73743 0.37190
 C200 C 0.67354 0.64771 0.26134
 H201 H 0.69756 0.81297 0.33168
 H202 H 0.72073 0.69597 0.20796
 H203 H 0.82916 0.82734 0.22176
 H204 H 0.82966 0.70452 0.34063
 H205 H 0.82740 0.78631 0.40155
 H206 H 0.88369 0.75331 0.36104
 H207 H 0.65437 0.73323 0.19267
 H208 H 0.70600 0.77048 0.14898
 H209 H 0.76450 0.83195 0.39705
 H210 H 0.73695 0.88026 0.34633
 H211 H 0.76904 0.63488 0.20203
 H212 H 0.81228 0.68974 0.15985
 H213 H 0.68695 0.86891 0.23804
 H214 H 0.63071 0.81070 0.29535
 H215 H 0.89461 0.69848 0.26512
 H216 H 0.85038 0.64417 0.29867
 O217 O 0.74117 0.11906 0.80182
 O218 O 0.70738 0.11013 0.73170
 O219 O 0.85573 0.20232 0.77469
 O220 O 0.87001 0.26914 0.74664
 O221 O 0.76747 0.23466 0.88793
 O222 O 0.70001 0.26428 0.89566
 O223 O 0.75094 0.31751 0.65350
 O224 O 0.79870 0.26149 0.63757
 O225 O 0.62928 0.22948 0.67994
 O226 O 0.60739 0.18380 0.73633
 O227 O 0.65708 0.34875 0.77264
 O228 O 0.71214 0.37149 0.81663
 O229 O 0.70957 0.35651 0.70355
 O230 O 0.76889 0.37358 0.77200
 O231 O 0.61922 0.29746 0.73176
 O232 O 0.60020 0.22847 0.78969
 O233 O 0.68356 0.26635 0.64244
 O234 O 0.74859 0.20632 0.62907
 O235 O 0.72189 0.16119 0.86249
 O236 O 0.65617 0.21574 0.86815
 O237 O 0.82967 0.25118 0.84750
 O238 O 0.84312 0.31455 0.79226
 O239 O 0.81565 0.14043 0.75537
 O240 O 0.76666 0.13219 0.68958
 Zr241 Zr 0.74864 0.16513 0.75014
 O242 O 0.70570 0.20252 0.70824
 Zr243 Zr 0.80912 0.25380 0.77906
 O244 O 0.77407 0.29328 0.73223
 Zr245 Zr 0.71898 0.22804 0.83776
 O246 O 0.68079 0.27251 0.79826
 Zr247 Zr 0.74331 0.25460 0.68115
 O248 O 0.78690 0.21675 0.72261
 Zr249 Zr 0.65452 0.23575 0.74461
 O250 O 0.69197 0.19045 0.78487
 Zr251 Zr 0.72043 0.32204 0.76643
 O252 O 0.75650 0.28352 0.81434
 O253 O 0.77388 0.20016 0.80519
 O254 O 0.69126 0.28613 0.71462
 C255 C 0.73008 0.12335 0.84301
 C256 C 0.85283 0.16084 0.76438
 C257 C 0.80914 0.24397 0.88500
 C258 C 0.72670 0.35107 0.66386
 C259 C 0.64292 0.25174 0.64620
 C260 C 0.62420 0.33747 0.74796
 H261 H 0.69334 0.18261 0.68466
 H262 H 0.65691 0.28546 0.81732
 H263 H 0.79255 0.18126 0.82520
 H264 H 0.79456 0.31608 0.71976
 H265 H 0.82328 0.24339 0.65076
 H266 H 0.86308 0.26937 0.71411
 H267 H 0.58636 0.25832 0.79404
 H268 H 0.64383 0.18832 0.85410
 H269 H 0.73598 0.21992 0.60142
 H270 H 0.79224 0.14859 0.67642
 H271 H 0.72328 0.35790 0.84485
 H272 H 0.70063 0.29624 0.88695
 H273 H 0.72504 0.08193 0.73407
 H274 H 0.62530 0.15583 0.73512
 H275 H 0.82793 0.32885 0.81813
 H276 H 0.75972 0.39804 0.75146
 O277 O 0.23754 0.84414 0.82867
 O278 O 0.29063 0.85893 0.76380
 O279 O 0.11857 0.80301 0.76298
 O280 O 0.10301 0.75733 0.70330
 O281 O 0.16916 0.72314 0.86491
 O282 O 0.23366 0.67031 0.86970
 O283 O 0.22158 0.68830 0.62829
 O284 O 0.17704 0.75746 0.62530
 O285 O 0.34606 0.73844 0.68369
 O286 O 0.35694 0.78909 0.75634
 O287 O 0.29122 0.62395 0.72993
 O288 O 0.23058 0.60488 0.78618
 O289 O 0.22381 0.62984 0.67705
 O290 O 0.18125 0.60876 0.74198
 O291 O 0.34695 0.67445 0.74127
 O292 O 0.36633 0.73041 0.79143
 O293 O 0.28950 0.73915 0.63255
 O294 O 0.24161 0.79728 0.62340
 O295 O 0.23683 0.78363 0.87491
 O296 O 0.28072 0.72032 0.88057
 O297 O 0.11633 0.72853 0.80999
 O298 O 0.10110 0.69418 0.74236
 O299 O 0.17319 0.85592 0.76738
 O300 O 0.23155 0.87426 0.71955
 Zr301 Zr 0.23283 0.81765 0.76235
 O302 O 0.27159 0.78315 0.71346
 Zr303 Zr 0.15225 0.74229 0.75240
 O304 O 0.18780 0.70336 0.70622
 Zr305 Zr 0.23119 0.72925 0.83046
 O306 O 0.27244 0.69265 0.78631
 Zr307 Zr 0.23088 0.74510 0.67009
 O308 O 0.19193 0.78548 0.71396
 Zr309 Zr 0.31174 0.73541 0.74625
 O310 O 0.27543 0.77197 0.79565
 Zr311 Zr 0.23106 0.65906 0.74030
 O312 O 0.18977 0.69300 0.78655
 O313 O 0.19076 0.77655 0.79944
 O314 O 0.27272 0.69865 0.70114
 C315 C 0.23941 0.82595 0.86800
 C316 C 0.13184 0.84363 0.76756
 C317 C 0.12824 0.72225 0.85063
 C318 C 0.21909 0.64628 0.63769
 C319 C 0.33115 0.73750 0.64300
 C320 C 0.33275 0.63469 0.73319
 H321 H 0.28994 0.80455 0.69616
 H322 H 0.29141 0.67185 0.80387
 H323 H 0.17260 0.79295 0.82191
 H324 H 0.16557 0.68797 0.68700
 H325 H 0.16132 0.78469 0.63615
 H326 H 0.11076 0.74053 0.67571
 H327 H 0.35581 0.71280 0.81742
 H328 H 0.30699 0.73801 0.87093
 H329 H 0.23641 0.82560 0.63978
 H330 H 0.20944 0.86796 0.69552
 H331 H 0.25889 0.60545 0.80356
 H332 H 0.20994 0.65026 0.85804
 H333 H 0.28347 0.88682 0.78052
 H334 H 0.35942 0.80569 0.72772
 H335 H 0.11112 0.66635 0.75741
 H336 H 0.15687 0.61805 0.72136
 O337 O 0.24270 0.39877 0.70768
 O338 O 0.17995 0.40132 0.76597
 O339 O 0.34968 0.34293 0.78109
 O340 O 0.35967 0.28033 0.82578
 O341 O 0.31522 0.28878 0.65307
 O342 O 0.25440 0.23840 0.62892
 O343 O 0.22278 0.20401 0.86817
 O344 O 0.27409 0.26042 0.89113
 O345 O 0.11623 0.27556 0.80852
 O346 O 0.11347 0.33335 0.74300
 O347 O 0.17481 0.16448 0.74140
 O348 O 0.24697 0.15701 0.69597
 O349 O 0.22594 0.15774 0.80763
 O350 O 0.28465 0.14761 0.75192
 O351 O 0.12206 0.21946 0.73959
 O352 O 0.10883 0.28171 0.69971
 O353 O 0.16309 0.26355 0.86768
 O354 O 0.21627 0.31389 0.89230
 O355 O 0.24883 0.35029 0.64908
 O356 O 0.20722 0.28950 0.62304
 O357 O 0.36066 0.28605 0.71443
 O358 O 0.36558 0.22967 0.76995
 O359 O 0.29320 0.39408 0.78422
 O360 O 0.22910 0.40964 0.81370
 Zr361 Zr 0.23647 0.35819 0.76544
 O362 O 0.19201 0.31601 0.79965
 Zr363 Zr 0.31671 0.28128 0.76903
 O364 O 0.27429 0.23407 0.80030
 Zr365 Zr 0.24945 0.28735 0.68014
 O366 O 0.20229 0.24353 0.70882
 Zr367 Zr 0.22659 0.26830 0.83875
 O368 O 0.27120 0.31571 0.81067
 Zr369 Zr 0.15773 0.27837 0.75115
 O370 O 0.20008 0.32310 0.71635
 Zr371 Zr 0.23589 0.19927 0.75205
 O372 O 0.28390 0.24114 0.72062
 O373 O 0.28443 0.32605 0.72639
 O374 O 0.18903 0.23153 0.79254
 C375 C 0.24575 0.38993 0.66545
 C376 C 0.33459 0.38311 0.78660
 C377 C 0.35426 0.28796 0.67183
 C378 C 0.22153 0.16498 0.84985
 C379 C 0.12410 0.26967 0.85064
 C380 C 0.13409 0.17836 0.73706
 H381 H 0.17185 0.33467 0.81829
 H382 H 0.18611 0.22768 0.68455
 H383 H 0.30538 0.34733 0.71209
 H384 H 0.29211 0.21343 0.81923
 H385 H 0.29534 0.28570 0.88874
 H386 H 0.35013 0.25542 0.84540
 H387 H 0.12402 0.27311 0.67149
 H388 H 0.18014 0.30650 0.63205
 H389 H 0.23818 0.33835 0.88830
 H390 H 0.22095 0.39478 0.84216
 H391 H 0.22287 0.16288 0.67382
 H392 H 0.27710 0.21630 0.63898
 H393 H 0.16651 0.40046 0.73553
 H394 H 0.10997 0.34799 0.77264
 H395 H 0.35652 0.20756 0.74685
 H396 H 0.30580 0.15363 0.77683
 O397 O 0.78514 0.62187 0.67614
 O398 O 0.83415 0.61645 0.74334
 O399 O 0.66109 0.66824 0.73334
 O400 O 0.64409 0.72578 0.78380
 O401 O 0.71467 0.73631 0.62085
 O402 O 0.77809 0.78834 0.61046
 O403 O 0.77111 0.80520 0.85142
 O404 O 0.71833 0.74508 0.86323
 O405 O 0.88593 0.75058 0.80354
 O406 O 0.89893 0.68464 0.74379
 O407 O 0.83573 0.85299 0.73487
 O408 O 0.76773 0.86173 0.68106
 O409 O 0.77616 0.85516 0.79423
 O410 O 0.72568 0.86890 0.73423
 O411 O 0.88939 0.79880 0.73522
 O412 O 0.90956 0.73435 0.69839
 O413 O 0.83192 0.74688 0.85697
 O414 O 0.77705 0.69281 0.86891
 O415 O 0.78548 0.67584 0.62236
 O416 O 0.82240 0.73796 0.60486
 O417 O 0.65871 0.73393 0.67239
 O418 O 0.64348 0.78198 0.73291
 O419 O 0.71838 0.61768 0.73406
 O420 O 0.76784 0.60764 0.78725
 Zr421 Zr 0.77604 0.65728 0.73724
 O422 O 0.81408 0.69786 0.78143
 Zr423 Zr 0.69390 0.73189 0.73372
 O424 O 0.73015 0.77766 0.77477
 Zr425 Zr 0.77492 0.73520 0.65732
 O426 O 0.81579 0.77710 0.69556
 Zr427 Zr 0.77290 0.74209 0.81806
 O428 O 0.73407 0.69603 0.77945
 Zr429 Zr 0.85380 0.73956 0.74176
 O430 O 0.81846 0.69718 0.69789
 Zr431 Zr 0.77418 0.81702 0.73578
 O432 O 0.73247 0.77677 0.69470
 O433 O 0.73424 0.69201 0.69320
 O434 O 0.81516 0.78271 0.78060
 C435 C 0.78951 0.63525 0.63526
 C436 C 0.67644 0.62759 0.73295
 C437 C 0.67314 0.73733 0.63198
 C438 C 0.77468 0.84541 0.83597
 C439 C 0.87275 0.75224 0.84449
 C440 C 0.87693 0.83975 0.73356
 H441 H 0.83247 0.67925 0.80190
 H442 H 0.83458 0.79454 0.67464
 H443 H 0.71719 0.67214 0.67273
 H444 H 0.70919 0.79653 0.79224
 H445 H 0.69887 0.71915 0.85630
 H446 H 0.64976 0.74922 0.80664
 H447 H 0.90054 0.74821 0.66959
 H448 H 0.85093 0.72655 0.61751
 H449 H 0.75786 0.66769 0.85897
 H450 H 0.78829 0.61540 0.81229
 H451 H 0.79586 0.86025 0.66358
 H452 H 0.75204 0.80815 0.61619
 H453 H 0.82593 0.58532 0.73515
 H454 H 0.90457 0.67706 0.77566
 H455 H 0.65550 0.80718 0.71510
 H456 H 0.70030 0.85947 0.75325
 O457 O 0.28090 0.63319 0.27971
 O458 O 0.24643 0.62322 0.21113
 O459 O 0.39438 0.71842 0.25173
 O460 O 0.40530 0.78362 0.21949
 O461 O 0.30562 0.75471 0.36428
 O462 O 0.23864 0.77476 0.37667
 O463 O 0.28080 0.83019 0.12886
 O464 O 0.32852 0.77480 0.11291
 O465 O 0.16432 0.74082 0.16245
 O466 O 0.14360 0.69625 0.21983
 O467 O 0.19473 0.86743 0.23442
 O468 O 0.23539 0.87860 0.29842
 O469 O 0.26313 0.87778 0.18607
 O470 O 0.30409 0.88700 0.26064
 O471 O 0.14907 0.80871 0.21764
 O472 O 0.13755 0.73891 0.27315
 O473 O 0.21339 0.78404 0.12574
 O474 O 0.27704 0.72011 0.10750
 O475 O 0.26129 0.67535 0.34022
 O476 O 0.19434 0.73150 0.34703
 O477 O 0.36829 0.76754 0.32315
 O478 O 0.37987 0.83026 0.26565
 O479 O 0.35395 0.65660 0.23316
 O480 O 0.30295 0.64856 0.16665
 Zr481 Zr 0.28597 0.67984 0.22842
 O482 O 0.24017 0.71618 0.18835
 Zr483 Zr 0.34608 0.76885 0.25513
 O484 O 0.30872 0.80731 0.20919
 Zr485 Zr 0.25706 0.74285 0.31607
 O486 O 0.21766 0.78747 0.27774
 Zr487 Zr 0.27550 0.76871 0.15945
 O488 O 0.32199 0.73194 0.19933
 Zr489 Zr 0.18981 0.74928 0.22628
 O490 O 0.22952 0.70434 0.26465
 Zr491 Zr 0.25639 0.83686 0.24492
 O492 O 0.29399 0.79851 0.29162
 O493 O 0.31183 0.71527 0.28282
 O494 O 0.22506 0.80030 0.19490
 C495 C 0.26965 0.63732 0.32081
 C496 C 0.39145 0.67675 0.24225
 C497 C 0.34720 0.76350 0.36074
 C498 C 0.27349 0.86920 0.14464
 C499 C 0.17381 0.76708 0.13058
 C500 C 0.15706 0.85132 0.22192
 H501 H 0.22741 0.69558 0.16560
 H502 H 0.19431 0.80172 0.29653
 H503 H 0.33104 0.69692 0.30286
 H504 H 0.32925 0.82967 0.19604
 H505 H 0.35375 0.75690 0.12509
 H506 H 0.39700 0.78239 0.18730
 H507 H 0.12702 0.76852 0.28385
 H508 H 0.18373 0.70176 0.33682
 H509 H 0.26099 0.73324 0.08146
 H510 H 0.32916 0.66443 0.15407
 H511 H 0.25220 0.86838 0.32524
 H512 H 0.23486 0.80688 0.36929
 H513 H 0.26553 0.59588 0.21188
 H514 H 0.16204 0.66865 0.21794
 H515 H 0.36851 0.84315 0.29410
 H516 H 0.29111 0.91632 0.25178
 O517 O 0.70932 0.33650 0.32832
 O518 O 0.76694 0.35354 0.26608
 O519 O 0.60688 0.27403 0.24631
 O520 O 0.60580 0.21527 0.19647
 O521 O 0.65263 0.21135 0.36822
 O522 O 0.72281 0.16881 0.38681
 O523 O 0.74123 0.15894 0.14707
 O524 O 0.68764 0.21939 0.13079
 O525 O 0.84601 0.24328 0.20895
 O526 O 0.84384 0.29415 0.27321
 O527 O 0.80767 0.11830 0.26688
 O528 O 0.73887 0.09889 0.31618
 O529 O 0.74868 0.10857 0.20364
 O530 O 0.70244 0.08594 0.26109
 O531 O 0.85185 0.17985 0.27251
 O532 O 0.85637 0.23605 0.31885
 O533 O 0.80001 0.22476 0.15094
 O534 O 0.74436 0.26839 0.12923
 O535 O 0.70480 0.28014 0.37921
 O536 O 0.75912 0.22741 0.39847
 O537 O 0.60614 0.20735 0.30775
 O538 O 0.60623 0.16008 0.24633
 O539 O 0.65351 0.33309 0.25793
 O540 O 0.71291 0.35512 0.21634
 Zr541 Zr 0.71672 0.30335 0.26476
 O542 O 0.76507 0.27024 0.22487
 Zr543 Zr 0.64867 0.21643 0.25330
 O544 O 0.69629 0.17791 0.21826
 Zr545 Zr 0.71716 0.22288 0.34128
 O546 O 0.76984 0.18982 0.30796
 Zr547 Zr 0.73721 0.22133 0.18176
 O548 O 0.68792 0.26054 0.21548
 Zr549 Zr 0.80715 0.23379 0.26763
 O550 O 0.76001 0.26866 0.30842
 Zr551 Zr 0.74140 0.14500 0.26227
 O552 O 0.68812 0.17659 0.29720
 O553 O 0.67526 0.26049 0.30015
 O554 O 0.78169 0.18617 0.22297
 C555 C 0.70442 0.32164 0.36883
 C556 C 0.61477 0.31648 0.24949
 C557 C 0.61378 0.20600 0.34996
 C558 C 0.74468 0.11857 0.16219
 C559 C 0.83780 0.23755 0.16676
 C560 C 0.84615 0.13729 0.27199
 H561 H 0.78182 0.29304 0.20770
 H562 H 0.78924 0.17469 0.33029
 H563 H 0.65164 0.27656 0.31709
 H564 H 0.67958 0.15676 0.19897
 H565 H 0.66661 0.24453 0.13650
 H566 H 0.61909 0.19482 0.17394
 H567 H 0.83991 0.23532 0.34757
 H568 H 0.78109 0.25138 0.39225
 H569 H 0.73658 0.29790 0.14212
 H570 H 0.69827 0.34222 0.18942
 H571 H 0.76557 0.10369 0.33538
 H572 H 0.70108 0.14575 0.37702
 H573 H 0.75480 0.38051 0.28137
 H574 H 0.83139 0.31104 0.29903
 H575 H 0.61842 0.13654 0.26634
 H576 H 0.67579 0.09224 0.24226
 N577 N 0.30672 0.14926 0.03384
 N578 N 0.29978 0.11993 0.00112
 C579 C 0.26640 0.09280 0.01468
 C580 C 0.25489 0.10512 0.05801
 N581 N 0.28094 0.13999 0.06866
 H582 H 0.23128 0.08899 0.08027
 N583 N 0.82363 0.61243 0.56535
 N584 N 0.81793 0.58140 0.53406
 C585 C 0.78781 0.55229 0.55064
 C586 C 0.77599 0.56577 0.59333
 N587 N 0.79897 0.60336 0.60109
 H588 H 0.74988 0.55235 0.61459
 N589 N 0.80393 0.92973 0.14716
 N590 N 0.80387 0.95627 0.11169
 C591 C 0.77579 0.93780 0.08129
 C592 C 0.75931 0.89837 0.09880
 N593 N 0.77718 0.89517 0.14019
 H594 H 0.73493 0.87581 0.08418
 N595 N 0.25104 0.46900 0.64723
 N596 N 0.24946 0.49543 0.61166
 C597 C 0.24282 0.46913 0.57526
 C598 C 0.24127 0.42522 0.58988
 N599 N 0.24623 0.42676 0.63485
 H600 H 0.23634 0.39518 0.57008
 N601 N 0.72188 0.04312 0.84881
 N602 N 0.72777 0.01061 0.87833
 C603 C 0.73863 0.03004 0.91780
 C604 C 0.73781 0.07626 0.91149
 N605 N 0.72760 0.08268 0.86806
 H606 H 0.74688 0.10254 0.93486
 N607 N 0.26533 0.55622 0.32628
 N608 N 0.26010 0.52434 0.35670
 C609 C 0.25749 0.54480 0.39697
 C610 C 0.26121 0.59077 0.38986
 N611 N 0.26593 0.59629 0.34551
 H612 H 0.26092 0.61775 0.41416
 N613 N 0.25535 0.84029 0.94752
 N614 N 0.25849 0.87455 0.97589
 C615 C 0.24866 0.91211 0.95260
 C616 C 0.23979 0.89914 0.90840
 N617 N 0.24431 0.85443 0.90679
 H618 H 0.23203 0.91977 0.87958
 N619 N 0.67894 0.33929 0.44387
 N620 N 0.68368 0.37049 0.47514
 C621 C 0.70605 0.40464 0.45614
 C622 C 0.71457 0.39324 0.41159
 N623 N 0.69716 0.35214 0.40547
 H624 H 0.73480 0.41113 0.38746
 N625 N 0.14204 0.26251 0.03780
 N626 N 0.10639 0.26189 0.01135
 C627 C 0.07046 0.25369 0.03738
 C628 C 0.08580 0.24927 0.08142
 N629 N 0.13039 0.25497 0.07992
 H630 H 0.06712 0.24221 0.11165
 N631 N 0.65318 0.76491 0.55889
 N632 N 0.61848 0.76743 0.53150
 C633 C 0.58368 0.74759 0.55226
 C634 C 0.59799 0.73364 0.59428
 N635 N 0.64177 0.74461 0.59652
 H636 H 0.57924 0.71595 0.61973
 N637 N 0.05228 0.70204 0.86868
 N638 N 0.02233 0.71085 0.90014
 C639 C 0.04439 0.73181 0.93368
 C640 C 0.08934 0.73417 0.92216
 N641 N 0.09258 0.71561 0.88143
 H642 H 0.11617 0.75201 0.93889
 N643 N 0.53664 0.18486 0.36429
 N644 N 0.50557 0.19169 0.39526
 C645 C 0.52604 0.21301 0.42958
 C646 C 0.57068 0.21826 0.41912
 N647 N 0.57582 0.20043 0.37822
 H648 H 0.59598 0.23674 0.43752
 N649 N 0.96093 0.78322 0.17094
 N650 N 0.98976 0.78498 0.13727
 C651 C 0.96629 0.77881 0.09894
 C652 C 0.92145 0.77316 0.11073
 N653 N 0.91981 0.77590 0.15584
 H654 H 0.89307 0.76598 0.08922
 N655 N 0.43435 0.29656 0.66063
 N656 N 0.46483 0.29227 0.62867
 C657 C 0.44281 0.28262 0.59025
 C658 C 0.39728 0.28120 0.60000
 N659 N 0.39361 0.28992 0.64424
 H660 H 0.36992 0.27178 0.57801
 N661 N 0.81874 0.23946 0.96701
 N662 N 0.85189 0.23995 0.99700
 C663 C 0.89040 0.24590 0.97405
 C664 C 0.87906 0.24969 0.92882
 N665 N 0.83468 0.24522 0.92592
 H666 H 0.90024 0.25486 0.89995
 N667 N 0.35328 0.78672 0.43853
 N668 N 0.38106 0.78215 0.47300
 C669 C 0.41695 0.75927 0.45767
 C670 C 0.41073 0.75105 0.41231
 N671 N 0.37093 0.76884 0.40188
 H672 H 0.43187 0.73239 0.38941
 N673 N 0.16832 0.05716 0.22307
 N674 N 0.13739 0.02577 0.22704
 C675 C 0.09699 0.04582 0.22355
 C676 C 0.10479 0.09175 0.21806
 N677 N 0.14968 0.09712 0.21783
 H678 H 0.08059 0.11869 0.21554
 N679 N 0.66039 0.54871 0.72267
 N680 N 0.62654 0.52018 0.72243
 C681 C 0.58870 0.54408 0.72888
 C682 C 0.60099 0.58902 0.73329
 N683 N 0.64607 0.59023 0.72936
 H684 H 0.57970 0.61749 0.74069
 N685 N 0.93288 0.15698 0.77395
 N686 N 0.96695 0.12928 0.76829
 C687 C 0.95014 0.09036 0.75274
 C688 C 0.90364 0.09515 0.74991
 N689 N 0.89464 0.13727 0.76326
 H690 H 0.87884 0.07113 0.73889
 N691 N 0.47122 0.66714 0.25974
 N692 N 0.50218 0.63503 0.26128
 C693 C 0.48294 0.59750 0.24521
 C694 C 0.43887 0.60834 0.23336
 N695 N 0.43278 0.65157 0.24359
 H696 H 0.41297 0.58665 0.22017
 N697 N 0.06106 0.86667 0.79876
 N698 N 0.03204 0.90006 0.79613
 C699 C 0.05084 0.93170 0.77007
 C700 C 0.09309 0.91707 0.75754
 N701 N 0.09777 0.87616 0.77593
 H702 H 0.11635 0.93281 0.73467
 N703 N 0.53744 0.33810 0.23005
 N704 N 0.51269 0.37514 0.22779
 C705 C 0.53883 0.40977 0.24081
 C706 C 0.58063 0.39228 0.25108
 N707 N 0.57843 0.34780 0.24402
 H708 H 0.60992 0.40992 0.26318
 N709 N 0.86729 0.95196 0.30792
 N710 N 0.89788 0.98287 0.29963
 C711 C 0.93382 0.96180 0.28190
 C712 C 0.92418 0.91626 0.28070
 N713 N 0.88260 0.91179 0.29693
 H714 H 0.94328 0.88919 0.26587
 N715 N 0.35368 0.45882 0.80897
 N716 N 0.38615 0.48822 0.80240
 C717 C 0.41935 0.46610 0.78111
 C718 C 0.40656 0.42195 0.77571
 N719 N 0.36547 0.41888 0.79347
 H720 H 0.42366 0.39569 0.75730
 N721 N 0.05793 0.30684 0.87825
 N722 N 0.03054 0.30551 0.91299
 C723 C 0.04375 0.27099 0.93921
 C724 C 0.07981 0.25032 0.91858
 N725 N 0.08745 0.27390 0.88085
 H726 H 0.09760 0.22037 0.92890
 N727 N 0.63822 0.69419 0.43590
 N728 N 0.60711 0.69439 0.46739
 C729 C 0.57699 0.72588 0.45536
 C730 C 0.58988 0.74425 0.41483
 N731 N 0.62828 0.72348 0.40403
 H732 H 0.57488 0.77210 0.39697
 N733 N 0.94020 0.78992 0.86696
 N734 N 0.96831 0.79259 0.90112
 C735 C 0.95153 0.76689 0.93419
 C736 C 0.91132 0.74880 0.91948
 N737 N 0.90599 0.76380 0.87707
 H738 H 0.88999 0.72501 0.93646
 N739 N 0.43655 0.28261 0.35470
 N740 N 0.46288 0.28074 0.39038
 C741 C 0.43922 0.26121 0.42347
 C742 C 0.39674 0.25168 0.40697
 N743 N 0.39686 0.26522 0.36368
 H744 H 0.36950 0.23487 0.42389
 N745 N 0.13133 0.82377 0.08965
 N746 N 0.08993 0.82908 0.07410
 C747 C 0.06741 0.79042 0.08122
 C748 C 0.09740 0.76093 0.10047
 N749 N 0.13680 0.78237 0.10427
 H750 H 0.09203 0.72580 0.10764
 N751 N 0.60725 0.30481 0.59549
 N752 N 0.56899 0.30923 0.57313
 C753 C 0.54531 0.27120 0.57914
 C754 C 0.57140 0.24267 0.60477
 N755 N 0.60971 0.26465 0.61396
 H756 H 0.56419 0.20836 0.61391
 N757 N 0.89671 0.28581 0.14016
 N758 N 0.92283 0.29104 0.10482
 C759 C 0.91371 0.25751 0.07568
 C760 C 0.88117 0.23076 0.09510
 N761 N 0.87178 0.24965 0.13530
 H762 H 0.86755 0.19956 0.08258
 N763 N 0.34848 0.71219 0.56836
 N764 N 0.38067 0.71349 0.53809
 C765 C 0.41553 0.73531 0.55678
 C766 C 0.40392 0.74627 0.60076
 N767 N 0.36147 0.73162 0.60616
 H768 H 0.42340 0.76456 0.62539
 N769 N 0.19072 0.09176 0.86093
 N770 N 0.19519 0.05708 0.88790
 C771 C 0.22180 0.06939 0.92262
 C772 C 0.23259 0.11442 0.91602
 N773 N 0.21295 0.12647 0.87694
 H774 H 0.25585 0.13518 0.93414
 N775 N 0.74195 0.63602 0.45421
 N776 N 0.73883 0.60147 0.48150
 C777 C 0.75208 0.56501 0.45830
 C778 C 0.76252 0.57832 0.41485
 N779 N 0.75628 0.62316 0.41421
 H780 H 0.77452 0.55795 0.38725
 N781 N 0.72769 0.04161 0.14916
 N782 N 0.72900 0.01074 0.11761
 C783 C 0.74323 0.03088 0.07986
 C784 C 0.74907 0.07629 0.08905
 N785 N 0.74000 0.08093 0.13306
 H786 H 0.76163 0.10231 0.06722
 N787 N 0.17403 0.58616 0.60902
 N788 N 0.17672 0.55364 0.57894
 C789 C 0.21328 0.56231 0.55409
 C790 C 0.23257 0.60156 0.56917
 N791 N 0.20687 0.61535 0.60346
 H792 H 0.26415 0.61616 0.55907
 N793 N 0.80222 0.91886 0.85456
 N794 N 0.79800 0.95042 0.88542
 C795 C 0.77073 0.93402 0.91733
 C796 C 0.75956 0.89032 0.90575
 N797 N 0.77961 0.88256 0.86602
 H798 H 0.73770 0.86744 0.92333
 N799 N 0.30879 0.41192 0.36120
 N800 N 0.30738 0.44632 0.38931
 C801 C 0.26883 0.44286 0.41239
 C802 C 0.24702 0.40415 0.39814
 N803 N 0.27333 0.38578 0.36619
 H804 H 0.21439 0.39209 0.40822
 N805 N 0.32159 0.92078 0.10686
 N806 N 0.32324 0.94164 0.06776
 C807 C 0.28284 0.93668 0.04781
 C808 C 0.25583 0.91335 0.07724
 N809 N 0.28095 0.90485 0.11401
 H810 H 0.22104 0.90410 0.07273
 N811 N 0.67553 0.40044 0.62276
 N812 N 0.67334 0.42024 0.58292
 C813 C 0.71182 0.41101 0.56070
 C814 C 0.73812 0.38574 0.58946
 N815 N 0.71485 0.38052 0.62776
 H816 H 0.77255 0.37534 0.58436
 N817 N 0.06463 0.15644 0.70170
 N818 N 0.03417 0.12447 0.70392
 C819 C 0.04948 0.09389 0.73356
 C820 C 0.09143 0.10754 0.74838
 N821 N 0.09929 0.14685 0.72782
 H822 H 0.11278 0.09192 0.77335
 N823 N 0.65397 0.58280 0.21709
 N824 N 0.61995 0.55538 0.21018
 C825 C 0.58633 0.56785 0.23792
 C826 C 0.60153 0.60429 0.26275
 N827 N 0.64390 0.61215 0.24874
 H828 H 0.58496 0.62139 0.29016
 N829 N 0.13431 0.91504 0.17829
 N830 N 0.10862 0.95107 0.18280
 C831 C 0.08169 0.94383 0.21823
 C832 C 0.09119 0.90085 0.23432
 N833 N 0.12428 0.88404 0.20845
 H834 H 0.07867 0.88544 0.26467
 N835 N 0.58137 0.37969 0.69276
 N836 N 0.56437 0.42060 0.68881
 C837 C 0.56986 0.44160 0.72875
 C838 C 0.58919 0.41121 0.75767
 N839 N 0.59526 0.37304 0.73441
 H840 H 0.59604 0.41568 0.79314
 N841 N 0.91752 0.12360 0.30792
 N842 N 0.95212 0.09583 0.30643
 C843 C 0.94194 0.06334 0.27667
 C844 C 0.89941 0.07263 0.25934
 N845 N 0.88540 0.11041 0.28019
 H846 H 0.88193 0.05546 0.23249
 N847 N 0.35422 0.56065 0.70874
 N848 N 0.38812 0.53234 0.71227
 C849 C 0.42114 0.55393 0.73443
 C850 C 0.40679 0.59697 0.74373
 N851 N 0.36464 0.59946 0.72744
 H852 H 0.42392 0.62268 0.76282
 N853 N 0.95099 0.86017 0.70988
 N854 N 0.97962 0.89364 0.71279
 C855 C 0.95822 0.92728 0.73410
 C856 C 0.91478 0.91376 0.74324
 N857 N 0.91204 0.87148 0.72783
 H858 H 0.88886 0.93170 0.76128
 N859 N 0.37711 0.43579 0.19702
 N860 N 0.41267 0.46193 0.19676
 C861 C 0.44156 0.44568 0.22781
 C862 C 0.42216 0.40918 0.24797
 N863 N 0.38211 0.40437 0.22775
 H864 H 0.43487 0.38914 0.27551
   
