data_POSCAR
  _audit_creation_date              2014-09-24
  _audit_creation_method            'ToBaCCo'
  _symmetry_space_group_name_H-M    'P1'
  _symmetry_Int_Tables_number       1
  _symmetry_cell_setting            triclinic
  loop_
  _symmetry_equiv_pos_as_xyz
 x,y,z
_cell_length_a 35.2020
_cell_length_b 35.2578
_cell_length_c 35.0197
_cell_angle_alpha 89.950000
_cell_angle_beta 90.001400
_cell_angle_gamma 90.075900
loop_
  _atom_site_label
  _atom_site_type_symbol
  _atom_site_fract_x
  _atom_site_fract_y
  _atom_site_fract_z
C1 C 0.25188 1.10793 -0.05289
 C2 C 0.25464 1.11829 -0.01545
 C3 C 0.24318 1.08732 0.00608
 N4 N 0.23502 1.05778 -0.01727
 C5 C 0.24046 1.07026 -0.05347
 C6 C 0.23801 1.08701 0.04628
 C7 C 0.23233 1.05240 0.06611
 C8 C 0.21333 1.04833 0.10063
 C9 C 0.21611 1.01081 0.11092
 C10 C 0.23639 0.99289 0.08224
 N11 N 0.24557 1.01825 0.05469
 C12 C 0.24844 0.95473 0.08277
 C13 C 0.25761 0.93589 0.04853
 C14 C 0.27926 0.90327 0.04545
 C15 C 0.27720 0.89214 0.00803
 C16 C 0.25454 0.91851 -0.01054
 N17 N 0.24303 0.94556 0.01417
 C18 C 0.24287 0.91659 -0.04909
 C19 C 0.23071 0.94981 -0.06857
 C20 C 0.20866 0.95075 -0.10140
 C21 C 0.20576 0.98808 -0.11222
 C22 C 0.22496 1.00934 -0.08501
 N23 N 0.23993 0.98576 -0.05843
 C24 C 0.23105 1.04904 -0.08652
 H25 H 0.25741 1.12696 -0.07628
 H26 H 0.26417 1.14579 -0.00577
 H27 H 0.25868 0.99350 -0.03673
 H28 H 0.19837 1.06993 0.11656
 H29 H 0.20401 0.99824 0.13635
 H30 H 0.29526 0.88914 0.06764
 H31 H 0.29133 0.86775 -0.00417
 H32 H 0.19083 0.99790 -0.13727
 H33 H 0.26335 1.01327 0.03140
 H34 H 0.19533 0.92725 -0.11602
 C35 C 0.77590 0.46094 0.60445
 C36 C 0.77216 0.49822 0.61439
 C37 C 0.75410 0.51606 0.58417
 N38 N 0.74704 0.49096 0.55592
 C39 C 0.75943 0.45699 0.56876
 C40 C 0.74249 0.55434 0.58428
 C41 C 0.73073 0.57415 0.55103
 C42 C 0.71407 0.60973 0.55103
 C43 C 0.70889 0.61993 0.51363
 C44 C 0.72134 0.58987 0.49129
 N45 N 0.73505 0.56222 0.51449
 C46 C 0.71942 0.58863 0.45071
 C47 C 0.72239 0.55464 0.42926
 C48 C 0.71072 0.55079 0.39162
 C49 C 0.71740 0.51393 0.38141
 C50 C 0.73329 0.49629 0.41297
 N51 N 0.73577 0.52111 0.44233
 C52 C 0.74715 0.45861 0.41376
 C53 C 0.75862 0.44045 0.44799
 C54 C 0.78127 0.40829 0.44967
 C55 C 0.78289 0.39736 0.48717
 C56 C 0.76180 0.42343 0.50769
 N57 N 0.74756 0.45008 0.48375
 C58 C 0.75783 0.42288 0.54781
 H59 H 0.79131 0.43992 0.62072
 H60 H 0.78254 0.51092 0.64051
 H61 H 0.72821 0.47120 0.49102
 H62 H 0.70591 0.62682 0.57528
 H63 H 0.69634 0.64640 0.50480
 H64 H 0.69749 0.57193 0.37360
 H65 H 0.71054 0.50166 0.35399
 H66 H 0.79959 0.37404 0.49814
 H67 H 0.74943 0.53796 0.50603
 H68 H 0.79596 0.39440 0.42646
 C69 C 0.78082 0.89846 0.94702
 C70 C 0.78546 0.88662 0.98385
 C71 C 0.77946 0.91794 1.00723
 N72 N 0.77110 0.94841 0.98519
 C73 C 0.77201 0.93670 0.94843
 C74 C 0.77561 0.91700 1.04778
 C75 C 0.77048 0.95075 1.06990
 C76 C 0.76335 0.95233 1.10904
 C77 C 0.76338 0.98967 1.11951
 C78 C 0.77238 1.01041 1.08728
 N79 N 0.77657 0.98667 1.05720
 C80 C 0.78026 1.04975 1.08715
 C81 C 0.78478 1.07087 1.05321
 C82 C 0.80246 1.10585 1.05094
 C83 C 0.79947 1.11746 1.01371
 C84 C 0.77930 1.08946 0.99445
 N85 N 0.77081 1.06072 1.01870
 C86 C 0.76697 1.09100 0.95585
 C87 C 0.75514 1.05727 0.93701
 C88 C 0.73000 1.05538 0.90654
 C89 C 0.72832 1.01812 0.89530
 C90 C 0.75143 0.99780 0.91996
 N91 N 0.76757 1.02183 0.94546
 C92 C 0.75858 0.95840 0.91724
 H93 H 0.78192 0.87993 0.92255
 H94 H 0.79036 0.85742 0.99159
 H95 H 0.78866 1.01499 0.96520
 H96 H 0.76063 0.92977 1.12954
 H97 H 0.75880 0.99989 1.14824
 H98 H 0.81680 1.12104 1.07359
 H99 H 0.81172 1.14323 1.00235
 H100 H 0.71149 1.00737 0.87184
 H101 H 0.78771 0.99445 1.03088
 H102 H 0.71366 1.07817 0.89403
 C103 C 0.29806 0.38663 0.51416
 C104 C 0.29398 0.39807 0.55130
 C105 C 0.27656 0.43324 0.55030
 N106 N 0.27061 0.44396 0.51370
 C107 C 0.28393 0.41563 0.49138
 C108 C 0.26390 0.45370 0.58259
 C109 C 0.25133 0.49164 0.58026
 C110 C 0.22913 0.50945 0.60754
 C111 C 0.22531 0.54654 0.59622
 C112 C 0.24566 0.55057 0.56253
 N113 N 0.26105 0.51679 0.55268
 C114 C 0.25131 0.58522 0.54285
 C115 C 0.25983 0.58616 0.50326
 C116 C 0.26811 0.61845 0.48226
 C117 C 0.26957 0.60771 0.44474
 C118 C 0.26377 0.56879 0.44377
 N119 N 0.25754 0.55584 0.47965
 C120 C 0.26153 0.54628 0.41024
 C121 C 0.26399 0.50604 0.41030
 C122 C 0.26221 0.48379 0.37773
 C123 C 0.26821 0.44702 0.38888
 C124 C 0.27288 0.44717 0.42829
 N125 N 0.27133 0.48355 0.44084
 C126 C 0.28088 0.41456 0.45100
 H127 H 0.31020 0.35987 0.50558
 H128 H 0.30289 0.38203 0.57605
 H129 H 0.27792 0.49281 0.46809
 H130 H 0.21674 0.49698 0.63290
 H131 H 0.20907 0.56795 0.61110
 H132 H 0.27260 0.64705 0.49234
 H133 H 0.27459 0.62702 0.42143
 H134 H 0.27039 0.42349 0.36933
 H135 H 0.28075 0.51226 0.53098
 H136 H 0.25869 0.49301 0.34848
 C137 C 1.11206 0.27185 0.00978
 C138 C 1.10214 0.27348 0.04762
 C139 C 1.07028 0.25070 0.05196
 N140 N 1.05975 0.23620 0.01775
 C141 C 1.08558 0.24866 -0.00794
 C142 C 1.05165 0.24210 0.08678
 C143 C 1.01381 0.22841 0.08621
 C144 C 0.99669 0.20700 0.11476
 C145 C 0.95934 0.20269 0.10466
 C146 C 0.95471 0.22097 0.06995
 N147 N 0.98813 0.23608 0.05848
 C148 C 0.91969 0.22466 0.05087
 C149 C 0.91679 0.23085 0.01113
 C150 C 0.88291 0.23343 -0.00861
 C151 C 0.89189 0.23346 -0.04645
 C152 C 0.93132 0.23357 -0.04917
 N153 N 0.94634 0.23082 -0.01361
 C154 C 0.95297 0.23086 -0.08345
 C155 C 0.99237 0.22211 -0.08127
 C156 C 1.01265 0.19980 -0.10682
 C157 C 1.05022 0.20190 -0.09645
 C158 C 1.05220 0.22559 -0.06497
 N159 N 1.01671 0.23688 -0.05518
 C160 C 1.08609 0.23769 -0.04677
 H161 H 1.13542 0.28700 -0.00332
 H162 H 1.11622 0.29054 0.06902
 H163 H 1.01006 0.25696 -0.03435
 H164 H 1.00964 0.19505 0.14005
 H165 H 0.93809 0.18737 0.12087
 H166 H 0.85428 0.23303 0.00247
 H167 H 0.87082 0.22951 -0.06836
 H168 H 1.07327 0.18691 -0.11017
 H169 H 0.99224 0.25410 0.03521
 H170 H 1.00184 0.18247 -0.12982
 C171 C 0.50704 0.71574 0.61747
 C172 C 0.54467 0.71599 0.60743
 C173 C 0.54653 0.72861 0.56997
 N174 N 0.51111 0.73570 0.55673
 C175 C 0.48681 0.72743 0.58558
 C176 C 0.58048 0.73451 0.54900
 C177 C 0.58097 0.73944 0.50874
 C178 C 0.61229 0.75132 0.48791
 C179 C 0.60308 0.74780 0.44999
 C180 C 0.56582 0.73494 0.44824
 N181 N 0.55271 0.72975 0.48434
 C182 C 0.54600 0.72497 0.41427
 C183 C 0.50626 0.71866 0.41357
 C184 C 0.48587 0.70448 0.38276
 C185 C 0.44837 0.70491 0.39306
 C186 C 0.44675 0.72016 0.42945
 N187 N 0.48213 0.72857 0.44191
 C188 C 0.41298 0.72795 0.44977
 C189 C 0.41262 0.73773 0.48886
 C190 C 0.38146 0.75235 0.50787
 C191 C 0.39056 0.75319 0.54587
 C192 C 0.42759 0.73999 0.54926
 N193 N 0.44078 0.73069 0.51416
 C194 C 0.44686 0.73234 0.58398
 H195 H 0.49624 0.70789 0.64526
 H196 H 0.56778 0.70726 0.62575
 H197 H 0.46531 0.71530 0.50854
 H198 H 0.63948 0.76080 0.49869
 H199 H 0.62255 0.75338 0.42690
 H200 H 0.49634 0.69496 0.35542
 H201 H 0.42511 0.69502 0.37551
 H202 H 0.37105 0.76195 0.56776
 H203 H 0.52785 0.71571 0.49185
 H204 H 0.35440 0.76069 0.49587
 C205 C -0.05529 0.72979 -0.09331
 C206 C -0.01828 0.72969 -0.10551
 C207 C 0.00174 0.75296 -0.08076
 N208 N -0.02179 0.76710 -0.05372
 C209 C -0.05689 0.75364 -0.06188
 C210 C 0.04080 0.76206 -0.08363
 C211 C 0.06080 0.77544 -0.05120
 C212 C 0.09383 0.79692 -0.05181
 C213 C 0.10596 0.80011 -0.01471
 C214 C 0.07935 0.78161 0.00787
 N215 N 0.05164 0.76708 -0.01462
 C216 C 0.08260 0.77507 0.04757
 C217 C 0.05046 0.76669 0.07042
 C218 C 0.05118 0.75585 0.10849
 C219 C 0.01430 0.75332 0.12025
 C220 C -0.00812 0.76447 0.08968
 N221 N 0.01410 0.77222 0.05910
 C222 C -0.04802 0.76975 0.09057
 C223 C -0.06865 0.77699 0.05655
 C224 C -0.10190 0.79796 0.05440
 C225 C -0.11360 0.79704 0.01702
 C226 C -0.08731 0.77532 -0.00285
 N227 N -0.05941 0.76407 0.02136
 C228 C -0.09011 0.76433 -0.04176
 H229 H -0.07806 0.71315 -0.10556
 H230 H -0.00726 0.71330 -0.12913
 H231 H -0.03733 0.74540 0.01499
 H232 H 0.10789 0.80928 -0.07630
 H233 H 0.13157 0.81456 -0.00596
 H234 H 0.07514 0.75074 0.12690
 H235 H 0.00565 0.74427 0.14841
 H236 H -0.13827 0.81157 0.00591
 H237 H 0.03010 0.74862 -0.00599
 H238 H -0.11590 0.81313 0.07725
 C239 C 0.51803 0.23261 0.39097
 C240 C 0.55508 0.23311 0.40307
 C241 C 0.55590 0.25392 0.43666
 N242 N 0.52050 0.26561 0.44574
 C243 C 0.49728 0.25232 0.41805
 C244 C 0.58877 0.26341 0.45786
 C245 C 0.58640 0.27513 0.49644
 C246 C 0.61545 0.29205 0.51699
 C247 C 0.60397 0.29301 0.55449
 C248 C 0.56773 0.27749 0.55589
 N249 N 0.55718 0.26707 0.52022
 C250 C 0.54728 0.26780 0.58938
 C251 C 0.50764 0.26099 0.58843
 C252 C 0.48652 0.24441 0.61742
 C253 C 0.44961 0.24341 0.60506
 C254 C 0.44893 0.26064 0.56946
 N255 N 0.48450 0.27131 0.55937
 C256 C 0.41610 0.26747 0.54704
 C257 C 0.41887 0.27628 0.50776
 C258 C 0.38989 0.29111 0.48551
 C259 C 0.40158 0.28852 0.44814
 C260 C 0.43774 0.27294 0.44857
 N261 N 0.44820 0.26613 0.48510
 C262 C 0.45787 0.25937 0.41647
 H263 H 0.50771 0.21898 0.36532
 H264 H 0.57839 0.21895 0.38895
 H265 H 0.47123 0.24962 0.49351
 H266 H 0.64261 0.30189 0.50645
 H267 H 0.62123 0.30348 0.57757
 H268 H 0.49632 0.23364 0.64458
 H269 H 0.42641 0.23040 0.62046
 H270 H 0.38459 0.29635 0.42378
 H271 H 0.53388 0.25012 0.51352
 H272 H 0.36256 0.30150 0.49496
 C273 C 1.10286 -0.05031 0.20614
 C274 C 1.11377 -0.01326 0.21021
 C275 C 1.08642 0.00410 0.23270
 N276 N 1.05879 -0.02109 0.24196
 C277 C 1.06919 -0.05455 0.22624
 C278 C 1.08721 0.04224 0.24545
 C279 C 1.05291 0.06019 0.25632
 C280 C 1.04947 0.09131 0.28035
 C281 C 1.01203 0.10230 0.27922
 C282 C 0.99348 0.07693 0.25550
 N283 N 1.01834 0.05096 0.24220
 C284 C 0.95524 0.07982 0.24412
 C285 C 0.93431 0.04782 0.23203
 C286 C 0.89867 0.04862 0.21532
 C287 C 0.88709 0.01166 0.21194
 C288 C 0.91652 -0.01073 0.22566
 N289 N 0.94524 0.01157 0.23813
 C290 C 0.91572 -0.05068 0.22971
 C291 C 0.94923 -0.07195 0.23711
 C292 C 0.95042 -0.10968 0.24838
 C293 C 0.98792 -0.12013 0.24945
 C294 C 1.00903 -0.08912 0.23735
 N295 N 0.98523 -0.05972 0.23042
 C296 C 1.04888 -0.08899 0.23052
 H297 H 1.11748 -0.07136 0.18917
 H298 H 1.13831 -0.00051 0.19674
 H299 H 0.99292 -0.03419 0.21758
 H300 H 1.07142 0.10472 0.29722
 H301 H 0.99978 0.12612 0.29430
 H302 H 0.88240 0.07308 0.20649
 H303 H 0.85989 0.00292 0.20074
 H304 H 0.99801 -0.14777 0.25810
 H305 H 1.01287 0.03094 0.22096
 H306 H 0.92727 -0.12864 0.25474
 C307 C 0.44717 0.60532 0.71305
 C308 C 0.48438 0.61637 0.71668
 C309 C 0.50323 0.58672 0.73451
 N310 N 0.47885 0.55792 0.74162
 C311 C 0.44454 0.56931 0.72870
 C312 C 0.54159 0.58705 0.74637
 C313 C 0.56074 0.55295 0.75569
 C314 C 0.59394 0.55022 0.77689
 C315 C 0.60531 0.51293 0.77535
 C316 C 0.57838 0.49375 0.75390
 N317 N 0.55111 0.51819 0.74237
 C318 C 0.58076 0.45527 0.74306
 C319 C 0.54818 0.43413 0.73268
 C320 C 0.54837 0.39840 0.71629
 C321 C 0.51125 0.38684 0.71418
 C322 C 0.48928 0.41637 0.72825
 N323 N 0.51205 0.44509 0.73985
 C324 C 0.44924 0.41577 0.73269
 C325 C 0.42791 0.44916 0.74020
 C326 C 0.38973 0.45042 0.75032
 C327 C 0.37924 0.48784 0.75097
 C328 C 0.41075 0.50873 0.74014
 N329 N 0.44035 0.48503 0.73394
 C330 C 0.41068 0.54821 0.73284
 H331 H 0.42480 0.62178 0.69989
 H332 H 0.49611 0.64295 0.70669
 H333 H 0.46600 0.49258 0.72129
 H334 H 0.60862 0.57261 0.79199
 H335 H 0.63047 0.50124 0.78862
 H336 H 0.57249 0.38210 0.70659
 H337 H 0.50210 0.35965 0.70340
 H338 H 0.35112 0.49817 0.75775
 H339 H 0.52978 0.51232 0.72259
 H340 H 0.37030 0.42741 0.75562
 C341 C 0.89503 0.95755 0.79179
 C342 C 0.88475 0.99498 0.78862
 C343 C 0.91365 1.01283 0.76861
 N344 N 0.94117 0.98780 0.75961
 C345 C 0.92966 0.95395 0.77331
 C346 C 0.91366 1.05065 0.75581
 C347 C 0.94788 1.06848 0.74484
 C348 C 0.95099 1.10051 0.72203
 C349 C 0.98859 1.11104 0.72253
 C350 C 1.00738 1.08484 0.74525
 N351 N 0.98256 1.05857 0.75806
 C352 C 1.04601 1.08641 0.75576
 C353 C 1.06579 1.05262 0.76480
 C354 C 1.09915 1.05002 0.78568
 C355 C 1.10941 1.01251 0.78565
 C356 C 1.08176 0.99328 0.76508
 N357 N 1.05481 1.01778 0.75289
 C358 C 1.08181 0.95407 0.75623
 C359 C 1.04683 0.93534 0.74884
 C360 C 1.04186 0.90179 0.72862
 C361 C 1.00426 0.89163 0.73236
 C362 C 0.98703 0.91986 0.75358
 N363 N 1.01289 0.94668 0.76296
 C364 C 0.94879 0.91981 0.76558
 H365 H 0.87878 0.93565 0.80602
 H366 H 0.85911 1.00751 0.80001
 H367 H 1.00836 0.96942 0.78147
 H368 H 0.92868 1.11487 0.70651
 H369 H 1.00071 1.13504 0.70756
 H370 H 1.11404 1.07245 0.80051
 H371 H 1.13371 1.00075 0.80038
 H372 H 0.99098 0.86673 0.72015
 H373 H 0.98843 1.03767 0.77835
 H374 H 1.06271 0.88641 0.71212
 C375 C 0.38872 0.50382 0.23920
 C376 C 0.39871 0.54122 0.23472
 C377 C 0.43415 0.54559 0.25152
 N378 N 0.44644 0.51191 0.26525
 C379 C 0.41873 0.48644 0.25778
 C380 C 0.45423 0.58011 0.25599
 C381 C 0.49344 0.58029 0.26507
 C382 C 0.51368 0.61113 0.27884
 C383 C 0.55146 0.60129 0.27794
 C384 C 0.55336 0.56432 0.26445
 N385 N 0.51777 0.55170 0.25711
 C386 C 0.58684 0.54489 0.25360
 C387 C 0.58713 0.50533 0.24733
 C388 C 0.61564 0.48530 0.22897
 C389 C 0.60531 0.44783 0.23016
 C390 C 0.57145 0.44598 0.25030
 N391 N 0.56034 0.48121 0.26060
 C392 C 0.55208 0.41248 0.26106
 C393 C 0.51401 0.41363 0.27370
 C394 C 0.49593 0.38569 0.29489
 C395 C 0.45829 0.39592 0.29736
 C396 C 0.45446 0.42973 0.27747
 N397 N 0.48865 0.44061 0.26368
 C398 C 0.41983 0.44814 0.26926
 H399 H 0.36279 0.49076 0.22904
 H400 H 0.38199 0.56229 0.21991
 H401 H 0.49344 0.46259 0.24435
 H402 H 0.50267 0.63832 0.28783
 H403 H 0.57448 0.62003 0.28550
 H404 H 0.64115 0.49625 0.21576
 H405 H 0.62090 0.42489 0.21705
 H406 H 0.43627 0.38000 0.31184
 H407 H 0.51097 0.52719 0.24200
 H408 H 0.50842 0.36045 0.30718
 O409 O 0.25601 0.16625 0.17566
 O410 O 0.31258 0.15425 0.21160
 O411 O 0.16939 0.17105 0.25897
 O412 O 0.15600 0.20335 0.31144
 O413 O 0.17810 0.25682 0.17194
 O414 O 0.21689 0.31202 0.16474
 O415 O 0.27683 0.27148 0.36059
 O416 O 0.24140 0.21399 0.36781
 O417 O 0.35990 0.25774 0.28427
 O418 O 0.36605 0.23750 0.21963
 O419 O 0.28305 0.35008 0.27600
 O420 O 0.21844 0.35742 0.25024
 O421 O 0.25007 0.32365 0.33373
 O422 O 0.19116 0.33602 0.29585
 O423 O 0.33557 0.31989 0.25386
 O424 O 0.34420 0.28272 0.19179
 O425 O 0.32892 0.23168 0.33488
 O426 O 0.28673 0.17718 0.34376
 O427 O 0.23740 0.22072 0.14641
 O428 O 0.26567 0.28363 0.14444
 O429 O 0.14606 0.23561 0.22417
 O430 O 0.14363 0.26007 0.29029
 O431 O 0.22198 0.13991 0.23817
 O432 O 0.28626 0.13359 0.26055
 Zr433 Zr 0.26393 0.18213 0.23307
 O434 O 0.30093 0.21276 0.26863
 Zr435 Zr 0.18810 0.22735 0.26642
 O436 O 0.22178 0.25913 0.30473
 Zr437 Zr 0.23453 0.26086 0.19074
 O438 O 0.26933 0.29522 0.22535
 Zr439 Zr 0.27179 0.22960 0.31812
 O440 O 0.23552 0.19529 0.28441
 Zr441 Zr 0.31719 0.26398 0.24245
 O442 O 0.28422 0.23066 0.20438
 Zr443 Zr 0.24080 0.30815 0.27647
 O444 O 0.20400 0.27823 0.23940
 O445 O 0.21546 0.21127 0.21656
 O446 O 0.29013 0.27977 0.29273
 C447 C 0.24569 0.18524 0.14607
 C448 C 0.18701 0.14082 0.24858
 C449 C 0.14750 0.24701 0.18927
 C450 C 0.26660 0.30643 0.36146
 C451 C 0.35902 0.24363 0.31809
 C452 C 0.31828 0.34936 0.26674
 H453 H 0.32306 0.19650 0.27435
 H454 H 0.27645 0.31833 0.21106
 H455 H 0.19865 0.19590 0.20000
 H456 H 0.20738 0.26518 0.32818
 H457 H 0.22251 0.19474 0.35985
 H458 H 0.16730 0.21240 0.33562
 H459 H 0.33294 0.30737 0.18449
 H460 H 0.28958 0.26897 0.14282
 H461 H 0.30789 0.16610 0.32895
 H462 H 0.27264 0.13106 0.28516
 H463 H 0.23324 0.36220 0.22671
 H464 H 0.19882 0.32409 0.18266
 H465 H 0.32469 0.17194 0.19330
 H466 H 0.36586 0.21087 0.22850
 H467 H 0.14195 0.28375 0.27518
 H468 H 0.18161 0.32223 0.31852
 O469 O 0.74101 0.83035 0.16631
 O470 O 0.68222 0.84183 0.20115
 O471 O 0.82285 0.83139 0.25679
 O472 O 0.83149 0.79977 0.31229
 O473 O 0.82574 0.74560 0.17101
 O474 O 0.79028 0.68786 0.16086
 O475 O 0.71640 0.72587 0.35168
 O476 O 0.74727 0.78723 0.35836
 O477 O 0.63969 0.72582 0.27230
 O478 O 0.62957 0.75532 0.21327
 O479 O 0.71721 0.64568 0.26287
 O480 O 0.78558 0.64320 0.24434
 O481 O 0.74353 0.67360 0.32536
 O482 O 0.80530 0.66350 0.29405
 O483 O 0.66755 0.67371 0.23246
 O484 O 0.65893 0.71829 0.17572
 O485 O 0.66223 0.75983 0.32244
 O486 O 0.69691 0.81689 0.33397
 O487 O 0.76853 0.77814 0.14020
 O488 O 0.74230 0.71455 0.13566
 O489 O 0.85200 0.77044 0.22485
 O490 O 0.85150 0.74412 0.28983
 O491 O 0.77264 0.85873 0.22644
 O492 O 0.70759 0.86369 0.25091
 Zr493 Zr 0.73121 0.81556 0.22394
 O494 O 0.69328 0.78300 0.25713
 Zr495 Zr 0.80638 0.77423 0.26377
 O496 O 0.77172 0.73994 0.29889
 Zr497 Zr 0.76809 0.73826 0.18471
 O498 O 0.73230 0.70229 0.21610
 Zr499 Zr 0.71972 0.76736 0.30855
 O500 O 0.75621 0.80399 0.27749
 Zr501 Zr 0.68199 0.73129 0.22994
 O502 O 0.71579 0.76610 0.19398
 Zr503 Zr 0.75730 0.68997 0.26924
 O504 O 0.79552 0.72245 0.23573
 O505 O 0.78199 0.78849 0.21187
 O506 O 0.70609 0.71628 0.28189
 C507 C 0.75706 0.81262 0.13853
 C508 C 0.80668 0.85950 0.23982
 C509 C 0.85393 0.75906 0.18999
 C510 C 0.72685 0.69098 0.35290
 C511 C 0.63674 0.73935 0.30628
 C512 C 0.68447 0.64477 0.24660
 H513 H 0.66949 0.79723 0.26152
 H514 H 0.72781 0.67945 0.20037
 H515 H 0.79908 0.80427 0.19608
 H516 H 0.78463 0.73445 0.32334
 H517 H 0.76305 0.80919 0.35056
 H518 H 0.82101 0.78703 0.33516
 H519 H 0.67255 0.69569 0.16613
 H520 H 0.71907 0.72951 0.13058
 H521 H 0.68091 0.82967 0.31468
 H522 H 0.72143 0.86699 0.27530
 H523 H 0.77259 0.63733 0.22000
 H524 H 0.80879 0.67771 0.17953
 H525 H 0.67334 0.82562 0.17986
 H526 H 0.63460 0.78227 0.20743
 H527 H 0.85452 0.72012 0.27549
 H528 H 0.81413 0.67958 0.31541
 O529 O 0.74896 0.17490 0.82852
 O530 O 0.69003 0.16681 0.79345
 O531 O 0.83243 0.18080 0.74285
 O532 O 0.84343 0.21518 0.68948
 O533 O 0.83089 0.26303 0.83191
 O534 O 0.79310 0.31947 0.84299
 O535 O 0.73513 0.28555 0.64532
 O536 O 0.76095 0.22443 0.64008
 O537 O 0.64441 0.27035 0.72638
 O538 O 0.64388 0.24588 0.79441
 O539 O 0.72193 0.36290 0.73677
 O540 O 0.78739 0.36863 0.76116
 O541 O 0.75508 0.33838 0.67654
 O542 O 0.81341 0.34959 0.71428
 O543 O 0.66991 0.33187 0.75905
 O544 O 0.65901 0.29639 0.81548
 O545 O 0.67478 0.25283 0.67192
 O546 O 0.71025 0.19549 0.66032
 O547 O 0.76895 0.22793 0.85955
 O548 O 0.74579 0.29128 0.86534
 O549 O 0.85956 0.24114 0.77813
 O550 O 0.86140 0.26980 0.71546
 O551 O 0.77950 0.15004 0.76366
 O552 O 0.71558 0.14586 0.74411
 Zr553 Zr 0.73958 0.19330 0.77204
 O554 O 0.70282 0.22582 0.73800
 Zr555 Zr 0.81553 0.23784 0.73789
 O556 O 0.78192 0.27261 0.70259
 Zr557 Zr 0.77319 0.26945 0.81637
 O558 O 0.73726 0.30540 0.78453
 Zr559 Zr 0.73133 0.24439 0.68862
 O560 O 0.76683 0.20765 0.72038
 Zr561 Zr 0.68840 0.27580 0.76704
 O562 O 0.72205 0.24122 0.80324
 Zr563 Zr 0.76411 0.32071 0.73322
 O564 O 0.80191 0.28819 0.76720
 O565 O 0.78948 0.22039 0.78810
 O566 O 0.71405 0.29379 0.71639
 C567 C 0.75953 0.19267 0.85878
 C568 C 0.81421 0.15064 0.75256
 C569 C 0.86021 0.25138 0.81326
 C570 C 0.74493 0.32063 0.64617
 C571 C 0.64478 0.26113 0.69090
 C572 C 0.68693 0.36186 0.74714
 H573 H 0.68017 0.21036 0.73205
 H574 H 0.73074 0.32787 0.80003
 H575 H 0.80611 0.20383 0.80362
 H576 H 0.79657 0.27938 0.67950
 H577 H 0.77750 0.20344 0.64881
 H578 H 0.83364 0.22854 0.66668
 H579 H 0.67650 0.31333 0.82951
 H580 H 0.72030 0.27940 0.86612
 H581 H 0.68973 0.18432 0.67600
 H582 H 0.72554 0.14621 0.71767
 H583 H 0.77349 0.37213 0.78543
 H584 H 0.81139 0.33125 0.82506
 H585 H 0.68036 0.18310 0.81430
 H586 H 0.63763 0.22357 0.77847
 H587 H 0.86291 0.29351 0.73050
 H588 H 0.82403 0.33523 0.69251
 O589 O 0.25141 0.83076 0.82543
 O590 O 0.30700 0.83952 0.78818
 O591 O 0.16270 0.82544 0.74379
 O592 O 0.14960 0.79209 0.69094
 O593 O 0.16745 0.74356 0.83282
 O594 O 0.20369 0.68789 0.84336
 O595 O 0.25687 0.72048 0.64265
 O596 O 0.23466 0.78169 0.63689
 O597 O 0.34856 0.72685 0.72135
 O598 O 0.35517 0.75596 0.78582
 O599 O 0.27104 0.64279 0.73133
 O600 O 0.20649 0.63711 0.75909
 O601 O 0.23704 0.66762 0.67409
 O602 O 0.17821 0.65848 0.71367
 O603 O 0.32333 0.67169 0.75571
 O604 O 0.33368 0.71082 0.81463
 O605 O 0.31931 0.75002 0.66839
 O606 O 0.28393 0.81100 0.65905
 O607 O 0.23048 0.77860 0.85743
 O608 O 0.25378 0.71401 0.86212
 O609 O 0.13671 0.76376 0.77949
 O610 O 0.13342 0.73713 0.71506
 O611 O 0.21648 0.85588 0.76274
 O612 O 0.28049 0.85863 0.73831
 Zr613 Zr 0.25705 0.81237 0.76874
 O614 O 0.29298 0.77876 0.73468
 Zr615 Zr 0.17951 0.76858 0.73768
 O616 O 0.21192 0.73402 0.70106
 Zr617 Zr 0.22410 0.73668 0.81485
 O618 O 0.25764 0.69947 0.78192
 Zr619 Zr 0.26300 0.76122 0.68599
 O620 O 0.22802 0.79811 0.71822
 Zr621 Zr 0.30649 0.72833 0.76365
 O622 O 0.27489 0.76440 0.79988
 Zr623 Zr 0.22919 0.68530 0.73105
 O624 O 0.19339 0.71820 0.76668
 O625 O 0.20743 0.78586 0.78687
 O626 O 0.27921 0.71149 0.71360
 C627 C 0.24126 0.81348 0.85609
 C628 C 0.18122 0.85548 0.75316
 C629 C 0.13731 0.75374 0.81478
 C630 C 0.24692 0.68544 0.64363
 C631 C 0.34821 0.73600 0.68594
 C632 C 0.30607 0.64285 0.74153
 H633 H 0.31607 0.79323 0.72800
 H634 H 0.26402 0.67674 0.79714
 H635 H 0.19150 0.80242 0.80311
 H636 H 0.19662 0.72780 0.67823
 H637 H 0.21687 0.80159 0.64567
 H638 H 0.16071 0.78129 0.66742
 H639 H 0.32030 0.68804 0.82425
 H640 H 0.27864 0.72714 0.86303
 H641 H 0.30798 0.81853 0.67152
 H642 H 0.26769 0.85914 0.71315
 H643 H 0.22174 0.63257 0.78236
 H644 H 0.18734 0.67435 0.82483
 H645 H 0.32014 0.82104 0.80486
 H646 H 0.36104 0.77784 0.76914
 H647 H 0.13115 0.71373 0.73054
 H648 H 0.16896 0.67160 0.69049
 O649 O 0.26567 0.35683 0.72126
 O650 O 0.24256 0.35990 0.78574
 O651 O 0.35508 0.27567 0.72796
 O652 O 0.36144 0.21626 0.75185
 O653 O 0.27435 0.26692 0.63884
 O654 O 0.21019 0.24487 0.63498
 O655 O 0.25153 0.17119 0.82596
 O656 O 0.31075 0.20337 0.83416
 O657 O 0.16767 0.25345 0.82419
 O658 O 0.15793 0.31305 0.78860
 O659 O 0.17028 0.17071 0.73988
 O660 O 0.20807 0.16090 0.68089
 O661 O 0.22510 0.14420 0.77337
 O662 O 0.25432 0.13932 0.70793
 O663 O 0.14129 0.22293 0.76407
 O664 O 0.13803 0.28973 0.74025
 O665 O 0.22051 0.23075 0.85361
 O666 O 0.28462 0.25393 0.85938
 O667 O 0.24185 0.32874 0.66789
 O668 O 0.18411 0.29305 0.65815
 O669 O 0.32728 0.24450 0.66850
 O670 O 0.33324 0.18429 0.70368
 O671 O 0.32727 0.32784 0.75395
 O672 O 0.29098 0.33703 0.81200
 Zr673 Zr 0.26973 0.31232 0.76132
 O674 O 0.23450 0.27950 0.79700
 Zr675 Zr 0.31097 0.23568 0.72549
 O676 O 0.27808 0.19936 0.76016
 Zr677 Zr 0.23424 0.27154 0.68334
 O678 O 0.19789 0.23668 0.71567
 Zr679 Zr 0.26153 0.22795 0.80995
 O680 O 0.29887 0.26276 0.77777
 Zr681 Zr 0.18494 0.26370 0.76751
 O682 O 0.21801 0.30066 0.73324
 Zr683 Zr 0.22690 0.18716 0.73185
 O684 O 0.26174 0.21992 0.69526
 O685 O 0.28448 0.28612 0.71050
 O686 O 0.21103 0.21299 0.78288
 C687 C 0.25438 0.35772 0.68632
 C688 C 0.35587 0.31023 0.73944
 C689 C 0.30934 0.25652 0.63894
 C690 C 0.23583 0.14327 0.80835
 C691 C 0.18548 0.24100 0.85369
 C692 C 0.14116 0.18822 0.75298
 H693 H 0.22850 0.29417 0.82025
 H694 H 0.17488 0.23101 0.70053
 H695 H 0.30057 0.30253 0.69424
 H696 H 0.29249 0.17615 0.76648
 H697 H 0.33267 0.21852 0.82508
 H698 H 0.35445 0.19526 0.76925
 H699 H 0.13206 0.27487 0.71707
 H700 H 0.17344 0.31163 0.67640
 H701 H 0.27276 0.27916 0.86224
 H702 H 0.30985 0.31903 0.82252
 H703 H 0.18629 0.17567 0.67106
 H704 H 0.22184 0.21938 0.63338
 H705 H 0.21698 0.36119 0.77407
 H706 H 0.17336 0.32293 0.81000
 H707 H 0.31583 0.17574 0.68321
 H708 H 0.27548 0.13205 0.72501
 O709 O 0.73235 0.64742 0.72486
 O710 O 0.75620 0.64280 0.78934
 O711 O 0.63833 0.72504 0.74193
 O712 O 0.62967 0.78551 0.75734
 O713 O 0.71873 0.73759 0.64682
 O714 O 0.78085 0.76608 0.64348
 O715 O 0.73330 0.82912 0.83628
 O716 O 0.67832 0.78919 0.84379
 O717 O 0.82522 0.75062 0.83216
 O718 O 0.83667 0.69223 0.79419
 O719 O 0.81990 0.83625 0.75276
 O720 O 0.78397 0.84866 0.69521
 O721 O 0.75771 0.86062 0.78521
 O722 O 0.73431 0.86437 0.71802
 O723 O 0.85050 0.78352 0.77366
 O724 O 0.85665 0.71910 0.74778
 O725 O 0.77199 0.77095 0.86245
 O726 O 0.71279 0.74462 0.86985
 O727 O 0.75546 0.67862 0.67296
 O728 O 0.81069 0.71837 0.66441
 O729 O 0.66500 0.75774 0.67647
 O730 O 0.65704 0.81715 0.71437
 O731 O 0.67001 0.67132 0.75845
 O732 O 0.70599 0.66120 0.81585
 Zr733 Zr 0.72630 0.68968 0.76675
 O734 O 0.75958 0.72248 0.80413
 Zr735 Zr 0.68140 0.76583 0.73399
 O736 O 0.71267 0.80190 0.77026
 Zr737 Zr 0.75945 0.73544 0.69074
 O738 O 0.79416 0.77041 0.72476
 Zr739 Zr 0.73044 0.77218 0.81908
 O740 O 0.69498 0.73712 0.78522
 Zr741 Zr 0.80823 0.74174 0.77538
 O742 O 0.77725 0.70492 0.73923
 Zr743 Zr 0.76350 0.81818 0.74308
 O744 O 0.72999 0.78539 0.70484
 O745 O 0.70979 0.71719 0.71707
 O746 O 0.78037 0.79100 0.79317
 C747 C 0.74396 0.64847 0.69009
 C748 C 0.63948 0.68955 0.75032
 C749 C 0.68334 0.74648 0.64676
 C750 C 0.74424 0.85949 0.81929
 C751 C 0.80734 0.76185 0.86203
 C752 C 0.84976 0.81867 0.76441
 H753 H 0.76618 0.70729 0.82690
 H754 H 0.81701 0.77759 0.71002
 H755 H 0.69398 0.70055 0.70078
 H756 H 0.69649 0.82382 0.77691
 H757 H 0.65876 0.77069 0.83555
 H758 H 0.63597 0.79842 0.78158
 H759 H 0.86128 0.73423 0.72443
 H760 H 0.82245 0.69940 0.68158
 H761 H 0.71744 0.71722 0.86651
 H762 H 0.68544 0.67710 0.82660
 H763 H 0.80256 0.83234 0.68192
 H764 H 0.76682 0.79039 0.64273
 H765 H 0.78145 0.64279 0.77690
 H766 H 0.82268 0.68192 0.81639
 H767 H 0.67259 0.82591 0.69251
 H768 H 0.71076 0.86849 0.73284
 O769 O 0.26291 0.63856 0.26960
 O770 O 0.24190 0.63674 0.20407
 O771 O 0.35792 0.71783 0.25775
 O772 O 0.36664 0.77844 0.24361
 O773 O 0.27561 0.72706 0.35151
 O774 O 0.21269 0.75411 0.35419
 O775 O 0.26051 0.82485 0.16464
 O776 O 0.31789 0.78948 0.15723
 O777 O 0.17334 0.74466 0.16404
 O778 O 0.16112 0.68479 0.20087
 O779 O 0.17626 0.82820 0.24639
 O780 O 0.21178 0.83591 0.30836
 O781 O 0.23850 0.85402 0.21808
 O782 O 0.25906 0.85675 0.28418
 O783 O 0.14628 0.77606 0.22300
 O784 O 0.13918 0.71087 0.24658
 O785 O 0.22569 0.77174 0.13761
 O786 O 0.28877 0.73959 0.13181
 O787 O 0.24083 0.66834 0.32277
 O788 O 0.18472 0.70604 0.33148
 O789 O 0.32968 0.74842 0.32323
 O790 O 0.33850 0.80871 0.28811
 O791 O 0.32678 0.66463 0.23839
 O792 O 0.29257 0.65708 0.17986
 Zr793 Zr 0.27064 0.68289 0.22962
 O794 O 0.23786 0.71696 0.19270
 Zr795 Zr 0.31459 0.75817 0.26592
 O796 O 0.28364 0.79557 0.23087
 Zr797 Zr 0.23594 0.72542 0.30666
 O798 O 0.20132 0.76108 0.27334
 Zr799 Zr 0.26695 0.76773 0.18066
 O800 O 0.30195 0.73151 0.21362
 Zr801 Zr 0.18856 0.73427 0.22128
 O802 O 0.21915 0.69656 0.25677
 Zr803 Zr 0.23218 0.80981 0.25794
 O804 O 0.26550 0.77601 0.29514
 O805 O 0.28617 0.70863 0.28055
 O806 O 0.21653 0.78436 0.20673
 C807 C 0.25123 0.63864 0.30441
 C808 C 0.35702 0.68266 0.24809
 C809 C 0.31086 0.73645 0.35231
 C810 C 0.24939 0.85431 0.18310
 C811 C 0.19084 0.76124 0.13645
 C812 C 0.14682 0.81103 0.23303
 H813 H 0.23169 0.70267 0.16927
 H814 H 0.17808 0.76745 0.28778
 H815 H 0.30169 0.69151 0.29662
 H816 H 0.29941 0.81810 0.22516
 H817 H 0.33865 0.77263 0.16596
 H818 H 0.36048 0.79511 0.22176
 H819 H 0.13451 0.72456 0.27076
 H820 H 0.17319 0.68823 0.31295
 H821 H 0.27054 0.71971 0.12395
 H822 H 0.30923 0.67617 0.16760
 H823 H 0.18827 0.82264 0.31621
 H824 H 0.22615 0.77871 0.35599
 H825 H 0.21628 0.63590 0.21570
 H826 H 0.17496 0.67596 0.17797
 H827 H 0.32209 0.81692 0.30952
 H828 H 0.28437 0.85969 0.27226
 O829 O 0.74365 0.35634 0.27969
 O830 O 0.76355 0.35854 0.21552
 O831 O 0.64871 0.27503 0.26714
 O832 O 0.64129 0.21444 0.25325
 O833 O 0.72896 0.26518 0.36357
 O834 O 0.79285 0.24367 0.36808
 O835 O 0.75166 0.17085 0.17590
 O836 O 0.69292 0.20339 0.16822
 O837 O 0.83704 0.24878 0.17931
 O838 O 0.84660 0.31093 0.21522
 O839 O 0.83237 0.16823 0.26455
 O840 O 0.79359 0.15777 0.32155
 O841 O 0.77734 0.14315 0.22849
 O842 O 0.74602 0.13864 0.29468
 O843 O 0.86243 0.21982 0.23997
 O844 O 0.86803 0.28527 0.26211
 O845 O 0.78420 0.22540 0.15038
 O846 O 0.72037 0.25526 0.14400
 O847 O 0.76146 0.32740 0.33491
 O848 O 0.81932 0.29156 0.34504
 O849 O 0.67531 0.24602 0.33300
 O850 O 0.66973 0.18439 0.29829
 O851 O 0.67964 0.32875 0.24884
 O852 O 0.71553 0.33583 0.18983
 Zr853 Zr 0.73628 0.31141 0.24088
 O854 O 0.77099 0.27792 0.20543
 Zr855 Zr 0.69253 0.23566 0.27651
 O856 O 0.72489 0.19864 0.24225
 Zr857 Zr 0.76929 0.27023 0.31942
 O858 O 0.80527 0.23461 0.28755
 Zr859 Zr 0.74244 0.22710 0.19276
 O860 O 0.70588 0.26252 0.22446
 Zr861 Zr 0.81964 0.26117 0.23568
 O862 O 0.78721 0.29874 0.26967
 Zr863 Zr 0.77561 0.18545 0.27106
 O864 O 0.74111 0.21900 0.30728
 O865 O 0.71962 0.28585 0.29167
 O866 O 0.79228 0.21120 0.22042
 C867 C 0.75271 0.35693 0.31521
 C868 C 0.64941 0.31028 0.25787
 C869 C 0.69359 0.25619 0.36305
 C870 C 0.76729 0.14279 0.19317
 C871 C 0.81952 0.23416 0.15060
 C872 C 0.86194 0.18524 0.25150
 H873 H 0.77775 0.29224 0.18215
 H874 H 0.82795 0.22855 0.30302
 H875 H 0.70345 0.30267 0.30738
 H876 H 0.71006 0.17572 0.23573
 H877 H 0.67134 0.21940 0.17647
 H878 H 0.64821 0.19746 0.23190
 H879 H 0.87091 0.27309 0.28739
 H880 H 0.83020 0.31021 0.32692
 H881 H 0.73755 0.27647 0.13735
 H882 H 0.69668 0.31780 0.17929
 H883 H 0.81413 0.17325 0.33292
 H884 H 0.78135 0.21808 0.36948
 H885 H 0.79014 0.35807 0.22467
 H886 H 0.83517 0.31754 0.19028
 H887 H 0.68585 0.17673 0.32013
 H888 H 0.72696 0.13002 0.27581
 N889 N 0.22951 0.18128 0.07872
 N890 N 0.22668 0.15549 0.05143
 C891 C 0.23698 0.12178 0.06661
 C892 C 0.24632 0.12807 0.10454
 N893 N 0.24143 0.16538 0.11074
 H894 H 0.25651 0.10785 0.12543
 N895 N 0.72536 0.58276 0.68087
 N896 N 0.72384 0.55729 0.65317
 C897 C 0.73991 0.57330 0.62207
 C898 C 0.75179 0.60933 0.63177
 N899 N 0.74199 0.61414 0.66855
 H900 H 0.76524 0.63032 0.61366
 N901 N 0.79534 0.82546 0.08257
 N902 N 0.80199 0.85376 0.05863
 C903 C 0.77635 0.88122 0.06621
 C904 C 0.75314 0.86808 0.09532
 N905 N 0.76617 0.83361 0.10486
 H906 H 0.72866 0.88164 0.10804
 N907 N 0.27259 0.42425 0.68023
 N908 N 0.27592 0.45039 0.65319
 C909 C 0.26297 0.43471 0.62052
 C910 C 0.25101 0.39830 0.62860
 N911 N 0.25775 0.39279 0.66596
 H912 H 0.23972 0.37741 0.60897
 N913 N 0.76190 0.18732 0.92809
 N914 N 0.76376 0.16067 0.95469
 C915 C 0.76481 0.12667 0.93684
 C916 C 0.76353 0.13387 0.89783
 N917 N 0.76153 0.17175 0.89379
 H918 H 0.76565 0.11393 0.87446
 N919 N 0.21962 0.58092 0.32378
 N920 N 0.22069 0.55686 0.35282
 C921 C 0.25219 0.56501 0.37325
 C922 C 0.27075 0.59457 0.35521
 N923 N 0.24959 0.60354 0.32454
 H924 H 0.29628 0.60924 0.36409
 N925 N 0.23609 0.82019 0.92521
 N926 N 0.23668 0.84737 0.95130
 C927 C 0.24184 0.88068 0.93277
 C928 C 0.24494 0.87263 0.89421
 N929 N 0.24103 0.83484 0.89080
 H930 H 0.25038 0.89204 0.87088
 N931 N 0.76242 0.42529 0.31790
 N932 N 0.76173 0.45303 0.34342
 C933 C 0.75100 0.43749 0.37703
 C934 C 0.74517 0.39916 0.37111
 N935 N 0.75282 0.39278 0.33414
 H936 H 0.73618 0.37794 0.39157
 N937 N 0.07867 0.24971 0.18350
 N938 N 0.05240 0.24875 0.15648
 C939 C 0.07043 0.24612 0.12245
 C940 C 0.10912 0.24580 0.12989
 N941 N 0.11285 0.24803 0.16804
 H942 H 0.13234 0.24155 0.11012
 N943 N 0.67588 0.72116 0.58270
 N944 N 0.64913 0.71668 0.55649
 C945 C 0.61763 0.73417 0.56958
 C946 C 0.62621 0.74981 0.60483
 N947 N 0.66270 0.74093 0.61193
 H948 H 0.60758 0.76533 0.62379
 N949 N 0.06845 0.75959 0.81969
 N950 N 0.04185 0.76169 0.84639
 C951 C 0.05942 0.75888 0.88061
 C952 C 0.09792 0.75419 0.87363
 N953 N 0.10227 0.75511 0.83552
 H954 H 0.12066 0.75022 0.89404
 N955 N 0.68659 0.24913 0.43196
 N956 N 0.65916 0.25017 0.45788
 C957 C 0.62690 0.26024 0.43956
 C958 C 0.63568 0.26558 0.40153
 N959 N 0.67284 0.25806 0.39799
 H960 H 0.61699 0.27398 0.37848
 N961 N 0.92106 0.77562 0.18626
 N962 N 0.94794 0.77930 0.16004
 C963 C 0.93251 0.76968 0.12602
 C964 C 0.89501 0.75983 0.13256
 N965 N 0.88920 0.76366 0.17029
 H966 H 0.87404 0.75035 0.11204
 N967 N 0.31857 0.24776 0.57053
 N968 N 0.34675 0.24975 0.54547
 C969 C 0.37751 0.26333 0.56419
 C970 C 0.36695 0.26997 0.60151
 N971 N 0.33041 0.25953 0.60431
 H972 H 0.38411 0.28089 0.62469
 N973 N 0.92477 0.22793 0.81960
 N974 N 0.94979 0.22123 0.84700
 C975 C 0.93543 0.23495 0.88000
 C976 C 0.90134 0.25271 0.87074
 N977 N 0.89526 0.24652 0.83345
 H978 H 0.88297 0.26972 0.88851
 N979 N 0.31783 0.71216 0.41702
 N980 N 0.34463 0.70858 0.44334
 C981 C 0.37599 0.72587 0.42950
 C982 C 0.36744 0.74052 0.39405
 N983 N 0.33105 0.73124 0.38729
 H984 H 0.38604 0.75575 0.37474
 N985 N 0.18287 0.07202 0.24824
 N986 N 0.15677 0.04498 0.24763
 C987 C 0.12237 0.06199 0.24720
 C988 C 0.12867 0.10091 0.24764
 N989 N 0.16654 0.10575 0.24837
 H990 H 0.10818 0.12364 0.24541
 N991 N 0.57108 0.68394 0.75909
 N992 N 0.54448 0.65732 0.75897
 C993 C 0.56163 0.62422 0.75005
 C994 C 0.59985 0.63162 0.74469
 N995 N 0.60448 0.66897 0.75075
 H996 H 0.62210 0.61205 0.73657
 N997 N 0.81740 0.08216 0.74537
 N998 N 0.84313 0.05479 0.74580
 C999 C 0.87706 0.07136 0.75265
 C1000 C 0.87121 0.10990 0.75637
 N1001 N 0.83386 0.11535 0.75137
 H1002 H 0.89176 0.13180 0.76302
 N1003 N 0.42484 0.67588 0.23639
 N1004 N 0.45117 0.64908 0.23745
 C1005 C 0.43436 0.61714 0.25062
 C1006 C 0.39664 0.62550 0.25768
 N1007 N 0.39194 0.66211 0.24822
 H1008 H 0.37474 0.60715 0.26911
 N1009 N 0.17743 0.92442 0.75087
 N1010 N 0.15128 0.95138 0.75143
 C1011 C 0.11695 0.93433 0.75454
 C1012 C 0.12338 0.89552 0.75602
 N1013 N 0.16116 0.89072 0.75338
 H1014 H 0.10319 0.87284 0.76066
 N1015 N 0.58076 0.31532 0.25045
 N1016 N 0.55418 0.34192 0.25076
 C1017 C 0.57163 0.37511 0.25894
 C1018 C 0.60983 0.36778 0.26393
 N1019 N 0.61431 0.33048 0.25797
 H1020 H 0.63226 0.38739 0.27157
 N1021 N 0.82669 0.91060 0.19844
 N1022 N 0.85616 0.93349 0.19381
 C1023 C 0.87865 0.92935 0.22473
 C1024 C 0.86150 0.90319 0.24878
 N1025 N 0.82935 0.89212 0.23123
 H1026 H 0.87149 0.89269 0.27602
 N1027 N 0.40813 0.32902 0.69901
 N1028 N 0.43233 0.35755 0.69543
 C1029 C 0.42893 0.37912 0.72704
 C1030 C 0.40191 0.36244 0.75038
 N1031 N 0.38952 0.33154 0.73171
 H1032 H 0.39151 0.37211 0.77777
 N1033 N 0.18148 0.23444 0.92280
 N1034 N 0.15551 0.23390 0.95016
 C1035 C 0.12116 0.23751 0.93327
 C1036 C 0.12730 0.24064 0.89423
 N1037 N 0.16513 0.23854 0.88906
 H1038 H 0.10657 0.24505 0.87184
 N1039 N 0.58933 0.69402 0.32696
 N1040 N 0.56641 0.68836 0.35641
 C1041 C 0.56743 0.72011 0.37790
 C1042 C 0.59155 0.74565 0.36023
 N1043 N 0.60465 0.72825 0.32870
 H1044 H 0.59951 0.77380 0.36963
 N1045 N 0.81295 0.76441 0.93149
 N1046 N 0.83995 0.76461 0.95788
 C1047 C 0.87387 0.76430 0.93969
 C1048 C 0.86627 0.76415 0.90079
 N1049 N 0.82827 0.76400 0.89704
 H1050 H 0.88609 0.76552 0.87722
 N1051 N 0.40765 0.20530 0.34704
 N1052 N 0.43378 0.20840 0.37399
 C1053 C 0.43621 0.24550 0.38300
 C1054 C 0.41087 0.26518 0.36024
 N1055 N 0.39387 0.23903 0.33815
 H1056 H 0.40362 0.29499 0.36130
 N1057 N 0.17177 0.80490 0.08678
 N1058 N 0.14248 0.81032 0.06369
 C1059 C 0.12052 0.77900 0.06591
 C1060 C 0.13777 0.75394 0.09080
 N1061 N 0.16929 0.77130 0.10345
 H1062 H 0.12772 0.72642 0.10011
 N1063 N 0.59225 0.22342 0.66923
 N1064 N 0.56702 0.22363 0.64126
 C1065 C 0.56851 0.25822 0.62483
 C1066 C 0.59557 0.27939 0.64413
 N1067 N 0.60942 0.25668 0.67167
 H1068 H 0.60530 0.30789 0.63821
 N1069 N 0.82859 0.20195 0.09017
 N1070 N 0.85473 0.19786 0.06335
 C1071 C 0.88445 0.21977 0.07360
 C1072 C 0.87589 0.23712 0.10787
 N1073 N 0.84072 0.22546 0.11699
 H1074 H 0.89333 0.25647 0.12429
 N1075 N 0.40000 0.69518 0.66674
 N1076 N 0.42610 0.69298 0.63962
 C1077 C 0.42420 0.72542 0.61922
 C1078 C 0.39600 0.74778 0.63508
 N1079 N 0.38151 0.72771 0.66425
 H1080 H 0.38682 0.77582 0.62661
 N1081 N 0.19390 0.09281 0.82896
 N1082 N 0.19112 0.06807 0.85730
 C1083 C 0.22413 0.06942 0.87685
 C1084 C 0.24743 0.09569 0.85912
 N1085 N 0.22740 0.10982 0.82977
 H1086 H 0.27574 0.10458 0.86723
 N1087 N 0.69041 0.67817 0.41067
 N1088 N 0.68678 0.65116 0.43680
 C1089 C 0.71323 0.62458 0.42901
 C1090 C 0.73307 0.63621 0.39701
 N1091 N 0.71808 0.66967 0.38658
 H1092 H 0.75582 0.62149 0.38245
 N1093 N 0.79734 0.08138 0.18305
 N1094 N 0.80252 0.05652 0.15516
 C1095 C 0.78353 0.06975 0.12441
 C1096 C 0.76650 0.10351 0.13441
 N1097 N 0.77559 0.10962 0.17119
 H1098 H 0.74923 0.12183 0.11667
 N1099 N 0.23233 0.67997 0.57607
 N1100 N 0.23218 0.65396 0.54881
 C1101 C 0.24604 0.62163 0.56411
 C1102 C 0.25441 0.62883 0.60210
 N1103 N 0.24550 0.66537 0.60823
 H1104 H 0.26619 0.60963 0.62312
 N1105 N 0.70450 0.90635 0.84929
 N1106 N 0.70721 0.93291 0.87581
 C1107 C 0.74450 0.93774 0.88309
 C1108 C 0.76468 0.91331 0.85970
 N1109 N 0.73862 0.89434 0.83913
 H1110 H 0.79479 0.90713 0.86051
 N1111 N 0.30922 0.32441 0.41274
 N1112 N 0.31500 0.35362 0.43583
 C1113 C 0.28505 0.37711 0.43167
 C1114 C 0.26050 0.36097 0.40549
 N1115 N 0.27669 0.32836 0.39425
 H1116 H 0.23420 0.37253 0.39448
 N1117 N 0.25590 0.92304 0.18011
 N1118 N 0.25648 0.95039 0.15413
 C1119 C 0.25031 0.93394 0.11985
 C1120 C 0.24580 0.89542 0.12587
 N1121 N 0.24974 0.88989 0.16357
 H1122 H 0.23958 0.87351 0.10515
 N1123 N 0.75073 0.32490 0.57699
 N1124 N 0.75579 0.35126 0.55049
 C1125 C 0.75547 0.38540 0.56810
 C1126 C 0.74834 0.37867 0.60648
 N1127 N 0.74634 0.34089 0.61080
 H1128 H 0.74382 0.39878 0.62928
 N1129 N 0.07269 0.18242 0.76212
 N1130 N 0.04643 0.15547 0.76277
 C1131 C 0.06434 0.12204 0.75689
 C1132 C 0.10253 0.12967 0.75210
 N1133 N 0.10646 0.16738 0.75564
 H1134 H 0.12524 0.11008 0.74544
 N1135 N 0.66194 0.59425 0.20672
 N1136 N 0.63483 0.56826 0.20711
 C1137 C 0.62105 0.56704 0.24299
 C1138 C 0.64105 0.59297 0.26480
 N1139 N 0.66641 0.60908 0.24110
 H1140 H 0.63611 0.60116 0.29416
 N1141 N 0.07995 0.81701 0.21674
 N1142 N 0.05297 0.84312 0.21575
 C1143 C 0.06867 0.87613 0.22739
 C1144 C 0.10659 0.86904 0.23566
 N1145 N 0.11228 0.83200 0.22872
 H1146 H 0.12770 0.88848 0.24676
 N1147 N 0.67815 0.42837 0.72999
 N1148 N 0.65054 0.45387 0.72844
 C1149 C 0.61893 0.43709 0.74236
 C1150 C 0.62831 0.40055 0.75304
 N1151 N 0.66529 0.39615 0.74451
 H1152 H 0.60990 0.37897 0.76499
 N1153 N 0.92861 0.17732 0.23459
 N1154 N 0.95412 0.14983 0.23206
 C1155 C 0.93722 0.11785 0.24485
 C1156 C 0.90071 0.12680 0.25591
 N1157 N 0.89640 0.16398 0.24874
 H1158 H 0.87902 0.10795 0.26696
 N1159 N 0.31537 0.57966 0.71520
 N1160 N 0.34276 0.55418 0.71147
 C1161 C 0.37354 0.56808 0.72975
 C1162 C 0.36401 0.60290 0.74498
 N1163 N 0.32758 0.60902 0.73530
 H1164 H 0.38188 0.62204 0.76119
 N1165 N 0.91664 0.82468 0.78081
 N1166 N 0.94374 0.85076 0.78155
 C1167 C 0.92819 0.88318 0.76839
 C1168 C 0.89068 0.87600 0.75919
 N1169 N 0.88461 0.83933 0.76761
 H1170 H 0.86984 0.89542 0.74762
 N1171 N 0.32507 0.41519 0.28619
 N1172 N 0.35128 0.44214 0.28751
 C1173 C 0.38349 0.42709 0.27319
 C1174 C 0.37610 0.38997 0.26286
 N1175 N 0.33941 0.38373 0.27150
 H1176 H 0.39533 0.36966 0.25012
   
