data_POSCAR
  _audit_creation_date              2014-09-24
  _audit_creation_method            'ToBaCCo'
  _symmetry_space_group_name_H-M    'P1'
  _symmetry_Int_Tables_number       1
  _symmetry_cell_setting            triclinic
  loop_
  _symmetry_equiv_pos_as_xyz
 x,y,z
_cell_length_a 45.8624
_cell_length_b 45.3595
_cell_length_c 17.4256
_cell_angle_alpha 89.152300
_cell_angle_beta 90.680500
_cell_angle_gamma 120.514900
loop_
  _atom_site_label
  _atom_site_type_symbol
  _atom_site_fract_x
  _atom_site_fract_y
  _atom_site_fract_z
C1 C 0.13613 0.43456 0.53339
 C2 C 0.13730 0.43629 0.45488
 C3 C 0.17111 0.45699 0.43498
 N4 N 0.19066 0.46740 0.49875
 C5 C 0.16923 0.45392 0.55886
 C6 C 0.18307 0.46877 0.35963
 C7 C 0.21729 0.48004 0.33946
 C8 C 0.23388 0.49883 0.27426
 C9 C 0.26602 0.50364 0.27608
 C10 C 0.26901 0.48903 0.34393
 N11 N 0.23905 0.47428 0.38162
 C12 C 0.29854 0.48876 0.36868
 C13 C 0.30379 0.48232 0.44592
 C14 C 0.33125 0.48001 0.47221
 C15 C 0.33017 0.47957 0.55053
 C16 C 0.30207 0.48166 0.57049
 N17 N 0.28608 0.48343 0.50625
 C18 C 0.29489 0.48769 0.64569
 C19 C 0.26523 0.48837 0.66340
 C20 C 0.25926 0.50011 0.73133
 C21 C 0.22643 0.49306 0.72832
 C22 C 0.21291 0.47637 0.65975
 N23 N 0.23666 0.47368 0.62055
 C24 C 0.17897 0.46228 0.63615
 H25 H 0.11350 0.42105 0.56786
 H26 H 0.11566 0.42410 0.41668
 H27 H 0.23229 0.45898 0.57177
 H28 H 0.22439 0.50885 0.23020
 H29 H 0.28504 0.51704 0.23261
 H30 H 0.35128 0.48037 0.43946
 H31 H 0.34926 0.47973 0.58775
 H32 H 0.21397 0.49916 0.77238
 H33 H 0.23303 0.45894 0.43071
 H34 H 0.27622 0.51184 0.77938
 C35 C 0.59391 -0.10212 0.54136
 C36 C 0.59352 -0.10118 0.46267
 C37 C 0.58121 -0.13444 0.43897
 N38 N 0.57414 -0.15568 0.50000
 C39 C 0.58121 -0.13609 0.56285
 C40 C 0.57175 -0.14607 0.36348
 C41 C 0.56626 -0.17835 0.34235
 C42 C 0.54535 -0.19820 0.28336
 C43 C 0.54792 -0.22708 0.28132
 C44 C 0.57116 -0.22356 0.33773
 N45 N 0.58150 -0.19412 0.37594
 C46 C 0.58269 -0.24674 0.35387
 C47 C 0.59265 -0.24924 0.43014
 C48 C 0.61066 -0.26498 0.45306
 C49 C 0.60923 -0.26714 0.53172
 C50 C 0.59132 -0.25179 0.55432
 N51 N 0.58155 -0.24050 0.49253
 C52 C 0.58041 -0.25200 0.62954
 C53 C 0.57022 -0.22871 0.65127
 C54 C 0.54896 -0.23325 0.71178
 C55 C 0.54654 -0.20428 0.71450
 C56 C 0.56683 -0.18253 0.65621
 N57 N 0.58077 -0.19792 0.61732
 C58 C 0.57172 -0.14968 0.63808
 H59 H 0.60166 -0.08043 0.57851
 H60 H 0.60063 -0.07882 0.42700
 H61 H 0.59851 -0.18700 0.57331
 H62 H 0.52919 -0.19292 0.24708
 H63 H 0.53352 -0.24854 0.24367
 H64 H 0.62313 -0.27446 0.41715
 H65 H 0.61985 -0.27891 0.56814
 H66 H 0.53066 -0.20040 0.75354
 H67 H 0.60009 -0.18398 0.41872
 H68 H 0.53579 -0.25548 0.74887
 C69 C 1.30704 0.85204 0.51658
 C70 C 1.30513 0.85366 0.43809
 C71 C 1.27824 0.82235 0.41449
 N72 N 1.26397 0.80185 0.47648
 C73 C 1.28139 0.81979 0.53895
 C74 C 1.27113 0.81035 0.33780
 C75 C 1.24204 0.77833 0.31944
 C76 C 1.23666 0.76029 0.25188
 C77 C 1.20452 0.73231 0.25517
 C78 C 1.19023 0.73465 0.32272
 N79 N 1.21343 0.76245 0.36201
 C80 C 1.15598 0.71322 0.34511
 C81 C 1.14676 0.71129 0.42296
 C82 C 1.11420 0.69869 0.44972
 C83 C 1.11603 0.69775 0.52839
 C84 C 1.14964 0.70937 0.54717
 N85 N 1.16842 0.71814 0.48252
 C86 C 1.16264 0.70945 0.62170
 C87 C 1.19806 0.72941 0.63514
 C88 C 1.21611 0.72337 0.69143
 C89 C 1.24858 0.75076 0.69021
 C90 C 1.25015 0.77205 0.63037
 N91 N 1.21926 0.75862 0.59675
 C92 C 1.27797 0.80486 0.61272
 H93 H 1.32656 0.87165 0.55207
 H94 H 1.32301 0.87489 0.40299
 H95 H 1.21198 0.77077 0.55605
 H96 H 1.25352 0.76644 0.20387
 H97 H 1.19315 0.71279 0.21180
 H98 H 1.09151 0.69105 0.41613
 H99 H 1.09493 0.68951 0.56703
 H100 H 1.26830 0.75420 0.72985
 H101 H 1.20862 0.77217 0.41102
 H102 H 1.20700 0.70166 0.73019
 C103 C 0.65799 0.48852 0.48446
 C104 C 0.65503 0.48890 0.56262
 C105 C 0.68665 0.49874 0.59383
 N106 N 0.70869 0.50403 0.53677
 C107 C 0.69123 0.49783 0.47001
 C108 C 0.69524 0.50316 0.67346
 C109 C 0.71433 0.48869 0.70500
 C110 C 0.71664 0.48150 0.78218
 C111 C 0.73679 0.46725 0.78692
 C112 C 0.74500 0.46416 0.71259
 N113 N 0.73016 0.47594 0.66327
 C114 C 0.76411 0.44875 0.69289
 C115 C 0.77097 0.44469 0.61596
 C116 C 0.78344 0.42417 0.59110
 C117 C 0.79359 0.43351 0.51672
 C118 C 0.78723 0.45946 0.49850
 N119 N 0.77347 0.46618 0.55880
 C120 C 0.79702 0.47896 0.43016
 C121 C 0.77828 0.49387 0.40136
 C122 C 0.78543 0.51413 0.33573
 C123 C 0.75874 0.51984 0.32484
 C124 C 0.73681 0.50396 0.38553
 N125 N 0.74860 0.48803 0.43101
 C126 C 0.70547 0.50201 0.39621
 H127 H 0.63771 0.48134 0.44322
 H128 H 0.63166 0.48110 0.59261
 H129 H 0.73466 0.47086 0.47466
 H130 H 0.70314 0.48317 0.83064
 H131 H 0.74293 0.45816 0.83895
 H132 H 0.78566 0.40470 0.62228
 H133 H 0.80478 0.42275 0.48047
 H134 H 0.75593 0.53424 0.27820
 H135 H 0.72989 0.47414 0.60424
 H136 H 0.80709 0.52338 0.29848
 C137 C 0.51218 0.18127 0.46046
 C138 C 0.50759 0.17709 0.53820
 C139 C 0.48999 0.19320 0.55866
 N140 N 0.48396 0.20736 0.49645
 C141 C 0.49734 0.19989 0.43639
 C142 C 0.47713 0.19208 0.63262
 C143 C 0.47455 0.22014 0.65941
 C144 C 0.46010 0.22120 0.72811
 C145 C 0.46334 0.25306 0.73185
 C146 C 0.47899 0.27043 0.66467
 N147 N 0.48594 0.25037 0.62122
 C148 C 0.48623 0.30395 0.64484
 C149 C 0.48923 0.31546 0.56726
 C150 C 0.50191 0.34929 0.54437
 C151 C 0.49956 0.34955 0.46595
 C152 C 0.48596 0.31602 0.44279
 N153 N 0.47963 0.29513 0.50477
 C154 C 0.47948 0.30513 0.36547
 C155 C 0.47473 0.27313 0.34358
 C156 C 0.46212 0.25753 0.27324
 C157 C 0.46709 0.23007 0.27027
 C158 C 0.48192 0.22942 0.33942
 N159 N 0.48630 0.25550 0.38383
 C160 C 0.49290 0.20652 0.35942
 H161 H 0.52447 0.17126 0.42550
 H162 H 0.51581 0.16338 0.57550
 H163 H 0.50057 0.26337 0.43422
 H164 H 0.44797 0.20115 0.77088
 H165 H 0.45417 0.26203 0.77770
 H166 H 0.51257 0.37175 0.58009
 H167 H 0.50799 0.37211 0.43015
 H168 H 0.46077 0.21275 0.22266
 H169 H 0.49990 0.25815 0.57072
 H170 H 0.45142 0.26569 0.22782
 C171 C 0.65830 0.15301 0.49917
 C172 C 0.66177 0.14884 0.42281
 C173 C 0.69605 0.16245 0.41010
 N174 N 0.71367 0.17483 0.47628
 C175 C 0.69056 0.16884 0.53104
 C176 C 0.71051 0.16241 0.33888
 C177 C 0.74540 0.18454 0.32410
 C178 C 0.76283 0.18222 0.26222
 C179 C 0.79454 0.21117 0.26302
 C180 C 0.79566 0.23022 0.32569
 N181 N 0.76578 0.21361 0.36305
 C182 C 0.82205 0.26390 0.34168
 C183 C 0.82612 0.27890 0.41473
 C184 C 0.84762 0.31321 0.43162
 C185 C 0.84461 0.31669 0.50878
 C186 C 0.82108 0.28454 0.53628
 N187 N 0.80997 0.26143 0.47902
 C188 C 0.81080 0.27651 0.61341
 C189 C 0.78233 0.24517 0.63505
 C190 C 0.77645 0.23123 0.70837
 C191 C 0.74458 0.20278 0.70750
 C192 C 0.73162 0.20067 0.63400
 N193 N 0.75514 0.22622 0.58971
 C194 C 0.69830 0.17676 0.60984
 H195 H 0.63470 0.14586 0.52743
 H196 H 0.64137 0.13779 0.38121
 H197 H 0.75125 0.23284 0.53460
 H198 H 0.75335 0.16231 0.21954
 H199 H 0.81421 0.21795 0.22102
 H200 H 0.86352 0.33387 0.39268
 H201 H 0.85777 0.34028 0.54063
 H202 H 0.73231 0.18581 0.75582
 H203 H 0.75812 0.22400 0.40570
 H204 H 0.79331 0.24075 0.75744
 O205 O 0.94504 0.48387 -0.14668
 O206 O 0.99805 0.53123 0.11579
 O207 O 0.93932 0.48984 0.08974
 O208 O 1.05255 0.54739 -0.07841
 O209 O 0.95900 0.47858 0.19234
 O210 O 1.00550 0.53324 -0.14452
 O211 O 1.04810 0.54855 0.06794
 O212 O 0.93722 0.49929 -0.04041
 C213 C 0.93044 0.49528 -0.10869
 C214 C 1.02857 0.55413 0.10832
 C215 C 0.93477 0.48150 0.16004
 C216 C 1.03642 0.55383 -0.13036
 O217 O 1.02566 0.49104 -0.15882
 O218 O 0.97829 0.44273 0.11570
 O219 O 0.92414 0.43296 -0.07135
 O220 O 1.04524 0.48627 0.07312
 O221 O 1.02451 0.49802 0.16650
 O222 O 0.96813 0.44170 -0.13536
 O223 O 1.05101 0.48661 -0.06024
 O224 O 0.93045 0.42679 0.06350
 Co225 Co 0.98620 0.48732 -0.13254
 Co226 Co 0.98642 0.48620 0.10971
 Co227 Co 0.93740 0.46418 0.00850
 Co228 Co 1.04440 0.51511 0.00068
 O229 O 0.99076 0.48814 -0.00754
 C230 C 1.04730 0.48555 -0.13058
 C231 C 0.94900 0.41949 0.10213
 C232 C 0.93806 0.42246 -0.11709
 C233 C 1.04584 0.49130 0.14289
 O234 O 0.48504 0.46255 -0.08894
 O235 O 0.48578 0.52650 0.16126
 O236 O 0.50017 0.45704 0.04830
 O237 O 0.45876 0.53744 -0.07560
 O238 O 0.50150 0.48211 0.15181
 O239 O 0.45362 0.48905 -0.09395
 O240 O 0.45507 0.53020 0.06710
 O241 O 0.53271 0.46830 -0.07189
 C242 C 0.50452 0.45187 -0.10275
 C243 C 0.45838 0.52391 0.13592
 C244 C 0.49265 0.45511 0.11688
 C245 C 0.44110 0.50740 -0.09685
 O246 O 0.50819 0.54882 -0.15136
 O247 O 0.56566 0.53068 0.10888
 O248 O 0.57321 0.53090 -0.03730
 O249 O 0.51356 0.58476 0.08068
 O250 O 0.55089 0.57314 0.12082
 O251 O 0.54183 0.52165 -0.13905
 O252 O 0.52109 0.58709 -0.06278
 O253 O 0.56376 0.48566 0.06221
 Co254 Co 0.49826 0.50678 -0.10916
 Co255 Co 0.52441 0.52726 0.12446
 Co256 Co 0.53578 0.49555 0.00845
 Co257 Co 0.48938 0.55616 0.00241
 O258 O 0.51020 0.52175 0.00431
 C259 C 0.52189 0.57986 -0.13127
 C260 C 0.57498 0.50876 0.11500
 C261 C 0.57086 0.53392 -0.10866
 C262 C 0.53961 0.59266 0.11867
 O263 O 0.52224 0.02117 -0.16099
 O264 O 0.47901 -0.03901 0.14906
 O265 O 0.55130 0.04426 0.03485
 O266 O 0.50129 -0.05589 -0.07100
 O267 O 0.52432 0.02122 0.13799
 O268 O 0.48223 -0.04131 -0.16745
 O269 O 0.50352 -0.04854 0.06106
 O270 O 0.53782 0.06503 -0.08590
 C271 C 0.54237 0.05177 -0.14442
 C272 C 0.49820 -0.04927 0.13004
 C273 C 0.55193 0.03701 0.10328
 C274 C 0.49933 -0.05348 -0.14133
 O275 O 0.43161 -0.03333 -0.13762
 O276 O 0.47759 0.03816 0.10012
 O277 O 0.48044 0.05367 -0.03150
 O278 O 0.43430 -0.06990 0.06119
 O279 O 0.43412 -0.02404 0.09623
 O280 O 0.47186 0.03186 -0.14430
 O281 O 0.43417 -0.07500 -0.07772
 O282 O 0.52619 0.08213 0.06088
 Co283 Co 0.47767 -0.00528 -0.13920
 Co284 Co 0.47954 -0.00124 0.10865
 Co285 Co 0.51372 0.04504 0.00251
 Co286 Co 0.46955 -0.05810 -0.00604
 O287 O 0.48523 -0.00639 -0.01466
 C288 C 0.41830 -0.06432 -0.11933
 C289 C 0.50099 0.06932 0.11024
 C290 C 0.47189 0.05319 -0.09959
 C291 C 0.41896 -0.05588 0.08894
 C292 C 1.11563 0.48322 0.28953
 C293 C 1.11459 0.47662 0.21109
 N294 N 1.13619 0.46740 0.18227
 C295 C 1.15901 0.46473 0.22832
 C296 C 1.16049 0.47167 0.30746
 N297 N 1.13831 0.48059 0.33526
 N298 N 1.09387 0.49204 0.31900
 C299 C 1.07100 0.49462 0.27332
 C300 C 1.06983 0.48810 0.19441
 N301 N 1.09179 0.47923 0.16522
 H302 H 1.17478 0.45594 0.20375
 H303 H 1.05405 0.50183 0.29832
 C304 C 0.57080 0.67418 0.27088
 C305 C 0.56757 0.67919 0.19245
 N306 N 0.57305 0.71004 0.16735
 C307 C 0.58023 0.73559 0.21760
 C308 C 0.58021 0.72959 0.29761
 N309 N 0.57628 0.69898 0.32095
 N310 N 0.56719 0.64415 0.29628
 C311 C 0.55959 0.61842 0.24671
 C312 C 0.55404 0.62244 0.16879
 N313 N 0.55838 0.65292 0.14313
 H314 H 0.58580 0.76021 0.19489
 H315 H 0.55606 0.59443 0.26878
 C316 C 0.33043 -0.11786 0.21677
 C317 C 0.34785 -0.13184 0.18109
 N318 N 0.33879 -0.16486 0.19556
 C319 C 0.31311 -0.18463 0.24444
 C320 C 0.29549 -0.17083 0.28090
 N321 N 0.30486 -0.13754 0.26603
 N322 N 0.34053 -0.08436 0.20463
 C323 C 0.36776 -0.06400 0.15967
 C324 C 0.38590 -0.07774 0.12571
 N325 N 0.37509 -0.11153 0.13684
 H326 H 0.30764 -0.21035 0.25753
 H327 H 0.37584 -0.03717 0.15283
 C328 C 0.85389 0.48171 0.27470
 C329 C 0.88140 0.48426 0.31690
 N330 N 0.88201 0.48759 0.39417
 C331 C 0.85610 0.48770 0.43109
 C332 C 0.82743 0.48302 0.38943
 N333 N 0.82742 0.48055 0.31174
 N334 N 0.85410 0.48057 0.19723
 C335 C 0.88021 0.48123 0.15995
 C336 C 0.90702 0.48183 0.20179
 N337 N 0.90715 0.48373 0.27979
 H338 H 0.85749 0.49064 0.49278
 H339 H 0.87985 0.48136 0.09804
 C340 C 0.46737 0.37098 0.26202
 C341 C 0.48631 0.37645 0.19516
 N342 N 0.50197 0.35831 0.18425
 C343 C 0.49973 0.33501 0.23727
 C344 C 0.48061 0.32915 0.30441
 N345 N 0.46478 0.34739 0.31479
 N346 N 0.45383 0.39097 0.27546
 C347 C 0.45907 0.41672 0.22601
 C348 C 0.47850 0.42261 0.15961
 N349 N 0.49133 0.40196 0.14566
 H350 H 0.51343 0.32176 0.22794
 H351 H 0.44957 0.43341 0.24023
 C352 C 0.63853 0.08705 0.24369
 C353 C 0.63748 0.10078 0.17174
 N354 N 0.66196 0.13317 0.15308
 C355 C 0.68701 0.15282 0.20376
 C356 C 0.68754 0.13966 0.27711
 N357 N 0.66340 0.10673 0.29450
 N358 N 0.61305 0.05540 0.26414
 C359 C 0.58599 0.03725 0.21692
 C360 C 0.58414 0.05147 0.14605
 N361 N 0.61035 0.08276 0.12478
 H362 H 0.70530 0.17902 0.18839
 H363 H 0.56540 0.01269 0.23602
 C364 C 0.46859 0.13568 -0.20436
 C365 C 0.45583 0.10429 -0.24195
 N366 N 0.44694 0.10182 -0.31683
 C367 C 0.45157 0.12964 -0.35713
 C368 C 0.46694 0.16210 -0.32196
 N369 N 0.47399 0.16392 -0.24512
 N370 N 0.47778 0.13788 -0.12926
 C371 C 0.47596 0.11052 -0.09113
 C372 C 0.46532 0.07974 -0.13052
 N373 N 0.45495 0.07741 -0.20473
 H374 H 0.44409 0.12656 -0.41700
 H375 H 0.48484 0.11349 -0.03233
 C376 C 0.64037 0.53506 -0.26093
 C377 C 0.64924 0.54139 -0.18330
 N378 N 0.67748 0.54175 -0.15800
 C379 C 0.69522 0.53294 -0.20533
 C380 C 0.68231 0.51967 -0.27925
 N381 N 0.65667 0.52403 -0.30608
 N382 N 0.61361 0.53691 -0.28838
 C383 C 0.59386 0.54245 -0.24039
 C384 C 0.59973 0.54388 -0.16046
 N385 N 0.62825 0.54469 -0.13399
 H386 H 0.71922 0.53681 -0.18506
 H387 H 0.57174 0.54216 -0.26378
 C388 C 0.88168 0.33874 -0.26313
 C389 C 0.86531 0.35089 -0.21654
 N390 N 0.83152 0.33801 -0.22496
 C391 C 0.81341 0.31371 -0.27825
 C392 C 0.82985 0.30200 -0.32605
 N393 N 0.86369 0.31476 -0.31694
 N394 N 0.91552 0.35194 -0.25554
 C395 C 0.93394 0.37735 -0.20483
 C396 C 0.91788 0.39053 -0.16002
 N397 N 0.88375 0.37660 -0.16649
 H398 H 0.78653 0.30403 -0.28436
 H399 H 0.96105 0.38803 -0.20162
 C400 C 0.53776 -0.09786 -0.29037
 C401 C 0.54109 -0.09982 -0.21078
 N402 N 0.55577 -0.11717 -0.18190
 C403 C 0.56674 -0.13319 -0.22911
 C404 C 0.56258 -0.13216 -0.30939
 N405 N 0.54842 -0.11398 -0.33712
 N406 N 0.52325 -0.08053 -0.31988
 C407 C 0.51144 -0.06530 -0.27312
 C408 C 0.51403 -0.06773 -0.19306
 N409 N 0.52909 -0.08480 -0.16375
 H410 H 0.57907 -0.14604 -0.20415
 H411 H 0.49972 -0.05186 -0.29829
 C412 C 0.35312 0.47822 -0.22728
 C413 C 0.37153 0.51105 -0.19572
 N414 N 0.36305 0.53491 -0.21408
 C415 C 0.33715 0.52755 -0.26345
 C416 C 0.31906 0.49487 -0.29651
 N417 N 0.32756 0.47099 -0.27723
 N418 N 0.36221 0.45466 -0.21058
 C419 C 0.38943 0.46270 -0.16497
 C420 C 0.40865 0.49597 -0.13559
 N421 N 0.39891 0.51920 -0.15105
 H422 H 0.33170 0.54743 -0.27932
 H423 H 0.39664 0.44370 -0.15406
 C424 C 1.09197 0.63356 -0.28890
 C425 C 1.10077 0.63845 -0.21084
 N426 N 1.12793 0.66844 -0.18833
 C427 C 1.14743 0.69308 -0.24067
 C428 C 1.14059 0.68698 -0.32020
 N429 N 1.11219 0.65744 -0.34110
 N430 N 1.06401 0.60448 -0.31185
 C431 C 1.04475 0.57960 -0.26034
 C432 C 1.05448 0.58337 -0.18250
 N433 N 1.08232 0.61294 -0.15925
 H434 H 1.16807 0.71712 -0.22002
 H435 H 1.02297 0.55632 -0.28079
 C436 C 0.83904 0.48408 -0.18952
 C437 C 0.84347 0.45582 -0.18139
 N438 N 0.81826 0.42431 -0.20232
 C439 C 0.78949 0.42012 -0.23563
 C440 C 0.78648 0.44895 -0.25143
 N441 N 0.81086 0.48004 -0.22495
 N442 N 0.86424 0.51560 -0.16801
 C443 C 0.89409 0.52019 -0.14017
 C444 C 0.89911 0.49221 -0.13646
 N445 N 0.87347 0.46059 -0.15583
 H446 H 0.76993 0.39483 -0.25304
 H447 H 0.91393 0.54543 -0.12324
 C448 C 0.47962 0.36974 -0.25153
 C449 C 0.50243 0.37667 -0.19068
 N450 N 0.51709 0.35728 -0.18149
 C451 C 0.51060 0.33183 -0.23155
 C452 C 0.48966 0.32653 -0.29606
 N453 N 0.47436 0.34551 -0.30335
 N454 N 0.46366 0.38789 -0.25899
 C455 C 0.47007 0.41329 -0.20929
 C456 C 0.49460 0.42193 -0.15131
 N457 N 0.51002 0.40309 -0.14285
 H458 H 0.52335 0.31741 -0.22377
 H459 H 0.45690 0.42727 -0.21669
 C460 C 0.62343 0.10751 -0.29734
 C461 C 0.62048 0.12333 -0.23168
 N462 N 0.64357 0.15676 -0.21899
 C463 C 0.66947 0.17498 -0.26888
 C464 C 0.67241 0.15913 -0.33526
 N465 N 0.64897 0.12566 -0.34708
 N466 N 0.60062 0.07425 -0.31088
 C467 C 0.57473 0.05594 -0.26184
 C468 C 0.57123 0.07161 -0.19609
 N469 N 0.59436 0.10511 -0.18242
 H470 H 0.68680 0.20184 -0.25810
 H471 H 0.55691 0.02939 -0.27468
 C472 C 1.11281 0.47656 -0.28367
 C473 C 1.10947 0.46400 -0.20814
 N474 N 1.12769 0.44931 -0.18554
 C475 C 1.14942 0.44716 -0.23472
 C476 C 1.15366 0.46100 -0.30944
 N477 N 1.13488 0.47506 -0.33182
 N478 N 1.09439 0.49065 -0.30757
 C479 C 1.07281 0.49303 -0.25927
 C480 C 1.06979 0.48128 -0.18286
 N481 N 1.08827 0.46693 -0.15886
 H482 H 1.16369 0.43538 -0.21543
 H483 H 1.05866 0.50473 -0.28010
 C484 C 0.55376 0.66086 -0.29254
 C485 C 0.56147 0.66746 -0.21433
 N486 N 0.57724 0.70021 -0.18916
 C487 C 0.58497 0.72669 -0.23845
 C488 C 0.57580 0.72014 -0.31639
 N489 N 0.56082 0.68723 -0.34156
 N490 N 0.53809 0.62806 -0.31761
 C491 C 0.52914 0.60146 -0.26769
 C492 C 0.53550 0.60787 -0.18873
 N493 N 0.55189 0.64091 -0.16434
 H494 H 0.59741 0.75253 -0.21675
 H495 H 0.51604 0.57555 -0.28910
 C496 C 0.33286 -0.12779 -0.25425
 C497 C 0.35388 -0.13975 -0.22636
 N498 N 0.34907 -0.17010 -0.25147
 C499 C 0.32417 -0.18908 -0.30305
 C500 C 0.30306 -0.17714 -0.33132
 N501 N 0.30825 -0.14653 -0.30622
 N502 N 0.33817 -0.09703 -0.23111
 C503 C 0.36411 -0.07722 -0.18276
 C504 C 0.38601 -0.08848 -0.15664
 N505 N 0.38008 -0.11979 -0.17857
 H506 H 0.32174 -0.21259 -0.32396
 H507 H 0.36838 -0.05231 -0.16716
 C508 C 0.53354 -0.09621 0.28661
 C509 C 0.54279 -0.09213 0.20904
 N510 N 0.56224 -0.10461 0.18353
 C511 C 0.57257 -0.12137 0.23199
 C512 C 0.56269 -0.12624 0.30944
 N513 N 0.54354 -0.11322 0.33473
 N514 N 0.51410 -0.08375 0.31223
 C515 C 0.50310 -0.06771 0.26353
 C516 C 0.51165 -0.06424 0.18538
 N517 N 0.53154 -0.07641 0.16020
 H518 H 0.58805 -0.13109 0.21024
 H519 H 0.48735 -0.05832 0.28537
 C520 C 0.36858 0.48901 0.26174
 C521 C 0.38705 0.52299 0.23535
 N522 N 0.37547 0.54462 0.24937
 C523 C 0.34638 0.53390 0.28921
 C524 C 0.32743 0.49972 0.31490
 N525 N 0.33914 0.47809 0.30011
 N526 N 0.38097 0.46781 0.25073
 C527 C 0.41090 0.47902 0.21402
 C528 C 0.42909 0.51280 0.18621
 N529 N 0.41649 0.53392 0.19699
 H530 H 0.33857 0.55209 0.30258
 H531 H 0.41974 0.46141 0.20387
 C532 C 1.08319 0.63376 0.26350
 C533 C 1.08621 0.64106 0.18453
 N534 N 1.10913 0.67312 0.15983
 C535 C 1.13006 0.69769 0.21029
 C536 C 1.12978 0.68931 0.28877
 N537 N 1.10545 0.65756 0.31310
 N538 N 1.05907 0.60246 0.28912
 C539 C 1.03854 0.57768 0.23911
 C540 C 1.04340 0.58381 0.15963
 N541 N 1.06713 0.61562 0.13400
 H542 H 1.14748 0.72316 0.18883
 H543 H 1.02040 0.55254 0.26118
 C544 C 0.48279 0.13121 0.25684
 C545 C 0.50831 0.14628 0.20117
 N546 N 0.52695 0.18095 0.19491
 C547 C 0.52151 0.20117 0.24266
 C548 C 0.49664 0.18597 0.29973
 N549 N 0.47777 0.15131 0.30495
 N550 N 0.46389 0.09671 0.26318
 C551 C 0.46940 0.07640 0.21653
 C552 C 0.49532 0.09123 0.16161
 N553 N 0.51417 0.12597 0.15496
 H554 H 0.53710 0.22873 0.23793
 H555 H 0.45367 0.04893 0.22256
 C556 C 0.65090 0.52221 0.27430
 C557 C 0.64022 0.49721 0.21724
 N558 N 0.65356 0.47647 0.21560
 C559 C 0.67649 0.47909 0.26951
 C560 C 0.68604 0.50310 0.32866
 N561 N 0.67320 0.52435 0.32887
 N562 N 0.63765 0.54294 0.27638
 C563 C 0.61381 0.53957 0.22460
 C564 C 0.60215 0.51385 0.16879
 N565 N 0.61593 0.49340 0.16607
 H566 H 0.68591 0.46153 0.26847
 H567 H 0.60374 0.55652 0.22786
 C568 C 0.89773 0.32974 0.23469
 C569 C 0.88232 0.33510 0.17024
 N570 N 0.84855 0.31469 0.15882
 C571 C 0.82912 0.28982 0.21039
 C572 C 0.84398 0.28553 0.27748
 N573 N 0.87821 0.30523 0.28711
 N574 N 0.93133 0.35133 0.24755
 C575 C 0.94989 0.37884 0.20057
 C576 C 0.93388 0.38551 0.13902
 N577 N 0.90061 0.36286 0.12470
 H578 H 0.80202 0.27493 0.20141
 H579 H 0.97617 0.39657 0.21443
   
