data_POSCAR
  _audit_creation_date              2014-09-24
  _audit_creation_method            'ToBaCCo'
  _symmetry_space_group_name_H-M    'P1'
  _symmetry_Int_Tables_number       1
  _symmetry_cell_setting            triclinic
  loop_
  _symmetry_equiv_pos_as_xyz
 x,y,z
_cell_length_a 49.6344
_cell_length_b 49.6392
_cell_length_c 49.6521
_cell_angle_alpha 87.550100
_cell_angle_beta 87.662800
_cell_angle_gamma 87.669800
loop_
  _atom_site_label
  _atom_site_type_symbol
  _atom_site_fract_x
  _atom_site_fract_y
  _atom_site_fract_z
C1 C 0.79313 0.64208 1.00581
 C2 C 0.79946 0.62224 0.98343
 C3 C 0.77819 0.60710 0.97795
 C4 C 0.75259 0.61294 0.99556
 C5 C 0.76823 0.65887 0.99652
 C6 C 0.74704 0.64345 0.99118
 C7 C 0.78297 0.62483 1.03013
 C8 C 0.76172 0.60967 1.02479
 H9 H 0.81805 0.62225 0.97108
 H10 H 0.73537 0.60035 0.99128
 H11 H 0.76774 0.68069 0.99354
 H12 H 0.79047 0.62615 1.05028
 C13 C 0.79109 0.36307 0.47787
 C14 C 0.79639 0.38078 0.50143
 C15 C 0.77448 0.39632 0.50941
 C16 C 0.74924 0.39287 0.49312
 C17 C 0.76665 0.34668 0.48732
 C18 C 0.74477 0.36237 0.49526
 C19 C 0.78067 0.38261 0.45559
 C20 C 0.75877 0.39815 0.46358
 H21 H 0.81550 0.38053 0.51138
 H22 H 0.73145 0.40565 0.49964
 H23 H 0.76661 0.32478 0.48761
 H24 H 0.78876 0.38287 0.43491
 C25 C 0.29095 -0.13602 -0.02251
 C26 C 0.29639 -0.11966 0.00018
 C27 C 0.27353 -0.10316 0.00871
 C28 C 0.24961 -0.10611 -0.00700
 C29 C 0.26763 -0.15166 -0.01383
 C30 C 0.24479 -0.13502 -0.00528
 C31 C 0.28146 -0.11710 -0.04365
 C32 C 0.25861 -0.10058 -0.03505
 H33 H 0.31543 -0.12045 0.01035
 H34 H 0.23194 -0.09315 -0.00032
 H35 H 0.26736 -0.17356 -0.01378
 H36 H 0.28908 -0.11715 -0.06451
 C37 C 0.29279 0.13805 0.50694
 C38 C 0.29881 0.11817 0.48453
 C39 C 0.27731 0.10333 0.47907
 C40 C 0.25182 0.10948 0.49674
 C41 C 0.26808 0.15516 0.49770
 C42 C 0.24666 0.14004 0.49238
 C43 C 0.28246 0.12091 0.53126
 C44 C 0.26100 0.10604 0.52594
 H45 H 0.31736 0.11800 0.47211
 H46 H 0.23441 0.09713 0.49249
 H47 H 0.26793 0.17696 0.49457
 H48 H 0.29008 0.12205 0.55138
 C49 C 0.13889 0.50825 0.29243
 C50 C 0.11881 0.48599 0.29857
 C51 C 0.10401 0.48047 0.27708
 C52 C 0.11038 0.49796 0.25147
 C53 C 0.15603 0.49876 0.26787
 C54 C 0.14093 0.49339 0.24646
 C55 C 0.12199 0.53261 0.28185
 C56 C 0.10715 0.52725 0.26039
 H57 H 0.11853 0.47364 0.31718
 H58 H 0.09805 0.49366 0.23407
 H59 H 0.17781 0.49552 0.26781
 H60 H 0.12329 0.55278 0.28927
 C61 C -0.13557 -0.02389 0.29121
 C62 C -0.11875 0.00045 0.29650
 C63 C -0.10322 0.00875 0.27464
 C64 C -0.10587 -0.00806 0.24958
 C65 C -0.15206 -0.01498 0.26660
 C66 C -0.13637 -0.00668 0.24477
 C67 C -0.11637 -0.04457 0.28174
 C68 C -0.10009 -0.03586 0.25887
 H69 H -0.11948 0.01052 0.31554
 H70 H -0.09310 -0.00121 0.23186
 H71 H -0.17394 -0.01510 0.26647
 H72 H -0.11609 -0.06538 0.28953
 C73 C 0.36272 0.47666 0.79101
 C74 C 0.38037 0.50029 0.79634
 C75 C 0.39588 0.50843 0.77445
 C76 C 0.39247 0.49222 0.74918
 C77 C 0.34630 0.48614 0.76659
 C78 C 0.36197 0.49424 0.74473
 C79 C 0.38231 0.45450 0.78054
 C80 C 0.39782 0.46265 0.75864
 H81 H 0.38001 0.51023 0.81544
 H82 H 0.40524 0.49887 0.73141
 H83 H 0.32441 0.48638 0.76658
 H84 H 0.38262 0.43378 0.78858
 C85 C 0.63950 1.00723 0.79252
 C86 C 0.62011 0.98427 0.79864
 C87 C 0.60500 0.97887 0.77729
 C88 C 0.61052 0.99712 0.75195
 C89 C 0.65648 0.99840 0.76754
 C90 C 0.64111 0.99309 0.74627
 C91 C 0.62281 1.03017 0.78326
 C92 C 0.60694 1.02463 0.76096
 H93 H 0.62031 0.97169 0.81709
 H94 H 0.59797 0.99280 0.73469
 H95 H 0.67829 0.99540 0.76715
 H96 H 0.62429 1.05037 0.79059
 C97 C -0.02199 0.29092 -0.13871
 C98 C 0.00160 0.29615 -0.12096
 C99 C 0.00952 0.27423 -0.10536
 C100 C -0.00682 0.24903 -0.10879
 C101 C -0.01258 0.26645 -0.15503
 C102 C -0.00469 0.24455 -0.13927
 C103 C -0.04431 0.28054 -0.11919
 C104 C -0.03635 0.25862 -0.10359
 H105 H 0.01157 0.31525 -0.12120
 H106 H -0.00034 0.23123 -0.09596
 H107 H -0.01230 0.26640 -0.17691
 H108 H -0.06497 0.28870 -0.11895
 C109 C 0.50695 0.29190 0.14028
 C110 C 0.48465 0.29813 0.12027
 C111 C 0.47912 0.27673 0.10536
 C112 C 0.49663 0.25113 0.11157
 C113 C 0.49749 0.26719 0.15730
 C114 C 0.49211 0.24588 0.14210
 C115 C 0.53128 0.28150 0.12328
 C116 C 0.52590 0.26014 0.10834
 H117 H 0.47230 0.31673 0.12009
 H118 H 0.49232 0.23380 0.09917
 H119 H 0.49429 0.26697 0.17908
 H120 H 0.55145 0.28898 0.12457
 C121 C 1.00659 0.79331 0.63919
 C122 C 0.98506 0.79952 0.62056
 C123 C 0.97937 0.77722 0.60453
 C124 C 0.99645 0.75307 0.61011
 C125 C 0.99814 0.76959 0.65534
 C126 C 0.99258 0.74732 0.63911
 C127 C 1.02979 0.78413 0.62262
 C128 C 1.02419 0.76188 0.60658
 H129 H 0.97212 0.81774 0.62118
 H130 H 0.99220 0.73587 0.59742
 H131 H 0.99492 0.76913 0.67714
 H132 H 1.05006 0.79130 0.62431
 C133 C 0.47755 0.79037 0.36355
 C134 C 0.50119 0.79567 0.38119
 C135 C 0.50924 0.77377 0.39676
 C136 C 0.49291 0.74853 0.39342
 C137 C 0.48692 0.76592 0.34722
 C138 C 0.49493 0.74405 0.36294
 C139 C 0.45533 0.77996 0.38316
 C140 C 0.46338 0.75806 0.39873
 H141 H 0.51118 0.81477 0.38083
 H142 H 0.49948 0.73074 0.40623
 H143 H 0.48718 0.76589 0.32533
 H144 H 0.43465 0.78806 0.38346
 C145 C 0.39402 -0.01078 0.26815
 H146 H 0.39297 0.00861 0.27738
 C147 C 0.40851 -0.03248 0.28018
 H148 H 0.41880 -0.02980 0.29865
 C149 C 0.38077 -0.03843 0.23358
 H150 H 0.36936 -0.04090 0.21586
 C151 C 0.39502 -0.06063 0.24494
 H152 H 0.39472 -0.08004 0.23580
 N153 N 0.38048 -0.01412 0.24531
 C154 C 0.36627 0.06598 0.20767
 H155 H 0.34474 0.06554 0.20518
 C156 C 0.38030 0.08871 0.19886
 H157 H 0.36959 0.10588 0.18952
 C158 C 0.40656 0.04418 0.22300
 H159 H 0.41674 0.02674 0.23227
 C160 C 0.42139 0.06655 0.21446
 H161 H 0.44292 0.06633 0.21731
 Zn162 Zn 0.35836 0.01513 0.23222
 N163 N 0.37942 0.04449 0.21989
 C164 C 0.33564 0.05107 0.27034
 N165 N 0.33515 0.02551 0.26152
 C166 C 0.32109 0.00615 0.27556
 C167 C 0.30746 0.01201 0.29997
 C168 C 0.32222 0.05778 0.29449
 C169 C 0.35397 -0.00039 0.17977
 C170 C 0.34190 -0.00969 0.15727
 C171 C 0.29899 -0.00852 0.18214
 C172 C 0.31191 0.00086 0.20427
 N173 N 0.33903 0.00427 0.20279
 H174 H 0.34747 0.06601 0.25942
 H175 H 0.32155 -0.01416 0.26844
 H176 H 0.29723 -0.00376 0.31160
 H177 H 0.32357 0.07792 0.30181
 H178 H 0.37546 0.00265 0.17915
 H179 H 0.35411 -0.01388 0.13924
 H180 H 0.27753 -0.01180 0.18356
 H181 H 0.30040 0.00495 0.22268
 C182 C 0.40807 0.08908 0.20249
 C183 C 0.40881 -0.05768 0.26857
 C184 C 0.31423 -0.01406 0.15852
 C185 C 0.30845 0.03798 0.30970
 C186 C 0.07523 1.03799 0.78732
 H187 H 0.07370 1.01812 0.79697
 C188 C 0.06102 1.06007 0.79835
 H189 H 0.04834 1.05722 0.81644
 C190 C 0.09465 1.06634 0.75274
 H191 H 0.10837 1.06891 0.73547
 C192 C 0.08080 1.08890 0.76307
 H193 H 0.08368 1.10866 0.75351
 N194 N 0.09171 1.04150 0.76496
 C195 C 0.10696 0.96271 0.73068
 H196 H 0.12876 0.96302 0.72922
 C197 C 0.09384 0.94096 0.72117
 H198 H 0.10554 0.92442 0.71234
 C199 C 0.06509 0.98413 0.74362
 H200 H 0.05405 1.00117 0.75211
 C201 C 0.05110 0.96266 0.73427
 H202 H 0.02925 0.96312 0.73566
 Zn203 Zn 0.11345 1.01175 0.75309
 N204 N 0.09256 0.98361 0.74182
 C205 C 0.13170 0.97342 0.79275
 N206 N 0.13442 0.99905 0.78241
 C207 C 0.15078 1.01639 0.79378
 C208 C 0.16562 1.00793 0.81617
 C209 C 0.14613 0.96418 0.81506
 C210 C 0.12246 1.02973 0.69987
 C211 C 0.13702 1.03733 0.67633
 C212 C 0.17829 1.02914 0.70010
 C213 C 0.16293 1.02166 0.72326
 N214 N 0.13550 1.02239 0.72279
 H215 H 0.11804 0.96016 0.78402
 H216 H 0.15215 1.03683 0.78551
 H217 H 0.17866 1.02178 0.82508
 H218 H 0.14383 0.94374 0.82312
 H219 H 0.10066 1.02971 0.69997
 H220 H 0.12643 1.04335 0.65825
 H221 H 0.20010 1.02871 0.70061
 H222 H 0.17293 1.01519 0.74148
 C223 C 0.06568 0.94089 0.72298
 C224 C 0.06404 1.08579 0.78621
 C225 C 0.16518 1.03709 0.67645
 C226 C 0.16323 0.98156 0.82687
 C227 C 0.57606 0.53921 0.28620
 H228 H 0.57490 0.51922 0.29565
 C229 C 0.56178 0.56100 0.29769
 H230 H 0.54941 0.55779 0.31594
 C231 C 0.59469 0.56817 0.25169
 H232 H 0.60815 0.57109 0.23427
 C233 C 0.58076 0.59046 0.26249
 H234 H 0.58330 0.61036 0.25314
 N235 N 0.59220 0.54316 0.26366
 C236 C 0.60781 0.46490 0.22840
 H237 H 0.62958 0.46547 0.22656
 C238 C 0.59477 0.44299 0.21910
 H239 H 0.60651 0.42661 0.21004
 C240 C 0.56593 0.48572 0.24224
 H241 H 0.55484 0.50256 0.25105
 C242 C 0.55202 0.46408 0.23313
 H243 H 0.53020 0.46421 0.23502
 Zn244 Zn 0.61410 0.51376 0.25130
 N245 N 0.59337 0.48555 0.23992
 C246 C 0.63294 0.47519 0.29042
 N247 N 0.63533 0.50096 0.28037
 C248 C 0.65148 0.51837 0.29192
 C249 C 0.66643 0.50985 0.31422
 C250 C 0.64750 0.46589 0.31262
 C251 C 0.62286 0.53243 0.19819
 C252 C 0.63738 0.54029 0.17470
 C253 C 0.67869 0.53193 0.19835
 C254 C 0.66338 0.52421 0.22145
 N255 N 0.63595 0.52487 0.22102
 H256 H 0.61945 0.46186 0.28155
 H257 H 0.65258 0.53892 0.28388
 H258 H 0.67927 0.52378 0.32330
 H259 H 0.64544 0.44534 0.32047
 H260 H 0.60106 0.53236 0.19831
 H261 H 0.62675 0.54647 0.15668
 H262 H 0.70051 0.53152 0.19884
 H263 H 0.67342 0.51756 0.23959
 C264 C 0.56666 0.44251 0.22153
 C265 C 0.56437 0.58689 0.28584
 C266 C 0.66554 0.54009 0.17479
 C267 C 0.66436 0.48335 0.32463
 C268 C 0.89718 0.49148 0.76700
 H269 H 0.89650 0.51084 0.77627
 C270 C 0.91152 0.46956 0.77884
 H271 H 0.92207 0.47204 0.79719
 C272 C 0.88309 0.46410 0.73260
 H273 H 0.87139 0.46180 0.71504
 C274 C 0.89718 0.44169 0.74376
 H275 H 0.89645 0.42232 0.73461
 N276 N 0.88326 0.48837 0.74435
 C277 C 0.86867 0.56852 0.70692
 H278 H 0.84710 0.56803 0.70475
 C279 C 0.88255 0.59123 0.69771
 H280 H 0.87167 0.60831 0.68841
 C281 C 0.90924 0.54689 0.72176
 H282 H 0.91957 0.52951 0.73099
 C283 C 0.92392 0.56924 0.71281
 H284 H 0.94551 0.56908 0.71530
 Zn285 Zn 0.86110 0.51776 0.73162
 N286 N 0.88204 0.54713 0.71904
 C287 C 0.83883 0.55369 0.76997
 N288 N 0.83822 0.52814 0.76115
 C289 C 0.82410 0.50883 0.77522
 C290 C 0.81047 0.51475 0.79960
 C291 C 0.82540 0.56046 0.79410
 C292 C 0.85608 0.50248 0.67921
 C293 C 0.84375 0.49319 0.65685
 C294 C 0.80112 0.49422 0.68221
 C295 C 0.81428 0.50361 0.70419
 N296 N 0.84139 0.50705 0.70240
 H297 H 0.85069 0.56858 0.75902
 H298 H 0.82447 0.48852 0.76809
 H299 H 0.80013 0.49904 0.81121
 H300 H 0.82679 0.58060 0.80140
 H301 H 0.87756 0.50554 0.67834
 H302 H 0.85577 0.48902 0.63869
 H303 H 0.77967 0.49087 0.68389
 H304 H 0.80297 0.50763 0.72274
 C305 C 0.91039 0.59166 0.70086
 C306 C 0.91129 0.44439 0.76722
 C307 C 0.81610 0.48873 0.65844
 C308 C 0.81151 0.54073 0.80929
 C309 C 0.26810 0.39457 -0.00923
 H310 H 0.27742 0.39367 0.01013
 C311 C 0.28005 0.40888 -0.03109
 H312 H 0.29855 0.41919 -0.02858
 C313 C 0.23339 0.38110 -0.03663
 H314 H 0.21566 0.36965 -0.03894
 C315 C 0.24467 0.39517 -0.05899
 H316 H 0.23544 0.39469 -0.07835
 N317 N 0.24523 0.38099 -0.01236
 C318 C 0.20790 0.36705 0.06785
 H319 H 0.20546 0.34551 0.06755
 C320 C 0.19902 0.38118 0.09045
 H321 H 0.18970 0.37051 0.10767
 C322 C 0.22309 0.40731 0.04580
 H323 H 0.23231 0.41743 0.02830
 C324 C 0.21448 0.42222 0.06803
 H325 H 0.21723 0.44377 0.06766
 Zn326 Zn 0.23228 0.35899 0.01705
 N327 N 0.22005 0.38015 0.04629
 C328 C 0.27054 0.33633 0.05299
 N329 N 0.26162 0.33582 0.02747
 C330 C 0.27554 0.32168 0.00815
 C331 C 0.29993 0.30798 0.01402
 C332 C 0.29468 0.32283 0.05971
 C333 C 0.17974 0.35453 0.00175
 C334 C 0.15726 0.34245 -0.00762
 C335 C 0.18222 0.29960 -0.00653
 C336 C 0.20433 0.31252 0.00293
 N337 N 0.20280 0.33962 0.00637
 H338 H 0.25970 0.34821 0.06789
 H339 H 0.26834 0.32213 -0.01215
 H340 H 0.31146 0.29767 -0.00172
 H341 H 0.30208 0.32418 0.07982
 H342 H 0.17909 0.37600 0.00479
 H343 H 0.13920 0.35465 -0.01185
 H344 H 0.18370 0.27816 -0.00989
 H345 H 0.22279 0.30103 0.00699
 C346 C 0.20253 0.40897 0.09062
 C347 C 0.26834 0.40897 -0.05624
 C348 C 0.15858 0.31482 -0.01209
 C349 C 0.30976 0.30897 0.03995
 C350 C 0.78774 0.07468 1.03933
 H351 H 0.79717 0.07345 1.01936
 C352 C 0.79916 0.06033 1.06117
 H353 H 0.81732 0.04783 1.05803
 C354 C 0.75334 0.09352 1.06819
 H355 H 0.73600 0.10707 1.07104
 C356 C 0.76407 0.07952 1.09051
 H357 H 0.75473 0.08211 1.11039
 N358 N 0.76529 0.09094 1.04321
 C359 C 0.72981 0.10669 0.96498
 H360 H 0.72806 0.12846 0.96556
 C361 C 0.72031 0.09375 0.94313
 H362 H 0.71118 0.10555 0.92679
 C363 C 0.74360 0.06472 0.98576
 H364 H 0.75246 0.05356 1.00257
 C365 C 0.73428 0.05090 0.96418
 H366 H 0.73606 0.02908 0.96431
 Zn367 Zn 0.75289 0.11286 1.01375
 N368 N 0.74140 0.09217 0.98559
 C369 C 0.79187 0.13169 0.97509
 N370 N 0.78191 0.13413 1.00086
 C371 C 0.79343 0.15044 1.01812
 C372 C 0.81557 0.16556 1.00943
 C373 C 0.81391 0.14640 0.96562
 C374 C 0.69980 0.12150 1.03236
 C375 C 0.67626 0.13595 1.04012
 C376 C 0.69978 0.17734 1.03168
 C377 C 0.72294 0.16210 1.02406
 N378 N 0.72259 0.13466 1.02481
 H379 H 0.78304 0.11807 0.96188
 H380 H 0.78546 0.15159 1.03866
 H381 H 0.82460 0.17857 1.02322
 H382 H 0.82167 0.14433 0.94507
 H383 H 0.69999 0.09970 1.03235
 H384 H 0.65827 0.12527 1.04627
 H385 H 0.70019 0.19916 1.03118
 H386 H 0.74105 0.17220 1.01740
 C387 C 0.72259 0.06563 0.94266
 C388 C 0.78731 0.06298 1.08703
 C389 C 0.67626 0.16411 1.03981
 C390 C 0.82586 0.16348 0.98291
 C391 C 0.28530 0.57630 0.53992
 H392 H 0.29473 0.57518 0.51995
 C393 C 0.29676 0.56191 0.56171
 H394 H 0.31497 0.54949 0.55851
 C395 C 0.25083 0.59492 0.56886
 H396 H 0.23344 0.60840 0.57176
 C397 C 0.26161 0.58087 0.59113
 H398 H 0.25227 0.58336 0.61102
 N399 N 0.26279 0.59248 0.54387
 C400 C 0.22744 0.60841 0.46562
 H401 H 0.22567 0.63018 0.46621
 C402 C 0.21804 0.59547 0.44371
 H403 H 0.20897 0.60728 0.42734
 C404 C 0.24121 0.56643 0.48640
 H405 H 0.25002 0.55527 0.50323
 C406 C 0.23200 0.55262 0.46476
 H407 H 0.23382 0.53080 0.46488
 Zn408 Zn 0.25042 0.61450 0.51448
 N409 N 0.23898 0.59387 0.48625
 C410 C 0.28958 0.63329 0.47598
 N411 N 0.27953 0.63572 0.50172
 C412 C 0.29114 0.65183 0.51911
 C413 C 0.31352 0.66668 0.51061
 C414 C 0.31186 0.64774 0.46670
 C415 C 0.19733 0.62313 0.53305
 C416 C 0.17379 0.63756 0.54085
 C417 C 0.19738 0.67896 0.53267
 C418 C 0.22054 0.66372 0.52501
 N419 N 0.22015 0.63629 0.52560
 H420 H 0.28067 0.61983 0.46267
 H421 H 0.28310 0.65296 0.53963
 H422 H 0.32266 0.67949 0.52452
 H423 H 0.31972 0.64564 0.44619
 H424 H 0.19749 0.60133 0.53292
 H425 H 0.15578 0.62688 0.54691
 H426 H 0.19782 0.70077 0.53229
 H427 H 0.23867 0.67382 0.51844
 C428 C 0.22039 0.56736 0.44321
 C429 C 0.28491 0.56443 0.58758
 C430 C 0.17382 0.66572 0.54070
 C431 C 0.32395 0.66456 0.48415
 C432 C 0.76938 0.89393 0.49096
 H433 H 0.77853 0.89319 0.51039
 C434 C 0.78148 0.90810 0.46907
 H435 H 0.79993 0.91847 0.47166
 C436 C 0.73491 0.88021 0.46339
 H437 H 0.71721 0.86873 0.46103
 C438 C 0.74635 0.89413 0.44102
 H439 H 0.73726 0.89352 0.42159
 N440 N 0.74655 0.88030 0.48775
 C441 C 0.70841 0.86709 0.56772
 H442 H 0.70593 0.84555 0.56752
 C443 C 0.69933 0.88138 0.59015
 H444 H 0.68980 0.87084 0.60732
 C445 C 0.72395 0.90718 0.54560
 H446 H 0.73339 0.91716 0.52815
 C447 C 0.71514 0.92225 0.56767
 H448 H 0.71796 0.94379 0.56721
 Zn449 Zn 0.73328 0.85859 0.51725
 N450 N 0.72083 0.88003 0.54622
 C451 C 0.77113 0.83617 0.55376
 N452 N 0.76243 0.83539 0.52817
 C453 C 0.77644 0.82094 0.50914
 C454 C 0.80070 0.80717 0.51539
 C455 C 0.79513 0.82262 0.56085
 C456 C 0.68086 0.85424 0.50156
 C457 C 0.65833 0.84219 0.49228
 C458 C 0.68298 0.79917 0.49407
 C459 C 0.70515 0.81208 0.50343
 N460 N 0.70379 0.83923 0.50650
 H461 H 0.76023 0.84829 0.56842
 H462 H 0.76942 0.82117 0.48879
 H463 H 0.81231 0.79661 0.49989
 H464 H 0.80236 0.82419 0.58100
 H465 H 0.68034 0.87576 0.50433
 H466 H 0.64037 0.85445 0.48784
 H467 H 0.68431 0.77767 0.49104
 H468 H 0.72350 0.80051 0.50774
 C469 C 0.70290 0.90916 0.59020
 C470 C 0.76996 0.90800 0.44384
 C471 C 0.65947 0.81447 0.48822
 C472 C 0.81031 0.80843 0.54139
 C473 C -0.00945 0.26876 0.39524
 H474 H 0.00992 0.27807 0.39429
 C475 C -0.03122 0.28062 0.40972
 H476 H -0.02862 0.29903 0.42010
 C477 C -0.03699 0.23418 0.38174
 H478 H -0.03941 0.21653 0.37022
 C479 C -0.05925 0.24536 0.39597
 H480 H -0.07864 0.23615 0.39555
 N481 N -0.01271 0.24600 0.38157
 C482 C 0.06744 0.20879 0.36711
 H483 H 0.06703 0.20655 0.34555
 C484 C 0.09011 0.19972 0.38111
 H485 H 0.10726 0.19046 0.37033
 C486 C 0.04562 0.22361 0.40754
 H487 H 0.02818 0.23275 0.41779
 C488 C 0.06793 0.21480 0.42233
 H489 H 0.06767 0.21732 0.44390
 Zn490 Zn 0.01656 0.23318 0.35939
 N491 N 0.04597 0.22083 0.38036
 C492 C 0.05234 0.27161 0.33670
 N493 N 0.02682 0.26263 0.33624
 C494 C 0.00740 0.27655 0.32217
 C495 C 0.01317 0.30099 0.30847
 C496 C 0.05896 0.29580 0.32321
 C497 C 0.00122 0.18068 0.35493
 C498 C -0.00809 0.15818 0.34286
 C499 C -0.00713 0.18322 0.30001
 C500 C 0.00227 0.20535 0.31292
 N501 N 0.00577 0.20378 0.34001
 H502 H 0.06732 0.26076 0.34854
 H503 H -0.01288 0.26930 0.32266
 H504 H -0.00264 0.31251 0.29820
 H505 H 0.07907 0.30324 0.32451
 H506 H 0.00432 0.17999 0.37640
 H507 H -0.01222 0.14009 0.35506
 H508 H -0.01050 0.18472 0.27857
 H509 H 0.00627 0.22383 0.30143
 C510 C 0.09043 0.20292 0.40892
 C511 C -0.05639 0.26891 0.40988
 C512 C -0.01258 0.15953 0.31523
 C513 C 0.03910 0.31087 0.30940
 C514 C 1.04014 0.78983 0.07426
 H515 H 1.02019 0.79928 0.07293
 C516 C 1.06206 0.80130 0.06010
 H517 H 1.05898 0.81954 0.04765
 C518 C 1.06889 0.75532 0.09319
 H519 H 1.07167 0.73790 0.10671
 C520 C 1.09129 0.76610 0.07938
 H521 H 1.11115 0.75673 0.08208
 N522 N 1.04393 0.76730 0.09048
 C523 C 0.96554 0.73199 0.10587
 H524 H 0.96609 0.73018 0.12764
 C525 C 0.94367 0.72260 0.09284
 H526 H 0.92729 0.71349 0.10458
 C527 C 0.98642 0.74585 0.06399
 H528 H 1.00327 0.75469 0.05289
 C529 C 0.96481 0.73664 0.05008
 H530 H 0.96498 0.73848 0.02826
 Zn531 Zn 1.01438 0.75488 0.11224
 N532 N 0.98621 0.74356 0.09142
 C533 C 0.97578 0.79393 0.13097
 N534 N 1.00152 0.78387 0.13349
 C535 C 1.01881 0.79526 0.14989
 C536 C 1.01017 0.81737 0.16499
 C537 C 0.96637 0.81595 0.14567
 C538 C 1.03286 0.70173 0.12093
 C539 C 1.04047 0.67811 0.13540
 C540 C 1.03189 0.70151 0.17677
 C541 C 1.02442 0.72475 0.16150
 N542 N 1.02531 0.72449 0.13407
 H543 H 0.96256 0.78520 0.11729
 H544 H 1.03933 0.78721 0.15110
 H545 H 1.02398 0.82630 0.17807
 H546 H 0.94584 0.82379 0.14354
 H547 H 1.03295 0.70199 0.09913
 H548 H 1.04662 0.66015 0.12474
 H549 H 1.03128 0.70185 0.19859
 H550 H 1.01776 0.74283 0.17158
 C551 C 0.94324 0.72497 0.06473
 C552 C 1.08790 0.78943 0.06290
 C553 C 1.04002 0.67801 0.16357
 C554 C 0.98369 0.82777 0.16283
 C555 C 0.53935 0.28593 0.57586
 H556 H 0.51938 0.29535 0.57459
 C557 C 0.56120 0.29742 0.56160
 H558 H 0.55806 0.31564 0.54914
 C559 C 0.56823 0.25148 0.59472
 H560 H 0.57108 0.23409 0.60825
 C561 C 0.59056 0.26228 0.58081
 H562 H 0.61044 0.25295 0.58345
 N563 N 0.54324 0.26342 0.59209
 C564 C 0.46496 0.22796 0.60759
 H565 H 0.46544 0.22623 0.62936
 C566 C 0.44317 0.21844 0.59452
 H567 H 0.42678 0.20931 0.60624
 C568 C 0.48593 0.24172 0.56572
 H569 H 0.50279 0.25056 0.55464
 C570 C 0.46441 0.23238 0.55178
 H571 H 0.46465 0.23413 0.52995
 Zn572 Zn 0.51378 0.25098 0.61394
 N573 N 0.48564 0.23954 0.59316
 C574 C 0.47516 0.29001 0.63266
 N575 N 0.50092 0.28000 0.63514
 C576 C 0.51826 0.29153 0.65137
 C577 C 0.50969 0.31379 0.66630
 C578 C 0.46581 0.31217 0.64720
 C579 C 0.53238 0.19790 0.62260
 C580 C 0.54023 0.17435 0.63705
 C581 C 0.53195 0.19780 0.67843
 C582 C 0.52423 0.22098 0.66318
 N583 N 0.52486 0.22066 0.63576
 H584 H 0.46189 0.28116 0.61911
 H585 H 0.53880 0.28353 0.65254
 H586 H 0.52356 0.32285 0.67921
 H587 H 0.44527 0.31999 0.64507
 H588 H 0.53229 0.19812 0.60081
 H589 H 0.54637 0.15639 0.62637
 H590 H 0.53155 0.19818 0.70024
 H591 H 0.51761 0.23907 0.67328
 C592 C 0.44284 0.22069 0.56640
 C593 C 0.58707 0.28559 0.56432
 C594 C 0.54006 0.17431 0.66520
 C595 C 0.48320 0.32417 0.66414
 C596 C 0.48866 0.76888 0.89577
 H597 H 0.50808 0.77809 0.89485
 C598 C 0.46688 0.78093 0.91007
 H599 H 0.46953 0.79940 0.92035
 C600 C 0.46103 0.73434 0.88235
 H601 H 0.45858 0.71664 0.87092
 C602 C 0.43874 0.74573 0.89640
 H603 H 0.41931 0.73661 0.89594
 N604 N 0.48537 0.74605 0.88222
 C605 C 0.56535 0.70827 0.86812
 H606 H 0.56477 0.70569 0.84663
 C607 C 0.58813 0.69946 0.88205
 H608 H 0.60520 0.69004 0.87129
 C609 C 0.54388 0.72386 0.90841
 H610 H 0.52655 0.73326 0.91861
 C611 C 0.56632 0.71533 0.92314
 H612 H 0.56627 0.71830 0.94463
 Zn613 Zn 0.51468 0.73297 0.86023
 N614 N 0.54401 0.72061 0.88131
 C615 C 0.55083 0.77098 0.83748
 N616 N 0.52523 0.76224 0.83698
 C617 C 0.50599 0.77626 0.82273
 C618 C 0.51205 0.80054 0.80889
 C619 C 0.55774 0.79500 0.82384
 C620 C 0.49907 0.68051 0.85584
 C621 C 0.48993 0.65797 0.84370
 C622 C 0.49157 0.68283 0.80076
 C623 C 0.50078 0.70500 0.81374
 N624 N 0.50388 0.70354 0.84089
 H625 H 0.56567 0.76007 0.84944
 H626 H 0.48564 0.76920 0.82318
 H627 H 0.49640 0.81214 0.79848
 H628 H 0.57793 0.80224 0.82517
 H629 H 0.50188 0.67990 0.87735
 H630 H 0.48562 0.63992 0.85590
 H631 H 0.48855 0.68423 0.77925
 H632 H 0.50501 0.72342 0.80223
 C633 C 0.58871 0.70323 0.90976
 C634 C 0.44165 0.76936 0.91017
 C635 C 0.48589 0.65920 0.81598
 C636 C 0.53809 0.81017 0.80985
 C637 C 0.46872 -0.18596 0.34703
 C638 C 0.46103 -0.16633 0.33395
 C639 C 0.45146 -0.14324 0.31918
 C640 C 0.44273 -0.12349 0.30699
 C641 C 0.43177 -0.10041 0.29318
 C642 C 0.42172 -0.08082 0.28177
 C643 C 0.96936 0.31468 0.84479
 C644 C 0.96189 0.33445 0.83180
 C645 C 0.95265 0.35779 0.81719
 C646 C 0.94423 0.37779 0.80516
 C647 C 0.93365 0.40117 0.79156
 C648 C 0.92390 0.42100 0.78029
 C649 C 0.00468 1.21935 0.84962
 C650 C 0.01263 1.19834 0.84024
 C651 C 0.02224 1.17389 0.82912
 C652 C 0.03084 1.15321 0.81950
 C653 C 0.04154 1.12930 0.80808
 C654 C 0.05135 1.10923 0.79818
 C655 C 0.50444 0.71894 0.35172
 C656 C 0.51252 0.69808 0.34212
 C657 C 0.52225 0.67386 0.33061
 C658 C 0.53096 0.65343 0.32059
 C659 C 0.54175 0.62983 0.30865
 C660 C 0.55163 0.61002 0.29831
 C661 C 0.51300 0.31516 0.15596
 C662 C 0.51863 0.33465 0.16793
 C663 C 0.52616 0.35774 0.18098
 C664 C 0.53356 0.37751 0.19136
 C665 C 0.54353 0.40055 0.20266
 C666 C 0.55331 0.41994 0.21162
 C667 C 0.01225 0.81515 0.65441
 C668 C 0.01777 0.83440 0.66683
 C669 C 0.02519 0.85719 0.68044
 C670 C 0.03253 0.87671 0.69131
 C671 C 0.04247 0.89946 0.70317
 C672 C 0.05226 0.91860 0.71259
 C673 C 0.98176 0.72410 0.64953
 C674 C 0.97189 0.70354 0.65821
 C675 C 0.95992 0.67948 0.66782
 C676 C 0.94930 0.65904 0.67569
 C677 C 0.93635 0.63529 0.68459
 C678 C 0.92481 0.61524 0.69204
 C679 C 0.48069 0.22144 0.15331
 C680 C 0.47069 0.20092 0.16190
 C681 C 0.45848 0.17691 0.17124
 C682 C 0.44763 0.15649 0.17876
 C683 C 0.43440 0.13275 0.18718
 C684 C 0.42266 0.11270 0.19418
 C685 C 0.34627 0.46779 -0.18530
 C686 C 0.33327 0.46016 -0.16562
 C687 C 0.31860 0.45074 -0.14241
 C688 C 0.30651 0.44218 -0.12253
 C689 C 0.29281 0.43147 -0.09929
 C690 C 0.28147 0.42163 -0.07955
 C691 C 0.84798 0.96708 0.31488
 C692 C 0.83500 0.95935 0.33454
 C693 C 0.82035 0.94983 0.35773
 C694 C 0.80827 0.94121 0.37759
 C695 C 0.79455 0.93046 0.40082
 C696 C 0.78318 0.92062 0.42055
 C697 C 0.85242 0.00275 1.21959
 C698 C 0.84289 0.01080 1.19865
 C699 C 0.83153 0.02055 1.17434
 C700 C 0.82165 0.02929 1.15381
 C701 C 0.80988 0.04016 1.13010
 C702 C 0.79967 0.05012 1.11022
 C703 C 0.35069 0.50385 0.71965
 C704 C 0.34107 0.51201 0.69879
 C705 C 0.32957 0.52186 0.67458
 C706 C 0.31957 0.53066 0.65414
 C707 C 0.30766 0.54157 0.63052
 C708 C 0.29735 0.55155 0.61071
 C709 C 0.15448 0.51426 0.31577
 C710 C 0.16643 0.51984 0.33531
 C711 C 0.17951 0.52727 0.35842
 C712 C 0.18993 0.53458 0.37821
 C713 C 0.20131 0.54443 0.40126
 C714 C 0.21037 0.55411 0.42065
 C715 C 0.65538 0.01312 0.81572
 C716 C 0.66757 0.01856 0.83514
 C717 C 0.68091 0.02584 0.85816
 C718 C 0.69156 0.03303 0.87787
 C719 C 0.70317 0.04277 0.90084
 C720 C 0.71240 0.05240 0.92018
 C721 C 0.65222 0.98191 0.72172
 C722 C 0.66087 0.97206 0.70119
 C723 C 0.67041 0.95996 0.67723
 C724 C 0.67818 0.94913 0.65692
 C725 C 0.68694 0.93585 0.63336
 C726 C 0.69425 0.92399 0.61351
 C727 C 0.15227 0.48194 0.22214
 C728 C 0.16101 0.47192 0.20174
 C729 C 0.17056 0.45967 0.17786
 C730 C 0.17826 0.44877 0.15757
 C731 C 0.18689 0.43548 0.13399
 C732 C 0.19407 0.42366 0.11407
 C733 C -0.18521 0.34660 0.46913
 C734 C -0.16552 0.33360 0.46155
 C735 C -0.14233 0.31896 0.45211
 C736 C -0.12249 0.30689 0.44349
 C737 C -0.09930 0.29325 0.43266
 C738 C -0.07962 0.28197 0.42270
 C739 C 0.31327 0.84818 0.96906
 C740 C 0.33283 0.83499 0.96143
 C741 C 0.35589 0.82013 0.95199
 C742 C 0.37565 0.80789 0.94341
 C743 C 0.39878 0.79404 0.93267
 C744 C 0.41843 0.78260 0.92283
 C745 C 1.22085 0.85454 0.00362
 C746 C 1.19984 0.84511 0.01159
 C747 C 1.17545 0.83379 0.02121
 C748 C 1.15487 0.82391 0.02980
 C749 C 1.13110 0.81211 0.04048
 C750 C 1.11117 0.80186 0.05026
 C751 C 0.71961 0.35113 0.50470
 C752 C 0.69869 0.34156 0.51270
 C753 C 0.67438 0.33013 0.52236
 C754 C 0.65385 0.32018 0.53101
 C755 C 0.63015 0.30832 0.54174
 C756 C 0.61027 0.29803 0.55159
 C757 C 0.31610 0.15370 0.51292
 C758 C 0.33558 0.16576 0.51849
 C759 C 0.35859 0.17901 0.52596
 C760 C 0.37827 0.18961 0.53332
 C761 C 0.40118 0.20122 0.54325
 C762 C 0.42044 0.21046 0.55303
 C763 C 0.81626 0.65801 0.01178
 C764 C 0.83567 0.67020 0.01730
 C765 C 0.85867 0.68353 0.02466
 C766 C 0.87839 0.69414 0.03191
 C767 C 0.90139 0.70570 0.04173
 C768 C 0.92073 0.71487 0.05142
 C769 C 0.72232 0.65448 0.98024
 C770 C 0.70156 0.66297 0.97067
 C771 C 0.67727 0.67222 0.95896
 C772 C 0.65663 0.67967 0.94850
 C773 C 0.63266 0.68803 0.93566
 C774 C 0.61245 0.69499 0.92417
 C775 C 0.22223 0.15142 0.48111
 C776 C 0.20176 0.16026 0.47123
 C777 C 0.17782 0.16999 0.45914
 C778 C 0.15749 0.17789 0.44836
 C779 C 0.13387 0.18678 0.43520
 C780 C 0.11391 0.19419 0.42349
 C781 C 0.59465 0.04508 0.74620
 C782 C 0.58461 0.06389 0.73354
 C783 C 0.57379 0.08665 0.71909
 C784 C 0.56525 0.10650 0.70690
 C785 C 0.55595 0.13005 0.69265
 C786 C 0.54849 0.15025 0.68031
 C787 C 1.09381 0.54866 0.24486
 C788 C 1.08369 0.56743 0.23221
 C789 C 1.07290 0.59019 0.21771
 C790 C 1.06448 0.61005 0.20547
 C791 C 1.05539 0.63364 0.19113
 C792 C 1.04816 0.65389 0.17873
 C793 C 0.91524 0.94614 0.24423
 C794 C 0.92802 0.92944 0.23160
 C795 C 0.94200 0.90902 0.21710
 C796 C 0.95304 0.89099 0.20483
 C797 C 0.96487 0.86933 0.19045
 C798 C 0.97400 0.85050 0.17801
 C799 C 0.41449 0.44368 0.74361
 C800 C 0.42751 0.42687 0.73134
 C801 C 0.44164 0.40626 0.71724
 C802 C 0.45272 0.38804 0.70528
 C803 C 0.46454 0.36614 0.69123
 C804 C 0.47361 0.34712 0.67905
 C805 C 0.41244 0.53155 0.77514
 C806 C 0.42557 0.55118 0.77733
 C807 C 0.44009 0.57435 0.78176
 C808 C 0.45175 0.59413 0.78715
 C809 C 0.46453 0.61715 0.79532
 C810 C 0.47469 0.63654 0.80388
 C811 C -0.08686 0.03201 0.27530
 C812 C -0.07378 0.05170 0.27739
 C813 C -0.05921 0.07487 0.28166
 C814 C -0.04743 0.09464 0.28688
 C815 C -0.03443 0.11761 0.29485
 C816 C -0.02406 0.13695 0.30326
 C817 C 0.08942 0.45596 0.27701
 C818 C 0.07860 0.43463 0.27821
 C819 C 0.06746 0.40891 0.28119
 C820 C 0.05919 0.38654 0.28519
 C821 C 0.05090 0.36010 0.29167
 C822 C 0.04494 0.33754 0.29882
 C823 C 0.59033 0.95442 0.77717
 C824 C 0.57932 0.93319 0.77832
 C825 C 0.56786 0.90763 0.78129
 C826 C 0.55926 0.88540 0.78531
 C827 C 0.55057 0.85912 0.79186
 C828 C 0.54427 0.83669 0.79911
 C829 C 0.74649 0.59596 0.04618
 C830 C 0.73403 0.58552 0.06489
 C831 C 0.71966 0.57435 0.08753
 C832 C 0.70747 0.56559 0.10727
 C833 C 0.69315 0.55612 0.13071
 C834 C 0.68074 0.54857 0.15082
 C835 C 0.24574 1.09238 0.54735
 C836 C 0.23331 1.08199 0.56612
 C837 C 0.21905 1.07088 0.58885
 C838 C 0.20696 1.06219 0.60870
 C839 C 0.19275 1.05282 0.63224
 C840 C 0.18039 1.04539 0.65243
 C841 C 0.24383 0.91451 0.94681
 C842 C 0.23117 0.92707 0.92993
 C843 C 0.21672 0.94077 0.90925
 C844 C 0.20455 0.95157 0.89097
 C845 C 0.19036 0.96314 0.86900
 C846 C 0.17813 0.97207 0.84991
 C847 C 0.74378 0.41480 0.44450
 C848 C 0.73155 0.42781 0.42761
 C849 C 0.71747 0.44192 0.40693
 C850 C 0.70552 0.45299 0.38866
 C851 C 0.69147 0.46477 0.36670
 C852 C 0.67928 0.47381 0.34763
 C853 C 0.77518 0.41316 0.53227
 C854 C 0.77735 0.42658 0.55167
 C855 C 0.78175 0.44149 0.57456
 C856 C 0.78712 0.45349 0.59411
 C857 C 0.79529 0.46668 0.61687
 C858 C 0.80389 0.47717 0.63604
 C859 C 0.27416 -0.08780 0.03081
 C860 C 0.27620 -0.07480 0.05053
 C861 C 0.28048 -0.06034 0.07375
 C862 C 0.28574 -0.04865 0.09355
 C863 C 0.29377 -0.03577 0.11655
 C864 C 0.30223 -0.02547 0.13591
 C865 C 0.27713 0.08876 0.45460
 C866 C 0.27818 0.07792 0.43330
 C867 C 0.28096 0.06671 0.40764
 C868 C 0.28478 0.05837 0.38531
 C869 C 0.29105 0.04997 0.35891
 C870 C 0.29804 0.04392 0.33636
 C871 C 0.77833 0.59235 0.95358
 C872 C 0.77969 0.58135 0.93236
 C873 C 0.78286 0.56997 0.90681
 C874 C 0.78700 0.56149 0.88457
 C875 C 0.79362 0.55295 0.85829
 C876 C 0.80087 0.54679 0.83584
 C877 C 0.04460 0.74699 0.59444
 C878 C 0.06340 0.73425 0.58454
 C879 C 0.08615 0.71971 0.57390
 C880 C 0.10600 0.70748 0.56550
 C881 C 0.12956 0.69319 0.55635
 C882 C 0.14977 0.68084 0.54901
 C883 C 0.54728 0.24480 1.09480
 C884 C 0.56601 0.23230 1.08450
 C885 C 0.58870 0.21796 1.07349
 C886 C 0.60851 0.20581 1.06487
 C887 C 0.63203 0.19157 1.05556
 C888 C 0.65221 0.17923 1.04815
 C889 C 0.94459 0.24371 0.91317
 C890 C 0.92781 0.23146 0.92630
 C891 C 0.90731 0.21730 0.94062
 C892 C 0.88922 0.20523 0.95188
 C893 C 0.86750 0.19100 0.96391
 C894 C 0.84863 0.17863 0.97316
 C895 C 0.44433 0.74312 0.41548
 C896 C 0.42742 0.73097 0.42854
 C897 C 0.40667 0.71703 0.44270
 C898 C 0.38832 0.70522 0.45380
 C899 C 0.36625 0.69136 0.46560
 C900 C 0.34707 0.67932 0.47464
 C901 C 0.53226 0.77444 0.41346
 C902 C 0.55180 0.77654 0.42674
 C903 C 0.57486 0.78083 0.44147
 C904 C 0.59457 0.78607 0.45335
 C905 C 0.61751 0.79407 0.46639
 C906 C 0.63685 0.80249 0.47677
 C907 C 0.03234 0.27489 -0.08840
 C908 C 0.05171 0.27698 -0.07488
 C909 C 0.07457 0.28125 -0.05984
 C910 C 0.09411 0.28648 -0.04771
 C911 C 0.11688 0.29446 -0.03438
 C912 C 0.13609 0.30287 -0.02377
 C913 C 0.45465 0.27672 0.09073
 C914 C 0.43334 0.27792 0.07986
 C915 C 0.40766 0.28087 0.06865
 C916 C 0.38533 0.28484 0.06031
 C917 C 0.35893 0.29129 0.05193
 C918 C 0.33639 0.29841 0.04589
 C919 C 0.95562 0.77684 0.59165
 C920 C 0.93403 0.77774 0.58132
 C921 C 0.90816 0.78047 0.57049
 C922 C 0.88575 0.78433 0.56229
 C923 C 0.85934 0.79072 0.55387
 C924 C 0.83685 0.79784 0.54766
   
