data_POSCAR
  _audit_creation_date              2014-09-24
  _audit_creation_method            'ToBaCCo'
  _symmetry_space_group_name_H-M    'P1'
  _symmetry_Int_Tables_number       1
  _symmetry_cell_setting            triclinic
  loop_
  _symmetry_equiv_pos_as_xyz
 x,y,z
_cell_length_a 54.3099
_cell_length_b 54.1608
_cell_length_c 54.2172
_cell_angle_alpha 89.970800
_cell_angle_beta 89.996100
_cell_angle_gamma 89.918900
loop_
  _atom_site_label
  _atom_site_type_symbol
  _atom_site_fract_x
  _atom_site_fract_y
  _atom_site_fract_z
C1 C 0.26859 0.25016 0.23132
 C2 C 0.25021 0.26845 0.23148
 C3 C 0.23183 0.26861 0.24972
 C4 C 0.23198 0.25017 0.26794
 C5 C 0.25020 0.23172 0.26811
 C6 C 0.26842 0.23189 0.24971
 H7 H 0.25021 0.28260 0.21736
 H8 H 0.21749 0.24979 0.28167
 H9 H 0.28290 0.21812 0.25009
 C10 C 0.73115 -0.24985 0.23095
 C11 C 0.73163 -0.23153 0.24943
 C12 C 0.74992 -0.23135 0.26768
 C13 C 0.76811 -0.24973 0.26759
 C14 C 0.76843 -0.26843 0.24950
 C15 C 0.74978 -0.26810 0.23132
 H16 H 0.71742 -0.21757 0.25029
 H17 H 0.78118 -0.24998 0.28264
 H18 H 0.75099 -0.28091 0.21612
 C19 C 0.73210 0.25032 0.76849
 C20 C 0.75047 0.26856 0.76838
 C21 C 0.76899 0.26903 0.75005
 C22 C 0.76847 0.25046 0.73174
 C23 C 0.75024 0.23209 0.73162
 C24 C 0.73215 0.23218 0.75006
 H25 H 0.74969 0.28272 0.78238
 H26 H 0.78300 0.24923 0.71815
 H27 H 0.71767 0.21845 0.74971
 C28 C 0.26804 -0.25045 0.76885
 C29 C 0.26800 -0.23236 0.75035
 C30 C 0.24990 -0.23228 0.73194
 C31 C 0.23164 -0.25063 0.73211
 C32 C 0.23111 -0.26915 0.75050
 C33 C 0.24964 -0.26865 0.76880
 H34 H 0.28176 -0.21790 0.75065
 H35 H 0.21750 -0.24982 0.71811
 H36 H 0.25082 -0.28319 0.78244
 C37 C 0.73133 -0.25027 0.76863
 C38 C 0.74977 -0.26848 0.76859
 C39 C 0.76854 -0.26875 0.75052
 C40 C 0.76820 -0.25000 0.73237
 C41 C 0.74989 -0.23166 0.73218
 C42 C 0.73155 -0.23195 0.75036
 H43 H 0.75002 -0.28160 0.78363
 H44 H 0.78133 -0.25020 0.71739
 H45 H 0.71738 -0.21786 0.75030
 C46 C 0.26861 0.25003 0.76840
 C47 C 0.25022 0.26830 0.76824
 C48 C 0.23187 0.26848 0.74998
 C49 C 0.23206 0.25008 0.73174
 C50 C 0.25029 0.23165 0.73158
 C51 C 0.26848 0.23178 0.75000
 H52 H 0.25020 0.28243 0.78237
 H53 H 0.21760 0.24972 0.71799
 H54 H 0.28297 0.21802 0.74963
 C55 C 0.26881 -0.25037 0.23113
 C56 C 0.26828 -0.23209 0.24973
 C57 C 0.25004 -0.23200 0.26809
 C58 C 0.23196 -0.25043 0.26797
 C59 C 0.23191 -0.26882 0.24981
 C60 C 0.25029 -0.26870 0.23158
 H61 H 0.28281 -0.21852 0.25098
 H62 H 0.21747 -0.25009 0.28171
 H63 H 0.24951 -0.28268 0.21738
 C64 C 0.73173 0.25038 0.23132
 C65 C 0.75017 0.26854 0.23141
 C66 C 0.76858 0.26860 0.24961
 C67 C 0.76840 0.25020 0.26787
 C68 C 0.75011 0.23188 0.26809
 C69 C 0.73186 0.23213 0.24974
 H70 H 0.75019 0.28267 0.21727
 H71 H 0.78215 0.25051 0.28233
 H72 H 0.71808 0.21769 0.24940
 O73 O 0.27035 0.02366 0.47593
 O74 O 0.27037 -0.02438 0.52401
 O75 O 0.27032 -0.02441 0.47599
 O76 O 0.27039 0.02369 0.52395
 O77 O 0.22978 0.02377 0.52399
 O78 O 0.22971 -0.02433 0.47603
 O79 O 0.22976 -0.02430 0.52405
 O80 O 0.22974 0.02374 0.47596
 Cu81 Cu 0.27442 -0.00037 0.49996
 Cu82 Cu 0.22568 -0.00027 0.50001
 C83 C 0.25004 0.03194 0.46770
 C84 C 0.25007 -0.03258 0.53227
 C85 C 0.25000 -0.03261 0.46778
 C86 C 0.25009 0.03197 0.53219
 O87 O 0.72947 0.02409 0.52401
 O88 O 0.72943 -0.02401 0.47603
 O89 O 0.72943 -0.02398 0.52405
 O90 O 0.72947 0.02406 0.47599
 O91 O 0.77008 0.02397 0.47598
 O92 O 0.77004 -0.02407 0.52405
 O93 O 0.77004 -0.02410 0.47602
 O94 O 0.77008 0.02400 0.52401
 Cu95 Cu 0.72538 0.00005 0.50002
 Cu96 Cu 0.77413 -0.00006 0.50001
 C97 C 0.74979 0.03229 0.53223
 C98 C 0.74973 -0.03230 0.46780
 C99 C 0.74973 -0.03226 0.53229
 C100 C 0.74978 0.03225 0.46775
 O101 O 0.47623 0.27072 0.02379
 O102 O 0.52415 0.27071 -0.02427
 O103 O 0.47621 0.27067 -0.02423
 O104 O 0.52417 0.27076 0.02376
 O105 O 0.52426 0.23003 0.02381
 O106 O 0.47630 0.22995 -0.02417
 O107 O 0.52424 0.22999 -0.02420
 O108 O 0.47632 0.23000 0.02385
 Cu109 Cu 0.50018 0.27480 -0.00024
 Cu110 Cu 0.50029 0.22592 -0.00017
 C111 C 0.46806 0.25036 0.03206
 C112 C 0.53241 0.25035 -0.03247
 C113 C 0.46804 0.25030 -0.03243
 C114 C 0.53244 0.25041 0.03201
 O115 O 0.52387 0.72942 0.02422
 O116 O 0.47586 0.72939 -0.02374
 O117 O 0.52380 0.72937 -0.02380
 O118 O 0.47593 0.72944 0.02428
 O119 O 0.47589 0.77016 0.02422
 O120 O 0.52376 0.77010 -0.02386
 O121 O 0.47582 0.77012 -0.02380
 O122 O 0.52383 0.77014 0.02416
 Cu123 Cu 0.49987 0.72533 0.00025
 Cu124 Cu 0.49982 0.77421 0.00018
 C125 C 0.53208 0.74978 0.03241
 C126 C 0.46760 0.74975 -0.03199
 C127 C 0.53199 0.74972 -0.03207
 C128 C 0.46770 0.74981 0.03249
 O129 O 0.02381 0.47627 0.26995
 O130 O -0.02419 0.52436 0.26994
 O131 O -0.02412 0.47629 0.26995
 O132 O 0.02376 0.52434 0.26997
 O133 O 0.02377 0.52436 0.22929
 O134 O -0.02411 0.47630 0.22927
 O135 O -0.02418 0.52438 0.22926
 O136 O 0.02382 0.47629 0.22927
 Cu137 Cu -0.00019 0.50031 0.27403
 Cu138 Cu -0.00017 0.50034 0.22520
 C139 C 0.03205 0.46804 0.24961
 C140 C -0.03241 0.53261 0.24960
 C141 C -0.03232 0.46805 0.24961
 C142 C 0.03198 0.53258 0.24963
 O143 O 0.02387 0.52419 0.73021
 O144 O -0.02405 0.47616 0.73001
 O145 O -0.02407 0.52423 0.73017
 O146 O 0.02389 0.47613 0.73004
 O147 O 0.02385 0.47597 0.77072
 O148 O -0.02411 0.52408 0.77084
 O149 O -0.02409 0.47601 0.77068
 O150 O 0.02384 0.52404 0.77088
 Cu151 Cu -0.00009 0.50020 0.72603
 Cu152 Cu -0.00013 0.50001 0.77486
 C153 C 0.03208 0.53234 0.75058
 C154 C -0.03228 0.46785 0.75031
 C155 C -0.03231 0.53240 0.75053
 C156 C 0.03209 0.46780 0.75036
 C157 C 0.31731 0.27246 0.18631
 C158 C 0.32477 0.25025 0.17542
 C159 C 0.31392 0.22802 0.18279
 C160 C 0.29566 0.22798 0.20098
 C161 C 0.28800 0.25021 0.21203
 C162 C 0.29905 0.27246 0.20449
 C163 C 0.34356 0.25028 0.15669
 C164 C 0.35928 0.25030 0.14099
 C165 C 0.37768 0.25032 0.12260
 C166 C 0.39338 0.25034 0.10689
 C167 C 0.41213 0.25035 0.08811
 C168 C 0.42133 0.22800 0.07900
 C169 C 0.43954 0.22798 0.06076
 C170 C 0.44878 0.25036 0.05138
 C171 C 0.43940 0.27274 0.06068
 C172 C 0.42120 0.27271 0.07892
 H173 H 0.32564 0.28976 0.18079
 H174 H 0.31951 0.21073 0.17444
 H175 H 0.28730 0.21059 0.20617
 H176 H 0.29379 0.28982 0.21287
 H177 H 0.41444 0.21059 0.08599
 H178 H 0.44635 0.21044 0.05401
 H179 H 0.44612 0.29028 0.05387
 H180 H 0.41420 0.29012 0.08585
 C181 C 0.68233 0.77205 0.18695
 C182 C 0.67559 0.74997 0.17554
 C183 C 0.68715 0.72796 0.18237
 C184 C 0.70542 0.72797 0.20053
 C185 C 0.71257 0.75012 0.21239
 C186 C 0.70056 0.77219 0.20516
 C187 C 0.65680 0.74990 0.15681
 C188 C 0.64107 0.74986 0.14112
 C189 C 0.62265 0.74982 0.12276
 C190 C 0.60692 0.74980 0.10707
 C191 C 0.58813 0.74980 0.08834
 C192 C 0.57898 0.72744 0.07926
 C193 C 0.56073 0.72741 0.06106
 C194 C 0.55140 0.74979 0.05170
 C195 C 0.56073 0.77217 0.06096
 C196 C 0.57897 0.77215 0.07916
 H197 H 0.67363 0.78927 0.18164
 H198 H 0.68191 0.71069 0.17378
 H199 H 0.71307 0.71030 0.20581
 H200 H 0.70575 0.78992 0.21267
 H201 H 0.58594 0.71003 0.08624
 H202 H 0.55396 0.70987 0.05433
 H203 H 0.55395 0.78971 0.05416
 H204 H 0.58593 0.78956 0.08607
 C205 C 0.68703 0.22814 -0.18281
 C206 C 0.67583 0.25031 -0.17571
 C207 C 0.68297 0.27250 -0.18684
 C208 C 0.70126 0.27253 -0.20499
 C209 C 0.71265 0.25034 -0.21224
 C210 C 0.70531 0.22814 -0.20097
 C211 C 0.65702 0.25030 -0.15699
 C212 C 0.64128 0.25030 -0.14132
 C213 C 0.62286 0.25031 -0.12295
 C214 C 0.60714 0.25031 -0.10725
 C215 C 0.58837 0.25032 -0.08850
 C216 C 0.57917 0.27268 -0.07940
 C217 C 0.56096 0.27272 -0.06117
 C218 C 0.55170 0.25034 -0.05179
 C219 C 0.56107 0.22796 -0.06107
 C220 C 0.57929 0.22798 -0.07930
 H221 H 0.68168 0.21087 -0.17428
 H222 H 0.67437 0.28975 -0.18153
 H223 H 0.70626 0.28987 -0.21358
 H224 H 0.71393 0.21081 -0.20599
 H225 H 0.58608 0.29009 -0.08639
 H226 H 0.55415 0.29026 -0.05443
 H227 H 0.55435 0.21042 -0.05426
 H228 H 0.58628 0.21056 -0.08622
 C229 C 0.29961 0.74464 -0.16885
 C230 C 0.32410 0.74961 -0.17512
 C231 C 0.33031 0.75456 -0.19968
 C232 C 0.31210 0.75456 -0.21791
 C233 C 0.28741 0.74957 -0.21180
 C234 C 0.28137 0.74461 -0.18705
 C235 C 0.34287 0.74962 -0.15637
 C236 C 0.35859 0.74963 -0.14067
 C237 C 0.37701 0.74965 -0.12230
 C238 C 0.39274 0.74968 -0.10662
 C239 C 0.41153 0.74970 -0.08790
 C240 C 0.42069 0.77206 -0.07882
 C241 C 0.43894 0.77211 -0.06063
 C242 C 0.44828 0.74974 -0.05127
 C243 C 0.43895 0.72735 -0.06052
 C244 C 0.42070 0.72736 -0.07871
 H245 H 0.29460 0.74085 -0.14988
 H246 H 0.34922 0.75836 -0.20476
 H247 H 0.31737 0.75813 -0.23684
 H248 H 0.26250 0.74101 -0.18172
 H249 H 0.41372 0.78947 -0.08581
 H250 H 0.44571 0.78965 -0.05391
 H251 H 0.44574 0.70981 -0.05371
 H252 H 0.41374 0.70994 -0.08561
 C253 C 0.18309 0.31374 0.22744
 C254 C 0.17560 0.32460 0.24963
 C255 C 0.18647 0.31719 0.27184
 C256 C 0.20474 0.29898 0.27188
 C257 C 0.21241 0.28795 0.24967
 C258 C 0.20137 0.29554 0.22744
 C259 C 0.15679 0.34335 0.24960
 C260 C 0.14104 0.35906 0.24959
 C261 C 0.12260 0.37745 0.24959
 C262 C 0.10686 0.39317 0.24960
 C263 C 0.08808 0.41195 0.24960
 C264 C 0.07892 0.42109 0.27194
 C265 C 0.06068 0.43934 0.27197
 C266 C 0.05136 0.44870 0.24961
 C267 C 0.06069 0.43938 0.22725
 C268 C 0.07893 0.42113 0.22728
 H269 H 0.17475 0.31929 0.21014
 H270 H 0.18086 0.32552 0.28911
 H271 H 0.21310 0.29374 0.28925
 H272 H 0.20663 0.28716 0.21009
 H273 H 0.08588 0.41411 0.28933
 H274 H 0.05390 0.44611 0.28949
 H275 H 0.05392 0.44618 0.20973
 H276 H 0.08589 0.41418 0.20988
 C277 C 0.18234 0.68685 0.72870
 C278 C 0.17562 0.67539 0.75076
 C279 C 0.18719 0.68217 0.77273
 C280 C 0.20544 0.70034 0.77270
 C281 C 0.21256 0.71228 0.75057
 C282 C 0.20055 0.70507 0.72854
 C283 C 0.15683 0.65666 0.75085
 C284 C 0.14109 0.64099 0.75088
 C285 C 0.12266 0.62264 0.75088
 C286 C 0.10692 0.60697 0.75086
 C287 C 0.08812 0.58826 0.75079
 C288 C 0.07896 0.57904 0.77309
 C289 C 0.06071 0.56085 0.77305
 C290 C 0.05138 0.55163 0.75066
 C291 C 0.06072 0.56104 0.72833
 C292 C 0.07896 0.57923 0.72843
 H293 H 0.17363 0.68157 0.71152
 H294 H 0.18197 0.67353 0.78998
 H295 H 0.21309 0.70558 0.79034
 H296 H 0.20571 0.71260 0.71082
 H297 H 0.08592 0.58590 0.79051
 H298 H 0.05393 0.55401 0.79054
 H299 H 0.05394 0.55435 0.71079
 H300 H 0.08593 0.58624 0.71106
 C301 C -0.17132 0.69909 0.26004
 C302 C -0.17599 0.67604 0.24952
 C303 C -0.19897 0.67128 0.23901
 C304 C -0.21724 0.68948 0.23896
 C305 C -0.21296 0.71300 0.24951
 C306 C -0.18952 0.71736 0.26009
 C307 C -0.15720 0.65727 0.24951
 C308 C -0.14145 0.64155 0.24951
 C309 C -0.12301 0.62316 0.24952
 C310 C -0.10727 0.60745 0.24954
 C311 C -0.08847 0.58868 0.24956
 C312 C -0.07930 0.57953 0.22724
 C313 C -0.06105 0.56129 0.22722
 C314 C -0.05173 0.55195 0.24959
 C315 C -0.06108 0.56127 0.27194
 C316 C -0.07933 0.57952 0.27189
 H317 H -0.15348 0.70304 0.26806
 H318 H -0.20286 0.65338 0.23099
 H319 H -0.23501 0.68450 0.23146
 H320 H -0.18461 0.73517 0.26759
 H321 H -0.08625 0.58649 0.20984
 H322 H -0.05426 0.55451 0.20971
 H323 H -0.05431 0.55449 0.28946
 H324 H -0.08630 0.58647 0.28928
 C325 C -0.18697 0.31772 0.77200
 C326 C -0.17545 0.32443 0.74998
 C327 C -0.18221 0.31287 0.72799
 C328 C -0.20041 0.29465 0.72796
 C329 C -0.21240 0.28755 0.75004
 C330 C -0.20522 0.29955 0.77210
 C331 C -0.15669 0.34318 0.74995
 C332 C -0.14099 0.35889 0.74995
 C333 C -0.12261 0.37729 0.74998
 C334 C -0.10692 0.39301 0.75002
 C335 C -0.08818 0.41179 0.75009
 C336 C -0.07906 0.42085 0.77245
 C337 C -0.06087 0.43909 0.77255
 C338 C -0.05155 0.44852 0.75023
 C339 C -0.06085 0.43928 0.72784
 C340 C -0.07904 0.42103 0.72779
 H341 H -0.18171 0.32642 0.78920
 H342 H -0.17353 0.31808 0.71076
 H343 H -0.20562 0.28702 0.71029
 H344 H -0.21281 0.29439 0.78979
 H345 H -0.08601 0.41382 0.78982
 H346 H -0.05411 0.44580 0.79010
 H347 H -0.05408 0.44613 0.71034
 H348 H -0.08598 0.41415 0.71037
 C349 C 0.24489 0.20004 0.33037
 C350 C 0.25014 0.17551 0.32417
 C351 C 0.25542 0.16933 0.29967
 C352 C 0.25546 0.18759 0.28143
 C353 C 0.25019 0.21231 0.28747
 C354 C 0.24490 0.21833 0.31216
 C355 C 0.25010 0.15670 0.34293
 C356 C 0.25007 0.14095 0.35865
 C357 C 0.25004 0.12252 0.37707
 C358 C 0.25003 0.10678 0.39280
 C359 C 0.25003 0.08800 0.41160
 C360 C 0.22774 0.07889 0.42078
 C361 C 0.22772 0.06065 0.43904
 C362 C 0.25004 0.05126 0.44836
 C363 C 0.27236 0.06055 0.43899
 C364 C 0.27233 0.07879 0.42074
 H365 H 0.24084 0.20504 0.34929
 H366 H 0.25944 0.15039 0.29465
 H367 H 0.25929 0.18233 0.26255
 H368 H 0.24108 0.23723 0.31744
 H369 H 0.21038 0.08589 0.41384
 H370 H 0.21023 0.05391 0.44585
 H371 H 0.28985 0.05373 0.44576
 H372 H 0.28969 0.08571 0.41375
 C373 C 0.75515 0.20048 0.66931
 C374 C 0.75007 0.17593 0.67555
 C375 C 0.74505 0.16971 0.70010
 C376 C 0.74510 0.18795 0.71834
 C377 C 0.75019 0.21268 0.71226
 C378 C 0.75523 0.21874 0.68752
 C379 C 0.74999 0.15715 0.65678
 C380 C 0.74994 0.14140 0.64107
 C381 C 0.74989 0.12297 0.62268
 C382 C 0.74986 0.10722 0.60697
 C383 C 0.74984 0.08842 0.58822
 C384 C 0.77213 0.07920 0.57907
 C385 C 0.77213 0.06093 0.56085
 C386 C 0.74981 0.05164 0.55153
 C387 C 0.72750 0.06104 0.56086
 C388 C 0.72754 0.07930 0.57908
 H389 H 0.75900 0.20551 0.65035
 H390 H 0.74115 0.15076 0.70514
 H391 H 0.74146 0.18266 0.73726
 H392 H 0.75891 0.23766 0.68222
 H393 H 0.78950 0.08613 0.58601
 H394 H 0.78962 0.05411 0.55407
 H395 H 0.71000 0.05429 0.55409
 H396 H 0.71018 0.08631 0.58603
 C397 C 0.27213 -0.18732 0.68306
 C398 C 0.25005 -0.17603 0.67593
 C399 C 0.22792 -0.18307 0.68711
 C400 C 0.22783 -0.20135 0.70533
 C401 C 0.24993 -0.21283 0.71260
 C402 C 0.27209 -0.20559 0.70129
 C403 C 0.25010 -0.15724 0.65714
 C404 C 0.25012 -0.14151 0.64140
 C405 C 0.25012 -0.12310 0.62297
 C406 C 0.25010 -0.10738 0.60722
 C407 C 0.25010 -0.08861 0.58841
 C408 C 0.22780 -0.07941 0.57926
 C409 C 0.22776 -0.06118 0.56099
 C410 C 0.25008 -0.05190 0.55162
 C411 C 0.27240 -0.06127 0.56094
 C412 C 0.27238 -0.07950 0.57921
 H413 H 0.28936 -0.18205 0.67449
 H414 H 0.21073 -0.17439 0.68179
 H415 H 0.21054 -0.20627 0.71395
 H416 H 0.28934 -0.21429 0.70632
 H417 H 0.21044 -0.08633 0.58625
 H418 H 0.21027 -0.05437 0.55422
 H419 H 0.28989 -0.05453 0.55413
 H420 H 0.28975 -0.08650 0.58616
 C421 C 0.72771 -0.18693 0.31712
 C422 C 0.74976 -0.17559 0.32413
 C423 C 0.77185 -0.18248 0.31274
 C424 C 0.77191 -0.20062 0.29441
 C425 C 0.74983 -0.21210 0.28720
 C426 C 0.72772 -0.20507 0.29878
 C427 C 0.74973 -0.15688 0.34298
 C428 C 0.74970 -0.14120 0.35875
 C429 C 0.74969 -0.12283 0.37721
 C430 C 0.74968 -0.10713 0.39296
 C431 C 0.74969 -0.08837 0.41176
 C432 C 0.77199 -0.07926 0.42092
 C433 C 0.77203 -0.06102 0.43916
 C434 C 0.74971 -0.05164 0.44849
 C435 C 0.72739 -0.06093 0.43916
 C436 C 0.72741 -0.07917 0.42092
 H437 H 0.71051 -0.18179 0.32587
 H438 H 0.78903 -0.17379 0.31799
 H439 H 0.78917 -0.20548 0.28565
 H440 H 0.71048 -0.21382 0.29388
 H441 H 0.78935 -0.08626 0.41396
 H442 H 0.78952 -0.05428 0.44594
 H443 H 0.70990 -0.05411 0.44594
 H444 H 0.71004 -0.08609 0.41395
 C445 C 0.68620 0.77188 -0.18265
 C446 C 0.67525 0.74966 -0.17539
 C447 C 0.68260 0.72747 -0.18639
 C448 C 0.70084 0.72748 -0.20458
 C449 C 0.71196 0.74972 -0.21203
 C450 C 0.70443 0.77193 -0.20085
 C451 C 0.65647 0.74963 -0.15666
 C452 C 0.64076 0.74962 -0.14096
 C453 C 0.62236 0.74962 -0.12258
 C454 C 0.60665 0.74963 -0.10688
 C455 C 0.58790 0.74965 -0.08812
 C456 C 0.57875 0.77201 -0.07900
 C457 C 0.56054 0.77207 -0.06076
 C458 C 0.55125 0.74970 -0.05140
 C459 C 0.56058 0.72730 -0.06071
 C460 C 0.57878 0.72731 -0.07894
 H461 H 0.68069 0.78915 -0.17421
 H462 H 0.67420 0.71018 -0.18094
 H463 H 0.70605 0.71014 -0.21305
 H464 H 0.71288 0.78930 -0.20596
 H465 H 0.58568 0.78942 -0.08598
 H466 H 0.55377 0.78962 -0.05400
 H467 H 0.55383 0.70977 -0.05390
 H468 H 0.58574 0.70989 -0.08588
 C469 C 0.31386 0.22783 -0.18303
 C470 C 0.32473 0.25005 -0.17567
 C471 C 0.31729 0.27226 -0.18656
 C472 C 0.29904 0.27229 -0.20475
 C473 C 0.28800 0.25005 -0.21229
 C474 C 0.29562 0.22780 -0.20123
 C475 C 0.34350 0.25005 -0.15694
 C476 C 0.35922 0.25006 -0.14125
 C477 C 0.37762 0.25009 -0.12287
 C478 C 0.39333 0.25012 -0.10717
 C479 C 0.41207 0.25017 -0.08842
 C480 C 0.42116 0.27255 -0.07931
 C481 C 0.43938 0.27262 -0.06109
 C482 C 0.44875 0.25026 -0.05173
 C483 C 0.43948 0.22785 -0.06101
 C484 C 0.42127 0.22784 -0.07923
 H485 H 0.31945 0.21053 -0.17467
 H486 H 0.32563 0.28956 -0.18105
 H487 H 0.29380 0.28966 -0.21315
 H488 H 0.28726 0.21043 -0.20643
 H489 H 0.41417 0.28994 -0.08630
 H490 H 0.44611 0.29017 -0.05435
 H491 H 0.44629 0.21033 -0.05420
 H492 H 0.41436 0.21041 -0.08615
 C493 C 0.31760 0.77177 0.18735
 C494 C 0.32439 0.74977 0.17576
 C495 C 0.31289 0.72772 0.18242
 C496 C 0.29462 0.72759 0.20058
 C497 C 0.28742 0.74965 0.21262
 C498 C 0.29938 0.77177 0.20555
 C499 C 0.34317 0.74983 0.15703
 C500 C 0.35890 0.74987 0.14135
 C501 C 0.37730 0.74989 0.12297
 C502 C 0.39302 0.74989 0.10728
 C503 C 0.41177 0.74988 0.08853
 C504 C 0.42093 0.72751 0.07940
 C505 C 0.43914 0.72747 0.06117
 C506 C 0.44843 0.74984 0.05182
 C507 C 0.43910 0.77223 0.06113
 C508 C 0.42089 0.77222 0.07936
 H509 H 0.32627 0.78902 0.18217
 H510 H 0.31817 0.71051 0.17369
 H511 H 0.28704 0.70988 0.20571
 H512 H 0.29415 0.78944 0.21321
 H513 H 0.41399 0.71011 0.08637
 H514 H 0.44592 0.70992 0.05441
 H515 H 0.44585 0.78976 0.05433
 H516 H 0.41393 0.78964 0.08630
 C517 C 0.66952 0.24544 0.19982
 C518 C 0.67573 0.25043 0.17527
 C519 C 0.70022 0.25539 0.16901
 C520 C 0.71845 0.25539 0.18721
 C521 C 0.71240 0.25040 0.21195
 C522 C 0.68771 0.24541 0.21805
 C523 C 0.65698 0.25044 0.15651
 C524 C 0.64128 0.25046 0.14081
 C525 C 0.62289 0.25048 0.12243
 C526 C 0.60718 0.25048 0.10673
 C527 C 0.58842 0.25047 0.08798
 C528 C 0.57931 0.22811 0.07887
 C529 C 0.56109 0.22806 0.06066
 C530 C 0.55173 0.25043 0.05131
 C531 C 0.56102 0.27283 0.06059
 C532 C 0.57924 0.27282 0.07881
 H533 H 0.65060 0.24164 0.20488
 H534 H 0.70525 0.25921 0.15004
 H535 H 0.73733 0.25897 0.18189
 H536 H 0.68244 0.24180 0.23698
 H537 H 0.58629 0.21070 0.08585
 H538 H 0.55435 0.21051 0.05391
 H539 H 0.55422 0.29036 0.05380
 H540 H 0.58617 0.29024 0.08574
 C541 C -0.19876 0.67106 0.76126
 C542 C -0.17581 0.67583 0.75069
 C543 C -0.17118 0.69885 0.74009
 C544 C -0.18941 0.71709 0.73999
 C545 C -0.21284 0.71271 0.75059
 C546 C -0.21707 0.68922 0.76126
 C547 C -0.15701 0.65708 0.75071
 C548 C -0.14126 0.64137 0.75072
 C549 C -0.12284 0.62298 0.75071
 C550 C -0.10710 0.60726 0.75069
 C551 C -0.08832 0.58849 0.75065
 C552 C -0.07914 0.57942 0.72830
 C553 C -0.06091 0.56117 0.72823
 C554 C -0.05161 0.55174 0.75057
 C555 C -0.06097 0.56099 0.77295
 C556 C -0.07920 0.57924 0.77296
 H557 H -0.20261 0.65318 0.76935
 H558 H -0.15336 0.70281 0.73203
 H559 H -0.18453 0.73489 0.73241
 H560 H -0.23480 0.68422 0.76880
 H561 H -0.08608 0.58645 0.71092
 H562 H -0.05411 0.55446 0.71070
 H563 H -0.05421 0.55414 0.79046
 H564 H -0.08618 0.58614 0.79037
 C565 C -0.19985 0.33090 0.24460
 C566 C -0.17537 0.32459 0.24964
 C567 C -0.16918 0.30001 0.25468
 C568 C -0.18740 0.28180 0.25469
 C569 C -0.21207 0.28795 0.24963
 C570 C -0.21810 0.31272 0.24458
 C571 C -0.15661 0.34333 0.24964
 C572 C -0.14091 0.35904 0.24963
 C573 C -0.12254 0.37744 0.24962
 C574 C -0.10686 0.39316 0.24962
 C575 C -0.08815 0.41195 0.24961
 C576 C -0.07904 0.42110 0.27194
 C577 C -0.06086 0.43936 0.27197
 C578 C -0.05157 0.44871 0.24961
 C579 C -0.06086 0.43938 0.22725
 C580 C -0.07903 0.42112 0.22728
 H581 H -0.20486 0.34989 0.24075
 H582 H -0.15027 0.29491 0.25855
 H583 H -0.18214 0.26285 0.25834
 H584 H -0.23696 0.31808 0.24095
 H585 H -0.08597 0.41413 0.28934
 H586 H -0.05411 0.44614 0.28949
 H587 H -0.05410 0.44618 0.20973
 H588 H -0.08597 0.41416 0.20989
 C589 C 0.18655 0.31709 0.72785
 C590 C 0.17563 0.32443 0.75005
 C591 C 0.18306 0.31350 0.77223
 C592 C 0.20135 0.29531 0.77224
 C593 C 0.21245 0.28780 0.75002
 C594 C 0.20483 0.29889 0.72781
 C595 C 0.15681 0.34316 0.75007
 C596 C 0.14106 0.35886 0.75009
 C597 C 0.12263 0.37724 0.75012
 C598 C 0.10689 0.39295 0.75016
 C599 C 0.08811 0.41172 0.75021
 C600 C 0.07893 0.42079 0.77257
 C601 C 0.06070 0.43903 0.77264
 C602 C 0.05139 0.44846 0.75031
 C603 C 0.06074 0.43922 0.72793
 C604 C 0.07898 0.42097 0.72791
 H605 H 0.18098 0.32547 0.71057
 H606 H 0.17467 0.31899 0.78952
 H607 H 0.20658 0.28689 0.78959
 H608 H 0.21324 0.29371 0.71045
 H609 H 0.08587 0.41375 0.78994
 H610 H 0.05390 0.44575 0.79018
 H611 H 0.05398 0.44608 0.71042
 H612 H 0.08596 0.41408 0.71049
 C613 C 0.18681 0.68247 0.27187
 C614 C 0.17560 0.67547 0.24972
 C615 C 0.18275 0.68667 0.22759
 C616 C 0.20106 0.70478 0.22758
 C617 C 0.21247 0.71193 0.24975
 C618 C 0.20512 0.70059 0.27191
 C619 C 0.15676 0.65681 0.24970
 C620 C 0.14099 0.64118 0.24969
 C621 C 0.12253 0.62286 0.24967
 C622 C 0.10678 0.60721 0.24966
 C623 C 0.08798 0.58851 0.24965
 C624 C 0.07884 0.57939 0.22732
 C625 C 0.06060 0.56120 0.22728
 C626 C 0.05126 0.55188 0.24964
 C627 C 0.06058 0.56117 0.27200
 C628 C 0.07882 0.57937 0.27198
 H629 H 0.18145 0.67388 0.28910
 H630 H 0.17412 0.68144 0.21034
 H631 H 0.20607 0.71343 0.21028
 H632 H 0.21375 0.70553 0.28922
 H633 H 0.08581 0.58634 0.20993
 H634 H 0.05383 0.55444 0.20976
 H635 H 0.05380 0.55440 0.28952
 H636 H 0.08577 0.58630 0.28938
 C637 C 0.77188 -0.18278 0.68709
 C638 C 0.74974 -0.17563 0.67596
 C639 C 0.72765 -0.18677 0.68316
 C640 C 0.72766 -0.20499 0.70144
 C641 C 0.74982 -0.21231 0.71275
 C642 C 0.77194 -0.20100 0.70536
 C643 C 0.74970 -0.15688 0.65714
 C644 C 0.74968 -0.14117 0.64138
 C645 C 0.74967 -0.12278 0.62294
 C646 C 0.74967 -0.10707 0.60719
 C647 C 0.74969 -0.08830 0.58839
 C648 C 0.72740 -0.07910 0.57923
 C649 C 0.72739 -0.06086 0.56097
 C650 C 0.74972 -0.05158 0.55162
 C651 C 0.77203 -0.06097 0.56096
 C652 C 0.77199 -0.07921 0.57922
 H653 H 0.78908 -0.17424 0.68169
 H654 H 0.71041 -0.18142 0.67460
 H655 H 0.71039 -0.21357 0.70650
 H656 H 0.78924 -0.20605 0.71394
 H657 H 0.71003 -0.08601 0.58621
 H658 H 0.70990 -0.05404 0.55419
 H659 H 0.78953 -0.05424 0.55416
 H660 H 0.78934 -0.08621 0.58618
 C661 C 0.24490 -0.20059 0.33048
 C662 C 0.24990 -0.17601 0.32430
 C663 C 0.25494 -0.16971 0.29978
 C664 C 0.25500 -0.18790 0.28149
 C665 C 0.24999 -0.21266 0.28751
 C666 C 0.24492 -0.21881 0.31222
 C667 C 0.24988 -0.15727 0.34310
 C668 C 0.24987 -0.14157 0.35885
 C669 C 0.24988 -0.12318 0.37727
 C670 C 0.24989 -0.10747 0.39301
 C671 C 0.24991 -0.08870 0.41179
 C672 C 0.27222 -0.07958 0.42091
 C673 C 0.27228 -0.06133 0.43914
 C674 C 0.24997 -0.05195 0.44849
 C675 C 0.22764 -0.06125 0.43919
 C676 C 0.22764 -0.07950 0.42096
 H677 H 0.24103 -0.20568 0.34941
 H678 H 0.25878 -0.15073 0.29478
 H679 H 0.25866 -0.18256 0.26260
 H680 H 0.24130 -0.23775 0.31747
 H681 H 0.28957 -0.08657 0.41393
 H682 H 0.28978 -0.05458 0.44589
 H683 H 0.21015 -0.05443 0.44599
 H684 H 0.21026 -0.08643 0.41402
 C685 C 0.77216 0.18317 0.31340
 C686 C 0.74998 0.17578 0.32424
 C687 C 0.72784 0.18670 0.31675
 C688 C 0.72786 0.20494 0.29850
 C689 C 0.75007 0.21251 0.28749
 C690 C 0.77223 0.20141 0.29515
 C691 C 0.74993 0.15700 0.34302
 C692 C 0.74988 0.14126 0.35875
 C693 C 0.74984 0.12284 0.37716
 C694 C 0.74982 0.10710 0.39289
 C695 C 0.74981 0.08832 0.41167
 C696 C 0.72751 0.07921 0.42084
 C697 C 0.72748 0.06097 0.43909
 C698 C 0.74979 0.05158 0.44842
 C699 C 0.77212 0.06086 0.43907
 C700 C 0.77210 0.07911 0.42082
 H701 H 0.78940 0.17478 0.31901
 H702 H 0.71056 0.18116 0.32507
 H703 H 0.71054 0.21335 0.29322
 H704 H 0.78958 0.20662 0.28681
 H705 H 0.71015 0.08622 0.41388
 H706 H 0.70998 0.05423 0.44588
 H707 H 0.78960 0.05404 0.44585
 H708 H 0.78947 0.08603 0.41385
 C709 C 0.24511 0.20008 0.66930
 C710 C 0.25032 0.17555 0.67550
 C711 C 0.25555 0.16932 0.70000
 C712 C 0.25556 0.18754 0.71825
 C713 C 0.25032 0.21227 0.71221
 C714 C 0.24509 0.21834 0.68752
 C715 C 0.25030 0.15676 0.65674
 C716 C 0.25027 0.14104 0.64102
 C717 C 0.25022 0.12262 0.62262
 C718 C 0.25019 0.10688 0.60691
 C719 C 0.25017 0.08808 0.58816
 C720 C 0.27245 0.07888 0.57900
 C721 C 0.27245 0.06062 0.56078
 C722 C 0.25012 0.05132 0.55148
 C723 C 0.22781 0.06070 0.56082
 C724 C 0.22786 0.07896 0.57904
 H725 H 0.24110 0.20512 0.65037
 H726 H 0.25954 0.15036 0.70502
 H727 H 0.25934 0.18225 0.73714
 H728 H 0.24130 0.23726 0.68224
 H729 H 0.28982 0.08582 0.58593
 H730 H 0.28994 0.05380 0.55399
 H731 H 0.21031 0.05394 0.55407
 H732 H 0.21051 0.08596 0.58601
   
