data_POSCAR
  _audit_creation_date              2014-09-24
  _audit_creation_method            'ToBaCCo'
  _symmetry_space_group_name_H-M    'P1'
  _symmetry_Int_Tables_number       1
  _symmetry_cell_setting            triclinic
  loop_
  _symmetry_equiv_pos_as_xyz
 x,y,z
_cell_length_a 15.2016
_cell_length_b 15.2058
_cell_length_c 16.6641
_cell_angle_alpha 90.938500
_cell_angle_beta 89.637700
_cell_angle_gamma 90.400200
loop_
  _atom_site_label
  _atom_site_type_symbol
  _atom_site_fract_x
  _atom_site_fract_y
  _atom_site_fract_z
O1 O 0.38656 0.98184 -0.57698
 O2 O 0.54105 0.89588 -0.42817
 O3 O 0.39404 0.98327 -0.42122
 O4 O 0.53092 0.89042 -0.58452
 O5 O 0.61039 1.01252 -0.58720
 O6 O 0.47317 1.10564 -0.42377
 O7 O 0.61925 1.01872 -0.43112
 O8 O 0.46508 1.10453 -0.58007
 Cu9 Cu 0.45563 0.92535 -0.50237
 Cu10 Cu 0.54959 1.07281 -0.50630
 C11 C 0.39976 1.05853 -0.60364
 C12 C 0.60572 0.94247 -0.40369
 C13 C 0.41065 1.06016 -0.39446
 C14 C 0.59378 0.93541 -0.61365
 O15 O -0.60348 1.47977 0.09584
 O16 O -0.37181 1.52994 0.05337
 O17 O -0.50252 1.62315 0.07192
 O18 O -0.45457 1.38708 0.06393
 O19 O -0.49608 1.37823 -0.06303
 O20 O -0.56093 1.60929 -0.04853
 O21 O -0.40204 1.52486 -0.07629
 O22 O -0.62961 1.45679 -0.03304
 Cu23 Cu -0.48402 1.50419 0.08515
 Cu24 Cu -0.52181 1.49568 -0.06918
 C25 C -0.65495 1.45631 0.03958
 C26 C -0.34810 1.53738 -0.01910
 C27 C -0.54239 1.65599 0.01303
 C28 C -0.46511 1.34314 -0.00098
 O29 O -0.10541 0.46094 0.42746
 O30 O -0.00964 0.61849 0.57336
 O31 O -0.01886 0.60897 0.41744
 O32 O -0.10018 0.47254 0.58348
 O33 O 0.02251 0.39555 0.58122
 O34 O 0.10388 0.53203 0.41481
 O35 O 0.11342 0.54218 0.57098
 O36 O 0.01777 0.38463 0.42553
 Cu37 Cu -0.07098 0.54770 0.50081
 Cu38 Cu 0.07697 0.45630 0.49816
 C39 C -0.06015 0.39638 0.40145
 C40 C 0.06861 0.60699 0.59701
 C41 C 0.05640 0.59308 0.38747
 C42 C -0.05333 0.41088 0.61040
 O43 O -0.20512 0.91943 -0.11924
 O44 O 0.21536 1.08886 -0.10195
 O45 O -0.03577 1.12360 -0.20496
 O46 O 0.05145 0.90023 -0.21696
 O47 O 0.09409 0.79970 -0.12245
 O48 O -0.08225 1.21379 -0.10033
 O49 O 0.12214 1.04971 -0.20569
 O50 O -0.10696 0.96996 -0.21476
 Zr51 Zr 0.00541 1.00813 -0.14632
 O52 O 0.10684 0.96024 -0.07786
 O53 O -0.10017 1.04776 -0.07622
 C54 C -0.18154 0.93512 -0.19247
 C55 C 0.19637 1.07917 -0.17727
 C56 C -0.06945 1.19583 -0.17585
 C57 C 0.08510 0.82589 -0.19548
 H58 H 0.07038 1.15874 -0.09927
 O59 O 0.04782 1.10742 -0.06957
 H60 H -0.06005 0.85450 -0.12074
 O61 O -0.04041 0.90162 -0.08334
 O62 O 0.20502 1.08513 0.11273
 O63 O -0.21044 0.90619 0.09525
 O64 O 0.02627 1.25314 0.02163
 O65 O 0.19525 0.83685 -0.01330
 O66 O -0.02406 0.74533 -0.02200
 O67 O -0.19205 1.16316 0.00112
 O68 O -0.04436 1.10237 0.20898
 O69 O 0.03440 0.87443 0.19686
 O70 O -0.08678 1.20295 0.11443
 O71 O 0.08112 0.78405 0.09240
 O72 O 0.16537 1.19370 0.01532
 O73 O -0.25284 1.02426 -0.01099
 O74 O -0.16273 0.80567 -0.01432
 O75 O 0.25566 0.97570 0.00141
 O76 O 0.10689 1.03472 0.20824
 O77 O -0.11734 0.94559 0.19903
 Zr78 Zr 0.14400 1.05755 0.00238
 Zr79 Zr -0.14136 0.94214 -0.00938
 Zr80 Zr -0.05577 1.14217 0.00388
 Zr81 Zr 0.05853 0.85742 -0.01154
 Zr82 Zr -0.00295 0.99185 0.13904
 O83 O -0.04514 0.89181 0.06272
 O84 O 0.04321 1.09864 0.07639
 C85 C 0.18056 1.07133 0.18603
 C86 C -0.19075 0.91414 0.17062
 C87 C 0.11117 1.25828 0.02535
 C88 C 0.26098 0.89085 -0.00529
 C89 C -0.10923 0.74010 -0.02087
 C90 C -0.25789 1.10924 -0.00598
 C91 C -0.07604 1.17762 0.18749
 C92 C 0.06662 0.80149 0.16777
 H93 H -0.15366 1.05828 0.10378
 O94 O -0.10342 1.03933 0.06994
 H95 H 0.14937 0.93003 0.10250
 O96 O 0.10168 0.95232 0.06847
 C97 C 0.33992 1.09403 0.33615
 C98 C 0.35064 1.17549 0.30211
 C99 C 0.28840 1.17911 0.24398
 C100 C 0.24348 1.10016 0.24756
 O101 O 0.27466 1.04800 0.30330
 H102 H 0.40037 1.22469 0.31574
 H103 H 0.27895 1.23150 0.20172
 C104 C -0.35342 0.89852 0.31982
 C105 C -0.37653 0.82408 0.27622
 C106 C -0.31607 0.81821 0.21568
 C107 C -0.25970 0.88855 0.22778
 O108 O -0.28232 0.93776 0.29070
 H109 H -0.43297 0.78154 0.28538
 H110 H -0.31460 0.77006 0.16712
 C111 C -0.33919 0.91032 -0.34456
 C112 C -0.35088 0.82976 -0.30885
 C113 C -0.29007 0.82767 -0.24948
 C114 C -0.24480 0.90637 -0.25390
 O115 O -0.27424 0.95699 -0.31163
 H116 H -0.40023 0.78008 -0.32228
 H117 H -0.28144 0.77619 -0.20614
 C118 C 0.35843 1.09597 -0.32718
 C119 C 0.38210 1.16962 -0.28275
 C120 C 0.32230 1.17444 -0.22167
 C121 C 0.26579 1.10427 -0.23418
 O122 O 0.28763 1.05616 -0.29800
 H123 H 0.43838 1.21237 -0.29188
 H124 H 0.32110 1.22206 -0.17267
 C125 C 0.26175 1.42429 0.05697
 C126 C 0.22045 1.42949 0.13080
 C127 C 0.14782 1.37671 0.12368
 C128 C 0.15158 1.34232 0.04662
 O129 O 0.22016 1.37162 0.00611
 H130 H 0.24382 1.46244 0.18462
 H131 H 0.10398 1.35700 0.17169
 C132 C 0.43002 0.74266 0.01741
 C133 C 0.45913 0.80490 0.07257
 C134 C 0.40559 0.87559 0.06298
 C135 C 0.34678 0.85000 0.00422
 O136 O 0.36228 0.77002 -0.02416
 H137 H 0.51014 0.79793 0.11698
 H138 H 0.40346 0.93446 0.10035
 C139 C -0.25918 0.56885 -0.03510
 C140 C -0.20270 0.53814 -0.09396
 C141 C -0.13152 0.59380 -0.09074
 C142 C -0.15172 0.65455 -0.03110
 O143 O -0.22876 0.63927 0.00247
 H144 H -0.21373 0.48422 -0.13581
 H145 H -0.07578 0.59474 -0.13147
 C146 C -0.43454 1.25268 -0.00613
 C147 C -0.47644 1.18422 -0.04599
 C148 C -0.41762 1.11650 -0.04621
 C149 C -0.34419 1.15038 -0.00819
 O150 O -0.35461 1.23245 0.01635
 H151 H -0.54040 1.18487 -0.07411
 H152 H -0.42495 1.05274 -0.07531
 C153 C -0.09738 1.33606 0.34080
 C154 C -0.17894 1.34647 0.30663
 C155 C -0.18316 1.28456 0.24685
 C156 C -0.10449 1.24020 0.24988
 O157 O -0.05193 1.27141 0.30661
 H158 H -0.22756 1.39604 0.32102
 H159 H -0.23568 1.27501 0.20394
 C160 C -0.08714 1.35780 -0.32290
 C161 C -0.16264 1.37766 -0.28020
 C162 C -0.16692 1.31764 -0.22056
 C163 C -0.09452 1.26471 -0.23196
 O164 O -0.04563 1.28886 -0.29400
 H165 H -0.20756 1.43131 -0.28990
 H166 H -0.21600 1.31371 -0.17337
 C167 C 0.10482 0.66491 -0.34645
 C168 C 0.18746 0.65607 -0.31368
 C169 C 0.19271 0.71965 -0.25537
 C170 C 0.11380 0.76358 -0.25798
 O171 O 0.06009 0.73053 -0.31300
 H172 H 0.23622 0.60655 -0.32785
 H173 H 0.24597 0.73036 -0.21343
 C174 C 0.08826 0.64414 0.31875
 C175 C 0.16268 0.62309 0.27505
 C176 C 0.16444 0.68007 0.21293
 C177 C 0.09183 0.73285 0.22413
 O178 O 0.04516 0.71130 0.28835
 H179 H 0.20881 0.57095 0.28627
 H180 H 0.21258 0.68271 0.16484
   
