data_POSCAR
  _audit_creation_date              2014-09-24
  _audit_creation_method            'ToBaCCo'
  _symmetry_space_group_name_H-M    'P1'
  _symmetry_Int_Tables_number       1
  _symmetry_cell_setting            triclinic
  loop_
  _symmetry_equiv_pos_as_xyz
 x,y,z
_cell_length_a 43.7920
_cell_length_b 43.7970
_cell_length_c 45.1019
_cell_angle_alpha 89.963500
_cell_angle_beta 89.965200
_cell_angle_gamma 89.967700
loop_
  _atom_site_label
  _atom_site_type_symbol
  _atom_site_fract_x
  _atom_site_fract_y
  _atom_site_fract_z
C1 C -0.06516 0.31166 -0.02718
 C2 C -0.08078 0.31138 -0.00016
 C3 C -0.06506 0.31171 0.02679
 C4 C -0.03275 0.31266 0.02699
 C5 C -0.01661 0.31302 -0.00032
 C6 C -0.03285 0.31259 -0.02755
 C7 C -0.01635 0.31264 -0.05434
 C8 C 0.01543 0.31264 -0.05441
 C9 C 0.03201 0.31261 -0.02769
 C10 C 0.01584 0.31304 -0.00040
 C11 C -0.01614 0.31280 0.05370
 C12 C 0.01564 0.31283 0.05361
 C13 C 0.03207 0.31273 0.02682
 C14 C 0.06432 0.31185 0.02650
 C15 C 0.08000 0.31148 -0.00046
 C16 C 0.06433 0.31170 -0.02744
 H17 H -0.02792 0.31249 -0.07555
 H18 H 0.02695 0.31250 -0.07566
 H19 H -0.02763 0.31271 0.07497
 H20 H 0.02726 0.31277 0.07479
 H21 H -0.10557 0.31013 -0.00010
 H22 H 0.10477 0.31024 -0.00037
 C23 C 0.56427 0.81388 0.52691
 C24 C 0.57998 0.81362 0.49996
 C25 C 0.56435 0.81392 0.47298
 C26 C 0.53209 0.81475 0.47266
 C27 C 0.51587 0.81510 0.49990
 C28 C 0.53201 0.81474 0.52717
 C29 C 0.51548 0.81475 0.55391
 C30 C 0.48368 0.81468 0.55388
 C31 C 0.46723 0.81458 0.52711
 C32 C 0.48345 0.81501 0.49987
 C33 C 0.51564 0.81475 0.44589
 C34 C 0.48384 0.81464 0.44586
 C35 C 0.46731 0.81455 0.47260
 C36 C 0.43506 0.81351 0.47286
 C37 C 0.41935 0.81318 0.49981
 C38 C 0.43498 0.81357 0.52679
 H39 H 0.52702 0.81464 0.57513
 H40 H 0.47206 0.81452 0.57508
 H41 H 0.52725 0.81465 0.42469
 H42 H 0.47230 0.81447 0.42464
 H43 H 0.60475 0.81239 0.49998
 H44 H 0.39459 0.81181 0.49979
 C45 C 0.93634 0.68709 -0.02714
 C46 C 0.92059 0.68736 -0.00022
 C47 C 0.93618 0.68703 0.02677
 C48 C 0.96843 0.68616 0.02714
 C49 C 0.98472 0.68582 -0.00007
 C50 C 0.96860 0.68620 -0.02735
 C51 C 0.98514 0.68616 -0.05407
 C52 C 1.01693 0.68621 -0.05402
 C53 C 1.03342 0.68632 -0.02723
 C54 C 1.01716 0.68589 0.00001
 C55 C 0.98481 0.68612 0.05393
 C56 C 1.01660 0.68619 0.05403
 C57 C 1.03325 0.68632 0.02732
 C58 C 1.06556 0.68733 0.02711
 C59 C 1.08131 0.68766 0.00016
 C60 C 1.06572 0.68731 -0.02687
 H61 H 0.97361 0.68627 -0.07530
 H62 H 1.02852 0.68635 -0.07523
 H63 H 0.97315 0.68620 0.07511
 H64 H 1.02806 0.68632 0.07530
 H65 H 0.89583 0.68862 -0.00027
 H66 H 1.10610 0.68896 0.00021
 C67 C 0.56505 0.18704 0.52707
 C68 C 0.58067 0.18740 0.50007
 C69 C 0.56495 0.18712 0.47314
 C70 C 0.53270 0.18617 0.47292
 C71 C 0.51656 0.18575 0.50022
 C72 C 0.53279 0.18613 0.52743
 C73 C 0.51635 0.18606 0.55423
 C74 C 0.48455 0.18607 0.55430
 C75 C 0.46801 0.18614 0.52759
 C76 C 0.48414 0.18574 0.50029
 C77 C 0.51616 0.18612 0.44621
 C78 C 0.48436 0.18609 0.44628
 C79 C 0.46791 0.18613 0.47308
 C80 C 0.43566 0.18702 0.47344
 C81 C 0.42003 0.18736 0.50044
 C82 C 0.43575 0.18707 0.52737
 H83 H 0.52797 0.18618 0.57541
 H84 H 0.47301 0.18620 0.57554
 H85 H 0.52770 0.18626 0.42497
 H86 H 0.47274 0.18622 0.42510
 H87 H 0.60543 0.18868 0.50001
 H88 H 0.39527 0.18863 0.50049
 C89 C 0.68834 -0.06506 0.02667
 C90 C 0.68865 -0.08079 -0.00028
 C91 C 0.68836 -0.06517 -0.02731
 C92 C 0.68745 -0.03287 -0.02768
 C93 C 0.68704 -0.01662 -0.00045
 C94 C 0.68741 -0.03276 0.02686
 C95 C 0.68728 -0.01614 0.05357
 C96 C 0.68726 0.01564 0.05347
 C97 C 0.68736 0.03205 0.02668
 C98 C 0.68702 0.01582 -0.00054
 C99 C 0.68739 -0.01637 -0.05447
 C100 C 0.68740 0.01541 -0.05455
 C101 C 0.68745 0.03199 -0.02783
 C102 C 0.68838 0.06430 -0.02759
 C103 C 0.68862 0.07997 -0.00061
 C104 C 0.68825 0.06430 0.02635
 H105 H 0.68738 -0.02763 0.07484
 H106 H 0.68733 0.02725 0.07465
 H107 H 0.68751 -0.02794 -0.07568
 H108 H 0.68753 0.02692 -0.07580
 H109 H 0.68989 -0.10558 -0.00022
 H110 H 0.68987 0.10474 -0.00053
 C111 C 0.18636 0.43497 0.47318
 C112 C 0.18665 0.41924 0.50013
 C113 C 0.18631 0.43486 0.52711
 C114 C 0.18539 0.46711 0.52745
 C115 C 0.18501 0.48334 0.50022
 C116 C 0.18542 0.46722 0.47294
 C117 C 0.18537 0.48376 0.44621
 C118 C 0.18536 0.51556 0.44625
 C119 C 0.18542 0.53199 0.47303
 C120 C 0.18502 0.51576 0.50026
 C121 C 0.18534 0.48354 0.55423
 C122 C 0.18537 0.51534 0.55427
 C123 C 0.18544 0.53188 0.52754
 C124 C 0.18640 0.56413 0.52730
 C125 C 0.18670 0.57986 0.50035
 C126 C 0.18635 0.56424 0.47337
 H127 H 0.18551 0.47223 0.42498
 H128 H 0.18549 0.52718 0.42506
 H129 H 0.18546 0.47192 0.57542
 H130 H 0.18551 0.52687 0.57550
 H131 H 0.18794 0.39448 0.50010
 H132 H 0.18800 0.60461 0.50038
 C133 C 0.31272 1.06548 0.02733
 C134 C 0.31242 1.08124 0.00038
 C135 C 0.31272 1.06565 -0.02665
 C136 C 0.31365 1.03335 -0.02702
 C137 C 0.31406 1.01709 0.00022
 C138 C 0.31366 1.03318 0.02753
 C139 C 0.31375 1.01652 0.05424
 C140 C 0.31376 0.98474 0.05414
 C141 C 0.31368 0.96837 0.02734
 C142 C 0.31406 0.98465 0.00013
 C143 C 0.31372 1.01687 -0.05381
 C144 C 0.31371 0.98509 -0.05387
 C145 C 0.31365 0.96854 -0.02715
 C146 C 0.31271 0.93629 -0.02695
 C147 C 0.31240 0.92053 -0.00002
 C148 C 0.31275 0.93612 0.02697
 H149 H 0.31364 1.02797 0.07551
 H150 H 0.31365 0.97308 0.07531
 H151 H 0.31360 1.02846 -0.07502
 H152 H 0.31358 0.97356 -0.07510
 H153 H 0.31116 1.10603 0.00044
 H154 H 0.31111 0.89578 -0.00008
 C155 C 0.81275 0.56476 0.52682
 C156 C 0.81238 0.58041 0.49983
 C157 C 0.81272 0.56471 0.47289
 C158 C 0.81373 0.53246 0.47266
 C159 C 0.81417 0.51631 0.49994
 C160 C 0.81374 0.53252 0.52717
 C161 C 0.81383 0.51606 0.55395
 C162 C 0.81389 0.48426 0.55401
 C163 C 0.81388 0.46774 0.52728
 C164 C 0.81425 0.48389 0.50000
 C165 C 0.81383 0.51594 0.44593
 C166 C 0.81392 0.48414 0.44599
 C167 C 0.81391 0.46768 0.47277
 C168 C 0.81307 0.43543 0.47312
 C169 C 0.81276 0.41979 0.50011
 C170 C 0.81302 0.43549 0.52705
 H171 H 0.81368 0.52766 0.57514
 H172 H 0.81378 0.47271 0.57524
 H173 H 0.81367 0.52750 0.42470
 H174 H 0.81383 0.47254 0.42480
 H175 H 0.81104 0.60516 0.49980
 H176 H 0.81155 0.39503 0.50015
 O177 O 0.23838 0.27968 0.21419
 O178 O 0.29507 0.25260 0.26847
 O179 O 0.28035 0.23784 0.21416
 O180 O 0.25310 0.29443 0.26848
 O181 O 0.21971 0.26093 0.28565
 O182 O 0.24695 0.20434 0.23133
 O183 O 0.26168 0.21909 0.28564
 O184 O 0.20499 0.24617 0.23136
 Cu185 Cu 0.27010 0.26951 0.23960
 Cu186 Cu 0.22997 0.22925 0.26023
 C187 C 0.21223 0.26728 0.21341
 C188 C 0.28783 0.23150 0.28643
 C189 C 0.26802 0.21165 0.21337
 C190 C 0.23202 0.28713 0.28643
 O191 O 0.75328 0.79576 0.23087
 O192 O 0.78007 0.73905 0.28533
 O193 O 0.79503 0.75371 0.23105
 O194 O 0.73834 0.78113 0.28520
 O195 O 0.70481 0.74779 0.26804
 O196 O 0.76150 0.72037 0.21389
 O197 O 0.74655 0.70572 0.26817
 O198 O 0.71975 0.76242 0.21372
 Cu199 Cu 0.77006 0.77078 0.25984
 Cu200 Cu 0.72976 0.73072 0.23923
 C201 C 0.73222 0.78855 0.21289
 C202 C 0.76763 0.71292 0.28613
 C203 C 0.78773 0.73262 0.21314
 C204 C 0.71212 0.76886 0.28597
 O205 O 0.79583 0.24670 0.23103
 O206 O 0.73912 0.21974 0.28540
 O207 O 0.75389 0.20489 0.23113
 O208 O 0.78107 0.26155 0.28533
 O209 O 0.74766 0.29504 0.26813
 O210 O 0.72048 0.23838 0.21392
 O211 O 0.70571 0.25323 0.26820
 O212 O 0.76243 0.28019 0.21383
 Cu213 Cu 0.77085 0.22985 0.25996
 Cu214 Cu 0.73070 0.27009 0.23929
 C215 C 0.78859 0.26776 0.21304
 C216 C 0.71295 0.23215 0.28618
 C217 C 0.73282 0.21218 0.21318
 C218 C 0.76872 0.28774 0.28609
 O219 O 0.25242 0.70474 0.26838
 O220 O 0.27965 0.76143 0.21414
 O221 O 0.29432 0.74661 0.26843
 O222 O 0.23776 0.71956 0.21405
 O223 O 0.20427 0.75301 0.23117
 O224 O 0.26083 0.78006 0.28556
 O225 O 0.24616 0.79488 0.23127
 O226 O 0.21893 0.73819 0.28550
 Cu227 Cu 0.26941 0.72971 0.23953
 Cu228 Cu 0.22916 0.76990 0.26010
 C229 C 0.23130 0.71201 0.28631
 C230 C 0.26729 0.78762 0.21336
 C231 C 0.28702 0.76770 0.28636
 C232 C 0.21159 0.73194 0.21322
 O233 O 0.78089 0.26123 0.71474
 O234 O 0.75395 0.20435 0.76896
 O235 O 0.73912 0.21924 0.71470
 O236 O 0.79570 0.24635 0.76902
 O237 O 0.76214 0.27967 0.78626
 O238 O 0.70557 0.25255 0.73195
 O239 O 0.72039 0.23766 0.78621
 O240 O 0.74733 0.29454 0.73199
 Cu241 Cu 0.77080 0.22943 0.74011
 Cu242 Cu 0.73047 0.26947 0.76084
 C243 C 0.76843 0.28738 0.71401
 C244 C 0.73285 0.21151 0.78694
 C245 C 0.71290 0.23154 0.71396
 C246 C 0.78836 0.26736 0.78702
 O247 O 0.29456 0.74702 0.73164
 O248 O 0.23816 0.71976 0.78616
 O249 O 0.25283 0.70497 0.73183
 O250 O 0.27985 0.76182 0.78594
 O251 O 0.24621 0.79512 0.76880
 O252 O 0.21919 0.73827 0.71471
 O253 O 0.20451 0.75306 0.76903
 O254 O 0.26091 0.78031 0.71451
 Cu255 Cu 0.26974 0.73003 0.76062
 Cu256 Cu 0.22931 0.77004 0.74003
 C257 C 0.28715 0.76805 0.71369
 C258 C 0.21193 0.73204 0.78700
 C259 C 0.23167 0.71213 0.71393
 C260 C 0.26738 0.78796 0.78670
 O261 O 0.25254 0.29457 0.73210
 O262 O 0.27996 0.23815 0.78652
 O263 O 0.29471 0.25293 0.73219
 O264 O 0.23777 0.27977 0.78640
 O265 O 0.20457 0.24610 0.76927
 O266 O 0.26151 0.21926 0.71507
 O267 O 0.24675 0.20448 0.76939
 O268 O 0.21934 0.26090 0.71496
 Cu269 Cu 0.26960 0.26975 0.76103
 Cu270 Cu 0.22969 0.22928 0.74044
 C271 C 0.23154 0.28715 0.71414
 C272 C 0.26775 0.21191 0.78734
 C273 C 0.28761 0.23178 0.71427
 C274 C 0.21167 0.26725 0.78718
 O275 O 0.73839 0.78097 0.71441
 O276 O 0.79521 0.75376 0.76851
 O277 O 0.78028 0.73905 0.71427
 O278 O 0.75331 0.79566 0.76869
 O279 O 0.71990 0.76221 0.78594
 O280 O 0.74687 0.70560 0.73154
 O281 O 0.76181 0.72031 0.78577
 O282 O 0.70498 0.74752 0.73166
 Cu283 Cu 0.77016 0.77074 0.73973
 Cu284 Cu 0.73002 0.73054 0.76047
 C285 C 0.71221 0.76862 0.71370
 C286 C 0.78800 0.73265 0.78647
 C287 C 0.76791 0.71288 0.71353
 C288 C 0.73228 0.78837 0.78671
 C289 C 0.30305 0.11960 0.14891
 C290 C 0.27899 0.10954 0.12567
 C291 C 0.30191 0.11680 0.10085
 C292 C 0.32610 0.12653 0.12363
 C293 C 0.29104 0.15248 0.14656
 C294 C 0.31396 0.15975 0.12173
 C295 C 0.26692 0.14270 0.12373
 C296 C 0.28991 0.14969 0.09859
 C297 C 0.30698 0.09752 0.07479
 C298 C 0.31014 0.08222 0.05280
 C299 C 0.28399 0.17294 0.17132
 C300 C 0.27721 0.19034 0.19095
 H301 H 0.30838 0.10747 0.16989
 H302 H 0.26468 0.08867 0.12700
 H303 H 0.35049 0.11965 0.12327
 H304 H 0.32827 0.18062 0.12039
 H305 H 0.24251 0.14955 0.12402
 H306 H 0.28455 0.16186 0.07763
 C307 C 0.77350 0.65468 0.61736
 C308 C 0.80428 0.65248 0.60065
 C309 C 0.80174 0.61750 0.60143
 C310 C 0.77103 0.61945 0.61780
 C311 C 0.79086 0.65345 0.64693
 C312 C 0.78831 0.61848 0.64775
 C313 C 0.82159 0.65154 0.63058
 C314 C 0.81916 0.61619 0.63097
 C315 C 0.80684 0.59805 0.57551
 C316 C 0.81005 0.58260 0.55363
 C317 C 0.78382 0.67404 0.67158
 C318 C 0.77706 0.69151 0.69114
 H319 H 0.75465 0.67072 0.61200
 H320 H 0.81090 0.66625 0.58100
 H321 H 0.75029 0.60605 0.61227
 H322 H 0.78167 0.60473 0.66741
 H323 H 0.84231 0.66496 0.63613
 H324 H 0.83800 0.60012 0.63624
 C325 C 0.68465 0.84212 0.12270
 C326 C 0.67551 0.87628 0.12458
 C327 C 0.69895 0.88353 0.10022
 C328 C 0.70798 0.84971 0.09796
 C329 C 0.70962 0.84781 0.14597
 C330 C 0.73300 0.85512 0.12156
 C331 C 0.70060 0.88163 0.14830
 C332 C 0.72391 0.88921 0.12348
 C333 C 0.69398 0.90284 0.07414
 C334 C 0.69087 0.91816 0.05214
 C335 C 0.71654 0.82732 0.17076
 C336 C 0.72319 0.80990 0.19042
 H337 H 0.66858 0.82253 0.12265
 H338 H 0.65180 0.88522 0.12550
 H339 H 0.71096 0.83678 0.07699
 H340 H 0.75672 0.84621 0.12056
 H341 H 0.69764 0.89452 0.16929
 H342 H 0.74000 0.90879 0.12352
 C343 C 0.21349 0.38103 0.64727
 C344 C 0.22877 0.37820 0.61641
 C345 C 0.19734 0.38216 0.60180
 C346 C 0.18191 0.38532 0.63225
 C347 C 0.20831 0.34634 0.64740
 C348 C 0.17685 0.35026 0.63282
 C349 C 0.22368 0.34326 0.61691
 C350 C 0.19217 0.34747 0.60196
 C351 C 0.19222 0.40157 0.57583
 C352 C 0.18900 0.41700 0.55393
 C353 C 0.21542 0.32583 0.67211
 C354 C 0.22226 0.30843 0.69172
 H355 H 0.22233 0.39460 0.66619
 H356 H 0.25007 0.38989 0.60939
 H357 H 0.16468 0.40286 0.63823
 H358 H 0.15557 0.33854 0.63986
 H359 H 0.24093 0.32576 0.61085
 H360 H 0.18335 0.33388 0.58304
 C361 C 0.83647 0.29568 0.11430
 C362 C 0.85864 0.32307 0.11143
 C363 C 0.88354 0.30113 0.10035
 C364 C 0.86164 0.27386 0.10287
 C365 C 0.84784 0.29044 0.14612
 C366 C 0.87275 0.26852 0.13502
 C367 C 0.86972 0.31774 0.14369
 C368 C 0.89497 0.29589 0.13215
 C369 C 0.90284 0.30609 0.07427
 C370 C 0.91817 0.30919 0.05226
 C371 C 0.82736 0.28351 0.17093
 C372 C 0.80994 0.27684 0.19058
 H373 H 0.81220 0.29552 0.10721
 H374 H 0.85306 0.34555 0.10143
 H375 H 0.85850 0.25586 0.08583
 H376 H 0.87835 0.24602 0.14498
 H377 H 0.87280 0.33571 0.16077
 H378 H 0.91927 0.29605 0.13917
 C379 C 0.33738 0.81083 0.62006
 C380 C 0.36875 0.82713 0.62172
 C381 C 0.38228 0.80240 0.60145
 C382 C 0.35123 0.78623 0.59942
 C383 C 0.34640 0.79132 0.64699
 C384 C 0.35997 0.76665 0.62667
 C385 C 0.37744 0.80750 0.64911
 C386 C 0.39131 0.78289 0.62837
 C387 C 0.40170 0.80757 0.57550
 C388 C 0.41714 0.81083 0.55361
 C389 C 0.32586 0.78417 0.67167
 C390 C 0.30845 0.77732 0.69126
 H391 H 0.31497 0.82225 0.61691
 H392 H 0.37260 0.85207 0.61938
 H393 H 0.34065 0.77754 0.57872
 H394 H 0.35615 0.74170 0.62895
 H395 H 0.38798 0.81616 0.66984
 H396 H 0.41372 0.77146 0.63149
 C397 C 0.12245 0.72602 0.14002
 C398 C 0.13206 0.72907 0.10713
 C399 C 0.11685 0.69819 0.10063
 C400 C 0.10692 0.69502 0.13317
 C401 C 0.15247 0.70906 0.14636
 C402 C 0.13730 0.67814 0.13994
 C403 C 0.16232 0.71220 0.11380
 C404 C 0.14686 0.68122 0.10696
 C405 C 0.09759 0.69312 0.07457
 C406 C 0.08230 0.68994 0.05257
 C407 C 0.17291 0.71607 0.17114
 C408 C 0.19029 0.72281 0.19078
 H409 H 0.11263 0.74452 0.15389
 H410 H 0.12971 0.74997 0.09337
 H411 H 0.08390 0.68789 0.14080
 H412 H 0.13968 0.65727 0.15373
 H413 H 0.18531 0.71934 0.10608
 H414 H 0.15668 0.66274 0.09307
 C415 C 0.62358 0.22567 0.64108
 C416 C 0.63304 0.22871 0.60815
 C417 C 0.61775 0.19786 0.60171
 C418 C 0.60796 0.19470 0.63429
 C419 C 0.65360 0.20865 0.64728
 C420 C 0.63834 0.17776 0.64092
 C421 C 0.66330 0.21179 0.61468
 C422 C 0.64776 0.18083 0.60790
 C423 C 0.59833 0.19283 0.57575
 C424 C 0.58290 0.18968 0.55387
 C425 C 0.67413 0.21564 0.67198
 C426 C 0.69157 0.22238 0.69157
 H427 H 0.61386 0.24418 0.65500
 H428 H 0.63066 0.24961 0.59440
 H429 H 0.58497 0.18760 0.64202
 H430 H 0.64076 0.15689 0.65470
 H431 H 0.68627 0.21889 0.60687
 H432 H 0.65748 0.16234 0.59396
 C433 C 0.70696 0.11704 0.85152
 C434 C 0.72767 0.11394 0.87921
 C435 C 0.69922 0.11596 0.89906
 C436 C 0.67837 0.11872 0.87180
 C437 C 0.71003 0.15192 0.85352
 C438 C 0.68156 0.15396 0.87335
 C439 C 0.73081 0.14909 0.88082
 C440 C 0.70230 0.15084 0.90100
 C441 C 0.69416 0.09652 0.92504
 C442 C 0.69099 0.08113 0.94698
 C443 C 0.71702 0.17255 0.82885
 C444 C 0.72374 0.19006 0.80929
 H445 H 0.70895 0.10338 0.83089
 H446 H 0.74657 0.09727 0.88190
 H447 H 0.65674 0.10599 0.86841
 H448 H 0.66267 0.17065 0.87066
 H449 H 0.75245 0.16178 0.88429
 H450 H 0.70033 0.16453 0.92161
 C451 C 0.20382 0.66392 0.38500
 C452 C 0.17589 0.64247 0.38810
 C453 C 0.19732 0.61690 0.39864
 C454 C 0.22513 0.63808 0.39590
 C455 C 0.20825 0.65270 0.35302
 C456 C 0.22966 0.62712 0.36359
 C457 C 0.18040 0.63155 0.35568
 C458 C 0.20175 0.60562 0.36668
 C459 C 0.19223 0.59751 0.42464
 C460 C 0.18903 0.58209 0.44655
 C461 C 0.21531 0.67322 0.32829
 C462 C 0.22210 0.69066 0.30870
 H463 H 0.20474 0.68811 0.39228
 H464 H 0.15372 0.64856 0.39849
 H465 H 0.24348 0.64058 0.41270
 H466 H 0.25185 0.62102 0.35324
 H467 H 0.16209 0.62911 0.33884
 H468 H 0.20082 0.58141 0.35947
 C469 C 0.28750 0.88256 0.85226
 C470 C 0.27060 0.88140 0.88243
 C471 C 0.30149 0.88366 0.89841
 C472 C 0.31853 0.88516 0.86866
 C473 C 0.29046 0.84761 0.85303
 C474 C 0.32137 0.84984 0.86899
 C475 C 0.27348 0.84619 0.88282
 C476 C 0.30443 0.84871 0.89914
 C477 C 0.30666 0.90313 0.92431
 C478 C 0.30994 0.91855 0.94619
 C479 C 0.28336 0.82695 0.82846
 C480 C 0.27656 0.80942 0.80898
 H481 H 0.28047 0.89625 0.83270
 H482 H 0.24978 0.89458 0.88822
 H483 H 0.33712 0.90142 0.86316
 H484 H 0.34217 0.83663 0.86318
 H485 H 0.25487 0.82997 0.88841
 H486 H 0.31145 0.83499 0.91870
 C487 C 0.79056 0.38207 0.35167
 C488 C 0.77218 0.38207 0.38103
 C489 C 0.80233 0.38281 0.39841
 C490 C 0.82085 0.38314 0.36947
 C491 C 0.79159 0.34702 0.35279
 C492 C 0.82176 0.34772 0.37014
 C493 C 0.77313 0.34677 0.38177
 C494 C 0.80335 0.34776 0.39948
 C495 C 0.80733 0.40219 0.42440
 C496 C 0.81046 0.41760 0.44630
 C497 C 0.78461 0.32651 0.32807
 C498 C 0.77788 0.30908 0.30847
 H499 H 0.78523 0.39594 0.33173
 H500 H 0.75184 0.39640 0.38579
 H501 H 0.84054 0.39833 0.36473
 H502 H 0.84208 0.33337 0.36537
 H503 H 0.75343 0.33161 0.38658
 H504 H 0.80866 0.33387 0.41941
 C505 C 0.12078 0.30588 0.85155
 C506 C 0.10721 0.28118 0.87240
 C507 C 0.11602 0.30087 0.89924
 C508 C 0.12925 0.32569 0.87886
 C509 C 0.15203 0.29004 0.85373
 C510 C 0.16082 0.30973 0.88058
 C511 C 0.13875 0.26529 0.87415
 C512 C 0.14727 0.28505 0.90132
 C513 C 0.09657 0.30592 0.92520
 C514 C 0.08117 0.30910 0.94714
 C515 C 0.17267 0.28305 0.82907
 C516 C 0.19020 0.27634 0.80953
 H517 H 0.11014 0.31436 0.83079
 H518 H 0.08495 0.26951 0.86933
 H519 H 0.12511 0.35058 0.88110
 H520 H 0.18308 0.32141 0.88368
 H521 H 0.14286 0.24038 0.87197
 H522 H 0.15796 0.27653 0.92205
 C523 C 0.62180 0.80833 0.35061
 C524 C 0.60789 0.78365 0.37126
 C525 C 0.61700 0.80299 0.39825
 C526 C 0.63057 0.82778 0.37806
 C527 C 0.65281 0.79204 0.35264
 C528 C 0.66190 0.81137 0.37964
 C529 C 0.63920 0.76730 0.37287
 C530 C 0.64801 0.78670 0.40019
 C531 C 0.59761 0.80808 0.42424
 C532 C 0.58219 0.81127 0.44616
 C533 C 0.67333 0.78494 0.32792
 C534 C 0.69076 0.77812 0.30834
 H535 H 0.61127 0.81715 0.32992
 H536 H 0.58546 0.77232 0.36811
 H537 H 0.62678 0.85272 0.38051
 H538 H 0.68433 0.82270 0.38281
 H539 H 0.64295 0.74235 0.37048
 H540 H 0.65860 0.77786 0.42084
 C541 C 0.88269 0.70982 0.85139
 C542 C 0.88329 0.72838 0.88061
 C543 C 0.88369 0.69833 0.89821
 C544 C 0.88343 0.67962 0.86940
 C545 C 0.84764 0.70942 0.85282
 C546 C 0.84801 0.67935 0.87039
 C547 C 0.84798 0.72807 0.88166
 C548 C 0.84863 0.69795 0.89959
 C549 C 0.90316 0.69313 0.92411
 C550 C 0.91859 0.68985 0.94599
 C551 C 0.82698 0.71657 0.82824
 C552 C 0.80945 0.72341 0.80875
 H553 H 0.89646 0.71477 0.83128
 H554 H 0.89800 0.74848 0.88510
 H555 H 0.89825 0.65964 0.86468
 H556 H 0.83327 0.65927 0.86590
 H557 H 0.83319 0.74807 0.88647
 H558 H 0.83483 0.69302 0.91968
 C559 C 0.33647 0.19459 0.38260
 C560 C 0.36469 0.17323 0.38224
 C561 C 0.38298 0.19783 0.39875
 C562 C 0.35506 0.21907 0.39947
 C563 C 0.34715 0.20863 0.35315
 C564 C 0.36547 0.23319 0.36970
 C565 C 0.37507 0.18738 0.35233
 C566 C 0.39370 0.21188 0.36931
 C567 C 0.40238 0.19281 0.42474
 C568 C 0.41781 0.18966 0.44664
 C569 C 0.32663 0.21562 0.32842
 C570 C 0.30919 0.22236 0.30883
 H571 H 0.31271 0.18755 0.38780
 H572 H 0.36460 0.14851 0.38771
 H573 H 0.34702 0.23205 0.41912
 H574 H 0.36559 0.25792 0.36429
 H575 H 0.38305 0.17443 0.33265
 H576 H 0.41747 0.21892 0.36416
 C577 C 0.70049 0.88135 0.85123
 C578 C 0.67545 0.87595 0.87503
 C579 C 0.69892 0.88326 0.89931
 C580 C 0.72383 0.88899 0.87596
 C581 C 0.70959 0.84755 0.85359
 C582 C 0.73300 0.85492 0.87792
 C583 C 0.68468 0.84181 0.87694
 C584 C 0.70803 0.84947 0.90160
 C585 C 0.69397 0.90259 0.92535
 C586 C 0.69088 0.91796 0.94730
 C587 C 0.71652 0.82708 0.82881
 C588 C 0.72320 0.80969 0.80916
 H589 H 0.69746 0.89422 0.83023
 H590 H 0.65173 0.88484 0.87416
 H591 H 0.73987 0.90861 0.87585
 H592 H 0.75674 0.84607 0.87886
 H593 H 0.66865 0.82219 0.87706
 H594 H 0.71108 0.83656 0.92258
 C595 C 0.19981 0.38032 0.35043
 C596 C 0.17445 0.37509 0.37395
 C597 C 0.19764 0.38239 0.39848
 C598 C 0.22286 0.38796 0.37542
 C599 C 0.20875 0.34650 0.35300
 C600 C 0.23188 0.35386 0.37758
 C601 C 0.18353 0.34092 0.37606
 C602 C 0.20659 0.34857 0.40097
 C603 C 0.19243 0.40181 0.42443
 C604 C 0.18914 0.41721 0.44633
 C605 C 0.21592 0.32593 0.32834
 C606 C 0.22277 0.30848 0.30879
 H607 H 0.19709 0.39314 0.32936
 H608 H 0.15077 0.38406 0.37277
 H609 H 0.23897 0.40752 0.37544
 H610 H 0.25557 0.34492 0.37883
 H611 H 0.16742 0.32136 0.37605
 H612 H 0.20933 0.33571 0.42203
 C613 C 0.29694 0.16430 0.88589
 C614 C 0.27493 0.13957 0.89784
 C615 C 0.30189 0.11722 0.89997
 C616 C 0.32402 0.14168 0.88837
 C617 C 0.29094 0.15287 0.85423
 C618 C 0.31793 0.13054 0.85627
 C619 C 0.26883 0.12840 0.86586
 C620 C 0.29589 0.10573 0.86833
 C621 C 0.30697 0.09792 0.92601
 C622 C 0.31014 0.08254 0.94797
 C623 C 0.28384 0.17329 0.82945
 C624 C 0.27701 0.19065 0.80980
 H625 H 0.29730 0.18861 0.89286
 H626 H 0.25730 0.14310 0.91521
 H627 H 0.34678 0.14691 0.89793
 H628 H 0.33553 0.12706 0.83887
 H629 H 0.24606 0.12314 0.85634
 H630 H 0.29553 0.08140 0.86143
 C631 C 0.79613 0.66456 0.38455
 C632 C 0.77432 0.63944 0.39607
 C633 C 0.80154 0.61740 0.39820
 C634 C 0.82346 0.64225 0.38704
 C635 C 0.79055 0.65339 0.35273
 C636 C 0.81780 0.63138 0.35478
 C637 C 0.76865 0.62852 0.36392
 C638 C 0.79597 0.60616 0.36640
 C639 C 0.80669 0.59793 0.42414
 C640 C 0.80995 0.58250 0.44604
 C641 C 0.78349 0.67401 0.32808
 C642 C 0.77674 0.69151 0.30852
 H643 H 0.79612 0.68879 0.39177
 H644 H 0.75649 0.64256 0.41331
 H645 H 0.84606 0.64767 0.39684
 H646 H 0.83560 0.62830 0.33750
 H647 H 0.74603 0.62309 0.35416
 H648 H 0.79597 0.58191 0.35925
 C649 C 0.11803 0.71279 0.85375
 C650 C 0.11494 0.68159 0.86978
 C651 C 0.11727 0.69813 0.89973
 C652 C 0.12003 0.72919 0.88411
 C653 C 0.15291 0.70900 0.85396
 C654 C 0.15516 0.72549 0.88394
 C655 C 0.15018 0.67792 0.86955
 C656 C 0.15215 0.69436 0.89990
 C657 C 0.09796 0.69307 0.92578
 C658 C 0.08260 0.68990 0.94774
 C659 C 0.17333 0.71605 0.82916
 C660 C 0.19068 0.72283 0.80949
 H661 H 0.10423 0.72044 0.83449
 H662 H 0.09816 0.66347 0.86429
 H663 H 0.10743 0.75022 0.89037
 H664 H 0.17190 0.74362 0.88952
 H665 H 0.16281 0.65691 0.86327
 H666 H 0.16596 0.68672 0.91916
 C667 C 0.61963 0.21829 0.35440
 C668 C 0.61202 0.18616 0.36687
 C669 C 0.61756 0.19826 0.39838
 C670 C 0.62484 0.23025 0.38630
 C671 C 0.65348 0.20920 0.35283
 C672 C 0.65894 0.22125 0.38437
 C673 C 0.64625 0.17718 0.36486
 C674 C 0.65142 0.18918 0.39679
 C675 C 0.59813 0.19312 0.42434
 C676 C 0.58272 0.18987 0.44626
 C677 C 0.67407 0.21626 0.32815
 C678 C 0.69155 0.22301 0.30857
 H679 H 0.60678 0.23033 0.33669
 H680 H 0.59249 0.17167 0.35999
 H681 H 0.61584 0.25202 0.39539
 H682 H 0.67844 0.23576 0.39133
 H683 H 0.65528 0.15544 0.35575
 H684 H 0.66428 0.17716 0.41450
 C685 C 0.88191 0.29688 0.85152
 C686 C 0.87788 0.32350 0.87388
 C687 C 0.88327 0.30097 0.89947
 C688 C 0.88763 0.27448 0.87756
 C689 C 0.84755 0.29022 0.85380
 C690 C 0.85300 0.26775 0.87944
 C691 C 0.84317 0.31672 0.87571
 C692 C 0.84891 0.29431 0.90168
 C693 C 0.90261 0.30598 0.92549
 C694 C 0.91798 0.30910 0.94743
 C695 C 0.82707 0.28323 0.82905
 C696 C 0.80967 0.27650 0.80943
 H697 H 0.89524 0.29786 0.83060
 H698 H 0.88836 0.34649 0.87191
 H699 H 0.90613 0.25718 0.87861
 H700 H 0.84257 0.24475 0.88148
 H701 H 0.82466 0.33401 0.87466
 H702 H 0.83554 0.29330 0.92258
 C703 C 0.38107 0.79605 0.35049
 C704 C 0.37809 0.82374 0.37175
 C705 C 0.38242 0.80210 0.39825
 C706 C 0.38574 0.77455 0.37742
 C707 C 0.34645 0.79094 0.35284
 C708 C 0.35085 0.76937 0.37938
 C709 C 0.34311 0.81850 0.37366
 C710 C 0.34779 0.79698 0.40053
 C711 C 0.40187 0.80735 0.42414
 C712 C 0.41729 0.81068 0.44602
 C713 C 0.32585 0.78376 0.32824
 C714 C 0.30838 0.77692 0.30871
 H715 H 0.39452 0.79558 0.32963
 H716 H 0.38953 0.84616 0.36893
 H717 H 0.40348 0.75654 0.37926
 H718 H 0.33944 0.74693 0.38228
 H719 H 0.32535 0.83650 0.37183
 H720 H 0.33431 0.79742 0.42138
 C721 C 0.31961 0.84585 0.12785
 C722 C 0.29958 0.84825 0.09965
 C723 C 0.30161 0.88322 0.10150
 C724 C 0.32175 0.88118 0.12931
 C725 C 0.29055 0.84717 0.14691
 C726 C 0.29256 0.88213 0.14882
 C727 C 0.27047 0.84928 0.11906
 C728 C 0.27256 0.88450 0.12058
 C729 C 0.30678 0.90273 0.07561
 C730 C 0.31003 0.91822 0.05376
 C731 C 0.28340 0.82653 0.17152
 C732 C 0.27655 0.80902 0.19103
 H733 H 0.33888 0.82972 0.13113
 H734 H 0.30252 0.83453 0.07916
 H735 H 0.34290 0.89454 0.13320
 H736 H 0.28960 0.89582 0.16932
 H737 H 0.24930 0.83596 0.11509
 H738 H 0.25327 0.90061 0.11730
 C739 C 0.78946 0.38194 0.64836
 C740 C 0.82005 0.38361 0.63105
 C741 C 0.80207 0.38285 0.60182
 C742 C 0.77162 0.38151 0.61871
 C743 C 0.79124 0.34692 0.64738
 C744 C 0.77332 0.34623 0.61811
 C745 C 0.82170 0.34822 0.63051
 C746 C 0.80383 0.34783 0.60088
 C747 C 0.80713 0.40228 0.57584
 C748 C 0.81033 0.41770 0.55392
 C749 C 0.78424 0.32631 0.67207
 C750 C 0.77753 0.30881 0.69164
 H751 H 0.78348 0.39573 0.66817
 H752 H 0.83932 0.39922 0.63605
 H753 H 0.75108 0.39540 0.61359
 H754 H 0.75403 0.33066 0.61303
 H755 H 0.84222 0.33431 0.63565
 H756 H 0.80979 0.33401 0.58108
 C757 C 0.71038 0.11777 0.14787
 C758 C 0.68025 0.11704 0.12980
 C759 C 0.69905 0.11695 0.10103
 C760 C 0.72905 0.11735 0.11868
 C761 C 0.70986 0.15282 0.14658
 C762 C 0.72861 0.15266 0.11777
 C763 C 0.67985 0.15246 0.12895
 C764 C 0.69855 0.15200 0.09979
 C765 C 0.69402 0.09754 0.07507
 C766 C 0.69087 0.08212 0.05318
 C767 C 0.71688 0.17337 0.17126
 C768 C 0.72364 0.19082 0.19082
 H769 H 0.71532 0.10393 0.16793
 H770 H 0.66030 0.10215 0.13442
 H771 H 0.74922 0.10271 0.11417
 H772 H 0.74857 0.16751 0.11306
 H773 H 0.65970 0.16712 0.13347
 H774 H 0.69363 0.16587 0.07974
 C775 C 0.17948 0.65382 0.62856
 C776 C 0.19940 0.65169 0.60024
 C777 C 0.19762 0.61670 0.60199
 C778 C 0.17759 0.61848 0.62991
 C779 C 0.20863 0.65262 0.64746
 C780 C 0.20687 0.61763 0.64926
 C781 C 0.22861 0.65076 0.61950
 C782 C 0.22676 0.61552 0.62091
 C783 C 0.19245 0.59728 0.57605
 C784 C 0.18917 0.58188 0.55415
 C785 C 0.21573 0.67321 0.67210
 C786 C 0.22251 0.69070 0.69162
 H787 H 0.16012 0.66980 0.63199
 H788 H 0.19628 0.66549 0.57982
 H789 H 0.15654 0.60496 0.63388
 H790 H 0.21001 0.60386 0.66971
 H791 H 0.24966 0.66425 0.61545
 H792 H 0.24614 0.59956 0.61748
 C793 C 0.83617 0.70444 0.11476
 C794 C 0.86187 0.72583 0.10372
 C795 C 0.88329 0.69815 0.10131
 C796 C 0.85786 0.67664 0.11200
 C797 C 0.84726 0.70925 0.14673
 C798 C 0.86866 0.68154 0.14440
 C799 C 0.87270 0.73074 0.13600
 C800 C 0.89444 0.70296 0.13325
 C801 C 0.90279 0.69298 0.07541
 C802 C 0.91828 0.68974 0.05356
 C803 C 0.82663 0.71642 0.17133
 C804 C 0.80913 0.72331 0.19084
 H805 H 0.81199 0.70512 0.10741
 H806 H 0.85927 0.74399 0.08672
 H807 H 0.85199 0.65433 0.10183
 H808 H 0.87120 0.66341 0.16144
 H809 H 0.87859 0.75307 0.14614
 H810 H 0.91864 0.70228 0.14054
 C811 C 0.34419 0.22442 0.61722
 C812 C 0.37914 0.22951 0.61681
 C813 C 0.38313 0.19812 0.60213
 C814 C 0.34844 0.19295 0.60221
 C815 C 0.34719 0.20898 0.64768
 C816 C 0.35115 0.17756 0.63304
 C817 C 0.38189 0.21416 0.64764
 C818 C 0.38622 0.18262 0.63256
 C819 C 0.40257 0.19302 0.57617
 C820 C 0.41798 0.18980 0.55425
 C821 C 0.32658 0.21599 0.67236
 C822 C 0.30906 0.22270 0.69192
 H823 H 0.32670 0.24169 0.61115
 H824 H 0.39085 0.25083 0.60987
 H825 H 0.33489 0.18418 0.58324
 H826 H 0.33941 0.15627 0.64000
 H827 H 0.39542 0.22295 0.66661
 H828 H 0.40374 0.16537 0.63855
 C829 C 0.12614 0.31298 0.14707
 C830 C 0.13682 0.32528 0.11650
 C831 C 0.11697 0.30105 0.10120
 C832 C 0.10595 0.28885 0.13130
 C833 C 0.15285 0.29021 0.14677
 C834 C 0.13298 0.26603 0.13143
 C835 C 0.16383 0.30242 0.11665
 C836 C 0.14370 0.27831 0.10099
 C837 C 0.09756 0.30609 0.07523
 C838 C 0.08214 0.30924 0.05333
 C839 C 0.17340 0.28319 0.17146
 C840 C 0.19085 0.27644 0.19103
 H841 H 0.11917 0.32715 0.16631
 H842 H 0.13817 0.34971 0.11005
 H843 H 0.08191 0.28334 0.13701
 H844 H 0.13161 0.24158 0.13782
 H845 H 0.18786 0.30792 0.11089
 H846 H 0.15072 0.26411 0.08179
 C847 C 0.62631 0.81483 0.64741
 C848 C 0.63705 0.82683 0.61674
 C849 C 0.61686 0.80276 0.60163
 C850 C 0.60577 0.79086 0.63183
 C851 C 0.65274 0.79173 0.64716
 C852 C 0.63252 0.76771 0.63201
 C853 C 0.66378 0.80363 0.61694
 C854 C 0.64330 0.77969 0.60147
 C855 C 0.59745 0.80791 0.57567
 C856 C 0.58204 0.81115 0.55376
 C857 C 0.67331 0.78463 0.67182
 C858 C 0.69079 0.77782 0.69137
 H859 H 0.61957 0.82920 0.66659
 H860 H 0.63868 0.85120 0.61016
 H861 H 0.58169 0.78569 0.63764
 H862 H 0.63087 0.74332 0.63854
 H863 H 0.68785 0.80880 0.61108
 H864 H 0.65009 0.76529 0.58232
   
