data_POSCAR
  _audit_creation_date              2014-09-24
  _audit_creation_method            'ToBaCCo'
  _symmetry_space_group_name_H-M    'P1'
  _symmetry_Int_Tables_number       1
  _symmetry_cell_setting            triclinic
  loop_
  _symmetry_equiv_pos_as_xyz
 x,y,z
_cell_length_a 49.9006
_cell_length_b 11.5824
_cell_length_c 12.3511
_cell_angle_alpha 76.806600
_cell_angle_beta 90.000400
_cell_angle_gamma 89.785000
loop_
  _atom_site_label
  _atom_site_type_symbol
  _atom_site_fract_x
  _atom_site_fract_y
  _atom_site_fract_z
C1 C 0.75616 0.31319 0.43187
 C2 C 0.75354 0.31052 0.54293
 C3 C 0.72682 0.29324 0.59900
 C4 C 0.77751 0.32940 0.60866
 C5 C 0.78289 0.30639 0.38089
 C6 C 0.73236 0.31919 0.35958
 C7 C 0.71768 0.37246 0.66149
 C8 C 0.69110 0.36758 0.69891
 C9 C 0.67302 0.28428 0.67355
 C10 C 0.68277 0.20003 0.61736
 C11 C 0.70947 0.20329 0.58252
 C12 C 0.79424 0.42665 0.56775
 C13 C 0.81980 0.43237 0.61097
 C14 C 0.82900 0.34200 0.69846
 C15 C 0.81172 0.24817 0.74518
 C16 C 0.78597 0.24233 0.70104
 C17 C 0.80064 0.21566 0.43003
 C18 C 0.82689 0.21567 0.39337
 C19 C 0.83588 0.30534 0.30491
 C20 C 0.81802 0.39404 0.25162
 C21 C 0.79150 0.39432 0.28940
 C22 C 0.72625 0.22409 0.31091
 C23 C 0.70067 0.21508 0.26740
 C24 C 0.68127 0.30174 0.27148
 C25 C 0.68834 0.40251 0.30972
 C26 C 0.71376 0.41144 0.35334
 H27 H 0.73074 0.44135 0.67712
 H28 H 0.68437 0.43177 0.74453
 H29 H 0.66985 0.13276 0.59805
 H30 H 0.71633 0.13848 0.53800
 H31 H 0.78825 0.49367 0.49631
 H32 H 0.83287 0.50397 0.57132
 H33 H 0.77353 0.16586 0.73345
 H34 H 0.79441 0.14706 0.49962
 H35 H 0.84033 0.14571 0.43480
 H36 H 0.82465 0.46348 0.18261
 H37 H 0.77806 0.46529 0.25037
 H38 H 0.74044 0.15235 0.31493
 H39 H 0.69565 0.13756 0.23669
 H40 H 0.67359 0.47037 0.31263
 H41 H 0.71825 0.48565 0.39002
 H42 H 0.81866 0.17643 0.81177
 C43 C 0.24477 0.67930 0.45360
 C44 C 0.24368 0.69408 0.56024
 C45 C 0.21767 0.71024 0.61344
 C46 C 0.26848 0.69398 0.62566
 C47 C 0.27061 0.68137 0.39334
 C48 C 0.21998 0.65904 0.39507
 C49 C 0.20007 0.80017 0.56059
 C50 C 0.17407 0.80564 0.59980
 C51 C 0.16521 0.72206 0.69354
 C52 C 0.18301 0.63466 0.74973
 C53 C 0.20922 0.62916 0.71007
 C54 C 0.27648 0.79642 0.65928
 C55 C 0.30267 0.80527 0.69738
 C56 C 0.32076 0.71103 0.70391
 C57 C 0.31172 0.60456 0.68085
 C58 C 0.28580 0.59612 0.64195
 C59 C 0.27868 0.58319 0.35265
 C60 C 0.30459 0.57796 0.31047
 C61 C 0.32257 0.67197 0.30665
 C62 C 0.31378 0.77356 0.33987
 C63 C 0.28796 0.77841 0.38251
 C64 C 0.20257 0.56759 0.44490
 C65 C 0.17677 0.56219 0.40391
 C66 C 0.16816 0.64755 0.31116
 C67 C 0.18605 0.73510 0.25679
 C68 C 0.21199 0.74018 0.29800
 H69 H 0.20620 0.86352 0.48638
 H70 H 0.16066 0.87432 0.55579
 H71 H 0.17654 0.56983 0.82261
 H72 H 0.22251 0.55877 0.75167
 H73 H 0.26309 0.87202 0.64883
 H74 H 0.30916 0.88701 0.71717
 H75 H 0.27967 0.51560 0.61855
 H76 H 0.26540 0.50824 0.35860
 H77 H 0.31070 0.49886 0.28445
 H78 H 0.32727 0.84724 0.33614
 H79 H 0.28170 0.85604 0.41059
 H80 H 0.20843 0.50520 0.51996
 H81 H 0.16317 0.49545 0.44848
 H82 H 0.17947 0.80321 0.18629
 H83 H 0.22508 0.81215 0.25914
 H84 H 0.32498 0.52942 0.68798
 C85 C 0.25574 0.19394 -0.44250
 C86 C 0.25566 0.17935 -0.54934
 C87 C 0.28100 0.15864 -0.60452
 C88 C 0.23034 0.18282 -0.61335
 C89 C 0.23036 0.19482 -0.38078
 C90 C 0.28126 0.20981 -0.38582
 C91 C 0.28925 0.23805 -0.70197
 C92 C 0.31534 0.23161 -0.74142
 C93 C 0.33325 0.14432 -0.68489
 C94 C 0.32442 0.06131 -0.59082
 C95 C 0.29844 0.06795 -0.55189
 C96 C 0.21335 0.28203 -0.62878
 C97 C 0.18771 0.27850 -0.67339
 C98 C 0.17863 0.17567 -0.70358
 C99 C 0.19641 0.07932 -0.69537
 C100 C 0.22215 0.08341 -0.65141
 C101 C 0.21256 0.09983 -0.37084
 C102 C 0.18637 0.11021 -0.33562
 C103 C 0.17750 0.21566 -0.30890
 C104 C 0.19612 0.30605 -0.30799
 C105 C 0.22252 0.29540 -0.34330
 C106 C 0.28940 0.12738 -0.28931
 C107 C 0.31551 0.13110 -0.24803
 C108 C 0.33346 0.21814 -0.30241
 C109 C 0.32478 0.30384 -0.39525
 C110 C 0.29891 0.29999 -0.43615
 H111 H 0.27616 0.30953 -0.74301
 H112 H 0.32191 0.29841 -0.81278
 H113 H 0.33788 -0.00507 -0.54380
 H114 H 0.29239 0.00674 -0.47652
 H115 H 0.21972 0.36031 -0.60231
 H116 H 0.17454 0.35432 -0.68044
 H117 H 0.23517 0.00662 -0.64155
 H118 H 0.21861 0.02014 -0.39626
 H119 H 0.17293 0.03691 -0.33327
 H120 H 0.18997 0.38659 -0.28443
 H121 H 0.23628 0.36850 -0.34815
 H122 H 0.27605 0.05688 -0.24956
 H123 H 0.32183 0.06479 -0.17575
 H124 H 0.33829 0.37244 -0.43771
 H125 H 0.29300 0.36426 -0.51023
 H126 H 0.19028 -0.00093 -0.71895
 C127 C -0.25534 0.81899 -0.44978
 C128 C -0.25699 0.82990 -0.56213
 C129 C -0.23201 0.82606 -0.62624
 C130 C -0.28349 0.83636 -0.62029
 C131 C -0.27935 0.80070 -0.37835
 C132 C -0.22928 0.81960 -0.39365
 C133 C -0.21576 0.92673 -0.65566
 C134 C -0.18956 0.91686 -0.69273
 C135 C -0.17896 0.80556 -0.69830
 C136 C -0.19579 0.70619 -0.67463
 C137 C -0.22216 0.71672 -0.63965
 C138 C -0.30394 0.91185 -0.59796
 C139 C -0.33031 0.89967 -0.63184
 C140 C -0.33655 0.81557 -0.69361
 C141 C -0.31565 0.74946 -0.72647
 C142 C -0.28942 0.75920 -0.68974
 C143 C -0.29610 0.70435 -0.37939
 C144 C -0.32162 0.70063 -0.33394
 C145 C -0.33068 0.79275 -0.28645
 C146 C -0.31296 0.88271 -0.27490
 C147 C -0.28722 0.88604 -0.31999
 C148 C -0.21373 0.71616 -0.36502
 C149 C -0.18790 0.72038 -0.32224
 C150 C -0.17758 0.82782 -0.30676
 C151 C -0.19375 0.92995 -0.33077
 C152 C -0.21948 0.92554 -0.37353
 H153 H -0.22288 1.01150 -0.64433
 H154 H -0.17720 0.99538 -0.71182
 H155 H -0.18839 0.61981 -0.67976
 H156 H -0.23452 0.63842 -0.61729
 H157 H -0.29977 0.97611 -0.54895
 H158 H -0.34577 0.95417 -0.60719
 H159 H -0.27421 0.70196 -0.71153
 H160 H -0.29016 0.63702 -0.42284
 H161 H -0.33494 0.62982 -0.34238
 H162 H -0.31931 0.95326 -0.23632
 H163 H -0.27429 0.95952 -0.31591
 H164 H -0.22146 0.63349 -0.37835
 H165 H -0.17572 0.64084 -0.30321
 H166 H -0.18635 1.01419 -0.32036
 H167 H -0.23153 1.00539 -0.39402
 H168 H -0.31984 0.68613 -0.77661
 N169 N -0.02515 1.18827 -0.20200
 N170 N -0.04837 1.20522 -0.25409
 N171 N 0.03310 1.22783 -0.12856
 N172 N 0.05713 1.27656 -0.13398
 N173 N 0.03089 1.16224 -0.20188
 N174 N 0.05325 1.16526 -0.25921
 N175 N -0.02353 1.25371 -0.12806
 N176 N -0.04590 1.31563 -0.12790
 C177 C -0.06091 1.28587 -0.20851
 C178 C 0.06923 1.23824 -0.21727
 N179 N 0.03150 1.08442 0.19174
 N180 N 0.05423 1.06270 0.24753
 N181 N -0.02260 1.20885 0.11067
 N182 N -0.04314 1.28069 0.11240
 N183 N -0.02460 1.11329 0.19125
 N184 N -0.04648 1.11793 0.24996
 N185 N 0.03370 1.17967 0.11056
 N186 N 0.05808 1.22430 0.10910
 Mn187 Mn 0.00522 1.21916 -0.00898
 C188 C 0.07047 1.15118 0.19585
 C189 C -0.05761 1.22337 0.20066
 N190 N 0.02498 0.91181 -0.18961
 N191 N 0.04715 0.90906 -0.24709
 N192 N -0.03303 0.84299 -0.10967
 N193 N -0.05668 0.79287 -0.11139
 N194 N -0.03112 0.93840 -0.19053
 N195 N -0.05342 0.95523 -0.24963
 N196 N 0.02319 0.81626 -0.10866
 N197 N 0.04422 0.74656 -0.10900
 Mn198 Mn -0.00008 1.05054 -0.19730
 C199 C 0.05874 0.80498 -0.19683
 C200 C -0.06897 0.86318 -0.19977
 N201 N -0.03125 0.86348 0.20201
 N202 N -0.05400 0.86385 0.25625
 N203 N 0.02301 0.76974 0.13019
 N204 N 0.04452 0.70201 0.13414
 N205 N 0.02475 0.83517 0.20386
 N206 N 0.04736 0.81308 0.25990
 N207 N -0.03334 0.79743 0.12884
 N208 N -0.05767 0.75185 0.13152
 Mn209 Mn 0.00007 0.97382 0.19853
 Mn210 Mn -0.00507 0.80506 0.01030
 Cl211 Cl 0.00004 1.01217 0.00063
 C212 C -0.07011 0.79253 0.21274
 C213 C 0.05921 0.72880 0.21684
 N214 N 0.52699 0.58811 0.19294
 N215 N 0.54918 0.59114 0.25063
 N216 N 0.46834 0.66134 0.11724
 N217 N 0.44428 0.70919 0.11798
 N218 N 0.47048 0.56545 0.19766
 N219 N 0.44798 0.54620 0.25510
 N220 N 0.52478 0.68463 0.11336
 N221 N 0.54534 0.75578 0.11526
 C222 C 0.56017 0.69701 0.20228
 C223 C 0.43200 0.63718 0.20521
 N224 N 0.46910 0.64440 -0.19573
 N225 N 0.44640 0.64923 -0.25113
 N226 N 0.52398 0.73150 -0.12563
 N227 N 0.54619 0.79408 -0.12867
 N228 N 0.52494 0.66696 -0.20034
 N229 N 0.54751 0.68545 -0.25653
 N230 N 0.46754 0.70964 -0.12173
 N231 N 0.44362 0.75991 -0.12487
 Mn232 Mn 0.49613 0.69832 -0.00426
 C233 C 0.43090 0.72288 -0.20734
 C234 C 0.56032 0.76661 -0.21284
 N235 N 0.47592 0.31592 0.20707
 N236 N 0.45336 0.29634 0.26361
 N237 N 0.53354 0.27324 0.12818
 N238 N 0.55792 0.22833 0.12781
 N239 N 0.53182 0.33765 0.20282
 N240 N 0.55477 0.33668 0.25556
 N241 N 0.47710 0.25075 0.13291
 N242 N 0.45523 0.18577 0.13716
 Mn243 Mn 0.50133 0.45152 0.20142
 C244 C 0.44094 0.21381 0.22049
 C245 C 0.57066 0.26625 0.20980
 N246 N 0.53078 0.41640 -0.19031
 N247 N 0.55250 0.42884 -0.25308
 N248 N 0.47616 0.29807 -0.10603
 N249 N 0.45496 0.22994 -0.10620
 N250 N 0.47442 0.39411 -0.18643
 N251 N 0.45210 0.39337 -0.24342
 N252 N 0.53247 0.31953 -0.11085
 N253 N 0.55527 0.26338 -0.11793
 Mn254 Mn 0.49981 0.53080 -0.19450
 Mn255 Mn 0.50485 0.28385 0.01128
 Cl256 Cl 0.50055 0.49114 0.00340
 C257 C 0.56739 0.33187 -0.20772
 C258 C 0.44038 0.28996 -0.19342
 C259 C 0.40057 0.14448 0.36094
 C260 C 0.37871 0.24099 0.32859
 C261 C 0.36091 0.15168 0.28772
 C262 C 0.38247 0.05445 0.32038
 C263 C 0.37259 0.18995 0.16990
 C264 C 0.39065 0.27960 0.21070
 C265 C 0.41229 0.18310 0.24337
 C266 C 0.39466 0.09350 0.20184
 H267 H 0.41247 0.12551 0.43895
 H268 H 0.37172 0.30102 0.38114
 H269 H 0.37888 -0.03815 0.36666
 H270 H 0.36044 0.20768 0.09259
 H271 H 0.39460 0.37195 0.16447
 H272 H 0.40163 0.03441 0.14828
 C273 C -0.11189 0.74662 0.35132
 C274 C -0.12920 0.86059 0.32604
 C275 C -0.15119 0.79384 0.27779
 C276 C -0.13411 0.67929 0.30333
 C277 C -0.13881 0.83101 0.16108
 C278 C -0.11661 0.89761 0.20908
 C279 C -0.09952 0.78411 0.23484
 C280 C -0.12126 0.71703 0.18599
 H281 H -0.10054 0.71133 0.42922
 H282 H -0.13241 0.92127 0.38265
 H283 H -0.14103 0.58839 0.34269
 H284 H -0.15034 0.86628 0.08369
 H285 H -0.10850 0.98564 0.16777
 H286 H -0.11755 0.65883 0.12761
 C287 C 0.59878 0.71271 0.34911
 C288 C 0.62498 0.66547 0.30784
 C289 C 0.63637 0.79218 0.28085
 C290 C 0.61040 0.83990 0.32271
 C291 C 0.62500 0.81480 0.16209
 C292 C 0.61338 0.68772 0.18867
 C293 C 0.58745 0.73508 0.23042
 C294 C 0.59867 0.86201 0.20337
 H295 H 0.58788 0.67032 0.42624
 H296 H 0.63575 0.58452 0.35229
 H297 H 0.60854 0.90089 0.37935
 H298 H 0.63604 0.85738 0.08538
 H299 H 0.61439 0.62613 0.13194
 H300 H 0.58766 0.94297 0.16024
 C301 C 0.12229 1.14211 0.14219
 C302 C 0.13671 1.25100 0.16829
 C303 C 0.15116 1.16780 0.26624
 C304 C 0.13710 1.05907 0.24025
 C305 C 0.12828 1.18312 0.34571
 C306 C 0.11353 1.26583 0.24757
 C307 C 0.09960 1.15734 0.22193
 C308 C 0.11400 1.07430 0.31961
 H309 H 0.11893 1.12373 0.05905
 H310 H 0.14620 1.32365 0.10594
 H311 H 0.14669 0.97420 0.23476
 H312 H 0.13106 1.20248 0.42873
 H313 H 0.10274 1.34858 0.25044
 H314 H 0.10444 1.00198 0.38209
 C315 C 0.61221 0.19783 -0.20675
 C316 C 0.62320 0.21726 -0.32695
 C317 C 0.64519 0.28956 -0.29775
 C318 C 0.63627 0.27135 -0.18154
 C319 C 0.62983 0.40068 -0.33295
 C320 C 0.60571 0.33029 -0.36234
 C321 C 0.59553 0.31269 -0.24177
 C322 C 0.61921 0.38544 -0.21311
 H323 H 0.60510 0.11327 -0.15309
 H324 H 0.62519 0.14781 -0.37517
 H325 H 0.65002 0.24658 -0.10914
 H326 H 0.63786 0.48287 -0.38753
 H327 H 0.59367 0.35500 -0.43982
 H328 H 0.61799 0.45179 -0.16167
 C329 C 0.10273 0.84695 -0.31896
 C330 C 0.12665 0.84431 -0.23929
 C331 C 0.13679 0.73021 -0.26912
 C332 C 0.11294 0.73188 -0.34845
 C333 C 0.12079 0.65405 -0.17208
 C334 C 0.11027 0.76923 -0.14257
 C335 C 0.08656 0.77163 -0.22250
 C336 C 0.09649 0.65640 -0.25139
 H337 H 0.09528 0.92650 -0.37976
 H338 H 0.13980 0.91865 -0.23159
 H339 H 0.11445 0.71544 -0.43306
 H340 H 0.12844 0.57537 -0.11088
 H341 H 0.10836 0.78702 -0.05848
 H342 H 0.08381 0.57923 -0.25647
 C343 C 0.38907 0.77002 -0.34542
 C344 C 0.37194 0.65648 -0.31780
 C345 C 0.34988 0.72474 -0.27097
 C346 C 0.36679 0.83892 -0.29880
 C347 C 0.36235 0.68994 -0.15432
 C348 C 0.38452 0.62154 -0.20091
 C349 C 0.40155 0.73458 -0.22888
 C350 C 0.37979 0.80352 -0.18136
 H351 H 0.40025 0.80338 -0.42400
 H352 H 0.36905 0.59446 -0.37314
 H353 H 0.35932 0.92886 -0.33925
 H354 H 0.35070 0.65664 -0.07703
 H355 H 0.39248 0.53310 -0.15879
 H356 H 0.38350 0.86349 -0.12466
 C357 C -0.10900 1.39313 -0.17867
 C358 C -0.12148 1.43894 -0.29602
 C359 C -0.14183 1.33651 -0.27082
 C360 C -0.12985 1.29122 -0.15413
 C361 C -0.12265 1.25714 -0.31925
 C362 C -0.10207 1.35892 -0.34418
 C363 C -0.09002 1.31334 -0.22776
 C364 C -0.11044 1.21154 -0.20248
 H365 H -0.10310 1.44885 -0.12050
 H366 H -0.12634 1.53249 -0.33582
 H367 H -0.14182 1.26312 -0.07692
 H368 H -0.12853 1.20172 -0.37766
 H369 H -0.09026 1.38763 -0.42176
 H370 H -0.10534 1.11819 -0.16269
 C371 C 0.60623 0.69599 -0.27350
 C372 C 0.62078 0.79851 -0.35263
 C373 C 0.64172 0.79754 -0.26104
 C374 C 0.62726 0.69570 -0.18183
 C375 C 0.62540 0.89011 -0.21701
 C376 C 0.60395 0.89027 -0.30843
 C377 C 0.58958 0.78754 -0.22948
 C378 C 0.61040 0.78735 -0.13760
 H379 H 0.59812 0.61731 -0.29922
 H380 H 0.62554 0.80168 -0.44093
 H381 H 0.63757 0.61827 -0.12842
 H382 H 0.63412 0.96810 -0.19241
 H383 H 0.59398 0.96976 -0.36022
 H384 H 0.60530 0.78347 -0.04956
 C385 C 0.11514 1.13221 -0.21195
 C386 C 0.12728 1.16364 -0.32974
 C387 C 0.14988 1.23065 -0.28541
 C388 C 0.13787 1.19939 -0.16793
 C389 C 0.13341 1.34667 -0.31410
 C390 C 0.11056 1.27902 -0.35804
 C391 C 0.09851 1.24698 -0.24069
 C392 C 0.12083 1.31474 -0.19581
 H393 H 0.10698 1.04510 -0.16803
 H394 H 0.12927 1.10045 -0.38454
 H395 H 0.14972 1.16624 -0.09104
 H396 H 0.14106 1.43547 -0.35626
 H397 H 0.09915 1.31231 -0.43617
 H398 H 0.11771 1.37642 -0.14019
 C399 C 0.40202 0.14536 -0.24857
 C400 C 0.37789 0.14437 -0.16868
 C401 C 0.36194 0.22298 -0.26488
 C402 C 0.38561 0.22326 -0.34480
 C403 C 0.37256 0.33545 -0.23404
 C404 C 0.38889 0.25794 -0.13814
 C405 C 0.41241 0.25905 -0.21869
 C406 C 0.39628 0.33675 -0.31432
 H407 H 0.41441 0.06728 -0.25464
 H408 H 0.37008 0.06585 -0.10810
 H409 H 0.38388 0.20766 -0.42965
 H410 H 0.35971 0.41072 -0.22531
 H411 H 0.39110 0.27460 -0.05377
 H412 H 0.40383 0.41618 -0.37464
 C413 C -0.11218 0.93209 -0.32620
 C414 C -0.12565 0.82123 -0.35185
 C415 C -0.14883 0.83493 -0.27348
 C416 C -0.13554 0.94524 -0.24765
 C417 C -0.13427 0.75378 -0.17464
 C418 C -0.11071 0.74070 -0.25282
 C419 C -0.09764 0.85138 -0.22771
 C420 C -0.12066 0.86443 -0.14881
 H421 H -0.10289 1.00528 -0.38864
 H422 H -0.12819 0.80095 -0.43454
 H423 H -0.14575 1.02868 -0.24209
 H424 H -0.14360 0.68052 -0.11245
 H425 H -0.09945 0.65843 -0.25438
 H426 H -0.11781 0.88328 -0.06552
 C427 C 0.38965 0.75511 0.26069
 C428 C 0.36643 0.74610 0.17980
 C429 C 0.35152 0.66220 0.27542
 C430 C 0.37444 0.67170 0.35650
 C431 C 0.36505 0.55344 0.24648
 C432 C 0.38027 0.63707 0.15072
 C433 C 0.40301 0.64640 0.23211
 C434 C 0.38818 0.56270 0.32754
 H435 H 0.40080 0.83574 0.26689
 H436 H 0.35728 0.82150 0.11900
 H437 H 0.37171 0.68858 0.44046
 H438 H 0.35485 0.47105 0.23831
 H439 H 0.38361 0.62132 0.06656
 H440 H 0.39740 0.48774 0.38861
 C441 C -0.10186 1.18209 0.32025
 C442 C -0.11210 1.29662 0.35060
 C443 C -0.13559 1.30014 0.26924
 C444 C -0.12538 1.18662 0.23856
 C445 C -0.11921 1.37708 0.17408
 C446 C -0.09523 1.37290 0.25535
 C447 C -0.08528 1.25809 0.22568
 C448 C -0.10865 1.26244 0.14376
 H449 H -0.09475 1.10145 0.38056
 H450 H -0.11401 1.31185 0.43555
 H451 H -0.13873 1.11307 0.23024
 H452 H -0.12669 1.45641 0.11325
 H453 H -0.08250 1.44930 0.26231
 H454 H -0.10634 1.24622 0.05927
 C455 C 0.61719 0.17644 0.30735
 C456 C 0.63852 0.17740 0.21554
 C457 C 0.65238 0.28312 0.24841
 C458 C 0.63144 0.28153 0.34031
 C459 C 0.63530 0.37168 0.16452
 C460 C 0.62103 0.26640 0.13116
 C461 C 0.60027 0.26506 0.22338
 C462 C 0.61423 0.36999 0.25639
 H463 H 0.60920 0.09866 0.36787
 H464 H 0.64850 0.09828 0.19718
 H465 H 0.63605 0.28863 0.42645
 H466 H 0.64303 0.45181 0.10575
 H467 H 0.61612 0.25958 0.04526
 H468 H 0.60356 0.44691 0.27563
 C469 C 0.10490 0.60422 0.19635
 C470 C 0.12726 0.69855 0.16494
 C471 C 0.13905 0.65791 0.28240
 C472 C 0.11718 0.56290 0.31465
 C473 C 0.12168 0.74839 0.32442
 C474 C 0.10965 0.78935 0.20685
 C475 C 0.08773 0.69492 0.23903
 C476 C 0.09953 0.65405 0.35631
 H477 H 0.09752 0.54692 0.14203
 H478 H 0.13937 0.71590 0.08762
 H479 H 0.12064 0.47004 0.36081
 H480 H 0.12901 0.80692 0.37766
 H481 H 0.10594 0.88231 0.16137
 H482 H 0.08765 0.63535 0.43430
   
