data_POSCAR
  _audit_creation_date              2014-09-24
  _audit_creation_method            'ToBaCCo'
  _symmetry_space_group_name_H-M    'P1'
  _symmetry_Int_Tables_number       1
  _symmetry_cell_setting            triclinic
  loop_
  _symmetry_equiv_pos_as_xyz
 x,y,z
_cell_length_a 36.1520
_cell_length_b 35.2842
_cell_length_c 37.0000
_cell_angle_alpha 87.386800
_cell_angle_beta 93.915100
_cell_angle_gamma 88.094500
loop_
  _atom_site_label
  _atom_site_type_symbol
  _atom_site_fract_x
  _atom_site_fract_y
  _atom_site_fract_z
N1 N 0.26930 0.22480 0.22259
 N2 N 0.77083 -0.24190 0.25901
 N3 N 0.76337 0.22852 0.76506
 N4 N 0.23021 -0.24087 0.77553
 N5 N 0.71563 -0.26854 0.76977
 N6 N 0.26878 0.26072 0.71339
 N7 N 0.27413 -0.27700 0.27180
 N8 N 0.75652 0.23545 0.24783
 O9 O 0.20326 0.02087 0.45571
 O10 O 0.21706 -0.04368 0.53745
 O11 O 0.20817 0.02907 0.52501
 O12 O 0.20767 -0.05283 0.46786
 O13 O 0.26846 -0.05102 0.46541
 O14 O 0.26881 0.03273 0.52217
 O15 O 0.27773 -0.04047 0.53480
 O16 O 0.26402 0.02240 0.45294
 Cu17 Cu 0.20297 -0.01206 0.49668
 Cu18 Cu 0.27585 -0.00893 0.49355
 C19 C 0.23148 0.03283 0.44062
 C20 C 0.24991 -0.05272 0.55016
 C21 C 0.23826 0.04506 0.53315
 C22 C 0.23773 -0.06602 0.45696
 O23 O 0.69078 0.02162 0.54546
 O24 O 0.69725 -0.05085 0.47777
 O25 O 0.70265 -0.05161 0.54800
 O26 O 0.68788 0.02293 0.47465
 O27 O 0.74835 0.03024 0.47580
 O28 O 0.76318 -0.04490 0.54786
 O29 O 0.75764 -0.04338 0.47727
 O30 O 0.75139 0.02822 0.54673
 Cu31 Cu 0.68856 -0.01505 0.51138
 Cu32 Cu 0.76119 -0.00664 0.51190
 C33 C 0.71990 0.03689 0.55802
 C34 C 0.72840 -0.05956 0.46604
 C35 C 0.73555 -0.06102 0.56026
 C36 C 0.71571 0.03922 0.46271
 O37 O 0.46858 0.25852 0.01507
 O38 O 0.54467 0.25968 -0.04618
 O39 O 0.54077 0.26005 0.02377
 O40 O 0.47274 0.25991 -0.05521
 O41 O 0.47076 0.32263 -0.05809
 O42 O 0.53728 0.32275 0.02142
 O43 O 0.54235 0.32238 -0.04823
 O44 O 0.46525 0.32120 0.01204
 Cu45 Cu 0.50687 0.25322 -0.01531
 Cu46 Cu 0.50351 0.32853 -0.01838
 C47 C 0.45395 0.28964 0.02399
 C48 C 0.55647 0.29122 -0.05763
 C49 C 0.55068 0.29156 0.03590
 C50 C 0.46065 0.29137 -0.07039
 O51 O 0.53577 0.77403 0.05389
 O52 O 0.45537 0.76926 -0.01277
 O53 O 0.52682 0.77232 -0.01667
 O54 O 0.46428 0.76935 0.05757
 O55 O 0.45915 0.83199 0.05464
 O56 O 0.52110 0.83489 -0.02050
 O57 O 0.44954 0.83187 -0.01535
 O58 O 0.53028 0.83664 0.05008
 Cu59 Cu 0.49621 0.76495 0.02084
 Cu60 Cu 0.48959 0.84014 0.01681
 C61 C 0.54657 0.80626 0.06341
 C62 C 0.43858 0.79987 -0.02509
 C63 C 0.53445 0.80404 -0.03140
 C64 C 0.45097 0.80012 0.06869
 O65 O 0.04580 0.43891 0.22319
 O66 O -0.02553 0.51570 0.21226
 O67 O 0.04652 0.51186 0.21093
 O68 O -0.02580 0.44270 0.22706
 O69 O -0.01965 0.45237 0.28570
 O70 O 0.05338 0.51990 0.26980
 O71 O -0.01878 0.52532 0.27087
 O72 O 0.05177 0.44657 0.28219
 Cu73 Cu 0.00951 0.47646 0.21247
 Cu74 Cu 0.01734 0.48702 0.28302
 C75 C 0.06084 0.42948 0.25444
 C76 C -0.03425 0.53371 0.23949
 C77 C 0.06246 0.52742 0.23779
 C78 C -0.03492 0.43574 0.25924
 O79 O 0.02289 0.54007 0.70129
 O80 O -0.03698 0.45824 0.69808
 O81 O -0.04842 0.53161 0.69523
 O82 O 0.03429 0.46678 0.70616
 O83 O 0.03181 0.46647 0.76566
 O84 O -0.05019 0.53136 0.75478
 O85 O -0.03951 0.45772 0.75758
 O86 O 0.02127 0.53983 0.76088
 Cu87 Cu -0.00685 0.49920 0.69422
 Cu88 Cu -0.00944 0.49880 0.76571
 C89 C 0.03241 0.55383 0.73145
 C90 C -0.04846 0.44400 0.72715
 C91 C -0.06327 0.54264 0.72326
 C92 C 0.04709 0.45565 0.73787
 C93 C 0.29791 0.22425 0.19730
 C94 C 0.29655 0.24840 0.16609
 C95 C 0.32611 0.24958 0.14022
 C96 C 0.32791 0.28194 0.11697
 C97 C 0.35538 0.28451 0.09223
 C98 C 0.38170 0.25456 0.09015
 C99 C 0.37930 0.22178 0.11271
 C100 C 0.35189 0.21925 0.13752
 C101 C 0.41133 0.25594 0.06436
 C102 C 0.42364 0.28955 0.04860
 H103 H 0.27323 0.26837 0.16073
 H104 H 0.30805 0.30547 0.11806
 H105 H 0.35539 0.30973 0.07453
 H106 H 0.39884 0.19804 0.11123
 H107 H 0.35078 0.19324 0.15394
 H108 H 0.42523 0.22935 0.05882
 H109 H 0.32109 0.20418 0.20285
 H110 H 0.41188 0.31673 0.05522
 C111 C 0.74279 0.75517 0.22959
 C112 C 0.71773 0.78503 0.21782
 C113 C 0.68770 0.78232 0.18865
 C114 C 0.65955 0.81090 0.18484
 C115 C 0.63059 0.80974 0.15793
 C116 C 0.62925 0.77998 0.13390
 C117 C 0.65727 0.75133 0.13768
 C118 C 0.68639 0.75258 0.16448
 C119 C 0.59862 0.77744 0.10547
 C120 C 0.57794 0.80914 0.09051
 H121 H 0.71922 0.81157 0.23126
 H122 H 0.65973 0.83410 0.20305
 H123 H 0.60897 0.83180 0.15660
 H124 H 0.65685 0.72808 0.11952
 H125 H 0.70779 0.73039 0.16561
 H126 H 0.59299 0.74982 0.09512
 H127 H 0.74016 0.72810 0.21739
 H128 H 0.58501 0.83726 0.09851
 C129 C 0.73348 0.22570 -0.21118
 C130 C 0.71959 0.25746 -0.19448
 C131 C 0.68956 0.25680 -0.16909
 C132 C 0.68409 0.28861 -0.14837
 C133 C 0.65605 0.28976 -0.12422
 C134 C 0.63245 0.25914 -0.12054
 C135 C 0.63802 0.22721 -0.14105
 C136 C 0.66610 0.22604 -0.16524
 C137 C 0.60233 0.25917 -0.09528
 C138 C 0.58679 0.29218 -0.08219
 H139 H 0.73186 0.28455 -0.19989
 H140 H 0.70183 0.31263 -0.15063
 H141 H 0.65351 0.31445 -0.10819
 H142 H 0.62028 0.20320 -0.13868
 H143 H 0.66874 0.20123 -0.18106
 H144 H 0.59086 0.23214 -0.08788
 H145 H 0.72153 0.19835 -0.20678
 H146 H 0.59603 0.31974 -0.09088
 C147 C 0.26398 0.75807 -0.20159
 C148 C 0.26322 0.76222 -0.16439
 C149 C 0.29727 0.76285 -0.13997
 C150 C 0.29719 0.78483 -0.10934
 C151 C 0.32905 0.78632 -0.08590
 C152 C 0.36144 0.76526 -0.09237
 C153 C 0.36115 0.74226 -0.12232
 C154 C 0.32947 0.74131 -0.14615
 C155 C 0.39535 0.76614 -0.06776
 C156 C 0.40556 0.79886 -0.05044
 H157 H 0.23673 0.76803 -0.15335
 H158 H 0.27253 0.80121 -0.10376
 H159 H 0.32809 0.80346 -0.06243
 H160 H 0.38562 0.72537 -0.12750
 H161 H 0.33003 0.72325 -0.16899
 H162 H 0.41371 0.74112 -0.06476
 H163 H 0.29031 0.75628 -0.21376
 H164 H 0.38927 0.82502 -0.05623
 C165 C 0.24495 0.25786 0.22392
 C166 C 0.20783 0.25523 0.23159
 C167 C 0.18258 0.28897 0.23150
 C168 C 0.15497 0.29000 0.25632
 C169 C 0.13035 0.32144 0.25634
 C170 C 0.13256 0.35202 0.23096
 C171 C 0.15972 0.35060 0.20570
 C172 C 0.18475 0.31954 0.20612
 C173 C 0.10562 0.38456 0.22865
 C174 C 0.08884 0.39812 0.25860
 H175 H 0.19720 0.22783 0.23898
 H176 H 0.15256 0.26649 0.27579
 H177 H 0.10903 0.32128 0.27551
 H178 H 0.16154 0.37359 0.18554
 H179 H 0.20510 0.31905 0.18598
 H180 H 0.09986 0.39936 0.20244
 H181 H 0.25552 0.28550 0.21733
 H182 H 0.09693 0.38622 0.28558
 C183 C 0.20265 0.73167 0.78281
 C184 C 0.17615 0.72179 0.75583
 C185 C 0.14846 0.69212 0.76004
 C186 C 0.12074 0.68936 0.73192
 C187 C 0.09515 0.66070 0.73308
 C188 C 0.09692 0.63371 0.76234
 C189 C 0.12373 0.63713 0.79114
 C190 C 0.14946 0.66591 0.79000
 C191 C 0.07147 0.60172 0.76316
 C192 C 0.05664 0.58640 0.73146
 H193 H 0.17609 0.73601 0.72930
 H194 H 0.11899 0.70936 0.70871
 H195 H 0.07400 0.65989 0.71102
 H196 H 0.12543 0.61685 0.81413
 H197 H 0.17038 0.66668 0.81220
 H198 H 0.06631 0.58830 0.78917
 H199 H 0.20425 0.71687 0.80911
 H200 H 0.06413 0.59759 0.70534
 C201 C -0.20124 0.72821 0.26697
 C202 C -0.18780 0.70636 0.23982
 C203 C -0.15824 0.67627 0.24645
 C204 C -0.13843 0.66515 0.21718
 C205 C -0.11086 0.63634 0.22187
 C206 C -0.10289 0.61746 0.25598
 C207 C -0.12244 0.62883 0.28538
 C208 C -0.15002 0.65777 0.28070
 C209 C -0.07428 0.58626 0.26183
 C210 C -0.06264 0.56458 0.23380
 H211 H -0.19778 0.71313 0.21194
 H212 H -0.14410 0.67904 0.19056
 H213 H -0.09565 0.62944 0.19873
 H214 H -0.11680 0.61483 0.31195
 H215 H -0.16523 0.66491 0.30378
 H216 H -0.06316 0.57909 0.28932
 H217 H -0.18794 0.72507 0.29409
 H218 H -0.07513 0.56963 0.20654
 C219 C -0.20856 0.25595 0.77154
 C220 C -0.18879 0.27121 0.74353
 C221 C -0.16187 0.30169 0.74810
 C222 C -0.13660 0.30753 0.72144
 C223 C -0.11178 0.33697 0.72365
 C224 C -0.11209 0.36167 0.75244
 C225 C -0.13686 0.35544 0.77948
 C226 C -0.16172 0.32596 0.77728
 C227 C -0.08710 0.39402 0.75502
 C228 C -0.07238 0.41124 0.72478
 H229 H -0.19340 0.26050 0.71668
 H230 H -0.13604 0.28918 0.69877
 H231 H -0.09230 0.33997 0.70289
 H232 H -0.13758 0.37401 0.80197
 H233 H -0.18127 0.32314 0.79798
 H234 H -0.08184 0.40601 0.78125
 H235 H -0.20393 0.26583 0.79865
 H236 H -0.07931 0.40129 0.69802
 C237 C 0.26801 0.19229 0.24748
 C238 C 0.25569 0.19493 0.28231
 C239 C 0.25495 0.16193 0.30833
 C240 C 0.22864 0.16194 0.33451
 C241 C 0.22799 0.13184 0.36037
 C242 C 0.25408 0.10134 0.36078
 C243 C 0.28060 0.10153 0.33480
 C244 C 0.28097 0.13138 0.30869
 C245 C 0.25632 0.07059 0.38947
 C246 C 0.22638 0.05993 0.40909
 H247 H 0.24533 0.22203 0.29075
 H248 H 0.20863 0.18543 0.33504
 H249 H 0.20786 0.13323 0.38065
 H250 H 0.30138 0.07866 0.33496
 H251 H 0.30238 0.13099 0.28965
 H252 H 0.28288 0.05564 0.39536
 H253 H 0.27853 0.16517 0.23922
 H254 H 0.19885 0.07201 0.40173
 C255 C 0.76805 0.20095 0.73801
 C256 C 0.73785 0.18394 0.72051
 C257 C 0.74120 0.15729 0.69094
 C258 C 0.71171 0.13355 0.68278
 C259 C 0.71324 0.10849 0.65469
 C260 C 0.74423 0.10702 0.63366
 C261 C 0.77380 0.13065 0.64191
 C262 C 0.77229 0.15571 0.67004
 C263 C 0.74709 0.08073 0.60370
 C264 C 0.71643 0.06451 0.58631
 H265 H 0.71031 0.19031 0.72894
 H266 H 0.68746 0.13415 0.69844
 H267 H 0.69031 0.09001 0.65009
 H268 H 0.79801 0.13007 0.62619
 H269 H 0.79521 0.17419 0.67466
 H270 H 0.77436 0.07455 0.59448
 H271 H 0.79579 0.19443 0.73035
 H272 H 0.68872 0.07181 0.59361
 C273 C 0.22324 -0.21205 0.74672
 C274 C 0.25155 -0.19459 0.72902
 C275 C 0.24443 -0.16777 0.69707
 C276 C 0.27227 -0.14301 0.68796
 C277 C 0.26715 -0.11816 0.65736
 C278 C 0.23412 -0.11796 0.63486
 C279 C 0.20615 -0.14246 0.64415
 C280 C 0.21129 -0.16734 0.67470
 C281 C 0.22776 -0.09255 0.60186
 C282 C 0.25654 -0.07757 0.58311
 H283 H 0.28013 -0.20070 0.73863
 H284 H 0.29804 -0.14276 0.70469
 H285 H 0.28897 -0.09896 0.65179
 H286 H 0.18048 -0.14288 0.62727
 H287 H 0.18955 -0.18673 0.67999
 H288 H 0.19942 -0.08693 0.59095
 H289 H 0.19473 -0.20399 0.73835
 H290 H 0.28510 -0.08470 0.59220
 C291 C 0.77035 -0.21051 0.28242
 C292 C 0.76733 -0.21649 0.31958
 C293 C 0.76590 -0.18528 0.34484
 C294 C 0.74673 -0.19030 0.37629
 C295 C 0.74481 -0.16145 0.40081
 C296 C 0.76258 -0.12715 0.39456
 C297 C 0.78275 -0.12256 0.36370
 C298 C 0.78418 -0.15121 0.33884
 C299 C 0.76115 -0.09636 0.42031
 C300 C 0.73005 -0.08931 0.43961
 H301 H 0.76343 -0.24514 0.33009
 H302 H 0.73293 -0.21653 0.38177
 H303 H 0.72997 -0.16633 0.42493
 H304 H 0.79711 -0.09659 0.35863
 H305 H 0.80012 -0.14692 0.31537
 H306 H 0.78423 -0.07760 0.42266
 H307 H 0.77030 -0.18189 0.27061
 H308 H 0.70549 -0.10556 0.43460
 C309 C 0.69187 0.73195 -0.20054
 C310 C 0.66836 0.76313 -0.19494
 C311 C 0.64436 0.76496 -0.16413
 C312 C 0.63139 0.80060 -0.15403
 C313 C 0.60853 0.80367 -0.12523
 C314 C 0.59788 0.77092 -0.10598
 C315 C 0.61052 0.73525 -0.11646
 C316 C 0.63337 0.73221 -0.14523
 C317 C 0.57357 0.77219 -0.07526
 C318 C 0.55892 0.80535 -0.06160
 H319 H 0.66900 0.78827 -0.21276
 H320 H 0.63917 0.82626 -0.16837
 H321 H 0.59946 0.83178 -0.11852
 H322 H 0.60251 0.70950 -0.10242
 H323 H 0.64171 0.70414 -0.15284
 H324 H 0.56666 0.74522 -0.06269
 H325 H 0.69423 0.70832 -0.18073
 H326 H 0.56490 0.83299 -0.07301
 C327 C 0.29016 0.25773 -0.25242
 C328 C 0.32816 0.26325 -0.25064
 C329 C 0.35116 0.26186 -0.21605
 C330 C 0.38198 0.28484 -0.21283
 C331 C 0.40404 0.28456 -0.18032
 C332 C 0.39595 0.26074 -0.15060
 C333 C 0.36590 0.23676 -0.15422
 C334 C 0.34342 0.23753 -0.18656
 C335 C 0.41913 0.25979 -0.11612
 C336 C 0.43538 0.29224 -0.10320
 H337 H 0.34083 0.27163 -0.27535
 H338 H 0.38875 0.30337 -0.23540
 H339 H 0.42774 0.30252 -0.17870
 H340 H 0.35957 0.21776 -0.13183
 H341 H 0.32044 0.21868 -0.18862
 H342 H 0.42219 0.23340 -0.09986
 H343 H 0.27614 0.25309 -0.22776
 H344 H 0.42940 0.31939 -0.11761
 C345 C 0.29715 0.72234 0.24152
 C346 C 0.31303 0.75532 0.22822
 C347 C 0.33850 0.75689 0.19849
 C348 C 0.35830 0.79001 0.19323
 C349 C 0.38280 0.79314 0.16575
 C350 C 0.38773 0.76322 0.14252
 C351 C 0.36807 0.73001 0.14781
 C352 C 0.34354 0.72686 0.17533
 C353 C 0.41359 0.76523 0.11318
 C354 C 0.42565 0.79927 0.09813
 H355 H 0.30710 0.78166 0.24097
 H356 H 0.35513 0.81351 0.21076
 H357 H 0.39818 0.81878 0.16336
 H358 H 0.37145 0.70651 0.13033
 H359 H 0.32848 0.70105 0.17786
 H360 H 0.42231 0.73881 0.10196
 H361 H 0.30171 0.69568 0.22899
 H362 H 0.41553 0.82621 0.10708
 C363 C 0.72604 0.23155 0.22123
 C364 C 0.71259 0.26224 0.19831
 C365 C 0.68220 0.26057 0.16947
 C366 C 0.67569 0.29213 0.14513
 C367 C 0.64760 0.29229 0.11731
 C368 C 0.62497 0.26088 0.11340
 C369 C 0.63155 0.22916 0.13752
 C370 C 0.65969 0.22899 0.16544
 C371 C 0.59524 0.25990 0.08391
 C372 C 0.57835 0.29267 0.06674
 H373 H 0.72556 0.28925 0.20139
 H374 H 0.69272 0.31673 0.14738
 H375 H 0.64434 0.31679 0.09859
 H376 H 0.61463 0.20453 0.13494
 H377 H 0.66325 0.20418 0.18367
 H378 H 0.58579 0.23245 0.07600
 H379 H 0.71333 0.20435 0.21970
 H380 H 0.58553 0.32032 0.07593
 C381 C -0.25321 0.70468 0.77275
 C382 C -0.23806 0.68991 0.74236
 C383 C -0.20575 0.66269 0.74453
 C384 C -0.19926 0.64126 0.71439
 C385 C -0.16892 0.61549 0.71523
 C386 C -0.14414 0.61095 0.74626
 C387 C -0.15058 0.63246 0.77633
 C388 C -0.18082 0.65826 0.77545
 C389 C -0.11187 0.58372 0.74882
 C390 C -0.09594 0.56889 0.71889
 H391 H -0.25132 0.69755 0.71577
 H392 H -0.21797 0.64419 0.69020
 H393 H -0.16548 0.59887 0.69178
 H394 H -0.13187 0.62960 0.80053
 H395 H -0.18403 0.67500 0.79886
 H396 H -0.09907 0.57620 0.77564
 H397 H -0.24307 0.69387 0.79956
 H398 H -0.10662 0.57742 0.69162
 C399 C -0.21396 0.26005 0.23924
 C400 C -0.19246 0.27750 0.26607
 C401 C -0.16378 0.30529 0.25831
 C402 C -0.13751 0.31344 0.28630
 C403 C -0.11048 0.34006 0.28054
 C404 C -0.10943 0.35954 0.24660
 C405 C -0.13548 0.35121 0.21851
 C406 C -0.16258 0.32465 0.22428
 C407 C -0.08134 0.38808 0.23937
 C408 C -0.06320 0.40796 0.26666
 H409 H -0.19691 0.27056 0.29423
 H410 H -0.13774 0.29895 0.31274
 H411 H -0.09024 0.34478 0.30261
 H412 H -0.13526 0.36580 0.19211
 H413 H -0.18280 0.32017 0.20217
 H414 H -0.07583 0.39474 0.21141
 H415 H -0.20964 0.26616 0.21098
 H416 H -0.07000 0.40356 0.29452
 C417 C 0.23944 0.28944 0.70636
 C418 C 0.22337 0.30853 0.73402
 C419 C 0.19196 0.33667 0.72763
 C420 C 0.18475 0.36149 0.75508
 C421 C 0.15460 0.38750 0.75093
 C422 C 0.13063 0.38891 0.71927
 C423 C 0.13810 0.36451 0.69157
 C424 C 0.16823 0.33841 0.69575
 C425 C 0.09789 0.41547 0.71419
 C426 C 0.08003 0.42994 0.74313
 H427 H 0.23424 0.30304 0.76178
 H428 H 0.20260 0.36082 0.77986
 H429 H 0.15051 0.40663 0.77244
 H430 H 0.12008 0.36506 0.66691
 H431 H 0.17209 0.31918 0.67429
 H432 H 0.08627 0.42222 0.68679
 H433 H 0.23022 0.29713 0.67854
 H434 H 0.08965 0.42150 0.77074
 C435 C 0.24705 0.69448 0.27658
 C436 C 0.22809 0.67842 0.24717
 C437 C 0.19808 0.65115 0.25102
 C438 C 0.18852 0.62818 0.22207
 C439 C 0.16006 0.60243 0.22442
 C440 C 0.14021 0.59947 0.25579
 C441 C 0.14969 0.62256 0.28464
 C442 C 0.17807 0.64828 0.28228
 C443 C 0.11020 0.57231 0.26007
 C444 C 0.09189 0.55434 0.23148
 H445 H 0.23555 0.68608 0.22002
 H446 H 0.20339 0.62990 0.19763
 H447 H 0.15428 0.58466 0.20184
 H448 H 0.13480 0.62096 0.30908
 H449 H 0.18358 0.66623 0.30479
 H450 H 0.10138 0.56697 0.28720
 H451 H 0.24048 0.68647 0.30390
 H452 H 0.09862 0.56022 0.20381
 C453 C 0.70774 -0.24323 0.73833
 C454 C 0.73589 -0.22409 0.72204
 C455 C 0.72920 -0.19568 0.69139
 C456 C 0.75864 -0.18713 0.66996
 C457 C 0.75395 -0.15976 0.64137
 C458 C 0.71969 -0.13985 0.63395
 C459 C 0.69014 -0.14864 0.65517
 C460 C 0.69482 -0.17607 0.68375
 C461 C 0.71359 -0.11015 0.60430
 C462 C 0.74235 -0.09086 0.58920
 H463 H 0.76435 -0.23051 0.73211
 H464 H 0.78536 -0.20189 0.67523
 H465 H 0.77713 -0.15477 0.62505
 H466 H 0.66347 -0.13376 0.65002
 H467 H 0.67168 -0.18100 0.70015
 H468 H 0.68522 -0.10198 0.59511
 H469 H 0.67906 -0.23749 0.72885
 H470 H 0.77082 -0.09690 0.59920
 C471 C 0.28171 -0.25079 0.29990
 C472 C 0.25390 -0.23713 0.32081
 C473 C 0.25933 -0.20718 0.34727
 C474 C 0.23336 -0.20297 0.37341
 C475 C 0.23605 -0.17380 0.39762
 C476 C 0.26458 -0.14775 0.39583
 C477 C 0.29111 -0.15247 0.37032
 C478 C 0.28843 -0.18169 0.34606
 C479 C 0.26712 -0.11532 0.41982
 C480 C 0.23604 -0.09912 0.43432
 H481 H 0.22650 -0.24852 0.31731
 H482 H 0.21079 -0.22229 0.37504
 H483 H 0.21579 -0.17195 0.41772
 H484 H 0.31339 -0.13284 0.36847
 H485 H 0.30856 -0.18327 0.32584
 H486 H 0.29367 -0.10229 0.42423
 H487 H 0.30940 -0.24027 0.30354
 H488 H 0.20891 -0.11014 0.42801
 C489 C 0.76061 0.21039 0.27982
 C490 C 0.72998 0.19498 0.29550
 C491 C 0.73277 0.16812 0.32766
 C492 C 0.70247 0.14553 0.33418
 C493 C 0.70399 0.11935 0.36383
 C494 C 0.73586 0.11555 0.38794
 C495 C 0.76597 0.13849 0.38165
 C496 C 0.76446 0.16465 0.35201
 C497 C 0.73952 0.08727 0.41899
 C498 C 0.70983 0.06854 0.43309
 H499 H 0.70253 0.20196 0.28293
 H500 H 0.67770 0.14767 0.31589
 H501 H 0.68044 0.10175 0.36709
 H502 H 0.79083 0.13624 0.39983
 H503 H 0.78802 0.18223 0.34872
 H504 H 0.76713 0.08118 0.43164
 H505 H 0.78827 0.20366 0.29183
 H506 H 0.68165 0.07520 0.42251
 C507 C 0.27795 0.23439 0.68639
 C508 C 0.25264 0.22579 0.65790
 C509 C 0.25838 0.19502 0.63261
 C510 C 0.22794 0.18520 0.60981
 C511 C 0.23080 0.15498 0.58705
 C512 C 0.26424 0.13351 0.58676
 C513 C 0.29528 0.14441 0.60810
 C514 C 0.29248 0.17485 0.63087
 C515 C 0.26727 0.09976 0.56462
 C516 C 0.23662 0.07832 0.55543
 H517 H 0.22564 0.24017 0.65563
 H518 H 0.20154 0.20066 0.60995
 H519 H 0.20669 0.14866 0.56973
 H520 H 0.32157 0.12880 0.60776
 H521 H 0.31706 0.18203 0.64699
 H522 H 0.29441 0.09049 0.55699
 H523 H 0.30384 0.21812 0.69073
 H524 H 0.20990 0.08584 0.56510
   
