data_POSCAR
  _audit_creation_date              2014-09-24
  _audit_creation_method            'ToBaCCo'
  _symmetry_space_group_name_H-M    'P1'
  _symmetry_Int_Tables_number       1
  _symmetry_cell_setting            triclinic
  loop_
  _symmetry_equiv_pos_as_xyz
 x,y,z
_cell_length_a 52.9103
_cell_length_b 52.9807
_cell_length_c 52.7307
_cell_angle_alpha 90.014800
_cell_angle_beta 89.926300
_cell_angle_gamma 90.051200
loop_
  _atom_site_label
  _atom_site_type_symbol
  _atom_site_fract_x
  _atom_site_fract_y
  _atom_site_fract_z
N1 N 0.15011 0.16881 0.21850
 N2 N 0.16804 0.15170 0.21886
 C3 C 0.16405 0.13600 0.23856
 C4 C 0.14238 0.14367 0.25140
 C5 C 0.13414 0.16465 0.23793
 H6 H 0.17607 0.12017 0.24307
 H7 H 0.11773 0.17615 0.24176
 Cu8 Cu 0.19480 0.15151 0.19342
 Cu9 Cu 0.14860 0.19514 0.19280
 Cu10 Cu 0.19513 0.19464 0.14653
 N11 N 0.22039 0.15112 0.16681
 N12 N 0.22041 0.16803 0.14861
 C13 C 0.23983 0.16344 0.13279
 C14 C 0.25290 0.14238 0.14142
 C15 C 0.23985 0.13514 0.16316
 H16 H 0.24393 0.17468 0.11620
 H17 H 0.24402 0.11938 0.17544
 N18 N 0.16795 0.22004 0.14764
 N19 N 0.15024 0.22022 0.16526
 C20 C 0.13449 0.23968 0.16087
 C21 C 0.14261 0.25247 0.13941
 C22 C 0.16392 0.23938 0.13159
 H23 H 0.11827 0.24414 0.17248
 H24 H 0.17567 0.24355 0.11536
 H25 H 0.16697 0.17467 0.16490
 H26 H 0.18684 0.19606 0.18478
 N27 N -0.14902 0.83262 0.22010
 N28 N -0.16707 0.84963 0.22049
 C29 C -0.16297 0.86558 0.23997
 C30 C -0.14117 0.85817 0.25253
 C31 C -0.13289 0.83713 0.23927
 H32 H -0.17502 0.88136 0.24464
 H33 H -0.11626 0.82595 0.24309
 Cu34 Cu -0.19408 0.84932 0.19542
 Cu35 Cu -0.14764 0.80595 0.19476
 Cu36 Cu -0.19470 0.80552 0.14915
 N37 N -0.21995 0.84921 0.16917
 N38 N -0.22009 0.83204 0.15121
 C39 C -0.23970 0.83635 0.13558
 C40 C -0.25274 0.85751 0.14410
 C41 C -0.23948 0.86509 0.16556
 H42 H -0.24392 0.82489 0.11919
 H43 H -0.24356 0.88101 0.17767
 N44 N -0.16737 0.78027 0.15024
 N45 N -0.14945 0.78048 0.16761
 C46 C -0.13363 0.76105 0.16332
 C47 C -0.14191 0.74786 0.14220
 C48 C -0.16339 0.76067 0.13445
 H49 H -0.11720 0.75694 0.17471
 H50 H -0.17534 0.75608 0.11851
 H51 H -0.16643 0.82591 0.16684
 H52 H -0.18596 0.80471 0.18730
 N53 N -0.15120 0.16635 -0.21909
 N54 N -0.16808 0.14818 -0.21835
 C55 C -0.16395 0.13229 -0.23786
 C56 C -0.14330 0.14091 -0.25162
 C57 C -0.13576 0.16264 -0.23904
 H58 H -0.17505 0.11558 -0.24161
 H59 H -0.12019 0.17491 -0.24393
 Cu60 Cu -0.19377 0.14694 -0.19188
 Cu61 Cu -0.15020 0.19324 -0.19395
 Cu62 Cu -0.19635 0.19236 -0.14728
 N63 N -0.22004 0.14725 -0.16598
 N64 N -0.22096 0.16504 -0.14867
 C65 C -0.24079 0.16079 -0.13325
 C66 C -0.25318 0.13904 -0.14124
 C67 C -0.23931 0.13105 -0.16218
 H68 H -0.24565 0.17275 -0.11739
 H69 H -0.24285 0.11468 -0.17385
 N70 N -0.16980 0.21844 -0.14907
 N71 N -0.15227 0.21880 -0.16687
 C72 C -0.13686 0.23864 -0.16286
 C73 C -0.14501 0.25150 -0.14146
 C74 C -0.16599 0.23806 -0.13328
 H75 H -0.12078 0.24324 -0.17462
 H76 H -0.17761 0.24213 -0.11694
 H77 H -0.16717 0.17326 -0.16485
 H78 H -0.18845 0.19223 -0.18567
 N79 N 0.15119 0.83421 -0.21911
 N80 N 0.16865 0.85180 -0.21791
 C81 C 0.16530 0.86809 -0.23723
 C82 C 0.14458 0.86034 -0.25134
 C83 C 0.13617 0.83869 -0.23917
 H84 H 0.17704 0.88444 -0.24064
 H85 H 0.12029 0.82698 -0.24441
 Cu86 Cu 0.19401 0.85177 -0.19117
 Cu87 Cu 0.14905 0.80687 -0.19455
 Cu88 Cu 0.19472 0.80533 -0.14759
 N89 N 0.21996 0.85011 -0.16505
 N90 N 0.22015 0.83191 -0.14816
 C91 C 0.23987 0.83523 -0.13243
 C92 C 0.25296 0.85679 -0.13975
 C93 C 0.23962 0.86566 -0.16065
 H94 H 0.24414 0.82279 -0.11680
 H95 H 0.24378 0.88219 -0.17187
 N96 N 0.16744 0.78011 -0.15015
 N97 N 0.15003 0.78072 -0.16801
 C98 C 0.13398 0.76128 -0.16452
 C99 C 0.14158 0.74769 -0.14341
 C100 C 0.16292 0.76027 -0.13484
 H101 H 0.11781 0.75748 -0.17640
 H102 H 0.17434 0.75542 -0.11860
 H103 H 0.16632 0.82572 -0.16494
 H104 H 0.18721 0.80654 -0.18605
 N105 N 0.17003 1.15032 0.78126
 N106 N 0.15264 1.16800 0.78115
 C107 C 0.13704 1.16413 0.76135
 C108 C 0.14509 1.14286 0.74829
 C109 C 0.16612 1.13465 0.76157
 H110 H 0.12106 1.17596 0.75678
 H111 H 0.17761 1.11830 0.75748
 Cu112 Cu 0.15196 1.19410 0.80711
 Cu113 Cu 0.19625 1.14863 0.80708
 Cu114 Cu 0.19540 1.19494 0.85354
 N115 N 0.15173 1.22000 0.83329
 N116 N 0.16881 1.22018 0.85134
 C117 C 0.16439 1.23977 0.86694
 C118 C 0.14333 1.25267 0.85829
 C119 C 0.13580 1.23951 0.83685
 H120 H 0.17555 1.24406 0.88354
 H121 H 0.11998 1.24385 0.82467
 N122 N 0.22078 1.16780 0.85251
 N123 N 0.22114 1.15019 0.83483
 C124 C 0.24057 1.13444 0.83936
 C125 C 0.25313 1.14246 0.86097
 C126 C 0.23996 1.16371 0.86874
 H127 H 0.24516 1.11829 0.82774
 H128 H 0.24393 1.17534 0.88507
 H129 H 0.17580 1.16648 0.83525
 H130 H 0.19670 1.18675 0.81523
 N131 N 0.83324 0.85193 0.78070
 N132 N 0.85136 0.83502 0.78124
 C133 C 0.86726 0.83927 0.76174
 C134 C 0.85869 0.86003 0.74822
 C135 C 0.83699 0.86751 0.76092
 H136 H 0.88386 0.82809 0.75777
 H137 H 0.82476 0.88313 0.75624
 Cu138 Cu 0.85250 0.80900 0.80728
 Cu139 Cu 0.80627 0.85273 0.80572
 Cu140 Cu 0.80614 0.80559 0.85112
 N141 N 0.85129 0.78205 0.83234
 N142 N 0.83312 0.78076 0.84929
 C143 C 0.83693 0.76050 0.86418
 C144 C 0.85871 0.74831 0.85617
 C145 C 0.86726 0.76260 0.83586
 H146 H 0.82468 0.75509 0.87966
 H147 H 0.88400 0.75926 0.82460
 N148 N 0.78046 0.83243 0.84990
 N149 N 0.78056 0.85041 0.83261
 C150 C 0.76100 0.86605 0.83697
 C151 C 0.74785 0.85757 0.85806
 C152 C 0.76081 0.83616 0.86572
 H153 H 0.75687 0.88259 0.82576
 H154 H 0.75635 0.82417 0.88167
 H155 H 0.82583 0.83504 0.83456
 H156 H 0.80708 0.81434 0.81284
 N157 N 0.16516 0.84906 1.21773
 N158 N 0.14505 0.83479 1.21490
 C159 C 0.12907 0.83889 1.23434
 C160 C 0.13967 0.85684 1.25027
 C161 C 0.16264 0.86280 1.23904
 H162 H 0.11092 0.82975 1.23641
 H163 H 0.17643 0.87635 1.24562
 Cu164 Cu 0.14137 0.81244 1.18601
 Cu165 Cu 0.19228 0.85003 1.19275
 Cu166 Cu 0.18545 0.81102 1.14033
 N167 N 0.14377 0.78438 1.16241
 N168 N 0.16100 0.78393 1.14449
 C169 C 0.15778 0.76313 1.13024
 C170 C 0.13739 0.74963 1.13979
 C171 C 0.12903 0.76378 1.16030
 H172 H 0.16922 0.75855 1.11389
 H173 H 0.11326 0.75967 1.17267
 N174 N 0.21434 0.83396 1.14486
 N175 N 0.21728 0.84837 1.16504
 C176 C 0.23878 0.86175 1.16246
 C177 C 0.24999 0.85542 1.13956
 C178 C 0.23391 0.83767 1.12897
 H179 H 0.24565 0.87523 1.17619
 H180 H 0.23605 0.82834 1.11088
 H181 H 0.17050 0.84014 1.16254
 H182 H 0.18676 0.81364 1.17908
 N183 N 0.83381 1.15068 1.22000
 N184 N 0.85090 1.16865 1.21927
 C185 C 0.86729 1.16529 1.23850
 C186 C 0.86009 1.14403 1.25207
 C187 C 0.83871 1.13530 1.23968
 H188 H 0.88324 1.17744 1.24229
 H189 H 0.82752 1.11890 1.24442
 Cu190 Cu 0.85011 1.19451 1.19310
 Cu191 Cu 0.80652 1.14837 1.19538
 Cu192 Cu 0.80469 1.19428 1.14861
 N193 N 0.84887 1.22014 1.16672
 N194 N 0.83105 1.21992 1.14941
 C195 C 0.83461 1.23940 1.13344
 C196 C 0.85588 1.25267 1.14108
 C197 C 0.86440 1.23981 1.16233
 H198 H 0.82260 1.24343 1.11740
 H199 H 0.88074 1.24431 1.17372
 N200 N 0.77973 1.16678 1.15100
 N201 N 0.78043 1.14930 1.16878
 C202 C 0.76105 1.13319 1.16524
 C203 C 0.74741 1.14084 1.14418
 C204 C 0.75989 1.16225 1.13569
 H205 H 0.75726 1.11703 1.17713
 H206 H 0.75501 1.17370 1.11949
 H207 H 0.82548 1.16628 1.16622
 H208 H 0.80518 1.18640 1.18701
 O209 O 0.46462 0.95185 0.95796
 O210 O 0.43694 0.97600 0.98099
 C211 C 0.44188 0.95842 0.96462
 O212 O 0.53563 0.95418 1.04831
 O213 O 0.56317 0.97690 1.02367
 C214 C 0.55833 0.96068 1.04143
 O215 O 0.46443 0.95156 1.04570
 O216 O 0.43683 0.97582 1.02276
 C217 C 0.44173 0.95812 1.03899
 O218 O 0.53579 0.95451 0.95568
 O219 O 0.56326 0.97748 0.98014
 C220 C 0.55846 0.96114 0.96248
 Zr221 Zr 0.50013 0.96625 0.96988
 O222 O 0.50307 0.92641 0.96965
 O223 O 0.49737 0.96659 0.92983
 Zr224 Zr 0.50004 0.96603 1.03408
 O225 O 0.50300 0.92619 1.03397
 O226 O 0.49707 0.96603 1.07412
 O227 O 0.47762 0.96113 1.00194
 O228 O 0.52199 0.96160 1.00197
 O229 O 0.53557 1.04195 0.95579
 O230 O 0.56319 1.01914 0.98018
 C231 C 0.55829 1.03539 0.96247
 O232 O 0.46417 1.04382 1.04636
 O233 O 0.43673 1.01918 1.02360
 C234 C 0.44150 1.03688 1.03989
 O235 O 0.53530 1.04189 1.04864
 O236 O 0.56300 1.01962 1.02380
 C237 C 0.55803 1.03562 1.04172
 O238 O 0.46436 1.04431 0.95836
 O239 O 0.43679 1.01990 0.98129
 C240 C 0.44166 1.03761 0.96504
 Zr241 Zr 0.49995 1.03004 0.97004
 O242 O 0.50277 1.06989 0.97002
 O243 O 0.49707 1.02993 0.92999
 Zr244 Zr 0.49983 1.02991 1.03427
 O245 O 0.50252 1.06979 1.03405
 O246 O 0.49691 1.02996 1.07431
 Zr247 Zr 0.46252 0.99794 1.00204
 Zr248 Zr 0.53748 0.99820 1.00216
 O249 O 0.52178 1.03468 1.00217
 O250 O 0.47738 1.03487 1.00217
 O251 O 0.52259 0.99823 0.96507
 O252 O 0.47801 0.99785 1.03878
 O253 O 0.47808 0.99809 0.96531
 O254 O 0.52247 0.99805 1.03921
 H255 H 0.53346 0.94684 1.00191
 H256 H 0.46652 0.99767 1.05363
 H257 H 0.53321 1.04950 1.00216
 H258 H 0.46654 0.99811 0.95051
 H259 H 0.51118 0.97632 1.08078
 H260 H 0.51088 1.01951 1.08096
 H261 H 0.48805 1.07632 1.02419
 H262 H 0.48890 1.07646 0.98074
 H263 H 0.51141 1.01999 0.92331
 H264 H 0.51160 0.97682 0.92327
 H265 H 0.48905 0.91969 0.98009
 H266 H 0.48906 0.91956 1.02342
 O267 O 0.04289 0.53542 -0.04759
 O268 O 0.01979 0.56297 -0.02337
 C269 C 0.03621 0.55810 -0.04096
 O270 O -0.04732 0.46434 -0.04569
 O271 O -0.02332 0.43679 -0.02243
 C272 C -0.04081 0.44166 -0.03891
 O273 O -0.04470 0.53545 -0.04817
 O274 O -0.02238 0.56295 -0.02318
 C275 C -0.03831 0.55811 -0.04120
 O276 O 0.04505 0.46435 -0.04530
 O277 O 0.02019 0.43683 -0.02283
 C278 C 0.03805 0.44168 -0.03895
 Zr279 Zr 0.03099 0.49988 -0.03325
 O280 O 0.03171 0.49710 -0.07329
 O281 O 0.07090 0.50270 -0.03244
 Zr282 Zr -0.03304 0.49991 -0.03379
 O283 O -0.03265 0.49700 -0.07384
 O284 O -0.07294 0.50286 -0.03405
 O285 O -0.00094 0.52236 -0.03852
 O286 O -0.00105 0.47804 -0.03819
 O287 O 0.04450 0.46423 0.04271
 O288 O 0.02040 0.43673 0.01944
 C289 C 0.03791 0.44157 0.03592
 O290 O -0.04542 0.53552 0.04460
 O291 O -0.02215 0.56302 0.02044
 C292 C -0.03864 0.55819 0.03799
 O293 O -0.04793 0.46444 0.04227
 O294 O -0.02314 0.43687 0.01981
 C295 C -0.04102 0.44176 0.03590
 O296 O 0.04211 0.53532 0.04532
 O297 O 0.01955 0.56292 0.02070
 C298 C 0.03563 0.55801 0.03856
 Zr299 Zr 0.03032 0.49981 0.03091
 O300 O 0.02976 0.49688 0.07094
 O301 O 0.07022 0.50264 0.03135
 Zr302 Zr -0.03364 0.49994 0.03033
 O303 O -0.03420 0.49713 0.07037
 O304 O -0.07354 0.50285 0.02970
 Zr305 Zr -0.00122 0.53731 -0.00147
 Zr306 Zr -0.00142 0.46246 -0.00149
 O307 O -0.00173 0.47799 0.03525
 O308 O -0.00164 0.52234 0.03558
 O309 O 0.03555 0.47734 -0.00117
 O310 O -0.03787 0.52184 -0.00175
 O311 O 0.03534 0.52176 -0.00113
 O312 O -0.03833 0.47743 -0.00176
 H313 H -0.00104 0.46661 -0.05306
 H314 H -0.05264 0.53332 -0.00181
 H315 H -0.00180 0.46653 0.05009
 H316 H 0.05011 0.53327 -0.00102
 H317 H -0.07969 0.48884 -0.02368
 H318 H -0.08007 0.48842 0.01976
 H319 H -0.02362 0.51097 0.07712
 H320 H 0.01958 0.51111 0.07751
 H321 H 0.07692 0.48889 0.02059
 H322 H 0.07737 0.48803 -0.02285
 H323 H 0.02083 0.51069 -0.08003
 H324 H -0.02236 0.51116 -0.08042
 O325 O 0.95868 0.04775 0.46418
 O326 O 0.98150 0.02336 0.43648
 C327 C 0.96532 0.04107 0.44140
 O328 O 1.04843 0.04533 0.53544
 O329 O 1.02376 0.02285 0.56318
 C330 C 1.04154 0.03897 0.55824
 O331 O 1.04617 0.04748 0.46403
 O332 O 1.02318 0.02316 0.43645
 C333 C 1.03954 0.04075 0.44127
 O334 O 0.95602 0.04522 0.53565
 O335 O 0.98026 0.02230 0.56333
 C336 C 0.96264 0.03858 0.55844
 Zr337 Zr 0.97030 0.03346 0.49991
 O338 O 0.97039 0.07331 0.50285
 O339 O 0.93040 0.03351 0.49701
 Zr340 Zr 1.03422 0.03335 0.49979
 O341 O 1.03424 0.07322 0.50257
 O342 O 1.07414 0.03320 0.49689
 O343 O 1.00228 0.03829 0.47726
 O344 O 1.00227 0.03803 0.52185
 O345 O 0.95583 -0.04217 0.53567
 O346 O 0.98027 -0.01938 0.56331
 C347 C 0.96257 -0.03561 0.55843
 O348 O 1.04573 -0.04495 0.46417
 O349 O 1.02287 -0.02069 0.43648
 C350 C 1.03907 -0.03836 0.44139
 O351 O 1.04845 -0.04218 0.53559
 O352 O 1.02420 -0.01922 0.56329
 C353 C 1.04186 -0.03546 0.55838
 O354 O 0.95796 -0.04448 0.46432
 O355 O 0.98070 -0.02006 0.43659
 C356 C 0.96438 -0.03765 0.44152
 Zr357 Zr 0.97008 -0.03038 0.49997
 O358 O 0.97014 -0.07023 0.50282
 O359 O 0.93017 -0.03030 0.49722
 Zr360 Zr 1.03407 -0.03056 0.49988
 O361 O 1.03388 -0.07040 0.50293
 O362 O 1.07396 -0.03069 0.49682
 Zr363 Zr 1.00219 0.00138 0.46228
 Zr364 Zr 1.00221 0.00148 0.53749
 O365 O 1.00208 -0.03508 0.52194
 O366 O 1.00204 -0.03547 0.47734
 O367 O 0.96527 0.00157 0.52253
 O368 O 1.03878 0.00134 0.47782
 O369 O 0.96558 0.00155 0.47795
 O370 O 1.03913 0.00143 0.52240
 H371 H 1.00222 0.05283 0.53334
 H372 H 1.05353 0.00126 0.46623
 H373 H 1.00209 -0.04979 0.53354
 H374 H 0.95077 0.00166 0.46648
 H375 H 1.08072 0.02308 0.51117
 H376 H 1.08065 -0.02010 0.51073
 H377 H 1.02345 -0.07704 0.48887
 H378 H 0.98016 -0.07685 0.48844
 H379 H 0.92359 -0.01996 0.51138
 H380 H 0.92372 0.02317 0.51112
 H381 H 0.98084 0.07992 0.48877
 H382 H 1.02404 0.07981 0.48833
 C383 C 1.10860 0.11040 0.31629
 C384 C 1.09781 0.13176 0.30519
 C385 C 1.10895 0.14280 0.28383
 C386 C 1.13119 0.13262 0.27308
 C387 C 1.14187 0.11106 0.28461
 C388 C 1.13065 0.10010 0.30597
 C389 C 1.09688 0.09890 0.33807
 C390 C 1.08691 0.08916 0.35618
 C391 C 1.07486 0.07732 0.37761
 C392 C 1.08188 0.08387 0.40234
 C393 C 1.07031 0.07213 0.42311
 C394 C 1.05156 0.05363 0.41938
 C395 C 1.04455 0.04731 0.39441
 C396 C 1.05613 0.05908 0.37371
 H397 H 1.08071 0.13989 0.31300
 H398 H 1.09988 0.15927 0.27591
 H399 H 1.15886 0.10241 0.27729
 H400 H 1.13916 0.08351 0.31440
 H401 H 1.09635 0.09798 0.40557
 H402 H 1.07616 0.07745 0.44204
 H403 H 1.03017 0.03321 0.39079
 H404 H 1.05053 0.05388 0.35465
 C405 C 0.89367 -0.10713 0.31757
 C406 C 0.90307 -0.12988 0.30801
 C407 C 0.89173 -0.14118 0.28694
 C408 C 0.87077 -0.12987 0.27505
 C409 C 0.86144 -0.10699 0.28492
 C410 C 0.87282 -0.09572 0.30601
 C411 C 0.90560 -0.09541 0.33909
 C412 C 0.91577 -0.08559 0.35702
 C413 C 0.92809 -0.07379 0.37827
 C414 C 0.92145 -0.08050 0.40307
 C415 C 0.93335 -0.06890 0.42369
 C416 C 0.95205 -0.05038 0.41975
 C417 C 0.95866 -0.04389 0.39470
 C418 C 0.94674 -0.05552 0.37414
 H419 H 0.91921 -0.13887 0.31681
 H420 H 0.89946 -0.15880 0.28011
 H421 H 0.84546 -0.09759 0.27635
 H422 H 0.86541 -0.07807 0.31324
 H423 H 0.90704 -0.09464 0.40647
 H424 H 0.92779 -0.07435 0.44269
 H425 H 0.97298 -0.02976 0.39093
 H426 H 0.95205 -0.05021 0.35502
 C427 C 0.89090 0.10680 0.68261
 C428 C 0.90209 0.12788 0.69397
 C429 C 0.89094 0.13905 0.71525
 C430 C 0.86838 0.12926 0.72554
 C431 C 0.85724 0.10810 0.71383
 C432 C 0.86844 0.09698 0.69255
 C433 C 0.90267 0.09506 0.66099
 C434 C 0.91271 0.08516 0.64302
 C435 C 0.92495 0.07328 0.62174
 C436 C 0.94340 0.05483 0.62583
 C437 C 0.95557 0.04347 0.60526
 C438 C 0.94945 0.05042 0.58023
 C439 C 0.93075 0.06890 0.57632
 C440 C 0.91861 0.08025 0.59696
 H441 H 0.91951 0.13563 0.68645
 H442 H 0.90021 0.15520 0.72364
 H443 H 0.83987 0.10004 0.72099
 H444 H 0.85961 0.08065 0.68390
 H445 H 0.94844 0.04928 0.64494
 H446 H 0.96982 0.02928 0.60900
 H447 H 0.92556 0.07470 0.55734
 H448 H 0.90435 0.09452 0.59358
 C449 C 1.11248 -0.10396 0.68277
 C450 C 1.13466 -0.09441 0.69356
 C451 C 1.14517 -0.10603 0.71489
 C452 C 1.13362 -0.12741 0.72580
 C453 C 1.11135 -0.13688 0.71467
 C454 C 1.10090 -0.12522 0.69335
 C455 C 1.10135 -0.09180 0.66108
 C456 C 1.09167 -0.08171 0.64305
 C457 C 1.07968 -0.06973 0.62173
 C458 C 1.06135 -0.05114 0.62577
 C459 C 1.04917 -0.03990 0.60517
 C460 C 1.05513 -0.04713 0.58017
 C461 C 1.07375 -0.06572 0.57630
 C462 C 1.08591 -0.07694 0.59696
 H463 H 1.14378 -0.07793 0.68552
 H464 H 1.16232 -0.09816 0.72274
 H465 H 1.10179 -0.15319 0.72241
 H466 H 1.08369 -0.13276 0.68519
 H467 H 1.05638 -0.04542 0.64486
 H468 H 1.03500 -0.02561 0.60889
 H469 H 1.07883 -0.07172 0.55734
 H470 H 1.10005 -0.09134 0.59363
 C471 C 0.31725 1.10776 1.10837
 C472 C 0.30655 1.12912 1.09717
 C473 C 0.28538 1.14060 1.10807
 C474 C 0.27442 1.13089 1.13048
 C475 C 0.28555 1.10933 1.14159
 C476 C 0.30673 1.09792 1.13060
 C477 C 0.33885 1.09581 1.09688
 C478 C 0.35683 1.08575 1.08709
 C479 C 0.37813 1.07362 1.07522
 C480 C 0.37418 1.05499 1.05683
 C481 C 0.39478 1.04310 1.04530
 C482 C 0.41969 1.04968 1.05202
 C483 C 0.42345 1.06852 1.07048
 C484 C 0.40279 1.08038 1.08199
 H485 H 0.31454 1.13689 1.07992
 H486 H 0.27777 1.15704 1.09868
 H487 H 0.27805 1.10104 1.15874
 H488 H 0.31486 1.08136 1.13944
 H489 H 0.35517 1.04964 1.05142
 H490 H 0.39114 1.02874 1.03115
 H491 H 0.44233 1.07406 1.07610
 H492 H 0.40606 1.09480 1.09619
 C493 C 0.31790 0.88880 0.89466
 C494 C 0.30735 0.86663 0.90438
 C495 C 0.28600 0.85599 0.89300
 C496 C 0.27472 0.86737 0.87160
 C497 C 0.28574 0.88969 0.86196
 C498 C 0.30710 0.90026 0.87342
 C499 C 0.33958 0.90000 0.90672
 C500 C 0.35756 0.90959 0.91694
 C501 C 0.37880 0.92137 0.92922
 C502 C 0.37473 0.93965 0.94792
 C503 C 0.39524 0.95155 0.95956
 C504 C 0.42019 0.94533 0.95262
 C505 C 0.42408 0.92674 0.93394
 C506 C 0.40350 0.91486 0.92232
 H507 H 0.31555 0.85761 0.92086
 H508 H 0.27848 0.83888 0.90124
 H509 H 0.27802 0.89927 0.84563
 H510 H 0.31512 0.91747 0.86575
 H511 H 0.35569 0.94481 0.95343
 H512 H 0.39151 0.96571 0.97390
 H513 H 0.44300 0.92147 0.92817
 H514 H 0.40686 0.90071 0.90787
 C515 C 0.68264 0.89170 1.11133
 C516 C 0.69317 0.87012 1.10035
 C517 C 0.71442 0.85877 1.11116
 C518 C 0.72564 0.86883 1.13326
 C519 C 0.71467 0.89059 1.14416
 C520 C 0.69341 0.90188 1.13325
 C521 C 0.66098 0.90355 1.09991
 C522 C 0.64297 0.91354 1.09016
 C523 C 0.62167 0.92554 1.07824
 C524 C 0.59700 0.91876 1.08504
 C525 C 0.57634 0.93025 1.07320
 C526 C 0.58011 0.94869 1.05434
 C527 C 0.60503 0.95544 1.04776
 C528 C 0.62562 0.94394 1.05963
 H529 H 0.68499 0.86209 1.08333
 H530 H 0.72190 0.84215 1.10196
 H531 H 0.72236 0.89917 1.16106
 H532 H 0.68542 0.91862 1.14191
 H533 H 0.59373 0.90452 1.09942
 H534 H 0.55745 0.92459 1.07874
 H535 H 0.60868 0.96957 1.03337
 H536 H 0.64463 0.94934 1.05421
 C537 C 0.68219 1.10450 0.89143
 C538 C 0.69366 1.09383 0.87010
 C539 C 0.71492 1.10522 0.85922
 C540 C 0.72518 1.12761 0.86955
 C541 C 0.71324 1.13817 0.89104
 C542 C 0.69199 1.12670 0.90183
 C543 C 0.66058 1.09250 0.90290
 C544 C 0.64264 1.08242 0.91275
 C545 C 0.62141 1.07035 0.92483
 C546 C 0.62547 1.05183 0.94328
 C547 C 0.60495 1.04037 0.95542
 C548 C 0.58001 1.04730 0.94927
 C549 C 0.57612 1.06584 0.93055
 C550 C 0.59670 1.07728 0.91844
 H551 H 0.68624 1.07660 0.86189
 H552 H 0.72318 1.09624 0.84279
 H553 H 0.72016 1.15528 0.89979
 H554 H 0.68325 1.13513 0.91839
 H555 H 0.64451 1.04631 0.94838
 H556 H 0.60868 1.02615 0.96968
 H557 H 0.55721 1.07162 0.92532
 H558 H 0.59334 1.09160 0.90418
 C559 C 0.10874 0.31770 0.10452
 C560 C 0.13055 0.30700 0.09409
 C561 C 0.14161 0.28586 0.10542
 C562 C 0.13097 0.27506 0.12741
 C563 C 0.10903 0.28609 0.13775
 C564 C 0.09803 0.30722 0.12637
 C565 C 0.09716 0.33925 0.09266
 C566 C 0.08727 0.35718 0.08270
 C567 C 0.07520 0.37842 0.07076
 C568 C 0.08156 0.40306 0.07792
 C569 C 0.06955 0.42365 0.06653
 C570 C 0.05096 0.41984 0.04782
 C571 C 0.04482 0.39496 0.04069
 C572 C 0.05686 0.37443 0.05210
 H573 H 0.13899 0.31495 0.07715
 H574 H 0.15843 0.27806 0.09682
 H575 H 0.10020 0.27848 0.15458
 H576 H 0.08111 0.31534 0.13459
 H577 H 0.09573 0.40636 0.09236
 H578 H 0.07475 0.44252 0.07247
 H579 H 0.03066 0.39129 0.02635
 H580 H 0.05180 0.35544 0.04641
 C581 C -0.11165 0.31745 -0.10723
 C582 C -0.13311 0.30636 -0.09643
 C583 C -0.14401 0.28501 -0.10756
 C584 C -0.13358 0.27437 -0.12972
 C585 C -0.11201 0.28579 -0.14045
 C586 C -0.10116 0.30713 -0.12927
 C587 C -0.10016 0.33916 -0.09552
 C588 C -0.09032 0.35719 -0.08563
 C589 C -0.07825 0.37847 -0.07371
 C590 C -0.08459 0.40310 -0.08086
 C591 C -0.07254 0.42372 -0.06949
 C592 C -0.05394 0.41993 -0.05080
 C593 C -0.04784 0.39506 -0.04367
 C594 C -0.05991 0.37451 -0.05505
 H595 H -0.14137 0.31416 -0.07933
 H596 H -0.16054 0.27691 -0.09865
 H597 H -0.10335 0.27831 -0.15743
 H598 H -0.08450 0.31553 -0.13778
 H599 H -0.09877 0.40638 -0.09529
 H600 H -0.07772 0.44258 -0.07542
 H601 H -0.03367 0.39140 -0.02933
 H602 H -0.05487 0.35553 -0.04936
 C603 C 0.10598 0.68210 -0.11079
 C604 C 0.12685 0.69314 -0.09889
 C605 C 0.13848 0.71437 -0.10949
 C606 C 0.12938 0.72494 -0.13224
 C607 C 0.10840 0.71357 -0.14409
 C608 C 0.09681 0.69234 -0.13342
 C609 C 0.09382 0.66048 -0.09958
 C610 C 0.08363 0.64251 -0.08995
 C611 C 0.07143 0.62126 -0.07810
 C612 C 0.07853 0.59662 -0.08449
 C613 C 0.06699 0.57601 -0.07257
 C614 C 0.04819 0.57981 -0.05404
 C615 C 0.04109 0.60470 -0.04790
 C616 C 0.05265 0.62523 -0.05985
 H617 H 0.13408 0.68540 -0.08132
 H618 H 0.15447 0.72248 -0.09969
 H619 H 0.10082 0.72096 -0.16160
 H620 H 0.08064 0.68395 -0.14279
 H621 H 0.09307 0.59333 -0.09860
 H622 H 0.07291 0.55715 -0.07777
 H623 H 0.02667 0.60837 -0.03378
 H624 H 0.04701 0.64423 -0.05475
 C625 C -0.10779 0.68229 0.10812
 C626 C -0.12850 0.69390 0.09652
 C627 C -0.13966 0.71515 0.10759
 C628 C -0.13023 0.72514 0.13047
 C629 C -0.10941 0.71319 0.14198
 C630 C -0.09830 0.69196 0.13087
 C631 C -0.09605 0.66065 0.09654
 C632 C -0.08605 0.64266 0.08676
 C633 C -0.07394 0.62139 0.07488
 C634 C -0.08101 0.59676 0.08136
 C635 C -0.06944 0.57614 0.06953
 C636 C -0.05062 0.57992 0.05100
 C637 C -0.04353 0.60480 0.04479
 C638 C -0.05513 0.62535 0.05665
 H639 H -0.13598 0.68660 0.07886
 H640 H -0.15553 0.72375 0.09804
 H641 H -0.10160 0.72010 0.15959
 H642 H -0.08225 0.68313 0.14000
 H643 H -0.09554 0.59349 0.09548
 H644 H -0.07534 0.55728 0.07479
 H645 H -0.02909 0.60845 0.03068
 H646 H -0.04948 0.64434 0.05152
 C647 C 1.11140 0.10866 0.68245
 C648 C 1.09879 0.12803 0.69529
 C649 C 1.10975 0.13926 0.71661
 C650 C 1.13353 0.13123 0.72543
 C651 C 1.14609 0.11179 0.71226
 C652 C 1.13508 0.10061 0.69095
 C653 C 1.09989 0.09680 0.66080
 C654 C 1.09013 0.08672 0.64281
 C655 C 1.07826 0.07454 0.62153
 C656 C 1.08502 0.08118 0.59674
 C657 C 1.07322 0.06952 0.57610
 C658 C 1.05445 0.05107 0.58001
 C659 C 1.04793 0.04444 0.60505
 C660 C 1.05976 0.05611 0.62562
 H661 H 1.08040 0.13437 0.68891
 H662 H 1.09939 0.15400 0.72625
 H663 H 1.16446 0.10519 0.71826
 H664 H 1.14502 0.08563 0.68114
 H665 H 1.09934 0.09542 0.59337
 H666 H 1.07872 0.07507 0.55711
 H667 H 1.03362 0.03029 0.60880
 H668 H 1.05440 0.05081 0.64474
 C669 C 0.89244 -0.10538 0.68251
 C670 C 0.90310 -0.12717 0.69294
 C671 C 0.89212 -0.13850 0.71422
 C672 C 0.87026 -0.12816 0.72541
 C673 C 0.85966 -0.10627 0.71463
 C674 C 0.87069 -0.09499 0.69336
 C675 C 0.90399 -0.09345 0.66091
 C676 C 0.91377 -0.08330 0.64295
 C677 C 0.92563 -0.07106 0.62170
 C678 C 0.91911 -0.07788 0.59692
 C679 C 0.93096 -0.06623 0.57629
 C680 C 0.94953 -0.04759 0.58021
 C681 C 0.95578 -0.04074 0.60524
 C682 C 0.94390 -0.05241 0.62581
 H683 H 0.91997 -0.13536 0.68468
 H684 H 0.90086 -0.15530 0.72181
 H685 H 0.84293 -0.09764 0.72257
 H686 H 0.86230 -0.07810 0.68545
 H687 H 0.90496 -0.09228 0.59354
 H688 H 0.92567 -0.07195 0.55731
 H689 H 0.96993 -0.02644 0.60898
 H690 H 0.94905 -0.04697 0.64492
 C691 C 1.10651 -0.11018 0.31702
 C692 C 1.09541 -0.13138 0.30581
 C693 C 1.10629 -0.14226 0.28425
 C694 C 1.12846 -0.13204 0.27356
 C695 C 1.13956 -0.11082 0.28517
 C696 C 1.12864 -0.09999 0.30672
 C697 C 1.09493 -0.09855 0.33877
 C698 C 1.08514 -0.08855 0.35680
 C699 C 1.07338 -0.07628 0.37810
 C700 C 1.08051 -0.08252 0.40286
 C701 C 1.06929 -0.07030 0.42350
 C702 C 1.05079 -0.05162 0.41962
 C703 C 1.04367 -0.04561 0.39461
 C704 C 1.05491 -0.05786 0.37403
 H705 H 1.07826 -0.13943 0.31364
 H706 H 1.09726 -0.15865 0.27605
 H707 H 1.15650 -0.10228 0.27752
 H708 H 1.13735 -0.08352 0.31523
 H709 H 1.09481 -0.09676 0.40620
 H710 H 1.07521 -0.07541 0.44247
 H711 H 1.02946 -0.03139 0.39089
 H712 H 1.04924 -0.05290 0.35493
 C713 C 0.89640 0.11157 0.31736
 C714 C 0.90715 0.13246 0.30524
 C715 C 0.89536 0.14309 0.28408
 C716 C 0.87259 0.13294 0.27470
 C717 C 0.86194 0.11194 0.28716
 C718 C 0.87378 0.10136 0.30831
 C719 C 0.90867 0.10036 0.33891
 C720 C 0.91885 0.09066 0.35686
 C721 C 0.93088 0.07869 0.37813
 C722 C 0.92387 0.08512 0.40290
 C723 C 0.93516 0.07302 0.42354
 C724 C 0.95360 0.05427 0.41963
 C725 C 0.96062 0.04810 0.39462
 C726 C 0.94932 0.06024 0.37404
 H727 H 0.92471 0.14049 0.31210
 H728 H 0.90424 0.15914 0.27509
 H729 H 0.84445 0.10357 0.28071
 H730 H 0.86530 0.08517 0.31754
 H731 H 0.90958 0.09937 0.40625
 H732 H 0.92931 0.07824 0.44251
 H733 H 0.97478 0.03382 0.39088
 H734 H 0.95486 0.05511 0.35493
 C735 C 0.10856 0.31803 -0.10819
 C736 C 0.13249 0.31022 -0.10019
 C737 C 0.14384 0.28905 -0.11115
 C738 C 0.13139 0.27535 -0.13032
 C739 C 0.10735 0.28347 -0.13831
 C740 C 0.09604 0.30465 -0.12729
 C741 C 0.09676 0.33955 -0.09653
 C742 C 0.08682 0.35745 -0.08658
 C743 C 0.07482 0.37864 -0.07451
 C744 C 0.05612 0.37460 -0.05618
 C745 C 0.04426 0.39509 -0.04452
 C746 C 0.05095 0.41999 -0.05106
 C747 C 0.06989 0.42386 -0.06943
 C748 C 0.08173 0.40329 -0.08108
 H749 H 0.14236 0.32046 -0.08541
 H750 H 0.16242 0.28359 -0.10461
 H751 H 0.09708 0.27338 -0.15284
 H752 H 0.07746 0.31051 -0.13358
 H753 H 0.05067 0.35558 -0.05093
 H754 H 0.02981 0.39139 -0.03043
 H755 H 0.07552 0.44274 -0.07491
 H756 H 0.09621 0.40662 -0.09523
 C757 C -0.11111 0.31814 0.10577
 C758 C -0.10002 0.30770 0.12741
 C759 C -0.11076 0.28651 0.13896
 C760 C -0.13281 0.27538 0.12899
 C761 C -0.14384 0.28616 0.10723
 C762 C -0.13304 0.30737 0.09573
 C763 C -0.09975 0.33968 0.09368
 C764 C -0.09003 0.35759 0.08351
 C765 C -0.07811 0.37877 0.07130
 C766 C -0.05952 0.37470 0.05288
 C767 C -0.04757 0.39518 0.04126
 C768 C -0.05406 0.42009 0.04794
 C769 C -0.07292 0.42398 0.06638
 C770 C -0.08484 0.40343 0.07799
 H771 H -0.08299 0.31590 0.13532
 H772 H -0.10164 0.27890 0.15561
 H773 H -0.16077 0.27829 0.09892
 H774 H -0.14177 0.31528 0.07895
 H775 H -0.05418 0.35568 0.04757
 H776 H -0.03318 0.39146 0.02712
 H777 H -0.07839 0.44287 0.07197
 H778 H -0.09922 0.40677 0.09225
 C779 C -0.10680 0.68219 -0.11153
 C780 C -0.09786 0.69197 -0.13449
 C781 C -0.10913 0.71338 -0.14508
 C782 C -0.12953 0.72534 -0.13281
 C783 C -0.13843 0.71521 -0.10977
 C784 C -0.12712 0.69382 -0.09924
 C785 C -0.09488 0.66050 -0.10033
 C786 C -0.08486 0.64250 -0.09065
 C787 C -0.07287 0.62125 -0.07870
 C788 C -0.05458 0.62524 -0.05999
 C789 C -0.04324 0.60471 -0.04790
 C790 C -0.05007 0.57983 -0.05437
 C791 C -0.06836 0.57602 -0.07337
 C792 C -0.07968 0.59662 -0.08542
 H793 H -0.08212 0.68311 -0.14417
 H794 H -0.10182 0.72041 -0.16288
 H795 H -0.15394 0.72387 -0.09964
 H796 H -0.13415 0.68643 -0.08141
 H797 H -0.04916 0.64424 -0.05465
 H798 H -0.02919 0.60837 -0.03344
 H799 H -0.07404 0.55715 -0.07884
 H800 H -0.09383 0.59333 -0.09989
 C801 C 0.10436 0.68198 0.10905
 C802 C 0.12731 0.69102 0.09949
 C803 C 0.13822 0.71281 0.10967
 C804 C 0.12629 0.72595 0.12958
 C805 C 0.10336 0.71645 0.13927
 C806 C 0.09249 0.69465 0.12905
 C807 C 0.09264 0.66016 0.09785
 C808 C 0.08265 0.64214 0.08814
 C809 C 0.07058 0.62095 0.07614
 C810 C 0.05197 0.62502 0.05778
 C811 C 0.04049 0.60456 0.04568
 C812 C 0.04749 0.57965 0.05179
 C813 C 0.06609 0.57575 0.07045
 C814 C 0.07756 0.59629 0.08252
 H815 H 0.13667 0.68135 0.08399
 H816 H 0.15594 0.71932 0.10179
 H817 H 0.09351 0.72594 0.15450
 H818 H 0.07468 0.68783 0.13657
 H819 H 0.04642 0.64404 0.05271
 H820 H 0.02621 0.60829 0.03147
 H821 H 0.07192 0.55686 0.07563
 H822 H 0.09196 0.59293 0.09672
 C823 C 0.31797 1.10859 0.89650
 C824 C 0.30739 1.09759 0.87487
 C825 C 0.28636 1.10859 0.86329
 C826 C 0.27558 1.13081 0.87320
 C827 C 0.28647 1.14171 0.89498
 C828 C 0.30749 1.13066 0.90652
 C829 C 0.33945 1.09707 0.90851
 C830 C 0.35734 1.08721 0.91855
 C831 C 0.37855 1.07516 0.93051
 C832 C 0.40322 1.08156 0.92340
 C833 C 0.42381 1.06948 0.93471
 C834 C 0.41995 1.05077 0.95328
 C835 C 0.39502 1.04461 0.96039
 C836 C 0.37450 1.05673 0.94906
 H837 H 0.31535 1.08047 0.86698
 H838 H 0.27864 1.09953 0.84664
 H839 H 0.27887 1.15876 0.90324
 H840 H 0.31554 1.13931 0.92329
 H841 H 0.40655 1.09581 0.90903
 H842 H 0.44271 1.07469 0.92879
 H843 H 0.39133 1.03036 0.97464
 H844 H 0.35547 1.05164 0.95469
 C845 C 0.31737 0.88681 1.10646
 C846 C 0.30659 0.89800 1.12792
 C847 C 0.28484 0.88767 1.13884
 C848 C 0.27351 0.86598 1.12840
 C849 C 0.28468 0.85475 1.10694
 C850 C 0.30645 0.86512 1.09606
 C851 C 0.33924 0.89802 1.09478
 C852 C 0.35733 0.90780 1.08494
 C853 C 0.37860 0.91996 1.07311
 C854 C 0.40326 0.91359 1.08019
 C855 C 0.42387 0.92588 1.06903
 C856 C 0.42002 0.94475 1.05064
 C857 C 0.39512 0.95088 1.04356
 C858 C 0.37459 0.93856 1.05474
 H859 H 0.31485 0.91487 1.13607
 H860 H 0.27678 0.89699 1.15520
 H861 H 0.27670 0.83794 1.09848
 H862 H 0.31465 0.85631 1.07943
 H863 H 0.40656 0.89923 1.09442
 H864 H 0.44276 0.92069 1.07490
 H865 H 0.39143 0.96526 1.02945
 H866 H 0.35556 0.94365 1.04914
 C867 C 0.68175 1.10542 1.11166
 C868 C 0.69180 1.12726 1.10068
 C869 C 0.71306 1.13883 1.11127
 C870 C 0.72465 1.12868 1.13304
 C871 C 0.71427 1.10671 1.14395
 C872 C 0.69300 1.09519 1.13331
 C873 C 0.66014 1.09331 1.10045
 C874 C 0.64220 1.08312 1.09081
 C875 C 0.62101 1.07091 1.07893
 C876 C 0.59630 1.07755 1.08566
 C877 C 0.57575 1.06598 1.07371
 C878 C 0.57969 1.04762 1.05481
 C879 C 0.60465 1.04096 1.04835
 C880 C 0.62513 1.05254 1.06034
 H881 H 0.68325 1.13531 1.08387
 H882 H 0.72034 1.15564 1.10224
 H883 H 0.72251 1.09826 1.16065
 H884 H 0.68539 1.07824 1.14193
 H885 H 0.59292 1.09176 1.10006
 H886 H 0.55682 1.07153 1.07917
 H887 H 0.60841 1.02685 1.03397
 H888 H 0.64418 1.04725 1.05501
 C889 C 0.68253 0.89147 0.89284
 C890 C 0.69456 0.87108 0.90454
 C891 C 0.71573 0.85997 0.89324
 C892 C 0.72519 0.86914 0.87001
 C893 C 0.71282 0.88962 0.85839
 C894 C 0.69168 0.90068 0.86974
 C895 C 0.66098 0.90316 0.90461
 C896 C 0.64303 0.91318 0.91444
 C897 C 0.62176 0.92535 0.92624
 C898 C 0.59711 0.91848 0.91956
 C899 C 0.57646 0.93025 0.93116
 C900 C 0.58024 0.94906 0.94964
 C901 C 0.60514 0.95593 0.95607
 C902 C 0.62572 0.94414 0.94445
 H903 H 0.68765 0.86383 0.92247
 H904 H 0.72469 0.84437 0.90288
 H905 H 0.71932 0.89719 0.84050
 H906 H 0.68249 0.91647 0.86052
 H907 H 0.59385 0.90397 0.90546
 H908 H 0.55758 0.92450 0.92576
 H909 H 0.60878 0.97035 0.97018
 H910 H 0.64474 0.94964 0.94972
   
