data_POSCAR
  _audit_creation_date              2014-09-24
  _audit_creation_method            'ToBaCCo'
  _symmetry_space_group_name_H-M    'P1'
  _symmetry_Int_Tables_number       1
  _symmetry_cell_setting            triclinic
  loop_
  _symmetry_equiv_pos_as_xyz
 x,y,z
_cell_length_a 33.2508
_cell_length_b 32.7571
_cell_length_c 33.0044
_cell_angle_alpha 89.332700
_cell_angle_beta 87.951700
_cell_angle_gamma 69.183300
loop_
  _atom_site_label
  _atom_site_type_symbol
  _atom_site_fract_x
  _atom_site_fract_y
  _atom_site_fract_z
O1 O 0.58826 0.44502 0.04116
 O2 O 0.47944 0.45381 0.01258
 O3 O 0.54575 0.39143 0.03900
 O4 O 0.52169 0.50750 0.01341
 O5 O 0.54380 0.48900 -0.04982
 O6 O 0.57293 0.37325 -0.02309
 O7 O 0.50375 0.43358 -0.04973
 O8 O 0.61163 0.42953 -0.02224
 Cu9 Cu 0.53141 0.45134 0.03286
 Cu10 Cu 0.56033 0.42943 -0.04252
 C11 C 0.61842 0.43642 0.01425
 C12 C 0.47296 0.44459 -0.02333
 C13 C 0.56382 0.36263 0.01220
 C14 C 0.52857 0.51807 -0.02267
 O15 O 0.02284 0.55966 0.49163
 O16 O -0.01336 0.46600 0.50468
 O17 O 0.00085 0.50972 0.44267
 O18 O 0.00893 0.51567 0.55366
 O19 O -0.05816 0.56201 0.55763
 O20 O -0.06682 0.55431 0.44778
 O21 O -0.08069 0.51140 0.50985
 O22 O -0.04458 0.60475 0.49588
 Cu23 Cu 0.01161 0.50820 0.49770
 Cu24 Cu -0.06930 0.56256 0.50322
 C25 C -0.00464 0.59836 0.49182
 C26 C -0.05331 0.47271 0.50930
 C27 C -0.03464 0.53074 0.42637
 C28 C -0.02319 0.54048 0.57442
 O29 O 0.46441 0.07631 0.56247
 O30 O 0.46317 0.07594 0.45189
 O31 O 0.40476 0.09111 0.50928
 O32 O 0.52270 0.05985 0.50450
 O33 O 0.53003 -0.00979 0.50511
 O34 O 0.41234 0.02144 0.51071
 O35 O 0.47037 0.00636 0.45206
 O36 O 0.47207 0.00672 0.56450
 Cu37 Cu 0.46299 0.08274 0.50711
 Cu38 Cu 0.47186 -0.00083 0.50838
 C39 C 0.46876 0.04189 0.58270
 C40 C 0.46653 0.04140 0.43285
 C41 C 0.38838 0.06147 0.51031
 C42 C 0.54653 0.01973 0.50354
 C43 C 0.49880 -0.05510 0.02120
 C44 C 0.50843 -0.02671 -0.00437
 C45 C 0.50911 -0.03025 -0.04936
 C46 C 0.51768 0.01119 0.01159
 C47 C 0.48872 -0.04368 0.06475
 C48 C 0.49818 -0.09785 0.00719
 C49 C 0.54251 -0.02334 -0.07231
 C50 C 0.53898 -0.01594 -0.11393
 C51 C 0.50225 -0.01588 -0.13352
 C52 C 0.47031 -0.02622 -0.11140
 C53 C 0.47361 -0.03317 -0.06945
 C54 C 0.55298 0.00464 0.03623
 C55 C 0.56509 0.03981 0.04658
 C56 C 0.54202 0.08207 0.03250
 C57 C 0.50549 0.08876 0.00944
 C58 C 0.49363 0.05358 -0.00115
 C59 C 0.45452 -0.00537 0.07570
 C60 C 0.44800 0.00880 0.11587
 C61 C 0.47550 -0.01512 0.14599
 C62 C 0.50814 -0.05497 0.13541
 C63 C 0.51464 -0.06920 0.09501
 C64 C 0.46566 -0.11298 0.02142
 C65 C 0.46578 -0.15383 0.00946
 C66 C 0.49833 -0.18017 -0.01713
 C67 C 0.53087 -0.16510 -0.03130
 C68 C 0.53108 -0.12461 -0.01890
 H69 H 0.57021 -0.02101 -0.05757
 H70 H 0.56380 -0.00777 -0.13051
 H71 H 0.44145 -0.02567 -0.12598
 H72 H 0.44717 -0.03783 -0.05236
 H73 H 0.57218 -0.02795 0.04598
 H74 H 0.59323 0.03382 0.06457
 H75 H 0.46646 0.05917 -0.02039
 H76 H 0.43376 0.01433 0.05280
 H77 H 0.42199 0.03909 0.12325
 H78 H 0.52989 -0.07400 0.15795
 H79 H 0.54106 -0.09899 0.08706
 H80 H 0.44006 -0.09309 0.04172
 H81 H 0.44028 -0.16471 0.02070
 H82 H 0.55677 -0.18517 -0.05120
 H83 H 0.55734 -0.11447 -0.02929
 H84 H 0.48743 0.12084 -0.00227
 C85 C 0.02366 0.46445 0.98432
 C86 C 0.05169 0.46609 1.01284
 C87 C 0.09635 0.46336 1.00156
 C88 C 0.03720 0.47434 1.05603
 C89 C -0.01806 0.45914 0.99578
 C90 C 0.03077 0.47334 0.94091
 C91 C 0.12246 0.43064 0.97506
 C92 C 0.16421 0.42837 0.96420
 C93 C 0.18091 0.45861 0.97980
 C94 C 0.15490 0.49104 1.00669
 C95 C 0.11311 0.49330 1.01753
 C96 C 0.05897 0.44573 1.08658
 C97 C 0.04400 0.45324 1.12700
 C98 C 0.00732 0.48980 1.13749
 C99 C -0.01340 0.51907 1.10681
 C100 C 0.00137 0.51141 1.06657
 C101 C -0.05649 0.48666 0.97892
 C102 C -0.09554 0.48139 0.98885
 C103 C -0.09709 0.44865 1.01606
 C104 C -0.05873 0.42116 1.03303
 C105 C -0.01955 0.42608 1.02269
 C106 C 0.03730 0.51209 0.92985
 C107 C 0.03551 0.52508 0.88935
 C108 C 0.02699 0.49966 0.85917
 C109 C 0.02303 0.45960 0.86992
 C110 C 0.02462 0.44669 0.91054
 H111 H 0.11057 0.40665 0.96295
 H112 H 0.18366 0.40251 0.94403
 H113 H 0.16661 0.51512 1.01886
 H114 H 0.09359 0.51892 1.03792
 H115 H 0.08688 0.41712 1.07897
 H116 H 0.06054 0.42996 1.14988
 H117 H -0.01525 0.53439 1.04349
 H118 H -0.05634 0.51251 0.95821
 H119 H -0.12469 0.50333 0.97567
 H120 H -0.05898 0.39533 1.05372
 H121 H 0.00971 0.40385 1.03545
 H122 H 0.04126 0.53358 0.95282
 H123 H 0.03895 0.55597 0.88178
 H124 H 0.01602 0.43962 0.84729
 H125 H 0.01907 0.41692 0.91854
 H126 H -0.04097 0.54815 1.11392
 C127 C -0.00968 0.02033 0.49634
 C128 C -0.05040 0.05064 0.49839
 C129 C -0.08904 0.03807 0.49616
 C130 C -0.05873 0.09815 0.50301
 C131 C 0.02888 0.03323 0.49616
 C132 C -0.00135 -0.02740 0.49473
 C133 C -0.09391 0.01268 0.46397
 C134 C -0.13052 0.00121 0.46256
 C135 C -0.16329 0.01585 0.49278
 C136 C -0.15862 0.04178 0.52457
 C137 C -0.12187 0.05277 0.52622
 C138 C -0.08620 0.12799 0.47627
 C139 C -0.09463 0.17269 0.48008
 C140 C -0.07556 0.18842 0.51057
 C141 C -0.04840 0.15870 0.53762
 C142 C -0.04055 0.11398 0.53424
 C143 C 0.06024 0.01537 0.52509
 C144 C 0.09624 0.02773 0.52609
 C145 C 0.10166 0.05813 0.49806
 C146 C 0.07047 0.07568 0.46876
 C147 C 0.03457 0.06299 0.46756
 C148 C -0.01985 -0.04765 0.52384
 C149 C -0.01201 -0.09244 0.52152
 C150 C 0.01525 -0.11795 0.49062
 C151 C 0.03455 -0.09784 0.46214
 C152 C 0.02629 -0.05300 0.46417
 H153 H -0.06945 0.00190 0.43992
 H154 H -0.13365 -0.01835 0.43747
 H155 H -0.18326 0.05315 0.54841
 H156 H -0.11886 0.07256 0.55119
 H157 H -0.10079 0.11656 0.45214
 H158 H -0.11546 0.19496 0.45871
 H159 H -0.02025 0.09173 0.55594
 H160 H 0.05649 -0.00771 0.54734
 H161 H 0.11957 0.01401 0.54921
 H162 H 0.07418 0.09870 0.44645
 H163 H 0.01116 0.07647 0.44446
 H164 H -0.04036 -0.02878 0.54831
 H165 H -0.02673 -0.10729 0.54424
 H166 H 0.05547 -0.11670 0.43788
 H167 H 0.04108 -0.03810 0.44154
 H168 H -0.03380 0.17018 0.56169
 C169 C -0.26843 0.43769 1.00635
 C170 C -0.25795 0.43427 1.04650
 C171 C -0.28618 0.43109 1.07749
 C172 C -0.32688 0.43164 1.06663
 C173 C -0.33836 0.43493 1.02535
 C174 C -0.30841 0.43774 0.99485
 O175 O -0.23762 0.44160 0.98167
 C176 C -0.20697 0.44057 1.00674
 C177 C -0.21763 0.43592 1.04674
 C178 C -0.19010 0.43430 1.07801
 C179 C -0.15010 0.43783 1.06760
 C180 C -0.13866 0.44332 1.02657
 C181 C -0.16761 0.44448 0.99578
 H182 H -0.27737 0.42870 1.10892
 H183 H -0.34935 0.42943 1.09036
 H184 H -0.31625 0.44078 0.96313
 H185 H -0.19918 0.43069 1.10930
 H186 H -0.12841 0.43720 1.09151
 H187 H -0.15966 0.44821 0.96418
 C188 C 0.35759 0.45672 0.98532
 C189 C 0.35067 0.44743 0.94625
 C190 C 0.38269 0.43742 0.91582
 C191 C 0.42357 0.43679 0.92610
 C192 C 0.43174 0.44621 0.96635
 C193 C 0.39778 0.45652 0.99621
 O194 O 0.32329 0.46434 1.00998
 C195 C 0.29402 0.45975 0.98595
 C196 C 0.30907 0.44943 0.94665
 C197 C 0.28393 0.44227 0.91671
 C198 C 0.24165 0.44571 0.92780
 C199 C 0.22536 0.45609 0.96827
 C200 C 0.25215 0.46339 0.99763
 H201 H 0.37655 0.42997 0.88530
 H202 H 0.44877 0.42874 0.90263
 H203 H 0.40249 0.46355 1.02730
 H204 H 0.29646 0.43413 0.88597
 H205 H 0.22155 0.44055 0.90478
 H206 H 0.24112 0.47067 1.02889
 C207 C -0.00639 -0.28767 0.48943
 C208 C 0.03670 -0.29487 0.48340
 C209 C 0.06760 -0.33653 0.47940
 C210 C 0.05354 -0.37222 0.48198
 C211 C 0.00908 -0.36576 0.48814
 C212 C -0.02118 -0.32249 0.49158
 O213 O -0.03044 -0.24573 0.49350
 C214 C -0.00191 -0.22595 0.48992
 C215 C 0.03963 -0.25449 0.48351
 C216 C 0.07451 -0.24058 0.47897
 C217 C 0.06617 -0.19548 0.48112
 C218 C 0.02359 -0.16543 0.48809
 C219 C -0.01087 -0.18111 0.49254
 H220 H 0.10141 -0.34144 0.47489
 H221 H 0.07745 -0.40480 0.47930
 H222 H -0.05529 -0.31590 0.49659
 H223 H 0.10695 -0.26361 0.47402
 H224 H 0.09289 -0.18398 0.47795
 H225 H -0.04373 -0.15900 0.49751
 C226 C -0.05321 0.35742 0.51723
 C227 C -0.09659 0.36503 0.51638
 C228 C -0.12740 0.40682 0.51445
 C229 C -0.11288 0.44218 0.51301
 C230 C -0.06819 0.43523 0.51321
 C231 C -0.03804 0.39205 0.51565
 O232 O -0.02920 0.31527 0.51812
 C233 C -0.05806 0.29582 0.51766
 C234 C -0.09976 0.32479 0.51644
 C235 C -0.13488 0.31137 0.51396
 C236 C -0.12661 0.26627 0.51247
 C237 C -0.08387 0.23575 0.51381
 C238 C -0.04917 0.25088 0.51680
 H239 H -0.16138 0.41200 0.51366
 H240 H -0.13646 0.47489 0.51098
 H241 H -0.00374 0.38546 0.51565
 H242 H -0.16738 0.33476 0.51260
 H243 H -0.15342 0.25506 0.51022
 H244 H -0.01619 0.22835 0.51710
 C245 C 0.47766 0.00917 -0.30842
 C246 C 0.47639 0.04768 -0.29132
 C247 C 0.47165 0.08506 -0.31372
 C248 C 0.46838 0.08278 -0.35570
 C249 C 0.47038 0.04328 -0.37482
 C250 C 0.47486 0.00592 -0.35043
 O251 O 0.48264 -0.02249 -0.28128
 C252 C 0.48473 -0.00343 -0.24642
 C253 C 0.48130 0.03945 -0.25115
 C254 C 0.48418 0.06541 -0.21925
 C255 C 0.49097 0.04642 -0.18071
 C256 C 0.49434 0.00242 -0.17474
 C257 C 0.49081 -0.02289 -0.20800
 H258 H 0.47068 0.11497 -0.29939
 H259 H 0.46487 0.11194 -0.37323
 H260 H 0.47657 -0.02480 -0.36362
 H261 H 0.48183 0.09893 -0.22393
 H262 H 0.49358 0.06594 -0.15536
 H263 H 0.49363 -0.05666 -0.20414
 C264 C 0.47089 0.00834 0.32254
 C265 C 0.46462 0.04787 0.30406
 C266 C 0.45882 0.08584 0.32550
 C267 C 0.45949 0.08309 0.36784
 C268 C 0.46586 0.04279 0.38801
 C269 C 0.47161 0.00481 0.36483
 O270 O 0.47601 -0.02372 0.29624
 C271 C 0.47287 -0.00385 0.26048
 C272 C 0.46586 0.03996 0.26376
 C273 C 0.46168 0.06718 0.23039
 C274 C 0.46480 0.04854 0.19191
 C275 C 0.47190 0.00340 0.18737
 C276 C 0.47616 -0.02321 0.22234
 H277 H 0.45400 0.11652 0.31016
 H278 H 0.45502 0.11254 0.38484
 H279 H 0.47663 -0.02643 0.37918
 H280 H 0.45642 0.10153 0.23385
 H281 H 0.46237 0.06920 0.16558
 H282 H 0.48145 -0.05767 0.21994
 C283 C 0.50423 -0.36063 -0.01315
 C284 C 0.51041 -0.35014 -0.05278
 C285 C 0.52076 -0.38056 -0.08403
 C286 C 0.52549 -0.42372 -0.07395
 C287 C 0.51999 -0.43564 -0.03314
 C288 C 0.50861 -0.40329 -0.00245
 O289 O 0.49638 -0.32731 0.01218
 C290 C 0.49778 -0.29514 -0.01198
 C291 C 0.50635 -0.30741 -0.05200
 C292 C 0.51153 -0.27948 -0.08213
 C293 C 0.50791 -0.23722 -0.07047
 C294 C 0.49926 -0.22382 -0.02933
 C295 C 0.49368 -0.25319 0.00022
 H296 H 0.52576 -0.37157 -0.11496
 H297 H 0.53422 -0.44795 -0.09789
 H298 H 0.50470 -0.41128 0.02902
 H299 H 0.51888 -0.29010 -0.11334
 H300 H 0.51213 -0.21500 -0.09337
 H301 H 0.48802 -0.24422 0.03195
 C302 C 0.55010 0.25678 0.03992
 C303 C 0.59105 0.22768 0.03153
 C304 C 0.62469 0.24088 0.01814
 C305 C 0.61561 0.28583 0.01282
 C306 C 0.57378 0.31629 0.02161
 C307 C 0.54074 0.30164 0.03599
 O308 O 0.52177 0.23748 0.04806
 C309 C 0.54527 0.19530 0.04476
 C310 C 0.58796 0.18751 0.03513
 C311 C 0.61770 0.14580 0.02777
 C312 C 0.60263 0.11084 0.02943
 C313 C 0.55841 0.11819 0.03780
 C314 C 0.52959 0.16105 0.04646
 H315 H 0.65633 0.21737 0.01064
 H316 H 0.64085 0.29697 0.00133
 H317 H 0.50820 0.32431 0.04153
 H318 H 0.65101 0.14052 0.01969
 H319 H 0.62496 0.07839 0.02204
 H320 H 0.49562 0.16777 0.05252
 C321 C -0.34265 0.02682 0.50063
 C322 C -0.31742 -0.01586 0.49233
 C323 C -0.33453 -0.04855 0.48789
 C324 C -0.37945 -0.03667 0.49205
 C325 C -0.40618 0.00731 0.50022
 C326 C -0.38724 0.03939 0.50458
 O327 O -0.32019 0.05284 0.50408
 C328 C -0.27989 0.02604 0.49777
 C329 C -0.27634 -0.01634 0.49027
 C330 C -0.23691 -0.04959 0.48258
 C331 C -0.19968 -0.03867 0.48286
 C332 C -0.20261 0.00476 0.49110
 C333 C -0.24344 0.03750 0.49846
 H334 H -0.31407 -0.08196 0.48145
 H335 H -0.39335 -0.06166 0.48850
 H336 H -0.40657 0.07318 0.51094
 H337 H -0.23488 -0.08272 0.47674
 H338 H -0.16859 -0.06409 0.47743
 H339 H -0.24675 0.07101 0.50437
 C340 C 0.27855 0.05226 0.51015
 C341 C 0.25270 0.09523 0.50517
 C342 C 0.26900 0.12890 0.50291
 C343 C 0.31374 0.11771 0.50554
 C344 C 0.34111 0.07345 0.51011
 C345 C 0.32292 0.04043 0.51278
 O346 O 0.25701 0.02509 0.51106
 C347 C 0.21665 0.05143 0.50651
 C348 C 0.21215 0.09468 0.50268
 C349 C 0.17255 0.12757 0.49683
 C350 C 0.13618 0.11532 0.49502
 C351 C 0.14010 0.07088 0.49925
 C352 C 0.18107 0.03860 0.50499
 H353 H 0.24809 0.16250 0.49889
 H354 H 0.32705 0.14343 0.50330
 H355 H 0.34272 0.00634 0.51614
 H356 H 0.16975 0.16140 0.49378
 H357 H 0.10497 0.14043 0.49093
 H358 H 0.18525 0.00437 0.50771
 C359 C -0.00817 0.50796 1.31458
 C360 C -0.04890 0.52201 1.29956
 C361 C -0.08589 0.53927 1.32403
 C362 C -0.08072 0.54213 1.36576
 C363 C -0.03906 0.52758 1.38221
 C364 C -0.00226 0.51009 1.35607
 O365 O 0.02265 0.49360 1.28592
 C366 C 0.00085 0.49863 1.25214
 C367 C -0.04302 0.51575 1.25889
 C368 C -0.07197 0.52397 1.22784
 C369 C -0.05502 0.51452 1.18810
 C370 C -0.00979 0.49757 1.18004
 C371 C 0.01846 0.48918 1.21281
 H372 H -0.11759 0.55033 1.31145
 H373 H -0.10924 0.55544 1.38526
 H374 H 0.02995 0.49894 1.36758
 H375 H -0.10639 0.53726 1.23396
 H376 H -0.07722 0.52035 1.16364
 H377 H 0.05306 0.47675 1.20783
 C378 C 0.00867 0.51679 0.68331
 C379 C -0.01628 0.55570 0.70120
 C380 C -0.04383 0.59046 0.67960
 C381 C -0.04581 0.58490 0.63777
 C382 C -0.02007 0.54529 0.61842
 C383 C 0.00783 0.51084 0.64155
 O384 O 0.03104 0.48725 0.70974
 C385 C 0.02002 0.50807 0.74502
 C386 C -0.00859 0.55015 0.74133
 C387 C -0.02505 0.57764 0.77436
 C388 C -0.01184 0.56096 0.81290
 C389 C 0.01703 0.51737 0.81776
 C390 C 0.03336 0.49064 0.78317
 H391 H -0.06350 0.62056 0.69449
 H392 H -0.06719 0.61156 0.62040
 H393 H 0.02739 0.48008 0.62765
 H394 H -0.04779 0.61052 0.77065
 H395 H -0.02527 0.58152 0.83909
 H396 H 0.05522 0.45722 0.78596
   
