data_POSCAR
  _audit_creation_date              2014-09-24
  _audit_creation_method            'ToBaCCo'
  _symmetry_space_group_name_H-M    'P1'
  _symmetry_Int_Tables_number       1
  _symmetry_cell_setting            triclinic
  loop_
  _symmetry_equiv_pos_as_xyz
 x,y,z
_cell_length_a 50.2075
_cell_length_b 50.1766
_cell_length_c 40.8514
_cell_angle_alpha 90.036700
_cell_angle_beta 90.025500
_cell_angle_gamma 120.015600
loop_
  _atom_site_label
  _atom_site_type_symbol
  _atom_site_fract_x
  _atom_site_fract_y
  _atom_site_fract_z
C1 C -0.06497 0.45332 -0.07776
 C2 C -0.06392 0.48109 -0.07870
 C3 C -0.04327 0.49941 -0.05466
 N4 N -0.03170 0.48356 -0.03922
 C5 C -0.04486 0.45537 -0.05324
 C6 C -0.03642 0.52976 -0.04696
 C7 C -0.01619 0.54823 -0.02169
 C8 C -0.01297 0.57605 -0.01124
 C9 C 0.00814 0.58654 0.01379
 C10 C 0.01737 0.56493 0.01814
 N11 N 0.00282 0.54193 -0.00397
 C12 C 0.03869 0.56718 0.04224
 C13 C 0.04504 0.54349 0.05027
 C14 C 0.06519 0.54560 0.07474
 C15 C 0.06412 0.51780 0.07570
 C16 C 0.04342 0.49950 0.05173
 N17 N 0.03183 0.51530 0.03630
 C18 C 0.03654 0.46920 0.04409
 C19 C 0.01632 0.45070 0.01890
 C20 C 0.01316 0.42289 0.00866
 C21 C -0.00790 0.41231 -0.01641
 C22 C -0.01719 0.43390 -0.02097
 N23 N -0.00266 0.45695 0.00108
 C24 C -0.03852 0.43160 -0.04517
 H25 H -0.07887 0.43388 -0.09354
 H26 H -0.07707 0.48702 -0.09514
 H27 H -0.00709 0.47470 0.00529
 H28 H -0.02490 0.58747 -0.02042
 H29 H 0.01551 0.60754 0.02753
 H30 H 0.07912 0.56507 0.09047
 H31 H 0.07729 0.51187 0.09210
 H32 H -0.01524 0.39126 -0.03005
 H33 H 0.00727 0.52421 -0.00829
 H34 H 0.02511 0.41153 0.01797
 C35 C 0.51906 0.45341 -0.07657
 C36 C 0.54681 0.48017 -0.07546
 C37 C 0.54472 0.49803 -0.05077
 N38 N 0.51656 0.48290 -0.03680
 C39 C 0.50074 0.45558 -0.05245
 C40 C 0.56844 0.52803 -0.04250
 C41 C 0.56622 0.54705 -0.01829
 C42 C 0.58797 0.57781 -0.01354
 C43 C 0.57735 0.58842 0.01138
 C44 C 0.54934 0.56391 0.02131
 N45 N 0.54303 0.53865 0.00347
 C46 C 0.53066 0.56577 0.04613
 C47 C 0.50026 0.54243 0.05348
 C48 C 0.48176 0.54501 0.07702
 C49 C 0.45399 0.51827 0.07595
 C50 C 0.45630 0.50004 0.05184
 N51 N 0.48460 0.51492 0.03819
 C52 C 0.43273 0.46989 0.04388
 C53 C 0.43516 0.45071 0.02004
 C54 C 0.41374 0.41977 0.01590
 C55 C 0.42431 0.40910 -0.00900
 C56 C 0.45199 0.43377 -0.01955
 N57 N 0.45812 0.45916 -0.00204
 C58 C 0.47045 0.43202 -0.04481
 H59 H 0.51314 0.43442 -0.09317
 H60 H 0.56625 0.48584 -0.09123
 H61 H 0.47565 0.48140 -0.00656
 H62 H 0.60915 0.59141 -0.02696
 H63 H 0.58880 0.61172 0.02077
 H64 H 0.48756 0.56423 0.09323
 H65 H 0.43439 0.51283 0.09137
 H66 H 0.41302 0.38568 -0.01803
 H67 H 0.52506 0.51653 0.00740
 H68 H 0.39279 0.40612 0.02966
 C69 C 0.45370 0.93440 0.07465
 C70 C 0.48146 0.93542 0.07567
 C71 C 0.49993 0.95647 0.05210
 N72 N 0.48427 0.96831 0.03685
 C73 C 0.45600 0.95492 0.05055
 C74 C 0.53031 0.96352 0.04471
 C75 C 0.54897 0.98403 0.01984
 C76 C 0.57698 0.98755 0.00990
 C77 C 0.58756 1.00871 -0.01507
 C78 C 0.56579 1.01767 -0.01983
 N79 N 0.54262 1.00290 0.00196
 C80 C 0.56797 1.03882 -0.04409
 C81 C 0.54424 1.04506 -0.05236
 C82 C 0.54629 1.06493 -0.07710
 C83 C 0.51855 1.06394 -0.07815
 C84 C 0.50029 1.04355 -0.05394
 N85 N 0.51612 1.03210 -0.03829
 C86 C 0.47004 1.03688 -0.04619
 C87 C 0.45164 1.01676 -0.02085
 C88 C 0.42404 1.01384 -0.01018
 C89 C 0.41351 0.99267 0.01476
 C90 C 0.43487 0.98309 0.01882
 N91 N 0.45777 0.99751 -0.00336
 C92 C 0.43245 0.96151 0.04267
 H93 H 0.43413 0.92027 0.09012
 H94 H 0.48726 0.92202 0.09187
 H95 H 0.47522 0.99272 -0.00796
 H96 H 0.58845 0.97574 0.01931
 H97 H 0.60872 1.01629 -0.02850
 H98 H 0.56569 1.07864 -0.09294
 H99 H 0.51261 1.07696 -0.09476
 H100 H 0.39262 0.98545 0.02861
 H101 H 0.52465 1.00702 0.00587
 H102 H 0.41279 1.02601 -0.01917
 C103 C 0.93642 0.48198 0.57533
 C104 C 0.93538 0.45419 0.57433
 C105 C 0.95559 0.45635 0.54994
 N106 N 0.96881 0.48455 0.53605
 C107 C 0.95716 0.50031 0.55146
 C108 C 0.96200 0.43269 0.54190
 C109 C 0.98338 0.43498 0.51787
 C110 C 0.99264 0.41340 0.51353
 C111 C 1.01380 0.42393 0.48859
 C112 C 1.01702 0.45175 0.47820
 N113 N 0.99796 0.45801 0.49586
 C114 C 1.03730 0.47026 0.45302
 C115 C 1.04415 0.50061 0.44541
 C116 C 1.06486 0.51897 0.42147
 C117 C 1.06588 0.54673 0.42247
 C118 C 1.04570 0.54463 0.44691
 N119 N 1.03253 0.51642 0.46083
 C120 C 1.03931 0.56837 0.45499
 C121 C 1.01791 0.56603 0.47910
 C122 C 1.00859 0.58758 0.48365
 C123 C 0.98746 0.57696 0.50862
 C124 C 0.98431 0.54916 0.51881
 N125 N 1.00334 0.54295 0.50105
 C126 C 0.96404 0.53061 0.54390
 H127 H 0.92320 0.48788 0.59170
 H128 H 0.92143 0.43471 0.58998
 H129 H 1.00778 0.52520 0.50526
 H130 H 0.98525 0.39238 0.52721
 H131 H 1.02577 0.41253 0.47943
 H132 H 1.07806 0.51307 0.40508
 H133 H 1.07981 0.56619 0.40678
 H134 H 0.97547 0.58830 0.51790
 H135 H 0.99351 0.47573 0.49154
 H136 H 1.01594 0.60865 0.47007
 C137 C 0.53971 0.48764 0.58694
 C138 C 0.51238 0.46032 0.58696
 C139 C 0.49693 0.45988 0.55863
 N140 N 0.51402 0.48592 0.54126
 C141 C 0.54011 0.50304 0.55860
 C142 C 0.46858 0.43479 0.54827
 C143 C 0.45190 0.43559 0.52079
 C144 C 0.42704 0.41001 0.50685
 C145 C 0.41642 0.42061 0.48185
 C146 C 0.43507 0.45238 0.48119
 N147 N 0.45642 0.46130 0.50520
 C148 C 0.43103 0.47226 0.45990
 C149 C 0.45304 0.50366 0.45543
 C150 C 0.44845 0.52407 0.43669
 C151 C 0.47577 0.55140 0.43670
 C152 C 0.49619 0.54684 0.45544
 N153 N 0.48229 0.51759 0.46666
 C154 C 0.52758 0.56887 0.45993
 C155 C 0.54748 0.56483 0.48120
 C156 C 0.57923 0.58348 0.48183
 C157 C 0.58987 0.57286 0.50680
 C158 C 0.56433 0.54802 0.52075
 N159 N 0.53861 0.54351 0.50519
 C160 C 0.56518 0.53136 0.54821
 H161 H 0.55743 0.49512 0.60550
 H162 H 0.50493 0.44264 0.60553
 H163 H 0.51617 0.52898 0.51282
 H164 H 0.41742 0.38620 0.51406
 H165 H 0.39704 0.40654 0.46608
 H166 H 0.42770 0.51964 0.42400
 H167 H 0.48018 0.57215 0.42402
 H168 H 0.61369 0.58247 0.51399
 H169 H 0.47096 0.48376 0.51282
 H170 H 0.59328 0.60284 0.46607
 C171 C 0.51803 0.06399 0.57585
 C172 C 0.54581 0.06506 0.57479
 C173 C 0.54360 0.04481 0.55038
 N174 N 0.51538 0.03154 0.53653
 C175 C 0.49965 0.04319 0.55199
 C176 C 0.56724 0.03841 0.54230
 C177 C 0.56489 0.01698 0.51826
 C178 C 0.58645 0.00770 0.51388
 C179 C 0.57587 -0.01351 0.48893
 C180 C 0.54805 -0.01673 0.47856
 N181 N 0.54183 0.00236 0.49625
 C182 C 0.52950 -0.03706 0.45338
 C183 C 0.49916 -0.04390 0.44577
 C184 C 0.48077 -0.06462 0.42180
 C185 C 0.45303 -0.06565 0.42282
 C186 C 0.45517 -0.04545 0.44730
 N187 N 0.48338 -0.03227 0.46123
 C188 C 0.43146 -0.03906 0.45542
 C189 C 0.43383 -0.01766 0.47960
 C190 C 0.41227 -0.00835 0.48422
 C191 C 0.42293 0.01279 0.50923
 C192 C 0.45075 0.01597 0.51937
 N193 N 0.45694 -0.00306 0.50155
 C194 C 0.46933 0.03628 0.54447
 H195 H 0.51216 0.07723 0.59224
 H196 H 0.56532 0.07905 0.59042
 H197 H 0.47470 -0.00747 0.50570
 H198 H 0.60748 0.01511 0.52755
 H199 H 0.58724 -0.02550 0.47975
 H200 H 0.48664 -0.07783 0.40537
 H201 H 0.43356 -0.07958 0.40711
 H202 H 0.41160 0.02476 0.51857
 H203 H 0.52412 0.00682 0.49195
 H204 H 0.39118 -0.01573 0.47066
 O205 O 0.22388 0.39581 0.28218
 O206 O 0.17179 0.39536 0.21799
 O207 O 0.22395 0.39544 0.21832
 O208 O 0.17171 0.39570 0.28181
 O209 O 0.19725 0.44660 0.28137
 O210 O 0.24917 0.44634 0.21823
 O211 O 0.19733 0.44626 0.21790
 O212 O 0.24909 0.44671 0.28173
 Cu213 Cu 0.19526 0.39041 0.25010
 Cu214 Cu 0.22576 0.45158 0.24978
 C215 C 0.24536 0.42143 0.29268
 C216 C 0.17575 0.42082 0.20726
 C217 C 0.24546 0.42094 0.20767
 C218 C 0.17565 0.42128 0.29217
 O219 O 0.60412 0.77592 0.21872
 O220 O 0.60383 0.82826 0.28216
 O221 O 0.60376 0.77610 0.28256
 O222 O 0.60414 0.82809 0.21834
 O223 O 0.55327 0.80249 0.21817
 O224 O 0.55289 0.75082 0.28203
 O225 O 0.55296 0.80268 0.28163
 O226 O 0.55325 0.75064 0.21854
 Cu227 Cu 0.60913 0.80467 0.25047
 Cu228 Cu 0.54799 0.77410 0.25005
 C229 C 0.57865 0.75435 0.20805
 C230 C 0.57826 0.82431 0.29247
 C231 C 0.57817 0.75460 0.29302
 C232 C 0.57867 0.82409 0.20756
 O233 O 0.22399 0.82808 0.21776
 O234 O 0.17189 0.77593 0.28156
 O235 O 0.22398 0.82813 0.28161
 O236 O 0.17191 0.77589 0.21771
 O237 O 0.19755 0.75066 0.21793
 O238 O 0.24930 0.80257 0.28147
 O239 O 0.19753 0.75070 0.28142
 O240 O 0.24931 0.80253 0.21798
 Cu241 Cu 0.19535 0.80459 0.24966
 Cu242 Cu 0.22598 0.77407 0.24971
 C243 C 0.24553 0.82411 0.20722
 C244 C 0.17591 0.75442 0.29213
 C245 C 0.24552 0.82417 0.29220
 C246 C 0.17594 0.75437 0.20716
 O247 O 0.82872 0.60426 0.71786
 O248 O 0.77684 0.60389 0.78219
 O249 O 0.82901 0.60404 0.78169
 O250 O 0.77652 0.60413 0.71837
 O251 O 0.75133 0.55322 0.71827
 O252 O 0.80351 0.55314 0.78125
 O253 O 0.75165 0.55299 0.78174
 O254 O 0.80321 0.55336 0.71777
 Cu255 Cu 0.80535 0.60925 0.75005
 Cu256 Cu 0.77489 0.54808 0.74972
 C257 C 0.82474 0.57879 0.70710
 C258 C 0.75539 0.57828 0.79270
 C259 C 0.82513 0.57849 0.79204
 C260 C 0.75495 0.57860 0.70778
 O261 O 0.39581 0.22386 0.71891
 O262 O 0.39592 0.17151 0.78239
 O263 O 0.39599 0.22369 0.78273
 O264 O 0.39573 0.17166 0.71855
 O265 O 0.44660 0.19723 0.71860
 O266 O 0.44686 0.24894 0.78243
 O267 O 0.44679 0.19708 0.78209
 O268 O 0.44668 0.24911 0.71896
 Cu269 Cu 0.39070 0.19510 0.75065
 Cu270 Cu 0.45183 0.22563 0.75050
 C271 C 0.42132 0.24543 0.70837
 C272 C 0.42147 0.17545 0.79282
 C273 C 0.42156 0.24520 0.79327
 C274 C 0.42121 0.17565 0.70788
 O275 O 0.82865 0.22416 0.78082
 O276 O 0.77634 0.17203 0.71700
 O277 O 0.82853 0.22412 0.71697
 O278 O 0.77647 0.17207 0.78084
 O279 O 0.75129 0.19777 0.78074
 O280 O 0.80304 0.24950 0.71723
 O281 O 0.75117 0.19773 0.71726
 O282 O 0.80316 0.24954 0.78071
 Cu283 Cu 0.80507 0.19550 0.74890
 Cu284 Cu 0.77463 0.22620 0.74899
 C285 C 0.82473 0.24574 0.79142
 C286 C 0.75483 0.17608 0.70648
 C287 C 0.82458 0.24569 0.70644
 C288 C 0.75500 0.17613 0.79145
 C289 C 0.08391 0.43869 0.09917
 N290 N 0.07264 0.42505 0.12851
 N291 N 0.08986 0.41907 0.14869
 C292 C 0.11888 0.42655 0.14014
 N293 N 0.13011 0.44008 0.11075
 N294 N 0.11289 0.44606 0.09057
 C295 C 0.06655 0.44786 0.07893
 C296 C 0.05259 0.45689 0.06269
 C297 C 0.13842 0.42290 0.16315
 C298 C 0.15527 0.42120 0.18302
 C299 C 0.56092 0.64387 0.10094
 N300 N 0.57422 0.64623 0.13051
 N301 N 0.58013 0.66953 0.15054
 C302 C 0.57292 0.69119 0.14160
 N303 N 0.55973 0.68890 0.11198
 N304 N 0.55382 0.66559 0.09195
 C305 C 0.55184 0.61725 0.08081
 C306 C 0.54288 0.59420 0.06466
 C307 C 0.57653 0.71454 0.16440
 C308 C 0.57822 0.73325 0.18407
 C309 C 0.35510 0.91515 0.09869
 N310 N 0.33277 0.88650 0.08988
 N311 N 0.30967 0.86951 0.11024
 C312 C 0.30820 0.88065 0.14003
 N313 N 0.33047 0.90934 0.14879
 N314 N 0.35357 0.92634 0.12843
 C315 C 0.38148 0.93220 0.07815
 C316 C 0.40431 0.94586 0.06164
 C317 C 0.28504 0.86127 0.16313
 C318 C 0.26649 0.84453 0.18303
 C319 C 0.91653 0.56100 0.59893
 N320 N 0.88746 0.55339 0.59040
 N321 N 0.87022 0.55933 0.61058
 C322 C 0.88152 0.57307 0.63991
 N323 N 0.91064 0.58079 0.64838
 N324 N 0.92788 0.57485 0.62820
 C325 C 0.93394 0.55188 0.57869
 C326 C 0.94794 0.54289 0.56247
 C327 C 0.86199 0.57669 0.66293
 C328 C 0.84517 0.57839 0.68283
 C329 C 0.43902 0.35635 0.60209
 N330 N 0.42492 0.35330 0.63129
 N331 N 0.41908 0.32989 0.65108
 C332 C 0.42715 0.30882 0.64228
 N333 N 0.44114 0.31181 0.61302
 N334 N 0.44698 0.33522 0.59323
 C335 C 0.44793 0.38309 0.58226
 C336 C 0.45667 0.40625 0.56639
 C337 C 0.42353 0.28536 0.66488
 C338 C 0.42181 0.26659 0.68446
 C339 C 0.64479 0.08495 0.59815
 N340 N 0.64655 0.07374 0.62778
 N341 N 0.66974 0.09076 0.64808
 C342 C 0.69188 0.11951 0.63937
 N343 N 0.69018 0.13067 0.60969
 N344 N 0.66699 0.11365 0.58939
 C345 C 0.61833 0.06785 0.57768
 C346 C 0.59544 0.05413 0.56122
 C347 C 0.71514 0.13890 0.66243
 C348 C 0.73378 0.15565 0.68230
 C349 C 0.43999 0.08339 0.90001
 N350 N 0.42661 0.07229 0.87050
 N351 N 0.42053 0.08954 0.85047
 C352 C 0.42766 0.11842 0.85934
 N353 N 0.44093 0.12947 0.88891
 N354 N 0.44701 0.11223 0.90894
 C355 C 0.44927 0.06603 0.92012
 C356 C 0.45840 0.05209 0.93625
 C357 C 0.42388 0.13801 0.83653
 C358 C 0.42205 0.15490 0.81683
 C359 C 0.64588 0.55916 0.90160
 N360 N 0.66795 0.55240 0.91011
 N361 N 0.69106 0.55860 0.88973
 C362 C 0.69280 0.57175 0.86022
 N363 N 0.67079 0.57862 0.85177
 N364 N 0.64768 0.57242 0.87215
 C365 C 0.61948 0.54976 0.92211
 C366 C 0.59662 0.54056 0.93859
 C367 C 0.71595 0.57566 0.83704
 C368 C 0.73448 0.57759 0.81705
 C369 C 0.91598 0.35554 0.89992
 N370 N 0.92705 0.35402 0.87011
 N371 N 0.91004 0.33086 0.84977
 C372 C 0.88144 0.30851 0.85860
 N373 N 0.87042 0.30996 0.88846
 N374 N 0.88744 0.33312 0.90881
 C375 C 0.93301 0.38200 0.92041
 C376 C 0.94665 0.40493 0.93688
 C377 C 0.86201 0.28530 0.83551
 C378 C 0.84522 0.26671 0.81561
 C379 C 0.55955 0.91641 0.39956
 N380 N 0.57284 0.92745 0.37004
 N381 N 0.57894 0.91020 0.35002
 C382 C 0.57192 0.88137 0.35893
 N383 N 0.55874 0.87038 0.38851
 N384 N 0.55264 0.88763 0.40853
 C385 C 0.55026 0.93378 0.41967
 C386 C 0.54113 0.94773 0.43580
 C387 C 0.57574 0.86177 0.33614
 C388 C 0.57761 0.84487 0.31646
 C389 C 0.35440 0.44088 0.40256
 N390 N 0.35342 0.42853 0.37273
 N391 N 0.33047 0.42225 0.35205
 C392 C 0.30780 0.42813 0.36057
 N393 N 0.30872 0.44037 0.39045
 N394 N 0.33167 0.44665 0.41113
 C395 C 0.38057 0.45035 0.42350
 C396 C 0.40319 0.45963 0.44041
 C397 C 0.28475 0.42414 0.33719
 C398 C 0.26626 0.42216 0.31708
 C399 C 0.08485 0.64450 0.40035
 N400 N 0.11350 0.66678 0.40920
 N401 N 0.13050 0.68997 0.38893
 C402 C 0.11936 0.69158 0.35919
 N403 N 0.09066 0.66938 0.35040
 N404 N 0.07367 0.64619 0.37067
 C405 C 0.06782 0.61801 0.42075
 C406 C 0.05417 0.59507 0.43713
 C407 C 0.13875 0.71482 0.33616
 C408 C 0.15549 0.73343 0.31630
 C409 C 0.91723 0.55996 0.89918
 N410 N 0.88854 0.55325 0.90821
 N411 N 0.87131 0.55934 0.88818
 C412 C 0.88224 0.57232 0.85849
 N413 N 0.91097 0.57914 0.84952
 N414 N 0.92820 0.57305 0.86956
 C415 C 0.93454 0.55064 0.91931
 C416 C 0.94844 0.54146 0.93546
 C417 C 0.86263 0.57609 0.83570
 C418 C 0.84571 0.57791 0.81602
 C419 C 0.44033 0.35546 0.90123
 N420 N 0.42648 0.35297 0.87198
 N421 N 0.42036 0.32968 0.85184
 C422 C 0.42791 0.30817 0.86034
 N423 N 0.44164 0.31058 0.88965
 N424 N 0.44776 0.33387 0.90979
 C425 C 0.44964 0.38209 0.92141
 C426 C 0.45879 0.40516 0.93759
 C427 C 0.42407 0.28486 0.83737
 C428 C 0.42220 0.26621 0.81751
 C429 C 0.64537 0.08517 0.89997
 N430 N 0.64696 0.07396 0.87027
 N431 N 0.67007 0.09094 0.84992
 C432 C 0.69231 0.11966 0.85865
 N433 N 0.69079 0.13082 0.88841
 N434 N 0.66767 0.11384 0.90876
 C435 C 0.61898 0.06814 0.92048
 C436 C 0.59613 0.05448 0.93696
 C437 C 0.71548 0.13901 0.83556
 C438 C 0.73405 0.15574 0.81566
 C439 C 0.08374 0.44009 0.39927
 N440 N 0.07264 0.42668 0.36976
 N441 N 0.08985 0.42055 0.34976
 C442 C 0.11870 0.42764 0.35864
 N443 N 0.12975 0.44094 0.38820
 N444 N 0.11254 0.44707 0.40821
 C445 C 0.06641 0.44942 0.41936
 C446 C 0.05249 0.45858 0.43547
 C447 C 0.13827 0.42380 0.33585
 C448 C 0.15513 0.42192 0.31617
 C449 C 0.55886 0.64553 0.40272
 N450 N 0.57117 0.64651 0.37289
 N451 N 0.57742 0.66948 0.35226
 C452 C 0.57155 0.69216 0.36084
 N453 N 0.55936 0.69124 0.39072
 N454 N 0.55311 0.66828 0.41135
 C455 C 0.54941 0.61935 0.42362
 C456 C 0.54016 0.59672 0.44049
 C457 C 0.57551 0.71522 0.33749
 C458 C 0.57747 0.73371 0.31741
 C459 C 0.35533 0.91538 0.40069
 N460 N 0.35366 0.92654 0.37099
 N461 N 0.33049 0.90953 0.35067
 C462 C 0.30828 0.88083 0.35942
 N463 N 0.30987 0.86971 0.38917
 N464 N 0.33304 0.88673 0.40949
 C465 C 0.38181 0.93243 0.42113
 C466 C 0.40475 0.94608 0.43754
 C467 C 0.28507 0.86141 0.33633
 C468 C 0.26648 0.84463 0.31642
 C469 C 0.56073 0.91599 0.09965
 N470 N 0.57450 0.92730 0.12896
 N471 N 0.58049 0.91005 0.14909
 C472 C 0.57288 0.88096 0.14052
 N473 N 0.55922 0.86970 0.11116
 N474 N 0.55323 0.88695 0.09103
 C475 C 0.55158 0.93340 0.07946
 C476 C 0.54258 0.94741 0.06327
 C477 C 0.57654 0.86140 0.16349
 C478 C 0.57826 0.84456 0.18334
 C479 C 0.35523 0.43905 0.09962
 N480 N 0.35359 0.42640 0.12941
 N481 N 0.33046 0.42037 0.14968
 C482 C 0.30826 0.42682 0.14078
 N483 N 0.30983 0.43936 0.11094
 N484 N 0.33297 0.44538 0.09067
 C485 C 0.38165 0.44831 0.07918
 C486 C 0.40453 0.45743 0.06275
 C487 C 0.28506 0.42312 0.16378
 C488 C 0.26647 0.42138 0.18359
 C489 C 0.08503 0.64457 0.09845
 N490 N 0.11365 0.66693 0.08970
 N491 N 0.13062 0.69006 0.11009
 C492 C 0.11948 0.69154 0.13987
 N493 N 0.09082 0.66925 0.14857
 N494 N 0.07385 0.64611 0.12817
 C495 C 0.06800 0.61817 0.07786
 C496 C 0.05434 0.59533 0.06130
 C497 C 0.13883 0.71475 0.16300
 C498 C 0.15555 0.73336 0.18293
 C499 C 0.43903 0.08379 0.59965
 N500 N 0.44652 0.11284 0.59112
 N501 N 0.44059 0.13009 0.61133
 C502 C 0.42699 0.11881 0.64069
 N503 N 0.41938 0.08972 0.64916
 N504 N 0.42531 0.07247 0.62895
 C505 C 0.44813 0.06638 0.57937
 C506 C 0.45709 0.05238 0.56310
 C507 C 0.42335 0.13836 0.66373
 C508 C 0.42165 0.15519 0.68362
 C509 C 0.64374 0.56090 0.60185
 N510 N 0.66481 0.55290 0.59289
 N511 N 0.68828 0.55874 0.61261
 C512 C 0.69138 0.57276 0.64190
 N513 N 0.67038 0.58087 0.65080
 N514 N 0.64691 0.57502 0.63108
 C515 C 0.61695 0.55199 0.58210
 C516 C 0.59376 0.54325 0.56628
 C517 C 0.71490 0.57637 0.66443
 C518 C 0.73372 0.57810 0.68394
 C519 C 0.91560 0.35529 0.59790
 N520 N 0.92677 0.35373 0.62763
 N521 N 0.90978 0.33062 0.64799
 C522 C 0.88109 0.30836 0.63923
 N523 N 0.86997 0.30985 0.60944
 N524 N 0.88697 0.33296 0.58908
 C525 C 0.93266 0.38168 0.57737
 C526 C 0.94633 0.40452 0.56087
 C527 C 0.86172 0.28519 0.66232
 C528 C 0.84498 0.26663 0.68223
   
