data_POSCAR
  _audit_creation_date              2014-09-24
  _audit_creation_method            'ToBaCCo'
  _symmetry_space_group_name_H-M    'P1'
  _symmetry_Int_Tables_number       1
  _symmetry_cell_setting            triclinic
  loop_
  _symmetry_equiv_pos_as_xyz
 x,y,z
_cell_length_a 48.1117
_cell_length_b 47.9367
_cell_length_c 48.0845
_cell_angle_alpha 89.914500
_cell_angle_beta 89.997600
_cell_angle_gamma 90.101900
loop_
  _atom_site_label
  _atom_site_type_symbol
  _atom_site_fract_x
  _atom_site_fract_y
  _atom_site_fract_z
N1 N 0.59180 0.66902 0.61349
 N2 N 0.58057 0.65723 0.63554
 C3 C 0.55816 0.67212 0.64338
 C4 C 0.55536 0.69421 0.62521
 C5 C 0.57691 0.69173 0.60651
 H6 H 0.54492 0.66738 0.66095
 H7 H 0.58143 0.70543 0.58919
 Cu8 Cu 0.59698 0.62390 0.65171
 Cu9 Cu 0.62495 0.65416 0.59544
 Cu10 Cu 0.65440 0.59501 0.62501
 N11 N 0.61354 0.59102 0.66865
 N12 N 0.63618 0.57990 0.65804
 C13 C 0.64367 0.55771 0.67351
 C14 C 0.62472 0.55496 0.69482
 C15 C 0.60586 0.57630 0.69131
 H16 H 0.66154 0.54463 0.66956
 H17 H 0.58805 0.58074 0.70428
 N18 N 0.66965 0.61343 0.59158
 N19 N 0.65844 0.63593 0.58033
 C20 C 0.67346 0.64339 0.55784
 C21 C 0.69498 0.62470 0.55496
 C22 C 0.69208 0.60600 0.57654
 H23 H 0.66910 0.66103 0.54451
 H24 H 0.70532 0.58831 0.58087
 H25 H 0.61972 0.61331 0.60773
 H26 H 0.64153 0.63577 0.63064
 N27 N 0.90859 0.33014 0.11345
 N28 N 0.91954 0.34161 0.13577
 C29 C 0.94198 0.32674 0.14362
 C30 C 0.94504 0.30501 0.12514
 C31 C 0.92367 0.30764 0.10627
 H32 H 0.95501 0.33126 0.16138
 H33 H 0.91939 0.29422 0.08871
 Cu34 Cu 0.90299 0.37463 0.15232
 Cu35 Cu 0.87550 0.34504 0.09540
 Cu36 Cu 0.84580 0.40381 0.12513
 N37 N 0.88643 0.40762 0.16891
 N38 N 0.86390 0.41885 0.15817
 C39 C 0.85655 0.44117 0.17345
 C40 C 0.87547 0.44392 0.19479
 C41 C 0.89415 0.42242 0.19145
 H42 H 0.83883 0.45440 0.16935
 H43 H 0.91193 0.41795 0.20447
 N44 N 0.83065 0.38556 0.09168
 N45 N 0.84202 0.36324 0.08029
 C46 C 0.82708 0.35588 0.05776
 C47 C 0.80543 0.37443 0.05500
 C48 C 0.80817 0.39295 0.07668
 H49 H 0.83156 0.33839 0.04433
 H50 H 0.79480 0.41049 0.08113
 H51 H 0.88081 0.38574 0.10812
 H52 H 0.85871 0.36300 0.13058
 N53 N 0.40823 0.16931 -0.11318
 N54 N 0.41945 0.15754 -0.13519
 C55 C 0.44192 0.17242 -0.14303
 C56 C 0.44477 0.19447 -0.12488
 C57 C 0.42319 0.19200 -0.10622
 H58 H 0.45515 0.16770 -0.16058
 H59 H 0.41868 0.20570 -0.08895
 Cu60 Cu 0.40291 0.12429 -0.15133
 Cu61 Cu 0.37495 0.15455 -0.09523
 Cu62 Cu 0.34511 0.09565 -0.12496
 N63 N 0.38622 0.09153 -0.16828
 N64 N 0.36339 0.08054 -0.15786
 C65 C 0.35586 0.05841 -0.17334
 C66 C 0.37497 0.05554 -0.19447
 C67 C 0.39397 0.07677 -0.19082
 H68 H 0.33786 0.04540 -0.16953
 H69 H 0.41195 0.08109 -0.20362
 N70 N 0.32989 0.11405 -0.09163
 N71 N 0.34131 0.13640 -0.08027
 C72 C 0.32634 0.14381 -0.05779
 C73 C 0.30464 0.12527 -0.05504
 C74 C 0.30736 0.10668 -0.07667
 H75 H 0.33087 0.16132 -0.04437
 H76 H 0.29395 0.08912 -0.08107
 H77 H 0.37986 0.11368 -0.10749
 H78 H 0.35838 0.13636 -0.13050
 N79 N 0.09147 0.83041 0.38657
 N80 N 0.08067 0.84174 0.36408
 C81 C 0.05815 0.82689 0.35634
 C82 C 0.05492 0.80525 0.37498
 C83 C 0.07626 0.80796 0.39390
 H84 H 0.04510 0.83142 0.33858
 H85 H 0.08041 0.79465 0.41160
 Cu86 Cu 0.09718 0.87492 0.34758
 Cu87 Cu 0.12447 0.84555 0.40471
 Cu88 Cu 0.15391 0.90478 0.37525
 N89 N 0.11367 0.90810 0.33108
 N90 N 0.13586 0.91972 0.34216
 C91 C 0.14303 0.94229 0.32707
 C92 C 0.12432 0.94484 0.30555
 C93 C 0.10593 0.92296 0.30856
 H94 H 0.16051 0.95581 0.33142
 H95 H 0.08832 0.91831 0.29537
 N96 N 0.16905 0.88648 0.40869
 N97 N 0.15786 0.86393 0.41992
 C98 C 0.17294 0.85646 0.44234
 C99 C 0.19448 0.87520 0.44519
 C100 C 0.19154 0.89394 0.42367
 H101 H 0.16866 0.83873 0.45560
 H102 H 0.20482 0.91163 0.41929
 H103 H 0.11887 0.88636 0.39191
 H104 H 0.14144 0.86399 0.36969
 C105 C 0.10371 0.14642 0.12506
 C106 C 0.12430 0.14643 0.10445
 C107 C 0.14489 0.12581 0.10447
 C108 C 0.14490 0.10516 0.12513
 C109 C 0.12432 0.10513 0.14574
 C110 C 0.10373 0.12576 0.14570
 H111 H 0.12429 0.16242 0.08846
 H112 H 0.16084 0.08919 0.12515
 H113 H 0.08779 0.12573 0.16165
 C114 C 0.39588 0.85442 0.62505
 C115 C 0.37527 0.85444 0.60445
 C116 C 0.35464 0.87504 0.60448
 C117 C 0.35462 0.89562 0.62514
 C118 C 0.37520 0.89563 0.64575
 C119 C 0.39582 0.87501 0.64570
 H120 H 0.37529 0.83850 0.58847
 H121 H 0.33866 0.91157 0.62517
 H122 H 0.41175 0.87501 0.66165
 C123 C 0.89628 0.64583 0.37473
 C124 C 0.89626 0.62515 0.35416
 C125 C 0.87566 0.60445 0.35415
 C126 C 0.85503 0.60446 0.37473
 C127 C 0.85500 0.62512 0.39533
 C128 C 0.87564 0.64579 0.39531
 H129 H 0.91222 0.62516 0.33823
 H130 H 0.83907 0.58845 0.37473
 H131 H 0.87565 0.66179 0.41124
 C132 C 0.60454 0.35474 -0.12534
 C133 C 0.60460 0.37540 -0.14599
 C134 C 0.62527 0.39603 -0.14608
 C135 C 0.64589 0.39599 -0.12549
 C136 C 0.64585 0.37532 -0.10484
 C137 C 0.62517 0.35471 -0.10479
 H138 H 0.58863 0.37542 -0.16191
 H139 H 0.66188 0.41196 -0.12554
 H140 H 0.62514 0.33871 -0.08882
 C141 C 0.00398 0.24629 0.12546
 N142 N 0.03125 0.25351 0.12536
 N143 N 0.05086 0.23391 0.12523
 C144 C 0.04378 0.20650 0.12520
 N145 N 0.01651 0.19929 0.12530
 N146 N -0.00310 0.21889 0.12542
 C147 C -0.01714 0.26738 0.12548
 C148 C -0.03490 0.28508 0.12538
 C149 C 0.06488 0.18540 0.12510
 C150 C 0.08259 0.16764 0.12506
 C151 C 0.49556 0.75439 0.62560
 N152 N 0.46827 0.74727 0.62545
 N153 N 0.44871 0.76693 0.62526
 C154 C 0.45586 0.79431 0.62520
 N155 N 0.48316 0.80144 0.62535
 N156 N 0.50271 0.78177 0.62553
 C157 C 0.51661 0.73320 0.62564
 C158 C 0.53428 0.71540 0.62554
 C159 C 0.43479 0.81548 0.62508
 C160 C 0.41706 0.83323 0.62503
 C161 C 0.99601 0.74621 0.37447
 N162 N 1.00313 0.71885 0.37444
 N163 N 0.98356 0.69913 0.37447
 C164 C 0.95627 0.70618 0.37455
 N165 N 0.94915 0.73355 0.37456
 N166 N 0.96872 0.75326 0.37452
 C167 C 1.01709 0.76745 0.37458
 C168 C 1.03484 0.78524 0.37474
 C169 C 0.93518 0.68494 0.37463
 C170 C 0.91745 0.66712 0.37469
 C171 C 0.50470 0.25463 -0.12544
 N172 N 0.49760 0.28200 -0.12541
 N173 N 0.51720 0.30168 -0.12533
 C174 C 0.54448 0.29458 -0.12524
 N175 N 0.55157 0.26721 -0.12525
 N176 N 0.53197 0.24753 -0.12534
 C177 C 0.48361 0.23345 -0.12541
 C178 C 0.46589 0.21565 -0.12525
 C179 C 0.56558 0.31576 -0.12523
 C180 C 0.58333 0.33354 -0.12527
 C181 C 0.12411 0.00482 0.24542
 N182 N 0.14622 0.00776 0.22815
 N183 N 0.14629 0.02748 0.20858
 C184 C 0.12426 0.04486 0.20571
 N185 N 0.10215 0.04192 0.22298
 N186 N 0.10208 0.02220 0.24254
 C187 C 0.12408 -0.01634 0.26654
 C188 C 0.12413 -0.03408 0.28432
 C189 C 0.12431 0.06608 0.18465
 C190 C 0.12432 0.08389 0.16693
 C191 C 0.62475 0.49634 -0.24587
 N192 N 0.60766 0.47390 -0.24790
 N193 N 0.60783 0.45418 -0.22833
 C194 C 0.62510 0.45629 -0.20614
 N195 N 0.64219 0.47874 -0.20410
 N196 N 0.64202 0.49846 -0.22368
 C197 C 0.62466 0.51748 -0.26703
 C198 C 0.62464 0.53515 -0.28491
 C199 C 0.62523 0.43508 -0.18503
 C200 C 0.62528 0.41728 -0.16729
 C201 C 0.37519 0.99578 0.74533
 N202 N 0.35801 0.97341 0.74747
 N203 N 0.35802 0.95372 0.72793
 C204 C 0.37523 0.95580 0.70568
 N205 N 0.39241 0.97816 0.70355
 N206 N 0.39240 0.99786 0.72308
 C207 C 0.37519 1.01692 0.76641
 C208 C 0.37512 1.03460 0.78421
 C209 C 0.37522 0.93461 0.68463
 C210 C 0.37521 0.91683 0.66692
 C211 C 0.87585 0.50404 0.25471
 N212 N 0.89551 0.50414 0.27493
 N213 N 0.89550 0.52388 0.29443
 C214 C 0.87583 0.54412 0.29430
 N215 N 0.85618 0.54402 0.27408
 N216 N 0.85619 0.52429 0.25458
 C217 C 0.87582 0.48279 0.23371
 C218 C 0.87571 0.46501 0.21600
 C219 C 0.87578 0.56535 0.31534
 C220 C 0.87571 0.58317 0.33302
 C221 C 0.24470 0.12548 0.00483
 N222 N 0.23474 0.10113 0.01525
 N223 N 0.21512 0.10123 0.03482
 C224 C 0.20487 0.12569 0.04455
 N225 N 0.21483 0.15004 0.03412
 N226 N 0.23445 0.14993 0.01456
 C227 C 0.26580 0.12537 -0.01623
 C228 C 0.28353 0.12530 -0.03394
 C229 C 0.18376 0.12578 0.06561
 C230 C 0.16603 0.12582 0.08331
 C231 C 0.75502 0.62487 0.49501
 N232 N 0.78049 0.63579 0.50036
 N233 N 0.80013 0.63585 0.48080
 C234 C 0.79489 0.62500 0.45529
 N235 N 0.76942 0.61408 0.44994
 N236 N 0.74978 0.61401 0.46950
 C237 C 0.73386 0.62479 0.51610
 C238 C 0.71612 0.62474 0.53382
 C239 C 0.81605 0.62506 0.43421
 C240 C 0.83380 0.62509 0.41649
 C241 C 0.74551 0.37465 -0.00497
 N242 N 0.73532 0.39913 -0.01478
 N243 N 0.71576 0.39928 -0.03440
 C244 C 0.70579 0.37496 -0.04481
 N245 N 0.71596 0.35048 -0.03498
 N246 N 0.73552 0.35033 -0.01536
 C247 C 0.76660 0.37451 0.01614
 C248 C 0.78432 0.37445 0.03386
 C249 C 0.68473 0.37513 -0.06595
 C250 C 0.66703 0.37525 -0.08369
 C251 C 0.25475 0.87516 0.50481
 N252 N 0.27138 0.85261 0.50830
 N253 N 0.29104 0.85260 0.52783
 C254 C 0.29466 0.87514 0.54447
 N255 N 0.27803 0.89769 0.54097
 N256 N 0.25838 0.89771 0.52144
 C257 C 0.23354 0.87515 0.48382
 C258 C 0.21571 0.87516 0.46620
 C259 C 0.31577 0.87509 0.56556
 C260 C 0.33349 0.87506 0.58329
   
