data_POSCAR
  _audit_creation_date              2014-09-24
  _audit_creation_method            'ToBaCCo'
  _symmetry_space_group_name_H-M    'P1'
  _symmetry_Int_Tables_number       1
  _symmetry_cell_setting            triclinic
  loop_
  _symmetry_equiv_pos_as_xyz
 x,y,z
_cell_length_a 31.8653
_cell_length_b 33.7463
_cell_length_c 42.3888
_cell_angle_alpha 90.916100
_cell_angle_beta 91.295400
_cell_angle_gamma 90.842600
loop_
  _atom_site_label
  _atom_site_type_symbol
  _atom_site_fract_x
  _atom_site_fract_y
  _atom_site_fract_z
C1 C 1.19368 0.28103 0.30399
 H2 H 1.18987 0.24923 0.30562
 C3 C 1.17298 0.30601 0.32490
 H4 H 1.15319 0.29284 0.34244
 C5 C 1.22573 0.33619 0.27992
 H6 H 1.24721 0.34792 0.26297
 C7 C 1.20538 0.36231 0.30021
 H8 H 1.21068 0.39373 0.29744
 N9 N 1.21966 0.29635 0.28218
 C10 C 1.23439 0.19831 0.21462
 H11 H 1.26788 0.19418 0.21723
 C12 C 1.21143 0.17633 0.19183
 H13 H 1.22747 0.15504 0.17720
 C14 C 1.17352 0.23306 0.22916
 H15 H 1.15918 0.25600 0.24317
 C16 C 1.14945 0.21214 0.20624
 H17 H 1.11640 0.21855 0.20339
 Zn18 Zn 1.25082 0.25988 0.25785
 N19 N 1.21532 0.22618 0.23259
 C20 C 1.28094 0.19113 0.28959
 N21 N 1.28433 0.23103 0.28661
 C22 C 1.31123 0.25283 0.30535
 C23 C 1.33658 0.23472 0.32799
 C24 C 1.30568 0.17161 0.31196
 C25 C 1.26573 0.31077 0.20823
 C26 C 1.28870 0.32993 0.18524
 C27 C 1.35122 0.29802 0.20495
 C28 C 1.32715 0.28008 0.22805
 N29 N 1.28522 0.28685 0.22929
 H30 H 1.25867 0.17435 0.27494
 H31 H 1.31290 0.28465 0.30269
 H32 H 1.35708 0.25416 0.34185
 H33 H 1.30173 0.13977 0.31348
 H34 H 1.23215 0.31473 0.20923
 H35 H 1.27268 0.34886 0.16862
 H36 H 1.38453 0.29232 0.20414
 H37 H 1.34182 0.26004 0.24442
 C38 C 1.16864 0.18388 0.18680
 C39 C 1.17913 0.34735 0.32364
 C40 C 1.33187 0.32324 0.18320
 C41 C 1.33432 0.19313 0.33205
 C42 C 0.70292 -0.23957 0.28878
 H43 H 0.70105 -0.27075 0.28249
 C44 C 0.67642 -0.22428 0.31145
 H45 H 0.65363 -0.24401 0.32170
 C46 C 0.73479 -0.17650 0.28199
 H47 H 0.75821 -0.15829 0.27088
 C48 C 0.70903 -0.15994 0.30490
 H49 H 0.71276 -0.12880 0.31103
 N50 N 0.73131 -0.21575 0.27456
 C51 C 0.74815 -0.30537 0.20290
 H52 H 0.77962 -0.31507 0.20846
 C53 C 0.72381 -0.32553 0.17980
 H54 H 0.73661 -0.35107 0.16780
 C55 C 0.69384 -0.25920 0.21072
 H56 H 0.68270 -0.23279 0.22240
 C57 C 0.66870 -0.27813 0.18758
 H58 H 0.63781 -0.26671 0.18229
 Zn59 Zn 0.76657 -0.24303 0.24672
 N60 N 0.73263 -0.27314 0.21804
 C61 C 0.78994 -0.31324 0.27906
 N62 N 0.80032 -0.27493 0.27296
 C63 C 0.83189 -0.25577 0.28930
 C64 C 0.85461 -0.27506 0.31276
 C65 C 0.81149 -0.33357 0.30279
 C66 C 0.78270 -0.17810 0.20722
 C67 C 0.80524 -0.15704 0.18486
 C68 C 0.86344 -0.20098 0.19329
 C69 C 0.83997 -0.22097 0.21559
 N70 N 0.80032 -0.20941 0.22208
 H71 H 0.76364 -0.32744 0.26666
 H72 H 0.83875 -0.22496 0.28459
 H73 H 0.87992 -0.25897 0.32486
 H74 H 0.80180 -0.36359 0.30803
 H75 H 0.75056 -0.17043 0.21185
 H76 H 0.79038 -0.13283 0.17267
 H77 H 0.89477 -0.21097 0.18835
 H78 H 0.85281 -0.24689 0.22664
 C79 C 0.68377 -0.31158 0.17163
 C80 C 0.67975 -0.18408 0.32035
 C81 C 0.84576 -0.16910 0.17707
 C82 C 0.84365 -0.31415 0.32061
 C83 C 0.69207 0.26645 -0.19801
 H84 H 0.68700 0.23468 -0.19881
 C85 C 0.67276 0.28960 -0.17495
 H86 H 0.65281 0.27523 -0.15810
 C87 C 0.72550 0.32339 -0.21826
 H88 H 0.74718 0.33664 -0.23430
 C89 C 0.70643 0.34759 -0.19610
 H90 H 0.71256 0.37910 -0.19703
 N91 N 0.71771 0.28367 -0.21922
 C92 C 0.72751 0.19940 -0.29780
 H93 H 0.76140 0.19902 -0.29876
 C94 C 0.70343 0.17724 -0.31966
 H95 H 0.71901 0.15972 -0.33741
 C96 C 0.66625 0.22398 -0.27405
 H97 H 0.65205 0.24275 -0.25650
 C98 C 0.64081 0.20289 -0.29609
 H99 H 0.60700 0.20505 -0.29507
 Zn100 Zn 0.74624 0.25207 -0.24912
 N101 N 0.70879 0.22172 -0.27531
 C102 C 0.77738 0.17813 -0.22885
 N103 N 0.78267 0.21813 -0.22622
 C104 C 0.81044 0.23443 -0.20473
 C105 C 0.83304 0.21028 -0.18406
 C106 C 0.79977 0.15293 -0.20910
 C107 C 0.74890 0.31105 -0.29266
 C108 C 0.76500 0.33834 -0.31363
 C109 C 0.83369 0.31071 -0.30471
 C110 C 0.81629 0.28498 -0.28271
 N111 N 0.77457 0.28594 -0.27700
 H112 H 0.75465 0.16545 -0.24547
 H113 H 0.81372 0.26634 -0.20275
 H114 H 0.85380 0.22409 -0.16642
 H115 H 0.79479 0.12138 -0.21227
 H116 H 0.71553 0.31016 -0.28843
 H117 H 0.74262 0.35692 -0.32557
 H118 H 0.86706 0.30907 -0.30876
 H119 H 0.83595 0.26401 -0.27053
 C120 C 0.65958 0.17916 -0.31922
 C121 C 0.68012 0.33084 -0.17356
 C122 C 0.80826 0.33887 -0.32025
 C123 C 0.82709 0.16884 -0.18545
 C124 C 1.20064 -0.22255 -0.20423
 H125 H 1.19808 -0.25431 -0.20145
 C126 C 1.17900 -0.19724 -0.18417
 H127 H 1.15976 -0.21004 -0.16612
 C128 C 1.23071 -0.16780 -0.23018
 H129 H 1.25184 -0.15634 -0.24749
 C130 C 1.20942 -0.14135 -0.21073
 H131 H 1.21356 -0.10995 -0.21444
 N132 N 1.22614 -0.20760 -0.22652
 C133 C 1.24621 -0.31079 -0.28750
 H134 H 1.28008 -0.31179 -0.28538
 C135 C 1.22451 -0.33854 -0.30661
 H136 H 1.24209 -0.36055 -0.31938
 C137 C 1.18276 -0.27915 -0.27468
 H138 H 1.16681 -0.25547 -0.26263
 C139 C 1.15979 -0.30603 -0.29402
 H140 H 1.12610 -0.30303 -0.29654
 Zn141 Zn 1.25897 -0.24462 -0.24888
 N142 N 1.22521 -0.28202 -0.27188
 C143 C 1.28526 -0.30929 -0.21194
 N144 N 1.29226 -0.27045 -0.21832
 C145 C 1.32139 -0.24848 -0.20160
 C146 C 1.34546 -0.26566 -0.17767
 C147 C 1.30829 -0.32757 -0.18806
 C148 C 1.27382 -0.19656 -0.30051
 C149 C 1.29692 -0.17855 -0.32402
 C150 C 1.35928 -0.20984 -0.30342
 C151 C 1.33509 -0.22663 -0.27984
 N152 N 1.29322 -0.21946 -0.27867
 H153 H 1.26108 -0.32596 -0.22481
 H154 H 1.32591 -0.21748 -0.20693
 H155 H 1.36903 -0.24753 -0.16541
 H156 H 1.30162 -0.35839 -0.18318
 H157 H 1.24027 -0.19237 -0.29964
 H158 H 1.28101 -0.16015 -0.34110
 H159 H 1.39259 -0.21563 -0.30397
 H160 H 1.34967 -0.24603 -0.26293
 C161 C 1.18073 -0.33625 -0.31021
 C162 C 1.18380 -0.15592 -0.18674
 C163 C 1.34012 -0.18536 -0.32580
 C164 C 1.33871 -0.30574 -0.17028
 C165 C 0.25499 0.18006 0.70271
 H166 H 0.22190 0.17865 0.70783
 C167 C 0.27105 0.15526 0.67945
 H168 H 0.25005 0.13405 0.66768
 C169 C 0.32187 0.21007 0.71212
 H170 H 0.34115 0.23246 0.72416
 C171 C 0.33922 0.18608 0.68879
 H172 H 0.37208 0.19001 0.68350
 N173 N 0.28036 0.20681 0.71840
 C174 C 0.18515 0.23863 0.78496
 H175 H 0.18128 0.26951 0.77925
 C176 C 0.15919 0.22111 0.80701
 H177 H 0.13589 0.23953 0.81779
 C178 C 0.22363 0.17956 0.77962
 H179 H 0.24954 0.16391 0.76942
 C180 C 0.19924 0.16114 0.80222
 H181 H 0.20641 0.13096 0.80849
 Zn182 Zn 0.25365 0.24362 0.74471
 N183 N 0.21603 0.21752 0.77132
 C184 C 0.18420 0.27699 0.71133
 N185 N 0.22631 0.27858 0.71714
 C186 C 0.25169 0.30366 0.70125
 C187 C 0.23486 0.32925 0.67899
 C188 C 0.16602 0.30192 0.68908
 C189 C 0.32192 0.25222 0.78759
 C190 C 0.34752 0.27204 0.81008
 C191 C 0.30993 0.33221 0.79933
 C192 C 0.28539 0.31136 0.77686
 N193 N 0.29186 0.27214 0.77134
 H194 H 0.16480 0.25564 0.72320
 H195 H 0.28521 0.30369 0.70592
 H196 H 0.25579 0.34952 0.66734
 H197 H 0.13250 0.29982 0.68443
 H198 H 0.32528 0.22069 0.78361
 H199 H 0.37053 0.25542 0.82333
 H200 H 0.30392 0.36329 0.80376
 H201 H 0.26012 0.32623 0.76468
 C202 C 0.16611 0.18170 0.81630
 C203 C 0.31353 0.15880 0.67154
 C204 C 0.34140 0.31255 0.81633
 C205 C 0.19147 0.32826 0.67232
 C206 C 0.75941 0.68335 0.71185
 H207 H 0.72665 0.67528 0.71414
 C208 C 0.78456 0.66186 0.69128
 H209 H 0.77085 0.63696 0.67811
 C210 C 0.81640 0.72661 0.72536
 H211 H 0.82831 0.75284 0.73769
 C212 C 0.84256 0.70614 0.70499
 H213 H 0.87421 0.71728 0.70218
 N214 N 0.77571 0.71491 0.72855
 C215 C 0.67468 0.73537 0.79461
 H216 H 0.66980 0.76635 0.78971
 C217 C 0.64912 0.71611 0.81597
 H218 H 0.62542 0.73350 0.82732
 C219 C 0.71438 0.67746 0.78704
 H220 H 0.74040 0.66282 0.77609
 C221 C 0.69037 0.65728 0.80915
 H222 H 0.69801 0.62688 0.81438
 Zn223 Zn 0.73995 0.74663 0.75330
 N224 N 0.70596 0.71578 0.78009
 C225 C 0.66488 0.76590 0.71990
 N226 N 0.70606 0.77591 0.72471
 C227 C 0.72461 0.80452 0.70733
 C228 C 0.70125 0.82520 0.68482
 C229 C 0.64041 0.78566 0.69755
 C230 C 0.80148 0.76087 0.79896
 C231 C 0.82840 0.78206 0.81959
 C232 C 0.79522 0.84253 0.80324
 C233 C 0.76927 0.82012 0.78240
 N234 N 0.77327 0.78006 0.78041
 H235 H 0.65114 0.74171 0.73268
 H236 H 0.75774 0.81109 0.71082
 H237 H 0.71671 0.84799 0.67142
 H238 H 0.60815 0.77608 0.69376
 H239 H 0.80333 0.72892 0.79740
 H240 H 0.85060 0.76609 0.83413
 H241 H 0.79188 0.87439 0.80464
 H242 H 0.74581 0.83470 0.76810
 C243 C 0.65656 0.67627 0.82378
 C244 C 0.82681 0.67319 0.68751
 C245 C 0.82572 0.82347 0.82174
 C246 C 0.65839 0.81608 0.67971
 C247 C 0.75589 0.17975 0.20385
 H248 H 0.72237 0.17781 0.20719
 C249 C 0.77431 0.15640 0.18073
 H250 H 0.75451 0.13568 0.16736
 C251 C 0.82161 0.20969 0.21763
 H252 H 0.83962 0.23152 0.23131
 C253 C 0.84126 0.18736 0.19441
 H254 H 0.87450 0.19203 0.19089
 N255 N 0.77958 0.20573 0.22168
 C256 C 0.68472 0.23518 0.29014
 H257 H 0.68377 0.26696 0.28735
 C258 C 0.65775 0.21668 0.31102
 H259 H 0.63622 0.23452 0.32437
 C260 C 0.71602 0.17379 0.27759
 H261 H 0.73961 0.15740 0.26521
 C262 C 0.69011 0.15419 0.29859
 H263 H 0.69351 0.12262 0.30181
 Zn264 Zn 0.75088 0.24095 0.24809
 N265 N 0.71277 0.21356 0.27368
 C266 C 0.68097 0.27535 0.21586
 N267 N 0.72330 0.27602 0.22065
 C268 C 0.74860 0.29992 0.20366
 C269 C 0.73160 0.32487 0.18101
 C270 C 0.66262 0.29948 0.19306
 C271 C 0.81661 0.24795 0.29281
 C272 C 0.84410 0.26733 0.31424
 C273 C 0.81276 0.32951 0.29991
 C274 C 0.78627 0.30902 0.27851
 N275 N 0.78876 0.26899 0.27528
 H276 H 0.66152 0.25521 0.22891
 H277 H 0.78224 0.29937 0.20766
 H278 H 0.75272 0.34412 0.16858
 H279 H 0.62894 0.29784 0.18914
 H280 H 0.81715 0.21601 0.29030
 H281 H 0.86542 0.25001 0.32847
 H282 H 0.80995 0.36133 0.30255
 H283 H 0.76295 0.32503 0.26516
 C284 C 0.66049 0.17567 0.31557
 C285 C 0.81743 0.16092 0.17499
 C286 C 0.84214 0.30865 0.31807
 C287 C 0.68803 0.32432 0.17488
 C288 C 0.25491 0.66619 0.21854
 H289 H 0.23185 0.65299 0.23361
 C290 C 0.27505 0.64256 0.19623
 H291 H 0.26789 0.61111 0.19482
 C292 C 0.29128 0.72328 0.20119
 H293 H 0.29674 0.75497 0.20283
 C294 C 0.31267 0.70069 0.17905
 H295 H 0.33468 0.71520 0.16375
 N296 N 0.26344 0.70580 0.22067
 C297 C 0.15814 0.72142 0.27848
 H298 H 0.14543 0.74535 0.26481
 C299 C 0.13256 0.70204 0.29986
 H300 H 0.10058 0.71175 0.30211
 C301 C 0.21627 0.68284 0.29399
 H302 H 0.24919 0.67607 0.29194
 C303 C 0.19175 0.66249 0.31554
 H304 H 0.20617 0.63980 0.32974
 Zn305 Zn 0.23445 0.74011 0.24841
 N306 N 0.19911 0.71139 0.27571
 C307 C 0.17114 0.75425 0.20427
 N308 N 0.20153 0.77300 0.22220
 C309 C 0.20909 0.81260 0.21967
 C310 C 0.18529 0.83492 0.19842
 C311 C 0.14610 0.77550 0.18333
 C312 C 0.31475 0.76281 0.27418
 C313 C 0.34266 0.78332 0.29469
 C314 C 0.28399 0.81866 0.31574
 C315 C 0.25735 0.79753 0.29467
 N316 N 0.27300 0.77028 0.27436
 H317 H 0.16650 0.72257 0.20622
 H318 H 0.23411 0.82673 0.23356
 H319 H 0.19193 0.86631 0.19626
 H320 H 0.12241 0.75987 0.16904
 H321 H 0.32658 0.74010 0.25866
 H322 H 0.37516 0.77527 0.29335
 H323 H 0.26983 0.83991 0.33152
 H324 H 0.22388 0.80250 0.29475
 C325 C 0.14916 0.67188 0.31876
 C326 C 0.30433 0.65987 0.17610
 C327 C 0.32780 0.81191 0.31645
 C328 C 0.15313 0.81636 0.18014
 O329 O 1.08501 0.01998 0.03707
 O330 O 0.93628 -0.00442 0.03747
 O331 O 0.99681 0.07634 0.03879
 O332 O 1.02525 -0.06255 0.03607
 O333 O 0.93671 0.06224 0.01965
 O334 O 1.08373 -0.04655 0.01702
 O335 O 0.95294 -0.06169 0.02068
 O336 O 1.06717 0.07695 0.02183
 C337 C 1.08292 0.05584 0.04274
 C338 C 0.93787 -0.04042 0.04188
 C339 C 0.95858 0.07526 0.04226
 C340 C 1.06383 -0.06098 0.03912
 O341 O 1.07649 -0.01953 -0.04257
 O342 O 0.93919 0.03540 -0.04100
 O343 O 1.03839 0.07304 -0.03954
 O344 O 0.97550 -0.05768 -0.04132
 O345 O 0.92219 -0.02998 -0.02265
 O346 O 1.09386 0.04596 -0.02292
 O347 O 1.04557 -0.07155 -0.02631
 O348 O 0.97060 0.08735 -0.02309
 Co349 Co 1.07743 0.00084 -0.00276
 Co350 Co 0.94096 0.01503 -0.00172
 Co351 Co 1.01735 0.07174 -0.00055
 Co352 Co 1.00068 -0.05659 -0.00263
 O353 O 1.00913 0.00772 -0.00197
 C354 C 1.06580 -0.05455 -0.04727
 C355 C 0.94936 0.07049 -0.04467
 C356 C 1.07531 0.06494 -0.04382
 C357 C 0.93808 -0.04962 -0.04430
 O358 O 1.06149 0.52516 0.54687
 O359 O 0.91827 0.47862 0.54178
 O360 O 0.96450 0.56904 0.54174
 O361 O 1.01398 0.43611 0.54564
 O362 O 0.90879 0.54419 0.52133
 O363 O 1.07226 0.45807 0.52985
 O364 O 0.94485 0.42479 0.52600
 O365 O 1.03590 0.57804 0.52823
 C366 C 1.05397 0.56078 0.55043
 C367 C 0.92630 0.44352 0.54688
 C368 C 0.92642 0.56276 0.54362
 C369 C 1.05187 0.44125 0.55063
 O370 O 1.06594 0.48124 0.46839
 O371 O 0.92055 0.51578 0.46207
 O372 O 1.01446 0.56774 0.46562
 O373 O 0.97247 0.43042 0.46566
 O374 O 0.91372 0.45016 0.48137
 O375 O 1.07140 0.54894 0.48681
 O376 O 1.04245 0.42698 0.48574
 O377 O 0.94237 0.57221 0.47892
 Co378 Co 1.06031 0.50299 0.50761
 Co379 Co 0.92270 0.49748 0.50199
 Co380 Co 0.98950 0.56498 0.50371
 Co381 Co 0.99325 0.43624 0.50565
 O382 O 0.99143 0.50044 0.50473
 C383 C 1.05992 0.44526 0.46426
 C384 C 0.92596 0.55145 0.45722
 C385 C 1.05287 0.56431 0.46402
 C386 C 0.93451 0.43393 0.46046
 O387 O 0.57677 0.01078 0.53485
 O388 O 0.43108 -0.02197 0.53554
 O389 O 0.48395 0.06180 0.53557
 O390 O 0.52615 -0.07409 0.53205
 O391 O 0.42468 0.04467 0.51689
 O392 O 0.58224 -0.05497 0.51171
 O393 O 0.45390 -0.07816 0.51968
 O394 O 0.55341 0.06699 0.52100
 C395 C 0.57165 0.04625 0.54117
 C396 C 0.43565 -0.05774 0.54014
 C397 C 0.44591 0.05974 0.53906
 C398 C 0.56463 -0.07150 0.53388
 O399 O 0.57097 -0.02419 0.45437
 O400 O 0.42894 0.01628 0.45698
 O401 O 0.52734 0.06186 0.45782
 O402 O 0.47214 -0.07215 0.45599
 O403 O 0.41778 -0.04981 0.47685
 O404 O 0.58412 0.04068 0.47668
 O405 O 0.54415 -0.07975 0.46791
 O406 O 0.45770 0.07057 0.47321
 Co407 Co 0.57090 -0.00669 0.49455
 Co408 Co 0.43331 -0.00285 0.49636
 Co409 Co 0.50529 0.05882 0.49669
 Co410 Co 0.49941 -0.06946 0.49403
 O411 O 0.50219 -0.00508 0.49537
 C412 C 0.56353 -0.05950 0.44813
 C413 C 0.43622 0.05181 0.45267
 C414 C 0.56527 0.05752 0.45487
 C415 C 0.43393 -0.06752 0.45435
 O416 O 0.57108 0.51430 0.04215
 O417 O 0.42342 0.48427 0.04226
 O418 O 0.48218 0.56894 0.04121
 O419 O 0.51103 0.43085 0.04485
 O420 O 0.42201 0.54986 0.02395
 O421 O 0.57088 0.44646 0.02744
 O422 O 0.44003 0.42718 0.02619
 O423 O 0.55318 0.56969 0.02359
 C424 C 0.57039 0.55060 0.04515
 C425 C 0.42471 0.44849 0.04707
 C426 C 0.44396 0.56663 0.04514
 C427 C 0.54941 0.43244 0.04900
 O428 O 0.56434 0.46749 -0.03465
 O429 O 0.42668 0.52129 -0.03679
 O430 O 0.52414 0.56148 -0.03689
 O431 O 0.46752 0.42924 -0.03414
 O432 O 0.41199 0.45663 -0.01870
 O433 O 0.57983 0.53442 -0.01965
 O434 O 0.53627 0.41632 -0.01536
 O435 O 0.45481 0.57509 -0.01994
 Co436 Co 0.56425 0.49129 0.00376
 Co437 Co 0.42821 0.50240 0.00274
 Co438 Co 0.50284 0.56183 0.00217
 Co439 Co 0.48942 0.43289 0.00524
 O440 O 0.49619 0.49714 0.00347
 C441 C 0.55602 0.43182 -0.03713
 C442 C 0.43480 0.55653 -0.04122
 C443 C 0.56128 0.55334 -0.04078
 C444 C 0.43031 0.43665 -0.03910
 C445 C 1.13712 0.10802 0.12572
 C446 C 1.10819 0.12878 0.10709
 N447 N 1.09793 0.16629 0.11560
 C448 C 1.11559 0.18419 0.14175
 C449 C 1.14548 0.16390 0.16011
 N450 N 1.15539 0.12612 0.15149
 N451 N 1.14705 0.07034 0.11740
 C452 C 1.12959 0.05255 0.09112
 C453 C 1.10144 0.07364 0.07191
 N454 N 1.09133 0.11132 0.08053
 H455 H 1.10750 0.21446 0.14741
 H456 H 1.13817 0.02252 0.08502
 C457 C 1.10566 0.62880 0.62667
 C458 C 1.11865 0.58974 0.62124
 N459 N 1.15007 0.57479 0.63940
 C460 C 1.16968 0.59736 0.66233
 C461 C 1.15753 0.63691 0.66731
 N462 N 1.12529 0.65137 0.64949
 N463 N 1.07485 0.64410 0.60816
 C464 C 1.05686 0.62235 0.58408
 C465 C 1.07038 0.58350 0.57808
 N466 N 1.10075 0.56797 0.59713
 H467 H 1.19472 0.58462 0.67634
 H468 H 1.03266 0.63550 0.56947
 C469 C 0.62759 0.10111 0.62216
 C470 C 0.59456 0.11928 0.60573
 N471 N 0.58143 0.15549 0.61543
 C472 C 0.60031 0.17469 0.64055
 C473 C 0.63453 0.15724 0.65629
 N474 N 0.64709 0.12065 0.64668
 N475 N 0.64047 0.06472 0.61275
 C476 C 0.62215 0.04581 0.58732
 C477 C 0.59012 0.06455 0.57006
 N478 N 0.57693 0.10085 0.57988
 H479 H 0.58990 0.20395 0.64727
 H480 H 0.63327 0.01694 0.58017
 C481 C 0.63796 0.60869 0.11962
 C482 C 0.61262 0.63017 0.09867
 N483 N 0.61048 0.67012 0.10208
 C484 C 0.63257 0.68963 0.12550
 C485 C 0.65832 0.66825 0.14641
 N486 N 0.66035 0.62816 0.14278
 N487 N 0.63997 0.56872 0.11635
 C488 C 0.61797 0.54921 0.09292
 C489 C 0.59309 0.57069 0.07153
 N490 N 0.59097 0.61078 0.07504
 H491 H 0.63072 0.72157 0.12727
 H492 H 0.62034 0.51731 0.09079
 C493 C 0.88173 -0.09266 0.12086
 C494 C 0.90646 -0.11507 0.10044
 N495 N 0.91183 -0.15420 0.10575
 C496 C 0.89350 -0.17208 0.13054
 C497 C 0.86820 -0.14993 0.15095
 N498 N 0.86294 -0.11059 0.14543
 N499 N 0.87656 -0.05343 0.11559
 C500 C 0.89479 -0.03564 0.09067
 C501 C 0.91892 -0.05821 0.06978
 N502 N 0.92422 -0.09747 0.07534
 H503 H 0.89771 -0.20354 0.13363
 H504 H 0.89000 -0.00434 0.08698
 C505 C 0.88034 0.37885 0.62348
 C506 C 0.85857 0.41174 0.61220
 N507 N 0.82095 0.42070 0.62449
 C508 C 0.80354 0.39787 0.64703
 C509 C 0.82493 0.36411 0.65838
 N510 N 0.86344 0.35645 0.64638
 N511 N 0.91700 0.36854 0.61021
 C512 C 0.93268 0.38947 0.58593
 C513 C 0.91116 0.42269 0.57469
 N514 N 0.87458 0.43323 0.58829
 H515 H 0.77402 0.40731 0.65636
 H516 H 0.96147 0.37998 0.57527
 C517 C 0.37562 -0.11082 0.61693
 C518 C 0.40608 -0.13156 0.60018
 N519 N 0.41556 -0.16912 0.60856
 C520 C 0.39573 -0.18696 0.63280
 C521 C 0.36446 -0.16652 0.64910
 N522 N 0.35534 -0.12883 0.64065
 N523 N 0.36642 -0.07313 0.60902
 C524 C 0.38603 -0.05522 0.58488
 C525 C 0.41581 -0.07614 0.56741
 N526 N 0.42523 -0.11394 0.57560
 H527 H 0.40345 -0.21712 0.63866
 H528 H 0.37780 -0.02516 0.57902
 C529 C 0.36671 0.39766 0.12555
 C530 C 0.39593 0.37626 0.10808
 N531 N 0.40505 0.33857 0.11624
 C532 C 0.38597 0.32113 0.14093
 C533 C 0.35582 0.34212 0.15796
 N534 N 0.34706 0.38001 0.14976
 N535 N 0.35800 0.43554 0.11774
 C536 C 0.37693 0.45296 0.09300
 C537 C 0.40528 0.43123 0.07486
 N538 N 0.41421 0.39334 0.08298
 H539 H 0.39327 0.29079 0.14655
 H540 H 0.36924 0.48316 0.08717
 C541 C 0.89895 0.13668 -0.12013
 C542 C 0.88407 0.09823 -0.11434
 N543 N 0.85165 0.08297 -0.13211
 C544 C 0.83324 0.10436 -0.15540
 C545 C 0.84790 0.14319 -0.16146
 N546 N 0.88060 0.15814 -0.14339
 N547 N 0.93076 0.15234 -0.10186
 C548 C 0.94809 0.13140 -0.07782
 C549 C 0.93291 0.09297 -0.07168
 N550 N 0.90132 0.07725 -0.09036
 H551 H 0.80668 0.09125 -0.16813
 H552 H 0.97324 0.14475 -0.06351
 C553 C 0.87834 0.60666 0.37540
 C554 C 0.89707 0.62888 0.40029
 N555 N 0.89878 0.66892 0.39872
 C556 C 0.88260 0.68797 0.37335
 C557 C 0.86375 0.66598 0.34805
 N558 N 0.86209 0.62564 0.34996
 N559 N 0.87601 0.56654 0.37736
 C560 C 0.89139 0.54770 0.40324
 C561 C 0.90987 0.57004 0.42833
 N562 N 0.91235 0.61016 0.42605
 H563 H 0.88347 0.71997 0.37368
 H564 H 0.88903 0.51572 0.40426
 C565 C 0.37427 0.11288 0.37931
 C566 C 0.40177 0.13285 0.40049
 N567 N 0.40734 0.17252 0.39814
 C568 C 0.38642 0.19347 0.37579
 C569 C 0.35766 0.17387 0.35442
 N570 N 0.35309 0.13368 0.35709
 N571 N 0.36853 0.07310 0.38164
 C572 C 0.38883 0.05245 0.40452
 C573 C 0.41593 0.07256 0.42625
 N574 N 0.42185 0.11240 0.42350
 H575 H 0.39264 0.22488 0.37557
 H576 H 0.38333 0.02081 0.40601
 C577 C 0.38109 0.61485 -0.11926
 C578 C 0.40132 0.63650 -0.09470
 N579 N 0.40175 0.67668 -0.09536
 C580 C 0.38273 0.69629 -0.11941
 C581 C 0.36213 0.67471 -0.14418
 N582 N 0.36212 0.63435 -0.14323
 N583 N 0.37975 0.57469 -0.11838
 C584 C 0.39745 0.55513 -0.09380
 C585 C 0.41738 0.57673 -0.06891
 N586 N 0.41904 0.61703 -0.07011
 H587 H 0.38286 0.72828 -0.11844
 H588 H 0.39563 0.52307 -0.09357
 C589 C 1.11325 -0.12159 -0.12323
 C590 C 1.12811 -0.08290 -0.11690
 N591 N 1.15985 -0.06795 -0.13413
 C592 C 1.17768 -0.08999 -0.15728
 C593 C 1.16326 -0.12917 -0.16356
 N594 N 1.13112 -0.14366 -0.14620
 N595 N 1.08215 -0.13699 -0.10562
 C596 C 1.06558 -0.11561 -0.08160
 C597 C 1.08091 -0.07705 -0.07473
 N598 N 1.11169 -0.06149 -0.09283
 H599 H 1.20372 -0.07725 -0.16966
 H600 H 1.04107 -0.12882 -0.06776
 C601 C 1.10934 0.37996 0.38815
 C602 C 1.12333 0.41892 0.39453
 N603 N 1.15455 0.43457 0.37715
 C604 C 1.17261 0.41301 0.35379
 C605 C 1.15889 0.37361 0.34739
 N606 N 1.12733 0.35845 0.36494
 N607 N 1.07886 0.36374 0.40584
 C608 C 1.06199 0.38458 0.42998
 C609 C 1.07625 0.42349 0.43686
 N610 N 1.10648 0.43993 0.41870
 H611 H 1.19814 0.42640 0.34126
 H612 H 1.03787 0.37073 0.44382
 C613 C 0.62443 -0.11077 0.37046
 C614 C 0.60808 -0.13466 0.39419
 N615 N 0.61476 -0.17423 0.39330
 C616 C 0.63707 -0.19110 0.36979
 C617 C 0.65367 -0.16728 0.34583
 N618 N 0.64675 -0.12754 0.34700
 N619 N 0.61877 -0.07104 0.37174
 C620 C 0.59798 -0.05399 0.39594
 C621 C 0.58213 -0.07774 0.42009
 N622 N 0.58733 -0.11769 0.41845
 H623 H 0.64267 -0.22256 0.37057
 H624 H 0.59446 -0.02213 0.39659
 C625 C 0.60872 0.36295 -0.10973
 C626 C 0.62416 0.40116 -0.10228
 N627 N 0.65767 0.41572 -0.11766
 C628 C 0.67641 0.39399 -0.14043
 C629 C 0.66066 0.35575 -0.14865
 N630 N 0.62715 0.34127 -0.13271
 N631 N 0.57590 0.34800 -0.09358
 C632 C 0.55798 0.36956 -0.07019
 C633 C 0.57339 0.40793 -0.06280
 N634 N 0.60610 0.42279 -0.07920
 H635 H 0.70378 0.40652 -0.15126
 H636 H 0.53196 0.35694 -0.05756
 C637 C 1.13824 0.11379 -0.12088
 C638 C 1.09981 0.12881 -0.11117
 N639 N 1.08315 0.16034 -0.12606
 C640 C 1.10347 0.17812 -0.14999
 C641 C 1.14257 0.16356 -0.15984
 N642 N 1.15835 0.13118 -0.14500
 N643 N 1.15542 0.08277 -0.10546
 C644 C 1.13587 0.06623 -0.08056
 C645 C 1.09727 0.08124 -0.07084
 N646 N 1.08007 0.11208 -0.08661
 H647 H 1.08830 0.20259 -0.16145
 H648 H 1.15022 0.04160 -0.06858
 C649 C 1.12188 0.61560 0.39059
 C650 C 1.07787 0.61591 0.38969
 N651 N 1.05756 0.63333 0.36521
 C652 C 1.07924 0.65095 0.34179
 C653 C 1.12358 0.65163 0.34294
 N654 N 1.14352 0.63343 0.36741
 N655 N 1.14236 0.59792 0.41482
 C656 C 1.12082 0.58072 0.43841
 C657 C 1.07665 0.58149 0.43797
 N658 N 1.05619 0.59900 0.41340
 H659 H 1.06178 0.66384 0.32249
 H660 H 1.13809 0.56698 0.45749
 C661 C 0.63143 0.10841 0.38016
 C662 C 0.59017 0.11976 0.38630
 N663 N 0.57211 0.14851 0.36880
 C664 C 0.59361 0.16674 0.34561
 C665 C 0.63512 0.15565 0.33955
 N666 N 0.65277 0.12642 0.35695
 N667 N 0.64989 0.08027 0.39800
 C668 C 0.62907 0.06312 0.42198
 C669 C 0.58783 0.07454 0.42836
 N670 N 0.56923 0.10248 0.41014
 H671 H 0.57838 0.18949 0.33200
 H672 H 0.64461 0.04085 0.43593
 C673 C 0.62685 0.60490 -0.11591
 C674 C 0.58761 0.61890 -0.10700
 N675 N 0.57110 0.65061 -0.12170
 C676 C 0.59231 0.66964 -0.14457
 C677 C 0.63233 0.65632 -0.15354
 N678 N 0.64799 0.62359 -0.13904
 N679 N 0.64375 0.57364 -0.10057
 C680 C 0.62325 0.55602 -0.07652
 C681 C 0.58389 0.57013 -0.06752
 N682 N 0.56698 0.60114 -0.08327
 H683 H 0.57711 0.69413 -0.15597
 H684 H 0.63754 0.53136 -0.06454
 C685 C 0.86264 -0.10334 -0.11678
 C686 C 0.90449 -0.11459 -0.11181
 N687 N 0.92029 -0.14457 -0.12937
 C688 C 0.89598 -0.16432 -0.15137
 C689 C 0.85374 -0.15372 -0.15608
 N690 N 0.83828 -0.12303 -0.13880
 N691 N 0.84666 -0.07383 -0.09875
 C692 C 0.87048 -0.05536 -0.07570
 C693 C 0.91223 -0.06696 -0.07037
 N694 N 0.92827 -0.09617 -0.08884
 H695 H 0.90949 -0.18813 -0.16499
 H696 H 0.85682 -0.03218 -0.06148
 C697 C 0.87119 0.38003 0.38238
 C698 C 0.91189 0.36830 0.39102
 N699 N 0.92977 0.33790 0.37511
 C700 C 0.90857 0.31839 0.35118
 C701 C 0.86757 0.32986 0.34272
 N702 N 0.85020 0.36073 0.35851
 N703 N 0.85272 0.40970 0.39861
 C704 C 0.87292 0.42798 0.42344
 C705 C 0.91352 0.41614 0.43243
 N706 N 0.93227 0.38670 0.41578
 H707 H 0.92361 0.29432 0.33889
 H708 H 0.85729 0.45137 0.43617
 C709 C 0.35954 -0.12326 0.38203
 C710 C 0.40294 -0.12874 0.38374
 N711 N 0.42102 -0.15312 0.36249
 C712 C 0.39777 -0.17277 0.33973
 C713 C 0.35349 -0.16819 0.33794
 N714 N 0.33619 -0.14288 0.35943
 N715 N 0.34125 -0.09898 0.40337
 C716 C 0.36450 -0.08017 0.42656
 C717 C 0.40811 -0.08598 0.42863
 N718 N 0.42628 -0.11008 0.40691
 H719 H 0.41460 -0.19135 0.32364
 H720 H 0.34903 -0.06116 0.44335
 C721 C 0.36617 0.38179 -0.11664
 C722 C 0.40780 0.37222 -0.10899
 N723 N 0.42747 0.34406 -0.12615
 C724 C 0.40722 0.32465 -0.15052
 C725 C 0.36528 0.33382 -0.15813
 N726 N 0.34598 0.36252 -0.14100
 N727 N 0.34635 0.40965 -0.09921
 C728 C 0.36625 0.42821 -0.07425
 C729 C 0.40787 0.41846 -0.06640
 N730 N 0.42766 0.39077 -0.08417
 H731 H 0.42385 0.30255 -0.16389
 H732 H 0.34972 0.45020 -0.06065
 C733 C 1.12825 -0.11471 0.11508
 C734 C 1.08533 -0.12258 0.10933
 N735 N 1.06497 -0.14911 0.12749
 C736 C 1.08569 -0.16854 0.15086
 C737 C 1.12884 -0.16111 0.15646
 N738 N 1.14891 -0.13396 0.13849
 N739 N 1.14892 -0.08893 0.09648
 C740 C 1.12873 -0.07091 0.07217
 C741 C 1.08581 -0.07890 0.06615
 N742 N 1.06504 -0.10442 0.08513
 H743 H 1.06865 -0.18962 0.16489
 H744 H 1.14609 -0.05066 0.05761
 C745 C 1.11156 0.38361 0.62634
 C746 C 1.13459 0.39679 0.60062
 N747 N 1.17596 0.38841 0.59901
 C748 C 1.19545 0.36722 0.62191
 C749 C 1.17242 0.35356 0.64772
 N750 N 1.13090 0.36234 0.64914
 N751 N 1.06996 0.39128 0.62767
 C752 C 1.05014 0.41098 0.60407
 C753 C 1.07291 0.42336 0.57788
 N754 N 1.11481 0.41631 0.57700
 H755 H 1.22815 0.36016 0.61924
 H756 H 1.01694 0.41664 0.60564
 C757 C 0.63308 -0.12628 0.60751
 C758 C 0.58910 -0.12549 0.60759
 N759 N 0.56834 -0.14271 0.63150
 C760 C 0.58949 -0.16117 0.65518
 C761 C 0.63372 -0.16293 0.65493
 N762 N 0.65423 -0.14494 0.63101
 N763 N 0.65392 -0.10869 0.58378
 C764 C 0.63274 -0.09051 0.55998
 C765 C 0.58858 -0.09011 0.55971
 N766 N 0.56786 -0.10759 0.58373
 H767 H 0.57172 -0.17382 0.67405
 H768 H 0.65020 -0.07680 0.54135
 C769 C 0.60743 0.37535 0.12593
 C770 C 0.63112 0.38952 0.10090
 N771 N 0.67294 0.38292 0.10052
 C772 C 0.69232 0.36271 0.12402
 C773 C 0.66879 0.34833 0.14936
 N774 N 0.62672 0.35519 0.14944
 N775 N 0.56535 0.38108 0.12589
 C776 C 0.54582 0.40007 0.10174
 C777 C 0.56949 0.41394 0.07645
 N778 N 0.61171 0.40847 0.07682
 H779 H 0.72545 0.35712 0.12212
 H780 H 0.51216 0.40393 0.10214
 C781 C 0.90025 0.12217 0.12267
 C782 C 0.87653 0.10712 0.09683
 N783 N 0.83409 0.10872 0.09708
 C784 C 0.81407 0.12487 0.12201
 C785 C 0.83760 0.14025 0.14816
 N786 N 0.88033 0.13835 0.14760
 N787 N 0.94283 0.12126 0.12206
 C788 C 0.96275 0.10611 0.09660
 C789 C 0.93892 0.09134 0.07055
 N790 N 0.89631 0.09208 0.07147
 H791 H 0.78030 0.12667 0.12060
 H792 H 0.99672 0.10579 0.09664
 C793 C 0.85562 0.61394 0.61653
 C794 C 0.89960 0.61648 0.61754
 N795 N 0.91936 0.63601 0.64198
 C796 C 0.89715 0.65371 0.66521
 C797 C 0.85284 0.65230 0.66387
 N798 N 0.83342 0.63191 0.63950
 N799 N 0.83573 0.59411 0.59231
 C800 C 0.85783 0.57691 0.56886
 C801 C 0.90195 0.57997 0.56941
 N802 N 0.92180 0.59962 0.59395
 H803 H 0.91417 0.66844 0.68448
 H804 H 0.84105 0.56141 0.54979
 C805 C 0.39156 0.11282 0.61884
 C806 C 0.36618 0.09762 0.59388
 N807 N 0.32395 0.10157 0.59494
 C808 C 0.30587 0.12018 0.61976
 C809 C 0.33122 0.13575 0.64489
 N810 N 0.37359 0.13145 0.64355
 N811 N 0.43385 0.10962 0.61764
 C812 C 0.45202 0.09217 0.59240
 C813 C 0.42675 0.07732 0.56711
 N814 N 0.38426 0.08021 0.56858
 H815 H 0.27223 0.12374 0.61911
 H816 H 0.48588 0.09019 0.59203
 C817 C 0.38621 0.62524 0.12130
 C818 C 0.36432 0.59609 0.10331
 N819 N 0.32387 0.58715 0.11011
 C820 C 0.30415 0.60627 0.13395
 C821 C 0.32563 0.63624 0.15159
 N822 N 0.36632 0.64487 0.14470
 N823 N 0.42683 0.63384 0.11479
 C824 C 0.44651 0.61483 0.09089
 C825 C 0.42434 0.58635 0.07222
 N826 N 0.38368 0.57761 0.07905
 H827 H 0.27166 0.59899 0.13840
 H828 H 0.47885 0.62245 0.08614
   
