data_POSCAR
  _audit_creation_date              2014-09-24
  _audit_creation_method            'ToBaCCo'
  _symmetry_space_group_name_H-M    'P1'
  _symmetry_Int_Tables_number       1
  _symmetry_cell_setting            triclinic
  loop_
  _symmetry_equiv_pos_as_xyz
 x,y,z
_cell_length_a 61.1920
_cell_length_b 32.9093
_cell_length_c 20.2936
_cell_angle_alpha 89.984800
_cell_angle_beta 89.877200
_cell_angle_gamma 90.170800
loop_
  _atom_site_label
  _atom_site_type_symbol
  _atom_site_fract_x
  _atom_site_fract_y
  _atom_site_fract_z
C1 C 0.74916 0.24864 0.46948
 C2 C 0.74898 0.24866 0.53672
 C3 C 0.73062 0.26668 0.57470
 C4 C 0.76714 0.23072 0.57536
 C5 C 0.76868 0.23544 0.43152
 C6 C 0.72985 0.26184 0.43085
 C7 C 0.72406 0.30699 0.56359
 C8 C 0.70614 0.32307 0.59740
 C9 C 0.69473 0.29915 0.64326
 C10 C 0.70161 0.25930 0.65588
 C11 C 0.71952 0.24324 0.62198
 C12 C 0.77802 0.25426 0.62283
 C13 C 0.79584 0.23831 0.65706
 C14 C 0.80281 0.19856 0.64460
 C15 C 0.79164 0.17452 0.59872
 C16 C 0.77380 0.19042 0.56452
 C17 C 0.76671 0.20463 0.38402
 C18 C 0.78516 0.19071 0.35021
 C19 C 0.80571 0.20770 0.36312
 C20 C 0.80769 0.23920 0.40912
 C21 C 0.78926 0.25318 0.44289
 C22 C 0.70922 0.24408 0.44152
 C23 C 0.69096 0.25815 0.40728
 C24 C 0.69317 0.28975 0.36153
 C25 C 0.71378 0.30675 0.34927
 C26 C 0.73206 0.29273 0.38354
 H27 H 0.73267 0.32580 0.52820
 H28 H 0.70111 0.35400 0.58720
 H29 H 0.69300 0.24039 0.69126
 H30 H 0.72442 0.21219 0.63147
 H31 H 0.77305 0.28530 0.63212
 H32 H 0.80437 0.25714 0.69251
 H33 H 0.76537 0.17154 0.52898
 H34 H 0.75098 0.19074 0.37430
 H35 H 0.78344 0.16636 0.31466
 H36 H 0.82351 0.25266 0.41932
 H37 H 0.79106 0.27749 0.47844
 H38 H 0.70726 0.21971 0.47694
 H39 H 0.67509 0.24471 0.41698
 H40 H 0.71567 0.33119 0.31392
 H41 H 0.74785 0.30664 0.37438
 H42 H 0.79686 0.14369 0.58886
 C43 C 0.25052 0.75150 0.46603
 C44 C 0.25063 0.75144 0.53326
 C45 C 0.23246 0.76948 0.57195
 C46 C 0.26893 0.73335 0.57120
 C47 C 0.26986 0.73826 0.42734
 C48 C 0.23105 0.76478 0.42815
 C49 C 0.22589 0.80983 0.56119
 C50 C 0.20807 0.82585 0.59553
 C51 C 0.19681 0.80187 0.64145
 C52 C 0.20367 0.76205 0.65379
 C53 C 0.22148 0.74598 0.61943
 C54 C 0.27997 0.75673 0.61854
 C55 C 0.29782 0.74056 0.65240
 C56 C 0.30466 0.70076 0.63969
 C57 C 0.29335 0.67692 0.59384
 C58 C 0.27549 0.69303 0.56001
 C59 C 0.26769 0.70736 0.38008
 C60 C 0.28601 0.69323 0.34591
 C61 C 0.30663 0.71012 0.35821
 C62 C 0.30880 0.74176 0.40386
 C63 C 0.29049 0.75594 0.43800
 C64 C 0.21045 0.74708 0.43958
 C65 C 0.19206 0.76117 0.40596
 C66 C 0.19410 0.79274 0.36008
 C67 C 0.21468 0.80970 0.34710
 C68 C 0.23309 0.79566 0.38074
 H69 H 0.23440 0.82868 0.52563
 H70 H 0.20294 0.85674 0.58576
 H71 H 0.19507 0.74326 0.68927
 H72 H 0.22637 0.71489 0.62865
 H73 H 0.27508 0.78778 0.62812
 H74 H 0.30644 0.75925 0.68785
 H75 H 0.26693 0.67426 0.52458
 H76 H 0.25190 0.69352 0.37093
 H77 H 0.28415 0.66877 0.31063
 H78 H 0.32467 0.75512 0.41360
 H79 H 0.29243 0.78031 0.47339
 H80 H 0.20861 0.72272 0.47507
 H81 H 0.17622 0.74774 0.41622
 H82 H 0.21644 0.83411 0.31164
 H83 H 0.24884 0.80953 0.37100
 H84 H 0.29847 0.64605 0.58379
 C85 C 0.24925 0.25139 -0.46869
 C86 C 0.24940 0.25139 -0.53593
 C87 C 0.26894 0.26459 -0.57402
 C88 C 0.23001 0.23817 -0.57441
 C89 C 0.23084 0.23350 -0.43055
 C90 C 0.26752 0.26924 -0.43017
 C91 C 0.26705 0.29548 -0.62138
 C92 C 0.28553 0.30952 -0.65512
 C93 C 0.30606 0.29254 -0.64228
 C94 C 0.30794 0.26090 -0.59644
 C95 C 0.28946 0.24683 -0.56276
 C96 C 0.20946 0.25597 -0.56367
 C97 C 0.19110 0.24178 -0.59751
 C98 C 0.19313 0.20997 -0.64297
 C99 C 0.21370 0.19297 -0.65536
 C100 C 0.23207 0.20714 -0.62145
 C101 C 0.22408 0.19321 -0.44142
 C102 C 0.20616 0.17724 -0.40722
 C103 C 0.19496 0.20124 -0.36127
 C104 C 0.20200 0.24106 -0.34894
 C105 C 0.21991 0.25705 -0.38319
 C106 C 0.27829 0.24564 -0.38268
 C107 C 0.29614 0.26155 -0.34831
 C108 C 0.30326 0.30130 -0.36067
 C109 C 0.29221 0.32537 -0.40664
 C110 C 0.27435 0.30952 -0.44097
 H111 H 0.25135 0.30938 -0.63099
 H112 H 0.28382 0.33397 -0.69052
 H113 H 0.32369 0.24736 -0.58616
 H114 H 0.29118 0.22245 -0.52730
 H115 H 0.20762 0.28044 -0.52844
 H116 H 0.17530 0.25532 -0.58759
 H117 H 0.24780 0.19321 -0.63064
 H118 H 0.23255 0.17432 -0.47685
 H119 H 0.20095 0.14633 -0.41710
 H120 H 0.19352 0.25996 -0.31346
 H121 H 0.22496 0.28808 -0.37387
 H122 H 0.27319 0.21461 -0.37341
 H123 H 0.30457 0.24269 -0.31279
 H124 H 0.29755 0.35622 -0.41641
 H125 H 0.26600 0.32845 -0.47652
 H126 H 0.21553 0.16839 -0.69045
 C127 C -0.24976 0.74843 -0.46903
 C128 C -0.24980 0.74844 -0.53627
 C129 C -0.23038 0.76176 -0.57472
 C130 C -0.26926 0.73513 -0.57436
 C131 C -0.26804 0.73040 -0.43053
 C132 C -0.23145 0.76646 -0.43086
 C133 C -0.23241 0.79276 -0.62184
 C134 C -0.21401 0.80703 -0.65571
 C135 C -0.19343 0.79017 -0.64322
 C136 C -0.19141 0.75840 -0.59769
 C137 C -0.20981 0.74410 -0.56389
 C138 C -0.28983 0.75277 -0.56312
 C139 C -0.30823 0.73860 -0.59681
 C140 C -0.30623 0.70699 -0.64264
 C141 C -0.28566 0.69013 -0.65547
 C142 C -0.26725 0.70426 -0.62172
 C143 C -0.27474 0.69006 -0.44134
 C144 C -0.29260 0.67400 -0.40701
 C145 C -0.30380 0.69795 -0.36098
 C146 C -0.29680 0.73779 -0.34864
 C147 C -0.27894 0.75387 -0.38304
 C148 C -0.22056 0.74302 -0.38341
 C149 C -0.20274 0.75916 -0.34917
 C150 C -0.19576 0.79899 -0.36160
 C151 C -0.20691 0.82288 -0.40760
 C152 C -0.22475 0.80680 -0.44181
 H153 H -0.24815 0.80658 -0.63111
 H154 H -0.21582 0.83159 -0.69087
 H155 H -0.17561 0.74497 -0.58770
 H156 H -0.20799 0.71966 -0.52860
 H157 H -0.29164 0.77712 -0.52767
 H158 H -0.32403 0.75205 -0.58654
 H159 H -0.25152 0.69046 -0.63132
 H160 H -0.26628 0.67124 -0.47690
 H161 H -0.29779 0.64308 -0.41690
 H162 H -0.30528 0.75665 -0.31312
 H163 H -0.27394 0.78494 -0.37377
 H164 H -0.22556 0.71195 -0.37401
 H165 H -0.19424 0.74043 -0.31362
 H166 H -0.20170 0.85379 -0.41743
 H167 H -0.23319 0.82562 -0.47731
 H168 H -0.28386 0.66570 -0.69087
 N169 N 0.02300 0.95723 -0.11668
 N170 N 0.03982 0.95284 -0.15684
 N171 N -0.02300 0.92854 -0.07087
 N172 N -0.03979 0.90369 -0.07876
 N173 N -0.02297 0.95686 -0.11648
 N174 N -0.03971 0.95211 -0.15668
 N175 N 0.02305 0.92891 -0.07106
 N176 N 0.03992 0.90444 -0.07889
 C177 C 0.05011 0.91980 -0.13262
 C178 C -0.04994 0.91885 -0.13250
 N179 N -0.02303 0.95656 0.11687
 N180 N -0.03962 0.95126 0.15770
 N181 N 0.02300 0.92871 0.07089
 N182 N 0.03957 0.90363 0.07926
 N183 N 0.02297 0.95693 0.11667
 N184 N 0.03951 0.95185 0.15748
 N185 N -0.02299 0.92835 0.07108
 N186 N -0.03956 0.90307 0.07945
 Mn187 Mn 0.00001 0.92812 -0.00001
 C188 C -0.04969 0.91783 0.13361
 C189 C 0.04963 0.91854 0.13339
 N190 N -0.02304 1.04428 -0.11626
 N191 N -0.03986 1.04869 -0.15617
 N192 N 0.02295 1.07288 -0.07079
 N193 N 0.03975 1.09774 -0.07875
 N194 N 0.02294 1.04464 -0.11651
 N195 N 0.03968 1.04947 -0.15687
 N196 N -0.02310 1.07251 -0.07052
 N197 N -0.04000 1.09694 -0.07801
 Mn198 Mn -0.00002 1.00076 -0.11724
 C199 C -0.05018 1.08166 -0.13168
 C200 C 0.04992 1.08268 -0.13266
 N201 N 0.02290 1.04448 0.11685
 N202 N 0.03948 1.04969 0.15756
 N203 N -0.02310 1.07243 0.07144
 N204 N -0.03966 1.09750 0.08010
 N205 N -0.02308 1.04412 0.11708
 N206 N -0.03963 1.04913 0.15809
 N207 N 0.02290 1.07278 0.07118
 N208 N 0.03946 1.09804 0.07952
 Mn209 Mn -0.00006 1.00052 0.11766
 Mn210 Mn -0.00009 1.07316 0.00031
 Cl211 Cl -0.00004 1.00064 0.00021
 C212 C 0.04957 1.08317 0.13353
 C213 C -0.04974 1.08249 0.13427
 N214 N 0.52333 0.54305 0.11529
 N215 N 0.53986 0.54813 0.15621
 N216 N 0.47750 0.57162 0.06935
 N217 N 0.46102 0.59693 0.07765
 N218 N 0.47734 0.54340 0.11515
 N219 N 0.46076 0.54871 0.15592
 N220 N 0.52349 0.57126 0.06949
 N221 N 0.54014 0.59633 0.07793
 C222 C 0.55011 0.58143 0.13215
 C223 C 0.45082 0.58217 0.13178
 N224 N 0.47758 0.54312 -0.11819
 N225 N 0.46085 0.54781 -0.15840
 N226 N 0.52365 0.57108 -0.07248
 N227 N 0.54056 0.59565 -0.08038
 N228 N 0.52355 0.54276 -0.11807
 N229 N 0.54036 0.54724 -0.15829
 N230 N 0.47761 0.57144 -0.07260
 N231 N 0.46087 0.59621 -0.08049
 Mn232 Mn 0.50056 0.57185 -0.00157
 C233 C 0.45068 0.58103 -0.13424
 C234 C 0.55071 0.58033 -0.13412
 N235 N 0.47699 0.45585 0.11541
 N236 N 0.46039 0.45084 0.15627
 N237 N 0.52293 0.42719 0.06991
 N238 N 0.53938 0.40188 0.07850
 N239 N 0.52298 0.45549 0.11554
 N240 N 0.53947 0.45025 0.15648
 N241 N 0.47693 0.42754 0.06978
 N242 N 0.46028 0.40247 0.07830
 Mn243 Mn 0.50016 0.49945 0.11614
 C244 C 0.45019 0.41747 0.13237
 C245 C 0.54946 0.41675 0.13262
 N246 N 0.52323 0.45535 -0.11781
 N247 N 0.54003 0.45059 -0.15791
 N248 N 0.47706 0.42746 -0.07218
 N249 N 0.46012 0.40298 -0.07987
 N250 N 0.47725 0.45570 -0.11793
 N251 N 0.46047 0.45125 -0.15805
 N252 N 0.52311 0.42711 -0.07206
 N253 N 0.53986 0.40232 -0.07973
 Mn254 Mn 0.50040 0.49923 -0.11876
 Mn255 Mn 0.50001 0.42682 -0.00115
 Cl256 Cl 0.50028 0.49934 -0.00131
 C257 C 0.55015 0.41741 -0.13351
 C258 C 0.45004 0.41825 -0.13367
 C259 C 0.36002 0.33813 0.26987
 C260 C 0.36197 0.32896 0.19593
 C261 C 0.38029 0.34492 0.16749
 C262 C 0.39486 0.36847 0.21582
 C263 C 0.39968 0.33837 0.27169
 C264 C 0.38137 0.32243 0.30011
 C265 C 0.36152 0.38459 0.27511
 C266 C 0.37983 0.40054 0.24670
 C267 C 0.34034 0.32111 0.30083
 C268 C 0.32421 0.30749 0.32712
 C269 C 0.41460 0.38574 0.18548
 C270 C 0.43084 0.40013 0.16103
 H271 H 0.35001 0.31149 0.16834
 H272 H 0.38403 0.34111 0.11554
 H273 H 0.41603 0.33028 0.28754
 H274 H 0.38204 0.30068 0.34028
 H275 H 0.34927 0.40333 0.29899
 H276 H 0.38325 0.43293 0.24626
 C277 C -0.13963 0.83682 0.26961
 C278 C -0.13814 0.82976 0.19496
 C279 C -0.11986 0.84609 0.16688
 C280 C -0.10488 0.86787 0.21623
 C281 C -0.09998 0.83607 0.26949
 C282 C -0.11825 0.81974 0.29756
 C283 C -0.13778 0.88303 0.27831
 C284 C -0.11951 0.89936 0.25025
 C285 C -0.15927 0.81939 0.30021
 C286 C -0.17534 0.80545 0.32629
 C287 C -0.08519 0.88553 0.18628
 C288 C -0.06898 0.90020 0.16208
 H289 H -0.15037 0.81339 0.16667
 H290 H -0.11642 0.84372 0.11452
 H291 H -0.08361 0.82714 0.28389
 H292 H -0.11753 0.79683 0.33599
 H293 H -0.14977 0.90134 0.30420
 H294 H -0.11586 0.93164 0.25210
 C295 C 0.63999 0.66112 0.26955
 C296 C 0.61859 0.67729 0.29897
 C297 C 0.60034 0.66126 0.27058
 C298 C 0.60527 0.63063 0.21554
 C299 C 0.62011 0.59870 0.24749
 C300 C 0.63835 0.61473 0.27588
 C301 C 0.63834 0.66966 0.19535
 C302 C 0.62008 0.65362 0.16694
 C303 C 0.65962 0.67824 0.30048
 C304 C 0.67568 0.69194 0.32676
 C305 C 0.58560 0.61327 0.18523
 C306 C 0.56941 0.59883 0.16080
 H307 H 0.61783 0.69940 0.33860
 H308 H 0.58395 0.66965 0.28590
 H309 H 0.61659 0.56634 0.24776
 H310 H 0.65047 0.59609 0.30046
 H311 H 0.65044 0.68677 0.16758
 H312 H 0.61654 0.65699 0.11483
 C313 C 0.13941 1.16367 0.26967
 C314 C 0.11802 1.17881 0.30057
 C315 C 0.09977 1.16261 0.27244
 C316 C 0.10470 1.13284 0.21615
 C317 C 0.11996 1.10096 0.24635
 C318 C 0.13820 1.11716 0.27448
 C319 C 0.13733 1.17311 0.19586
 C320 C 0.11907 1.15689 0.16771
 C321 C 0.15902 1.18097 0.30035
 C322 C 0.17507 1.19480 0.32649
 C323 C 0.08504 1.11531 0.18614
 C324 C 0.06885 1.10072 0.16194
 H325 H 0.11727 1.20038 0.34097
 H326 H 0.08339 1.17030 0.28875
 H327 H 0.11673 1.06850 0.24567
 H328 H 0.15060 1.09859 0.29789
 H329 H 0.14915 1.19093 0.16817
 H330 H 0.11525 1.16082 0.11589
 C331 C 0.64145 0.34283 -0.26950
 C332 C 0.63928 0.33226 -0.19607
 C333 C 0.62075 0.34711 -0.16756
 C334 C 0.60622 0.37105 -0.21531
 C335 C 0.60181 0.34182 -0.27272
 C336 C 0.62032 0.32699 -0.30119
 C337 C 0.63969 0.38930 -0.27266
 C338 C 0.62118 0.40414 -0.24417
 C339 C 0.66130 0.32684 -0.30061
 C340 C 0.67743 0.31362 -0.32712
 C341 C 0.58624 0.38713 -0.18508
 C342 C 0.56977 0.40069 -0.16110
 H343 H 0.65124 0.31470 -0.16887
 H344 H 0.61684 0.34227 -0.11594
 H345 H 0.58557 0.33349 -0.28951
 H346 H 0.61993 0.30596 -0.34238
 H347 H 0.65192 0.40884 -0.29522
 H348 H 0.61755 0.43640 -0.24234
 C349 C 0.14173 0.84654 -0.26824
 C350 C 0.13990 0.89301 -0.27103
 C351 C 0.12132 0.90764 -0.24267
 C352 C 0.10639 0.87436 -0.21431
 C353 C 0.12089 0.85036 -0.16656
 C354 C 0.13948 0.83572 -0.19494
 C355 C 0.12068 0.83068 -0.30036
 C356 C 0.10211 0.84530 -0.27201
 C357 C 0.16164 0.83077 -0.29923
 C358 C 0.17780 0.81769 -0.32572
 C359 C 0.08634 0.89018 -0.18420
 C360 C 0.06981 0.90348 -0.16026
 H361 H 0.15213 0.91270 -0.29327
 H362 H 0.11763 0.93987 -0.24061
 H363 H 0.11691 0.84532 -0.11503
 H364 H 0.15144 0.81814 -0.16773
 H365 H 0.12039 0.80978 -0.34174
 H366 H 0.08591 0.83692 -0.28910
 C367 C 0.35957 0.65555 -0.27029
 C368 C 0.38074 0.67157 -0.30181
 C369 C 0.39921 0.65673 -0.27339
 C370 C 0.39474 0.62731 -0.21621
 C371 C 0.37987 0.59424 -0.24533
 C372 C 0.36139 0.60909 -0.27377
 C373 C 0.36160 0.66590 -0.19678
 C374 C 0.38010 0.65105 -0.16833
 C375 C 0.33975 0.67154 -0.30132
 C376 C 0.32364 0.68478 -0.32772
 C377 C 0.41468 0.61124 -0.18599
 C378 C 0.43111 0.59769 -0.16196
 H379 H 0.38117 0.69272 -0.34286
 H380 H 0.41547 0.66518 -0.29009
 H381 H 0.38354 0.56200 -0.24372
 H382 H 0.34923 0.58956 -0.29651
 H383 H 0.34957 0.68333 -0.16949
 H384 H 0.38391 0.65575 -0.11667
 C385 C -0.14199 1.15434 -0.26582
 C386 C -0.12123 1.16399 -0.30550
 C387 C -0.10261 1.14952 -0.27743
 C388 C -0.10657 1.12681 -0.21240
 C389 C -0.12329 1.09352 -0.22916
 C390 C -0.14191 1.10800 -0.25725
 C391 C -0.13764 1.17145 -0.19669
 C392 C -0.11901 1.15697 -0.16858
 C393 C -0.16195 1.16995 -0.29652
 C394 C -0.17814 1.18289 -0.32280
 C395 C -0.08647 1.11114 -0.18260
 C396 C -0.06991 1.09793 -0.15894
 H397 H -0.12116 1.18072 -0.35161
 H398 H -0.08660 1.15387 -0.29949
 H399 H -0.12072 1.06141 -0.21975
 H400 H -0.15531 1.08830 -0.27190
 H401 H -0.14826 1.19301 -0.17199
 H402 H -0.11366 1.16611 -0.11980
 C403 C 0.64220 0.65397 -0.27149
 C404 C 0.63930 0.66747 -0.19960
 C405 C 0.62074 0.65279 -0.17078
 C406 C 0.60692 0.62607 -0.21674
 C407 C 0.62251 0.59272 -0.24076
 C408 C 0.64106 0.60739 -0.26955
 C409 C 0.62115 0.66721 -0.30636
 C410 C 0.60261 0.65254 -0.27758
 C411 C 0.66207 0.66979 -0.30293
 C412 C 0.67821 0.68292 -0.32973
 C413 C 0.58691 0.61019 -0.18619
 C414 C 0.57039 0.59680 -0.16196
 H415 H 0.65080 0.68682 -0.17361
 H416 H 0.61634 0.65956 -0.12011
 H417 H 0.61928 0.56042 -0.23556
 H418 H 0.65371 0.58767 -0.28902
 H419 H 0.62084 0.68643 -0.34984
 H420 H 0.58641 0.65920 -0.29640
 C421 C 0.14104 1.15718 -0.27121
 C422 C 0.11988 1.17424 -0.30069
 C423 C 0.10141 1.15947 -0.27162
 C424 C 0.10589 1.12909 -0.21591
 C425 C 0.12106 1.15170 -0.16811
 C426 C 0.13956 1.16648 -0.19720
 C427 C 0.13868 1.11085 -0.27638
 C428 C 0.12021 1.09608 -0.24731
 C429 C 0.16086 1.17309 -0.30294
 C430 C 0.17697 1.18624 -0.32991
 C431 C 0.08595 1.11306 -0.18506
 C432 C 0.06951 1.09948 -0.16064
 H433 H 0.11945 1.19603 -0.34084
 H434 H 0.08516 1.16861 -0.28688
 H435 H 0.11760 1.15573 -0.11603
 H436 H 0.15193 1.18318 -0.17005
 H437 H 0.15050 1.09135 -0.30068
 H438 H 0.11620 1.06392 -0.24671
 C439 C 0.35837 0.34550 -0.26987
 C440 C 0.37941 0.32943 -0.30173
 C441 C 0.39800 0.34389 -0.27317
 C442 C 0.39373 0.37301 -0.21554
 C443 C 0.37896 0.34916 -0.16794
 C444 C 0.36036 0.33468 -0.19653
 C445 C 0.36048 0.39195 -0.27268
 C446 C 0.37907 0.40642 -0.24411
 C447 C 0.33845 0.32990 -0.30108
 C448 C 0.32228 0.31696 -0.32772
 C449 C 0.41378 0.38868 -0.18525
 C450 C 0.43033 0.40192 -0.16124
 H451 H 0.37969 0.30851 -0.34308
 H452 H 0.41419 0.33536 -0.29005
 H453 H 0.38277 0.34411 -0.11637
 H454 H 0.34823 0.31723 -0.16945
 H455 H 0.34843 0.41174 -0.29508
 H456 H 0.38294 0.43861 -0.24204
 C457 C -0.14097 0.84418 -0.27018
 C458 C -0.13841 0.83143 -0.19783
 C459 C -0.11995 0.84628 -0.16893
 C460 C -0.10586 0.87240 -0.21525
 C461 C -0.12127 0.90561 -0.24067
 C462 C -0.13973 0.89077 -0.26955
 C463 C -0.11979 0.83041 -0.30406
 C464 C -0.10135 0.84525 -0.27520
 C465 C -0.16075 0.82819 -0.30171
 C466 C -0.17682 0.81496 -0.32853
 C467 C -0.08595 0.88849 -0.18461
 C468 C -0.06952 0.90208 -0.16035
 H469 H -0.15008 0.81244 -0.17160
 H470 H -0.11579 0.84002 -0.11795
 H471 H -0.11799 0.93793 -0.23632
 H472 H -0.15225 0.91037 -0.28994
 H473 H -0.11933 0.81073 -0.34697
 H474 H -0.08508 0.83826 -0.29337
 C475 C 0.36121 0.66294 0.26849
 C476 C 0.36297 0.67118 0.19421
 C477 C 0.38118 0.65493 0.16589
 C478 C 0.39583 0.63205 0.21468
 C479 C 0.38081 0.60033 0.24701
 C480 C 0.36261 0.61656 0.27530
 C481 C 0.38266 0.67911 0.29767
 C482 C 0.40086 0.66287 0.26938
 C483 C 0.34165 0.68027 0.29935
 C484 C 0.32564 0.69412 0.32565
 C485 C 0.41544 0.61446 0.18452
 C486 C 0.43158 0.59982 0.16023
 H487 H 0.35098 0.68825 0.16631
 H488 H 0.38479 0.65807 0.11374
 H489 H 0.38417 0.56795 0.24760
 H490 H 0.35038 0.59809 0.30012
 H491 H 0.38348 0.70137 0.33707
 H492 H 0.41727 0.67122 0.28455
 C493 C -0.13950 1.16159 0.27290
 C494 C -0.13787 1.11522 0.27932
 C495 C -0.11965 1.09935 0.25065
 C496 C -0.10482 1.13139 0.21836
 C497 C -0.09985 1.16213 0.27323
 C498 C -0.11808 1.17800 0.30190
 C499 C -0.13789 1.17007 0.19865
 C500 C -0.11965 1.15418 0.16996
 C501 C -0.15911 1.17853 0.30413
 C502 C -0.17517 1.19206 0.33058
 C503 C -0.08517 1.11419 0.18776
 C504 C -0.06900 1.09983 0.16311
 H505 H -0.14998 1.09649 0.30418
 H506 H -0.11614 1.06702 0.25096
 H507 H -0.08345 1.17069 0.28823
 H508 H -0.11729 1.20016 0.34146
 H509 H -0.15000 1.18704 0.17106
 H510 H -0.11613 1.15755 0.11778
 C511 C 0.63875 0.33648 0.27096
 C512 C 0.63657 0.32615 0.19749
 C513 C 0.61843 0.34227 0.16883
 C514 C 0.60425 0.36712 0.21648
 C515 C 0.61975 0.39916 0.24556
 C516 C 0.63788 0.38305 0.27420
 C517 C 0.61725 0.32203 0.30241
 C518 C 0.59911 0.33814 0.27377
 C519 C 0.65824 0.31931 0.30219
 C520 C 0.67420 0.30559 0.32874
 C521 C 0.58471 0.38457 0.18594
 C522 C 0.56862 0.39914 0.16136
 H523 H 0.64825 0.30781 0.17039
 H524 H 0.61456 0.33774 0.11716
 H525 H 0.61675 0.43164 0.24378
 H526 H 0.65042 0.40174 0.29695
 H527 H 0.61635 0.30098 0.34353
 H528 H 0.58268 0.33088 0.29036
 C529 C 0.13937 0.83915 0.27062
 C530 C 0.13784 0.83107 0.19627
 C531 C 0.11960 0.84702 0.16786
 C532 C 0.10470 0.86949 0.21662
 C533 C 0.11945 0.90142 0.24928
 C534 C 0.13767 0.88548 0.27766
 C535 C 0.11794 0.82249 0.29949
 C536 C 0.09971 0.83843 0.27111
 C537 C 0.15896 0.82213 0.30154
 C538 C 0.17501 0.80851 0.32776
 C539 C 0.08506 0.88676 0.18633
 C540 C 0.06889 0.90116 0.16194
 H541 H 0.15000 0.81430 0.16839
 H542 H 0.11614 0.84393 0.11565
 H543 H 0.11591 0.93373 0.25002
 H544 H 0.14973 0.90413 0.30270
 H545 H 0.11715 0.80011 0.33875
 H546 H 0.08331 0.82971 0.28606
   
