data_POSCAR
  _audit_creation_date              2014-09-24
  _audit_creation_method            'ToBaCCo'
  _symmetry_space_group_name_H-M    'P1'
  _symmetry_Int_Tables_number       1
  _symmetry_cell_setting            triclinic
  loop_
  _symmetry_equiv_pos_as_xyz
 x,y,z
_cell_length_a 41.8031
_cell_length_b 41.5407
_cell_length_c 53.4173
_cell_angle_alpha 90.075500
_cell_angle_beta 91.263900
_cell_angle_gamma 81.114400
loop_
  _atom_site_label
  _atom_site_type_symbol
  _atom_site_fract_x
  _atom_site_fract_y
  _atom_site_fract_z
C1 C 1.22403 0.24181 0.20919
 C2 C 1.24574 0.26306 0.19655
 C3 C 1.26343 0.27858 0.21299
 C4 C 1.25789 0.27153 0.24070
 C5 C 1.24682 0.21850 0.22625
 C6 C 1.26447 0.23415 0.24277
 C7 C 1.20324 0.26461 0.22713
 C8 C 1.22102 0.28004 0.24368
 H9 H 1.24734 0.26528 0.17636
 H10 H 1.27238 0.28432 0.25402
 H11 H 1.24727 0.19228 0.22645
 H12 H 1.17708 0.26632 0.22802
 C13 C 0.72466 -0.26295 0.21171
 C14 C 0.74295 -0.24184 0.19557
 C15 C 0.76077 -0.22291 0.20913
 C16 C 0.75877 -0.22676 0.23771
 C17 C 0.75055 -0.28253 0.22876
 C18 C 0.76832 -0.26357 0.24244
 C19 C 0.70436 -0.23913 0.22926
 C20 C 0.72227 -0.22027 0.24292
 H21 H 0.74209 -0.24201 0.17522
 H22 H 0.77337 -0.21125 0.24867
 H23 H 0.75273 -0.30872 0.23141
 H24 H 0.67869 -0.23905 0.23210
 C25 C 0.73035 0.23498 -0.28676
 C26 C 0.75058 0.25234 -0.30201
 C27 C 0.76868 0.27262 -0.28753
 C28 C 0.76314 0.27171 -0.26061
 C29 C 0.75216 0.21681 -0.26822
 C30 C 0.77026 0.23723 -0.25371
 C31 C 0.70988 0.25996 -0.27265
 C32 C 0.72806 0.28026 -0.25813
 H33 H 0.75162 0.25069 -0.32231
 H34 H 0.77736 0.28759 -0.24955
 H35 H 0.75208 0.19129 -0.26373
 H36 H 0.68400 0.26039 -0.27044
 C37 C 1.22714 -0.26144 -0.28561
 C38 C 1.24762 -0.24193 -0.30130
 C39 C 1.26766 -0.22580 -0.28727
 C40 C 1.26551 -0.23061 -0.25885
 C41 C 1.25151 -0.28395 -0.26919
 C42 C 1.27151 -0.26776 -0.25517
 C43 C 1.20921 -0.23681 -0.26735
 C44 C 1.22939 -0.22077 -0.25331
 H45 H 1.24644 -0.24099 -0.32164
 H46 H 1.28195 -0.21740 -0.24754
 H47 H 1.25118 -0.30994 -0.26726
 H48 H 1.18329 -0.23419 -0.26440
 C49 C 0.22428 0.21729 0.78633
 C50 C 0.24315 0.23498 0.80302
 C51 C 0.26225 0.25509 0.79016
 C52 C 0.25911 0.25396 0.76296
 C53 C 0.20415 0.24325 0.76959
 C54 C 0.22247 0.26242 0.75728
 C55 C 0.24875 0.19820 0.76863
 C56 C 0.26697 0.21751 0.75633
 H57 H 0.24267 0.23344 0.82332
 H58 H 0.27404 0.26965 0.75302
 H59 H 0.17821 0.24470 0.76630
 H60 H 0.24997 0.17233 0.76486
 C61 C 0.72697 0.72245 0.78829
 C62 C 0.74712 0.74116 0.80324
 C63 C 0.76567 0.75978 0.78829
 C64 C 0.76060 0.75617 0.76132
 C65 C 0.70694 0.74603 0.77206
 C66 C 0.72562 0.76466 0.75715
 C67 C 0.74898 0.70235 0.77167
 C68 C 0.76757 0.72108 0.75676
 H69 H 0.74792 0.74143 0.82361
 H70 H 0.77515 0.77073 0.74985
 H71 H 0.68086 0.74736 0.76961
 H72 H 0.74926 0.67634 0.76901
 C73 C 0.73873 0.21805 0.28802
 C74 C 0.75933 0.23919 0.30281
 C75 C 0.77763 0.25551 0.28804
 C76 C 0.77377 0.24927 0.25982
 C77 C 0.71873 0.24126 0.26926
 C78 C 0.73714 0.25753 0.25451
 C79 C 0.76266 0.19558 0.27204
 C80 C 0.78093 0.21198 0.25725
 H81 H 0.75909 0.24147 0.32308
 H82 H 0.78880 0.26263 0.24788
 H83 H 0.69260 0.24331 0.26692
 H84 H 0.76330 0.16936 0.27103
 C85 C 0.23476 0.71771 0.28737
 C86 C 0.25564 0.73753 0.30317
 C87 C 0.27336 0.75548 0.28924
 C88 C 0.26873 0.75202 0.26078
 C89 C 0.21412 0.74256 0.27014
 C90 C 0.23197 0.76042 0.25620
 C91 C 0.25836 0.69708 0.26994
 C92 C 0.27609 0.71513 0.25602
 H93 H 0.25626 0.73751 0.32352
 H94 H 0.28329 0.76672 0.24953
 H95 H 0.18802 0.74425 0.26785
 H96 H 0.25933 0.67097 0.26755
 O97 O 1.03977 0.03082 0.02753
 O98 O 0.93715 -0.03018 0.00967
 O99 O 0.97959 0.04837 0.02725
 O100 O 1.03969 -0.06911 0.01967
 O101 O 0.93681 0.02770 0.01876
 O102 O 1.05066 -0.02422 0.03476
 O103 O 0.97959 -0.06160 0.02566
 O104 O 1.02334 0.06770 0.00202
 C105 C 1.04021 0.05917 0.02079
 C106 C 0.95004 -0.05067 0.02582
 C107 C 0.95248 0.04322 0.03338
 C108 C 1.05141 -0.05389 0.03671
 O109 O 1.06669 -0.03693 -0.01391
 O110 O 0.94718 0.03825 -0.03110
 O111 O 1.00498 0.04114 -0.03725
 O112 O 0.97082 -0.06492 -0.02279
 O113 O 0.95086 -0.01843 -0.03875
 O114 O 1.05345 0.02151 -0.02317
 O115 O 1.03088 -0.06625 -0.02838
 O116 O 0.96421 0.07961 -0.01333
 Co117 Co 1.04850 -0.00228 0.00553
 Co118 Co 0.94795 0.00359 -0.00946
 Co119 Co 0.99145 0.04299 -0.00501
 Co120 Co 1.00462 -0.05979 -0.00148
 O121 O 0.99972 -0.00614 -0.00184
 C122 C 1.05817 -0.05747 -0.02919
 C123 C 0.94298 0.06878 -0.02761
 C124 C 1.03484 0.03454 -0.04061
 C125 C 0.95589 -0.04853 -0.04015
 O126 O 1.04816 0.51520 0.53346
 O127 O 0.94045 0.48877 0.53072
 O128 O 0.97352 0.55885 0.53160
 O129 O 1.01607 0.44499 0.53271
 O130 O 0.93036 0.54396 0.51713
 O131 O 1.05916 0.45999 0.51991
 O132 O 0.96241 0.44264 0.51735
 O133 O 1.02716 0.56120 0.51872
 C134 C 1.04219 0.54496 0.53601
 C135 C 0.94678 0.45909 0.53381
 C136 C 0.94475 0.55674 0.53427
 C137 C 1.04481 0.44721 0.53650
 O138 O 1.05181 0.48080 0.47136
 O139 O 0.93848 0.52327 0.46853
 O140 O 1.00745 0.55602 0.46999
 O141 O 0.98304 0.44713 0.46961
 O142 O 0.93675 0.46895 0.48207
 O143 O 1.05332 0.53482 0.48499
 O144 O 1.03771 0.43713 0.48476
 O145 O 0.95256 0.56657 0.48307
 Co146 Co 1.04749 0.49811 0.50233
 Co147 Co 0.94212 0.50585 0.49973
 Co148 Co 0.99064 0.55495 0.50083
 Co149 Co 0.99935 0.44870 0.50112
 O150 O 0.99489 0.50188 0.50100
 C151 C 1.05038 0.45173 0.46818
 C152 C 0.94046 0.55228 0.46562
 C153 C 1.03699 0.54977 0.46767
 C154 C 0.95358 0.45339 0.46578
 O155 O 0.55574 0.03370 0.51843
 O156 O 0.43974 -0.03253 0.51804
 O157 O 0.45476 0.06519 0.51587
 O158 O 0.54082 -0.06412 0.51904
 O159 O 0.44080 0.02217 0.53044
 O160 O 0.55427 -0.02004 0.53264
 O161 O 0.48608 -0.05377 0.53246
 O162 O 0.50963 0.05542 0.53124
 C163 C 0.53918 0.04950 0.53473
 C164 C 0.45657 -0.04744 0.53519
 C165 C 0.44258 0.05127 0.53304
 C166 C 0.55332 -0.04917 0.53592
 O167 O 0.56198 -0.04187 0.48442
 O168 O 0.43313 0.04121 0.48122
 O169 O 0.52983 0.05924 0.48328
 O170 O 0.46554 -0.05992 0.48429
 O171 O 0.44375 -0.01450 0.46898
 O172 O 0.55108 0.01285 0.47005
 O173 O 0.51904 -0.05749 0.47041
 O174 O 0.47630 0.05625 0.46832
 Co175 Co 0.55018 -0.00347 0.50130
 Co176 Co 0.44495 0.00372 0.49975
 Co177 Co 0.49313 0.05327 0.49980
 Co178 Co 0.50240 -0.05308 0.50144
 O179 O 0.49765 0.00011 0.50058
 C180 C 0.54761 -0.05473 0.46736
 C181 C 0.44755 0.05400 0.46460
 C182 C 0.54523 0.04251 0.46689
 C183 C 0.45018 -0.04430 0.46684
 O184 O 0.55802 0.52393 0.01793
 O185 O 0.44229 0.45794 0.01760
 O186 O 0.45700 0.55558 0.01557
 O187 O 0.54326 0.42601 0.01726
 O188 O 0.44354 0.51244 0.03017
 O189 O 0.55685 0.46985 0.03125
 O190 O 0.48877 0.43623 0.03140
 O191 O 0.51187 0.54550 0.03085
 C192 C 0.54143 0.53975 0.03424
 C193 C 0.45939 0.44300 0.03461
 C194 C 0.44520 0.54153 0.03282
 C195 C 0.55606 0.44064 0.03418
 O196 O 0.56370 0.44919 -0.01730
 O197 O 0.43528 0.53187 -0.01908
 O198 O 0.53198 0.55020 -0.01691
 O199 O 0.46725 0.43064 -0.01662
 O200 O 0.44562 0.47640 -0.03143
 O201 O 0.55289 0.50420 -0.03091
 O202 O 0.52061 0.43340 -0.03100
 O203 O 0.47843 0.54711 -0.03191
 Co204 Co 0.55231 0.48717 0.00018
 Co205 Co 0.44723 0.49432 -0.00064
 Co206 Co 0.49532 0.54380 -0.00054
 Co207 Co 0.50449 0.43736 0.00020
 O208 O 0.49983 0.49066 -0.00021
 C209 C 0.54906 0.43650 -0.03431
 C210 C 0.44965 0.54500 -0.03555
 C211 C 0.54710 0.53392 -0.03364
 C212 C 0.45116 0.44658 -0.03361
 C213 C 1.20512 0.22536 0.19118
 C214 C 1.18987 0.21219 0.17595
 C215 C 1.17201 0.19670 0.15741
 C216 C 1.18614 0.16753 0.14638
 C217 C 1.16909 0.15274 0.12800
 C218 C 1.13764 0.16698 0.12039
 C219 C 1.12361 0.19629 0.13163
 C220 C 1.14073 0.21106 0.15000
 C221 C 1.11946 0.15103 0.10105
 C222 C 1.08631 0.14958 0.10381
 C223 C 1.06961 0.13312 0.08623
 C224 C 1.08575 0.11802 0.06565
 C225 C 1.11854 0.11991 0.06245
 C226 C 1.13530 0.13633 0.08001
 C227 C 1.06933 0.09862 0.04886
 C228 C 1.05587 0.08123 0.03555
 H229 H 1.21034 0.15621 0.15199
 H230 H 1.18035 0.12992 0.11999
 H231 H 1.09959 0.20800 0.12598
 H232 H 1.12965 0.23374 0.15833
 H233 H 1.07354 0.16031 0.11994
 H234 H 1.04429 0.13155 0.08899
 H235 H 1.13128 0.10820 0.04662
 H236 H 1.16067 0.13743 0.07718
 C237 C 1.20579 0.72083 0.69945
 C238 C 1.18871 0.70564 0.68723
 C239 C 1.16892 0.68700 0.67257
 C240 C 1.16804 0.65440 0.67867
 C241 C 1.14997 0.63579 0.66378
 C242 C 1.13252 0.64960 0.64258
 C243 C 1.13319 0.68254 0.63683
 C244 C 1.15131 0.70109 0.65173
 C245 C 1.11470 0.62949 0.62596
 C246 C 1.08433 0.64251 0.61540
 C247 C 1.06854 0.62421 0.59852
 C248 C 1.08285 0.59269 0.59203
 C249 C 1.11272 0.57927 0.60284
 C250 C 1.12854 0.59751 0.61974
 C251 C 1.06794 0.57500 0.57307
 C252 C 1.05594 0.56084 0.55651
 H253 H 1.18158 0.64328 0.69478
 H254 H 1.14962 0.61062 0.66884
 H255 H 1.12041 0.69374 0.62043
 H256 H 1.15196 0.72627 0.64678
 H257 H 1.07290 0.66690 0.62007
 H258 H 1.04546 0.63485 0.59020
 H259 H 1.12413 0.55499 0.59777
 H260 H 1.15207 0.58697 0.62729
 C261 C 0.71259 0.21543 0.69916
 C262 C 0.69694 0.19883 0.68685
 C263 C 0.67812 0.17944 0.67193
 C264 C 0.64483 0.18147 0.67565
 C265 C 0.62632 0.16350 0.66055
 C266 C 0.64092 0.14326 0.64150
 C267 C 0.67448 0.14114 0.63812
 C268 C 0.69291 0.15914 0.65323
 C269 C 0.62117 0.12523 0.62469
 C270 C 0.63308 0.09330 0.61698
 C271 C 0.61527 0.07709 0.60000
 C272 C 0.58533 0.09253 0.59054
 C273 C 0.57298 0.12403 0.59846
 C274 C 0.59073 0.14028 0.61546
 C275 C 0.56822 0.07684 0.57160
 C276 C 0.55454 0.06413 0.55510
 H277 H 0.63313 0.19711 0.69010
 H278 H 0.60062 0.16537 0.66379
 H279 H 0.68634 0.12618 0.62338
 H280 H 0.71864 0.15752 0.65011
 H281 H 0.65624 0.08093 0.62400
 H282 H 0.62510 0.05273 0.59394
 H283 H 0.54994 0.13630 0.59110
 H284 H 0.58109 0.16498 0.62077
 C285 C 0.70565 0.71656 0.19706
 C286 C 0.69036 0.69957 0.18486
 C287 C 0.67252 0.67920 0.17003
 C288 C 0.63931 0.68009 0.17346
 C289 C 0.62192 0.66076 0.15861
 C290 C 0.63760 0.64028 0.14013
 C291 C 0.67107 0.63935 0.13703
 C292 C 0.68838 0.65869 0.15188
 C293 C 0.61904 0.62077 0.12357
 C294 C 0.63234 0.58891 0.11656
 C295 C 0.61571 0.57137 0.09968
 C296 C 0.58558 0.58539 0.08965
 C297 C 0.57182 0.61677 0.09693
 C298 C 0.58839 0.63435 0.11380
 C299 C 0.56963 0.56841 0.07082
 C300 C 0.55660 0.55488 0.05443
 H301 H 0.62683 0.69584 0.18751
 H302 H 0.59626 0.66174 0.16162
 H303 H 0.68374 0.62423 0.12273
 H304 H 0.71407 0.65791 0.14903
 H305 H 0.65569 0.57764 0.12401
 H306 H 0.62659 0.54711 0.09414
 H307 H 0.54860 0.62794 0.08913
 H308 H 0.57770 0.65895 0.11857
 C309 C 0.77999 -0.20178 0.19698
 C310 C 0.79550 -0.18494 0.18534
 C311 C 0.81348 -0.16586 0.17000
 C312 C 0.79711 -0.14012 0.15555
 C313 C 0.81402 -0.12375 0.13862
 C314 C 0.84757 -0.13305 0.13582
 C315 C 0.86394 -0.15840 0.15092
 C316 C 0.84698 -0.17471 0.16784
 C317 C 0.86516 -0.11742 0.11647
 C318 C 0.88867 -0.13644 0.10199
 C319 C 0.90485 -0.12207 0.08344
 C320 C 0.89783 -0.08850 0.07901
 C321 C 0.87451 -0.06929 0.09331
 C322 C 0.85822 -0.08365 0.11190
 C323 C 0.91508 -0.07403 0.06004
 C324 C 0.93045 -0.06286 0.04425
 H325 H 0.77112 -0.13328 0.15686
 H326 H 0.80064 -0.10462 0.12709
 H327 H 0.88982 -0.16584 0.14947
 H328 H 0.85990 -0.19471 0.17881
 H329 H 0.89419 -0.16255 0.10472
 H330 H 0.92284 -0.13719 0.07249
 H331 H 0.86900 -0.04325 0.09016
 H332 H 0.84047 -0.06831 0.12288
 C333 C 0.78822 0.29173 0.70147
 C334 C 0.80503 0.30811 0.69069
 C335 C 0.82450 0.32705 0.67657
 C336 C 0.81608 0.36094 0.67494
 C337 C 0.83319 0.37892 0.65932
 C338 C 0.85892 0.36320 0.64505
 C339 C 0.86772 0.32922 0.64734
 C340 C 0.85058 0.31130 0.66296
 C341 C 0.87545 0.38183 0.62690
 C342 C 0.90909 0.37433 0.62349
 C343 C 0.92418 0.39069 0.60535
 C344 C 0.90590 0.41475 0.59040
 C345 C 0.87254 0.42270 0.59391
 C346 C 0.85741 0.40641 0.61201
 C347 C 0.92100 0.43054 0.57086
 C348 C 0.93307 0.44363 0.55412
 H349 H 0.79587 0.37339 0.68532
 H350 H 0.82609 0.40508 0.65822
 H351 H 0.88709 0.31631 0.63638
 H352 H 0.85714 0.28505 0.66390
 H353 H 0.92371 0.35579 0.63482
 H354 H 0.95003 0.38433 0.60282
 H355 H 0.85811 0.44115 0.58236
 H356 H 0.83144 0.41242 0.61386
 C357 C 0.28900 -0.20621 0.70137
 C358 C 0.30635 -0.19018 0.69085
 C359 C 0.32643 -0.17149 0.67717
 C360 C 0.35363 -0.18738 0.66490
 C361 C 0.37154 -0.16974 0.64971
 C362 C 0.36241 -0.13591 0.64651
 C363 C 0.33547 -0.12004 0.65941
 C364 C 0.31759 -0.13775 0.67461
 C365 C 0.37993 -0.11770 0.62879
 C366 C 0.36266 -0.09409 0.61266
 C367 C 0.37882 -0.07857 0.59474
 C368 C 0.41243 -0.08633 0.59269
 C369 C 0.42995 -0.10923 0.60900
 C370 C 0.41383 -0.12481 0.62695
 C371 C 0.42859 -0.07204 0.57299
 C372 C 0.44162 -0.06055 0.55598
 H373 H 0.36052 -0.21354 0.66656
 H374 H 0.39183 -0.18277 0.63975
 H375 H 0.32805 -0.09399 0.65756
 H376 H 0.29651 -0.12522 0.68396
 H377 H 0.33653 -0.08839 0.61334
 H378 H 0.36499 -0.06102 0.58212
 H379 H 0.45599 -0.11544 0.60758
 H380 H 0.42784 -0.14257 0.63929
 C381 C 0.28591 0.29888 0.20426
 C382 C 0.30411 0.31518 0.19508
 C383 C 0.32504 0.33375 0.18217
 C384 C 0.35799 0.32156 0.18003
 C385 C 0.37736 0.33716 0.16450
 C386 C 0.36394 0.36511 0.15078
 C387 C 0.33104 0.37783 0.15378
 C388 C 0.31175 0.36220 0.16932
 C389 C 0.38344 0.37962 0.13212
 C390 C 0.37985 0.41361 0.12873
 C391 C 0.39642 0.42694 0.10981
 C392 C 0.41682 0.40652 0.09407
 C393 C 0.42106 0.37276 0.09763
 C394 C 0.40454 0.35938 0.11651
 C395 C 0.43227 0.41993 0.07354
 C396 C 0.44484 0.43066 0.05594
 H397 H 0.36850 0.29942 0.18974
 H398 H 0.40268 0.32701 0.16283
 H399 H 0.31984 0.39900 0.14324
 H400 H 0.28618 0.37162 0.17057
 H401 H 0.36405 0.42984 0.14059
 H402 H 0.39296 0.45313 0.10723
 H403 H 0.43664 0.35670 0.08547
 H404 H 0.40745 0.33313 0.11832
 C405 C 0.78593 0.22653 -0.23188
 C406 C 0.79916 0.21667 -0.21247
 C407 C 0.81450 0.20424 -0.18931
 C408 C 0.84788 0.19335 -0.18815
 C409 C 0.86254 0.17973 -0.16603
 C410 C 0.84397 0.17677 -0.14472
 C411 C 0.81048 0.18823 -0.14596
 C412 C 0.79588 0.20188 -0.16811
 C413 C 0.85936 0.16075 -0.12166
 C414 C 0.84386 0.13868 -0.10821
 C415 C 0.85933 0.12189 -0.08752
 C416 C 0.89039 0.12704 -0.07993
 C417 C 0.90567 0.14952 -0.09280
 C418 C 0.89027 0.16630 -0.11350
 C419 C 0.90767 0.10747 -0.06027
 C420 C 0.92316 0.09025 -0.04474
 H421 H 0.86250 0.19491 -0.20448
 H422 H 0.88827 0.17072 -0.16581
 H423 H 0.79560 0.18662 -0.12981
 H424 H 0.77001 0.21027 -0.16879
 H425 H 0.82026 0.13354 -0.11420
 H426 H 0.84741 0.10430 -0.07785
 H427 H 0.92978 0.15359 -0.08716
 H428 H 0.90266 0.18342 -0.12326
 C429 C 0.78926 0.72300 0.26286
 C430 C 0.80567 0.71067 0.28019
 C431 C 0.82401 0.69486 0.30108
 C432 C 0.84763 0.66765 0.29716
 C433 C 0.86346 0.65055 0.31757
 C434 C 0.85574 0.66037 0.34222
 C435 C 0.83244 0.68816 0.34594
 C436 C 0.81667 0.70523 0.32550
 C437 C 0.87111 0.64113 0.36395
 C438 C 0.85255 0.63536 0.38469
 C439 C 0.86678 0.61693 0.40502
 C440 C 0.89972 0.60395 0.40495
 C441 C 0.91843 0.60954 0.38444
 C442 C 0.90423 0.62798 0.36405
 C443 C 0.91428 0.58524 0.42608
 C444 C 0.92627 0.56992 0.44401
 H445 H 0.85329 0.65922 0.27833
 H446 H 0.88099 0.62906 0.31408
 H447 H 0.82629 0.69661 0.36466
 H448 H 0.79834 0.72618 0.32877
 H449 H 0.82691 0.64469 0.38502
 H450 H 0.85207 0.61273 0.42078
 H451 H 0.94399 0.59975 0.38424
 H452 H 0.91921 0.63226 0.34849
 C453 C 0.28355 0.21717 0.26288
 C454 C 0.29877 0.20279 0.27998
 C455 C 0.31617 0.18550 0.30069
 C456 C 0.34672 0.16706 0.29726
 C457 C 0.36327 0.14989 0.31737
 C458 C 0.34940 0.15090 0.34120
 C459 C 0.31870 0.16957 0.34443
 C460 C 0.30224 0.18673 0.32432
 C461 C 0.36685 0.13266 0.36262
 C462 C 0.34999 0.11635 0.37986
 C463 C 0.36630 0.09968 0.40026
 C464 C 0.39967 0.09904 0.40372
 C465 C 0.41671 0.11502 0.38661
 C466 C 0.40044 0.13170 0.36618
 C467 C 0.41632 0.08259 0.42509
 C468 C 0.43042 0.06925 0.44309
 H469 H 0.35767 0.16581 0.27902
 H470 H 0.38667 0.13543 0.31420
 H471 H 0.30757 0.17123 0.36259
 H472 H 0.27862 0.20095 0.32719
 H473 H 0.32421 0.11626 0.37746
 H474 H 0.35287 0.08739 0.41338
 H475 H 0.44252 0.11483 0.38917
 H476 H 0.41404 0.14436 0.35345
 C477 C 0.29179 0.71622 -0.23536
 C478 C 0.30764 0.70218 -0.21846
 C479 C 0.32535 0.68489 -0.19796
 C480 C 0.34789 0.65701 -0.20243
 C481 C 0.36357 0.63909 -0.18236
 C482 C 0.35678 0.64881 -0.15754
 C483 C 0.33434 0.67708 -0.15327
 C484 C 0.31873 0.69496 -0.17336
 C485 C 0.37272 0.62937 -0.13618
 C486 C 0.35500 0.62393 -0.11490
 C487 C 0.37006 0.60583 -0.09470
 C488 C 0.40296 0.59289 -0.09552
 C489 C 0.42076 0.59804 -0.11663
 C490 C 0.40575 0.61613 -0.13686
 C491 C 0.41875 0.57521 -0.07442
 C492 C 0.43250 0.56099 -0.05668
 H493 H 0.35297 0.64884 -0.22141
 H494 H 0.38043 0.61722 -0.18623
 H495 H 0.32894 0.68542 -0.13440
 H496 H 0.30122 0.71644 -0.16971
 H497 H 0.32943 0.63344 -0.11397
 H498 H 0.35609 0.60204 -0.07841
 H499 H 0.44632 0.58834 -0.11735
 H500 H 0.42011 0.62025 -0.15283
 C501 C 1.21805 -0.20101 -0.23218
 C502 C 1.20809 -0.18537 -0.21418
 C503 C 1.19555 -0.16773 -0.19242
 C504 C 1.20900 -0.17641 -0.16870
 C505 C 1.19528 -0.16102 -0.14732
 C506 C 1.16788 -0.13675 -0.14942
 C507 C 1.15499 -0.12770 -0.17341
 C508 C 1.16871 -0.14315 -0.19475
 C509 C 1.15182 -0.12200 -0.12672
 C510 C 1.13914 -0.08860 -0.12608
 C511 C 1.12204 -0.07528 -0.10535
 C512 C 1.11745 -0.09512 -0.08500
 C513 C 1.13059 -0.12819 -0.08519
 C514 C 1.14771 -0.14156 -0.10589
 C515 C 1.09761 -0.08194 -0.06464
 C516 C 1.08008 -0.07088 -0.04811
 H517 H 1.22974 -0.19546 -0.16669
 H518 H 1.20596 -0.16825 -0.12915
 H519 H 1.13364 -0.10945 -0.17562
 H520 H 1.15797 -0.13642 -0.21302
 H521 H 1.14224 -0.07285 -0.14169
 H522 H 1.11193 -0.04964 -0.10539
 H523 H 1.12698 -0.14379 -0.06961
 H524 H 1.15679 -0.16742 -0.10595
 C525 C 1.20641 0.29778 0.26479
 C526 C 1.19360 0.31175 0.28260
 C527 C 1.17770 0.32758 0.30395
 C528 C 1.16170 0.30968 0.32045
 C529 C 1.14575 0.32493 0.34103
 C530 C 1.14557 0.35837 0.34538
 C531 C 1.16184 0.37614 0.32873
 C532 C 1.17778 0.36082 0.30815
 C533 C 1.12845 0.37459 0.36718
 C534 C 1.14222 0.39782 0.38128
 C535 C 1.12613 0.41299 0.40183
 C536 C 1.09608 0.40518 0.40859
 C537 C 1.08214 0.38215 0.39469
 C538 C 1.09820 0.36694 0.37412
 C539 C 1.07955 0.42102 0.42969
 C540 C 1.06601 0.43471 0.44732
 H541 H 1.16152 0.28391 0.31741
 H542 H 1.13385 0.31048 0.35368
 H543 H 1.16181 0.40199 0.33140
 H544 H 1.18999 0.37493 0.29544
 H545 H 1.16564 0.40394 0.37662
 H546 H 1.13715 0.43077 0.41248
 H547 H 1.05883 0.37604 0.39968
 H548 H 1.08675 0.34951 0.36345
 C549 C 0.70868 -0.20071 0.26352
 C550 C 0.69666 -0.18534 0.28102
 C551 C 0.68164 -0.16807 0.30215
 C552 C 0.65457 -0.14399 0.29855
 C553 C 0.63867 -0.12875 0.31917
 C554 C 0.64957 -0.13752 0.34370
 C555 C 0.67713 -0.16139 0.34710
 C556 C 0.69301 -0.17656 0.32645
 C557 C 0.63174 -0.12255 0.36564
 C558 C 0.62672 -0.14178 0.38645
 C559 C 0.60947 -0.12790 0.40693
 C560 C 0.59700 -0.09465 0.40694
 C561 C 0.60193 -0.07527 0.38639
 C562 C 0.61916 -0.08911 0.36585
 C563 C 0.57931 -0.08048 0.42812
 C564 C 0.56468 -0.06874 0.44598
 H565 H 0.64540 -0.13742 0.27982
 H566 H 0.61731 -0.11077 0.31594
 H567 H 0.68638 -0.16836 0.36572
 H568 H 0.71389 -0.19523 0.32947
 H569 H 0.63567 -0.16767 0.38671
 H570 H 0.60575 -0.14315 0.42271
 H571 H 0.59250 -0.04946 0.38624
 H572 H 0.62293 -0.07360 0.35026
 C573 C 0.71431 0.29835 -0.23873
 C574 C 0.70164 0.31328 -0.22129
 C575 C 0.68591 0.32982 -0.20017
 C576 C 0.65848 0.35344 -0.20379
 C577 C 0.64182 0.36776 -0.18317
 C578 C 0.65237 0.35851 -0.15866
 C579 C 0.68032 0.33517 -0.15524
 C580 C 0.69694 0.32091 -0.17587
 C581 C 0.63383 0.37247 -0.13675
 C582 C 0.62887 0.35247 -0.11640
 C583 C 0.61120 0.36546 -0.09585
 C584 C 0.59823 0.39857 -0.09535
 C585 C 0.60301 0.41869 -0.11549
 C586 C 0.62066 0.40575 -0.13609
 C587 C 0.58041 0.41191 -0.07401
 C588 C 0.56583 0.42306 -0.05597
 H589 H 0.64959 0.36031 -0.22254
 H590 H 0.62019 0.38538 -0.18642
 H591 H 0.68930 0.32788 -0.13661
 H592 H 0.71811 0.30259 -0.17286
 H593 H 0.63827 0.32668 -0.11652
 H594 H 0.60764 0.34966 -0.08037
 H595 H 0.59320 0.44441 -0.11522
 H596 H 0.62436 0.42182 -0.15134
 C597 C 1.20444 0.19670 -0.20057
 C598 C 1.18789 0.18006 -0.18980
 C599 C 1.16794 0.16062 -0.17672
 C600 C 1.14233 0.17582 -0.16240
 C601 C 1.12355 0.15711 -0.14894
 C602 C 1.13014 0.12285 -0.14962
 C603 C 1.15565 0.10778 -0.16440
 C604 C 1.17442 0.12658 -0.17786
 C605 C 1.11144 0.10314 -0.13398
 C606 C 1.12733 0.07580 -0.12072
 C607 C 1.11039 0.05920 -0.10401
 C608 C 1.07735 0.06958 -0.10040
 C609 C 1.06106 0.09601 -0.11416
 C610 C 1.07795 0.11263 -0.13090
 C611 C 1.06117 0.05552 -0.08063
 C612 C 1.04854 0.04511 -0.06294
 H613 H 1.13715 0.20216 -0.16135
 H614 H 1.10446 0.16948 -0.13745
 H615 H 1.16110 0.08149 -0.16551
 H616 H 1.19413 0.11456 -0.18896
 H617 H 1.15315 0.06813 -0.12239
 H618 H 1.12332 0.03902 -0.09323
 H619 H 1.03554 0.10440 -0.11139
 H620 H 1.06495 0.13329 -0.14109
 C621 C 1.21543 0.69862 0.30229
 C622 C 1.19920 0.68335 0.31462
 C623 C 1.17959 0.66562 0.32952
 C624 C 1.14596 0.67027 0.32576
 C625 C 1.12672 0.65406 0.34092
 C626 C 1.14095 0.63298 0.36006
 C627 C 1.17483 0.62815 0.36346
 C628 C 1.19400 0.64440 0.34828
 C629 C 1.12053 0.61697 0.37701
 C630 C 1.13037 0.58458 0.38490
 C631 C 1.11210 0.57022 0.40207
 C632 C 1.08378 0.58801 0.41152
 C633 C 1.07343 0.61999 0.40340
 C634 C 1.09164 0.63440 0.38622
 C635 C 1.06642 0.57413 0.43064
 C636 C 1.05256 0.56285 0.44725
 H637 H 1.13458 0.68664 0.31125
 H638 H 1.10075 0.65798 0.33769
 H639 H 1.18645 0.61246 0.37826
 H640 H 1.22001 0.64075 0.35141
 H641 H 1.15227 0.57043 0.37789
 H642 H 1.12036 0.54545 0.40828
 H643 H 1.05166 0.63404 0.41075
 H644 H 1.08366 0.65949 0.38076
 C645 C 0.71886 0.20057 0.30375
 C646 C 0.70228 0.18632 0.31659
 C647 C 0.68239 0.16947 0.33190
 C648 C 0.67838 0.13744 0.32619
 C649 C 0.65924 0.12098 0.34123
 C650 C 0.64386 0.13643 0.36218
 C651 C 0.64790 0.16872 0.36765
 C652 C 0.66705 0.18511 0.35259
 C653 C 0.62432 0.11876 0.37865
 C654 C 0.59521 0.13473 0.38856
 C655 C 0.57778 0.11858 0.40519
 C656 C 0.58918 0.08629 0.41206
 C657 C 0.61773 0.06997 0.40190
 C658 C 0.63520 0.08607 0.38526
 C659 C 0.57271 0.07054 0.43068
 C660 C 0.55971 0.05759 0.44690
 H661 H 0.69008 0.12519 0.31013
 H662 H 0.65629 0.09627 0.33641
 H663 H 0.63678 0.18107 0.38387
 H664 H 0.67007 0.20989 0.35719
 H665 H 0.58602 0.15976 0.38355
 H666 H 0.55571 0.13143 0.41301
 H667 H 0.62687 0.04504 0.40726
 H668 H 0.65772 0.07327 0.37819
 C669 C 0.70890 0.70439 -0.19723
 C670 C 0.69322 0.68882 -0.18463
 C671 C 0.67459 0.67035 -0.16945
 C672 C 0.67666 0.63670 -0.17290
 C673 C 0.65909 0.61865 -0.15775
 C674 C 0.63921 0.63408 -0.13896
 C675 C 0.63708 0.66798 -0.13581
 C676 C 0.65468 0.68596 -0.15097
 C677 C 0.62144 0.61485 -0.12223
 C678 C 0.58974 0.62710 -0.11493
 C679 C 0.57370 0.60972 -0.09814
 C680 C 0.58909 0.57987 -0.08848
 C681 C 0.62037 0.56719 -0.09597
 C682 C 0.63645 0.58452 -0.11276
 C683 C 0.57357 0.56315 -0.06982
 C684 C 0.56115 0.54956 -0.05360
 H685 H 0.69196 0.62440 -0.18721
 H686 H 0.66094 0.59266 -0.16081
 H687 H 0.62238 0.68048 -0.12127
 H688 H 0.65300 0.71199 -0.14810
 H689 H 0.57740 0.65018 -0.12215
 H690 H 0.54950 0.61976 -0.09242
 H691 H 0.63257 0.54421 -0.08846
 H692 H 0.66097 0.57465 -0.11776
 C693 C 0.78550 -0.22046 -0.20124
 C694 C 0.80267 -0.20332 -0.19112
 C695 C 0.82270 -0.18331 -0.17797
 C696 C 0.80857 -0.15419 -0.16685
 C697 C 0.82748 -0.13607 -0.15225
 C698 C 0.86084 -0.14690 -0.14850
 C699 C 0.87497 -0.17582 -0.16027
 C700 C 0.85599 -0.19390 -0.17487
 C701 C 0.88035 -0.12900 -0.13134
 C702 C 0.90316 -0.14617 -0.11450
 C703 C 0.91992 -0.12946 -0.09712
 C704 C 0.91421 -0.09539 -0.09635
 C705 C 0.89210 -0.07804 -0.11337
 C706 C 0.87529 -0.09471 -0.13077
 C707 C 0.92971 -0.07843 -0.07718
 C708 C 0.94206 -0.06460 -0.06056
 H709 H 0.78277 -0.14590 -0.16894
 H710 H 0.81577 -0.11419 -0.14318
 H711 H 0.90063 -0.18460 -0.15799
 H712 H 0.86718 -0.21645 -0.18334
 H713 H 0.90728 -0.17254 -0.11419
 H714 H 0.93681 -0.14315 -0.08392
 H715 H 0.88745 -0.05166 -0.11291
 H716 H 0.85818 -0.08079 -0.14368
 C717 C 0.79782 0.27750 0.29849
 C718 C 0.81410 0.29561 0.30844
 C719 C 0.83282 0.31676 0.32168
 C720 C 0.82082 0.34996 0.32403
 C721 C 0.83723 0.36980 0.33922
 C722 C 0.86584 0.35662 0.35232
 C723 C 0.87821 0.32341 0.34920
 C724 C 0.86176 0.30364 0.33402
 C725 C 0.88165 0.37680 0.37036
 C726 C 0.91562 0.37323 0.37267
 C727 C 0.93033 0.39039 0.39104
 C728 C 0.91132 0.41135 0.40730
 C729 C 0.87755 0.41566 0.40476
 C730 C 0.86278 0.39855 0.38641
 C731 C 0.92634 0.42704 0.42744
 C732 C 0.93879 0.43946 0.44476
 H733 H 0.79836 0.36035 0.31464
 H734 H 0.82731 0.39535 0.34100
 H735 H 0.89989 0.31241 0.35930
 H736 H 0.87110 0.27790 0.33253
 H737 H 0.93079 0.35695 0.36041
 H738 H 0.95650 0.38686 0.39285
 H739 H 0.86259 0.43167 0.41734
 H740 H 0.83660 0.40149 0.38538
 C741 C 0.29415 -0.22386 0.30075
 C742 C 0.31108 -0.20705 0.31151
 C743 C 0.33074 -0.18764 0.32565
 C744 C 0.35702 -0.20297 0.34011
 C745 C 0.37428 -0.18460 0.35586
 C746 C 0.36542 -0.15059 0.35743
 C747 C 0.33955 -0.13527 0.34226
 C748 C 0.32227 -0.15373 0.32653
 C749 C 0.38196 -0.13149 0.37578
 C750 C 0.38933 -0.10058 0.36954
 C751 C 0.40396 -0.08236 0.38729
 C752 C 0.41128 -0.09477 0.41146
 C753 C 0.40422 -0.12555 0.41774
 C754 C 0.38968 -0.14378 0.40006
 C755 C 0.42534 -0.07592 0.43016
 C756 C 0.43681 -0.06097 0.44655
 H757 H 0.36372 -0.22922 0.33963
 H758 H 0.39436 -0.19704 0.36704
 H759 H 0.33193 -0.10919 0.34326
 H760 H 0.30178 -0.14165 0.31557
 H761 H 0.38390 -0.09061 0.35094
 H762 H 0.40937 -0.05857 0.38223
 H763 H 0.40964 -0.13531 0.43643
 H764 H 0.38377 -0.16720 0.40557
 C765 C 0.28092 0.27424 -0.19718
 C766 C 0.29683 0.29072 -0.18498
 C767 C 0.31501 0.30985 -0.16919
 C768 C 0.30870 0.31210 -0.14358
 C769 C 0.32612 0.33038 -0.12790
 C770 C 0.35020 0.34676 -0.13758
 C771 C 0.35651 0.34429 -0.16336
 C772 C 0.33897 0.32598 -0.17907
 C773 C 0.36861 0.36613 -0.12069
 C774 C 0.40225 0.36499 -0.12302
 C775 C 0.41965 0.38204 -0.10625
 C776 C 0.40363 0.40054 -0.08703
 C777 C 0.37012 0.40228 -0.08488
 C778 C 0.35272 0.38525 -0.10157
 C779 C 0.42144 0.41695 -0.06893
 C780 C 0.43550 0.43055 -0.05313
 H781 H 0.29035 0.29959 -0.13569
 H782 H 0.32104 0.33131 -0.10810
 H783 H 0.37469 0.35686 -0.17141
 H784 H 0.34406 0.32443 -0.19887
 H785 H 0.41522 0.35024 -0.13738
 H786 H 0.44561 0.38043 -0.10804
 H787 H 0.35744 0.41656 -0.07012
 H788 H 0.32680 0.38705 -0.09951
 C789 C 1.21751 -0.21882 0.23613
 C790 C 1.20464 -0.20234 0.21912
 C791 C 1.18847 -0.18365 0.19861
 C792 C 1.19882 -0.19005 0.17413
 C793 C 1.18187 -0.17338 0.15401
 C794 C 1.15428 -0.15011 0.15814
 C795 C 1.14433 -0.14353 0.18287
 C796 C 1.16131 -0.16025 0.20296
 C797 C 1.13562 -0.13320 0.13674
 C798 C 1.12318 -0.09980 0.13811
 C799 C 1.10549 -0.08398 0.11796
 C800 C 1.09997 -0.10132 0.09622
 C801 C 1.11217 -0.13455 0.09468
 C802 C 1.12988 -0.15042 0.11480
 C803 C 1.08230 -0.08487 0.07533
 C804 C 1.06790 -0.07089 0.05774
 H805 H 1.21977 -0.20819 0.17056
 H806 H 1.19037 -0.17866 0.13523
 H807 H 1.12295 -0.12607 0.18663
 H808 H 1.15293 -0.15533 0.22183
 H809 H 1.12751 -0.08582 0.15463
 H810 H 1.09629 -0.05819 0.11929
 H811 H 1.10801 -0.14820 0.07793
 H812 H 1.13873 -0.17624 0.11332
 C813 C 1.20886 0.28440 0.73761
 C814 C 1.19673 0.30181 0.72082
 C815 C 1.18150 0.32147 0.70040
 C816 C 1.19415 0.31743 0.67637
 C817 C 1.17801 0.33456 0.65612
 C818 C 1.14890 0.35596 0.65962
 C819 C 1.13676 0.36040 0.68395
 C820 C 1.15293 0.34320 0.70419
 C821 C 1.13074 0.37268 0.63787
 C822 C 1.11554 0.40526 0.63966
 C823 C 1.09794 0.42064 0.61926
 C824 C 1.09522 0.40365 0.59686
 C825 C 1.11031 0.37128 0.59488
 C826 C 1.12793 0.35588 0.61522
 C827 C 1.07709 0.41935 0.57583
 C828 C 1.06215 0.43220 0.55800
 H829 H 1.21622 0.30062 0.67322
 H830 H 1.18823 0.33098 0.63769
 H831 H 1.11423 0.37640 0.68722
 H832 H 1.14278 0.34633 0.72268
 H833 H 1.11754 0.41894 0.65674
 H834 H 1.08646 0.44575 0.62096
 H835 H 1.10832 0.35787 0.57765
 H836 H 1.13890 0.33064 0.61336
 C837 C 0.71202 -0.21659 0.73760
 C838 C 0.69947 -0.20061 0.72020
 C839 C 0.68391 -0.18220 0.69931
 C840 C 0.66287 -0.15313 0.70335
 C841 C 0.64674 -0.13596 0.68310
 C842 C 0.65146 -0.14767 0.65852
 C843 C 0.67283 -0.17683 0.65465
 C844 C 0.68891 -0.19396 0.67493
 C845 C 0.63394 -0.12979 0.63701
 C846 C 0.64978 -0.12668 0.61437
 C847 C 0.63317 -0.11022 0.59402
 C848 C 0.60052 -0.09670 0.59599
 C849 C 0.58457 -0.09953 0.61845
 C850 C 0.60115 -0.11596 0.63884
 C851 C 0.58347 -0.07998 0.57493
 C852 C 0.56949 -0.06596 0.55717
 H853 H 0.65879 -0.14385 0.72217
 H854 H 0.63074 -0.11341 0.68665
 H855 H 0.67662 -0.18672 0.63600
 H856 H 0.70496 -0.21658 0.67161
 H857 H 0.67511 -0.13668 0.61249
 H858 H 0.64579 -0.10803 0.57675
 H859 H 0.55929 -0.08918 0.62015
 H860 H 0.58818 -0.11830 0.65591
 C861 C 0.72322 0.27738 0.23379
 C862 C 0.71062 0.29328 0.21639
 C863 C 0.69458 0.31147 0.19561
 C864 C 0.67137 0.33888 0.19990
 C865 C 0.65425 0.35536 0.17977
 C866 C 0.66009 0.34454 0.15508
 C867 C 0.68378 0.31721 0.15095
 C868 C 0.70088 0.30078 0.17111
 C869 C 0.64119 0.36136 0.13376
 C870 C 0.63003 0.34330 0.11397
 C871 C 0.61218 0.35914 0.09391
 C872 C 0.60523 0.39317 0.09337
 C873 C 0.61615 0.41135 0.11297
 C874 C 0.63399 0.39557 0.13306
 C875 C 0.58737 0.40951 0.07253
 C876 C 0.57280 0.42350 0.05503
 H877 H 0.66613 0.34718 0.21882
 H878 H 0.63590 0.37607 0.18357
 H879 H 0.68912 0.30858 0.13214
 H880 H 0.71874 0.27953 0.16760
 H881 H 0.63478 0.31693 0.11417
 H882 H 0.60381 0.34484 0.07884
 H883 H 0.61102 0.43772 0.11265
 H884 H 0.64255 0.41014 0.14786
 C885 C 0.80062 0.19575 0.23784
 C886 C 0.81607 0.18157 0.22129
 C887 C 0.83333 0.16412 0.20120
 C888 C 0.86690 0.16252 0.19955
 C889 C 0.88338 0.14555 0.17986
 C890 C 0.86642 0.12998 0.16160
 C891 C 0.83270 0.13167 0.16353
 C892 C 0.81631 0.14861 0.18320
 C893 C 0.88357 0.11267 0.14026
 C894 C 0.87503 0.08312 0.13145
 C895 C 0.88997 0.06776 0.11051
 C896 C 0.91366 0.08168 0.09816
 C897 C 0.92276 0.11073 0.10705
 C898 C 0.90786 0.12613 0.12798
 C899 C 0.92763 0.06704 0.07572
 C900 C 0.93906 0.05563 0.05655
 H901 H 0.88031 0.17436 0.21345
 H902 H 0.90939 0.14439 0.17902
 H903 H 0.81889 0.12040 0.14956
 H904 H 0.79030 0.14975 0.18428
 H905 H 0.85673 0.07194 0.14071
 H906 H 0.88276 0.04527 0.10378
 H907 H 0.94095 0.12179 0.09753
 H908 H 0.91467 0.14903 0.13411
 C909 C 0.78505 0.70777 0.73702
 C910 C 0.79995 0.69558 0.71945
 C911 C 0.81714 0.68054 0.69837
 C912 C 0.84488 0.65737 0.70218
 C913 C 0.86092 0.64191 0.68171
 C914 C 0.84933 0.64937 0.65713
 C915 C 0.82152 0.67286 0.65351
 C916 C 0.80555 0.68832 0.67400
 C917 C 0.86600 0.63255 0.63540
 C918 C 0.84802 0.62240 0.61508
 C919 C 0.86374 0.60656 0.59463
 C920 C 0.89759 0.60068 0.59419
 C921 C 0.91569 0.61063 0.61431
 C922 C 0.90003 0.62645 0.63479
 C923 C 0.91380 0.58481 0.57300
 C924 C 0.92769 0.57180 0.55527
 H925 H 0.85394 0.65102 0.72097
 H926 H 0.88201 0.62365 0.68513
 H927 H 0.81226 0.67944 0.63482
 H928 H 0.78408 0.70621 0.67084
 H929 H 0.82180 0.62635 0.61515
 H930 H 0.84949 0.59891 0.57917
 H931 H 0.94192 0.60630 0.61412
 H932 H 0.91454 0.63432 0.64999
 C933 C 0.28766 0.20522 0.73613
 C934 C 0.30411 0.19432 0.71892
 C935 C 0.32275 0.18063 0.69806
 C936 C 0.31724 0.19483 0.67431
 C937 C 0.33360 0.18028 0.65365
 C938 C 0.35569 0.15124 0.65647
 C939 C 0.36152 0.13749 0.68052
 C940 C 0.34510 0.15207 0.70115
 C941 C 0.37171 0.13475 0.63431
 C942 C 0.40438 0.12009 0.63571
 C943 C 0.41904 0.10371 0.61503
 C944 C 0.40125 0.10175 0.59272
 C945 C 0.36884 0.11650 0.59107
 C946 C 0.35415 0.13289 0.61170
 C947 C 0.41603 0.08412 0.57164
 C948 C 0.42820 0.06918 0.55400
 H949 H 0.29994 0.21690 0.67169
 H950 H 0.32891 0.19169 0.63545
 H951 H 0.37805 0.11494 0.68326
 H952 H 0.34937 0.14073 0.71942
 H953 H 0.41864 0.12142 0.65275
 H954 H 0.44418 0.09246 0.61649
 H955 H 0.35481 0.11505 0.57392
 H956 H 0.32884 0.14350 0.61013
 C957 C 0.29593 0.70112 0.23589
 C958 C 0.31168 0.68907 0.21869
 C959 C 0.32946 0.67432 0.19779
 C960 C 0.32257 0.68705 0.17370
 C961 C 0.33824 0.67159 0.15310
 C962 C 0.36101 0.64312 0.15633
 C963 C 0.36823 0.63086 0.18069
 C964 C 0.35249 0.64636 0.20128
 C965 C 0.37638 0.62576 0.13432
 C966 C 0.40937 0.61215 0.13513
 C967 C 0.42354 0.59528 0.11450
 C968 C 0.40493 0.59178 0.09284
 C969 C 0.37215 0.60532 0.09183
 C970 C 0.35794 0.62220 0.11241
 C971 C 0.41933 0.57409 0.07171
 C972 C 0.43119 0.55923 0.05396
 H973 H 0.30476 0.70868 0.17080
 H974 H 0.33251 0.68187 0.13463
 H975 H 0.38536 0.60879 0.18375
 H976 H 0.35786 0.63619 0.21984
 H977 H 0.42425 0.61478 0.15163
 H978 H 0.44897 0.58494 0.11544
 H979 H 0.35750 0.60264 0.07518
 H980 H 0.33238 0.63196 0.11135
   
