data_POSCAR
  _audit_creation_date              2014-09-24
  _audit_creation_method            'ToBaCCo'
  _symmetry_space_group_name_H-M    'P1'
  _symmetry_Int_Tables_number       1
  _symmetry_cell_setting            triclinic
  loop_
  _symmetry_equiv_pos_as_xyz
 x,y,z
_cell_length_a 38.6219
_cell_length_b 38.3636
_cell_length_c 43.7642
_cell_angle_alpha 90.078900
_cell_angle_beta 89.943400
_cell_angle_gamma 120.204500
loop_
  _atom_site_label
  _atom_site_type_symbol
  _atom_site_fract_x
  _atom_site_fract_y
  _atom_site_fract_z
O1 O 0.03990 0.54407 1.27867
 O2 O -0.03944 0.50467 1.22025
 O3 O -0.03801 0.50572 1.27978
 O4 O 0.03862 0.54319 1.21944
 O5 O 0.03823 0.48550 1.22004
 O6 O -0.04029 0.44711 1.27914
 O7 O -0.03958 0.44717 1.21959
 O8 O 0.03760 0.48543 1.27978
 Cu9 Cu 0.00032 0.53019 1.24951
 Cu10 Cu -0.00110 0.46048 1.24965
 C11 C 0.05209 0.52138 1.28940
 C12 C -0.05292 0.46929 1.20962
 C13 C -0.05234 0.47000 1.28977
 C14 C 0.05169 0.52085 1.20949
 O15 O 0.45515 0.49429 1.28039
 O16 O 0.49543 0.45667 1.22075
 O17 O 0.49476 0.45629 1.28020
 O18 O 0.45529 0.49470 1.22082
 O19 O 0.51222 0.55272 1.22080
 O20 O 0.55165 0.51436 1.28043
 O21 O 0.55217 0.51489 1.22088
 O22 O 0.51165 0.55261 1.28037
 Cu23 Cu 0.46947 0.46968 1.25046
 Cu24 Cu 0.53760 0.53948 1.25069
 C25 C 0.47649 0.52990 1.29073
 C26 C 0.53067 0.47931 1.21058
 C27 C 0.52990 0.47874 1.29055
 C28 C 0.47702 0.53023 1.21056
 O29 O 0.50565 0.96032 1.27985
 O30 O 0.54389 1.03902 1.22053
 O31 O 0.54525 1.03928 1.27980
 O32 O 0.50484 0.96054 1.22054
 O33 O 0.44771 0.96047 1.22142
 O34 O 0.48798 1.03882 1.28115
 O35 O 0.48679 1.03901 1.22140
 O36 O 0.44889 0.96085 1.28119
 Cu37 Cu 0.53061 0.99978 1.25013
 Cu38 Cu 0.46212 0.99978 1.25133
 C39 C 0.47076 0.94716 1.29085
 C40 C 0.52186 1.05242 1.21074
 C41 C 0.52357 1.05252 1.29078
 C42 C 0.46942 0.94711 1.21074
 O43 O 0.96197 0.50585 0.71955
 O44 O 1.03912 0.54492 0.77951
 O45 O 1.04007 0.54490 0.71995
 O46 O 0.96116 0.50564 0.77883
 O47 O 0.96212 0.44862 0.77995
 O48 O 1.03881 0.48684 0.71934
 O49 O 1.04002 0.48789 0.77889
 O50 O 0.96098 0.44786 0.72018
 Cu51 Cu 1.00066 0.53112 0.74942
 Cu52 Cu 1.00043 0.46201 0.74961
 C53 C 0.94812 0.47012 0.70968
 C54 C 1.05286 0.52317 0.78944
 C55 C 1.05279 0.52253 0.70929
 C56 C 0.94839 0.47053 0.78964
 O57 O 0.49582 0.45546 0.71991
 O58 O 0.45504 0.49242 0.77951
 O59 O 0.45554 0.49293 0.71973
 O60 O 0.49573 0.45507 0.77911
 O61 O 0.55191 0.51385 0.77989
 O62 O 0.51170 0.55173 0.72049
 O63 O 0.51133 0.55106 0.77974
 O64 O 0.55217 0.51404 0.72005
 Cu65 Cu 0.46983 0.46815 0.74956
 Cu66 Cu 0.53749 0.53851 0.75004
 C67 C 0.53095 0.47841 0.70974
 C68 C 0.47619 0.52802 0.78989
 C69 C 0.47677 0.52879 0.70993
 C70 C 0.53065 0.47800 0.78969
 O71 O 0.54269 0.03895 0.71959
 O72 O 0.50544 -0.03862 0.77954
 O73 O 0.50401 -0.03965 0.72001
 O74 O 0.54386 0.03982 0.77882
 O75 O 0.48581 0.03792 0.78037
 O76 O 0.44710 -0.03938 0.71983
 O77 O 0.44740 -0.04052 0.77937
 O78 O 0.48558 0.03894 0.72062
 Cu79 Cu 0.52972 0.00014 0.74941
 Cu80 Cu 0.46072 -0.00081 0.75012
 C81 C 0.52062 0.05236 0.70991
 C82 C 0.47002 -0.05293 0.78969
 C83 C 0.46885 -0.05295 0.70957
 C84 C 0.52154 0.05223 0.78983
 O85 O 0.39341 0.65656 0.97515
 O86 O 0.39030 0.72186 0.96444
 C87 C 0.37170 0.74059 0.95918
 O88 O 0.34190 0.73546 0.97513
 O89 O 0.27698 0.66676 0.96421
 C90 C 0.25829 0.62919 0.95886
 O91 O 0.26320 0.60425 0.97479
 O92 O 0.33136 0.60762 0.96436
 C93 C 0.36871 0.62648 0.95918
 O94 O 0.39092 0.66900 1.03568
 O95 O 0.39185 0.73641 1.02500
 C96 C 0.36646 0.74046 1.04091
 O97 O 0.32915 0.72055 1.03562
 O98 O 0.26211 0.65382 1.02467
 C99 C 0.25782 0.62413 1.04057
 O100 O 0.27749 0.60645 1.03540
 O101 O 0.34374 0.60585 1.02496
 C102 C 0.37317 0.63143 1.04094
 Cr103 Cr 0.38959 0.69490 1.00006
 Cr104 Cr 0.30358 0.69315 0.99991
 Cr105 Cr 0.30494 0.60809 0.99988
 O106 O 0.33270 0.66537 0.99997
 O107 O 0.61010 0.33514 0.96539
 O108 O 0.60588 0.26604 0.97442
 C109 C 0.63009 0.25913 0.95949
 O110 O 0.66719 0.27627 0.96545
 O111 O 0.73600 0.34147 0.97443
 C112 C 0.74303 0.37280 0.95949
 O113 O 0.72614 0.39305 0.96542
 O114 O 0.66146 0.39700 0.97423
 C115 C 0.63025 0.37247 0.95938
 O116 O 0.60897 0.34643 1.02599
 O117 O 0.60809 0.27892 1.03543
 C118 C 0.62582 0.25946 1.04125
 O119 O 0.65597 0.26412 1.02611
 O120 O 0.72319 0.33112 1.03547
 C121 C 0.74260 0.36856 1.04129
 O122 O 0.73813 0.39428 1.02612
 O123 O 0.67170 0.39495 1.03533
 C124 C 0.63450 0.37689 1.04112
 Cr125 Cr 0.61052 0.30767 1.00031
 Cr126 Cr 0.69458 0.30449 1.00037
 Cr127 Cr 0.69813 0.39255 1.00029
 O128 O 0.66774 0.33491 1.00021
 O129 O 0.67143 0.39346 0.53501
 O130 O 0.73804 0.39334 0.52493
 C131 C 0.74171 0.36773 0.54094
 O132 O 0.72158 0.33018 0.53579
 O133 O 0.65496 0.26313 0.52525
 C134 C 0.62481 0.25870 0.54029
 O135 O 0.60736 0.27842 0.53439
 O136 O 0.60858 0.34609 0.52433
 C137 C 0.63408 0.37584 0.54019
 O138 O 0.66017 0.39614 0.47441
 O139 O 0.72436 0.39148 0.46437
 C140 C 0.74231 0.37205 0.45918
 O141 O 0.73651 0.34180 0.47511
 O142 O 0.66797 0.27621 0.46489
 C143 C 0.63092 0.25879 0.45873
 O144 O 0.60626 0.26520 0.47350
 O145 O 0.61088 0.33410 0.46362
 C146 C 0.63021 0.37164 0.45842
 Cr147 Cr 0.69739 0.39147 0.49968
 Cr148 Cr 0.69429 0.30399 0.50024
 Cr149 Cr 0.61036 0.30694 0.49901
 O150 O 0.66729 0.33405 0.49960
 O151 O 0.34257 0.60613 0.52624
 O152 O 0.27600 0.60625 0.53493
 C153 C 0.25729 0.62475 0.54073
 O154 O 0.26260 0.65535 0.52563
 O155 O 0.32971 0.72250 0.53488
 C156 C 0.36686 0.74156 0.54081
 O157 O 0.39221 0.73646 0.52584
 O158 O 0.39173 0.66904 0.53531
 C159 C 0.37306 0.63166 0.54127
 O160 O 0.33232 0.60754 0.46516
 O161 O 0.26408 0.60415 0.47381
 C162 C 0.25767 0.62877 0.45889
 O163 O 0.27500 0.66610 0.46492
 O164 O 0.34038 0.73473 0.47376
 C165 C 0.37157 0.74131 0.45911
 O166 O 0.39130 0.72400 0.46528
 O167 O 0.39404 0.65818 0.47464
 C168 C 0.36952 0.62722 0.45943
 Cr169 Cr 0.30483 0.60826 0.50003
 Cr170 Cr 0.30314 0.69363 0.49982
 Cr171 Cr 0.39002 0.69571 0.50025
 O172 O 0.33265 0.66587 0.49998
 C173 C 0.43088 0.57203 0.36099
 C174 C 0.46850 0.59779 0.34777
 C175 C 0.48359 0.58396 0.32463
 C176 C 0.46123 0.54404 0.31380
 C177 C 0.42334 0.51843 0.32682
 C178 C 0.40852 0.53218 0.35019
 C179 C 0.41515 0.58650 0.38609
 C180 C 0.37397 0.57309 0.38827
 C181 C 0.35915 0.58613 0.41214
 C182 C 0.38520 0.61328 0.43421
 C183 C 0.42639 0.62702 0.43191
 C184 C 0.44115 0.61361 0.40826
 H185 H 0.51275 0.60478 0.31514
 H186 H 0.40519 0.48744 0.31932
 H187 H 0.32730 0.57528 0.41309
 H188 H 0.44721 0.64774 0.44867
 H189 H 0.37976 0.51125 0.36016
 H190 H 0.35314 0.55283 0.37133
 H191 H 0.48625 0.62888 0.35509
 H192 H 0.47291 0.62403 0.40767
 C193 C 0.42800 0.85871 0.36095
 C194 C 0.40645 0.87781 0.35250
 C195 C 0.42014 0.90638 0.32904
 C196 C 0.45641 0.91757 0.31385
 C197 C 0.47812 0.89867 0.32241
 C198 C 0.46384 0.86931 0.34531
 C199 C 0.41338 0.82821 0.38607
 C200 C 0.44061 0.82361 0.40463
 C201 C 0.42696 0.79497 0.42803
 C202 C 0.38584 0.77099 0.43402
 C203 C 0.35852 0.77566 0.41588
 C204 C 0.37208 0.80353 0.39193
 H205 H 0.40262 0.92037 0.32336
 H206 H 0.50596 0.90605 0.31113
 H207 H 0.44864 0.79219 0.44193
 H208 H 0.32660 0.75716 0.41987
 H209 H 0.48088 0.85469 0.35047
 H210 H 0.47261 0.84254 0.40151
 H211 H 0.37925 0.87134 0.36433
 H212 H 0.35002 0.80529 0.37783
 C213 C 0.14152 0.56704 0.36035
 C214 C 0.11626 0.52523 0.35618
 C215 C 0.08768 0.51039 0.33282
 C216 C 0.08321 0.53697 0.31342
 C217 C 0.10837 0.57868 0.31745
 C218 C 0.13741 0.59353 0.34044
 C219 C 0.17162 0.58298 0.38552
 C220 C 0.18095 0.61912 0.40058
 C221 C 0.20917 0.63416 0.42413
 C222 C 0.22824 0.61307 0.43364
 C223 C 0.21886 0.57685 0.41884
 C224 C 0.19115 0.56215 0.39490
 H225 H 0.06846 0.47807 0.33037
 H226 H 0.10585 0.59988 0.30262
 H227 H 0.21554 0.66198 0.43531
 H228 H 0.23343 0.56017 0.42549
 H229 H 0.15685 0.62585 0.34240
 H230 H 0.16599 0.63559 0.39454
 H231 H 0.11793 0.50386 0.37133
 H232 H 0.18543 0.53470 0.38351
 C233 C 0.57459 0.43348 0.36103
 C234 C 0.53406 0.41196 0.35234
 C235 C 0.51969 0.42657 0.32936
 C236 C 0.54541 0.46323 0.31467
 C237 C 0.58591 0.48489 0.32338
 C238 C 0.60037 0.47011 0.34623
 C239 C 0.58971 0.41781 0.38557
 C240 C 0.61825 0.44420 0.40677
 C241 C 0.63174 0.42930 0.43022
 C242 C 0.61677 0.38764 0.43315
 C243 C 0.58849 0.36128 0.41181
 C244 C 0.57525 0.37620 0.38824
 H245 H 0.48826 0.40930 0.32333
 H246 H 0.60652 0.51314 0.31238
 H247 H 0.65344 0.45039 0.44636
 H248 H 0.57666 0.32905 0.41323
 H249 H 0.63187 0.48715 0.35205
 H250 H 0.62960 0.47635 0.40564
 H251 H 0.51321 0.38405 0.36362
 H252 H 0.55386 0.35510 0.37197
 C253 C 0.56964 0.14130 0.36066
 C254 C 0.59477 0.13057 0.34501
 C255 C 0.57955 0.10109 0.32217
 C256 C 0.53892 0.08222 0.31370
 C257 C 0.51394 0.09356 0.32890
 C258 C 0.52896 0.12225 0.35230
 C259 C 0.58566 0.17188 0.38572
 C260 C 0.56927 0.19680 0.39147
 C261 C 0.58370 0.22473 0.41541
 C262 C 0.61553 0.22916 0.43362
 C263 C 0.63247 0.20497 0.42772
 C264 C 0.61737 0.17628 0.40433
 H265 H 0.59993 0.09359 0.31087
 H266 H 0.48242 0.07960 0.32327
 H267 H 0.57047 0.24343 0.41934
 H268 H 0.65682 0.20761 0.44169
 H269 H 0.50835 0.12888 0.36415
 H270 H 0.54556 0.19517 0.37730
 H271 H 0.62644 0.14516 0.35011
 H272 H 0.63024 0.15715 0.40126
 C273 C 0.85884 0.42699 0.36111
 C274 C 0.86801 0.40034 0.34586
 C275 C 0.89681 0.41427 0.32267
 C276 C 0.91690 0.45509 0.31409
 C277 C 0.90759 0.48169 0.32919
 C278 C 0.87901 0.46783 0.35250
 C279 C 0.82855 0.41237 0.38600
 C280 C 0.80245 0.42768 0.38917
 C281 C 0.77450 0.41459 0.41290
 C282 C 0.77179 0.38565 0.43392
 C283 C 0.79757 0.36999 0.43059
 C284 C 0.82573 0.38331 0.40696
 H285 H 0.90317 0.39298 0.31136
 H286 H 0.92274 0.51338 0.32326
 H287 H 0.75484 0.42700 0.41465
 H288 H 0.79636 0.34778 0.44647
 H289 H 0.87319 0.48930 0.36411
 H290 H 0.80332 0.44955 0.37310
 H291 H 0.85259 0.36859 0.35160
 H292 H 0.84577 0.37133 0.40545
 C293 C 0.57645 0.43551 1.13954
 C294 C 0.59745 0.47635 1.14825
 C295 C 0.58281 0.49049 1.17150
 C296 C 0.54669 0.46418 1.18645
 C297 C 0.52581 0.42334 1.17789
 C298 C 0.54059 0.40914 1.15481
 C299 C 0.59154 0.42055 1.11437
 C300 C 0.56467 0.39137 1.09372
 C301 C 0.57864 0.37719 1.07008
 C302 C 0.61989 0.39207 1.06629
 C303 C 0.64684 0.42139 1.08682
 C304 C 0.63282 0.43537 1.11063
 H305 H 0.59952 0.52218 1.17747
 H306 H 0.49805 0.40223 1.18912
 H307 H 0.55705 0.35479 1.05457
 H308 H 0.67879 0.43329 1.08467
 H309 H 0.52402 0.37738 1.14909
 H310 H 0.53276 0.37983 1.09554
 H311 H 0.62484 0.49761 1.13670
 H312 H 0.65431 0.45742 1.12637
 C313 C 0.85904 0.42587 1.13970
 C314 C 0.87529 0.40244 1.15008
 C315 C 0.90395 0.41652 1.17336
 C316 C 0.91754 0.45469 1.18670
 C317 C 0.90113 0.47804 1.17633
 C318 C 0.87214 0.46372 1.15328
 C319 C 0.82890 0.41110 1.11460
 C320 C 0.82906 0.43806 1.09276
 C321 C 0.80091 0.42428 1.06914
 C322 C 0.77216 0.38312 1.06653
 C323 C 0.77201 0.35609 1.08825
 C324 C 0.79991 0.36994 1.11208
 H325 H 0.91585 0.39759 1.18053
 H326 H 0.91047 0.50744 1.18607
 H327 H 0.80203 0.44586 1.05266
 H328 H 0.75004 0.32423 1.08703
 H329 H 0.85975 0.48227 1.14631
 H330 H 0.85137 0.46981 1.09359
 H331 H 0.86642 0.37344 1.13984
 H332 H 0.79841 0.34841 1.12876
 C333 C 0.56628 0.14231 1.13965
 C334 C 0.59209 0.13221 1.15486
 C335 C 0.57768 0.10315 1.17796
 C336 C 0.53716 0.08371 1.18662
 C337 C 0.51141 0.09414 1.17175
 C338 C 0.52577 0.12300 1.14847
 C339 C 0.58151 0.17248 1.11448
 C340 C 0.56740 0.19962 1.11079
 C341 C 0.58163 0.22777 1.08700
 C342 C 0.61052 0.22961 1.06645
 C343 C 0.62471 0.20258 1.07020
 C344 C 0.61027 0.17428 1.09382
 H345 H 0.59837 0.09603 1.18913
 H346 H 0.47998 0.07956 1.17780
 H347 H 0.57026 0.24833 1.08487
 H348 H 0.64676 0.20297 1.05467
 H349 H 0.50492 0.12960 1.13697
 H350 H 0.54571 0.19950 1.12654
 H351 H 0.62361 0.14700 1.14909
 H352 H 0.62127 0.15338 1.09561
 C353 C 0.43170 0.57390 1.13936
 C354 C 0.40618 0.53747 1.15448
 C355 C 0.42085 0.52333 1.17763
 C356 C 0.46133 0.54543 1.18634
 C357 C 0.48678 0.58202 1.17144
 C358 C 0.47218 0.59601 1.14816
 C359 C 0.41630 0.58861 1.11435
 C360 C 0.43001 0.63000 1.11107
 C361 C 0.41604 0.64389 1.08726
 C362 C 0.38782 0.61668 1.06627
 C363 C 0.37382 0.57527 1.06969
 C364 C 0.38800 0.56141 1.09338
 H365 H 0.40042 0.49515 1.18879
 H366 H 0.51818 0.59963 1.17750
 H367 H 0.42720 0.67596 1.08543
 H368 H 0.35221 0.55351 1.05384
 H369 H 0.49281 0.62384 1.13667
 H370 H 0.45126 0.65171 1.12711
 H371 H 0.37471 0.52002 1.14864
 H372 H 0.37728 0.52941 1.09493
 C373 C 0.14094 0.56521 1.13846
 C374 C 0.12179 0.52448 1.14733
 C375 C 0.09307 0.51013 1.17058
 C376 C 0.08268 0.53613 1.18533
 C377 C 0.10191 0.57686 1.17658
 C378 C 0.13080 0.59127 1.15350
 C379 C 0.17107 0.58041 1.11346
 C380 C 0.17275 0.60894 1.09247
 C381 C 0.20101 0.62325 1.06893
 C382 C 0.22808 0.60915 1.06567
 C383 C 0.22640 0.58058 1.08661
 C384 C 0.19830 0.56647 1.11028
 H385 H 0.07864 0.47853 1.17671
 H386 H 0.09477 0.59773 1.18766
 H387 H 0.20134 0.64508 1.05309
 H388 H 0.24702 0.56931 1.08486
 H389 H 0.14548 0.62295 1.14762
 H390 H 0.15180 0.61980 1.09394
 H391 H 0.12845 0.50347 1.13592
 H392 H 0.19824 0.54499 1.12633
 C393 C 0.42428 0.85742 1.13947
 C394 C 0.40281 0.87639 1.14849
 C395 C 0.41721 0.90519 1.17185
 C396 C 0.45353 0.91587 1.18657
 C397 C 0.47489 0.89677 1.17770
 C398 C 0.46036 0.86779 1.15451
 C399 C 0.40937 0.82726 1.11429
 C400 C 0.43627 0.82588 1.09332
 C401 C 0.42237 0.79761 1.06963
 C402 C 0.38118 0.77022 1.06618
 C403 C 0.35425 0.77161 1.08709
 C404 C 0.36819 0.79972 1.11092
 H405 H 0.40016 0.91951 1.17806
 H406 H 0.50283 0.90412 1.18875
 H407 H 0.44391 0.79751 1.05383
 H408 H 0.32235 0.75075 1.08521
 H409 H 0.47728 0.85325 1.14855
 H410 H 0.46811 0.84707 1.09492
 H411 H 0.37522 0.86955 1.13710
 H412 H 0.34672 0.79953 1.12694
 C413 C 0.57641 0.43478 0.63847
 C414 C 0.59756 0.47560 0.64723
 C415 C 0.58307 0.48975 0.67058
 C416 C 0.54701 0.46344 0.68557
 C417 C 0.52602 0.42260 0.67696
 C418 C 0.54062 0.40842 0.65378
 C419 C 0.59133 0.41975 0.61329
 C420 C 0.56438 0.39084 0.59252
 C421 C 0.57825 0.37651 0.56890
 C422 C 0.61944 0.39095 0.56534
 C423 C 0.64643 0.41997 0.58602
 C424 C 0.63253 0.43412 0.60977
 H425 H 0.59983 0.52142 0.67661
 H426 H 0.49830 0.40148 0.68821
 H427 H 0.55665 0.35434 0.55327
 H428 H 0.67835 0.43154 0.58404
 H429 H 0.52398 0.37667 0.64801
 H430 H 0.53253 0.37964 0.59423
 H431 H 0.62494 0.49682 0.63564
 H432 H 0.65403 0.45593 0.62563
 C433 C 0.56487 0.14203 0.63880
 C434 C 0.59074 0.13207 0.65406
 C435 C 0.57638 0.10311 0.67720
 C436 C 0.53586 0.08365 0.68584
 C437 C 0.51006 0.09400 0.67097
 C438 C 0.52437 0.12277 0.64763
 C439 C 0.58003 0.17196 0.61353
 C440 C 0.56615 0.19928 0.60981
 C441 C 0.58049 0.22732 0.58597
 C442 C 0.60921 0.22883 0.56542
 C443 C 0.62309 0.20155 0.56916
 C444 C 0.60856 0.17336 0.59283
 H445 H 0.59710 0.09605 0.68839
 H446 H 0.47863 0.07939 0.67702
 H447 H 0.56936 0.24809 0.58384
 H448 H 0.64500 0.20170 0.55361
 H449 H 0.50352 0.12932 0.63609
 H450 H 0.54461 0.19939 0.62560
 H451 H 0.62225 0.14687 0.64827
 H452 H 0.61933 0.15229 0.59465
 C453 C 0.85845 0.42545 0.63894
 C454 C 0.87690 0.40343 0.64778
 C455 C 0.90572 0.41770 0.67094
 C456 C 0.91696 0.45447 0.68564
 C457 C 0.89843 0.47642 0.67693
 C458 C 0.86942 0.46201 0.65394
 C459 C 0.82823 0.41061 0.61400
 C460 C 0.82709 0.43774 0.59301
 C461 C 0.79887 0.42386 0.56946
 C462 C 0.77127 0.38247 0.56617
 C463 C 0.77236 0.35530 0.58714
 C464 C 0.80043 0.36923 0.61083
 H465 H 0.91960 0.40019 0.67703
 H466 H 0.90623 0.50472 0.68797
 H467 H 0.79900 0.44557 0.55360
 H468 H 0.75133 0.32325 0.58539
 H469 H 0.85531 0.47938 0.64809
 H470 H 0.84848 0.46973 0.59446
 H471 H 0.86961 0.37547 0.63641
 H472 H 0.80004 0.34759 0.62688
 C473 C 0.43120 0.57297 0.63927
 C474 C 0.41538 0.53127 0.64343
 C475 C 0.42977 0.51693 0.66665
 C476 C 0.46081 0.54392 0.68591
 C477 C 0.47676 0.58553 0.68182
 C478 C 0.46189 0.59988 0.65898
 C479 C 0.41609 0.58831 0.61435
 C480 C 0.44207 0.62461 0.59917
 C481 C 0.42797 0.63893 0.57575
 C482 C 0.38773 0.61695 0.56652
 C483 C 0.36172 0.58065 0.58149
 C484 C 0.37563 0.56668 0.60531
 H485 H 0.41715 0.48468 0.66913
 H486 H 0.50046 0.60702 0.69654
 H487 H 0.44878 0.66685 0.56442
 H488 H 0.33043 0.56331 0.57506
 H489 H 0.47426 0.63212 0.65700
 H490 H 0.47355 0.64172 0.60497
 H491 H 0.39235 0.50959 0.62841
 H492 H 0.35448 0.53911 0.61682
 C493 C 0.42486 0.85881 0.63929
 C494 C 0.40189 0.87541 0.64995
 C495 C 0.41616 0.90415 0.67334
 C496 C 0.45407 0.91746 0.68651
 C497 C 0.47697 0.90070 0.67586
 C498 C 0.46246 0.87164 0.65271
 C499 C 0.40988 0.82856 0.61410
 C500 C 0.43646 0.82851 0.59212
 C501 C 0.42251 0.80016 0.56848
 C502 C 0.38155 0.77145 0.56599
 C503 C 0.35488 0.77155 0.58780
 C504 C 0.36891 0.79963 0.61167
 H505 H 0.39759 0.91632 0.68073
 H506 H 0.50616 0.90982 0.68547
 H507 H 0.44380 0.80109 0.55191
 H508 H 0.32319 0.74960 0.58666
 H509 H 0.48064 0.85896 0.64553
 H510 H 0.46806 0.85079 0.59288
 H511 H 0.37310 0.86676 0.63984
 H512 H 0.34766 0.79829 0.62845
 C513 C 0.14062 0.56637 0.63911
 C514 C 0.12359 0.52643 0.64958
 C515 C 0.09497 0.51210 0.67292
 C516 C 0.08221 0.53719 0.68624
 C517 C 0.09937 0.57721 0.67576
 C518 C 0.12830 0.59162 0.65266
 C519 C 0.17077 0.58149 0.61398
 C520 C 0.17136 0.60863 0.59212
 C521 C 0.19955 0.62282 0.56851
 C522 C 0.22761 0.60986 0.56593
 C523 C 0.22701 0.58263 0.58766
 C524 C 0.19907 0.56878 0.61149
 H525 H 0.08249 0.48107 0.68017
 H526 H 0.09067 0.59766 0.68548
 H527 H 0.19902 0.64356 0.55202
 H528 H 0.24845 0.57234 0.58647
 H529 H 0.14129 0.62276 0.64561
 H530 H 0.14959 0.61851 0.59293
 H531 H 0.13183 0.50591 0.63938
 H532 H 0.20002 0.54848 0.62818
 C533 C 0.42961 0.57062 0.86107
 C534 C 0.46546 0.59733 0.84596
 C535 C 0.48052 0.58351 0.82282
 C536 C 0.45992 0.54271 0.81410
 C537 C 0.42389 0.51605 0.82896
 C538 C 0.40897 0.52982 0.85225
 C539 C 0.41398 0.58519 0.88607
 C540 C 0.37260 0.57002 0.88931
 C541 C 0.35792 0.58338 0.91303
 C542 C 0.38429 0.61242 0.93398
 C543 C 0.42568 0.62782 0.93063
 C544 C 0.44033 0.61426 0.90703
 H545 H 0.50823 0.60486 0.81167
 H546 H 0.40743 0.48439 0.82288
 H547 H 0.32588 0.57112 0.91482
 H548 H 0.44679 0.65008 0.94645
 H549 H 0.38161 0.50831 0.86372
 H550 H 0.35153 0.54812 0.87327
 H551 H 0.48175 0.62906 0.85180
 H552 H 0.47232 0.62610 0.90550
 C553 C 0.14212 0.56871 0.86047
 C554 C 0.12266 0.58985 0.85193
 C555 C 0.09397 0.57524 0.82870
 C556 C 0.08383 0.53898 0.81362
 C557 C 0.10326 0.51782 0.82210
 C558 C 0.13218 0.53258 0.84519
 C559 C 0.17238 0.58414 0.88540
 C560 C 0.17452 0.55744 0.90627
 C561 C 0.20258 0.57201 0.92995
 C562 C 0.22898 0.61365 0.93347
 C563 C 0.22697 0.64034 0.91254
 C564 C 0.19911 0.62575 0.88874
 H565 H 0.07936 0.59213 0.82284
 H566 H 0.09627 0.48990 0.81079
 H567 H 0.20322 0.55064 0.94575
 H568 H 0.24711 0.67257 0.91444
 H569 H 0.14703 0.51588 0.85086
 H570 H 0.15400 0.52527 0.90464
 H571 H 0.12909 0.61739 0.86355
 H572 H 0.19877 0.64710 0.87276
 C573 C 0.42714 0.85738 0.86078
 C574 C 0.40075 0.86678 0.84566
 C575 C 0.41463 0.89582 0.82255
 C576 C 0.45515 0.91592 0.81386
 C577 C 0.48147 0.90629 0.82875
 C578 C 0.46766 0.87747 0.85200
 C579 C 0.41258 0.82709 0.88580
 C580 C 0.42755 0.80062 0.88908
 C581 C 0.41435 0.77260 0.91290
 C582 C 0.38566 0.77022 0.93389
 C583 C 0.37044 0.79645 0.93048
 C584 C 0.38386 0.82464 0.90679
 H585 H 0.39355 0.90239 0.81138
 H586 H 0.51293 0.92141 0.82271
 H587 H 0.42643 0.75261 0.91473
 H588 H 0.34845 0.79553 0.94633
 H589 H 0.48893 0.87145 0.86349
 H590 H 0.44919 0.80123 0.87303
 H591 H 0.36924 0.85142 0.85150
 H592 H 0.37218 0.84499 0.90523
 C593 C 0.57521 0.43349 0.86084
 C594 C 0.59152 0.47523 0.85649
 C595 C 0.57755 0.48971 0.83306
 C596 C 0.54648 0.46281 0.81377
 C597 C 0.53020 0.42118 0.81796
 C598 C 0.54464 0.40670 0.84101
 C599 C 0.58955 0.41791 0.88612
 C600 C 0.56287 0.38186 0.90126
 C601 C 0.57620 0.36701 0.92482
 C602 C 0.61640 0.38820 0.93425
 C603 C 0.64309 0.42440 0.91945
 C604 C 0.62991 0.43892 0.89549
 H605 H 0.59044 0.52197 0.83048
 H606 H 0.50650 0.39975 0.80320
 H607 H 0.55484 0.33922 0.93601
 H608 H 0.67434 0.44118 0.92606
 H609 H 0.53196 0.37442 0.84310
 H610 H 0.53143 0.36528 0.89526
 H611 H 0.61456 0.49682 0.87157
 H612 H 0.65153 0.46635 0.88406
 C613 C 0.85944 0.42727 0.86103
 C614 C 0.86402 0.45809 0.84110
 C615 C 0.89293 0.47215 0.81799
 C616 C 0.91748 0.45524 0.81385
 C617 C 0.91257 0.42400 0.83330
 C618 C 0.88414 0.41041 0.85678
 C619 C 0.82938 0.41313 0.88626
 C620 C 0.80941 0.37254 0.89573
 C621 C 0.78164 0.35952 0.91966
 C622 C 0.77264 0.38657 0.93435
 C623 C 0.79221 0.42698 0.92479
 C624 C 0.82048 0.44018 0.90126
 H625 H 0.89579 0.49601 0.80313
 H626 H 0.93132 0.41063 0.83079
 H627 H 0.76672 0.32809 0.92634
 H628 H 0.78615 0.44862 0.93589
 H629 H 0.88213 0.38720 0.87195
 H630 H 0.81477 0.35060 0.88440
 H631 H 0.84502 0.47122 0.84311
 H632 H 0.83579 0.47180 0.89517
 C633 C 0.56766 0.14193 0.86107
 C634 C 0.59377 0.13767 0.84097
 C635 C 0.57876 0.10852 0.81790
 C636 C 0.53729 0.08341 0.81398
 C637 C 0.51109 0.08802 0.83360
 C638 C 0.52608 0.11669 0.85705
 C639 C 0.58373 0.17223 0.88627
 C640 C 0.56329 0.19209 0.89580
 C641 C 0.57816 0.22006 0.91972
 C642 C 0.61417 0.22936 0.93433
 C643 C 0.63487 0.20991 0.92469
 C644 C 0.61966 0.18143 0.90115
 H645 H 0.59967 0.10590 0.80289
 H646 H 0.47896 0.06883 0.83125
 H647 H 0.56178 0.23489 0.92648
 H648 H 0.66252 0.21620 0.93571
 H649 H 0.50501 0.11848 0.87236
 H650 H 0.53601 0.18647 0.88455
 H651 H 0.62589 0.15709 0.84283
 H652 H 0.63583 0.16621 0.89498
   
