data_POSCAR
  _audit_creation_date              2014-09-24
  _audit_creation_method            'ToBaCCo'
  _symmetry_space_group_name_H-M    'P1'
  _symmetry_Int_Tables_number       1
  _symmetry_cell_setting            triclinic
  loop_
  _symmetry_equiv_pos_as_xyz
 x,y,z
_cell_length_a 46.3633
_cell_length_b 46.2967
_cell_length_c 46.5312
_cell_angle_alpha 89.947100
_cell_angle_beta 89.960500
_cell_angle_gamma 89.954400
loop_
  _atom_site_label
  _atom_site_type_symbol
  _atom_site_fract_x
  _atom_site_fract_y
  _atom_site_fract_z
N1 N 0.28987 0.36763 1.35124
 N2 N 0.29167 0.34707 1.37070
 C3 C 0.26977 0.35003 1.38955
 C4 C 0.25368 0.37366 1.38131
 C5 C 0.26684 0.38440 1.35701
 H6 H 0.26590 0.33623 1.40792
 H7 H 0.26029 0.40306 1.34461
 Cu8 Cu 0.32258 0.31862 1.36965
 Cu9 Cu 0.31766 0.37133 1.32008
 Cu10 Cu 0.37227 0.32022 1.31689
 N11 N 0.35296 0.28969 1.36713
 N12 N 0.37232 0.29044 1.34645
 C13 C 0.39083 0.26826 1.34980
 C14 C 0.38251 0.25297 1.37381
 C15 C 0.35848 0.26693 1.38438
 H16 H 0.40903 0.26371 1.33595
 H17 H 0.34612 0.26103 1.40321
 N18 N 0.36858 0.35204 1.28896
 N19 N 0.34777 0.37151 1.29019
 C20 C 0.35114 0.39039 1.26838
 C21 C 0.37513 0.38232 1.25290
 C22 C 0.38575 0.35803 1.26634
 H23 H 0.33727 0.40867 1.26406
 H24 H 0.40457 0.34573 1.26009
 H25 H 0.32837 0.32790 1.31836
 H26 H 0.35180 0.35158 1.34092
 N27 N 1.21049 0.63335 0.85266
 N28 N 1.20880 0.65407 0.87193
 C29 C 1.23050 0.65097 0.89095
 C30 C 1.24642 0.62712 0.88304
 C31 C 1.23329 0.61639 0.85874
 H32 H 1.23445 0.66489 0.90918
 H33 H 1.23980 0.59764 0.84649
 Cu34 Cu 1.17828 0.68288 0.87029
 Cu35 Cu 1.18293 0.62977 0.82129
 Cu36 Cu 1.12834 0.68095 0.81796
 N37 N 1.14755 0.71145 0.86821
 N38 N 1.12811 0.71056 0.84763
 C39 C 1.10934 0.73249 0.85116
 C40 C 1.11759 0.74774 0.87517
 C41 C 1.14182 0.73402 0.88558
 H42 H 1.09108 0.73693 0.83739
 H43 H 1.15420 0.74000 0.90434
 N44 N 1.13223 0.64930 0.78994
 N45 N 1.15302 0.62980 0.79121
 C46 C 1.14976 0.61105 0.76931
 C47 C 1.12588 0.61926 0.75373
 C48 C 1.11522 0.64347 0.76721
 H49 H 1.16360 0.59275 0.76500
 H50 H 1.09643 0.65580 0.76093
 H51 H 1.17219 0.67309 0.81915
 H52 H 1.14888 0.64966 0.84213
 N53 N 0.70998 -0.13245 0.14771
 N54 N 0.70845 -0.15340 0.12867
 C55 C 0.73016 -0.15040 0.10961
 C56 C 0.74593 -0.12640 0.11728
 C57 C 0.73269 -0.11546 0.14145
 H58 H 0.73422 -0.16448 0.09152
 H59 H 0.73906 -0.09654 0.15350
 Cu60 Cu 0.67787 -0.18207 0.13065
 Cu61 Cu 0.68229 -0.12860 0.17903
 Cu62 Cu 0.62769 -0.17981 0.18261
 N63 N 0.64729 -0.21074 0.13265
 N64 N 0.62766 -0.20967 0.15308
 C65 C 0.60889 -0.23156 0.14952
 C66 C 0.61732 -0.24698 0.12564
 C67 C 0.64165 -0.23337 0.11533
 H68 H 0.59050 -0.23586 0.16319
 H69 H 0.65417 -0.23948 0.09667
 N70 N 0.63147 -0.14791 0.21042
 N71 N 0.65225 -0.12842 0.20905
 C72 C 0.64892 -0.10952 0.23081
 C73 C 0.62501 -0.11758 0.24642
 C74 C 0.61440 -0.14190 0.23310
 H75 H 0.66274 -0.09120 0.23500
 H76 H 0.59562 -0.15418 0.23946
 H77 H 0.67144 -0.17181 0.18161
 H78 H 0.64823 -0.14860 0.15835
 N79 N -0.21138 1.13148 -0.35208
 N80 N -0.20975 1.15228 -0.37131
 C81 C -0.23143 1.14922 -0.39034
 C82 C -0.24727 1.12532 -0.38248
 C83 C -0.23413 1.11450 -0.35820
 H84 H -0.23543 1.16320 -0.40853
 H85 H -0.24059 1.09570 -0.34597
 Cu86 Cu -0.17933 1.18114 -0.36959
 Cu87 Cu -0.18380 1.12781 -0.32072
 Cu88 Cu -0.12940 1.17910 -0.31729
 N89 N -0.14873 1.20979 -0.36746
 N90 N -0.12928 1.20886 -0.34689
 C91 C -0.11061 1.23086 -0.35037
 C92 C -0.11893 1.24620 -0.37435
 C93 C -0.14310 1.23245 -0.38478
 H94 H -0.09236 1.23529 -0.33659
 H95 H -0.15550 1.23846 -0.40354
 N96 N -0.13316 1.14731 -0.28934
 N97 N -0.15388 1.12777 -0.29064
 C98 C -0.15053 1.10892 -0.26880
 C99 C -0.12666 1.11709 -0.25323
 C100 C -0.11610 1.14140 -0.26664
 H101 H -0.16430 1.09057 -0.26455
 H102 H -0.09735 1.15373 -0.26035
 H103 H -0.17321 1.17112 -0.31849
 H104 H -0.14983 1.14784 -0.34154
 N105 N 0.71206 0.63156 0.64787
 N106 N 0.71048 0.65209 0.62836
 C107 C 0.73229 0.64880 0.60947
 C108 C 0.74815 0.62503 0.61773
 C109 C 0.73489 0.61453 0.64209
 H110 H 0.73635 0.66254 0.59111
 H111 H 0.74132 0.59590 0.65459
 Cu112 Cu 0.67995 0.68093 0.62956
 Cu113 Cu 0.68432 0.62829 0.67918
 Cu114 Cu 0.63016 0.67997 0.68204
 N115 N 0.64972 0.71003 0.63158
 N116 N 0.63031 0.70951 0.65223
 C117 C 0.61191 0.73174 0.64865
 C118 C 0.62032 0.74684 0.62455
 C119 C 0.64429 0.73266 0.61414
 H120 H 0.59375 0.73652 0.66246
 H121 H 0.65671 0.73839 0.59530
 N122 N 0.63362 0.64835 0.71022
 N123 N 0.65424 0.62866 0.70914
 C124 C 0.65071 0.61002 0.73112
 C125 C 0.62682 0.61848 0.74657
 C126 C 0.61644 0.64275 0.73293
 H127 H 0.66439 0.59163 0.73558
 H128 H 0.59775 0.65528 0.73909
 H129 H 0.65043 0.64816 0.65822
 H130 H 0.67399 0.67166 0.68080
 N131 N 0.78957 0.36916 0.14993
 N132 N 0.79119 0.34869 0.13039
 C133 C 0.76930 0.35194 0.11161
 C134 C 0.75337 0.37562 0.11995
 C135 C 0.76666 0.38611 0.14426
 H136 H 0.76525 0.33824 0.09324
 H137 H 0.76019 0.40469 0.15679
 Cu138 Cu 0.82180 0.31995 0.13138
 Cu139 Cu 0.81733 0.37242 0.18114
 Cu140 Cu 0.87157 0.32082 0.18389
 N141 N 0.85202 0.29084 0.13348
 N142 N 0.87143 0.29130 0.15409
 C143 C 0.88976 0.26901 0.15052
 C144 C 0.88129 0.25393 0.12646
 C145 C 0.85735 0.26818 0.11608
 H146 H 0.90789 0.26416 0.16432
 H147 H 0.84489 0.26247 0.09730
 N148 N 0.86808 0.35241 0.21207
 N149 N 0.84742 0.37206 0.21101
 C150 C 0.85095 0.39072 0.23294
 C151 C 0.87487 0.38232 0.24833
 C152 C 0.88529 0.35807 0.23471
 H153 H 0.83726 0.40910 0.23739
 H154 H 0.90404 0.34559 0.24084
 H155 H 0.85126 0.35265 0.16010
 H156 H 0.82771 0.32903 0.18265
 N157 N 0.28898 0.13241 0.85083
 N158 N 0.29058 0.15279 0.87047
 C159 C 0.26871 0.14947 0.88927
 C160 C 0.25279 0.12584 0.88084
 C161 C 0.26608 0.11545 0.85646
 H162 H 0.26464 0.16308 0.90770
 H163 H 0.25962 0.09695 0.84384
 Cu164 Cu 0.32122 0.18148 0.86955
 Cu165 Cu 0.31671 0.12926 0.81957
 Cu166 Cu 0.37096 0.18072 0.81693
 N167 N 0.35145 0.21055 0.86750
 N168 N 0.37085 0.21009 0.84685
 C169 C 0.38922 0.23230 0.85044
 C170 C 0.38079 0.24733 0.87456
 C171 C 0.35683 0.23313 0.88495
 H172 H 0.40735 0.23714 0.83662
 H173 H 0.34438 0.23884 0.90377
 N174 N 0.36744 0.14930 0.78862
 N175 N 0.34676 0.12970 0.78962
 C176 C 0.35027 0.11111 0.76763
 C177 C 0.37421 0.11951 0.75225
 C178 C 0.38466 0.14368 0.76594
 H179 H 0.33658 0.09277 0.76315
 H180 H 0.40344 0.15611 0.75987
 H181 H 0.35067 0.14886 0.84065
 H182 H 0.32712 0.17263 0.81825
 N183 N 0.20990 0.86719 0.35133
 N184 N 0.20825 0.84674 0.37092
 C185 C 0.23013 0.84996 0.38972
 C186 C 0.24610 0.87360 0.38131
 C187 C 0.23283 0.88409 0.35697
 H188 H 0.23415 0.83627 0.40813
 H189 H 0.23932 0.90263 0.34438
 Cu190 Cu 0.17757 0.81811 0.36998
 Cu191 Cu 0.18220 0.87050 0.32007
 Cu192 Cu 0.12787 0.81911 0.31739
 N193 N 0.14728 0.78910 0.36791
 N194 N 0.12791 0.78966 0.34727
 C195 C 0.10950 0.76746 0.35084
 C196 C 0.11787 0.75234 0.37493
 C197 C 0.14184 0.76647 0.38533
 H198 H 0.09138 0.76268 0.33700
 H199 H 0.15427 0.76068 0.40414
 N200 N 0.13146 0.85061 0.28912
 N201 N 0.15215 0.87020 0.29014
 C202 C 0.14868 0.88884 0.26816
 C203 C 0.12475 0.88049 0.25277
 C204 C 0.11428 0.85630 0.26645
 H205 H 0.16239 0.90718 0.26367
 H206 H 0.09550 0.84389 0.26036
 H207 H 0.14820 0.85087 0.34113
 H208 H 0.17174 0.82714 0.31869
 Zn209 Zn 0.03581 0.98469 0.00253
 Zn210 Zn -0.02317 0.97695 -0.02288
 Zn211 Zn -0.01612 1.00233 0.03602
 Zn212 Zn 0.00176 1.03627 -0.01546
 O213 O -0.00048 1.00002 0.00001
 O214 O 0.03938 0.95203 -0.01747
 O215 O -0.05418 0.96305 -0.00416
 O216 O 0.00730 0.98865 0.06345
 O217 O -0.00407 0.94598 -0.03642
 O218 O 0.04593 0.97562 0.03856
 O219 O -0.04865 0.98201 0.03924
 O220 O -0.01210 1.06371 0.00791
 O221 O -0.03688 0.99576 -0.05386
 O222 O -0.02538 1.03847 0.04617
 O223 O -0.01835 1.03951 -0.04800
 O224 O 0.03787 1.04662 -0.02451
 O225 O 0.06318 1.00830 -0.01111
 C226 C 0.02181 0.93784 -0.03275
 C227 C -0.06255 0.96658 0.02157
 C228 C 0.03241 0.97790 0.06212
 C229 C -0.02301 1.06223 0.03284
 C230 C -0.03349 1.02168 -0.06206
 C231 C 0.06164 1.03333 -0.02203
 Zn232 Zn 0.49706 -0.03608 0.48394
 Zn233 Zn 0.51489 -0.00227 0.53542
 Zn234 Zn 0.52203 0.02325 0.47654
 Zn235 Zn 0.46302 0.01550 0.50193
 O236 O 0.49929 0.00015 0.49941
 O237 O 0.51108 -0.06356 0.50722
 O238 O 0.54741 0.01803 0.53863
 O239 O 0.53570 0.00452 0.44551
 O240 O 0.52425 -0.03841 0.54551
 O241 O 0.51708 -0.03920 0.45132
 O242 O 0.55307 0.03703 0.49523
 O243 O 0.45948 0.04823 0.48191
 O244 O 0.49144 0.01132 0.56287
 O245 O 0.50300 0.05430 0.46305
 O246 O 0.45289 0.02452 0.53797
 O247 O 0.43564 -0.00813 0.48836
 O248 O 0.46096 -0.04647 0.47505
 C249 C 0.52202 -0.06212 0.53213
 C250 C 0.56139 0.03343 0.52095
 C251 C 0.53223 -0.02135 0.43726
 C252 C 0.47713 0.06246 0.46669
 C253 C 0.46636 0.02214 0.56154
 C254 C 0.43718 -0.03319 0.47754
 Zn255 Zn 1.00439 0.46155 0.48609
 Zn256 Zn 1.03819 0.51323 0.50404
 Zn257 Zn 0.97918 0.52079 0.47867
 Zn258 Zn 0.98635 0.49541 0.53757
 O259 O 1.00199 0.49778 0.50155
 O260 O 1.04057 0.45128 0.47711
 O261 O 1.04162 0.54589 0.48392
 O262 O 0.96552 0.50198 0.44776
 O263 O 1.06568 0.48969 0.49047
 O264 O 0.98433 0.45830 0.45352
 O265 O 0.99812 0.55178 0.46501
 O266 O 0.95376 0.51570 0.54079
 O267 O 1.04823 0.52239 0.54007
 O268 O 0.94816 0.53464 0.49737
 O269 O 1.00971 0.50912 0.56501
 O270 O 0.97709 0.45924 0.54766
 O271 O 0.99048 0.43407 0.50941
 C272 C 1.06427 0.46466 0.47957
 C273 C 1.02396 0.55999 0.46860
 C274 C 0.96906 0.47611 0.43951
 C275 C 0.93981 0.53111 0.52309
 C276 C 1.03473 0.52004 0.56364
 C277 C 0.97945 0.43552 0.53430
 Zn278 Zn 0.53656 0.51621 0.99731
 Zn279 Zn 0.50262 0.46456 1.01518
 Zn280 Zn 0.47756 0.52385 1.02278
 Zn281 Zn 0.48471 0.49862 0.96379
 O282 O 0.50032 0.50086 0.99981
 O283 O 0.56394 0.49259 1.01095
 O284 O 0.48252 0.46123 1.04772
 O285 O 0.49661 0.55478 1.03644
 O286 O 0.53872 0.45418 1.02418
 O287 O 0.54006 0.54885 1.01738
 O288 O 0.46385 0.50492 1.05371
 O289 O 0.45220 0.51903 0.96063
 O290 O 0.48874 0.43718 0.99181
 O291 O 0.44655 0.53779 1.00411
 O292 O 0.47537 0.46251 0.95365
 O293 O 0.50820 0.51221 0.93635
 O294 O 0.54675 0.52525 0.96127
 C295 C 0.56245 0.46752 1.02179
 C296 C 0.46731 0.47898 1.06184
 C297 C 0.52246 0.56296 1.03277
 C298 C 0.43823 0.53436 0.97837
 C299 C 0.47774 0.43873 0.96694
 C300 C 0.53331 0.52292 0.93768
 C301 C 1.16129 0.41180 0.46139
 C302 C 1.16097 0.38865 0.43734
 C303 C 1.18343 0.40636 0.42063
 C304 C 1.18417 0.42931 0.44444
 C305 C 1.13740 0.42833 0.44546
 C306 C 1.15988 0.44601 0.42873
 C307 C 1.13667 0.40538 0.42163
 C308 C 1.15953 0.42289 0.40472
 C309 C 1.20902 0.39432 0.40654
 C310 C 1.23001 0.38455 0.39475
 C311 C 1.11158 0.44086 0.45868
 C312 C 1.09011 0.45151 0.46874
 H313 H 1.16173 0.40741 0.48484
 H314 H 1.16173 0.36492 0.44068
 H315 H 1.20403 0.43898 0.45361
 H316 H 1.15918 0.46974 0.42537
 H317 H 1.11683 0.39568 0.41243
 H318 H 1.15907 0.42732 0.38127
 C319 C 0.33762 0.55436 0.93864
 C320 C 0.31849 0.57834 0.95195
 C321 C 0.31821 0.59391 0.92277
 C322 C 0.33694 0.57012 0.90929
 C323 C 0.36456 0.57181 0.94686
 C324 C 0.36424 0.58738 0.91769
 C325 C 0.34586 0.59560 0.96039
 C326 C 0.34514 0.61137 0.93098
 C327 C 0.29252 0.60597 0.90892
 C328 C 0.27146 0.61570 0.89722
 C329 C 0.39059 0.55907 0.95942
 C330 C 0.41224 0.54808 0.96871
 H331 H 0.33482 0.53078 0.94196
 H332 H 0.29935 0.57475 0.96584
 H333 H 0.33302 0.55978 0.88814
 H334 H 0.38336 0.59097 0.90376
 H335 H 0.34982 0.60591 0.98155
 H336 H 0.34792 0.63495 0.92764
 C337 C -0.13586 0.91031 0.08053
 C338 C -0.16172 0.92792 0.09220
 C339 C -0.18237 0.90676 0.07733
 C340 C -0.15688 0.88894 0.06585
 C341 C -0.13609 0.92895 0.05320
 C342 C -0.15671 0.90779 0.03828
 C343 C -0.16159 0.94675 0.06469
 C344 C -0.18264 0.92540 0.04999
 C345 C -0.20801 0.89466 0.09126
 C346 C -0.22904 0.88495 0.10303
 C347 C -0.11009 0.94176 0.04062
 C348 C -0.08849 0.95280 0.03130
 H349 H -0.11633 0.90423 0.09294
 H350 H -0.16404 0.93607 0.11451
 H351 H -0.15525 0.86502 0.06652
 H352 H -0.15432 0.89966 0.01597
 H353 H -0.16323 0.97067 0.06406
 H354 H -0.20218 0.93148 0.03760
 C355 C 0.66552 0.05809 0.54971
 C356 C 0.67712 0.08910 0.54479
 C357 C 0.68113 0.09236 0.57740
 C358 C 0.66994 0.06156 0.58252
 C359 C 0.63495 0.07052 0.55289
 C360 C 0.63901 0.07380 0.58550
 C361 C 0.64611 0.10133 0.54775
 C362 C 0.65056 0.10478 0.58058
 C363 C 0.70675 0.10429 0.59145
 C364 C 0.72774 0.11394 0.60327
 C365 C 0.60898 0.05792 0.54012
 C366 C 0.58737 0.04704 0.53070
 H367 H 0.67137 0.03878 0.53685
 H368 H 0.69314 0.09555 0.52824
 H369 H 0.67999 0.04535 0.59698
 H370 H 0.62303 0.06736 0.60209
 H371 H 0.63601 0.11751 0.53329
 H372 H 0.64471 0.12409 0.59346
 C373 C 0.45820 0.15420 0.40520
 C374 C 0.42826 0.15504 0.39040
 C375 C 0.42091 0.18253 0.40738
 C376 C 0.45063 0.18213 0.42198
 C377 C 0.44507 0.13625 0.42970
 C378 C 0.43771 0.16374 0.44667
 C379 C 0.41536 0.13668 0.41510
 C380 C 0.40782 0.16455 0.43188
 C381 C 0.40715 0.20821 0.39510
 C382 C 0.39561 0.22926 0.38508
 C383 C 0.45776 0.11022 0.44243
 C384 C 0.46721 0.08854 0.45327
 H385 H 0.47907 0.14969 0.39440
 H386 H 0.42418 0.15173 0.36712
 H387 H 0.46490 0.20117 0.42466
 H388 H 0.44177 0.16706 0.46994
 H389 H 0.40101 0.11768 0.41243
 H390 H 0.38695 0.16910 0.44269
 C391 C 0.94814 0.35259 0.60165
 C392 C 0.91515 0.34745 0.60318
 C393 C 0.91986 0.31648 0.59232
 C394 C 0.95263 0.32119 0.59098
 C395 C 0.94478 0.36247 0.57031
 C396 C 0.94947 0.33150 0.55943
 C397 C 0.91200 0.35773 0.57166
 C398 C 0.91649 0.32637 0.56098
 C399 C 0.90582 0.29091 0.60448
 C400 C 0.89419 0.26990 0.61444
 C401 C 0.95812 0.38827 0.55784
 C402 C 0.96835 0.40972 0.54729
 H403 H 0.96131 0.36365 0.61823
 H404 H 0.90085 0.35371 0.62128
 H405 H 0.96914 0.30584 0.59907
 H406 H 0.96374 0.32523 0.54131
 H407 H 0.89545 0.37304 0.56357
 H408 H 0.90329 0.31531 0.54442
 C409 C 0.08255 0.86445 -0.08679
 C410 C 0.09303 0.83795 -0.06936
 C411 C 0.07879 0.81803 -0.09157
 C412 C 0.06850 0.84415 -0.10921
 C413 C 0.05428 0.86423 -0.06954
 C414 C 0.04000 0.84433 -0.09176
 C415 C 0.06458 0.83811 -0.05192
 C416 C 0.05052 0.81778 -0.07433
 C417 C 0.09275 0.79242 -0.10370
 C418 C 0.10440 0.77141 -0.11362
 C419 C 0.04141 0.89021 -0.05696
 C420 C 0.03183 0.91183 -0.04618
 H421 H 0.09556 0.88394 -0.09177
 H422 H 0.11499 0.83503 -0.06030
 H423 H 0.07031 0.84634 -0.13290
 H424 H 0.01804 0.84725 -0.10081
 H425 H 0.06279 0.83591 -0.02823
 H426 H 0.03755 0.79826 -0.06934
 C427 C 0.58657 0.63849 1.07872
 C428 C 0.58832 0.66840 1.06392
 C429 C 0.57891 0.68263 1.09222
 C430 C 0.57735 0.65310 1.10721
 C431 C 0.55468 0.63642 1.07000
 C432 C 0.54524 0.65064 1.09830
 C433 C 0.55624 0.66596 1.05500
 C434 C 0.54701 0.68061 1.08350
 C435 C 0.59272 0.70826 1.10448
 C436 C 0.60424 0.72930 1.11446
 C437 C 0.54195 0.61046 1.05727
 C438 C 0.53244 0.58888 1.04636
 H439 H 0.60269 0.62087 1.07663
 H440 H 0.60620 0.67596 1.04993
 H441 H 0.58624 0.64812 1.12880
 H442 H 0.52739 0.64304 1.11229
 H443 H 0.54739 0.67093 1.03339
 H444 H 0.53092 0.69825 1.08560
 C445 C 0.41728 0.41620 1.13595
 C446 C 0.43402 0.41004 1.16407
 C447 C 0.40846 0.42212 1.18133
 C448 C 0.39153 0.42808 1.15357
 C449 C 0.43032 0.44669 1.13521
 C450 C 0.40477 0.45880 1.15244
 C451 C 0.44726 0.44072 1.16297
 C452 C 0.42151 0.45262 1.18062
 C453 C 0.39646 0.40810 1.20691
 C454 C 0.38670 0.39637 1.22790
 C455 C 0.44290 0.45955 1.10930
 C456 C 0.45375 0.46908 1.08775
 H457 H 0.41566 0.40138 1.11728
 H458 H 0.44592 0.38985 1.16910
 H459 H 0.36848 0.42268 1.14999
 H460 H 0.39289 0.47900 1.14735
 H461 H 0.47031 0.44610 1.16653
 H462 H 0.42313 0.46742 1.19931
 C463 C 0.59384 -0.07558 0.36426
 C464 C 0.57683 -0.09415 0.34243
 C465 C 0.59146 -0.07764 0.31776
 C466 C 0.60867 -0.05925 0.33921
 C467 C 0.56936 -0.05319 0.36380
 C468 C 0.58398 -0.03664 0.33916
 C469 C 0.55217 -0.07159 0.34233
 C470 C 0.56697 -0.05526 0.31728
 C471 C 0.60356 -0.09165 0.29224
 C472 C 0.61339 -0.10342 0.27132
 C473 C 0.55666 -0.04046 0.38970
 C474 C 0.54577 -0.03107 0.41128
 H475 H 0.60476 -0.08376 0.38387
 H476 H 0.57400 -0.11793 0.34351
 H477 H 0.63206 -0.05438 0.33761
 H478 H 0.58677 -0.01285 0.33810
 H479 H 0.52878 -0.07648 0.34389
 H480 H 0.55606 -0.04711 0.29765
 C481 C -0.10300 1.05995 -0.13959
 C482 C -0.09508 1.09031 -0.15118
 C483 C -0.09298 1.07766 -0.18162
 C484 C -0.10110 1.04750 -0.17045
 C485 C -0.07076 1.05349 -0.13548
 C486 C -0.06863 1.04082 -0.16592
 C487 C -0.06267 1.08365 -0.14670
 C488 C -0.06074 1.07120 -0.17750
 C489 C -0.10517 1.09147 -0.20723
 C490 C -0.11504 1.10308 -0.22823
 C491 C -0.05801 1.04085 -0.10956
 C492 C -0.04707 1.03146 -0.08799
 H493 H -0.12023 1.05516 -0.12371
 H494 H -0.10605 1.11082 -0.14540
 H495 H -0.11707 1.03283 -0.18055
 H496 H -0.05764 1.02032 -0.17170
 H497 H -0.04672 1.09838 -0.13664
 H498 H -0.04351 1.07603 -0.19337
 C499 C 1.05417 0.57585 0.65581
 C500 C 1.06589 0.55972 0.68255
 C501 C 1.09245 0.57954 0.68230
 C502 C 1.08090 0.59588 0.65595
 C503 C 1.07063 0.55460 0.63645
 C504 C 1.09718 0.57444 0.63621
 C505 C 1.08216 0.53825 0.66279
 C506 C 1.10892 0.55830 0.66295
 C507 C 1.10449 0.59361 0.70779
 C508 C 1.11430 0.60529 0.72874
 C509 C 1.05823 0.54127 0.61073
 C510 C 1.04771 0.53107 0.58935
 H511 H 1.03151 0.58292 0.65260
 H512 H 1.05315 0.55389 0.70191
 H513 H 1.08051 0.61972 0.65343
 H514 H 1.10992 0.58033 0.61686
 H515 H 1.08254 0.51441 0.66531
 H516 H 1.13159 0.55129 0.66620
 C517 C 0.85826 0.60108 0.55332
 C518 C 0.82674 0.59257 0.54611
 C519 C 0.82000 0.59138 0.57843
 C520 C 0.85108 0.60010 0.58583
 C521 C 0.86625 0.56889 0.55452
 C522 C 0.85946 0.56774 0.58683
 C523 C 0.83517 0.56016 0.54711
 C524 C 0.82802 0.55921 0.57962
 C525 C 0.79432 0.60362 0.59218
 C526 C 0.77325 0.61347 0.60375
 C527 C 0.89223 0.55595 0.54204
 C528 C 0.91384 0.54486 0.53278
 H529 H 0.87098 0.61813 0.54233
 H530 H 0.81295 0.60294 0.52956
 H531 H 0.85732 0.61664 0.60192
 H532 H 0.87321 0.55738 0.60343
 H533 H 0.82893 0.54362 0.53102
 H534 H 0.81531 0.54214 0.59061
 C535 C 0.66033 0.41631 1.03951
 C536 C 0.68214 0.43344 1.05810
 C537 C 0.68155 0.40900 1.08045
 C538 C 0.66017 0.39166 1.06209
 C539 C 0.63548 0.43098 1.05576
 C540 C 0.63490 0.40654 1.07812
 C541 C 0.65688 0.44829 1.07413
 C542 C 0.65668 0.42368 1.09668
 C543 C 0.70718 0.39694 1.09442
 C544 C 0.72825 0.38716 1.10603
 C545 C 0.60966 0.44355 1.04262
 C546 C 0.58821 0.45427 1.03261
 H547 H 0.66152 0.41343 1.01586
 H548 H 0.70187 0.44436 1.05007
 H549 H 0.66183 0.36823 1.05735
 H550 H 0.61517 0.39563 1.08618
 H551 H 0.65524 0.47172 1.07891
 H552 H 0.65546 0.42658 1.12032
 C553 C 0.13426 1.08988 -0.08213
 C554 C 0.15612 1.11012 -0.06708
 C555 C 0.18091 1.09227 -0.07995
 C556 C 0.15943 1.07223 -0.09520
 C557 C 0.13475 1.07005 -0.05564
 C558 C 0.15954 1.05222 -0.06853
 C559 C 0.15621 1.09008 -0.04036
 C560 C 0.18142 1.07244 -0.05346
 C561 C 0.20656 1.10443 -0.09376
 C562 C 0.22765 1.11426 -0.10530
 C563 C 0.10888 1.05738 -0.04269
 C564 C 0.08741 1.04661 -0.03279
 H565 H 0.11456 1.09692 -0.09377
 H566 H 0.15504 1.13407 -0.06667
 H567 H 0.16103 1.06505 -0.11790
 H568 H 0.16068 1.02827 -0.06897
 H569 H 0.15458 1.09726 -0.01766
 H570 H 0.20114 1.06543 -0.04187
 C571 C 0.33736 -0.05288 0.43532
 C572 C 0.33698 -0.06941 0.40641
 C573 C 0.31799 -0.09273 0.42031
 C574 C 0.31796 -0.07640 0.44904
 C575 C 0.36411 -0.07025 0.44436
 C576 C 0.34514 -0.09358 0.45830
 C577 C 0.36411 -0.08659 0.41563
 C578 C 0.34473 -0.11012 0.42934
 C579 C 0.29233 -0.10500 0.40663
 C580 C 0.27124 -0.11487 0.39516
 C581 C 0.38996 -0.05742 0.45715
 C582 C 0.41141 -0.04654 0.46692
 H583 H 0.33461 -0.02921 0.43794
 H584 H 0.33336 -0.05962 0.38493
 H585 H 0.29866 -0.07236 0.46259
 H586 H 0.34879 -0.10336 0.47978
 H587 H 0.38339 -0.09064 0.40205
 H588 H 0.34746 -0.13379 0.42669
 C589 C 0.56019 -0.14073 0.60068
 C590 C 0.54994 -0.17226 0.59612
 C591 C 0.58132 -0.18127 0.59039
 C592 C 0.59178 -0.15016 0.59514
 C593 C 0.55653 -0.13520 0.56833
 C594 C 0.58791 -0.14424 0.56261
 C595 C 0.54607 -0.16631 0.56356
 C596 C 0.57766 -0.17572 0.55804
 C597 C 0.59524 -0.20690 0.60260
 C598 C 0.60671 -0.22800 0.61260
 C599 C 0.54327 -0.10938 0.55579
 C600 C 0.53309 -0.08792 0.54517
 H601 H 0.55285 -0.12606 0.61807
 H602 H 0.53452 -0.18411 0.61006
 H603 H 0.61076 -0.14383 0.60823
 H604 H 0.60337 -0.13241 0.54869
 H605 H 0.52711 -0.17264 0.55045
 H606 H 0.58505 -0.19038 0.54065
 C607 C 1.08454 0.63402 0.41513
 C608 C 1.07070 0.65332 0.39168
 C609 C 1.07944 0.68016 0.40900
 C610 C 1.09346 0.66124 0.43225
 C611 C 1.05562 0.63372 0.43129
 C612 C 1.06436 0.66057 0.44860
 C613 C 1.04157 0.65262 0.40804
 C614 C 1.05052 0.67990 0.42515
 C615 C 1.09301 0.70595 0.39676
 C616 C 1.10434 0.72712 0.38679
 C617 C 1.04313 0.60765 0.44407
 C618 C 1.03380 0.58599 0.45501
 H619 H 1.09836 0.61484 0.41115
 H620 H 1.07350 0.65064 0.36814
 H621 H 1.11493 0.66506 0.44206
 H622 H 1.06158 0.66325 0.47214
 H623 H 1.02009 0.64877 0.39824
 H624 H 1.03672 0.69908 0.42914
 C625 C -0.06617 1.13805 0.10102
 C626 C -0.05202 1.16834 0.10246
 C627 C -0.08048 1.18177 0.09204
 C628 C -0.09482 1.15189 0.09080
 C629 C -0.05650 1.13550 0.06954
 C630 C -0.08496 1.14895 0.05913
 C631 C -0.04215 1.16537 0.07076
 C632 C -0.07082 1.17921 0.06055
 C633 C -0.09402 1.20751 0.10443
 C634 C -0.10526 1.22868 0.11452
 C635 C -0.04368 1.10958 0.05678
 C636 C -0.03382 1.08807 0.04601
 H637 H -0.06409 1.12083 0.11750
 H638 H -0.03866 1.17662 0.12044
 H639 H -0.11663 1.14664 0.09915
 H640 H -0.09834 1.14068 0.04116
 H641 H -0.02035 1.17061 0.06238
 H642 H -0.07292 1.19642 0.04406
 C643 C 0.46026 0.33867 0.92059
 C644 C 0.43779 0.31939 0.93612
 C645 C 0.41934 0.31932 0.90871
 C646 C 0.44158 0.33819 0.89297
 C647 C 0.44371 0.36556 0.93072
 C648 C 0.42524 0.36548 0.90331
 C649 C 0.42146 0.34669 0.94644
 C650 C 0.40281 0.34622 0.91885
 C651 C 0.40563 0.29362 0.89650
 C652 C 0.39429 0.27250 0.88649
 C653 C 0.45675 0.39147 0.94322
 C654 C 0.46678 0.41295 0.95384
 H655 H 0.48402 0.33587 0.92145
 H656 H 0.44274 0.30014 0.94948
 H657 H 0.44965 0.33438 0.87083
 H658 H 0.42025 0.38473 0.88997
 H659 H 0.41336 0.35049 0.96857
 H660 H 0.37904 0.34903 0.91802
 C661 C 0.60148 0.55178 0.85469
 C662 C 0.59065 0.54704 0.82354
 C663 C 0.59259 0.57976 0.81830
 C664 C 0.60362 0.58470 0.84903
 C665 C 0.57011 0.55594 0.86450
 C666 C 0.57207 0.58865 0.85923
 C667 C 0.55907 0.55099 0.83378
 C668 C 0.56122 0.58390 0.82813
 C669 C 0.60497 0.59335 0.79267
 C670 C 0.61501 0.60474 0.77163
 C671 C 0.55734 0.54325 0.89040
 C672 C 0.54654 0.53353 0.91189
 H673 H 0.61788 0.53842 0.86591
 H674 H 0.59842 0.53011 0.80854
 H675 H 0.62207 0.59874 0.85500
 H676 H 0.56428 0.60562 0.87419
 H677 H 0.54061 0.53697 0.82781
 H678 H 0.54481 0.59725 0.81692
 C679 C 0.40675 0.04214 0.65365
 C680 C 0.42410 0.05126 0.68062
 C681 C 0.40807 0.08032 0.68066
 C682 C 0.39052 0.07142 0.65411
 C683 C 0.43010 0.05586 0.63461
 C684 C 0.41407 0.08492 0.63467
 C685 C 0.44764 0.06476 0.66116
 C686 C 0.43142 0.09402 0.66160
 C687 C 0.39593 0.09418 0.70623
 C688 C 0.38600 0.10572 0.72723
 C689 C 0.44262 0.04284 0.60877
 C690 C 0.45325 0.03291 0.58731
 H691 H 0.39676 0.02066 0.65008
 H692 H 0.42808 0.03760 0.69984
 H693 H 0.36690 0.07436 0.65150
 H694 H 0.41008 0.09860 0.61547
 H695 H 0.47126 0.06186 0.66377
 H696 H 0.44142 0.11550 0.66514
 C697 C 0.05177 0.92497 0.15617
 C698 C 0.07706 0.90312 0.15617
 C699 C 0.09085 0.91971 0.18120
 C700 C 0.06574 0.94137 0.18160
 C701 C 0.06875 0.94413 0.13516
 C702 C 0.08253 0.96075 0.16018
 C703 C 0.09386 0.92246 0.13477
 C704 C 0.10785 0.93886 0.16020
 C705 C 0.10304 0.90587 0.20677
 C706 C 0.11298 0.89433 0.22776
 C707 C 0.05618 0.95715 0.10933
 C708 C 0.04552 0.96710 0.08789
 H709 H 0.02856 0.91942 0.15423
 H710 H 0.07494 0.87928 0.15481
 H711 H 0.05431 0.94896 0.20117
 H712 H 0.08463 0.98459 0.16153
 H713 H 0.10529 0.91484 0.11522
 H714 H 0.13106 0.94438 0.16217
 C715 C 0.93571 0.41308 0.35729
 C716 C 0.90303 0.41102 0.35081
 C717 C 0.90899 0.42114 0.31993
 C718 C 0.94149 0.42302 0.32604
 C719 C 0.93155 0.44480 0.36610
 C720 C 0.93753 0.45494 0.33522
 C721 C 0.89904 0.44293 0.36001
 C722 C 0.90480 0.45286 0.32869
 C723 C 0.89665 0.40756 0.29432
 C724 C 0.88666 0.39611 0.27332
 C725 C 0.94445 0.45717 0.39204
 C726 C 0.95546 0.46639 0.41360
 H727 H 0.94858 0.39687 0.36933
 H728 H 0.88874 0.39280 0.35693
 H729 H 0.95880 0.41466 0.31179
 H730 H 0.95184 0.47315 0.32910
 H731 H 0.88174 0.45129 0.37426
 H732 H 0.89193 0.46904 0.31660
   
