data_POSCAR
  _audit_creation_date              2014-09-24
  _audit_creation_method            'ToBaCCo'
  _symmetry_space_group_name_H-M    'P1'
  _symmetry_Int_Tables_number       1
  _symmetry_cell_setting            triclinic
  loop_
  _symmetry_equiv_pos_as_xyz
 x,y,z
_cell_length_a 46.6185
_cell_length_b 49.1344
_cell_length_c 48.1763
_cell_angle_alpha 90.041800
_cell_angle_beta 89.973300
_cell_angle_gamma 90.013200
loop_
  _atom_site_label
  _atom_site_type_symbol
  _atom_site_fract_x
  _atom_site_fract_y
  _atom_site_fract_z
O1 O 0.34973 0.38520 0.02714
 O2 O 0.38516 0.34616 -0.02849
 O3 O 0.34747 0.38543 -0.02687
 O4 O 0.38703 0.34557 0.02544
 O5 O 0.35080 0.31677 0.02807
 O6 O 0.31348 0.35426 -0.02725
 O7 O 0.35119 0.31498 -0.02579
 O8 O 0.31358 0.35621 0.02656
 Cu9 Cu 0.37087 0.36863 -0.00080
 Cu10 Cu 0.32875 0.33254 0.00047
 C11 C 0.32533 0.37763 0.03600
 C12 C 0.37453 0.32358 -0.03621
 C13 C 0.32371 0.37658 -0.03620
 C14 C 0.37554 0.32446 0.03585
 O15 O 0.65049 0.61417 0.02801
 O16 O 0.61424 0.65363 -0.02668
 O17 O 0.65166 0.61396 -0.02573
 O18 O 0.61320 0.65388 0.02738
 O19 O 0.64844 0.68384 0.02772
 O20 O 0.68685 0.64390 -0.02505
 O21 O 0.64969 0.68337 -0.02627
 O22 O 0.68539 0.64453 0.02906
 Cu23 Cu 0.62882 0.63093 0.00067
 Cu24 Cu 0.67113 0.66689 0.00137
 C25 C 0.67412 0.62264 0.03788
 C26 C 0.62577 0.67528 -0.03582
 C27 C 0.67600 0.62198 -0.03439
 C28 C 0.62428 0.67572 0.03663
 O29 O 0.65117 0.38252 0.97342
 O30 O 0.61379 0.34486 1.02877
 O31 O 0.65206 0.38376 1.02753
 O32 O 0.61327 0.34358 0.97486
 O33 O 0.64840 0.31352 0.97466
 O34 O 0.68609 0.35266 1.02850
 O35 O 0.64825 0.31410 1.02865
 O36 O 0.68640 0.35256 0.97464
 Cu37 Cu 0.62910 0.36677 1.00112
 Cu38 Cu 0.67075 0.33015 1.00157
 C39 C 0.67534 0.37410 0.96477
 C40 C 0.62455 0.32292 1.03804
 C41 C 0.67572 0.37502 1.03719
 C42 C 0.62424 0.32165 0.96573
 O43 O 0.34919 0.61573 0.97054
 O44 O 0.38667 0.65421 1.02532
 O45 O 0.34855 0.61502 1.02483
 O46 O 0.38729 0.65468 0.97182
 O47 O 0.35194 0.68455 0.97106
 O48 O 0.31438 0.64597 1.02560
 O49 O 0.35199 0.68479 1.02515
 O50 O 0.31383 0.64556 0.97165
 Cu51 Cu 0.37133 0.63175 0.99812
 Cu52 Cu 0.32954 0.66824 0.99829
 C53 C 0.32495 0.62398 0.96190
 C54 C 0.37588 0.67626 1.03432
 C55 C 0.32491 0.62379 1.03453
 C56 C 0.37629 0.67648 0.96251
 O57 O -0.02506 0.38585 0.34889
 O58 O 0.02916 0.34775 0.38841
 O59 O 0.03068 0.38589 0.35047
 O60 O -0.02635 0.34720 0.38619
 O61 O -0.02485 0.31619 0.35316
 O62 O 0.03187 0.35468 0.31756
 O63 O 0.03095 0.31687 0.35517
 O64 O -0.02384 0.35462 0.31601
 Cu65 Cu 0.00197 0.36982 0.37179
 Cu66 Cu 0.00365 0.33247 0.33218
 C67 C -0.03367 0.37682 0.32564
 C68 C 0.03923 0.32575 0.37860
 C69 C 0.04093 0.37690 0.32778
 C70 C -0.03525 0.32489 0.37589
 O71 O 0.02655 0.65173 0.61303
 O72 O -0.02929 0.61331 0.65039
 O73 O -0.02916 0.65207 0.61302
 O74 O 0.02675 0.61359 0.65061
 O75 O 0.02580 0.64426 0.68408
 O76 O -0.02913 0.68290 0.64626
 O77 O -0.02972 0.64465 0.68319
 O78 O 0.02674 0.68242 0.64647
 Cu79 Cu -0.00131 0.62953 0.62845
 Cu80 Cu -0.00153 0.66668 0.66827
 C81 C 0.03618 0.67369 0.62338
 C82 C -0.03906 0.62243 0.67320
 C83 C -0.03865 0.67423 0.62317
 C84 C 0.03564 0.62230 0.67393
 O85 O 1.02812 0.61380 0.34916
 O86 O 0.97309 0.65268 0.38712
 O87 O 0.97198 0.61444 0.34929
 O88 O 1.02847 0.65210 0.38670
 O89 O 1.02896 0.68293 0.35351
 O90 O 0.97268 0.64539 0.31612
 O91 O 0.97292 0.68353 0.35384
 O92 O 1.02797 0.64474 0.31597
 Cu93 Cu 1.00036 0.63007 0.37132
 Cu94 Cu 1.00063 0.66733 0.33162
 C95 C 1.03733 0.62257 0.32600
 C96 C 0.96380 0.67488 0.37707
 C97 C 0.96290 0.62337 0.32615
 C98 C 1.03830 0.67411 0.37661
 O99 O 0.97101 0.34762 0.61084
 O100 O 1.02574 0.38568 0.65013
 O101 O 1.02698 0.34746 0.61233
 O102 O 0.97025 0.38574 0.64868
 O103 O 0.96803 0.35352 0.68051
 O104 O 1.02707 0.31712 0.64599
 O105 O 1.02378 0.35493 0.68342
 O106 O 0.97153 0.31549 0.64282
 Cu107 Cu 0.99858 0.36973 0.62715
 Cu108 Cu 0.99744 0.33214 0.66646
 C109 C 0.96223 0.32483 0.61996
 C110 C 1.03384 0.37698 0.67369
 C111 C 1.03698 0.32580 0.62306
 C112 C 0.95945 0.37613 0.67082
 O113 O 0.38331 0.02636 0.34521
 O114 O 0.34564 -0.02776 0.38365
 O115 O 0.38369 -0.02655 0.34415
 O116 O 0.34524 0.02532 0.38500
 O117 O 0.31099 0.02631 0.35343
 O118 O 0.34858 -0.02662 0.31348
 O119 O 0.31045 -0.02643 0.35306
 O120 O 0.34877 0.02645 0.31393
 Cu121 Cu 0.36795 -0.00068 0.36764
 Cu122 Cu 0.32625 -0.00007 0.33032
 C123 C 0.37250 0.03559 0.32291
 C124 C 0.32147 -0.03618 0.37500
 C125 C 0.37264 -0.03556 0.32187
 C126 C 0.32158 0.03477 0.37614
 O127 O 0.61354 0.02735 0.65433
 O128 O 0.65256 -0.02515 0.61473
 O129 O 0.61454 -0.02514 0.65456
 O130 O 0.65145 0.02811 0.61420
 O131 O 0.68575 0.02958 0.64570
 O132 O 0.65001 -0.02508 0.68489
 O133 O 0.68799 -0.02324 0.64504
 O134 O 0.64830 0.02798 0.68542
 Cu135 Cu 0.62960 0.00121 0.63125
 Cu136 Cu 0.67151 0.00233 0.66835
 C137 C 0.62414 0.03641 0.67681
 C138 C 0.67707 -0.03301 0.62304
 C139 C 0.62591 -0.03411 0.67668
 C140 C 0.67481 0.03813 0.62320
 O141 O 0.34853 1.02555 0.61545
 O142 O 0.38711 0.97242 0.65443
 O143 O 0.34861 0.97250 0.61486
 O144 O 0.38677 1.02539 0.65472
 O145 O 0.35176 1.02551 0.68554
 O146 O 0.31463 0.97158 0.64673
 O147 O 0.35279 0.97241 0.68596
 O148 O 0.31350 1.02422 0.64626
 Cu149 Cu 0.37124 0.99894 0.63171
 Cu150 Cu 0.32978 0.99839 0.66932
 C151 C 0.32430 1.03379 0.62412
 C152 C 0.37660 0.96344 0.67698
 C153 C 0.32505 0.96302 0.62398
 C154 C 0.37563 1.03467 0.67686
 O155 O 0.65241 1.02621 0.38390
 O156 O 0.61324 0.97369 0.34460
 O157 O 0.65240 0.97337 0.38352
 O158 O 0.61304 1.02629 0.34509
 O159 O 0.64697 1.02664 0.31312
 O160 O 0.68643 0.97394 0.35170
 O161 O 0.64753 0.97354 0.31297
 O162 O 0.68587 1.02696 0.35158
 Cu163 Cu 0.62940 0.99986 0.36751
 Cu164 Cu 0.67009 1.00027 0.32914
 C165 C 0.67588 1.03565 0.37449
 C166 C 0.62367 0.96472 0.32201
 C167 C 0.67624 0.96470 0.37427
 C168 C 0.62320 1.03537 0.32245
 C169 C 0.82677 0.79209 0.48610
 C170 C 0.82529 0.79175 0.51549
 C171 C 0.80688 0.80994 0.52920
 C172 C 0.79013 0.82858 0.51435
 C173 C 0.79139 0.82885 0.48507
 C174 C 0.80961 0.81057 0.47131
 H175 H 0.81077 0.81108 0.44884
 H176 H 0.80603 0.80999 0.55170
 C177 C 0.17650 0.21078 0.48910
 C178 C 0.17794 0.21104 0.51849
 C179 C 0.19628 0.19278 0.53212
 C180 C 0.21284 0.17405 0.51718
 C181 C 0.21150 0.17376 0.48792
 C182 C 0.19351 0.19223 0.47423
 H183 H 0.19227 0.19172 0.45176
 H184 H 0.19710 0.19266 0.55462
 C185 C 0.17516 0.78925 0.51464
 C186 C 0.17618 0.78777 0.48526
 C187 C 0.19496 0.80505 0.47076
 C188 C 0.21179 0.82428 0.48478
 C189 C 0.21058 0.82588 0.51400
 C190 C 0.19236 0.80829 0.52857
 H191 H 0.19167 0.80934 0.55105
 H192 H 0.19536 0.80457 0.44826
 C193 C 0.82323 0.21129 0.50997
 C194 C 0.82383 0.20984 0.48074
 C195 C 0.80606 0.19111 0.46706
 C196 C 0.78785 0.17359 0.48196
 C197 C 0.78721 0.17525 0.51135
 C198 C 0.80482 0.19422 0.52492
 H199 H 0.80472 0.19526 0.54741
 H200 H 0.80690 0.18979 0.44461
 C201 C 0.48753 0.83015 0.79447
 C202 C 0.51792 0.83082 0.79447
 C203 C 0.53296 0.81283 0.81178
 C204 C 0.51854 0.79459 0.82933
 C205 C 0.48815 0.79445 0.82986
 C206 C 0.47312 0.81212 0.81221
 H207 H 0.44986 0.81210 0.81250
 H208 H 0.55622 0.81321 0.81185
 C209 C 0.48190 0.17170 0.20760
 C210 C 0.51227 0.17084 0.20803
 C211 C 0.52774 0.18859 0.19082
 C212 C 0.51377 0.20675 0.17293
 C213 C 0.48341 0.20713 0.17196
 C214 C 0.46791 0.18974 0.18954
 H215 H 0.44466 0.18994 0.18890
 H216 H 0.55100 0.18802 0.19104
 C217 C 0.51348 0.17033 0.79365
 C218 C 0.48311 0.17186 0.79275
 C219 C 0.46876 0.19032 0.81010
 C220 C 0.48389 0.20712 0.82844
 C221 C 0.51413 0.20582 0.82928
 C222 C 0.52856 0.18751 0.81184
 H223 H 0.55177 0.18636 0.81275
 H224 H 0.44551 0.19126 0.80971
 C225 C 0.51323 0.83058 0.20536
 C226 C 0.48284 0.82999 0.20484
 C227 C 0.46874 0.81204 0.18676
 C228 C 0.48411 0.79442 0.16930
 C229 C 0.51448 0.79454 0.17030
 C230 C 0.52858 0.81267 0.18818
 H231 H 0.55183 0.81304 0.18846
 H232 H 0.44549 0.81201 0.18609
 C233 C 0.78558 0.48390 0.82455
 C234 C 0.78742 0.51247 0.82675
 C235 C 0.80571 0.52678 0.80893
 C236 C 0.82250 0.51320 0.78911
 C237 C 0.82105 0.48443 0.78717
 C238 C 0.80210 0.47022 0.80462
 H239 H 0.80132 0.44817 0.80379
 H240 H 0.80679 0.54878 0.81044
 C241 C 0.21773 0.48797 0.17785
 C242 C 0.21651 0.51668 0.17764
 C243 C 0.19828 0.53013 0.19632
 C244 C 0.18084 0.51545 0.21470
 C245 C 0.18186 0.48672 0.21474
 C246 C 0.20062 0.47331 0.19653
 H247 H 0.20119 0.45124 0.19620
 H248 H 0.19701 0.55217 0.19598
 C249 C 0.78696 0.51307 0.17622
 C250 C 0.78911 0.48433 0.17465
 C251 C 0.80861 0.47066 0.19184
 C252 C 0.82596 0.48486 0.21065
 C253 C 0.82357 0.51343 0.21255
 C254 C 0.80390 0.52718 0.19561
 H255 H 0.80295 0.54922 0.19649
 H256 H 0.81022 0.44866 0.19064
 C257 C 0.21328 0.51363 0.82293
 C258 C 0.21047 0.48512 0.82561
 C259 C 0.19095 0.47117 0.80865
 C260 C 0.17404 0.48509 0.78923
 C261 C 0.17683 0.51361 0.78661
 C262 C 0.19681 0.52753 0.80312
 H263 H 0.19827 0.54951 0.80175
 H264 H 0.18895 0.44926 0.81054
 C265 C 0.28101 0.42571 0.09697
 C266 C 0.31084 0.42816 0.09381
 C267 C 0.32531 0.41262 0.07389
 C268 C 0.31025 0.39399 0.05721
 C269 C 0.28046 0.39131 0.06071
 C270 C 0.26596 0.40719 0.08024
 C271 C 0.26547 0.44242 0.11760
 C272 C 0.24077 0.45687 0.10978
 C273 C 0.22556 0.47207 0.12936
 C274 C 0.23460 0.47275 0.15709
 C275 C 0.25925 0.45839 0.16501
 C276 C 0.27478 0.44354 0.14532
 H277 H 0.34829 0.41505 0.07167
 H278 H 0.26829 0.37719 0.04808
 H279 H 0.20651 0.48305 0.12300
 H280 H 0.26641 0.45873 0.18639
 H281 H 0.24297 0.40483 0.08248
 H282 H 0.23333 0.45644 0.08849
 H283 H 0.32283 0.44242 0.10644
 H284 H 0.29367 0.43241 0.15181
 C285 C 0.71887 0.57605 0.09940
 C286 C 0.70014 0.56318 0.08077
 C287 C 0.68497 0.57845 0.06121
 C288 C 0.68887 0.60675 0.05955
 C289 C 0.70757 0.61961 0.07829
 C290 C 0.72220 0.60440 0.09829
 C291 C 0.73583 0.55980 0.11919
 C292 C 0.73446 0.56509 0.14778
 C293 C 0.75077 0.54966 0.16636
 C294 C 0.76902 0.52900 0.15658
 C295 C 0.77088 0.52432 0.12784
 C296 C 0.75406 0.53925 0.10937
 H297 H 0.67077 0.56805 0.04691
 H298 H 0.71084 0.64142 0.07749
 H299 H 0.74911 0.55379 0.18839
 H300 H 0.78555 0.50927 0.11962
 H301 H 0.73670 0.61464 0.11242
 H302 H 0.72055 0.58095 0.15569
 H303 H 0.69732 0.54130 0.08136
 H304 H 0.75575 0.53521 0.08732
 C305 C 0.72125 0.42023 0.90342
 C306 C 0.69151 0.42354 0.90650
 C307 C 0.67651 0.40855 0.92646
 C308 C 0.69094 0.38964 0.94330
 C309 C 0.72062 0.38601 0.93980
 C310 C 0.73566 0.40134 0.92021
 C311 C 0.73740 0.43677 0.88313
 C312 C 0.76225 0.45073 0.89143
 C313 C 0.77772 0.46625 0.87235
 C314 C 0.76879 0.46776 0.84462
 C315 C 0.74410 0.45375 0.83616
 C316 C 0.72830 0.43856 0.85538
 H317 H 0.65363 0.41169 0.92867
 H318 H 0.73231 0.37165 0.95255
 H319 H 0.79679 0.47697 0.87913
 H320 H 0.73700 0.45476 0.81479
 H321 H 0.75857 0.39835 0.91805
 H322 H 0.76952 0.44979 0.91276
 H323 H 0.68001 0.43811 0.89384
 H324 H 0.70928 0.42784 0.84854
 C325 C 0.27887 0.57733 0.90098
 C326 C 0.30866 0.57421 0.90381
 C327 C 0.32373 0.58934 0.92364
 C328 C 0.30931 0.60821 0.94059
 C329 C 0.27959 0.61165 0.93732
 C330 C 0.26448 0.59619 0.91788
 C331 C 0.26258 0.56061 0.88090
 C332 C 0.23798 0.54648 0.88958
 C333 C 0.22223 0.53097 0.87070
 C334 C 0.23059 0.52962 0.84277
 C335 C 0.25507 0.54379 0.83395
 C336 C 0.27117 0.55896 0.85298
 H337 H 0.34664 0.58634 0.92567
 H338 H 0.26790 0.62598 0.95014
 H339 H 0.20332 0.52019 0.87778
 H340 H 0.26173 0.54293 0.81243
 H341 H 0.24153 0.59903 0.91593
 H342 H 0.23109 0.54732 0.91103
 H343 H 0.32014 0.55967 0.89106
 H344 H 0.29000 0.56982 0.84584
 C345 C 0.09941 0.27882 0.42599
 C346 C 0.08105 0.29735 0.43926
 C347 C 0.06192 0.31307 0.42376
 C348 C 0.06043 0.31011 0.39479
 C349 C 0.07884 0.29156 0.38154
 C350 C 0.09838 0.27625 0.39699
 C351 C 0.11919 0.26179 0.44241
 C352 C 0.14844 0.26061 0.43564
 C353 C 0.16707 0.24430 0.45109
 C354 C 0.15669 0.22866 0.47333
 C355 C 0.12728 0.22945 0.47968
 C356 C 0.10878 0.24620 0.46463
 H357 H 0.04787 0.32713 0.43450
 H358 H 0.07816 0.28894 0.35922
 H359 H 0.18964 0.24391 0.44573
 H360 H 0.11857 0.21692 0.49612
 H361 H 0.11228 0.26195 0.38639
 H362 H 0.15689 0.27252 0.41858
 H363 H 0.08162 0.29969 0.46162
 H364 H 0.08619 0.24652 0.46990
 C365 C 0.09873 0.72089 0.57862
 C366 C 0.09136 0.72764 0.60607
 C367 C 0.07130 0.71215 0.62069
 C368 C 0.05827 0.68943 0.60826
 C369 C 0.06605 0.68230 0.58101
 C370 C 0.08601 0.69790 0.56633
 C371 C 0.11894 0.73822 0.56263
 C372 C 0.13905 0.72656 0.54436
 C373 C 0.15756 0.74306 0.52892
 C374 C 0.15623 0.77149 0.53142
 C375 C 0.13647 0.78315 0.54988
 C376 C 0.11793 0.76671 0.56524
 H377 H 0.06593 0.71805 0.64172
 H378 H 0.05631 0.66496 0.57082
 H379 H 0.17290 0.73368 0.51499
 H380 H 0.13500 0.80506 0.55196
 H381 H 0.09093 0.69236 0.54510
 H382 H 0.14064 0.70468 0.54218
 H383 H 0.10114 0.74494 0.61631
 H384 H 0.10239 0.77636 0.57874
 C385 C 0.90379 0.72328 0.42337
 C386 C 0.90542 0.72572 0.39438
 C387 C 0.92490 0.70994 0.37926
 C388 C 0.94261 0.69103 0.39283
 C389 C 0.94049 0.68821 0.42179
 C390 C 0.92147 0.70440 0.43695
 C391 C 0.88407 0.74073 0.43948
 C392 C 0.89443 0.75619 0.46185
 C393 C 0.87595 0.77311 0.47681
 C394 C 0.84660 0.77421 0.47024
 C395 C 0.83631 0.75876 0.44780
 C396 C 0.85492 0.74230 0.43243
 H397 H 0.92607 0.71247 0.35696
 H398 H 0.95400 0.67389 0.43279
 H399 H 0.88464 0.78548 0.49339
 H400 H 0.81380 0.75936 0.44225
 H401 H 0.92043 0.70214 0.45929
 H402 H 0.91694 0.75557 0.46735
 H403 H 0.89205 0.74027 0.38353
 H404 H 0.84652 0.73050 0.41526
 C405 C 0.90216 0.27773 0.57234
 C406 C 0.91968 0.26519 0.59225
 C407 C 0.93888 0.28061 0.60799
 C408 C 0.94131 0.30880 0.60374
 C409 C 0.92385 0.32134 0.58370
 C410 C 0.90421 0.30596 0.56833
 C411 C 0.88195 0.26124 0.55574
 C412 C 0.85285 0.26846 0.55404
 C413 C 0.83361 0.25214 0.53923
 C414 C 0.84339 0.22877 0.52546
 C415 C 0.87250 0.22177 0.52674
 C416 C 0.89162 0.23777 0.54195
 H417 H 0.95215 0.27039 0.62320
 H418 H 0.92525 0.34305 0.58007
 H419 H 0.81116 0.25774 0.53837
 H420 H 0.88030 0.20375 0.51619
 H421 H 0.89095 0.31600 0.55298
 H422 H 0.84495 0.28640 0.56465
 H423 H 0.91830 0.24346 0.59578
 H424 H 0.91400 0.23194 0.54286
 C425 C 0.41697 0.09697 0.27583
 C426 C 0.43048 0.08405 0.29835
 C427 C 0.41595 0.06436 0.31388
 C428 C 0.38766 0.05703 0.30712
 C429 C 0.37406 0.07015 0.28481
 C430 C 0.38850 0.08995 0.26943
 C431 C 0.43275 0.11710 0.25859
 C432 C 0.42910 0.11751 0.22961
 C433 C 0.44456 0.13575 0.21321
 C434 C 0.46420 0.15377 0.22540
 C435 C 0.46752 0.15386 0.25434
 C436 C 0.45196 0.13567 0.27080
 H437 H 0.42705 0.05455 0.33089
 H438 H 0.35219 0.06514 0.27922
 H439 H 0.44185 0.13528 0.19089
 H440 H 0.48240 0.16782 0.26412
 H441 H 0.37730 0.09985 0.25253
 H442 H 0.41484 0.10322 0.21949
 H443 H 0.45253 0.08869 0.30359
 H444 H 0.45492 0.13618 0.29309
 C445 C 0.57734 0.09428 0.72597
 C446 C 0.60733 0.09273 0.72791
 C447 C 0.62256 0.07389 0.71194
 C448 C 0.60811 0.05668 0.69329
 C449 C 0.57813 0.05861 0.69099
 C450 C 0.56285 0.07706 0.70742
 C451 C 0.56116 0.11366 0.74345
 C452 C 0.53820 0.10455 0.75985
 C453 C 0.52306 0.12279 0.77659
 C454 C 0.53000 0.15063 0.77653
 C455 C 0.55315 0.15967 0.76028
 C456 C 0.56871 0.14131 0.74401
 H457 H 0.64567 0.07286 0.71405
 H458 H 0.56646 0.04549 0.67689
 H459 H 0.50590 0.11516 0.78957
 H460 H 0.55898 0.18100 0.75998
 H461 H 0.53972 0.07804 0.70552
 H462 H 0.53232 0.08322 0.76002
 H463 H 0.61888 0.10577 0.74219
 H464 H 0.58635 0.14874 0.73149
 C465 C 0.42243 0.90378 0.72509
 C466 C 0.39380 0.91033 0.73139
 C467 C 0.37892 0.92955 0.71565
 C468 C 0.39222 0.94254 0.69309
 C469 C 0.42066 0.93566 0.68642
 C470 C 0.43563 0.91655 0.70231
 C471 C 0.43860 0.88421 0.74266
 C472 C 0.45819 0.86580 0.73076
 C473 C 0.47383 0.84792 0.74750
 C474 C 0.47020 0.84816 0.77641
 C475 C 0.45033 0.86614 0.78830
 C476 C 0.43480 0.88408 0.77163
 H477 H 0.35694 0.93422 0.72118
 H478 H 0.43153 0.94540 0.66922
 H479 H 0.48888 0.83398 0.73794
 H480 H 0.44738 0.86673 0.81060
 H481 H 0.45778 0.91227 0.69712
 H482 H 0.46130 0.86508 0.70850
 H483 H 0.38280 0.90050 0.74846
 H484 H 0.42027 0.89828 0.78153
 C485 C 0.57690 0.90628 0.27360
 C486 C 0.60689 0.90778 0.27160
 C487 C 0.62215 0.92679 0.28737
 C488 C 0.60770 0.94416 0.30586
 C489 C 0.57773 0.94221 0.30827
 C490 C 0.56243 0.92363 0.29203
 C491 C 0.56067 0.88694 0.25616
 C492 C 0.53825 0.89624 0.23923
 C493 C 0.52315 0.87807 0.22239
 C494 C 0.52956 0.85012 0.22287
 C495 C 0.55211 0.84088 0.23977
 C496 C 0.56767 0.85916 0.25612
 H497 H 0.64525 0.92785 0.28518
 H498 H 0.56607 0.95547 0.32225
 H499 H 0.50649 0.88586 0.20892
 H500 H 0.55752 0.81945 0.24045
 H501 H 0.53930 0.92269 0.29393
 H502 H 0.53281 0.91767 0.23867
 H503 H 0.61841 0.89463 0.25740
 H504 H 0.58489 0.85160 0.26908
 C505 C 0.42004 0.27457 0.90448
 C506 C 0.42465 0.30278 0.90561
 C507 C 0.40982 0.31879 0.92486
 C508 C 0.38970 0.30691 0.94290
 C509 C 0.38470 0.27875 0.94132
 C510 C 0.39995 0.26269 0.92247
 C511 C 0.43647 0.25743 0.88491
 C512 C 0.45114 0.23433 0.89455
 C513 C 0.46676 0.21810 0.87615
 C514 C 0.46754 0.22449 0.84781
 C515 C 0.45269 0.24737 0.83804
 C516 C 0.43751 0.26394 0.85654
 H517 H 0.41404 0.34046 0.92561
 H518 H 0.36942 0.26904 0.95506
 H519 H 0.47813 0.20047 0.88395
 H520 H 0.45314 0.25251 0.81619
 H521 H 0.39597 0.24098 0.92182
 H522 H 0.45077 0.22907 0.91638
 H523 H 0.44017 0.31231 0.89198
 H524 H 0.42623 0.28159 0.84868
 C525 C 0.58238 0.72389 0.90281
 C526 C 0.56851 0.70154 0.91516
 C527 C 0.58274 0.68546 0.93473
 C528 C 0.61110 0.69146 0.94251
 C529 C 0.62511 0.71353 0.92985
 C530 C 0.61096 0.72949 0.91018
 C531 C 0.56685 0.74179 0.88301
 C532 C 0.57090 0.77016 0.88377
 C533 C 0.55564 0.78716 0.86588
 C534 C 0.53583 0.77621 0.84704
 C535 C 0.53209 0.74790 0.84579
 C536 C 0.54743 0.73083 0.86364
 H537 H 0.57131 0.66866 0.94419
 H538 H 0.64704 0.71856 0.93522
 H539 H 0.55870 0.80898 0.86725
 H540 H 0.51711 0.73906 0.83116
 H541 H 0.62243 0.74624 0.90070
 H542 H 0.58532 0.77931 0.89870
 H543 H 0.54638 0.69689 0.91026
 H544 H 0.54414 0.70906 0.86222
 C545 C 0.42153 0.72511 0.09354
 C546 C 0.43637 0.70683 0.07635
 C547 C 0.42143 0.69040 0.05758
 C548 C 0.39147 0.69243 0.05528
 C549 C 0.37665 0.71070 0.07256
 C550 C 0.39154 0.72669 0.09175
 C551 C 0.43738 0.74291 0.11290
 C552 C 0.42997 0.74383 0.14112
 C553 C 0.44522 0.76052 0.15942
 C554 C 0.46787 0.77682 0.14973
 C555 C 0.47464 0.77647 0.12130
 C556 C 0.45984 0.75934 0.10313
 H557 H 0.43338 0.67659 0.04440
 H558 H 0.35354 0.71260 0.07123
 H559 H 0.43953 0.76050 0.18122
 H560 H 0.49140 0.78945 0.11314
 H561 H 0.37973 0.74076 0.10476
 H562 H 0.41269 0.73130 0.14904
 H563 H 0.45952 0.70525 0.07752
 H564 H 0.46558 0.75922 0.08134
 C565 C 0.57952 0.27580 0.09946
 C566 C 0.56618 0.29819 0.08666
 C567 C 0.58094 0.31381 0.06706
 C568 C 0.60929 0.30727 0.05971
 C569 C 0.62277 0.28518 0.07282
 C570 C 0.60810 0.26969 0.09253
 C571 C 0.56344 0.25834 0.11924
 C572 C 0.56705 0.22992 0.11878
 C573 C 0.55134 0.21331 0.13669
 C574 C 0.53152 0.22473 0.15522
 C575 C 0.52818 0.25310 0.15615
 C576 C 0.54398 0.26977 0.13829
 H577 H 0.56994 0.33065 0.05724
 H578 H 0.64468 0.27976 0.06779
 H579 H 0.55406 0.19144 0.13557
 H580 H 0.51316 0.26227 0.17054
 H581 H 0.61916 0.25291 0.10237
 H582 H 0.58149 0.22042 0.10408
 H583 H 0.54407 0.30321 0.09125
 H584 H 0.54103 0.29159 0.13945
 C585 C 0.27761 0.09403 0.57804
 C586 C 0.30739 0.09144 0.57460
 C587 C 0.32261 0.07169 0.58940
 C588 C 0.30836 0.05459 0.60829
 C589 C 0.27860 0.05746 0.61192
 C590 C 0.26334 0.07683 0.59674
 C591 C 0.26134 0.11455 0.56213
 C592 C 0.23657 0.10694 0.54747
 C593 C 0.22094 0.12632 0.53267
 C594 C 0.22963 0.15364 0.53264
 C595 C 0.25422 0.16137 0.54740
 C596 C 0.27018 0.14189 0.56182
 H597 H 0.34554 0.06995 0.58628
 H598 H 0.26706 0.04449 0.62626
 H599 H 0.20196 0.12010 0.52135
 H600 H 0.26114 0.18242 0.54751
 H601 H 0.24040 0.07862 0.59982
 H602 H 0.22949 0.08594 0.54730
 H603 H 0.31877 0.10443 0.56016
 H604 H 0.28912 0.14819 0.57314
 C605 C 0.72200 0.09484 0.41997
 C606 C 0.69752 0.08275 0.43143
 C607 C 0.68192 0.06353 0.41625
 C608 C 0.69097 0.05559 0.38949
 C609 C 0.71573 0.06785 0.37824
 C610 C 0.73090 0.08748 0.39325
 C611 C 0.73853 0.11493 0.43598
 C612 C 0.73783 0.14251 0.42862
 C613 C 0.75368 0.16156 0.44376
 C614 C 0.77073 0.15325 0.46626
 C615 C 0.77187 0.12545 0.47311
 C616 C 0.75554 0.10650 0.45835
 H617 H 0.66306 0.05459 0.42571
 H618 H 0.72341 0.06244 0.35773
 H619 H 0.75256 0.18284 0.43799
 H620 H 0.78551 0.11838 0.48979
 H621 H 0.74984 0.09667 0.38419
 H622 H 0.72485 0.14925 0.41129
 H623 H 0.69043 0.08831 0.45209
 H624 H 0.75653 0.08519 0.46403
 C625 C 0.72434 0.90760 0.57604
 C626 C 0.69443 0.90955 0.57320
 C627 C 0.67903 0.92901 0.58829
 C628 C 0.69321 0.94646 0.60691
 C629 C 0.72309 0.94423 0.60995
 C630 C 0.73853 0.92516 0.59447
 C631 C 0.74081 0.88735 0.55984
 C632 C 0.76512 0.89541 0.54469
 C633 C 0.78097 0.87628 0.52968
 C634 C 0.77300 0.84876 0.52992
 C635 C 0.74885 0.84059 0.54514
 C636 C 0.73266 0.85981 0.55977
 H637 H 0.65600 0.93024 0.58560
 H638 H 0.73460 0.95748 0.62406
 H639 H 0.79960 0.88286 0.51802
 H640 H 0.74246 0.81940 0.54549
 H641 H 0.76157 0.92389 0.59710
 H642 H 0.77169 0.91655 0.54433
 H643 H 0.68309 0.89627 0.55900
 H644 H 0.71409 0.85315 0.57144
 C645 C 0.27557 0.90299 0.42110
 C646 C 0.30535 0.90578 0.42433
 C647 C 0.32034 0.92565 0.40944
 C648 C 0.30584 0.94268 0.39068
 C649 C 0.27611 0.93952 0.38715
 C650 C 0.26108 0.92003 0.40241
 C651 C 0.25946 0.88270 0.43749
 C652 C 0.23496 0.89062 0.45240
 C653 C 0.21959 0.87156 0.46789
 C654 C 0.22826 0.84425 0.46836
 C655 C 0.25253 0.83617 0.45328
 C656 C 0.26825 0.85536 0.43817
 H657 H 0.34326 0.92760 0.41248
 H658 H 0.26438 0.95242 0.37290
 H659 H 0.20085 0.87804 0.47944
 H660 H 0.25943 0.81513 0.45351
 H661 H 0.23813 0.91811 0.39950
 H662 H 0.22793 0.91163 0.45230
 H663 H 0.31689 0.89292 0.43877
 H664 H 0.28700 0.84883 0.42667
 C665 C 0.09425 0.42315 0.72225
 C666 C 0.08609 0.39679 0.73040
 C667 C 0.06660 0.38179 0.71456
 C668 C 0.05494 0.39272 0.69010
 C669 C 0.06330 0.41895 0.68176
 C670 C 0.08268 0.43403 0.69770
 C671 C 0.11465 0.43922 0.73939
 C672 C 0.13562 0.45568 0.72678
 C673 C 0.15489 0.47062 0.74295
 C674 C 0.15356 0.46940 0.77202
 C675 C 0.13275 0.45296 0.78469
 C676 C 0.11340 0.43810 0.76855
 H677 H 0.06073 0.36157 0.72147
 H678 H 0.05457 0.42800 0.66309
 H679 H 0.17107 0.48291 0.73280
 H680 H 0.13130 0.45188 0.80710
 H681 H 0.08821 0.45440 0.69104
 H682 H 0.13747 0.45666 0.70440
 H683 H 0.09498 0.38761 0.74892
 H684 H 0.09723 0.42600 0.77892
 C685 C 0.09913 0.57607 0.27982
 C686 C 0.08162 0.59520 0.26642
 C687 C 0.06185 0.61056 0.28155
 C688 C 0.05884 0.60672 0.31030
 C689 C 0.07627 0.58745 0.32370
 C690 C 0.09647 0.57244 0.30861
 C691 C 0.12003 0.55993 0.26364
 C692 C 0.14894 0.55872 0.27177
 C693 C 0.16885 0.54434 0.25575
 C694 C 0.15994 0.53051 0.23180
 C695 C 0.13104 0.53131 0.22388
 C696 C 0.11124 0.54609 0.23957
 H697 H 0.04861 0.62519 0.27066
 H698 H 0.07442 0.58413 0.34585
 H699 H 0.19114 0.54386 0.26204
 H700 H 0.12392 0.52070 0.20541
 H701 H 0.10971 0.55769 0.31931
 H702 H 0.15617 0.56938 0.29016
 H703 H 0.08346 0.59844 0.24425
 H704 H 0.08902 0.54663 0.23304
 C705 C 0.90551 0.42285 0.27758
 C706 C 0.91332 0.39635 0.26954
 C707 C 0.93289 0.38135 0.28525
 C708 C 0.94497 0.39242 0.30946
 C709 C 0.93690 0.41877 0.31773
 C710 C 0.91744 0.43384 0.30193
 C711 C 0.88520 0.43900 0.26049
 C712 C 0.88630 0.43768 0.23134
 C713 C 0.86704 0.45261 0.21522
 C714 C 0.84648 0.46933 0.22790
 C715 C 0.84532 0.47080 0.25695
 C716 C 0.86450 0.45578 0.27312
 H717 H 0.93854 0.36104 0.27841
 H718 H 0.94595 0.42793 0.33621
 H719 H 0.86833 0.45134 0.19280
 H720 H 0.82931 0.48330 0.26711
 H721 H 0.91218 0.45432 0.30849
 H722 H 0.90227 0.42534 0.22095
 H723 H 0.90414 0.38710 0.25118
 H724 H 0.86279 0.45692 0.29550
 C725 C 0.89863 0.57688 0.71996
 C726 C 0.90563 0.60373 0.72741
 C727 C 0.92554 0.61858 0.71198
 C728 C 0.93881 0.60701 0.68859
 C729 C 0.93131 0.58041 0.68066
 C730 C 0.91145 0.56547 0.69622
 C731 C 0.87871 0.56068 0.73744
 C732 C 0.85854 0.54297 0.72537
 C733 C 0.84004 0.52766 0.74207
 C734 C 0.84151 0.52971 0.77110
 C735 C 0.86145 0.54750 0.78316
 C736 C 0.87994 0.56274 0.76653
 H737 H 0.93065 0.63911 0.71849
 H738 H 0.94123 0.57092 0.66278
 H739 H 0.82459 0.51421 0.73239
 H740 H 0.86307 0.54921 0.80553
 H741 H 0.90674 0.54474 0.69011
 H742 H 0.85683 0.54119 0.70303
 H743 H 0.89571 0.61331 0.74524
 H744 H 0.89557 0.57579 0.77650
 C745 C 0.72230 0.57498 0.90685
 C746 C 0.69604 0.56558 0.91757
 C747 C 0.68056 0.58121 0.93667
 C748 C 0.69111 0.60653 0.94585
 C749 C 0.71737 0.61591 0.93502
 C750 C 0.73262 0.60044 0.91568
 C751 C 0.73893 0.55837 0.88660
 C752 C 0.76912 0.55833 0.88721
 C753 C 0.78479 0.54339 0.86775
 C754 C 0.77064 0.52786 0.84756
 C755 C 0.74058 0.52746 0.84703
 C756 C 0.72485 0.54266 0.86629
 H757 H 0.66051 0.57315 0.94453
 H758 H 0.72620 0.63536 0.94132
 H759 H 0.80801 0.54376 0.86855
 H760 H 0.72932 0.51575 0.83140
 H761 H 0.75243 0.60863 0.90744
 H762 H 0.78071 0.56968 0.90287
 H763 H 0.68763 0.54591 0.91157
 H764 H 0.70168 0.54252 0.86489
 C765 C 0.27685 0.42255 0.90469
 C766 C 0.30274 0.43254 0.91567
 C767 C 0.31844 0.41725 0.93485
 C768 C 0.30851 0.39163 0.94380
 C769 C 0.28267 0.38160 0.93261
 C770 C 0.26717 0.39679 0.91324
 C771 C 0.25989 0.43893 0.88453
 C772 C 0.22970 0.43855 0.88527
 C773 C 0.21372 0.45352 0.86610
 C774 C 0.22755 0.46946 0.84602
 C775 C 0.25762 0.47011 0.84528
 C776 C 0.27365 0.45495 0.86430
 H777 H 0.33815 0.42579 0.94297
 H778 H 0.27431 0.36192 0.93872
 H779 H 0.19051 0.45292 0.86709
 H780 H 0.26867 0.48207 0.82971
 H781 H 0.24765 0.38819 0.90480
 H782 H 0.21837 0.42690 0.90087
 H783 H 0.31065 0.45245 0.90985
 H784 H 0.29681 0.45540 0.86282
 C785 C 0.28013 0.57892 0.09611
 C786 C 0.30547 0.56860 0.08426
 C787 C 0.32044 0.58346 0.06416
 C788 C 0.31026 0.60895 0.05511
 C789 C 0.28491 0.61925 0.06707
 C790 C 0.27020 0.60454 0.08738
 C791 C 0.26393 0.56302 0.11728
 C792 C 0.23374 0.56378 0.11792
 C793 C 0.21847 0.54903 0.13782
 C794 C 0.23298 0.53291 0.15724
 C795 C 0.26304 0.53196 0.15673
 C796 C 0.27839 0.54695 0.13701
 H797 H 0.33979 0.57471 0.05546
 H798 H 0.27640 0.63886 0.06093
 H799 H 0.19524 0.54977 0.13775
 H800 H 0.27460 0.51973 0.17171
 H801 H 0.25112 0.61343 0.09644
 H802 H 0.22182 0.57543 0.10276
 H803 H 0.31354 0.54876 0.09014
 H804 H 0.30159 0.54620 0.13747
 C805 C 0.72184 0.42077 0.09705
 C806 C 0.69634 0.43104 0.08553
 C807 C 0.68084 0.41584 0.06606
 C808 C 0.69065 0.39008 0.05737
 C809 C 0.71606 0.37978 0.06917
 C810 C 0.73129 0.39482 0.08884
 C811 C 0.73889 0.43712 0.11717
 C812 C 0.76906 0.43614 0.11667
 C813 C 0.78521 0.45121 0.13559
 C814 C 0.77162 0.46795 0.15515
 C815 C 0.74155 0.46912 0.15578
 C816 C 0.72532 0.45380 0.13699
 H817 H 0.66143 0.42456 0.05749
 H818 H 0.72427 0.35996 0.06334
 H819 H 0.80841 0.45025 0.13464
 H820 H 0.73070 0.48180 0.17088
 H821 H 0.75046 0.38598 0.09773
 H822 H 0.78027 0.42401 0.10135
 H823 H 0.68862 0.45109 0.09109
 H824 H 0.70216 0.45475 0.13825
 C825 C 0.90020 0.72153 0.57929
 C826 C 0.91157 0.69767 0.56746
 C827 C 0.93132 0.68172 0.58208
 C828 C 0.94052 0.68943 0.60881
 C829 C 0.92874 0.71310 0.62075
 C830 C 0.90874 0.72876 0.60629
 C831 C 0.88020 0.73930 0.56337
 C832 C 0.88157 0.76778 0.56625
 C833 C 0.86322 0.78463 0.55115
 C834 C 0.84340 0.77345 0.53249
 C835 C 0.84171 0.74508 0.52960
 C836 C 0.85989 0.72814 0.54495
 H837 H 0.93984 0.66368 0.57210
 H838 H 0.93491 0.71965 0.64138
 H839 H 0.86501 0.80650 0.55346
 H840 H 0.82640 0.73610 0.51537
 H841 H 0.89993 0.74659 0.61638
 H842 H 0.89729 0.77719 0.57972
 H843 H 0.90580 0.69164 0.54658
 H844 H 0.85790 0.70632 0.54250
 C845 C 0.90272 0.27754 0.41859
 C846 C 0.91273 0.26960 0.39227
 C847 C 0.93299 0.28531 0.37812
 C848 C 0.94366 0.30959 0.38978
 C849 C 0.93316 0.31781 0.41590
 C850 C 0.91308 0.30192 0.43015
 C851 C 0.88196 0.26021 0.43407
 C852 C 0.86031 0.27202 0.45051
 C853 C 0.84124 0.25567 0.46547
 C854 C 0.84336 0.22722 0.46420
 C855 C 0.86459 0.21532 0.44755
 C856 C 0.88381 0.23163 0.43276
 H857 H 0.94027 0.27829 0.35800
 H858 H 0.94082 0.33630 0.42568
 H859 H 0.82478 0.26519 0.47802
 H860 H 0.86665 0.19339 0.44650
 H861 H 0.90617 0.30848 0.45054
 H862 H 0.85792 0.29390 0.45164
 H863 H 0.90480 0.25125 0.38248
 H864 H 0.90049 0.22182 0.42074
 C865 C 0.10098 0.28006 0.58133
 C866 C 0.09199 0.27286 0.60819
 C867 C 0.07106 0.28804 0.62198
 C868 C 0.05879 0.31117 0.60948
 C869 C 0.06849 0.31890 0.58293
 C870 C 0.08916 0.30343 0.56897
 C871 C 0.12178 0.26265 0.56597
 C872 C 0.12093 0.23416 0.56890
 C873 C 0.13978 0.21761 0.55402
 C874 C 0.15960 0.22909 0.53555
 C875 C 0.16088 0.25748 0.53272
 C876 C 0.14218 0.27413 0.54785
 H877 H 0.06453 0.28152 0.64251
 H878 H 0.05963 0.33654 0.57254
 H879 H 0.13831 0.19572 0.55625
 H880 H 0.17618 0.26669 0.51864
 H881 H 0.09528 0.30940 0.54817
 H882 H 0.10518 0.22452 0.58216
 H883 H 0.10109 0.25538 0.61864
 H884 H 0.14375 0.29598 0.54539
 C885 C 0.09948 0.71995 0.42149
 C886 C 0.09173 0.72774 0.39458
 C887 C 0.07165 0.71252 0.37962
 C888 C 0.05924 0.68893 0.39122
 C889 C 0.06779 0.68092 0.41808
 C890 C 0.08748 0.69647 0.43315
 C891 C 0.11919 0.73697 0.43784
 C892 C 0.10835 0.75381 0.45884
 C893 C 0.12681 0.77048 0.47407
 C894 C 0.15652 0.76999 0.46907
 C895 C 0.16728 0.75313 0.44790
 C896 C 0.14870 0.73682 0.43229
 H897 H 0.06579 0.71937 0.35902
 H898 H 0.05881 0.66296 0.42781
 H899 H 0.11784 0.78390 0.48964
 H900 H 0.19006 0.75254 0.44354
 H901 H 0.09328 0.69029 0.45399
 H902 H 0.08554 0.75433 0.46311
 H903 H 0.10081 0.74592 0.38538
 H904 H 0.15731 0.72396 0.41603
 C905 C 0.58106 0.90707 0.72637
 C906 C 0.56599 0.92412 0.70815
 C907 C 0.58068 0.94280 0.69153
 C908 C 0.61067 0.94516 0.69329
 C909 C 0.62574 0.92809 0.71157
 C910 C 0.61107 0.90897 0.72775
 C911 C 0.56538 0.88763 0.74419
 C912 C 0.57271 0.85993 0.74429
 C913 C 0.55726 0.84150 0.76060
 C914 C 0.53449 0.85053 0.77737
 C915 C 0.52788 0.87844 0.77794
 C916 C 0.54287 0.89674 0.76116
 H917 H 0.56852 0.95581 0.67773
 H918 H 0.64886 0.92947 0.71328
 H919 H 0.56285 0.82012 0.75987
 H920 H 0.51105 0.88608 0.79133
 H921 H 0.62307 0.89605 0.74177
 H922 H 0.59000 0.85251 0.73131
 H923 H 0.54284 0.92287 0.70669
 H924 H 0.53716 0.91810 0.76169
 C925 C 0.41761 0.90427 0.27350
 C926 C 0.38913 0.91130 0.26710
 C927 C 0.37451 0.93075 0.28285
 C928 C 0.38796 0.94349 0.30549
 C929 C 0.41628 0.93622 0.31214
 C930 C 0.43097 0.91689 0.29628
 C931 C 0.43352 0.88434 0.25609
 C932 C 0.45271 0.86571 0.26821
 C933 C 0.46839 0.84768 0.25165
 C934 C 0.46522 0.84798 0.22269
 C935 C 0.44564 0.86608 0.21059
 C936 C 0.43005 0.88418 0.22709
 H937 H 0.35263 0.93575 0.27731
 H938 H 0.42729 0.94576 0.32939
 H939 H 0.48320 0.83363 0.26137
 H940 H 0.44302 0.86670 0.18825
 H941 H 0.45302 0.91228 0.30151
 H942 H 0.45553 0.86499 0.29050
 H943 H 0.37804 0.90164 0.24998
 H944 H 0.41580 0.89851 0.21704
 C945 C 0.57598 0.09427 0.27512
 C946 C 0.56167 0.07674 0.29347
 C947 C 0.57712 0.05797 0.30933
 C948 C 0.60706 0.05602 0.30661
 C949 C 0.62133 0.07354 0.28816
 C950 C 0.60594 0.09272 0.27278
 C951 C 0.55963 0.11385 0.25809
 C952 C 0.56679 0.14159 0.25828
 C953 C 0.55122 0.16009 0.24221
 C954 C 0.52848 0.15110 0.22539
 C955 C 0.52186 0.12319 0.22472
 C956 C 0.53699 0.10480 0.24127
 H957 H 0.56559 0.04460 0.32330
 H958 H 0.64440 0.07249 0.28574
 H959 H 0.55680 0.18147 0.24303
 H960 H 0.50506 0.11558 0.21129
 H961 H 0.61735 0.10601 0.25863
 H962 H 0.58419 0.14895 0.27115
 H963 H 0.53856 0.07770 0.29562
 H964 H 0.53141 0.08341 0.24055
 C965 C 0.41934 0.09656 0.72401
 C966 C 0.39071 0.08969 0.72998
 C967 C 0.37653 0.06969 0.71462
 C968 C 0.39055 0.05622 0.69275
 C969 C 0.41899 0.06339 0.68641
 C970 C 0.43326 0.08327 0.70193
 C971 C 0.43484 0.11689 0.74129
 C972 C 0.45455 0.13513 0.72928
 C973 C 0.46985 0.15346 0.74584
 C974 C 0.46575 0.15386 0.77469
 C975 C 0.44564 0.13618 0.78665
 C976 C 0.43045 0.11779 0.77017
 H977 H 0.35453 0.06480 0.71986
 H978 H 0.43041 0.05332 0.66973
 H979 H 0.48512 0.16714 0.73623
 H980 H 0.44234 0.13607 0.80891
 H981 H 0.45543 0.08777 0.69704
 H982 H 0.45810 0.13526 0.70707
 H983 H 0.37918 0.09986 0.74651
 H984 H 0.41583 0.10377 0.78018
 C985 C 0.57935 0.72432 0.09705
 C986 C 0.56576 0.70198 0.08437
 C987 C 0.58043 0.68594 0.06501
 C988 C 0.60894 0.69199 0.05782
 C989 C 0.62263 0.71410 0.07076
 C990 C 0.60804 0.73001 0.09021
 C991 C 0.56348 0.74210 0.11675
 C992 C 0.56750 0.77047 0.11624
 C993 C 0.55204 0.78735 0.13412
 C994 C 0.53206 0.77627 0.15271
 C995 C 0.52834 0.74794 0.15371
 C996 C 0.54387 0.73100 0.13586
 H997 H 0.56927 0.66910 0.05534
 H998 H 0.64466 0.71916 0.06586
 H999 H 0.55507 0.80918 0.13293
 H1000 H 0.51320 0.73900 0.16813
 H1001 H 0.61930 0.74675 0.09995
 H1002 H 0.58207 0.77972 0.10151
 H1003 H 0.54356 0.69727 0.08889
 H1004 H 0.54061 0.70922 0.13708
 C1005 C 0.42126 0.27605 0.09545
 C1006 C 0.39119 0.27518 0.09430
 C1007 C 0.37631 0.29101 0.07499
 C1008 C 0.39121 0.30840 0.05687
 C1009 C 0.42127 0.30971 0.05848
 C1010 C 0.43618 0.29346 0.07741
 C1011 C 0.43706 0.25840 0.11503
 C1012 C 0.45937 0.24169 0.10544
 C1013 C 0.47406 0.22468 0.12379
 C1014 C 0.46732 0.22469 0.15223
 C1015 C 0.44484 0.24129 0.16176
 C1016 C 0.42972 0.25788 0.14329
 H1017 H 0.35313 0.28966 0.07424
 H1018 H 0.43330 0.32285 0.04468
 H1019 H 0.49070 0.21147 0.11575
 H1020 H 0.43917 0.24159 0.18357
 H1021 H 0.45938 0.29453 0.07807
 H1022 H 0.46508 0.24145 0.08365
 H1023 H 0.37928 0.26178 0.10794
 H1024 H 0.41257 0.27064 0.15111
 C1025 C 0.57840 0.27316 0.90583
 C1026 C 0.60659 0.26637 0.91354
 C1027 C 0.62151 0.28221 0.93282
 C1028 C 0.60866 0.30528 0.94477
 C1029 C 0.58060 0.31227 0.93686
 C1030 C 0.56562 0.29636 0.91765
 C1031 C 0.56229 0.25594 0.88580
 C1032 C 0.54420 0.26785 0.86586
 C1033 C 0.52875 0.25160 0.84733
 C1034 C 0.53103 0.22315 0.84842
 C1035 C 0.54932 0.21119 0.86801
 C1036 C 0.56473 0.22741 0.88660
 H1037 H 0.64316 0.27635 0.93837
 H1038 H 0.57003 0.32985 0.94578
 H1039 H 0.51506 0.26121 0.83206
 H1040 H 0.55125 0.18925 0.86923
 H1041 H 0.54381 0.30194 0.91246
 H1042 H 0.54221 0.28975 0.86437
 H1043 H 0.61722 0.24889 0.90450
 H1044 H 0.57814 0.21757 0.90194
 C1045 C 0.42334 0.72567 0.90450
 C1046 C 0.43772 0.70731 0.92192
 C1047 C 0.42232 0.69086 0.94029
 C1048 C 0.39230 0.69289 0.94199
 C1049 C 0.37792 0.71128 0.92454
 C1050 C 0.39330 0.72731 0.90572
 C1051 C 0.43974 0.74337 0.88543
 C1052 C 0.43286 0.74442 0.85710
 C1053 C 0.44871 0.76087 0.83906
 C1054 C 0.47148 0.77684 0.84911
 C1055 C 0.47777 0.77632 0.87764
 C1056 C 0.46235 0.75941 0.89555
 H1057 H 0.43396 0.67697 0.95361
 H1058 H 0.35480 0.71320 0.92540
 H1059 H 0.44337 0.76098 0.81719
 H1060 H 0.49460 0.78905 0.88610
 H1061 H 0.38182 0.74144 0.89253
 H1062 H 0.41551 0.73216 0.84888
 H1063 H 0.46088 0.70564 0.92119
 H1064 H 0.46774 0.75919 0.91742
 C1065 C 0.72436 0.90536 0.42076
 C1066 C 0.73245 0.91232 0.39355
 C1067 C 0.71675 0.93145 0.37842
 C1068 C 0.69244 0.94393 0.39005
 C1069 C 0.68409 0.93676 0.41711
 C1070 C 0.69992 0.91776 0.43232
 C1071 C 0.74149 0.88549 0.43710
 C1072 C 0.72794 0.86682 0.45495
 C1073 C 0.74413 0.84836 0.47048
 C1074 C 0.77414 0.84818 0.46845
 C1075 C 0.78774 0.86655 0.45050
 C1076 C 0.77161 0.88512 0.43508
 H1077 H 0.72363 0.93641 0.35755
 H1078 H 0.66556 0.94613 0.42672
 H1079 H 0.73323 0.83407 0.48396
 H1080 H 0.81091 0.86678 0.44878
 H1081 H 0.69332 0.91320 0.45336
 H1082 H 0.70480 0.86623 0.45666
 H1083 H 0.75084 0.90281 0.38382
 H1084 H 0.78278 0.89949 0.42191
 C1085 C 0.27773 0.90353 0.57687
 C1086 C 0.30200 0.91627 0.56538
 C1087 C 0.31767 0.93530 0.58078
 C1088 C 0.30932 0.94209 0.60795
 C1089 C 0.28526 0.92913 0.61953
 C1090 C 0.26972 0.91002 0.60422
 C1091 C 0.26060 0.88374 0.56042
 C1092 C 0.23050 0.88328 0.56264
 C1093 C 0.21435 0.86445 0.54758
 C1094 C 0.22789 0.84587 0.52980
 C1095 C 0.25789 0.84628 0.52740
 C1096 C 0.27410 0.86505 0.54255
 H1097 H 0.33604 0.94503 0.57123
 H1098 H 0.27838 0.93375 0.64048
 H1099 H 0.19120 0.86453 0.54957
 H1100 H 0.26875 0.83185 0.51404
 H1101 H 0.25150 0.90020 0.61391
 H1102 H 0.21938 0.89769 0.57581
 H1103 H 0.30855 0.91197 0.54426
 H1104 H 0.29724 0.86460 0.54067
 C1105 C 0.27567 0.09506 0.42353
 C1106 C 0.29979 0.08193 0.43484
 C1107 C 0.31488 0.06252 0.41939
 C1108 C 0.30608 0.05571 0.39237
 C1109 C 0.28207 0.06892 0.38103
 C1110 C 0.26712 0.08843 0.39638
 C1111 C 0.25932 0.11541 0.44001
 C1112 C 0.22921 0.11657 0.43825
 C1113 C 0.21378 0.13572 0.45363
 C1114 C 0.22809 0.15391 0.47126
 C1115 C 0.25810 0.15292 0.47307
 C1116 C 0.27359 0.13385 0.45759
 H1117 H 0.33322 0.05261 0.42876
 H1118 H 0.27486 0.06428 0.36019
 H1119 H 0.19060 0.13608 0.45213
 H1120 H 0.26953 0.16703 0.48635
 H1121 H 0.24897 0.09850 0.38685
 H1122 H 0.21750 0.10239 0.42530
 H1123 H 0.30672 0.08628 0.45582
 H1124 H 0.29676 0.13380 0.45910
 C1125 C 0.71975 0.09976 0.57671
 C1126 C 0.69671 0.08550 0.56469
 C1127 C 0.68175 0.06580 0.57989
 C1128 C 0.68965 0.05978 0.60735
 C1129 C 0.71236 0.07433 0.61950
 C1130 C 0.72711 0.09415 0.60443
 C1131 C 0.73668 0.11976 0.56027
 C1132 C 0.76660 0.12147 0.56370
 C1133 C 0.78274 0.13987 0.54814
 C1134 C 0.76944 0.15677 0.52856
 C1135 C 0.73958 0.15537 0.52515
 C1136 C 0.72333 0.13702 0.54086
 H1137 H 0.66439 0.05487 0.56993
 H1138 H 0.71878 0.07039 0.64072
 H1139 H 0.80580 0.14049 0.55089
 H1140 H 0.72892 0.16841 0.51026
 H1141 H 0.74432 0.10513 0.61455
 H1142 H 0.77769 0.10816 0.57802
 H1143 H 0.69069 0.08905 0.54329
 H1144 H 0.70031 0.13649 0.53797
 C1145 C 0.90151 0.57702 0.27924
 C1146 C 0.90383 0.57328 0.30804
 C1147 C 0.92376 0.58835 0.32343
 C1148 C 0.94124 0.60780 0.31031
 C1149 C 0.93839 0.61188 0.28157
 C1150 C 0.91892 0.59646 0.26616
 C1151 C 0.88145 0.56035 0.26260
 C1152 C 0.89134 0.54660 0.23889
 C1153 C 0.87248 0.53115 0.22281
 C1154 C 0.84338 0.52954 0.22996
 C1155 C 0.83335 0.54336 0.25352
 C1156 C 0.85235 0.55843 0.26995
 H1157 H 0.92547 0.58484 0.34556
 H1158 H 0.95166 0.62663 0.27088
 H1159 H 0.88050 0.52058 0.20466
 H1160 H 0.81092 0.54227 0.25926
 H1161 H 0.91735 0.59978 0.24399
 H1162 H 0.91372 0.54767 0.23295
 H1163 H 0.89067 0.55828 0.31850
 H1164 H 0.84428 0.56900 0.28807
 C1165 C 0.89721 0.42197 0.71696
 C1166 C 0.89803 0.39350 0.71913
 C1167 C 0.91811 0.37850 0.70391
 C1168 C 0.93722 0.39170 0.68581
 C1169 C 0.93572 0.42013 0.68302
 C1170 C 0.91610 0.43516 0.69870
 C1171 C 0.87756 0.43801 0.73459
 C1172 C 0.88850 0.45861 0.75174
 C1173 C 0.87022 0.47342 0.76902
 C1174 C 0.84051 0.46856 0.76880
 C1175 C 0.82959 0.44782 0.75168
 C1176 C 0.84801 0.43253 0.73485
 H1177 H 0.91878 0.35660 0.70638
 H1178 H 0.95030 0.43082 0.66932
 H1179 H 0.87936 0.48858 0.78273
 H1180 H 0.80681 0.44355 0.75127
 H1181 H 0.91572 0.45711 0.69671
 H1182 H 0.91130 0.46282 0.75219
 H1183 H 0.88372 0.38298 0.73323
 H1184 H 0.83920 0.41665 0.72178
 C1185 C 0.09762 0.57632 0.72047
 C1186 C 0.09517 0.57260 0.69166
 C1187 C 0.07495 0.58746 0.67643
 C1188 C 0.05730 0.60668 0.68970
 C1189 C 0.06021 0.61070 0.71844
 C1190 C 0.07998 0.59550 0.73370
 C1191 C 0.11805 0.55992 0.73695
 C1192 C 0.10855 0.54616 0.76078
 C1193 C 0.12772 0.53095 0.77671
 C1194 C 0.15678 0.52956 0.76931
 C1195 C 0.16643 0.54340 0.74563
 C1196 C 0.14711 0.55824 0.72935
 H1197 H 0.07322 0.58401 0.65429
 H1198 H 0.04684 0.62529 0.72925
 H1199 H 0.11997 0.52039 0.79497
 H1200 H 0.18882 0.54248 0.73968
 H1201 H 0.08163 0.59880 0.75587
 H1202 H 0.08622 0.54703 0.76692
 H1203 H 0.10848 0.55781 0.68108
 H1204 H 0.15489 0.56883 0.71112
 C1205 C 0.10380 0.42300 0.28205
 C1206 C 0.09022 0.43437 0.30543
 C1207 C 0.07020 0.41927 0.32066
 C1208 C 0.06324 0.39252 0.31276
 C1209 C 0.07721 0.38101 0.28972
 C1210 C 0.09730 0.39602 0.27463
 C1211 C 0.12412 0.43932 0.26501
 C1212 C 0.12416 0.43681 0.23591
 C1213 C 0.14314 0.45205 0.21975
 C1214 C 0.16230 0.47028 0.23227
 C1215 C 0.16243 0.47287 0.26128
 C1216 C 0.14350 0.45755 0.27752
 H1217 H 0.05973 0.42874 0.33826
 H1218 H 0.07254 0.36038 0.28323
 H1219 H 0.14257 0.44993 0.19737
 H1220 H 0.17732 0.48662 0.27134
 H1221 H 0.10779 0.38644 0.25712
 H1222 H 0.10919 0.42338 0.22555
 H1223 H 0.09449 0.45519 0.31153
 H1224 H 0.14429 0.45970 0.29987
   
