data_POSCAR
  _audit_creation_date              2014-09-24
  _audit_creation_method            'ToBaCCo'
  _symmetry_space_group_name_H-M    'P1'
  _symmetry_Int_Tables_number       1
  _symmetry_cell_setting            triclinic
  loop_
  _symmetry_equiv_pos_as_xyz
 x,y,z
_cell_length_a 30.7623
_cell_length_b 30.2904
_cell_length_c 16.5834
_cell_angle_alpha 90.085100
_cell_angle_beta 89.963100
_cell_angle_gamma 117.587000
loop_
  _atom_site_label
  _atom_site_type_symbol
  _atom_site_fract_x
  _atom_site_fract_y
  _atom_site_fract_z
C1 C 0.35092 0.86410 0.45806
 C2 C 0.35081 0.86547 0.54060
 C3 C 0.39614 0.90320 0.56416
 N4 N 0.42241 0.92722 0.49859
 C5 C 0.39510 0.90286 0.43400
 C6 C 0.41322 0.91581 0.64442
 C7 C 0.43853 0.96728 0.66444
 C8 C 0.42828 0.98775 0.73206
 C9 C 0.45889 1.03788 0.72987
 C10 C 0.48636 1.04741 0.65964
 N11 N 0.47287 1.00419 0.61872
 C12 C 0.52249 1.09577 0.63641
 C13 C 0.53629 1.10922 0.55487
 C14 C 0.57158 1.15559 0.52861
 C15 C 0.57177 1.15383 0.44610
 C16 C 0.53795 1.10597 0.42431
 N17 N 0.51633 1.07879 0.49082
 C18 C 0.52934 1.08794 0.34419
 C19 C 0.50060 1.03733 0.32318
 C20 C 0.50266 1.01722 0.24886
 C21 C 0.47055 0.96726 0.25218
 C22 C 0.44926 0.95835 0.32800
 N23 N 0.46751 1.00125 0.37086
 C24 C 0.41178 0.91209 0.35405
 H25 H 0.32154 0.83827 0.41999
 H26 H 0.32015 0.84194 0.57843
 H27 H 0.45494 1.00619 0.42667
 H28 H 0.40049 0.96862 0.77733
 H29 H 0.45962 1.06467 0.77385
 H30 H 0.59524 1.18753 0.56460
 H31 H 0.59527 1.18404 0.40692
 H32 H 0.46332 0.94067 0.20390
 H33 H 0.48928 0.99956 0.56660
 H34 H 0.52555 1.03640 0.19782
 C35 C -0.14756 0.37571 0.54025
 C36 C -0.14847 0.37464 0.45773
 C37 C -0.10206 0.40861 0.43188
 N38 N -0.07263 0.42969 0.49629
 C39 C -0.10017 0.40940 0.56300
 C40 C -0.08848 0.42108 0.34998
 C41 C -0.03932 0.45221 0.32509
 C42 C -0.02642 0.47646 0.25111
 C43 C 0.02361 0.50301 0.24955
 C44 C 0.04039 0.49525 0.32297
 N45 N 0.00186 0.46386 0.36868
 C46 C 0.09056 0.51713 0.34440
 C47 C 0.10765 0.52067 0.42408
 C48 C 0.15664 0.54120 0.44585
 C49 C 0.15790 0.54216 0.52850
 C50 C 0.10961 0.52190 0.55436
 N51 N 0.07903 0.50907 0.49038
 C52 C 0.09493 0.51880 0.63563
 C53 C 0.04543 0.49775 0.66167
 C54 C 0.03147 0.50084 0.74002
 C55 C -0.01864 0.47486 0.74253
 C56 C -0.03472 0.45671 0.66519
 N57 N 0.00496 0.47031 0.61671
 C58 C -0.08451 0.42453 0.64368
 H59 H -0.17887 0.35461 0.57842
 H60 H -0.18009 0.35182 0.42103
 H61 H 0.00481 0.45749 0.55878
 H62 H -0.05050 0.47633 0.20351
 H63 H 0.04510 0.52643 0.20038
 H64 H 0.18822 0.55518 0.40633
 H65 H 0.19071 0.55724 0.56520
 H66 H -0.04007 0.46898 0.79677
 H67 H 0.00377 0.44808 0.42329
 H68 H 0.05495 0.51908 0.79100
 C69 C 0.58754 0.42988 0.45893
 C70 C 0.58875 0.43114 0.54155
 C71 C 0.57875 0.46954 0.56502
 N72 N 0.57046 0.49098 0.49941
 C73 C 0.57554 0.46658 0.43466
 C74 C 0.57843 0.48524 0.64544
 C75 C 0.56051 0.51951 0.66536
 C76 C 0.57406 0.54916 0.73395
 C77 C 0.54795 0.57545 0.73374
 C78 C 0.51887 0.56134 0.66505
 N79 N 0.52725 0.52764 0.62280
 C80 C 0.48476 0.57902 0.64496
 C81 C 0.46905 0.57869 0.56459
 C82 C 0.43072 0.58799 0.54111
 C83 C 0.42924 0.58614 0.45851
 C84 C 0.46577 0.57449 0.43430
 N85 N 0.49026 0.57023 0.49904
 C86 C 0.47737 0.57015 0.35343
 C87 C 0.51018 0.55183 0.33023
 C88 C 0.52889 0.55539 0.25301
 C89 C 0.55554 0.52947 0.25314
 C90 C 0.55239 0.51075 0.33041
 N91 N 0.52466 0.52454 0.37704
 C92 C 0.57147 0.47835 0.35376
 H93 H 0.59436 0.40459 0.42113
 H94 H 0.59587 0.40626 0.57967
 H95 H 0.51143 0.51101 0.43420
 H96 H 0.60065 0.55213 0.77916
 H97 H 0.55059 0.60248 0.77878
 H98 H 0.40602 0.59500 0.57919
 H99 H 0.40394 0.59236 0.42070
 H100 H 0.57428 0.52419 0.20165
 H101 H 0.50764 0.50752 0.57270
 H102 H 0.52316 0.57392 0.20142
 O103 O 0.40922 0.68873 -0.09418
 O104 O 0.39343 0.76522 -0.06327
 C105 C 0.35989 0.76568 -0.10729
 O106 O 0.31499 0.73526 -0.09851
 O107 O 0.24170 0.64742 -0.07674
 C108 C 0.24263 0.61206 -0.11673
 O109 O 0.27236 0.59497 -0.10169
 O110 O 0.36113 0.60778 -0.07039
 C111 C 0.39564 0.64304 -0.10867
 O112 O 0.41178 0.67243 0.06525
 O113 O 0.39024 0.74451 0.09498
 C114 C 0.36022 0.76156 0.10779
 O115 O 0.32329 0.75139 0.06277
 O116 O 0.25274 0.66108 0.08398
 C117 C 0.23695 0.61490 0.09663
 O118 O 0.25181 0.58843 0.05701
 O119 O 0.34127 0.60434 0.08810
 C120 C 0.38607 0.63238 0.10361
 Cr121 Cr 0.39867 0.71609 0.00040
 Cr122 Cr 0.28486 0.69788 -0.00704
 Cr123 Cr 0.30751 0.60153 -0.00671
 O124 O 0.33025 0.67171 -0.00447
 O125 O 0.60993 0.36244 -0.06788
 O126 O 0.60021 0.27408 -0.10225
 C127 C 0.61576 0.24283 -0.11682
 O128 O 0.65027 0.24109 -0.07670
 O129 O 0.73726 0.31667 -0.10203
 C130 C 0.76640 0.36250 -0.11184
 O131 O 0.76479 0.39638 -0.06835
 O132 O 0.68887 0.41096 -0.09604
 C133 C 0.64373 0.39702 -0.10831
 O134 O 0.60857 0.34141 0.08984
 O135 O 0.59429 0.25106 0.05612
 C136 C 0.62121 0.23692 0.09552
 O137 O 0.66687 0.25466 0.08321
 O138 O 0.75522 0.32720 0.05832
 C139 C 0.76494 0.36505 0.10269
 O140 O 0.74618 0.39393 0.09124
 O141 O 0.67397 0.41399 0.06423
 C142 C 0.63531 0.38727 0.10426
 Cr143 Cr 0.60572 0.30802 -0.00604
 Cr144 Cr 0.70144 0.28654 -0.00925
 Cr145 Cr 0.71701 0.40138 -0.00240
 O146 O 0.67470 0.33196 -0.00583
 C147 C 0.36878 0.82718 -0.30826
 C148 C 0.40005 0.87834 -0.29360
 C149 C 0.42047 0.89001 -0.21455
 C150 C 0.40672 0.85384 -0.15362
 C151 C 0.37339 0.80410 -0.16956
 C152 C 0.35462 0.79138 -0.24728
 C153 C 0.35915 0.75393 -0.30006
 C154 C 0.37597 0.79267 -0.36591
 H155 H 0.44906 0.92662 -0.19917
 H156 H 0.42310 0.86463 -0.09435
 H157 H 0.32292 0.72145 -0.31240
 H158 H 0.38817 0.74428 -0.27976
 H159 H 0.35003 0.78057 -0.41752
 H160 H 0.41508 0.80635 -0.38294
 C161 C 0.15119 0.51546 -0.25784
 C162 C 0.13351 0.54291 -0.30242
 C163 C 0.14843 0.59262 -0.27947
 C164 C 0.18391 0.61522 -0.21877
 C165 C 0.20567 0.58870 -0.18066
 C166 C 0.18686 0.53803 -0.19909
 C167 C 0.21227 0.50804 -0.22094
 C168 C 0.17299 0.48301 -0.28507
 H169 H 0.13312 0.61406 -0.30931
 H170 H 0.19539 0.65383 -0.20352
 H171 H 0.21039 0.48238 -0.17166
 H172 H 0.24949 0.53117 -0.24638
 H173 H 0.14842 0.44302 -0.27237
 H174 H 0.18759 0.49113 -0.34755
 C175 C 0.45226 0.57331 -0.21852
 C176 C 0.46727 0.59846 -0.29227
 C177 C 0.46534 0.64415 -0.29920
 C178 C 0.44372 0.66002 -0.23809
 C179 C 0.42254 0.63001 -0.16976
 C180 C 0.42994 0.58818 -0.15970
 C181 C 0.39539 0.53576 -0.13714
 C182 C 0.42013 0.51940 -0.20162
 H183 H 0.47970 0.66713 -0.35234
 H184 H 0.44120 0.69422 -0.24643
 H185 H 0.35654 0.52549 -0.15146
 H186 H 0.40201 0.52662 -0.07494
 H187 H 0.39564 0.49962 -0.25312
 H188 H 0.44116 0.50102 -0.17654
 C189 C 0.56169 0.12130 -0.23155
 C190 C 0.54316 0.13203 -0.30196
 C191 C 0.54315 0.17868 -0.30532
 C192 C 0.56622 0.21470 -0.24457
 C193 C 0.59054 0.20525 -0.17989
 C194 C 0.58527 0.15706 -0.17283
 C195 C 0.62235 0.13926 -0.15764
 C196 C 0.59633 0.09981 -0.22189
 H197 H 0.52581 0.18752 -0.35517
 H198 H 0.56663 0.25052 -0.24992
 H199 H 0.61892 0.12345 -0.09612
 H200 H 0.66008 0.16708 -0.17524
 H201 H 0.57778 0.06133 -0.19732
 H202 H 0.61898 0.10464 -0.27665
 C203 C 0.87195 0.44273 -0.24827
 C204 C 0.87983 0.40835 -0.29442
 C205 C 0.85257 0.35753 -0.27360
 C206 C 0.81574 0.34222 -0.21386
 C207 C 0.80546 0.37740 -0.17336
 C208 C 0.83606 0.42778 -0.18932
 C209 C 0.82336 0.46841 -0.20992
 C210 C 0.86290 0.48482 -0.27449
 H211 H 0.85910 0.32964 -0.30457
 H212 H 0.79472 0.30287 -0.20078
 H213 H 0.83239 0.49587 -0.16009
 H214 H 0.78566 0.45400 -0.23481
 H215 H 0.89476 0.52161 -0.26170
 H216 H 0.84820 0.47994 -0.33694
 C217 C 0.57305 0.45235 -0.21800
 C218 C 0.59786 0.46795 -0.29172
 C219 C 0.64333 0.46702 -0.29855
 C220 C 0.65943 0.44558 -0.23753
 C221 C 0.62995 0.42361 -0.16925
 C222 C 0.58822 0.43021 -0.15914
 C223 C 0.53683 0.39434 -0.13673
 C224 C 0.52013 0.41885 -0.20123
 H225 H 0.66600 0.48200 -0.35159
 H226 H 0.69351 0.44382 -0.24589
 H227 H 0.52749 0.40080 -0.07454
 H228 H 0.52752 0.35508 -0.15107
 H229 H 0.50133 0.43957 -0.17617
 H230 H 0.50109 0.39381 -0.25280
 C231 C 0.87800 0.38379 0.21828
 C232 C 0.87425 0.40580 0.29070
 C233 C 0.83505 0.41767 0.29762
 C234 C 0.79950 0.40450 0.23639
 C235 C 0.80146 0.37799 0.16766
 C236 C 0.84232 0.36978 0.15883
 C237 C 0.84530 0.32302 0.14054
 C238 C 0.88453 0.33845 0.20547
 H239 H 0.83218 0.43764 0.34992
 H240 H 0.76982 0.41396 0.24381
 H241 H 0.85963 0.32337 0.07887
 H242 H 0.81101 0.28894 0.15611
 H243 H 0.92147 0.34780 0.18117
 H244 H 0.87310 0.31328 0.25869
 C245 C 0.52542 0.13740 0.22697
 C246 C 0.55329 0.12348 0.27744
 C247 C 0.60348 0.14201 0.25992
 C248 C 0.62571 0.17830 0.19944
 C249 C 0.59804 0.19656 0.15543
 C250 C 0.54723 0.17316 0.16763
 C251 C 0.51338 0.19506 0.18301
 C252 C 0.48944 0.15574 0.24797
 H253 H 0.62570 0.12997 0.29509
 H254 H 0.66478 0.19333 0.18949
 H255 H 0.48886 0.19007 0.13082
 H256 H 0.53275 0.23360 0.20729
 H257 H 0.45120 0.12799 0.23307
 H258 H 0.49484 0.17147 0.30997
 C259 C 0.55454 0.41506 0.24542
 C260 C 0.58825 0.45605 0.28924
 C261 C 0.63769 0.47841 0.26485
 C262 C 0.65321 0.45655 0.20361
 C263 C 0.61960 0.41151 0.16681
 C264 C 0.56995 0.39297 0.18649
 C265 C 0.53239 0.34182 0.20970
 C266 C 0.51512 0.36612 0.27383
 H267 H 0.66434 0.51198 0.29436
 H268 H 0.69168 0.47376 0.18745
 H269 H 0.54905 0.31927 0.23534
 H270 H 0.50495 0.32334 0.16117
 H271 H 0.52105 0.35693 0.33636
 H272 H 0.47791 0.36206 0.26173
 C273 C 0.13846 0.51487 0.22400
 C274 C 0.12698 0.54237 0.27991
 C275 C 0.14747 0.59421 0.26880
 C276 C 0.18263 0.61801 0.20806
 C277 C 0.19813 0.59034 0.15767
 C278 C 0.17351 0.53833 0.16475
 C279 C 0.19336 0.50195 0.17298
 C280 C 0.15488 0.47625 0.23784
 H281 H 0.13724 0.61631 0.30845
 H282 H 0.19888 0.65813 0.20267
 H283 H 0.23155 0.51940 0.19644
 H284 H 0.18712 0.47893 0.11778
 H285 H 0.17073 0.47871 0.29894
 H286 H 0.12643 0.43848 0.21990
 C287 C 0.35393 0.85767 0.24667
 C288 C 0.39357 0.86912 0.29836
 C289 C 0.41653 0.83831 0.29635
 C290 C 0.40434 0.80166 0.23624
 C291 C 0.36874 0.79505 0.17732
 C292 C 0.34177 0.82139 0.18756
 C293 C 0.32885 0.85064 0.12854
 C294 C 0.34197 0.89027 0.19362
 H295 H 0.44589 0.84466 0.33815
 H296 H 0.42456 0.78043 0.23356
 H297 H 0.28915 0.83178 0.11329
 H298 H 0.35408 0.86326 0.07585
 H299 H 0.30975 0.89396 0.21604
 H300 H 0.37452 0.92597 0.17830
 C301 C 0.41467 0.55162 0.24535
 C302 C 0.45488 0.58639 0.28883
 C303 C 0.47639 0.63646 0.26394
 C304 C 0.45451 0.65156 0.20258
 C305 C 0.41034 0.61690 0.16599
 C306 C 0.39258 0.56663 0.18616
 C307 C 0.34238 0.52820 0.20964
 C308 C 0.36666 0.51141 0.27414
 H309 H 0.50932 0.66392 0.29321
 H310 H 0.47107 0.69057 0.18617
 H311 H 0.32447 0.50000 0.16141
 H312 H 0.31976 0.54482 0.23486
 H313 H 0.36305 0.47371 0.26261
 H314 H 0.35750 0.51766 0.33654
   
