data_POSCAR
  _audit_creation_date              2014-09-24
  _audit_creation_method            'ToBaCCo'
  _symmetry_space_group_name_H-M    'P1'
  _symmetry_Int_Tables_number       1
  _symmetry_cell_setting            triclinic
  loop_
  _symmetry_equiv_pos_as_xyz
 x,y,z
_cell_length_a 46.8609
_cell_length_b 47.3019
_cell_length_c 46.4258
_cell_angle_alpha 90.369800
_cell_angle_beta 89.661100
_cell_angle_gamma 89.677700
loop_
  _atom_site_label
  _atom_site_type_symbol
  _atom_site_fract_x
  _atom_site_fract_y
  _atom_site_fract_z
N1 N 0.24562 1.23282 0.23319
 N2 N 0.76655 0.75358 0.23239
 N3 N 0.76773 1.23342 -0.24506
 N4 N 0.16813 0.83076 -0.16566
 C5 C 0.55896 1.03614 -0.01377
 H6 H 0.56100 1.03608 0.00944
 C7 C 0.57753 1.05230 -0.03049
 H8 H 0.59389 1.06482 -0.02018
 C9 C 0.53530 1.01975 -0.05565
 H10 H 0.51908 1.00677 -0.06542
 C11 C 0.55343 1.03560 -0.07317
 H12 H 0.55094 1.03499 -0.09635
 N13 N 0.53813 1.02060 -0.02649
 C14 C 0.47215 1.01112 0.03924
 H15 H 0.47010 0.98835 0.03920
 C16 C 0.45430 1.02766 0.05675
 H17 H 0.43852 1.01763 0.07037
 C18 C 0.49469 1.05212 0.02099
 H19 H 0.51004 1.06160 0.00661
 C20 C 0.47724 1.06945 0.03817
 H21 H 0.47940 1.09221 0.03719
 Zn22 Zn 0.51389 0.99930 -0.00225
 N23 N 0.49198 1.02349 0.02198
 C24 C 0.53688 0.97665 0.04924
 N25 N 0.53724 0.97509 0.01995
 C26 C 0.55506 0.95691 0.00571
 C27 C 0.57304 0.93885 0.02105
 C28 C 0.55451 0.95898 0.06539
 C29 C 0.46805 0.99308 -0.03966
 C30 C 0.44668 0.97907 -0.05484
 C31 C 0.46568 0.93458 -0.03799
 C32 C 0.48674 0.94942 -0.02312
 N33 N 0.48757 0.97817 -0.02427
 H34 H 0.52313 0.99169 0.06017
 H35 H 0.55524 0.95644 -0.01759
 H36 H 0.58707 0.92434 0.00958
 H37 H 0.55406 0.96030 0.08869
 H38 H 0.46887 1.01593 -0.03974
 H39 H 0.43103 0.99114 -0.06676
 H40 H 0.46488 0.91174 -0.03668
 H41 H 0.50195 0.93799 -0.01018
 C42 C 0.45686 1.05708 0.05618
 C43 C 0.57463 1.05211 -0.06045
 C44 C 0.44541 0.94958 -0.05387
 C45 C 0.57268 0.93988 0.05116
 C46 C -0.01021 0.52802 1.03951
 H47 H 0.01278 0.52997 1.03972
 C48 C -0.02701 0.54569 1.05693
 H49 H -0.01696 0.56124 1.07072
 C50 C -0.05149 0.50589 1.02074
 H51 H -0.06097 0.49077 1.00620
 C52 C -0.06909 0.52318 1.03782
 H53 H -0.09206 0.52111 1.03659
 N54 N -0.02260 0.50848 1.02203
 C55 C 0.04451 0.44580 1.00618
 H56 H 0.04525 0.44575 0.98288
 C57 C 0.06242 0.42777 1.02162
 H58 H 0.07710 0.41383 1.01022
 C59 C 0.02420 0.46367 1.04958
 H60 H 0.00897 0.47732 1.06042
 C61 C 0.04171 0.44598 1.06583
 H62 H 0.04010 0.44628 1.08912
 Zn63 Zn 0.00199 0.48680 0.99796
 N64 N 0.02610 0.46348 1.02031
 C65 C 0.05263 0.51365 0.97783
 N66 N 0.02363 0.51290 0.97632
 C67 C 0.00880 0.53233 0.96084
 C68 C 0.02315 0.55355 0.94597
 C69 C 0.06783 0.53457 0.96327
 C70 C -0.03516 0.44228 0.98585
 C71 C -0.05129 0.42394 0.96889
 C72 C -0.03398 0.44792 0.92648
 C73 C -0.01818 0.46584 0.94423
 N74 N -0.01933 0.46295 0.97338
 H75 H 0.06399 0.49850 0.99083
 H76 H -0.01426 0.53157 0.96048
 H77 H 0.01114 0.56914 0.93400
 H78 H 0.09086 0.53532 0.96490
 H79 H -0.03534 0.44020 1.00905
 H80 H -0.06403 0.40769 0.97900
 H81 H -0.03311 0.45044 0.90331
 H82 H -0.00496 0.48192 0.93468
 C83 C 0.06102 0.42792 1.05171
 C84 C -0.05671 0.54326 1.05604
 C85 C -0.05077 0.42687 0.93894
 C86 C 0.05291 0.55476 0.94733
 C87 C 1.03679 -0.00790 0.53393
 H88 H 1.03701 0.01496 0.53318
 C89 C 1.05160 -0.02203 0.55555
 H90 H 1.06337 -0.01007 0.57147
 C91 C 1.02031 -0.05142 0.51476
 H92 H 1.00756 -0.06275 0.49926
 C93 C 1.03482 -0.06639 0.53607
 H94 H 1.03340 -0.08923 0.53676
 N95 N 1.02163 -0.02268 0.51404
 C96 C 1.01250 0.03537 0.44192
 H97 H 0.98954 0.03545 0.43959
 C98 C 1.02941 0.05139 0.42338
 H99 H 1.01949 0.06396 0.40674
 C100 C 1.05359 0.01872 0.46630
 H101 H 1.06297 0.00568 0.48278
 C102 C 1.07128 0.03443 0.44821
 H103 H 1.09421 0.03365 0.45099
 Zn104 Zn 1.00028 -0.00139 0.48726
 N105 N 1.02474 0.01975 0.46310
 C106 C 0.97742 0.05158 0.50639
 N107 N 0.97619 0.02296 0.50910
 C108 C 0.95875 0.01072 0.52890
 C109 C 0.94130 0.02738 0.54670
 C110 C 0.96031 0.06903 0.52379
 C111 C 0.99260 -0.04366 0.44550
 C112 C 0.97752 -0.06158 0.42711
 C113 C 0.93349 -0.04127 0.44533
 C114 C 0.94938 -0.02374 0.46339
 N115 N 0.97839 -0.02544 0.46338
 H116 H 0.99193 0.06096 0.49108
 H117 H 0.95858 -0.01205 0.53096
 H118 H 0.92754 0.01746 0.56246
 H119 H 0.96149 0.09179 0.52163
 H120 H 1.01568 -0.04424 0.44561
 H121 H 0.98897 -0.07611 0.41303
 H122 H 0.91041 -0.03984 0.44550
 H123 H 0.93848 -0.00867 0.47719
 C124 C 1.05906 0.05100 0.42665
 C125 C 1.05050 -0.05153 0.55669
 C126 C 0.94769 -0.06040 0.42709
 C127 C 0.94213 0.05680 0.54414
 C128 C 0.22935 0.25062 1.21616
 C129 C 0.21506 0.26609 1.20147
 C130 C 0.19779 0.28450 1.18412
 C131 C 0.16973 0.29080 1.19254
 C132 C 0.15289 0.30872 1.17580
 C133 C 0.16390 0.32059 1.15037
 C134 C 0.19212 0.31406 1.14205
 C135 C 0.20894 0.29614 1.15884
 C136 C 0.14602 0.33972 1.13265
 C137 C 0.14671 0.33789 1.10238
 C138 C 0.12969 0.35579 1.08577
 C139 C 0.11180 0.37575 1.09917
 C140 C 0.11103 0.37779 1.12925
 C141 C 0.12800 0.35991 1.14589
 C142 C 0.09410 0.39406 1.08215
 C143 C 0.07911 0.40946 1.06814
 H144 H 0.16085 0.28181 1.21202
 H145 H 0.13114 0.31301 1.18257
 H146 H 0.20132 0.32314 1.12278
 H147 H 0.23066 0.29145 1.15217
 H148 H 0.16009 0.32234 1.09157
 H149 H 0.13039 0.35398 1.06250
 H150 H 0.09731 0.39322 1.13984
 H151 H 0.12728 0.36211 1.16912
 C152 C -0.21793 0.73378 1.21654
 C153 C -0.20441 0.71656 1.20279
 C154 C -0.18819 0.69607 1.18641
 C155 C -0.19163 0.69404 1.15655
 C156 C -0.17570 0.67430 1.14059
 C157 C -0.15607 0.65632 1.15432
 C158 C -0.15285 0.65847 1.18437
 C159 C -0.16881 0.67822 1.20029
 C160 C -0.13884 0.63562 1.13733
 C161 C -0.10984 0.63115 1.14366
 C162 C -0.09351 0.61197 1.12741
 C163 C -0.10591 0.59699 1.10467
 C164 C -0.13477 0.60117 1.09828
 C165 C -0.15115 0.62035 1.11449
 C166 C -0.08887 0.57771 1.08762
 C167 C -0.07435 0.56184 1.07326
 H168 H -0.20652 0.70783 1.14558
 H169 H -0.17840 0.67343 1.11746
 H170 H -0.13819 0.64469 1.19561
 H171 H -0.16604 0.67956 1.22341
 H172 H -0.09964 0.64285 1.16084
 H173 H -0.07115 0.60899 1.13246
 H174 H -0.14459 0.58965 1.08073
 H175 H -0.17349 0.62306 1.10932
 C176 C -0.21614 0.25015 0.77051
 C177 C -0.20136 0.26553 0.78487
 C178 C -0.18381 0.28380 0.80210
 C179 C -0.17540 0.31012 0.79154
 C180 C -0.15850 0.32795 0.80836
 C181 C -0.14975 0.31964 0.83601
 C182 C -0.15827 0.29309 0.84640
 C183 C -0.17520 0.27531 0.82955
 C184 C -0.13195 0.33863 0.85399
 C185 C -0.10943 0.32763 0.87052
 C186 C -0.09282 0.34551 0.88758
 C187 C -0.09849 0.37458 0.88839
 C188 C -0.12079 0.38574 0.87200
 C189 C -0.13742 0.36791 0.85490
 C190 C -0.08155 0.39295 0.90615
 C191 C -0.06746 0.40838 0.92107
 H192 H -0.18189 0.31687 0.77029
 H193 H -0.15199 0.34809 0.79961
 H194 H -0.15221 0.28624 0.86773
 H195 H -0.18166 0.25500 0.83797
 H196 H -0.10446 0.30525 0.86999
 H197 H -0.07556 0.33666 0.90014
 H198 H -0.12542 0.40820 0.87254
 H199 H -0.15482 0.37697 0.84274
 C200 C 0.16103 0.80317 0.84114
 C201 C 0.15442 0.77938 0.84745
 C202 C 0.14585 0.75138 0.85561
 C203 C 0.11896 0.74135 0.84770
 C204 C 0.10972 0.71494 0.85720
 C205 C 0.12726 0.69822 0.87483
 C206 C 0.15450 0.70825 0.88219
 C207 C 0.16370 0.73468 0.87265
 C208 C 0.11661 0.67106 0.88652
 C209 C 0.12179 0.66378 0.91537
 C210 C 0.11021 0.63916 0.92698
 C211 C 0.09336 0.62145 0.90993
 C212 C 0.08855 0.62818 0.88105
 C213 C 0.10011 0.65281 0.86939
 C214 C 0.07978 0.59726 0.92257
 C215 C 0.06783 0.57757 0.93361
 H216 H 0.10490 0.75419 0.83467
 H217 H 0.08849 0.70803 0.85151
 H218 H 0.16862 0.69573 0.89545
 H219 H 0.18455 0.74227 0.87892
 H220 H 0.13403 0.67757 0.92924
 H221 H 0.11390 0.63425 0.94942
 H222 H 0.07550 0.61463 0.86768
 H223 H 0.09603 0.65766 0.84702
 C224 C 1.22893 0.21592 0.25076
 C225 C 1.21433 0.20128 0.26601
 C226 C 1.19675 0.18389 0.28413
 C227 C 1.16871 0.19218 0.29057
 C228 C 1.15157 0.17533 0.30815
 C229 C 1.16228 0.14992 0.31954
 C230 C 1.19051 0.14177 0.31292
 C231 C 1.20761 0.15865 0.29532
 C232 C 1.14409 0.13205 0.33828
 C233 C 1.15556 0.11898 0.36282
 C234 C 1.13836 0.10235 0.38057
 C235 C 1.10951 0.09854 0.37404
 C236 C 1.09792 0.11137 0.34965
 C237 C 1.11507 0.12802 0.33188
 C238 C 1.09176 0.08165 0.39249
 C239 C 1.07686 0.06761 0.40802
 H240 H 1.16012 0.21172 0.28207
 H241 H 1.13007 0.18237 0.31315
 H242 H 1.19925 0.12216 0.32105
 H243 H 1.22926 0.15199 0.29039
 H244 H 1.17771 0.12197 0.36853
 H245 H 1.14752 0.09259 0.39946
 H246 H 1.07563 0.10850 0.34437
 H247 H 1.10571 0.13748 0.31295
 C248 C 1.16066 -0.16159 0.80659
 C249 C 1.15377 -0.15456 0.78268
 C250 C 1.14494 -0.14554 0.75455
 C251 C 1.15271 -0.11882 0.74454
 C252 C 1.14267 -0.10921 0.71804
 C253 C 1.12463 -0.12622 0.70120
 C254 C 1.11738 -0.15329 0.71121
 C255 C 1.12746 -0.16286 0.73773
 C256 C 1.11250 -0.11524 0.67395
 C257 C 1.08372 -0.12011 0.66710
 C258 C 1.07178 -0.10838 0.64235
 C259 C 1.08841 -0.09169 0.62409
 C260 C 1.11719 -0.08715 0.63040
 C261 C 1.12919 -0.09886 0.65515
 C262 C 1.07553 -0.07813 0.59970
 C263 C 1.06433 -0.06627 0.57980
 H264 H 1.16609 -0.10517 0.75747
 H265 H 1.14830 -0.08813 0.71115
 H266 H 1.10381 -0.16701 0.69858
 H267 H 1.12130 -0.18358 0.74529
 H268 H 1.07019 -0.13227 0.68132
 H269 H 1.04942 -0.11187 0.63777
 H270 H 1.13025 -0.07423 0.61642
 H271 H 1.15148 -0.09501 0.65966
 C272 C 0.78369 -0.23004 0.25004
 C273 C 0.79850 -0.21565 0.26536
 C274 C 0.81602 -0.19824 0.28354
 C275 C 0.84026 -0.20963 0.29667
 C276 C 0.85724 -0.19267 0.31434
 C277 C 0.85019 -0.16404 0.31905
 C278 C 0.82577 -0.15280 0.30571
 C279 C 0.80882 -0.16980 0.28809
 C280 C 0.86812 -0.14598 0.33787
 C281 C 0.87401 -0.11785 0.33026
 C282 C 0.89055 -0.10073 0.34818
 C283 C 0.90143 -0.11147 0.37392
 C284 C 0.89582 -0.13946 0.38162
 C285 C 0.87930 -0.15663 0.36372
 C286 C 0.91799 -0.09364 0.39259
 C287 C 0.93165 -0.07856 0.40829
 H288 H 0.84606 -0.23160 0.29322
 H289 H 0.87608 -0.20184 0.32401
 H290 H 0.81955 -0.13096 0.30923
 H291 H 0.79006 -0.16079 0.27808
 H292 H 0.86604 -0.10915 0.31033
 H293 H 0.89480 -0.07911 0.34199
 H294 H 0.90405 -0.14795 0.40156
 H295 H 0.87485 -0.17807 0.37035
 C296 C 0.78247 0.21863 0.73593
 C297 C 0.79599 0.20501 0.71845
 C298 C 0.81212 0.18864 0.69774
 C299 C 0.80010 0.16459 0.68509
 C300 C 0.81587 0.14845 0.66524
 C301 C 0.84390 0.15616 0.65778
 C302 C 0.85574 0.18046 0.67053
 C303 C 0.83993 0.19656 0.69038
 C304 C 0.86084 0.13877 0.63704
 C305 C 0.87844 0.15169 0.61634
 C306 C 0.89464 0.13525 0.59709
 C307 C 0.89346 0.10572 0.59827
 C308 C 0.87595 0.09268 0.61870
 C309 C 0.85973 0.10907 0.63795
 C310 C 0.91051 0.08875 0.57884
 C311 C 0.92487 0.07431 0.56285
 H312 H 0.77856 0.15830 0.69058
 H313 H 0.80604 0.13008 0.65553
 H314 H 0.87738 0.18674 0.66552
 H315 H 0.84947 0.21509 0.70013
 H316 H 0.87948 0.17449 0.61486
 H317 H 0.90810 0.14556 0.58133
 H318 H 0.87498 0.06984 0.61989
 H319 H 0.84671 0.09849 0.65388
 C320 C 0.26549 1.21732 0.21732
 C321 C 0.28278 1.20381 0.20356
 C322 C 0.30333 1.18758 0.18718
 C323 C 0.31793 1.16514 0.20006
 C324 C 0.33771 1.14918 0.18410
 C325 C 0.34315 1.15548 0.15500
 C326 C 0.32842 1.17817 0.14229
 C327 C 0.30864 1.19409 0.15828
 C328 C 0.36388 1.13831 0.13792
 C329 C 0.38261 1.15128 0.11828
 C330 C 0.40187 1.13502 0.10198
 C331 C 0.40267 1.10562 0.10508
 C332 C 0.38422 1.09253 0.12462
 C333 C 0.36496 1.10874 0.14095
 C334 C 0.42211 1.08879 0.08794
 C335 C 0.43811 1.07446 0.07351
 H336 H 0.31403 1.15997 0.22244
 H337 H 0.34897 1.13210 0.19460
 H338 H 0.33185 1.18331 0.11984
 H339 H 0.29738 1.21136 0.14808
 H340 H 0.38254 1.17402 0.11572
 H341 H 0.41609 1.14536 0.08694
 H342 H 0.38458 1.06977 0.12709
 H343 H 0.35057 1.09809 0.15557
 C344 C 0.75103 1.21756 -0.22918
 C345 C 0.73569 1.20299 -0.21457
 C346 C 0.71747 1.18563 -0.19708
 C347 C 0.71084 1.19383 -0.16880
 C348 C 0.69319 1.17696 -0.15176
 C349 C 0.68192 1.15162 -0.16282
 C350 C 0.68872 1.14357 -0.19129
 C351 C 0.70639 1.16047 -0.20828
 C352 C 0.66311 1.13372 -0.14475
 C353 C 0.63888 1.12076 -0.15664
 C354 C 0.62109 1.10405 -0.13957
 C355 C 0.62728 1.10004 -0.11043
 C356 C 0.65136 1.11278 -0.09840
 C357 C 0.66916 1.12951 -0.11542
 C358 C 0.60883 1.08303 -0.09283
 C359 C 0.59329 1.06888 -0.07807
 H360 H 0.71926 1.21330 -0.15994
 H361 H 0.68805 1.18392 -0.13008
 H362 H 0.68068 1.12402 -0.20029
 H363 H 0.71147 1.15388 -0.23012
 H364 H 0.63343 1.12389 -0.17903
 H365 H 0.60245 1.09437 -0.14907
 H366 H 0.65638 1.10976 -0.07587
 H367 H 0.68784 1.13889 -0.10573
 C368 C 0.19586 0.83788 -0.15847
 C369 C 0.21977 0.84449 -0.15182
 C370 C 0.24790 0.85307 -0.14328
 C371 C 0.25747 0.84738 -0.11541
 C372 C 0.28399 0.85734 -0.10634
 C373 C 0.30129 0.87320 -0.12504
 C374 C 0.29171 0.87832 -0.15322
 C375 C 0.26517 0.86833 -0.16225
 C376 C 0.32854 0.88540 -0.11470
 C377 C 0.33613 0.91319 -0.12204
 C378 C 0.36085 0.92538 -0.11087
 C379 C 0.37835 0.90997 -0.09229
 C380 C 0.37131 0.88212 -0.08531
 C381 C 0.34659 0.86988 -0.09645
 C382 C 0.40266 0.92329 -0.07929
 C383 C 0.42246 0.93499 -0.06794
 H384 H 0.24419 0.83574 -0.10049
 H385 H 0.29054 0.85339 -0.08440
 H386 H 0.30468 0.89016 -0.16822
 H387 H 0.25795 0.87287 -0.18387
 H388 H 0.32250 0.92584 -0.13568
 H389 H 0.36599 0.94702 -0.11626
 H390 H 0.38470 0.87001 -0.07091
 H391 H 0.34150 0.84834 -0.09068
 C392 C 0.74877 0.76989 0.21533
 C393 C 0.73334 0.78423 0.20064
 C394 C 0.71498 0.80160 0.18332
 C395 C 0.70634 0.82826 0.19341
 C396 C 0.68851 0.84523 0.17668
 C397 C 0.67908 0.83575 0.14958
 C398 C 0.68794 0.80893 0.13960
 C399 C 0.70576 0.79197 0.15639
 C400 C 0.66010 0.85379 0.13185
 C401 C 0.66419 0.85565 0.10187
 C402 C 0.64645 0.87288 0.08528
 C403 C 0.62440 0.88843 0.09841
 C404 C 0.62009 0.88663 0.12819
 C405 C 0.63780 0.86944 0.14482
 C406 C 0.60628 0.90638 0.08144
 C407 C 0.59102 0.92157 0.06749
 H408 H 0.71344 0.83596 0.21418
 H409 H 0.68240 0.86592 0.18479
 H410 H 0.68078 0.80090 0.11900
 H411 H 0.71229 0.77134 0.14840
 H412 H 0.68137 0.84414 0.09131
 H413 H 0.65003 0.87418 0.06225
 H414 H 0.60303 0.89852 0.13857
 H415 H 0.63385 0.86816 0.16777
   
