data_POSCAR
  _audit_creation_date              2014-09-24
  _audit_creation_method            'ToBaCCo'
  _symmetry_space_group_name_H-M    'P1'
  _symmetry_Int_Tables_number       1
  _symmetry_cell_setting            triclinic
  loop_
  _symmetry_equiv_pos_as_xyz
 x,y,z
_cell_length_a 40.7521
_cell_length_b 40.7966
_cell_length_c 23.0386
_cell_angle_alpha 89.871200
_cell_angle_beta 90.064500
_cell_angle_gamma 120.037500
loop_
  _atom_site_label
  _atom_site_type_symbol
  _atom_site_fract_x
  _atom_site_fract_y
  _atom_site_fract_z
O1 O 0.54578 1.03754 0.55562
 O2 O 0.50893 0.96390 0.44254
 O3 O 0.54606 1.03759 0.44254
 O4 O 0.50918 0.96386 0.55559
 O5 O 0.45502 0.96378 0.55557
 O6 O 0.49200 1.03758 0.44231
 O7 O 0.45481 0.96390 0.44253
 O8 O 0.49163 1.03746 0.55539
 Cu9 Cu 0.53291 1.00073 0.49908
 Cu10 Cu 0.46795 1.00068 0.49893
 C11 C 0.52497 1.05007 0.57494
 C12 C 0.47555 0.95131 0.42312
 C13 C 0.52540 1.05026 0.42285
 C14 C 0.47581 0.95121 0.57503
 O15 O 0.03563 0.54471 0.44331
 O16 O -0.03816 0.50781 0.55649
 O17 O 0.03560 0.54496 0.55635
 O18 O -0.03813 0.50806 0.44339
 O19 O -0.03816 0.45404 0.44351
 O20 O 0.03563 0.49092 0.55669
 O21 O -0.03813 0.45382 0.55661
 O22 O 0.03560 0.49064 0.44365
 Cu23 Cu -0.00128 0.53179 0.49986
 Cu24 Cu -0.00128 0.46694 0.50014
 C25 C 0.04823 0.52396 0.42405
 C26 C -0.05080 0.47446 0.57614
 C27 C 0.04823 0.52428 0.57595
 C28 C -0.05080 0.47475 0.42385
 O29 O 0.54578 0.50825 0.44438
 O30 O 0.50893 0.54504 0.55746
 O31 O 0.54606 0.50848 0.55745
 O32 O 0.50917 0.54532 0.44441
 O33 O 0.45502 0.49124 0.44442
 O34 O 0.49199 0.45441 0.55769
 O35 O 0.45481 0.49092 0.55747
 O36 O 0.49162 0.45417 0.44461
 Cu37 Cu 0.53291 0.53218 0.50092
 Cu38 Cu 0.46795 0.46727 0.50106
 C39 C 0.52496 0.47490 0.42506
 C40 C 0.47555 0.52424 0.57687
 C41 C 0.52540 0.47515 0.57715
 C42 C 0.47581 0.52461 0.42497
 O43 O 0.39041 0.65816 -0.04894
 O44 O 0.38881 0.72051 -0.06659
 C45 C 0.37070 0.73750 -0.07758
 O46 O 0.34168 0.73219 -0.04938
 O47 O 0.27923 0.66820 -0.06659
 C48 C 0.26220 0.63310 -0.07735
 O49 O 0.26751 0.60942 -0.04902
 O50 O 0.33155 0.61106 -0.06624
 C51 C 0.36669 0.62916 -0.07710
 O52 O 0.38882 0.66831 0.06659
 O53 O 0.39041 0.73225 0.04894
 C54 C 0.36669 0.73753 0.07710
 O55 O 0.33155 0.72049 0.06623
 O56 O 0.26751 0.65809 0.04901
 C57 C 0.26220 0.62910 0.07735
 O58 O 0.27923 0.61103 0.06659
 O59 O 0.34168 0.60949 0.04938
 C60 C 0.37070 0.63320 0.07758
 Cr61 Cr 0.38748 0.69374 -0.00000
 Cr62 Cr 0.30606 0.69368 -0.00017
 Cr63 Cr 0.30606 0.61238 0.00017
 O64 O 0.33320 0.66660 0.00001
 O65 O 0.60972 0.34194 -0.04917
 O66 O 0.61132 0.27961 -0.06644
 C67 C 0.62945 0.26265 -0.07730
 O68 O 0.65846 0.26792 -0.04903
 O69 O 0.72090 0.33191 -0.06640
 C70 C 0.73789 0.36701 -0.07739
 O71 O 0.73261 0.39068 -0.04921
 O72 O 0.66858 0.38906 -0.06657
 C73 C 0.63344 0.37095 -0.07745
 O74 O 0.61132 0.33172 0.06644
 O75 O 0.60972 0.26779 0.04917
 C76 C 0.63344 0.26250 0.07744
 O77 O 0.66858 0.27953 0.06657
 O78 O 0.73261 0.34194 0.04921
 C79 C 0.73789 0.37090 0.07739
 O80 O 0.72090 0.38901 0.06640
 O81 O 0.65846 0.39055 0.04902
 C82 C 0.62945 0.36681 0.07730
 Cr83 Cr 0.61265 0.30633 -0.00000
 Cr84 Cr 0.69407 0.30639 0.00008
 Cr85 Cr 0.69407 0.38769 -0.00009
 O86 O 0.66693 0.33347 0.00000
 C87 C 0.41078 0.87996 -0.31303
 C88 C 0.43371 0.86626 -0.29124
 C89 C 0.47027 0.88012 -0.31341
 C90 C 0.48394 0.90766 -0.35708
 C91 C 0.46116 0.92173 -0.37917
 C92 C 0.42438 0.90751 -0.35672
 C93 C 0.41990 0.83825 -0.24578
 C94 C 0.40849 0.81493 -0.20751
 C95 C 0.39527 0.78779 -0.16247
 C96 C 0.38405 0.76475 -0.12381
 H97 H 0.38243 0.86944 -0.29614
 H98 H 0.48827 0.86972 -0.29682
 H99 H 0.51237 0.91799 -0.37338
 H100 H 0.40613 0.91774 -0.37276
 C101 C 0.11950 0.53057 -0.31211
 C102 C 0.13324 0.56720 -0.29053
 C103 C 0.11939 0.58987 -0.31284
 C104 C 0.09183 0.57597 -0.35643
 C105 C 0.07772 0.53913 -0.37831
 C106 C 0.09193 0.51660 -0.35572
 C107 C 0.16129 0.58143 -0.24517
 C108 C 0.18465 0.59337 -0.20699
 C109 C 0.21183 0.60732 -0.16205
 C110 C 0.23491 0.61915 -0.12348
 H111 H 0.13001 0.51277 -0.29511
 H112 H 0.12982 0.61826 -0.29642
 H113 H 0.08151 0.59405 -0.37285
 H114 H 0.08167 0.48813 -0.37159
 C115 C 0.40993 0.52970 -0.31190
 C116 C 0.43264 0.56622 -0.28982
 C117 C 0.46931 0.58915 -0.31154
 C118 C 0.48328 0.57559 -0.35507
 C119 C 0.46070 0.53884 -0.37744
 C120 C 0.42382 0.51606 -0.35541
 C121 C 0.41840 0.58001 -0.24455
 C122 C 0.40645 0.59141 -0.20645
 C123 C 0.39249 0.60461 -0.16162
 C124 C 0.38064 0.61583 -0.12313
 H125 H 0.38151 0.51170 -0.29537
 H126 H 0.48714 0.61747 -0.29472
 H127 H 0.51178 0.59383 -0.37107
 H128 H 0.40572 0.48766 -0.37166
 C129 C 0.53031 0.12081 -0.31354
 C130 C 0.56682 0.13458 -0.29118
 C131 C 0.58980 0.12096 -0.31288
 C132 C 0.57629 0.09357 -0.35663
 C133 C 0.53955 0.07943 -0.37925
 C134 C 0.51673 0.09344 -0.35727
 C135 C 0.58054 0.16242 -0.24564
 C136 C 0.59187 0.18559 -0.20730
 C137 C 0.60500 0.21257 -0.16220
 C138 C 0.61617 0.23550 -0.12352
 H139 H 0.51228 0.13115 -0.29703
 H140 H 0.61811 0.13141 -0.29585
 H141 H 0.59456 0.08339 -0.37258
 H142 H 0.48833 0.08316 -0.37371
 C143 C 0.87975 0.40981 -0.31396
 C144 C 0.86600 0.43251 -0.29183
 C145 C 0.87961 0.46905 -0.31385
 C146 C 0.90701 0.48295 -0.35771
 C147 C 0.92129 0.46042 -0.38027
 C148 C 0.90714 0.42356 -0.35780
 C149 C 0.83816 0.41842 -0.24614
 C150 C 0.81499 0.40658 -0.20769
 C151 C 0.78801 0.39273 -0.16246
 C152 C 0.76507 0.38094 -0.12369
 H153 H 0.86939 0.38146 -0.29718
 H154 H 0.86915 0.48688 -0.29699
 H155 H 0.91705 0.51140 -0.37369
 H156 H 0.91726 0.40527 -0.37383
 C157 C 0.59030 0.47034 -0.31342
 C158 C 0.56760 0.43383 -0.29118
 C159 C 0.53097 0.41090 -0.31292
 C160 C 0.51698 0.42444 -0.35663
 C161 C 0.53950 0.46127 -0.37932
 C162 C 0.57645 0.48400 -0.35711
 C163 C 0.58181 0.42005 -0.24568
 C164 C 0.59373 0.40867 -0.20739
 C165 C 0.60766 0.39548 -0.16233
 C166 C 0.61949 0.38427 -0.12366
 H167 H 0.61870 0.48833 -0.29686
 H168 H 0.51315 0.38258 -0.29596
 H169 H 0.48847 0.40600 -0.37240
 H170 H 0.59474 0.51245 -0.37325
 C171 C 0.87961 0.41058 0.31385
 C172 C 0.86599 0.43350 0.29182
 C173 C 0.87975 0.46996 0.31395
 C174 C 0.90714 0.48359 0.35780
 C175 C 0.92129 0.46088 0.38027
 C176 C 0.90701 0.42408 0.35771
 C177 C 0.83816 0.41976 0.24614
 C178 C 0.81499 0.40843 0.20769
 C179 C 0.78801 0.39530 0.16246
 C180 C 0.76507 0.38415 0.12369
 H181 H 0.86914 0.38228 0.29699
 H182 H 0.86940 0.48795 0.29718
 H183 H 0.91727 0.51201 0.37382
 H184 H 0.91704 0.40566 0.37369
 C185 C 0.53097 0.12008 0.31292
 C186 C 0.56760 0.13378 0.29117
 C187 C 0.59030 0.11997 0.31342
 C188 C 0.57645 0.09245 0.35711
 C189 C 0.53950 0.07823 0.37932
 C190 C 0.51698 0.09255 0.35663
 C191 C 0.58181 0.16177 0.24568
 C192 C 0.59373 0.18507 0.20738
 C193 C 0.60766 0.21220 0.16232
 C194 C 0.61949 0.23523 0.12366
 H195 H 0.51316 0.13058 0.29595
 H196 H 0.61871 0.13039 0.29686
 H197 H 0.59474 0.08230 0.37325
 H198 H 0.48847 0.08247 0.37240
 C199 C 0.53031 0.40950 0.31353
 C200 C 0.56682 0.43225 0.29118
 C201 C 0.58980 0.46885 0.31288
 C202 C 0.57629 0.48273 0.35663
 C203 C 0.53955 0.46012 0.37925
 C204 C 0.51673 0.42330 0.35727
 C205 C 0.58054 0.41813 0.24563
 C206 C 0.59186 0.40628 0.20730
 C207 C 0.60500 0.39244 0.16220
 C208 C 0.61616 0.38068 0.12352
 H209 H 0.51228 0.38113 0.29703
 H210 H 0.61811 0.48670 0.29585
 H211 H 0.59456 0.51118 0.37258
 H212 H 0.48833 0.40518 0.37371
 C213 C 0.11950 0.58893 0.31210
 C214 C 0.13324 0.56604 0.29053
 C215 C 0.11939 0.52952 0.31284
 C216 C 0.09183 0.51586 0.35643
 C217 C 0.07772 0.53859 0.37830
 C218 C 0.09193 0.57533 0.35572
 C219 C 0.16129 0.57985 0.24517
 C220 C 0.18464 0.59127 0.20698
 C221 C 0.21183 0.60451 0.16205
 C222 C 0.23491 0.61575 0.12348
 H223 H 0.13002 0.61724 0.29511
 H224 H 0.12981 0.51155 0.29642
 H225 H 0.08150 0.48746 0.37285
 H226 H 0.08168 0.59354 0.37159
 C227 C 0.40993 0.88024 0.31189
 C228 C 0.43264 0.86642 0.28982
 C229 C 0.46931 0.88016 0.31154
 C230 C 0.48328 0.90770 0.35507
 C231 C 0.46070 0.92187 0.37744
 C232 C 0.42383 0.90777 0.35541
 C233 C 0.41840 0.83839 0.24455
 C234 C 0.40645 0.81505 0.20645
 C235 C 0.39249 0.78788 0.16162
 C236 C 0.38064 0.76481 0.12313
 H237 H 0.38151 0.86981 0.29536
 H238 H 0.48713 0.86967 0.29472
 H239 H 0.51178 0.91795 0.37107
 H240 H 0.40572 0.91806 0.37166
 C241 C 0.47027 0.59016 0.31340
 C242 C 0.43371 0.56745 0.29124
 C243 C 0.41078 0.53082 0.31303
 C244 C 0.42437 0.51687 0.35672
 C245 C 0.46116 0.53944 0.37916
 C246 C 0.48394 0.57629 0.35707
 C247 C 0.41990 0.58165 0.24578
 C248 C 0.40849 0.59357 0.20751
 C249 C 0.39527 0.60748 0.16247
 C250 C 0.38405 0.61929 0.12381
 H251 H 0.48827 0.61855 0.29681
 H252 H 0.38243 0.51299 0.29614
 H253 H 0.40613 0.48840 0.37276
 H254 H 0.51237 0.59439 0.37338
   
