data_POSCAR
  _audit_creation_date              2014-09-24
  _audit_creation_method            'ToBaCCo'
  _symmetry_space_group_name_H-M    'P1'
  _symmetry_Int_Tables_number       1
  _symmetry_cell_setting            triclinic
  loop_
  _symmetry_equiv_pos_as_xyz
 x,y,z
_cell_length_a 38.0343
_cell_length_b 38.0449
_cell_length_c 30.1698
_cell_angle_alpha 90.111000
_cell_angle_beta 89.943000
_cell_angle_gamma 120.094000
loop_
  _atom_site_label
  _atom_site_type_symbol
  _atom_site_fract_x
  _atom_site_fract_y
  _atom_site_fract_z
C1 C 0.08575 0.56098 0.10152
 C2 C 0.08434 0.52435 0.10285
 C3 C 0.05687 0.50005 0.07056
 N4 N 0.04147 0.52080 0.04973
 C5 C 0.05900 0.55808 0.06854
 C6 C 0.04789 0.46006 0.06026
 C7 C 0.02082 0.43535 0.02658
 C8 C 0.01669 0.39873 0.01254
 C9 C -0.01168 0.38444 -0.02088
 C10 C -0.02427 0.41269 -0.02652
 N11 N -0.00477 0.44325 0.00311
 C12 C -0.05306 0.40937 -0.05854
 C13 C -0.06171 0.44060 -0.06905
 C14 C -0.08913 0.43744 -0.10139
 C15 C -0.08772 0.47404 -0.10274
 C16 C -0.05959 0.49872 -0.07109
 N17 N -0.04379 0.47811 -0.05066
 C18 C -0.05018 0.53901 -0.06119
 C19 C -0.02267 0.56395 -0.02781
 C20 C -0.01768 0.60110 -0.01427
 C21 C 0.01071 0.61525 0.01914
 C22 C 0.02245 0.58646 0.02529
 N23 N 0.00248 0.55568 -0.00399
 C24 C 0.05076 0.58944 0.05766
 H25 H 0.10429 0.58673 0.12271
 H26 H 0.10186 0.51668 0.12498
 H27 H 0.00774 0.53186 -0.00942
 H28 H 0.03283 0.38400 0.02471
 H29 H -0.02154 0.35661 -0.03934
 H30 H -0.10807 0.41151 -0.12218
 H31 H -0.10566 0.48148 -0.12450
 H32 H 0.02108 0.64333 0.03727
 H33 H -0.01078 0.46651 0.00919
 H34 H -0.03333 0.61623 -0.02675
 C35 C 0.52505 0.43923 -0.10390
 C36 C 0.56166 0.47456 -0.10226
 C37 C 0.55866 0.49824 -0.06909
 N38 N 0.52132 0.47825 -0.05042
 C39 C 0.50059 0.44210 -0.07155
 C40 C 0.59004 0.53789 -0.05786
 C41 C 0.58698 0.56317 -0.02542
 C42 C 0.61586 0.60372 -0.01884
 C43 C 0.60148 0.61792 0.01442
 C44 C 0.56417 0.58572 0.02737
 N45 N 0.55596 0.55231 0.00345
 C46 C 0.53899 0.58833 0.06027
 C47 C 0.49865 0.55751 0.06975
 C48 C 0.47380 0.56111 0.10094
 C49 C 0.43716 0.52578 0.09936
 C50 C 0.44060 0.50143 0.06735
 N51 N 0.47821 0.52097 0.04935
 C52 C 0.40954 0.46146 0.05684
 C53 C 0.41299 0.43588 0.02510
 C54 C 0.38481 0.39496 0.01974
 C55 C 0.39911 0.38070 -0.01350
 C56 C 0.43574 0.41324 -0.02773
 N57 N 0.44355 0.44690 -0.00448
 C58 C 0.46050 0.41087 -0.06142
 H59 H 0.51747 0.41414 -0.12626
 H60 H 0.58746 0.48196 -0.12339
 H61 H 0.46669 0.47624 -0.01072
 H62 H 0.64412 0.62148 -0.03661
 H63 H 0.61658 0.64869 0.02711
 H64 H 0.48113 0.58663 0.12254
 H65 H 0.41106 0.51880 0.11980
 H66 H 0.38440 0.34969 -0.02547
 H67 H 0.53195 0.52321 0.00849
 H68 H 0.35701 0.37704 0.03824
 C69 C 0.47637 0.91609 0.10377
 C70 C 0.43974 0.91474 0.10278
 C71 C 0.44230 0.94114 0.06959
 N72 N 0.47938 0.95840 0.05033
 C73 C 0.50033 0.94317 0.07108
 C74 C 0.41079 0.94919 0.05878
 C75 C 0.41353 0.97730 0.02632
 C76 C 0.38454 0.98875 0.01998
 C77 C 0.39865 1.01718 -0.01337
 C78 C 0.43592 1.02242 -0.02663
 N79 N 0.44436 0.99744 -0.00279
 C80 C 0.46087 1.05013 -0.05967
 C81 C 0.50114 1.05974 -0.06965
 C82 C 0.52572 1.08828 -0.10088
 C83 C 0.56236 1.08967 -0.09992
 C84 C 0.55923 1.06182 -0.06820
 N85 N 0.52175 1.04365 -0.04983
 C86 C 0.59040 1.05291 -0.05829
 C87 C 0.58704 1.02384 -0.02667
 C88 C 0.61500 1.01079 -0.02173
 C89 C 0.60083 0.98238 0.01161
 C90 C 0.56456 0.97870 0.02630
 N91 N 0.55677 1.00458 0.00331
 C92 C 0.54013 0.95186 0.06024
 H93 H 0.48424 0.89877 0.12594
 H94 H 0.41421 0.89646 0.12430
 H95 H 0.53388 1.01101 0.01004
 H96 H 0.35639 0.97822 0.03797
 H97 H 0.38341 1.03268 -0.02592
 H98 H 0.51823 1.10648 -0.12211
 H99 H 0.58827 1.10888 -0.12056
 H100 H 0.61540 0.96595 0.02332
 H101 H 0.46844 0.99256 -0.00802
 H102 H 0.64257 1.02039 -0.04058
 C103 C 1.08817 0.52505 0.39779
 C104 C 1.08947 0.56161 0.39894
 C105 C 1.06182 0.55849 0.43100
 N106 N 1.04385 0.52105 0.44943
 C107 C 1.05985 0.50043 0.42930
 C108 C 1.05298 0.58968 0.44121
 C109 C 1.02403 0.58638 0.47305
 C110 C 1.01116 0.61446 0.47834
 C111 C 0.98277 0.60031 0.51174
 C112 C 0.97891 0.56392 0.52611
 N113 N 1.00467 0.55604 0.50286
 C114 C 0.95198 0.53945 0.55995
 C115 C 0.94317 0.49960 0.57055
 C116 C 0.91588 0.47555 0.60306
 C117 C 0.91455 0.43894 0.60192
 C118 C 0.94115 0.44160 0.56884
 N119 N 0.95853 0.47872 0.54977
 C120 C 0.94935 0.41016 0.55802
 C121 C 0.97761 0.41297 0.52562
 C122 C 0.98924 0.38409 0.51942
 C123 C 1.01767 0.39813 0.48605
 C124 C 1.02279 0.43531 0.47257
 N125 N 0.99769 0.44370 0.49640
 C126 C 1.05041 0.46017 0.43927
 H127 H 1.10627 0.51758 0.37626
 H128 H 1.10850 0.58748 0.37819
 H129 H 0.99259 0.46762 0.49104
 H130 H 1.02087 0.64211 0.45968
 H131 H 0.96646 0.61496 0.52369
 H132 H 0.89843 0.48336 0.62520
 H133 H 0.89614 0.41337 0.62330
 H134 H 1.03326 0.38291 0.47356
 H135 H 1.01092 0.53301 0.50926
 H136 H 0.97879 0.35604 0.53752
 C137 C 0.52612 0.43859 0.60066
 C138 C 0.56146 0.47524 0.60211
 C139 C 0.55808 0.49976 0.57041
 N140 N 0.52168 0.47911 0.54981
 C141 C 0.50200 0.44169 0.56819
 C142 C 0.58904 0.53991 0.56051
 C143 C 0.58650 0.56482 0.52733
 C144 C 0.61886 0.60176 0.51373
 C145 C 0.60460 0.61605 0.48055
 C146 C 0.56385 0.58749 0.47464
 N147 N 0.55293 0.55676 0.50385
 C148 C 0.53838 0.59063 0.44260
 C149 C 0.49859 0.55933 0.43179
 C150 C 0.47450 0.56238 0.39924
 C151 C 0.43921 0.52569 0.39771
 C152 C 0.44258 0.50120 0.42946
 N153 N 0.47892 0.52190 0.45016
 C154 C 0.41163 0.46105 0.43934
 C155 C 0.41413 0.43620 0.47262
 C156 C 0.38172 0.39932 0.48630
 C157 C 0.39594 0.38508 0.51956
 C158 C 0.43671 0.41359 0.52543
 N159 N 0.44768 0.44426 0.49612
 C160 C 0.46217 0.41044 0.55747
 H161 H 0.51901 0.41270 0.62144
 H162 H 0.58684 0.48278 0.62396
 H163 H 0.47692 0.46778 0.49033
 H164 H 0.64977 0.61668 0.52600
 H165 H 0.62243 0.64405 0.46240
 H166 H 0.48161 0.58826 0.37844
 H167 H 0.41387 0.51811 0.37579
 H168 H 0.37807 0.35713 0.53778
 H169 H 0.52371 0.53317 0.50957
 H170 H 0.35081 0.38442 0.47404
 C171 C 0.43776 -0.08821 0.39793
 C172 C 0.47439 -0.08678 0.39650
 C173 C 0.49882 -0.05910 0.42864
 N174 N 0.47805 -0.04359 0.44944
 C175 C 0.44067 -0.06125 0.43080
 C176 C 0.53898 -0.04996 0.43876
 C177 C 0.56370 -0.02274 0.47245
 C178 C 0.60049 -0.01830 0.48648
 C179 C 0.61462 0.01011 0.51990
 C180 C 0.58618 0.02240 0.52557
 N181 N 0.55562 0.00274 0.49600
 C182 C 0.58934 0.05105 0.55766
 C183 C 0.55816 0.05967 0.56825
 C184 C 0.56130 0.08698 0.60073
 C185 C 0.52470 0.08566 0.60207
 C186 C 0.50016 0.05766 0.57029
 N187 N 0.52075 0.04186 0.54976
 C188 C 0.46003 0.04842 0.56031
 C189 C 0.43512 0.02095 0.52699
 C190 C 0.39815 0.01629 0.51352
 C191 C 0.38384 -0.01220 0.48016
 C192 C 0.41241 -0.02432 0.47398
 N193 N 0.44319 -0.00443 0.50325
 C194 C 0.40926 -0.05290 0.44169
 H195 H 0.41198 -0.10689 0.37686
 H196 H 0.48200 -0.10442 0.37440
 H197 H 0.46685 -0.00992 0.50877
 H198 H 0.61540 -0.03429 0.47428
 H199 H 0.64246 0.02016 0.53834
 H200 H 0.58719 0.10582 0.62159
 H201 H 0.51719 0.10355 0.62390
 H202 H 0.35579 -0.02241 0.46207
 H203 H 0.53222 0.00854 0.49005
 H204 H 0.38323 0.03217 0.52599
 O205 O 0.15811 0.38671 0.20677
 O206 O 0.22765 0.38696 0.29274
 O207 O 0.15844 0.38668 0.29325
 O208 O 0.22718 0.38679 0.20622
 O209 O 0.26038 0.45397 0.20669
 O210 O 0.19240 0.45386 0.29290
 O211 O 0.26083 0.45414 0.29238
 O212 O 0.19207 0.45390 0.20724
 Cu213 Cu 0.18943 0.37993 0.24975
 Cu214 Cu 0.22977 0.46067 0.24982
 C215 C 0.16334 0.42048 0.19281
 C216 C 0.25621 0.42080 0.30675
 C217 C 0.16378 0.42046 0.30743
 C218 C 0.25560 0.42060 0.19206
 O219 O 0.61280 0.84184 0.29327
 O220 O 0.61282 0.77236 0.20713
 O221 O 0.61317 0.84160 0.20679
 O222 O 0.61285 0.77285 0.29364
 O223 O 0.54565 0.73962 0.29306
 O224 O 0.54597 0.80766 0.20702
 O225 O 0.54562 0.73919 0.20737
 O226 O 0.54560 0.80785 0.29268
 Cu227 Cu 0.61977 0.81058 0.25021
 Cu228 Cu 0.53901 0.77023 0.25000
 C229 C 0.57897 0.83657 0.30721
 C230 C 0.57900 0.74381 0.19304
 C231 C 0.57943 0.83629 0.19259
 C232 C 0.57900 0.74442 0.30771
 O233 O 0.22832 0.84046 0.20805
 O234 O 0.15926 0.77081 0.29425
 O235 O 0.22824 0.84009 0.29457
 O236 O 0.15914 0.77139 0.20772
 O237 O 0.19314 0.73829 0.20754
 O238 O 0.26151 0.80626 0.29358
 O239 O 0.19330 0.73776 0.29324
 O240 O 0.26155 0.80659 0.20789
 Cu241 Cu 0.19031 0.80910 0.25121
 Cu242 Cu 0.23073 0.76889 0.25051
 C243 C 0.25681 0.83527 0.19372
 C244 C 0.16464 0.74231 0.30800
 C245 C 0.25676 0.83479 0.30843
 C246 C 0.16448 0.74304 0.19326
 O247 O 0.84196 0.61306 0.70685
 O248 O 0.77298 0.61282 0.79366
 O249 O 0.84198 0.61275 0.79334
 O250 O 0.77288 0.61307 0.70715
 O251 O 0.73954 0.54589 0.70717
 O252 O 0.80788 0.54557 0.79253
 O253 O 0.73964 0.54563 0.79285
 O254 O 0.80785 0.54588 0.70687
 Cu255 Cu 0.81089 0.61978 0.75027
 Cu256 Cu 0.77036 0.53904 0.74980
 C257 C 0.83659 0.57930 0.69256
 C258 C 0.74445 0.57897 0.80760
 C259 C 0.83660 0.57890 0.80717
 C260 C 0.74431 0.57932 0.69295
 O261 O 0.38695 0.15956 0.79354
 O262 O 0.38718 0.22825 0.70667
 O263 O 0.38695 0.15912 0.70707
 O264 O 0.38719 0.22872 0.79319
 O265 O 0.45439 0.26186 0.79277
 O266 O 0.45415 0.19301 0.70747
 O267 O 0.45438 0.26138 0.70708
 O268 O 0.45416 0.19346 0.79313
 Cu269 Cu 0.38021 0.19050 0.75013
 Cu270 Cu 0.46097 0.23078 0.75012
 C271 C 0.42073 0.16487 0.80765
 C272 C 0.42103 0.25663 0.69250
 C273 C 0.42072 0.16429 0.69305
 C274 C 0.42104 0.25727 0.80720
 O275 O 0.77147 0.15906 0.70740
 O276 O 0.84036 0.22828 0.79407
 O277 O 0.77115 0.15924 0.79394
 O278 O 0.84062 0.22814 0.70754
 O279 O 0.80676 0.26138 0.70766
 O280 O 0.73805 0.19324 0.79322
 O281 O 0.80649 0.26150 0.79335
 O282 O 0.73838 0.19306 0.70752
 Cu283 Cu 0.80932 0.19025 0.75077
 Cu284 Cu 0.76908 0.23065 0.75041
 C285 C 0.74309 0.16438 0.69312
 C286 C 0.83506 0.25679 0.80804
 C287 C 0.74266 0.16461 0.80788
 C288 C 0.83542 0.25660 0.69331
 C289 C 0.06974 0.44443 0.08515
 C290 C 0.08932 0.43422 0.10754
 C291 C 0.11382 0.42580 0.13564
 C292 C 0.13589 0.42166 0.16107
 C293 C 0.55461 0.62586 0.08528
 C294 C 0.56489 0.65571 0.10772
 C295 C 0.57344 0.68874 0.13585
 C296 C 0.57770 0.71507 0.16129
 C297 C 0.37361 0.92787 0.08445
 C298 C 0.34404 0.90865 0.10738
 C299 C 0.31134 0.88450 0.13599
 C300 C 0.28528 0.86262 0.16174
 C301 C 0.93008 0.55517 0.58470
 C302 C 0.91048 0.56545 0.60703
 C303 C 0.88599 0.57394 0.63514
 C304 C 0.86394 0.57811 0.66064
 C305 C 0.44609 0.37322 0.58296
 C306 C 0.43554 0.34364 0.60583
 C307 C 0.42679 0.31098 0.63447
 C308 C 0.42242 0.28498 0.66032
 C309 C 0.62653 0.07225 0.58331
 C310 C 0.65608 0.09136 0.60630
 C311 C 0.68872 0.11540 0.63504
 C312 C 0.71471 0.13718 0.66094
 C313 C 0.44504 0.07187 0.91559
 C314 C 0.43468 0.09135 0.89326
 C315 C 0.42613 0.11570 0.86514
 C316 C 0.42193 0.13764 0.83961
 C317 C 0.62741 0.55396 0.91681
 C318 C 0.65710 0.56450 0.89406
 C319 C 0.68989 0.57324 0.86553
 C320 C 0.71599 0.57759 0.83975
 C321 C 0.92685 0.37409 0.91730
 C322 C 0.90783 0.34433 0.89452
 C323 C 0.88388 0.31148 0.86596
 C324 C 0.86217 0.28533 0.84017
 C325 C 0.55393 0.92952 0.41507
 C326 C 0.56451 0.91017 0.39267
 C327 C 0.57328 0.88589 0.36453
 C328 C 0.57764 0.86393 0.33904
 C329 C 0.37408 0.44533 0.41443
 C330 C 0.34422 0.43503 0.39202
 C331 C 0.31123 0.42646 0.36391
 C332 C 0.28493 0.42218 0.33848
 C333 C 0.07302 0.62484 0.41695
 C334 C 0.09198 0.65455 0.39416
 C335 C 0.11586 0.68742 0.36566
 C336 C 0.13752 0.71364 0.33997
 C337 C 0.92933 0.55394 0.91512
 C338 C 0.91000 0.56446 0.89271
 C339 C 0.88575 0.57316 0.86453
 C340 C 0.86385 0.57750 0.83902
 C341 C 0.44570 0.37534 0.91493
 C342 C 0.43529 0.34540 0.89256
 C343 C 0.42668 0.31235 0.86445
 C344 C 0.42240 0.28602 0.83899
 C345 C 0.62554 0.07296 0.91734
 C346 C 0.65518 0.09195 0.89442
 C347 C 0.68795 0.11586 0.86576
 C348 C 0.71408 0.13754 0.83995
 C349 C 0.07094 0.44516 0.41569
 C350 C 0.09032 0.43462 0.39331
 C351 C 0.11462 0.42595 0.36510
 C352 C 0.13654 0.42170 0.33948
 C353 C 0.55437 0.62789 0.41719
 C354 C 0.56479 0.65747 0.39436
 C355 C 0.57338 0.69010 0.36573
 C356 C 0.57764 0.71607 0.33989
 C357 C 0.37395 0.92687 0.41764
 C358 C 0.34419 0.90772 0.39492
 C359 C 0.31137 0.88366 0.36638
 C360 C 0.28526 0.86189 0.34059
 C361 C 0.55581 0.92991 0.08482
 C362 C 0.56598 0.91024 0.10708
 C363 C 0.57429 0.88567 0.13516
 C364 C 0.57833 0.86360 0.16066
 C365 C 0.37226 0.44537 0.08233
 C366 C 0.34265 0.43487 0.10522
 C367 C 0.30997 0.42621 0.13392
 C368 C 0.28397 0.42192 0.15981
 C369 C 0.07207 0.62667 0.08328
 C370 C 0.09129 0.65622 0.10628
 C371 C 0.11543 0.68880 0.13507
 C372 C 0.13727 0.71473 0.16102
 C373 C 0.44443 0.07036 0.58523
 C374 C 0.43429 0.09004 0.60765
 C375 C 0.42596 0.11464 0.63581
 C376 C 0.42188 0.13680 0.66127
 C377 C 0.62664 0.55555 0.58533
 C378 C 0.65650 0.56572 0.60769
 C379 C 0.68946 0.57408 0.63577
 C380 C 0.71569 0.57818 0.66119
 C381 C 0.92801 0.37303 0.58370
 C382 C 0.90878 0.34353 0.60668
 C383 C 0.88460 0.31094 0.63539
 C384 C 0.86272 0.28498 0.66122
   
