data_POSCAR
  _audit_creation_date              2014-09-24
  _audit_creation_method            'ToBaCCo'
  _symmetry_space_group_name_H-M    'P1'
  _symmetry_Int_Tables_number       1
  _symmetry_cell_setting            triclinic
  loop_
  _symmetry_equiv_pos_as_xyz
 x,y,z
_cell_length_a 18.4134
_cell_length_b 18.2489
_cell_length_c 18.2489
_cell_angle_alpha 90.000100
_cell_angle_beta 90.000000
_cell_angle_gamma 90.000000
loop_
  _atom_site_label
  _atom_site_type_symbol
  _atom_site_fract_x
  _atom_site_fract_y
  _atom_site_fract_z
Si1 Si 0.25000 0.50000 1.00000
 Si2 Si 0.75000 0.50000 0.00000
 Si3 Si 0.00000 0.24917 0.50000
 Si4 Si 1.00000 0.75083 0.50000
 Si5 Si 0.50000 0.00000 0.25083
 Si6 Si 0.50000 -0.00000 0.74917
 C7 C 0.37038 0.05363 0.42612
 H8 H 0.37654 0.08551 0.47571
 C9 C 0.42559 0.05332 0.37397
 H10 H 0.47395 0.08578 0.38341
 C11 C 0.30159 -0.03050 0.35559
 H12 H 0.25362 -0.06408 0.34942
 C13 C 0.35504 -0.03098 0.30105
 H14 H 0.34618 -0.06235 0.25169
 N15 N 0.31112 0.01009 0.41741
 C16 C 0.12962 0.07388 0.55363
 H17 H 0.12346 0.02429 0.58551
 C18 C 0.07441 0.12603 0.55332
 H19 H 0.02605 0.11660 0.58578
 C20 C 0.19841 0.14442 0.46950
 H21 H 0.24638 0.15058 0.43592
 C22 C 0.14496 0.19895 0.46902
 H23 H 0.15382 0.24831 0.43765
 Zn24 Zn 0.25000 0.00000 0.50000
 N25 N 0.18887 0.08259 0.51009
 C26 C 0.30159 0.03050 0.64441
 N27 N 0.31112 -0.01009 0.58259
 C28 C 0.37038 -0.05363 0.57388
 C29 C 0.42559 -0.05332 0.62603
 C30 C 0.35504 0.03098 0.69895
 C31 C 0.12962 -0.07388 0.44637
 C32 C 0.07441 -0.12603 0.44668
 C33 C 0.14496 -0.19895 0.53098
 C34 C 0.19841 -0.14442 0.53050
 N35 N 0.18887 -0.08259 0.48991
 H36 H 0.25362 0.06408 0.65058
 H37 H 0.37654 -0.08551 0.52429
 H38 H 0.47395 -0.08578 0.61659
 H39 H 0.34618 0.06235 0.74831
 H40 H 0.12346 -0.02429 0.41449
 H41 H 0.02605 -0.11660 0.41422
 H42 H 0.15382 -0.24831 0.56235
 H43 H 0.24638 -0.15058 0.56408
 C44 C 0.08038 0.18768 0.50803
 C45 C 0.41962 0.00803 0.31232
 C46 C 0.08038 -0.18768 0.49197
 C47 C 0.41962 -0.00803 0.68768
 C48 C 0.62963 0.05363 0.57389
 H49 H 0.62346 0.08552 0.52430
 C50 C 0.57441 0.05332 0.62603
 H51 H 0.52606 0.08578 0.61660
 C52 C 0.69841 -0.03052 0.64441
 H53 H 0.74637 -0.06410 0.65057
 C54 C 0.64495 -0.03100 0.69895
 H55 H 0.65381 -0.06237 0.74830
 N56 N 0.68887 0.01009 0.58259
 C57 C 0.87037 0.07389 0.44637
 H58 H 0.87654 0.02430 0.41448
 C59 C 0.92559 0.12604 0.44668
 H60 H 0.97394 0.11660 0.41422
 C61 C 0.80159 0.14441 0.53052
 H62 H 0.75363 0.15057 0.56410
 C63 C 0.85505 0.19895 0.53100
 H64 H 0.84619 0.24830 0.56237
 Zn65 Zn 0.75000 0.00000 0.50000
 N66 N 0.81113 0.08259 0.48991
 C67 C 0.69841 0.03052 0.35559
 N68 N 0.68887 -0.01009 0.41741
 C69 C 0.62963 -0.05363 0.42611
 C70 C 0.57441 -0.05332 0.37397
 C71 C 0.64495 0.03100 0.30105
 C72 C 0.87037 -0.07389 0.55363
 C73 C 0.92559 -0.12603 0.55332
 C74 C 0.85505 -0.19895 0.46900
 C75 C 0.80159 -0.14441 0.46948
 N76 N 0.81113 -0.08259 0.51009
 H77 H 0.74637 0.06410 0.34943
 H78 H 0.62346 -0.08552 0.47570
 H79 H 0.52606 -0.08578 0.38340
 H80 H 0.65381 0.06237 0.25170
 H81 H 0.87654 -0.02430 0.58552
 H82 H 0.97394 -0.11660 0.58578
 H83 H 0.84619 -0.24830 0.43763
 H84 H 0.75363 -0.15057 0.43590
 C85 C 0.91962 0.18768 0.49198
 C86 C 0.58038 0.00802 0.68768
 C87 C 0.91962 -0.18768 0.50802
 C88 C 0.58038 -0.00802 0.31232
 C89 C 0.44683 0.13207 1.07670
 H90 H 0.41243 0.12756 1.02885
 C91 C 0.44641 0.07678 1.12931
 H92 H 0.41114 0.02986 1.12189
 C93 C 0.53738 0.19683 1.14249
 H94 H 0.57378 0.24300 1.14676
 C95 C 0.53728 0.14340 1.19747
 H96 H 0.57120 0.15084 1.24512
 N97 N 0.49348 0.18943 1.08290
 C98 C 0.41895 0.36553 0.94116
 H99 H 0.46291 0.36705 0.90185
 C100 C 0.36551 0.41956 0.93976
 H101 H 0.36812 0.46253 0.89890
 C102 C 0.36509 0.31088 1.04583
 H103 H 0.36656 0.26963 1.08830
 C104 C 0.31079 0.36439 1.04676
 H105 H 0.27070 0.36388 1.09006
 Zn106 Zn 0.50000 0.25130 1.00000
 N107 N 0.41820 0.31306 0.99403
 C108 C 0.46261 0.19682 0.85751
 N109 N 0.50652 0.18943 0.91709
 C110 C 0.55318 0.13207 0.92329
 C111 C 0.55360 0.07679 0.87068
 C112 C 0.46271 0.14339 0.80253
 C113 C 0.58104 0.36553 1.05884
 C114 C 0.63449 0.41956 1.06023
 C115 C 0.68921 0.36439 0.95324
 C116 C 0.63491 0.31088 0.95417
 N117 N 0.58180 0.31306 1.00597
 H118 H 0.42620 0.24299 0.85324
 H119 H 0.58758 0.12757 0.97113
 H120 H 0.58888 0.02987 0.87810
 H121 H 0.42878 0.15082 0.75488
 H122 H 0.53708 0.36705 1.09814
 H123 H 0.63187 0.46253 1.10110
 H124 H 0.72930 0.36388 0.90994
 H125 H 0.63344 0.26963 0.91169
 C126 C 0.31160 0.41990 0.99379
 C127 C 0.49414 0.08079 1.18890
 C128 C 0.68840 0.41990 1.00621
 C129 C 0.50586 0.08079 0.81110
 C130 C 0.44683 0.86793 -0.07670
 H131 H 0.41243 0.87244 -0.02885
 C132 C 0.44641 0.92322 -0.12931
 H133 H 0.41114 0.97014 -0.12189
 C134 C 0.53738 0.80317 -0.14249
 H135 H 0.57378 0.75700 -0.14676
 C136 C 0.53728 0.85660 -0.19747
 H137 H 0.57120 0.84916 -0.24512
 N138 N 0.49348 0.81057 -0.08290
 C139 C 0.41895 0.63447 0.05884
 H140 H 0.46291 0.63295 0.09815
 C141 C 0.36551 0.58044 0.06024
 H142 H 0.36812 0.53747 0.10110
 C143 C 0.36509 0.68912 -0.04583
 H144 H 0.36656 0.73037 -0.08830
 C145 C 0.31079 0.63561 -0.04676
 H146 H 0.27070 0.63612 -0.09006
 Zn147 Zn 0.50000 0.74870 0.00000
 N148 N 0.41820 0.68694 0.00597
 C149 C 0.46261 0.80318 0.14249
 N150 N 0.50652 0.81057 0.08291
 C151 C 0.55318 0.86793 0.07671
 C152 C 0.55360 0.92321 0.12932
 C153 C 0.46271 0.85661 0.19747
 C154 C 0.58104 0.63447 -0.05884
 C155 C 0.63449 0.58044 -0.06023
 C156 C 0.68921 0.63561 0.04676
 C157 C 0.63491 0.68912 0.04583
 N158 N 0.58180 0.68694 -0.00597
 H159 H 0.42620 0.75701 0.14676
 H160 H 0.58758 0.87243 0.02887
 H161 H 0.58888 0.97013 0.12190
 H162 H 0.42878 0.84918 0.24512
 H163 H 0.53708 0.63295 -0.09814
 H164 H 0.63187 0.53747 -0.10110
 H165 H 0.72930 0.63612 0.09006
 H166 H 0.63344 0.73037 0.08831
 C167 C 0.31160 0.58010 0.00621
 C168 C 0.49414 0.91921 -0.18890
 C169 C 0.68840 0.58010 -0.00621
 C170 C 0.50586 0.91921 0.18890
 C171 C 1.08105 0.44116 0.13447
 H172 H 1.03709 0.40185 0.13295
 C173 C 1.13449 0.43976 0.08044
 H174 H 1.13188 0.39890 0.03747
 C175 C 1.13491 0.54583 0.18912
 H176 H 1.13344 0.58830 0.23037
 C177 C 1.18920 0.54676 0.13561
 H178 H 1.22930 0.59006 0.13612
 N179 N 1.08180 0.49403 0.18694
 C180 C 0.94682 0.42328 0.36792
 H181 H 0.91242 0.47113 0.37243
 C182 C 0.94640 0.37068 0.42321
 H183 H 0.91112 0.37810 0.47013
 C184 C 1.03739 0.35751 0.30318
 H185 H 1.07379 0.35323 0.25701
 C186 C 1.03729 0.30253 0.35661
 H187 H 1.07122 0.25488 0.34918
 Zn188 Zn 1.00000 0.49999 0.24870
 N189 N 0.99348 0.41709 0.31057
 C190 C 0.86509 0.45416 0.18912
 N191 N 0.91820 0.50596 0.18694
 C192 C 0.91896 0.55884 0.13447
 C193 C 0.86551 0.56023 0.08044
 C194 C 0.81079 0.45324 0.13561
 C195 C 1.05317 0.57670 0.36793
 C196 C 1.05359 0.62931 0.42321
 C197 C 0.96272 0.69746 0.35660
 C198 C 0.96262 0.64249 0.30317
 N199 N 1.00652 0.58290 0.31057
 H200 H 0.86656 0.41169 0.23036
 H201 H 0.96291 0.59814 0.13295
 H202 H 0.86812 0.60110 0.03747
 H203 H 0.77070 0.40993 0.13612
 H204 H 1.08757 0.52885 0.37244
 H205 H 1.08886 0.62189 0.47014
 H206 H 0.92880 0.74512 0.34916
 H207 H 0.92622 0.64676 0.25700
 C208 C 0.99414 0.31110 0.41921
 C209 C 1.18840 0.49378 0.08009
 C210 C 1.00586 0.68890 0.41921
 C211 C 0.81160 0.50621 0.08009
 C212 C -0.08104 0.44116 0.86553
 H213 H -0.03709 0.40186 0.86705
 C214 C -0.13449 0.43977 0.91956
 H215 H -0.13188 0.39890 0.96253
 C216 C -0.13491 0.54584 0.81088
 H217 H -0.13344 0.58831 0.76964
 C218 C -0.18921 0.54676 0.86439
 H219 H -0.22930 0.59007 0.86388
 N220 N -0.08180 0.49404 0.81306
 C221 C 0.05317 0.42330 0.63207
 H222 H 0.08757 0.47115 0.62756
 C223 C 0.05359 0.37069 0.57679
 H224 H 0.08886 0.37811 0.52986
 C225 C -0.03738 0.35751 0.69683
 H226 H -0.07378 0.35324 0.74300
 C227 C -0.03728 0.30254 0.64340
 H228 H -0.07120 0.25488 0.65084
 Zn229 Zn -0.00000 0.50001 0.75130
 N230 N 0.00652 0.41710 0.68943
 C231 C 0.13491 0.45417 0.81088
 N232 N 0.08180 0.50597 0.81306
 C233 C 0.08105 0.55885 0.86553
 C234 C 0.13449 0.56024 0.91956
 C235 C 0.18920 0.45324 0.86439
 C236 C -0.05318 0.57672 0.63208
 C237 C -0.05360 0.62932 0.57679
 C238 C 0.03729 0.69747 0.64339
 C239 C 0.03739 0.64249 0.69682
 N240 N -0.00652 0.58291 0.68943
 H241 H 0.13344 0.41170 0.76963
 H242 H 0.03709 0.59815 0.86705
 H243 H 0.13188 0.60110 0.96253
 H244 H 0.22930 0.40994 0.86388
 H245 H -0.08758 0.52887 0.62757
 H246 H -0.08888 0.62190 0.52987
 H247 H 0.07122 0.74512 0.65082
 H248 H 0.07379 0.64677 0.74299
 C249 C 0.00586 0.31110 0.58079
 C250 C -0.18840 0.49379 0.91991
 C251 C -0.00586 0.68890 0.58079
 C252 C 0.18840 0.50622 0.91991
   
