data_POSCAR
  _audit_creation_date              2014-09-24
  _audit_creation_method            'ToBaCCo'
  _symmetry_space_group_name_H-M    'P1'
  _symmetry_Int_Tables_number       1
  _symmetry_cell_setting            triclinic
  loop_
  _symmetry_equiv_pos_as_xyz
 x,y,z
_cell_length_a 43.0834
_cell_length_b 43.1101
_cell_length_c 24.4338
_cell_angle_alpha 89.872600
_cell_angle_beta 90.001800
_cell_angle_gamma 119.830800
loop_
  _atom_site_label
  _atom_site_type_symbol
  _atom_site_fract_x
  _atom_site_fract_y
  _atom_site_fract_z
C1 C 0.55610 1.11260 0.52796
 C2 C 0.55770 1.11279 0.47193
 C3 C 0.54028 1.07729 0.45540
 N4 N 0.52826 1.05560 0.49966
 C5 C 0.53787 1.07702 0.54408
 C6 C 0.53492 1.06580 0.40022
 C7 C 0.51587 1.02953 0.38323
 C8 C 0.50617 1.01868 0.32941
 C9 C 0.48781 0.98201 0.32950
 C10 C 0.48662 0.97111 0.38331
 N11 N 0.50430 1.00027 0.41567
 C12 C 0.46932 0.93486 0.40031
 C13 C 0.46305 0.92308 0.45533
 C14 C 0.44479 0.88750 0.47146
 C15 C 0.44320 0.88731 0.52748
 C16 C 0.46066 0.92281 0.54402
 N17 N 0.47270 0.94450 0.49975
 C18 C 0.46604 0.93431 0.59920
 C19 C 0.48510 0.97057 0.61618
 C20 C 0.49483 0.98142 0.66999
 C21 C 0.51318 1.01810 0.66991
 C22 C 0.51435 1.02899 0.61610
 N23 N 0.49666 0.99983 0.58374
 C24 C 0.53161 1.06524 0.59910
 H25 H 0.56733 1.13604 0.55383
 H26 H 0.57009 1.13642 0.44628
 H27 H 0.49050 0.99994 0.54283
 H28 H 0.51138 1.03547 0.29369
 H29 H 0.47624 0.96528 0.29386
 H30 H 0.43354 0.86406 0.44558
 H31 H 0.43079 0.86368 0.55314
 H32 H 0.52476 1.03482 0.70554
 H33 H 0.51043 1.00016 0.45660
 H34 H 0.48963 0.96463 0.70571
 C35 C -0.11402 0.44215 0.52785
 C36 C -0.11402 0.44360 0.47182
 C37 C -0.07845 0.46188 0.45541
 N38 N -0.05689 0.47163 0.49976
 C39 C -0.07845 0.45969 0.54417
 C40 C -0.06678 0.46810 0.40022
 C41 C -0.03044 0.48554 0.38323
 C42 C -0.01939 0.48682 0.32943
 C43 C 0.01730 0.50536 0.32949
 C44 C 0.02801 0.51505 0.38328
 N45 N -0.00128 0.50334 0.41564
 C46 C 0.06424 0.53418 0.40026
 C47 C 0.07585 0.53965 0.45528
 C48 C 0.11141 0.55715 0.47152
 C49 C 0.11140 0.55561 0.52757
 C50 C 0.07585 0.53732 0.54390
 N51 N 0.05428 0.52763 0.49962
 C52 C 0.06421 0.53105 0.59895
 C53 C 0.02796 0.51370 0.61603
 C54 C 0.01715 0.51253 0.66985
 C55 C -0.01955 0.49412 0.67000
 C56 C -0.03049 0.48435 0.61623
 N57 N -0.00127 0.49595 0.58374
 C58 C -0.06681 0.46520 0.59933
 H59 H -0.13758 0.42978 0.55363
 H60 H -0.13758 0.43226 0.44610
 H61 H -0.00125 0.48977 0.54284
 H62 H -0.03606 0.47520 0.29373
 H63 H 0.03417 0.51067 0.29387
 H64 H 0.13495 0.56954 0.44571
 H65 H 0.13494 0.56691 0.55332
 H66 H -0.03629 0.48890 0.70575
 H67 H -0.00139 0.50949 0.45653
 H68 H 0.03394 0.52416 0.70543
 C69 C 0.56726 0.45600 0.52973
 C70 C 0.56701 0.45581 0.47357
 C71 C 0.54256 0.46606 0.45749
 N72 N 0.52770 0.47221 0.50189
 C73 C 0.54291 0.46635 0.54616
 C74 C 0.53267 0.46732 0.40282
 C75 C 0.50984 0.48052 0.38696
 C76 C 0.49470 0.47618 0.33543
 C77 C 0.47629 0.49464 0.33536
 C78 C 0.48065 0.50978 0.38684
 N79 N 0.50132 0.50122 0.41788
 C80 C 0.46751 0.53265 0.40255
 C81 C 0.46629 0.54257 0.45717
 C82 C 0.45611 0.56707 0.47309
 C83 C 0.45632 0.56734 0.52925
 C84 C 0.46660 0.54295 0.54583
 N85 N 0.47240 0.52770 0.50166
 C86 C 0.46816 0.53341 0.60074
 C87 C 0.48131 0.51049 0.61670
 C88 C 0.47706 0.49543 0.66839
 C89 C 0.49545 0.47697 0.66847
 C90 C 0.51051 0.48117 0.61682
 N91 N 0.50190 0.50180 0.58569
 C92 C 0.53338 0.46793 0.60101
 H93 H 0.58321 0.44890 0.55554
 H94 H 0.58273 0.44855 0.44757
 H95 H 0.51291 0.51278 0.54789
 H96 H 0.49696 0.46152 0.30121
 H97 H 0.46164 0.49693 0.30106
 H98 H 0.44890 0.58281 0.44699
 H99 H 0.44927 0.58332 0.55496
 H100 H 0.49778 0.46240 0.70288
 H101 H 0.51242 0.51230 0.45550
 H102 H 0.46251 0.49780 0.70273
 O103 O 0.38558 0.66849 -0.06420
 O104 O 0.38724 0.72898 -0.04683
 C105 C 0.36493 0.73376 -0.07450
 O106 O 0.33167 0.71718 -0.06439
 O107 O 0.27127 0.65854 -0.04643
 C108 C 0.26656 0.63151 -0.07395
 O109 O 0.28327 0.61487 -0.06388
 O110 O 0.34204 0.61303 -0.04614
 C111 C 0.36901 0.63523 -0.07398
 O112 O 0.38725 0.65817 0.04459
 O113 O 0.38565 0.71702 0.06196
 C114 C 0.36908 0.73379 0.07194
 O115 O 0.34208 0.72920 0.04429
 O116 O 0.28330 0.66894 0.06226
 C117 C 0.26657 0.63569 0.07238
 O118 O 0.27127 0.61334 0.04482
 O119 O 0.33168 0.61479 0.06257
 C120 C 0.36495 0.63128 0.07249
 Cr121 Cr 0.38451 0.69221 -0.00112
 Cr122 Cr 0.30804 0.69250 -0.00107
 Cr123 Cr 0.30803 0.61593 -0.00067
 O124 O 0.33352 0.66688 -0.00096
 O125 O 0.61288 0.34174 -0.04502
 O126 O 0.61471 0.28300 -0.06253
 C127 C 0.63137 0.26632 -0.07253
 O128 O 0.65840 0.27099 -0.04490
 O129 O 0.71706 0.33133 -0.06290
 C130 C 0.73364 0.36457 -0.07313
 O131 O 0.72890 0.38688 -0.04554
 O132 O 0.66838 0.38523 -0.06310
 C133 C 0.63510 0.36868 -0.07290
 O134 O 0.61468 0.33139 0.06373
 O135 O 0.61320 0.27101 0.04622
 C136 C 0.63558 0.26633 0.07390
 O137 O 0.66884 0.28303 0.06379
 O138 O 0.72913 0.34175 0.04580
 C139 C 0.73372 0.36873 0.07336
 O140 O 0.71697 0.38532 0.06323
 O141 O 0.65809 0.38693 0.04566
 C142 C 0.63119 0.36465 0.07357
 Cr143 Cr 0.61579 0.30775 0.00059
 Cr144 Cr 0.69239 0.30774 0.00045
 Cr145 Cr 0.69213 0.38417 0.00007
 O146 O 0.66678 0.33322 0.00037
 C147 C 0.36768 0.79209 -0.19311
 C148 C 0.40430 0.81112 -0.20494
 C149 C 0.42804 0.80470 -0.17447
 C150 C 0.41526 0.77945 -0.13218
 C151 C 0.45314 0.90847 -0.36076
 C152 C 0.35481 0.76683 -0.15084
 C153 C 0.41757 0.83748 -0.24795
 C154 C 0.42873 0.85972 -0.28375
 C155 C 0.44186 0.88592 -0.32540
 C156 C 0.37847 0.76026 -0.11973
 H157 H 0.34907 0.79687 -0.21644
 H158 H 0.45645 0.81929 -0.18328
 H159 H 0.43421 0.77505 -0.10916
 H160 H 0.32635 0.75254 -0.14245
 C161 C 0.20814 0.57598 -0.19191
 C162 C 0.18894 0.59350 -0.20366
 C163 C 0.19529 0.62360 -0.17337
 C164 C 0.22063 0.63608 -0.13132
 C165 C 0.09146 0.54481 -0.35879
 C166 C 0.23350 0.58839 -0.14989
 C167 C 0.16250 0.58038 -0.24642
 C168 C 0.14022 0.56927 -0.28204
 C169 C 0.11399 0.55614 -0.32352
 C170 C 0.23998 0.61855 -0.11895
 H171 H 0.20343 0.55264 -0.21511
 H172 H 0.18056 0.63736 -0.18213
 H173 H 0.22495 0.65938 -0.10843
 H174 H 0.24791 0.57428 -0.14155
 C175 C 0.37693 0.57188 -0.17317
 C176 C 0.40697 0.59550 -0.20382
 C177 C 0.42446 0.63213 -0.19235
 C178 C 0.41207 0.64511 -0.15027
 C179 C 0.45530 0.54633 -0.35924
 C180 C 0.36448 0.58478 -0.13107
 C181 C 0.42003 0.58212 -0.24666
 C182 C 0.43106 0.57087 -0.28235
 C183 C 0.44409 0.55765 -0.32390
 C184 C 0.38197 0.62157 -0.11899
 H185 H 0.36319 0.54347 -0.18171
 H186 H 0.44774 0.65065 -0.21583
 H187 H 0.42615 0.67357 -0.14217
 H188 H 0.34123 0.56591 -0.10791
 C189 C 0.57602 0.20828 -0.19090
 C190 C 0.59359 0.18916 -0.20266
 C191 C 0.62365 0.19540 -0.17218
 C192 C 0.63603 0.22057 -0.12996
 C193 C 0.54529 0.09237 -0.35853
 C194 C 0.58834 0.23347 -0.14871
 C195 C 0.58060 0.16292 -0.24564
 C196 C 0.56958 0.14081 -0.28144
 C197 C 0.55654 0.11477 -0.32312
 C198 C 0.61846 0.23985 -0.11761
 H199 H 0.55272 0.20365 -0.21424
 H200 H 0.63745 0.18073 -0.18094
 H201 H 0.65931 0.22483 -0.10695
 H202 H 0.57419 0.24784 -0.14040
 C203 C 0.80431 0.42751 -0.17357
 C204 C 0.81063 0.40375 -0.20401
 C205 C 0.79165 0.36716 -0.19197
 C206 C 0.76652 0.35436 -0.14953
 C207 C 0.90744 0.45234 -0.36053
 C208 C 0.77920 0.41480 -0.13110
 C209 C 0.83683 0.41694 -0.24724
 C210 C 0.85892 0.42804 -0.28321
 C211 C 0.88499 0.44110 -0.32504
 C212 C 0.76005 0.37805 -0.11846
 H213 H 0.81887 0.45590 -0.18255
 H214 H 0.79634 0.34853 -0.21527
 H215 H 0.75226 0.32593 -0.14100
 H216 H 0.77488 0.43377 -0.10813
 C217 C 0.63199 0.42407 -0.19153
 C218 C 0.59534 0.40662 -0.20304
 C219 C 0.57170 0.37662 -0.17234
 C220 C 0.58460 0.36418 -0.13014
 C221 C 0.54624 0.45503 -0.35886
 C222 C 0.64498 0.41169 -0.14936
 C223 C 0.58195 0.41968 -0.24599
 C224 C 0.57072 0.43073 -0.28176
 C225 C 0.55753 0.44378 -0.32342
 C226 C 0.62142 0.38163 -0.11802
 H227 H 0.65053 0.44733 -0.21505
 H228 H 0.54327 0.36291 -0.18091
 H229 H 0.56572 0.34095 -0.10694
 H230 H 0.67346 0.42575 -0.14123
 C231 C 0.80465 0.37659 0.17347
 C232 C 0.81074 0.40656 0.20391
 C233 C 0.79153 0.42404 0.19196
 C234 C 0.76641 0.41171 0.14962
 C235 C 0.90749 0.45507 0.36015
 C236 C 0.77954 0.36419 0.13110
 C237 C 0.83694 0.41958 0.24704
 C238 C 0.85902 0.43064 0.28295
 C239 C 0.88506 0.44374 0.32471
 C240 C 0.76017 0.38167 0.11856
 H241 H 0.81939 0.36287 0.18238
 H242 H 0.79605 0.44727 0.21527
 H243 H 0.75196 0.42578 0.14117
 H244 H 0.77539 0.34099 0.10813
 C245 C 0.63307 0.20813 0.19253
 C246 C 0.59645 0.18899 0.20436
 C247 C 0.57264 0.19529 0.17388
 C248 C 0.58534 0.22053 0.13157
 C249 C 0.54780 0.09163 0.36018
 C250 C 0.64586 0.23339 0.15025
 C251 C 0.58326 0.16263 0.24738
 C252 C 0.57215 0.14040 0.28318
 C253 C 0.55906 0.11419 0.32482
 C254 C 0.62212 0.23983 0.11913
 H255 H 0.65174 0.20344 0.21588
 H256 H 0.54422 0.18061 0.18269
 H257 H 0.56632 0.22483 0.10855
 H258 H 0.67432 0.24777 0.14187
 C259 C 0.57601 0.36749 0.19254
 C260 C 0.59351 0.40410 0.20417
 C261 C 0.62343 0.42779 0.17338
 C262 C 0.63577 0.41499 0.13100
 C263 C 0.54594 0.45339 0.36049
 C264 C 0.58829 0.35460 0.15018
 C265 C 0.58059 0.41740 0.24733
 C266 C 0.56972 0.42865 0.28325
 C267 C 0.55693 0.44193 0.32503
 C268 C 0.61829 0.37822 0.11879
 H269 H 0.55281 0.34891 0.21612
 H270 H 0.63717 0.45619 0.18204
 H271 H 0.65895 0.43391 0.10777
 H272 H 0.57422 0.32616 0.14197
 C273 C 0.20817 0.63311 0.19061
 C274 C 0.18900 0.59650 0.20244
 C275 C 0.19536 0.57273 0.17211
 C276 C 0.22068 0.58545 0.12994
 C277 C 0.09151 0.54780 0.35793
 C278 C 0.23352 0.64593 0.14847
 C279 C 0.16257 0.58329 0.24532
 C280 C 0.14029 0.57216 0.28103
 C281 C 0.11406 0.55905 0.32260
 C282 C 0.24001 0.62222 0.11750
 H283 H 0.20345 0.65175 0.21385
 H284 H 0.18066 0.54433 0.18092
 H285 H 0.22501 0.56646 0.10703
 H286 H 0.24791 0.67437 0.14008
 C287 C 0.42451 0.79171 0.19034
 C288 C 0.40704 0.81094 0.20207
 C289 C 0.37703 0.80482 0.17156
 C290 C 0.36458 0.77965 0.12934
 C291 C 0.45559 0.90773 0.35794
 C292 C 0.41213 0.76653 0.14814
 C293 C 0.42011 0.83718 0.24505
 C294 C 0.43118 0.85929 0.28086
 C295 C 0.44428 0.88533 0.32254
 C296 C 0.38205 0.76026 0.11701
 H297 H 0.44777 0.79625 0.21370
 H298 H 0.36331 0.81957 0.18030
 H299 H 0.34135 0.77548 0.10630
 H300 H 0.42619 0.75207 0.13985
 C301 C 0.36774 0.57609 0.19167
 C302 C 0.40437 0.59357 0.20339
 C303 C 0.42809 0.62348 0.17261
 C304 C 0.41530 0.63583 0.13013
 C305 C 0.45361 0.54595 0.36010
 C306 C 0.35486 0.58838 0.14921
 C307 C 0.41766 0.58064 0.24666
 C308 C 0.42890 0.56976 0.28267
 C309 C 0.44217 0.55695 0.32456
 C310 C 0.37851 0.61837 0.11781
 H311 H 0.34915 0.55290 0.21525
 H312 H 0.45650 0.63721 0.18134
 H313 H 0.43424 0.65900 0.10690
 H314 H 0.32641 0.57432 0.14093
   
