data_POSCAR
  _audit_creation_date              2014-09-24
  _audit_creation_method            'ToBaCCo'
  _symmetry_space_group_name_H-M    'P1'
  _symmetry_Int_Tables_number       1
  _symmetry_cell_setting            triclinic
  loop_
  _symmetry_equiv_pos_as_xyz
 x,y,z
_cell_length_a 64.5453
_cell_length_b 10.5461
_cell_length_c 15.3643
_cell_angle_alpha 79.866400
_cell_angle_beta 90.171800
_cell_angle_gamma 94.098800
loop_
  _atom_site_label
  _atom_site_type_symbol
  _atom_site_fract_x
  _atom_site_fract_y
  _atom_site_fract_z
C1 C 0.74538 0.20589 0.46193
 C2 C 0.74530 0.20267 0.55177
 C3 C 0.72573 0.20687 0.60210
 C4 C 0.76459 0.19394 0.60667
 C5 C 0.76465 0.18909 0.41212
 C6 C 0.72605 0.22324 0.40776
 C7 C 0.72497 0.29584 0.65890
 C8 C 0.70724 0.30259 0.70842
 C9 C 0.68912 0.22065 0.70224
 C10 C 0.69037 0.12735 0.64639
 C11 C 0.70850 0.11973 0.59832
 C12 C 0.78318 0.26776 0.57934
 C13 C 0.80122 0.25100 0.62870
 C14 C 0.80108 0.16156 0.70796
 C15 C 0.78226 0.09397 0.73879
 C16 C 0.76423 0.11044 0.68889
 C17 C 0.77825 0.09373 0.44416
 C18 C 0.79680 0.08524 0.39907
 C19 C 0.80145 0.16557 0.31734
 C20 C 0.78713 0.25569 0.28283
 C21 C 0.76917 0.26832 0.33005
 C22 C 0.72176 0.14523 0.34381
 C23 C 0.70370 0.15564 0.29383
 C24 C 0.68940 0.24639 0.30483
 C25 C 0.69404 0.32830 0.36657
 C26 C 0.71227 0.31799 0.41654
 H27 H 0.73811 0.36277 0.66349
 H28 H 0.70784 0.37954 0.74639
 H29 H 0.67786 0.05544 0.64155
 H30 H 0.70910 0.04522 0.55866
 H31 H 0.78427 0.33313 0.51748
 H32 H 0.81550 0.30385 0.60244
 H33 H 0.75007 0.05514 0.71370
 H34 H 0.77463 0.02731 0.50502
 H35 H 0.80713 0.01255 0.42671
 H36 H 0.79008 0.32053 0.22061
 H37 H 0.75892 0.34193 0.30291
 H38 H 0.73222 0.07309 0.33383
 H39 H 0.70064 0.08811 0.24908
 H40 H 0.68364 0.40056 0.37638
 H41 H 0.71552 0.38360 0.46244
 H42 H 0.78156 0.02626 0.80065
 C43 C 0.25489 0.75777 0.49569
 C44 C 0.25375 0.76455 0.58444
 C45 C 0.23378 0.78354 0.62763
 C46 C 0.27235 0.76366 0.64134
 C47 C 0.27506 0.76021 0.44613
 C48 C 0.23551 0.75299 0.44185
 C49 C 0.22048 0.87400 0.58536
 C50 C 0.19976 0.86802 0.61182
 C51 C 0.19255 0.77939 0.68606
 C52 C 0.20680 0.70631 0.73841
 C53 C 0.22729 0.70596 0.70827
 C54 C 0.27756 0.87136 0.68075
 C55 C 0.29660 0.88380 0.72234
 C56 C 0.31086 0.78801 0.72664
 C57 C 0.30484 0.67497 0.69295
 C58 C 0.28566 0.66275 0.65113
 C59 C 0.27590 0.69345 0.37443
 C60 C 0.29446 0.69094 0.32841
 C61 C 0.31254 0.75698 0.35221
 C62 C 0.31177 0.82877 0.42021
 C63 C 0.29313 0.83339 0.46495
 C64 C 0.21817 0.66821 0.47193
 C65 C 0.19916 0.68000 0.42865
 C66 C 0.19742 0.77225 0.35178
 C67 C 0.21515 0.84894 0.31702
 C68 C 0.23396 0.84050 0.36222
 H69 H 0.22567 0.94015 0.52637
 H70 H 0.18909 0.92802 0.57189
 H71 H 0.20165 0.64190 0.79832
 H72 H 0.23755 0.63904 0.74459
 H73 H 0.26739 0.94968 0.67438
 H74 H 0.30048 0.97203 0.74700
 H75 H 0.28149 0.57729 0.62351
 H76 H 0.26225 0.63954 0.35518
 H77 H 0.29472 0.63722 0.27452
 H78 H 0.32554 0.88400 0.43713
 H79 H 0.29301 0.89633 0.51306
 H80 H 0.21905 0.59741 0.53145
 H81 H 0.18585 0.61664 0.45484
 H82 H 0.21423 0.91943 0.25692
 H83 H 0.24711 0.90590 0.33688
 H84 H 0.31506 0.59712 0.69727
 C85 C 0.24711 0.27881 -0.47835
 C86 C 0.24558 0.25565 -0.56353
 C87 C 0.26410 0.23182 -0.61551
 C88 C 0.22600 0.27449 -0.61313
 C89 C 0.22827 0.28494 -0.42306
 C90 C 0.26785 0.31191 -0.44239
 C91 C 0.26680 0.29178 -0.70434
 C92 C 0.28504 0.28163 -0.75046
 C93 C 0.30153 0.21483 -0.70828
 C94 C 0.29855 0.15295 -0.61971
 C95 C 0.27975 0.15615 -0.57561
 C96 C 0.21974 0.39926 -0.64096
 C97 C 0.20146 0.41843 -0.68866
 C98 C 0.18864 0.31244 -0.70742
 C99 C 0.19539 0.18718 -0.68021
 C100 C 0.21414 0.16924 -0.63572
 C101 C 0.21083 0.19919 -0.42614
 C102 C 0.19251 0.21056 -0.38178
 C103 C 0.19085 0.30903 -0.33143
 C104 C 0.20915 0.38680 -0.32101
 C105 C 0.22753 0.37555 -0.36658
 C106 C 0.27527 0.24218 -0.36356
 C107 C 0.29645 0.25608 -0.34302
 C108 C 0.31024 0.33992 -0.40106
 C109 C 0.30205 0.42088 -0.47326
 C110 C 0.28116 0.40639 -0.49346
 H111 H 0.25516 0.35108 -0.73771
 H112 H 0.28664 0.33443 -0.81745
 H113 H 0.31050 0.09870 -0.58456
 H114 H 0.27782 0.10407 -0.50855
 H115 H 0.22914 0.48178 -0.62615
 H116 H 0.19696 0.51633 -0.70649
 H117 H 0.21906 0.07293 -0.61575
 H118 H 0.21114 0.12384 -0.46446
 H119 H 0.17986 0.13926 -0.38642
 H120 H 0.20925 0.46153 -0.28185
 H121 H 0.24085 0.44206 -0.36073
 H122 H 0.26504 0.17171 -0.32138
 H123 H 0.30221 0.19648 -0.28483
 H124 H 0.31198 0.49140 -0.51688
 H125 H 0.27559 0.46062 -0.55358
 H126 H 0.18660 0.10270 -0.69546
 C127 C -0.24556 0.68855 -0.43887
 C128 C -0.24786 0.70818 -0.52879
 C129 C -0.23065 0.69065 -0.58752
 C130 C -0.26791 0.74204 -0.57086
 C131 C -0.26344 0.69562 -0.37932
 C132 C -0.22504 0.66596 -0.39628
 C133 C -0.22010 0.79668 -0.64035
 C134 C -0.20132 0.78251 -0.68162
 C135 C -0.19339 0.65974 -0.67460
 C136 C -0.20557 0.55197 -0.62892
 C137 C -0.22403 0.56791 -0.58636
 C138 C -0.27814 0.84458 -0.54895
 C139 C -0.29872 0.86062 -0.57295
 C140 C -0.30945 0.77927 -0.62466
 C141 C -0.29824 0.68303 -0.65299
 C142 C -0.27780 0.66432 -0.62589
 C143 C -0.28202 0.62068 -0.38460
 C144 C -0.29988 0.64386 -0.34067
 C145 C -0.29986 0.74434 -0.29039
 C146 C -0.28053 0.81285 -0.28062
 C147 C -0.26261 0.78771 -0.32392
 C148 C -0.22290 0.55852 -0.32972
 C149 C -0.20391 0.53811 -0.28765
 C150 C -0.18673 0.62843 -0.30814
 C151 C -0.18908 0.73810 -0.37359
 C152 C -0.20790 0.75528 -0.41781
 H153 H -0.22617 0.89050 -0.64711
 H154 H -0.19325 0.86745 -0.71995
 H155 H -0.20023 0.45587 -0.61990
 H156 H -0.23313 0.48566 -0.55032
 H157 H -0.27049 0.90787 -0.50850
 H158 H -0.30622 0.93354 -0.54622
 H159 H -0.26996 0.58604 -0.64532
 H160 H -0.28293 0.54730 -0.42593
 H161 H -0.31354 0.58078 -0.34653
 H162 H -0.27911 0.89169 -0.24429
 H163 H -0.24826 0.84513 -0.31840
 H164 H -0.23591 0.49011 -0.30996
 H165 H -0.20280 0.45105 -0.23920
 H166 H -0.17658 0.81251 -0.38977
 H167 H -0.20921 0.83988 -0.46751
 H168 H -0.30497 0.62188 -0.69673
 N169 N -0.02062 0.83053 0.18369
 N170 N -0.03901 0.81682 0.22275
 N171 N 0.02455 0.78681 0.13291
 N172 N 0.04323 0.74408 0.13712
 N173 N 0.02329 0.87636 0.18192
 N174 N 0.04138 0.89605 0.22060
 N175 N -0.01892 0.74072 0.13519
 N176 N -0.03610 0.66375 0.14084
 C177 C -0.04840 0.71157 0.19646
 C178 C 0.05355 0.81095 0.19297
 N179 N 0.02405 0.87025 -0.12664
 N180 N 0.03948 0.86644 -0.18191
 N181 N -0.01806 0.73714 -0.05158
 N182 N -0.03433 0.65261 -0.04439
 N183 N -0.01922 0.82371 -0.12385
 N184 N -0.03622 0.79913 -0.16782
 N185 N 0.02566 0.78445 -0.05425
 N186 N 0.04257 0.72138 -0.05777
 Mn187 Mn 0.00335 0.76096 0.04106
 C188 C 0.05093 0.77390 -0.13800
 C189 C -0.04543 0.69143 -0.11786
 N190 N 0.01837 1.15034 0.14606
 N191 N 0.03603 1.16753 0.18710
 N192 N -0.02619 1.19244 0.07554
 N193 N -0.04485 1.23606 0.06641
 N194 N -0.02540 1.10475 0.14756
 N195 N -0.04367 1.08729 0.18877
 N196 N 0.01738 1.23793 0.07412
 N197 N 0.03438 1.31688 0.06515
 Mn198 Mn -0.00109 0.99045 0.16608
 C199 C 0.04575 1.27256 0.13672
 C200 C -0.05559 1.17105 0.13762
 N201 N -0.02370 1.09772 -0.15931
 N202 N -0.04177 1.06839 -0.19370
 N203 N 0.01819 1.23441 -0.11285
 N204 N 0.03511 1.31363 -0.11962
 N205 N 0.01999 1.14501 -0.16158
 N206 N 0.03822 1.16184 -0.20246
 N207 N -0.02550 1.18804 -0.11128
 N208 N -0.04482 1.22228 -0.11311
 Mn209 Mn 0.00029 0.98467 -0.14385
 Mn210 Mn -0.00403 1.21465 -0.01894
 Cl211 Cl -0.00035 0.98768 0.01113
 C212 C -0.05471 1.14826 -0.16592
 C213 C 0.04736 1.26862 -0.17665
 N214 N 0.47664 0.36577 -0.13172
 N215 N 0.45923 0.30361 -0.15148
 N216 N 0.52314 0.46192 -0.17470
 N217 N 0.54202 0.47599 -0.20921
 N218 N 0.52001 0.34841 -0.12355
 N219 N 0.53665 0.28257 -0.12343
 N220 N 0.47993 0.47616 -0.18613
 N221 N 0.46508 0.49126 -0.24538
 C222 C 0.45232 0.38312 -0.22282
 C223 C 0.55004 0.36204 -0.17858
 N224 N 0.52860 0.78331 -0.08017
 N225 N 0.54739 0.83805 -0.07110
 N226 N 0.48446 0.73999 -0.16009
 N227 N 0.46721 0.76159 -0.20503
 N228 N 0.48507 0.79958 -0.09177
 N229 N 0.46836 0.86416 -0.08953
 N230 N 0.52800 0.72667 -0.14979
 N231 N 0.54627 0.74235 -0.18990
 Mn232 Mn 0.50390 0.60181 -0.16868
 C233 C 0.55820 0.81316 -0.14087
 C234 C 0.45747 0.84120 -0.16123
 N235 N 0.51707 0.26472 0.06569
 N236 N 0.53462 0.20929 0.05957
 N237 N 0.47403 0.33584 0.12621
 N238 N 0.45574 0.31878 0.16674
 N239 N 0.47343 0.28059 0.05598
 N240 N 0.45473 0.22601 0.04657
 N241 N 0.51761 0.32327 0.13468
 N242 N 0.53548 0.30899 0.17605
 Mn243 Mn 0.49668 0.31360 -0.03354
 C244 C 0.54587 0.23609 0.12940
 C245 C 0.44393 0.24858 0.11686
 N246 N 0.48150 0.71400 0.09700
 N247 N 0.46533 0.78259 0.09991
 N248 N 0.52234 0.58750 0.15960
 N249 N 0.53798 0.57392 0.21558
 N250 N 0.52453 0.70010 0.10711
 N251 N 0.54134 0.76717 0.12663
 N252 N 0.47864 0.60184 0.15006
 N253 N 0.46030 0.59180 0.19000
 Mn254 Mn 0.50498 0.75024 0.00827
 Mn255 Mn 0.49812 0.46131 0.14393
 Cl256 Cl 0.50091 0.53161 -0.01250
 C257 C 0.45229 0.70619 0.15872
 C258 C 0.54958 0.68747 0.19405
 C259 C 0.35817 0.20946 0.24604
 C260 C 0.35794 0.21154 0.15647
 C261 C 0.33977 0.21442 0.10789
 C262 C 0.32102 0.21615 0.15339
 C263 C 0.32057 0.21163 0.24673
 C264 C 0.33968 0.20632 0.29326
 O265 O 0.37722 0.21361 0.27895
 C266 C 0.38925 0.21673 0.20858
 C267 C 0.37817 0.21358 0.13225
 C268 C 0.38758 0.21276 0.05120
 C269 C 0.40932 0.21648 0.04868
 C270 C 0.42117 0.22688 0.12526
 C271 C 0.41095 0.22623 0.20667
 H272 H 0.34003 0.21622 0.03724
 H273 H 0.30685 0.21617 0.11563
 H274 H 0.34045 0.20648 0.36352
 H275 H 0.37853 0.20843 -0.00778
 H276 H 0.41700 0.21430 -0.01331
 H277 H 0.41961 0.23449 0.26614
 C278 C -0.13726 0.71781 0.26366
 C279 C -0.13371 0.60244 0.23849
 C280 C -0.14924 0.50538 0.23664
 C281 C -0.16919 0.52657 0.26373
 C282 C -0.17356 0.64466 0.29085
 C283 C -0.15717 0.74320 0.28799
 O284 O -0.12003 0.79360 0.26637
 C285 C -0.10538 0.72438 0.24212
 C286 C -0.11297 0.60711 0.22345
 C287 C -0.10031 0.51887 0.19739
 C288 C -0.07890 0.55329 0.18997
 C289 C -0.07068 0.67312 0.20971
 C290 C -0.08415 0.75965 0.23647
 H291 H -0.14600 0.41506 0.21715
 H292 H -0.18119 0.45059 0.26207
 H293 H -0.15928 0.83334 0.31033
 H294 H -0.10669 0.42749 0.18263
 H295 H -0.06874 0.48694 0.16883
 H296 H -0.07835 0.85247 0.25107
 C297 C 0.63529 0.70520 0.31390
 C298 C 0.62719 0.82033 0.31897
 C299 C 0.63889 0.92469 0.34106
 C300 C 0.65994 0.91085 0.35852
 C301 C 0.66920 0.79282 0.35443
 C302 C 0.65627 0.68859 0.33103
 O303 O 0.62135 0.61865 0.29044
 C304 C 0.60416 0.68175 0.27988
 C305 C 0.60703 0.80586 0.29627
 C306 C 0.59162 0.89245 0.28443
 C307 C 0.57249 0.85024 0.25272
 C308 C 0.56902 0.72254 0.23606
 C309 C 0.58497 0.63620 0.25078
 H310 H 0.63201 1.01406 0.34461
 H311 H 0.66879 0.99513 0.37260
 H312 H 0.66185 0.59506 0.32903
 H313 H 0.59441 0.98989 0.29697
 H314 H 0.56043 0.91730 0.23992
 H315 H 0.58285 0.53984 0.23541
 C316 C 0.13304 1.26460 0.23313
 C317 C 0.13056 1.37814 0.17593
 C318 C 0.14681 1.47052 0.15119
 C319 C 0.16626 1.44735 0.18931
 C320 C 0.16933 1.33142 0.25011
 C321 C 0.15231 1.23744 0.26996
 O322 O 0.11546 1.19164 0.25076
 C323 C 0.10162 1.26097 0.20377
 C324 C 0.11003 1.37582 0.15639
 C325 C 0.09812 1.46383 0.10375
 C326 C 0.07669 1.43142 0.09949
 C327 C 0.06778 1.31269 0.14721
 C328 C 0.08047 1.22713 0.20064
 H329 H 0.14450 1.55789 0.10475
 H330 H 0.17897 1.51894 0.16921
 H331 H 0.15343 1.14921 0.31736
 H332 H 0.10509 1.55342 0.06666
 H333 H 0.06711 1.49800 0.05861
 H334 H 0.07418 1.13536 0.23740
 C335 C 0.63331 0.21965 -0.24440
 C336 C 0.63434 0.29552 -0.18044
 C337 C 0.65290 0.33878 -0.14689
 C338 C 0.67127 0.30687 -0.18306
 C339 C 0.67111 0.23544 -0.25448
 C340 C 0.65136 0.18693 -0.28197
 O341 O 0.61404 0.19369 -0.27001
 C342 C 0.60274 0.25592 -0.22156
 C343 C 0.61449 0.32045 -0.16600
 C344 C 0.60616 0.40097 -0.11480
 C345 C 0.58475 0.41444 -0.12051
 C346 C 0.57234 0.34741 -0.17632
 C347 C 0.58134 0.26637 -0.22716
 H348 H 0.65325 0.39628 -0.09501
 H349 H 0.68545 0.33719 -0.15273
 H350 H 0.64947 0.13495 -0.33637
 H351 H 0.61582 0.45275 -0.07301
 H352 H 0.57776 0.47631 -0.08126
 H353 H 0.57206 0.21611 -0.27104
 C354 C 0.13862 0.74989 -0.21491
 C355 C 0.12728 0.70937 -0.28234
 C356 C 0.13637 0.68768 -0.35972
 C357 C 0.15800 0.70903 -0.36802
 C358 C 0.17001 0.75144 -0.29974
 C359 C 0.16023 0.77059 -0.22151
 O360 O 0.12683 0.77210 -0.14938
 C361 C 0.10770 0.74485 -0.17598
 C362 C 0.10710 0.70609 -0.25692
 C363 C 0.08860 0.68080 -0.29960
 C364 C 0.06999 0.69841 -0.25764
 C365 C 0.07026 0.73823 -0.17428
 C366 C 0.08937 0.76075 -0.13276
 H367 H 0.12712 0.65795 -0.41248
 H368 H 0.16546 0.69434 -0.42803
 H369 H 0.16907 0.80525 -0.16932
 H370 H 0.08853 0.65266 -0.36405
 H371 H 0.05539 0.68447 -0.29085
 H372 H 0.09009 0.79854 -0.07214
 C373 C 0.36948 0.79776 -0.24816
 C374 C 0.37228 0.88006 -0.18831
 C375 C 0.35584 0.92723 -0.14887
 C376 C 0.33568 0.89119 -0.17399
 C377 C 0.33222 0.81148 -0.23924
 C378 C 0.34957 0.76288 -0.27574
 O379 O 0.38720 0.75874 -0.27422
 C380 C 0.40145 0.81846 -0.23014
 C381 C 0.39312 0.89527 -0.17765
 C382 C 0.40521 0.96727 -0.12624
 C383 C 0.42672 0.95566 -0.12609
 C384 C 0.43560 0.87123 -0.17558
 C385 C 0.42279 0.80445 -0.23036
 H386 H 0.35844 0.98860 -0.09978
 H387 H 0.32282 0.92635 -0.14251
 H388 H 0.34779 0.70313 -0.32614
 H389 H 0.39827 1.02871 -0.08676
 H390 H 0.43637 1.00924 -0.08530
 H391 H 0.42904 0.73857 -0.26848
 C392 C -0.14377 1.19338 -0.21206
 C393 C -0.14036 1.06552 -0.18390
 C394 C -0.15569 0.96591 -0.18365
 C395 C -0.17531 0.99929 -0.21523
 C396 C -0.17916 1.13039 -0.24672
 C397 C -0.16319 1.22873 -0.24323
 O398 O -0.12666 1.27175 -0.21411
 C399 C -0.11207 1.19143 -0.18749
 C400 C -0.11972 1.06420 -0.16830
 C401 C -0.10708 0.96250 -0.14669
 C402 C -0.08565 0.99285 -0.14591
 C403 C -0.07734 1.12284 -0.16611
 C404 C -0.09073 1.22416 -0.18528
 H405 H -0.15245 0.86574 -0.16323
 H406 H -0.18712 0.92232 -0.21945
 H407 H -0.16551 1.32915 -0.26800
 H408 H -0.11347 0.86331 -0.13297
 H409 H -0.07547 0.91511 -0.12937
 H410 H -0.08469 1.32408 -0.20144
 C411 C 0.64354 0.77389 -0.25106
 C412 C 0.64432 0.84585 -0.18476
 C413 C 0.66296 0.88583 -0.14922
 C414 C 0.68148 0.85071 -0.18357
 C415 C 0.68132 0.77702 -0.25351
 C416 C 0.66163 0.73902 -0.28683
 O417 O 0.62436 0.74189 -0.27446
 C418 C 0.61272 0.79443 -0.22152
 C419 C 0.62409 0.85966 -0.16528
 C420 C 0.61478 0.91798 -0.10227
 C421 C 0.59293 0.90619 -0.09614
 C422 C 0.58096 0.83764 -0.15290
 C423 C 0.59112 0.78283 -0.21720
 H424 H 0.66325 0.94091 -0.09602
 H425 H 0.69572 0.87839 -0.15255
 H426 H 0.65993 0.68729 -0.34143
 H427 H 0.62400 0.96811 -0.05818
 H428 H 0.58539 0.94729 -0.04585
 H429 H 0.58253 0.72799 -0.26054
 C430 C 0.13361 1.30362 -0.29446
 C431 C 0.13281 1.36787 -0.22447
 C432 C 0.15058 1.41626 -0.18669
 C433 C 0.16993 1.39678 -0.22217
 C434 C 0.17135 1.32989 -0.29500
 C435 C 0.15249 1.28506 -0.33161
 O436 O 0.11512 1.26007 -0.31896
 C437 C 0.10227 1.29741 -0.26298
 C438 C 0.11225 1.36458 -0.20401
 C439 C 0.10168 1.40956 -0.13815
 C440 C 0.08003 1.38352 -0.13286
 C441 C 0.06954 1.31079 -0.19127
 C442 C 0.08088 1.26830 -0.25775
 H443 H 0.14962 1.46526 -0.13072
 H444 H 0.18359 1.42951 -0.18946
 H445 H 0.15205 1.23932 -0.38927
 H446 H 0.10982 1.46163 -0.09209
 H447 H 0.07153 1.41588 -0.08136
 H448 H 0.07337 1.21092 -0.30236
 C449 C 0.36462 0.31869 -0.30752
 C450 C 0.37603 0.33417 -0.38468
 C451 C 0.36705 0.34907 -0.46759
 C452 C 0.34540 0.34854 -0.47136
 C453 C 0.33311 0.33538 -0.39308
 C454 C 0.34296 0.31846 -0.30970
 O455 O 0.37640 0.31215 -0.23604
 C456 C 0.39559 0.32427 -0.26907
 C457 C 0.39617 0.33849 -0.35976
 C458 C 0.41456 0.36294 -0.40875
 C459 C 0.43313 0.37438 -0.36229
 C460 C 0.43293 0.35899 -0.26894
 C461 C 0.41394 0.33241 -0.22157
 H462 H 0.37637 0.36211 -0.52739
 H463 H 0.33823 0.35908 -0.53573
 H464 H 0.33415 0.30993 -0.24886
 H465 H 0.41455 0.37694 -0.48024
 H466 H 0.44764 0.39692 -0.39882
 H467 H 0.41338 0.32638 -0.15078
 C468 C -0.12912 0.64070 -0.25703
 C469 C -0.12928 0.57352 -0.17183
 C470 C -0.14751 0.52304 -0.12693
 C471 C -0.16632 0.54249 -0.17177
 C472 C -0.16664 0.60919 -0.26083
 C473 C -0.14755 0.65807 -0.30364
 O474 O -0.11031 0.68806 -0.28597
 C475 C -0.09829 0.64963 -0.21762
 C476 C -0.10909 0.57796 -0.14637
 C477 C -0.09959 0.53148 -0.06694
 C478 C -0.07818 0.56221 -0.06017
 C479 C -0.06692 0.64115 -0.13137
 C480 C -0.07711 0.68324 -0.21179
 H481 H -0.14730 0.47265 -0.05920
 H482 H -0.18059 0.50694 -0.13618
 H483 H -0.14690 0.70824 -0.37143
 H484 H -0.10842 0.47648 -0.01145
 H485 H -0.07062 0.52938 0.00180
 H486 H -0.06903 0.74521 -0.26682
 C487 C 0.36644 0.69567 0.28532
 C488 C 0.36950 0.79238 0.21278
 C489 C 0.35426 0.87428 0.17992
 C490 C 0.33516 0.85780 0.22496
 C491 C 0.33183 0.76165 0.30125
 C492 C 0.34755 0.67821 0.33152
 O493 O 0.38318 0.63048 0.30621
 C494 C 0.39715 0.68838 0.24604
 C495 C 0.38952 0.78851 0.18803
 C496 C 0.40161 0.86685 0.12267
 C497 C 0.42248 0.84142 0.11645
 C498 C 0.43069 0.73602 0.17314
 C499 C 0.41779 0.65831 0.23922
 H500 H 0.35710 0.94932 0.12252
 H501 H 0.32310 0.92170 0.20208
 H502 H 0.34530 0.60500 0.39032
 H503 H 0.39519 0.94502 0.07832
 H504 H 0.43214 0.90288 0.06643
 H505 H 0.42363 0.57779 0.28388
 C506 C -0.14176 1.13093 0.26684
 C507 C -0.14173 1.16075 0.17611
 C508 C -0.15960 1.18717 0.12764
 C509 C -0.17829 1.18419 0.17459
 C510 C -0.17883 1.15726 0.26864
 C511 C -0.16019 1.12817 0.31503
 O512 O -0.12289 1.11439 0.30008
 C513 C -0.11068 1.13518 0.22868
 C514 C -0.12150 1.16426 0.15127
 C515 C -0.11183 1.19711 0.06900
 C516 C -0.09010 1.20047 0.06627
 C517 C -0.07846 1.16969 0.14479
 C518 C -0.08896 1.13556 0.22729
 H519 H -0.15913 1.21106 0.05616
 H520 H -0.19229 1.20387 0.13723
 H521 H -0.15979 1.10910 0.38653
 H522 H -0.12067 1.22129 0.00912
 H523 H -0.08235 1.22577 0.00263
 H524 H -0.08047 1.11301 0.28828
 C525 C 0.63215 0.26678 0.24807
 C526 C 0.63176 0.22512 0.16813
 C527 C 0.64963 0.19964 0.12617
 C528 C 0.66860 0.21387 0.16952
 C529 C 0.66947 0.24998 0.25462
 C530 C 0.65084 0.28000 0.29306
 O531 O 0.61338 0.28545 0.27659
 C532 C 0.60091 0.25442 0.21339
 C533 C 0.61138 0.21574 0.14591
 C534 C 0.60128 0.17459 0.07461
 C535 C 0.57954 0.17655 0.07155
 C536 C 0.56839 0.21941 0.13910
 C537 C 0.57931 0.25739 0.21158
 H538 H 0.64898 0.16925 0.06242
 H539 H 0.68258 0.19534 0.13669
 H540 H 0.65063 0.30713 0.35776
 H541 H 0.60983 0.14310 0.02278
 H542 H 0.57151 0.14814 0.01529
 H543 H 0.57127 0.29029 0.26428
 C544 C 0.14037 0.81511 0.30889
 C545 C 0.13961 0.80720 0.22062
 C546 C 0.15700 0.79146 0.17149
 C547 C 0.17602 0.78157 0.21538
 C548 C 0.17726 0.78671 0.30674
 C549 C 0.15918 0.80468 0.35409
 O550 O 0.12188 0.82851 0.34306
 C551 C 0.10914 0.82769 0.27485
 C552 C 0.11934 0.81392 0.19881
 C553 C 0.10914 0.80092 0.12112
 C554 C 0.08749 0.80036 0.12192
 C555 C 0.07644 0.81629 0.19827
 C556 C 0.08744 0.83235 0.27597
 H557 H 0.15594 0.78611 0.10191
 H558 H 0.18972 0.76704 0.17882
 H559 H 0.15980 0.81059 0.42364
 H560 H 0.11748 0.78717 0.06287
 H561 H 0.07912 0.78626 0.06315
 H562 H 0.07935 0.84234 0.33573
   
