data_POSCAR
  _audit_creation_date              2014-09-24
  _audit_creation_method            'ToBaCCo'
  _symmetry_space_group_name_H-M    'P1'
  _symmetry_Int_Tables_number       1
  _symmetry_cell_setting            triclinic
  loop_
  _symmetry_equiv_pos_as_xyz
 x,y,z
_cell_length_a 29.2701
_cell_length_b 31.4466
_cell_length_c 27.0633
_cell_angle_alpha 87.293300
_cell_angle_beta 91.124700
_cell_angle_gamma 89.558300
loop_
  _atom_site_label
  _atom_site_type_symbol
  _atom_site_fract_x
  _atom_site_fract_y
  _atom_site_fract_z
C1 C 0.23966 0.18326 0.22938
 C2 C 0.22484 0.16900 0.27646
 C3 C 0.18662 0.18830 0.29803
 C4 C 0.16646 0.22436 0.27363
 C5 C 0.18070 0.23870 0.22683
 C6 C 0.21668 0.21759 0.20407
 C7 C 0.27491 0.16187 0.20575
 C8 C 0.28573 0.17315 0.15613
 C9 C 0.26201 0.20710 0.13144
 C10 C 0.22804 0.22950 0.15500
 C11 C 0.20361 0.26226 0.12921
 C12 C 0.16823 0.28360 0.15201
 C13 C 0.15715 0.27196 0.20103
 H14 H 0.24174 0.14152 0.29418
 H15 H 0.13749 0.23994 0.28979
 H16 H 0.29134 0.13482 0.22509
 H17 H 0.26962 0.21590 0.09322
 H18 H 0.21148 0.27068 0.09101
 H19 H 0.12843 0.28697 0.21816
 C20 C -0.18058 0.85579 0.17726
 C21 C -0.15379 0.88093 0.20768
 C22 C -0.11715 0.86323 0.23638
 C23 C -0.10767 0.81923 0.23397
 C24 C -0.13379 0.79387 0.20281
 C25 C -0.17007 0.81229 0.17401
 C26 C -0.21753 0.87377 0.14975
 C27 C -0.24343 0.84918 0.11727
 C28 C -0.23112 0.80627 0.11238
 C29 C -0.19549 0.78736 0.14150
 C30 C -0.18481 0.74398 0.13840
 C31 C -0.14873 0.72512 0.16727
 C32 C -0.12366 0.75046 0.19942
 H33 H -0.16190 0.91456 0.20932
 H34 H -0.07939 0.80448 0.25478
 H35 H -0.22458 0.90744 0.15230
 H36 H -0.25036 0.78712 0.08709
 H37 H -0.20480 0.72552 0.11334
 H38 H -0.09553 0.73641 0.22138
 C39 C -0.18169 0.14747 -0.23982
 C40 C -0.15345 0.13831 -0.27937
 C41 C -0.11275 0.16102 -0.28740
 C42 C -0.10082 0.19342 -0.25577
 C43 C -0.12899 0.20333 -0.21646
 C44 C -0.16958 0.18024 -0.20838
 C45 C -0.22072 0.12307 -0.22991
 C46 C -0.24890 0.13166 -0.18991
 C47 C -0.23691 0.16516 -0.15928
 C48 C -0.19701 0.18870 -0.16762
 C49 C -0.18296 0.21925 -0.13444
 C50 C -0.14262 0.24215 -0.14222
 C51 C -0.11612 0.23457 -0.18369
 H52 H -0.16207 0.11209 -0.30229
 H53 H -0.06899 0.21029 -0.26119
 H54 H -0.22913 0.09714 -0.25344
 H55 H -0.25658 0.17143 -0.12694
 H56 H -0.20309 0.22494 -0.10215
 H57 H -0.08438 0.25158 -0.18910
 C58 C 0.22932 0.81291 -0.19612
 C59 C 0.21896 0.82520 -0.24526
 C60 C 0.18111 0.80844 -0.27003
 C61 C 0.15617 0.77526 -0.24616
 C62 C 0.16843 0.76032 -0.19757
 C63 C 0.20421 0.78043 -0.17195
 C64 C 0.26295 0.83459 -0.17023
 C65 C 0.27175 0.82496 -0.11973
 C66 C 0.24728 0.79192 -0.09570
 C67 C 0.21403 0.76910 -0.12176
 C68 C 0.18960 0.73601 -0.09819
 C69 C 0.15571 0.71388 -0.12392
 C70 C 0.14479 0.72666 -0.17351
 H71 H 0.23857 0.85055 -0.26309
 H72 H 0.12780 0.76075 -0.26512
 H73 H 0.28012 0.86092 -0.18900
 H74 H 0.25370 0.78443 -0.05665
 H75 H 0.19705 0.72728 -0.05960
 H76 H 0.11720 0.71135 -0.19291
 C77 C 0.12482 1.22147 0.79855
 C78 C 0.10528 1.19360 0.76522
 C79 C 0.12653 1.15458 0.75568
 C80 C 0.16808 1.14372 0.78091
 C81 C 0.18743 1.17094 0.81521
 C82 C 0.16574 1.20997 0.82411
 C83 C 0.10350 1.26042 0.80712
 C84 C 0.12195 1.28841 0.84128
 C85 C 0.16268 1.27614 0.86753
 C86 C 0.18441 1.23703 0.85936
 C87 C 0.22396 1.22400 0.88667
 C88 C 0.24575 1.18513 0.87799
 C89 C 0.22750 1.15903 0.84181
 H90 H 0.07338 1.20257 0.74626
 H91 H 0.18488 1.11355 0.77591
 H92 H 0.07197 1.26884 0.78711
 H93 H 0.17759 1.29611 0.89484
 H94 H 0.23776 1.24396 0.91485
 H95 H 0.24341 1.12851 0.83586
 C96 C 0.82048 0.79753 0.78391
 C97 C 0.83817 0.82907 0.75175
 C98 C 0.82139 0.87129 0.75110
 C99 C 0.78607 0.88104 0.78324
 C100 C 0.76708 0.84920 0.81451
 C101 C 0.78469 0.80732 0.81537
 C102 C 0.83984 0.75680 0.78647
 C103 C 0.82469 0.72526 0.82059
 C104 C 0.78736 0.73458 0.85088
 C105 C 0.76752 0.77561 0.84867
 C106 C 0.73186 0.78603 0.88023
 C107 C 0.71304 0.82730 0.87792
 C108 C 0.73123 0.85877 0.84551
 H109 H 0.86709 0.82072 0.72979
 H110 H 0.77292 0.91339 0.78352
 H111 H 0.86832 0.75013 0.76282
 H112 H 0.77498 0.71120 0.87786
 H113 H 0.71842 0.76212 0.90608
 H114 H 0.71770 0.89100 0.84497
 C115 C 0.13073 0.80197 1.15894
 C116 C 0.11284 0.82383 1.19818
 C117 C 0.13916 0.85389 1.22220
 C118 C 0.18415 0.86189 1.20714
 C119 C 0.20210 0.84107 1.16687
 C120 C 0.17500 0.81135 1.14233
 C121 C 0.10466 0.77141 1.13552
 C122 C 0.12174 0.75075 1.09446
 C123 C 0.16451 0.76258 1.07598
 C124 C 0.19163 0.79187 1.10032
 C125 C 0.23496 0.80227 1.08290
 C126 C 0.26232 0.83147 1.10711
 C127 C 0.24585 0.85070 1.14937
 H128 H 0.07821 0.81767 1.20999
 H129 H 0.20429 0.88564 1.22523
 H130 H 0.07056 0.76497 1.14858
 H131 H 0.17764 0.74757 1.04378
 H132 H 0.24731 0.78799 1.04990
 H133 H 0.26587 0.87462 1.16721
 C134 C 0.82946 1.21355 1.22495
 C135 C 0.85644 1.19470 1.26394
 C136 C 0.84100 1.15826 1.29138
 C137 C 0.79734 1.14235 1.28001
 C138 C 0.77065 1.16020 1.24072
 C139 C 0.78678 1.19568 1.21284
 C140 C 0.84499 1.24912 1.19665
 C141 C 0.81900 1.26583 1.15575
 C142 C 0.77715 1.24735 1.14366
 C143 C 0.76059 1.21272 1.17213
 C144 C 0.71887 1.19407 1.15945
 C145 C 0.70319 1.15787 1.18639
 C146 C 0.72882 1.14186 1.22766
 H147 H 0.88924 1.20859 1.27201
 H148 H 0.78462 1.11460 1.30061
 H149 H 0.87797 1.26274 1.20514
 H150 H 0.75758 1.25993 1.11171
 H151 H 0.69907 1.20784 1.12844
 H152 H 0.71695 1.11397 1.24861
 O153 O 0.54068 0.97827 0.89951
 O154 O 0.46330 0.96153 1.08977
 O155 O 0.59790 0.98842 1.03199
 O156 O 0.40163 0.98532 0.94341
 O157 O 0.54442 0.95302 1.06667
 O158 O 0.46182 0.96912 0.90512
 O159 O 0.41404 0.95327 1.02890
 O160 O 0.55992 0.95230 0.96819
 C161 C 0.55719 0.94753 0.92383
 C162 C 0.43036 0.94189 1.07059
 C163 C 0.58633 0.95842 1.06116
 C164 C 0.42177 0.96165 0.91557
 O165 O 0.44865 1.05444 0.91018
 O166 O 0.55597 1.03837 1.07648
 O167 O 0.59989 1.02635 0.93794
 O168 O 0.41177 1.02847 1.06278
 O169 O 0.47757 1.04637 1.09068
 O170 O 0.53580 1.06115 0.91511
 O171 O 0.40770 1.06103 0.97621
 O172 O 0.56170 1.06320 1.00238
 Co173 Co 0.49585 1.01550 0.91610
 Co174 Co 0.50895 0.99983 1.07377
 Co175 Co 0.55791 1.00835 0.98294
 Co176 Co 0.41705 1.00696 1.00213
 O177 O 0.49220 1.00653 0.99690
 C178 C 0.41752 1.07292 0.93293
 C179 C 0.56773 1.06808 1.04708
 C180 C 0.57926 1.05657 0.91030
 C181 C 0.43558 1.05033 1.09027
 O182 O 0.03059 0.47264 0.10347
 O183 O 0.00208 0.53217 -0.09154
 O184 O 0.03903 0.43663 -0.00643
 O185 O -0.01511 0.59549 0.03788
 O186 O 0.01250 0.45509 -0.07742
 O187 O 0.02084 0.55060 0.08858
 O188 O 0.02440 0.56476 -0.02948
 O189 O 0.00740 0.41409 0.07160
 C190 C 0.03387 0.43320 0.09982
 C191 C 0.02986 0.55720 -0.07304
 C192 C 0.04423 0.43873 -0.05130
 C193 C 0.01311 0.58801 0.07260
 O194 O -0.06950 0.54479 0.09495
 O195 O -0.07437 0.44547 -0.05053
 O196 O -0.07471 0.42567 0.04438
 O197 O -0.05715 0.59231 -0.05704
 O198 O -0.08626 0.52738 -0.06559
 O199 O -0.05928 0.46215 0.11050
 O200 O -0.09101 0.56307 0.01828
 O201 O -0.03291 0.39011 -0.01966
 Co202 Co -0.01986 0.50680 0.09244
 Co203 Co -0.03559 0.49079 -0.06377
 Co204 Co -0.01899 0.43574 0.01484
 Co205 Co -0.03315 0.55880 -0.00792
 O206 O -0.02239 0.49891 0.01500
 C207 C -0.09703 0.56410 0.06425
 C208 C -0.06358 0.40573 -0.05196
 C209 C -0.08105 0.43281 0.08948
 C210 C -0.08664 0.56742 -0.07852
 O211 O 1.13214 0.01526 0.46744
 O212 O 0.93812 0.02438 0.52037
 O213 O 0.99732 0.05324 0.43148
 O214 O 1.05849 0.00327 0.60712
 O215 O 0.94459 0.00898 0.43241
 O216 O 1.11490 0.01662 0.55723
 O217 O 0.99503 0.04328 0.56398
 O218 O 1.07817 0.05479 0.43456
 C219 C 1.11946 0.04867 0.44421
 C220 C 0.95609 0.05109 0.54735
 C221 C 0.95721 0.04554 0.42133
 C222 C 1.09637 0.02017 0.59814
 O223 O 1.10087 -0.06627 0.55975
 O224 O 0.97320 -0.06885 0.45601
 O225 O 1.08421 -0.02547 0.40367
 O226 O 0.96912 -0.02433 0.61164
 O227 O 0.95542 -0.05842 0.54370
 O228 O 1.11425 -0.06479 0.46574
 O229 O 1.02921 -0.06876 0.57821
 O230 O 1.00222 -0.02986 0.39581
 Co231 Co 1.10761 -0.02366 0.51141
 Co232 Co 0.96039 -0.02202 0.48910
 Co233 Co 1.03920 0.01158 0.42242
 Co234 Co 1.01213 -0.01248 0.56603
 O235 O 1.03450 -0.01014 0.49588
 C236 C 1.06839 -0.08445 0.58147
 C237 C 0.98540 -0.06476 0.41205
 C238 C 1.10740 -0.05753 0.42019
 C239 C 0.94276 -0.05017 0.58713
 C240 C 1.16415 0.17089 0.33982
 C241 C 1.17655 0.13534 0.36596
 C242 C 1.14325 0.11370 0.39838
 C243 C 1.15426 0.07753 0.42362
 H244 H 1.20888 0.11961 0.36056
 H245 H 1.10811 0.12498 0.39742
 H246 H 1.13203 0.18566 0.34938
 H247 H 1.18950 0.06657 0.42505
 C248 C 0.90834 -0.10929 0.26585
 C249 C 0.93929 -0.12144 0.30106
 C250 C 0.96069 -0.08915 0.33153
 C251 C 0.97380 -0.09852 0.37834
 H252 H 0.94629 -0.15462 0.31072
 H253 H 0.96111 -0.05632 0.31729
 H254 H 0.90077 -0.07545 0.26128
 H255 H 0.96982 -0.13065 0.39388
 C256 C 0.92051 0.14783 0.67557
 C257 C 0.90811 0.13059 0.63314
 C258 C 0.94189 0.10808 0.60399
 C259 C 0.92867 0.08666 0.56470
 H260 H 0.87232 0.12951 0.62225
 H261 H 0.97641 0.10403 0.61890
 H262 H 0.95655 0.15046 0.68490
 H263 H 0.89387 0.09016 0.55057
 C264 C 1.16925 -0.17209 0.68353
 C265 C 1.12752 -0.17165 0.66228
 C266 C 1.11792 -0.14021 0.62098
 C267 C 1.07609 -0.12387 0.61247
 H268 H 1.09951 -0.18886 0.67916
 H269 H 1.14658 -0.12612 0.60157
 H270 H 1.19435 -0.15100 0.66662
 H271 H 1.04748 -0.13699 0.63278
 C272 C 0.31647 1.14988 1.12846
 C273 C 0.34711 1.12137 1.14705
 C274 C 0.37217 1.09522 1.11294
 C275 C 0.41346 1.07886 1.12410
 H276 H 0.35389 1.11694 1.18641
 H277 H 0.35625 1.08941 1.07735
 H278 H 0.31541 1.15558 1.08853
 H279 H 0.43116 1.08677 1.15795
 C280 C 0.30275 0.85221 0.90895
 C281 C 0.33752 0.87348 0.88808
 C282 C 0.36202 0.90713 0.91356
 C283 C 0.39782 0.92650 0.89255
 H284 H 0.34711 0.86736 0.85060
 H285 H 0.35000 0.91694 0.94895
 H286 H 0.29530 0.85652 0.94748
 H287 H 0.41093 0.91531 0.85825
 C288 C 0.71968 0.86668 1.08876
 C289 C 0.69556 0.90057 1.10192
 C290 C 0.65897 0.91959 1.07006
 C291 C 0.62019 0.93258 1.08981
 H292 H 0.70098 0.91381 1.13777
 H293 H 0.66438 0.92414 1.03065
 H294 H 0.70839 0.85055 1.05616
 H295 H 0.61350 0.92490 1.12845
 C296 C 0.71427 1.10423 0.82052
 C297 C 0.67961 1.11316 0.85017
 C298 C 0.64776 1.07966 0.86679
 C299 C 0.60651 1.08905 0.88378
 H300 H 0.67493 1.14473 0.86363
 H301 H 0.65939 1.04679 0.86776
 H302 H 0.71387 1.07371 0.80338
 H303 H 0.59352 1.12144 0.88037
 C304 C 0.13997 0.31449 0.12225
 C305 C 0.11908 0.34733 0.14186
 C306 C 0.08593 0.37311 0.11222
 C307 C 0.06926 0.40933 0.12838
 H308 H 0.12533 0.35447 0.18018
 H309 H 0.07433 0.36187 0.07684
 H310 H 0.13555 0.30952 0.08305
 H311 H 0.08246 0.42201 0.16232
 C312 C -0.12647 0.27123 -0.10450
 C313 C -0.10970 0.30960 -0.11658
 C314 C -0.09012 0.33643 -0.07858
 C315 C -0.08738 0.37851 -0.08659
 H316 H -0.11019 0.32128 -0.15494
 H317 H -0.07740 0.32152 -0.04402
 H318 H -0.12920 0.26104 -0.06583
 H319 H -0.10266 0.39354 -0.11986
 C320 C 0.13039 0.67987 -0.09625
 C321 C 0.11012 0.64662 -0.11674
 C322 C 0.08414 0.61582 -0.08542
 C323 C 0.06253 0.58219 -0.10352
 H324 H 0.11200 0.64242 -0.15613
 H325 H 0.08046 0.62241 -0.04670
 H326 H 0.12940 0.68190 -0.05637
 H327 H 0.06532 0.57565 -0.14230
 C328 C -0.13403 0.67998 0.16360
 C329 C -0.15088 0.65303 0.13104
 C330 C -0.12673 0.61265 0.12341
 C331 C -0.13299 0.59225 0.08161
 H332 H -0.17904 0.66202 0.10628
 H333 H -0.09846 0.60342 0.14826
 H334 H -0.10510 0.66926 0.18674
 H335 H -0.15934 0.60325 0.05521
 C336 C 1.10465 0.12778 0.72220
 C337 C 1.12385 0.09350 0.70298
 C338 C 1.09816 0.06772 0.66788
 C339 C 1.12028 0.04450 0.63571
 H340 H 1.15929 0.08518 0.71041
 H341 H 1.06112 0.06924 0.66679
 H342 H 1.07021 0.13633 0.70959
 H343 H 1.15725 0.04576 0.63450
 C344 C 0.84079 -0.09588 0.72138
 C345 C 0.86584 -0.10325 0.68177
 C346 C 0.89192 -0.06975 0.65568
 C347 C 0.90954 -0.07774 0.61203
 H348 H 0.86780 -0.13483 0.66768
 H349 H 0.89898 -0.04011 0.67315
 H350 H 0.83468 -0.06311 0.73047
 H351 H 0.90066 -0.10686 0.59430
 C352 C 1.11741 -0.12110 0.26014
 C353 C 1.13851 -0.11198 0.30243
 C354 C 1.11515 -0.08589 0.33804
 C355 C 1.12905 -0.08554 0.38530
 H356 H 1.17267 -0.12411 0.31096
 H357 H 1.08582 -0.06678 0.32532
 H358 H 1.08203 -0.11145 0.25385
 H359 H 1.15681 -0.10629 0.39868
 C360 C 0.86733 0.13547 0.32842
 C361 C 0.91163 0.14221 0.34008
 C362 C 0.93981 0.11380 0.37455
 C363 C 0.92653 0.07553 0.39302
 H364 H 0.92978 0.16843 0.32268
 H365 H 0.97438 0.12402 0.38228
 H366 H 0.85032 0.10932 0.34740
 H367 H 0.89287 0.06360 0.38503
 C368 C 0.09742 0.32648 -0.15135
 C369 C 0.10940 0.35684 -0.12038
 C370 C 0.07694 0.39168 -0.11081
 C371 C 0.08294 0.41584 -0.07190
 H372 H 0.14110 0.35505 -0.09925
 H373 H 0.04486 0.39376 -0.13160
 H374 H 0.06517 0.33108 -0.17147
 H375 H 0.11354 0.41150 -0.04893
 C376 C -0.16362 0.30026 0.12245
 C377 C -0.14516 0.33568 0.13902
 C378 C -0.12598 0.36795 0.10419
 C379 C -0.11079 0.40505 0.11984
 H380 H -0.14331 0.34039 0.17844
 H381 H -0.12114 0.35988 0.06611
 H382 H -0.16787 0.29697 0.08291
 H383 H -0.11534 0.41265 0.15810
 C384 C -0.14882 0.68779 -0.17396
 C385 C -0.15762 0.65376 -0.14429
 C386 C -0.11966 0.62445 -0.13051
 C387 C -0.12556 0.58730 -0.10592
 H388 H -0.19007 0.64954 -0.12635
 H389 H -0.08510 0.63582 -0.13608
 H390 H -0.11661 0.68749 -0.19328
 H391 H -0.15935 0.57400 -0.10153
 C392 C 0.09762 0.71849 0.07154
 C393 C 0.06630 0.69461 0.09471
 C394 C 0.04453 0.65950 0.07007
 C395 C 0.03655 0.62309 0.09543
 H396 H 0.05946 0.69787 0.13352
 H397 H 0.03640 0.66296 0.03080
 H398 H 0.10773 0.70979 0.03494
 H399 H 0.04821 0.61865 0.13362
 C400 C 0.28501 1.17005 0.90985
 C401 C 0.32024 1.14854 0.89202
 C402 C 0.35401 1.12555 0.92489
 C403 C 0.39029 1.10650 0.90579
 H404 H 0.32254 1.14535 0.85242
 H405 H 0.34673 1.12068 0.96386
 H406 H 0.28397 1.17547 0.94907
 H407 H 0.39721 1.11208 0.86680
 C408 C 0.30514 0.84496 1.08336
 C409 C 0.34018 0.86240 1.10713
 C410 C 0.37543 0.88444 1.07811
 C411 C 0.40759 0.90771 1.09940
 H412 H 0.34060 0.86413 1.14701
 H413 H 0.37121 0.88632 1.03814
 H414 H 0.30677 0.84232 1.04359
 H415 H 0.41279 0.90561 1.13920
 C416 C 0.66159 1.13455 1.17156
 C417 C 0.64343 1.13672 1.12567
 C418 C 0.60804 1.10645 1.11122
 C419 C 0.59450 1.10419 1.06395
 H420 H 0.65733 1.15783 1.09717
 H421 H 0.59597 1.08327 1.13880
 H422 H 0.64793 1.11148 1.19832
 H423 H 0.60703 1.12701 1.03625
 C424 C 0.67526 0.83877 0.91021
 C425 C 0.63960 0.86111 0.89113
 C426 C 0.60872 0.88533 0.92177
 C427 C 0.57861 0.91222 0.89920
 H428 H 0.63643 0.86584 0.85120
 H429 H 0.61467 0.88559 0.96142
 H430 H 0.67867 0.83205 0.94976
 H431 H 0.57409 0.91219 0.85932
   
