data_POSCAR
  _audit_creation_date              2014-09-24
  _audit_creation_method            'ToBaCCo'
  _symmetry_space_group_name_H-M    'P1'
  _symmetry_Int_Tables_number       1
  _symmetry_cell_setting            triclinic
  loop_
  _symmetry_equiv_pos_as_xyz
 x,y,z
_cell_length_a 45.7322
_cell_length_b 49.3547
_cell_length_c 45.1285
_cell_angle_alpha 89.997300
_cell_angle_beta 89.940700
_cell_angle_gamma 89.956200
loop_
  _atom_site_label
  _atom_site_type_symbol
  _atom_site_fract_x
  _atom_site_fract_y
  _atom_site_fract_z
C1 C 1.25239 0.24912 0.25049
 C2 C 0.74825 -0.24974 0.25127
 C3 C 0.74921 0.24944 -0.25182
 C4 C 1.24908 -0.24936 -0.25017
 C5 C 0.25091 0.24962 0.74963
 C6 C 0.75002 0.75019 0.74844
 C7 C 0.74756 0.24993 0.25218
 C8 C 0.25050 0.75092 0.25020
 N9 N 0.96881 0.02870 -0.05166
 N10 N 0.95028 0.03463 -0.07314
 N11 N 1.02914 0.04941 -0.03016
 N12 N 1.04822 0.06884 -0.03549
 N13 N 1.03019 0.03087 -0.05098
 N14 N 1.05003 0.03725 -0.07110
 N15 N 0.96779 0.04723 -0.03079
 N16 N 0.94852 0.06615 -0.03751
 C17 C 0.93744 0.05786 -0.06378
 C18 C 1.06133 0.06088 -0.06095
 N19 N 1.02919 0.03047 0.05427
 N20 N 1.04905 0.03649 0.07447
 N21 N 0.96718 0.04697 0.03308
 N22 N 0.94778 0.06584 0.03959
 N23 N 0.96780 0.02830 0.05381
 N24 N 0.94886 0.03410 0.07500
 N25 N 1.02852 0.04912 0.03354
 N26 N 1.04789 0.06825 0.03901
 Mn27 Mn 0.99813 0.04837 0.00143
 C28 C 1.06073 0.06004 0.06448
 C29 C 0.93619 0.05738 0.06559
 N30 N 1.03270 -0.02756 -0.05120
 N31 N 1.05257 -0.03255 -0.07174
 N32 N 0.97200 -0.04865 -0.03121
 N33 N 0.95397 -0.06861 -0.03778
 N34 N 0.97135 -0.02992 -0.05188
 N35 N 0.95287 -0.03674 -0.07309
 N36 N 1.03334 -0.04630 -0.03056
 N37 N 1.05367 -0.06449 -0.03649
 Mn38 Mn 1.00075 0.00052 -0.05171
 C39 C 1.06574 -0.05549 -0.06206
 C40 C 0.94188 -0.06079 -0.06378
 N41 N 0.97024 -0.03031 0.05350
 N42 N 0.95045 -0.03678 0.07365
 N43 N 1.03269 -0.04660 0.03328
 N44 N 1.05285 -0.06489 0.03943
 N45 N 1.03165 -0.02804 0.05410
 N46 N 1.05107 -0.03327 0.07498
 N47 N 0.97131 -0.04885 0.03264
 N48 N 0.95230 -0.06832 0.03800
 Mn49 Mn 0.99971 0.00010 0.05422
 Mn50 Mn 1.00235 -0.04781 0.00104
 Cl51 Cl 1.00019 0.00029 0.00124
 C52 C 0.93921 -0.06043 0.06350
 C53 C 1.06440 -0.05616 0.06534
 N54 N 1.05182 0.52813 0.53103
 N55 N 1.07157 0.54683 0.53700
 N56 N 1.03267 0.47067 0.55104
 N57 N 1.03839 0.45159 0.57069
 N58 N 1.05288 0.47119 0.53038
 N59 N 1.07290 0.45248 0.53542
 N60 N 1.03161 0.52758 0.55170
 N61 N 1.03705 0.54589 0.57226
 C62 C 1.06190 0.55795 0.56266
 C63 C 1.06346 0.44025 0.56055
 N64 N 0.94920 0.46958 0.53112
 N65 N 0.92984 0.45040 0.53670
 N66 N 0.96864 0.52667 0.55211
 N67 N 0.96335 0.54550 0.57217
 N68 N 0.94815 0.52658 0.53176
 N69 N 0.92834 0.54537 0.53747
 N70 N 0.96970 0.46973 0.55146
 N71 N 0.96487 0.45068 0.57137
 Mn72 Mn 1.00065 0.49866 0.55185
 C73 C 0.94006 0.43861 0.56177
 C74 C 0.93824 0.55716 0.56266
 N75 N 1.05252 0.47179 0.46656
 N76 N 1.07234 0.45298 0.46117
 N77 N 1.03115 0.52859 0.44660
 N78 N 1.03688 0.54680 0.42598
 N79 N 1.05155 0.52871 0.46705
 N80 N 1.07168 0.54702 0.46087
 N81 N 1.03218 0.47163 0.44606
 N82 N 1.03764 0.45270 0.42613
 Mn83 Mn 1.05247 0.49998 0.49875
 C84 C 1.06269 0.44108 0.43597
 C85 C 1.06207 0.55839 0.43534
 N86 N 0.94780 0.52714 0.46779
 N87 N 0.92771 0.54579 0.46272
 N88 N 0.96914 0.47072 0.44649
 N89 N 0.96422 0.45185 0.42641
 N90 N 0.94889 0.47018 0.46713
 N91 N 0.92964 0.45091 0.46161
 N92 N 0.96799 0.52767 0.44709
 N93 N 0.96215 0.54670 0.42738
 Mn94 Mn 0.94819 0.49836 0.49945
 Mn95 Mn 1.00010 0.49967 0.44626
 Cl96 Cl 1.00035 0.49919 0.49907
 C97 C 0.93705 0.55800 0.43755
 C98 C 0.93963 0.43949 0.43622
 N99 N 0.55089 0.03047 0.53247
 N100 N 0.56966 0.05028 0.53729
 N101 N 0.53143 -0.02650 0.55381
 N102 N 0.53628 -0.04566 0.57360
 N103 N 0.55198 -0.02651 0.53348
 N104 N 0.57140 -0.04569 0.53892
 N105 N 0.53035 0.03043 0.55280
 N106 N 0.53456 0.05020 0.57199
 C107 C 0.55908 0.06254 0.56194
 C108 C 0.56122 -0.05758 0.56396
 N109 N 0.44852 -0.02812 0.53237
 N110 N 0.42897 -0.04708 0.53802
 N111 N 0.46742 0.02946 0.55219
 N112 N 0.46197 0.04921 0.57114
 N113 N 0.44739 0.02876 0.53141
 N114 N 0.42779 0.04800 0.53561
 N115 N 0.46850 -0.02745 0.55321
 N116 N 0.46310 -0.04594 0.57360
 Mn117 Mn 0.49944 0.00149 0.55333
 C118 C 0.43850 -0.05820 0.56368
 C119 C 0.43724 0.06071 0.56040
 N120 N 0.55265 -0.02736 0.46960
 N121 N 0.57233 -0.04652 0.46522
 N122 N 0.53141 0.02896 0.44792
 N123 N 0.53568 0.04853 0.42849
 N124 N 0.55153 0.02959 0.46864
 N125 N 0.57005 0.04962 0.46385
 N126 N 0.53261 -0.02799 0.44879
 N127 N 0.53814 -0.04760 0.42969
 Mn128 Mn 0.55211 0.00154 0.50104
 C129 C 0.56292 -0.05910 0.44033
 C130 C 0.55980 0.06134 0.43877
 N131 N 0.44807 0.02788 0.46781
 N132 N 0.42880 0.04726 0.46301
 N133 N 0.46951 -0.02893 0.44809
 N134 N 0.46393 -0.04738 0.42769
 N135 N 0.44910 -0.02900 0.46857
 N136 N 0.42912 -0.04749 0.46265
 N137 N 0.46844 0.02802 0.44731
 N138 N 0.46353 0.04754 0.42791
 Mn139 Mn 0.44799 -0.00015 0.50004
 Mn140 Mn 0.50052 0.00000 0.44769
 Cl141 Cl 0.50002 0.00069 0.50052
 C142 C 0.43876 0.05946 0.43811
 C143 C 0.43882 -0.05902 0.43725
 N144 N 0.55206 0.52876 0.03045
 N145 N 0.57200 0.54754 0.03535
 N146 N 0.53175 0.47219 0.05223
 N147 N 0.53706 0.45344 0.07235
 N148 N 0.55188 0.47181 0.03146
 N149 N 0.57144 0.45278 0.03694
 N150 N 0.53202 0.52914 0.05132
 N151 N 0.53784 0.54822 0.07097
 C152 C 0.56274 0.55970 0.06057
 C153 C 0.56178 0.44133 0.06242
 N154 N 0.44838 0.47219 0.03235
 N155 N 0.42886 0.45316 0.03770
 N156 N 0.46881 0.52930 0.05206
 N157 N 0.46259 0.54740 0.07268
 N158 N 0.44845 0.52907 0.03156
 N159 N 0.42791 0.54701 0.03768
 N160 N 0.46866 0.47233 0.05290
 N161 N 0.46341 0.45337 0.07288
 Mn162 Mn 0.50033 0.50075 0.05245
 C163 C 0.43857 0.44144 0.06294
 C164 C 0.43717 0.55854 0.06321
 N165 N 0.55132 0.47090 -0.03247
 N166 N 0.57103 0.45198 -0.03791
 N167 N 0.53098 0.52763 -0.05383
 N168 N 0.53618 0.54623 -0.07418
 N169 N 0.55148 0.52787 -0.03348
 N170 N 0.57117 0.54665 -0.03946
 N171 N 0.53083 0.47069 -0.05282
 N172 N 0.53604 0.45161 -0.07264
 Mn173 Mn 0.55199 0.49983 -0.00101
 C174 C 0.56107 0.43994 -0.06292
 C175 C 0.56121 0.55811 -0.06481
 N176 N 0.44794 0.52816 -0.03226
 N177 N 0.42758 0.54628 -0.03827
 N178 N 0.46778 0.47084 -0.05215
 N179 N 0.46202 0.45164 -0.07167
 N180 N 0.44778 0.47128 -0.03128
 N181 N 0.42793 0.45239 -0.03599
 N182 N 0.46790 0.52777 -0.05318
 N183 N 0.46161 0.54563 -0.07401
 Mn184 Mn 0.44790 0.50020 0.00010
 Mn185 Mn 0.49938 0.49923 -0.05330
 Cl186 Cl 0.49991 0.50003 -0.00044
 C187 C 0.43654 0.55724 -0.06422
 C188 C 0.43719 0.44013 -0.06114
 C189 C 1.22876 0.18402 0.20850
 C190 C 1.20518 0.19363 0.19190
 C191 C 1.19784 0.22111 0.19300
 C192 C 1.21337 0.23870 0.21146
 C193 C 1.23590 0.22901 0.23010
 C194 C 1.24430 0.20154 0.22698
 C195 C 1.18829 0.17519 0.17410
 C196 C 1.17383 0.15966 0.15963
 C197 C 1.15647 0.14157 0.14301
 C198 C 1.14121 0.12638 0.12894
 C199 C 1.12240 0.10879 0.11214
 C200 C 1.11266 0.11685 0.08411
 C201 C 1.09306 0.10064 0.06836
 C202 C 1.08290 0.07613 0.08047
 C203 C 1.09323 0.06786 0.10837
 C204 C 1.11285 0.08415 0.12414
 H205 H 1.23516 0.16291 0.20718
 H206 H 1.17999 0.22893 0.17975
 H207 H 1.20734 0.25992 0.21178
 H208 H 1.26304 0.19336 0.23847
 H209 H 1.11986 0.13588 0.07463
 H210 H 1.08552 0.10751 0.04690
 H211 H 1.08576 0.04909 0.11822
 H212 H 1.12022 0.07774 0.14584
 C213 C 1.21740 0.70991 0.68374
 C214 C 1.19341 0.69726 0.69697
 C215 C 1.18785 0.70118 0.72712
 C216 C 1.20582 0.71824 0.74379
 C217 C 1.22918 0.73250 0.73046
 C218 C 1.23538 0.72697 0.70033
 C219 C 1.17488 0.67993 0.67958
 C220 C 1.15963 0.66546 0.66466
 C221 C 1.14210 0.64847 0.64693
 C222 C 1.12740 0.63377 0.63172
 C223 C 1.11020 0.61586 0.61364
 C224 C 1.08322 0.60635 0.62394
 C225 C 1.06715 0.58792 0.60701
 C226 C 1.07795 0.57875 0.57960
 C227 C 1.10479 0.58881 0.56915
 C228 C 1.12083 0.60725 0.58611
 H229 H 1.22240 0.70638 0.66058
 H230 H 1.16969 0.69098 0.73777
 H231 H 1.20131 0.72062 0.76721
 H232 H 1.25440 0.73530 0.68942
 H233 H 1.07480 0.61289 0.64522
 H234 H 1.04653 0.58052 0.61559
 H235 H 1.11362 0.58210 0.54811
 H236 H 1.14170 0.61448 0.57795
 C237 C 0.68807 0.20124 0.72244
 C238 C 0.68550 0.20750 0.69238
 C239 C 0.70225 0.22842 0.68028
 C240 C 0.72237 0.24235 0.69789
 C241 C 0.72690 0.23493 0.72783
 C242 C 0.70814 0.21511 0.74009
 C243 C 0.66644 0.19178 0.67380
 C244 C 0.65108 0.17786 0.65839
 C245 C 0.63379 0.16071 0.64061
 C246 C 0.61957 0.14533 0.62575
 C247 C 0.60322 0.12611 0.60850
 C248 C 0.61475 0.11617 0.58189
 C249 C 0.60002 0.09588 0.56629
 C250 C 0.57361 0.08527 0.57723
 C251 C 0.56182 0.09583 0.60359
 C252 C 0.57659 0.11612 0.61915
 H253 H 0.67482 0.18537 0.73220
 H254 H 0.69989 0.23389 0.65715
 H255 H 0.73407 0.25898 0.68783
 H256 H 0.70966 0.20985 0.76333
 H257 H 0.63542 0.12370 0.57351
 H258 H 0.60957 0.08814 0.54602
 H259 H 0.54149 0.08806 0.61250
 H260 H 0.56753 0.12361 0.63978
 C261 C 0.72094 0.68989 0.20346
 C262 C 0.69696 0.70150 0.18909
 C263 C 0.69061 0.72891 0.19341
 C264 C 0.70749 0.74437 0.21290
 C265 C 0.73048 0.73252 0.22938
 C266 C 0.73784 0.70529 0.22299
 C267 C 0.67864 0.68507 0.17036
 C268 C 0.66324 0.67087 0.15523
 C269 C 0.64526 0.65372 0.13805
 C270 C 0.63008 0.63862 0.12377
 C271 C 0.61226 0.62002 0.10709
 C272 C 0.62203 0.61028 0.07968
 C273 C 0.60558 0.59104 0.06423
 C274 C 0.57916 0.58125 0.07607
 C275 C 0.56921 0.59151 0.10334
 C276 C 0.58570 0.61076 0.11876
 H277 H 0.72657 0.66885 0.19965
 H278 H 0.67244 0.73830 0.18193
 H279 H 0.70211 0.76557 0.21579
 H280 H 0.75674 0.69566 0.23275
 H281 H 0.64257 0.61725 0.07045
 H282 H 0.61377 0.58352 0.04327
 H283 H 0.54894 0.58435 0.11298
 H284 H 0.57796 0.61812 0.13999
 C285 C 0.77285 -0.18522 0.20870
 C286 C 0.79635 -0.19518 0.19218
 C287 C 0.80339 -0.22272 0.19359
 C288 C 0.78763 -0.24001 0.21224
 C289 C 0.76514 -0.22997 0.23076
 C290 C 0.75708 -0.20243 0.22737
 C291 C 0.81337 -0.17703 0.17407
 C292 C 0.82784 -0.16165 0.15935
 C293 C 0.84509 -0.14359 0.14248
 C294 C 0.86018 -0.12833 0.12827
 C295 C 0.87871 -0.11047 0.11138
 C296 C 0.88756 -0.08556 0.12323
 C297 C 0.90678 -0.06889 0.10739
 C298 C 0.91743 -0.07703 0.07954
 C299 C 0.90798 -0.10183 0.06758
 C300 C 0.88878 -0.11843 0.08342
 H301 H 0.76667 -0.16407 0.20715
 H302 H 0.82118 -0.23082 0.18042
 H303 H 0.79342 -0.26128 0.21277
 H304 H 0.73842 -0.19396 0.23878
 H305 H 0.87993 -0.07920 0.14488
 H306 H 0.91369 -0.04990 0.11715
 H307 H 0.91579 -0.10863 0.04616
 H308 H 0.88211 -0.13767 0.07403
 C309 C 0.79804 0.30892 0.72125
 C310 C 0.81211 0.29715 0.69694
 C311 C 0.80731 0.26986 0.69035
 C312 C 0.78762 0.25470 0.70728
 C313 C 0.77144 0.26678 0.73052
 C314 C 0.77832 0.29382 0.73820
 C315 C 0.83091 0.31332 0.67845
 C316 C 0.84606 0.32735 0.66286
 C317 C 0.86321 0.34434 0.64464
 C318 C 0.87744 0.35935 0.62927
 C319 C 0.89404 0.37791 0.61129
 C320 C 0.88256 0.38742 0.58448
 C321 C 0.89785 0.40677 0.56794
 C322 C 0.92476 0.41687 0.57811
 C323 C 0.93642 0.40678 0.60474
 C324 C 0.92111 0.38744 0.62124
 H325 H 0.80221 0.32986 0.72706
 H326 H 0.81853 0.26034 0.67193
 H327 H 0.78431 0.23359 0.70170
 H328 H 0.76873 0.30354 0.75733
 H329 H 0.86158 0.38023 0.57661
 H330 H 0.88836 0.41417 0.54750
 H331 H 0.95712 0.41416 0.61310
 H332 H 0.93017 0.38027 0.64198
 C333 C 0.31746 -0.21148 0.72027
 C334 C 0.30539 -0.19655 0.69701
 C335 C 0.27539 -0.19787 0.69148
 C336 C 0.25763 -0.21470 0.70862
 C337 C 0.26964 -0.23131 0.73105
 C338 C 0.29976 -0.22833 0.73745
 C339 C 0.32378 -0.17964 0.67904
 C340 C 0.33920 -0.16551 0.66393
 C341 C 0.35712 -0.14885 0.64628
 C342 C 0.37221 -0.13435 0.63126
 C343 C 0.38982 -0.11658 0.61348
 C344 C 0.41642 -0.10681 0.62443
 C345 C 0.43271 -0.08826 0.60787
 C346 C 0.42247 -0.07925 0.58021
 C347 C 0.39607 -0.08964 0.56908
 C348 C 0.37982 -0.10819 0.58567
 H349 H 0.34057 -0.20995 0.72527
 H350 H 0.26571 -0.18590 0.67391
 H351 H 0.23439 -0.21513 0.70409
 H352 H 0.30984 -0.23857 0.75597
 H353 H 0.42431 -0.11319 0.64596
 H354 H 0.45299 -0.08059 0.61694
 H355 H 0.38769 -0.08306 0.54782
 H356 H 0.35924 -0.11563 0.57703
 C357 C 0.27977 0.30971 0.20308
 C358 C 0.30407 0.29825 0.18906
 C359 C 0.31036 0.27081 0.19314
 C360 C 0.29319 0.25519 0.21221
 C361 C 0.26999 0.26692 0.22854
 C362 C 0.26257 0.29414 0.22220
 C363 C 0.32288 0.31487 0.17107
 C364 C 0.33871 0.32921 0.15657
 C365 C 0.35711 0.34649 0.14006
 C366 C 0.37249 0.36171 0.12615
 C367 C 0.39020 0.38048 0.10961
 C368 C 0.38071 0.38956 0.08188
 C369 C 0.39684 0.40901 0.06645
 C370 C 0.42268 0.41968 0.07861
 C371 C 0.43243 0.41007 0.10621
 C372 C 0.41622 0.39059 0.12165
 H373 H 0.27420 0.33078 0.19939
 H374 H 0.32878 0.26155 0.18190
 H375 H 0.29863 0.23400 0.21508
 H376 H 0.24352 0.30366 0.23181
 H377 H 0.36059 0.38192 0.07238
 H378 H 0.38882 0.41599 0.04521
 H379 H 0.45226 0.41793 0.11608
 H380 H 0.42372 0.38374 0.14315
 C381 C 0.78895 0.18390 -0.22633
 C382 C 0.80493 0.19343 -0.20213
 C383 C 0.80424 0.22099 -0.19504
 C384 C 0.78675 0.23875 -0.21140
 C385 C 0.76870 0.22918 -0.23456
 C386 C 0.77144 0.20160 -0.24271
 C387 C 0.82177 0.17485 -0.18443
 C388 C 0.83552 0.15919 -0.16941
 C389 C 0.85145 0.14092 -0.15157
 C390 C 0.86514 0.12554 -0.13614
 C391 C 0.88180 0.10764 -0.11746
 C392 C 0.88877 0.11555 -0.08854
 C393 C 0.90623 0.09894 -0.07078
 C394 C 0.91699 0.07420 -0.08176
 C395 C 0.90932 0.06607 -0.11058
 C396 C 0.89185 0.08274 -0.12834
 H397 H 0.79000 0.16272 -0.23256
 H398 H 0.81703 0.22874 -0.17671
 H399 H 0.78668 0.26002 -0.20551
 H400 H 0.76035 0.19346 -0.26186
 H401 H 0.88110 0.13476 -0.07988
 H402 H 0.91176 0.10572 -0.04866
 H403 H 0.91733 0.04713 -0.11961
 H404 H 0.88657 0.07642 -0.15070
 C405 C 0.77457 0.69586 0.30652
 C406 C 0.80429 0.70178 0.30950
 C407 C 0.81609 0.72405 0.29458
 C408 C 0.79849 0.73989 0.27607
 C409 C 0.76878 0.73320 0.27127
 C410 C 0.75693 0.71163 0.28806
 C411 C 0.82266 0.68484 0.32766
 C412 C 0.83792 0.67026 0.34254
 C413 C 0.85560 0.65274 0.35962
 C414 C 0.87050 0.63737 0.37392
 C415 C 0.88799 0.61852 0.39067
 C416 C 0.91477 0.60939 0.37939
 C417 C 0.93106 0.59004 0.39492
 C418 C 0.92069 0.57954 0.42192
 C419 C 0.89402 0.58916 0.43336
 C420 C 0.87777 0.60851 0.41780
 H421 H 0.76501 0.67896 0.31840
 H422 H 0.83894 0.72927 0.29733
 H423 H 0.80834 0.75752 0.26601
 H424 H 0.73392 0.70670 0.28637
 H425 H 0.92288 0.61695 0.35839
 H426 H 0.95153 0.58301 0.38558
 H427 H 0.88550 0.58146 0.45411
 H428 H 0.85706 0.61539 0.42673
 C429 C 0.27799 0.19974 0.31134
 C430 C 0.30765 0.20604 0.31402
 C431 C 0.31936 0.22759 0.29786
 C432 C 0.30184 0.24201 0.27802
 C433 C 0.27239 0.23446 0.27309
 C434 C 0.26042 0.21414 0.29154
 C435 C 0.32628 0.18969 0.33241
 C436 C 0.34188 0.17534 0.34711
 C437 C 0.35990 0.15780 0.36367
 C438 C 0.37491 0.14217 0.37742
 C439 C 0.39214 0.12277 0.39353
 C440 C 0.41813 0.11265 0.38138
 C441 C 0.43376 0.09237 0.39617
 C442 C 0.42344 0.08198 0.42322
 C443 C 0.39764 0.09267 0.43555
 C444 C 0.38209 0.11292 0.42076
 H445 H 0.26853 0.18341 0.32420
 H446 H 0.34215 0.23311 0.30038
 H447 H 0.31163 0.25904 0.26672
 H448 H 0.23753 0.20877 0.28979
 H449 H 0.42604 0.12008 0.36025
 H450 H 0.45358 0.08451 0.38621
 H451 H 0.38922 0.08509 0.45639
 H452 H 0.36196 0.12056 0.43031
 C453 C 0.30338 0.69464 -0.22765
 C454 C 0.29866 0.69247 -0.19717
 C455 C 0.27661 0.70775 -0.18372
 C456 C 0.26012 0.72602 -0.20044
 C457 C 0.26611 0.73008 -0.23088
 C458 C 0.28693 0.71287 -0.24442
 C459 C 0.31680 0.67493 -0.17961
 C460 C 0.33233 0.66058 -0.16485
 C461 C 0.35067 0.64398 -0.14754
 C462 C 0.36630 0.62979 -0.13271
 C463 C 0.38470 0.61264 -0.11497
 C464 C 0.37546 0.60456 -0.08676
 C465 C 0.39270 0.58698 -0.06994
 C466 C 0.41939 0.57724 -0.08119
 C467 C 0.42881 0.58586 -0.10931
 C468 C 0.41151 0.60345 -0.12612
 H469 H 0.32000 0.68247 -0.23843
 H470 H 0.27222 0.70563 -0.16023
 H471 H 0.24270 0.73677 -0.18930
 H472 H 0.29107 0.71420 -0.26800
 H473 H 0.35476 0.61158 -0.07793
 H474 H 0.38492 0.58069 -0.04834
 H475 H 0.44927 0.57866 -0.11851
 H476 H 0.41886 0.60961 -0.14793
 C477 C 1.18782 -0.20190 -0.22089
 C478 C 1.20243 -0.18829 -0.19815
 C479 C 1.23186 -0.19388 -0.19268
 C480 C 1.24646 -0.21346 -0.20944
 C481 C 1.23170 -0.22857 -0.23145
 C482 C 1.20236 -0.22151 -0.23770
 C483 C 1.18713 -0.16871 -0.18034
 C484 C 1.17401 -0.15267 -0.16521
 C485 C 1.15815 -0.13442 -0.14732
 C486 C 1.14403 -0.11936 -0.13192
 C487 C 1.12636 -0.10211 -0.11348
 C488 C 1.11818 -0.11084 -0.08516
 C489 C 1.09911 -0.09521 -0.06803
 C490 C 1.08794 -0.07068 -0.07907
 C491 C 1.09691 -0.06165 -0.10720
 C492 C 1.11599 -0.07734 -0.12433
 H493 H 1.16518 -0.19722 -0.22578
 H494 H 1.24356 -0.18311 -0.17546
 H495 H 1.26939 -0.21710 -0.20500
 H496 H 1.19055 -0.23060 -0.25586
 H497 H 1.12604 -0.13001 -0.07659
 H498 H 1.09260 -0.10264 -0.04643
 H499 H 1.08864 -0.04283 -0.11625
 H500 H 1.12214 -0.07044 -0.14626
 C501 C 1.22489 0.30341 0.30529
 C502 C 1.19525 0.29710 0.30814
 C503 C 1.18390 0.27457 0.29338
 C504 C 1.20187 0.25887 0.27508
 C505 C 1.23149 0.26597 0.27034
 C506 C 1.24290 0.28778 0.28703
 C507 C 1.17650 0.31392 0.32604
 C508 C 1.16098 0.32843 0.34072
 C509 C 1.14309 0.34592 0.35762
 C510 C 1.12816 0.36130 0.37186
 C511 C 1.11082 0.38021 0.38869
 C512 C 1.08426 0.38982 0.37738
 C513 C 1.06824 0.40930 0.39303
 C514 C 1.07867 0.41942 0.42015
 C515 C 1.10510 0.40930 0.43160
 C516 C 1.12107 0.38984 0.41593
 H517 H 1.23409 0.32052 0.31708
 H518 H 1.16112 0.26905 0.29607
 H519 H 1.19237 0.24104 0.26512
 H520 H 1.26583 0.29302 0.28543
 H521 H 1.07615 0.38255 0.35628
 H522 H 1.04795 0.41672 0.38370
 H523 H 1.11365 0.41670 0.45245
 H524 H 1.14162 0.38258 0.42487
 C525 C 0.68168 -0.22682 0.29869
 C526 C 0.69390 -0.20556 0.31493
 C527 C 0.72368 -0.19979 0.31207
 C528 C 0.74088 -0.21447 0.29214
 C529 C 0.72848 -0.23461 0.27377
 C530 C 0.69885 -0.24154 0.27872
 C531 C 0.67574 -0.18903 0.33371
 C532 C 0.66058 -0.17455 0.34880
 C533 C 0.64297 -0.15690 0.36577
 C534 C 0.62815 -0.14125 0.37977
 C535 C 0.61081 -0.12188 0.39593
 C536 C 0.62097 -0.11144 0.42285
 C537 C 0.60506 -0.09136 0.43763
 C538 C 0.57881 -0.08143 0.42559
 C539 C 0.56845 -0.09239 0.39884
 C540 C 0.58440 -0.11248 0.38409
 H541 H 0.65879 -0.23193 0.30132
 H542 H 0.73353 -0.18368 0.32494
 H543 H 0.76388 -0.20953 0.29032
 H544 H 0.68867 -0.25835 0.26741
 H545 H 0.64143 -0.11851 0.43217
 H546 H 0.61355 -0.08331 0.45822
 H547 H 0.54829 -0.08514 0.38907
 H548 H 0.57637 -0.12036 0.36322
 C549 C 0.69524 0.30445 -0.22545
 C550 C 0.69133 0.29800 -0.19557
 C551 C 0.70542 0.27537 -0.18364
 C552 C 0.72395 0.25962 -0.20128
 C553 C 0.72958 0.26672 -0.23114
 C554 C 0.71374 0.28875 -0.24314
 C555 C 0.67289 0.31464 -0.17719
 C556 C 0.65774 0.32891 -0.16186
 C557 C 0.64031 0.34605 -0.14409
 C558 C 0.62571 0.36110 -0.12911
 C559 C 0.60863 0.37964 -0.11157
 C560 C 0.61955 0.38933 -0.08461
 C561 C 0.60375 0.40855 -0.06839
 C562 C 0.57687 0.41836 -0.07903
 C563 C 0.56577 0.40812 -0.10582
 C564 C 0.58159 0.38889 -0.12200
 H565 H 0.68399 0.32164 -0.23511
 H566 H 0.70193 0.26977 -0.16069
 H567 H 0.73329 0.24167 -0.19139
 H568 H 0.71606 0.29402 -0.26632
 H569 H 0.64047 0.38234 -0.07636
 H570 H 0.61281 0.41607 -0.04782
 H571 H 0.54511 0.41529 -0.11453
 H572 H 0.57296 0.38157 -0.14287
 C573 C 1.22674 0.18516 -0.20752
 C574 C 1.20320 0.19508 -0.19104
 C575 C 1.19587 0.22253 -0.19271
 C576 C 1.21144 0.23980 -0.21152
 C577 C 1.23405 0.22981 -0.22993
 C578 C 1.24233 0.20236 -0.22636
 C579 C 1.18645 0.17698 -0.17265
 C580 C 1.17220 0.16165 -0.15768
 C581 C 1.15516 0.14367 -0.14052
 C582 C 1.14023 0.12846 -0.12610
 C583 C 1.12183 0.11065 -0.10904
 C584 C 1.11180 0.11875 -0.08110
 C585 C 1.09261 0.10222 -0.06516
 C586 C 1.08316 0.07737 -0.07701
 C587 C 1.09380 0.06910 -0.10481
 C588 C 1.11301 0.08569 -0.12074
 H589 H 1.23313 0.16407 -0.20578
 H590 H 1.17803 0.23059 -0.17957
 H591 H 1.20548 0.26103 -0.21220
 H592 H 1.26107 0.19396 -0.23771
 H593 H 1.11845 0.13803 -0.07184
 H594 H 1.08480 0.10911 -0.04379
 H595 H 1.08689 0.05007 -0.11447
 H596 H 1.12061 0.07924 -0.14237
 C597 C 1.22203 0.70662 0.31341
 C598 C 1.19635 0.69634 0.30110
 C599 C 1.18899 0.70289 0.27195
 C600 C 1.20669 0.72042 0.25551
 C601 C 1.23168 0.73291 0.26824
 C602 C 1.23979 0.72415 0.29708
 C603 C 1.17778 0.67884 0.31839
 C604 C 1.16236 0.66434 0.33318
 C605 C 1.14451 0.64740 0.35076
 C606 C 1.12949 0.63283 0.36588
 C607 C 1.11186 0.61516 0.38395
 C608 C 1.08469 0.60610 0.37369
 C609 C 1.06814 0.58804 0.39072
 C610 C 1.07863 0.57880 0.41821
 C611 C 1.10570 0.58838 0.42859
 C612 C 1.12220 0.60643 0.41153
 H613 H 1.22848 0.70095 0.33566
 H614 H 1.16956 0.69441 0.26185
 H615 H 1.20056 0.72457 0.23279
 H616 H 1.26002 0.73063 0.30725
 H617 H 1.07647 0.61272 0.35238
 H618 H 1.04738 0.58101 0.38217
 H619 H 1.11432 0.58161 0.44967
 H620 H 1.14320 0.61331 0.41970
 C621 C 0.70085 0.22910 0.32043
 C622 C 0.68404 0.20817 0.30847
 C623 C 0.68638 0.20195 0.27838
 C624 C 0.70634 0.21583 0.26056
 C625 C 0.72521 0.23560 0.27268
 C626 C 0.72085 0.24304 0.30264
 C627 C 0.66525 0.19231 0.32722
 C628 C 0.65014 0.17821 0.34272
 C629 C 0.63316 0.16078 0.36051
 C630 C 0.61919 0.14514 0.37533
 C631 C 0.60312 0.12560 0.39245
 C632 C 0.57692 0.11498 0.38148
 C633 C 0.56245 0.09443 0.39693
 C634 C 0.57409 0.08423 0.42351
 C635 C 0.60006 0.09544 0.43474
 C636 C 0.61451 0.11599 0.41924
 H637 H 0.69865 0.23455 0.34358
 H638 H 0.67309 0.18607 0.26874
 H639 H 0.70774 0.21055 0.23731
 H640 H 0.73264 0.25966 0.31261
 H641 H 0.56798 0.12220 0.36070
 H642 H 0.54245 0.08620 0.38780
 H643 H 0.60949 0.08799 0.45518
 H644 H 0.63485 0.12401 0.42786
 C645 C 0.69323 0.72774 -0.19318
 C646 C 0.69070 0.69998 -0.19864
 C647 C 0.70644 0.68829 -0.22191
 C648 C 0.72531 0.70406 -0.23912
 C649 C 0.72965 0.73185 -0.23278
 C650 C 0.71207 0.74358 -0.21037
 C651 C 0.67207 0.68336 -0.18038
 C652 C 0.65689 0.66904 -0.16513
 C653 C 0.63955 0.65180 -0.14735
 C654 C 0.62511 0.63665 -0.13231
 C655 C 0.60827 0.61804 -0.11458
 C656 C 0.58142 0.60831 -0.12494
 C657 C 0.56579 0.58916 -0.10846
 C658 C 0.57690 0.57947 -0.08141
 C659 C 0.60364 0.58970 -0.07090
 C660 C 0.61923 0.60884 -0.08742
 H661 H 0.68069 0.73717 -0.17559
 H662 H 0.70404 0.66693 -0.22688
 H663 H 0.73602 0.69430 -0.25761
 H664 H 0.71337 0.76509 -0.20585
 H665 H 0.57275 0.61524 -0.14596
 H666 H 0.54525 0.58166 -0.11709
 H667 H 0.61271 0.58261 -0.05014
 H668 H 0.64001 0.61619 -0.07920
 C669 C 0.79365 -0.22011 -0.18521
 C670 C 0.80801 -0.19839 -0.19874
 C671 C 0.80517 -0.19439 -0.22925
 C672 C 0.78711 -0.21136 -0.24592
 C673 C 0.77059 -0.23214 -0.23230
 C674 C 0.77555 -0.23711 -0.20184
 C675 C 0.82532 -0.17999 -0.18126
 C676 C 0.83948 -0.16440 -0.16652
 C677 C 0.85585 -0.14610 -0.14912
 C678 C 0.86985 -0.13059 -0.13413
 C679 C 0.88680 -0.11241 -0.11603
 C680 C 0.89519 -0.08700 -0.12694
 C681 C 0.91260 -0.06984 -0.10969
 C682 C 0.92187 -0.07796 -0.08134
 C683 C 0.91289 -0.10330 -0.07036
 C684 C 0.89549 -0.12039 -0.08761
 H685 H 0.79637 -0.22388 -0.16171
 H686 H 0.81667 -0.17798 -0.24013
 H687 H 0.78526 -0.20775 -0.26952
 H688 H 0.76568 -0.25414 -0.19060
 H689 H 0.88858 -0.08060 -0.14889
 H690 H 0.91921 -0.05046 -0.11871
 H691 H 0.91967 -0.11009 -0.04861
 H692 H 0.88911 -0.13999 -0.07893
 C693 C 0.79683 0.30932 0.27837
 C694 C 0.81095 0.29763 0.30266
 C695 C 0.80598 0.27042 0.30953
 C696 C 0.78610 0.25527 0.29287
 C697 C 0.76989 0.26728 0.26964
 C698 C 0.77692 0.29423 0.26169
 C699 C 0.82999 0.31381 0.32085
 C700 C 0.84532 0.32787 0.33617
 C701 C 0.86265 0.34491 0.35409
 C702 C 0.87700 0.35999 0.36925
 C703 C 0.89364 0.37863 0.38702
 C704 C 0.92037 0.38862 0.37660
 C705 C 0.93568 0.40803 0.39296
 C706 C 0.92436 0.41773 0.41993
 C707 C 0.89780 0.40719 0.43057
 C708 C 0.88252 0.38777 0.41416
 H709 H 0.80113 0.33019 0.27235
 H710 H 0.81723 0.26097 0.32795
 H711 H 0.78267 0.23422 0.29865
 H712 H 0.76732 0.30388 0.24254
 H713 H 0.92915 0.38174 0.35559
 H714 H 0.95610 0.41576 0.38424
 H715 H 0.88858 0.41428 0.45128
 H716 H 0.86181 0.38023 0.42240
 C717 C 0.31580 -0.20754 0.27701
 C718 C 0.30441 -0.19568 0.30260
 C719 C 0.27528 -0.20024 0.31040
 C720 C 0.25788 -0.21739 0.29325
 C721 C 0.26952 -0.23150 0.26846
 C722 C 0.29850 -0.22471 0.25979
 C723 C 0.32258 -0.17861 0.32067
 C724 C 0.33792 -0.16444 0.33584
 C725 C 0.35587 -0.14784 0.35359
 C726 C 0.37107 -0.13350 0.36870
 C727 C 0.38892 -0.11602 0.38664
 C728 C 0.41599 -0.10696 0.37607
 C729 C 0.43264 -0.08887 0.39288
 C730 C 0.42233 -0.07961 0.42044
 C731 C 0.39542 -0.08926 0.43117
 C732 C 0.37881 -0.10734 0.41434
 H733 H 0.33808 -0.20340 0.27020
 H734 H 0.26596 -0.19050 0.32974
 H735 H 0.23525 -0.21998 0.29970
 H736 H 0.30802 -0.23247 0.23955
 H737 H 0.42401 -0.11356 0.35465
 H738 H 0.45330 -0.08177 0.38408
 H739 H 0.38695 -0.08248 0.45233
 H740 H 0.35789 -0.11424 0.42272
 C741 C 0.30857 0.27087 -0.19258
 C742 C 0.30217 0.29825 -0.18817
 C743 C 0.27811 0.30987 -0.20241
 C744 C 0.26117 0.29450 -0.22192
 C745 C 0.26861 0.26731 -0.22843
 C746 C 0.29166 0.25544 -0.21205
 C747 C 0.32061 0.31465 -0.16959
 C748 C 0.33616 0.32879 -0.15460
 C749 C 0.35435 0.34587 -0.13761
 C750 C 0.36970 0.36093 -0.12349
 C751 C 0.38764 0.37952 -0.10699
 C752 C 0.41407 0.38882 -0.11893
 C753 C 0.43061 0.40815 -0.10371
 C754 C 0.42083 0.41844 -0.07639
 C755 C 0.39457 0.40857 -0.06428
 C756 C 0.37808 0.38925 -0.07952
 H757 H 0.32681 0.26149 -0.18122
 H758 H 0.27247 0.33090 -0.19852
 H759 H 0.24224 0.30411 -0.23162
 H760 H 0.29709 0.23426 -0.21506
 H761 H 0.42164 0.38146 -0.14022
 H762 H 0.45075 0.41539 -0.11355
 H763 H 0.38652 0.41610 -0.04326
 H764 H 0.35764 0.38223 -0.07010
 C765 C 1.23191 -0.19607 0.19190
 C766 C 1.20353 -0.18865 0.19992
 C767 C 1.19059 -0.20028 0.22489
 C768 C 1.20556 -0.21986 0.24131
 C769 C 1.23361 -0.22930 0.23245
 C770 C 1.24697 -0.21564 0.20825
 C771 C 1.18763 -0.16915 0.18248
 C772 C 1.17396 -0.15323 0.16769
 C773 C 1.15749 -0.13510 0.15016
 C774 C 1.14294 -0.12014 0.13504
 C775 C 1.12489 -0.10299 0.11682
 C776 C 1.11410 -0.07844 0.12791
 C777 C 1.09498 -0.06274 0.11084
 C778 C 1.08638 -0.07150 0.08251
 C779 C 1.09788 -0.09586 0.07128
 C780 C 1.11698 -0.11150 0.08836
 H781 H 1.24247 -0.18669 0.17301
 H782 H 1.16890 -0.19407 0.23182
 H783 H 1.19504 -0.22733 0.26117
 H784 H 1.26918 -0.22035 0.20170
 H785 H 1.12003 -0.07168 0.14994
 H786 H 1.08646 -0.04407 0.12004
 H787 H 1.09167 -0.10311 0.04953
 H788 H 1.12516 -0.13048 0.07957
 C789 C 1.22472 0.30383 0.69416
 C790 C 1.19512 0.29760 0.69077
 C791 C 1.18332 0.27530 0.70565
 C792 C 1.20082 0.25970 0.72447
 C793 C 1.23041 0.26663 0.72959
 C794 C 1.24226 0.28829 0.71294
 C795 C 1.17690 0.31422 0.67216
 C796 C 1.16178 0.32855 0.65687
 C797 C 1.14427 0.34582 0.63935
 C798 C 1.12950 0.36102 0.62473
 C799 C 1.11212 0.37973 0.60772
 C800 C 1.08518 0.38875 0.61871
 C801 C 1.06902 0.40807 0.60304
 C802 C 1.07968 0.41866 0.57620
 C803 C 1.10649 0.40911 0.56502
 C804 C 1.12262 0.38978 0.58073
 H805 H 1.23427 0.32076 0.68233
 H806 H 1.16057 0.26987 0.70259
 H807 H 1.19103 0.24201 0.73447
 H808 H 1.26519 0.29341 0.71487
 H809 H 1.07687 0.38114 0.63961
 H810 H 1.04844 0.41503 0.61217
 H811 H 1.11522 0.41689 0.54439
 H812 H 1.14346 0.38299 0.57204
 C813 C 0.69196 -0.22972 0.69039
 C814 C 0.68818 -0.20207 0.69587
 C815 C 0.70312 -0.18986 0.71929
 C816 C 0.72261 -0.20490 0.73651
 C817 C 0.72841 -0.23243 0.73000
 C818 C 0.71143 -0.24485 0.70762
 C819 C 0.66937 -0.18597 0.67732
 C820 C 0.65423 -0.17178 0.66192
 C821 C 0.63713 -0.15441 0.64412
 C822 C 0.62299 -0.13896 0.62920
 C823 C 0.60659 -0.11979 0.61182
 C824 C 0.61805 -0.10996 0.58512
 C825 C 0.60300 -0.09005 0.56918
 C826 C 0.57634 -0.07970 0.57984
 C827 C 0.56471 -0.09006 0.60637
 C828 C 0.57978 -0.10997 0.62227
 H829 H 0.68003 -0.23956 0.67268
 H830 H 0.69973 -0.16861 0.72427
 H831 H 0.73278 -0.19476 0.75504
 H832 H 0.71383 -0.26627 0.70302
 H833 H 0.63883 -0.11736 0.57688
 H834 H 0.61246 -0.08245 0.54880
 H835 H 0.54420 -0.08249 0.61508
 H836 H 0.57075 -0.11737 0.64294
 C837 C 0.70411 0.27582 0.18385
 C838 C 0.69019 0.29860 0.19566
 C839 C 0.69400 0.30511 0.22553
 C840 C 0.71229 0.28934 0.24332
 C841 C 0.72801 0.26717 0.23142
 C842 C 0.72243 0.26000 0.20159
 C843 C 0.67206 0.31537 0.17714
 C844 C 0.65718 0.32976 0.16171
 C845 C 0.64007 0.34704 0.14383
 C846 C 0.62570 0.36222 0.12881
 C847 C 0.60884 0.38089 0.11126
 C848 C 0.58210 0.39068 0.12192
 C849 C 0.56646 0.40998 0.10570
 C850 C 0.57745 0.41976 0.07863
 C851 C 0.60405 0.40944 0.06779
 C852 C 0.61966 0.39014 0.08405
 H853 H 0.70068 0.27018 0.16091
 H854 H 0.68287 0.32242 0.23509
 H855 H 0.71458 0.29467 0.26648
 H856 H 0.73167 0.24194 0.19180
 H857 H 0.57355 0.38370 0.14297
 H858 H 0.54602 0.41754 0.11458
 H859 H 0.61302 0.41660 0.04700
 H860 H 0.64037 0.38274 0.07562
 C861 C 0.78699 0.18408 0.22709
 C862 C 0.80303 0.19341 0.20280
 C863 C 0.80248 0.22093 0.19551
 C864 C 0.78507 0.23886 0.21177
 C865 C 0.76695 0.22949 0.23501
 C866 C 0.76956 0.20195 0.24336
 C867 C 0.81981 0.17467 0.18524
 C868 C 0.83353 0.15888 0.17032
 C869 C 0.84945 0.14048 0.15262
 C870 C 0.86316 0.12502 0.13728
 C871 C 0.87990 0.10708 0.11872
 C872 C 0.88724 0.11502 0.08990
 C873 C 0.90488 0.09843 0.07229
 C874 C 0.91546 0.07365 0.08333
 C875 C 0.90739 0.06546 0.11204
 C876 C 0.88973 0.08213 0.12965
 H877 H 0.78794 0.16293 0.23347
 H878 H 0.81533 0.22851 0.17712
 H879 H 0.78510 0.26009 0.20573
 H880 H 0.75842 0.19396 0.26259
 H881 H 0.87974 0.13428 0.08121
 H882 H 0.91072 0.10525 0.05026
 H883 H 0.91525 0.04649 0.12111
 H884 H 0.88417 0.07578 0.15193
 C885 C 0.79500 0.72354 0.68134
 C886 C 0.81084 0.70250 0.69444
 C887 C 0.80833 0.69791 0.72489
 C888 C 0.78922 0.71360 0.74195
 C889 C 0.77134 0.73363 0.72876
 C890 C 0.77586 0.73927 0.69834
 C891 C 0.82918 0.68529 0.67652
 C892 C 0.84403 0.67048 0.66146
 C893 C 0.86094 0.65270 0.64387
 C894 C 0.87505 0.63713 0.62900
 C895 C 0.89159 0.61805 0.61154
 C896 C 0.91858 0.60852 0.62180
 C897 C 0.93401 0.58902 0.60560
 C898 C 0.92260 0.57877 0.57894
 C899 C 0.89571 0.58877 0.56853
 C900 C 0.88029 0.60827 0.58477
 H901 H 0.79737 0.72778 0.65790
 H902 H 0.82093 0.68201 0.73543
 H903 H 0.78775 0.70964 0.76550
 H904 H 0.76491 0.75590 0.68743
 H905 H 0.92752 0.61590 0.64250
 H906 H 0.95468 0.58172 0.61416
 H907 H 0.88640 0.58126 0.54806
 H908 H 0.85940 0.61547 0.57663
 C909 C 0.27585 0.19995 0.68875
 C910 C 0.30550 0.20614 0.68570
 C911 C 0.31752 0.22751 0.70191
 C912 C 0.30027 0.24194 0.72203
 C913 C 0.27078 0.23462 0.72715
 C914 C 0.25856 0.21434 0.70883
 C915 C 0.32379 0.18994 0.66675
 C916 C 0.33911 0.17573 0.65156
 C917 C 0.35691 0.15836 0.63450
 C918 C 0.37189 0.14289 0.62048
 C919 C 0.38938 0.12366 0.60434
 C920 C 0.41576 0.11432 0.61629
 C921 C 0.43174 0.09420 0.60166
 C922 C 0.42142 0.08316 0.57494
 C923 C 0.39523 0.09307 0.56275
 C924 C 0.37929 0.11319 0.57741
 H925 H 0.26616 0.18374 0.67589
 H926 H 0.34031 0.23293 0.69914
 H927 H 0.31026 0.25887 0.73330
 H928 H 0.23564 0.20912 0.71076
 H929 H 0.42370 0.12224 0.63718
 H930 H 0.45186 0.08696 0.61152
 H931 H 0.38680 0.08496 0.54217
 H932 H 0.35885 0.12022 0.56802
 C933 C 0.30718 0.69849 0.22723
 C934 C 0.29992 0.69387 0.19764
 C935 C 0.27536 0.70648 0.18549
 C936 C 0.25886 0.72462 0.20244
 C937 C 0.26734 0.73164 0.23174
 C938 C 0.29077 0.71659 0.24425
 C939 C 0.31786 0.67637 0.17970
 C940 C 0.33322 0.66201 0.16467
 C941 C 0.35140 0.64538 0.14709
 C942 C 0.36692 0.63114 0.13210
 C943 C 0.38526 0.61394 0.11423
 C944 C 0.37561 0.60526 0.08639
 C945 C 0.39284 0.58768 0.06948
 C946 C 0.41995 0.57854 0.08025
 C947 C 0.42975 0.58774 0.10799
 C948 C 0.41247 0.60533 0.12489
 H949 H 0.32569 0.68822 0.23716
 H950 H 0.26894 0.70234 0.16284
 H951 H 0.23949 0.73315 0.19234
 H952 H 0.29694 0.71940 0.26720
 H953 H 0.35460 0.61181 0.07791
 H954 H 0.38474 0.58094 0.04818
 H955 H 0.45053 0.58102 0.11684
 H956 H 0.42016 0.61194 0.14641
   
