data_POSCAR
  _audit_creation_date              2014-09-24
  _audit_creation_method            'ToBaCCo'
  _symmetry_space_group_name_H-M    'P1'
  _symmetry_Int_Tables_number       1
  _symmetry_cell_setting            triclinic
  loop_
  _symmetry_equiv_pos_as_xyz
 x,y,z
_cell_length_a 71.9675
_cell_length_b 41.2664
_cell_length_c 24.3880
_cell_angle_alpha 90.001100
_cell_angle_beta 89.904500
_cell_angle_gamma 90.144800
loop_
  _atom_site_label
  _atom_site_type_symbol
  _atom_site_fract_x
  _atom_site_fract_y
  _atom_site_fract_z
C1 C 0.74840 0.24347 0.47432
 C2 C 0.74836 0.24387 0.53025
 C3 C 0.73242 0.25698 0.56204
 C4 C 0.76433 0.23131 0.56231
 C5 C 0.76332 0.22698 0.44278
 C6 C 0.73368 0.25982 0.44195
 C7 C 0.73549 0.28093 0.60195
 C8 C 0.72058 0.29403 0.63121
 C9 C 0.70243 0.28313 0.62122
 C10 C 0.69933 0.25874 0.58224
 C11 C 0.71426 0.24561 0.55303
 C12 C 0.78241 0.24316 0.55320
 C13 C 0.79742 0.23034 0.58219
 C14 C 0.79450 0.20583 0.62098
 C15 C 0.77647 0.19451 0.63123
 C16 C 0.76144 0.20729 0.60222
 C17 C 0.76756 0.19422 0.45228
 C18 C 0.78207 0.17932 0.42368
 C19 C 0.79233 0.19690 0.38491
 C20 C 0.78787 0.22930 0.37432
 C21 C 0.77339 0.24423 0.40293
 C22 C 0.72389 0.24244 0.40176
 C23 C 0.70986 0.25746 0.37153
 C24 C 0.70559 0.29008 0.38086
 C25 C 0.71552 0.30772 0.42017
 C26 C 0.72957 0.29274 0.45039
 H27 H 0.74940 0.28987 0.60972
 H28 H 0.72325 0.31282 0.66128
 H29 H 0.68540 0.24990 0.57413
 H30 H 0.71165 0.22671 0.52319
 H31 H 0.78487 0.26211 0.52332
 H32 H 0.81131 0.23937 0.57412
 H33 H 0.74760 0.19800 0.61005
 H34 H 0.75974 0.18032 0.48212
 H35 H 0.78535 0.15420 0.43203
 H36 H 0.79571 0.24311 0.34434
 H37 H 0.77027 0.26944 0.39481
 H38 H 0.72694 0.21712 0.39440
 H39 H 0.70229 0.24361 0.34110
 H40 H 0.71239 0.33302 0.42752
 H41 H 0.73722 0.30674 0.48041
 H42 H 0.77405 0.17560 0.66125
 C43 C 0.24895 0.74350 0.47151
 C44 C 0.24877 0.74301 0.52743
 C45 C 0.23397 0.75943 0.55952
 C46 C 0.26353 0.72637 0.55927
 C47 C 0.26498 0.73078 0.43975
 C48 C 0.23321 0.75693 0.43939
 C49 C 0.23002 0.79241 0.55125
 C50 C 0.21589 0.80747 0.58122
 C51 C 0.20573 0.78981 0.62012
 C52 C 0.20985 0.75713 0.62928
 C53 C 0.22395 0.74204 0.59930
 C54 C 0.27350 0.74353 0.59935
 C55 C 0.28786 0.72849 0.62819
 C56 C 0.29229 0.69608 0.61758
 C57 C 0.28212 0.67859 0.57860
 C58 C 0.26774 0.69359 0.54977
 C59 C 0.26213 0.70686 0.39968
 C60 C 0.27719 0.69395 0.37086
 C61 C 0.29523 0.70504 0.38149
 C62 C 0.29813 0.72944 0.42046
 C63 C 0.28308 0.74239 0.44926
 C64 C 0.21495 0.74578 0.44778
 C65 C 0.20023 0.75918 0.41817
 C66 C 0.20363 0.78359 0.37952
 C67 C 0.22184 0.79429 0.37016
 C68 C 0.23656 0.78095 0.39977
 H69 H 0.23784 0.80642 0.52155
 H70 H 0.21288 0.83282 0.57401
 H71 H 0.20210 0.74327 0.65939
 H72 H 0.22688 0.71666 0.60653
 H73 H 0.27041 0.76876 0.60747
 H74 H 0.29563 0.74224 0.65832
 H75 H 0.25998 0.67977 0.51974
 H76 H 0.24827 0.69775 0.39155
 H77 H 0.27479 0.67514 0.34070
 H78 H 0.31203 0.73829 0.42882
 H79 H 0.28552 0.76126 0.47927
 H80 H 0.21211 0.72684 0.47739
 H81 H 0.18620 0.75063 0.42557
 H82 H 0.22463 0.81312 0.34029
 H83 H 0.25054 0.78973 0.39247
 H84 H 0.28539 0.65345 0.57023
 C85 C 0.24853 0.25698 -0.52980
 C86 C 0.24817 0.25729 -0.47389
 C87 C 0.23321 0.24079 -0.44230
 C88 C 0.26285 0.27387 -0.44151
 C89 C 0.26468 0.26991 -0.56105
 C90 C 0.23287 0.24363 -0.56243
 C91 C 0.22316 0.25807 -0.40254
 C92 C 0.20897 0.24291 -0.37286
 C93 C 0.20476 0.21022 -0.38229
 C94 C 0.21494 0.19268 -0.42126
 C95 C 0.22916 0.20784 -0.45092
 C96 C 0.26712 0.30671 -0.45058
 C97 C 0.28142 0.32168 -0.42121
 C98 C 0.29145 0.30410 -0.38213
 C99 C 0.28695 0.27163 -0.37196
 C100 C 0.27267 0.25662 -0.40134
 C101 C 0.28274 0.25843 -0.55116
 C102 C 0.29788 0.27148 -0.57962
 C103 C 0.29511 0.29589 -0.61868
 C104 C 0.27708 0.30687 -0.62962
 C105 C 0.26194 0.29385 -0.60112
 C106 C 0.23628 0.21965 -0.60202
 C107 C 0.22161 0.20629 -0.63201
 C108 C 0.20339 0.21696 -0.62306
 C109 C 0.19994 0.24137 -0.58445
 C110 C 0.21462 0.25476 -0.55448
 H111 H 0.22617 0.28342 -0.39505
 H112 H 0.20125 0.25676 -0.34274
 H113 H 0.21191 0.16733 -0.42881
 H114 H 0.23700 0.19391 -0.48059
 H115 H 0.25947 0.32059 -0.48068
 H116 H 0.28474 0.34686 -0.42923
 H117 H 0.26952 0.23135 -0.39357
 H118 H 0.28509 0.23953 -0.52117
 H119 H 0.31173 0.26263 -0.57091
 H120 H 0.27472 0.32568 -0.65982
 H121 H 0.24812 0.30286 -0.60955
 H122 H 0.25026 0.21089 -0.60896
 H123 H 0.22449 0.18747 -0.66181
 H124 H 0.18593 0.24996 -0.57725
 H125 H 0.21175 0.27368 -0.52489
 H126 H 0.29460 0.25783 -0.34174
 C127 C -0.25143 0.75645 -0.47406
 C128 C -0.25158 0.75679 -0.52999
 C129 C -0.23681 0.77354 -0.56192
 C130 C -0.26636 0.74017 -0.56196
 C131 C -0.26722 0.74303 -0.44186
 C132 C -0.23542 0.76937 -0.44239
 C133 C -0.23267 0.80639 -0.55258
 C134 C -0.21823 0.82151 -0.58132
 C135 C -0.20793 0.80404 -0.62010
 C136 C -0.21233 0.77154 -0.63059
 C137 C -0.22675 0.75641 -0.60182
 C138 C -0.27631 0.75736 -0.60192
 C139 C -0.29039 0.74211 -0.63180
 C140 C -0.29457 0.70940 -0.62235
 C141 C -0.28446 0.69194 -0.58322
 C142 C -0.27036 0.70719 -0.55338
 C143 C -0.26395 0.71907 -0.40218
 C144 C -0.27873 0.70566 -0.37261
 C145 C -0.29693 0.71624 -0.38208
 C146 C -0.30024 0.74065 -0.42078
 C147 C -0.28545 0.75410 -0.45032
 C148 C -0.21732 0.75793 -0.45190
 C149 C -0.20229 0.77096 -0.42301
 C150 C -0.20524 0.79529 -0.38395
 C151 C -0.22329 0.80624 -0.37338
 C152 C -0.23832 0.79325 -0.40228
 H153 H -0.24050 0.82016 -0.52268
 H154 H -0.21503 0.84670 -0.57292
 H155 H -0.20451 0.75775 -0.66055
 H156 H -0.22980 0.73114 -0.60980
 H157 H -0.27334 0.78273 -0.60939
 H158 H -0.29806 0.75590 -0.66203
 H159 H -0.26259 0.69333 -0.52354
 H160 H -0.24999 0.71036 -0.39484
 H161 H -0.27596 0.68684 -0.34273
 H162 H -0.31423 0.74918 -0.42837
 H163 H -0.28821 0.77301 -0.47999
 H164 H -0.21483 0.73908 -0.48191
 H165 H -0.18839 0.76220 -0.43132
 H166 H -0.22572 0.82500 -0.34315
 H167 H -0.25218 0.80224 -0.39413
 H168 H -0.28747 0.66658 -0.57566
 O169 O -0.02576 0.94470 0.10052
 O170 O -0.04596 0.97376 0.04677
 C171 C -0.04233 0.95326 0.08547
 O172 O 0.02679 1.05979 0.09603
 O173 O 0.04737 1.02847 0.04730
 C174 C 0.04347 1.05106 0.08230
 O175 O -0.02523 1.05647 0.10111
 O176 O -0.04554 1.02755 0.04747
 C177 C -0.04183 1.04799 0.08622
 O178 O 0.02652 0.94114 0.09641
 O179 O 0.04727 0.97242 0.04771
 C180 C 0.04325 0.94985 0.08277
 Zr181 Zr 0.00056 0.95941 0.06960
 O182 O 0.00212 0.95780 0.15623
 O183 O -0.00051 0.90834 0.06400
 Zr184 Zr 0.00080 1.04148 0.06928
 O185 O 0.00243 1.04351 0.15585
 O186 O -0.00007 1.09252 0.06276
 O187 O -0.01587 1.00049 0.07978
 O188 O 0.01674 1.00043 0.08009
 O189 O 0.02730 0.94078 -0.09357
 O190 O 0.04759 0.97220 -0.04385
 C191 C 0.04389 0.94960 -0.07905
 O192 O -0.02483 1.05666 -0.10047
 O193 O -0.04551 1.02724 -0.04843
 C194 C -0.04154 1.04809 -0.08640
 O195 O 0.02725 1.05997 -0.09441
 O196 O 0.04747 1.02864 -0.04464
 C197 C 0.04382 1.05117 -0.07996
 O198 O -0.02467 0.94371 -0.10088
 O199 O -0.04529 0.97307 -0.04901
 C200 C -0.04135 0.95225 -0.08699
 Zr201 Zr 0.00117 0.95933 -0.06864
 O202 O 0.00361 0.95930 -0.15516
 O203 O -0.00065 0.90813 -0.06763
 Zr204 Zr 0.00118 1.04131 -0.06898
 O205 O 0.00353 1.04090 -0.15554
 O206 O -0.00051 1.09250 -0.06862
 Zr207 Zr -0.02680 1.00039 -0.00040
 Zr208 Zr 0.02859 1.00035 0.00122
 O209 O 0.01736 1.00032 -0.07839
 O210 O -0.01536 1.00028 -0.08007
 O211 O 0.01746 0.95311 0.00108
 O212 O -0.01526 1.04728 -0.00016
 O213 O -0.01540 0.95350 0.00007
 O214 O 0.01761 1.04761 0.00061
 H215 H 0.02495 1.00047 0.11266
 H216 H -0.02369 1.06623 -0.00026
 H217 H 0.02588 1.00026 -0.11034
 H218 H -0.02388 0.93455 -0.00004
 H219 H -0.00010 1.10090 0.10083
 H220 H 0.00825 1.10043 -0.04036
 H221 H -0.00702 1.02815 -0.17008
 H222 H -0.00653 0.97287 -0.16985
 H223 H 0.00812 0.90031 -0.03940
 H224 H -0.00068 0.90023 0.10224
 H225 H -0.00742 0.97277 0.17064
 H226 H -0.00654 1.02749 0.17041
 O227 O 0.47540 0.44346 0.10048
 O228 O 0.45474 0.47272 0.04860
 C229 C 0.45870 0.45201 0.08671
 O230 O 0.52794 0.55852 0.09275
 O231 O 0.54807 0.52730 0.04221
 C232 C 0.54449 0.54973 0.07781
 O233 O 0.47599 0.55576 0.10109
 O234 O 0.45519 0.52680 0.04919
 C235 C 0.45926 0.54741 0.08736
 O236 O 0.52763 0.44015 0.09284
 O237 O 0.54791 0.47137 0.04242
 C238 C 0.54422 0.44892 0.07797
 Zr239 Zr 0.50144 0.45835 0.06784
 O240 O 0.50369 0.45673 0.15432
 O241 O 0.50038 0.40728 0.06211
 Zr242 Zr 0.50170 0.54044 0.06760
 O243 O 0.50399 0.54237 0.15404
 O244 O 0.50091 0.59149 0.06120
 O245 O 0.48511 0.49946 0.07939
 O246 O 0.51770 0.49935 0.07711
 O247 O 0.52646 0.43946 -0.09764
 O248 O 0.54722 0.47085 -0.04978
 C249 C 0.54318 0.44815 -0.08447
 O250 O 0.47459 0.55551 -0.10036
 O251 O 0.45435 0.52625 -0.04652
 C252 C 0.45800 0.54689 -0.08509
 O253 O 0.52692 0.55890 -0.09725
 O254 O 0.54759 0.52733 -0.04934
 C255 C 0.54362 0.55006 -0.08405
 O256 O 0.47464 0.44312 -0.10101
 O257 O 0.45456 0.47236 -0.04723
 C258 C 0.45811 0.45176 -0.08584
 Zr259 Zr 0.50076 0.45843 -0.07042
 O260 O 0.50250 0.45855 -0.15709
 O261 O 0.49879 0.40725 -0.06928
 Zr262 Zr 0.50090 0.54040 -0.07059
 O263 O 0.50261 0.54030 -0.15726
 O264 O 0.49919 0.59158 -0.07010
 Zr265 Zr 0.47348 0.49949 0.00010
 Zr266 Zr 0.52888 0.49934 -0.00263
 O267 O 0.51694 0.49938 -0.08134
 O268 O 0.48423 0.49944 -0.08044
 O269 O 0.51771 0.45212 -0.00202
 O270 O 0.48506 0.54634 -0.00059
 O271 O 0.48484 0.45256 -0.00046
 O272 O 0.51793 0.54663 -0.00226
 H273 H 0.52616 0.49937 0.10912
 H274 H 0.47665 0.56532 -0.00018
 H275 H 0.52520 0.49933 -0.11389
 H276 H 0.47634 0.43363 -0.00011
 H277 H 0.50125 0.59985 0.09928
 H278 H 0.50822 0.59953 -0.04264
 H279 H 0.49204 0.52735 -0.17120
 H280 H 0.49226 0.47218 -0.17101
 H281 H 0.50778 0.39934 -0.04172
 H282 H 0.50054 0.39912 0.10032
 H283 H 0.49426 0.47167 0.16939
 H284 H 0.49504 0.52648 0.16917
 C285 C 0.30989 0.30923 0.35457
 C286 C 0.32295 0.32128 0.33111
 C287 C 0.33850 0.33592 0.30329
 C288 C 0.33551 0.35676 0.25893
 C289 C 0.35058 0.37130 0.23223
 C290 C 0.36888 0.36516 0.24959
 C291 C 0.37174 0.34411 0.29418
 C292 C 0.35664 0.32962 0.32084
 C293 C 0.38490 0.38065 0.22132
 C294 C 0.40123 0.36298 0.21085
 C295 C 0.41626 0.37754 0.18400
 C296 C 0.41520 0.40992 0.16731
 C297 C 0.39905 0.42774 0.17765
 C298 C 0.38399 0.41322 0.20446
 C299 C 0.43062 0.42479 0.13920
 C300 C 0.44348 0.43722 0.11540
 H301 H 0.32152 0.36176 0.24495
 H302 H 0.34794 0.38703 0.19760
 H303 H 0.38563 0.33922 0.30895
 H304 H 0.35911 0.31363 0.35529
 H305 H 0.40227 0.33776 0.22269
 H306 H 0.42867 0.36349 0.17603
 H307 H 0.39810 0.45286 0.16502
 H308 H 0.37172 0.42759 0.21256
 C309 C -0.19342 0.81835 0.35332
 C310 C -0.18041 0.83069 0.33010
 C311 C -0.16469 0.84503 0.30271
 C312 C -0.16736 0.86781 0.26098
 C313 C -0.15205 0.88147 0.23411
 C314 C -0.13386 0.87246 0.24864
 C315 C -0.13134 0.84960 0.29078
 C316 C -0.14666 0.83600 0.31760
 C317 C -0.11758 0.88670 0.21987
 C318 C -0.10226 0.86726 0.20577
 C319 C -0.08693 0.88065 0.17866
 C320 C -0.08670 0.91363 0.16533
 C321 C -0.10185 0.93319 0.17918
 C322 C -0.11721 0.91983 0.20625
 C323 C -0.07094 0.92738 0.13730
 C324 C -0.05781 0.93905 0.11370
 H325 H -0.18126 0.87489 0.24903
 H326 H -0.15444 0.89870 0.20141
 H327 H -0.11752 0.84250 0.30341
 H328 H -0.14445 0.81845 0.34996
 H329 H -0.10223 0.84160 0.21503
 H330 H -0.07529 0.86528 0.16796
 H331 H -0.10179 0.95877 0.16916
 H332 H -0.12868 0.93550 0.21715
 C333 C 0.69148 0.69472 0.34917
 C334 C 0.67906 0.68187 0.32410
 C335 C 0.66412 0.66668 0.29441
 C336 C 0.65731 0.68089 0.24639
 C337 C 0.64262 0.66640 0.21796
 C338 C 0.63455 0.63745 0.23722
 C339 C 0.64155 0.62330 0.28543
 C340 C 0.65623 0.63785 0.31381
 C341 C 0.61879 0.62221 0.20745
 C342 C 0.61781 0.58833 0.20141
 C343 C 0.60283 0.57398 0.17415
 C344 C 0.58863 0.59324 0.15258
 C345 C 0.58952 0.62696 0.15809
 C346 C 0.60450 0.64138 0.18530
 C347 C 0.57304 0.57832 0.12556
 C348 C 0.55999 0.56549 0.10345
 H349 H 0.66334 0.70319 0.23096
 H350 H 0.63770 0.67766 0.18063
 H351 H 0.63548 0.60128 0.30172
 H352 H 0.66135 0.62672 0.35106
 H353 H 0.62871 0.57295 0.21734
 H354 H 0.60230 0.54785 0.17003
 H355 H 0.57857 0.64209 0.14172
 H356 H 0.60473 0.66747 0.18988
 C357 C 0.18907 1.20321 0.34879
 C358 C 0.17647 1.19066 0.32410
 C359 C 0.16151 1.17521 0.29493
 C360 C 0.14479 1.19167 0.28626
 C361 C 0.13017 1.17641 0.25865
 C362 C 0.13209 1.14443 0.23943
 C363 C 0.14900 1.12817 0.24814
 C364 C 0.16359 1.14348 0.27571
 C365 C 0.11649 1.12798 0.21089
 C366 C 0.11242 1.09522 0.22168
 C367 C 0.09766 1.07976 0.19511
 C368 C 0.08678 1.09679 0.15740
 C369 C 0.09073 1.12936 0.14626
 C370 C 0.10548 1.14488 0.17283
 C371 C 0.07151 1.08086 0.13049
 C372 C 0.05870 1.06734 0.10830
 H373 H 0.14301 1.21621 0.30114
 H374 H 0.11726 1.18942 0.25318
 H375 H 0.15099 1.10371 0.23321
 H376 H 0.17649 1.13055 0.28210
 H377 H 0.12046 1.08167 0.25129
 H378 H 0.09468 1.05457 0.20416
 H379 H 0.08242 1.14274 0.11704
 H380 H 0.10841 1.16999 0.16315
 C381 C 0.68845 0.29603 -0.35240
 C382 C 0.67561 0.30825 -0.32827
 C383 C 0.66035 0.32324 -0.29980
 C384 C 0.64469 0.33344 -0.32895
 C385 C 0.63002 0.34865 -0.30160
 C386 C 0.63083 0.35388 -0.24462
 C387 C 0.64659 0.34334 -0.21563
 C388 C 0.66125 0.32815 -0.24309
 C389 C 0.61536 0.37050 -0.21570
 C390 C 0.60933 0.35972 -0.16387
 C391 C 0.59475 0.37541 -0.13680
 C392 C 0.58604 0.40207 -0.16110
 C393 C 0.59197 0.41301 -0.21255
 C394 C 0.60652 0.39735 -0.23970
 C395 C 0.57097 0.41815 -0.13348
 C396 C 0.55830 0.43177 -0.11084
 H397 H 0.64384 0.32972 -0.37286
 H398 H 0.61798 0.35608 -0.32496
 H399 H 0.64773 0.34736 -0.17189
 H400 H 0.67335 0.32047 -0.22016
 H401 H 0.61571 0.33890 -0.14462
 H402 H 0.59024 0.36669 -0.09703
 H403 H 0.58536 0.43368 -0.23166
 H404 H 0.61101 0.40652 -0.27917
 C405 C 0.19097 0.80512 -0.34971
 C406 C 0.17851 0.81780 -0.32462
 C407 C 0.16354 0.83281 -0.29493
 C408 C 0.15557 0.81709 -0.24980
 C409 C 0.14084 0.83144 -0.22142
 C410 C 0.13389 0.86177 -0.23786
 C411 C 0.14206 0.87743 -0.28319
 C412 C 0.15678 0.86301 -0.31152
 C413 C 0.11811 0.87691 -0.20818
 C414 C 0.11799 0.91046 -0.19783
 C415 C 0.10298 0.92478 -0.17070
 C416 C 0.08792 0.90580 -0.15355
 C417 C 0.08794 0.87239 -0.16335
 C418 C 0.10294 0.85801 -0.19046
 C419 C 0.07233 0.92076 -0.12668
 C420 C 0.05931 0.93368 -0.10465
 H421 H 0.16072 0.79371 -0.23657
 H422 H 0.13500 0.81898 -0.18629
 H423 H 0.13687 0.90057 -0.29731
 H424 H 0.16281 0.87533 -0.34654
 H425 H 0.12956 0.92558 -0.21031
 H426 H 0.10312 0.95066 -0.16323
 H427 H 0.07631 0.85751 -0.15043
 H428 H 0.10251 0.83221 -0.19843
 C429 C 0.30754 0.68107 -0.35408
 C430 C 0.32048 0.66888 -0.33060
 C431 C 0.33612 0.65474 -0.30282
 C432 C 0.33349 0.62906 -0.26611
 C433 C 0.34871 0.61553 -0.23892
 C434 C 0.36677 0.62758 -0.24807
 C435 C 0.36925 0.65336 -0.28515
 C436 C 0.35402 0.66682 -0.31231
 C437 C 0.38295 0.61340 -0.21902
 C438 C 0.39718 0.63350 -0.19862
 C439 C 0.41244 0.62015 -0.17143
 C440 C 0.41370 0.58659 -0.16429
 C441 C 0.39961 0.56639 -0.18436
 C442 C 0.38433 0.57968 -0.21152
 C443 C 0.42942 0.57287 -0.13636
 C444 C 0.44253 0.56118 -0.11295
 H445 H 0.31968 0.61959 -0.25834
 H446 H 0.34632 0.59598 -0.21013
 H447 H 0.38299 0.66287 -0.29366
 H448 H 0.35622 0.68664 -0.34076
 H449 H 0.39640 0.65956 -0.20307
 H450 H 0.42323 0.63602 -0.15589
 H451 H 0.40047 0.54036 -0.17916
 H452 H 0.37373 0.56355 -0.22734
 C453 C -0.18998 1.19186 -0.35051
 C454 C -0.17698 1.17989 -0.32702
 C455 C -0.16146 1.16531 -0.29937
 C456 C -0.14362 1.16758 -0.32195
 C457 C -0.12856 1.15303 -0.29554
 C458 C -0.13118 1.13597 -0.24616
 C459 C -0.14917 1.13390 -0.22373
 C460 C -0.16420 1.14849 -0.25019
 C461 C -0.11522 1.12031 -0.21826
 C462 C -0.11718 1.08945 -0.19437
 C463 C -0.10216 1.07474 -0.16808
 C464 C -0.08500 1.09066 -0.16528
 C465 C -0.08290 1.12135 -0.18894
 C466 C -0.09790 1.13609 -0.21530
 C467 C -0.06960 1.07562 -0.13778
 C468 C -0.05675 1.06304 -0.11449
 H469 H -0.14135 1.18043 -0.36014
 H470 H -0.11493 1.15470 -0.31419
 H471 H -0.15159 1.12131 -0.18542
 H472 H -0.17796 1.14663 -0.23232
 H473 H -0.13027 1.07650 -0.19661
 H474 H -0.10392 1.05094 -0.15000
 H475 H -0.06968 1.13393 -0.18683
 H476 H -0.09601 1.16002 -0.23268
 C477 C 0.68865 0.70243 -0.35437
 C478 C 0.67594 0.68983 -0.33009
 C479 C 0.66084 0.67435 -0.30144
 C480 C 0.65282 0.64613 -0.32278
 C481 C 0.63829 0.63079 -0.29485
 C482 C 0.63157 0.64351 -0.24510
 C483 C 0.63969 0.67196 -0.22405
 C484 C 0.65425 0.68725 -0.25206
 C485 C 0.61617 0.62712 -0.21537
 C486 C 0.60194 0.64532 -0.19054
 C487 C 0.58733 0.62981 -0.16319
 C488 C 0.58675 0.59596 -0.16021
 C489 C 0.60088 0.57765 -0.18449
 C490 C 0.61550 0.59309 -0.21189
 C491 C 0.57156 0.57995 -0.13286
 C492 C 0.55881 0.56638 -0.11035
 H493 H 0.65780 0.63598 -0.36104
 H494 H 0.63216 0.60920 -0.31250
 H495 H 0.63498 0.68211 -0.18554
 H496 H 0.66041 0.70902 -0.23508
 H497 H 0.60195 0.67152 -0.19308
 H498 H 0.57642 0.64421 -0.14468
 H499 H 0.60059 0.55142 -0.18232
 H500 H 0.62637 0.57843 -0.22991
 C501 C 0.19075 1.19562 -0.35384
 C502 C 0.17828 1.18287 -0.32871
 C503 C 0.16331 1.16782 -0.29886
 C504 C 0.15647 1.18220 -0.25096
 C505 C 0.14177 1.16780 -0.22229
 C506 C 0.13371 1.13878 -0.24120
 C507 C 0.14073 1.12447 -0.28932
 C508 C 0.15542 1.13892 -0.31793
 C509 C 0.11797 1.12360 -0.21112
 C510 C 0.11703 1.08975 -0.20470
 C511 C 0.10207 1.07544 -0.17712
 C512 C 0.08786 1.09474 -0.15558
 C513 C 0.08870 1.12844 -0.16147
 C514 C 0.10366 1.14281 -0.18901
 C515 C 0.07229 1.07984 -0.12824
 C516 C 0.05927 1.06700 -0.10587
 H517 H 0.16249 1.20454 -0.23578
 H518 H 0.13683 1.17919 -0.18503
 H519 H 0.13467 1.10238 -0.30534
 H520 H 0.16056 1.12765 -0.35509
 H521 H 0.12794 1.07434 -0.22059
 H522 H 0.10157 1.04933 -0.17271
 H523 H 0.07774 1.14359 -0.14514
 H524 H 0.10386 1.16888 -0.19387
 C525 C 0.30660 0.31911 -0.35319
 C526 C 0.31946 0.33132 -0.32918
 C527 C 0.33497 0.34550 -0.30076
 C528 C 0.34335 0.37374 -0.32088
 C529 C 0.35869 0.38711 -0.29391
 C530 C 0.36586 0.37235 -0.24645
 C531 C 0.35726 0.34405 -0.22641
 C532 C 0.34192 0.33074 -0.25342
 C533 C 0.38230 0.38626 -0.21817
 C534 C 0.39628 0.36590 -0.19738
 C535 C 0.41177 0.37899 -0.17080
 C536 C 0.41349 0.41257 -0.16463
 C537 C 0.39968 0.43304 -0.18517
 C538 C 0.38419 0.42000 -0.21180
 C539 C 0.42937 0.42604 -0.13700
 C540 C 0.44258 0.43757 -0.11371
 H541 H 0.33813 0.38527 -0.35765
 H542 H 0.36514 0.40867 -0.31073
 H543 H 0.36229 0.33238 -0.18957
 H544 H 0.33552 0.30889 -0.23747
 H545 H 0.39535 0.33987 -0.20230
 H546 H 0.42240 0.36294 -0.15515
 H547 H 0.40086 0.45908 -0.18044
 H548 H 0.37356 0.43628 -0.22675
 C549 C -0.18973 0.80936 -0.35528
 C550 C -0.17676 0.82141 -0.33152
 C551 C -0.16130 0.83604 -0.30340
 C552 C -0.16417 0.86279 -0.26917
 C553 C -0.14915 0.87727 -0.24227
 C554 C -0.13104 0.86515 -0.24925
 C555 C -0.12831 0.83819 -0.28367
 C556 C -0.14335 0.82377 -0.31057
 C557 C -0.11506 0.88059 -0.22083
 C558 C -0.10091 0.86152 -0.19770
 C559 C -0.08591 0.87608 -0.17085
 C560 C -0.08483 0.90985 -0.16679
 C561 C -0.09881 0.92905 -0.18971
 C562 C -0.11383 0.91454 -0.21654
 C563 C -0.06943 0.92480 -0.13887
 C564 C -0.05657 0.93732 -0.11530
 H565 H -0.17801 0.87245 -0.26326
 H566 H -0.15174 0.89770 -0.21550
 H567 H -0.11452 0.82856 -0.29044
 H568 H -0.14097 0.80315 -0.33715
 H569 H -0.10158 0.83533 -0.19968
 H570 H -0.07519 0.86099 -0.15308
 H571 H -0.09809 0.95523 -0.18690
 H572 H -0.12437 0.92990 -0.23454
 C573 C 0.31078 0.69098 0.35309
 C574 C 0.32379 0.67891 0.32963
 C575 C 0.33930 0.66424 0.30193
 C576 C 0.33629 0.63969 0.26336
 C577 C 0.35135 0.62510 0.23693
 C578 C 0.36965 0.63491 0.24876
 C579 C 0.37253 0.65968 0.28752
 C580 C 0.35744 0.67422 0.31393
 C581 C 0.38567 0.61935 0.22085
 C582 C 0.40090 0.63804 0.20298
 C583 C 0.41593 0.62338 0.17647
 C584 C 0.41595 0.58989 0.16753
 C585 C 0.40089 0.57107 0.18525
 C586 C 0.38584 0.58567 0.21173
 C587 C 0.43132 0.57489 0.13968
 C588 C 0.44413 0.56234 0.11601
 H589 H 0.32230 0.63182 0.25371
 H590 H 0.34867 0.60642 0.20677
 H591 H 0.38645 0.66748 0.29802
 H592 H 0.35993 0.69311 0.34390
 H593 H 0.40107 0.66405 0.20877
 H594 H 0.42748 0.63819 0.16272
 H595 H 0.40079 0.54510 0.17860
 H596 H 0.37445 0.57058 0.22564
 C597 C -0.19234 1.18196 0.35672
 C598 C -0.17935 1.16978 0.33333
 C599 C -0.16367 1.15561 0.30563
 C600 C -0.14565 1.16585 0.31844
 C601 C -0.13039 1.15238 0.29131
 C602 C -0.13296 1.12843 0.25093
 C603 C -0.15114 1.11821 0.23847
 C604 C -0.16639 1.13175 0.26564
 C605 C -0.11675 1.11428 0.22184
 C606 C -0.11608 1.08089 0.21030
 C607 C -0.10079 1.06762 0.18295
 C608 C -0.08600 1.08752 0.16672
 C609 C -0.08653 1.12076 0.17796
 C610 C -0.10179 1.13407 0.20535
 C611 C -0.07031 1.07384 0.13842
 C612 C -0.05724 1.06220 0.11463
 H613 H -0.14338 1.18425 0.34943
 H614 H -0.11656 1.16044 0.30235
 H615 H -0.15359 1.10013 0.20713
 H616 H -0.18029 1.12371 0.25529
 H617 H -0.12725 1.06496 0.22306
 H618 H -0.10050 1.04184 0.17456
 H619 H -0.07518 1.13640 0.16542
 H620 H -0.10200 1.15991 0.21297
 C621 C 0.69090 0.30531 0.35043
 C622 C 0.67850 0.31795 0.32516
 C623 C 0.66359 0.33293 0.29528
 C624 C 0.65652 0.31815 0.24804
 C625 C 0.64185 0.33245 0.21945
 C626 C 0.63407 0.36178 0.23776
 C627 C 0.64133 0.37650 0.28520
 C628 C 0.65599 0.36214 0.31374
 C629 C 0.61835 0.37685 0.20784
 C630 C 0.61764 0.41064 0.20042
 C631 C 0.60267 0.42485 0.17309
 C632 C 0.58823 0.40553 0.15282
 C633 C 0.58885 0.37188 0.15968
 C634 C 0.60381 0.35761 0.18697
 C635 C 0.57267 0.42035 0.12578
 C636 C 0.55965 0.43314 0.10365
 H637 H 0.66233 0.29555 0.23335
 H638 H 0.63672 0.32075 0.18271
 H639 H 0.63548 0.39883 0.30076
 H640 H 0.66131 0.37371 0.35039
 H641 H 0.62872 0.42605 0.21536
 H642 H 0.60234 0.45092 0.16790
 H643 H 0.57770 0.35672 0.14432
 H644 H 0.60384 0.33158 0.19264
 C645 C 0.18847 0.79805 0.35001
 C646 C 0.17585 0.81055 0.32544
 C647 C 0.16088 0.82590 0.29631
 C648 C 0.14338 0.81113 0.29390
 C649 C 0.12879 0.82633 0.26626
 C650 C 0.13152 0.85656 0.24072
 C651 C 0.14920 0.87112 0.24320
 C652 C 0.16377 0.85587 0.27081
 C653 C 0.11597 0.87298 0.21204
 C654 C 0.11348 0.90667 0.21707
 C655 C 0.09878 0.92211 0.19039
 C656 C 0.08638 0.90414 0.15831
 C657 C 0.08875 0.87063 0.15292
 C658 C 0.10344 0.85513 0.17960
 C659 C 0.07117 0.92008 0.13129
 C660 C 0.05842 0.93359 0.10897
 H661 H 0.14097 0.78798 0.31367
 H662 H 0.11529 0.81470 0.26568
 H663 H 0.15182 0.89415 0.22334
 H664 H 0.17728 0.86748 0.27233
 H665 H 0.12273 0.92102 0.24232
 H666 H 0.09704 0.94804 0.19500
 H667 H 0.07925 0.85650 0.12808
 H668 H 0.10511 0.82925 0.17437
   
