data_POSCAR
  _audit_creation_date              2014-09-24
  _audit_creation_method            'ToBaCCo'
  _symmetry_space_group_name_H-M    'P1'
  _symmetry_Int_Tables_number       1
  _symmetry_cell_setting            triclinic
  loop_
  _symmetry_equiv_pos_as_xyz
 x,y,z
_cell_length_a 48.9000
_cell_length_b 10.3376
_cell_length_c 22.0715
_cell_angle_alpha 90.455400
_cell_angle_beta 89.912400
_cell_angle_gamma 88.468000
loop_
  _atom_site_label
  _atom_site_type_symbol
  _atom_site_fract_x
  _atom_site_fract_y
  _atom_site_fract_z
C1 C 0.67549 0.26862 0.47933
 C2 C 0.68803 0.27642 0.53655
 C3 C 0.71692 0.27505 0.53793
 C4 C 0.73262 0.24749 0.48511
 C5 C 0.71863 0.21954 0.43071
 C6 C 0.69015 0.23241 0.42721
 C7 C 0.76339 0.24437 0.48624
 C8 C 0.77822 0.26368 0.43205
 C9 C 0.80695 0.25818 0.43102
 C10 C 0.82071 0.23279 0.48551
 C11 C 0.80697 0.22702 0.54106
 C12 C 0.77825 0.22724 0.54085
 H13 H 0.65384 0.29040 0.47476
 H14 H 0.72716 0.29094 0.58023
 H15 H 0.72966 0.18556 0.39095
 H16 H 0.76751 0.29057 0.39108
 H17 H 0.84264 0.21570 0.48485
 H18 H 0.76784 0.21539 0.58342
 C19 C 0.17674 0.79755 0.51873
 C20 C 0.19110 0.77096 0.57243
 C21 C 0.21987 0.76821 0.57019
 C22 C 0.23417 0.79049 0.51552
 C23 C 0.21868 0.80870 0.46192
 C24 C 0.19000 0.80591 0.46271
 C25 C 0.26504 0.78556 0.51429
 C26 C 0.27980 0.76692 0.45935
 C27 C 0.30845 0.75828 0.45902
 C28 C 0.32216 0.75656 0.51446
 C29 C 0.30886 0.78720 0.56927
 C30 C 0.28016 0.80148 0.56855
 H31 H 0.15476 0.81206 0.52033
 H32 H 0.23096 0.73952 0.61035
 H33 H 0.22859 0.82205 0.41902
 H34 H 0.26952 0.75973 0.41646
 H35 H 0.34377 0.73092 0.51446
 H36 H 0.26982 0.83147 0.60976
 C37 C 0.31863 0.30279 -0.51178
 C38 C 0.30602 0.26481 -0.56559
 C39 C 0.27817 0.23645 -0.56427
 C40 C 0.26280 0.24791 -0.50988
 C41 C 0.27702 0.27413 -0.45527
 C42 C 0.30530 0.29483 -0.45588
 C43 C 0.23236 0.22987 -0.51110
 C44 C 0.21744 0.19913 -0.45816
 C45 C 0.18867 0.18998 -0.45953
 C46 C 0.17595 0.19121 -0.51662
 C47 C 0.18953 0.23109 -0.56873
 C48 C 0.21764 0.25181 -0.56544
 H49 H 0.33979 0.33121 -0.51282
 H50 H 0.26884 0.20216 -0.60555
 H51 H 0.26668 0.27659 -0.41211
 H52 H 0.22791 0.18897 -0.41560
 H53 H 0.15478 0.16436 -0.52058
 H54 H 0.22769 0.28924 -0.60500
 C55 C -0.17817 0.78444 -0.48535
 C56 C -0.19098 0.78125 -0.54222
 C57 C -0.21963 0.76704 -0.54315
 C58 C -0.23412 0.73653 -0.48942
 C59 C -0.21898 0.71693 -0.43543
 C60 C -0.19111 0.74273 -0.43290
 C61 C -0.26461 0.72025 -0.48877
 C62 C -0.27932 0.73643 -0.43378
 C63 C -0.30740 0.71464 -0.43084
 C64 C -0.32100 0.67756 -0.48358
 C65 C -0.30807 0.67917 -0.54035
 C66 C -0.27955 0.69411 -0.54229
 H67 H -0.15732 0.81631 -0.48187
 H68 H -0.23026 0.77459 -0.58570
 H69 H -0.22858 0.67911 -0.39538
 H70 H -0.26931 0.77044 -0.39326
 H71 H -0.34241 0.65414 -0.48064
 H72 H -0.26943 0.68827 -0.58565
 O73 O -0.03650 0.81775 0.12587
 O74 O -0.06801 0.91006 0.06165
 C75 C -0.06148 0.84744 0.11057
 O76 O 0.03660 1.25629 0.09563
 O77 O 0.06820 1.12406 0.04723
 C78 C 0.06158 1.21611 0.08525
 O79 O -0.03926 1.24111 0.10201
 O80 O -0.06925 1.11685 0.04896
 C81 C -0.06377 1.20297 0.09000
 O82 O 0.03953 0.80448 0.12139
 O83 O 0.06966 0.90875 0.06029
 C84 C 0.06407 0.83745 0.10667
 Zr85 Zr 0.00112 0.85804 0.08456
 O86 O 0.00319 0.86729 0.18019
 O87 O -0.00053 0.65402 0.08938
 Zr88 Zr -0.00105 1.18415 0.06476
 O89 O -0.00015 1.24079 0.15689
 O90 O -0.00518 1.38144 0.04157
 O91 O -0.02388 1.02399 0.08700
 O92 O 0.02329 1.02498 0.08657
 O93 O 0.04048 0.74400 -0.09424
 O94 O 0.07006 0.87785 -0.04548
 C95 C 0.06488 0.78475 -0.08318
 O96 O -0.03861 1.17925 -0.12549
 O97 O -0.06896 1.08513 -0.06131
 C98 C -0.06321 1.14881 -0.10999
 O99 O 0.03721 1.19517 -0.12080
 O100 O 0.06861 1.09294 -0.05947
 C101 C 0.06216 1.16298 -0.10622
 O102 O -0.03555 0.75660 -0.10226
 O103 O -0.06747 0.87828 -0.04924
 C104 C -0.06061 0.79372 -0.09073
 Zr105 Zr 0.00170 0.81433 -0.06408
 O106 O 0.00386 0.75663 -0.15603
 O107 O 0.00016 0.61717 -0.04055
 Zr108 Zr -0.00055 1.14041 -0.08394
 O109 O 0.00181 1.13114 -0.17956
 O110 O -0.00500 1.34427 -0.08850
 Zr111 Zr -0.04097 0.99804 0.00016
 Zr112 Zr 0.04158 1.00039 0.00049
 O113 O 0.02391 0.97464 -0.08571
 O114 O -0.02324 0.97325 -0.08653
 O115 O 0.02673 0.81205 0.01184
 O116 O -0.02558 1.18452 -0.01099
 O117 O -0.02309 0.81240 0.01142
 O118 O 0.02421 1.18791 -0.01100
 H119 H 0.03436 1.03527 0.12374
 H120 H -0.03913 1.25690 -0.01529
 H121 H 0.03525 0.96450 -0.12274
 H122 H -0.03570 0.73944 0.01558
 H123 H 0.01335 1.40988 0.03101
 H124 H 0.01321 1.38047 -0.08090
 H125 H -0.00665 1.04938 -0.19211
 H126 H 0.00300 0.83690 -0.18003
 H127 H 0.01912 0.58838 -0.03112
 H128 H 0.01800 0.61839 0.08013
 H129 H -0.00664 0.94790 0.19284
 H130 H -0.00013 1.16022 0.18065
 O131 O 0.46225 0.26856 0.10246
 O132 O 0.43143 0.39504 0.04987
 C133 C 0.43752 0.31058 0.09131
 O134 O 0.53908 0.69108 0.12038
 O135 O 0.56954 0.58002 0.05898
 C136 C 0.56373 0.65272 0.10583
 O137 O 0.46309 0.69217 0.12529
 O138 O 0.43190 0.60214 0.06128
 C139 C 0.43822 0.66606 0.10993
 O140 O 0.53816 0.23910 0.09339
 O141 O 0.56897 0.36495 0.04441
 C142 C 0.56295 0.27434 0.08210
 Zr143 Zr 0.50000 0.31664 0.06370
 O144 O 0.50176 0.26133 0.15558
 O145 O 0.49644 0.11944 0.04030
 Zr146 Zr 0.50083 0.64319 0.08372
 O147 O 0.50303 0.63587 0.17932
 O148 O 0.49845 0.84768 0.08867
 O149 O 0.47656 0.48126 0.08641
 O150 O 0.52373 0.47259 0.08523
 O151 O 0.53767 0.29349 -0.12226
 O152 O 0.56883 0.39322 -0.06150
 C153 C 0.56252 0.32253 -0.10810
 O154 O 0.46308 0.74562 -0.10183
 O155 O 0.43185 0.62945 -0.04893
 C156 C 0.43821 0.71261 -0.09006
 O157 O 0.53911 0.74508 -0.09619
 O158 O 0.56943 0.60846 -0.04776
 C159 C 0.56374 0.70083 -0.08557
 O160 O 0.46176 0.32221 -0.12611
 O161 O 0.43119 0.42270 -0.06131
 C162 C 0.43707 0.35728 -0.11034
 Zr163 Zr 0.49977 0.35564 -0.08489
 O164 O 0.50180 0.36035 -0.18055
 O165 O 0.49612 0.15231 -0.08926
 Zr166 Zr 0.50077 0.68220 -0.06491
 O167 O 0.50228 0.73667 -0.15687
 O168 O 0.49863 0.88040 -0.04118
 Zr169 Zr 0.45906 0.50700 -0.00012
 Zr170 Zr 0.54165 0.49187 -0.00111
 O171 O 0.52355 0.51755 -0.08702
 O172 O 0.47639 0.52653 -0.08707
 O173 O 0.52500 0.30666 -0.01246
 O174 O 0.47622 0.69021 0.01095
 O175 O 0.47515 0.31763 -0.01156
 O176 O 0.52606 0.68298 0.01064
 H177 H 0.53496 0.46103 0.12218
 H178 H 0.46336 0.76552 0.01531
 H179 H 0.53467 0.52467 -0.12432
 H180 H 0.46180 0.24756 -0.01558
 H181 H 0.51689 0.87972 0.07958
 H182 H 0.51755 0.90603 -0.03223
 H183 H 0.50079 0.65612 -0.18089
 H184 H 0.49330 0.44375 -0.19308
 H185 H 0.51450 0.11340 -0.08189
 H186 H 0.51509 0.08689 0.03016
 H187 H 0.50125 0.34231 0.17968
 H188 H 0.49349 0.55725 0.19182
 C189 C 0.35845 0.23632 0.27862
 C190 C 0.36811 0.19810 0.33567
 C191 C 0.35016 0.19927 0.38478
 C192 C 0.32304 0.24687 0.37878
 C193 C 0.31334 0.28245 0.32084
 C194 C 0.33106 0.27657 0.27036
 C195 C 0.37778 0.24005 0.22734
 C196 C 0.36871 0.28468 0.17072
 C197 C 0.38794 0.30069 0.12390
 C198 C 0.41589 0.26988 0.13371
 C199 C 0.42404 0.21684 0.18968
 C200 C 0.40534 0.20524 0.23692
 C201 C 0.32236 0.31438 0.21225
 C202 C 0.34084 0.31799 0.16329
 C203 C 0.39582 0.16404 0.34329
 C204 C 0.41411 0.16665 0.29462
 H205 H 0.30127 0.34478 0.20490
 H206 H 0.33341 0.35104 0.11971
 H207 H 0.40354 0.13707 0.38753
 H208 H 0.43543 0.14104 0.30258
 H209 H 0.35766 0.16638 0.42838
 H210 H 0.29253 0.31910 0.31550
 H211 H 0.38141 0.34194 0.08114
 H212 H 0.44540 0.19335 0.19837
 C213 C -0.13931 0.78482 0.30284
 C214 C -0.12946 0.73888 0.35829
 C215 C -0.14702 0.73575 0.40782
 C216 C -0.17446 0.78310 0.40447
 C217 C -0.18427 0.82627 0.34738
 C218 C -0.16663 0.82777 0.29653
 C219 C -0.12039 0.78975 0.25078
 C220 C -0.12966 0.83968 0.19532
 C221 C -0.11081 0.85317 0.14736
 C222 C -0.08306 0.81477 0.15502
 C223 C -0.07486 0.75736 0.21002
 C224 C -0.09311 0.74768 0.25818
 C225 C -0.17547 0.87298 0.23965
 C226 C -0.15735 0.87851 0.18998
 C227 C -0.10204 0.69741 0.36378
 C228 C -0.08416 0.70141 0.31448
 H229 H -0.19650 0.90588 0.23362
 H230 H -0.16502 0.91500 0.14724
 H231 H -0.09426 0.66213 0.40671
 H232 H -0.06308 0.66938 0.32070
 H233 H -0.13909 0.69176 0.44879
 H234 H -0.20503 0.86364 0.34259
 H235 H -0.11746 0.89744 0.10537
 H236 H -0.05376 0.72613 0.21694
 C237 C 0.64050 0.69039 0.30122
 C238 C 0.63094 0.74038 0.35671
 C239 C 0.64825 0.73896 0.40675
 C240 C 0.67466 0.68057 0.40367
 C241 C 0.68401 0.62979 0.34738
 C242 C 0.66703 0.63627 0.29573
 C243 C 0.62211 0.69304 0.24824
 C244 C 0.63120 0.64090 0.19261
 C245 C 0.61270 0.63462 0.14366
 C246 C 0.58550 0.68245 0.15044
 C247 C 0.57761 0.74196 0.20573
 C248 C 0.59542 0.74402 0.25495
 C249 C 0.67581 0.58921 0.23877
 C250 C 0.65826 0.59192 0.18813
 C251 C 0.60405 0.78991 0.36159
 C252 C 0.58653 0.79112 0.31160
 H253 H 0.69634 0.54879 0.23341
 H254 H 0.66582 0.55359 0.14530
 H255 H 0.59640 0.82737 0.40455
 H256 H 0.56580 0.82892 0.31744
 H257 H 0.64096 0.78479 0.44823
 H258 H 0.70416 0.58436 0.34374
 H259 H 0.61908 0.58779 0.10167
 H260 H 0.55690 0.77969 0.21215
 C261 C 0.13930 1.28804 0.27378
 C262 C 0.12916 1.32096 0.33146
 C263 C 0.14643 1.31045 0.38150
 C264 C 0.17332 1.25911 0.37543
 C265 C 0.18358 1.23033 0.31684
 C266 C 0.16659 1.24557 0.26568
 C267 C 0.12049 1.29073 0.22156
 C268 C 0.12994 1.24895 0.16439
 C269 C 0.11100 1.23470 0.11688
 C270 C 0.08297 1.26471 0.12652
 C271 C 0.07455 1.31779 0.18275
 C272 C 0.09293 1.32642 0.23083
 C273 C 0.17583 1.21373 0.20690
 C274 C 0.15780 1.21491 0.15718
 C275 C 0.10156 1.35828 0.33861
 C276 C 0.08374 1.36110 0.28909
 H277 H 0.19691 1.18256 0.19962
 H278 H 0.16553 1.18422 0.11320
 H279 H 0.09349 1.38269 0.38312
 H280 H 0.06241 1.38737 0.29680
 H281 H 0.13853 1.33847 0.42574
 H282 H 0.20420 1.19092 0.31133
 H283 H 0.11774 1.19343 0.07392
 H284 H 0.05313 1.34079 0.19125
 C285 C 0.63809 0.26853 -0.30551
 C286 C 0.62815 0.22434 -0.36110
 C287 C 0.64496 0.22629 -0.41208
 C288 C 0.67160 0.27730 -0.40981
 C289 C 0.68122 0.32123 -0.35269
 C290 C 0.66459 0.31595 -0.30055
 C291 C 0.62012 0.26721 -0.25177
 C292 C 0.62951 0.31553 -0.19618
 C293 C 0.61129 0.32531 -0.14667
 C294 C 0.58405 0.28490 -0.15287
 C295 C 0.57592 0.22741 -0.20790
 C296 C 0.59348 0.22207 -0.25773
 C297 C 0.67375 0.35819 -0.24352
 C298 C 0.65653 0.35793 -0.19229
 C299 C 0.60142 0.17903 -0.36509
 C300 C 0.58432 0.17835 -0.31428
 H301 H 0.69430 0.39332 -0.23859
 H302 H 0.66431 0.39303 -0.14948
 H303 H 0.59352 0.14489 -0.40802
 H304 H 0.56367 0.14453 -0.31948
 H305 H 0.63716 0.18243 -0.45299
 H306 H 0.70110 0.36352 -0.34826
 H307 H 0.61785 0.37011 -0.10477
 H308 H 0.55518 0.19503 -0.21370
 C309 C 0.14388 0.70928 -0.27014
 C310 C 0.13436 0.66871 -0.32681
 C311 C 0.15073 0.68409 -0.37790
 C312 C 0.17647 0.74296 -0.37380
 C313 C 0.18646 0.77554 -0.31555
 C314 C 0.17002 0.76050 -0.26373
 C315 C 0.12538 0.70576 -0.21734
 C316 C 0.13376 0.75789 -0.16169
 C317 C 0.11455 0.77298 -0.11442
 C318 C 0.08732 0.73432 -0.12280
 C319 C 0.08031 0.66983 -0.17686
 C320 C 0.09888 0.65963 -0.22487
 C321 C 0.17853 0.80168 -0.20603
 C322 C 0.16063 0.80147 -0.15600
 C323 C 0.10808 0.61854 -0.33198
 C324 C 0.09065 0.61378 -0.28178
 H325 H 0.19877 0.83986 -0.20002
 H326 H 0.16758 0.84002 -0.11309
 H327 H 0.10058 0.58672 -0.37564
 H328 H 0.07014 0.57897 -0.28813
 H329 H 0.14319 0.64958 -0.42110
 H330 H 0.20598 0.82163 -0.31066
 H331 H 0.12025 0.82240 -0.07301
 H332 H 0.05954 0.63921 -0.18420
 C333 C 0.35952 0.81166 -0.27616
 C334 C 0.33215 0.77782 -0.26823
 C335 C 0.31463 0.77552 -0.31892
 C336 C 0.32465 0.80459 -0.37744
 C337 C 0.35184 0.84684 -0.38263
 C338 C 0.36940 0.84676 -0.33308
 C339 C 0.37865 0.80392 -0.22466
 C340 C 0.40617 0.83346 -0.23385
 C341 C 0.42476 0.81665 -0.18664
 C342 C 0.41660 0.76252 -0.13134
 C343 C 0.38866 0.73800 -0.12168
 C344 C 0.36949 0.75985 -0.16837
 C345 C 0.39702 0.87650 -0.34025
 C346 C 0.41507 0.87102 -0.29130
 C347 C 0.32331 0.74127 -0.21028
 C348 C 0.34167 0.73231 -0.16126
 H349 H 0.40489 0.90194 -0.38436
 H350 H 0.43636 0.89277 -0.29894
 H351 H 0.30224 0.71534 -0.20318
 H352 H 0.33417 0.69971 -0.11792
 H353 H 0.29398 0.74232 -0.31307
 H354 H 0.35969 0.87989 -0.42560
 H355 H 0.44610 0.83579 -0.19512
 H356 H 0.38211 0.69629 -0.07935
 C357 C -0.14207 1.22239 -0.30004
 C358 C -0.16754 1.16315 -0.29705
 C359 C -0.18466 1.16451 -0.34852
 C360 C -0.17656 1.22831 -0.40184
 C361 C -0.15161 1.29394 -0.40168
 C362 C -0.13393 1.28661 -0.35239
 C363 C -0.12313 1.21398 -0.24817
 C364 C -0.09722 1.26790 -0.25304
 C365 C -0.07871 1.25423 -0.20537
 C366 C -0.08535 1.18298 -0.15345
 C367 C -0.11188 1.13323 -0.14809
 C368 C -0.13089 1.14865 -0.19564
 C369 C -0.10786 1.33935 -0.35543
 C370 C -0.08976 1.32991 -0.30660
 C371 C -0.17500 1.10204 -0.24299
 C372 C -0.15712 1.09637 -0.19297
 H373 H -0.10121 1.38623 -0.39641
 H374 H -0.06963 1.37004 -0.31113
 H375 H -0.19472 1.05741 -0.23944
 H376 H -0.16373 1.04881 -0.15219
 H377 H -0.20372 1.11361 -0.34737
 H378 H -0.14550 1.34948 -0.44063
 H379 H -0.05857 1.29437 -0.21021
 H380 H -0.11728 1.07802 -0.10850
 C381 C 0.64280 0.76821 -0.27200
 C382 C 0.66930 0.71431 -0.26561
 C383 C 0.68619 0.70034 -0.31716
 C384 C 0.67652 0.74008 -0.37447
 C385 C 0.65046 0.80088 -0.37887
 C386 C 0.63337 0.81267 -0.32828
 C387 C 0.62396 0.77126 -0.21967
 C388 C 0.59709 0.81925 -0.22729
 C389 C 0.57844 0.81039 -0.17960
 C390 C 0.58584 0.74639 -0.12564
 C391 C 0.61333 0.70498 -0.11733
 C392 C 0.63255 0.71808 -0.16432
 C393 C 0.60658 0.86312 -0.33361
 C394 C 0.58875 0.86665 -0.28389
 C395 C 0.67784 0.67089 -0.20828
 C396 C 0.65974 0.67221 -0.15858
 H397 H 0.59907 0.89681 -0.37701
 H398 H 0.56797 0.90280 -0.29034
 H399 H 0.69835 0.63102 -0.20228
 H400 H 0.66683 0.63285 -0.11589
 H401 H 0.70622 0.65378 -0.31319
 H402 H 0.64314 0.83591 -0.42225
 H403 H 0.55745 0.84290 -0.18694
 H404 H 0.61933 0.65575 -0.07607
 C405 C 0.13832 1.20578 -0.30221
 C406 C 0.16524 1.15699 -0.29687
 C407 C 0.18218 1.14992 -0.34875
 C408 C 0.17222 1.19153 -0.40600
 C409 C 0.14512 1.24368 -0.40871
 C410 C 0.12820 1.24930 -0.35788
 C411 C 0.12010 1.20952 -0.24878
 C412 C 0.09316 1.25723 -0.25504
 C413 C 0.07542 1.25424 -0.20558
 C414 C 0.08369 1.19663 -0.15062
 C415 C 0.11121 1.15365 -0.14407
 C416 C 0.12961 1.16123 -0.19318
 C417 C 0.10120 1.29775 -0.36210
 C418 C 0.08394 1.30140 -0.31154
 C419 C 0.17449 1.11524 -0.23976
 C420 C 0.15699 1.11711 -0.18891
 H421 H 0.09322 1.33199 -0.40503
 H422 H 0.06309 1.33756 -0.31693
 H423 H 0.19533 1.07894 -0.23449
 H424 H 0.16486 1.08201 -0.14609
 H425 H 0.20256 1.10785 -0.34432
 H426 H 0.13708 1.28592 -0.44995
 H427 H 0.05450 1.28897 -0.21165
 H428 H 0.11792 1.10909 -0.10218
 C429 C 0.35763 0.29565 -0.29951
 C430 C 0.36626 0.23580 -0.35364
 C431 C 0.34833 0.23128 -0.40247
 C432 C 0.32230 0.29327 -0.39976
 C433 C 0.31363 0.35204 -0.34472
 C434 C 0.33130 0.35250 -0.29411
 C435 C 0.37689 0.30174 -0.24820
 C436 C 0.36874 0.36365 -0.19405
 C437 C 0.38794 0.37653 -0.14684
 C438 C 0.41499 0.32694 -0.15402
 C439 C 0.42209 0.25950 -0.20778
 C440 C 0.40343 0.24887 -0.25514
 C441 C 0.32355 0.41031 -0.23855
 C442 C 0.34186 0.41479 -0.18931
 C443 C 0.39297 0.18419 -0.35874
 C444 C 0.41127 0.19064 -0.31029
 H445 H 0.30325 0.45351 -0.23322
 H446 H 0.33502 0.46037 -0.14744
 H447 H 0.39990 0.13973 -0.40085
 H448 H 0.43182 0.15078 -0.31628
 H449 H 0.35497 0.18063 -0.44334
 H450 H 0.29366 0.39963 -0.34173
 H451 H 0.38218 0.42919 -0.10593
 H452 H 0.44266 0.22011 -0.21427
 C453 C -0.13905 0.70811 -0.27747
 C454 C -0.12912 0.67452 -0.33523
 C455 C -0.14703 0.67580 -0.38423
 C456 C -0.17435 0.72052 -0.37741
 C457 C -0.18434 0.75096 -0.31879
 C458 C -0.16668 0.74380 -0.26840
 C459 C -0.11976 0.71275 -0.22629
 C460 C -0.12914 0.75341 -0.16890
 C461 C -0.11001 0.77190 -0.12213
 C462 C -0.08186 0.74759 -0.13284
 C463 C -0.07334 0.69750 -0.18953
 C464 C -0.09196 0.68373 -0.23670
 C465 C -0.17565 0.77680 -0.20956
 C466 C -0.15722 0.78114 -0.16064
 C467 C -0.10119 0.64560 -0.34364
 C468 C -0.08292 0.64935 -0.29509
 H469 H -0.19694 0.80342 -0.20158
 H470 H -0.16486 0.81110 -0.11648
 H471 H -0.09330 0.62182 -0.38837
 H472 H -0.06144 0.62802 -0.30363
 H473 H -0.13928 0.64649 -0.42843
 H474 H -0.20530 0.78532 -0.31276
 H475 H -0.11681 0.81073 -0.07875
 H476 H -0.05181 0.67895 -0.19883
 C477 C 0.35961 0.75146 0.30025
 C478 C 0.36831 0.81070 0.35384
 C479 C 0.35063 0.81892 0.40326
 C480 C 0.32502 0.75899 0.40204
 C481 C 0.31636 0.70043 0.34750
 C482 C 0.33354 0.69824 0.29606
 C483 C 0.37858 0.74128 0.24833
 C484 C 0.37029 0.68012 0.19469
 C485 C 0.38929 0.66198 0.14712
 C486 C 0.41634 0.70489 0.15353
 C487 C 0.42359 0.77234 0.20659
 C488 C 0.40506 0.78866 0.25430
 C489 C 0.32558 0.64175 0.24089
 C490 C 0.34354 0.63411 0.19093
 C491 C 0.39490 0.85738 0.35791
 C492 C 0.41301 0.84642 0.30895
 H493 H 0.30541 0.60196 0.23645
 H494 H 0.33659 0.58960 0.14936
 H495 H 0.40194 0.90081 0.39970
 H496 H 0.43352 0.88200 0.31421
 H497 H 0.35723 0.87036 0.44341
 H498 H 0.29680 0.65397 0.34535
 H499 H 0.38344 0.60949 0.10668
 H500 H 0.44419 0.80666 0.21234
 C501 C -0.14372 1.29492 0.27513
 C502 C -0.17017 1.24741 0.26843
 C503 C -0.18738 1.24158 0.31954
 C504 C -0.17781 1.27941 0.37744
 C505 C -0.15170 1.33441 0.38161
 C506 C -0.13455 1.34022 0.33130
 C507 C -0.12462 1.28993 0.22336
 C508 C -0.09787 1.33267 0.23133
 C509 C -0.07898 1.31661 0.18427
 C510 C -0.08605 1.25122 0.13051
 C511 C -0.11340 1.21480 0.12179
 C512 C -0.13285 1.23471 0.16825
 C513 C -0.10787 1.38533 0.33697
 C514 C -0.08987 1.38240 0.28767
 C515 C -0.17830 1.20072 0.21138
 C516 C -0.15993 1.19416 0.16220
 H517 H -0.10058 1.41959 0.38039
 H518 H -0.06920 1.41487 0.29435
 H519 H -0.19870 1.16452 0.20523
 H520 H -0.16673 1.15310 0.11969
 H521 H -0.20719 1.19830 0.31469
 H522 H -0.14444 1.37264 0.42436
 H523 H -0.05812 1.34563 0.19184
 H524 H -0.11915 1.16490 0.08056
 C525 C 0.64171 0.18285 0.26743
 C526 C 0.63218 0.14039 0.32361
 C527 C 0.64915 0.14752 0.37420
 C528 C 0.67493 0.20477 0.37031
 C529 C 0.68471 0.24280 0.31309
 C530 C 0.66811 0.23138 0.26131
 C531 C 0.62298 0.18459 0.21508
 C532 C 0.63165 0.23612 0.15986
 C533 C 0.61250 0.25449 0.11295
 C534 C 0.58498 0.22056 0.12135
 C535 C 0.57749 0.15776 0.17508
 C536 C 0.59607 0.14369 0.22268
 C537 C 0.67674 0.27329 0.20410
 C538 C 0.65880 0.27597 0.15428
 C539 C 0.60530 0.09788 0.32900
 C540 C 0.58757 0.09900 0.27930
 H541 H 0.69719 0.30904 0.19831
 H542 H 0.66594 0.31416 0.11170
 H543 H 0.59763 0.06716 0.37249
 H544 H 0.56673 0.06883 0.28579
 H545 H 0.64175 0.11327 0.41737
 H546 H 0.70447 0.28705 0.30936
 H547 H 0.61856 0.30279 0.07184
 H548 H 0.55647 0.13098 0.18246
 C549 C 0.14065 0.78686 0.30138
 C550 C 0.13196 0.72934 0.35505
 C551 C 0.14876 0.73229 0.40598
 C552 C 0.17345 0.80034 0.40573
 C553 C 0.18193 0.85782 0.35109
 C554 C 0.16578 0.84895 0.29847
 C555 C 0.12267 0.78498 0.24778
 C556 C 0.13094 0.84453 0.19410
 C557 C 0.11254 0.85332 0.14515
 C558 C 0.08613 0.80227 0.15013
 C559 C 0.07919 0.73453 0.20295
 C560 C 0.09701 0.72853 0.25222
 C561 C 0.17399 0.90195 0.24310
 C562 C 0.15694 0.89912 0.19175
 C563 C 0.10630 0.67212 0.35739
 C564 C 0.08899 0.67297 0.30698
 H565 H 0.19363 0.94728 0.23962
 H566 H 0.16395 0.94229 0.15019
 H567 H 0.09929 0.62876 0.39896
 H568 H 0.06898 0.63139 0.31120
 H569 H 0.14235 0.68111 0.44598
 H570 H 0.20068 0.91094 0.34942
 H571 H 0.11818 0.90596 0.10495
 H572 H 0.05912 0.69356 0.20758
   
