data_POSCAR
  _audit_creation_date              2014-09-24
  _audit_creation_method            'ToBaCCo'
  _symmetry_space_group_name_H-M    'P1'
  _symmetry_Int_Tables_number       1
  _symmetry_cell_setting            triclinic
  loop_
  _symmetry_equiv_pos_as_xyz
 x,y,z
_cell_length_a 37.5867
_cell_length_b 37.5914
_cell_length_c 37.5912
_cell_angle_alpha 90.081300
_cell_angle_beta 89.908500
_cell_angle_gamma 90.084400
loop_
  _atom_site_label
  _atom_site_type_symbol
  _atom_site_fract_x
  _atom_site_fract_y
  _atom_site_fract_z
N1 N 0.20357 1.20566 0.20426
 N2 N 0.79629 0.79455 0.20436
 N3 N 0.79637 1.20174 -0.20192
 N4 N 0.20494 0.79692 -0.20547
 C5 C 0.55441 1.04906 -0.00826
 H6 H 0.55494 1.04888 0.02051
 C7 C 0.57893 1.06963 -0.02714
 H8 H 0.59836 1.08548 -0.01291
 C9 C 0.52926 1.02767 -0.06206
 H10 H 0.51041 1.01068 -0.07555
 C11 C 0.55336 1.04785 -0.08198
 H12 H 0.55278 1.04660 -0.11076
 N13 N 0.53017 1.02872 -0.02586
 C14 C 0.44557 1.00988 0.05135
 H15 H 0.44497 0.98110 0.05114
 C16 C 0.42101 1.02878 0.07185
 H17 H 0.40148 1.01456 0.08760
 C18 C 0.47095 1.06365 0.03014
 H19 H 0.48992 1.07713 0.01326
 C20 C 0.44682 1.08359 0.05025
 H21 H 0.44749 1.11237 0.04904
 Zn22 Zn 0.50011 0.99952 0.00207
 N23 N 0.46995 1.02746 0.03114
 C24 C 0.52890 0.97162 0.06632
 N25 N 0.53007 0.97053 0.03013
 C26 C 0.55453 0.95034 0.01265
 C27 C 0.57900 0.92997 0.03166
 C28 C 0.55294 0.95164 0.08636
 C29 C 0.44596 0.98880 -0.04744
 C30 C 0.42159 0.96973 -0.06799
 C31 C 0.44743 0.91510 -0.04627
 C32 C 0.47137 0.93519 -0.02610
 N33 N 0.47027 0.97138 -0.02713
 H34 H 0.50988 0.98849 0.07972
 H35 H 0.55526 0.95048 -0.01612
 H36 H 0.59860 0.91424 0.01753
 H37 H 0.55215 0.95294 0.11514
 H38 H 0.44527 1.01757 -0.04725
 H39 H 0.40211 0.98382 -0.08381
 H40 H 0.44817 0.88632 -0.04502
 H41 H 0.49027 0.92184 -0.00914
 C42 C 0.42156 1.06596 0.07117
 C43 C 0.57848 1.06890 -0.06432
 C44 C 0.42225 0.93256 -0.06728
 C45 C 0.57828 0.93075 0.06884
 C46 C -0.01057 0.55422 1.04680
 H47 H 0.01820 0.55511 1.04659
 C48 C -0.02972 0.57858 1.06730
 H49 H -0.01570 0.59824 1.08307
 C50 C -0.06409 0.52832 1.02558
 H51 H -0.07738 0.50924 1.00868
 C52 C -0.08428 0.55223 1.04569
 H53 H -0.11306 0.55129 1.04447
 N54 N -0.02790 0.52968 1.02658
 C55 C 0.05009 0.44594 1.00794
 H56 H 0.04993 0.44524 0.97916
 C57 C 0.07073 0.42167 1.02689
 H58 H 0.08665 0.40225 1.01272
 C59 C 0.02859 0.47128 1.06165
 H60 H 0.01153 0.49010 1.07509
 C61 C 0.04884 0.44743 1.08165
 H62 H 0.04756 0.44817 1.11043
 Zn63 Zn 0.00034 0.49985 0.99745
 N64 N 0.02966 0.47017 1.02546
 C65 C 0.06435 0.52928 0.96925
 N66 N 0.02815 0.53002 0.96826
 C67 C 0.01046 0.55416 0.94800
 C68 C 0.02925 0.57874 0.92744
 C69 C 0.08418 0.55343 0.94907
 C70 C -0.04866 0.44506 0.98709
 C71 C -0.06899 0.42036 0.96819
 C72 C -0.04749 0.44623 0.91338
 C73 C -0.02754 0.47050 0.93331
 N74 N -0.02857 0.46954 0.96951
 H75 H 0.07792 0.51050 0.98617
 H76 H -0.01832 0.55456 0.94823
 H77 H 0.01495 0.59808 0.91164
 H78 H 0.11298 0.55299 0.95027
 H79 H -0.04847 0.44450 1.01586
 H80 H -0.08464 0.40076 0.98241
 H81 H -0.04624 0.44686 0.88459
 H82 H -0.01075 0.48954 0.91983
 C83 C 0.06998 0.42233 1.06408
 C84 C -0.06690 0.57766 1.06662
 C85 C -0.06828 0.42087 0.93101
 C86 C 0.06644 0.57846 0.92810
 C87 C 1.04876 -0.00871 0.55435
 H88 H 1.04807 0.02005 0.55512
 C89 C 1.06962 -0.02736 0.57869
 H90 H 1.08518 -0.01295 0.59822
 C91 C 1.02838 -0.06274 0.52877
 H92 H 1.01167 -0.07644 0.50982
 C93 C 1.04887 -0.08242 0.55267
 H94 H 1.04813 -0.11122 0.55184
 N95 N 1.02878 -0.02654 0.52998
 C96 C 1.00880 0.05073 0.44598
 H97 H 0.98003 0.05004 0.44541
 C98 C 1.02742 0.07161 0.42154
 H99 H 1.01299 0.08719 0.40211
 C100 C 1.06287 0.03031 0.47118
 H101 H 1.07658 0.01357 0.49001
 C102 C 1.08253 0.05081 0.44716
 H103 H 1.11133 0.05006 0.44778
 Zn104 Zn 0.99916 0.00101 0.50016
 N105 N 1.02666 0.03072 0.47021
 C106 C 0.97001 0.06460 0.52946
 N107 N 0.96958 0.02839 0.53034
 C108 C 0.94966 0.01042 0.55467
 C109 C 0.92890 0.02893 0.57931
 C110 C 0.94962 0.08415 0.55368
 C111 C 0.98950 -0.04842 0.44564
 C112 C 0.97089 -0.06926 0.42115
 C113 C 0.91577 -0.04873 0.44720
 C114 C 0.93542 -0.02825 0.47125
 N115 N 0.97163 -0.02856 0.47010
 H116 H 0.98668 0.07840 0.51054
 H117 H 0.95033 -0.01834 0.55517
 H118 H 0.91339 0.01441 0.59882
 H119 H 0.95040 0.11295 0.55313
 H120 H 1.01826 -0.04766 0.44492
 H121 H 0.98533 -0.08473 0.40156
 H122 H 0.88697 -0.04808 0.44799
 H123 H 0.92170 -0.01164 0.49028
 C124 C 1.06461 0.07152 0.42205
 C125 C 1.06956 -0.06454 0.57792
 C126 C 0.93370 -0.06930 0.42187
 C127 C 0.92901 0.06612 0.57891
 C128 C 0.15970 0.29405 1.18898
 C129 C 0.15681 0.29430 1.15185
 C130 C 0.17011 0.26574 1.13198
 C131 C 0.18590 0.23686 1.14914
 C132 C 0.18859 0.23618 1.18644
 C133 C 0.17552 0.26516 1.20619
 C134 C 0.13921 0.32322 1.13408
 C135 C 0.12401 0.34686 1.11873
 C136 C 0.10571 0.37385 1.10023
 C137 C 0.08965 0.39629 1.08398
 H138 H 0.14944 0.31599 1.20462
 H139 H 0.16785 0.26558 1.10325
 H140 H 0.19539 0.21468 1.13337
 H141 H 0.17744 0.26525 1.23492
 C142 C -0.15897 0.70639 1.18994
 C143 C -0.15579 0.70578 1.15283
 C144 C -0.16920 0.73401 1.13268
 C145 C -0.18538 0.76293 1.14955
 C146 C -0.18836 0.76396 1.18683
 C147 C -0.17519 0.73531 1.20686
 C148 C -0.13775 0.67686 1.13536
 C149 C -0.12219 0.65321 1.12028
 C150 C -0.10345 0.62620 1.10211
 C151 C -0.08702 0.60374 1.08617
 H152 H -0.14863 0.68471 1.20579
 H153 H -0.16672 0.73390 1.10396
 H154 H -0.19494 0.78485 1.13358
 H155 H -0.17732 0.73550 1.23558
 C156 C -0.19080 0.28847 0.84363
 C157 C -0.15369 0.29104 0.84377
 C158 C -0.13328 0.26435 0.82783
 C159 C -0.14981 0.23493 0.81219
 C160 C -0.18729 0.23153 0.81224
 C161 C -0.20748 0.25909 0.82802
 C162 C -0.13639 0.32034 0.86136
 C163 C -0.12144 0.34430 0.87660
 C164 C -0.10344 0.37167 0.89499
 C165 C -0.08764 0.39444 0.91116
 H166 H -0.20687 0.30906 0.85585
 H167 H -0.10450 0.26595 0.82802
 H168 H -0.13315 0.21416 0.80121
 H169 H -0.23627 0.25801 0.82802
 C170 C 0.13315 0.73608 0.82830
 C171 C 0.15325 0.70767 0.84139
 C172 C 0.19038 0.70828 0.83827
 C173 C 0.20735 0.73738 0.82242
 C174 C 0.18736 0.76620 0.80956
 C175 C 0.15007 0.76517 0.81249
 C176 C 0.13572 0.67852 0.85899
 C177 C 0.12055 0.65468 0.87417
 C178 C 0.10225 0.62744 0.89245
 C179 C 0.08617 0.60477 0.90847
 H180 H 0.10443 0.73596 0.83073
 H181 H 0.20620 0.68646 0.84837
 H182 H 0.23608 0.73757 0.82032
 H183 H 0.13413 0.78721 0.80315
 C184 C 1.18853 0.16213 0.29292
 C185 C 1.15141 0.15904 0.29336
 C186 C 1.13145 0.17215 0.26485
 C187 C 1.14852 0.18792 0.23583
 C188 C 1.18582 0.19078 0.23496
 C189 C 1.20566 0.17793 0.26389
 C190 C 1.13374 0.14138 0.32240
 C191 C 1.11853 0.12609 0.34614
 C192 C 1.10023 0.10764 0.37326
 C193 C 1.08421 0.09143 0.39584
 H194 H 1.20424 0.15201 0.31481
 H195 H 1.10272 0.16973 0.26483
 H196 H 1.13270 0.19724 0.21369
 H197 H 1.23439 0.17998 0.26383
 C198 C 1.17084 -0.13116 0.73437
 C199 C 1.15758 -0.15119 0.70590
 C200 C 1.16072 -0.18830 0.70623
 C201 C 1.17675 -0.20533 0.73511
 C202 C 1.18978 -0.18542 0.76400
 C203 C 1.18683 -0.14814 0.76324
 C204 C 1.13974 -0.13361 0.67701
 C205 C 1.12433 -0.11844 0.65339
 C206 C 1.10578 -0.10018 0.62641
 C207 C 1.08950 -0.08416 0.60397
 H208 H 1.16839 -0.10245 0.73447
 H209 H 1.15049 -0.20406 0.68437
 H210 H 1.17886 -0.23405 0.73509
 H211 H 1.19629 -0.13226 0.78535
 C212 C 0.81049 -0.16093 0.29275
 C213 C 0.84759 -0.15759 0.29328
 C214 C 0.86780 -0.17079 0.26490
 C215 C 0.85101 -0.18694 0.23592
 C216 C 0.81374 -0.19009 0.23498
 C217 C 0.79364 -0.17711 0.26377
 C218 C 0.86498 -0.13964 0.32230
 C219 C 0.88003 -0.12417 0.34603
 C220 C 0.89818 -0.10556 0.37313
 C221 C 0.91413 -0.08926 0.39568
 H222 H 0.79458 -0.15075 0.31455
 H223 H 0.89651 -0.16819 0.26495
 H224 H 0.86704 -0.19635 0.21389
 H225 H 0.76493 -0.17938 0.26365
 C226 C 0.84169 0.18889 0.71122
 C227 C 0.84207 0.15177 0.70880
 C228 C 0.82640 0.13136 0.73566
 C229 C 0.81078 0.14789 0.76507
 C230 C 0.81056 0.18538 0.76832
 C231 C 0.82608 0.20557 0.74061
 C232 C 0.85963 0.13446 0.67947
 C233 C 0.87482 0.11949 0.65549
 C234 C 0.89314 0.10144 0.62811
 C235 C 0.90924 0.08558 0.60533
 H236 H 0.85370 0.20495 0.69051
 H237 H 0.82679 0.10258 0.73417
 H238 H 0.80000 0.13124 0.78596
 H239 H 0.82587 0.23436 0.74156
 C240 C 0.26410 1.13352 0.17091
 C241 C 0.29264 1.15346 0.15762
 C242 C 0.29221 1.19060 0.16047
 C243 C 0.26318 1.20775 0.17625
 C244 C 0.23423 1.18791 0.18932
 C245 C 0.23508 1.15061 0.18666
 C246 C 0.32171 1.13575 0.14008
 C247 C 0.34550 1.12045 0.12494
 C248 C 0.37267 1.10200 0.10672
 C249 C 0.39529 1.08581 0.09074
 H250 H 0.26408 1.10478 0.16869
 H251 H 0.31412 1.20630 0.15021
 H252 H 0.26313 1.23649 0.17814
 H253 H 0.21294 1.13478 0.19615
 C254 C 0.73447 1.17156 -0.13112
 C255 C 0.70764 1.15562 -0.15134
 C256 C 0.70990 1.15583 -0.18847
 C257 C 0.73911 1.17156 -0.20535
 C258 C 0.76679 1.18738 -0.18536
 C259 C 0.76371 1.18730 -0.14786
 C260 C 0.67846 1.13802 -0.13381
 C261 C 0.65462 1.12283 -0.11862
 C262 C 0.62739 1.10455 -0.10028
 C263 C 0.60475 1.08853 -0.08414
 H264 H 0.73310 1.17130 -0.10233
 H265 H 0.68920 1.14362 -0.20438
 H266 H 0.73994 1.17165 -0.23415
 H267 H 0.78460 1.19830 -0.13135
 C268 C 0.26553 0.83084 -0.13365
 C269 C 0.29389 0.84427 -0.15375
 C270 C 0.29335 0.84129 -0.19087
 C271 C 0.26437 0.82526 -0.20786
 C272 C 0.23558 0.81207 -0.18788
 C273 C 0.23655 0.81484 -0.15058
 C274 C 0.32287 0.86215 -0.13621
 C275 C 0.34656 0.87760 -0.12108
 C276 C 0.37362 0.89621 -0.10286
 C277 C 0.39613 0.91254 -0.08687
 H278 H 0.26558 0.83317 -0.10492
 H279 H 0.31512 0.85166 -0.20669
 H280 H 0.26423 0.82328 -0.23659
 H281 H 0.21453 0.80525 -0.13464
 C282 C 0.73534 0.86578 0.17023
 C283 C 0.70710 0.84544 0.15696
 C284 C 0.70784 0.80834 0.16011
 C285 C 0.73690 0.79163 0.17616
 C286 C 0.76556 0.81186 0.18919
 C287 C 0.76440 0.84913 0.18624
 C288 C 0.67803 0.86269 0.13910
 C289 C 0.65425 0.87760 0.12368
 C290 C 0.62710 0.89558 0.10510
 C291 C 0.60450 0.91137 0.08881
 H292 H 0.73513 0.89450 0.16777
 H293 H 0.68615 0.79233 0.14987
 H294 H 0.73719 0.76291 0.17827
 H295 H 0.78632 0.86526 0.19570
   
