data_POSCAR
  _audit_creation_date              2014-09-24
  _audit_creation_method            'ToBaCCo'
  _symmetry_space_group_name_H-M    'P1'
  _symmetry_Int_Tables_number       1
  _symmetry_cell_setting            triclinic
  loop_
  _symmetry_equiv_pos_as_xyz
 x,y,z
_cell_length_a 32.8440
_cell_length_b 32.7657
_cell_length_c 32.8404
_cell_angle_alpha 89.996600
_cell_angle_beta 89.999500
_cell_angle_gamma 90.005500
loop_
  _atom_site_label
  _atom_site_type_symbol
  _atom_site_fract_x
  _atom_site_fract_y
  _atom_site_fract_z
C1 C 0.59433 0.62445 0.65671
 C2 C 0.56432 0.65492 0.65666
 C3 C 0.56448 0.68530 0.62664
 C4 C 0.59458 0.68545 0.59642
 C5 C 0.62483 0.65523 0.59602
 C6 C 0.62476 0.62456 0.62629
 C7 C 0.59446 0.59388 0.68663
 C8 C 0.62462 0.56361 0.68643
 C9 C 0.65486 0.56368 0.65629
 C10 C 0.65514 0.59401 0.62613
 C11 C 0.68525 0.59437 0.59582
 C12 C 0.68522 0.62478 0.56583
 C13 C 0.65514 0.65509 0.56591
 H14 H 0.54084 0.65507 0.67990
 H15 H 0.59439 0.70908 0.57329
 H16 H 0.57116 0.59367 0.71006
 H17 H 0.67814 0.54017 0.65633
 H18 H 0.70869 0.57105 0.59547
 H19 H 0.65540 0.67849 0.54255
 C20 C 0.90671 0.37454 0.15562
 C21 C 0.93662 0.34397 0.15549
 C22 C 0.93640 0.31366 0.12535
 C23 C 0.90626 0.31373 0.09511
 C24 C 0.87612 0.34407 0.09482
 C25 C 0.87628 0.37463 0.12518
 C26 C 0.90663 0.40500 0.18564
 C27 C 0.87658 0.43534 0.18552
 C28 C 0.84639 0.43551 0.15538
 C29 C 0.84601 0.40530 0.12511
 C30 C 0.81591 0.40515 0.09479
 C31 C 0.81582 0.37481 0.06473
 C32 C 0.84580 0.34440 0.06472
 H33 H 0.96006 0.34376 0.17879
 H34 H 0.90628 0.29021 0.07184
 H35 H 0.92984 0.40516 0.20914
 H36 H 0.82324 0.45912 0.15558
 H37 H 0.79255 0.42855 0.09453
 H38 H 0.84545 0.32107 0.04129
 C39 C 0.40551 0.12455 -0.15669
 C40 C 0.43553 0.15502 -0.15662
 C41 C 0.43539 0.18537 -0.12658
 C42 C 0.40526 0.18553 -0.09638
 C43 C 0.37499 0.15531 -0.09601
 C44 C 0.37507 0.12464 -0.12628
 C45 C 0.40541 0.09397 -0.18659
 C46 C 0.37529 0.06365 -0.18637
 C47 C 0.34503 0.06371 -0.15625
 C48 C 0.34470 0.09407 -0.12612
 C49 C 0.31459 0.09442 -0.09582
 C50 C 0.31461 0.12484 -0.06584
 C51 C 0.34468 0.15516 -0.06591
 H52 H 0.45901 0.15517 -0.17984
 H53 H 0.40546 0.20914 -0.07323
 H54 H 0.42872 0.09377 -0.21002
 H55 H 0.32177 0.04018 -0.15629
 H56 H 0.29116 0.07109 -0.09547
 H57 H 0.34441 0.17857 -0.04255
 C58 C 0.09326 0.87450 0.34447
 C59 C 0.06332 0.84395 0.34462
 C60 C 0.06352 0.81367 0.37479
 C61 C 0.09368 0.81372 0.40500
 C62 C 0.12384 0.84404 0.40528
 C63 C 0.12369 0.87460 0.37491
 C64 C 0.09334 0.90497 0.31445
 C65 C 0.12338 0.93532 0.31458
 C66 C 0.15358 0.93548 0.34471
 C67 C 0.15396 0.90527 0.37499
 C68 C 0.18406 0.90512 0.40531
 C69 C 0.18412 0.87479 0.43538
 C70 C 0.15415 0.84438 0.43538
 H71 H 0.03989 0.84375 0.32131
 H72 H 0.09365 0.79019 0.42826
 H73 H 0.07010 0.90511 0.29097
 H74 H 0.17672 0.95911 0.34451
 H75 H 0.20742 0.92852 0.40558
 H76 H 0.15448 0.82104 0.45882
 N77 N 0.07613 0.19048 0.10791
 N78 N 0.06018 0.17381 0.14070
 C79 C 0.02722 0.19554 0.15202
 C80 C 0.02262 0.22729 0.12489
 C81 C 0.05396 0.22336 0.09730
 H82 H 0.00802 0.18890 0.17795
 H83 H 0.06012 0.24288 0.07147
 Cu84 Cu 0.08422 0.12526 0.16483
 Cu85 Cu 0.12442 0.16840 0.08138
 Cu86 Cu 0.16735 0.08172 0.12446
 N87 N 0.10827 0.07672 0.18895
 N88 N 0.14086 0.05981 0.17285
 C89 C 0.15133 0.02686 0.19498
 C90 C 0.12382 0.02309 0.22643
 C91 C 0.09686 0.05500 0.22190
 H92 H 0.17697 0.00713 0.18870
 H93 H 0.07104 0.06180 0.24117
 N94 N 0.18961 0.10849 0.07552
 N95 N 0.17327 0.14149 0.05912
 C96 C 0.19532 0.15239 0.02627
 C97 C 0.22678 0.12496 0.02203
 C98 C 0.22248 0.09756 0.05352
 H99 H 0.18908 0.17830 0.00686
 H100 H 0.24189 0.07167 0.05985
 H101 H 0.11602 0.10869 0.09986
 H102 H 0.14903 0.14144 0.13257
 N103 N 0.42305 0.81001 0.60901
 N104 N 0.43965 0.82746 0.64107
 C105 C 0.47262 0.80581 0.65249
 C106 C 0.47663 0.77335 0.62608
 C107 C 0.44488 0.77675 0.59889
 H108 H 0.49218 0.81295 0.67800
 H109 H 0.43818 0.75657 0.57371
 Cu110 Cu 0.41564 0.87631 0.66456
 Cu111 Cu 0.37439 0.83165 0.58268
 Cu112 Cu 0.33132 0.91843 0.62562
 N113 N 0.39143 0.92452 0.68913
 N114 N 0.35815 0.94070 0.67371
 C115 C 0.34725 0.97324 0.69622
 C116 C 0.37515 0.97746 0.72724
 C117 C 0.40280 0.94624 0.72209
 H118 H 0.32100 0.99234 0.69052
 H119 H 0.42902 0.93987 0.74097
 N120 N 0.30888 0.89129 0.57693
 N121 N 0.32525 0.85826 0.56061
 C122 C 0.30324 0.84732 0.52774
 C123 C 0.27178 0.87474 0.52343
 C124 C 0.27604 0.90219 0.55487
 H125 H 0.30960 0.82147 0.50829
 H126 H 0.25669 0.92816 0.56106
 H127 H 0.38207 0.89159 0.60022
 H128 H 0.35029 0.85889 0.63411
 N129 N 0.92384 0.69039 0.39229
 N130 N 0.93983 0.67373 0.35952
 C131 C 0.97279 0.69548 0.34824
 C132 C 0.97737 0.72722 0.37539
 C133 C 0.94599 0.72328 0.40293
 H134 H 0.99199 0.68887 0.32232
 H135 H 0.93971 0.74290 0.42866
 Cu136 Cu 0.91572 0.62539 0.33503
 Cu137 Cu 0.87549 0.66836 0.41870
 Cu138 Cu 0.83259 0.58174 0.37564
 N139 N 0.89173 0.57662 0.31125
 N140 N 0.85913 0.55974 0.32735
 C141 C 0.84863 0.52679 0.30522
 C142 C 0.87616 0.52297 0.27382
 C143 C 0.90312 0.55488 0.27832
 H144 H 0.82288 0.50716 0.31142
 H145 H 0.92894 0.56167 0.25904
 N146 N 0.81026 0.60852 0.42451
 N147 N 0.82660 0.64152 0.44091
 C148 C 0.80454 0.65241 0.47376
 C149 C 0.77307 0.62498 0.47798
 C150 C 0.77739 0.59757 0.44650
 H151 H 0.81080 0.67830 0.49318
 H152 H 0.75799 0.57167 0.44018
 H153 H 0.88396 0.60878 0.39999
 H154 H 0.85084 0.64157 0.36733
 N155 N 0.57717 0.30978 -0.10908
 N156 N 0.56106 0.32671 -0.14165
 C157 C 0.52813 0.30499 -0.15308
 C158 C 0.52361 0.27306 -0.12614
 C159 C 0.55503 0.27682 -0.09861
 H160 H 0.50890 0.31177 -0.17894
 H161 H 0.56127 0.25712 -0.07293
 Cu162 Cu 0.58519 0.37521 -0.16577
 Cu163 Cu 0.62556 0.33169 -0.08259
 Cu164 Cu 0.66862 0.41838 -0.12550
 N165 N 0.60929 0.42382 -0.18972
 N166 N 0.64209 0.44048 -0.17378
 C167 C 0.65270 0.47336 -0.19596
 C168 C 0.62512 0.47726 -0.22732
 C169 C 0.59798 0.44552 -0.22270
 H170 H 0.67849 0.49292 -0.18978
 H171 H 0.57209 0.43883 -0.24192
 N172 N 0.69088 0.39146 -0.07666
 N173 N 0.67449 0.35845 -0.06032
 C174 C 0.69648 0.34752 -0.02744
 C175 C 0.72796 0.37493 -0.02312
 C176 C 0.72372 0.40236 -0.05459
 H177 H 0.69015 0.32163 -0.00802
 H178 H 0.74312 0.42828 -0.06083
 H179 H 0.61742 0.39142 -0.10090
 H180 H 0.65014 0.35869 -0.13391
 C181 C -0.03435 0.28419 0.12533
 C182 C -0.00840 0.25817 0.12522
 C183 C 0.53352 0.71639 0.62672
 C184 C 0.50759 0.74241 0.62658
 C185 C 1.03426 0.78419 0.37485
 C186 C 1.00834 0.75814 0.37503
 C187 C 0.46644 0.21637 -0.12661
 C188 C 0.49250 0.24227 -0.12650
 C189 C 0.12335 -0.03366 0.28355
 C190 C 0.12347 -0.00772 0.25752
 C191 C 0.62466 0.53413 -0.28431
 C192 C 0.62479 0.50812 -0.25835
 C193 C 0.37535 1.03417 0.78439
 C194 C 0.37534 1.00820 0.75839
 C195 C 0.87659 0.46632 0.21660
 C196 C 0.87648 0.49220 0.24269
 C197 C 0.28365 0.12491 -0.03482
 C198 C 0.25770 0.12494 -0.00887
 C199 C 0.71619 0.62487 0.53483
 C200 C 0.74214 0.62494 0.50888
 C201 C 0.78481 0.37488 0.03376
 C202 C 0.75885 0.37491 0.00782
 C203 C 0.21508 0.87484 0.46639
 C204 C 0.24097 0.87481 0.49241
   
