data_POSCAR
  _audit_creation_date              2014-09-24
  _audit_creation_method            'ToBaCCo'
  _symmetry_space_group_name_H-M    'P1'
  _symmetry_Int_Tables_number       1
  _symmetry_cell_setting            triclinic
  loop_
  _symmetry_equiv_pos_as_xyz
 x,y,z
_cell_length_a 17.2647
_cell_length_b 17.2758
_cell_length_c 28.2799
_cell_angle_alpha 89.865800
_cell_angle_beta 91.220900
_cell_angle_gamma 89.986900
loop_
  _atom_site_label
  _atom_site_type_symbol
  _atom_site_fract_x
  _atom_site_fract_y
  _atom_site_fract_z
O1 O 0.06424 0.42260 0.95653
 O2 O 0.06102 0.57390 1.04821
 O3 O 0.06298 0.42267 1.04822
 O4 O 0.06633 0.57370 0.95635
 O5 O -0.06176 0.57406 0.95293
 O6 O -0.06511 0.42245 1.04485
 O7 O -0.06707 0.57372 1.04480
 O8 O -0.06387 0.42300 0.95317
 Cu9 Cu 0.07656 0.49832 1.00269
 Cu10 Cu -0.07737 0.49844 0.99862
 C11 C 0.00060 0.39680 0.93970
 C12 C -0.00368 0.59962 1.06177
 C13 C -0.00150 0.39639 1.06167
 C14 C 0.00297 0.59964 0.93927
 O15 O 0.57999 -0.05901 0.54579
 O16 O 0.42261 -0.05880 0.45560
 O17 O 0.57367 -0.06096 0.45396
 O18 O 0.42877 -0.06109 0.54742
 O19 O 0.42841 0.06693 0.54738
 O20 O 0.57402 0.06705 0.45380
 O21 O 0.42289 0.06922 0.45552
 O22 O 0.57971 0.06899 0.54568
 Cu23 Cu 0.50127 -0.07286 0.50072
 Cu24 Cu 0.50127 0.08096 0.50061
 C25 C 0.60681 0.00507 0.56068
 C26 C 0.39587 0.00535 0.44058
 C27 C 0.59872 0.00292 0.43831
 C28 C 0.40358 0.00275 0.56289
 C29 C 0.15118 0.00706 0.27100
 H30 H 0.15626 0.00779 0.23294
 C31 C 0.21782 0.00818 0.29997
 H32 H 0.27449 0.00968 0.28427
 C33 C 0.07132 0.00450 0.33820
 H34 H 0.01431 0.00414 0.35311
 C35 C 0.13632 0.00566 0.36837
 H36 H 0.12902 0.00538 0.40633
 N37 N 0.07977 0.00378 0.29044
 C38 C -0.07028 -0.10624 0.18408
 H39 H -0.11798 -0.06560 0.18286
 C40 C -0.07165 -0.17114 0.15472
 H41 H -0.12045 -0.18055 0.13070
 C42 C 0.05218 -0.14327 0.21633
 H43 H 0.10010 -0.13265 0.24057
 C44 C 0.05310 -0.20891 0.18758
 H45 H 0.10209 -0.24808 0.18943
 Zn46 Zn -0.00855 -0.00026 0.24947
 N47 N -0.00815 -0.09257 0.21329
 C48 C -0.00539 0.07814 0.16123
 N49 N -0.00562 0.08738 0.20902
 C50 C -0.00217 0.15907 0.22887
 C51 C -0.00111 0.22519 0.20027
 C52 C -0.00434 0.14259 0.13142
 C53 C -0.11280 -0.06198 0.31378
 C54 C -0.17670 -0.06340 0.34320
 C55 C -0.21571 0.06120 0.31181
 C56 C -0.15102 0.06033 0.28295
 N57 N -0.10014 0.00011 0.28527
 H58 H -0.00588 0.02093 0.14601
 H59 H -0.00099 0.16477 0.26697
 H60 H 0.00076 0.28207 0.21629
 H61 H -0.00480 0.13466 0.09342
 H62 H -0.07199 -0.10953 0.31446
 H63 H -0.18520 -0.11212 0.36672
 H64 H -0.25495 0.11014 0.31062
 H65 H -0.14115 0.10825 0.25929
 C66 C -0.00895 -0.22241 0.15611
 C67 C 0.21018 0.00685 0.34910
 C68 C -0.22803 -0.00078 0.34263
 C69 C -0.00274 0.21673 0.15109
 C70 C 0.00169 0.15795 0.77043
 H71 H 0.00082 0.16404 0.73234
 C72 C 0.00052 0.22378 0.79909
 H73 H -0.00113 0.28083 0.78312
 C74 C 0.00430 0.07635 0.83801
 H75 H 0.00458 0.01899 0.85318
 C76 C 0.00310 0.14048 0.86787
 H77 H 0.00328 0.13217 0.90586
 N78 N 0.00493 0.08606 0.79023
 C79 C 0.11294 -0.06236 0.68566
 H80 H 0.07208 -0.10984 0.68475
 C81 C 0.17730 -0.06365 0.65661
 H82 H 0.18607 -0.11218 0.63312
 C83 C 0.15095 0.05954 0.71681
 H84 H 0.14088 0.10723 0.74048
 C85 C 0.21610 0.06054 0.68832
 H86 H 0.25546 0.10935 0.68979
 Zn87 Zn 0.00818 -0.00126 0.74979
 N88 N 0.09999 -0.00054 0.71417
 C89 C -0.07169 0.00359 0.66100
 N90 N -0.08009 0.00285 0.70876
 C91 C -0.15149 0.00616 0.72822
 C92 C -0.21816 0.00737 0.69927
 C93 C -0.13673 0.00483 0.63085
 C94 C 0.07004 -0.10735 0.81533
 C95 C 0.07134 -0.17207 0.84501
 C96 C -0.05352 -0.20975 0.81239
 C97 C -0.05253 -0.14428 0.78331
 N98 N 0.00787 -0.09368 0.78609
 H99 H -0.01469 0.00316 0.64608
 H100 H -0.15652 0.00687 0.76628
 H101 H -0.27480 0.00892 0.71500
 H102 H -0.12948 0.00458 0.59289
 H103 H 0.11775 -0.06676 0.81636
 H104 H 0.12013 -0.18142 0.86907
 H105 H -0.10259 -0.24880 0.81078
 H106 H -0.10049 -0.13364 0.75907
 C107 C 0.22881 -0.00119 0.65755
 C108 C 0.00178 0.21482 0.84827
 C109 C 0.00853 -0.22316 0.84392
 C110 C -0.21058 0.00609 0.65014
 C111 C -0.00530 -0.33944 0.09610
 C112 C -0.00700 -0.28682 0.12398
 C113 C -0.00227 0.33749 0.09348
 C114 C -0.00253 0.28339 0.12049
 C115 C 0.34415 0.00212 0.59756
 C116 C 0.29246 0.00081 0.62554
 C117 C -0.33291 0.00532 0.59227
 C118 C -0.27793 0.00576 0.61927
 C119 C 0.00466 -0.33964 0.90465
 C120 C 0.00644 -0.28727 0.87645
 C121 C 0.00136 0.33497 0.90597
 C122 C 0.00157 0.28114 0.87894
 C123 C -0.34229 0.00237 0.40338
 C124 C -0.29107 0.00114 0.37508
 C125 C 0.33237 0.00580 0.40706
 C126 C 0.27746 0.00638 0.38001
   
