data_POSCAR
  _audit_creation_date              2014-09-24
  _audit_creation_method            'ToBaCCo'
  _symmetry_space_group_name_H-M    'P1'
  _symmetry_Int_Tables_number       1
  _symmetry_cell_setting            triclinic
  loop_
  _symmetry_equiv_pos_as_xyz
 x,y,z
_cell_length_a 48.7058
_cell_length_b 48.0744
_cell_length_c 48.6561
_cell_angle_alpha 90.074800
_cell_angle_beta 90.012900
_cell_angle_gamma 89.981900
loop_
  _atom_site_label
  _atom_site_type_symbol
  _atom_site_fract_x
  _atom_site_fract_y
  _atom_site_fract_z
C1 C 0.60399 0.64522 0.62504
 C2 C 0.60432 0.62471 0.64557
 C3 C 0.62494 0.60403 0.64638
 C4 C 0.64539 0.60463 0.62577
 C5 C 0.64536 0.62502 0.60511
 C6 C 0.62459 0.64520 0.60492
 H7 H 0.58913 0.62607 0.66172
 H8 H 0.66070 0.58838 0.62461
 H9 H 0.62445 0.66098 0.58905
 C10 C 0.89665 0.35373 0.12508
 C11 C 0.87578 0.35406 0.10487
 C12 C 0.85515 0.37449 0.10491
 C13 C 0.85522 0.39494 0.12546
 C14 C 0.87557 0.39523 0.14582
 C15 C 0.89609 0.37468 0.14549
 H16 H 0.87573 0.33893 0.08842
 H17 H 0.83976 0.41115 0.12517
 H18 H 0.91067 0.37441 0.16224
 C19 C 0.39628 0.14585 -0.12521
 C20 C 0.37581 0.14573 -0.10487
 C21 C 0.35514 0.12536 -0.10486
 C22 C 0.35512 0.10493 -0.12553
 C23 C 0.37541 0.10469 -0.14604
 C24 C 0.39591 0.12524 -0.14570
 H25 H 0.37596 0.16155 -0.08900
 H26 H 0.33967 0.08872 -0.12523
 H27 H 0.41120 0.12564 -0.16185
 C28 C 0.10342 0.85399 0.37469
 C29 C 0.10394 0.87496 0.35433
 C30 C 0.12446 0.89548 0.35404
 C31 C 0.14483 0.89521 0.37439
 C32 C 0.14493 0.87475 0.39488
 C33 C 0.12429 0.85434 0.39488
 H34 H 0.08887 0.87515 0.33803
 H35 H 0.16108 0.91058 0.37385
 H36 H 0.12391 0.83971 0.41174
 N37 N 0.09341 0.16910 0.11243
 N38 N 0.08236 0.15742 0.13422
 C39 C 0.06004 0.17214 0.14179
 C40 C 0.05714 0.19402 0.12375
 C41 C 0.07853 0.19160 0.10538
 H42 H 0.04689 0.16738 0.15905
 H43 H 0.08290 0.20517 0.08821
 Cu44 Cu 0.09822 0.12417 0.15054
 Cu45 Cu 0.12622 0.15431 0.09484
 Cu46 Cu 0.15556 0.09569 0.12415
 N47 N 0.11527 0.09165 0.16710
 N48 N 0.13769 0.08061 0.15667
 C49 C 0.14512 0.05848 0.17191
 C50 C 0.12634 0.05565 0.19288
 C51 C 0.10767 0.07690 0.18937
 H52 H 0.16280 0.04544 0.16804
 H53 H 0.08996 0.08121 0.20209
 N54 N 0.17061 0.11396 0.09120
 N55 N 0.15942 0.13629 0.08004
 C56 C 0.17430 0.14375 0.05788
 C57 C 0.19569 0.12523 0.05514
 C58 C 0.19288 0.10662 0.07645
 H59 H 0.16993 0.16128 0.04468
 H60 H 0.20607 0.08907 0.08078
 H61 H 0.12091 0.11351 0.10708
 H62 H 0.14224 0.13613 0.12985
 N63 N 0.40621 0.83006 0.61265
 N64 N 0.41666 0.84113 0.63507
 C65 C 0.43896 0.82640 0.64264
 C66 C 0.44246 0.80513 0.62396
 C67 C 0.42146 0.80793 0.60520
 H68 H 0.45170 0.83075 0.66033
 H69 H 0.41758 0.79487 0.58750
 Cu70 Cu 0.40014 0.87371 0.65213
 Cu71 Cu 0.37369 0.84514 0.59479
 Cu72 Cu 0.34444 0.90387 0.62411
 N73 N 0.38385 0.90703 0.66797
 N74 N 0.36206 0.91872 0.65691
 C75 C 0.35506 0.94128 0.67177
 C76 C 0.37346 0.94373 0.69314
 C77 C 0.39146 0.92181 0.69026
 H78 H 0.33792 0.95488 0.66738
 H79 H 0.40875 0.91707 0.70340
 N80 N 0.32960 0.88579 0.59093
 N81 N 0.34074 0.86341 0.57975
 C82 C 0.32598 0.85605 0.55747
 C83 C 0.30469 0.87468 0.55465
 C84 C 0.30745 0.89325 0.57604
 H85 H 0.33030 0.83847 0.54427
 H86 H 0.29427 0.91081 0.58039
 H87 H 0.37940 0.88561 0.60808
 H88 H 0.35668 0.86306 0.62948
 N89 N 0.90660 0.66956 0.38742
 N90 N 0.91703 0.65850 0.36498
 C91 C 0.93931 0.67324 0.35739
 C92 C 0.94281 0.69451 0.37607
 C93 C 0.92184 0.69170 0.39485
 H94 H 0.95203 0.66890 0.33968
 H95 H 0.91797 0.70477 0.41255
 Cu96 Cu 0.90050 0.62593 0.34792
 Cu97 Cu 0.87410 0.65449 0.40528
 Cu98 Cu 0.84484 0.59579 0.37594
 N99 N 0.88420 0.59264 0.33206
 N100 N 0.86243 0.58096 0.34312
 C101 C 0.85540 0.55842 0.32823
 C102 C 0.87377 0.55598 0.30684
 C103 C 0.89178 0.57788 0.30974
 H104 H 0.83826 0.54484 0.33262
 H105 H 0.90905 0.58263 0.29658
 N106 N 0.83002 0.61385 0.40915
 N107 N 0.84118 0.63622 0.42033
 C108 C 0.82642 0.64358 0.44262
 C109 C 0.80514 0.62496 0.44543
 C110 C 0.80789 0.60640 0.42403
 H111 H 0.83075 0.66115 0.45582
 H112 H 0.79470 0.58885 0.41967
 H113 H 0.87980 0.61402 0.39198
 H114 H 0.85707 0.63659 0.37060
 N115 N 0.59321 0.33143 -0.11228
 N116 N 0.58216 0.34312 -0.13408
 C117 C 0.55989 0.32838 -0.14170
 C118 C 0.55701 0.30647 -0.12369
 C119 C 0.57836 0.30891 -0.10528
 H120 H 0.54675 0.33313 -0.15899
 H121 H 0.58275 0.29532 -0.08813
 Cu122 Cu 0.59798 0.37641 -0.15035
 Cu123 Cu 0.62597 0.34625 -0.09463
 Cu124 Cu 0.65524 0.40493 -0.12384
 N125 N 0.61501 0.40896 -0.16685
 N126 N 0.63740 0.42001 -0.15638
 C127 C 0.64483 0.44213 -0.17161
 C128 C 0.62609 0.44493 -0.19264
 C129 C 0.60744 0.42368 -0.18916
 H130 H 0.66250 0.45517 -0.16772
 H131 H 0.58977 0.41934 -0.20193
 N132 N 0.67028 0.38665 -0.09088
 N133 N 0.65912 0.36430 -0.07975
 C134 C 0.67399 0.35682 -0.05759
 C135 C 0.69536 0.37535 -0.05481
 C136 C 0.69254 0.39398 -0.07609
 H137 H 0.66966 0.33925 -0.04443
 H138 H 0.70573 0.41153 -0.08041
 H139 H 0.62060 0.38706 -0.10684
 H140 H 0.64200 0.36447 -0.12960
 C141 C -0.03597 0.31759 0.13666
 C142 C -0.04097 0.29167 0.12470
 C143 C -0.06653 0.28617 0.11288
 C144 C -0.08706 0.30649 0.11296
 C145 C -0.08250 0.33294 0.12497
 C146 C -0.05642 0.33799 0.13685
 C147 C -0.01987 0.27070 0.12454
 C148 C -0.00220 0.25313 0.12439
 C149 C 0.01847 0.23256 0.12419
 C150 C 0.03612 0.21498 0.12400
 H151 H -0.01613 0.32216 0.14567
 H152 H -0.07070 0.26603 0.10376
 H153 H -0.10679 0.30073 0.10453
 H154 H -0.05109 0.35805 0.14538
 C155 C 0.56818 0.71514 0.61904
 C156 C 0.54091 0.70783 0.62449
 C157 C 0.53423 0.68011 0.63010
 C158 C 0.55473 0.65975 0.63028
 C159 C 0.58222 0.66687 0.62482
 C160 C 0.58872 0.69481 0.61919
 C161 C 0.51979 0.72878 0.62434
 C162 C 0.50209 0.74631 0.62424
 C163 C 0.48134 0.76681 0.62413
 C164 C 0.46361 0.78430 0.62405
 H165 H 0.57359 0.73656 0.61475
 H166 H 0.51318 0.67422 0.63428
 H167 H 0.54905 0.63837 0.63436
 H168 H 0.60973 0.70099 0.61527
 C169 C 1.06667 0.78650 0.38706
 C170 C 1.04107 0.79195 0.37532
 C171 C 1.03599 0.81784 0.36338
 C172 C 1.05641 0.83826 0.36312
 C173 C 1.08254 0.83325 0.37491
 C174 C 1.08717 0.80684 0.38691
 C175 C 1.01999 0.77097 0.37551
 C176 C 1.00232 0.75341 0.37566
 C177 C 0.98162 0.73288 0.37582
 C178 C 0.96392 0.71537 0.37594
 H179 H 1.07090 0.76639 0.39617
 H180 H 1.01612 0.82237 0.35443
 H181 H 1.05100 0.85828 0.35461
 H182 H 1.10694 0.80114 0.39529
 C183 C 0.43190 0.21584 -0.11915
 C184 C 0.45914 0.20864 -0.12488
 C185 C 0.46587 0.18096 -0.13075
 C186 C 0.44544 0.16054 -0.13089
 C187 C 0.41798 0.16755 -0.12512
 C188 C 0.41143 0.19545 -0.11926
 C189 C 0.48020 0.22964 -0.12469
 C190 C 0.49782 0.24724 -0.12450
 C191 C 0.51844 0.26786 -0.12425
 C192 C 0.53604 0.28548 -0.12401
 H193 H 0.42645 0.23722 -0.11465
 H194 H 0.48691 0.17515 -0.13515
 H195 H 0.45116 0.13920 -0.13515
 H196 H 0.39044 0.20156 -0.11510
 C197 C 0.13062 -0.03458 0.31846
 C198 C 0.12539 -0.04184 0.29109
 C199 C 0.11991 -0.06957 0.28425
 C200 C 0.11960 -0.08998 0.30469
 C201 C 0.12479 -0.08289 0.33228
 C202 C 0.13034 -0.05496 0.33893
 C203 C 0.12565 -0.02084 0.27003
 C204 C 0.12584 -0.00328 0.25237
 C205 C 0.12603 0.01727 0.23168
 C206 C 0.12618 0.03479 0.21399
 H207 H 0.13483 -0.01316 0.32399
 H208 H 0.11592 -0.07543 0.26311
 H209 H 0.11566 -0.11136 0.29888
 H210 H 0.13413 -0.04883 0.36002
 C211 C 0.60086 0.55483 -0.29880
 C212 C 0.62547 0.54209 -0.29117
 C213 C 0.64990 0.54973 -0.30412
 C214 C 0.64980 0.57004 -0.32466
 C215 C 0.62512 0.58330 -0.33274
 C216 C 0.60062 0.57518 -0.31929
 C217 C 0.62564 0.52118 -0.27002
 C218 C 0.62577 0.50368 -0.25230
 C219 C 0.62590 0.48321 -0.23154
 C220 C 0.62599 0.46574 -0.21380
 H221 H 0.58175 0.54888 -0.28905
 H222 H 0.66914 0.54015 -0.29819
 H223 H 0.66943 0.57595 -0.33322
 H224 H 0.58087 0.58357 -0.32515
 C225 C 0.35016 1.05419 0.79949
 C226 C 0.37476 1.04184 0.79100
 C227 C 0.39958 1.05001 0.80304
 C228 C 0.39982 1.07046 0.82350
 C229 C 0.37519 1.08300 0.83220
 C230 C 0.35035 1.07463 0.81995
 C231 C 0.37453 1.02077 0.76996
 C232 C 0.37432 1.00312 0.75234
 C233 C 0.37404 0.98245 0.73172
 C234 C 0.37378 0.96479 0.71412
 H235 H 0.33084 1.04807 0.79025
 H236 H 0.41874 1.04053 0.79668
 H237 H 0.41922 1.07620 0.83277
 H238 H 0.33110 1.08414 0.82596
 C239 C 0.89972 0.45004 0.19660
 C240 C 0.87493 0.45805 0.20882
 C241 C 0.85035 0.44555 0.20048
 C242 C 0.85053 0.42513 0.18000
 C243 C 0.87534 0.41692 0.16759
 C244 C 0.89995 0.42961 0.17613
 C245 C 0.87471 0.47908 0.22990
 C246 C 0.87452 0.49670 0.24754
 C247 C 0.87428 0.51734 0.26820
 C248 C 0.87405 0.53497 0.28583
 H249 H 0.91886 0.45963 0.20285
 H250 H 0.83105 0.45154 0.20985
 H251 H 0.83131 0.41550 0.17411
 H252 H 0.91932 0.42398 0.16673
 C253 C 0.32022 0.13073 -0.03529
 C254 C 0.29286 0.12528 -0.04223
 C255 C 0.28583 0.11985 -0.06960
 C256 C 0.30607 0.11986 -0.08998
 C257 C 0.33364 0.12533 -0.08322
 C258 C 0.34049 0.13077 -0.05563
 C259 C 0.27200 0.12527 -0.02128
 C260 C 0.25453 0.12526 -0.00374
 C261 C 0.23405 0.12525 0.01678
 C262 C 0.21656 0.12524 0.03429
 H263 H 0.32590 0.13488 -0.01415
 H264 H 0.26470 0.11568 -0.07522
 H265 H 0.30011 0.11593 -0.11107
 H266 H 0.36158 0.13468 -0.04973
 C267 C 0.71484 0.61985 0.57014
 C268 C 0.70787 0.62498 0.54270
 C269 C 0.68048 0.63011 0.53563
 C270 C 0.66013 0.63013 0.55589
 C271 C 0.66693 0.62501 0.58354
 C272 C 0.69453 0.61985 0.59043
 C273 C 0.72879 0.62496 0.52182
 C274 C 0.74631 0.62495 0.50433
 C275 C 0.76681 0.62495 0.48383
 C276 C 0.78430 0.62495 0.46631
 H277 H 0.73599 0.61592 0.57585
 H278 H 0.67484 0.63402 0.51444
 H279 H 0.63903 0.63380 0.54989
 H280 H 0.70044 0.61616 0.61158
 C281 C 0.78572 0.37984 0.06986
 C282 C 0.79274 0.37492 0.04239
 C283 C 0.82015 0.36988 0.03531
 C284 C 0.84047 0.36974 0.05561
 C285 C 0.83362 0.37463 0.08330
 C286 C 0.80601 0.37972 0.09019
 C287 C 0.77184 0.37503 0.02148
 C288 C 0.75432 0.37511 0.00398
 C289 C 0.73380 0.37521 -0.01650
 C290 C 0.71627 0.37528 -0.03399
 H291 H 0.76456 0.38370 0.07558
 H292 H 0.82582 0.36614 0.01410
 H293 H 0.86159 0.36616 0.04962
 H294 H 0.80008 0.38326 0.11136
 C295 C 0.19550 0.89980 0.44891
 C296 C 0.20746 0.87474 0.45729
 C297 C 0.19902 0.84968 0.44530
 C298 C 0.17869 0.84967 0.42502
 C299 C 0.16653 0.87476 0.41644
 C300 C 0.17517 0.89984 0.42861
 C301 C 0.22838 0.87472 0.47819
 C302 C 0.24589 0.87472 0.49570
 C303 C 0.26638 0.87471 0.51622
 C304 C 0.28386 0.87470 0.53375
 H305 H 0.20183 0.91931 0.45811
 H306 H 0.20820 0.83017 0.45159
 H307 H 0.17271 0.83007 0.41579
 H308 H 0.16596 0.91944 0.42269
   
