data_POSCAR
  _audit_creation_date              2014-09-24
  _audit_creation_method            'ToBaCCo'
  _symmetry_space_group_name_H-M    'P1'
  _symmetry_Int_Tables_number       1
  _symmetry_cell_setting            triclinic
  loop_
  _symmetry_equiv_pos_as_xyz
 x,y,z
_cell_length_a 46.5794
_cell_length_b 46.4054
_cell_length_c 26.5315
_cell_angle_alpha 90.001400
_cell_angle_beta 90.001300
_cell_angle_gamma 120.025000
loop_
  _atom_site_label
  _atom_site_type_symbol
  _atom_site_fract_x
  _atom_site_fract_y
  _atom_site_fract_z
C1 C 0.43010 0.90097 0.52552
 C2 C 0.43023 0.90099 0.47376
 C3 C 0.45717 0.93104 0.45904
 N4 N 0.47336 0.94939 0.49982
 C5 C 0.45697 0.93101 0.54047
 C6 C 0.46834 0.94034 0.40916
 C7 C 0.49253 0.97327 0.39664
 C8 C 0.51212 0.98242 0.35381
 C9 C 0.53048 1.01658 0.35384
 C10 C 0.52116 1.02745 0.39632
 N11 N 0.49852 1.00077 0.42280
 C12 C 0.53162 1.06106 0.40855
 C13 C 0.52997 1.07010 0.45910
 C14 C 0.52896 1.09819 0.47422
 C15 C 0.52898 1.09816 0.52584
 C16 C 0.52999 1.07005 0.54084
 N17 N 0.53005 1.05261 0.49994
 C18 C 0.53164 1.06096 0.59136
 C19 C 0.52100 1.02730 0.60356
 C20 C 0.53014 1.01631 0.64610
 C21 C 0.51163 0.98216 0.64606
 C22 C 0.49215 0.97313 0.60312
 N23 N 0.49833 1.00070 0.57697
 C24 C 0.46792 0.94025 0.59045
 H25 H 0.41234 0.88106 0.54927
 H26 H 0.41259 0.88110 0.44984
 H27 H 0.48511 1.00147 0.54578
 H28 H 0.51327 0.96617 0.32560
 H29 H 0.54875 1.03152 0.32576
 H30 H 0.52715 1.11628 0.45080
 H31 H 0.52719 1.11624 0.54936
 H32 H 0.51262 0.96584 0.67428
 H33 H 0.48518 1.00146 0.45390
 H34 H 0.54839 1.03116 0.67426
 C35 C -0.09791 0.43087 0.47431
 C36 C -0.09789 0.43097 0.52592
 C37 C -0.06984 0.46009 0.54088
 N38 N -0.05244 0.47754 0.49995
 C39 C -0.06989 0.45995 0.45913
 C40 C -0.06076 0.47088 0.59138
 C41 C -0.02720 0.49378 0.60358
 C42 C -0.01618 0.51395 0.64612
 C43 C 0.01784 0.52943 0.64610
 C44 C 0.02677 0.51886 0.60315
 N45 N -0.00073 0.49755 0.57699
 C46 C 0.05949 0.52733 0.59047
 C47 C 0.06868 0.52561 0.54046
 C48 C 0.09858 0.52865 0.52548
 C49 C 0.09856 0.52882 0.47372
 C50 C 0.06864 0.52585 0.45904
 N51 N 0.05038 0.52374 0.49984
 C52 C 0.05939 0.52782 0.40918
 C53 C 0.02659 0.51916 0.39666
 C54 C 0.01748 0.52968 0.35382
 C55 C -0.01655 0.51392 0.35384
 C56 C -0.02739 0.49371 0.39633
 N57 N -0.00082 0.49766 0.42282
 C58 C -0.06088 0.47059 0.40856
 H59 H -0.11597 0.41094 0.45092
 H60 H -0.11592 0.41114 0.54948
 H61 H -0.00152 0.48359 0.45393
 H62 H -0.03092 0.51749 0.67429
 H63 H 0.03414 0.54672 0.67432
 H64 H 0.11840 0.53068 0.54921
 H65 H 0.11836 0.53100 0.44978
 H66 H -0.03144 0.51731 0.32575
 H67 H -0.00156 0.48348 0.54579
 H68 H 0.03367 0.54707 0.32561
 C69 C 0.53119 0.43259 0.47364
 C70 C 0.53026 0.43157 0.52530
 C71 C 0.52928 0.45957 0.54133
 N72 N 0.52875 0.47713 0.50103
 C73 C 0.53011 0.46077 0.45975
 C74 C 0.53056 0.46999 0.59194
 C75 C 0.52099 0.49383 0.60385
 C76 C 0.53253 0.51545 0.64461
 C77 C 0.51552 0.53253 0.64464
 C78 C 0.49395 0.52096 0.60391
 N79 N 0.49809 0.49798 0.57838
 C80 C 0.47015 0.53052 0.59210
 C81 C 0.45953 0.52900 0.54158
 C82 C 0.43144 0.52970 0.52579
 C83 C 0.43221 0.53043 0.47412
 C84 C 0.46036 0.52957 0.45999
 N85 N 0.47693 0.52848 0.50113
 C86 C 0.47147 0.53151 0.41002
 C87 C 0.49510 0.52221 0.39713
 C88 C 0.51300 0.53036 0.35253
 C89 C 0.53027 0.51347 0.35251
 C90 C 0.52238 0.49549 0.39708
 N91 N 0.50127 0.50128 0.42434
 C92 C 0.53208 0.47209 0.40988
 H93 H 0.53192 0.41432 0.44914
 H94 H 0.52966 0.41192 0.54797
 H95 H 0.48857 0.48842 0.45661
 H96 H 0.55171 0.51915 0.67115
 H97 H 0.51923 0.55178 0.67120
 H98 H 0.41191 0.52903 0.54866
 H99 H 0.41381 0.53092 0.44979
 H100 H 0.54642 0.51405 0.32273
 H101 H 0.48363 0.48347 0.54832
 H102 H 0.51329 0.54646 0.32278
 O103 O 0.38139 0.66777 -0.05791
 O104 O 0.38248 0.72383 -0.04251
 C105 C 0.36167 0.72819 -0.06751
 O106 O 0.33087 0.71278 -0.05823
 O107 O 0.27503 0.65783 -0.04247
 C108 C 0.27068 0.63254 -0.06738
 O109 O 0.28604 0.61706 -0.05801
 O110 O 0.34076 0.61598 -0.04206
 C111 C 0.36596 0.63683 -0.06704
 O112 O 0.38285 0.65868 0.04240
 O113 O 0.38108 0.71328 0.05779
 C114 C 0.36534 0.72839 0.06699
 O115 O 0.34005 0.72366 0.04199
 O116 O 0.28568 0.66729 0.05777
 C117 C 0.27059 0.63638 0.06710
 O118 O 0.27525 0.61566 0.04219
 O119 O 0.33141 0.61752 0.05813
 C120 C 0.36221 0.63336 0.06746
 Cr121 Cr 0.38012 0.68996 -0.00006
 Cr122 Cr 0.30883 0.68948 -0.00023
 Cr123 Cr 0.30927 0.61839 0.00005
 O124 O 0.33274 0.66595 -0.00008
 O125 O 0.61871 0.33238 -0.05783
 O126 O 0.61729 0.27618 -0.04240
 C127 C 0.63800 0.27170 -0.06748
 O128 O 0.66880 0.28692 -0.05817
 O129 O 0.72481 0.34169 -0.04255
 C130 C 0.72925 0.36698 -0.06755
 O131 O 0.71408 0.38264 -0.05812
 O132 O 0.65956 0.38409 -0.04215
 C133 C 0.63427 0.36331 -0.06705
 O134 O 0.61740 0.34159 0.04247
 O135 O 0.61884 0.28684 0.05792
 C136 C 0.63448 0.27163 0.06720
 O137 O 0.65966 0.27615 0.04211
 O138 O 0.71420 0.33236 0.05775
 C139 C 0.72939 0.36327 0.06711
 O140 O 0.72492 0.38408 0.04211
 O141 O 0.66894 0.38259 0.05803
 C142 C 0.63815 0.36690 0.06744
 Cr143 Cr 0.61989 0.31016 0.00003
 Cr144 Cr 0.69096 0.31020 -0.00021
 Cr145 Cr 0.69096 0.38151 -0.00004
 O146 O 0.66727 0.33396 -0.00008
 N147 N 0.43436 0.89807 -0.28768
 C148 C 0.43167 0.86795 -0.29548
 N149 N 0.44080 0.86143 -0.34065
 N150 N 0.45225 0.88434 -0.37696
 C151 C 0.45490 0.91454 -0.36937
 N152 N 0.44580 0.92098 -0.32398
 C153 C 0.41940 0.84332 -0.25632
 C154 C 0.40913 0.82272 -0.22329
 C155 C 0.39695 0.79833 -0.18379
 N156 N 0.41818 0.79254 -0.15656
 N157 N 0.40692 0.77010 -0.11958
 C158 C 0.37404 0.75271 -0.10858
 N159 N 0.35284 0.75855 -0.13598
 N160 N 0.36411 0.78099 -0.17296
 N161 N 0.10144 0.53558 -0.28768
 C162 C 0.13150 0.56298 -0.29543
 N163 N 0.13804 0.57873 -0.34055
 N164 N 0.11522 0.56739 -0.37687
 C165 C 0.08509 0.53987 -0.36934
 N166 N 0.07863 0.52423 -0.32399
 C167 C 0.15601 0.57523 -0.25623
 C168 C 0.17651 0.58549 -0.22317
 C169 C 0.20079 0.59767 -0.18364
 N170 N 0.20658 0.62481 -0.15649
 N171 N 0.22893 0.63597 -0.11950
 C172 C 0.24624 0.62037 -0.10842
 N173 N 0.24040 0.59320 -0.13574
 N174 N 0.21804 0.58204 -0.17273
 N175 N 0.43445 0.57465 -0.34322
 C176 C 0.43504 0.56614 -0.29458
 N177 N 0.44723 0.54581 -0.28351
 N178 N 0.45847 0.53435 -0.32004
 C179 C 0.45798 0.54269 -0.36911
 N180 N 0.44571 0.56316 -0.37968
 C181 C 0.42294 0.57850 -0.25527
 C182 C 0.41278 0.58888 -0.22221
 C183 C 0.40070 0.60118 -0.18276
 N184 N 0.37367 0.57992 -0.15553
 N185 N 0.36254 0.59131 -0.11871
 C186 C 0.37809 0.62433 -0.10789
 N187 N 0.40515 0.64556 -0.13529
 N188 N 0.41627 0.63417 -0.17212
 N189 N 0.54671 0.10011 -0.28489
 C190 C 0.56734 0.13254 -0.29631
 N191 N 0.57612 0.14128 -0.34499
 N192 N 0.56461 0.11825 -0.38113
 C193 C 0.54388 0.08555 -0.37014
 N194 N 0.53523 0.07713 -0.32107
 C195 C 0.57980 0.15724 -0.25725
 C196 C 0.59019 0.17780 -0.22416
 C197 C 0.60247 0.20207 -0.18447
 N198 N 0.63530 0.21916 -0.17351
 N199 N 0.64665 0.24142 -0.13628
 C200 C 0.62554 0.24732 -0.10873
 N201 N 0.59267 0.23016 -0.11985
 N202 N 0.58133 0.20790 -0.15709
 N203 N 0.90018 0.44700 -0.28489
 C204 C 0.86790 0.43537 -0.29635
 N205 N 0.85922 0.43545 -0.34505
 N206 N 0.88218 0.44686 -0.38116
 C207 C 0.91473 0.45866 -0.37013
 N208 N 0.92309 0.45839 -0.32105
 C209 C 0.84327 0.42321 -0.25732
 C210 C 0.82278 0.41308 -0.22424
 C211 C 0.79860 0.40110 -0.18456
 N212 N 0.78158 0.41694 -0.17353
 N213 N 0.75941 0.40603 -0.13629
 C214 C 0.75353 0.37891 -0.10881
 N215 N 0.77061 0.36308 -0.12001
 N216 N 0.79278 0.37400 -0.15725
 N217 N 0.57418 0.43384 -0.34319
 C218 C 0.56546 0.43424 -0.29462
 N219 N 0.54521 0.44648 -0.28367
 N220 N 0.53399 0.45794 -0.32023
 C221 C 0.54251 0.45763 -0.36923
 N222 N 0.56294 0.44532 -0.37969
 C223 C 0.57753 0.42186 -0.25529
 C224 C 0.58766 0.41147 -0.22221
 C225 C 0.59969 0.39912 -0.18277
 N226 N 0.58399 0.36614 -0.17201
 N227 N 0.59506 0.35470 -0.13520
 C228 C 0.62221 0.37586 -0.10790
 N229 N 0.63789 0.40888 -0.11882
 N230 N 0.62682 0.42031 -0.15564
 N231 N 0.90029 0.44607 0.28477
 C232 C 0.86793 0.43414 0.29608
 N233 N 0.85913 0.43426 0.34469
 N234 N 0.88204 0.44599 0.38088
 C235 C 0.91466 0.45807 0.37001
 N236 N 0.92314 0.45777 0.32100
 C237 C 0.84335 0.42161 0.25697
 C238 C 0.82290 0.41118 0.22383
 C239 C 0.79876 0.39887 0.18410
 N240 N 0.79294 0.42010 0.15676
 N241 N 0.77078 0.40874 0.11951
 C242 C 0.75370 0.37576 0.10833
 N243 N 0.75958 0.35455 0.13584
 N244 N 0.78174 0.36592 0.17309
 N245 N 0.57549 0.14137 0.34474
 C246 C 0.56663 0.13254 0.29610
 N247 N 0.54617 0.10007 0.28476
 N248 N 0.53493 0.07711 0.32098
 C249 C 0.54366 0.08562 0.37001
 N250 N 0.56422 0.11836 0.38092
 C251 C 0.57875 0.15723 0.25702
 C252 C 0.58882 0.17777 0.22390
 C253 C 0.60069 0.20201 0.18419
 N254 N 0.58487 0.21907 0.17325
 N255 N 0.59568 0.24132 0.13601
 C256 C 0.62266 0.24724 0.10843
 N257 N 0.63846 0.23012 0.11953
 N258 N 0.62765 0.20787 0.15677
 N259 N 0.54031 0.43784 0.28837
 C260 C 0.56783 0.43550 0.29611
 N261 N 0.58362 0.44502 0.34114
 N262 N 0.57223 0.45658 0.37733
 C263 C 0.54467 0.45903 0.36971
 N264 N 0.52892 0.44939 0.32454
 C265 C 0.58021 0.42329 0.25697
 C266 C 0.59054 0.41312 0.22387
 C267 C 0.60277 0.40112 0.18423
 N268 N 0.63559 0.41696 0.17323
 N269 N 0.64690 0.40600 0.13607
 C270 C 0.62575 0.37885 0.10865
 N271 N 0.59289 0.36303 0.11982
 N272 N 0.58159 0.37399 0.15699
 N273 N 0.10145 0.53717 0.28709
 C274 C 0.13140 0.56467 0.29509
 N275 N 0.13784 0.58011 0.34047
 N276 N 0.11502 0.56838 0.37678
 C277 C 0.08500 0.54077 0.36900
 N278 N 0.07864 0.52543 0.32340
 C279 C 0.15591 0.57733 0.25591
 C280 C 0.17641 0.58789 0.22285
 C281 C 0.20069 0.60035 0.18332
 N282 N 0.21764 0.63331 0.17245
 N283 N 0.23999 0.64483 0.13547
 C284 C 0.24614 0.62376 0.10811
 N285 N 0.22913 0.59075 0.11916
 N286 N 0.20678 0.57924 0.15614
 N287 N 0.44190 0.86163 0.34035
 C288 C 0.43294 0.86811 0.29500
 N289 N 0.43551 0.89816 0.28706
 N290 N 0.44666 0.92105 0.32340
 C291 C 0.45559 0.91465 0.36896
 N292 N 0.45306 0.88451 0.37669
 C293 C 0.42103 0.84352 0.25578
 C294 C 0.41105 0.82295 0.22271
 C295 C 0.39922 0.79859 0.18317
 N296 N 0.37213 0.79245 0.15590
 N297 N 0.36128 0.77001 0.11892
 C298 C 0.37717 0.75295 0.10798
 N299 N 0.40429 0.75915 0.13542
 N300 N 0.41514 0.78159 0.17240
 N301 N 0.43647 0.53862 0.28865
 C302 C 0.43364 0.56598 0.29624
 N303 N 0.44312 0.58203 0.34110
 N304 N 0.45508 0.57106 0.37730
 C305 C 0.45799 0.54366 0.36985
 N306 N 0.44843 0.52764 0.32483
 C307 C 0.42100 0.57790 0.25709
 C308 C 0.41047 0.58786 0.22397
 C309 C 0.39807 0.59967 0.18431
 N310 N 0.41910 0.62681 0.15695
 N311 N 0.40765 0.63759 0.11977
 C312 C 0.37477 0.62159 0.10868
 N313 N 0.35377 0.59443 0.13621
 N314 N 0.36523 0.58364 0.17339
   
