data_POSCAR
  _audit_creation_date              2014-09-24
  _audit_creation_method            'ToBaCCo'
  _symmetry_space_group_name_H-M    'P1'
  _symmetry_Int_Tables_number       1
  _symmetry_cell_setting            triclinic
  loop_
  _symmetry_equiv_pos_as_xyz
 x,y,z
_cell_length_a 21.2336
_cell_length_b 21.1575
_cell_length_c 53.3331
_cell_angle_alpha 91.053900
_cell_angle_beta 90.638600
_cell_angle_gamma 117.589300
loop_
  _atom_site_label
  _atom_site_type_symbol
  _atom_site_fract_x
  _atom_site_fract_y
  _atom_site_fract_z
C1 C -0.01845 0.04420 0.51471
 C2 C -0.08285 -0.01067 0.49888
 C3 C -0.06621 -0.05109 0.48241
 C4 C 0.01323 -0.03232 0.48336
 C5 C 0.01165 -0.00093 0.52715
 C6 C 0.02731 -0.04176 0.51104
 C7 C 0.03581 0.08741 0.49534
 C8 C 0.05262 0.04835 0.47894
 H9 H -0.13700 -0.02093 0.50167
 H10 H 0.02909 -0.06299 0.47004
 H11 H 0.00829 -0.00962 0.54718
 H12 H 0.05783 0.14487 0.49432
 C13 C 0.94439 -0.08572 0.18713
 C14 C 0.99837 -0.09955 0.17167
 C15 C 1.04450 -0.04125 0.15857
 C16 C 1.03137 0.02440 0.16214
 C17 C 0.98772 -0.02323 0.20255
 C18 C 1.03738 0.03681 0.18929
 C19 C 0.90797 -0.06112 0.16764
 C20 C 0.95255 -0.00396 0.15458
 H21 H 1.00160 -0.14901 0.17159
 H22 H 1.06633 0.07130 0.15113
 H23 H 0.98709 -0.02439 0.22287
 H24 H 0.85173 -0.09085 0.16294
 C25 C 0.05579 1.03731 0.85509
 C26 C 0.06769 1.10615 0.84164
 C27 C 0.01455 1.09566 0.82460
 C28 C -0.04444 1.01784 0.82243
 C29 C -0.01809 1.01013 0.86619
 C30 C -0.07032 1.00063 0.84937
 C31 C 0.04700 0.98488 0.83373
 C32 C -0.00466 0.97456 0.81668
 H33 H 0.11100 1.15848 0.84590
 H34 H -0.08743 1.00776 0.80846
 H35 H -0.02591 1.01018 0.88625
 H36 H 0.08201 0.96080 0.83153
 O37 O 0.58809 0.07411 -0.02151
 O38 O 0.47507 0.06428 0.03280
 O39 O 0.60574 0.08143 0.02760
 O40 O 0.46971 0.08018 -0.01531
 O41 O 0.41716 -0.03746 -0.01737
 O42 O 0.55855 -0.03576 0.02420
 O43 O 0.42901 -0.05289 0.03044
 O44 O 0.53477 -0.04349 -0.02372
 Cu45 Cu 0.53999 0.08654 0.00632
 Cu46 Cu 0.47991 -0.05378 0.00332
 C47 C 0.57916 0.01587 -0.03212
 C48 C 0.43134 0.00284 0.04047
 C49 C 0.60685 0.02382 0.03285
 C50 C 0.42012 0.02165 -0.02369
 O51 O 0.03705 0.46451 0.64508
 O52 O 0.04301 0.60770 0.68725
 O53 O 0.04800 0.48728 0.69347
 O54 O 0.05133 0.59209 0.63942
 O55 O -0.06578 0.54247 0.63846
 O56 O -0.06916 0.43414 0.69285
 O57 O -0.07417 0.55484 0.68702
 O58 O -0.08007 0.41466 0.64427
 Cu59 Cu 0.05631 0.54273 0.66650
 Cu60 Cu -0.08386 0.48160 0.66568
 C61 C -0.02295 0.41531 0.63728
 C62 C -0.01503 0.60597 0.69410
 C63 C -0.01041 0.44199 0.70225
 C64 C -0.00596 0.58599 0.62968
 O65 O 0.47860 0.38397 0.30832
 O66 O 0.59178 0.50368 0.35962
 O67 O 0.47679 0.37897 0.35684
 O68 O 0.59900 0.50117 0.31090
 O69 O 0.53769 0.56153 0.31092
 O70 O 0.41213 0.43567 0.35487
 O71 O 0.52687 0.56026 0.35935
 O72 O 0.41909 0.44619 0.30656
 Cu73 Cu 0.54291 0.43612 0.33413
 Cu74 Cu 0.46783 0.50693 0.33306
 C75 C 0.42973 0.39515 0.29864
 C76 C 0.57914 0.55330 0.36801
 C77 C 0.42217 0.38484 0.36304
 C78 C 0.58932 0.55240 0.30311
 C79 C -0.03401 0.19445 0.56819
 C80 C 0.03028 0.19112 0.56478
 C81 C 0.03269 0.14096 0.54793
 C82 C -0.02765 0.09367 0.53374
 C83 C -0.09162 0.09687 0.53712
 C84 C -0.09487 0.14641 0.55417
 C85 C -0.03360 0.25002 0.58621
 C86 C -0.09478 0.25740 0.59144
 C87 C -0.09118 0.31075 0.60810
 C88 C -0.02654 0.35834 0.61991
 C89 C 0.03449 0.35105 0.61502
 C90 C 0.03139 0.29732 0.59847
 C91 C 0.09240 0.23860 0.57784
 C92 C 0.09304 0.29081 0.59421
 H93 H 0.14161 0.23586 0.57514
 H94 H 0.14266 0.32672 0.60368
 H95 H 0.08262 0.13948 0.54537
 H96 H -0.13920 0.06227 0.52649
 H97 H -0.13922 0.31505 0.61158
 H98 H 0.08459 0.38708 0.62420
 H99 H -0.14524 0.14684 0.55584
 H100 H -0.14585 0.22262 0.58289
 C101 C 0.78658 0.75631 0.23472
 C102 C 0.83976 0.74193 0.22425
 C103 C 0.89049 0.79135 0.20823
 C104 C 0.88954 0.85585 0.20296
 C105 C 0.83743 0.86986 0.21412
 C106 C 0.78676 0.82117 0.22953
 C107 C 0.73363 0.70311 0.25168
 C108 C 0.67701 0.71166 0.26183
 C109 C 0.63045 0.66231 0.27825
 C110 C 0.63853 0.60276 0.28501
 C111 C 0.69363 0.59246 0.27447
 C112 C 0.74086 0.64196 0.25772
 C113 C 0.84281 0.67921 0.23036
 C114 C 0.79496 0.63074 0.24696
 H115 H 0.88354 0.66796 0.22252
 H116 H 0.80030 0.58363 0.25138
 H117 H 0.93119 0.77994 0.20061
 H118 H 0.83641 0.91987 0.21104
 H119 H 0.58808 0.67134 0.28583
 H120 H 0.69984 0.54607 0.27928
 H121 H 0.74925 0.83642 0.23751
 H122 H 0.66728 0.75587 0.25736
 C123 C 0.20678 0.02844 -0.09102
 C124 C 0.22230 0.09443 -0.10200
 C125 C 0.17384 0.09903 -0.11923
 C126 C 0.10933 0.03850 -0.12546
 C127 C 0.09379 -0.02598 -0.11377
 C128 C 0.14133 -0.03112 -0.09688
 C129 C 0.26068 0.02472 -0.07359
 C130 C 0.25184 -0.03949 -0.06305
 C131 C 0.30370 -0.04034 -0.04698
 C132 C 0.36555 0.02267 -0.04090
 C133 C 0.37514 0.08687 -0.05144
 C134 C 0.32368 0.08820 -0.06787
 C135 C 0.28611 0.15523 -0.09573
 C136 C 0.33535 0.15234 -0.07884
 H137 H 0.29811 0.20596 -0.10393
 H138 H 0.38377 0.20097 -0.07453
 H139 H 0.18730 0.14947 -0.12778
 H140 H 0.04436 -0.07350 -0.11811
 H141 H 0.29508 -0.09057 -0.03919
 H142 H 0.42319 0.13588 -0.04710
 H143 H 0.12557 -0.08237 -0.08874
 H144 H 0.20569 -0.08984 -0.06706
 C145 C 0.01232 0.77928 0.55089
 C146 C 0.07955 0.83940 0.54795
 C147 C 0.08582 0.89578 0.53288
 C148 C 0.02594 0.89282 0.52060
 C149 C -0.03960 0.83158 0.52231
 C150 C -0.04638 0.77509 0.53702
 C151 C 0.00591 0.72494 0.56974
 C152 C -0.05976 0.66736 0.57605
 C153 C -0.06357 0.62158 0.59520
 C154 C -0.00206 0.63144 0.60836
 C155 C 0.06382 0.68723 0.60164
 C156 C 0.06811 0.73444 0.58283
 C157 C 0.13934 0.84439 0.56097
 C158 C 0.13386 0.79261 0.57783
 H159 H 0.19096 0.88982 0.55850
 H160 H 0.18154 0.79962 0.58778
 H161 H 0.13625 0.94375 0.53188
 H162 H -0.08691 0.82935 0.51364
 H163 H -0.11499 0.57885 0.59993
 H164 H 0.11184 0.69574 0.61173
 H165 H -0.09856 0.73016 0.53808
 H166 H -0.10904 0.65771 0.56689
 C167 C 0.21858 0.19520 0.22853
 C168 C 0.18803 0.12310 0.23541
 C169 C 0.12801 0.07193 0.22246
 C170 C 0.09885 0.08984 0.20159
 C171 C 0.13359 0.16017 0.19320
 C172 C 0.19194 0.21267 0.20680
 C173 C 0.27776 0.24921 0.24484
 C174 C 0.30337 0.32332 0.24267
 C175 C 0.35427 0.37114 0.25980
 C176 C 0.38227 0.34622 0.27891
 C177 C 0.35910 0.27295 0.28069
 C178 C 0.30546 0.22439 0.26447
 C179 C 0.21770 0.10198 0.25509
 C180 C 0.27645 0.15138 0.26886
 H181 H 0.19516 0.04630 0.25992
 H182 H 0.29737 0.13241 0.28395
 H183 H 0.10585 0.01701 0.22820
 H184 H 0.11358 0.17562 0.17691
 H185 H 0.37120 0.42771 0.25833
 H186 H 0.37926 0.25350 0.29589
 H187 H 0.21559 0.26644 0.20007
 H188 H 0.28252 0.34497 0.22856
 C189 C 0.75731 0.00498 -0.11197
 C190 C 0.81847 0.06930 -0.11722
 C191 C 0.87156 0.06783 -0.13225
 C192 C 0.86571 0.00287 -0.14152
 C193 C 0.80402 -0.06035 -0.13743
 C194 C 0.74984 -0.05943 -0.12304
 C195 C 0.70620 0.00778 -0.09334
 C196 C 0.64549 -0.05354 -0.08606
 C197 C 0.60375 -0.04971 -0.06674
 C198 C 0.62075 0.01534 -0.05418
 C199 C 0.67871 0.07764 -0.06224
 C200 C 0.72170 0.07424 -0.08160
 C201 C 0.82854 0.13399 -0.10616
 C202 C 0.78133 0.13638 -0.08866
 H203 H 0.87513 0.18328 -0.11039
 H204 H 0.79282 0.18742 -0.07999
 H205 H 0.92015 0.11662 -0.13516
 H206 H 0.79942 -0.11088 -0.14427
 H207 H 0.55852 -0.09859 -0.06130
 H208 H 0.69198 0.12829 -0.05286
 H209 H 0.70436 -0.11008 -0.11986
 H210 H 0.63000 -0.10534 -0.09461
 C211 C 0.21356 -0.03208 0.11192
 C212 C 0.22000 0.02978 0.12473
 C213 C 0.16600 0.02550 0.14065
 C214 C 0.10363 -0.03913 0.14332
 C215 C 0.09742 -0.10040 0.13061
 C216 C 0.15161 -0.09715 0.11520
 C217 C 0.27189 -0.02489 0.09474
 C218 C 0.27209 -0.08369 0.08210
 C219 C 0.32525 -0.07408 0.06524
 C220 C 0.37989 -0.00563 0.06036
 C221 C 0.38191 0.05324 0.07361
 C222 C 0.32877 0.04398 0.09091
 C223 C 0.27928 0.09594 0.12105
 C224 C 0.33192 0.10306 0.10424
 H225 H 0.28417 0.14338 0.13086
 H226 H 0.37573 0.15570 0.10160
 H227 H 0.17274 0.07309 0.15080
 H228 H 0.04972 -0.15077 0.13200
 H229 H 0.32236 -0.12078 0.05552
 H230 H 0.42423 0.10627 0.07027
 H231 H 0.14303 -0.14582 0.10557
 H232 H 0.23148 -0.13758 0.08479
 C233 C 0.78055 0.77149 0.43684
 C234 C 0.76799 0.83011 0.44290
 C235 C 0.81753 0.88758 0.45789
 C236 C 0.88022 0.88804 0.46687
 C237 C 0.89204 0.82956 0.46080
 C238 C 0.84316 0.77223 0.44613
 C239 C 0.72730 0.71190 0.42038
 C240 C 0.73520 0.65149 0.41319
 C241 C 0.68600 0.59920 0.39682
 C242 C 0.62734 0.60529 0.38725
 C243 C 0.61769 0.66408 0.39498
 C244 C 0.66714 0.71728 0.41132
 C245 C 0.70655 0.83138 0.43370
 C246 C 0.65735 0.77632 0.41822
 H247 H 0.69666 0.87606 0.43832
 H248 H 0.61114 0.78037 0.41137
 H249 H 0.80786 0.93261 0.46207
 H250 H 0.93879 0.82692 0.46770
 H251 H 0.69477 0.55444 0.39129
 H252 H 0.57256 0.66954 0.38777
 H253 H 0.85577 0.72924 0.44225
 H254 H 0.77943 0.64390 0.41967
 C255 C -0.00171 0.25291 0.77847
 C256 C 0.06586 0.25830 0.78446
 C257 C 0.07154 0.20872 0.80035
 C258 C 0.01056 0.15311 0.81025
 C259 C -0.05584 0.14991 0.80515
 C260 C -0.06206 0.19901 0.78956
 C261 C -0.00608 0.30365 0.76004
 C262 C -0.07100 0.30020 0.75172
 C263 C -0.07238 0.34608 0.73342
 C264 C -0.00918 0.39688 0.72303
 C265 C 0.05582 0.40202 0.73175
 C266 C 0.05779 0.35565 0.74987
 C267 C 0.12711 0.31206 0.77409
 C268 C 0.12319 0.35987 0.75728
 H269 H 0.17889 0.31668 0.77879
 H270 H 0.17214 0.39991 0.74955
 H271 H 0.12312 0.21170 0.80417
 H272 H -0.10363 0.10884 0.81311
 H273 H -0.12323 0.34091 0.72709
 H274 H 0.10518 0.44092 0.72388
 H275 H -0.11469 0.19313 0.78623
 H276 H -0.12142 0.26163 0.75871
 C277 C 0.83486 0.03171 0.09641
 C278 C 0.84438 -0.03024 0.09590
 C279 C 0.89049 -0.03712 0.11333
 C280 C 0.92551 0.01551 0.13202
 C281 C 0.91996 0.07877 0.13169
 C282 C 0.87550 0.08723 0.11393
 C283 C 0.77863 0.03302 0.07938
 C284 C 0.76323 0.09098 0.07878
 C285 C 0.70764 0.08779 0.06364
 C286 C 0.66557 0.02664 0.04884
 C287 C 0.68126 -0.03080 0.04893
 C288 C 0.73744 -0.02793 0.06388
 C289 C 0.80442 -0.08709 0.07919
 C290 C 0.75188 -0.08610 0.06361
 H291 H 0.81219 -0.13425 0.07875
 H292 H 0.72106 -0.13230 0.05151
 H293 H 0.89465 -0.08632 0.11375
 H294 H 0.94620 0.11954 0.14620
 H295 H 0.69702 0.13317 0.06376
 H296 H 0.64986 -0.07782 0.03724
 H297 H 0.87099 0.13590 0.11507
 H298 H 0.79310 0.13905 0.08994
 C299 C 0.20594 0.17193 0.42472
 C300 C 0.14325 0.17871 0.42799
 C301 C 0.09118 0.13404 0.44432
 C302 C 0.10056 0.08302 0.45802
 C303 C 0.16030 0.07302 0.45379
 C304 C 0.21260 0.11696 0.43728
 C305 C 0.26297 0.22523 0.40870
 C306 C 0.32876 0.22563 0.40487
 C307 C 0.38065 0.27775 0.39029
 C308 C 0.36851 0.33098 0.37924
 C309 C 0.30315 0.33084 0.38291
 C310 C 0.25068 0.27877 0.39742
 C311 C 0.13381 0.23176 0.41576
 C312 C 0.18630 0.28063 0.40078
 H313 H 0.08550 0.23643 0.41819
 H314 H 0.17675 0.32129 0.39199
 H315 H 0.04433 0.14110 0.44729
 H316 H 0.16832 0.03381 0.46424
 H317 H 0.43048 0.27630 0.38766
 H318 H 0.29273 0.37121 0.37432
 H319 H 0.25863 0.10851 0.43521
 H320 H 0.34124 0.18638 0.41301
 C321 C -0.01245 0.83467 0.75684
 C322 C -0.07509 0.81975 0.77012
 C323 C -0.07482 0.86890 0.78835
 C324 C -0.01258 0.93231 0.79353
 C325 C 0.04733 0.94946 0.77892
 C326 C 0.04743 0.90163 0.76067
 C327 C -0.01175 0.77751 0.73999
 C328 C 0.05027 0.78421 0.72833
 C329 C 0.04909 0.72832 0.71369
 C330 C -0.01392 0.66446 0.71008
 C331 C -0.07613 0.65728 0.72154
 C332 C -0.07523 0.71271 0.73672
 C333 C -0.13644 0.75481 0.76580
 C334 C -0.13678 0.70286 0.74919
 H335 H -0.18470 0.74355 0.77568
 H336 H -0.18546 0.65327 0.74668
 H337 H -0.12121 0.85577 0.79964
 H338 H 0.09559 0.99880 0.78256
 H339 H 0.09776 0.73538 0.70504
 H340 H -0.12509 0.60790 0.71907
 H341 H 0.09562 0.91728 0.75040
 H342 H 0.10057 0.83163 0.73058
   
