data_POSCAR
  _audit_creation_date              2014-09-24
  _audit_creation_method            'ToBaCCo'
  _symmetry_space_group_name_H-M    'P1'
  _symmetry_Int_Tables_number       1
  _symmetry_cell_setting            triclinic
  loop_
  _symmetry_equiv_pos_as_xyz
 x,y,z
_cell_length_a 21.1436
_cell_length_b 21.1436
_cell_length_c 21.1436
_cell_angle_alpha 114.734400
_cell_angle_beta 65.265800
_cell_angle_gamma 65.265700
loop_
  _atom_site_label
  _atom_site_type_symbol
  _atom_site_fract_x
  _atom_site_fract_y
  _atom_site_fract_z
O1 O 0.52460 0.54875 0.08856
 O2 O 0.34712 0.57877 0.07605
 O3 O 0.45017 0.47547 0.09001
 O4 O 0.42139 0.65072 0.07420
 O5 O 0.54773 0.52316 -0.09062
 O6 O 0.57826 0.34763 -0.07459
 O7 O 0.47370 0.44918 -0.08826
 O8 O 0.65118 0.42123 -0.07619
 Cu9 Cu 0.42360 0.57570 0.09869
 Cu10 Cu 0.57500 0.42292 -0.09896
 C11 C 0.61756 0.48180 0.00872
 C12 C 0.38038 0.51732 -0.00849
 C13 C 0.51758 0.38218 0.01082
 C14 C 0.48121 0.61630 -0.01134
 O15 O -0.07606 0.65289 0.57878
 O16 O -0.08857 0.47541 0.54876
 O17 O -0.07420 0.57860 0.65072
 O18 O -0.09001 0.54984 0.47548
 O19 O 0.07459 0.42174 0.34763
 O20 O 0.09062 0.45227 0.52316
 O21 O 0.07618 0.34883 0.42124
 O22 O 0.08824 0.52631 0.44919
 Cu23 Cu -0.09870 0.57641 0.57571
 Cu24 Cu 0.09895 0.42500 0.42292
 C25 C 0.00847 0.61963 0.51734
 C26 C -0.00874 0.38245 0.48181
 C27 C 0.01134 0.51879 0.61630
 C28 C -0.01082 0.48242 0.38218
 O29 O 0.42121 0.07608 0.65291
 O30 O 0.45123 0.08859 0.47542
 O31 O 0.34926 0.07423 0.57862
 O32 O 0.52450 0.09004 0.54986
 O33 O 0.65235 -0.07456 0.42176
 O34 O 0.47682 -0.09059 0.45229
 O35 O 0.57874 -0.07616 0.34885
 O36 O 0.55079 -0.08822 0.52633
 Cu37 Cu 0.42427 0.09873 0.57643
 Cu38 Cu 0.57706 -0.09893 0.42502
 C39 C 0.48265 -0.00845 0.61964
 C40 C 0.51818 0.00876 0.38247
 C41 C 0.38368 -0.01131 0.51881
 C42 C 0.61780 0.01085 0.48245
 O43 O 0.40888 0.05133 -0.02324
 O44 O 0.42541 0.07632 0.15072
 O45 O 0.42540 0.15082 0.07886
 O46 O 0.40891 -0.02425 0.04911
 O47 O 0.57347 -0.15237 -0.07947
 O48 O 0.58987 0.02262 -0.05029
 O49 O 0.58995 -0.05227 0.02256
 O50 O 0.57338 -0.07811 -0.15179
 Cu51 Cu 0.40061 0.07594 0.07632
 Cu52 Cu 0.59816 -0.07746 -0.07717
 C53 C 0.48792 -0.01588 -0.11657
 C54 C 0.51083 0.01483 0.11585
 C55 C 0.51082 0.11603 0.01760
 C56 C 0.48801 -0.11762 -0.01847
 O57 O -0.15070 0.57456 1.07629
 O58 O 0.02327 0.59109 1.05131
 O59 O -0.04909 0.59107 0.97573
 O60 O -0.07885 0.57458 1.15081
 O61 O 0.05030 0.41011 1.02260
 O62 O 0.07948 0.42650 0.84761
 O63 O 0.15182 0.42659 0.92186
 O64 O -0.02254 0.41002 0.94770
 Cu65 Cu -0.07630 0.59936 1.07592
 Cu66 Cu 0.07719 0.40181 0.92252
 C67 C -0.11583 0.48914 1.01481
 C68 C 0.11659 0.51205 0.98410
 C69 C 0.01848 0.51197 0.88236
 C70 C -0.01759 0.48916 1.11601
 O71 O 0.07812 -0.15179 0.42662
 O72 O 0.05228 0.02256 0.41005
 O73 O 0.15236 -0.07946 0.42654
 O74 O -0.02263 -0.05027 0.41015
 O75 O -0.15083 0.07887 0.57462
 O76 O 0.02424 0.04912 0.59111
 O77 O -0.07631 0.15072 0.57459
 O78 O -0.05133 -0.02324 0.59112
 Cu79 Cu 0.07745 -0.07717 0.40184
 Cu80 Cu -0.07594 0.07632 0.59940
 C81 C 0.01588 -0.11657 0.51208
 C82 C -0.01483 0.11585 0.48917
 C83 C 0.11761 -0.01846 0.51200
 C84 C -0.11604 0.01761 0.48919
 C85 C -0.20950 0.39473 0.93140
 C86 C -0.31389 0.47802 1.01461
 C87 C -0.35241 0.56163 1.10115
 C88 C -0.28794 0.56400 1.10259
 C89 C -0.18364 0.48215 1.01812
 C90 C -0.14498 0.39645 0.93345
 H91 H -0.17771 0.32923 0.86380
 H92 H -0.43255 0.62713 1.16636
 H93 H -0.31982 0.63090 1.16894
 H94 H -0.06487 0.33234 0.86706
 C95 C 0.21020 0.60066 1.07326
 C96 C 0.31446 0.52204 0.98662
 C97 C 0.35168 0.44460 0.89641
 C98 C 0.28713 0.44256 0.89466
 C99 C 0.18375 0.51934 0.98212
 C100 C 0.14563 0.59977 1.07065
 H101 H 0.17829 0.66208 1.14394
 H102 H 0.43130 0.38279 0.82794
 H103 H 0.31832 0.37988 0.82535
 H104 H 0.06616 0.65986 1.13932
 C105 C 0.10357 -0.35166 0.44463
 C106 C 0.01336 -0.31445 0.52206
 C107 C -0.07328 -0.21019 0.60068
 C108 C -0.07067 -0.14561 0.59980
 C109 C 0.01786 -0.18373 0.51937
 C110 C 0.10532 -0.28711 0.44259
 H111 H 0.17204 -0.43128 0.38282
 H112 H -0.14396 -0.17828 0.66210
 H113 H -0.13935 -0.06614 0.65989
 H114 H 0.17463 -0.31830 0.37991
 C115 C 0.06858 0.20952 0.39475
 C116 C -0.01463 0.31390 0.47804
 C117 C -0.10117 0.35242 0.56165
 C118 C -0.10260 0.28796 0.56403
 C119 C -0.01814 0.18365 0.48218
 C120 C 0.06653 0.14499 0.39647
 H121 H 0.13618 0.17772 0.32924
 H122 H -0.16637 0.43256 0.62715
 H123 H -0.16895 0.31984 0.63093
 H124 H 0.13291 0.06488 0.33236
 C125 C 0.55536 -0.10356 -0.35165
 C126 C 0.47793 -0.01335 -0.31444
 C127 C 0.39931 0.07329 -0.21018
 C128 C 0.40019 0.07068 -0.14560
 C129 C 0.48063 -0.01786 -0.18372
 C130 C 0.55741 -0.10531 -0.28711
 H131 H 0.61717 -0.17203 -0.43127
 H132 H 0.33789 0.14398 -0.17827
 H133 H 0.34011 0.13935 -0.06613
 H134 H 0.62009 -0.17462 -0.31830
 C135 C 0.60524 -0.06856 0.20953
 C136 C 0.52195 0.01465 0.31391
 C137 C 0.43834 0.10118 0.35243
 C138 C 0.43597 0.10262 0.28797
 C139 C 0.51782 0.01815 0.18366
 C140 C 0.60352 -0.06651 0.14500
 H141 H 0.67075 -0.13616 0.17774
 H142 H 0.37284 0.16639 0.43257
 H143 H 0.36906 0.16896 0.31985
 H144 H 0.66763 -0.13290 0.06489
 C145 C 0.56084 -0.35435 -0.10491
 C146 C 0.47707 -0.31567 -0.01838
 C147 C 0.39332 -0.21130 0.06427
 C148 C 0.39490 -0.14686 0.06196
 C149 C 0.48090 -0.18556 -0.02241
 C150 C 0.56307 -0.28991 -0.10659
 H151 H 0.62666 -0.43450 -0.16965
 H152 H 0.32766 -0.17941 0.13182
 H153 H 0.33052 -0.06673 0.12812
 H154 H 0.63022 -0.32182 -0.17270
 C155 C 0.60555 0.20976 -0.06488
 C156 C 0.52176 0.31412 0.01778
 C157 C 0.43796 0.35276 0.10425
 C158 C 0.43575 0.28829 0.10585
 C159 C 0.51793 0.18396 0.02164
 C160 C 0.60397 0.14529 -0.06267
 H161 H 0.67124 0.17790 -0.13238
 H162 H 0.37211 0.43290 0.16903
 H163 H 0.36859 0.32017 0.17192
 H164 H 0.66836 0.06517 -0.12886
 C165 C -0.20979 -0.06484 0.39447
 C166 C -0.31414 0.01781 0.47827
 C167 C -0.35278 0.10427 0.56207
 C168 C -0.28831 0.10588 0.56428
 C169 C -0.18398 0.02166 0.48209
 C170 C -0.14531 -0.06264 0.39605
 H171 H -0.17793 -0.13235 0.32878
 H172 H -0.43292 0.16905 0.62792
 H173 H -0.32018 0.17194 0.63144
 H174 H -0.06519 -0.12883 0.33165
 C175 C 0.35434 -0.10488 0.43917
 C176 C 0.31566 -0.01836 0.52295
 C177 C 0.21129 0.06429 0.60669
 C178 C 0.14685 0.06197 0.60512
 C179 C 0.18555 -0.02240 0.51911
 C180 C 0.28990 -0.10657 0.43694
 H181 H 0.43449 -0.16963 0.37335
 H182 H 0.17939 0.13184 0.67235
 H183 H 0.06672 0.12814 0.66949
 H184 H 0.32181 -0.17268 0.36979
 C185 C 0.06488 0.39444 1.20976
 C186 C -0.01778 0.47824 1.31412
 C187 C -0.10425 0.56203 1.35275
 C188 C -0.10585 0.56424 1.28828
 C189 C -0.02163 0.48205 1.18395
 C190 C 0.06267 0.39602 1.14529
 H191 H 0.13238 0.32875 1.17790
 H192 H -0.16903 0.62788 1.43289
 H193 H -0.17191 0.63140 1.32015
 H194 H 0.12886 0.33162 1.06517
 C195 C 0.10491 0.43914 0.64564
 C196 C 0.01839 0.52292 0.68432
 C197 C -0.06426 0.60666 0.78869
 C198 C -0.06194 0.60509 0.85313
 C199 C 0.02243 0.51908 0.81443
 C200 C 0.10660 0.43691 0.71007
 H201 H 0.16966 0.37332 0.56548
 H202 H -0.13181 0.67233 0.82058
 H203 H -0.12811 0.66946 0.93326
 H204 H 0.17271 0.36976 0.67817
   
