data_POSCAR
  _audit_creation_date              2014-09-24
  _audit_creation_method            'ToBaCCo'
  _symmetry_space_group_name_H-M    'P1'
  _symmetry_Int_Tables_number       1
  _symmetry_cell_setting            triclinic
  loop_
  _symmetry_equiv_pos_as_xyz
 x,y,z
_cell_length_a 60.6653
_cell_length_b 48.5280
_cell_length_c 32.8022
_cell_angle_alpha 90.054500
_cell_angle_beta 90.208800
_cell_angle_gamma 90.296000
loop_
  _atom_site_label
  _atom_site_type_symbol
  _atom_site_fract_x
  _atom_site_fract_y
  _atom_site_fract_z
C1 C 1.27018 0.22127 0.26303
 C2 C 1.25183 0.23572 0.24820
 C3 C 1.23408 0.22105 0.23114
 C4 C 1.23471 0.19222 0.22787
 C5 C 1.25339 0.17809 0.24214
 C6 C 1.27130 0.19225 0.26039
 C7 C 1.25145 0.26629 0.24966
 C8 C 1.26947 0.28161 0.23505
 C9 C 1.26933 0.31075 0.23504
 C10 C 1.25058 0.32405 0.25115
 C11 C 1.23258 0.30900 0.26657
 C12 C 1.23305 0.28011 0.26516
 H13 H 1.28386 0.23301 0.27547
 H14 H 1.22003 0.23222 0.21930
 H15 H 1.28300 0.27044 0.22153
 H16 H 1.21937 0.26828 0.27728
 H17 H 1.25319 0.15580 0.24122
 H18 H 1.25006 0.34627 0.25309
 C19 C 0.77072 -0.27854 0.27121
 C20 C 0.75230 -0.26390 0.25700
 C21 C 0.73451 -0.27835 0.23974
 C22 C 0.73510 -0.30712 0.23569
 C23 C 0.75380 -0.32144 0.24939
 C24 C 0.77181 -0.30754 0.26772
 C25 C 0.75193 -0.23336 0.25877
 C26 C 0.76981 -0.21799 0.24374
 C27 C 0.76936 -0.18905 0.24373
 C28 C 0.75089 -0.17553 0.25984
 C29 C 0.73292 -0.19054 0.27548
 C30 C 0.73351 -0.21950 0.27441
 H31 H 0.78446 -0.26695 0.28373
 H32 H 0.72046 -0.26702 0.22822
 H33 H 0.78375 -0.22865 0.23066
 H34 H 0.71986 -0.23134 0.28661
 H35 H 0.75357 -0.34372 0.24786
 H36 H 0.75049 -0.15322 0.26010
 C37 C 0.76939 0.22182 -0.23543
 C38 C 0.75124 0.23659 -0.25045
 C39 C 0.73297 0.22211 -0.26618
 C40 C 0.73276 0.19316 -0.26732
 C41 C 0.75096 0.17875 -0.25169
 C42 C 0.76930 0.19286 -0.23548
 C43 C 0.75127 0.26715 -0.24939
 C44 C 0.76951 0.28213 -0.26389
 C45 C 0.76968 0.31129 -0.26389
 C46 C 0.75109 0.32491 -0.24773
 C47 C 0.73291 0.31019 -0.23243
 C48 C 0.73304 0.28132 -0.23390
 H49 H 0.78329 0.23293 -0.22247
 H50 H 0.71915 0.23348 -0.27856
 H51 H 0.78295 0.27072 -0.27726
 H52 H 0.71923 0.26976 -0.22174
 H53 H 0.75085 0.15643 -0.25205
 H54 H 0.75082 0.34714 -0.24566
 C55 C 1.27099 -0.28023 -0.23167
 C56 C 1.25244 -0.26590 -0.24594
 C57 C 1.23481 -0.28062 -0.26320
 C58 C 1.23569 -0.30938 -0.26718
 C59 C 1.25452 -0.32342 -0.25347
 C60 C 1.27237 -0.30921 -0.23506
 C61 C 1.25179 -0.23539 -0.24431
 C62 C 1.26951 -0.21984 -0.25954
 C63 C 1.26881 -0.19092 -0.25967
 C64 C 1.25029 -0.17761 -0.24347
 C65 C 1.23250 -0.19279 -0.22758
 C66 C 1.23328 -0.22174 -0.22858
 H67 H 1.28461 -0.26841 -0.21919
 H68 H 1.22067 -0.26950 -0.27476
 H69 H 1.28352 -0.23033 -0.27266
 H70 H 1.21975 -0.23372 -0.21622
 H71 H 1.25451 -0.34569 -0.25501
 H72 H 1.24972 -0.15530 -0.24328
 C73 C 0.22502 0.27649 0.74141
 C74 C 0.23546 0.25212 0.75324
 C75 C 0.22291 0.22952 0.76658
 C76 C 0.19967 0.23088 0.76842
 C77 C 0.18959 0.25551 0.75500
 C78 C 0.20205 0.27831 0.74220
 C79 C 0.25969 0.25063 0.75305
 C80 C 0.27210 0.26926 0.77662
 C81 C 0.29530 0.26787 0.77764
 C82 C 0.30562 0.24808 0.75271
 C83 C 0.29337 0.22989 0.72817
 C84 C 0.27033 0.23075 0.72927
 H85 H 0.23481 0.29403 0.73174
 H86 H 0.23172 0.21168 0.77753
 H87 H 0.26338 0.28373 0.79573
 H88 H 0.26071 0.21673 0.71052
 H89 H 0.17187 0.25701 0.75256
 H90 H 0.32341 0.24727 0.75084
 C91 C 0.72198 0.76989 0.73027
 C92 C 0.73453 0.74792 0.74538
 C93 C 0.72405 0.72358 0.75801
 C94 C 0.70099 0.72079 0.75550
 C95 C 0.68874 0.74337 0.74087
 C96 C 0.69885 0.76796 0.72728
 C97 C 0.75882 0.74990 0.74523
 C98 C 0.76950 0.77287 0.76264
 C99 C 0.79244 0.77579 0.75979
 C100 C 0.80462 0.75548 0.73961
 C101 C 0.79421 0.73258 0.72172
 C102 C 0.77128 0.72970 0.72517
 H103 H 0.73069 0.78771 0.71866
 H104 H 0.73412 0.70656 0.76822
 H105 H 0.75990 0.78866 0.77766
 H106 H 0.76298 0.71245 0.71064
 H107 H 0.67100 0.74242 0.74314
 H108 H 0.82240 0.75747 0.73804
 C109 C 0.72390 0.26997 0.23484
 C110 C 0.73585 0.24750 0.24989
 C111 C 0.72477 0.22350 0.26211
 C112 C 0.70175 0.22192 0.25991
 C113 C 0.68993 0.24461 0.24516
 C114 C 0.70083 0.26858 0.23179
 C115 C 0.76003 0.24864 0.25170
 C116 C 0.77072 0.26826 0.27634
 C117 C 0.79376 0.26841 0.27950
 C118 C 0.80600 0.24955 0.25648
 C119 C 0.79550 0.23031 0.23092
 C120 C 0.77242 0.22966 0.22925
 H121 H 0.73272 0.28806 0.22425
 H122 H 0.73414 0.20604 0.27312
 H123 H 0.76107 0.28265 0.29408
 H124 H 0.76406 0.21488 0.20972
 H125 H 0.67209 0.24368 0.24472
 H126 H 0.82383 0.24982 0.25855
 C127 C 0.22222 0.76863 0.23192
 C128 C 0.23448 0.74662 0.24764
 C129 C 0.22378 0.72221 0.25936
 C130 C 0.20078 0.71941 0.25535
 C131 C 0.18881 0.74206 0.24021
 C132 C 0.19917 0.76667 0.22739
 C133 C 0.25877 0.74846 0.24836
 C134 C 0.26940 0.77141 0.26595
 C135 C 0.29235 0.77434 0.26328
 C136 C 0.30458 0.75402 0.24319
 C137 C 0.29419 0.73118 0.22512
 C138 C 0.27127 0.72829 0.22836
 H139 H 0.23114 0.78646 0.22089
 H140 H 0.23369 0.70513 0.26989
 H141 H 0.25976 0.78723 0.28078
 H142 H 0.26302 0.71113 0.21353
 H143 H 0.17104 0.74115 0.24136
 H144 H 0.32236 0.75603 0.24165
 O145 O 1.03184 0.05087 0.06820
 O146 O 1.05552 0.02376 0.03168
 C147 C 1.05154 0.04306 0.05805
 O148 O 0.96876 -0.04720 0.07441
 O149 O 0.94454 -0.02201 0.03595
 C150 C 0.94891 -0.04042 0.06345
 O151 O 1.03016 -0.04466 0.07800
 O152 O 1.05490 -0.02309 0.03583
 C153 C 1.05011 -0.03917 0.06620
 O154 O 0.97047 0.05479 0.06322
 O155 O 0.94525 0.02701 0.03056
 C156 C 0.95041 0.04788 0.05358
 Zr157 Zr 1.00077 0.03697 0.04652
 O158 O 1.00010 0.03749 0.11100
 O159 O 1.00238 0.08023 0.03873
 Zr160 Zr 0.99957 -0.03188 0.05415
 O161 O 0.99896 -0.02442 0.11763
 O162 O 1.00057 -0.07507 0.06229
 O163 O 1.02005 0.00251 0.05791
 O164 O 0.98069 0.00327 0.05784
 O165 O 0.96939 0.04758 -0.07635
 O166 O 0.94490 0.02327 -0.03712
 C167 C 0.94948 0.04145 -0.06484
 O168 O 1.02994 -0.05232 -0.06992
 O169 O 1.05473 -0.02575 -0.03421
 C170 C 1.04996 -0.04506 -0.06018
 O171 O 0.96809 -0.05318 -0.06636
 O172 O 0.94411 -0.02511 -0.03203
 C173 C 0.94835 -0.04532 -0.05666
 O174 O 1.03073 0.04265 -0.08137
 O175 O 1.05524 0.02050 -0.03947
 C176 C 1.05062 0.03647 -0.07003
 Zr177 Zr 1.00001 0.03193 -0.05579
 O178 O 0.99739 0.03091 -0.12011
 O179 O 1.00179 0.07544 -0.05471
 Zr180 Zr 0.99916 -0.03736 -0.04850
 O181 O 0.99680 -0.04128 -0.11267
 O182 O 0.99939 -0.08056 -0.04035
 Zr183 Zr 1.03287 -0.00076 -0.00143
 Zr184 Zr 0.96681 0.00035 -0.00073
 O185 O 0.98031 -0.00276 -0.05951
 O186 O 1.01922 -0.00344 -0.06051
 O187 O 0.98078 0.04003 -0.00500
 O188 O 1.01845 -0.04011 0.00323
 O189 O 1.01981 0.03910 -0.00547
 O190 O 0.97966 -0.03977 0.00349
 H191 H 0.97067 0.00464 0.08155
 H192 H 1.02798 -0.05658 0.00493
 H193 H 0.97033 -0.00361 -0.08345
 H194 H 1.03002 0.05505 -0.00731
 H195 H 0.99362 -0.08335 0.03782
 H196 H 0.99928 -0.08869 -0.06808
 H197 H 1.00914 -0.03067 -0.12464
 H198 H 1.00703 0.01590 -0.12973
 H199 H 1.00210 0.08139 -0.08359
 H200 H 1.00295 0.08851 0.06633
 H201 H 0.99988 0.05709 0.11940
 H202 H 0.99846 -0.04280 0.13074
 O203 O 1.03298 0.55398 0.56485
 O204 O 1.05663 0.52588 0.53005
 C205 C 1.05266 0.54591 0.55517
 O206 O 0.97070 0.45577 0.58026
 O207 O 0.94617 0.47949 0.54042
 C208 C 0.95077 0.46199 0.56903
 O209 O 1.03236 0.45967 0.58314
 O210 O 1.05647 0.47956 0.53802
 C211 C 1.05215 0.46493 0.57012
 O212 O 0.97151 0.55733 0.56024
 O213 O 0.94640 0.52777 0.53092
 C214 C 0.95146 0.54960 0.55192
 Zr215 Zr 1.00192 0.53942 0.54418
 O216 O 1.00061 0.54659 0.60775
 O217 O 1.00340 0.58197 0.53068
 Zr218 Zr 1.00137 0.47075 0.55849
 O219 O 1.00070 0.47980 0.62150
 O220 O 1.00298 0.42788 0.56957
 O221 O 1.02145 0.50559 0.55866
 O222 O 0.98235 0.50590 0.55931
 O223 O 0.96984 0.54372 0.42035
 O224 O 0.94582 0.52198 0.46376
 C225 C 0.95012 0.53857 0.43381
 O226 O 1.03115 0.44575 0.43573
 O227 O 1.05595 0.47391 0.46861
 C228 C 1.05117 0.45366 0.44426
 O229 O 0.96935 0.44322 0.44311
 O230 O 0.94535 0.47334 0.47323
 C231 C 0.94963 0.45124 0.45250
 O232 O 1.03130 0.53925 0.41491
 O233 O 1.05594 0.51929 0.45893
 C234 C 1.05125 0.53371 0.42683
 Zr235 Zr 1.00072 0.52992 0.44267
 O236 O 0.99911 0.52790 0.37835
 O237 O 1.00201 0.57344 0.44121
 Zr238 Zr 1.00035 0.46103 0.45660
 O239 O 0.99735 0.45469 0.39293
 O240 O 1.00143 0.41818 0.46797
 Zr241 Zr 1.03401 0.49990 0.49950
 Zr242 Zr 0.96805 0.50044 0.50137
 O243 O 0.98114 0.49485 0.44269
 O244 O 1.02004 0.49455 0.44101
 O245 O 0.98164 0.54006 0.49292
 O246 O 1.02000 0.46065 0.50804
 O247 O 1.02079 0.53947 0.49182
 O248 O 0.98124 0.46072 0.50911
 H249 H 0.97252 0.50813 0.58315
 H250 H 1.02974 0.44444 0.51103
 H251 H 0.97078 0.49260 0.41948
 H252 H 1.03105 0.55525 0.48833
 H253 H 0.99544 0.41871 0.54641
 H254 H 1.00114 0.40906 0.44092
 H255 H 1.00975 0.46453 0.37976
 H256 H 0.99683 0.50833 0.37115
 H257 H 1.00253 0.57857 0.41201
 H258 H 1.00382 0.59163 0.55731
 H259 H 1.00952 0.53203 0.62089
 H260 H 1.00071 0.46178 0.63567
 O261 O 0.53011 0.05286 0.56936
 O262 O 0.55420 0.02528 0.53451
 C263 C 0.54992 0.04492 0.56017
 O264 O 0.46724 -0.04528 0.57625
 O265 O 0.44327 -0.02075 0.53629
 C266 C 0.44748 -0.03880 0.56442
 O267 O 0.52861 -0.04269 0.58162
 O268 O 0.55366 -0.02143 0.53974
 C269 C 0.54865 -0.03732 0.57020
 O270 O 0.46866 0.05667 0.56212
 O271 O 0.44390 0.02806 0.52981
 C272 C 0.44872 0.04935 0.55220
 Zr273 Zr 0.49923 0.03865 0.54704
 O274 O 0.49790 0.04002 0.61145
 O275 O 0.50090 0.08181 0.53818
 Zr276 Zr 0.49818 -0.03010 0.55665
 O277 O 0.49703 -0.02172 0.61984
 O278 O 0.49914 -0.07315 0.56629
 O279 O 0.51852 0.00441 0.56008
 O280 O 0.47916 0.00501 0.55871
 O281 O 0.46907 0.04691 0.42183
 O282 O 0.44429 0.02408 0.46251
 C283 C 0.44913 0.04143 0.43382
 O284 O 0.52943 -0.05226 0.43378
 O285 O 0.55384 -0.02528 0.46952
 C286 C 0.54934 -0.04483 0.44381
 O287 O 0.46775 -0.05306 0.43574
 O288 O 0.44346 -0.02456 0.46846
 C289 C 0.44793 -0.04513 0.44464
 O290 O 0.53056 0.04207 0.41934
 O291 O 0.55456 0.02107 0.46356
 C292 C 0.55032 0.03622 0.43196
 Zr293 Zr 0.49955 0.03233 0.44495
 O294 O 0.49894 0.03256 0.38051
 O295 O 0.50098 0.07583 0.44680
 Zr296 Zr 0.49863 -0.03692 0.45417
 O297 O 0.49705 -0.04168 0.39004
 O298 O 0.49877 -0.07998 0.46377
 Zr299 Zr 0.53191 0.00036 0.50128
 Zr300 Zr 0.46583 0.00130 0.49981
 O301 O 0.47987 -0.00250 0.44156
 O302 O 0.51875 -0.00311 0.44186
 O303 O 0.47976 0.04099 0.49480
 O304 O 0.51749 -0.03894 0.50653
 O305 O 0.51887 0.04016 0.49566
 O306 O 0.47871 -0.03871 0.50562
 H307 H 0.46891 0.00664 0.58205
 H308 H 0.52702 -0.05539 0.50894
 H309 H 0.47002 -0.00377 0.41747
 H310 H 0.52914 0.05604 0.49365
 H311 H 0.49259 -0.08181 0.54173
 H312 H 0.49884 -0.08855 0.43633
 H313 H 0.50927 -0.03072 0.37825
 H314 H 0.49674 0.01328 0.37172
 H315 H 0.50208 0.08193 0.41807
 H316 H 0.50115 0.09042 0.56557
 H317 H 0.49756 0.05973 0.61927
 H318 H 0.49642 -0.03990 0.63351
 O319 O 0.53260 0.55419 0.06891
 O320 O 0.55672 0.52620 0.03489
 C321 C 0.55242 0.54618 0.05992
 O322 O 0.47008 0.45562 0.07968
 O323 O 0.44598 0.47960 0.03924
 C324 C 0.45027 0.46186 0.06774
 O325 O 0.53146 0.45895 0.08482
 O326 O 0.55638 0.47965 0.04205
 C327 C 0.55146 0.46422 0.07308
 O328 O 0.47113 0.55747 0.06187
 O329 O 0.44638 0.52820 0.03082
 C330 C 0.45120 0.54984 0.05244
 Zr331 Zr 0.50173 0.53944 0.04724
 O332 O 0.50051 0.54200 0.11159
 O333 O 0.50321 0.58243 0.03668
 Zr334 Zr 0.50097 0.47091 0.05960
 O335 O 0.49984 0.48042 0.12243
 O336 O 0.50214 0.42806 0.07091
 O337 O 0.52118 0.50559 0.06151
 O338 O 0.48181 0.50591 0.06039
 O339 O 0.47122 0.54529 -0.07803
 O340 O 0.44665 0.52301 -0.03629
 C341 C 0.45134 0.53995 -0.06559
 O342 O 0.53202 0.44710 -0.06309
 O343 O 0.55646 0.47461 -0.02833
 C344 C 0.55193 0.45478 -0.05357
 O345 O 0.47059 0.44477 -0.05824
 O346 O 0.44607 0.47407 -0.02793
 C347 C 0.45071 0.45235 -0.04931
 O348 O 0.53281 0.54093 -0.08058
 O349 O 0.55701 0.52077 -0.03585
 C350 C 0.55263 0.53540 -0.06793
 Zr351 Zr 0.50183 0.53129 -0.05461
 O352 O 0.50149 0.53022 -0.11907
 O353 O 0.50299 0.57483 -0.05458
 Zr354 Zr 0.50129 0.46233 -0.04258
 O355 O 0.49921 0.45687 -0.10653
 O356 O 0.50216 0.41937 -0.03203
 Zr357 Zr 0.53449 0.50060 0.00280
 Zr358 Zr 0.46837 0.50106 0.00174
 O359 O 0.48223 0.49625 -0.05644
 O360 O 0.52122 0.49601 -0.05636
 O361 O 0.48213 0.54073 -0.00493
 O362 O 0.52026 0.46132 0.00969
 O363 O 0.52123 0.54018 -0.00433
 O364 O 0.48153 0.46132 0.00908
 H365 H 0.47160 0.50785 0.08373
 H366 H 0.52990 0.44501 0.01255
 H367 H 0.47213 0.49424 -0.08007
 H368 H 0.53142 0.55609 -0.00698
 H369 H 0.49606 0.41891 0.04632
 H370 H 0.50211 0.41048 -0.05925
 H371 H 0.51110 0.46810 -0.11889
 H372 H 0.49658 0.51157 -0.12720
 H373 H 0.50404 0.58039 -0.08356
 H374 H 0.50349 0.59154 0.06371
 H375 H 0.50012 0.56184 0.11862
 H376 H 0.49926 0.46249 0.13680
 C377 C 1.17964 0.14673 0.17716
 C378 C 1.20143 0.13949 0.16750
 C379 C 1.21925 0.15430 0.18378
 C380 C 1.21574 0.17674 0.21006
 C381 C 1.19397 0.18408 0.21956
 C382 C 1.17615 0.16925 0.20336
 C383 C 1.16070 0.13089 0.16012
 N384 N 1.13966 0.13751 0.17008
 N385 N 1.12267 0.12335 0.15478
 C386 C 1.12594 0.10193 0.12882
 N387 N 1.14698 0.09529 0.11887
 N388 N 1.16398 0.10945 0.13420
 C389 C 1.10695 0.08636 0.11144
 C390 C 1.11028 0.06472 0.08361
 C391 C 1.09235 0.05047 0.06664
 C392 C 1.07062 0.05750 0.07709
 C393 C 1.06731 0.07894 0.10525
 C394 C 1.08523 0.09318 0.12218
 H395 H 1.20477 0.12234 0.14735
 H396 H 1.23581 0.14833 0.17547
 H397 H 1.19071 0.20104 0.24011
 H398 H 1.15961 0.17542 0.21154
 H399 H 1.12677 0.05886 0.07465
 H400 H 1.09555 0.03408 0.04506
 H401 H 1.05082 0.08493 0.11404
 H402 H 1.08200 0.10967 0.14356
 C403 C 1.18081 0.64623 0.67967
 C404 C 1.17725 0.66810 0.70699
 C405 C 1.19503 0.68242 0.72422
 C406 C 1.21682 0.67524 0.71460
 C407 C 1.22041 0.65333 0.68740
 C408 C 1.20262 0.63900 0.67011
 C409 C 1.16188 0.63114 0.66126
 N410 N 1.16516 0.61003 0.63477
 N411 N 1.14813 0.59658 0.61821
 C412 C 1.12709 0.60366 0.62743
 N413 N 1.12383 0.62476 0.65393
 N414 N 1.14084 0.63820 0.67047
 C415 C 1.10808 0.58876 0.60897
 C416 C 1.08636 0.59628 0.61865
 C417 C 1.06842 0.58236 0.60126
 C418 C 1.07173 0.56057 0.57372
 C419 C 1.09345 0.55301 0.56404
 C420 C 1.11140 0.56694 0.58146
 H421 H 1.16071 0.67419 0.71518
 H422 H 1.19172 0.69895 0.74550
 H423 H 1.23699 0.64751 0.67902
 H424 H 1.20599 0.62232 0.64914
 H425 H 1.08316 0.61296 0.63971
 H426 H 1.05194 0.58875 0.60943
 H427 H 1.09663 0.53633 0.54294
 H428 H 1.12789 0.56059 0.57328
 C429 C 0.67746 0.14832 0.68170
 C430 C 0.69921 0.14016 0.67357
 C431 C 0.71708 0.15474 0.68999
 C432 C 0.71368 0.17788 0.71495
 C433 C 0.69195 0.18618 0.72293
 C434 C 0.67405 0.17155 0.70656
 C435 C 0.65850 0.13268 0.66435
 N436 N 0.63743 0.14007 0.67277
 N437 N 0.62045 0.12603 0.65712
 C438 C 0.62379 0.10398 0.63236
 N439 N 0.64487 0.09659 0.62397
 N440 N 0.66184 0.11062 0.63963
 C441 C 0.60488 0.08848 0.61458
 C442 C 0.60842 0.06623 0.58791
 C443 C 0.59062 0.05195 0.57059
 C444 C 0.56881 0.05953 0.57953
 C445 C 0.56528 0.08160 0.60650
 C446 C 0.58308 0.09590 0.62379
 H447 H 0.70250 0.12245 0.65446
 H448 H 0.73362 0.14806 0.68277
 H449 H 0.68879 0.20375 0.74238
 H450 H 0.65754 0.17844 0.71351
 H451 H 0.62497 0.05991 0.58013
 H452 H 0.59399 0.03507 0.54996
 H453 H 0.54872 0.08803 0.61410
 H454 H 0.57971 0.11287 0.64425
 C455 C 0.68002 0.64855 0.18301
 C456 C 0.70180 0.64126 0.17341
 C457 C 0.71963 0.65565 0.19040
 C458 C 0.71613 0.67770 0.21739
 C459 C 0.69436 0.68506 0.22692
 C460 C 0.67653 0.67066 0.20996
 C461 C 0.66108 0.63319 0.16508
 N462 N 0.64001 0.64018 0.17428
 N463 N 0.62303 0.62641 0.15818
 C464 C 0.62635 0.60503 0.13218
 N465 N 0.64742 0.59804 0.12299
 N466 N 0.66440 0.61181 0.13909
 C467 C 0.60742 0.58976 0.11408
 C468 C 0.61093 0.56773 0.08702
 C469 C 0.59311 0.55352 0.06967
 C470 C 0.57132 0.56097 0.07894
 C471 C 0.56780 0.58290 0.10615
 C472 C 0.58563 0.59711 0.12350
 H473 H 0.70513 0.62443 0.15268
 H474 H 0.73619 0.64971 0.18203
 H475 H 0.69111 0.70172 0.24800
 H476 H 0.65999 0.67682 0.21813
 H477 H 0.62747 0.56146 0.07906
 H478 H 0.59646 0.53674 0.04884
 H479 H 0.55126 0.58922 0.11400
 H480 H 0.58229 0.61394 0.14423
 C481 C 0.82332 -0.14277 0.19158
 C482 C 0.80135 -0.13505 0.18417
 C483 C 0.78389 -0.14994 0.20128
 C484 C 0.78796 -0.17296 0.22613
 C485 C 0.80990 -0.18067 0.23362
 C486 C 0.82737 -0.16573 0.21663
 C487 C 0.84187 -0.12710 0.17314
 N488 N 0.86310 -0.13373 0.18177
 N489 N 0.87975 -0.11981 0.16506
 C490 C 0.87592 -0.09865 0.13893
 N491 N 0.85468 -0.09199 0.13030
 N492 N 0.83802 -0.10590 0.14706
 C493 C 0.89453 -0.08333 0.12005
 C494 C 0.89066 -0.06249 0.09117
 C495 C 0.90826 -0.04840 0.07302
 C496 C 0.93016 -0.05480 0.08336
 C497 C 0.93401 -0.07550 0.11247
 C498 C 0.91643 -0.08959 0.13054
 H499 H 0.79759 -0.11753 0.16500
 H500 H 0.76717 -0.14371 0.19448
 H501 H 0.81356 -0.19814 0.25297
 H502 H 0.84406 -0.17226 0.22307
 H503 H 0.87401 -0.05712 0.08232
 H504 H 0.90466 -0.03259 0.05072
 H505 H 0.95064 -0.08101 0.12120
 H506 H 0.92007 -0.10546 0.15270
 C507 C 0.82421 0.35715 0.68878
 C508 C 0.80290 0.36826 0.68867
 C509 C 0.78508 0.35330 0.70421
 C510 C 0.78788 0.32649 0.72024
 C511 C 0.80940 0.31541 0.71988
 C512 C 0.82724 0.33056 0.70461
 C513 C 0.84308 0.37322 0.67232
 N514 N 0.86411 0.36412 0.67670
 N515 N 0.88100 0.37855 0.66178
 C516 C 0.87761 0.40268 0.64176
 N517 N 0.85659 0.41176 0.63740
 N518 N 0.83971 0.39738 0.65242
 C519 C 0.89637 0.41853 0.62447
 C520 C 0.89260 0.44120 0.59875
 C521 C 0.91024 0.45556 0.58131
 C522 C 0.93211 0.44774 0.58938
 C523 C 0.93590 0.42540 0.61573
 C524 C 0.91825 0.41092 0.63295
 H525 H 0.79990 0.38862 0.67642
 H526 H 0.76898 0.36262 0.70186
 H527 H 0.81288 0.29544 0.73291
 H528 H 0.84346 0.32138 0.70533
 H529 H 0.87598 0.44766 0.59153
 H530 H 0.90669 0.47268 0.56120
 H531 H 0.95252 0.41875 0.62253
 H532 H 0.92177 0.39364 0.65275
 C533 C 0.32230 -0.14367 0.68878
 C534 C 0.30027 -0.13646 0.68091
 C535 C 0.28295 -0.15172 0.69774
 C536 C 0.28724 -0.17461 0.72272
 C537 C 0.30923 -0.18187 0.73055
 C538 C 0.32656 -0.16655 0.71385
 C539 C 0.34071 -0.12751 0.67088
 N540 N 0.36196 -0.13354 0.68028
 N541 N 0.37851 -0.11915 0.66413
 C542 C 0.37456 -0.09812 0.63785
 N543 N 0.35330 -0.09207 0.62844
 N544 N 0.33673 -0.10645 0.64463
 C545 C 0.39309 -0.08235 0.61963
 C546 C 0.38922 -0.06176 0.59034
 C547 C 0.40681 -0.04738 0.57269
 C548 C 0.42868 -0.05323 0.58398
 C549 C 0.43250 -0.07362 0.61358
 C550 C 0.41494 -0.08799 0.63113
 H551 H 0.29636 -0.11901 0.66170
 H552 H 0.26617 -0.14585 0.69072
 H553 H 0.31304 -0.19924 0.75000
 H554 H 0.34331 -0.17270 0.72060
 H555 H 0.37260 -0.05687 0.58075
 H556 H 0.40326 -0.03181 0.55000
 H557 H 0.44910 -0.07871 0.62305
 H558 H 0.41857 -0.10364 0.65365
 C559 C 0.32349 0.35707 0.18721
 C560 C 0.30212 0.36800 0.18716
 C561 C 0.28441 0.35293 0.20299
 C562 C 0.28740 0.32620 0.21917
 C563 C 0.30900 0.31537 0.21888
 C564 C 0.32671 0.33061 0.20337
 C565 C 0.34229 0.37314 0.17041
 N566 N 0.36334 0.36427 0.17518
 N567 N 0.38019 0.37863 0.16000
 C568 C 0.37674 0.40246 0.13926
 N569 N 0.35568 0.41133 0.13446
 N570 N 0.33883 0.39701 0.14977
 C571 C 0.39552 0.41824 0.12189
 C572 C 0.39185 0.44051 0.09535
 C573 C 0.40958 0.45487 0.07815
 C574 C 0.43143 0.44744 0.08730
 C575 C 0.43509 0.42543 0.11431
 C576 C 0.41736 0.41097 0.13128
 H577 H 0.29899 0.38827 0.17471
 H578 H 0.26824 0.36208 0.20071
 H579 H 0.31265 0.29550 0.23212
 H580 H 0.34299 0.32157 0.20411
 H581 H 0.37526 0.44667 0.08739
 H582 H 0.40614 0.47171 0.05747
 H583 H 0.45167 0.41907 0.12196
 H584 H 0.42082 0.39400 0.15170
 C585 C 0.82385 0.14716 -0.18516
 C586 C 0.80197 0.13920 -0.17716
 C587 C 0.78434 0.15404 -0.19345
 C588 C 0.78813 0.17727 -0.21806
 C589 C 0.80998 0.18538 -0.22588
 C590 C 0.82764 0.17046 -0.20970
 C591 C 0.84253 0.13122 -0.16797
 N592 N 0.86372 0.13777 -0.17738
 N593 N 0.88044 0.12342 -0.16191
 C594 C 0.87672 0.10189 -0.13632
 N595 N 0.85554 0.09535 -0.12692
 N596 N 0.83883 0.10967 -0.14242
 C597 C 0.89533 0.08601 -0.11876
 C598 C 0.89144 0.06499 -0.09016
 C599 C 0.90897 0.05036 -0.07303
 C600 C 0.93085 0.05632 -0.08415
 C601 C 0.93474 0.07716 -0.11305
 C602 C 0.91720 0.09184 -0.13011
 H603 H 0.79840 0.12143 -0.15832
 H604 H 0.76769 0.14751 -0.18638
 H605 H 0.81341 0.20304 -0.24502
 H606 H 0.84427 0.17719 -0.21650
 H607 H 0.87484 0.05993 -0.08066
 H608 H 0.90534 0.03450 -0.05081
 H609 H 0.95136 0.08235 -0.12229
 H610 H 0.92082 0.10785 -0.15209
 C611 C 0.82649 0.64705 0.31393
 C612 C 0.82025 0.67197 0.33215
 C613 C 0.80266 0.68725 0.31643
 C614 C 0.79032 0.67761 0.28263
 C615 C 0.79680 0.65247 0.26455
 C616 C 0.81477 0.63765 0.27968
 C617 C 0.84488 0.63072 0.33102
 N618 N 0.85696 0.61382 0.30686
 N619 N 0.87341 0.59898 0.32240
 C620 C 0.87826 0.60019 0.36284
 N621 N 0.86612 0.61700 0.38700
 N622 N 0.84984 0.63206 0.37139
 C623 C 0.89637 0.58357 0.38034
 C624 C 0.89563 0.57522 0.42131
 C625 C 0.91283 0.55987 0.43819
 C626 C 0.93138 0.55312 0.41474
 C627 C 0.93216 0.56148 0.37378
 C628 C 0.91467 0.57625 0.35658
 H629 H 0.82901 0.67973 0.35863
 H630 H 0.79817 0.70591 0.33234
 H631 H 0.78854 0.64451 0.23769
 H632 H 0.81927 0.61853 0.26492
 H633 H 0.88170 0.58045 0.44030
 H634 H 0.91188 0.55392 0.46996
 H635 H 0.94628 0.55655 0.35507
 H636 H 0.91569 0.58250 0.32495
 C637 C 0.32586 0.14786 0.30901
 C638 C 0.31936 0.17292 0.32644
 C639 C 0.30179 0.18781 0.30997
 C640 C 0.28972 0.17767 0.27616
 C641 C 0.29640 0.15234 0.25894
 C642 C 0.31438 0.13789 0.27483
 C643 C 0.34428 0.13200 0.32688
 N644 N 0.35679 0.11519 0.30334
 N645 N 0.37330 0.10084 0.31961
 C646 C 0.37778 0.10245 0.36016
 N647 N 0.36521 0.11916 0.38369
 N648 N 0.34887 0.13375 0.36736
 C649 C 0.39590 0.08629 0.37848
 C650 C 0.39472 0.07788 0.41938
 C651 C 0.41182 0.06273 0.43693
 C652 C 0.43071 0.05627 0.41426
 C653 C 0.43200 0.06482 0.37344
 C654 C 0.41460 0.07937 0.35553
 H655 H 0.32793 0.18109 0.35287
 H656 H 0.29709 0.20663 0.32530
 H657 H 0.28832 0.14397 0.23217
 H658 H 0.31909 0.11862 0.26070
 H659 H 0.38047 0.08283 0.43773
 H660 H 0.41049 0.05660 0.46858
 H661 H 0.44639 0.06008 0.35533
 H662 H 0.41597 0.08571 0.32399
 C663 C 0.32749 0.64655 -0.18827
 C664 C 0.32090 0.67138 -0.17023
 C665 C 0.30315 0.68624 -0.18612
 C666 C 0.29100 0.67629 -0.21995
 C667 C 0.29781 0.65123 -0.23783
 C668 C 0.31595 0.63681 -0.22252
 C669 C 0.34604 0.63065 -0.17088
 N670 N 0.35847 0.61398 -0.19479
 N671 N 0.37505 0.59955 -0.17891
 C672 C 0.37969 0.60094 -0.13840
 N673 N 0.36720 0.61753 -0.11451
 N674 N 0.35080 0.63219 -0.13045
 C675 C 0.39785 0.58466 -0.12044
 C676 C 0.39681 0.57619 -0.07956
 C677 C 0.41397 0.56104 -0.06223
 C678 C 0.43279 0.55460 -0.08512
 C679 C 0.43392 0.56314 -0.12597
 C680 C 0.41646 0.57771 -0.14365
 H681 H 0.32952 0.67938 -0.14374
 H682 H 0.29839 0.70484 -0.17031
 H683 H 0.28968 0.64303 -0.26467
 H684 H 0.32072 0.61774 -0.23713
 H685 H 0.38264 0.58114 -0.06100
 H686 H 0.41276 0.55494 -0.03055
 H687 H 0.44826 0.55843 -0.14424
 H688 H 0.41771 0.58408 -0.17519
 C689 C 1.17684 -0.14950 -0.17721
 C690 C 1.17359 -0.17299 -0.20174
 C691 C 1.19162 -0.18724 -0.21778
 C692 C 1.21327 -0.17826 -0.20978
 C693 C 1.21650 -0.15496 -0.18497
 C694 C 1.19854 -0.14078 -0.16888
 C695 C 1.15783 -0.13402 -0.16050
 N696 N 1.16117 -0.11170 -0.13621
 N697 N 1.14421 -0.09765 -0.12125
 C698 C 1.12314 -0.10527 -0.12994
 N699 N 1.11977 -0.12761 -0.15426
 N700 N 1.13675 -0.14168 -0.16922
 C701 C 1.10431 -0.08960 -0.11292
 C702 C 1.08242 -0.09698 -0.12237
 C703 C 1.06476 -0.08237 -0.10570
 C704 C 1.06857 -0.06007 -0.07913
 C705 C 1.09047 -0.05257 -0.07000
 C706 C 1.10808 -0.06712 -0.08669
 H707 H 1.15713 -0.18032 -0.20878
 H708 H 1.18860 -0.20499 -0.23708
 H709 H 1.23298 -0.14778 -0.17770
 H710 H 1.20171 -0.12288 -0.14998
 H711 H 1.07889 -0.11414 -0.14252
 H712 H 1.04812 -0.08873 -0.11337
 H713 H 1.09407 -0.03551 -0.04969
 H714 H 1.12469 -0.06080 -0.07873
 C715 C 1.17742 0.35169 0.32001
 C716 C 1.17393 0.32891 0.29415
 C717 C 1.19178 0.31499 0.27690
 C718 C 1.21353 0.32357 0.28501
 C719 C 1.21701 0.34622 0.31101
 C720 C 1.19920 0.36010 0.32828
 C721 C 1.15855 0.36665 0.33827
 N722 N 1.16207 0.38849 0.36345
 N723 N 1.14522 0.40202 0.37982
 C724 C 1.12409 0.39434 0.37175
 N725 N 1.12055 0.37249 0.34657
 N726 N 1.13741 0.35894 0.33018
 C727 C 1.10535 0.40951 0.39010
 C728 C 1.08343 0.40182 0.38158
 C729 C 1.06584 0.41614 0.39902
 C730 C 1.06975 0.43850 0.42542
 C731 C 1.09168 0.44621 0.43387
 C732 C 1.10923 0.43191 0.41644
 H733 H 1.15739 0.32186 0.28708
 H734 H 1.18857 0.29774 0.25674
 H735 H 1.23357 0.35305 0.31844
 H736 H 1.20256 0.37744 0.34818
 H737 H 1.07981 0.38469 0.36142
 H738 H 1.04918 0.40962 0.39182
 H739 H 1.09535 0.46331 0.45405
 H740 H 1.12588 0.43845 0.42374
 C741 C 0.67713 -0.14736 0.32588
 C742 C 0.67396 -0.17078 0.30116
 C743 C 0.69202 -0.18489 0.28500
 C744 C 0.71366 -0.17587 0.29304
 C745 C 0.71683 -0.15256 0.31789
 C746 C 0.69881 -0.13850 0.33411
 C747 C 0.65804 -0.13219 0.34296
 N748 N 0.66123 -0.11002 0.36765
 N749 N 0.64418 -0.09633 0.38298
 C750 C 0.62315 -0.10415 0.37428
 N751 N 0.61993 -0.12632 0.34956
 N752 N 0.63700 -0.14004 0.33424
 C753 C 0.60418 -0.08884 0.39159
 C754 C 0.58236 -0.09638 0.38187
 C755 C 0.56456 -0.08203 0.39853
 C756 C 0.56814 -0.05981 0.42537
 C757 C 0.58997 -0.05223 0.43492
 C758 C 0.60773 -0.06653 0.41824
 H759 H 0.65752 -0.17819 0.29415
 H760 H 0.68903 -0.20261 0.26564
 H761 H 0.73329 -0.14532 0.32517
 H762 H 0.70193 -0.12064 0.35312
 H763 H 0.57899 -0.11342 0.36143
 H764 H 0.54798 -0.08846 0.39051
 H765 H 0.59340 -0.03523 0.45545
 H766 H 0.62428 -0.06011 0.42644
 C767 C 0.67813 0.35349 -0.17889
 C768 C 0.67446 0.33091 -0.20503
 C769 C 0.69220 0.31683 -0.22236
 C770 C 0.71401 0.32505 -0.21405
 C771 C 0.71767 0.34756 -0.18785
 C772 C 0.69997 0.36160 -0.17049
 C773 C 0.65936 0.36850 -0.16044
 N774 N 0.66296 0.39006 -0.13477
 N775 N 0.64616 0.40357 -0.11818
 C776 C 0.62500 0.39612 -0.12653
 N777 N 0.62139 0.37456 -0.15220
 N778 N 0.63820 0.36104 -0.16879
 C779 C 0.60628 0.41118 -0.10797
 C780 C 0.58438 0.40371 -0.11706
 C781 C 0.56677 0.41786 -0.09950
 C782 C 0.57061 0.43984 -0.07238
 C783 C 0.59251 0.44734 -0.06331
 C784 C 0.61012 0.43320 -0.08089
 H785 H 0.65788 0.32409 -0.21222
 H786 H 0.68885 0.29971 -0.24270
 H787 H 0.73428 0.35412 -0.18031
 H788 H 0.70345 0.37881 -0.15040
 H789 H 0.58079 0.38688 -0.13778
 H790 H 0.55013 0.41150 -0.10719
 H791 H 0.59611 0.46416 -0.04257
 H792 H 0.62675 0.43955 -0.07316
 C793 C 1.16001 0.16436 -0.18797
 C794 C 1.18159 0.15945 -0.20094
 C795 C 1.19473 0.18116 -0.21533
 C796 C 1.18671 0.20855 -0.21642
 C797 C 1.16515 0.21307 -0.20162
 C798 C 1.15201 0.19134 -0.18823
 C799 C 1.14537 0.14174 -0.17486
 N800 N 1.12334 0.14381 -0.18104
 N801 N 1.10970 0.12426 -0.16797
 C802 C 1.11747 0.10188 -0.14788
 N803 N 1.13957 0.09966 -0.14176
 N804 N 1.15330 0.11917 -0.15526
 C805 C 1.10172 0.08152 -0.13123
 C806 C 1.10696 0.06542 -0.09697
 C807 C 1.09061 0.04958 -0.07782
 C808 C 1.06886 0.04957 -0.09285
 C809 C 1.06415 0.06425 -0.12871
 C810 C 1.08034 0.08006 -0.14756
 H811 H 1.18806 0.13869 -0.20123
 H812 H 1.21077 0.17588 -0.22711
 H813 H 1.15829 0.23348 -0.19882
 H814 H 1.13556 0.19578 -0.17736
 H815 H 1.12334 0.06617 -0.08376
 H816 H 1.09477 0.03839 -0.05031
 H817 H 1.04768 0.06436 -0.14158
 H818 H 1.07590 0.09189 -0.17432
 C819 C 1.16484 0.64806 0.29162
 C820 C 1.18509 0.65451 0.31036
 C821 C 1.19747 0.67735 0.29755
 C822 C 1.18962 0.69471 0.26620
 C823 C 1.16981 0.68714 0.24633
 C824 C 1.15771 0.66421 0.25874
 C825 C 1.15031 0.62600 0.30769
 N826 N 1.13109 0.61977 0.28838
 N827 N 1.11680 0.60209 0.30461
 C828 C 1.12108 0.58981 0.34091
 N829 N 1.14053 0.59554 0.35989
 N830 N 1.15486 0.61327 0.34361
 C831 C 1.10400 0.57260 0.36086
 C832 C 1.10815 0.55973 0.39847
 C833 C 1.09120 0.54615 0.41926
 C834 C 1.06973 0.54535 0.40298
 C835 C 1.06582 0.55722 0.36463
 C836 C 1.08277 0.57058 0.34375
 H837 H 1.19110 0.64237 0.33571
 H838 H 1.21240 0.68223 0.31422
 H839 H 1.16361 0.69866 0.22052
 H840 H 1.14239 0.65963 0.24305
 H841 H 1.12434 0.56079 0.41241
 H842 H 1.09476 0.53715 0.44874
 H843 H 1.04952 0.55673 0.35106
 H844 H 1.07898 0.58013 0.31476
 C845 C 0.66480 0.15132 0.30048
 C846 C 0.68297 0.16095 0.32323
 C847 C 0.69541 0.18342 0.30954
 C848 C 0.68987 0.19672 0.27294
 C849 C 0.67226 0.18645 0.24946
 C850 C 0.65989 0.16398 0.26302
 C851 C 0.65009 0.12956 0.31679
 N852 N 0.63173 0.12183 0.29585
 N853 N 0.61737 0.10414 0.31189
 C854 C 0.62074 0.09337 0.34956
 N855 N 0.63933 0.10065 0.37023
 N856 N 0.65371 0.11839 0.35418
 C857 C 0.60359 0.07602 0.36890
 C858 C 0.60719 0.06388 0.40724
 C859 C 0.59010 0.05000 0.42720
 C860 C 0.56904 0.04824 0.40934
 C861 C 0.56571 0.05944 0.37037
 C862 C 0.58280 0.07305 0.35030
 H863 H 0.68723 0.15165 0.35218
 H864 H 0.70887 0.19101 0.32828
 H865 H 0.66790 0.19603 0.22075
 H866 H 0.64613 0.15702 0.24454
 H867 H 0.62304 0.06568 0.42232
 H868 H 0.59317 0.04154 0.45722
 H869 H 0.54973 0.05817 0.35561
 H870 H 0.57945 0.08205 0.32074
 C871 C 0.66570 0.64976 -0.20492
 C872 C 0.68617 0.65645 -0.18725
 C873 C 0.69834 0.67917 -0.20120
 C874 C 0.69003 0.69619 -0.23255
 C875 C 0.66995 0.68842 -0.25124
 C876 C 0.65808 0.66558 -0.23778
 C877 C 0.65146 0.62773 -0.18791
 N878 N 0.63258 0.62036 -0.20746
 N879 N 0.61847 0.60272 -0.19060
 C880 C 0.62258 0.59166 -0.15339
 N881 N 0.64172 0.59853 -0.13412
 N882 N 0.65589 0.61620 -0.15104
 C883 C 0.60560 0.57450 -0.13306
 C884 C 0.60939 0.56298 -0.09436
 C885 C 0.59240 0.54934 -0.07366
 C886 C 0.57126 0.54719 -0.09115
 C887 C 0.56775 0.55777 -0.13044
 C888 C 0.58472 0.57114 -0.15120
 H889 H 0.69255 0.64456 -0.16195
 H890 H 0.71352 0.68424 -0.18543
 H891 H 0.66335 0.69971 -0.27695
 H892 H 0.64254 0.66084 -0.25260
 H893 H 0.62530 0.56511 -0.07958
 H894 H 0.59562 0.54136 -0.04340
 H895 H 0.55173 0.55619 -0.14494
 H896 H 0.58119 0.57961 -0.18103
 C897 C 0.83004 -0.15740 -0.18865
 C898 C 0.83297 -0.16540 -0.22947
 C899 C 0.82013 -0.18636 -0.24647
 C900 C 0.80399 -0.19981 -0.22319
 C901 C 0.80012 -0.19090 -0.18311
 C902 C 0.81309 -0.16988 -0.16591
 C903 C 0.84573 -0.13768 -0.16962
 N904 N 0.84332 -0.12911 -0.13041
 N905 N 0.85854 -0.11306 -0.11278
 C906 C 0.87682 -0.10510 -0.13363
 N907 N 0.87902 -0.11337 -0.17291
 N908 N 0.86382 -0.12926 -0.19051
 C909 C 0.89470 -0.08908 -0.11375
 C910 C 0.91574 -0.08847 -0.13145
 C911 C 0.93305 -0.07434 -0.11267
 C912 C 0.92971 -0.06012 -0.07596
 C913 C 0.90861 -0.06028 -0.05837
 C914 C 0.89127 -0.07487 -0.07694
 H915 H 0.84565 -0.15604 -0.24811
 H916 H 0.82314 -0.19250 -0.27771
 H917 H 0.78776 -0.20099 -0.16456
 H918 H 0.81035 -0.16414 -0.13444
 H919 H 0.91901 -0.09929 -0.15966
 H920 H 0.94906 -0.07442 -0.12715
 H921 H 0.90561 -0.04951 -0.03001
 H922 H 0.87522 -0.07496 -0.06260
 C923 C 0.83140 0.32496 0.35292
 C924 C 0.83521 0.29644 0.35496
 C925 C 0.82239 0.27811 0.33226
 C926 C 0.80539 0.28780 0.30707
 C927 C 0.80064 0.31609 0.30670
 C928 C 0.81359 0.33456 0.32939
 C929 C 0.84711 0.34431 0.37261
 N930 N 0.84380 0.37200 0.37209
 N931 N 0.85905 0.38925 0.38685
 C932 C 0.87827 0.37946 0.40244
 N933 N 0.88137 0.35182 0.40350
 N934 N 0.86613 0.33463 0.38895
 C935 C 0.89614 0.39824 0.41581
 C936 C 0.91782 0.38835 0.41829
 C937 C 0.93506 0.40575 0.42970
 C938 C 0.93108 0.43344 0.43949
 C939 C 0.90938 0.44341 0.43753
 C940 C 0.89206 0.42599 0.42538
 H941 H 0.84858 0.28824 0.37315
 H942 H 0.82608 0.25631 0.33367
 H943 H 0.78758 0.32401 0.28747
 H944 H 0.81017 0.35639 0.32726
 H945 H 0.92157 0.36714 0.41088
 H946 H 0.95155 0.39735 0.43130
 H947 H 0.90584 0.46467 0.44500
 H948 H 0.87550 0.43415 0.42378
 C949 C 0.32997 -0.15864 0.31408
 C950 C 0.33282 -0.16677 0.27331
 C951 C 0.31996 -0.18778 0.25655
 C952 C 0.30387 -0.20117 0.28004
 C953 C 0.30006 -0.19211 0.32006
 C954 C 0.31305 -0.17103 0.33702
 C955 C 0.34572 -0.13888 0.33286
 N956 N 0.34317 -0.12979 0.37178
 N957 N 0.35840 -0.11365 0.38920
 C958 C 0.37682 -0.10611 0.36844
 N959 N 0.37917 -0.11493 0.32944
 N960 N 0.36396 -0.13091 0.31205
 C961 C 0.39463 -0.08987 0.38810
 C962 C 0.41578 -0.08960 0.37082
 C963 C 0.43299 -0.07516 0.38942
 C964 C 0.42943 -0.06028 0.42549
 C965 C 0.40823 -0.06015 0.44266
 C966 C 0.39100 -0.07505 0.42430
 H967 H 0.34547 -0.15747 0.25452
 H968 H 0.32292 -0.19403 0.22534
 H969 H 0.28772 -0.20214 0.33875
 H970 H 0.31038 -0.16517 0.36846
 H971 H 0.41920 -0.10091 0.34310
 H972 H 0.44910 -0.07549 0.37529
 H973 H 0.40506 -0.04890 0.47053
 H974 H 0.37486 -0.07486 0.43830
 C975 C 0.33557 0.32266 -0.15291
 C976 C 0.34233 0.29559 -0.16087
 C977 C 0.32890 0.27754 -0.18278
 C978 C 0.30810 0.28585 -0.19753
 C979 C 0.30084 0.31265 -0.18747
 C980 C 0.31450 0.33086 -0.16572
 C981 C 0.35116 0.34228 -0.13342
 N982 N 0.34571 0.36904 -0.12660
 N983 N 0.36056 0.38682 -0.11173
 C984 C 0.38145 0.37850 -0.10331
 N985 N 0.38670 0.35170 -0.10957
 N986 N 0.37191 0.33401 -0.12425
 C987 C 0.39870 0.39808 -0.08951
 C988 C 0.42091 0.39044 -0.09242
 C989 C 0.43757 0.40832 -0.07994
 C990 C 0.43255 0.43435 -0.06381
 C991 C 0.41031 0.44218 -0.06077
 C992 C 0.39350 0.42423 -0.07382
 H993 H 0.35827 0.28829 -0.15076
 H994 H 0.33486 0.25679 -0.18725
 H995 H 0.28522 0.32040 -0.19841
 H996 H 0.30877 0.35160 -0.16000
 H997 H 0.42556 0.37057 -0.10464
 H998 H 0.45447 0.40146 -0.08256
 H999 H 0.40593 0.46209 -0.04835
 H1000 H 0.37650 0.43066 -0.07121
 C1001 C 1.16003 -0.16825 0.17931
 C1002 C 1.15272 -0.19561 0.17747
 C1003 C 1.16581 -0.21687 0.19214
 C1004 C 1.18658 -0.21149 0.21024
 C1005 C 1.19412 -0.18381 0.21070
 C1006 C 1.18103 -0.16252 0.19519
 C1007 C 1.14514 -0.14610 0.16599
 N1008 N 1.15292 -0.12223 0.14967
 N1009 N 1.13900 -0.10290 0.13663
 C1010 C 1.11685 -0.10663 0.13998
 N1011 N 1.10922 -0.13037 0.15669
 N1012 N 1.12305 -0.14971 0.16929
 C1013 C 1.10099 -0.08621 0.12440
 C1014 C 1.07942 -0.08624 0.13966
 C1015 C 1.06327 -0.06994 0.12184
 C1016 C 1.06820 -0.05329 0.08802
 C1017 C 1.09009 -0.05204 0.07404
 C1018 C 1.10641 -0.06833 0.09223
 H1019 H 1.13680 -0.20067 0.16432
 H1020 H 1.15957 -0.23760 0.18804
 H1021 H 1.20959 -0.17803 0.22481
 H1022 H 1.18697 -0.14147 0.19707
 H1023 H 1.07484 -0.09950 0.16482
 H1024 H 1.04669 -0.07117 0.13385
 H1025 H 1.09443 -0.03932 0.04814
 H1026 H 1.12294 -0.06793 0.07990
 C1027 C 1.16612 0.34947 0.70193
 C1028 C 1.16102 0.33661 0.73913
 C1029 C 1.17315 0.31406 0.75268
 C1030 C 1.19072 0.30388 0.72948
 C1031 C 1.19656 0.31745 0.69327
 C1032 C 1.18433 0.34001 0.67954
 C1033 C 1.15152 0.37119 0.68545
 N1034 N 1.15509 0.38229 0.64801
 N1035 N 1.14078 0.39995 0.63183
 C1036 C 1.12229 0.40723 0.65239
 N1037 N 1.11896 0.39652 0.69010
 N1038 N 1.13326 0.37891 0.70627
 C1039 C 1.10521 0.42458 0.63298
 C1040 C 1.08456 0.42777 0.65168
 C1041 C 1.06754 0.44153 0.63167
 C1042 C 1.07080 0.45265 0.59264
 C1043 C 1.09173 0.45060 0.57464
 C1044 C 1.10874 0.43659 0.59454
 H1045 H 1.14724 0.34344 0.75735
 H1046 H 1.16855 0.30422 0.78106
 H1047 H 1.21001 0.30995 0.67479
 H1048 H 1.18875 0.34949 0.65083
 H1049 H 1.08126 0.41889 0.68131
 H1050 H 1.05168 0.44299 0.64654
 H1051 H 1.09476 0.45897 0.54457
 H1052 H 1.12448 0.43462 0.57937
 C1053 C 0.65878 -0.16680 0.68209
 C1054 C 0.65137 -0.19414 0.68090
 C1055 C 0.66473 -0.21545 0.69460
 C1056 C 0.68591 -0.21016 0.71108
 C1057 C 0.69349 -0.18249 0.71096
 C1058 C 0.68012 -0.16116 0.69642
 C1059 C 0.64375 -0.14459 0.66938
 N1060 N 0.65141 -0.12067 0.65302
 N1061 N 0.63740 -0.10132 0.64037
 C1062 C 0.61527 -0.10506 0.64415
 N1063 N 0.60776 -0.12883 0.66094
 N1064 N 0.62168 -0.14820 0.67317
 C1065 C 0.59933 -0.08464 0.62869
 C1066 C 0.57762 -0.08510 0.64328
 C1067 C 0.56150 -0.06868 0.62549
 C1068 C 0.56662 -0.05148 0.59236
 C1069 C 0.58863 -0.04984 0.57909
 C1070 C 0.60489 -0.06624 0.59725
 H1071 H 0.63517 -0.19917 0.66892
 H1072 H 0.65836 -0.23616 0.69098
 H1073 H 0.70927 -0.17675 0.72387
 H1074 H 0.68617 -0.14014 0.69776
 H1075 H 0.57290 -0.09877 0.66786
 H1076 H 0.54482 -0.07026 0.63690
 H1077 H 0.59313 -0.03672 0.55373
 H1078 H 0.62152 -0.06547 0.58542
 C1079 C 0.66166 0.33484 0.18368
 C1080 C 0.65593 0.30729 0.17598
 C1081 C 0.66905 0.28598 0.19050
 C1082 C 0.68796 0.29165 0.21399
 C1083 C 0.69405 0.31933 0.22076
 C1084 C 0.68108 0.34078 0.20539
 C1085 C 0.64658 0.35685 0.17070
 N1086 N 0.65413 0.38211 0.15930
 N1087 N 0.64012 0.40151 0.14686
 C1088 C 0.61806 0.39642 0.14604
 N1089 N 0.61062 0.37127 0.15780
 N1090 N 0.62458 0.35187 0.16973
 C1091 C 0.60218 0.41708 0.13136
 C1092 C 0.58038 0.41593 0.14529
 C1093 C 0.56425 0.43242 0.12777
 C1094 C 0.56946 0.45029 0.09547
 C1095 C 0.59157 0.45264 0.08300
 C1096 C 0.60786 0.43623 0.10102
 H1097 H 0.64121 0.30220 0.15870
 H1098 H 0.66424 0.26499 0.18345
 H1099 H 0.70843 0.32445 0.23892
 H1100 H 0.68576 0.36191 0.21181
 H1101 H 0.57562 0.40161 0.16904
 H1102 H 0.54748 0.43025 0.13856
 H1103 H 0.59613 0.46631 0.05832
 H1104 H 0.62459 0.43746 0.08977
 C1105 C 0.83624 0.17461 0.16297
 C1106 C 0.81682 0.16497 0.18153
 C1107 C 0.80322 0.18313 0.20289
 C1108 C 0.80881 0.21120 0.20600
 C1109 C 0.82774 0.22094 0.18611
 C1110 C 0.84130 0.20288 0.16490
 C1111 C 0.85192 0.15539 0.14368
 N1112 N 0.87236 0.16435 0.13331
 N1113 N 0.88714 0.14707 0.11816
 C1114 C 0.88214 0.12005 0.11259
 N1115 N 0.86159 0.11103 0.12238
 N1116 N 0.84678 0.12836 0.13777
 C1117 C 0.89922 0.10097 0.09766
 C1118 C 0.89376 0.07498 0.08144
 C1119 C 0.91033 0.05747 0.06707
 C1120 C 0.93259 0.06556 0.06933
 C1121 C 0.93792 0.09142 0.08603
 C1122 C 0.92147 0.10892 0.09980
 H1123 H 0.81247 0.14331 0.18061
 H1124 H 0.78874 0.17508 0.21809
 H1125 H 0.83219 0.24257 0.18724
 H1126 H 0.85597 0.21109 0.15055
 H1127 H 0.87673 0.06835 0.07939
 H1128 H 0.90572 0.03767 0.05430
 H1129 H 0.95488 0.09842 0.08805
 H1130 H 0.92628 0.12870 0.11242
 C1131 C 0.83509 0.67485 0.65759
 C1132 C 0.83796 0.70339 0.65253
 C1133 C 0.82428 0.72194 0.67249
 C1134 C 0.80743 0.71248 0.69824
 C1135 C 0.80391 0.68395 0.70213
 C1136 C 0.81763 0.66528 0.68196
 C1137 C 0.85111 0.65560 0.63924
 N1138 N 0.84744 0.62794 0.63863
 N1139 N 0.86256 0.61083 0.62372
 C1140 C 0.88199 0.62074 0.60912
 N1141 N 0.88552 0.64836 0.60951
 N1142 N 0.87041 0.66540 0.62416
 C1143 C 0.89945 0.60208 0.59444
 C1144 C 0.92127 0.61172 0.59204
 C1145 C 0.93805 0.59450 0.57869
 C1146 C 0.93343 0.56726 0.56689
 C1147 C 0.91158 0.55753 0.56895
 C1148 C 0.89475 0.57475 0.58296
 H1149 H 0.85103 0.71151 0.63354
 H1150 H 0.82703 0.74380 0.66807
 H1151 H 0.79104 0.67610 0.72183
 H1152 H 0.81499 0.64341 0.68646
 H1153 H 0.92549 0.63261 0.60087
 H1154 H 0.95466 0.60272 0.57718
 H1155 H 0.90754 0.53661 0.56000
 H1156 H 0.87806 0.56679 0.58439
 C1157 C 0.33153 0.17416 0.65562
 C1158 C 0.33550 0.20270 0.65438
 C1159 C 0.32245 0.22076 0.67663
 C1160 C 0.30508 0.21078 0.70067
 C1161 C 0.30017 0.18247 0.70016
 C1162 C 0.31333 0.16425 0.67784
 C1163 C 0.34742 0.15510 0.63639
 N1164 N 0.34349 0.12752 0.63425
 N1165 N 0.35871 0.11049 0.61949
 C1166 C 0.37850 0.12037 0.60661
 N1167 N 0.38226 0.14792 0.60836
 N1168 N 0.36706 0.16489 0.62286
 C1169 C 0.39615 0.10173 0.59267
 C1170 C 0.41811 0.11105 0.59270
 C1171 C 0.43507 0.09383 0.58015
 C1172 C 0.43051 0.06691 0.56672
 C1173 C 0.40854 0.05750 0.56642
 C1174 C 0.39151 0.07470 0.57965
 H1175 H 0.34914 0.21113 0.63713
 H1176 H 0.32627 0.24259 0.67588
 H1177 H 0.28682 0.17433 0.71847
 H1178 H 0.30979 0.14239 0.67930
 H1179 H 0.42228 0.13169 0.60281
 H1180 H 0.45178 0.10180 0.58047
 H1181 H 0.40454 0.03684 0.55618
 H1182 H 0.37473 0.06699 0.57924
 C1183 C 0.33471 0.67409 0.15917
 C1184 C 0.33753 0.70266 0.15457
 C1185 C 0.32402 0.72102 0.17526
 C1186 C 0.30737 0.71130 0.20124
 C1187 C 0.30390 0.68275 0.20474
 C1188 C 0.31747 0.66427 0.18386
 C1189 C 0.35058 0.65502 0.14004
 N1190 N 0.34709 0.62732 0.13963
 N1191 N 0.36217 0.61037 0.12420
 C1192 C 0.38136 0.62049 0.10886
 N1193 N 0.38468 0.64814 0.10898
 N1194 N 0.36962 0.66503 0.12415
 C1195 C 0.39887 0.60201 0.09399
 C1196 C 0.42061 0.61189 0.09142
 C1197 C 0.43749 0.59478 0.07828
 C1198 C 0.43303 0.56743 0.06683
 C1199 C 0.41125 0.55750 0.06888
 C1200 C 0.39431 0.57460 0.08273
 H1201 H 0.35044 0.71096 0.13538
 H1202 H 0.32671 0.74292 0.17116
 H1203 H 0.29117 0.67473 0.22460
 H1204 H 0.31488 0.64236 0.18803
 H1205 H 0.42470 0.63285 0.10007
 H1206 H 0.45406 0.60313 0.07671
 H1207 H 0.40736 0.53649 0.06020
 H1208 H 0.37768 0.56649 0.08431
   
