data_POSCAR
  _audit_creation_date              2014-09-24
  _audit_creation_method            'ToBaCCo'
  _symmetry_space_group_name_H-M    'P1'
  _symmetry_Int_Tables_number       1
  _symmetry_cell_setting            triclinic
  loop_
  _symmetry_equiv_pos_as_xyz
 x,y,z
_cell_length_a 15.2407
_cell_length_b 14.9201
_cell_length_c 20.6835
_cell_angle_alpha 90.000000
_cell_angle_beta 89.690900
_cell_angle_gamma 90.000000
loop_
  _atom_site_label
  _atom_site_type_symbol
  _atom_site_fract_x
  _atom_site_fract_y
  _atom_site_fract_z
O1 O 0.16740 0.10755 0.04274
 O2 O -0.16750 -0.10188 0.04390
 O3 O -0.10092 0.17294 0.04664
 O4 O 0.10081 -0.16717 0.04575
 O5 O -0.15066 0.04840 0.08107
 O6 O 0.15029 -0.04287 0.08020
 O7 O -0.04664 -0.15028 0.08009
 O8 O 0.04667 0.15638 0.07977
 C9 C 0.12584 0.14509 0.08706
 C10 C -0.12590 -0.13957 0.08781
 C11 C -0.13923 0.12917 0.08985
 C12 C 0.13884 -0.12367 0.08887
 O13 O 0.16750 -0.10188 -0.04391
 O14 O -0.16740 0.10755 -0.04275
 O15 O 0.10092 0.17294 -0.04666
 O16 O -0.10081 -0.16717 -0.04576
 O17 O -0.15028 -0.04287 -0.08021
 O18 O 0.15066 0.04840 -0.08109
 O19 O 0.04664 -0.15028 -0.08010
 O20 O -0.04667 0.15638 -0.07978
 Co21 Co 0.14358 0.00280 -0.00044
 Co22 Co -0.14358 0.00280 0.00043
 Co23 Co 0.00000 0.14922 -0.00001
 Co24 Co 0.00000 -0.14325 -0.00001
 O25 O 0.00000 0.00291 -0.00001
 C26 C 0.12590 -0.13957 -0.08782
 C27 C -0.12584 0.14509 -0.08708
 C28 C 0.13923 0.12917 -0.08986
 C29 C -0.13883 -0.12367 -0.08888
 O30 O 0.45373 0.34476 0.42026
 O31 O 0.54617 0.65081 0.41993
 O32 O 0.35011 0.54376 0.41992
 O33 O 0.65025 0.45254 0.41911
 O34 O 0.39896 0.66788 0.45440
 O35 O 0.60115 0.32809 0.45340
 O36 O 0.66702 0.60272 0.45574
 O37 O 0.33310 0.39341 0.45695
 C38 C 0.37461 0.35623 0.41225
 C39 C 0.62541 0.64007 0.41149
 C40 C 0.36125 0.62461 0.41084
 C41 C 0.63920 0.37174 0.40983
 O42 O 0.54627 0.34476 0.57973
 O43 O 0.45383 0.65081 0.58005
 O44 O 0.34975 0.45254 0.58087
 O45 O 0.64990 0.54376 0.58006
 O46 O 0.60105 0.66788 0.54559
 O47 O 0.39885 0.32809 0.54658
 O48 O 0.66690 0.39341 0.54303
 O49 O 0.33299 0.60272 0.54424
 Co50 Co 0.50000 0.35178 0.49999
 Co51 Co 0.50000 0.64397 0.49999
 Co52 Co 0.35669 0.49812 0.50042
 Co53 Co 0.64332 0.49812 0.49957
 O54 O 0.50000 0.49798 0.49999
 C55 C 0.62540 0.35623 0.58774
 C56 C 0.37459 0.64007 0.58850
 C57 C 0.36080 0.37174 0.59016
 C58 C 0.63875 0.62461 0.58915
 C59 C 0.24760 0.25013 0.24454
 C60 C 0.33772 0.23773 0.25310
 C61 C 0.37904 0.27262 0.30765
 C62 C 0.16948 0.18194 0.14208
 C63 C 0.24005 0.33291 0.34530
 C64 C 0.19884 0.29797 0.29057
 C65 C 0.20521 0.21315 0.18871
 C66 C 0.33052 0.32020 0.35447
 H67 H 0.37601 0.20089 0.21770
 H68 H 0.44891 0.26204 0.31330
 H69 H 0.20125 0.36971 0.38038
 H70 H 0.12901 0.30803 0.28425
 C71 C 0.75237 0.75103 0.24454
 C72 C 0.80138 0.70284 0.28986
 C73 C 0.76016 0.66616 0.34429
 C74 C 0.83043 0.82232 0.14265
 C75 C 0.62071 0.72533 0.30771
 C76 C 0.66203 0.76196 0.25345
 C77 C 0.79472 0.78978 0.18905
 C78 C 0.66946 0.67747 0.35385
 H79 H 0.87140 0.69391 0.28321
 H80 H 0.79913 0.62921 0.37887
 H81 H 0.55066 0.73486 0.31368
 H82 H 0.62357 0.79903 0.21858
 C83 C 0.75240 0.25013 0.75545
 C84 C 0.80116 0.29798 0.70941
 C85 C 0.75995 0.33292 0.65468
 C86 C 0.83052 0.18194 0.85791
 C87 C 0.62096 0.27262 0.69233
 C88 C 0.66228 0.23773 0.74688
 C89 C 0.79479 0.21315 0.81128
 C90 C 0.66948 0.32020 0.64552
 H91 H 0.87099 0.30804 0.71574
 H92 H 0.79875 0.36971 0.61960
 H93 H 0.55110 0.26204 0.68669
 H94 H 0.62399 0.20088 0.78228
 C95 C 0.24763 0.75103 0.75544
 C96 C 0.19862 0.70284 0.71013
 C97 C 0.23984 0.66616 0.65569
 C98 C 0.16958 0.82232 0.85734
 C99 C 0.37930 0.72533 0.69228
 C100 C 0.33797 0.76196 0.74653
 C101 C 0.20528 0.78978 0.81093
 C102 C 0.33054 0.67747 0.64614
 H103 H 0.12860 0.69391 0.71677
 H104 H 0.20087 0.62921 0.62111
 H105 H 0.44934 0.73486 0.68630
 H106 H 0.37643 0.79903 0.78140
 C107 C 0.24674 0.24591 0.75755
 C108 C 0.29509 0.19475 0.71308
 C109 C 0.33285 0.23549 0.65864
 C110 C 0.17405 0.16866 0.85996
 C111 C 0.27452 0.37890 0.69335
 C112 C 0.23685 0.33807 0.74760
 C113 C 0.20706 0.20404 0.81331
 C114 C 0.32257 0.32798 0.64805
 H115 H 0.30337 0.12335 0.72039
 H116 H 0.36979 0.19470 0.62480
 H117 H 0.26562 0.45034 0.68671
 H118 H 0.19978 0.37840 0.78170
 C119 C 0.75123 0.75330 0.75495
 C120 C 0.70264 0.80347 0.71046
 C121 C 0.66539 0.76169 0.65658
 C122 C 0.82310 0.83245 0.85624
 C123 C 0.72466 0.61917 0.69190
 C124 C 0.76185 0.66106 0.74562
 C125 C 0.79042 0.79633 0.81007
 C126 C 0.67643 0.66913 0.64658
 H127 H 0.69379 0.87490 0.71731
 H128 H 0.62826 0.80175 0.62270
 H129 H 0.73412 0.54772 0.68566
 H130 H 0.79913 0.62152 0.77977
 C131 C 0.24877 0.75330 0.24503
 C132 C 0.23815 0.66106 0.25436
 C133 C 0.27534 0.61917 0.30809
 C134 C 0.17690 0.83245 0.14375
 C135 C 0.33461 0.76169 0.34340
 C136 C 0.29737 0.80347 0.28952
 C137 C 0.20958 0.79633 0.18991
 C138 C 0.32358 0.66913 0.35340
 H139 H 0.20087 0.62152 0.22021
 H140 H 0.26588 0.54772 0.31433
 H141 H 0.37174 0.80175 0.37728
 H142 H 0.30621 0.87490 0.28268
 C143 C 0.75326 0.24591 0.24243
 C144 C 0.76315 0.33807 0.25238
 C145 C 0.72548 0.37890 0.30664
 C146 C 0.82595 0.16866 0.14003
 C147 C 0.66715 0.23549 0.34135
 C148 C 0.70491 0.19475 0.28690
 C149 C 0.79294 0.20404 0.18668
 C150 C 0.67743 0.32798 0.35193
 H151 H 0.80022 0.37840 0.21829
 H152 H 0.73439 0.45034 0.31328
 H153 H 0.63021 0.19470 0.37519
 H154 H 0.69663 0.12335 0.27959
   
