data_POSCAR
  _audit_creation_date              2014-09-24
  _audit_creation_method            'ToBaCCo'
  _symmetry_space_group_name_H-M    'P1'
  _symmetry_Int_Tables_number       1
  _symmetry_cell_setting            triclinic
  loop_
  _symmetry_equiv_pos_as_xyz
 x,y,z
_cell_length_a 38.9715
_cell_length_b 32.8378
_cell_length_c 17.7270
_cell_angle_alpha 89.895600
_cell_angle_beta 90.230500
_cell_angle_gamma 121.524100
loop_
  _atom_site_label
  _atom_site_type_symbol
  _atom_site_fract_x
  _atom_site_fract_y
  _atom_site_fract_z
C1 C 0.42170 0.87890 0.50181
 C2 C 0.43017 0.90394 0.57050
 C3 C 0.45907 0.95347 0.56968
 C4 C 0.48205 0.97636 0.50451
 C5 C 0.47388 0.94912 0.43807
 C6 C 0.44282 0.90105 0.43577
 C7 C 0.51500 1.02822 0.50632
 C8 C 0.52696 1.05621 0.44010
 C9 C 0.55989 1.10390 0.44004
 C10 C 0.57936 1.12421 0.50902
 C11 C 0.56540 1.09855 0.57661
 C12 C 0.53487 1.05019 0.57431
 H13 H 0.39864 0.84128 0.49914
 H14 H 0.46451 0.97438 0.61978
 H15 H 0.49117 0.96503 0.38748
 H16 H 0.51140 1.04023 0.38801
 H17 H 0.60341 1.16142 0.51123
 H18 H 0.52711 1.03007 0.62626
 C19 C 0.10242 0.52771 0.50185
 C20 C 0.08484 0.53046 0.56940
 C21 C 0.04584 0.52335 0.56625
 C22 C 0.02354 0.51066 0.49834
 C23 C 0.04240 0.50866 0.43201
 C24 C 0.08242 0.51994 0.43265
 C25 C -0.01902 0.49993 0.49637
 C26 C -0.03579 0.50523 0.42907
 C27 C -0.07635 0.49271 0.42484
 C28 C -0.09858 0.48042 0.49230
 C29 C -0.08262 0.47531 0.56018
 C30 C -0.04342 0.48370 0.56123
 H31 H 0.13314 0.53561 0.50211
 H32 H 0.03227 0.52617 0.61724
 H33 H 0.02629 0.49832 0.37896
 H34 H -0.01681 0.52064 0.38037
 H35 H -0.12948 0.47183 0.49175
 H36 H -0.03208 0.47793 0.61322
 C37 C 0.42247 0.52819 0.50245
 C38 C 0.44277 0.53013 0.56924
 C39 C 0.47140 0.51617 0.56586
 C40 C 0.47723 0.49665 0.49915
 C41 C 0.45510 0.49433 0.43397
 C42 C 0.42944 0.51219 0.43475
 C43 C 0.50673 0.47983 0.49733
 C44 C 0.52035 0.47176 0.42811
 C45 C 0.54754 0.45596 0.42653
 C46 C 0.56299 0.45013 0.49412
 C47 C 0.55080 0.45845 0.56337
 C48 C 0.52200 0.47184 0.56485
 H49 H 0.40179 0.54090 0.50181
 H50 H 0.48843 0.51964 0.61568
 H51 H 0.45821 0.48021 0.38136
 H52 H 0.51125 0.47874 0.37454
 H53 H 0.58469 0.43894 0.49274
 H54 H 0.51127 0.47457 0.61943
 O55 O 0.37180 0.63025 -0.06362
 O56 O 0.36204 0.70152 -0.09195
 C57 C 0.34048 0.71914 -0.10521
 O58 O 0.31169 0.71253 -0.06279
 O59 O 0.24815 0.62760 -0.08375
 C60 C 0.23268 0.58371 -0.09845
 O61 O 0.24051 0.55626 -0.06118
 O62 O 0.31029 0.56845 -0.08739
 C63 C 0.34720 0.59443 -0.10324
 O64 O 0.36995 0.64658 0.08512
 O65 O 0.36594 0.72176 0.05712
 C66 C 0.33986 0.72230 0.09939
 O67 O 0.30241 0.69564 0.08796
 O68 O 0.23709 0.61308 0.06569
 C69 C 0.23549 0.57944 0.10441
 O70 O 0.25642 0.56125 0.08956
 O71 O 0.32556 0.56929 0.06297
 C72 C 0.35403 0.60279 0.10152
 Cr73 Cr 0.36546 0.67366 -0.00325
 Cr74 Cr 0.27605 0.66132 0.00175
 Cr75 Cr 0.28406 0.56611 0.00106
 O76 O 0.30838 0.63356 -0.00018
 O77 O 0.63365 0.34987 -0.08681
 O78 O 0.64125 0.27854 -0.05151
 C79 C 0.66865 0.27771 -0.08898
 O80 O 0.70576 0.30502 -0.07486
 O81 O 0.76854 0.39032 -0.06077
 C82 C 0.76844 0.42094 -0.10476
 O83 O 0.74641 0.43822 -0.09415
 O84 O 0.67608 0.42815 -0.07240
 C85 C 0.64781 0.39253 -0.10753
 O86 O 0.63113 0.36996 0.06130
 O87 O 0.64229 0.30022 0.09519
 C88 C 0.66521 0.28531 0.11362
 O89 O 0.69717 0.29604 0.07783
 O90 O 0.75797 0.38316 0.09018
 C91 C 0.77186 0.42731 0.09878
 O92 O 0.76275 0.45149 0.05609
 O93 O 0.69137 0.43621 0.07762
 C94 C 0.65485 0.40897 0.09566
 Cr95 Cr 0.63922 0.32638 0.00452
 Cr96 Cr 0.73103 0.34444 0.00794
 Cr97 Cr 0.71835 0.43605 -0.00795
 O98 O 0.69623 0.36894 0.00207
 C99 C 0.37525 0.80193 -0.30267
 C100 C 0.38014 0.82375 -0.23239
 N101 N 0.39952 0.87209 -0.22843
 C102 C 0.41510 0.89977 -0.29122
 C103 C 0.41141 0.87811 -0.36234
 N104 N 0.39072 0.82939 -0.36498
 N105 N 0.35714 0.75377 -0.30722
 C106 C 0.34418 0.72634 -0.24414
 C107 C 0.34946 0.74802 -0.17344
 N108 N 0.36715 0.79637 -0.16900
 H109 H 0.42999 0.93792 -0.28421
 H110 H 0.33066 0.68805 -0.24886
 C111 C 0.15779 0.53958 -0.29042
 C112 C 0.15215 0.56386 -0.23153
 N113 N 0.12354 0.57533 -0.23808
 C114 C 0.10025 0.56383 -0.30106
 C115 C 0.10667 0.54097 -0.36217
 N116 N 0.13562 0.52963 -0.35454
 N117 N 0.18563 0.52680 -0.28283
 C118 C 0.20859 0.53799 -0.21928
 C119 C 0.20431 0.56440 -0.16185
 N120 N 0.17606 0.57664 -0.16945
 H121 H 0.07877 0.57514 -0.30427
 H122 H 0.23115 0.52831 -0.21508
 C123 C 0.38575 0.55742 -0.29900
 C124 C 0.41012 0.57258 -0.23441
 N125 N 0.44542 0.57360 -0.23519
 C126 C 0.45738 0.55994 -0.29747
 C127 C 0.43308 0.54511 -0.36331
 N128 N 0.39794 0.54474 -0.36112
 N129 N 0.34987 0.55475 -0.29852
 C130 C 0.33706 0.56647 -0.23587
 C131 C 0.36149 0.58227 -0.17102
 N132 N 0.39775 0.58527 -0.17180
 H133 H 0.48607 0.56238 -0.29531
 H134 H 0.30825 0.56399 -0.23691
 C135 C 0.63259 0.18664 -0.27889
 C136 C 0.60529 0.17827 -0.22075
 N137 N 0.56640 0.14214 -0.22763
 C138 C 0.55335 0.11438 -0.29053
 C139 C 0.58024 0.12367 -0.35025
 N140 N 0.61939 0.15970 -0.34257
 N141 N 0.67154 0.22268 -0.27185
 C142 C 0.68433 0.25121 -0.20976
 C143 C 0.65672 0.24408 -0.15260
 N144 N 0.61779 0.20744 -0.15955
 H145 H 0.52186 0.08676 -0.29517
 H146 H 0.71543 0.28019 -0.20637
 C147 C 0.84333 0.46442 -0.29724
 C148 C 0.84479 0.43397 -0.24349
 N149 N 0.87001 0.41764 -0.25420
 C150 C 0.89394 0.43048 -0.31623
 C151 C 0.89250 0.46094 -0.37052
 N152 N 0.86696 0.47697 -0.35936
 N153 N 0.81816 0.48081 -0.28671
 C154 C 0.79420 0.46798 -0.22486
 C155 C 0.79521 0.43706 -0.17099
 N156 N 0.82066 0.42082 -0.18188
 H157 H 0.91319 0.41617 -0.32366
 H158 H 0.77428 0.48145 -0.21834
 C159 C 0.59330 0.41028 -0.30063
 C160 C 0.60571 0.44304 -0.24078
 N161 N 0.59867 0.47938 -0.24465
 C162 C 0.58000 0.48457 -0.30580
 C163 C 0.56827 0.45228 -0.36644
 N164 N 0.57537 0.41594 -0.36198
 N165 N 0.59932 0.37326 -0.29657
 C166 C 0.61710 0.36728 -0.23512
 C167 C 0.63004 0.40020 -0.17527
 N168 N 0.62415 0.43757 -0.17959
 H169 H 0.57537 0.51430 -0.30795
 H170 H 0.62133 0.33722 -0.23315
 C171 C 0.84599 0.47729 0.29062
 C172 C 0.86056 0.47050 0.22267
 N173 N 0.89723 0.47522 0.22131
 C174 C 0.91980 0.48542 0.28508
 C175 C 0.90444 0.48962 0.35505
 N176 N 0.86782 0.48588 0.35482
 N177 N 0.80919 0.47245 0.29218
 C178 C 0.78591 0.45999 0.22898
 C179 C 0.79965 0.45085 0.16181
 N180 N 0.83681 0.45649 0.16018
 H181 H 0.94795 0.48666 0.28084
 H182 H 0.75613 0.45472 0.23210
 C183 C 0.62645 0.19637 0.30548
 C184 C 0.60020 0.18784 0.24517
 N185 N 0.56141 0.15123 0.24920
 C186 C 0.54745 0.12251 0.31092
 C187 C 0.57326 0.13152 0.37325
 N188 N 0.61227 0.16874 0.36829
 N189 N 0.66567 0.23219 0.30024
 C190 C 0.67963 0.26024 0.23754
 C191 C 0.65288 0.25290 0.17844
 N192 N 0.61374 0.21675 0.18385
 H193 H 0.51597 0.09479 0.31205
 H194 H 0.71084 0.28900 0.23499
 C195 C 0.61415 0.45052 0.28400
 C196 C 0.58666 0.42069 0.22852
 N197 N 0.54698 0.40516 0.23657
 C198 C 0.53358 0.41764 0.29805
 C199 C 0.56100 0.44617 0.35481
 N200 N 0.60069 0.46195 0.34591
 N201 N 0.65384 0.46695 0.27594
 C202 C 0.66744 0.45469 0.21505
 C203 C 0.64005 0.42374 0.16008
 N204 N 0.60009 0.40742 0.16812
 H205 H 0.50174 0.40405 0.30391
 H206 H 0.69932 0.46829 0.21046
 C207 C 0.15832 0.53107 0.29365
 C208 C 0.15250 0.55515 0.23419
 N209 N 0.12259 0.56453 0.23853
 C210 C 0.09842 0.55146 0.30006
 C211 C 0.10476 0.52850 0.36102
 N212 N 0.13474 0.51885 0.35599
 N213 N 0.18821 0.52153 0.28893
 C214 C 0.21280 0.53542 0.22774
 C215 C 0.20780 0.56086 0.16910
 N216 N 0.17753 0.56989 0.17391
 H217 H 0.07566 0.56085 0.30257
 H218 H 0.23665 0.52778 0.22588
 C219 C 0.37822 0.81305 0.28996
 C220 C 0.40634 0.81683 0.23689
 N221 N 0.44611 0.84910 0.24838
 C222 C 0.45901 0.87757 0.31079
 C223 C 0.43084 0.87316 0.36476
 N224 N 0.39109 0.84090 0.35238
 N225 N 0.33849 0.78113 0.27897
 C226 C 0.32544 0.75237 0.21736
 C227 C 0.35344 0.75522 0.16435
 N228 N 0.39340 0.78765 0.17549
 H229 H 0.49091 0.90235 0.31905
 H230 H 0.29352 0.72698 0.21066
 C231 C 0.39973 0.57199 0.29521
 C232 C 0.38216 0.53811 0.23714
 N233 N 0.38082 0.49599 0.24373
 C234 C 0.39615 0.48631 0.30588
 C235 C 0.41307 0.52007 0.36457
 N236 N 0.41436 0.56205 0.35714
 N237 N 0.40210 0.61447 0.28895
 C238 C 0.38771 0.62490 0.22694
 C239 C 0.36963 0.59110 0.16858
 N240 N 0.36710 0.54816 0.17515
 H241 H 0.39447 0.45243 0.31005
 H242 H 0.38995 0.65915 0.22372
   
