data_POSCAR
  _audit_creation_date              2014-09-24
  _audit_creation_method            'ToBaCCo'
  _symmetry_space_group_name_H-M    'P1'
  _symmetry_Int_Tables_number       1
  _symmetry_cell_setting            triclinic
  loop_
  _symmetry_equiv_pos_as_xyz
 x,y,z
_cell_length_a 44.7760
_cell_length_b 51.4051
_cell_length_c 39.5244
_cell_angle_alpha 90.114400
_cell_angle_beta 90.089800
_cell_angle_gamma 90.140600
loop_
  _atom_site_label
  _atom_site_type_symbol
  _atom_site_fract_x
  _atom_site_fract_y
  _atom_site_fract_z
Si1 Si 1.25085 0.25182 0.24881
 Si2 Si 0.74893 -0.25262 0.24956
 Si3 Si 0.75045 0.25254 -0.24812
 Si4 Si 1.25084 -0.25125 -0.24786
 Si5 Si 0.25016 0.25143 0.75161
 Si6 Si 0.74869 0.74689 0.74938
 Si7 Si 0.74872 0.25209 0.24742
 Si8 Si 0.25025 0.74871 0.24750
 O9 O 1.05167 -0.03701 0.06228
 O10 O 1.02449 -0.06602 0.03028
 C11 C 1.04407 -0.06041 0.05340
 O12 O 0.94393 0.03555 0.05812
 O13 O 0.97319 0.06436 0.02855
 C14 C 0.95189 0.05888 0.04955
 O15 O 0.94682 -0.03693 0.06215
 O16 O 0.97399 -0.06596 0.03044
 C17 C 0.95441 -0.06032 0.05341
 O18 O 1.05495 0.03550 0.05856
 O19 O 1.02639 0.06429 0.02822
 C20 C 1.04744 0.05881 0.04955
 Zr21 Zr 1.03705 -0.00075 0.04320
 O22 O 1.03586 0.00218 0.09663
 O23 O 1.08419 -0.00367 0.04417
 Zr24 Zr 0.96210 -0.00070 0.04356
 O25 O 0.96756 0.00053 0.09664
 O26 O 0.91510 -0.00121 0.04891
 O27 O 0.99947 -0.02412 0.05002
 O28 O 0.99965 0.02228 0.04941
 O29 O 1.05409 0.03509 -0.05832
 O30 O 1.02504 0.06418 -0.02898
 C31 C 1.04622 0.05850 -0.05004
 O32 O 0.94650 -0.03755 -0.06052
 O33 O 0.97370 -0.06627 -0.02848
 C34 C 0.95405 -0.06086 -0.05152
 O35 O 0.94412 0.03506 -0.05789
 O36 O 0.97290 0.06409 -0.02783
 C37 C 0.95184 0.05845 -0.04917
 O38 O 1.05119 -0.03763 -0.06095
 O39 O 1.02412 -0.06631 -0.02862
 C40 C 1.04355 -0.06092 -0.05183
 Zr41 Zr 1.03668 -0.00116 -0.04233
 O42 O 1.03536 0.00154 -0.09578
 O43 O 1.08382 -0.00409 -0.04338
 Zr44 Zr 0.96153 -0.00114 -0.04196
 O45 O 0.96224 0.00147 -0.09542
 O46 O 0.91433 -0.00358 -0.04216
 Zr47 Zr 0.99917 -0.03990 0.00074
 Zr48 Zr 0.99952 0.03812 0.00038
 O49 O 0.99914 0.02160 -0.04841
 O50 O 0.99899 -0.02453 -0.04870
 O51 O 1.04292 0.02223 0.00026
 O52 O 0.95617 -0.02352 0.00092
 O53 O 1.04232 -0.02353 0.00053
 O54 O 0.95602 0.02219 0.00068
 H55 H 0.99974 0.03435 0.06899
 H56 H 0.93851 -0.03517 0.00095
 H57 H 0.99900 0.03328 -0.06832
 H58 H 1.05998 -0.03510 0.00055
 H59 H 0.90664 -0.00647 0.02685
 H60 H 0.90679 0.01011 -0.02675
 H61 H 0.97318 -0.01383 -0.10413
 H62 H 1.02447 -0.01387 -0.10441
 H63 H 1.09193 0.00987 -0.02873
 H64 H 1.09217 0.00951 0.02837
 H65 H 1.02314 -0.01217 0.10507
 H66 H 0.94715 0.00114 0.10624
 O67 O 0.94843 0.46361 0.43738
 O68 O 0.97483 0.43500 0.47049
 C69 C 0.95559 0.44033 0.44702
 O70 O 1.05680 0.53582 0.44060
 O71 O 1.02725 0.56516 0.46886
 C72 C 1.04880 0.55931 0.44837
 O73 O 1.05322 0.46322 0.43799
 O74 O 1.02557 0.43486 0.47020
 C75 C 1.04528 0.44002 0.44719
 O76 O 0.94600 0.53635 0.43976
 O77 O 0.97493 0.56531 0.46974
 C78 C 0.95383 0.55971 0.44848
 Zr79 Zr 0.96339 0.50014 0.45572
 O80 O 0.96494 0.50229 0.40225
 O81 O 0.91623 0.49745 0.45432
 Zr82 Zr 1.03825 0.49978 0.45579
 O83 O 1.03296 0.50028 0.40266
 O84 O 1.08525 0.49890 0.45070
 O85 O 1.00065 0.47644 0.44958
 O86 O 1.00108 0.52286 0.44937
 O87 O 0.94604 0.53746 0.55639
 O88 O 0.97518 0.56588 0.52607
 C89 C 0.95405 0.56067 0.54736
 O90 O 1.05276 0.46437 0.56091
 O91 O 1.02549 0.43538 0.52907
 C92 C 1.04491 0.44100 0.55229
 O93 O 1.05620 0.53686 0.55688
 O94 O 1.02800 0.56556 0.52600
 C95 C 1.04883 0.56013 0.54759
 O96 O 0.94812 0.46475 0.56034
 O97 O 0.97498 0.43553 0.52860
 C98 C 0.95551 0.44129 0.55162
 Zr99 Zr 0.96320 0.50095 0.54122
 O100 O 0.96433 0.50441 0.59461
 O101 O 0.91602 0.49829 0.54200
 Zr102 Zr 1.03840 0.50057 0.54147
 O103 O 1.03741 0.50397 0.59487
 O104 O 1.08556 0.49776 0.54217
 Zr105 Zr 1.00053 0.46143 0.49919
 Zr106 Zr 1.00129 0.53938 0.49814
 O107 O 1.00103 0.52361 0.54722
 O108 O 1.00058 0.47748 0.54834
 O109 O 0.95765 0.52374 0.49816
 O110 O 1.04373 0.47759 0.49897
 O111 O 0.95757 0.47803 0.49876
 O112 O 1.04456 0.52322 0.49835
 H113 H 1.00114 0.53459 0.42950
 H114 H 1.06123 0.46585 0.49930
 H115 H 1.00114 0.53564 0.56684
 H116 H 0.93972 0.46661 0.49884
 H117 H 1.09354 0.49455 0.47314
 H118 H 1.09344 0.51130 0.52679
 H119 H 1.02607 0.48894 0.60377
 H120 H 0.97475 0.48895 0.60363
 H121 H 0.90817 0.51198 0.52689
 H122 H 0.90830 0.51080 0.46991
 H123 H 0.97738 0.48765 0.39419
 H124 H 1.05340 0.50070 0.39311
 O125 O 0.55153 -0.03665 0.56145
 O126 O 0.52505 -0.06547 0.52841
 C127 C 0.54410 -0.06000 0.55216
 O128 O 0.44428 0.03601 0.55764
 O129 O 0.47356 0.06500 0.52839
 C130 C 0.45233 0.05941 0.54943
 O131 O 0.44716 -0.03649 0.56094
 O132 O 0.47431 -0.06535 0.52896
 C133 C 0.45485 -0.05984 0.55212
 O134 O 0.55492 0.03591 0.55869
 O135 O 0.52663 0.06493 0.52837
 C136 C 0.54744 0.05931 0.54998
 Zr137 Zr 0.53728 -0.00026 0.54247
 O138 O 0.53631 0.00224 0.59593
 O139 O 0.58442 -0.00326 0.54305
 Zr140 Zr 0.46235 -0.00017 0.54252
 O141 O 0.46754 0.00075 0.59566
 O142 O 0.41533 -0.00085 0.54750
 O143 O 0.49967 -0.02367 0.54882
 O144 O 0.49987 0.02272 0.54879
 O145 O 0.55443 0.03631 0.44107
 O146 O 0.52554 0.06519 0.47097
 C147 C 0.54652 0.05968 0.44957
 O148 O 0.44703 -0.03635 0.43790
 O149 O 0.47377 -0.06535 0.47002
 C150 C 0.45438 -0.05976 0.44675
 O151 O 0.44502 0.03630 0.44108
 O152 O 0.47356 0.06511 0.47180
 C153 C 0.45277 0.05963 0.45006
 O154 O 0.55163 -0.03637 0.43780
 O155 O 0.52479 -0.06537 0.46993
 C156 C 0.54409 -0.05976 0.44662
 Zr157 Zr 0.53724 -0.00007 0.45701
 O158 O 0.53665 0.00294 0.40358
 O159 O 0.58440 -0.00299 0.45684
 Zr160 Zr 0.46208 -0.00006 0.45695
 O161 O 0.46292 0.00283 0.40351
 O162 O 0.41487 -0.00243 0.45659
 Zr163 Zr 0.49949 -0.03917 0.49936
 Zr164 Zr 0.49992 0.03892 0.49996
 O165 O 0.49972 0.02269 0.45099
 O166 O 0.49955 -0.02342 0.45013
 O167 O 0.54333 0.02307 0.49987
 O168 O 0.45652 -0.02271 0.49960
 O169 O 0.54265 -0.02278 0.49959
 O170 O 0.45640 0.02302 0.49985
 H171 H 0.49989 0.03461 0.56856
 H172 H 0.43885 -0.03435 0.49953
 H173 H 0.49968 0.03442 0.43112
 H174 H 0.56030 -0.03437 0.49956
 H175 H 0.40700 -0.00487 0.52494
 H176 H 0.40727 0.01160 0.47143
 H177 H 0.47385 -0.01245 0.39469
 H178 H 0.52499 -0.01195 0.39468
 H179 H 0.59236 0.01145 0.47078
 H180 H 0.59239 0.01053 0.52816
 H181 H 0.52290 -0.01170 0.60417
 H182 H 0.44708 0.00127 0.60514
 O183 O 0.54237 0.54619 0.06068
 O184 O 0.57506 0.52236 0.02835
 C185 C 0.56903 0.53962 0.05129
 O186 O 0.45816 0.45250 0.05867
 O187 O 0.42466 0.47783 0.02955
 C188 C 0.43127 0.45930 0.05046
 O189 O 0.54115 0.45465 0.06153
 O190 O 0.57447 0.47774 0.02907
 C191 C 0.56799 0.46078 0.05221
 O192 O 0.45928 0.54926 0.05853
 O193 O 0.42519 0.52453 0.02908
 C194 C 0.43223 0.54298 0.05012
 Zr195 Zr 0.50038 0.53333 0.04269
 O196 O 0.49786 0.53230 0.09618
 O197 O 0.50414 0.57439 0.04365
 Zr198 Zr 0.49960 0.46832 0.04364
 O199 O 0.49902 0.47365 0.09666
 O200 O 0.50001 0.42747 0.04977
 O201 O 0.52710 0.50065 0.04936
 O202 O 0.47355 0.50102 0.04959
 O203 O 0.45808 0.54833 -0.05778
 O204 O 0.42461 0.52386 -0.02731
 C205 C 0.43122 0.54201 -0.04879
 O206 O 0.53995 0.45364 -0.06081
 O207 O 0.57390 0.47723 -0.02960
 C208 C 0.56697 0.45993 -0.05225
 O209 O 0.45688 0.45202 -0.05676
 O210 O 0.42405 0.47732 -0.02660
 C211 C 0.43020 0.45869 -0.04765
 O212 O 0.54113 0.54544 -0.06178
 O213 O 0.57449 0.52171 -0.03026
 C214 C 0.56798 0.53889 -0.05309
 Zr215 Zr 0.49951 0.53249 -0.04294
 O216 O 0.49553 0.52983 -0.09626
 O217 O 0.50305 0.57346 -0.04618
 Zr218 Zr 0.49870 0.46734 -0.04199
 O219 O 0.49483 0.46835 -0.09539
 O220 O 0.50099 0.42622 -0.04272
 Zr221 Zr 0.54442 0.50001 -0.00024
 Zr222 Zr 0.45459 0.50071 0.00086
 O223 O 0.47267 0.50006 -0.04826
 O224 O 0.52603 0.49966 -0.04941
 O225 O 0.47348 0.53835 0.00011
 O226 O 0.52495 0.46272 0.00058
 O227 O 0.52582 0.53761 -0.00048
 O228 O 0.47264 0.46282 0.00119
 H229 H 0.45996 0.50123 0.06937
 H230 H 0.53793 0.44715 0.00056
 H231 H 0.45874 0.49996 -0.06777
 H232 H 0.53907 0.55307 -0.00079
 H233 H 0.50403 0.41984 0.02730
 H234 H 0.48607 0.41965 -0.02637
 H235 H 0.51294 0.47692 -0.10440
 H236 H 0.51416 0.52206 -0.10509
 H237 H 0.48989 0.58084 -0.02857
 H238 H 0.48881 0.58141 0.02816
 H239 H 0.51491 0.52186 0.10446
 H240 H 0.49808 0.45598 0.10656
 C241 C 1.22845 0.23112 0.22163
 C242 C 1.21277 0.21761 0.20410
 C243 C 1.19346 0.20159 0.18371
 C244 C 1.16322 0.20796 0.18045
 C245 C 1.14411 0.19198 0.16164
 C246 C 1.15502 0.16938 0.14583
 C247 C 1.18554 0.16331 0.14895
 C248 C 1.20461 0.17931 0.16781
 C249 C 1.13454 0.15180 0.12700
 C250 C 1.14368 0.14003 0.09657
 C251 C 1.12492 0.12247 0.07978
 C252 C 1.09681 0.11648 0.09313
 C253 C 1.08730 0.12842 0.12305
 C254 C 1.10601 0.14601 0.13987
 C255 C 1.07853 0.09694 0.07720
 C256 C 1.06389 0.07989 0.06433
 H257 H 1.15438 0.22518 0.19267
 H258 H 1.12081 0.19732 0.15937
 H259 H 1.19452 0.14586 0.13748
 H260 H 1.22795 0.17415 0.17032
 H261 H 1.16535 0.14435 0.08582
 H262 H 1.13251 0.11327 0.05666
 H263 H 1.06566 0.12376 0.13372
 H264 H 1.09849 0.15449 0.16346
 C265 C 1.22741 0.73127 0.72247
 C266 C 1.21154 0.71916 0.70353
 C267 C 1.19244 0.70414 0.68173
 C268 C 1.16209 0.71025 0.67907
 C269 C 1.14311 0.69460 0.65962
 C270 C 1.15430 0.67262 0.64263
 C271 C 1.18496 0.66695 0.64497
 C272 C 1.20388 0.68261 0.66444
 C273 C 1.13396 0.65497 0.62380
 C274 C 1.14285 0.64386 0.59287
 C275 C 1.12450 0.62582 0.57638
 C276 C 1.09707 0.61870 0.59056
 C277 C 1.08772 0.63008 0.62091
 C278 C 1.10601 0.64814 0.63743
 C279 C 1.07936 0.59866 0.57497
 C280 C 1.06508 0.58132 0.56231
 H281 H 1.15303 0.72688 0.69241
 H282 H 1.11967 0.69960 0.65798
 H283 H 1.19414 0.64994 0.63261
 H284 H 1.22730 0.67762 0.66656
 H285 H 1.16408 0.64899 0.58158
 H286 H 1.13194 0.61709 0.55290
 H287 H 1.06660 0.62455 0.63219
 H288 H 1.09873 0.65609 0.66142
 C289 C 0.72456 0.23266 0.72753
 C290 C 0.70797 0.21908 0.71110
 C291 C 0.68872 0.20247 0.69130
 C292 C 0.65889 0.20930 0.68557
 C293 C 0.64032 0.19300 0.66638
 C294 C 0.65139 0.16967 0.65261
 C295 C 0.68143 0.16304 0.65850
 C296 C 0.69992 0.17932 0.67769
 C297 C 0.63170 0.15207 0.63260
 C298 C 0.64266 0.13925 0.60368
 C299 C 0.62463 0.12171 0.58582
 C300 C 0.59539 0.11676 0.59651
 C301 C 0.58407 0.12975 0.62487
 C302 C 0.60207 0.14733 0.64278
 C303 C 0.57767 0.09729 0.57946
 C304 C 0.56347 0.08033 0.56568
 H305 H 0.65000 0.22722 0.69588
 H306 H 0.61740 0.19879 0.66201
 H307 H 0.69053 0.14504 0.64872
 H308 H 0.72295 0.17380 0.68202
 H309 H 0.66521 0.14274 0.59491
 H310 H 0.63365 0.11174 0.56394
 H311 H 0.56155 0.12591 0.63353
 H312 H 0.59308 0.15663 0.66513
 C313 C 0.73084 0.72293 0.22354
 C314 C 0.71947 0.70610 0.20659
 C315 C 0.70621 0.68567 0.18667
 C316 C 0.68163 0.69095 0.16595
 C317 C 0.66843 0.67100 0.14705
 C318 C 0.67965 0.64547 0.14866
 C319 C 0.70448 0.64039 0.16944
 C320 C 0.71769 0.66040 0.18828
 C321 C 0.66484 0.62419 0.12950
 C322 C 0.65967 0.59987 0.14474
 C323 C 0.64333 0.58064 0.12773
 C324 C 0.63218 0.58544 0.09524
 C325 C 0.63815 0.60922 0.07944
 C326 C 0.65440 0.62847 0.09641
 C327 C 0.61186 0.56739 0.07952
 C328 C 0.59318 0.55373 0.06652
 H329 H 0.67251 0.71042 0.16463
 H330 H 0.64904 0.67542 0.13172
 H331 H 0.71375 0.62099 0.17095
 H332 H 0.73677 0.65613 0.20420
 H333 H 0.66717 0.59611 0.17032
 H334 H 0.63852 0.56242 0.14034
 H335 H 0.62944 0.61320 0.05439
 H336 H 0.65838 0.64686 0.08387
 C337 C 0.77260 -0.23223 0.22357
 C338 C 0.78906 -0.21886 0.20692
 C339 C 0.80921 -0.20295 0.18760
 C340 C 0.84007 -0.20555 0.19205
 C341 C 0.85976 -0.18964 0.17406
 C342 C 0.84879 -0.17090 0.15135
 C343 C 0.81772 -0.16862 0.14681
 C344 C 0.79807 -0.18455 0.16486
 C345 C 0.86958 -0.15334 0.13312
 C346 C 0.86438 -0.14679 0.09907
 C347 C 0.88313 -0.12921 0.08247
 C348 C 0.90732 -0.11799 0.09962
 C349 C 0.91302 -0.12474 0.13328
 C350 C 0.89431 -0.14234 0.14994
 C351 C 0.92511 -0.09840 0.08328
 C352 C 0.93909 -0.08134 0.06965
 H353 H 0.84892 -0.21979 0.20956
 H354 H 0.88355 -0.19204 0.17780
 H355 H 0.80859 -0.15414 0.12988
 H356 H 0.77421 -0.18232 0.16134
 H357 H 0.84576 -0.15520 0.08534
 H358 H 0.87849 -0.12406 0.05642
 H359 H 0.93154 -0.11600 0.14687
 H360 H 0.89868 -0.14675 0.17626
 C361 C 0.77531 0.26979 0.72356
 C362 C 0.79210 0.28186 0.70569
 C363 C 0.81225 0.29687 0.68521
 C364 C 0.84312 0.29461 0.68988
 C365 C 0.86268 0.31044 0.67157
 C366 C 0.85157 0.32875 0.64836
 C367 C 0.82051 0.33052 0.64342
 C368 C 0.80099 0.31470 0.66178
 C369 C 0.87213 0.34667 0.63037
 C370 C 0.86711 0.35313 0.59626
 C371 C 0.88543 0.37123 0.57998
 C372 C 0.90899 0.38308 0.59754
 C373 C 0.91455 0.37640 0.63126
 C374 C 0.89627 0.35828 0.64758
 C375 C 0.92640 0.40306 0.58146
 C376 C 0.94019 0.42030 0.56794
 H377 H 0.85205 0.28088 0.70801
 H378 H 0.88649 0.30842 0.67563
 H379 H 0.81125 0.34468 0.62610
 H380 H 0.77712 0.31673 0.65815
 H381 H 0.84894 0.34426 0.58224
 H382 H 0.88092 0.37628 0.55387
 H383 H 0.93261 0.38558 0.64514
 H384 H 0.90047 0.35396 0.67396
 C385 C 0.27744 -0.23144 0.72906
 C386 C 0.29462 -0.21816 0.71319
 C387 C 0.31462 -0.20212 0.69381
 C388 C 0.34551 -0.20355 0.69897
 C389 C 0.36480 -0.18772 0.68022
 C390 C 0.35340 -0.17030 0.65603
 C391 C 0.32232 -0.16913 0.65096
 C392 C 0.30310 -0.18493 0.66973
 C393 C 0.37366 -0.15296 0.63663
 C394 C 0.36831 -0.14794 0.60216
 C395 C 0.38630 -0.13040 0.58443
 C396 C 0.40990 -0.11769 0.60084
 C397 C 0.41582 -0.12297 0.63492
 C398 C 0.39787 -0.14052 0.65271
 C399 C 0.42678 -0.09805 0.58331
 C400 C 0.44008 -0.08095 0.56889
 H401 H 0.35466 -0.21685 0.71748
 H402 H 0.38863 -0.18926 0.68445
 H403 H 0.31281 -0.15564 0.63293
 H404 H 0.27922 -0.18362 0.66561
 H405 H 0.35010 -0.15747 0.58896
 H406 H 0.38148 -0.12643 0.55807
 H407 H 0.43391 -0.11309 0.64794
 H408 H 0.40235 -0.14373 0.67930
 C409 C 0.27021 0.27596 0.22361
 C410 C 0.28232 0.29267 0.20725
 C411 C 0.29637 0.31309 0.18815
 C412 C 0.32192 0.32542 0.20085
 C413 C 0.33522 0.34569 0.18279
 C414 C 0.32310 0.35395 0.15175
 C415 C 0.29743 0.34139 0.13913
 C416 C 0.28413 0.32112 0.15729
 C417 C 0.33765 0.37521 0.13241
 C418 C 0.34115 0.37326 0.09712
 C419 C 0.35704 0.39227 0.07935
 C420 C 0.36943 0.41354 0.09657
 C421 C 0.36521 0.41609 0.13148
 C422 C 0.34937 0.39710 0.14929
 C423 C 0.38926 0.43107 0.07927
 C424 C 0.40753 0.44469 0.06561
 H425 H 0.33155 0.31937 0.22474
 H426 H 0.35526 0.35465 0.19288
 H427 H 0.28746 0.34745 0.11547
 H428 H 0.26422 0.31181 0.14735
 H429 H 0.33265 0.35651 0.08346
 H430 H 0.36051 0.38993 0.05239
 H431 H 0.37492 0.43236 0.14511
 H432 H 0.34666 0.39934 0.17636
 C433 C 0.77307 0.23203 -0.22102
 C434 C 0.78883 0.21850 -0.20371
 C435 C 0.80821 0.20236 -0.18371
 C436 C 0.83920 0.20547 -0.18595
 C437 C 0.85821 0.18926 -0.16749
 C438 C 0.84645 0.16968 -0.14652
 C439 C 0.81523 0.16692 -0.14412
 C440 C 0.79626 0.18314 -0.16263
 C441 C 0.86662 0.15175 -0.12798
 C442 C 0.85993 0.14386 -0.09476
 C443 C 0.87831 0.12611 -0.07792
 C444 C 0.90359 0.11604 -0.09404
 C445 C 0.91067 0.12405 -0.12688
 C446 C 0.89235 0.14180 -0.14374
 C447 C 0.92137 0.09646 -0.07763
 C448 C 0.93568 0.07945 -0.06437
 H449 H 0.84869 0.22031 -0.20216
 H450 H 0.88211 0.19210 -0.16955
 H451 H 0.80549 0.15181 -0.12856
 H452 H 0.77230 0.18049 -0.16082
 H453 H 0.84049 0.15140 -0.08181
 H454 H 0.87258 0.12000 -0.05252
 H455 H 0.93005 0.11621 -0.13968
 H456 H 0.89788 0.14719 -0.16945
 C457 C 0.77266 0.73079 0.27961
 C458 C 0.78901 0.71916 0.29839
 C459 C 0.80892 0.70463 0.31965
 C460 C 0.83979 0.70827 0.31688
 C461 C 0.85934 0.69264 0.33540
 C462 C 0.84819 0.67313 0.35689
 C463 C 0.81709 0.67007 0.36014
 C464 C 0.79759 0.68571 0.34157
 C465 C 0.86883 0.65514 0.37449
 C466 C 0.86308 0.64709 0.40785
 C467 C 0.88150 0.62879 0.42351
 C468 C 0.90586 0.61836 0.40604
 C469 C 0.91212 0.62663 0.37312
 C470 C 0.89376 0.64493 0.35743
 C471 C 0.92349 0.59819 0.42121
 C472 C 0.93770 0.58082 0.43369
 H473 H 0.84877 0.72285 0.29990
 H474 H 0.88316 0.69564 0.33270
 H475 H 0.80785 0.65499 0.37612
 H476 H 0.77372 0.68263 0.34368
 H477 H 0.84424 0.65483 0.42173
 H478 H 0.87648 0.62249 0.44903
 H479 H 0.93083 0.61854 0.35932
 H480 H 0.89851 0.65046 0.33157
 C481 C 0.27687 0.23238 0.27321
 C482 C 0.29361 0.21918 0.28977
 C483 C 0.31307 0.20310 0.30977
 C484 C 0.34411 0.20581 0.30733
 C485 C 0.36291 0.18980 0.32640
 C486 C 0.35087 0.17087 0.34821
 C487 C 0.31963 0.16846 0.35063
 C488 C 0.30090 0.18446 0.33154
 C489 C 0.37069 0.15323 0.36770
 C490 C 0.36361 0.14624 0.40116
 C491 C 0.38139 0.12852 0.41882
 C492 C 0.40649 0.11759 0.40334
 C493 C 0.41406 0.12479 0.37031
 C494 C 0.39633 0.14252 0.35261
 C495 C 0.42349 0.09790 0.42056
 C496 C 0.43718 0.08077 0.43439
 H497 H 0.35377 0.22022 0.29061
 H498 H 0.38684 0.19231 0.32426
 H499 H 0.30965 0.15383 0.36676
 H500 H 0.27691 0.18214 0.33354
 H501 H 0.34425 0.15441 0.41363
 H502 H 0.37529 0.12305 0.44436
 H503 H 0.43333 0.11631 0.35799
 H504 H 0.40217 0.14724 0.32676
 C505 C 0.26981 0.72503 -0.22173
 C506 C 0.28197 0.70859 -0.20502
 C507 C 0.29636 0.68849 -0.18576
 C508 C 0.32663 0.68324 -0.19094
 C509 C 0.34046 0.66306 -0.17330
 C510 C 0.32415 0.64782 -0.15022
 C511 C 0.29379 0.65342 -0.14488
 C512 C 0.27997 0.67361 -0.16264
 C513 C 0.33895 0.62624 -0.13191
 C514 C 0.33395 0.62234 -0.09713
 C515 C 0.34974 0.60317 -0.07953
 C516 C 0.37044 0.58756 -0.09658
 C517 C 0.37478 0.59076 -0.13136
 C518 C 0.35914 0.60992 -0.14893
 C519 C 0.38959 0.57014 -0.07823
 C520 C 0.40756 0.55658 -0.06405
 H521 H 0.33952 0.69466 -0.20875
 H522 H 0.36399 0.65950 -0.17752
 H523 H 0.28065 0.64189 -0.12747
 H524 H 0.25646 0.67744 -0.15859
 H525 H 0.31870 0.63475 -0.08333
 H526 H 0.34646 0.60105 -0.05253
 H527 H 0.39089 0.57890 -0.14476
 H528 H 0.36311 0.61219 -0.17579
 C529 C 1.22695 -0.23098 -0.22202
 C530 C 1.21031 -0.21776 -0.20542
 C531 C 1.18993 -0.20209 -0.18614
 C532 C 1.15911 -0.20547 -0.19020
 C533 C 1.13918 -0.18985 -0.17215
 C534 C 1.14986 -0.17065 -0.14977
 C535 C 1.18091 -0.16757 -0.14565
 C536 C 1.20079 -0.18320 -0.16375
 C537 C 1.12880 -0.15344 -0.13144
 C538 C 1.13418 -0.14648 -0.09753
 C539 C 1.11519 -0.12916 -0.08086
 C540 C 1.09058 -0.11863 -0.09781
 C541 C 1.08470 -0.12582 -0.13133
 C542 C 1.10364 -0.14316 -0.14804
 C543 C 1.07266 -0.09914 -0.08152
 C544 C 1.05870 -0.08207 -0.06795
 H545 H 1.15048 -0.22009 -0.20744
 H546 H 1.11542 -0.19287 -0.17557
 H547 H 1.18981 -0.15271 -0.12898
 H548 H 1.22462 -0.18037 -0.16053
 H549 H 1.15314 -0.15433 -0.08397
 H550 H 1.12000 -0.12364 -0.05494
 H551 H 1.06586 -0.11759 -0.14477
 H552 H 1.09913 -0.14789 -0.17427
 C553 C 1.22582 0.26881 0.27710
 C554 C 1.20887 0.28063 0.29501
 C555 C 1.18850 0.29532 0.31553
 C556 C 1.15768 0.29270 0.31064
 C557 C 1.13787 0.30826 0.32896
 C558 C 1.14871 0.32666 0.35237
 C559 C 1.17972 0.32876 0.35756
 C560 C 1.19947 0.31320 0.33921
 C561 C 1.12794 0.34441 0.37021
 C562 C 1.13266 0.35094 0.40438
 C563 C 1.11429 0.36908 0.42044
 C564 C 1.09099 0.38088 0.40259
 C565 C 1.08567 0.37409 0.36882
 C566 C 1.10399 0.35593 0.35272
 C567 C 1.07378 0.40111 0.41832
 C568 C 1.06024 0.41861 0.43146
 H569 H 1.14897 0.27892 0.29231
 H570 H 1.11411 0.30601 0.32469
 H571 H 1.18876 0.34301 0.37503
 H572 H 1.22331 0.31550 0.34298
 H573 H 1.15069 0.34215 0.41860
 H574 H 1.11861 0.37425 0.44659
 H575 H 1.06781 0.38326 0.35472
 H576 H 1.10003 0.35156 0.32627
 C577 C 0.72171 -0.23282 0.27164
 C578 C 0.70415 -0.21919 0.28641
 C579 C 0.68377 -0.20238 0.30406
 C580 C 0.66639 -0.21195 0.33072
 C581 C 0.64752 -0.19522 0.34866
 C582 C 0.64592 -0.16868 0.34020
 C583 C 0.66317 -0.15938 0.31304
 C584 C 0.68196 -0.17611 0.29514
 C585 C 0.62697 -0.15056 0.36004
 C586 C 0.63766 -0.12560 0.36839
 C587 C 0.61990 -0.10830 0.38666
 C588 C 0.59121 -0.11563 0.39692
 C589 C 0.58037 -0.14048 0.38902
 C590 C 0.59818 -0.15790 0.37073
 C591 C 0.57307 -0.09720 0.41502
 C592 C 0.55909 -0.08068 0.42974
 H593 H 0.66771 -0.23224 0.33791
 H594 H 0.63475 -0.20290 0.36965
 H595 H 0.66210 -0.13914 0.30558
 H596 H 0.69527 -0.16851 0.27452
 H597 H 0.65990 -0.11953 0.36105
 H598 H 0.62854 -0.08914 0.39271
 H599 H 0.55815 -0.14632 0.39675
 H600 H 0.58926 -0.17690 0.36445
 C601 C 0.73089 0.27666 -0.22299
 C602 C 0.71871 0.29342 -0.20675
 C603 C 0.70466 0.31393 -0.18775
 C604 C 0.68390 0.30802 -0.16247
 C605 C 0.67013 0.32803 -0.14429
 C606 C 0.67693 0.35425 -0.15118
 C607 C 0.69796 0.35996 -0.17653
 C608 C 0.71173 0.33993 -0.19465
 C609 C 0.66152 0.37548 -0.13260
 C610 C 0.65140 0.39772 -0.14985
 C611 C 0.63502 0.41682 -0.13284
 C612 C 0.62870 0.41404 -0.09837
 C613 C 0.63941 0.39237 -0.08078
 C614 C 0.65575 0.37323 -0.09774
 C615 C 0.60871 0.43188 -0.08184
 C616 C 0.59049 0.44555 -0.06818
 H617 H 0.67821 0.28798 -0.15697
 H618 H 0.65370 0.32300 -0.12531
 H619 H 0.70390 0.37992 -0.18218
 H620 H 0.72786 0.34471 -0.21409
 H621 H 0.65516 0.39988 -0.17675
 H622 H 0.62652 0.43335 -0.14680
 H623 H 0.63447 0.38991 -0.05415
 H624 H 0.66358 0.35652 -0.08367
 C625 C 1.22743 0.23027 -0.22228
 C626 C 1.21176 0.21642 -0.20528
 C627 C 1.19269 0.19995 -0.18532
 C628 C 1.16565 0.20953 -0.17276
 C629 C 1.14673 0.19335 -0.15407
 C630 C 1.15468 0.16736 -0.14768
 C631 C 1.18201 0.15797 -0.16026
 C632 C 1.20086 0.17417 -0.17897
 C633 C 1.13441 0.14992 -0.12846
 C634 C 1.14603 0.13221 -0.10480
 C635 C 1.12713 0.11497 -0.08783
 C636 C 1.09639 0.11520 -0.09420
 C637 C 1.08451 0.13303 -0.11726
 C638 C 1.10338 0.15034 -0.13425
 C639 C 1.07747 0.09618 -0.07828
 C640 C 1.06257 0.07943 -0.06523
 H641 H 1.15912 0.22947 -0.17752
 H642 H 1.12601 0.20121 -0.14441
 H643 H 1.18856 0.13795 -0.15621
 H644 H 1.22167 0.16652 -0.18873
 H645 H 1.16975 0.13166 -0.09945
 H646 H 1.13657 0.10123 -0.07005
 H647 H 1.06076 0.13326 -0.12253
 H648 H 1.09381 0.16355 -0.15258
 C649 C 1.22809 0.73143 0.27487
 C650 C 1.21221 0.71883 0.29323
 C651 C 1.19302 0.70330 0.31430
 C652 C 1.20472 0.68225 0.33233
 C653 C 1.18582 0.66622 0.35123
 C654 C 1.15489 0.67099 0.35228
 C655 C 1.14341 0.69245 0.33448
 C656 C 1.16237 0.70847 0.31561
 C657 C 1.13465 0.65310 0.37086
 C658 C 1.10707 0.64560 0.35670
 C659 C 1.08872 0.62766 0.37328
 C660 C 1.09763 0.61703 0.40425
 C661 C 1.12474 0.62472 0.41886
 C662 C 1.14314 0.64264 0.40231
 C663 C 1.07969 0.59729 0.42019
 C664 C 1.06522 0.58022 0.43319
 H665 H 1.22838 0.67796 0.33128
 H666 H 1.19530 0.64965 0.36423
 H667 H 1.11977 0.69681 0.33510
 H668 H 1.15306 0.72469 0.30169
 H669 H 1.10006 0.65301 0.33233
 H670 H 1.06786 0.62172 0.36165
 H671 H 1.13186 0.61661 0.44283
 H672 H 1.16405 0.64828 0.41406
 C673 C 0.72262 0.23232 0.27142
 C674 C 0.70596 0.21884 0.28776
 C675 C 0.68670 0.20235 0.30755
 C676 C 0.69790 0.17927 0.32128
 C677 C 0.67945 0.16314 0.34057
 C678 C 0.64944 0.16986 0.34644
 C679 C 0.63835 0.19311 0.33252
 C680 C 0.65690 0.20925 0.31324
 C681 C 0.62982 0.15243 0.36660
 C682 C 0.60017 0.14757 0.35645
 C683 C 0.58228 0.13006 0.37445
 C684 C 0.59371 0.11728 0.40288
 C685 C 0.62295 0.12239 0.41357
 C686 C 0.64088 0.13985 0.39561
 C687 C 0.57618 0.09780 0.41996
 C688 C 0.56221 0.08078 0.43379
 H689 H 0.72091 0.17369 0.31697
 H690 H 0.68853 0.14519 0.35044
 H691 H 0.61546 0.19894 0.33685
 H692 H 0.64801 0.22712 0.30283
 H693 H 0.59111 0.15670 0.33402
 H694 H 0.55975 0.12612 0.36579
 H695 H 0.63206 0.11258 0.43551
 H696 H 0.66345 0.14344 0.40435
 C697 C 0.73015 0.72246 -0.22499
 C698 C 0.71846 0.70567 -0.20833
 C699 C 0.70480 0.68528 -0.18874
 C700 C 0.71614 0.65994 -0.19019
 C701 C 0.70262 0.64001 -0.17162
 C702 C 0.67759 0.64519 -0.15125
 C703 C 0.66648 0.67078 -0.14981
 C704 C 0.68000 0.69066 -0.16844
 C705 C 0.66256 0.62399 -0.13221
 C706 C 0.65175 0.62844 -0.09932
 C707 C 0.63562 0.60917 -0.08237
 C708 C 0.63010 0.58516 -0.09798
 C709 C 0.64151 0.58024 -0.13030
 C710 C 0.65774 0.59949 -0.14729
 C711 C 0.61014 0.56690 -0.08211
 C712 C 0.59180 0.55309 -0.06883
 H713 H 0.73539 0.65558 -0.20576
 H714 H 0.71185 0.62058 -0.17299
 H715 H 0.64696 0.67532 -0.13480
 H716 H 0.67097 0.71017 -0.16722
 H717 H 0.65546 0.64695 -0.08685
 H718 H 0.62674 0.61326 -0.05744
 H719 H 0.63708 0.56185 -0.14279
 H720 H 0.66551 0.59557 -0.17272
 C721 C 0.77213 -0.23266 -0.22410
 C722 C 0.78836 -0.21921 -0.20708
 C723 C 0.80816 -0.20316 -0.18728
 C724 C 0.79720 -0.18122 -0.17044
 C725 C 0.81660 -0.16524 -0.15198
 C726 C 0.84729 -0.17098 -0.15015
 C727 C 0.85806 -0.19319 -0.16700
 C728 C 0.83860 -0.20916 -0.18542
 C729 C 0.86800 -0.15354 -0.13135
 C730 C 0.89618 -0.14717 -0.14480
 C731 C 0.91502 -0.12970 -0.12789
 C732 C 0.90603 -0.11848 -0.09729
 C733 C 0.87830 -0.12508 -0.08339
 C734 C 0.85942 -0.14250 -0.10026
 C735 C 0.92429 -0.09902 -0.08107
 C736 C 0.93856 -0.08200 -0.06755
 H737 H 0.77371 -0.17632 -0.17185
 H738 H 0.80770 -0.14808 -0.13972
 H739 H 0.88148 -0.19828 -0.16577
 H740 H 0.84731 -0.22612 -0.19834
 H741 H 0.90327 -0.15509 -0.16888
 H742 H 0.93634 -0.12457 -0.13902
 H743 H 0.87108 -0.11646 -0.05975
 H744 H 0.83806 -0.14728 -0.08904
 C745 C 0.77351 0.26920 0.27611
 C746 C 0.79024 0.28120 0.29423
 C747 C 0.81031 0.29616 0.31502
 C748 C 0.79928 0.31650 0.33491
 C749 C 0.81892 0.33217 0.35345
 C750 C 0.84990 0.32773 0.35226
 C751 C 0.86074 0.30695 0.33262
 C752 C 0.84104 0.29127 0.31411
 C753 C 0.87077 0.34539 0.37037
 C754 C 0.89723 0.35392 0.35468
 C755 C 0.91586 0.37197 0.37079
 C756 C 0.90835 0.38162 0.40277
 C757 C 0.88246 0.37279 0.41892
 C758 C 0.86379 0.35477 0.40286
 C759 C 0.92616 0.40168 0.41827
 C760 C 0.94016 0.41906 0.43130
 H761 H 0.77555 0.32056 0.33558
 H762 H 0.80993 0.34825 0.36791
 H763 H 0.88443 0.30289 0.33149
 H764 H 0.84980 0.27559 0.29873
 H765 H 0.90301 0.34730 0.32952
 H766 H 0.93576 0.37881 0.35800
 H767 H 0.87644 0.38016 0.44368
 H768 H 0.84378 0.34831 0.41574
 C769 C 0.27507 -0.23238 0.27004
 C770 C 0.29202 -0.21878 0.28602
 C771 C 0.31173 -0.20216 0.30529
 C772 C 0.30094 -0.17888 0.31895
 C773 C 0.31985 -0.16263 0.33768
 C774 C 0.34993 -0.16941 0.34307
 C775 C 0.36061 -0.19285 0.32917
 C776 C 0.34162 -0.20911 0.31045
 C777 C 0.37000 -0.15193 0.36285
 C778 C 0.39962 -0.14740 0.35243
 C779 C 0.41794 -0.12998 0.37024
 C780 C 0.40698 -0.11696 0.39878
 C781 C 0.37775 -0.12173 0.40969
 C782 C 0.35941 -0.13908 0.39192
 C783 C 0.42496 -0.09767 0.41591
 C784 C 0.43902 -0.08079 0.43011
 H785 H 0.27790 -0.17323 0.31502
 H786 H 0.31103 -0.14455 0.34754
 H787 H 0.38354 -0.19876 0.33315
 H788 H 0.35022 -0.22711 0.30006
 H789 H 0.40835 -0.15676 0.32998
 H790 H 0.44045 -0.12632 0.36140
 H791 H 0.36898 -0.11176 0.43170
 H792 H 0.33690 -0.14243 0.40093
 C793 C 0.26958 0.27484 -0.22186
 C794 C 0.28143 0.29123 -0.20457
 C795 C 0.29491 0.31137 -0.18426
 C796 C 0.28274 0.33643 -0.18423
 C797 C 0.29594 0.35618 -0.16492
 C798 C 0.32149 0.35110 -0.14529
 C799 C 0.33343 0.32578 -0.14532
 C800 C 0.32022 0.30607 -0.16469
 C801 C 0.33619 0.37220 -0.12561
 C802 C 0.34790 0.36728 -0.09319
 C803 C 0.36373 0.38658 -0.07577
 C804 C 0.36804 0.41107 -0.09042
 C805 C 0.35572 0.41642 -0.12221
 C806 C 0.33981 0.39715 -0.13967
 C807 C 0.38786 0.42949 -0.07450
 C808 C 0.40620 0.44369 -0.06181
 H809 H 0.26308 0.34072 -0.19922
 H810 H 0.28605 0.37539 -0.16516
 H811 H 0.35336 0.32135 -0.13090
 H812 H 0.32988 0.28676 -0.16459
 H813 H 0.34514 0.34840 -0.08151
 H814 H 0.37337 0.38216 -0.05129
 H815 H 0.35925 0.43519 -0.13399
 H816 H 0.33138 0.40145 -0.16472
 C817 C 1.22758 -0.23174 0.22340
 C818 C 1.21106 -0.21798 0.20731
 C819 C 1.19088 -0.20141 0.18890
 C820 C 1.18058 -0.17839 0.20374
 C821 C 1.16056 -0.16243 0.18631
 C822 C 1.15052 -0.16928 0.15372
 C823 C 1.16106 -0.19245 0.13896
 C824 C 1.18107 -0.20841 0.15648
 C825 C 1.12946 -0.15210 0.13515
 C826 C 1.13319 -0.14742 0.10034
 C827 C 1.11426 -0.13023 0.08328
 C828 C 1.09128 -0.11758 0.10071
 C829 C 1.08700 -0.12250 0.13517
 C830 C 1.10591 -0.13966 0.15228
 C831 C 1.07339 -0.09830 0.08377
 C832 C 1.05935 -0.08142 0.06981
 H833 H 1.18802 -0.17277 0.22881
 H834 H 1.15328 -0.14454 0.19817
 H835 H 1.15352 -0.19839 0.11407
 H836 H 1.18877 -0.22626 0.14480
 H837 H 1.15129 -0.15643 0.08651
 H838 H 1.11794 -0.12641 0.05666
 H839 H 1.06934 -0.11278 0.14895
 H840 H 1.10217 -0.14314 0.17895
 C841 C 1.22551 0.26963 0.72414
 C842 C 1.20897 0.28266 0.70717
 C843 C 1.18923 0.29911 0.68815
 C844 C 1.16683 0.28835 0.66767
 C845 C 1.14699 0.30462 0.65039
 C846 C 1.14930 0.33182 0.65360
 C847 C 1.17211 0.34238 0.67396
 C848 C 1.19190 0.32612 0.69112
 C849 C 1.12803 0.34925 0.63600
 C850 C 1.11669 0.37133 0.65264
 C851 C 1.09796 0.38861 0.63565
 C852 C 1.09022 0.38406 0.60186
 C853 C 1.10082 0.36186 0.58524
 C854 C 1.11955 0.34447 0.60225
 C855 C 1.07301 0.40314 0.58387
 C856 C 1.05958 0.42000 0.56924
 H857 H 1.16449 0.26744 0.66536
 H858 H 1.12951 0.29595 0.63510
 H859 H 1.17475 0.36324 0.67648
 H860 H 1.20916 0.33463 0.70691
 H861 H 1.12244 0.37529 0.67877
 H862 H 1.08994 0.40578 0.64870
 H863 H 1.09514 0.35827 0.55899
 H864 H 1.12813 0.32775 0.58873
 C865 C 0.72173 -0.23320 0.72687
 C866 C 0.70429 -0.21955 0.71190
 C867 C 0.68389 -0.20278 0.69411
 C868 C 0.68538 -0.17585 0.69900
 C869 C 0.66598 -0.15939 0.68149
 C870 C 0.64475 -0.16963 0.65875
 C871 C 0.64339 -0.19676 0.65400
 C872 C 0.66283 -0.21321 0.67160
 C873 C 0.62446 -0.15197 0.63985
 C874 C 0.61811 -0.15633 0.60539
 C875 C 0.60025 -0.13888 0.58729
 C876 C 0.58839 -0.11694 0.60340
 C877 C 0.59410 -0.11275 0.63781
 C878 C 0.61196 -0.13012 0.65592
 C879 C 0.57176 -0.09789 0.58448
 C880 C 0.55862 -0.08108 0.56930
 H881 H 0.70170 -0.16754 0.71620
 H882 H 0.66795 -0.13859 0.68532
 H883 H 0.62712 -0.20526 0.63694
 H884 H 0.66146 -0.23404 0.66762
 H885 H 0.62765 -0.17281 0.59220
 H886 H 0.59615 -0.14224 0.56061
 H887 H 0.58509 -0.09583 0.65055
 H888 H 0.61605 -0.12642 0.68250
 C889 C 0.72955 0.27634 0.22221
 C890 C 0.71773 0.29323 0.20592
 C891 C 0.70418 0.31394 0.18689
 C892 C 0.71135 0.33984 0.19439
 C893 C 0.69807 0.36008 0.17624
 C894 C 0.67743 0.35466 0.15028
 C895 C 0.67055 0.32853 0.14277
 C896 C 0.68384 0.30832 0.16097
 C897 C 0.66242 0.37611 0.13178
 C898 C 0.65711 0.37418 0.09677
 C899 C 0.64100 0.39348 0.07988
 C900 C 0.63009 0.41500 0.09770
 C901 C 0.63600 0.41748 0.13233
 C902 C 0.65213 0.39822 0.14927
 C903 C 0.61010 0.43288 0.08127
 C904 C 0.59177 0.44653 0.06780
 H905 H 0.72717 0.34441 0.21432
 H906 H 0.70406 0.37996 0.18238
 H907 H 0.65441 0.32372 0.12329
 H908 H 0.67809 0.28835 0.15500
 H909 H 0.66508 0.35758 0.08253
 H910 H 0.63636 0.39126 0.05312
 H911 H 0.62731 0.43388 0.14646
 H912 H 0.65554 0.40013 0.17629
 C913 C 0.77145 0.23158 0.22046
 C914 C 0.78737 0.21814 0.20323
 C915 C 0.80701 0.20216 0.18332
 C916 C 0.79532 0.18327 0.16145
 C917 C 0.81453 0.16723 0.14297
 C918 C 0.84571 0.16987 0.14620
 C919 C 0.85720 0.18914 0.16797
 C920 C 0.83796 0.20516 0.18639
 C921 C 0.86611 0.15210 0.12772
 C922 C 0.89150 0.14185 0.14390
 C923 C 0.90999 0.12419 0.12709
 C924 C 0.90343 0.11659 0.09389
 C925 C 0.87852 0.12699 0.07736
 C926 C 0.85997 0.14464 0.09414
 C927 C 0.92128 0.09703 0.07756
 C928 C 0.93566 0.07998 0.06446
 H929 H 0.77139 0.18072 0.15898
 H930 H 0.80499 0.15235 0.12677
 H931 H 0.88107 0.19187 0.17069
 H932 H 0.84724 0.21976 0.20322
 H933 H 0.89661 0.14691 0.16988
 H934 H 0.92907 0.11609 0.14022
 H935 H 0.87319 0.12118 0.05168
 H936 H 0.84081 0.15244 0.08088
 C937 C 0.77272 0.73021 0.71964
 C938 C 0.78921 0.71857 0.70095
 C939 C 0.80924 0.70412 0.67968
 C940 C 0.79797 0.68570 0.65686
 C941 C 0.81752 0.67030 0.63797
 C942 C 0.84863 0.67309 0.64176
 C943 C 0.85972 0.69205 0.66425
 C944 C 0.84012 0.70744 0.68310
 C945 C 0.86932 0.65544 0.62355
 C946 C 0.89421 0.64484 0.64033
 C947 C 0.91263 0.62690 0.62398
 C948 C 0.90651 0.61937 0.59065
 C949 C 0.88219 0.63021 0.57347
 C950 C 0.86371 0.64815 0.58979
 C951 C 0.92407 0.59938 0.57485
 C952 C 0.93815 0.58201 0.56209
 H953 H 0.77410 0.68285 0.65421
 H954 H 0.80830 0.65563 0.62123
 H955 H 0.88353 0.69486 0.66743
 H956 H 0.84906 0.72163 0.70074
 H957 H 0.89887 0.64977 0.66646
 H958 H 0.93126 0.61847 0.63758
 H959 H 0.87723 0.62446 0.54768
 H960 H 0.84493 0.65620 0.57610
 C961 C 0.27609 0.23226 0.72659
 C962 C 0.29277 0.21915 0.70981
 C963 C 0.31222 0.20309 0.68968
 C964 C 0.30002 0.18481 0.66726
 C965 C 0.31872 0.16874 0.64820
 C966 C 0.34997 0.17069 0.65130
 C967 C 0.36203 0.18928 0.67373
 C968 C 0.34326 0.20536 0.69277
 C969 C 0.36977 0.15293 0.63188
 C970 C 0.39510 0.14187 0.64725
 C971 C 0.41284 0.12410 0.62956
 C972 C 0.40560 0.11719 0.59627
 C973 C 0.38078 0.12845 0.58053
 C974 C 0.36299 0.14621 0.59817
 C975 C 0.42269 0.09754 0.57898
 C976 C 0.43652 0.08047 0.56511
 H977 H 0.27602 0.18281 0.66476
 H978 H 0.30871 0.15439 0.63158
 H979 H 0.38598 0.19147 0.67641
 H980 H 0.35296 0.21947 0.70999
 H981 H 0.40072 0.14636 0.67327
 H982 H 0.43188 0.11538 0.64208
 H983 H 0.37493 0.12322 0.55478
 H984 H 0.34390 0.15464 0.58548
 C985 C 0.26889 0.72683 0.22231
 C986 C 0.28158 0.71074 0.20539
 C987 C 0.29660 0.69094 0.18601
 C988 C 0.28072 0.67588 0.16247
 C989 C 0.29506 0.65586 0.14479
 C990 C 0.32546 0.65056 0.15060
 C991 C 0.34126 0.66601 0.17404
 C992 C 0.32692 0.68602 0.19161
 C993 C 0.34073 0.62900 0.13248
 C994 C 0.36121 0.61304 0.14969
 C995 C 0.37690 0.59369 0.13241
 C996 C 0.37236 0.58990 0.09770
 C997 C 0.35150 0.60523 0.08047
 C998 C 0.33568 0.62460 0.09777
 C999 C 0.39125 0.57199 0.07962
 C1000 C 0.40890 0.55800 0.06549
 H1001 H 0.25719 0.67940 0.15808
 H1002 H 0.28224 0.64419 0.12713
 H1003 H 0.36479 0.66272 0.17866
 H1004 H 0.33943 0.69753 0.20976
 H1005 H 0.36526 0.61566 0.17650
 H1006 H 0.39311 0.58208 0.14599
 H1007 H 0.34804 0.60269 0.05352
 H1008 H 0.32025 0.63670 0.08377
   
