data_POSCAR
  _audit_creation_date              2014-09-24
  _audit_creation_method            'ToBaCCo'
  _symmetry_space_group_name_H-M    'P1'
  _symmetry_Int_Tables_number       1
  _symmetry_cell_setting            triclinic
  loop_
  _symmetry_equiv_pos_as_xyz
 x,y,z
_cell_length_a 51.7754
_cell_length_b 18.0750
_cell_length_c 52.4131
_cell_angle_alpha 88.763000
_cell_angle_beta 90.192600
_cell_angle_gamma 86.166700
loop_
  _atom_site_label
  _atom_site_type_symbol
  _atom_site_fract_x
  _atom_site_fract_y
  _atom_site_fract_z
C1 C 0.25317 0.27485 0.25083
 C2 C 0.24680 0.20295 0.25297
 C3 C 0.22513 0.17637 0.23784
 C4 C 0.26218 0.14955 0.26965
 C5 C 0.27117 0.30560 0.26926
 C6 C 0.24217 0.32325 0.22986
 C7 C 0.20038 0.21171 0.23979
 C8 C 0.18107 0.19840 0.22219
 C9 C 0.18569 0.14786 0.20213
 C10 C 0.21031 0.10799 0.20185
 C11 C 0.22972 0.12249 0.21938
 C12 C 0.25216 0.12564 0.29301
 C13 C 0.26867 0.09049 0.31141
 C14 C 0.29521 0.07723 0.30634
 C15 C 0.30468 0.09609 0.28215
 C16 C 0.28832 0.13233 0.26401
 C17 C 0.29464 0.33246 0.26108
 C18 C 0.31332 0.34987 0.27900
 C19 C 0.30871 0.34006 0.30523
 C20 C 0.28460 0.31745 0.31329
 C21 C 0.26588 0.30135 0.29547
 C22 C 0.24727 0.30377 0.20453
 C23 C 0.23175 0.33474 0.18476
 C24 C 0.21083 0.38567 0.19001
 C25 C 0.20733 0.41021 0.21515
 C26 C 0.22301 0.37937 0.23496
 H27 H 0.19629 0.25213 0.25445
 H28 H 0.16236 0.22707 0.22508
 H29 H 0.21586 0.06997 0.18691
 H30 H 0.24882 0.09490 0.21750
 H31 H 0.23206 0.13911 0.29768
 H32 H 0.26098 0.07630 0.32993
 H33 H 0.29633 0.15091 0.24610
 H34 H 0.29899 0.33631 0.24092
 H35 H 0.33180 0.36735 0.27241
 H36 H 0.28050 0.31058 0.33343
 H37 H 0.24763 0.28231 0.30211
 H38 H 0.26207 0.26058 0.20033
 H39 H 0.23530 0.31611 0.16551
 H40 H 0.19134 0.44922 0.21979
 H41 H 0.21876 0.39454 0.25445
 H42 H 0.32509 0.08724 0.27788
 C43 C 0.75056 0.21676 0.25197
 C44 C 0.75177 0.29180 0.25101
 C45 C 0.76700 0.32729 0.23088
 C46 C 0.73812 0.33845 0.27022
 C47 C 0.73133 0.18156 0.26829
 C48 C 0.76887 0.16910 0.23696
 C49 C 0.79071 0.35605 0.23681
 C50 C 0.80787 0.37312 0.21730
 C51 C 0.80145 0.36206 0.19159
 C52 C 0.77687 0.33815 0.18578
 C53 C 0.75983 0.32089 0.20524
 C54 C 0.74432 0.32675 0.29612
 C55 C 0.72782 0.35595 0.31488
 C56 C 0.70482 0.39742 0.30805
 C57 C 0.69974 0.41396 0.28207
 C58 C 0.71637 0.38483 0.26326
 C59 C 0.70486 0.20159 0.26495
 C60 C 0.68685 0.17810 0.28257
 C61 C 0.69494 0.13347 0.30377
 C62 C 0.72135 0.11033 0.30635
 C63 C 0.73941 0.13412 0.28869
 C64 C 0.76036 0.13346 0.21531
 C65 C 0.77836 0.10345 0.19786
 C66 C 0.80503 0.10879 0.20196
 C67 C 0.81341 0.13966 0.22466
 C68 C 0.79546 0.16933 0.24205
 H69 H 0.79663 0.36043 0.25653
 H70 H 0.82671 0.39102 0.22240
 H71 H 0.77111 0.33062 0.16617
 H72 H 0.74157 0.29868 0.20039
 H73 H 0.76113 0.29115 0.30176
 H74 H 0.73253 0.34365 0.33473
 H75 H 0.71124 0.39383 0.24333
 H76 H 0.69828 0.23758 0.24911
 H77 H 0.66661 0.19557 0.27979
 H78 H 0.72817 0.07631 0.32258
 H79 H 0.75978 0.11851 0.29161
 H80 H 0.73987 0.13345 0.21106
 H81 H 0.77141 0.08023 0.18045
 H82 H 0.83385 0.14335 0.22848
 H83 H 0.80229 0.19657 0.25876
 H84 H 0.68210 0.44543 0.27623
 C85 C 0.75396 0.79623 0.74843
 C86 C 0.74822 0.72380 0.75018
 C87 C 0.73061 0.69263 0.73152
 C88 C 0.75977 0.67494 0.77076
 C89 C 0.77534 0.82350 0.76375
 C90 C 0.73835 0.84919 0.73179
 C91 C 0.70684 0.66697 0.73927
 C92 C 0.68856 0.64920 0.72101
 C93 C 0.69390 0.65725 0.69485
 C94 C 0.71833 0.67869 0.68728
 C95 C 0.73660 0.69554 0.70546
 C96 C 0.75437 0.69187 0.79624
 C97 C 0.77011 0.66062 0.81581
 C98 C 0.79156 0.61204 0.81018
 C99 C 0.79551 0.59015 0.78480
 C100 C 0.77959 0.62121 0.76520
 C101 C 0.80051 0.79143 0.76094
 C102 C 0.81977 0.80443 0.77864
 C103 C 0.81450 0.85094 0.79958
 C104 C 0.78948 0.88739 0.80104
 C105 C 0.77015 0.87357 0.78335
 C106 C 0.74818 0.87311 0.70835
 C107 C 0.73152 0.90814 0.69006
 C108 C 0.70500 0.92115 0.69528
 C109 C 0.69570 0.90199 0.71951
 C110 C 0.71222 0.86593 0.73757
 H111 H 0.70195 0.66438 0.75933
 H112 H 0.66983 0.63277 0.72726
 H113 H 0.72305 0.68409 0.66723
 H114 H 0.75507 0.71399 0.69919
 H115 H 0.73905 0.73322 0.80078
 H116 H 0.76624 0.67717 0.83523
 H117 H 0.78410 0.60808 0.74558
 H118 H 0.80495 0.75354 0.74559
 H119 H 0.83884 0.77813 0.77555
 H120 H 0.78396 0.92239 0.81685
 H121 H 0.75073 0.89839 0.78591
 H122 H 0.76827 0.85992 0.70357
 H123 H 0.73910 0.92251 0.67150
 H124 H 0.67530 0.91052 0.72390
 H125 H 0.70436 0.84723 0.75553
 H126 H 0.81194 0.55311 0.77985
 C127 C 0.24072 0.71676 0.74195
 C128 C 0.24531 0.78966 0.74457
 C129 C 0.26348 0.82610 0.72737
 C130 C 0.23265 0.83306 0.76524
 C131 C 0.21908 0.68442 0.75584
 C132 C 0.25838 0.66819 0.72651
 C133 C 0.28603 0.85404 0.73708
 C134 C 0.30508 0.87751 0.72044
 C135 C 0.30173 0.87375 0.69384
 C136 C 0.27845 0.84937 0.68427
 C137 C 0.25950 0.82598 0.70088
 C138 C 0.23636 0.80872 0.79059
 C139 C 0.21972 0.83543 0.80960
 C140 C 0.19898 0.88793 0.80380
 C141 C 0.19721 0.91776 0.77860
 C142 C 0.21385 0.89025 0.75952
 C143 C 0.19391 0.71702 0.75287
 C144 C 0.17465 0.70135 0.77032
 C145 C 0.17989 0.65140 0.79108
 C146 C 0.20470 0.61338 0.79234
 C147 C 0.22408 0.63008 0.77497
 C148 C 0.24997 0.64001 0.70344
 C149 C 0.26805 0.60962 0.68611
 C150 C 0.29469 0.60702 0.69177
 C151 C 0.30273 0.62995 0.71579
 C152 C 0.28473 0.66005 0.73303
 H153 H 0.28946 0.85415 0.75748
 H154 H 0.32286 0.89566 0.72838
 H155 H 0.27504 0.84740 0.66391
 H156 H 0.24204 0.80531 0.69308
 H157 H 0.25119 0.76545 0.79537
 H158 H 0.22318 0.81403 0.82883
 H159 H 0.21071 0.90939 0.73996
 H160 H 0.18958 0.75818 0.73786
 H161 H 0.15565 0.72890 0.76737
 H162 H 0.21012 0.57530 0.80793
 H163 H 0.24347 0.60467 0.77765
 H164 H 0.22970 0.64634 0.69810
 H165 H 0.26136 0.59251 0.66769
 H166 H 0.32309 0.62735 0.72080
 H167 H 0.29148 0.68129 0.75085
 H168 H 0.18165 0.95749 0.77281
 O169 O 1.02559 -0.08572 -0.01718
 O170 O 0.97514 -0.04015 0.03030
 O171 O 0.97535 -0.07383 -0.01798
 O172 O 1.02569 -0.05146 0.03059
 O173 O 1.02630 0.06728 0.02004
 O174 O 0.97509 0.04564 -0.02763
 O175 O 0.97636 0.07888 0.02049
 O176 O 1.02566 0.03278 -0.02810
 Cu177 Cu 1.00030 -0.07443 0.00752
 Cu178 Cu 1.00090 0.06786 -0.00498
 C179 C 1.03423 -0.03412 -0.03084
 C180 C 0.96741 0.02704 0.03380
 C181 C 0.96659 -0.01772 -0.03110
 C182 C 1.03461 0.01160 0.03360
 O183 O 0.52697 0.41874 0.48389
 O184 O 0.47302 0.46161 0.52802
 O185 O 0.47669 0.42847 0.47998
 O186 O 0.52321 0.45162 0.53198
 O187 O 0.52464 0.56987 0.52118
 O188 O 0.47691 0.54769 0.47021
 O189 O 0.47464 0.58083 0.51863
 O190 O 0.52714 0.53734 0.47315
 Cu191 Cu 0.49987 0.42828 0.50696
 Cu192 Cu 0.50084 0.57074 0.49471
 C193 C 0.53619 0.47077 0.47083
 C194 C 0.46496 0.52870 0.53122
 C195 C 0.46883 0.48412 0.46617
 C196 C 0.53192 0.51469 0.53548
 O197 O 0.02441 0.45036 -0.03009
 O198 O -0.02301 0.42857 0.02135
 O199 O -0.02598 0.46231 -0.02711
 O200 O 0.02740 0.41614 0.01824
 O201 O 0.02915 0.53487 0.02637
 O202 O -0.02525 0.58056 -0.01784
 O203 O -0.02103 0.54656 0.03052
 O204 O 0.02491 0.56961 -0.02213
 Cu205 Cu 0.00056 0.42760 -0.00528
 Cu206 Cu 0.00211 0.56952 0.00511
 C207 C 0.03267 0.51373 -0.03500
 C208 C -0.03009 0.48390 0.03480
 C209 C -0.03490 0.52914 -0.03012
 C210 C 0.03754 0.46778 0.02997
 O211 O 0.52613 0.97026 0.47023
 O212 O 0.47997 0.91491 0.51914
 O213 O 0.47634 0.95817 0.47162
 O214 O 0.53014 0.92714 0.51762
 O215 O 0.52468 1.04381 0.52910
 O216 O 0.47009 1.07385 0.48397
 O217 O 0.47494 1.03096 0.53138
 O218 O 0.51994 1.08711 0.48134
 Cu219 Cu 0.50373 0.93102 0.49352
 Cu220 Cu 0.49689 1.07048 0.50764
 C221 C 0.53091 1.03793 0.46733
 C222 C 0.46942 0.96369 0.53356
 C223 C 0.46384 1.02105 0.47009
 C224 C 0.53678 0.98042 0.53106
 C225 C 1.12959 0.18871 0.15869
 C226 C 1.13010 0.12505 0.14353
 C227 C 1.14910 0.06720 0.14938
 C228 C 1.16756 0.07500 0.16872
 C229 C 1.16741 0.13946 0.18355
 C230 C 1.14767 0.19560 0.17814
 C231 C 1.14954 0.00117 0.13604
 C232 C 1.13125 -0.00932 0.11727
 C233 C 1.11203 0.04687 0.11056
 C234 C 1.11217 0.11636 0.12312
 C235 C 1.09472 0.17514 0.11454
 C236 C 1.07732 0.16594 0.09483
 C237 C 1.07599 0.09741 0.08338
 C238 C 1.09294 0.03637 0.09139
 C239 C 1.08967 -0.03308 0.08020
 C240 C 1.07074 -0.04079 0.06159
 C241 C 1.05469 0.02031 0.05321
 C242 C 1.05751 0.08941 0.06411
 H243 H 1.11533 0.23449 0.15612
 H244 H 1.18108 0.02802 0.17289
 H245 H 1.14668 0.24803 0.18773
 H246 H 1.16409 -0.04338 0.14031
 H247 H 1.13318 -0.06169 0.10780
 H248 H 1.09447 0.22996 0.12222
 H249 H 1.06446 0.21287 0.08875
 H250 H 1.10093 -0.08303 0.08588
 H251 H 1.06876 -0.09491 0.05360
 H252 H 1.04481 0.13674 0.05806
 C253 C 0.65044 0.69573 0.63748
 C254 C 0.63548 0.63309 0.63711
 C255 C 0.64040 0.57747 0.65638
 C256 C 0.65902 0.58602 0.67551
 C257 C 0.67364 0.64841 0.67537
 C258 C 0.66916 0.70288 0.65623
 C259 C 0.62695 0.51322 0.65626
 C260 C 0.60919 0.50173 0.63707
 C261 C 0.60371 0.55512 0.61736
 C262 C 0.61630 0.62318 0.61800
 C263 C 0.60912 0.67934 0.59967
 C264 C 0.59108 0.66848 0.58075
 C265 C 0.57966 0.60113 0.57904
 C266 C 0.58584 0.54318 0.59718
 C267 C 0.57414 0.47530 0.59402
 C268 C 0.55684 0.46622 0.57401
 C269 C 0.55052 0.52419 0.55647
 C270 C 0.56205 0.59155 0.55916
 H271 H 0.64865 0.73939 0.62321
 H272 H 0.66265 0.54321 0.69014
 H273 H 0.68021 0.75160 0.65583
 H274 H 0.63047 0.47072 0.67101
 H275 H 0.59970 0.45061 0.63851
 H276 H 0.61673 0.73335 0.59965
 H277 H 0.58618 0.71329 0.56713
 H278 H 0.57824 0.42756 0.60638
 H279 H 0.54834 0.41337 0.57233
 H280 H 0.55748 0.63674 0.54560
 C281 C -0.15809 0.32497 0.13251
 C282 C -0.14084 0.38254 0.13260
 C283 C -0.14385 0.43556 0.15213
 C284 C -0.16270 0.42903 0.17115
 C285 C -0.17918 0.37066 0.17105
 C286 C -0.17675 0.31917 0.15145
 C287 C -0.12802 0.49489 0.15266
 C288 C -0.10940 0.50370 0.13405
 C289 C -0.10552 0.45253 0.11421
 C290 C -0.12094 0.38966 0.11394
 C291 C -0.11571 0.33555 0.09526
 C292 C -0.09655 0.34324 0.07712
 C293 C -0.08211 0.40560 0.07646
 C294 C -0.08651 0.46164 0.09478
 C295 C -0.07193 0.52504 0.09258
 C296 C -0.05370 0.53175 0.07325
 C297 C -0.04917 0.47563 0.05550
 C298 C -0.06340 0.41245 0.05733
 H299 H -0.15779 0.28345 0.11808
 H300 H -0.16471 0.47001 0.18594
 H301 H -0.18905 0.27302 0.15099
 H302 H -0.13014 0.53539 0.16760
 H303 H -0.09796 0.55080 0.13612
 H304 H -0.12580 0.28549 0.09436
 H305 H -0.09321 0.30008 0.06323
 H306 H -0.07444 0.57132 0.10513
 H307 H -0.04310 0.58140 0.07222
 H308 H -0.06028 0.36894 0.04353
 C309 C 0.35731 0.97046 0.66383
 C310 C 0.36318 0.92724 0.64209
 C311 C 0.34839 0.86528 0.63802
 C312 C 0.32843 0.84864 0.65481
 C313 C 0.32273 0.89248 0.67608
 C314 C 0.33743 0.95322 0.68043
 C315 C 0.35360 0.81993 0.61724
 C316 C 0.37382 0.83281 0.60078
 C317 C 0.38928 0.89339 0.60400
 C318 C 0.38326 0.94295 0.62444
 C319 C 0.39718 1.00721 0.62624
 C320 C 0.41639 1.02246 0.60888
 C321 C 0.42304 0.97356 0.58942
 C322 C 0.41008 0.90737 0.58701
 C323 C 0.41862 0.85792 0.56769
 C324 C 0.43831 0.87538 0.55090
 C325 C 0.45006 0.94266 0.55262
 C326 C 0.44252 0.99104 0.57217
 H327 H 0.36788 1.01740 0.66882
 H328 H 0.31758 0.80040 0.65156
 H329 H 0.33342 0.98810 0.69668
 H330 H 0.34210 0.77308 0.61384
 H331 H 0.37643 0.79498 0.58526
 H332 H 0.39324 1.04830 0.64053
 H333 H 0.42623 1.07315 0.61081
 H334 H 0.41067 0.80501 0.56513
 H335 H 0.44397 0.83655 0.53614
 H336 H 0.45180 1.04274 0.57395
 C337 C -0.15716 0.50054 -0.15070
 C338 C -0.14892 0.55351 -0.13337
 C339 C -0.16154 0.62557 -0.13463
 C340 C -0.18123 0.64332 -0.15260
 C341 C -0.18889 0.59049 -0.16978
 C342 C -0.17675 0.51899 -0.16855
 C343 C -0.15432 0.68008 -0.11816
 C344 C -0.13421 0.66575 -0.10085
 C345 C -0.12049 0.59563 -0.09917
 C346 C -0.12844 0.53794 -0.11520
 C347 C -0.11564 0.46671 -0.11252
 C348 C -0.09548 0.45245 -0.09524
 C349 C -0.08698 0.50848 -0.08011
 C350 C -0.09918 0.58103 -0.08188
 C351 C -0.08926 0.63603 -0.06643
 C352 C -0.06842 0.61917 -0.04986
 C353 C -0.05676 0.54707 -0.04797
 C354 C -0.06619 0.49205 -0.06321
 H355 H -0.14866 0.44462 -0.15131
 H356 H -0.19006 0.69942 -0.15374
 H357 H -0.18239 0.47705 -0.18153
 H358 H -0.16416 0.73497 -0.11883
 H359 H -0.13006 0.71114 -0.08887
 H360 H -0.12085 0.42005 -0.12338
 H361 H -0.08629 0.39680 -0.09387
 H362 H -0.09691 0.69288 -0.06679
 H363 H -0.06147 0.66298 -0.03842
 H364 H -0.05723 0.43611 -0.06207
 C365 C 0.35285 0.98051 0.34044
 C366 C 0.35380 1.02045 0.36336
 C367 C 0.33378 1.07615 0.36769
 C368 C 0.31363 1.09006 0.34987
 C369 C 0.31366 1.05216 0.32686
 C370 C 0.33323 0.99686 0.32244
 C371 C 0.33444 1.11961 0.38930
 C372 C 0.35528 1.11201 0.40610
 C373 C 0.37597 1.05846 0.40240
 C374 C 0.37442 1.00902 0.38157
 C375 C 0.39342 0.94963 0.37975
 C376 C 0.41377 0.94038 0.39709
 C377 C 0.41648 0.99100 0.41645
 C378 C 0.39794 1.05167 0.41913
 C379 C 0.40249 1.10384 0.43814
 C380 C 0.42400 1.09430 0.45432
 C381 C 0.44163 1.03249 0.45225
 C382 C 0.43777 0.98124 0.43315
 H383 H 0.36762 0.93883 0.33524
 H384 H 0.29875 1.13389 0.35318
 H385 H 0.33367 0.96727 0.30467
 H386 H 0.31906 1.16179 0.39283
 H387 H 0.35437 1.14813 0.42221
 H388 H 0.39273 0.90789 0.36544
 H389 H 0.42777 0.89355 0.39506
 H390 H 0.39011 1.15348 0.44064
 H391 H 0.42669 1.13532 0.46869
 H392 H 0.45153 0.93387 0.43106
 C393 C 1.14602 -0.00746 -0.16073
 C394 C 1.14012 -0.05863 -0.14112
 C395 C 1.15437 -0.12827 -0.14043
 C396 C 1.17399 -0.14461 -0.15823
 C397 C 1.17983 -0.09330 -0.17766
 C398 C 1.16533 -0.02466 -0.17860
 C399 C 1.14887 -0.18198 -0.12212
 C400 C 1.12931 -0.16861 -0.10449
 C401 C 1.11451 -0.10015 -0.10423
 C402 C 1.12047 -0.04351 -0.12241
 C403 C 1.10683 0.02660 -0.12105
 C404 C 1.08787 0.04083 -0.10284
 C405 C 1.08134 -0.01427 -0.08550
 C406 C 1.09424 -0.08594 -0.08611
 C407 C 1.08613 -0.14042 -0.06859
 C408 C 1.06661 -0.12357 -0.05094
 C409 C 1.05450 -0.05206 -0.05000
 C410 C 1.06192 0.00221 -0.06747
 H411 H 1.13591 0.04626 -0.16308
 H412 H 1.18365 -0.19965 -0.15758
 H413 H 1.16929 0.01768 -0.19269
 H414 H 1.15972 -0.23544 -0.12151
 H415 H 1.12659 -0.21310 -0.09099
 H416 H 1.11067 0.07261 -0.13353
 H417 H 1.07810 0.09576 -0.10242
 H418 H 1.09421 -0.19688 -0.06814
 H419 H 1.06111 -0.16689 -0.03783
 H420 H 1.05247 0.05757 -0.06715
 C421 C 0.65213 0.50401 0.34495
 C422 C 0.64613 0.45235 0.36444
 C423 C 0.66035 0.38253 0.36505
 C424 C 0.67968 0.36595 0.34698
 C425 C 0.68528 0.41763 0.32779
 C426 C 0.67135 0.48667 0.32699
 C427 C 0.65508 0.32909 0.38352
 C428 C 0.63520 0.34187 0.40088
 C429 C 0.62002 0.40971 0.40080
 C430 C 0.62628 0.46697 0.38298
 C431 C 0.61262 0.53701 0.38444
 C432 C 0.59314 0.55032 0.40219
 C433 C 0.58603 0.49420 0.41886
 C434 C 0.59905 0.42272 0.41824
 C435 C 0.59021 0.36705 0.43488
 C436 C 0.56984 0.38262 0.45176
 C437 C 0.55760 0.45399 0.45274
 C438 C 0.56581 0.50940 0.43613
 H439 H 0.64204 0.55779 0.34267
 H440 H 0.68991 0.31157 0.34742
 H441 H 0.67531 0.52758 0.31237
 H442 H 0.66613 0.27596 0.38426
 H443 H 0.63247 0.29748 0.41444
 H444 H 0.61683 0.58361 0.37238
 H445 H 0.58333 0.60518 0.40267
 H446 H 0.59826 0.31054 0.43505
 H447 H 0.56369 0.33843 0.46415
 H448 H 0.55626 0.56463 0.43643
 C449 C 0.87100 -0.19203 -0.15644
 C450 C 0.87078 -0.12831 -0.14127
 C451 C 0.85193 -0.06987 -0.14704
 C452 C 0.83345 -0.07695 -0.16640
 C453 C 0.83347 -0.14124 -0.18113
 C454 C 0.85281 -0.19820 -0.17585
 C455 C 0.85162 -0.00416 -0.13356
 C456 C 0.86989 0.00557 -0.11471
 C457 C 0.88904 -0.05099 -0.10813
 C458 C 0.88881 -0.12017 -0.12088
 C459 C 0.90631 -0.17915 -0.11255
 C460 C 0.92378 -0.17048 -0.09285
 C461 C 0.92513 -0.10233 -0.08114
 C462 C 0.90814 -0.04109 -0.08891
 C463 C 0.91139 0.02796 -0.07744
 C464 C 0.93033 0.03514 -0.05882
 C465 C 0.94646 -0.02611 -0.05069
 C466 C 0.94365 -0.09486 -0.06186
 H467 H 0.88506 -0.23830 -0.15392
 H468 H 0.81975 -0.03032 -0.17056
 H469 H 0.85344 -0.24999 -0.18586
 H470 H 0.83717 0.04069 -0.13777
 H471 H 0.86804 0.05774 -0.10512
 H472 H 0.90658 -0.23370 -0.12045
 H473 H 0.93668 -0.21754 -0.08698
 H474 H 0.90009 0.07804 -0.08289
 H475 H 0.93227 0.08902 -0.05062
 H476 H 0.95639 -0.14232 -0.05601
 C477 C 0.35418 0.29802 0.36078
 C478 C 0.36756 0.36349 0.36251
 C479 C 0.36129 0.42148 0.34438
 C480 C 0.34266 0.41308 0.32523
 C481 C 0.32938 0.34831 0.32427
 C482 C 0.33539 0.29103 0.34207
 C483 C 0.37336 0.48792 0.34565
 C484 C 0.39101 0.49929 0.36495
 C485 C 0.39766 0.44386 0.38370
 C486 C 0.38645 0.37385 0.38189
 C487 C 0.39456 0.31648 0.39946
 C488 C 0.41232 0.32762 0.41863
 C489 C 0.42253 0.39641 0.42135
 C490 C 0.41531 0.45578 0.40409
 C491 C 0.42581 0.52494 0.40826
 C492 C 0.44297 0.53392 0.42840
 C493 C 0.45031 0.47464 0.44509
 C494 C 0.43995 0.40599 0.44141
 H495 H 0.35731 0.25169 0.37387
 H496 H 0.33789 0.45780 0.31154
 H497 H 0.32544 0.24035 0.34146
 H498 H 0.36884 0.53222 0.33175
 H499 H 0.39938 0.55222 0.36442
 H500 H 0.38785 0.26145 0.39878
 H501 H 0.41795 0.28185 0.43163
 H502 H 0.42093 0.57366 0.39660
 H503 H 0.45055 0.58775 0.43084
 H504 H 0.44533 0.35972 0.45429
 C505 C 0.12527 0.69390 -0.16373
 C506 C 0.12506 0.62810 -0.14869
 C507 C 0.14288 0.56848 -0.15505
 C508 C 0.16086 0.57628 -0.17481
 C509 C 0.16125 0.64251 -0.18941
 C510 C 0.14287 0.70070 -0.18361
 C511 C 0.14267 0.50096 -0.14171
 C512 C 0.12490 0.49062 -0.12241
 C513 C 0.10684 0.54830 -0.11521
 C514 C 0.10761 0.61908 -0.12787
 C515 C 0.09124 0.67866 -0.11900
 C516 C 0.07441 0.66926 -0.09879
 C517 C 0.07255 0.59985 -0.08708
 C518 C 0.08833 0.53795 -0.09543
 C519 C 0.08457 0.46794 -0.08387
 C520 C 0.06642 0.46046 -0.06452
 C521 C 0.05157 0.52226 -0.05577
 C522 C 0.05478 0.59192 -0.06715
 H523 H 0.11197 0.74131 -0.16077
 H524 H 0.17385 0.52898 -0.17935
 H525 H 0.14263 0.75381 -0.19356
 H526 H 0.15633 0.45518 -0.14637
 H527 H 0.12632 0.43697 -0.11299
 H528 H 0.09141 0.73414 -0.12687
 H529 H 0.06242 0.71683 -0.09249
 H530 H 0.09490 0.41745 -0.08970
 H531 H 0.06417 0.40590 -0.05619
 H532 H 0.04305 0.63995 -0.06080
 C533 C 0.65919 1.02220 0.35274
 C534 C 0.63957 1.07433 0.36119
 C535 C 0.63892 1.14712 0.35047
 C536 C 0.65685 1.16572 0.33174
 C537 C 0.67595 1.11309 0.32342
 C538 C 0.67698 1.04147 0.33420
 C539 C 0.62044 1.20116 0.35851
 C540 C 0.60308 1.18568 0.37772
 C541 C 0.60294 1.11428 0.38915
 C542 C 0.62081 1.05698 0.38003
 C543 C 0.61903 0.98401 0.38970
 C544 C 0.60084 0.96761 0.40796
 C545 C 0.58408 1.02326 0.41782
 C546 C 0.58512 1.09768 0.40899
 C547 C 0.56841 1.15231 0.42063
 C548 C 0.55104 1.13307 0.43964
 C549 C 0.54956 1.05898 0.44756
 C550 C 0.56625 1.00450 0.43658
 H551 H 0.66166 0.96631 0.36030
 H552 H 0.65624 1.22188 0.32394
 H553 H 0.69151 0.99975 0.32809
 H554 H 0.61959 1.25659 0.35008
 H555 H 0.58953 1.23073 0.38278
 H556 H 0.63104 0.93749 0.38307
 H557 H 0.60005 0.91058 0.41460
 H558 H 0.56856 1.21053 0.41584
 H559 H 0.53856 1.17642 0.44803
 H560 H 0.56562 0.94711 0.44289
 C561 C 0.16047 0.49754 0.14986
 C562 C 0.15157 0.44367 0.13324
 C563 C 0.16337 0.37072 0.13539
 C564 C 0.18294 0.35305 0.15349
 C565 C 0.19132 0.40687 0.16991
 C566 C 0.17996 0.47919 0.16785
 C567 C 0.15549 0.31529 0.11964
 C568 C 0.13554 0.32971 0.10217
 C569 C 0.12261 0.40078 0.09962
 C570 C 0.13123 0.45924 0.11491
 C571 C 0.11923 0.53122 0.11135
 C572 C 0.09923 0.54555 0.09391
 C573 C 0.09007 0.48888 0.07949
 C574 C 0.10145 0.41554 0.08217
 C575 C 0.09088 0.35998 0.06743
 C576 C 0.07019 0.37701 0.05069
 C577 C 0.05933 0.44981 0.04791
 C578 C 0.06943 0.50544 0.06242
 H579 H 0.15260 0.55419 0.14979
 H580 H 0.19114 0.29637 0.15531
 H581 H 0.18614 0.52186 0.18025
 H582 H 0.16472 0.25969 0.12098
 H583 H 0.13089 0.28363 0.09074
 H584 H 0.12498 0.57837 0.12163
 H585 H 0.09066 0.60178 0.09184
 H586 H 0.09788 0.30259 0.06850
 H587 H 0.06271 0.33273 0.03984
 H588 H 0.06109 0.56197 0.06058
 C589 C 0.64708 1.01779 0.66151
 C590 C 0.64633 0.97895 0.63834
 C591 C 0.66653 0.92394 0.63380
 C592 C 0.68664 0.90968 0.65163
 C593 C 0.68643 0.94645 0.67486
 C594 C 0.66667 1.00106 0.67951
 C595 C 0.66611 0.88158 0.61191
 C596 C 0.64531 0.88939 0.59506
 C597 C 0.62447 0.94227 0.59896
 C598 C 0.62579 0.99082 0.62007
 C599 C 0.60667 1.04981 0.62208
 C600 C 0.58641 1.05948 0.60464
 C601 C 0.58389 1.00958 0.58500
 C602 C 0.60256 0.94931 0.58215
 C603 C 0.59820 0.89773 0.56289
 C604 C 0.57672 0.90745 0.54667
 C605 C 0.55897 0.96890 0.54891
 C606 C 0.56267 1.01961 0.56823
 H607 H 0.63217 1.05891 0.66686
 H608 H 0.70171 0.86656 0.64809
 H609 H 0.66610 1.02991 0.69743
 H610 H 0.68166 0.84009 0.60817
 H611 H 0.64640 0.85409 0.57874
 H612 H 0.60720 1.09095 0.63661
 H613 H 0.57231 1.10602 0.60680
 H614 H 0.61068 0.84838 0.56025
 H615 H 0.57417 0.86692 0.53210
 H616 H 0.54879 1.06665 0.57045
 C617 C 0.84014 0.00511 0.14884
 C618 C 0.85975 0.05304 0.14212
 C619 C 0.86062 0.12006 0.15556
 C620 C 0.84311 0.13665 0.17529
 C621 C 0.82399 0.08840 0.18178
 C622 C 0.82255 0.02287 0.16829
 C623 C 0.87886 0.17059 0.14920
 C624 C 0.89583 0.15753 0.12915
 C625 C 0.89571 0.09199 0.11500
 C626 C 0.87819 0.03738 0.12235
 C627 C 0.88008 -0.03150 0.11006
 C628 C 0.89810 -0.04619 0.09097
 C629 C 0.91441 0.00775 0.08277
 C630 C 0.91305 0.07831 0.09419
 C631 C 0.92893 0.13251 0.08405
 C632 C 0.94607 0.11607 0.06416
 C633 C 0.94819 0.04513 0.05386
 C634 C 0.93217 -0.00866 0.06316
 H635 H 0.83747 -0.04568 0.13909
 H636 H 0.84394 0.18848 0.18523
 H637 H 0.80780 -0.01500 0.17288
 H638 H 0.87984 0.22142 0.15967
 H639 H 0.90940 0.19923 0.12567
 H640 H 0.86835 -0.07639 0.11530
 H641 H 0.89910 -0.10029 0.08235
 H642 H 0.92829 0.18850 0.09076
 H643 H 0.95806 0.15887 0.05712
 H644 H 0.93334 -0.06334 0.05495
 C645 C 0.33009 0.50887 0.63758
 C646 C 0.35143 0.55293 0.63354
 C647 C 0.35332 0.61561 0.64907
 C648 C 0.33503 0.63169 0.66815
 C649 C 0.31421 0.58715 0.67203
 C650 C 0.31179 0.52606 0.65647
 C651 C 0.37338 0.66238 0.64544
 C652 C 0.39105 0.65058 0.62588
 C653 C 0.38988 0.58959 0.60966
 C654 C 0.37064 0.53777 0.61444
 C655 C 0.37164 0.47189 0.60038
 C656 C 0.39050 0.45767 0.58200
 C657 C 0.40846 0.50959 0.57617
 C658 C 0.40790 0.57738 0.58934
 C659 C 0.42524 0.63058 0.58136
 C660 C 0.44315 0.61527 0.56203
 C661 C 0.44464 0.54638 0.55024
 C662 C 0.42707 0.49398 0.55725
 H663 H 0.32663 0.46182 0.62607
 H664 H 0.33665 0.68035 0.67966
 H665 H 0.29572 0.49122 0.65900
 H666 H 0.37515 0.70967 0.65755
 H667 H 0.40597 0.68925 0.62443
 H668 H 0.35859 0.42877 0.60375
 H669 H 0.39083 0.40569 0.57202
 H670 H 0.42513 0.68503 0.58936
 H671 H 0.45631 0.65706 0.55670
 H672 H 0.42774 0.44113 0.54778
   
