data_POSCAR
  _audit_creation_date              2014-09-24
  _audit_creation_method            'ToBaCCo'
  _symmetry_space_group_name_H-M    'P1'
  _symmetry_Int_Tables_number       1
  _symmetry_cell_setting            triclinic
  loop_
  _symmetry_equiv_pos_as_xyz
 x,y,z
_cell_length_a 22.7425
_cell_length_b 22.7074
_cell_length_c 22.7276
_cell_angle_alpha 89.994900
_cell_angle_beta 89.916700
_cell_angle_gamma 90.046300
loop_
  _atom_site_label
  _atom_site_type_symbol
  _atom_site_fract_x
  _atom_site_fract_y
  _atom_site_fract_z
C1 C 0.32310 1.03106 -0.46822
 C2 C 0.32231 1.03242 -0.52847
 C3 C 0.37557 1.00926 -0.54744
 N4 N 0.40931 0.99499 -0.50061
 C5 C 0.37720 1.00830 -0.45226
 C6 C 0.39181 0.99994 -0.60703
 C7 C 0.45111 0.98861 -0.62339
 C8 C 0.46865 0.96371 -0.67629
 C9 C 0.52898 0.96440 -0.67703
 C10 C 0.54723 0.98822 -0.62378
 N11 N 0.49928 1.00290 -0.59140
 C12 C 0.60639 1.00180 -0.60884
 C13 C 0.62407 1.01433 -0.55037
 C14 C 0.68019 1.03135 -0.53321
 C15 C 0.68054 1.03176 -0.47288
 C16 C 0.62501 1.01423 -0.45498
 N17 N 0.59071 1.00345 -0.50231
 C18 C 0.60824 1.00377 -0.39604
 C19 C 0.54980 0.99094 -0.37918
 C20 C 0.53337 0.96776 -0.32512
 C21 C 0.47295 0.96549 -0.32462
 C22 C 0.45421 0.98743 -0.37834
 N23 N 0.50128 1.00277 -0.41136
 C24 C 0.39498 0.99732 -0.39387
 H25 H 0.28817 1.04585 -0.43941
 H26 H 0.28662 1.04903 -0.55515
 H27 H 0.50001 1.02643 -0.45052
 H28 H 0.44091 0.94735 -0.71132
 H29 H 0.55581 0.94989 -0.71351
 H30 H 0.71774 1.04079 -0.56087
 H31 H 0.71791 1.04235 -0.44541
 H32 H 0.44590 0.95017 -0.28850
 H33 H 0.49923 1.02787 -0.55301
 H34 H 0.56193 0.95436 -0.28950
 C35 C -0.46726 1.32261 0.03068
 C36 C -0.52744 1.32184 0.03327
 C37 C -0.54660 1.37515 0.01036
 N38 N -0.50000 1.40886 -0.00504
 C39 C -0.45155 1.37670 0.00734
 C40 C -0.60619 1.39152 0.00216
 C41 C -0.62217 1.45109 -0.00808
 C42 C -0.67450 1.46940 -0.03360
 C43 C -0.67429 1.52986 -0.03282
 C44 C -0.62153 1.54701 -0.00763
 N45 N -0.58981 1.49881 0.00712
 C46 C -0.60561 1.60602 0.00391
 C47 C -0.54714 1.62389 0.01445
 C48 C -0.53031 1.67990 0.03166
 C49 C -0.47003 1.68075 0.03081
 C50 C -0.45183 1.62488 0.01376
 N51 N -0.49928 1.59051 0.00335
 C52 C -0.39301 1.60825 0.00108
 C53 C -0.37722 1.54952 -0.01380
 C54 C -0.32275 1.53181 -0.03538
 C55 C -0.32325 1.47136 -0.03746
 C56 C -0.37748 1.45343 -0.01624
 N57 N -0.41008 1.50113 -0.00206
 C58 C -0.39333 1.39436 -0.00487
 H59 H -0.43833 1.28760 0.04498
 H60 H -0.55394 1.28619 0.05051
 H61 H -0.44908 1.50011 0.02177
 H62 H -0.70928 1.44206 -0.05120
 H63 H -0.70900 1.55802 -0.04916
 H64 H -0.55848 1.71681 0.04224
 H65 H -0.44314 1.71896 0.03985
 H66 H -0.28696 1.44374 -0.05114
 H67 H -0.55131 1.49845 0.03185
 H68 H -0.28536 1.55897 -0.04665
 C69 C -0.04193 0.32569 0.52906
 C70 C -0.04073 0.32569 0.46880
 C71 C -0.01127 0.37644 0.45189
 N72 N 0.00494 0.40787 0.49981
 C73 C -0.01301 0.37635 0.54706
 C74 C 0.00177 0.39259 0.39308
 C75 C 0.01401 0.45207 0.37849
 C76 C 0.04223 0.47120 0.32770
 C77 C 0.04032 0.53171 0.32820
 C78 C 0.01205 0.54783 0.37974
 N79 N -0.00330 0.49920 0.41047
 C80 C -0.00302 0.60596 0.39534
 C81 C -0.01579 0.62194 0.45382
 C82 C -0.04140 0.67448 0.47100
 C83 C -0.04132 0.67459 0.53134
 C84 C -0.01474 0.62245 0.54888
 N85 N 0.00020 0.59000 0.50134
 C86 C -0.00162 0.60631 0.60760
 C87 C 0.01160 0.54698 0.62203
 C88 C 0.04291 0.52901 0.67123
 C89 C 0.04318 0.46854 0.67077
 C90 C 0.01210 0.45106 0.62128
 N91 N -0.00602 0.49913 0.59111
 C92 C -0.00117 0.39196 0.60619
 H93 H -0.06233 0.29245 0.55646
 H94 H -0.06011 0.29252 0.44065
 H95 H -0.03400 0.49906 0.55479
 H96 H 0.06173 0.44441 0.29349
 H97 H 0.05754 0.56056 0.29439
 H98 H -0.05830 0.70908 0.44298
 H99 H -0.05877 0.70918 0.55904
 H100 H 0.06412 0.44060 0.70312
 H101 H -0.03005 0.49822 0.44774
 H102 H 0.06374 0.55661 0.70397
 O103 O -0.15099 1.00198 -0.08016
 O104 O 0.15178 0.99699 -0.07892
 O105 O -0.00087 1.07900 -0.15165
 O106 O 0.00232 0.91943 -0.15114
 O107 O 0.00159 0.84778 -0.07899
 O108 O -0.00095 1.15108 -0.07995
 O109 O 0.08039 0.99700 -0.15111
 O110 O -0.07880 1.00149 -0.15176
 Zr111 Zr 0.00052 0.99937 -0.10356
 O112 O 0.05336 0.94589 -0.05296
 O113 O -0.05287 1.05313 -0.05369
 C114 C -0.13310 1.00267 -0.13435
 C115 C 0.13450 0.99599 -0.13324
 C116 C -0.00167 1.13334 -0.13415
 C117 C 0.00284 0.86519 -0.13329
 H118 H 0.07888 1.07749 -0.07810
 O119 O 0.05355 1.05251 -0.05302
 H120 H -0.07817 0.92145 -0.07822
 O121 O -0.05309 0.94656 -0.05310
 O122 O 0.15097 1.00128 0.08021
 O123 O -0.15188 0.99858 0.07912
 O124 O 0.08009 1.15104 0.00188
 O125 O 0.07883 0.84778 -0.00109
 O126 O -0.08032 0.84841 0.00222
 O127 O -0.07889 1.15156 -0.00267
 O128 O 0.00149 1.07982 0.15136
 O129 O -0.00308 0.92040 0.15182
 O130 O 0.00215 1.15151 0.07926
 O131 O -0.00303 0.84830 0.08013
 O132 O 0.15162 1.07889 0.00238
 O133 O -0.15104 1.07992 -0.00276
 O134 O -0.15181 0.92059 0.00168
 O135 O 0.15096 0.91944 -0.00105
 O136 O 0.07883 1.00175 0.15186
 O137 O -0.08047 0.99850 0.15130
 Zr138 Zr 0.10346 0.99932 0.00047
 Zr139 Zr -0.10357 1.00006 -0.00032
 Zr140 Zr 0.00041 1.10333 -0.00022
 Zr141 Zr -0.00052 0.89603 0.00041
 Zr142 Zr -0.00059 0.99998 0.10372
 O143 O -0.05394 0.94660 0.05346
 O144 O 0.05327 1.05308 0.05354
 C145 C 0.13314 1.00236 0.13439
 C146 C -0.13460 0.99780 0.13345
 C147 C 0.13421 1.13324 0.00305
 C148 C 0.13311 0.86521 -0.00182
 C149 C -0.13445 0.86625 0.00282
 C150 C -0.13316 1.13413 -0.00378
 C151 C 0.00271 1.13405 0.13356
 C152 C -0.00407 0.86606 0.13432
 H153 H -0.07830 1.07851 0.07779
 O154 O -0.05318 1.05319 0.05287
 H155 H 0.07738 0.92135 0.07883
 O156 O 0.05251 0.94650 0.05357
 C157 C 0.25984 1.00237 0.26118
 C158 C 0.25064 0.97118 0.31343
 C159 C 0.29408 0.97021 0.35684
 C160 C 0.34766 1.00060 0.34878
 C161 C 0.35637 1.03159 0.29564
 C162 C 0.31278 1.03249 0.25234
 C163 C 0.21508 1.00300 0.21649
 C164 C 0.17759 1.00304 0.17905
 H165 H 0.20997 0.94730 0.32053
 H166 H 0.28626 0.94453 0.39625
 H167 H 0.39643 1.05634 0.28815
 H168 H 0.32032 1.05686 0.21204
 C169 C -0.26229 0.99858 0.25966
 C170 C -0.28972 0.94620 0.27714
 C171 C -0.33339 0.94717 0.32050
 C172 C -0.35030 1.00069 0.34673
 C173 C -0.32232 1.05307 0.32907
 C174 C -0.27867 1.05198 0.28572
 C175 C -0.21722 0.99765 0.21514
 C176 C -0.17947 0.99738 0.17785
 H177 H -0.27719 0.90461 0.25743
 H178 H -0.35356 0.90611 0.33410
 H179 H -0.33455 1.09481 0.34867
 H180 H -0.25767 1.09276 0.27256
 C181 C -0.25899 1.00421 -0.26195
 C182 C -0.25762 0.96173 -0.30660
 C183 C -0.30079 0.96156 -0.35032
 C184 C -0.34565 1.00401 -0.34983
 C185 C -0.34694 1.04643 -0.30489
 C186 C -0.30375 1.04653 -0.26116
 C187 C -0.21463 1.00415 -0.21686
 C188 C -0.17742 1.00373 -0.17914
 H189 H -0.22326 0.92872 -0.30755
 H190 H -0.29940 0.92834 -0.38450
 H191 H -0.38133 1.07939 -0.30385
 H192 H -0.30527 1.07954 -0.22677
 C193 C 0.26226 0.99460 -0.25929
 C194 C 0.25996 0.95417 -0.30574
 C195 C 0.30335 0.95483 -0.34937
 C196 C 0.34942 0.99599 -0.34695
 C197 C 0.35162 1.03631 -0.30014
 C198 C 0.30823 1.03558 -0.25651
 C199 C 0.21717 0.99449 -0.21482
 C200 C 0.17937 0.99487 -0.17759
 H201 H 0.22458 0.92230 -0.30832
 H202 H 0.30105 0.92336 -0.38512
 H203 H 0.38671 1.06850 -0.29772
 H204 H 0.31036 1.06711 -0.22080
 C205 C 0.26130 1.25989 0.00375
 C206 C 0.25252 1.31293 0.03374
 C207 C 0.29608 1.35640 0.03314
 C208 C 0.34941 1.34746 0.00259
 C209 C 0.35736 1.29377 -0.02771
 C210 C 0.31371 1.25046 -0.02703
 C211 C 0.21641 1.21525 0.00411
 C212 C 0.17888 1.17777 0.00394
 H213 H 0.21209 1.32063 0.05780
 H214 H 0.28861 1.39653 0.05781
 H215 H 0.39684 1.28579 -0.05319
 H216 H 0.32073 1.20972 -0.05083
 C217 C 0.25952 0.73804 -0.00105
 C218 C 0.30520 0.73914 -0.04242
 C219 C 0.34907 0.69608 -0.04095
 C220 C 0.34770 0.65168 0.00206
 C221 C 0.30159 0.65055 0.04318
 C222 C 0.25773 0.69361 0.04165
 C223 C 0.21483 0.78282 -0.00198
 C224 C 0.17747 0.82042 -0.00225
 H225 H 0.30696 0.77330 -0.07566
 H226 H 0.38414 0.69732 -0.07323
 H227 H 0.29986 0.61652 0.07653
 H228 H 0.22257 0.69237 0.07385
 C229 C -0.26168 0.73974 0.00303
 C230 C -0.27723 0.71254 -0.04998
 C231 C -0.32071 0.66904 -0.05074
 C232 C -0.34904 0.65204 0.00166
 C233 C -0.33340 0.67992 0.05469
 C234 C -0.28989 0.72343 0.05533
 C235 C -0.21683 0.78441 0.00361
 C236 C -0.17920 0.82180 0.00359
 H237 H -0.25584 0.72506 -0.09074
 H238 H -0.33269 0.64897 -0.09229
 H239 H -0.35451 0.66752 0.09564
 H240 H -0.27820 0.74427 0.09657
 C241 C -0.25917 1.26159 -0.00602
 C242 C -0.30497 1.25937 -0.04707
 C243 C -0.34854 1.30274 -0.04686
 C244 C -0.34664 1.34869 -0.00555
 C245 C -0.30057 1.35076 0.03545
 C246 C -0.25701 1.30739 0.03518
 C247 C -0.21470 1.21662 -0.00577
 C248 C -0.17746 1.17893 -0.00513
 H249 H -0.30706 1.22408 -0.07909
 H250 H -0.38378 1.30057 -0.07880
 H251 H -0.29862 1.38579 0.06774
 H252 H -0.22180 1.30943 0.06718
 C253 C 0.00389 1.26123 0.26018
 C254 C -0.02200 1.31594 0.24913
 C255 C -0.02265 1.35931 0.29276
 C256 C 0.00264 1.34871 0.34846
 C257 C 0.02862 1.29320 0.35880
 C258 C 0.02922 1.24998 0.31504
 C259 C 0.00396 1.21643 0.21542
 C260 C 0.00364 1.17883 0.17801
 H261 H -0.04213 1.32495 0.20690
 H262 H -0.04451 1.40062 0.28340
 H263 H 0.04979 1.28362 0.40037
 H264 H 0.04959 1.20781 0.32399
 C265 C -0.00210 1.26019 -0.26118
 C266 C 0.02298 1.24848 -0.31612
 C267 C 0.02346 1.29180 -0.35978
 C268 C -0.00130 1.34786 -0.34934
 C269 C -0.02612 1.35902 -0.29344
 C270 C -0.02655 1.31553 -0.24990
 C271 C -0.00240 1.21547 -0.21631
 C272 C -0.00230 1.17793 -0.17881
 H273 H 0.04250 1.20591 -0.32515
 H274 H 0.04466 1.28182 -0.40130
 H275 H -0.04671 1.40093 -0.28384
 H276 H -0.04623 1.32501 -0.20750
 C277 C 0.00324 0.73757 -0.25949
 C278 C 0.02827 0.74862 -0.31460
 C279 C 0.02696 0.70540 -0.35834
 C280 C 0.00032 0.65018 -0.34781
 C281 C -0.02417 0.63957 -0.29169
 C282 C -0.02281 0.68294 -0.24806
 C283 C 0.00370 0.78255 -0.21490
 C284 C 0.00362 0.82032 -0.17765
 H285 H 0.04894 0.79064 -0.32377
 H286 H 0.04806 0.71479 -0.40005
 H287 H -0.04596 0.59823 -0.28202
 H288 H -0.04253 0.67401 -0.20556
 C289 C -0.00492 0.73938 0.26143
 C290 C -0.04127 0.68984 0.25631
 C291 C -0.04061 0.64636 0.29986
 C292 C -0.00360 0.65208 0.34896
 C293 C 0.03290 0.70179 0.35374
 C294 C 0.03218 0.74523 0.31019
 C295 C -0.00531 0.78404 0.21654
 C296 C -0.00511 0.82152 0.17899
 H297 H -0.07008 0.68486 0.21871
 H298 H -0.06909 0.60835 0.29550
 H299 H 0.06198 0.70675 0.39111
 H300 H 0.06060 0.78331 0.31449
   
