data_POSCAR
  _audit_creation_date              2014-09-24
  _audit_creation_method            'ToBaCCo'
  _symmetry_space_group_name_H-M    'P1'
  _symmetry_Int_Tables_number       1
  _symmetry_cell_setting            triclinic
  loop_
  _symmetry_equiv_pos_as_xyz
 x,y,z
_cell_length_a 37.1640
_cell_length_b 9.5719
_cell_length_c 14.9778
_cell_angle_alpha 90.840100
_cell_angle_beta 89.501800
_cell_angle_gamma 88.024500
loop_
  _atom_site_label
  _atom_site_type_symbol
  _atom_site_fract_x
  _atom_site_fract_y
  _atom_site_fract_z
C1 C 0.63736 0.01532 0.50286
 C2 C 0.65414 0.01842 0.58638
 C3 C 0.69170 0.03010 0.58899
 C4 C 0.71199 0.05796 0.51116
 C5 C 0.69335 0.06877 0.42936
 C6 C 0.65627 0.04588 0.42453
 C7 C 0.75148 0.08916 0.51658
 C8 C 0.77382 0.08653 0.43895
 C9 C 0.80935 0.13326 0.44220
 C10 C 0.82299 0.17518 0.52513
 C11 C 0.80305 0.16426 0.60370
 C12 C 0.76725 0.12554 0.59932
 H13 H 0.60852 0.00382 0.49959
 H14 H 0.70449 0.02007 0.65298
 H15 H 0.70700 0.10030 0.36942
 H16 H 0.76378 0.04964 0.37570
 H17 H 0.85067 0.20615 0.53044
 H18 H 0.75227 0.12764 0.66127
 C19 C 0.17624 0.82053 0.47490
 C20 C 0.19009 0.86154 0.55796
 C21 C 0.22538 0.91033 0.56086
 C22 C 0.24739 0.91042 0.48303
 C23 C 0.23167 0.87406 0.40029
 C24 C 0.19598 0.83353 0.39596
 C25 C 0.28659 0.94451 0.48841
 C26 C 0.30608 0.98045 0.41107
 C27 C 0.34343 0.99397 0.41308
 C28 C 0.36087 0.99205 0.49531
 C29 C 0.34293 0.95273 0.57353
 C30 C 0.30583 0.92768 0.56908
 H31 H 0.14868 0.78798 0.47006
 H32 H 0.23561 0.94670 0.62407
 H33 H 0.24672 0.87334 0.33840
 H34 H 0.29304 0.99272 0.34750
 H35 H 0.38966 1.00553 0.49616
 H36 H 0.29252 0.88976 0.62788
 C37 C 0.32387 0.36891 -0.48164
 C38 C 0.30751 0.40238 -0.56250
 C39 C 0.27045 0.43585 -0.56340
 C40 C 0.24907 0.42577 -0.48460
 C41 C 0.26700 0.39464 -0.40354
 C42 C 0.30424 0.36908 -0.40209
 C43 C 0.20853 0.44227 -0.48757
 C44 C 0.18754 0.46014 -0.40839
 C45 C 0.14968 0.46543 -0.41060
 C46 C 0.13277 0.46788 -0.49401
 C47 C 0.15248 0.44425 -0.57320
 C48 C 0.19009 0.42953 -0.56943
 H49 H 0.35273 0.34830 -0.47978
 H50 H 0.25878 0.46684 -0.62611
 H51 H 0.25272 0.38550 -0.34109
 H52 H 0.20004 0.46931 -0.34403
 H53 H 0.10366 0.47347 -0.49720
 H54 H 0.20442 0.40426 -0.63081
 C55 C -0.13415 0.52516 -0.50634
 C56 C -0.15068 0.52977 -0.59008
 C57 C -0.18850 0.53689 -0.59337
 C58 C -0.20970 0.55636 -0.51470
 C59 C -0.19147 0.56976 -0.43248
 C60 C -0.15395 0.55237 -0.42785
 C61 C -0.25016 0.57489 -0.51855
 C62 C -0.27158 0.56757 -0.43987
 C63 C -0.30840 0.60436 -0.44072
 C64 C -0.32470 0.63796 -0.52174
 C65 C -0.30511 0.63365 -0.60164
 C66 C -0.26795 0.60513 -0.59995
 H67 H -0.10508 0.51703 -0.50247
 H68 H -0.20076 0.52921 -0.65810
 H69 H -0.20582 0.59810 -0.37161
 H70 H -0.26007 0.53625 -0.37705
 H71 H -0.35343 0.66160 -0.52333
 H72 H -0.25359 0.61137 -0.66250
 O73 O -0.02838 0.70942 0.15708
 O74 O -0.07730 0.79680 0.08065
 C75 C -0.06263 0.71724 0.14061
 O76 O 0.03406 1.27355 0.16623
 O77 O 0.08061 1.19123 0.07602
 C78 C 0.06766 1.26710 0.14222
 O79 O -0.06052 1.16627 0.18261
 O80 O -0.09310 1.01860 0.09525
 C81 C -0.08967 1.10194 0.16365
 O82 O 0.06891 0.78573 0.13851
 O83 O 0.09720 0.95902 0.06344
 C84 C 0.09705 0.85666 0.11940
 Zr85 Zr 0.01478 0.81500 0.09894
 O86 O 0.02061 0.77508 0.23660
 O87 O 0.02810 0.60353 0.06811
 Zr88 Zr -0.00954 1.15901 0.12010
 O89 O -0.00489 1.16094 0.26086
 O90 O -0.02689 1.37127 0.11993
 O91 O -0.02751 0.95629 0.13048
 O92 O 0.03274 1.01366 0.12422
 O93 O 0.06237 0.81894 -0.17701
 O94 O 0.09425 0.97515 -0.09396
 C95 C 0.09138 0.88505 -0.15912
 O96 O -0.06743 1.20227 -0.14687
 O97 O -0.09622 1.03578 -0.06684
 C98 C -0.09568 1.13316 -0.12618
 O99 O 0.02855 1.30377 -0.14823
 O100 O 0.07797 1.20439 -0.07935
 C101 C 0.06299 1.29184 -0.13442
 O102 O -0.03434 0.73580 -0.17332
 O103 O -0.08054 0.81458 -0.08091
 C104 C -0.06792 0.74269 -0.14910
 Zr105 Zr 0.01017 0.83946 -0.12170
 O106 O 0.01101 0.84891 -0.26283
 O107 O 0.02277 0.62247 -0.12918
 Zr108 Zr -0.01404 1.18303 -0.10048
 O109 O -0.01486 1.21614 -0.23976
 O110 O -0.03241 1.39228 -0.07811
 Zr111 Zr -0.05202 0.94950 0.00402
 Zr112 Zr 0.05271 1.04845 -0.00518
 O113 O 0.02749 1.04108 -0.13074
 O114 O -0.03293 0.98404 -0.12661
 O115 O 0.04605 0.83087 -0.01578
 O116 O -0.04453 1.16597 0.01426
 O117 O -0.01682 0.77350 -0.00981
 O118 O 0.01809 1.22697 0.00866
 H119 H 0.04845 1.02304 0.17688
 H120 H -0.06621 1.22870 0.02065
 H121 H 0.04093 1.06039 -0.18635
 H122 H -0.02752 0.68024 -0.01261
 H123 H -0.02658 1.40271 0.18316
 H124 H -0.01371 1.43837 -0.04291
 H125 H -0.02342 1.12963 -0.26803
 H126 H -0.01132 0.89926 -0.28127
 H127 H 0.04604 0.60587 -0.09881
 H128 H 0.03178 0.55771 0.12629
 H129 H 0.01748 0.86608 0.26811
 H130 H -0.01384 1.07107 0.28219
 O131 O 0.43894 0.35161 0.17772
 O132 O 0.40635 0.50371 0.09023
 C133 C 0.40960 0.42098 0.15783
 O134 O 0.56670 0.70494 0.14165
 O135 O 0.59649 0.52606 0.06485
 C136 C 0.59539 0.62895 0.12234
 O137 O 0.46879 0.80242 0.15589
 O138 O 0.42104 0.72113 0.07652
 C139 C 0.43471 0.80006 0.13765
 O140 O 0.53479 0.22759 0.16518
 O141 O 0.58143 0.30107 0.07797
 C142 C 0.56860 0.22884 0.14293
 Zr143 Zr 0.49049 0.34827 0.11806
 O144 O 0.49444 0.35316 0.25898
 O145 O 0.47423 0.13914 0.11865
 Zr146 Zr 0.51300 0.68769 0.09828
 O147 O 0.51839 0.73289 0.23590
 O148 O 0.52344 0.89916 0.07124
 O149 O 0.47133 0.55500 0.12810
 O150 O 0.53179 0.48641 0.12383
 O151 O 0.53084 0.18440 -0.14899
 O152 O 0.57928 0.27808 -0.07828
 C153 C 0.56513 0.19120 -0.13417
 O154 O 0.46491 0.76212 -0.17652
 O155 O 0.41872 0.69732 -0.08498
 C156 C 0.43121 0.76265 -0.15331
 O157 O 0.56250 0.66365 -0.17554
 O158 O 0.59448 0.50395 -0.09201
 C159 C 0.59174 0.59297 -0.15646
 O160 O 0.43452 0.30519 -0.15183
 O161 O 0.40430 0.47953 -0.07185
 C162 C 0.40578 0.38026 -0.13185
 Zr163 Zr 0.48745 0.31602 -0.10305
 O164 O 0.48805 0.27835 -0.24259
 O165 O 0.46964 0.11139 -0.08308
 Zr166 Zr 0.50997 0.65462 -0.12267
 O167 O 0.51202 0.63939 -0.26378
 O168 O 0.52113 0.86926 -0.12992
 Zr169 Zr 0.44761 0.56096 0.00064
 Zr170 Zr 0.55279 0.44209 -0.00503
 O171 O 0.52840 0.44914 -0.13157
 O172 O 0.46769 0.51757 -0.12940
 O173 O 0.51912 0.27033 0.00734
 O174 O 0.48189 0.73027 -0.01176
 O175 O 0.45623 0.34338 0.01072
 O176 O 0.54512 0.66093 -0.01534
 H177 H 0.54705 0.47626 0.17737
 H178 H 0.47057 0.82524 -0.01499
 H179 H 0.54238 0.42499 -0.18658
 H180 H 0.43487 0.28475 0.01602
 H181 H 0.54933 0.90526 0.05645
 H182 H 0.54469 0.88295 -0.10140
 H183 H 0.49040 0.59033 -0.28334
 H184 H 0.47832 0.36414 -0.27084
 H185 H 0.48710 0.06533 -0.04277
 H186 H 0.47423 0.11122 0.18205
 H187 H 0.48388 0.44419 0.28001
 H188 H 0.51284 0.64641 0.26763
 N189 N 0.32535 0.48875 0.28757
 C190 C 0.33047 0.39860 0.35619
 N191 N 0.35987 0.31100 0.35399
 N192 N 0.38374 0.31475 0.28792
 C193 C 0.37941 0.40641 0.22067
 N194 N 0.34954 0.49295 0.22095
 N195 N -0.14368 0.60007 0.25675
 C196 C -0.12924 0.54769 0.33307
 N197 N -0.09280 0.53564 0.33870
 N198 N -0.07175 0.58063 0.27386
 C199 C -0.08613 0.64006 0.20024
 N200 N -0.12253 0.64637 0.19182
 N201 N 0.64742 0.74899 0.31194
 C202 C 0.67509 0.65324 0.31426
 N203 N 0.67909 0.55929 0.24560
 N204 N 0.65530 0.55801 0.17924
 C205 C 0.62686 0.65138 0.17894
 N206 N 0.62392 0.74843 0.24563
 N207 N 0.14762 1.33952 0.27499
 C208 C 0.13278 1.41908 0.34273
 N209 N 0.09780 1.46279 0.33637
 N210 N 0.07797 1.42353 0.26766
 C211 C 0.09226 1.33940 0.20191
 N212 N 0.12766 1.29973 0.20601
 N213 N 0.59673 0.01525 -0.33875
 C214 C 0.63292 0.03025 -0.33502
 N215 N 0.64703 0.07797 -0.25716
 N216 N 0.62564 0.11843 -0.18887
 C217 C 0.58933 0.10980 -0.19496
 N218 N 0.57545 0.05379 -0.27029
 N219 N 0.13591 0.79352 -0.37053
 C220 C 0.16777 0.85791 -0.36549
 N221 N 0.17607 0.92319 -0.28712
 N222 N 0.15270 0.92799 -0.21852
 C223 C 0.12061 0.86462 -0.22525
 N224 N 0.11300 0.79642 -0.30220
 N225 N 0.34914 0.85655 -0.27824
 C226 C 0.36328 0.92357 -0.34939
 N227 N 0.39891 0.95060 -0.34841
 N228 N 0.41984 0.90715 -0.28234
 C229 C 0.40614 0.83493 -0.21366
 N230 N 0.37023 0.81223 -0.21184
 N231 N -0.15196 1.27452 -0.30380
 C232 C -0.17792 1.17910 -0.31080
 N233 N -0.17945 1.07768 -0.24837
 N234 N -0.15486 1.06892 -0.18399
 C235 C -0.12792 1.16129 -0.17991
 N236 N -0.12755 1.26610 -0.23968
 N237 N 0.64018 0.70019 -0.35511
 C238 C 0.66915 0.61055 -0.35863
 N239 N 0.67473 0.52170 -0.28953
 N240 N 0.65129 0.52008 -0.22125
 C241 C 0.62184 0.60868 -0.21938
 N242 N 0.61710 0.69933 -0.28715
 N243 N 0.14355 1.40058 -0.25601
 C244 C 0.12868 1.45085 -0.33243
 N245 N 0.09224 1.46670 -0.33584
 N246 N 0.07155 1.42727 -0.26857
 C247 C 0.08628 1.36931 -0.19477
 N248 N 0.12275 1.35913 -0.18890
 N249 N 0.32099 0.44603 -0.25110
 C250 C 0.32428 0.34978 -0.31857
 N251 N 0.35207 0.25444 -0.31706
 N252 N 0.37641 0.25772 -0.25270
 C253 C 0.37413 0.35727 -0.18742
 N254 N 0.34554 0.44982 -0.18662
 N255 N -0.14852 0.66604 -0.27889
 C256 C -0.13413 0.58094 -0.34447
 N257 N -0.09916 0.53714 -0.33799
 N258 N -0.07890 0.58121 -0.27140
 C259 C -0.09275 0.67054 -0.20800
 N260 N -0.12815 0.71037 -0.21188
 N261 N 0.40134 0.99987 0.33271
 C262 C 0.36542 0.97842 0.33018
 N263 N 0.35199 0.91335 0.25702
 N264 N 0.37382 0.86584 0.19143
 C265 C 0.40991 0.88182 0.19643
 N266 N 0.42312 0.95267 0.26726
 N267 N -0.17544 1.06718 0.28841
 C268 C -0.16768 1.13392 0.36664
 N269 N -0.13560 1.19662 0.37295
 N270 N -0.11197 1.19075 0.30618
 C271 C -0.11906 1.12107 0.22950
 N272 N -0.15139 1.05970 0.22125
 N273 N 0.60071 0.03663 0.33684
 C274 C 0.63570 0.07226 0.34142
 N275 N 0.64970 0.14592 0.27312
 N276 N 0.62903 0.18726 0.20528
 C277 C 0.59368 0.15546 0.20289
 N278 N 0.58015 0.07757 0.26929
 N279 N 0.17960 0.91565 0.24578
 C280 C 0.17716 0.81738 0.31005
 N281 N 0.15126 0.72181 0.30267
 N282 N 0.12780 0.72706 0.23626
 C283 C 0.12904 0.82874 0.17440
 N284 N 0.15589 0.92151 0.17927
   
