data_POSCAR
  _audit_creation_date              2014-09-24
  _audit_creation_method            'ToBaCCo'
  _symmetry_space_group_name_H-M    'P1'
  _symmetry_Int_Tables_number       1
  _symmetry_cell_setting            triclinic
  loop_
  _symmetry_equiv_pos_as_xyz
 x,y,z
_cell_length_a 40.9409
_cell_length_b 39.3903
_cell_length_c 43.8534
_cell_angle_alpha 90.089700
_cell_angle_beta 89.800400
_cell_angle_gamma 84.254800
loop_
  _atom_site_label
  _atom_site_type_symbol
  _atom_site_fract_x
  _atom_site_fract_y
  _atom_site_fract_z
C1 C -0.08906 0.29362 -0.00211
 C2 C -0.07160 0.28980 0.02555
 C3 C -0.03747 0.29187 0.02469
 C4 C -0.02122 0.30023 -0.00220
 C5 C -0.03957 0.30447 -0.02926
 C6 C -0.07334 0.29993 -0.02997
 C7 C 0.01490 0.30424 -0.00184
 C8 C 0.03447 0.29771 -0.02813
 C9 C 0.06847 0.30067 -0.02770
 C10 C 0.08327 0.30818 0.00009
 C11 C 0.06466 0.31295 0.02689
 C12 C 0.03046 0.31303 0.02528
 H13 H -0.11444 0.28836 -0.00225
 H14 H -0.02351 0.28813 0.04536
 H15 H -0.02776 0.31259 -0.04967
 H16 H 0.02359 0.28911 -0.04882
 H17 H 0.10952 0.30933 0.00117
 H18 H 0.01631 0.31940 0.04571
 C19 C 0.40780 0.79148 0.50264
 C20 C 0.42419 0.79818 0.52967
 C21 C 0.45688 0.80595 0.52805
 C22 C 0.47436 0.80445 0.50016
 C23 C 0.45737 0.79679 0.47346
 C24 C 0.42398 0.79131 0.47439
 C25 C 0.51019 0.81015 0.49917
 C26 C 0.52559 0.81920 0.47187
 C27 C 0.55940 0.82275 0.47085
 C28 C 0.57753 0.82005 0.49796
 C29 C 0.56293 0.81153 0.52551
 C30 C 0.52971 0.80546 0.52557
 H31 H 0.38264 0.78523 0.50364
 H32 H 0.46831 0.81335 0.54886
 H33 H 0.46977 0.79508 0.45169
 H34 H 0.51173 0.82351 0.45109
 H35 H 0.60337 0.82369 0.49738
 H36 H 0.51960 0.79597 0.54628
 C37 C 1.08444 0.70410 0.00071
 C38 C 1.06701 0.71045 0.02836
 C39 C 1.03250 0.71126 0.02745
 C40 C 1.01585 0.70319 0.00081
 C41 C 1.03420 0.69652 -0.02611
 C42 C 1.06837 0.69848 -0.02701
 C43 C 0.97931 0.70187 0.00113
 C44 C 0.96067 0.70786 -0.02566
 C45 C 0.92667 0.70516 -0.02593
 C46 C 0.91089 0.69855 0.00163
 C47 C 0.92848 0.69452 0.02898
 C48 C 0.96272 0.69486 0.02830
 H49 H 1.11067 0.70406 0.00054
 H50 H 1.01821 0.71968 0.04725
 H51 H 1.02200 0.68852 -0.04629
 H52 H 0.97237 0.71542 -0.04635
 H53 H 0.88466 0.69713 0.00203
 H54 H 0.97618 0.68945 0.04919
 C55 C 0.58750 0.20610 0.49784
 C56 C 0.56999 0.20777 0.52542
 C57 C 0.53631 0.20345 0.52510
 C58 C 0.52037 0.19531 0.49789
 C59 C 0.53911 0.19236 0.47079
 C60 C 0.57216 0.19897 0.47036
 C61 C 0.48438 0.19040 0.49761
 C62 C 0.46577 0.19484 0.47054
 C63 C 0.43237 0.18960 0.47009
 C64 C 0.41666 0.18227 0.49737
 C65 C 0.43409 0.17922 0.52485
 C66 C 0.46805 0.18183 0.52450
 H67 H 0.61291 0.21155 0.49766
 H68 H 0.52286 0.20641 0.54630
 H69 H 0.52839 0.18470 0.44971
 H70 H 0.47689 0.20231 0.44954
 H71 H 0.39044 0.18044 0.49730
 H72 H 0.48141 0.17706 0.54551
 C73 C 0.67763 -0.07659 -0.00054
 C74 C 0.67632 -0.05893 0.02752
 C75 C 0.67633 -0.02298 0.02621
 C76 C 0.68176 -0.00587 -0.00149
 C77 C 0.68710 -0.02548 -0.02817
 C78 C 0.68408 -0.06055 -0.02812
 C79 C 0.68238 0.03224 -0.00257
 C80 C 0.67541 0.05075 -0.02982
 C81 C 0.67568 0.08656 -0.03101
 C82 C 0.68055 0.10389 -0.00350
 C83 C 0.68794 0.08618 0.02372
 C84 C 0.68989 0.05048 0.02366
 H85 H 0.67295 -0.10304 -0.00143
 H86 H 0.67297 -0.00812 0.04672
 H87 H 0.69416 -0.01372 -0.04910
 H88 H 0.66843 0.03751 -0.04999
 H89 H 0.68031 0.13131 -0.00325
 H90 H 0.69800 0.03709 0.04418
 C91 C 0.17910 0.40998 0.50247
 C92 C 0.18401 0.42639 0.53015
 C93 C 0.18754 0.46145 0.53003
 C94 C 0.18431 0.48086 0.50294
 C95 C 0.18086 0.46296 0.47519
 C96 C 0.17988 0.42733 0.47465
 C97 C 0.18444 0.51930 0.50373
 C98 C 0.18836 0.53799 0.47669
 C99 C 0.18519 0.57378 0.47665
 C100 C 0.17979 0.59125 0.50432
 C101 C 0.17976 0.57377 0.53209
 C102 C 0.18050 0.53796 0.53146
 H103 H 0.17522 0.38321 0.50252
 H104 H 0.19367 0.47295 0.55128
 H105 H 0.17945 0.47616 0.45373
 H106 H 0.19471 0.52517 0.45546
 H107 H 0.17606 0.61882 0.50428
 H108 H 0.17847 0.52507 0.55286
 C109 C 0.33245 1.07671 0.00085
 C110 C 0.33652 1.05937 0.02864
 C111 C 0.33829 1.02362 0.02875
 C112 C 0.33325 1.00506 0.00184
 C113 C 0.32810 1.02344 -0.02560
 C114 C 0.32878 1.05917 -0.02676
 C115 C 0.33193 0.96693 0.00253
 C116 C 0.33670 0.94666 -0.02413
 C117 C 0.33296 0.91135 -0.02400
 C118 C 0.32729 0.89594 0.00428
 C119 C 0.32317 0.91528 0.03106
 C120 C 0.32455 0.95059 0.02985
 H121 H 0.32970 1.10431 0.00126
 H122 H 0.34349 1.01072 0.05015
 H123 H 0.32423 1.00980 -0.04632
 H124 H 0.34438 0.95796 -0.04501
 H125 H 0.32335 0.86924 0.00558
 H126 H 0.31953 0.96505 0.05055
 C127 C 0.82396 0.58775 0.49558
 C128 C 0.81975 0.57076 0.52304
 C129 C 0.82226 0.53508 0.52334
 C130 C 0.83081 0.51562 0.49695
 C131 C 0.83511 0.53349 0.46943
 C132 C 0.83077 0.56943 0.46845
 C133 C 0.83357 0.47715 0.49836
 C134 C 0.83063 0.45721 0.47194
 C135 C 0.83117 0.42152 0.47369
 C136 C 0.83267 0.40559 0.50229
 C137 C 0.83475 0.42474 0.52902
 C138 C 0.83724 0.45993 0.52663
 H139 H 0.82023 0.61537 0.49514
 H140 H 0.81712 0.52292 0.54459
 H141 H 0.84187 0.51998 0.44854
 H142 H 0.82752 0.46902 0.44982
 H143 H 0.83045 0.37847 0.50373
 H144 H 0.84153 0.47353 0.54738
 O145 O 0.23571 0.28562 0.20985
 O146 O 0.29709 0.25495 0.26770
 O147 O 0.28656 0.23997 0.21041
 O148 O 0.24620 0.29984 0.26727
 O149 O 0.21580 0.25977 0.28236
 O150 O 0.25416 0.20119 0.22419
 O151 O 0.26592 0.21496 0.28128
 O152 O 0.20371 0.24722 0.22551
 Cu153 Cu 0.26955 0.27400 0.23723
 Cu154 Cu 0.23178 0.22678 0.25459
 C155 C 0.20908 0.27172 0.20800
 C156 C 0.29167 0.23003 0.28475
 C157 C 0.27695 0.21045 0.20734
 C158 C 0.22470 0.28959 0.28512
 O159 O 0.69892 0.75784 0.27278
 O160 O 0.75997 0.72292 0.21616
 O161 O 0.74813 0.71047 0.27335
 O162 O 0.71174 0.77084 0.21552
 O163 O 0.74399 0.80918 0.23072
 O164 O 0.78200 0.74793 0.28686
 O165 O 0.79272 0.76153 0.22956
 O166 O 0.73242 0.79512 0.28757
 Cu167 Cu 0.72630 0.73679 0.24310
 Cu168 Cu 0.76610 0.78217 0.26017
 C169 C 0.70532 0.78219 0.29009
 C170 C 0.78657 0.73659 0.21281
 C171 C 0.77144 0.71886 0.28994
 C172 C 0.72183 0.80023 0.21309
 O173 O 0.80408 0.23468 0.23203
 O174 O 0.74183 0.21445 0.28802
 O175 O 0.75414 0.19968 0.23084
 O176 O 0.79153 0.25053 0.28937
 O177 O 0.75963 0.29612 0.27503
 O178 O 0.72282 0.24570 0.21640
 O179 O 0.70985 0.25995 0.27361
 O180 O 0.77237 0.28050 0.21788
 Cu181 Cu 0.77613 0.22031 0.26162
 Cu182 Cu 0.73795 0.27523 0.24450
 C183 C 0.79847 0.26045 0.21475
 C184 C 0.71522 0.23379 0.29048
 C185 C 0.73274 0.21434 0.21305
 C186 C 0.78161 0.28197 0.29246
 O187 O 0.27768 0.75349 0.21682
 O188 O 0.24114 0.69718 0.27157
 O189 O 0.22918 0.71674 0.21517
 O190 O 0.29044 0.73360 0.27279
 O191 O 0.25790 0.77774 0.28960
 O192 O 0.19571 0.75985 0.23269
 O193 O 0.20898 0.74135 0.28891
 O194 O 0.24448 0.79708 0.23378
 Cu195 Cu 0.26287 0.72079 0.24240
 Cu196 Cu 0.22342 0.77339 0.26292
 C197 C 0.26681 0.78483 0.21558
 C198 C 0.21942 0.70996 0.29019
 C199 C 0.20229 0.73572 0.21369
 C200 C 0.28456 0.75832 0.29128
 O201 O 0.74399 0.20887 0.76961
 O202 O 0.78132 0.26330 0.71348
 O203 O 0.79291 0.24644 0.77043
 O204 O 0.73191 0.22698 0.71286
 O205 O 0.69928 0.27183 0.72800
 O206 O 0.75934 0.29008 0.78660
 O207 O 0.74901 0.30782 0.72986
 O208 O 0.71034 0.25303 0.78454
 Cu209 Cu 0.76582 0.23191 0.74009
 Cu210 Cu 0.72618 0.28507 0.75882
 C211 C 0.72090 0.22167 0.78680
 C212 C 0.77139 0.29486 0.71197
 C213 C 0.78639 0.27140 0.78860
 C214 C 0.70542 0.24651 0.71019
 O215 O 0.29876 0.73162 0.73316
 O216 O 0.23894 0.70994 0.79145
 O217 O 0.25011 0.69377 0.73450
 O218 O 0.28860 0.74635 0.79096
 O219 O 0.25470 0.79105 0.77814
 O220 O 0.21796 0.73905 0.71971
 O221 O 0.20525 0.75410 0.77690
 O222 O 0.26583 0.77709 0.72039
 Cu223 Cu 0.27249 0.71601 0.76390
 Cu224 Cu 0.23260 0.76984 0.74753
 C225 C 0.29235 0.75791 0.71658
 C226 C 0.21172 0.72833 0.79400
 C227 C 0.22788 0.70754 0.71709
 C228 C 0.27796 0.77751 0.79462
 O229 O 0.25014 0.28698 0.73007
 O230 O 0.28932 0.22363 0.78307
 O231 O 0.29867 0.23914 0.72630
 O232 O 0.24027 0.26959 0.78664
 O233 O 0.20536 0.23451 0.77010
 O234 O 0.26592 0.20065 0.71263
 O235 O 0.25418 0.18732 0.76974
 O236 O 0.21816 0.24910 0.71334
 Cu237 Cu 0.27295 0.25865 0.75791
 Cu238 Cu 0.23247 0.21420 0.73989
 C239 C 0.22809 0.27860 0.71208
 C240 C 0.27785 0.19507 0.78619
 C241 C 0.29239 0.21452 0.70925
 C242 C 0.21299 0.25697 0.78887
 O243 O 0.73237 0.78718 0.71076
 O244 O 0.79372 0.75667 0.76828
 O245 O 0.78072 0.74013 0.71186
 O246 O 0.74466 0.80373 0.76725
 O247 O 0.71174 0.76665 0.78389
 O248 O 0.74775 0.70337 0.72896
 O249 O 0.76017 0.72044 0.78540
 O250 O 0.69902 0.75077 0.72792
 Cu251 Cu 0.76624 0.77563 0.73786
 Cu252 Cu 0.72642 0.73147 0.75810
 C253 C 0.70545 0.77381 0.70924
 C254 C 0.78691 0.73410 0.78729
 C255 C 0.76974 0.71113 0.71048
 C256 C 0.72256 0.79567 0.78554
 C257 C 0.32560 0.12108 0.10936
 C258 C 0.34587 0.13053 0.08548
 C259 C 0.35088 0.10954 0.05983
 C260 C 0.33582 0.07914 0.05768
 C261 C 0.31699 0.06986 0.08257
 N262 N 0.31216 0.09089 0.10714
 C263 C 0.31595 0.14383 0.13574
 N264 N 0.29080 0.13577 0.15390
 C265 C 0.27872 0.15600 0.17730
 C266 C 0.29173 0.18693 0.18346
 C267 C 0.31824 0.19544 0.16563
 C268 C 0.33054 0.17397 0.14195
 H269 H 0.36586 0.11755 0.04129
 H270 H 0.30465 0.04682 0.08184
 H271 H 0.25840 0.14823 0.19055
 H272 H 0.32928 0.21887 0.16978
 H273 H 0.35685 0.15433 0.08565
 H274 H 0.35103 0.18136 0.12883
 C275 C 0.80043 0.62512 0.60664
 C276 C 0.78167 0.59837 0.59893
 C277 C 0.78772 0.58094 0.57151
 C278 C 0.81215 0.59015 0.55157
 C279 C 0.82982 0.61748 0.55969
 N280 N 0.82361 0.63402 0.58664
 C281 C 0.79468 0.64509 0.63511
 N282 N 0.80517 0.67677 0.63660
 C283 C 0.79916 0.69756 0.66115
 C284 C 0.78107 0.68695 0.68601
 C285 C 0.77125 0.65386 0.68557
 C286 C 0.77822 0.63277 0.66034
 H287 H 0.77302 0.56048 0.56573
 H288 H 0.84894 0.62529 0.54493
 H289 H 0.80735 0.72284 0.66061
 H290 H 0.75758 0.64450 0.70443
 H291 H 0.76207 0.59124 0.61339
 H292 H 0.77050 0.60733 0.66076
 C293 C 0.68349 0.88628 0.11126
 C294 C 0.67219 0.92102 0.11163
 C295 C 0.66859 0.93903 0.08414
 C296 C 0.67666 0.92281 0.05585
 C297 C 0.68727 0.88743 0.05708
 N298 N 0.69027 0.87067 0.08408
 C299 C 0.68967 0.86605 0.13941
 N300 N 0.68623 0.83203 0.13863
 C301 C 0.69464 0.81099 0.16249
 C302 C 0.70866 0.82372 0.18877
 C303 C 0.71207 0.85881 0.19027
 C304 C 0.70231 0.88011 0.16577
 H305 H 0.65893 0.96549 0.08565
 H306 H 0.69527 0.87291 0.03709
 H307 H 0.69176 0.78408 0.16032
 H308 H 0.72286 0.86963 0.21010
 H309 H 0.66591 0.93411 0.13289
 H310 H 0.70615 0.90687 0.16691
 C311 C 0.19338 0.36800 0.61255
 C312 C 0.17895 0.40178 0.61377
 C313 C 0.17549 0.42083 0.58693
 C314 C 0.18685 0.40644 0.55900
 C315 C 0.20124 0.37249 0.55902
 N316 N 0.20387 0.35440 0.58532
 C317 C 0.19828 0.34671 0.63998
 N318 N 0.19586 0.31262 0.63753
 C319 C 0.20326 0.29077 0.66098
 C320 C 0.21517 0.30282 0.68847
 C321 C 0.21736 0.33797 0.69170
 C322 C 0.20858 0.36008 0.66760
 H323 H 0.16364 0.44663 0.58803
 H324 H 0.21102 0.36040 0.53831
 H325 H 0.20145 0.26381 0.65753
 H326 H 0.22657 0.34818 0.71257
 H327 H 0.17000 0.41313 0.63510
 H328 H 0.21144 0.38698 0.67000
 C329 C 0.87935 0.27596 0.10926
 C330 C 0.91232 0.26302 0.10589
 C331 C 0.92841 0.26705 0.07824
 C332 C 0.91202 0.28418 0.05353
 C333 C 0.87879 0.29657 0.05812
 N334 N 0.86380 0.29243 0.08536
 C335 C 0.86083 0.27259 0.13800
 N336 N 0.83345 0.29443 0.14321
 C337 C 0.81411 0.29207 0.16822
 C338 C 0.82160 0.26606 0.18967
 C339 C 0.84998 0.24354 0.18503
 C340 C 0.86961 0.24667 0.15930
 H341 H 0.95344 0.25557 0.07630
 H342 H 0.86491 0.31102 0.04072
 H343 H 0.79237 0.30990 0.17075
 H344 H 0.85650 0.22285 0.20079
 H345 H 0.92590 0.25023 0.12438
 H346 H 0.89058 0.22812 0.15576
 C347 C 0.37493 0.78490 0.61462
 C348 C 0.40855 0.77407 0.61179
 C349 C 0.42475 0.77918 0.58436
 C350 C 0.40771 0.79522 0.55971
 C351 C 0.37441 0.80672 0.56385
 N352 N 0.35912 0.80130 0.59074
 C353 C 0.35580 0.77854 0.64247
 N354 N 0.32698 0.79810 0.64763
 C355 C 0.30702 0.79271 0.67161
 C356 C 0.31534 0.76576 0.69198
 C357 C 0.34506 0.74539 0.68729
 C358 C 0.36532 0.75165 0.66265
 H359 H 0.45042 0.76975 0.58217
 H360 H 0.36046 0.81975 0.54568
 H361 H 0.28429 0.80901 0.67424
 H362 H 0.35234 0.72417 0.70228
 H363 H 0.42235 0.76176 0.63038
 H364 H 0.38748 0.73477 0.65900
 C365 C 0.11829 0.72281 0.11094
 C366 C 0.08617 0.71377 0.11208
 C367 C 0.06911 0.71003 0.08496
 C368 C 0.08366 0.71576 0.05631
 C369 C 0.11583 0.72595 0.05677
 N370 N 0.13202 0.72868 0.08348
 C371 C 0.13833 0.72483 0.13858
 N372 N 0.17088 0.71397 0.13698
 C373 C 0.19128 0.71600 0.16109
 C374 C 0.17933 0.73062 0.18863
 C375 C 0.14584 0.74210 0.19085
 C376 C 0.12513 0.73886 0.16594
 H377 H 0.04518 0.70086 0.08686
 H378 H 0.12828 0.73276 0.03630
 H379 H 0.21704 0.70725 0.15834
 H380 H 0.13578 0.75371 0.21170
 H381 H 0.07482 0.70826 0.13362
 H382 H 0.09941 0.74822 0.16772
 C383 C 0.62088 0.22543 0.60848
 C384 C 0.58888 0.24127 0.60414
 C385 C 0.57220 0.23560 0.57714
 C386 C 0.58710 0.21405 0.55447
 C387 C 0.61880 0.19824 0.55996
 N388 N 0.63457 0.20425 0.58633
 C389 C 0.64059 0.23084 0.63613
 N390 N 0.66799 0.20907 0.64139
 C391 C 0.68841 0.21294 0.66524
 C392 C 0.68201 0.24040 0.68554
 C393 C 0.65375 0.26301 0.68082
 C394 C 0.63307 0.25842 0.65621
 H395 H 0.54783 0.24844 0.57386
 H396 H 0.63100 0.18089 0.54341
 H397 H 0.70994 0.19490 0.66793
 H398 H 0.64798 0.28472 0.69575
 H399 H 0.57653 0.25766 0.62127
 H400 H 0.61217 0.27699 0.65269
 C401 C 0.67800 0.14239 0.88674
 C402 C 0.66417 0.15842 0.91300
 C403 C 0.66175 0.13967 0.93970
 C404 C 0.67315 0.10467 0.94085
 C405 C 0.68481 0.08922 0.91327
 N406 N 0.68758 0.10831 0.88770
 C407 C 0.68562 0.16211 0.85919
 N408 N 0.71035 0.14916 0.84037
 C409 C 0.72100 0.16699 0.81636
 C410 C 0.70696 0.20033 0.81044
 C411 C 0.68053 0.21365 0.82875
 C412 C 0.66966 0.19463 0.85293
 H413 H 0.65081 0.15297 0.95939
 H414 H 0.69432 0.06263 0.91239
 H415 H 0.74121 0.15553 0.80264
 H416 H 0.66862 0.23905 0.82476
 H417 H 0.65660 0.18550 0.91366
 H418 H 0.64924 0.20560 0.86660
 C419 C 0.19300 0.63087 0.39446
 C420 C 0.20487 0.64312 0.42182
 C421 C 0.20297 0.62415 0.44833
 C422 C 0.18857 0.59324 0.44793
 C423 C 0.17736 0.58165 0.41981
 N424 N 0.18002 0.60041 0.39403
 C425 C 0.19528 0.65057 0.36627
 N426 N 0.20903 0.63520 0.34084
 C427 C 0.21528 0.65332 0.31545
 C428 C 0.20780 0.68891 0.31501
 C429 C 0.19200 0.70478 0.34048
 C430 C 0.18590 0.68574 0.36617
 H431 H 0.21309 0.63364 0.46907
 H432 H 0.16595 0.55809 0.41835
 H433 H 0.22718 0.64011 0.29612
 H434 H 0.18579 0.73216 0.34116
 H435 H 0.21605 0.66690 0.42255
 H436 H 0.17476 0.69846 0.38611
 C437 C 0.32372 0.85387 0.89530
 C438 C 0.33598 0.83741 0.92183
 C439 C 0.34041 0.85645 0.94806
 C440 C 0.33269 0.89219 0.94842
 C441 C 0.32207 0.90772 0.92066
 N442 N 0.31733 0.88844 0.89558
 C443 C 0.31481 0.83447 0.86800
 N444 N 0.29080 0.84867 0.84919
 C445 C 0.27947 0.83154 0.82508
 C446 C 0.29216 0.79776 0.81890
 C447 C 0.31775 0.78306 0.83732
 C448 C 0.32921 0.80129 0.86172
 H449 H 0.35012 0.84282 0.96797
 H450 H 0.31508 0.93487 0.91923
 H451 H 0.25995 0.84404 0.81131
 H452 H 0.32861 0.75724 0.83320
 H453 H 0.34091 0.80996 0.92294
 H454 H 0.34900 0.78933 0.87546
 C455 C 0.82058 0.36047 0.39424
 C456 C 0.84460 0.34985 0.41600
 C457 C 0.84821 0.36995 0.44175
 C458 C 0.82838 0.40078 0.44578
 C459 C 0.80541 0.41102 0.42314
 N460 N 0.80204 0.39083 0.39844
 C461 C 0.81384 0.33967 0.36720
 N462 N 0.79431 0.35456 0.34490
 C463 C 0.78484 0.33702 0.32033
 C464 C 0.79472 0.30203 0.31729
 C465 C 0.81541 0.28619 0.33962
 C466 C 0.82494 0.30480 0.36460
 H467 H 0.86663 0.36149 0.45850
 H468 H 0.78949 0.43453 0.42544
 H469 H 0.76893 0.35032 0.30363
 H470 H 0.82339 0.25917 0.33830
 H471 H 0.86061 0.32651 0.41342
 H472 H 0.83978 0.29144 0.38196
 C473 C 0.12797 0.28548 0.89175
 C474 C 0.09513 0.29889 0.88900
 C475 C 0.07569 0.30390 0.91518
 C476 C 0.08868 0.29480 0.94404
 C477 C 0.12154 0.28051 0.94547
 N478 N 0.14010 0.27662 0.91977
 C479 C 0.14962 0.28056 0.86484
 N480 N 0.13740 0.27100 0.83764
 C481 C 0.15696 0.26420 0.81278
 C482 C 0.19077 0.26725 0.81451
 C483 C 0.20360 0.27801 0.84209
 C484 C 0.18318 0.28430 0.86737
 H485 H 0.05073 0.31550 0.91281
 H486 H 0.13256 0.27208 0.96687
 H487 H 0.14618 0.25607 0.79183
 H488 H 0.22961 0.28038 0.84441
 H489 H 0.08488 0.30620 0.86695
 H490 H 0.19352 0.29189 0.88873
 C491 C 0.61593 0.82204 0.38856
 C492 C 0.62232 0.84458 0.41227
 C493 C 0.60269 0.84638 0.43845
 C494 C 0.57668 0.82593 0.44126
 C495 C 0.56999 0.80523 0.41644
 N496 N 0.58970 0.80352 0.39137
 C497 C 0.63814 0.81512 0.36184
 N498 N 0.63291 0.78849 0.34321
 C499 C 0.65325 0.77834 0.31966
 C500 C 0.68138 0.79497 0.31390
 C501 C 0.68687 0.82312 0.33215
 C502 C 0.66532 0.83340 0.35595
 H503 H 0.60848 0.86304 0.45691
 H504 H 0.55033 0.78883 0.41765
 H505 H 0.64787 0.75666 0.30605
 H506 H 0.70808 0.83694 0.32832
 H507 H 0.64281 0.85979 0.41157
 H508 H 0.67051 0.85510 0.36950
 C509 C 0.87013 0.71433 0.89174
 C510 C 0.90327 0.70164 0.89020
 C511 C 0.92181 0.69875 0.91694
 C512 C 0.90761 0.70934 0.94511
 C513 C 0.87452 0.72304 0.94524
 N514 N 0.85685 0.72477 0.91906
 C515 C 0.84928 0.71657 0.86434
 N516 N 0.86167 0.72567 0.83701
 C517 C 0.84257 0.73025 0.81170
 C518 C 0.80911 0.72532 0.81313
 C519 C 0.79623 0.71485 0.84085
 C520 C 0.81613 0.71084 0.86655
 H521 H 0.94699 0.68749 0.91557
 H522 H 0.86257 0.73254 0.96601
 H523 H 0.85337 0.73828 0.79068
 H524 H 0.77046 0.71114 0.84299
 H525 H 0.91441 0.69310 0.86873
 H526 H 0.80568 0.70357 0.88801
 C527 C 0.37574 0.19789 0.38802
 C528 C 0.37439 0.16941 0.40715
 C529 C 0.39300 0.16678 0.43375
 C530 C 0.41350 0.19196 0.44124
 C531 C 0.41521 0.21932 0.42106
 N532 N 0.39640 0.22168 0.39548
 C533 C 0.35490 0.20345 0.36041
 N534 N 0.36181 0.22786 0.34004
 C535 C 0.34283 0.23592 0.31515
 C536 C 0.31464 0.21927 0.30976
 C537 C 0.30731 0.19370 0.33018
 C538 C 0.32716 0.18582 0.35546
 H539 H 0.39157 0.14489 0.44844
 H540 H 0.43078 0.23927 0.42602
 H541 H 0.34938 0.25590 0.30006
 H542 H 0.28564 0.18040 0.32714
 H543 H 0.35939 0.14915 0.40190
 H544 H 0.31983 0.16698 0.37125
 C545 C 0.69476 0.88022 0.88994
 C546 C 0.70566 0.86566 0.91764
 C547 C 0.70280 0.88517 0.94412
 C548 C 0.68842 0.91906 0.94329
 C549 C 0.67821 0.93282 0.91485
 N550 N 0.68178 0.91336 0.88916
 C551 C 0.69783 0.85988 0.86181
 N552 N 0.71183 0.87245 0.83658
 C553 C 0.71842 0.85306 0.81116
 C554 C 0.71092 0.81904 0.81047
 C555 C 0.69496 0.80636 0.83576
 C556 C 0.68857 0.82662 0.86149
 H557 H 0.71213 0.87371 0.96517
 H558 H 0.66685 0.95874 0.91306
 H559 H 0.73048 0.86385 0.79199
 H560 H 0.68876 0.78027 0.83625
 H561 H 0.71681 0.83956 0.91869
 H562 H 0.67719 0.81618 0.88124
 C563 C 0.18896 0.37013 0.39096
 C564 C 0.20153 0.35553 0.41805
 C565 C 0.19853 0.37426 0.44496
 C566 C 0.18215 0.40743 0.44546
 C567 C 0.16976 0.42109 0.41762
 N568 N 0.17372 0.40248 0.39136
 C569 C 0.19347 0.35080 0.36219
 N570 N 0.20746 0.36487 0.33765
 C571 C 0.21619 0.34638 0.31209
 C572 C 0.21119 0.31162 0.31049
 C573 C 0.19537 0.29725 0.33504
 C574 C 0.18669 0.31666 0.36093
 H575 H 0.20987 0.36284 0.46524
 H576 H 0.15679 0.44636 0.41663
 H577 H 0.22800 0.35852 0.29351
 H578 H 0.19100 0.27058 0.33485
 H579 H 0.21450 0.33017 0.41821
 H580 H 0.17561 0.30488 0.38017
 C581 C 0.31746 0.11343 0.89007
 C582 C 0.33496 0.12652 0.91406
 C583 C 0.33884 0.10853 0.94131
 C584 C 0.32525 0.07728 0.94524
 C585 C 0.30806 0.06507 0.92028
 N586 N 0.30443 0.08333 0.89405
 C587 C 0.31044 0.13260 0.86147
 N588 N 0.28406 0.12564 0.84459
 C589 C 0.27430 0.14395 0.81942
 C590 C 0.29110 0.17159 0.81032
 C591 C 0.31926 0.17821 0.82651
 C592 C 0.32918 0.15865 0.85189
 H593 H 0.35338 0.11897 0.95891
 H594 H 0.29585 0.04206 0.92180
 H595 H 0.25259 0.13780 0.80742
 H596 H 0.33324 0.19899 0.81997
 H597 H 0.34502 0.15080 0.91239
 H598 H 0.35102 0.16431 0.86387
 C599 C 0.82021 0.62905 0.38692
 C600 C 0.83941 0.63972 0.41100
 C601 C 0.84450 0.61930 0.43687
 C602 C 0.83057 0.58825 0.43906
 C603 C 0.81290 0.57771 0.41397
 N604 N 0.80786 0.59826 0.38916
 C605 C 0.81034 0.65147 0.36055
 N606 N 0.78388 0.64451 0.34373
 C607 C 0.77169 0.66496 0.32061
 C608 C 0.78598 0.69492 0.31345
 C609 C 0.81386 0.70212 0.32983
 C610 C 0.82624 0.68045 0.35316
 H611 H 0.85844 0.62833 0.45565
 H612 H 0.80148 0.55410 0.41479
 H613 H 0.75033 0.65820 0.30841
 H614 H 0.82599 0.72467 0.32479
 H615 H 0.84918 0.66419 0.41086
 H616 H 0.84790 0.68666 0.36510
 C617 C 0.12256 0.70150 0.89078
 C618 C 0.08843 0.70961 0.89043
 C619 C 0.07031 0.70710 0.91721
 C620 C 0.08592 0.69656 0.94479
 C621 C 0.12000 0.68641 0.94331
 N622 N 0.13703 0.68932 0.91695
 C623 C 0.14364 0.70705 0.86405
 N624 N 0.17404 0.68962 0.86225
 C625 C 0.19574 0.69518 0.83967
 C626 C 0.18757 0.72017 0.81743
 C627 C 0.15628 0.73828 0.81871
 C628 C 0.13430 0.73183 0.84187
 H629 H 0.04441 0.71571 0.91638
 H630 H 0.13339 0.67582 0.96284
 H631 H 0.21963 0.68067 0.83962
 H632 H 0.14897 0.75790 0.80212
 H633 H 0.07572 0.71840 0.86989
 H634 H 0.11086 0.74710 0.84290
 C635 C 0.62613 0.20861 0.38761
 C636 C 0.59254 0.22010 0.38867
 C637 C 0.57476 0.21609 0.41539
 C638 C 0.59018 0.20040 0.44101
 C639 C 0.62343 0.18797 0.43856
 N640 N 0.64031 0.19243 0.41237
 C641 C 0.64699 0.21433 0.36081
 N642 N 0.67597 0.19450 0.35738
 C643 C 0.69754 0.19952 0.33460
 C644 C 0.69074 0.22633 0.31379
 C645 C 0.66089 0.24692 0.31668
 C646 C 0.63900 0.24106 0.34010
 H647 H 0.54918 0.22619 0.41628
 H648 H 0.63612 0.17511 0.45754
 H649 H 0.72030 0.18305 0.33329
 H650 H 0.65474 0.26802 0.30126
 H651 H 0.58000 0.23221 0.36929
 H652 H 0.61678 0.25817 0.34244
 C653 C 0.87330 0.29436 0.88785
 C654 C 0.90758 0.28771 0.88739
 C655 C 0.92535 0.29070 0.91423
 C656 C 0.90921 0.30014 0.94196
 C657 C 0.87482 0.30814 0.94077
 N658 N 0.85819 0.30503 0.91431
 C659 C 0.85280 0.28948 0.86069
 N660 N 0.82237 0.30680 0.85908
 C661 C 0.80126 0.30219 0.83592
 C662 C 0.81009 0.27833 0.81274
 C663 C 0.84140 0.26027 0.81383
 C664 C 0.86281 0.26578 0.83767
 H665 H 0.95154 0.28359 0.91326
 H666 H 0.86093 0.31742 0.96060
 H667 H 0.77733 0.31659 0.83609
 H668 H 0.84917 0.24150 0.79654
 H669 H 0.92069 0.28000 0.86666
 H670 H 0.88637 0.25071 0.83849
 C671 C 0.37081 0.77578 0.39230
 C672 C 0.40314 0.76039 0.39538
 C673 C 0.42046 0.76519 0.42217
 C674 C 0.40588 0.78547 0.44585
 C675 C 0.37373 0.80071 0.44170
 N676 N 0.35734 0.79558 0.41548
 C677 C 0.35061 0.77141 0.36481
 N678 N 0.32303 0.79324 0.36062
 C679 C 0.30223 0.79025 0.33691
 C680 C 0.30843 0.76370 0.31566
 C681 C 0.33689 0.74108 0.31928
 C682 C 0.35795 0.74474 0.34376
 H683 H 0.44515 0.75279 0.42443
 H684 H 0.36173 0.81706 0.45911
 H685 H 0.28054 0.80824 0.33509
 H686 H 0.34250 0.72001 0.30360
 H687 H 0.41530 0.74511 0.37741
 H688 H 0.37898 0.72615 0.34644
 C689 C 0.30269 0.86631 0.11495
 C690 C 0.28439 0.89712 0.10701
 C691 C 0.29120 0.91321 0.07976
 C692 C 0.31598 0.89866 0.06026
 C693 C 0.33361 0.86783 0.06890
 N694 N 0.32654 0.85261 0.09557
 C695 C 0.29547 0.84703 0.14269
 N696 N 0.30556 0.81305 0.14374
 C697 C 0.29815 0.79300 0.16746
 C698 C 0.27898 0.80696 0.19184
 C699 C 0.26943 0.84217 0.19185
 C700 C 0.27781 0.86231 0.16751
 H701 H 0.27654 0.93659 0.07360
 H702 H 0.35304 0.85590 0.05454
 H703 H 0.30620 0.76599 0.16662
 H704 H 0.25498 0.85407 0.21042
 H705 H 0.26435 0.90836 0.12098
 H706 H 0.27027 0.88939 0.16826
 C707 C 0.81582 0.37642 0.61404
 C708 C 0.80285 0.41030 0.60864
 C709 C 0.81022 0.42630 0.58150
 C710 C 0.83039 0.40889 0.55940
 C711 C 0.84353 0.37538 0.56590
 N712 N 0.83585 0.36021 0.59251
 C713 C 0.80643 0.35683 0.64118
 N714 N 0.81320 0.32223 0.64104
 C715 C 0.80349 0.30210 0.66387
 C716 C 0.78517 0.31658 0.68860
 C717 C 0.77877 0.35220 0.68977
 C718 C 0.78957 0.37238 0.66639
 H719 H 0.79885 0.45186 0.57724
 H720 H 0.85939 0.36105 0.54964
 H721 H 0.80916 0.27473 0.66212
 H722 H 0.76512 0.36449 0.70864
 H723 H 0.78606 0.42420 0.62431
 H724 H 0.78437 0.39972 0.66832
 C725 C 0.70270 0.14155 0.10571
 C726 C 0.71381 0.15357 0.07788
 C727 C 0.70975 0.13516 0.05130
 C728 C 0.69402 0.10508 0.05222
 C729 C 0.68366 0.09371 0.08075
 N730 N 0.68839 0.11187 0.10647
 C731 C 0.70705 0.16037 0.13411
 N732 N 0.71858 0.14321 0.15941
 C733 C 0.72556 0.15974 0.18548
 C734 C 0.72089 0.19551 0.18692
 C735 C 0.70756 0.21344 0.16151
 C736 C 0.70083 0.19598 0.13503
 H737 H 0.71923 0.14440 0.03014
 H738 H 0.67124 0.07081 0.08259
 H739 H 0.73555 0.14502 0.20472
 H740 H 0.70364 0.24104 0.16163
 H741 H 0.72606 0.17667 0.07680
 H742 H 0.69128 0.21017 0.11531
 C743 C 0.18910 0.62906 0.61579
 C744 C 0.17248 0.59959 0.61620
 C745 C 0.16842 0.58188 0.58895
 C746 C 0.18144 0.59312 0.56140
 C747 C 0.19789 0.62287 0.56234
 N748 N 0.20100 0.63983 0.58894
 C749 C 0.19508 0.64852 0.64365
 N750 N 0.19440 0.68308 0.64180
 C751 C 0.20298 0.70249 0.66555
 C752 C 0.21442 0.68700 0.69279
 C753 C 0.21502 0.65142 0.69535
 C754 C 0.20496 0.63211 0.67095
 H755 H 0.15501 0.55959 0.58957
 H756 H 0.20926 0.63228 0.54218
 H757 H 0.20237 0.72982 0.66259
 H758 H 0.22378 0.63854 0.71600
 H759 H 0.16246 0.59060 0.63723
 H760 H 0.20647 0.60460 0.67288
 C761 C 0.87263 0.69746 0.11188
 C762 C 0.86387 0.67689 0.08756
 C763 C 0.88294 0.67454 0.06103
 C764 C 0.91068 0.69260 0.05846
 C765 C 0.91932 0.71173 0.08370
 N766 N 0.90018 0.71395 0.10915
 C767 C 0.85150 0.70446 0.13925
 N768 N 0.85654 0.73188 0.15697
 C769 C 0.83701 0.74180 0.18117
 C770 C 0.81002 0.72403 0.18855
 C771 C 0.80493 0.69500 0.17128
 C772 C 0.82565 0.68499 0.14683
 H773 H 0.87552 0.65922 0.04223
 H774 H 0.94030 0.72636 0.08266
 H775 H 0.84204 0.76419 0.19398
 H776 H 0.78466 0.68024 0.17641
 H777 H 0.84192 0.66382 0.08814
 H778 H 0.82108 0.66244 0.13413
 C779 C 0.37816 0.17879 0.60749
 C780 C 0.37025 0.15812 0.58292
 C781 C 0.38935 0.15694 0.55642
 C782 C 0.41627 0.17624 0.55417
 C783 C 0.42410 0.19544 0.57963
 N784 N 0.40496 0.19648 0.60503
 C785 C 0.35697 0.18471 0.63493
 N786 N 0.36225 0.21130 0.65355
 C787 C 0.34279 0.22044 0.67795
 C788 C 0.31561 0.20268 0.68462
 C789 C 0.31020 0.17448 0.66640
 C790 C 0.33086 0.16526 0.64170
 H791 H 0.38261 0.14151 0.53743
 H792 H 0.44439 0.21104 0.57886
 H793 H 0.34807 0.24220 0.69150
 H794 H 0.28973 0.15980 0.67095
 H795 H 0.34898 0.14399 0.58331
 H796 H 0.32598 0.14339 0.62821
 C797 C 0.11700 0.30615 0.11144
 C798 C 0.08787 0.29037 0.10823
 C799 C 0.07015 0.29411 0.08120
 C800 C 0.08114 0.31340 0.05705
 C801 C 0.10977 0.32967 0.06142
 N802 N 0.12682 0.32546 0.08798
 C803 C 0.13890 0.29999 0.13829
 N804 N 0.17034 0.30842 0.13631
 C805 C 0.19278 0.30107 0.15877
 C806 C 0.18426 0.28340 0.18491
 C807 C 0.15179 0.27551 0.18797
 C808 C 0.12900 0.28409 0.16502
 H809 H 0.04868 0.28038 0.07865
 H810 H 0.11901 0.34504 0.04353
 H811 H 0.21754 0.30785 0.15562
 H812 H 0.14406 0.26245 0.20806
 H813 H 0.07929 0.27390 0.12552
 H814 H 0.10417 0.27786 0.16844
 C815 C 0.61956 0.80134 0.60761
 C816 C 0.58635 0.81396 0.60919
 C817 C 0.56798 0.81752 0.58245
 C818 C 0.58244 0.80810 0.55415
 C819 C 0.61583 0.79558 0.55372
 N820 N 0.63329 0.79278 0.58002
 C821 C 0.64010 0.79690 0.63510
 N822 N 0.67238 0.80217 0.63311
 C823 C 0.69324 0.79660 0.65701
 C824 C 0.68208 0.78389 0.68460
 C825 C 0.64886 0.77843 0.68723
 C826 C 0.62770 0.78523 0.66262
 H827 H 0.54257 0.82808 0.58393
 H828 H 0.62803 0.78744 0.53266
 H829 H 0.71878 0.80077 0.65398
 H830 H 0.63940 0.76844 0.70812
 H831 H 0.57489 0.82159 0.63075
 H832 H 0.60230 0.78010 0.66471
   
