data_POSCAR
  _audit_creation_date              2014-09-24
  _audit_creation_method            'ToBaCCo'
  _symmetry_space_group_name_H-M    'P1'
  _symmetry_Int_Tables_number       1
  _symmetry_cell_setting            triclinic
  loop_
  _symmetry_equiv_pos_as_xyz
 x,y,z
_cell_length_a 29.3586
_cell_length_b 29.4334
_cell_length_c 29.7622
_cell_angle_alpha 89.950700
_cell_angle_beta 90.148300
_cell_angle_gamma 89.734900
loop_
  _atom_site_label
  _atom_site_type_symbol
  _atom_site_fract_x
  _atom_site_fract_y
  _atom_site_fract_z
C1 C 0.17380 0.17038 0.23390
 C2 C 0.15629 0.21110 0.21582
 C3 C 0.17540 0.23085 0.17722
 C4 C 0.21342 0.21014 0.15736
 C5 C 0.23197 0.16949 0.17446
 C6 C 0.21106 0.14942 0.21217
 H7 H 0.12831 0.22790 0.23271
 H8 H 0.22862 0.22595 0.12811
 H9 H 0.22290 0.11705 0.22379
 C10 C -0.17019 0.82748 0.23162
 C11 C -0.15358 0.78602 0.21400
 C12 C -0.17236 0.76716 0.17469
 C13 C -0.20947 0.78891 0.15405
 C14 C -0.22754 0.82936 0.17146
 C15 C -0.20713 0.84879 0.20968
 H16 H -0.12703 0.76741 0.23099
 H17 H -0.22457 0.77409 0.12421
 H18 H -0.21948 0.88104 0.22224
 C19 C -0.17460 0.17384 -0.23485
 C20 C -0.21483 0.15616 -0.21597
 C21 C -0.23411 0.17537 -0.17722
 C22 C -0.21405 0.21385 -0.15806
 C23 C -0.17404 0.23242 -0.17619
 C24 C -0.15487 0.21231 -0.21459
 H25 H -0.23277 0.12882 -0.23200
 H26 H -0.23045 0.22950 -0.12946
 H27 H -0.12415 0.22682 -0.22868
 C28 C 0.17477 0.82628 -0.23619
 C29 C 0.15523 0.78705 -0.21718
 C30 C 0.17471 0.76576 -0.17932
 C31 C 0.21458 0.78376 -0.16061
 C32 C 0.23441 0.82324 -0.17828
 C33 C 0.21457 0.84401 -0.21607
 H34 H 0.12541 0.77246 -0.23289
 H35 H 0.23031 0.76627 -0.13256
 H36 H 0.23088 0.87404 -0.22901
 C37 C 0.16950 1.17271 0.76618
 C38 C 0.20642 1.15082 0.78760
 C39 C 0.22729 1.16971 0.82582
 C40 C 0.20987 1.21016 0.84371
 C41 C 0.17289 1.23245 0.82355
 C42 C 0.15351 1.21418 0.78428
 H43 H 0.21843 1.11857 0.77467
 H44 H 0.22538 1.22456 0.87356
 H45 H 0.12697 1.23323 0.76776
 C46 C 0.83051 0.82654 0.76731
 C47 C 0.84958 0.78701 0.78690
 C48 C 0.83226 0.76869 0.82726
 C49 C 0.79442 0.78996 0.84721
 C50 C 0.77362 0.82826 0.82757
 C51 C 0.79233 0.84652 0.78817
 H52 H 0.87711 0.77005 0.77037
 H53 H 0.78174 0.77684 0.87873
 H54 H 0.77672 0.87657 0.77354
 C55 C 0.16951 0.82996 1.23012
 C56 C 0.15347 0.78889 1.21138
 C57 C 0.17328 0.77025 1.17267
 C58 C 0.21060 0.79223 1.15297
 C59 C 0.22781 0.83263 1.17100
 C60 C 0.20676 0.85154 1.20923
 H61 H 0.12533 0.77072 1.22597
 H62 H 0.22748 0.77744 1.12418
 H63 H 0.21886 0.88349 1.22257
 C64 C 0.82604 1.17556 1.23412
 C65 C 0.78664 1.15582 1.21550
 C66 C 0.76527 1.17456 1.17734
 C67 C 0.78341 1.21389 1.15789
 C68 C 0.82303 1.23391 1.17531
 C69 C 0.84385 1.21483 1.21342
 H70 H 0.77193 1.12647 1.23176
 H71 H 0.76595 1.22910 1.12952
 H72 H 0.87404 1.23124 1.22610
 N73 N 0.54838 0.91897 1.04519
 N74 N 0.58273 0.89041 1.05083
 N75 N 0.45250 0.95040 1.07688
 N76 N 0.41823 0.94434 1.10485
 N77 N 0.45235 0.91924 1.04530
 N78 N 0.41790 0.89111 1.05100
 N79 N 0.54837 0.95007 1.07682
 N80 N 0.58270 0.94349 1.10484
 C81 C 0.60381 0.90614 1.08814
 C82 C 0.39694 0.90720 1.08828
 N83 N 0.45208 1.08010 1.04703
 N84 N 0.41757 1.10830 1.05284
 N85 N 0.54821 1.04807 1.07799
 N86 N 0.58324 1.05327 1.10542
 N87 N 0.54772 1.08009 1.04726
 N88 N 0.58232 1.10796 1.05289
 N89 N 0.45222 1.04828 1.07797
 N90 N 0.41765 1.05394 1.10572
 Mn91 Mn 0.50035 0.99919 1.07798
 C92 C 0.39643 1.09157 1.08953
 C93 C 0.60413 1.09085 1.08926
 N94 N 0.45233 0.92070 0.94821
 N95 N 0.41744 0.89318 0.94222
 N96 N 0.54822 0.95269 0.91765
 N97 N 0.58243 0.94738 0.88944
 N98 N 0.54842 0.92043 0.94816
 N99 N 0.58290 0.89222 0.94147
 N100 N 0.45244 0.95270 0.91743
 N101 N 0.41769 0.94785 0.88967
 Mn102 Mn 0.50036 0.91923 0.99671
 C103 C 0.39623 0.91060 0.90551
 C104 C 0.60377 0.90958 0.90467
 N105 N 0.54745 1.08155 0.95083
 N106 N 0.58214 1.10946 0.94626
 N107 N 0.45202 1.05041 0.91884
 N108 N 0.41776 1.05683 0.89073
 N109 N 0.45179 1.08145 0.95048
 N110 N 0.41737 1.10990 0.94477
 N111 N 0.54788 1.05044 0.91927
 N112 N 0.58302 1.05626 0.89233
 Mn113 Mn 0.49972 1.08129 0.99892
 Mn114 Mn 0.50016 1.00156 0.91778
 Cl115 Cl 0.50015 1.00025 0.99786
 C116 C 0.60395 1.09328 0.90966
 C117 C 0.39648 1.09407 0.90740
 N118 N 0.05170 0.45209 0.08044
 N119 N 0.05756 0.41689 0.10740
 N120 N 0.08081 0.54875 0.05023
 N121 N 0.10732 0.58440 0.05592
 N122 N 0.04892 0.54773 0.08107
 N123 N 0.05292 0.58259 0.10865
 N124 N 0.08362 0.45309 0.04963
 N125 N 0.11212 0.41863 0.05486
 C126 C 0.09546 0.39643 0.09106
 C127 C 0.08950 0.60509 0.09256
 N128 N 0.05020 0.54930 -0.07790
 N129 N 0.05527 0.58412 -0.10540
 N130 N 0.08439 0.45402 -0.04725
 N131 N 0.11257 0.41930 -0.05219
 N132 N 0.05297 0.45373 -0.07872
 N133 N 0.05880 0.41880 -0.10585
 N134 N 0.08168 0.54963 -0.04648
 N135 N 0.10905 0.58469 -0.05175
 Mn136 Mn 0.08320 0.50137 0.00155
 C137 C 0.09213 0.60587 -0.08860
 C138 C 0.09619 0.39775 -0.08895
 N139 N -0.04920 0.54535 0.07985
 N140 N -0.05537 0.58041 0.10683
 N141 N -0.07761 0.44899 0.04782
 N142 N -0.10483 0.41384 0.05323
 N143 N -0.04629 0.44975 0.07938
 N144 N -0.05130 0.41515 0.10712
 N145 N -0.08069 0.54458 0.04845
 N146 N -0.10918 0.57907 0.05324
 Mn147 Mn 0.00128 0.49875 0.08074
 C148 C -0.09302 0.60102 0.08984
 C149 C -0.08789 0.39309 0.09037
 N150 N -0.04491 0.45112 -0.07993
 N151 N -0.04915 0.41675 -0.10808
 N152 N -0.07989 0.54536 -0.04830
 N153 N -0.10878 0.57944 -0.05381
 N154 N -0.04779 0.54665 -0.07890
 N155 N -0.05386 0.58165 -0.10600
 N156 N -0.07670 0.44972 -0.04902
 N157 N -0.10341 0.41429 -0.05526
 Mn158 Mn 0.00262 0.50024 -0.07939
 Mn159 Mn -0.07930 0.49711 -0.00027
 Cl160 Cl 0.00195 0.49936 0.00067
 C161 C -0.08575 0.39410 -0.09227
 C162 C -0.09207 0.60172 -0.08994
 N163 N 0.91885 0.05037 0.54747
 N164 N 0.89132 0.05658 0.58196
 N165 N 0.94951 0.08177 0.45253
 N166 N 0.94342 0.10983 0.41836
 N167 N 0.91768 0.05058 0.45295
 N168 N 0.88906 0.05654 0.41920
 N169 N 0.95064 0.08157 0.54698
 N170 N 0.94569 0.10986 0.58097
 C171 C 0.90860 0.09387 0.60247
 C172 C 0.90552 0.09357 0.39795
 N173 N 1.07920 0.04926 0.45205
 N174 N 1.10708 0.05520 0.41784
 N175 N 1.04844 0.08041 0.54670
 N176 N 1.05465 0.10828 0.58088
 N177 N 1.07979 0.04847 0.54655
 N178 N 1.10830 0.05378 0.58046
 N179 N 1.04751 0.08087 0.45227
 N180 N 1.05288 0.10916 0.41833
 Mn181 Mn 0.99903 0.08168 0.49958
 C182 C 1.09015 0.09275 0.39720
 C183 C 1.09216 0.09117 0.60157
 N184 N 0.91711 -0.04715 0.45235
 N185 N 0.88861 -0.05242 0.41837
 N186 N 0.94929 -0.07963 0.54647
 N187 N 0.94354 -0.10756 0.58076
 N188 N 0.91806 -0.04754 0.54684
 N189 N 0.89023 -0.05276 0.58118
 N190 N 0.94879 -0.07879 0.45174
 N191 N 0.94276 -0.10640 0.41735
 Mn192 Mn 0.91738 0.00156 0.49995
 C193 C 0.90506 -0.08950 0.39687
 C194 C 0.90648 -0.09032 0.60202
 N195 N 1.07928 -0.04951 0.54614
 N196 N 1.10739 -0.05594 0.58031
 N197 N 1.04718 -0.07976 0.45095
 N198 N 1.05302 -0.10727 0.41631
 N199 N 1.07896 -0.04850 0.45157
 N200 N 1.10724 -0.05388 0.41759
 N201 N 1.04753 -0.08079 0.54574
 N202 N 1.05314 -0.10933 0.57954
 Mn203 Mn 1.07986 -0.00009 0.49912
 Mn204 Mn 0.99819 -0.08034 0.49868
 Cl205 Cl 0.99862 0.00066 0.49933
 C206 C 1.09058 -0.09344 0.60079
 C207 C 1.09070 -0.09059 0.39587
 C208 C 1.15308 0.15239 0.27290
 C209 C 1.16823 0.11587 0.29607
 C210 C 1.14660 0.09699 0.33685
 C211 C 1.10919 0.11364 0.35661
 H212 H 1.19868 0.09794 0.28629
 H213 H 1.16309 0.06736 0.35131
 H214 H 1.12327 0.17012 0.28499
 H215 H 1.09161 0.14313 0.34361
 C216 C 0.84800 -0.15137 0.27037
 C217 C 0.88424 -0.16645 0.29404
 C218 C 0.90288 -0.14434 0.33483
 C219 C 0.88421 -0.10872 0.35614
 H220 H 0.90291 -0.19625 0.28373
 H221 H 0.93390 -0.15920 0.34823
 H222 H 0.83146 -0.12041 0.28115
 H223 H 0.85312 -0.09298 0.34438
 C224 C 0.84636 0.15524 0.72654
 C225 C 0.83304 0.11683 0.70562
 C226 C 0.85416 0.09757 0.66470
 C227 C 0.89001 0.11505 0.64318
 H228 H 0.80523 0.09684 0.71825
 H229 H 0.83874 0.06686 0.65174
 H230 H 0.87542 0.17332 0.71356
 H231 H 0.90678 0.14534 0.65498
 C232 C 1.15369 -0.15447 0.72536
 C233 C 1.16853 -0.11756 0.70292
 C234 C 1.14658 -0.09789 0.66230
 C235 C 1.10999 -0.11488 0.64128
 H236 H 1.19849 -0.09959 0.71374
 H237 H 1.16222 -0.06748 0.64893
 H238 H 1.12333 -0.17118 0.71338
 H239 H 1.09330 -0.14515 0.65318
 C240 C 0.27060 1.15073 1.15288
 C241 C 0.29430 1.11414 1.16739
 C242 C 0.33513 1.09492 1.14519
 C243 C 0.35545 1.11241 1.10892
 H244 H 0.28499 1.09640 1.19764
 H245 H 0.34940 1.06459 1.16047
 H246 H 0.28197 1.16794 1.12292
 H247 H 0.34276 1.14272 1.09267
 C248 C 0.27678 0.84302 0.84062
 C249 C 0.29079 0.83660 0.88318
 C250 C 0.33297 0.85619 0.90227
 C251 C 0.35468 0.89210 0.88497
 H252 H 0.27122 0.81555 0.90569
 H253 H 0.34556 0.84099 0.93308
 H254 H 0.29655 0.86416 0.81832
 H255 H 0.34165 0.90945 0.85558
 C256 C 0.73301 0.85068 1.14809
 C257 C 0.70362 0.87921 1.16820
 C258 C 0.66363 0.90017 1.14579
 C259 C 0.64452 0.88460 1.10790
 H260 H 0.70850 0.88845 1.20300
 H261 H 0.64821 0.92887 1.16281
 H262 H 0.72780 0.84135 1.11333
 H263 H 0.65779 0.85479 1.09118
 C264 C 0.72357 1.15720 0.84287
 C265 C 0.71081 1.11362 0.83874
 C266 C 0.66843 1.09488 0.85761
 C267 C 0.64563 1.11365 0.89179
 H268 H 0.73160 1.08995 0.81998
 H269 H 0.65668 1.06309 0.84351
 H270 H 0.70289 1.18070 0.86199
 H271 H 0.65799 1.14394 0.90822
 C272 C 0.15789 0.27397 0.15751
 C273 C 0.11505 0.28917 0.16308
 C274 C 0.09692 0.33195 0.14364
 C275 C 0.11596 0.35459 0.10943
 H276 H 0.09137 0.26998 0.18324
 H277 H 0.06512 0.34428 0.15754
 H278 H 0.18135 0.29313 0.13704
 H279 H 0.14651 0.34210 0.09337
 C280 C -0.15230 0.27370 -0.15717
 C281 C -0.15827 0.28767 -0.11458
 C282 C -0.13844 0.32954 -0.09530
 C283 C -0.10367 0.35258 -0.11325
 H284 H -0.17955 0.26837 -0.09206
 H285 H -0.15289 0.34107 -0.06383
 H286 H -0.13058 0.29283 -0.17945
 H287 H -0.08705 0.34086 -0.14347
 C288 C 0.15584 0.72364 -0.15923
 C289 C 0.11228 0.71055 -0.16359
 C290 C 0.09360 0.66867 -0.14324
 C291 C 0.11205 0.64737 -0.10770
 H292 H 0.08873 0.73053 -0.18348
 H293 H 0.06213 0.65599 -0.15748
 H294 H 0.17910 0.70318 -0.13943
 H295 H 0.14201 0.66068 -0.09124
 C296 C -0.15524 0.72396 0.15506
 C297 C -0.11247 0.70857 0.16095
 C298 C -0.09449 0.66565 0.14197
 C299 C -0.11355 0.64290 0.10782
 H300 H -0.08869 0.72775 0.18110
 H301 H -0.06272 0.65332 0.15614
 H302 H -0.17880 0.70501 0.13443
 H303 H -0.14403 0.65540 0.09146
 C304 C 1.15066 0.15210 0.72750
 C305 C 1.11448 0.16789 0.70416
 C306 C 1.09522 0.14619 0.66345
 C307 C 1.11332 0.11037 0.64208
 H308 H 1.09639 0.19797 0.71468
 H309 H 1.06431 0.16145 0.65022
 H310 H 1.16665 0.12094 0.71651
 H311 H 1.14429 0.09426 0.65366
 C312 C 0.84763 -0.15314 0.72758
 C313 C 0.88537 -0.16676 0.70535
 C314 C 0.90344 -0.14575 0.66376
 C315 C 0.88599 -0.10914 0.64310
 H316 H 0.90578 -0.19478 0.71726
 H317 H 0.93350 -0.16175 0.64971
 H318 H 0.82890 -0.12423 0.71475
 H319 H 0.85635 -0.09179 0.65605
 C320 C 1.15014 -0.14955 0.26877
 C321 C 1.11421 -0.16581 0.29197
 C322 C 1.09425 -0.14464 0.33276
 C323 C 1.11199 -0.10937 0.35509
 H324 H 1.09690 -0.19616 0.28138
 H325 H 1.06333 -0.15998 0.34535
 H326 H 1.16558 -0.11830 0.28001
 H327 H 1.14307 -0.09342 0.34411
 C328 C 0.84537 0.15513 0.27279
 C329 C 0.88230 0.17031 0.29516
 C330 C 0.90196 0.14874 0.33594
 C331 C 0.88421 0.11300 0.35752
 H332 H 0.90030 0.20009 0.28411
 H333 H 0.93288 0.16387 0.34892
 H334 H 0.82871 0.12492 0.28494
 H335 H 0.85332 0.09694 0.34612
 C336 C 0.15647 0.27556 -0.15632
 C337 C 0.11360 0.29088 -0.16104
 C338 C 0.09633 0.33371 -0.14147
 C339 C 0.11607 0.35581 -0.10728
 H340 H 0.08928 0.27179 -0.18067
 H341 H 0.06456 0.34651 -0.15520
 H342 H 0.18061 0.29445 -0.13628
 H343 H 0.14650 0.34274 -0.09125
 C344 C -0.15706 0.27575 0.15584
 C345 C -0.16269 0.28856 0.11286
 C346 C -0.14259 0.33013 0.09334
 C347 C -0.10662 0.35177 0.11082
 H348 H -0.18344 0.26846 0.09044
 H349 H -0.15750 0.34238 0.06225
 H350 H -0.13635 0.29610 0.17810
 H351 H -0.08954 0.33901 0.14049
 C352 C -0.14931 0.72968 -0.15141
 C353 C -0.11209 0.70659 -0.16508
 C354 C -0.09353 0.66534 -0.14306
 C355 C -0.11301 0.64293 -0.10896
 H356 H -0.09248 0.71765 -0.19356
 H357 H -0.06180 0.65250 -0.15671
 H358 H -0.16658 0.71812 -0.12154
 H359 H -0.14475 0.65413 -0.09438
 C360 C 0.15479 0.72695 0.15483
 C361 C 0.15977 0.71332 0.11206
 C362 C 0.14139 0.67031 0.09401
 C363 C 0.10691 0.64728 0.11250
 H364 H 0.17869 0.73385 0.08856
 H365 H 0.15609 0.65827 0.06284
 H366 H 0.13579 0.70612 0.17807
 H367 H 0.08988 0.65977 0.14222
 C368 C 0.26662 1.14788 0.84872
 C369 C 0.29619 1.12009 0.82794
 C370 C 0.33641 1.09934 0.85002
 C371 C 0.35572 1.11533 0.88763
 H372 H 0.29128 1.11147 0.79297
 H373 H 0.35180 1.07059 0.83304
 H374 H 0.27173 1.15641 0.88369
 H375 H 0.34251 1.14528 0.90415
 C376 C 0.26722 0.85405 1.14802
 C377 C 0.29645 0.88261 1.16806
 C378 C 0.33672 0.90273 1.14566
 C379 C 0.35606 0.88638 1.10811
 H380 H 0.29121 0.89238 1.20267
 H381 H 0.35212 0.93152 1.16237
 H382 H 0.27270 0.84452 1.11338
 H383 H 0.34278 0.85650 1.09169
 C384 C 0.72290 1.15543 1.15782
 C385 C 0.70988 1.11203 1.16295
 C386 C 0.66775 1.09291 1.14325
 C387 C 0.64564 1.11113 1.10811
 H388 H 0.73022 1.08886 1.18289
 H389 H 0.65560 1.06138 1.15759
 H390 H 0.70223 1.17836 1.13791
 H391 H 0.65834 1.14121 1.09159
 C392 C 0.73324 0.85095 0.84800
 C393 C 0.70431 0.82995 0.87613
 C394 C 0.66406 0.85164 0.89728
 C395 C 0.64458 0.89030 0.88304
 H396 H 0.70987 0.79478 0.88507
 H397 H 0.64889 0.83349 0.92512
 H398 H 0.72724 0.88599 0.83873
 H399 H 0.65767 0.90819 0.85414
   
