data_POSCAR
  _audit_creation_date              2014-09-24
  _audit_creation_method            'ToBaCCo'
  _symmetry_space_group_name_H-M    'P1'
  _symmetry_Int_Tables_number       1
  _symmetry_cell_setting            triclinic
  loop_
  _symmetry_equiv_pos_as_xyz
 x,y,z
_cell_length_a 11.7916
_cell_length_b 24.0331
_cell_length_c 11.7409
_cell_angle_alpha 90.236700
_cell_angle_beta 90.224700
_cell_angle_gamma 89.371800
loop_
  _atom_site_label
  _atom_site_type_symbol
  _atom_site_fract_x
  _atom_site_fract_y
  _atom_site_fract_z
N1 N 0.17050 0.06843 0.14982
 N2 N 0.21889 0.11762 0.15562
 N3 N 0.08883 -0.04995 0.22109
 N4 N 0.08413 -0.09641 0.28037
 N5 N 0.18152 -0.04891 0.15955
 N6 N 0.24221 -0.09466 0.17579
 N7 N 0.08023 0.06729 0.21501
 N8 N 0.06578 0.11559 0.26735
 C9 C 0.15371 0.14616 0.23070
 C10 C 0.18147 -0.12323 0.25272
 N11 N -0.21444 -0.05560 0.08220
 N12 N -0.26869 -0.10325 0.07572
 N13 N -0.15766 0.06346 0.16923
 N14 N -0.17558 0.10974 0.22724
 N15 N -0.22340 0.06129 0.07909
 N16 N -0.29377 0.10838 0.07693
 N17 N -0.15120 -0.05381 0.17459
 N18 N -0.16182 -0.10010 0.23356
 Mn19 Mn -0.03522 0.00661 0.19634
 C20 C -0.23685 -0.13005 0.17181
 C21 C -0.26027 0.13681 0.17143
 N22 N 0.22746 -0.05295 -0.08081
 N23 N 0.28099 -0.10376 -0.05977
 N24 N 0.15474 0.06014 -0.18342
 N25 N 0.17104 0.10382 -0.24907
 N26 N 0.21673 0.06352 -0.09071
 N27 N 0.27745 0.10926 -0.09124
 N28 N 0.16145 -0.05789 -0.17054
 N29 N 0.16649 -0.10944 -0.21042
 Mn30 Mn 0.20013 0.00772 0.03483
 C31 C 0.24058 -0.13760 -0.14181
 C32 C 0.24948 0.13360 -0.19141
 N33 N -0.17623 0.05882 -0.16447
 N34 N -0.23385 0.10552 -0.18134
 N35 N -0.07878 -0.05970 -0.21886
 N36 N -0.06974 -0.10725 -0.27489
 N37 N -0.17165 -0.05831 -0.15804
 N38 N -0.22934 -0.10816 -0.17238
 N39 N -0.08439 0.05758 -0.22783
 N40 N -0.07706 0.10361 -0.28823
 Mn41 Mn -0.19788 0.00176 -0.04066
 Mn42 Mn 0.03864 -0.00013 -0.20170
 Cl43 Cl 0.00132 0.00402 -0.00291
 C44 C -0.17212 0.13238 -0.26056
 C45 C -0.16295 -0.13677 -0.24717
 N46 N 0.72558 0.55922 0.57789
 N47 N 0.78455 0.60536 0.57065
 N48 N 0.66228 0.44230 0.66710
 N49 N 0.67498 0.39451 0.72102
 N50 N 0.72180 0.44185 0.57274
 N51 N 0.77582 0.39380 0.56023
 N52 N 0.66531 0.55950 0.67165
 N53 N 0.68310 0.60550 0.73055
 C54 C 0.75967 0.63352 0.66762
 C55 C 0.74743 0.36516 0.65436
 N56 N 0.33071 0.44524 0.65433
 N57 N 0.28031 0.39647 0.66033
 N58 N 0.42556 0.56240 0.72150
 N59 N 0.42908 0.60680 0.78823
 N60 N 0.33136 0.56244 0.66176
 N61 N 0.26806 0.60625 0.68726
 N62 N 0.42321 0.44494 0.71701
 N63 N 0.43647 0.39632 0.76693
 Mn64 Mn 0.54437 0.50246 0.69584
 C65 C 0.34690 0.36620 0.73206
 C66 C 0.32896 0.63342 0.76757
 N67 N 0.67031 0.44410 0.33303
 N68 N 0.71857 0.39451 0.32291
 N69 N 0.58281 0.56389 0.27695
 N70 N 0.57535 0.61216 0.22372
 N71 N 0.67612 0.56144 0.33827
 N72 N 0.73398 0.60781 0.32839
 N73 N 0.57693 0.44637 0.27191
 N74 N 0.56024 0.39840 0.22004
 Mn75 Mn 0.69983 0.50160 0.45514
 C76 C 0.64960 0.36626 0.25092
 C77 C 0.67125 0.63861 0.25521
 N78 N 0.28383 0.56704 0.42143
 N79 N 0.23467 0.61624 0.43590
 N80 N 0.33835 0.44970 0.32070
 N81 N 0.31741 0.40491 0.25895
 N82 N 0.27892 0.44920 0.41492
 N83 N 0.21686 0.40391 0.42008
 N84 N 0.34355 0.56650 0.32698
 N85 N 0.33493 0.61475 0.27444
 Mn86 Mn 0.30469 0.50596 0.53829
 Mn87 Mn 0.46025 0.50668 0.29771
 Cl88 Cl 0.50226 0.50424 0.49685
 C89 C 0.26603 0.64506 0.34253
 C90 C 0.24014 0.37718 0.32125
 C91 C 0.21178 0.28041 0.38313
 C92 C 0.19201 0.22432 0.36141
 C93 C 0.16388 0.20627 0.25167
 C94 C 0.14811 0.24578 0.16359
 C95 C 0.16850 0.30288 0.18561
 C96 C 0.20383 0.31988 0.29570
 C97 C 0.15147 0.34110 0.09655
 N98 N 0.11684 0.32299 -0.00729
 N99 N 0.09778 0.26939 -0.02794
 C100 C 0.11205 0.23019 0.05370
 H101 H 0.23837 0.29274 0.46787
 H102 H 0.20263 0.19457 0.42984
 H103 H 0.16341 0.38523 0.10876
 H104 H 0.09391 0.18743 0.03212
 C105 C 0.72231 0.71630 0.12888
 C106 C 0.74366 0.77236 0.10914
 C107 C 0.73354 0.81184 0.19691
 C108 C 0.69858 0.79467 0.30629
 C109 C 0.67690 0.73764 0.32641
 C110 C 0.69014 0.69833 0.23700
 C111 C 0.64013 0.72204 0.43534
 N112 N 0.62662 0.76107 0.51784
 N113 N 0.64610 0.81465 0.49880
 C114 C 0.68116 0.83283 0.39590
 H115 H 0.73213 0.68669 0.05968
 H116 H 0.77125 0.78486 0.02536
 H117 H 0.62049 0.67942 0.45562
 H118 H 0.69319 0.87697 0.38511
 C119 C 0.85563 0.28774 0.74133
 C120 C 0.87515 0.23128 0.76094
 C121 C 0.80813 0.19091 0.70792
 C122 C 0.72113 0.20754 0.63167
 C123 C 0.70130 0.26497 0.61140
 C124 C 0.76888 0.30514 0.66770
 C125 C 0.61225 0.28024 0.53735
 N126 N 0.54873 0.24041 0.48659
 N127 N 0.56806 0.18647 0.50504
 C128 C 0.65201 0.16867 0.57581
 H129 H 0.90754 0.31807 0.78511
 H130 H 0.94120 0.21894 0.82033
 H131 H 0.59247 0.32337 0.51945
 H132 H 0.66387 0.12439 0.58801
 C133 C 0.22140 0.72111 0.74395
 C134 C 0.20394 0.77742 0.76331
 C135 C 0.26222 0.80651 0.84971
 C136 C 0.33542 0.77443 0.92456
 C137 C 0.34792 0.71570 0.90621
 C138 C 0.29795 0.69018 0.80961
 C139 C 0.40723 0.68374 0.98756
 N140 N 0.45780 0.70873 1.07725
 N141 N 0.45421 0.76357 1.09075
 C142 C 0.39666 0.79713 1.01782
 H143 H 0.17833 0.70235 0.67210
 H144 H 0.14567 0.79847 0.70600
 H145 H 0.41065 0.63891 0.98362
 H146 H 0.40190 0.84058 1.03644
 C147 C 0.22743 0.28274 0.71811
 C148 C 0.20479 0.22643 0.73013
 C149 C 0.28564 0.19016 0.77664
 C150 C 0.39456 0.21039 0.80390
 C151 C 0.41667 0.26846 0.79843
 C152 C 0.33138 0.30539 0.75329
 C153 C 0.52346 0.28615 0.83893
 N154 N 0.60281 0.24855 0.87316
 N155 N 0.58401 0.19418 0.86983
 C156 C 0.48303 0.17380 0.83567
 H157 H 0.16106 0.30910 0.68286
 H158 H 0.12153 0.21153 0.70672
 H159 H 0.54637 0.32880 0.84759
 H160 H 0.47328 0.12916 0.83340
 C161 C 0.72171 0.72294 0.76498
 C162 C 0.73462 0.77985 0.77986
 C163 C 0.81853 0.80951 0.72133
 C164 C 0.88439 0.78007 0.63781
 C165 C 0.87668 0.72101 0.62922
 C166 C 0.79121 0.69247 0.69033
 C167 C 0.95423 0.69289 0.55777
 N168 N 1.02218 0.72196 0.48766
 N169 N 1.01924 0.77722 0.48522
 C170 C 0.95272 0.80719 0.55696
 H171 H 0.65442 0.70286 0.81146
 H172 H 0.67877 0.80028 0.84045
 H173 H 0.96373 0.64827 0.55769
 H174 H 0.95115 0.85164 0.54569
 C175 C 0.18759 0.72147 0.22682
 C176 C 0.16727 0.77758 0.20506
 C177 C 0.20486 0.81844 0.28113
 C178 C 0.26519 0.80286 0.38023
 C179 C 0.28655 0.74575 0.40225
 C180 C 0.24515 0.70489 0.32564
 C181 C 0.35110 0.73178 0.49906
 N182 N 0.38817 0.77242 0.57010
 N183 N 0.36603 0.82598 0.55051
 C184 C 0.30590 0.84262 0.45791
 H185 H 0.15784 0.69071 0.16627
 H186 H 0.12217 0.78929 0.12802
 H187 H 0.37308 0.68915 0.51896
 H188 H 0.29092 0.88667 0.44553
 C189 C 0.75757 0.27896 0.27641
 C190 C 0.77729 0.22228 0.26435
 C191 C 0.70412 0.18886 0.19961
 C192 C 0.59996 0.21271 0.16108
 C193 C 0.58090 0.27137 0.16957
 C194 C 0.66231 0.30522 0.22756
 C195 C 0.47936 0.29270 0.12175
 N196 N 0.39906 0.25780 0.08175
 N197 N 0.41251 0.20292 0.08493
 C198 C 0.50973 0.17920 0.12330
 H199 H 0.81958 0.30256 0.32412
 H200 H 0.85552 0.20568 0.30003
 H201 H 0.46088 0.33615 0.11336
 H202 H 0.51368 0.13435 0.12684
   
