data_POSCAR
  _audit_creation_date              2014-09-24
  _audit_creation_method            'ToBaCCo'
  _symmetry_space_group_name_H-M    'P1'
  _symmetry_Int_Tables_number       1
  _symmetry_cell_setting            triclinic
  loop_
  _symmetry_equiv_pos_as_xyz
 x,y,z
_cell_length_a 14.7434
_cell_length_b 22.5098
_cell_length_c 14.8855
_cell_angle_alpha 90.427600
_cell_angle_beta 89.611100
_cell_angle_gamma 89.787500
loop_
  _atom_site_label
  _atom_site_type_symbol
  _atom_site_fract_x
  _atom_site_fract_y
  _atom_site_fract_z
N1 N 0.16092 0.06375 0.08932
 N2 N 0.21633 0.10919 0.09868
 N3 N 0.09795 -0.06103 0.15166
 N4 N 0.10829 -0.10742 0.20450
 N5 N 0.16034 -0.06099 0.08828
 N6 N 0.21491 -0.10719 0.09632
 N7 N 0.09889 0.06418 0.15300
 N8 N 0.11014 0.11015 0.20731
 C9 C 0.18387 0.13761 0.17252
 C10 C 0.18178 -0.13564 0.16911
 N11 N -0.16153 -0.05881 0.09481
 N12 N -0.21647 -0.10440 0.10529
 N13 N -0.09606 0.06562 0.15680
 N14 N -0.10266 0.11269 0.20997
 N15 N -0.15979 0.06614 0.09568
 N16 N -0.21387 0.11663 0.10705
 N17 N -0.09737 -0.05951 0.15555
 N18 N -0.10670 -0.10570 0.20888
 Mn19 Mn 0.00083 0.00226 0.15542
 C20 C -0.18151 -0.13308 0.17675
 C21 C -0.17507 0.14346 0.17906
 N22 N 0.15816 -0.06119 -0.10479
 N23 N 0.21358 -0.11101 -0.11576
 N24 N 0.09484 0.06339 -0.16561
 N25 N 0.10363 0.10938 -0.21941
 N26 N 0.15826 0.06387 -0.10409
 N27 N 0.21184 0.11030 -0.11430
 N28 N 0.09407 -0.06176 -0.16545
 N29 N 0.10179 -0.10896 -0.21822
 Mn30 Mn 0.16049 0.00140 -0.00783
 C31 C 0.17524 -0.13864 -0.18719
 C32 C 0.17696 0.13811 -0.18681
 N33 N -0.16218 0.06566 -0.09813
 N34 N -0.21571 0.11241 -0.10715
 N35 N -0.10145 -0.06074 -0.16171
 N36 N -0.11084 -0.10774 -0.21437
 N37 N -0.16422 -0.05964 -0.09876
 N38 N -0.22044 -0.10904 -0.10818
 N39 N -0.10035 0.06423 -0.16203
 N40 N -0.11024 0.10973 -0.21642
 Mn41 Mn -0.16311 0.00341 -0.00157
 Mn42 Mn -0.00324 0.00121 -0.16479
 Cl43 Cl -0.00130 0.00207 -0.00470
 C44 C -0.18242 0.13928 -0.18151
 C45 C -0.18387 -0.13688 -0.18115
 N46 N 0.66018 0.56779 0.59572
 N47 N 0.71393 0.61413 0.60491
 N48 N 0.59783 0.44303 0.65966
 N49 N 0.60708 0.39720 0.71382
 N50 N 0.66238 0.44298 0.59843
 N51 N 0.71750 0.39737 0.60944
 N52 N 0.59611 0.56850 0.65750
 N53 N 0.60454 0.61561 0.71038
 C54 C 0.67862 0.64349 0.67668
 C55 C 0.68234 0.36936 0.68167
 N56 N 0.34059 0.44153 0.59313
 N57 N 0.28670 0.39525 0.60163
 N58 N 0.40058 0.56738 0.65437
 N59 N 0.38908 0.61445 0.70673
 N60 N 0.33922 0.56631 0.59083
 N61 N 0.28417 0.61244 0.59830
 N62 N 0.40220 0.44193 0.65646
 N63 N 0.39194 0.39563 0.70968
 Mn64 Mn 0.49914 0.50520 0.65829
 C65 C 0.31925 0.36714 0.67462
 C66 C 0.31597 0.64196 0.67091
 N67 N 0.66653 0.43985 0.40495
 N68 N 0.72169 0.39370 0.39704
 N69 N 0.60305 0.56330 0.33872
 N70 N 0.61325 0.60809 0.28307
 N71 N 0.66435 0.56514 0.40221
 N72 N 0.71787 0.61154 0.39166
 N73 N 0.60468 0.43854 0.34191
 N74 N 0.61599 0.39153 0.28942
 Mn75 Mn 0.66449 0.50398 0.50037
 C76 C 0.68941 0.36408 0.32457
 C77 C 0.68508 0.63768 0.31678
 N78 N 0.34394 0.56407 0.39742
 N79 N 0.28979 0.61023 0.38584
 N80 N 0.40976 0.43833 0.33874
 N81 N 0.40131 0.39215 0.28452
 N82 N 0.34526 0.43881 0.39995
 N83 N 0.29120 0.39269 0.38927
 N84 N 0.40822 0.56298 0.33594
 N85 N 0.39949 0.60819 0.28075
 Mn86 Mn 0.34113 0.50271 0.49535
 Mn87 Mn 0.50646 0.50074 0.33785
 Cl88 Cl 0.50282 0.50316 0.49806
 C89 C 0.32530 0.63715 0.31253
 C90 C 0.32716 0.36419 0.31679
 C91 C 0.22374 0.19249 0.20790
 C92 C 0.18644 0.22288 0.27665
 C93 C 0.22310 0.27905 0.31369
 C94 C 0.29244 0.30899 0.27736
 H95 H 0.12568 0.20591 0.30856
 H96 H 0.19020 0.29652 0.37364
 H97 H 0.28484 0.20740 0.17493
 H98 H 0.32632 0.29353 0.21709
 C99 C 0.78021 0.81176 0.21241
 C100 C 0.82046 0.78116 0.27811
 C101 C 0.78511 0.72496 0.31544
 C102 C 0.71996 0.69248 0.27683
 H103 H 0.88197 0.79834 0.30786
 H104 H 0.81564 0.70953 0.37706
 H105 H 0.71751 0.79690 0.18287
 H106 H 0.68980 0.70568 0.21415
 C107 C 0.78257 0.19460 0.77998
 C108 C 0.71668 0.22686 0.81948
 C109 C 0.68070 0.28332 0.78311
 C110 C 0.72103 0.31428 0.71753
 H111 H 0.68580 0.21095 0.88097
 H112 H 0.61858 0.30024 0.81320
 H113 H 0.81310 0.20828 0.71738
 H114 H 0.78427 0.29959 0.68774
 C115 C 0.20472 0.81015 0.77684
 C116 C 0.27994 0.77942 0.81065
 C117 C 0.31393 0.72566 0.77622
 C118 C 0.27826 0.69491 0.70251
 H119 H 0.31550 0.79780 0.86793
 H120 H 0.37257 0.70728 0.80980
 H121 H 0.16752 0.79296 0.72016
 H122 H 0.22022 0.71165 0.66673
 C123 C 0.21148 0.19376 0.77479
 C124 C 0.28029 0.22414 0.81146
 C125 C 0.31681 0.28086 0.77616
 C126 C 0.28027 0.31144 0.70835
 H127 H 0.31288 0.20666 0.87072
 H128 H 0.37675 0.29815 0.80877
 H129 H 0.17790 0.20927 0.71517
 H130 H 0.22007 0.29598 0.67478
 C131 C 0.78584 0.81220 0.78304
 C132 C 0.71085 0.78133 0.81753
 C133 C 0.67738 0.72756 0.78275
 C134 C 0.71473 0.69652 0.70931
 H135 H 0.67507 0.79967 0.87529
 H136 H 0.61829 0.70923 0.81603
 H137 H 0.82246 0.79532 0.72518
 H138 H 0.77383 0.71299 0.67451
 C139 C 0.22105 0.80884 0.20304
 C140 C 0.18415 0.77899 0.27173
 C141 C 0.22077 0.72274 0.30834
 C142 C 0.29058 0.69217 0.27254
 H143 H 0.12380 0.79667 0.30431
 H144 H 0.18754 0.70587 0.36800
 H145 H 0.28163 0.79306 0.16935
 H146 H 0.32489 0.70711 0.21262
 C147 C 0.79693 0.19488 0.21582
 C148 C 0.72276 0.22692 0.18264
 C149 C 0.69024 0.28084 0.21819
 C150 C 0.72674 0.31105 0.29219
 H151 H 0.68664 0.20942 0.12509
 H152 H 0.63185 0.29991 0.18505
 H153 H 0.83443 0.21122 0.27290
 H154 H 0.78497 0.29385 0.32721
   
