data_POSCAR
  _audit_creation_date              2014-09-24
  _audit_creation_method            'ToBaCCo'
  _symmetry_space_group_name_H-M    'P1'
  _symmetry_Int_Tables_number       1
  _symmetry_cell_setting            triclinic
  loop_
  _symmetry_equiv_pos_as_xyz
 x,y,z
_cell_length_a 30.8157
_cell_length_b 29.3612
_cell_length_c 9.2612
_cell_angle_alpha 90.001100
_cell_angle_beta 89.989000
_cell_angle_gamma 90.094800
loop_
  _atom_site_label
  _atom_site_type_symbol
  _atom_site_fract_x
  _atom_site_fract_y
  _atom_site_fract_z
C1 C 0.16769 0.20748 0.10564
 C2 C 0.15025 0.24956 0.06262
 C3 C 0.16897 0.29088 0.10419
 C4 C 0.20899 0.29093 0.17847
 C5 C 0.22915 0.24898 0.21420
 C6 C 0.20838 0.20711 0.17920
 C7 C 0.23012 0.16631 0.21215
 C8 C 0.26962 0.16633 0.28431
 C9 C 0.29112 0.20719 0.31908
 C10 C 0.27020 0.24902 0.28539
 C11 C 0.22983 0.33194 0.21490
 C12 C 0.26931 0.33197 0.28705
 C13 C 0.29024 0.29100 0.32241
 C14 C 0.33024 0.29100 0.39681
 C15 C 0.34900 0.24970 0.43750
 C16 C 0.33172 0.20764 0.39315
 H17 H 0.21763 0.13347 0.18043
 H18 H 0.28231 0.13348 0.31448
 H19 H 0.21604 0.36461 0.18688
 H20 H 0.28303 0.36465 0.31594
 H21 H 0.11903 0.25056 0.00853
 H22 H 0.38020 0.25075 0.49177
 C23 C 0.66761 0.20822 0.38988
 C24 C 0.65000 0.25037 0.43128
 C25 C 0.66868 0.29164 0.38898
 C26 C 0.70867 0.29161 0.31441
 C27 C 0.72895 0.24959 0.28043
 C28 C 0.70840 0.20770 0.31717
 C29 C 0.73070 0.16682 0.28858
 C30 C 0.77065 0.16679 0.21889
 C31 C 0.79112 0.20769 0.17972
 C32 C 0.77014 0.24953 0.21073
 C33 C 0.72953 0.33255 0.27676
 C34 C 0.76944 0.33241 0.20678
 C35 C 0.79065 0.29135 0.17451
 C36 C 0.83168 0.29094 0.10572
 C37 C 0.85101 0.24935 0.07070
 C38 C 0.83202 0.20791 0.11011
 H39 H 0.71853 0.13416 0.32356
 H40 H 0.78538 0.13412 0.19678
 H41 H 0.71556 0.36529 0.30296
 H42 H 0.78343 0.36498 0.17812
 H43 H 0.61876 0.25144 0.48525
 H44 H 0.88287 0.24927 0.02076
 C45 C 0.83254 0.79178 0.89183
 C46 C 0.85021 0.74959 0.93267
 C47 C 0.83157 0.70836 0.88988
 C48 C 0.79154 0.70842 0.81569
 C49 C 0.77123 0.75045 0.78205
 C50 C 0.79177 0.79233 0.81893
 C51 C 0.76947 0.83321 0.79022
 C52 C 0.72955 0.83324 0.72030
 C53 C 0.70906 0.79234 0.68124
 C54 C 0.73002 0.75050 0.71248
 C55 C 0.77070 0.66748 0.77808
 C56 C 0.73073 0.66761 0.70859
 C57 C 0.70949 0.70867 0.67656
 C58 C 0.66843 0.70905 0.60817
 C59 C 0.64914 0.75061 0.57270
 C60 C 0.66818 0.79209 0.61148
 H61 H 0.78165 0.86587 0.82516
 H62 H 0.71486 0.86591 0.69802
 H63 H 0.78471 0.63474 0.80399
 H64 H 0.71674 0.63503 0.67999
 H65 H 0.88146 0.74848 0.98652
 H66 H 0.61728 0.75065 0.52277
 C67 C 0.16833 0.70822 0.89721
 C68 C 0.15133 0.75011 0.94365
 C69 C 0.16828 0.79197 0.89619
 C70 C 0.20807 0.79213 0.81815
 C71 C 0.22828 0.75012 0.78188
 C72 C 0.20817 0.70809 0.81942
 C73 C 0.23025 0.66727 0.78789
 C74 C 0.26977 0.66739 0.71580
 C75 C 0.29018 0.70836 0.67758
 C76 C 0.26933 0.75014 0.71068
 C77 C 0.23002 0.83299 0.78523
 C78 C 0.26953 0.83290 0.71314
 C79 C 0.29007 0.79195 0.67629
 C80 C 0.33094 0.79167 0.60642
 C81 C 0.35004 0.75018 0.56915
 C82 C 0.33103 0.70868 0.60760
 H83 H 0.21838 0.63452 0.82315
 H84 H 0.28433 0.63476 0.69186
 H85 H 0.21805 0.86577 0.81934
 H86 H 0.28400 0.86554 0.68809
 H87 H 0.12081 0.75010 1.00200
 H88 H 0.38183 0.75020 0.51871
 O89 O 0.95802 -0.03896 -0.13846
 O90 O 1.04131 0.05002 -0.09592
 O91 O 1.04309 -0.03828 -0.13809
 O92 O 0.95784 0.04861 -0.09469
 O93 O 0.95843 0.03705 0.14106
 O94 O 1.04212 -0.05101 0.09707
 O95 O 1.04324 0.03699 0.13898
 O96 O 0.95887 -0.05105 0.09705
 Cu97 Cu 1.00014 0.00633 -0.14060
 Cu98 Cu 1.00068 -0.00798 0.14231
 C99 C 0.94453 -0.06035 -0.02801
 C100 C 1.05607 0.05898 0.02880
 C101 C 1.05651 -0.05995 -0.02805
 C102 C 0.94409 0.05802 0.03101
 O103 O 0.54147 0.54990 0.40406
 O104 O 0.45718 0.46175 0.36299
 O105 O 0.45758 0.54969 0.40441
 O106 O 0.54181 0.46204 0.36044
 O107 O 0.54183 0.45006 0.59595
 O108 O 0.45766 0.53794 0.64005
 O109 O 0.45777 0.44995 0.59858
 O110 O 0.54221 0.53787 0.63955
 Cu111 Cu 0.49947 0.50689 0.35929
 Cu112 Cu 0.49990 0.49285 0.64219
 C113 C 0.55589 0.55914 0.52911
 C114 C 0.44337 0.44063 0.47362
 C115 C 0.44362 0.55906 0.52986
 C116 C 0.55591 0.44090 0.47044
 O117 O -0.04212 0.54926 0.09382
 O118 O 0.04295 0.46227 0.13658
 O119 O 0.04151 0.55064 0.09592
 O120 O -0.04169 0.46160 0.13649
 O121 O -0.04121 0.45013 -0.09928
 O122 O 0.04347 0.53815 -0.13927
 O123 O 0.04273 0.45020 -0.09888
 O124 O -0.04132 0.53812 -0.14212
 Cu125 Cu 0.00021 0.50694 0.13940
 Cu126 Cu 0.00096 0.49312 -0.14359
 C127 C -0.05582 0.55883 -0.03180
 C128 C 0.05687 0.44101 0.02643
 C129 C 0.05636 0.55983 -0.02853
 C130 C -0.05550 0.44060 0.02577
 O131 O 0.54248 1.03845 0.35892
 O132 O 0.45790 0.95065 0.40198
 O133 O 0.45752 1.03853 0.35904
 O134 O 0.54183 0.95071 0.40386
 O135 O 0.54201 0.96315 0.63915
 O136 O 0.45816 1.05098 0.59438
 O137 O 0.45735 0.96295 0.63733
 O138 O 0.54135 1.05111 0.59413
 Cu139 Cu 0.49995 0.99349 0.35722
 Cu140 Cu 0.49970 1.00804 0.64000
 C141 C 0.55581 1.06013 0.46904
 C142 C 0.44358 0.94155 0.52723
 C143 C 0.44398 1.06009 0.46909
 C144 C 0.55594 0.94172 0.52944
 N145 N 1.11479 0.16610 -0.03350
 C146 C 1.14202 0.16823 0.08191
 N147 N 1.14061 0.13375 0.17994
 N148 N 1.11368 0.09861 0.16264
 C149 C 1.08722 0.09637 0.04581
 N150 N 1.08833 0.13069 -0.05207
 N151 N 0.62397 0.65934 0.45328
 C152 C 0.64258 0.66734 0.58373
 N153 N 0.63314 0.63905 0.69546
 N154 N 0.60626 0.60394 0.67729
 C155 C 0.58778 0.59587 0.54674
 N156 N 0.59727 0.62408 0.43490
 N157 N -0.12384 0.34052 -0.04973
 C158 C -0.14246 0.33263 0.08081
 N159 N -0.13293 0.36093 0.19239
 N160 N -0.10596 0.39595 0.17398
 C161 C -0.08746 0.40391 0.04336
 N162 N -0.09705 0.37570 -0.06836
 N163 N 0.37480 0.84189 0.45127
 C164 C 0.35690 0.83336 0.58248
 N165 N 0.36709 0.86106 0.69494
 N166 N 0.39396 0.89619 0.67669
 C167 C 0.41171 0.90481 0.54535
 N168 N 0.40152 0.87714 0.43286
 N169 N -0.12550 0.65746 0.04529
 C170 C -0.14272 0.66655 -0.08649
 N171 N -0.13186 0.63946 -0.19971
 N172 N -0.10495 0.60446 -0.18172
 C173 C -0.08783 0.59533 -0.04987
 N174 N -0.09875 0.62233 0.06342
 N175 N 0.38440 1.16633 0.53253
 C176 C 0.35748 1.16854 0.41636
 N177 N 0.35940 1.13440 0.31723
 N178 N 0.38654 1.09951 0.33419
 C179 C 0.41270 1.09721 0.45174
 N180 N 0.41105 1.13117 0.55073
 N181 N 1.14062 -0.13485 -0.18039
 C182 C 1.14281 -0.16868 -0.08019
 N183 N 1.11637 -0.16595 0.03707
 N184 N 1.08984 -0.13068 0.05506
 C185 C 1.08785 -0.09708 -0.04512
 N186 N 1.11360 -0.09983 -0.16358
 N187 N 0.63227 0.36086 0.30116
 C188 C 0.64302 0.33344 0.41365
 N189 N 0.62559 0.34209 0.54548
 N190 N 0.59876 0.37712 0.56440
 C191 C 0.58795 0.40445 0.45181
 N192 N 0.60529 0.39577 0.31993
 N193 N 0.88561 -0.16741 0.03182
 C194 C 0.85805 -0.16899 -0.08284
 N195 N 0.85913 -0.13401 -0.17910
 N196 N 0.88622 -0.09903 -0.16109
 C197 C 0.91310 -0.09744 -0.04521
 N198 N 0.91219 -0.13216 0.05119
 N199 N 0.37409 0.34146 0.55168
 C200 C 0.35608 0.33283 0.42070
 N201 N 0.36635 0.36035 0.30783
 N202 N 0.39340 0.39535 0.32538
 C203 C 0.41130 0.40404 0.45640
 N204 N 0.40100 0.37660 0.56939
 N205 N 0.11602 0.66619 0.03745
 C206 C 0.14283 0.66881 -0.07900
 N207 N 0.14094 0.63480 -0.17863
 N208 N 0.11388 0.59973 -0.16210
 C209 C 0.08774 0.59708 -0.04453
 N210 N 0.08942 0.63085 0.05517
 N211 N 0.61448 1.16729 0.52922
 C212 C 0.64207 1.16897 0.41465
 N213 N 0.64106 1.13406 0.31811
 N214 N 0.61403 1.09901 0.33582
 C215 C 0.58714 1.09730 0.45169
 N216 N 0.58797 1.13197 0.54829
 N217 N 0.13283 0.36009 0.19358
 C218 C 0.14320 0.33270 0.08057
 N219 N 0.12563 0.34163 -0.05080
 N220 N 0.09906 0.37693 -0.06875
 C221 C 0.08867 0.40428 0.04431
 N222 N 0.10610 0.39527 0.17578
 N223 N 0.63182 0.86135 0.69943
 C224 C 0.64237 0.83375 0.58715
 N225 N 0.62492 0.84233 0.45536
 N226 N 0.59829 0.87751 0.43619
 C227 C 0.58774 0.90508 0.54847
 N228 N 0.60504 0.89641 0.68040
 N229 N 0.87509 0.15720 -0.04503
 C230 C 0.85787 0.16624 0.08678
 N231 N 0.86854 0.13900 0.19979
 N232 N 0.89525 0.10383 0.18148
 C233 C 0.91232 0.09470 0.04952
 N234 N 0.90163 0.12191 -0.06348
 N235 N 0.37465 0.65825 0.45297
 C236 C 0.35702 0.66707 0.58434
 N237 N 0.36749 0.63973 0.69735
 N238 N 0.39435 0.60468 0.67944
 C239 C 0.41182 0.59576 0.54791
 N240 N 0.40135 0.62307 0.43491
   
