data_POSCAR
  _audit_creation_date              2014-09-24
  _audit_creation_method            'ToBaCCo'
  _symmetry_space_group_name_H-M    'P1'
  _symmetry_Int_Tables_number       1
  _symmetry_cell_setting            triclinic
  loop_
  _symmetry_equiv_pos_as_xyz
 x,y,z
_cell_length_a 19.5986
_cell_length_b 19.6927
_cell_length_c 32.9773
_cell_angle_alpha 93.150900
_cell_angle_beta 91.280600
_cell_angle_gamma 85.126900
loop_
  _atom_site_label
  _atom_site_type_symbol
  _atom_site_fract_x
  _atom_site_fract_y
  _atom_site_fract_z
O1 O 0.06059 0.42596 0.96584
 O2 O 0.04940 0.56535 1.04508
 O3 O 0.05280 0.43285 1.04422
 O4 O 0.05846 0.55806 0.96636
 O5 O -0.05424 0.56519 0.96053
 O6 O -0.05986 0.43953 1.03943
 O7 O -0.06331 0.57305 1.03909
 O8 O -0.05214 0.43247 0.96047
 Cu9 Cu 0.06653 0.49497 1.00597
 Cu10 Cu -0.06874 0.50320 0.99942
 C11 C 0.00617 0.40506 0.94974
 C12 C -0.00883 0.59357 1.05532
 C13 C -0.00415 0.41398 1.05503
 C14 C 0.00334 0.58321 0.95010
 O15 O 0.57260 -0.06161 0.53512
 O16 O 0.43565 -0.04961 0.45727
 O17 O 0.56726 -0.04370 0.45798
 O18 O 0.43914 -0.06584 0.53522
 O19 O 0.42560 0.04577 0.54710
 O20 O 0.55442 0.06779 0.47049
 O21 O 0.42129 0.06192 0.46980
 O22 O 0.55768 0.04945 0.54862
 Cu23 Cu 0.50493 -0.06639 0.49530
 Cu24 Cu 0.48864 0.06746 0.51016
 C25 C 0.58897 -0.00828 0.55518
 C26 C 0.40494 0.00806 0.45029
 C27 C 0.58295 0.01583 0.45110
 C28 C 0.40992 -0.01367 0.55410
 Si29 Si -0.01522 0.02455 0.25211
 Si30 Si 0.00592 -0.02426 0.75158
 C31 C -0.01731 -0.23514 0.14093
 C32 C -0.07483 -0.24686 0.11626
 C33 C -0.07271 -0.30371 0.08896
 C34 C -0.01309 -0.34832 0.08575
 C35 C 0.04316 -0.33505 0.11118
 N36 N 0.03963 -0.27972 0.13780
 C37 C -0.01705 -0.17419 0.16925
 N38 N -0.06215 -0.11892 0.16332
 C39 C -0.06239 -0.06083 0.18759
 C40 C -0.01530 -0.05614 0.21996
 C41 C 0.03042 -0.11286 0.22734
 C42 C 0.03021 -0.17174 0.20179
 H43 H -0.11716 -0.31195 0.06979
 H44 H 0.08998 -0.36839 0.10982
 H45 H -0.09903 -0.01820 0.18141
 H46 H 0.06606 -0.11216 0.25281
 H47 H -0.12094 -0.21247 0.11802
 H48 H 0.06625 -0.21504 0.20764
 C49 C -0.00575 0.25815 0.13721
 C50 C 0.05667 0.28139 0.12638
 C51 C 0.05699 0.33383 0.09977
 C52 C -0.00479 0.36375 0.08369
 C53 C -0.06642 0.34039 0.09640
 N54 N -0.06531 0.28896 0.12244
 C55 C -0.00785 0.20080 0.16420
 N56 N -0.06244 0.19822 0.18877
 C57 C -0.06647 0.14714 0.21461
 C58 C -0.01345 0.09486 0.21665
 C59 C 0.04164 0.09511 0.19045
 C60 C 0.04489 0.14793 0.16438
 H61 H 0.10596 0.35024 0.09151
 H62 H -0.11543 0.36217 0.08531
 H63 H -0.11114 0.14756 0.23323
 H64 H 0.08203 0.05425 0.18968
 H65 H 0.10497 0.25970 0.13849
 H66 H 0.08769 0.14651 0.14409
 C67 C 0.25047 -0.03309 0.63823
 C68 C 0.28259 -0.09211 0.61858
 C69 C 0.33545 -0.08610 0.59158
 C70 C 0.35628 -0.02161 0.58397
 C71 C 0.32317 0.03590 0.60442
 N72 N 0.27181 0.02879 0.63040
 C73 C 0.19223 -0.03482 0.66596
 N74 N 0.15167 0.02394 0.67358
 C75 C 0.09724 0.02748 0.69858
 C76 C 0.08126 -0.03035 0.71798
 C77 C 0.12183 -0.09162 0.71076
 C78 C 0.17766 -0.09410 0.68493
 H79 H 0.35923 -0.13179 0.57621
 H80 H 0.33735 0.08668 0.59946
 H81 H 0.06657 0.07551 0.70328
 H82 H 0.11032 -0.13763 0.72475
 H83 H 0.26632 -0.14224 0.62293
 H84 H 0.20905 -0.14165 0.68050
 C85 C -0.24792 -0.02027 0.63997
 C86 C -0.25937 -0.07720 0.61427
 C87 C -0.31480 -0.07401 0.58699
 C88 C -0.35752 -0.01319 0.58421
 C89 C -0.34390 0.04278 0.61073
 N90 N -0.29053 0.03771 0.63779
 C91 C -0.18835 -0.02172 0.66786
 N92 N -0.12525 -0.04304 0.65337
 C93 C -0.06804 -0.04372 0.67741
 C94 C -0.07276 -0.02298 0.71866
 C95 C -0.13763 -0.00330 0.73453
 C96 C -0.19551 -0.00102 0.70896
 H97 H -0.32282 -0.11860 0.56730
 H98 H -0.37560 0.09051 0.61012
 H99 H -0.01920 -0.06097 0.66418
 H100 H -0.14344 0.01077 0.76654
 H101 H -0.22587 -0.12376 0.61547
 H102 H -0.24539 0.01541 0.72120
 C103 C 0.01331 -0.26331 0.86404
 C104 C 0.07370 -0.30027 0.87687
 C105 C 0.07020 -0.35074 0.90457
 C106 C 0.00676 -0.36543 0.91927
 C107 C -0.05264 -0.32907 0.90467
 N108 N -0.04790 -0.27951 0.87795
 C109 C 0.01417 -0.20692 0.83611
 N110 N -0.04414 -0.18722 0.81507
 C111 C -0.04769 -0.13478 0.78970
 C112 C 0.00958 -0.09821 0.78476
 C113 C 0.07010 -0.11762 0.80596
 C114 C 0.07265 -0.17149 0.83175
 H115 H 0.11729 -0.37819 0.91453
 H116 H -0.10267 -0.33907 0.91499
 H117 H -0.09540 -0.12162 0.77385
 H118 H 0.11588 -0.09175 0.80237
 H119 H 0.12329 -0.29112 0.86561
 H120 H 0.11965 -0.18381 0.84854
 C121 C 0.01785 0.23463 0.86328
 C122 C 0.07836 0.25806 0.88043
 C123 C 0.07460 0.31426 0.90817
 C124 C 0.01085 0.34756 0.91880
 C125 C -0.04829 0.32382 0.90005
 N126 N -0.04335 0.26876 0.87322
 C127 C 0.01843 0.17333 0.83517
 N128 N -0.03490 0.16677 0.80845
 C129 C -0.03933 0.11050 0.78301
 C130 C 0.01109 0.05570 0.78431
 C131 C 0.06726 0.06210 0.81079
 C132 C 0.07100 0.12037 0.83644
 H133 H 0.12161 0.33123 0.92155
 H134 H -0.09848 0.34833 0.90706
 H135 H -0.08206 0.10928 0.76189
 H136 H 0.10840 0.02217 0.81192
 H137 H 0.12820 0.23379 0.87247
 H138 H 0.11376 0.12270 0.85762
 C139 C -0.26153 0.03716 0.36465
 C140 C -0.29404 0.09587 0.38442
 C141 C -0.34525 0.08914 0.41241
 C142 C -0.36454 0.02429 0.42060
 C143 C -0.33191 -0.03281 0.39952
 N144 N -0.28208 -0.02500 0.37263
 C145 C -0.20509 0.03955 0.33566
 N146 N -0.18759 -0.01735 0.31155
 C147 C -0.13405 -0.02171 0.28585
 C148 C -0.09358 0.03318 0.28372
 C149 C -0.11075 0.09272 0.30778
 C150 C -0.16634 0.09624 0.33383
 H151 H -0.36951 0.13464 0.42772
 H152 H -0.34537 -0.08379 0.40462
 H153 H -0.12233 -0.06887 0.26810
 H154 H -0.07997 0.13580 0.30724
 H155 H -0.28091 0.14650 0.37840
 H156 H -0.17676 0.14194 0.35310
 C157 C 0.24000 0.01761 0.36361
 C158 C 0.29248 -0.03527 0.35961
 C159 C 0.34660 -0.03820 0.38782
 C160 C 0.34913 0.01206 0.41952
 C161 C 0.29619 0.06468 0.42209
 N162 N 0.24315 0.06562 0.39476
 C163 C 0.17996 0.02038 0.33581
 N164 N 0.11691 0.04010 0.35093
 C165 C 0.05922 0.04177 0.32719
 C166 C 0.06327 0.02384 0.28551
 C167 C 0.12795 0.00462 0.26924
 C168 C 0.18631 0.00234 0.29427
 H169 H 0.38641 -0.07972 0.38489
 H170 H 0.29604 0.10398 0.44637
 H171 H 0.01068 0.05673 0.34120
 H172 H 0.13348 -0.01060 0.23743
 H173 H 0.29073 -0.07499 0.33566
 H174 H 0.23583 -0.01290 0.28122
   
