data_POSCAR
  _audit_creation_date              2014-09-24
  _audit_creation_method            'ToBaCCo'
  _symmetry_space_group_name_H-M    'P1'
  _symmetry_Int_Tables_number       1
  _symmetry_cell_setting            triclinic
  loop_
  _symmetry_equiv_pos_as_xyz
 x,y,z
_cell_length_a 56.3752
_cell_length_b 55.6485
_cell_length_c 55.7594
_cell_angle_alpha 90.085900
_cell_angle_beta 90.047900
_cell_angle_gamma 90.012500
loop_
  _atom_site_label
  _atom_site_type_symbol
  _atom_site_fract_x
  _atom_site_fract_y
  _atom_site_fract_z
O1 O 0.31365 0.34980 0.02306
 O2 O 0.34673 0.31754 -0.02369
 O3 O 0.31426 0.35081 -0.02339
 O4 O 0.34636 0.31669 0.02270
 O5 O 0.31866 0.28856 0.02188
 O6 O 0.28634 0.32291 -0.02444
 O7 O 0.31900 0.28944 -0.02474
 O8 O 0.28575 0.32187 0.02225
 Cu9 Cu 0.33303 0.33653 -0.00022
 Cu10 Cu 0.29960 0.30287 -0.00134
 C11 C 0.29404 0.34144 0.03042
 C12 C 0.33861 0.29796 -0.03196
 C13 C 0.29483 0.34278 -0.03160
 C14 C 0.33814 0.29676 0.02989
 O15 O 0.68045 0.64729 0.02333
 O16 O 0.64785 0.68033 -0.02317
 O17 O 0.68113 0.64778 -0.02307
 O18 O 0.64734 0.67990 0.02334
 O19 O 0.67457 0.70851 0.02416
 O20 O 0.70850 0.67625 -0.02245
 O21 O 0.67504 0.70897 -0.02256
 O22 O 0.70785 0.67573 0.02414
 Cu23 Cu 0.66143 0.66098 0.00002
 Cu24 Cu 0.69424 0.69528 0.00087
 C25 C 0.69974 0.65576 0.03144
 C26 C 0.65578 0.70030 -0.03058
 C27 C 0.70065 0.65639 -0.03040
 C28 C 0.65514 0.69966 0.03151
 O29 O 0.68111 0.35073 0.97717
 O30 O 0.64707 0.31786 1.02276
 O31 O 0.68058 0.35013 1.02363
 O32 O 0.64733 0.31874 0.97633
 O33 O 0.67414 0.28974 0.97599
 O34 O 0.70763 0.32136 1.02350
 O35 O 0.67395 0.28891 1.02262
 O36 O 0.70809 0.32188 0.97684
 Cu37 Cu 0.66133 0.33727 1.00000
 Cu38 Cu 0.69368 0.30255 0.99971
 C39 C 0.70043 0.34200 0.96946
 C40 C 0.65461 0.29774 1.03022
 C41 C 0.69980 0.34123 1.03142
 C42 C 0.65493 0.29885 0.96833
 O43 O 0.35027 0.68179 1.02525
 O44 O 0.31838 0.64882 0.97809
 O45 O 0.35084 0.68208 0.97883
 O46 O 0.31773 0.64847 1.02460
 O47 O 0.28978 0.67634 1.02453
 O48 O 0.32305 0.71012 0.97855
 O49 O 0.29042 0.67669 0.97780
 O50 O 0.32249 0.70985 1.02517
 Cu51 Cu 0.33709 0.66247 1.00174
 Cu52 Cu 0.30359 0.69606 1.00153
 C53 C 0.34197 0.70150 1.03298
 C54 C 0.29899 0.65707 0.97004
 C55 C 0.34268 0.70183 0.97108
 C56 C 0.29809 0.65657 1.03216
 O57 O -0.02455 0.34974 0.31904
 O58 O 0.02227 0.31814 0.35224
 O59 O 0.02138 0.35130 0.31939
 O60 O -0.02367 0.31644 0.35195
 O61 O -0.02263 0.28837 0.32385
 O62 O 0.02260 0.32338 0.29115
 O63 O 0.02351 0.29006 0.32416
 O64 O -0.02352 0.32185 0.29077
 Cu65 Cu -0.00129 0.33670 0.33849
 Cu66 Cu 0.00007 0.30307 0.30463
 C67 C -0.03175 0.34134 0.29918
 C68 C 0.03071 0.29873 0.34393
 C69 C 0.02950 0.34334 0.29971
 C70 C -0.03058 0.29641 0.34359
 O71 O 0.02092 0.68330 0.65011
 O72 O -0.02488 0.65092 0.68394
 O73 O -0.02499 0.68368 0.65051
 O74 O 0.02108 0.65062 0.68346
 O75 O 0.02170 0.67896 0.71131
 O76 O -0.02458 0.71219 0.67818
 O77 O -0.02447 0.67924 0.71180
 O78 O 0.02153 0.71181 0.67778
 Cu79 Cu -0.00205 0.66427 0.66423
 Cu80 Cu -0.00144 0.69842 0.69759
 C81 C 0.02882 0.70309 0.65808
 C82 C -0.03223 0.65942 0.70369
 C83 C -0.03236 0.70365 0.65857
 C84 C 0.02908 0.65908 0.70299
 O85 O 0.97387 0.68462 0.34778
 O86 O 1.02012 0.65183 0.31486
 O87 O 1.01981 0.68454 0.34824
 O88 O 0.97421 0.65163 0.31442
 O89 O 0.97434 0.67984 0.28653
 O90 O 1.02017 0.71297 0.32057
 O91 O 1.02047 0.68007 0.28699
 O92 O 0.97401 0.71302 0.32009
 Cu93 Cu 0.99693 0.66532 0.33411
 Cu94 Cu 0.99722 0.69936 0.30073
 C95 C 0.96634 0.70448 0.33969
 C96 C 1.02800 0.66027 0.29532
 C97 C 1.02762 0.70435 0.34025
 C98 C 0.96679 0.65995 0.29464
 O99 O 0.97690 0.31722 0.64976
 O100 O 1.02267 0.35091 0.68256
 O101 O 1.02289 0.31808 0.64926
 O102 O 0.97677 0.35017 0.68310
 O103 O 0.97749 0.32198 0.71100
 O104 O 1.02382 0.28971 0.67698
 O105 O 1.02360 0.32271 0.71045
 O106 O 0.97763 0.28885 0.67749
 Cu107 Cu 0.99970 0.33691 0.66336
 Cu108 Cu 1.00069 0.30293 0.69678
 C109 C 0.96969 0.29726 0.65792
 C110 C 1.03073 0.34264 0.70211
 C111 C 1.03108 0.29845 0.65729
 C112 C 0.96954 0.34170 0.70288
 O113 O 0.34922 0.02306 0.31884
 O114 O 0.31747 -0.02398 0.35202
 O115 O 0.35001 -0.02339 0.31894
 O116 O 0.31681 0.02268 0.35213
 O117 O 0.28880 0.02231 0.32434
 O118 O 0.32222 -0.02399 0.29092
 O119 O 0.28951 -0.02458 0.32419
 O120 O 0.32138 0.02266 0.29086
 Cu121 Cu 0.33614 -0.00035 0.33832
 Cu122 Cu 0.30261 -0.00094 0.30478
 C123 C 0.34086 0.03059 0.29911
 C124 C 0.29812 -0.03219 0.34379
 C125 C 0.34192 -0.03129 0.29922
 C126 C 0.29719 0.03022 0.34396
 O127 O 0.64866 0.02388 0.68366
 O128 O 0.68236 -0.02263 0.65161
 O129 O 0.64918 -0.02265 0.68417
 O130 O 0.68162 0.02388 0.65093
 O131 O 0.70913 0.02479 0.67922
 O132 O 0.67647 -0.02197 0.71268
 O133 O 0.70984 -0.02194 0.67993
 O134 O 0.67598 0.02478 0.71213
 Cu135 Cu 0.66270 0.00053 0.66475
 Cu136 Cu 0.69563 0.00148 0.69887
 C137 C 0.65648 0.03205 0.70338
 C138 C 0.70190 -0.02995 0.66018
 C139 C 0.65716 -0.03002 0.70411
 C140 C 0.70093 0.03204 0.65929
 O141 O 0.31753 1.02158 0.64753
 O142 O 0.35049 0.97488 0.68001
 O143 O 0.31752 0.97497 0.64719
 O144 O 0.35048 1.02143 0.68023
 O145 O 0.32305 1.02141 0.70857
 O146 O 0.28992 0.97474 0.67535
 O147 O 0.32306 0.97465 0.70835
 O148 O 0.28993 1.02157 0.67569
 Cu149 Cu 0.33675 0.99820 0.66089
 Cu150 Cu 0.30369 0.99805 0.69484
 C151 C 0.29815 1.02940 0.65602
 C152 C 0.34251 0.96705 0.69977
 C153 C 0.29810 0.96712 0.65554
 C154 C 0.34247 1.02916 0.70003
 O155 O 0.64834 0.97798 0.31909
 O156 O 0.68062 1.02566 0.35097
 O157 O 0.64767 1.02454 0.31809
 O158 O 0.68135 0.97916 0.35179
 O159 O 0.70890 0.97889 0.32358
 O160 O 0.67510 1.02446 0.28976
 O161 O 0.70822 1.02558 0.32282
 O162 O 0.67573 0.97770 0.29071
 Cu163 Cu 0.66172 1.00187 0.33781
 Cu164 Cu 0.69476 1.00167 0.30384
 C165 C 0.65644 0.96989 0.29947
 C166 C 0.70000 1.03347 0.34250
 C167 C 0.65553 1.03199 0.29814
 C168 C 0.70090 0.97152 0.34353
 C169 C 0.79536 0.86831 0.52337
 C170 C 0.78700 0.87748 0.50163
 C171 C 0.79509 0.86867 0.47962
 C172 C 0.81228 0.85017 0.47917
 C173 C 0.82107 0.84074 0.50111
 C174 C 0.81257 0.84983 0.52330
 C175 C 0.82207 0.84079 0.54478
 C176 C 0.83954 0.82312 0.54454
 C177 C 0.84817 0.81378 0.52280
 C178 C 0.83888 0.82269 0.50086
 C179 C 0.82151 0.84143 0.45744
 C180 C 0.83894 0.82374 0.45719
 C181 C 0.84785 0.81408 0.47867
 C182 C 0.86609 0.79663 0.47860
 C183 C 0.87514 0.78817 0.50035
 C184 C 0.86643 0.79635 0.52236
 H185 H 0.81638 0.84757 0.56204
 H186 H 0.84647 0.81714 0.56161
 H187 H 0.81560 0.84847 0.44037
 H188 H 0.84565 0.81799 0.43993
 H189 H 0.77384 0.89171 0.50184
 H190 H 0.88919 0.77484 0.50015
 C191 C 0.21335 0.14296 0.52277
 C192 C 0.22201 0.13447 0.50086
 C193 C 0.21324 0.14297 0.47900
 C194 C 0.19547 0.16092 0.47890
 C195 C 0.18655 0.16983 0.50100
 C196 C 0.19555 0.16088 0.52303
 C197 C 0.18697 0.17049 0.54467
 C198 C 0.16952 0.18818 0.54474
 C199 C 0.15998 0.19697 0.52318
 C200 C 0.16876 0.18791 0.50108
 C201 C 0.18684 0.17062 0.45734
 C202 C 0.16944 0.18835 0.45741
 C203 C 0.15995 0.19705 0.47905
 C204 C 0.14229 0.21510 0.47929
 C205 C 0.13394 0.22392 0.50120
 C206 C 0.14231 0.21503 0.52307
 H207 H 0.19387 0.16464 0.56181
 H208 H 0.16381 0.19513 0.56193
 H209 H 0.19369 0.16483 0.44016
 H210 H 0.16371 0.19537 0.44028
 H211 H 0.23542 0.12049 0.50081
 H212 H 0.12016 0.23753 0.50124
 C213 C 0.13495 0.78971 0.52010
 C214 C 0.12632 0.78122 0.49817
 C215 C 0.13615 0.78857 0.47637
 C216 C 0.15530 0.80501 0.47637
 C217 C 0.16418 0.81394 0.49850
 C218 C 0.15403 0.80620 0.52046
 C219 C 0.16304 0.81536 0.54214
 C220 C 0.18186 0.83156 0.54231
 C221 C 0.19209 0.83960 0.52080
 C222 C 0.18324 0.83065 0.49867
 C223 C 0.16610 0.81238 0.45490
 C224 C 0.18478 0.82874 0.45506
 C225 C 0.19340 0.83837 0.47671
 C226 C 0.21223 0.85517 0.47703
 C227 C 0.22102 0.86345 0.49899
 C228 C 0.21118 0.85612 0.52079
 H229 H 0.15564 0.81010 0.55923
 H230 H 0.18833 0.83764 0.55955
 H231 H 0.16034 0.80543 0.43772
 H232 H 0.19258 0.83356 0.43801
 H233 H 0.11158 0.76866 0.49807
 H234 H 0.23528 0.87656 0.49911
 C235 C 0.79052 0.13685 0.47863
 C236 C 0.78100 0.12949 0.50056
 C237 C 0.78970 0.13825 0.52237
 C238 C 0.80841 0.15522 0.52237
 C239 C 0.81823 0.16294 0.50023
 C240 C 0.80929 0.15371 0.47827
 C241 C 0.81976 0.16106 0.45661
 C242 C 0.83849 0.17737 0.45646
 C243 C 0.84748 0.18696 0.47795
 C244 C 0.83733 0.17960 0.50007
 C245 C 0.81750 0.16471 0.54387
 C246 C 0.83634 0.18086 0.54372
 C247 C 0.84654 0.18853 0.52205
 C248 C 0.86607 0.20448 0.52175
 C249 C 0.87591 0.21145 0.49985
 C250 C 0.86681 0.20318 0.47801
 H251 H 0.81375 0.15407 0.43954
 H252 H 0.84607 0.18211 0.43929
 H253 H 0.81018 0.15968 0.56107
 H254 H 0.84293 0.18715 0.56084
 H255 H 0.76682 0.11629 0.50066
 H256 H 0.89079 0.22383 0.49979
 C257 C 0.47719 0.79027 0.86269
 C258 C 0.49872 0.78173 0.87174
 C259 C 0.52046 0.79032 0.86332
 C260 C 0.52090 0.80790 0.84504
 C261 C 0.49921 0.81688 0.83573
 C262 C 0.47725 0.80807 0.84459
 C263 C 0.45601 0.81715 0.83500
 C264 C 0.45627 0.83491 0.81744
 C265 C 0.47778 0.84395 0.80846
 C266 C 0.49947 0.83485 0.81766
 C267 C 0.54241 0.81697 0.83611
 C268 C 0.54267 0.83443 0.81826
 C269 C 0.52143 0.84383 0.80899
 C270 C 0.52151 0.86185 0.79111
 C271 C 0.49998 0.87068 0.78233
 C272 C 0.47823 0.86213 0.79078
 H273 H 0.43894 0.81064 0.84099
 H274 H 0.43938 0.84149 0.81099
 H275 H 0.55931 0.81068 0.84284
 H276 H 0.55975 0.84049 0.81184
 H277 H 0.49856 0.76830 0.88583
 H278 H 0.50015 0.88471 0.76883
 C279 C 0.51889 0.13318 0.20425
 C280 C 0.49736 0.12417 0.21279
 C281 C 0.47562 0.13297 0.20456
 C282 C 0.47520 0.15126 0.18698
 C283 C 0.49690 0.16056 0.17803
 C284 C 0.51885 0.15153 0.18671
 C285 C 0.54010 0.16048 0.17705
 C286 C 0.53986 0.17802 0.15928
 C287 C 0.51836 0.18728 0.15047
 C288 C 0.49666 0.17844 0.15987
 C289 C 0.45370 0.15988 0.17755
 C290 C 0.45346 0.17736 0.15973
 C291 C 0.47471 0.18693 0.15067
 C292 C 0.47465 0.20417 0.13205
 C293 C 0.49617 0.21261 0.12294
 C294 C 0.51793 0.20457 0.13190
 H295 H 0.55715 0.15374 0.18287
 H296 H 0.55675 0.18394 0.15224
 H297 H 0.43681 0.15291 0.18356
 H298 H 0.43640 0.18302 0.15287
 H299 H 0.49753 0.11007 0.22621
 H300 H 0.49599 0.22582 0.10864
 C301 C 0.51955 0.13924 0.78951
 C302 C 0.49810 0.12997 0.78098
 C303 C 0.47629 0.13833 0.78949
 C304 C 0.47573 0.15682 0.80690
 C305 C 0.49737 0.16630 0.81591
 C306 C 0.51937 0.15746 0.80723
 C307 C 0.54056 0.16718 0.81636
 C308 C 0.54020 0.18478 0.83410
 C309 C 0.51864 0.19375 0.84303
 C310 C 0.49700 0.18450 0.83380
 C311 C 0.45417 0.16581 0.81581
 C312 C 0.45381 0.18384 0.83313
 C313 C 0.47500 0.19322 0.84261
 C314 C 0.47483 0.21122 0.86056
 C315 C 0.49630 0.22000 0.86957
 C316 C 0.51810 0.21146 0.86123
 H317 H 0.55768 0.16121 0.80992
 H318 H 0.55706 0.19129 0.84075
 H319 H 0.43732 0.15899 0.80945
 H320 H 0.43669 0.19030 0.83906
 H321 H 0.49837 0.11574 0.76765
 H322 H 0.49604 0.23353 0.88361
 C323 C 0.52124 0.78784 0.14120
 C324 C 0.49958 0.78051 0.13138
 C325 C 0.47808 0.79043 0.13898
 C326 C 0.47805 0.80839 0.15694
 C327 C 0.49985 0.81588 0.16728
 C328 C 0.52152 0.80548 0.15950
 C329 C 0.54282 0.81273 0.17046
 C330 C 0.54297 0.83048 0.18808
 C331 C 0.52183 0.84166 0.19543
 C332 C 0.50000 0.83400 0.18526
 C333 C 0.45688 0.81944 0.16443
 C334 C 0.45703 0.83718 0.18203
 C335 C 0.47835 0.84457 0.19286
 C336 C 0.47869 0.86267 0.21069
 C337 C 0.50036 0.87016 0.22037
 C338 C 0.52186 0.86010 0.21293
 H339 H 0.55960 0.80466 0.16561
 H340 H 0.55986 0.83524 0.19598
 H341 H 0.43998 0.81464 0.15657
 H342 H 0.44024 0.84522 0.18689
 H343 H 0.49946 0.76701 0.11732
 H344 H 0.50050 0.88432 0.23377
 C345 C 0.79530 0.47796 0.86793
 C346 C 0.78695 0.49987 0.87684
 C347 C 0.79522 0.52180 0.86798
 C348 C 0.81259 0.52200 0.84969
 C349 C 0.82136 0.49989 0.84053
 C350 C 0.81268 0.47778 0.84966
 C351 C 0.82216 0.45613 0.84088
 C352 C 0.83980 0.45614 0.82343
 C353 C 0.84863 0.47780 0.81406
 C354 C 0.83935 0.49990 0.82271
 C355 C 0.82197 0.54366 0.84091
 C356 C 0.83959 0.54367 0.82344
 C357 C 0.84850 0.52202 0.81406
 C358 C 0.86691 0.52185 0.79684
 C359 C 0.87594 0.49995 0.78864
 C360 C 0.86706 0.47801 0.79687
 H361 H 0.81631 0.43893 0.84770
 H362 H 0.84670 0.43895 0.81763
 H363 H 0.81605 0.56085 0.84773
 H364 H 0.84641 0.56088 0.81765
 H365 H 0.77367 0.49985 0.89091
 H366 H 0.89011 0.49998 0.77548
 C367 C 0.20700 0.47794 0.13827
 C368 C 0.21572 0.49962 0.12920
 C369 C 0.20734 0.52178 0.13742
 C370 C 0.18980 0.52247 0.15554
 C371 C 0.18064 0.50062 0.16484
 C372 C 0.18923 0.47826 0.15616
 C373 C 0.17997 0.45686 0.16571
 C374 C 0.16221 0.45735 0.18304
 C375 C 0.15338 0.47926 0.19185
 C376 C 0.16270 0.50112 0.18271
 C377 C 0.18094 0.54438 0.16432
 C378 C 0.16354 0.54487 0.18200
 C379 C 0.15397 0.52348 0.19124
 C380 C 0.13600 0.52379 0.20894
 C381 C 0.12692 0.50212 0.21763
 C382 C 0.13520 0.47996 0.20930
 H383 H 0.18631 0.43948 0.15984
 H384 H 0.15548 0.44033 0.18945
 H385 H 0.18738 0.56140 0.15760
 H386 H 0.15762 0.56226 0.18832
 H387 H 0.22913 0.49924 0.11525
 H388 H 0.11292 0.50249 0.23097
 C389 C 0.78980 0.51878 0.13669
 C390 C 0.78035 0.49669 0.12952
 C391 C 0.78896 0.47499 0.13865
 C392 C 0.80750 0.47526 0.15577
 C393 C 0.81722 0.49757 0.16333
 C394 C 0.80838 0.51942 0.15373
 C395 C 0.81877 0.54124 0.16091
 C396 C 0.83728 0.54168 0.17742
 C397 C 0.84615 0.52031 0.18741
 C398 C 0.83612 0.49802 0.18020
 C399 C 0.81653 0.45388 0.16556
 C400 C 0.83519 0.45430 0.18191
 C401 C 0.84526 0.47615 0.18946
 C402 C 0.86459 0.47674 0.20564
 C403 C 0.87430 0.49882 0.21249
 C404 C 0.86525 0.52054 0.20388
 H405 H 0.81286 0.55823 0.15362
 H406 H 0.84481 0.55897 0.18201
 H407 H 0.80930 0.43655 0.16061
 H408 H 0.84174 0.43725 0.18845
 H409 H 0.76631 0.49637 0.11620
 H410 H 0.88902 0.49910 0.22504
 C411 C 0.21177 0.47903 0.85871
 C412 C 0.22160 0.50085 0.86622
 C413 C 0.21313 0.52287 0.85772
 C414 C 0.19464 0.52322 0.84055
 C415 C 0.18451 0.50123 0.83264
 C416 C 0.19304 0.47905 0.84179
 C417 C 0.18287 0.45751 0.83354
 C418 C 0.16441 0.45771 0.81695
 C419 C 0.15571 0.47944 0.80761
 C420 C 0.16582 0.50143 0.81554
 C421 C 0.18635 0.54491 0.83073
 C422 C 0.16802 0.54510 0.81399
 C423 C 0.15727 0.52361 0.80640
 C424 C 0.13848 0.52362 0.78956
 C425 C 0.12867 0.50180 0.78204
 C426 C 0.13698 0.47982 0.79074
 H427 H 0.18912 0.44023 0.83975
 H428 H 0.15703 0.44060 0.81153
 H429 H 0.19414 0.56198 0.83570
 H430 H 0.16250 0.56230 0.80691
 H431 H 0.23560 0.50071 0.87958
 H432 H 0.11420 0.50192 0.76919
 C433 C 0.21276 0.42102 0.10154
 C434 C 0.23699 0.41607 0.10416
 C435 C 0.25097 0.43047 0.11917
 C436 C 0.24093 0.45012 0.13102
 C437 C 0.28079 0.35497 0.04773
 C438 C 0.20269 0.44068 0.11343
 C439 C 0.24805 0.39768 0.08986
 C440 C 0.25789 0.38322 0.07721
 C441 C 0.27001 0.36743 0.06165
 C442 C 0.21678 0.45548 0.12805
 H443 H 0.20185 0.41016 0.08976
 H444 H 0.26977 0.42696 0.12113
 H445 H 0.25209 0.46154 0.14202
 H446 H 0.18411 0.44482 0.11066
 C447 C 0.75583 0.57652 0.12606
 C448 C 0.75926 0.57964 0.10137
 C449 C 0.77354 0.56350 0.08862
 C450 C 0.78399 0.54406 0.10036
 C451 C 0.71294 0.64189 0.04850
 C452 C 0.76635 0.55704 0.13786
 C453 C 0.74697 0.59831 0.08856
 C454 C 0.73644 0.61303 0.07683
 C455 C 0.72387 0.62914 0.06202
 C456 C 0.78035 0.54062 0.12500
 H457 H 0.74465 0.58879 0.13604
 H458 H 0.77616 0.56564 0.06950
 H459 H 0.79459 0.53142 0.09018
 H460 H 0.76317 0.55444 0.15683
 C461 C 0.77894 0.43156 0.91431
 C462 C 0.76344 0.41678 0.90135
 C463 C 0.75946 0.42116 0.87693
 C464 C 0.77055 0.44063 0.86568
 C465 C 0.71423 0.35570 0.95278
 C466 C 0.78996 0.45100 0.90312
 C467 C 0.75035 0.39843 0.91376
 C468 C 0.73912 0.38399 0.92515
 C469 C 0.72576 0.36821 0.93958
 C470 C 0.78567 0.45579 0.87881
 H471 H 0.78199 0.42846 0.93325
 H472 H 0.74733 0.40996 0.86679
 H473 H 0.76683 0.44430 0.84698
 H474 H 0.80140 0.46268 0.91353
 C475 C 0.21945 0.57946 0.89486
 C476 C 0.24393 0.58350 0.89345
 C477 C 0.25803 0.56865 0.87903
 C478 C 0.24782 0.54945 0.86657
 C479 C 0.28636 0.64350 0.95226
 C480 C 0.20921 0.56026 0.88240
 C481 C 0.25492 0.60144 0.90840
 C482 C 0.26449 0.61559 0.92162
 C483 C 0.27610 0.63114 0.93784
 C484 C 0.22337 0.54498 0.86834
 H485 H 0.20842 0.59067 0.90618
 H486 H 0.27702 0.57146 0.87800
 H487 H 0.25904 0.53767 0.85605
 H488 H 0.19040 0.55680 0.88432
 C489 C 0.12064 0.25925 0.43275
 C490 C 0.10632 0.24453 0.41839
 C491 C 0.10494 0.21985 0.42309
 C492 C 0.11740 0.21003 0.44244
 C493 C 0.04829 0.28617 0.35764
 C494 C 0.13307 0.24947 0.45209
 C495 C 0.09153 0.25515 0.40023
 C496 C 0.07849 0.26451 0.38589
 C497 C 0.06251 0.27598 0.37015
 C498 C 0.13138 0.22483 0.45718
 H499 H 0.12164 0.27840 0.42941
 H500 H 0.09371 0.20835 0.41225
 H501 H 0.11559 0.19107 0.44637
 H502 H 0.14357 0.26117 0.46345
 C503 C 0.08742 0.77705 0.56601
 C504 C 0.09910 0.76107 0.58138
 C505 C 0.12298 0.75538 0.57739
 C506 C 0.13500 0.76530 0.55781
 C507 C 0.04572 0.71612 0.64397
 C508 C 0.09939 0.78693 0.54645
 C509 C 0.08593 0.74928 0.60005
 C510 C 0.07404 0.73910 0.61483
 C511 C 0.05918 0.72685 0.63107
 C512 C 0.12319 0.78100 0.54214
 H513 H 0.06890 0.78141 0.56881
 H514 H 0.13212 0.74285 0.58904
 H515 H 0.15328 0.76031 0.55451
 H516 H 0.08999 0.79884 0.53438
 C517 C 0.87481 0.76122 0.42122
 C518 C 0.89887 0.76555 0.41664
 C519 C 0.91173 0.78103 0.43161
 C520 C 0.90078 0.79171 0.45137
 C521 C 0.94962 0.71793 0.35369
 C522 C 0.86380 0.77197 0.44101
 C523 C 0.91102 0.75290 0.39778
 C524 C 0.92223 0.74205 0.38289
 C525 C 0.93650 0.72912 0.36658
 C526 C 0.87680 0.78713 0.45630
 H527 H 0.86476 0.74910 0.40988
 H528 H 0.93039 0.78435 0.42835
 H529 H 0.91109 0.80319 0.46312
 H530 H 0.84536 0.76802 0.44478
 C531 C 0.91202 0.21851 0.56899
 C532 C 0.90028 0.23585 0.58279
 C533 C 0.87677 0.24198 0.57742
 C534 C 0.86521 0.23116 0.55797
 C535 C 0.95289 0.28366 0.64416
 C536 C 0.90052 0.20773 0.54956
 C537 C 0.91314 0.24854 0.60116
 C538 C 0.92483 0.25941 0.61566
 C539 C 0.93953 0.27239 0.63156
 C540 C 0.87712 0.21411 0.54382
 H541 H 0.93027 0.21379 0.57285
 H542 H 0.86761 0.25555 0.58783
 H543 H 0.84726 0.23650 0.55354
 H544 H 0.91001 0.19479 0.53866
 C545 C 0.41959 0.12383 0.24080
 C546 C 0.41524 0.09936 0.23674
 C547 C 0.42991 0.08636 0.22118
 C548 C 0.44916 0.09758 0.21014
 C549 C 0.35436 0.04760 0.28549
 C550 C 0.43886 0.13510 0.22969
 C551 C 0.39695 0.08695 0.24975
 C552 C 0.38254 0.07552 0.26087
 C553 C 0.36679 0.06097 0.27409
 C554 C 0.45386 0.12196 0.21445
 H555 H 0.40847 0.13399 0.25298
 H556 H 0.42683 0.06739 0.21807
 H557 H 0.46070 0.08716 0.19859
 H558 H 0.44246 0.15386 0.23343
 C559 C 0.56630 0.11973 0.74511
 C560 C 0.58072 0.10508 0.75940
 C561 C 0.57590 0.10274 0.78393
 C562 C 0.55642 0.11458 0.79402
 C563 C 0.64247 0.04925 0.71626
 C564 C 0.54683 0.13153 0.75516
 C565 C 0.59911 0.09095 0.74841
 C566 C 0.61368 0.07845 0.73869
 C567 C 0.62971 0.06305 0.72679
 C568 C 0.54166 0.12889 0.77963
 H569 H 0.56972 0.12147 0.72607
 H570 H 0.58679 0.09124 0.79509
 H571 H 0.55243 0.11206 0.81285
 H572 H 0.53545 0.14230 0.74378
 C573 C 0.43246 0.90925 0.77584
 C574 C 0.41786 0.89687 0.75969
 C575 C 0.42230 0.87261 0.75460
 C576 C 0.44158 0.86093 0.76531
 C577 C 0.35635 0.94995 0.71297
 C578 C 0.45171 0.89763 0.78649
 C579 C 0.39948 0.90974 0.74721
 C580 C 0.38496 0.92152 0.73657
 C581 C 0.36901 0.93639 0.72392
 C582 C 0.45649 0.87346 0.78117
 H583 H 0.42931 0.92805 0.77976
 H584 H 0.41124 0.86293 0.74197
 H585 H 0.44524 0.84235 0.76083
 H586 H 0.46319 0.90758 0.79852
 C587 C 0.57923 0.89486 0.21918
 C588 C 0.58260 0.89429 0.24406
 C589 C 0.56697 0.88118 0.25851
 C590 C 0.54767 0.86923 0.24822
 C591 C 0.64298 0.95210 0.28673
 C592 C 0.55994 0.88288 0.20886
 C593 C 0.60071 0.90884 0.25504
 C594 C 0.61499 0.92180 0.26466
 C595 C 0.63061 0.93779 0.27637
 C596 C 0.54390 0.87018 0.22335
 H597 H 0.59106 0.90517 0.20786
 H598 H 0.56927 0.88082 0.27780
 H599 H 0.53533 0.85974 0.25968
 H600 H 0.55705 0.88414 0.18969
 C601 C 0.42801 0.25570 0.87994
 C602 C 0.41376 0.24146 0.89478
 C603 C 0.41868 0.21692 0.89728
 C604 C 0.43812 0.20678 0.88541
 C605 C 0.35242 0.28495 0.95077
 C606 C 0.44743 0.24560 0.86810
 C607 C 0.39544 0.25253 0.90895
 C608 C 0.38096 0.26233 0.92148
 C609 C 0.36505 0.27433 0.93692
 C610 C 0.45273 0.22112 0.87091
 H611 H 0.42450 0.27475 0.87807
 H612 H 0.40794 0.20580 0.90893
 H613 H 0.44221 0.18795 0.88806
 H614 H 0.45869 0.25695 0.85719
 C615 C 0.57654 0.75459 0.87447
 C616 C 0.58084 0.75996 0.89865
 C617 C 0.56609 0.77617 0.91075
 C618 C 0.54683 0.78657 0.89894
 C619 C 0.64210 0.71360 0.95229
 C620 C 0.55726 0.76506 0.86259
 C621 C 0.59919 0.74768 0.91173
 C622 C 0.61367 0.73715 0.92365
 C623 C 0.62954 0.72457 0.93866
 C624 C 0.54219 0.78096 0.87485
 H625 H 0.58772 0.74191 0.86500
 H626 H 0.56912 0.78030 0.92950
 H627 H 0.53523 0.79865 0.90868
 H628 H 0.55371 0.76035 0.84408
 C629 C 0.42014 0.75778 0.12799
 C630 C 0.41716 0.76143 0.10331
 C631 C 0.43342 0.77562 0.09070
 C632 C 0.45286 0.78568 0.10256
 C633 C 0.35552 0.71494 0.05014
 C634 C 0.43960 0.76790 0.13990
 C635 C 0.39860 0.74928 0.09037
 C636 C 0.38400 0.73873 0.07859
 C637 C 0.36806 0.72604 0.06372
 C638 C 0.45618 0.78174 0.12717
 H639 H 0.40779 0.74664 0.13786
 H640 H 0.43140 0.77840 0.07158
 H641 H 0.46561 0.79614 0.09246
 H642 H 0.44211 0.76444 0.15884
 C643 C 0.57402 0.24079 0.12248
 C644 C 0.57835 0.23651 0.09810
 C645 C 0.56363 0.22085 0.08524
 C646 C 0.54436 0.20989 0.09652
 C647 C 0.64040 0.28438 0.04683
 C648 C 0.55473 0.22978 0.13381
 C649 C 0.59679 0.24931 0.08568
 C650 C 0.61140 0.26024 0.07432
 C651 C 0.62752 0.27321 0.05996
 C652 C 0.53969 0.21440 0.12082
 H653 H 0.58518 0.25304 0.13254
 H654 H 0.56671 0.21755 0.06634
 H655 H 0.53280 0.19824 0.08621
 H656 H 0.55115 0.23367 0.15250
 C657 C 0.25719 0.12099 0.56907
 C658 C 0.24280 0.10627 0.58329
 C659 C 0.21841 0.10485 0.57867
 C660 C 0.20856 0.11762 0.55951
 C661 C 0.28518 0.04707 0.64268
 C662 C 0.24737 0.13373 0.54991
 C663 C 0.25349 0.09107 0.60113
 C664 C 0.26300 0.07773 0.61516
 C665 C 0.27471 0.06146 0.63051
 C666 C 0.22304 0.13195 0.54486
 H667 H 0.27611 0.12204 0.57233
 H668 H 0.20717 0.09330 0.58940
 H669 H 0.18983 0.11573 0.55559
 H670 H 0.25883 0.14449 0.53862
 C671 C 0.77386 0.08939 0.43326
 C672 C 0.75957 0.10244 0.41740
 C673 C 0.75631 0.12717 0.42091
 C674 C 0.76698 0.13868 0.44049
 C675 C 0.71256 0.04980 0.35540
 C676 C 0.78446 0.10084 0.45281
 C677 C 0.74706 0.08988 0.39869
 C678 C 0.73636 0.07826 0.38398
 C679 C 0.72361 0.06344 0.36797
 C680 C 0.78096 0.12550 0.45665
 H681 H 0.77636 0.07024 0.43083
 H682 H 0.74511 0.13739 0.40887
 H683 H 0.76391 0.15768 0.44340
 H684 H 0.79505 0.09041 0.46523
 C685 C 0.77965 0.91455 0.57030
 C686 C 0.76418 0.90155 0.58502
 C687 C 0.75997 0.87716 0.58039
 C688 C 0.77082 0.86597 0.56075
 C689 C 0.71564 0.95316 0.64660
 C690 C 0.79042 0.90341 0.55069
 C691 C 0.75132 0.91394 0.60357
 C692 C 0.74027 0.92535 0.61816
 C693 C 0.72707 0.93985 0.63406
 C694 C 0.78592 0.87913 0.54566
 H695 H 0.78287 0.93346 0.57360
 H696 H 0.74786 0.86701 0.59153
 H697 H 0.76693 0.84730 0.55690
 H698 H 0.80186 0.91385 0.53908
 C699 C 0.25710 0.87609 0.43126
 C700 C 0.24310 0.89088 0.41669
 C701 C 0.21867 0.89260 0.42086
 C702 C 0.20838 0.88011 0.43995
 C703 C 0.28560 0.94999 0.35733
 C704 C 0.24684 0.86361 0.45034
 C705 C 0.25416 0.90590 0.39895
 C706 C 0.26376 0.91920 0.38496
 C707 C 0.27537 0.93551 0.36959
 C708 C 0.22245 0.86572 0.45497
 H709 H 0.27606 0.87482 0.42834
 H710 H 0.20772 0.90420 0.40987
 H711 H 0.18963 0.88230 0.44354
 H712 H 0.25799 0.85282 0.46193
 C713 C 0.12509 0.42249 0.75613
 C714 C 0.10107 0.41871 0.76135
 C715 C 0.08928 0.43418 0.77717
 C716 C 0.10127 0.45366 0.78733
 C717 C 0.04763 0.35666 0.71533
 C718 C 0.13713 0.44198 0.76634
 C719 C 0.08789 0.40017 0.74923
 C720 C 0.07598 0.38553 0.73878
 C721 C 0.06110 0.36945 0.72625
 C722 C 0.12521 0.45778 0.78185
 H723 H 0.13431 0.41076 0.74374
 H724 H 0.07066 0.43155 0.78117
 H725 H 0.09178 0.46583 0.79908
 H726 H 0.15552 0.44514 0.76170
 C727 C 0.09949 0.58058 0.21420
 C728 C 0.10171 0.58559 0.23873
 C729 C 0.11638 0.57128 0.25308
 C730 C 0.12830 0.55166 0.24311
 C731 C 0.04523 0.64665 0.28217
 C732 C 0.11144 0.56096 0.20419
 C733 C 0.08736 0.60393 0.24969
 C734 C 0.07468 0.61837 0.25946
 C735 C 0.05912 0.63415 0.27148
 C736 C 0.12574 0.54624 0.21866
 H737 H 0.08797 0.59138 0.20299
 H738 H 0.11804 0.57483 0.27212
 H739 H 0.13904 0.54032 0.25455
 H740 H 0.10899 0.55677 0.18537
 C741 C 0.87506 0.42133 0.24354
 C742 C 0.89862 0.41592 0.23763
 C743 C 0.91049 0.42965 0.22038
 C744 C 0.89907 0.44901 0.20944
 C745 C 0.95122 0.35483 0.28563
 C746 C 0.86358 0.44072 0.23254
 C747 C 0.91138 0.39758 0.25043
 C748 C 0.92303 0.38311 0.26136
 C749 C 0.93776 0.36730 0.27437
 C750 C 0.87562 0.45477 0.21556
 H751 H 0.86579 0.41097 0.25703
 H752 H 0.92877 0.42576 0.21583
 H753 H 0.90865 0.45984 0.19654
 H754 H 0.84558 0.44516 0.23768
 C755 C 0.91278 0.56869 0.78131
 C756 C 0.90008 0.58352 0.76563
 C757 C 0.87605 0.57892 0.76112
 C758 C 0.86490 0.55922 0.77191
 C759 C 0.95112 0.64570 0.71744
 C760 C 0.90169 0.54903 0.79204
 C761 C 0.91238 0.60222 0.75290
 C762 C 0.92367 0.61694 0.74194
 C763 C 0.93799 0.63302 0.72884
 C764 C 0.87775 0.54406 0.78728
 H765 H 0.93142 0.57197 0.78476
 H766 H 0.86612 0.59014 0.74884
 H767 H 0.84649 0.55542 0.76783
 H768 H 0.91188 0.53737 0.80369
 C769 C 0.75917 0.57847 0.87728
 C770 C 0.76312 0.58282 0.90172
 C771 C 0.77870 0.56808 0.91459
 C772 C 0.78981 0.54872 0.90329
 C773 C 0.71372 0.64354 0.95368
 C774 C 0.77034 0.55908 0.86592
 C775 C 0.74995 0.60109 0.91425
 C776 C 0.73868 0.61546 0.92575
 C777 C 0.72528 0.63114 0.94033
 C778 C 0.78554 0.54395 0.87895
 H779 H 0.74698 0.58962 0.86720
 H780 H 0.78175 0.57115 0.93354
 H781 H 0.80130 0.53707 0.91364
 H782 H 0.76663 0.55542 0.84720
 C783 C 0.25478 0.43113 0.87912
 C784 C 0.24066 0.41779 0.89490
 C785 C 0.21666 0.42365 0.89774
 C786 C 0.20695 0.44310 0.88526
 C787 C 0.28275 0.35612 0.95210
 C788 C 0.24510 0.45057 0.86665
 C789 C 0.25133 0.39945 0.90955
 C790 C 0.26078 0.38491 0.92241
 C791 C 0.27239 0.36889 0.93812
 C792 C 0.22117 0.45680 0.86976
 H793 H 0.27342 0.42691 0.87695
 H794 H 0.20564 0.41363 0.91011
 H795 H 0.18857 0.44793 0.88819
 H796 H 0.25637 0.46113 0.85499
 C797 C 0.24334 0.57811 0.12608
 C798 C 0.23845 0.58216 0.10176
 C799 C 0.22242 0.56723 0.08965
 C800 C 0.21173 0.54804 0.10158
 C801 C 0.28547 0.64335 0.04815
 C802 C 0.23259 0.55889 0.13807
 C803 C 0.25099 0.60042 0.08860
 C804 C 0.26169 0.61485 0.07666
 C805 C 0.27443 0.63072 0.06169
 C806 C 0.21686 0.54363 0.12580
 H807 H 0.25588 0.58942 0.13557
 H808 H 0.21864 0.57007 0.07081
 H809 H 0.19981 0.53628 0.09182
 H810 H 0.23695 0.55551 0.15668
 C811 C 0.78172 0.41777 0.10262
 C812 C 0.75735 0.41353 0.10511
 C813 C 0.74375 0.42842 0.11999
 C814 C 0.75430 0.44786 0.13177
 C815 C 0.71244 0.35373 0.04800
 C816 C 0.79231 0.43722 0.11443
 C817 C 0.74583 0.39547 0.09072
 C818 C 0.73571 0.38129 0.07793
 C819 C 0.72336 0.36586 0.06214
 C820 C 0.77860 0.45254 0.12887
 H821 H 0.79236 0.40655 0.09094
 H822 H 0.72484 0.42547 0.12185
 H823 H 0.74342 0.45968 0.14260
 H824 H 0.81098 0.44083 0.11165
 C825 C 0.91291 0.78018 0.56838
 C826 C 0.90032 0.76454 0.58335
 C827 C 0.87617 0.76028 0.57910
 C828 C 0.86481 0.77126 0.55965
 C829 C 0.95186 0.71645 0.64535
 C830 C 0.90160 0.79110 0.54895
 C831 C 0.91279 0.75172 0.60189
 C832 C 0.92420 0.74077 0.61654
 C833 C 0.93864 0.72773 0.63261
 C834 C 0.87753 0.78659 0.54436
 H835 H 0.93162 0.78346 0.57137
 H836 H 0.86632 0.74805 0.59044
 H837 H 0.84630 0.76736 0.55614
 H838 H 0.91171 0.80271 0.53720
 C839 C 0.91394 0.21801 0.43224
 C840 C 0.90174 0.23377 0.41707
 C841 C 0.87757 0.23826 0.42090
 C842 C 0.86584 0.22749 0.44022
 C843 C 0.95387 0.28307 0.35653
 C844 C 0.90225 0.20729 0.45155
 C845 C 0.91462 0.24671 0.39891
 C846 C 0.92622 0.25791 0.38461
 C847 C 0.94073 0.27136 0.36895
 C848 C 0.87819 0.21213 0.45581
 H849 H 0.93267 0.21456 0.42958
 H850 H 0.86801 0.25061 0.40942
 H851 H 0.84736 0.23171 0.44349
 H852 H 0.91210 0.19569 0.46355
 C853 C 0.10472 0.21975 0.57911
 C854 C 0.10591 0.24447 0.58379
 C855 C 0.12029 0.25919 0.56956
 C856 C 0.13293 0.24938 0.55034
 C857 C 0.04755 0.28644 0.64416
 C858 C 0.11739 0.20991 0.55988
 C859 C 0.09091 0.25512 0.60179
 C860 C 0.07776 0.26455 0.61601
 C861 C 0.06173 0.27613 0.63167
 C862 C 0.13140 0.22472 0.54523
 H863 H 0.09345 0.20824 0.58984
 H864 H 0.12117 0.27836 0.57287
 H865 H 0.14343 0.26110 0.53906
 H866 H 0.11567 0.19093 0.55594
 C867 C 0.11378 0.74404 0.43041
 C868 C 0.10079 0.75895 0.41504
 C869 C 0.10060 0.78384 0.41890
 C870 C 0.11290 0.79369 0.43839
 C871 C 0.04380 0.71668 0.35347
 C872 C 0.12604 0.75385 0.44989
 C873 C 0.08619 0.74838 0.39664
 C874 C 0.07337 0.73892 0.38210
 C875 C 0.05770 0.72720 0.36615
 C876 C 0.12552 0.77871 0.45413
 H877 H 0.11389 0.72475 0.42774
 H878 H 0.09041 0.79552 0.40727
 H879 H 0.11201 0.81287 0.44164
 H880 H 0.13547 0.74203 0.46201
 C881 C 0.57748 0.89904 0.78558
 C882 C 0.58239 0.89665 0.76106
 C883 C 0.56818 0.88175 0.74678
 C884 C 0.54883 0.86973 0.75681
 C885 C 0.64351 0.95281 0.71742
 C886 C 0.55812 0.88699 0.79565
 C887 C 0.60066 0.91096 0.75006
 C888 C 0.61511 0.92355 0.74027
 C889 C 0.63096 0.93900 0.72819
 C890 C 0.54356 0.87241 0.78127
 H891 H 0.58820 0.91074 0.79674
 H892 H 0.57166 0.87995 0.72775
 H893 H 0.53761 0.85876 0.74542
 H894 H 0.55406 0.88955 0.81446
 C895 C 0.42091 0.87416 0.24340
 C896 C 0.41815 0.89893 0.23982
 C897 C 0.43455 0.91146 0.22573
 C898 C 0.45388 0.89944 0.21568
 C899 C 0.35588 0.95187 0.28580
 C900 C 0.44027 0.86209 0.23330
 C901 C 0.39956 0.91197 0.25182
 C902 C 0.38486 0.92374 0.26223
 C903 C 0.36870 0.93849 0.27478
 C904 C 0.45696 0.87472 0.21951
 H905 H 0.40844 0.86434 0.25445
 H906 H 0.43270 0.93064 0.22300
 H907 H 0.46671 0.90947 0.20526
 H908 H 0.44258 0.84307 0.23668
 C909 C 0.57539 0.12419 0.23995
 C910 C 0.57973 0.09972 0.23589
 C911 C 0.56497 0.08671 0.22039
 C912 C 0.54563 0.09791 0.20945
 C913 C 0.64147 0.04855 0.28448
 C914 C 0.55602 0.13545 0.22895
 C915 C 0.59813 0.08733 0.24883
 C916 C 0.61268 0.07598 0.25991
 C917 C 0.62870 0.06164 0.27309
 C918 C 0.54091 0.12229 0.21380
 H919 H 0.58657 0.13437 0.25208
 H920 H 0.56804 0.06775 0.21726
 H921 H 0.53400 0.08747 0.19799
 H922 H 0.55241 0.15419 0.23274
 C923 C 0.42052 0.12580 0.75368
 C924 C 0.41651 0.10161 0.75937
 C925 C 0.43128 0.09001 0.77590
 C926 C 0.45029 0.10232 0.78627
 C927 C 0.35613 0.04644 0.71325
 C928 C 0.43956 0.13817 0.76411
 C929 C 0.39846 0.08801 0.74712
 C930 C 0.38422 0.07569 0.73664
 C931 C 0.36858 0.06031 0.72414
 C932 C 0.45466 0.12640 0.78031
 H933 H 0.40932 0.13489 0.74076
 H934 H 0.42847 0.07127 0.78029
 H935 H 0.46194 0.09294 0.79856
 H936 H 0.44290 0.15667 0.75912
 C937 C 0.57816 0.78080 0.10594
 C938 C 0.58121 0.75582 0.10650
 C939 C 0.56555 0.74158 0.11981
 C940 C 0.54655 0.75215 0.13195
 C941 C 0.64129 0.71243 0.04895
 C942 C 0.55915 0.79141 0.11811
 C943 C 0.59907 0.74457 0.09187
 C944 C 0.61321 0.73476 0.07893
 C945 C 0.62880 0.72288 0.06306
 C946 C 0.54308 0.77712 0.13100
 H947 H 0.59002 0.79197 0.09550
 H948 H 0.56760 0.72222 0.12019
 H949 H 0.53417 0.74084 0.14158
 H950 H 0.55650 0.81065 0.11683
 C951 C 0.42835 0.21933 0.08551
 C952 C 0.41352 0.23493 0.09829
 C953 C 0.41795 0.23945 0.12262
 C954 C 0.43745 0.22878 0.13397
 C955 C 0.35178 0.28292 0.04664
 C956 C 0.44782 0.20872 0.09680
 C957 C 0.39499 0.24756 0.08579
 C958 C 0.38038 0.25845 0.07434
 C959 C 0.36439 0.27151 0.05987
 C960 C 0.45261 0.21351 0.12104
 H961 H 0.42522 0.21586 0.06665
 H962 H 0.40673 0.25167 0.13262
 H963 H 0.44110 0.23291 0.15260
 H964 H 0.45948 0.19715 0.08653
 C965 C 0.57429 0.24704 0.87279
 C966 C 0.57856 0.24148 0.89693
 C967 C 0.56367 0.22533 0.90889
 C968 C 0.54435 0.21510 0.89697
 C969 C 0.64091 0.28613 0.95098
 C970 C 0.55493 0.23675 0.86081
 C971 C 0.59714 0.25341 0.91008
 C972 C 0.61187 0.26355 0.92209
 C973 C 0.62806 0.27563 0.93721
 C974 C 0.53978 0.22084 0.87292
 H975 H 0.58557 0.25967 0.86343
 H976 H 0.56669 0.22104 0.92759
 H977 H 0.53270 0.20301 0.90659
 H978 H 0.55144 0.24155 0.84233
 C979 C 0.43102 0.74540 0.88269
 C980 C 0.41671 0.75958 0.89757
 C981 C 0.42129 0.78424 0.89977
 C982 C 0.44047 0.79454 0.88761
 C983 C 0.35639 0.71522 0.95402
 C984 C 0.45018 0.75566 0.87057
 C985 C 0.39871 0.74835 0.91203
 C986 C 0.38449 0.73838 0.92473
 C987 C 0.36885 0.72611 0.94024
 C988 C 0.45517 0.78024 0.87312
 H989 H 0.42778 0.72627 0.88102
 H990 H 0.41049 0.79533 0.91143
 H991 H 0.44432 0.81345 0.89008
 H992 H 0.46151 0.74433 0.85969
 C993 C 0.75910 0.87853 0.42308
 C994 C 0.76312 0.90304 0.41899
 C995 C 0.77865 0.91580 0.43391
 C996 C 0.78967 0.90432 0.45317
 C997 C 0.71453 0.95489 0.35755
 C998 C 0.77019 0.86698 0.44237
 C999 C 0.75015 0.91569 0.40068
 C1000 C 0.73907 0.92721 0.38620
 C1001 C 0.72590 0.94171 0.37027
 C1002 C 0.78538 0.87989 0.45765
 H1003 H 0.74695 0.86853 0.41178
 H1004 H 0.78175 0.93480 0.43103
 H1005 H 0.80117 0.91457 0.46493
 H1006 H 0.76644 0.84821 0.44580
 C1007 C 0.21726 0.89542 0.57591
 C1008 C 0.24128 0.89219 0.58152
 C1009 C 0.25496 0.87597 0.56820
 C1010 C 0.24486 0.86349 0.54898
 C1011 C 0.28498 0.94977 0.64185
 C1012 C 0.20713 0.88291 0.55667
 C1013 C 0.25243 0.90695 0.59952
 C1014 C 0.26227 0.91990 0.61375
 C1015 C 0.27431 0.93572 0.62939
 C1016 C 0.22093 0.86702 0.54295
 H1017 H 0.20658 0.90812 0.58592
 H1018 H 0.27361 0.87351 0.57223
 H1019 H 0.25582 0.85152 0.53839
 H1020 H 0.18876 0.88618 0.55199
 C1021 C 0.21783 0.10499 0.42281
 C1022 C 0.24222 0.10624 0.41813
 C1023 C 0.25676 0.12078 0.43245
 C1024 C 0.24711 0.13351 0.45173
 C1025 C 0.28416 0.04764 0.35762
 C1026 C 0.20815 0.11775 0.44210
 C1027 C 0.25272 0.09115 0.40004
 C1028 C 0.26210 0.07793 0.38576
 C1029 C 0.27372 0.06184 0.37008
 C1030 C 0.22278 0.13192 0.45682
 H1031 H 0.20646 0.09360 0.41201
 H1032 H 0.27568 0.12172 0.42914
 H1033 H 0.25869 0.14414 0.46307
 H1034 H 0.18941 0.11599 0.44603
 C1035 C 0.78245 0.10204 0.57932
 C1036 C 0.75813 0.10476 0.58370
 C1037 C 0.74451 0.11965 0.56886
 C1038 C 0.75503 0.13131 0.54939
 C1039 C 0.71399 0.04922 0.64537
 C1040 C 0.79299 0.11371 0.55984
 C1041 C 0.74671 0.09075 0.60207
 C1042 C 0.73675 0.07832 0.61662
 C1043 C 0.72465 0.06298 0.63264
 C1044 C 0.77930 0.12828 0.54463
 H1045 H 0.79309 0.09036 0.59051
 H1046 H 0.72565 0.12169 0.57193
 H1047 H 0.74416 0.14224 0.53767
 H1048 H 0.81164 0.11083 0.55617
 C1049 C 0.91186 0.56719 0.21833
 C1050 C 0.89930 0.58278 0.23342
 C1051 C 0.87514 0.57876 0.23775
 C1052 C 0.86374 0.55892 0.22744
 C1053 C 0.95031 0.64594 0.28084
 C1054 C 0.90051 0.54736 0.20807
 C1055 C 0.91178 0.60168 0.24578
 C1056 C 0.92309 0.61661 0.25652
 C1057 C 0.93732 0.63299 0.26949
 C1058 C 0.87643 0.54298 0.21268
 H1059 H 0.93059 0.57000 0.21502
 H1060 H 0.86531 0.59056 0.24958
 H1061 H 0.84524 0.55558 0.23147
 H1062 H 0.91061 0.53512 0.19692
 C1063 C 0.87688 0.42104 0.76095
 C1064 C 0.90100 0.41678 0.76534
 C1065 C 0.91350 0.43174 0.78112
 C1066 C 0.90215 0.45120 0.79201
 C1067 C 0.95279 0.35533 0.71668
 C1068 C 0.86547 0.44052 0.77190
 C1069 C 0.91356 0.39833 0.75243
 C1070 C 0.92504 0.38379 0.74136
 C1071 C 0.93954 0.36789 0.72814
 C1072 C 0.87812 0.45584 0.78733
 H1073 H 0.86709 0.40971 0.74860
 H1074 H 0.93219 0.42875 0.78450
 H1075 H 0.91220 0.46299 0.80368
 H1076 H 0.84701 0.44407 0.76785
 C1077 C 0.10301 0.58111 0.78402
 C1078 C 0.10361 0.58480 0.75917
 C1079 C 0.11696 0.56940 0.74459
 C1080 C 0.12912 0.55002 0.75468
 C1081 C 0.04636 0.64543 0.71607
 C1082 C 0.11522 0.56171 0.79415
 C1083 C 0.08898 0.60298 0.74829
 C1084 C 0.07610 0.61729 0.73861
 C1085 C 0.06035 0.63297 0.72668
 C1086 C 0.12814 0.54590 0.77949
 H1087 H 0.09254 0.59276 0.79544
 H1088 H 0.11737 0.57195 0.72533
 H1089 H 0.13878 0.53784 0.74310
 H1090 H 0.11397 0.55855 0.81327
 C1091 C 0.12352 0.42365 0.24552
 C1092 C 0.09954 0.41955 0.24027
 C1093 C 0.08775 0.43444 0.22393
 C1094 C 0.09969 0.45365 0.21329
 C1095 C 0.04624 0.35767 0.28665
 C1096 C 0.13552 0.44289 0.23482
 C1097 C 0.08640 0.40120 0.25269
 C1098 C 0.07450 0.38665 0.26326
 C1099 C 0.05964 0.37057 0.27581
 C1100 C 0.12358 0.45811 0.21878
 H1101 H 0.13276 0.41236 0.25829
 H1102 H 0.06917 0.43156 0.21986
 H1103 H 0.09018 0.46538 0.20113
 H1104 H 0.15387 0.44630 0.23947
   
