data_POSCAR
  _audit_creation_date              2014-09-24
  _audit_creation_method            'ToBaCCo'
  _symmetry_space_group_name_H-M    'P1'
  _symmetry_Int_Tables_number       1
  _symmetry_cell_setting            triclinic
  loop_
  _symmetry_equiv_pos_as_xyz
 x,y,z
_cell_length_a 26.4150
_cell_length_b 34.7218
_cell_length_c 26.2240
_cell_angle_alpha 90.028100
_cell_angle_beta 89.691800
_cell_angle_gamma 90.143100
loop_
  _atom_site_label
  _atom_site_type_symbol
  _atom_site_fract_x
  _atom_site_fract_y
  _atom_site_fract_z
O1 O 0.31766 0.21234 0.25137
 O2 O 0.25090 0.28757 0.18020
 O3 O 0.31642 0.28719 0.25399
 O4 O 0.25050 0.21275 0.17911
 O5 O 0.18891 0.21159 0.23628
 O6 O 0.25431 0.28604 0.31067
 O7 O 0.18870 0.28640 0.23679
 O8 O 0.25604 0.21122 0.30857
 Cu9 Cu 0.29008 0.25008 0.21045
 Cu10 Cu 0.21579 0.24872 0.27881
 C11 C 0.29843 0.19901 0.29217
 C12 C 0.20836 0.29971 0.19609
 C13 C 0.29654 0.29925 0.29522
 C14 C 0.20834 0.19945 0.19489
 O15 O 0.81774 0.28385 0.24418
 O16 O 0.75042 0.21115 0.32065
 O17 O 0.81265 0.20903 0.24347
 O18 O 0.75442 0.28610 0.32040
 O19 O 0.69015 0.28817 0.26699
 O20 O 0.74836 0.21142 0.19013
 O21 O 0.68612 0.21318 0.26734
 O22 O 0.75342 0.28636 0.19088
 Cu23 Cu 0.79023 0.24730 0.28756
 Cu24 Cu 0.71305 0.24998 0.22349
 C25 C 0.79712 0.29757 0.20455
 C26 C 0.70685 0.19958 0.30709
 C27 C 0.79038 0.19708 0.20363
 C28 C 0.71238 0.30035 0.30667
 O29 O 0.81544 0.71253 0.75485
 O30 O 0.74758 0.78739 0.68391
 O31 O 0.81664 0.78755 0.75420
 O32 O 0.74500 0.71262 0.68594
 O33 O 0.68614 0.71397 0.74602
 O34 O 0.75775 0.78870 0.81417
 O35 O 0.68856 0.78885 0.74380
 O36 O 0.75653 0.71365 0.81487
 Cu37 Cu 0.78712 0.74989 0.71375
 Cu38 Cu 0.71635 0.75146 0.78577
 C39 C 0.79759 0.70021 0.79685
 C40 C 0.70649 0.80089 0.70164
 C41 C 0.79939 0.80101 0.79589
 C42 C 0.70330 0.70053 0.70436
 O43 O 0.24616 0.71198 0.68345
 O44 O 0.18249 0.78575 0.76135
 O45 O 0.24458 0.78704 0.68452
 O46 O 0.18336 0.71107 0.76060
 O47 O 0.24790 0.71122 0.81369
 O48 O 0.30918 0.78747 0.73760
 O49 O 0.24703 0.78593 0.81453
 O50 O 0.31072 0.71234 0.73655
 Cu51 Cu 0.20773 0.74880 0.71705
 Cu52 Cu 0.28529 0.74917 0.78083
 C53 C 0.28933 0.69958 0.69670
 C54 C 0.20396 0.79846 0.80121
 C55 C 0.28707 0.80053 0.69836
 C56 C 0.20483 0.69838 0.80043
 C57 C 0.97353 -0.00003 -0.00066
 C58 C 1.02513 -0.00001 0.00091
 C59 C 1.05404 0.03039 0.02804
 C60 C 1.05529 -0.03026 -0.02517
 C61 C 0.94551 -0.02762 -0.03349
 C62 C 0.94297 0.02722 0.03044
 C63 C 1.04631 0.06949 0.01728
 C64 C 1.07363 0.09780 0.04325
 C65 C 1.11052 0.08762 0.07945
 C66 C 1.11721 0.04828 0.09068
 C67 C 1.08989 0.02002 0.06470
 C68 C 1.09140 -0.01982 -0.06196
 C69 C 1.11819 -0.04804 -0.08866
 C70 C 1.11063 -0.08744 -0.07803
 C71 C 1.07388 -0.09765 -0.04126
 C72 C 1.04713 -0.06938 -0.01458
 C73 C 0.90885 -0.05204 -0.01208
 C74 C 0.88536 -0.08016 -0.04192
 C75 C 0.89858 -0.08492 -0.09369
 C76 C 0.93276 -0.05840 -0.11570
 C77 C 0.95605 -0.03019 -0.08587
 C78 C 0.95006 0.03023 0.08327
 C79 C 0.92248 0.05699 0.11183
 C80 C 0.88591 0.08054 0.08853
 C81 C 0.87950 0.07759 0.03532
 C82 C 0.90715 0.05084 0.00682
 H83 H 1.01882 0.07810 -0.01097
 H84 H 1.06512 0.12764 0.03535
 H85 H 1.14297 0.03916 0.12020
 H86 H 1.09593 -0.01001 0.07397
 H87 H 1.09766 0.01024 -0.07116
 H88 H 1.14383 -0.03879 -0.11853
 H89 H 1.01928 -0.07801 0.01367
 H90 H 0.89933 -0.04995 0.02805
 H91 H 0.85722 -0.09860 -0.02423
 H92 H 0.94156 -0.05900 -0.15596
 H93 H 0.98284 -0.01059 -0.10353
 H94 H 0.97751 0.01220 0.10231
 H95 H 0.93044 0.05955 0.15211
 H96 H 0.85405 0.09649 0.01518
 H97 H 0.90164 0.04931 -0.03403
 H98 H 1.06491 -0.12752 -0.03368
 C99 C 0.47358 0.50044 0.49761
 C100 C 0.52512 0.50082 0.50058
 C101 C 0.55222 0.52894 0.53336
 C102 C 0.55677 0.47320 0.47125
 C103 C 0.44598 0.46991 0.46939
 C104 C 0.44217 0.53025 0.52315
 C105 C 0.58978 0.55270 0.51224
 C106 C 0.61352 0.58067 0.54206
 C107 C 0.59970 0.58595 0.59356
 C108 C 0.56422 0.56030 0.61530
 C109 C 0.54069 0.53220 0.58547
 C110 C 0.55164 0.46948 0.41827
 C111 C 0.58006 0.44223 0.39147
 C112 C 0.61565 0.41894 0.41671
 C113 C 0.62027 0.42272 0.47000
 C114 C 0.59168 0.44991 0.49677
 C115 C 0.45331 0.43085 0.48074
 C116 C 0.42772 0.40239 0.45332
 C117 C 0.39293 0.41237 0.41497
 C118 C 0.38672 0.45166 0.40316
 C119 C 0.41230 0.48007 0.43061
 C120 C 0.40517 0.51917 0.55871
 C121 C 0.37729 0.54690 0.58522
 C122 C 0.38468 0.58647 0.57564
 C123 C 0.42217 0.59733 0.53995
 C124 C 0.45000 0.56954 0.51344
 H125 H 0.60005 0.55006 0.47234
 H126 H 0.64244 0.59854 0.52462
 H127 H 0.55472 0.56131 0.65538
 H128 H 0.51320 0.51308 0.60296
 H129 H 0.52498 0.48728 0.39778
 H130 H 0.57350 0.43906 0.35100
 H131 H 0.59571 0.45202 0.53777
 H132 H 0.47926 0.42241 0.51052
 H133 H 0.43597 0.37262 0.46188
 H134 H 0.36252 0.46059 0.37222
 H135 H 0.40668 0.51006 0.42085
 H136 H 0.39909 0.48898 0.56723
 H137 H 0.35108 0.53710 0.61425
 H138 H 0.43087 0.62736 0.53317
 H139 H 0.47846 0.57869 0.48611
 H140 H 0.64492 0.40410 0.49155
 C141 C 0.02392 0.49939 -0.00046
 C142 C -0.02771 0.49863 -0.00119
 C143 C -0.05693 0.47052 0.02988
 C144 C -0.05688 0.52584 -0.03321
 C145 C 0.05311 0.52989 -0.02743
 C146 C 0.05357 0.46958 0.02675
 C147 C -0.09089 0.44521 0.00626
 C148 C -0.11518 0.41643 0.03455
 C149 C -0.10549 0.41207 0.08704
 C150 C -0.07437 0.43957 0.11110
 C151 C -0.05004 0.46825 0.08277
 C152 C -0.04791 0.52826 -0.08587
 C153 C -0.07169 0.55653 -0.11496
 C154 C -0.10457 0.58337 -0.09187
 C155 C -0.11650 0.57864 -0.03979
 C156 C -0.09262 0.55036 -0.01071
 C157 C 0.04405 0.56897 -0.01749
 C158 C 0.06907 0.59744 -0.04563
 C159 C 0.10338 0.58743 -0.08479
 C160 C 0.11504 0.54819 -0.09176
 C161 C 0.08987 0.51975 -0.06369
 C162 C 0.08853 0.48057 0.06403
 C163 C 0.11559 0.45276 0.09094
 C164 C 0.10943 0.41326 0.08007
 C165 C 0.07347 0.40249 0.04316
 C166 C 0.04655 0.43033 0.01621
 H167 H -0.09764 0.44715 -0.03436
 H168 H -0.14143 0.39767 0.01503
 H169 H -0.06841 0.43880 0.15187
 H170 H -0.02523 0.48840 0.10197
 H171 H -0.02177 0.50861 -0.10426
 H172 H -0.06409 0.55711 -0.15547
 H173 H -0.10091 0.54834 0.02970
 H174 H 0.01721 0.57740 0.01179
 H175 H 0.06151 0.62719 -0.03625
 H176 H 0.14338 0.53935 -0.11928
 H177 H 0.09832 0.48974 -0.07104
 H178 H 0.09392 0.51072 0.07319
 H179 H 0.14056 0.46238 0.12090
 H180 H 0.06552 0.37249 0.03539
 H181 H 0.01971 0.42124 -0.01249
 H182 H -0.14379 0.59723 -0.02124
 C183 C 0.52352 1.00182 0.50551
 C184 C 0.47198 1.00174 0.50263
 C185 C 0.44074 0.97434 0.53283
 C186 C 0.44457 1.02902 0.46911
 C187 C 0.55460 1.03156 0.47921
 C188 C 0.55119 0.97190 0.53459
 C189 C 0.40721 0.94942 0.50794
 C190 C 0.37956 0.92211 0.53559
 C191 C 0.38358 0.91990 0.58909
 C192 C 0.41782 0.94486 0.61371
 C193 C 0.44543 0.97215 0.58599
 C194 C 0.45598 1.03144 0.41691
 C195 C 0.43261 1.05908 0.38643
 C196 C 0.39752 1.08518 0.40762
 C197 C 0.38349 1.08053 0.45918
 C198 C 0.40705 1.05298 0.48966
 C199 C 0.54628 1.07090 0.48790
 C200 C 0.57378 1.09858 0.46069
 C201 C 0.61143 1.08759 0.42532
 C202 C 0.61924 1.04795 0.41668
 C203 C 0.59167 1.02033 0.44388
 C204 C 0.58551 0.98280 0.57253
 C205 C 0.61034 0.95490 0.60143
 C206 C 0.60080 0.91539 0.59351
 C207 C 0.56855 0.90472 0.55323
 C208 C 0.54382 0.93265 0.52433
 H209 H 0.40365 0.95032 0.46682
 H210 H 0.35589 0.90220 0.51472
 H211 H 0.42422 0.94291 0.65431
 H212 H 0.47127 0.99112 0.60589
 H213 H 0.48340 1.01211 0.39989
 H214 H 0.44205 1.05958 0.34631
 H215 H 0.39680 1.05092 0.52961
 H216 H 0.51775 1.08017 0.51504
 H217 H 0.56489 1.12863 0.46682
 H218 H 0.64553 1.03794 0.38792
 H219 H 0.59809 0.99008 0.43612
 H220 H 0.59269 1.01298 0.58014
 H221 H 0.63734 0.96453 0.62954
 H222 H 0.56260 0.87474 0.54371
 H223 H 0.51887 0.92365 0.49390
 H224 H 0.35464 1.09859 0.47622
 C225 C 1.18296 0.17077 0.16550
 C226 C 1.21474 0.13424 0.15751
 C227 C 1.19177 0.10704 0.12816
 C228 C 1.13837 0.11837 0.10990
 C229 C 1.10927 0.12897 0.15875
 C230 C 1.13231 0.15621 0.18780
 C231 C 1.17002 0.18441 0.11138
 C232 C 1.14715 0.15705 0.08219
 H233 H 1.25279 0.13056 0.17219
 H234 H 1.21111 0.08078 0.11714
 H235 H 1.07330 0.11606 0.16956
 H236 H 1.11569 0.16629 0.22331
 H237 H 1.17966 0.21272 0.09659
 H238 H 1.13868 0.16214 0.04234
 C239 C 0.67420 0.67010 0.67603
 C240 C 0.65812 0.68308 0.62259
 C241 C 0.63249 0.65569 0.59595
 C242 C 0.62555 0.61730 0.62480
 C243 C 0.67926 0.60557 0.64072
 C244 C 0.70457 0.63303 0.66748
 C245 C 0.62467 0.65679 0.70177
 C246 C 0.59908 0.62944 0.67496
 H247 H 0.66484 0.71181 0.60763
 H248 H 0.61701 0.66139 0.55845
 H249 H 0.69583 0.57774 0.63202
 H250 H 0.74268 0.62864 0.68163
 H251 H 0.60952 0.66912 0.73668
 H252 H 0.56182 0.61989 0.68704
 C253 C -0.17570 0.32761 0.17336
 C254 C -0.16892 0.31616 0.11721
 C255 C -0.14516 0.34341 0.08834
 C256 C -0.13058 0.38017 0.11814
 C257 C -0.18005 0.39367 0.14339
 C258 C -0.20357 0.36631 0.17214
 C259 C -0.12186 0.33750 0.19141
 C260 C -0.09819 0.36466 0.16239
 H261 H -0.17962 0.28823 0.10200
 H262 H -0.13490 0.33789 0.04892
 H263 H -0.19531 0.42248 0.13899
 H264 H -0.23882 0.37177 0.19233
 H265 H -0.10298 0.32331 0.22286
 H266 H -0.05908 0.37281 0.16901
 C267 C 0.31154 0.83263 0.66860
 C268 C 0.32045 0.86893 0.70082
 C269 C 0.34324 0.89821 0.67485
 C270 C 0.35581 0.88852 0.61874
 C271 C 0.38684 0.85117 0.62112
 C272 C 0.36377 0.82204 0.64706
 C273 C 0.28133 0.84695 0.62233
 C274 C 0.30421 0.87628 0.59655
 H275 H 0.30782 0.87196 0.74007
 H276 H 0.34883 0.92628 0.69211
 H277 H 0.42396 0.84792 0.60367
 H278 H 0.38107 0.79393 0.65163
 H279 H 0.24419 0.83622 0.61184
 H280 H 0.28569 0.89067 0.56506
 C281 C -0.17499 0.66929 -0.17423
 C282 C -0.20645 0.63243 -0.16741
 C283 C -0.18262 0.60442 -0.14045
 C284 C -0.12922 0.61547 -0.12256
 C285 C -0.10087 0.62797 -0.17153
 C286 C -0.12496 0.65581 -0.19860
 C287 C -0.16036 0.68154 -0.12002
 C288 C -0.13622 0.65361 -0.09311
 H289 H -0.24422 0.62860 -0.18278
 H290 H -0.20010 0.57668 -0.13276
 H291 H -0.06342 0.61816 -0.18246
 H292 H -0.10833 0.66840 -0.23268
 H293 H -0.16680 0.71019 -0.10474
 H294 H -0.12160 0.65888 -0.05514
 C295 C 0.32611 1.16874 0.32198
 C296 C 0.37700 1.15590 0.29881
 C297 C 0.40145 1.12881 0.32686
 C298 C 0.37260 1.11636 0.37555
 C299 C 0.36386 1.15467 0.40409
 C300 C 0.33932 1.18182 0.37622
 C301 C 0.29569 1.13139 0.32890
 C302 C 0.31989 1.10413 0.35687
 H303 H 0.39381 1.16837 0.26473
 H304 H 0.43937 1.11956 0.31675
 H305 H 0.37752 1.16059 0.44226
 H306 H 0.33163 1.21048 0.39086
 H307 H 0.25837 1.12669 0.31286
 H308 H 0.30316 1.07616 0.36475
 C309 C 1.17871 -0.17117 -0.16676
 C310 C 1.12724 -0.15706 -0.18638
 C311 C 1.10562 -0.12952 -0.15656
 C312 C 1.13703 -0.11829 -0.10967
 C313 C 1.14702 -0.15665 -0.08177
 C314 C 1.16840 -0.18428 -0.11176
 C315 C 1.21093 -0.13456 -0.16136
 C316 C 1.18952 -0.10707 -0.13126
 H317 H 1.10912 -0.16772 -0.22066
 H318 H 1.06919 -0.11684 -0.16550
 H319 H 1.14012 -0.16134 -0.04143
 H320 H 1.17852 -0.21248 -0.09721
 H321 H 1.24838 -0.13118 -0.17805
 H322 H 1.20971 -0.08085 -0.12159
 C323 C 0.68827 0.33220 0.33706
 C324 C 0.71736 0.34509 0.38482
 C325 C 0.69447 0.37419 0.41103
 C326 C 0.64398 0.38763 0.38758
 C327 C 0.65869 0.39830 0.33234
 C328 C 0.68146 0.36928 0.30599
 C329 C 0.63507 0.32190 0.35651
 C330 C 0.61200 0.35079 0.38273
 H331 H 0.75390 0.33370 0.39592
 H332 H 0.71263 0.38775 0.44340
 H333 H 0.65393 0.42673 0.31593
 H334 H 0.69517 0.37290 0.26719
 H335 H 0.61716 0.29411 0.35042
 H336 H 0.57430 0.34764 0.39894
 C337 C 0.82651 -0.16989 -0.17706
 C338 C 0.84185 -0.18262 -0.12323
 C339 C 0.86662 -0.15498 -0.09622
 C340 C 0.87356 -0.11659 -0.12506
 C341 C 0.90112 -0.12864 -0.17468
 C342 C 0.87642 -0.15623 -0.20193
 C343 C 0.79557 -0.13294 -0.16917
 C344 C 0.82005 -0.10528 -0.14202
 H345 H 0.83543 -0.21139 -0.10823
 H346 H 0.88166 -0.16056 -0.05851
 H347 H 0.93847 -0.11876 -0.18601
 H348 H 0.89252 -0.16843 -0.23649
 H349 H 0.75767 -0.12874 -0.18400
 H350 H 0.80299 -0.07755 -0.13369
 C351 C 0.32279 0.32939 0.32675
 C352 C 0.33489 0.31545 0.38087
 C353 C 0.35711 0.34266 0.41075
 C354 C 0.36613 0.38155 0.38362
 C355 C 0.39605 0.37131 0.33505
 C356 C 0.37357 0.34414 0.30535
 C357 C 0.29068 0.36570 0.33461
 C358 C 0.31297 0.39280 0.36461
 H359 H 0.32495 0.28706 0.39515
 H360 H 0.36464 0.33733 0.45073
 H361 H 0.43212 0.38438 0.32495
 H362 H 0.39056 0.33417 0.26998
 H363 H 0.25289 0.36929 0.31924
 H364 H 0.29338 0.41900 0.37547
 C365 C 0.17948 0.66988 -0.16963
 C366 C 0.16685 0.63321 -0.19987
 C367 C 0.14077 0.60635 -0.17245
 C368 C 0.13019 0.61810 -0.11663
 C369 C 0.18233 0.62854 -0.09485
 C370 C 0.20813 0.65549 -0.12231
 C371 C 0.12824 0.68393 -0.14890
 C372 C 0.10228 0.65693 -0.12168
 H373 H 0.17635 0.62910 -0.23985
 H374 H 0.12738 0.57983 -0.18968
 H375 H 0.19768 0.61572 -0.06050
 H376 H 0.24545 0.66544 -0.11113
 H377 H 0.11267 0.71224 -0.15671
 H378 H 0.06415 0.66235 -0.10800
 C379 C 0.68181 1.17086 0.33697
 C380 C 0.62932 1.15806 0.31794
 C381 C 0.60706 1.13057 0.34750
 C382 C 0.63879 1.11802 0.39354
 C383 C 0.69039 1.10601 0.37070
 C384 C 0.71246 1.13344 0.34090
 C385 C 0.67290 1.18336 0.39253
 C386 C 0.65088 1.15575 0.42216
 H387 H 0.61094 1.16949 0.28428
 H388 H 0.56998 1.11874 0.33891
 H389 H 0.70987 1.07941 0.37950
 H390 H 0.74951 1.12943 0.32356
 H391 H 0.68411 1.21121 0.40767
 H392 H 0.64436 1.16006 0.46264
 C393 C 0.18150 0.33006 0.16572
 C394 C 0.17160 0.31764 0.11046
 C395 C 0.14895 0.34515 0.08161
 C396 C 0.13722 0.38273 0.11078
 C397 C 0.10648 0.36988 0.15774
 C398 C 0.12948 0.34245 0.18646
 C399 C 0.21200 0.36759 0.16103
 C400 C 0.18923 0.39499 0.13207
 H401 H 0.18306 0.29002 0.09482
 H402 H 0.14232 0.34097 0.04119
 H403 H 0.06952 0.38144 0.16753
 H404 H 0.11201 0.33072 0.22065
 H405 H 0.24925 0.37173 0.17749
 H406 H 0.20811 0.42194 0.12309
 C407 C 0.67846 0.83149 0.67273
 C408 C 0.67196 0.86895 0.70313
 C409 C 0.64555 0.89665 0.67803
 C410 C 0.62847 0.88470 0.62403
 C411 C 0.67713 0.87163 0.59686
 C412 C 0.70325 0.84394 0.62212
 C413 C 0.62441 0.81948 0.65838
 C414 C 0.59810 0.84728 0.63335
 H415 H 0.68515 0.87280 0.74195
 H416 H 0.63541 0.92352 0.69648
 H417 H 0.69001 0.88329 0.56062
 H418 H 0.73833 0.83212 0.60720
 H419 H 0.60772 0.79187 0.66841
 H420 H 0.55868 0.84339 0.62310
 C421 C 0.81441 0.16564 0.17236
 C422 C 0.86659 0.17684 0.15105
 C423 C 0.88938 0.14848 0.12355
 C424 C 0.85815 0.11120 0.11944
 C425 C 0.84583 0.09996 0.17509
 C426 C 0.82330 0.12847 0.20268
 C427 C 0.78389 0.15259 0.12556
 C428 C 0.80648 0.12403 0.09817
 H429 H 0.88406 0.20482 0.15690
 H430 H 0.92639 0.15227 0.10602
 H431 H 0.85191 0.07149 0.19094
 H432 H 0.81111 0.12440 0.24191
 H433 H 0.74661 0.16341 0.11602
 H434 H 0.78739 0.11035 0.06642
 C435 C 0.31494 0.66940 0.66455
 C436 C 0.36682 0.65595 0.68394
 C437 C 0.38889 0.62864 0.65412
 C438 C 0.35752 0.61690 0.60742
 C439 C 0.30536 0.60507 0.62934
 C440 C 0.28349 0.63238 0.65945
 C441 C 0.32470 0.68248 0.60944
 C442 C 0.34655 0.65506 0.57945
 H443 H 0.38488 0.66689 0.71810
 H444 H 0.42562 0.61641 0.66295
 H445 H 0.28561 0.57864 0.61982
 H446 H 0.24619 0.62857 0.67635
 H447 H 0.31398 0.71054 0.59484
 H448 H 0.35338 0.65975 0.53909
   
