data_POSCAR
  _audit_creation_date              2014-09-24
  _audit_creation_method            'ToBaCCo'
  _symmetry_space_group_name_H-M    'P1'
  _symmetry_Int_Tables_number       1
  _symmetry_cell_setting            triclinic
  loop_
  _symmetry_equiv_pos_as_xyz
 x,y,z
_cell_length_a 38.8247
_cell_length_b 27.0606
_cell_length_c 36.5989
_cell_angle_alpha 89.986600
_cell_angle_beta 89.911700
_cell_angle_gamma 89.976500
loop_
  _atom_site_label
  _atom_site_type_symbol
  _atom_site_fract_x
  _atom_site_fract_y
  _atom_site_fract_z
C1 C 0.25598 0.27833 0.24874
 C2 C 0.25640 0.22777 0.24829
 C3 C 0.23123 0.19866 0.22626
 C4 C 0.28229 0.19969 0.26998
 C5 C 0.27717 0.30708 0.27497
 C6 C 0.23438 0.30746 0.22317
 C7 C 0.19608 0.21052 0.22639
 C8 C 0.17313 0.18592 0.20343
 C9 C 0.18418 0.14673 0.18055
 C10 C 0.21932 0.13270 0.18289
 C11 C 0.24241 0.15868 0.20502
 C12 C 0.27168 0.16244 0.29424
 C13 C 0.29558 0.13945 0.31726
 C14 C 0.33035 0.15367 0.31645
 C15 C 0.34120 0.18910 0.29091
 C16 C 0.31748 0.21134 0.26749
 C17 C 0.29999 0.34334 0.26211
 C18 C 0.32130 0.36878 0.28642
 C19 C 0.31996 0.35864 0.32407
 C20 C 0.29616 0.32354 0.33697
 C21 C 0.27486 0.29817 0.31267
 C22 C 0.23678 0.30027 0.18530
 C23 C 0.21506 0.32606 0.16163
 C24 C 0.19061 0.35968 0.17541
 C25 C 0.18917 0.36804 0.21330
 C26 C 0.21100 0.34236 0.23692
 H27 H 0.18632 0.23935 0.24411
 H28 H 0.14633 0.19656 0.20530
 H29 H 0.23011 0.10410 0.16572
 H30 H 0.26938 0.14838 0.20469
 H31 H 0.24473 0.15253 0.29633
 H32 H 0.28670 0.11218 0.33677
 H33 H 0.32641 0.23889 0.24822
 H34 H 0.30200 0.35090 0.23313
 H35 H 0.33954 0.39530 0.27563
 H36 H 0.29404 0.31564 0.36589
 H37 H 0.25685 0.27110 0.32319
 H38 H 0.25519 0.27421 0.17415
 H39 H 0.21730 0.31956 0.13254
 H40 H 0.17042 0.39326 0.22482
 H41 H 0.20890 0.34854 0.26608
 H42 H 0.36800 0.20008 0.28949
 C43 C 0.74668 0.22923 0.24913
 C44 C 0.75195 0.27811 0.25596
 C45 C 0.77772 0.30735 0.23508
 C46 C 0.73167 0.30325 0.28478
 C47 C 0.72126 0.20103 0.27088
 C48 C 0.76521 0.20334 0.21935
 C49 C 0.81218 0.29159 0.23299
 C50 C 0.83523 0.31468 0.20915
 C51 C 0.82453 0.35496 0.18784
 C52 C 0.79067 0.37257 0.19154
 C53 C 0.76743 0.34886 0.21486
 C54 C 0.74064 0.29706 0.32162
 C55 C 0.71848 0.31338 0.34926
 C56 C 0.68719 0.33654 0.34041
 C57 C 0.67876 0.34377 0.30346
 C58 C 0.70070 0.32695 0.27589
 C59 C 0.68597 0.20734 0.26416
 C60 C 0.66162 0.18810 0.28842
 C61 C 0.67226 0.16138 0.31927
 C62 C 0.70755 0.15340 0.32516
 C63 C 0.73192 0.17360 0.30135
 C64 C 0.76145 0.21909 0.18302
 C65 C 0.78320 0.20077 0.15575
 C66 C 0.80895 0.16612 0.16432
 C67 C 0.81135 0.14853 0.20040
 C68 C 0.78960 0.16685 0.22763
 H69 H 0.82090 0.26031 0.24895
 H70 H 0.86139 0.30099 0.20720
 H71 H 0.78185 0.40360 0.17535
 H72 H 0.74111 0.36184 0.21587
 H73 H 0.76416 0.27792 0.32887
 H74 H 0.72563 0.30757 0.37753
 H75 H 0.69273 0.33037 0.24767
 H76 H 0.67741 0.22900 0.24100
 H77 H 0.63450 0.19444 0.28334
 H78 H 0.71624 0.13324 0.34901
 H79 H 0.75901 0.16965 0.30760
 H80 H 0.74263 0.24714 0.17614
 H81 H 0.78032 0.21441 0.12811
 H82 H 0.83118 0.12235 0.20802
 H83 H 0.79327 0.15460 0.25547
 H84 H 0.65453 0.36076 0.29589
 C85 C 0.75347 0.77845 0.75346
 C86 C 0.75177 0.72805 0.75477
 C87 C 0.73037 0.70012 0.72828
 C88 C 0.77117 0.69963 0.78265
 C89 C 0.78087 0.80584 0.77336
 C90 C 0.72766 0.80692 0.73213
 C91 C 0.70415 0.66866 0.74064
 C92 C 0.68111 0.64761 0.71578
 C93 C 0.68413 0.65736 0.67812
 C94 C 0.71150 0.68698 0.66577
 C95 C 0.73447 0.70794 0.69060
 C96 C 0.76825 0.71189 0.81981
 C97 C 0.78990 0.69002 0.84556
 C98 C 0.81469 0.65514 0.83469
 C99 C 0.81627 0.64099 0.79771
 C100 C 0.79454 0.66289 0.77194
 C101 C 0.81529 0.79039 0.77095
 C102 C 0.84027 0.81050 0.79384
 C103 C 0.83186 0.84815 0.81899
 C104 C 0.79770 0.86639 0.81898
 C105 C 0.77250 0.84517 0.79661
 C106 C 0.73810 0.83898 0.70409
 C107 C 0.71375 0.85843 0.67981
 C108 C 0.67880 0.84575 0.68329
 C109 C 0.66822 0.81642 0.71283
 C110 C 0.69238 0.79779 0.73735
 H111 H 0.70058 0.66228 0.76961
 H112 H 0.66016 0.62522 0.72616
 H113 H 0.71496 0.69430 0.63691
 H114 H 0.75491 0.73156 0.68053
 H115 H 0.74994 0.73965 0.82865
 H116 H 0.78756 0.70089 0.87393
 H117 H 0.79714 0.65298 0.74340
 H118 H 0.82264 0.76139 0.75209
 H119 H 0.86637 0.79693 0.79111
 H120 H 0.78954 0.89468 0.83799
 H121 H 0.74612 0.85791 0.79874
 H122 H 0.76518 0.84662 0.69975
 H123 H 0.72237 0.88116 0.65723
 H124 H 0.64132 0.80689 0.71634
 H125 H 0.68376 0.77394 0.75931
 H126 H 0.83525 0.61448 0.78843
 C127 C 0.23793 0.73134 0.74082
 C128 C 0.23956 0.78160 0.74323
 C129 C 0.26594 0.81082 0.72312
 C130 C 0.21464 0.81000 0.76564
 C131 C 0.21437 0.70182 0.76425
 C132 C 0.26046 0.70345 0.71529
 C133 C 0.30110 0.79902 0.72566
 C134 C 0.32536 0.82457 0.70472
 C135 C 0.31503 0.86332 0.68166
 C136 C 0.28014 0.87685 0.68058
 C137 C 0.25579 0.85073 0.70107
 C138 C 0.22639 0.83870 0.79485
 C139 C 0.20324 0.86602 0.81597
 C140 C 0.16765 0.86638 0.80782
 C141 C 0.15630 0.83806 0.77768
 C142 C 0.17949 0.80990 0.75712
 C143 C 0.21508 0.70664 0.80232
 C144 C 0.19325 0.67832 0.82427
 C145 C 0.17012 0.64376 0.80880
 C146 C 0.17030 0.63854 0.77034
 C147 C 0.19215 0.66712 0.74849
 C148 C 0.26021 0.71376 0.67773
 C149 C 0.28380 0.69078 0.65443
 C150 C 0.30806 0.65693 0.66823
 C151 C 0.30711 0.64498 0.70562
 C152 C 0.28339 0.66786 0.72889
 H153 H 0.30969 0.76945 0.74338
 H154 H 0.35221 0.81398 0.70642
 H155 H 0.27157 0.90650 0.66291
 H156 H 0.22886 0.86081 0.69897
 H157 H 0.25358 0.83972 0.80142
 H158 H 0.21373 0.88841 0.83776
 H159 H 0.17006 0.78810 0.73442
 H160 H 0.23300 0.73188 0.81517
 H161 H 0.19589 0.68244 0.85351
 H162 H 0.15264 0.61400 0.75654
 H163 H 0.19133 0.66268 0.71909
 H164 H 0.24226 0.74049 0.66665
 H165 H 0.28334 0.69997 0.62564
 H166 H 0.32558 0.61941 0.71717
 H167 H 0.28386 0.65935 0.75780
 H168 H 0.12930 0.83563 0.77069
 O169 O 1.03910 -0.03735 -0.01661
 O170 O 0.96763 0.00203 0.04192
 O171 O 0.97203 -0.04023 -0.02189
 O172 O 1.03446 0.01302 0.04346
 O173 O 1.02964 0.08494 0.01535
 O174 O 0.96589 0.03325 -0.04736
 O175 O 0.96517 0.07421 0.01398
 O176 O 1.03494 0.03231 -0.04769
 Cu177 Cu 1.00364 -0.02281 0.01458
 Cu178 Cu 0.99994 0.06244 -0.02015
 C179 C 1.04892 -0.00961 -0.04243
 C180 C 0.95420 0.04454 0.03834
 C181 C 0.95771 -0.01201 -0.04524
 C182 C 1.04228 0.05852 0.04064
 O183 O 0.53599 0.42830 0.49748
 O184 O 0.46644 0.47028 0.55998
 O185 O 0.46927 0.41994 0.49930
 O186 O 0.53370 0.47178 0.56113
 O187 O 0.53168 0.54297 0.53188
 O188 O 0.46598 0.49072 0.46964
 O189 O 0.46464 0.54113 0.53028
 O190 O 0.53257 0.49955 0.46847
 Cu191 Cu 0.50163 0.44055 0.53246
 Cu192 Cu 0.49844 0.52566 0.49720
 C193 C 0.54594 0.45708 0.47202
 C194 C 0.45372 0.51328 0.55561
 C195 C 0.45661 0.44599 0.47385
 C196 C 0.54391 0.51597 0.55724
 O197 O -0.03527 0.53723 -0.01775
 O198 O 0.03498 0.48723 0.03962
 O199 O 0.03139 0.54596 -0.01656
 O200 O -0.03196 0.48448 0.04166
 O201 O -0.02893 0.41720 0.00778
 O202 O 0.03379 0.48081 -0.05266
 O203 O 0.03769 0.42184 0.00378
 O204 O -0.03300 0.47002 -0.05175
 Cu205 Cu -0.00047 0.52031 0.01521
 Cu206 Cu 0.00266 0.44092 -0.02677
 C207 C -0.04619 0.51179 -0.04458
 C208 C 0.04822 0.44563 0.03142
 C209 C 0.04335 0.52450 -0.04463
 C210 C -0.04115 0.44039 0.03517
 O211 O 0.46561 1.04234 0.47914
 O212 O 0.53365 1.00589 0.54299
 O213 O 0.53207 1.04770 0.47913
 O214 O 0.46665 0.99534 0.54180
 O215 O 0.47116 0.92369 0.51345
 O216 O 0.53693 0.97482 0.45253
 O217 O 0.53737 0.93291 0.51633
 O218 O 0.46974 0.97054 0.45090
 Cu219 Cu 0.49890 1.02998 0.51363
 Cu220 Cu 0.50411 0.94331 0.48047
 C221 C 0.45645 1.01338 0.45371
 C222 C 0.54718 0.96333 0.54067
 C223 C 0.54581 1.01977 0.45526
 C224 C 0.45803 0.95018 0.53842
 C225 C 1.16763 0.07499 0.14445
 C226 C 1.16191 0.12394 0.15691
 C227 C 1.13245 0.14893 0.14334
 C228 C 1.11017 0.12646 0.11819
 C229 C 1.11606 0.07728 0.10701
 C230 C 1.14479 0.05192 0.12038
 C231 C 1.09340 0.05464 0.08221
 C232 C 1.06575 0.08142 0.06737
 C233 C 1.06063 0.13074 0.07796
 C234 C 1.08238 0.15290 0.10348
 H235 H 1.12771 0.18729 0.15008
 H236 H 1.14972 0.01411 0.11213
 H237 H 1.09774 0.01674 0.07374
 H238 H 1.07762 0.19085 0.11148
 H239 H 1.18870 0.05280 0.15462
 H240 H 1.03941 0.15195 0.06687
 C241 C 0.64614 0.66773 0.62319
 C242 C 0.65831 0.63790 0.65191
 C243 C 0.64531 0.58973 0.65576
 C244 C 0.62042 0.57166 0.63145
 C245 C 0.60823 0.60203 0.60281
 C246 C 0.62131 0.65000 0.59891
 C247 C 0.58319 0.58389 0.57859
 C248 C 0.57023 0.53566 0.58261
 C249 C 0.58270 0.50585 0.61121
 C250 C 0.60751 0.52366 0.63537
 H251 H 0.65480 0.56611 0.67745
 H252 H 0.61226 0.67389 0.57718
 H253 H 0.57388 0.60727 0.55667
 H254 H 0.61658 0.49987 0.65715
 H255 H 0.65546 0.70514 0.61981
 H256 H 0.57323 0.46856 0.61501
 C257 C -0.14778 0.42968 0.16058
 C258 C -0.15161 0.37812 0.16136
 C259 C -0.13307 0.34887 0.13636
 C260 C -0.11098 0.37101 0.11072
 C261 C -0.10699 0.42291 0.11056
 C262 C -0.12550 0.45189 0.13555
 C263 C -0.08447 0.44509 0.08552
 C264 C -0.06596 0.41630 0.06022
 C265 C -0.07062 0.36479 0.06003
 C266 C -0.09284 0.34229 0.08519
 H267 H -0.13628 0.30907 0.13656
 H268 H -0.12276 0.49174 0.13571
 H269 H -0.08136 0.48490 0.08581
 H270 H -0.09572 0.30246 0.08479
 H271 H -0.16178 0.45274 0.17969
 H272 H -0.05661 0.34182 0.04088
 C273 C 0.34185 0.93967 0.65502
 C274 C 0.34039 0.88790 0.65751
 C275 C 0.36274 0.85922 0.63606
 C276 C 0.38617 0.88183 0.61218
 C277 C 0.38783 0.93397 0.61006
 C278 C 0.36557 0.96256 0.63169
 C279 C 0.41151 0.95648 0.58616
 C280 C 0.43303 0.92738 0.56390
 C281 C 0.43079 0.87558 0.56612
 C282 C 0.40775 0.85304 0.59014
 H283 H 0.36134 0.81923 0.63740
 H284 H 0.36636 1.00255 0.63039
 H285 H 0.41287 0.99643 0.58457
 H286 H 0.40673 0.81305 0.59137
 H287 H 0.32482 0.96238 0.67140
 H288 H 0.44718 0.85227 0.54946
 C289 C -0.14528 0.66629 -0.11219
 C290 C -0.16028 0.63511 -0.13849
 C291 C -0.15040 0.58518 -0.13976
 C292 C -0.12552 0.56679 -0.11556
 C293 C -0.11046 0.59851 -0.08938
 C294 C -0.12069 0.64813 -0.08779
 C295 C -0.08505 0.58025 -0.06566
 C296 C -0.07418 0.53078 -0.06812
 C297 C -0.08962 0.49955 -0.09409
 C298 C -0.11513 0.51731 -0.11747
 H299 H -0.16203 0.56062 -0.15961
 H300 H -0.10933 0.67307 -0.06803
 H301 H -0.07329 0.60477 -0.04586
 H302 H -0.12644 0.49247 -0.13733
 H303 H -0.15199 0.70511 -0.11100
 H304 H -0.08187 0.46124 -0.09648
 C305 C 0.37450 1.16741 0.36462
 C306 C 0.35495 1.13423 0.34370
 C307 C 0.35892 1.08310 0.34916
 C308 C 0.38267 1.06532 0.37498
 C309 C 0.40192 1.09918 0.39613
 C310 C 0.39761 1.15007 0.39079
 C311 C 0.42543 1.08170 0.42208
 C312 C 0.43073 1.03071 0.42683
 C313 C 0.41191 0.99723 0.40537
 C314 C 0.38783 1.01439 0.37988
 H315 H 0.34400 1.05739 0.33289
 H316 H 0.41222 1.17649 0.40673
 H317 H 0.44012 1.10793 0.43813
 H318 H 0.37344 0.98786 0.36382
 H319 H 0.37152 1.20692 0.36100
 H320 H 0.41560 0.95779 0.40854
 C321 C 1.11330 -0.08703 -0.18554
 C322 C 1.14405 -0.10617 -0.17050
 C323 C 1.15038 -0.09798 -0.13296
 C324 C 1.12637 -0.07301 -0.11101
 C325 C 1.09589 -0.05399 -0.12667
 C326 C 1.08980 -0.06080 -0.16401
 C327 C 1.07146 -0.03014 -0.10442
 C328 C 1.07657 -0.02727 -0.06653
 C329 C 1.10685 -0.04637 -0.05118
 C330 C 1.13184 -0.06834 -0.07330
 H331 H 1.17290 -0.11366 -0.11994
 H332 H 1.06658 -0.04642 -0.17652
 H333 H 1.04770 -0.01632 -0.11616
 H334 H 1.15497 -0.08298 -0.06077
 H335 H 1.10766 -0.09069 -0.21435
 H336 H 1.11095 -0.04472 -0.02193
 C337 C 0.65455 0.32045 0.39849
 C338 C 0.66288 0.35227 0.36942
 C339 C 0.64701 0.39878 0.36739
 C340 C 0.62279 0.41325 0.39370
 C341 C 0.61410 0.38085 0.42261
 C342 C 0.63031 0.33458 0.42485
 C343 C 0.58919 0.39519 0.44849
 C344 C 0.57296 0.44158 0.44576
 C345 C 0.58229 0.47352 0.41705
 C346 C 0.60690 0.45951 0.39131
 H347 H 0.65356 0.42374 0.34526
 H348 H 0.62401 0.30917 0.44674
 H349 H 0.58232 0.37022 0.47049
 H350 H 0.61333 0.48480 0.36937
 H351 H 0.66622 0.28418 0.40033
 H352 H 0.57033 0.50947 0.41419
 C353 C 0.88354 -0.16485 -0.14323
 C354 C 0.85684 -0.13383 -0.15606
 C355 C 0.85563 -0.08471 -0.14307
 C356 C 0.88054 -0.06700 -0.11861
 C357 C 0.90667 -0.09889 -0.10575
 C358 C 0.90785 -0.14773 -0.11817
 C359 C 0.93143 -0.08121 -0.08104
 C360 C 0.93104 -0.03151 -0.07003
 C361 C 0.90526 0.00011 -0.08342
 C362 C 0.88004 -0.01757 -0.10720
 H363 H 0.83635 -0.05923 -0.15319
 H364 H 0.92764 -0.17279 -0.10853
 H365 H 0.95148 -0.10568 -0.07115
 H366 H 0.86032 0.00754 -0.11690
 H367 H 0.88500 -0.20331 -0.15117
 H368 H 0.90443 0.03854 -0.07519
 C369 C 0.35213 0.43367 0.34591
 C370 C 0.34412 0.38323 0.34966
 C371 C 0.35990 0.35584 0.37764
 C372 C 0.38333 0.37831 0.40150
 C373 C 0.39134 0.42899 0.39746
 C374 C 0.37550 0.45636 0.36961
 C375 C 0.41515 0.45125 0.42121
 C376 C 0.43102 0.42340 0.44896
 C377 C 0.42260 0.37307 0.45270
 C378 C 0.39905 0.35075 0.42920
 H379 H 0.35445 0.31672 0.38044
 H380 H 0.38122 0.49526 0.36612
 H381 H 0.42136 0.49006 0.41800
 H382 H 0.39322 0.31186 0.43264
 H383 H 0.34008 0.45569 0.32478
 H384 H 0.43441 0.35064 0.47375
 C385 C 0.13446 0.56921 -0.18039
 C386 C 0.14742 0.61551 -0.16881
 C387 C 0.13688 0.63311 -0.13418
 C388 C 0.11438 0.60573 -0.11205
 C389 C 0.10184 0.55961 -0.12413
 C390 C 0.11211 0.54170 -0.15832
 C391 C 0.07902 0.53251 -0.10193
 C392 C 0.06835 0.55141 -0.06792
 C393 C 0.08117 0.59741 -0.05630
 C394 C 0.10395 0.62423 -0.07808
 H395 H 0.14471 0.66926 -0.12468
 H396 H 0.10296 0.50623 -0.16801
 H397 H 0.06925 0.49722 -0.11133
 H398 H 0.11329 0.65960 -0.06837
 H399 H 0.14243 0.55278 -0.20596
 H400 H 0.07353 0.61294 -0.03025
 C401 C 0.62248 1.17531 0.36136
 C402 C 0.64667 1.14292 0.34580
 C403 C 0.64651 1.09289 0.35581
 C404 C 0.62206 1.07506 0.38076
 C405 C 0.59797 1.10794 0.39665
 C406 C 0.59847 1.15805 0.38682
 C407 C 0.57355 1.08999 0.42170
 C408 C 0.57234 1.03938 0.43025
 C409 C 0.59623 1.00706 0.41404
 C410 C 0.62107 1.02479 0.38978
 H411 H 0.66503 1.06778 0.34362
 H412 H 0.58019 1.18377 0.39864
 H413 H 0.55499 1.11509 0.43380
 H414 H 0.63928 0.99910 0.37779
 H415 H 0.62251 1.21413 0.35411
 H416 H 0.59585 0.96795 0.42035
 C417 C 0.15585 0.43373 0.15624
 C418 C 0.16573 0.38429 0.15057
 C419 C 0.15082 0.35771 0.12164
 C420 C 0.12625 0.37988 0.09893
 C421 C 0.11613 0.42936 0.10515
 C422 C 0.13127 0.45606 0.13375
 C423 C 0.09085 0.45107 0.08288
 C424 C 0.07568 0.42390 0.05437
 C425 C 0.08638 0.37491 0.04824
 C426 C 0.11133 0.35308 0.07034
 H427 H 0.15770 0.31933 0.11731
 H428 H 0.12399 0.49410 0.13884
 H429 H 0.08291 0.48888 0.08786
 H430 H 0.11881 0.31512 0.06520
 H431 H 0.16724 0.45524 0.17804
 H432 H 0.07512 0.35304 0.02655
 C433 C 0.63289 0.82377 0.63868
 C434 C 0.65359 0.86011 0.65503
 C435 C 0.64985 0.90968 0.64448
 C436 C 0.62507 0.92298 0.61834
 C437 C 0.60457 0.88603 0.60177
 C438 C 0.60881 0.83651 0.61202
 C439 C 0.57976 0.89928 0.57570
 C440 C 0.57440 0.94916 0.56677
 C441 C 0.59466 0.98564 0.58361
 C442 C 0.62003 0.97264 0.60889
 H443 H 0.66561 0.93785 0.65727
 H444 H 0.59327 0.80773 0.59973
 H445 H 0.56398 0.87095 0.56314
 H446 H 0.63539 1.00146 0.62137
 H447 H 0.63557 0.78535 0.64646
 H448 H 0.59102 1.02432 0.57702
 C449 C 0.84852 0.18487 0.11180
 C450 C 0.83445 0.15032 0.13638
 C451 C 0.84620 0.10120 0.13537
 C452 C 0.87218 0.08701 0.11088
 C453 C 0.88642 0.12214 0.08658
 C454 C 0.87419 0.17089 0.08707
 C455 C 0.91293 0.10806 0.06260
 C456 C 0.92565 0.05937 0.06284
 C457 C 0.91107 0.02475 0.08701
 C458 C 0.88453 0.03838 0.11069
 H459 H 0.83530 0.07404 0.15383
 H460 H 0.88486 0.19839 0.06875
 H461 H 0.92394 0.13516 0.04416
 H462 H 0.87389 0.01098 0.12912
 H463 H 0.84035 0.22312 0.11236
 H464 H 0.92023 -0.01305 0.08768
 C465 C 0.35117 0.66668 0.61780
 C466 C 0.33530 0.63627 0.64405
 C467 C 0.34631 0.58686 0.64760
 C468 C 0.37276 0.56822 0.62522
 C469 C 0.38825 0.59927 0.59888
 C470 C 0.37727 0.64835 0.59538
 C471 C 0.41457 0.58091 0.57647
 C472 C 0.42598 0.53177 0.57990
 C473 C 0.41056 0.50112 0.60628
 C474 C 0.38412 0.51917 0.62870
 H475 H 0.33418 0.56288 0.66753
 H476 H 0.38906 0.67271 0.57546
 H477 H 0.42622 0.60515 0.55637
 H478 H 0.37259 0.49479 0.64876
 H479 H 0.34382 0.70510 0.61500
 H480 H 0.41882 0.46314 0.60947
   
