data_POSCAR
  _audit_creation_date              2014-09-24
  _audit_creation_method            'ToBaCCo'
  _symmetry_space_group_name_H-M    'P1'
  _symmetry_Int_Tables_number       1
  _symmetry_cell_setting            triclinic
  loop_
  _symmetry_equiv_pos_as_xyz
 x,y,z
_cell_length_a 48.9642
_cell_length_b 26.7249
_cell_length_c 21.9821
_cell_angle_alpha 89.994500
_cell_angle_beta 89.857100
_cell_angle_gamma 89.808200
loop_
  _atom_site_label
  _atom_site_type_symbol
  _atom_site_fract_x
  _atom_site_fract_y
  _atom_site_fract_z
C1 C 0.68729 0.32011 0.49869
 C2 C 0.69848 0.30439 0.55366
 C3 C 0.72266 0.27612 0.55402
 C4 C 0.73671 0.26464 0.49904
 C5 C 0.72491 0.28207 0.44396
 C6 C 0.70021 0.30850 0.44402
 C7 C 0.76309 0.23468 0.49903
 C8 C 0.77503 0.21699 0.44400
 C9 C 0.79974 0.19037 0.44425
 C10 C 0.81247 0.17903 0.49914
 C11 C 0.80111 0.19511 0.55385
 C12 C 0.77700 0.22343 0.55403
 H13 H 0.66821 0.34098 0.49829
 H14 H 0.72980 0.26314 0.59762
 H15 H 0.73432 0.27570 0.40028
 H16 H 0.76566 0.22326 0.40034
 H17 H 0.83151 0.15804 0.49935
 H18 H 0.76982 0.23649 0.59760
 C19 C 0.18623 0.81645 0.50151
 C20 C 0.19727 0.79974 0.55631
 C21 C 0.22183 0.77270 0.55646
 C22 C 0.23662 0.76435 0.50179
 C23 C 0.22522 0.78310 0.44698
 C24 C 0.19991 0.80761 0.44690
 C25 C 0.26343 0.73622 0.50192
 C26 C 0.27485 0.71710 0.44725
 C27 C 0.30012 0.69255 0.44723
 C28 C 0.31375 0.68395 0.50180
 C29 C 0.30270 0.70099 0.55654
 C30 C 0.27816 0.72811 0.55662
 H31 H 0.16681 0.83617 0.50119
 H32 H 0.22881 0.75822 0.59957
 H33 H 0.23556 0.77927 0.40380
 H34 H 0.26459 0.72073 0.40409
 H35 H 0.33316 0.66417 0.50149
 H36 H 0.27114 0.74283 0.59966
 C37 C 0.31336 0.31554 -0.49890
 C38 C 0.30175 0.30042 -0.55362
 C39 C 0.27717 0.27380 -0.55356
 C40 C 0.26303 0.26354 -0.49843
 C41 C 0.27518 0.28043 -0.44357
 C42 C 0.30034 0.30513 -0.44398
 C43 C 0.23614 0.23557 -0.49816
 C44 C 0.22406 0.21857 -0.44309
 C45 C 0.19885 0.19386 -0.44311
 C46 C 0.18577 0.18363 -0.49794
 C47 C 0.19736 0.19889 -0.55275
 C48 C 0.22193 0.22549 -0.55302
 H49 H 0.33272 0.33521 -0.49902
 H50 H 0.26981 0.26121 -0.59707
 H51 H 0.26563 0.27510 -0.39985
 H52 H 0.23374 0.22386 -0.39958
 H53 H 0.16640 0.16396 -0.49806
 H54 H 0.22924 0.23816 -0.59663
 C55 C -0.18730 0.82189 -0.50004
 C56 C -0.19946 0.80946 -0.55515
 C57 C -0.22394 0.78240 -0.55583
 C58 C -0.23649 0.76616 -0.50089
 C59 C -0.22317 0.77877 -0.44555
 C60 C -0.19907 0.80682 -0.44542
 C61 C -0.26286 0.73633 -0.50125
 C62 C -0.27639 0.72324 -0.44623
 C63 C -0.30053 0.69536 -0.44668
 C64 C -0.31213 0.68088 -0.50158
 C65 C -0.29976 0.69381 -0.55638
 C66 C -0.27524 0.72066 -0.55652
 H67 H -0.16834 0.84288 -0.49957
 H68 H -0.23256 0.77454 -0.59981
 H69 H -0.23075 0.76707 -0.40182
 H70 H -0.26895 0.73445 -0.40227
 H71 H -0.33111 0.65999 -0.50167
 H72 H -0.26653 0.72883 -0.60040
 O73 O -0.03685 0.91505 0.11476
 O74 O -0.06726 0.95864 0.05545
 C75 C -0.06137 0.92819 0.09938
 O76 O 0.03870 1.08991 0.10861
 O77 O 0.06913 1.04303 0.05263
 C78 C 0.06325 1.07629 0.09353
 O79 O -0.03794 1.08473 0.11338
 O80 O -0.06804 1.04054 0.05408
 C81 C -0.06239 1.07128 0.09781
 O82 O 0.03928 0.90969 0.10790
 O83 O 0.06940 0.95677 0.05186
 C84 C 0.06375 0.92349 0.09283
 Zr85 Zr 0.00101 0.93593 0.07611
 O86 O 0.00228 0.92705 0.17164
 O87 O -0.00004 0.85753 0.06414
 Zr88 Zr 0.00056 1.06311 0.07745
 O89 O 0.00306 1.06555 0.17357
 O90 O -0.00262 1.14212 0.07374
 O91 O -0.02327 0.99941 0.08904
 O92 O 0.02428 0.99952 0.08823
 O93 O 0.03929 0.90981 -0.10687
 O94 O 0.06947 0.95704 -0.05132
 C95 C 0.06377 0.92353 -0.09194
 O96 O -0.03707 1.08512 -0.11279
 O97 O -0.06742 1.04095 -0.05403
 C98 C -0.06156 1.07174 -0.09764
 O99 O 0.03922 1.08980 -0.10683
 O100 O 0.06946 1.04272 -0.05106
 C101 C 0.06373 1.07603 -0.09189
 O102 O -0.03741 0.91505 -0.11202
 O103 O -0.06781 0.95945 -0.05298
 C104 C -0.06193 0.92861 -0.09661
 Zr105 Zr 0.00093 0.93671 -0.07611
 O106 O 0.00391 0.93416 -0.17217
 O107 O -0.00170 0.85766 -0.07287
 Zr108 Zr 0.00089 1.06385 -0.07506
 O109 O 0.00354 1.07063 -0.17066
 O110 O -0.00223 1.14274 -0.06788
 Zr111 Zr -0.03996 0.99989 0.00065
 Zr112 Zr 0.04169 1.00004 0.00057
 O113 O 0.02440 1.00026 -0.08714
 O114 O -0.02315 1.00036 -0.08781
 O115 O 0.02570 0.92685 -0.00008
 O116 O -0.02342 1.07244 0.00113
 O117 O -0.02324 0.92728 0.00015
 O118 O 0.02539 1.07324 0.00128
 H119 H 0.03615 0.99936 0.12464
 H120 H -0.03625 1.10120 0.00098
 H121 H 0.03633 1.00021 -0.12361
 H122 H -0.03602 0.89856 0.00010
 H123 H 0.01413 1.15493 0.05395
 H124 H 0.01547 1.15550 -0.05286
 H125 H -0.00561 1.04100 -0.18795
 H126 H -0.01003 0.95734 -0.18860
 H127 H 0.01418 0.84530 -0.04939
 H128 H -0.00043 0.84308 0.10562
 H129 H 0.00252 0.96103 0.18925
 H130 H -0.01065 1.04191 0.18984
 O131 O 0.53701 0.41528 -0.11509
 O132 O 0.56743 0.45860 -0.05591
 C133 C 0.56154 0.42819 -0.09985
 O134 O 0.46100 0.59005 -0.10868
 O135 O 0.43074 0.54299 -0.05293
 C136 C 0.43650 0.57640 -0.09371
 O137 O 0.53770 0.58504 -0.11326
 O138 O 0.56801 0.54057 -0.05437
 C139 C 0.56221 0.57150 -0.09787
 O140 O 0.46101 0.40983 -0.10739
 O141 O 0.43076 0.45717 -0.05164
 C142 C 0.43651 0.42368 -0.09230
 Zr143 Zr 0.49916 0.43630 -0.07616
 O144 O 0.49764 0.42758 -0.17165
 O145 O 0.50046 0.35795 -0.06415
 Zr146 Zr 0.49926 0.56344 -0.07738
 O147 O 0.49677 0.56615 -0.17345
 O148 O 0.50212 0.64243 -0.07363
 O149 O 0.52324 0.49970 -0.08916
 O150 O 0.47572 0.49994 -0.08817
 O151 O 0.46117 0.41037 0.10748
 O152 O 0.43081 0.45792 0.05236
 C153 C 0.43664 0.42435 0.09294
 O154 O 0.53693 0.58534 0.11295
 O155 O 0.56736 0.54143 0.05367
 C156 C 0.56147 0.57217 0.09743
 O157 O 0.46071 0.59010 0.10705
 O158 O 0.43056 0.54326 0.05115
 C159 C 0.43623 0.57645 0.09207
 O160 O 0.53782 0.41464 0.11131
 O161 O 0.56802 0.45910 0.05221
 C162 C 0.56230 0.42801 0.09561
 Zr163 Zr 0.49940 0.43693 0.07605
 O164 O 0.49671 0.43462 0.17212
 O165 O 0.50210 0.35786 0.07286
 Zr166 Zr 0.49908 0.56405 0.07504
 O167 O 0.49655 0.57069 0.17072
 O168 O 0.50201 0.64286 0.06731
 Zr169 Zr 0.54005 0.50003 -0.00087
 Zr170 Zr 0.45836 0.50035 -0.00046
 O171 O 0.47578 0.50055 0.08708
 O172 O 0.52336 0.50048 0.08765
 O173 O 0.47454 0.42715 0.00014
 O174 O 0.52330 0.57262 -0.00121
 O175 O 0.52348 0.42752 -0.00042
 O176 O 0.47443 0.57354 -0.00111
 H177 H 0.46385 0.49974 -0.12457
 H178 H 0.53603 0.60138 -0.00119
 H179 H 0.46391 0.50065 0.12360
 H180 H 0.53625 0.39865 -0.00065
 H181 H 0.48521 0.65512 -0.05422
 H182 H 0.48415 0.65569 0.05308
 H183 H 0.50559 0.54078 0.18789
 H184 H 0.51088 0.45726 0.18836
 H185 H 0.48632 0.34571 0.04905
 H186 H 0.50084 0.34347 -0.10561
 H187 H 0.49828 0.46156 -0.18920
 H188 H 0.51052 0.54242 -0.18972
 C189 C 0.34613 0.34105 0.29578
 C190 C 0.34554 0.30739 0.23914
 C191 C 0.36256 0.32301 0.19367
 C192 C 0.37846 0.37071 0.20953
 C193 C 0.39320 0.35860 0.26930
 C194 C 0.37625 0.34305 0.31447
 C195 C 0.33954 0.39383 0.27223
 C196 C 0.35655 0.40943 0.22689
 C197 C 0.32855 0.32473 0.34612
 C198 C 0.31557 0.31271 0.39045
 C199 C 0.39751 0.38809 0.16252
 C200 C 0.41468 0.40380 0.12817
 H201 H 0.33265 0.27463 0.23490
 H202 H 0.36434 0.30349 0.15051
 H203 H 0.41510 0.36199 0.27571
 H204 H 0.38365 0.33333 0.35948
 H205 H 0.32287 0.41679 0.28931
 H206 H 0.35447 0.44571 0.20516
 C207 C -0.15467 0.85033 0.29964
 C208 C -0.12458 0.84436 0.31774
 C209 C -0.10674 0.85904 0.27384
 C210 C -0.12064 0.87835 0.21594
 C211 C -0.13984 0.92026 0.23761
 C212 C -0.15776 0.90553 0.28160
 C213 C -0.15752 0.82103 0.23989
 C214 C -0.13958 0.83579 0.19576
 C215 C -0.17313 0.83473 0.34866
 C216 C -0.18646 0.82254 0.39236
 C217 C -0.10080 0.89473 0.17012
 C218 C -0.08332 0.90938 0.13588
 H219 H -0.11786 0.82978 0.36136
 H220 H -0.08475 0.85697 0.27983
 H221 H -0.13951 0.95809 0.21970
 H222 H -0.17278 0.93076 0.30135
 H223 H -0.17238 0.79158 0.23281
 H224 H -0.13902 0.81893 0.15084
 C225 C 0.65470 0.65276 0.29570
 C226 C 0.65833 0.68015 0.23477
 C227 C 0.64041 0.66499 0.19094
 C228 C 0.62072 0.62397 0.21256
 C229 C 0.60680 0.64571 0.26933
 C230 C 0.62461 0.66079 0.31293
 C231 C 0.65702 0.59694 0.28012
 C232 C 0.63918 0.58186 0.23642
 C233 C 0.67319 0.66852 0.34445
 C234 C 0.68660 0.68053 0.38796
 C235 C 0.60088 0.60688 0.16719
 C236 C 0.58343 0.59157 0.13342
 H237 H 0.67361 0.70877 0.22679
 H238 H 0.64030 0.68064 0.14537
 H239 H 0.58483 0.64918 0.27471
 H240 H 0.61787 0.67715 0.35565
 H241 H 0.67153 0.57157 0.30124
 H242 H 0.63841 0.54364 0.22004
 C243 C 0.15320 1.15911 0.29663
 C244 C 0.15670 1.18879 0.23728
 C245 C 0.13978 1.17334 0.19167
 C246 C 0.12110 1.12981 0.21019
 C247 C 0.10595 1.14823 0.26717
 C248 C 0.12278 1.16360 0.31246
 C249 C 0.15738 1.10413 0.27854
 C250 C 0.14050 1.08874 0.23309
 C251 C 0.17064 1.17515 0.34708
 C252 C 0.18353 1.18689 0.39145
 C253 C 0.10219 1.11252 0.16309
 C254 C 0.08512 1.09682 0.12867
 H255 H 0.17132 1.21886 0.23150
 H256 H 0.13982 1.19024 0.14677
 H257 H 0.08386 1.14921 0.27161
 H258 H 0.11512 1.17756 0.35567
 H259 H 0.17241 1.07955 0.29927
 H260 H 0.14109 1.05101 0.21484
 C261 C 0.65364 0.34546 -0.30086
 C262 C 0.66049 0.32495 -0.23740
 C263 C 0.64291 0.34096 -0.19304
 C264 C 0.62032 0.37589 -0.21673
 C265 C 0.60636 0.34646 -0.26779
 C266 C 0.62384 0.33052 -0.31192
 C267 C 0.65293 0.40256 -0.29328
 C268 C 0.63542 0.41854 -0.24910
 C269 C 0.67179 0.32872 -0.35007
 C270 C 0.68512 0.31638 -0.39381
 C271 C 0.60082 0.39357 -0.17072
 C272 C 0.58348 0.40894 -0.13642
 H273 H 0.67756 0.30010 -0.22819
 H274 H 0.64492 0.32987 -0.14575
 H275 H 0.58461 0.33872 -0.26913
 H276 H 0.61705 0.30914 -0.35103
 H277 H 0.66516 0.42818 -0.32019
 H278 H 0.63258 0.45784 -0.23826
 C279 C 0.15352 0.83840 -0.29559
 C280 C 0.15416 0.80454 -0.23914
 C281 C 0.13736 0.82052 -0.19331
 C282 C 0.12166 0.86874 -0.20865
 C283 C 0.10665 0.85727 -0.26824
 C284 C 0.12335 0.84136 -0.31377
 C285 C 0.16048 0.89087 -0.27187
 C286 C 0.14373 0.90683 -0.22616
 C287 C 0.17088 0.82197 -0.34630
 C288 C 0.18384 0.81045 -0.39088
 C289 C 0.10285 0.88654 -0.16130
 C290 C 0.08577 0.90264 -0.12687
 H291 H 0.16682 0.77128 -0.23537
 H292 H 0.13560 0.80090 -0.15026
 H293 H 0.08474 0.86124 -0.27426
 H294 H 0.11574 0.83189 -0.35867
 H295 H 0.17721 0.91335 -0.28919
 H296 H 0.14613 0.94300 -0.20434
 C297 C 0.34658 0.66220 -0.29603
 C298 C 0.37669 0.65899 -0.31491
 C299 C 0.39346 0.64279 -0.26982
 C300 C 0.37858 0.63138 -0.20991
 C301 C 0.35638 0.59352 -0.22702
 C302 C 0.33953 0.60974 -0.27228
 C303 C 0.34620 0.69597 -0.23950
 C304 C 0.36305 0.67972 -0.19411
 C305 C 0.32912 0.67884 -0.34633
 C306 C 0.31611 0.69040 -0.39070
 C307 C 0.39746 0.61342 -0.16291
 C308 C 0.41454 0.59729 -0.12863
 H309 H 0.38422 0.66845 -0.35997
 H310 H 0.41534 0.63852 -0.27634
 H311 H 0.35399 0.55732 -0.20528
 H312 H 0.32271 0.58741 -0.28925
 H313 H 0.33366 0.72935 -0.23532
 H314 H 0.36497 0.69926 -0.15105
 C315 C -0.15363 1.15354 -0.29788
 C316 C -0.14345 1.09965 -0.30677
 C317 C -0.12590 1.08402 -0.26277
 C318 C -0.12023 1.12371 -0.21404
 C319 C -0.14850 1.13873 -0.18947
 C320 C -0.16613 1.15441 -0.23371
 C321 C -0.12767 1.18527 -0.29333
 C322 C -0.11012 1.16962 -0.24931
 C323 C -0.17175 1.17012 -0.34696
 C324 C -0.18500 1.18248 -0.39059
 C325 C -0.10071 1.10628 -0.16822
 C326 C -0.08344 1.09094 -0.13398
 H327 H -0.14980 1.07556 -0.34389
 H328 H -0.11713 1.04665 -0.26232
 H329 H -0.15418 1.13694 -0.14176
 H330 H -0.18701 1.16574 -0.22402
 H331 H -0.12347 1.21740 -0.32206
 H332 H -0.09095 1.18845 -0.24026
 C333 C 0.65451 0.65303 -0.29799
 C334 C 0.65971 0.59902 -0.27711
 C335 C 0.64222 0.58336 -0.23274
 C336 C 0.62123 0.62323 -0.21372
 C337 C 0.60697 0.63864 -0.27289
 C338 C 0.62441 0.65424 -0.31706
 C339 C 0.65580 0.68464 -0.23970
 C340 C 0.63825 0.66894 -0.19526
 C341 C 0.67254 0.66954 -0.34732
 C342 C 0.68571 0.68204 -0.39111
 C343 C 0.60166 0.60591 -0.16785
 C344 C 0.58423 0.59072 -0.13384
 H345 H 0.67589 0.57536 -0.29511
 H346 H 0.64347 0.54638 -0.21253
 H347 H 0.58501 0.63745 -0.27950
 H348 H 0.61738 0.66642 -0.36150
 H349 H 0.66941 0.71624 -0.23375
 H350 H 0.63681 0.68705 -0.15116
 C351 C 0.15549 1.15430 -0.29497
 C352 C 0.15889 1.18471 -0.23616
 C353 C 0.14151 1.17049 -0.19060
 C354 C 0.12252 1.12733 -0.20858
 C355 C 0.14166 1.08530 -0.23028
 C356 C 0.15898 1.09948 -0.27568
 C357 C 0.12520 1.15961 -0.31147
 C358 C 0.10792 1.14548 -0.26620
 C359 C 0.17333 1.16919 -0.34551
 C360 C 0.18620 1.18089 -0.39011
 C361 C 0.10311 1.11123 -0.16156
 C362 C 0.08575 1.09618 -0.12721
 H363 H 0.17369 1.21452 -0.23076
 H364 H 0.14138 1.18817 -0.14615
 H365 H 0.14173 1.04779 -0.21132
 H366 H 0.17391 1.07416 -0.29558
 H367 H 0.11797 1.17348 -0.35501
 H368 H 0.08587 1.14730 -0.27095
 C369 C 0.34469 0.34532 -0.29384
 C370 C 0.37482 0.34540 -0.31307
 C371 C 0.39212 0.35951 -0.26806
 C372 C 0.37771 0.37229 -0.20796
 C373 C 0.36092 0.32559 -0.19222
 C374 C 0.34350 0.31139 -0.23749
 C375 C 0.33917 0.39830 -0.26978
 C376 C 0.35651 0.41251 -0.22459
 C377 C 0.32676 0.33040 -0.34397
 C378 C 0.31375 0.31869 -0.38819
 C379 C 0.39711 0.38831 -0.16120
 C380 C 0.41450 0.40336 -0.12713
 H381 H 0.38200 0.33507 -0.35816
 H382 H 0.41408 0.36126 -0.27477
 H383 H 0.36250 0.30567 -0.14936
 H384 H 0.33019 0.27914 -0.23354
 H385 H 0.32297 0.42238 -0.28655
 H386 H 0.35515 0.44883 -0.20261
 C387 C -0.15428 0.84829 -0.29654
 C388 C -0.12417 0.83736 -0.31091
 C389 C -0.10671 0.85274 -0.26683
 C390 C -0.12094 0.87764 -0.21247
 C391 C -0.14192 0.83906 -0.19013
 C392 C -0.15949 0.82359 -0.23449
 C393 C -0.15553 0.90480 -0.28422
 C394 C -0.13800 0.92023 -0.24003
 C395 C -0.17233 0.83202 -0.34580
 C396 C -0.18547 0.81974 -0.38961
 C397 C -0.10130 0.89466 -0.16674
 C398 C -0.08388 0.90962 -0.13272
 H399 H -0.11714 0.81899 -0.35216
 H400 H -0.08476 0.84747 -0.27028
 H401 H -0.14293 0.82522 -0.14374
 H402 H -0.17558 0.79655 -0.22615
 H403 H -0.16909 0.93040 -0.30791
 H404 H -0.13658 0.95904 -0.22578
 C405 C 0.34392 0.65155 0.29603
 C406 C 0.37403 0.65107 0.31506
 C407 C 0.39144 0.63778 0.26961
 C408 C 0.37712 0.62606 0.20929
 C409 C 0.36021 0.67307 0.19484
 C410 C 0.34270 0.68649 0.24056
 C411 C 0.33858 0.59901 0.27066
 C412 C 0.35603 0.58560 0.22501
 C413 C 0.32598 0.66591 0.34666
 C414 C 0.31314 0.67787 0.39121
 C415 C 0.39665 0.61079 0.16206
 C416 C 0.41413 0.59634 0.12753
 H417 H 0.38112 0.66053 0.36039
 H418 H 0.41340 0.63591 0.27613
 H419 H 0.36171 0.69373 0.15246
 H420 H 0.32916 0.71865 0.23740
 H421 H 0.32238 0.57473 0.28672
 H422 H 0.35477 0.54975 0.20196
 C423 C -0.15595 1.14913 0.29818
 C424 C -0.12678 1.14028 0.32122
 C425 C -0.10902 1.12554 0.27710
 C426 C -0.12204 1.12108 0.21398
 C427 C -0.13510 1.17246 0.20193
 C428 C -0.15296 1.18725 0.24630
 C429 C -0.16404 1.09999 0.26698
 C430 C -0.14619 1.08522 0.22267
 C431 C -0.17433 1.16466 0.34753
 C432 C -0.18752 1.17691 0.39150
 C433 C -0.10216 1.10474 0.16803
 C434 C -0.08454 1.09015 0.13393
 H435 H -0.12055 1.14534 0.36821
 H436 H -0.08762 1.11799 0.28632
 H437 H -0.13074 1.19512 0.16211
 H438 H -0.16388 1.22264 0.24455
 H439 H -0.18224 1.07884 0.27838
 H440 H -0.14912 1.05146 0.19607
 C441 C 0.65553 0.34924 0.29469
 C442 C 0.65863 0.31935 0.23531
 C443 C 0.64082 0.33391 0.19085
 C444 C 0.62177 0.37681 0.21042
 C445 C 0.64088 0.41868 0.23162
 C446 C 0.65861 0.40424 0.27599
 C447 C 0.62541 0.34359 0.31264
 C448 C 0.60772 0.35806 0.26847
 C449 C 0.67379 0.33411 0.34413
 C450 C 0.68692 0.32226 0.38815
 C451 C 0.60196 0.39332 0.16468
 C452 C 0.58439 0.40844 0.13103
 H453 H 0.67357 0.28972 0.22868
 H454 H 0.64045 0.31677 0.14610
 H455 H 0.64088 0.45605 0.21247
 H456 H 0.67368 0.42939 0.29514
 H457 H 0.61856 0.32907 0.35622
 H458 H 0.58572 0.35589 0.27422
 C459 C 0.15605 0.84816 0.29593
 C460 C 0.16017 0.81816 0.23694
 C461 C 0.14269 0.83169 0.19140
 C462 C 0.12287 0.87380 0.20953
 C463 C 0.14115 0.91669 0.23158
 C464 C 0.15860 0.90322 0.27699
 C465 C 0.12582 0.84130 0.31226
 C466 C 0.10843 0.85477 0.26700
 C467 C 0.17400 0.83379 0.34641
 C468 C 0.18688 0.82202 0.39088
 C469 C 0.10335 0.88905 0.16242
 C470 C 0.08589 0.90360 0.12806
 H471 H 0.17543 0.78896 0.23143
 H472 H 0.14298 0.81414 0.14687
 H473 H 0.14060 0.95424 0.21282
 H474 H 0.17295 0.92926 0.29716
 H475 H 0.11868 0.82683 0.35564
 H476 H 0.08640 0.85180 0.27159
   
