data_POSCAR
  _audit_creation_date              2014-09-24
  _audit_creation_method            'ToBaCCo'
  _symmetry_space_group_name_H-M    'P1'
  _symmetry_Int_Tables_number       1
  _symmetry_cell_setting            triclinic
  loop_
  _symmetry_equiv_pos_as_xyz
 x,y,z
_cell_length_a 24.3552
_cell_length_b 24.9348
_cell_length_c 25.5831
_cell_angle_alpha 90.856900
_cell_angle_beta 90.584600
_cell_angle_gamma 89.306000
loop_
  _atom_site_label
  _atom_site_type_symbol
  _atom_site_fract_x
  _atom_site_fract_y
  _atom_site_fract_z
C1 C 0.19826 0.21210 0.30457
 C2 C 0.23975 0.18300 0.27768
 C3 C 0.25335 0.19476 0.22532
 C4 C 0.22849 0.24021 0.20287
 C5 C 0.19288 0.27399 0.23112
 C6 C 0.17703 0.25899 0.28138
 H7 H 0.25899 0.14900 0.29641
 H8 H 0.23442 0.24834 0.16187
 H9 H 0.14730 0.28355 0.30232
 C10 C -0.18700 0.80749 0.26246
 C11 C -0.16515 0.75781 0.24467
 C12 C -0.18605 0.73257 0.19968
 C13 C -0.23175 0.75385 0.17392
 C14 C -0.25233 0.80433 0.18819
 C15 C -0.22913 0.83146 0.23138
 H16 H -0.13170 0.73789 0.26492
 H17 H -0.24803 0.73337 0.13953
 H18 H -0.24262 0.87234 0.23876
 C19 C -0.22484 0.20171 -0.26097
 C20 C -0.26704 0.18043 -0.22994
 C21 C -0.27971 0.20242 -0.17998
 C22 C -0.25156 0.24894 -0.16341
 C23 C -0.20805 0.26870 -0.19250
 C24 C -0.19622 0.24633 -0.24137
 H25 H -0.28793 0.14470 -0.24354
 H26 H -0.26063 0.26792 -0.12608
 H27 H -0.15939 0.25948 -0.26064
 C28 C 0.20120 0.80533 -0.26971
 C29 C 0.17523 0.75997 -0.25035
 C30 C 0.19061 0.73922 -0.20170
 C31 C 0.23690 0.75973 -0.17573
 C32 C 0.26454 0.80450 -0.19510
 C33 C 0.24792 0.82564 -0.24364
 H34 H 0.13789 0.74592 -0.26921
 H35 H 0.24776 0.74470 -0.13736
 H36 H 0.26538 0.86286 -0.25672
 C37 C 0.23013 1.20533 0.70860
 C38 C 0.20411 1.24904 0.73414
 C39 C 0.22621 1.27106 0.78083
 C40 C 0.27308 1.24690 0.80300
 C41 C 0.30028 1.20422 0.77756
 C42 C 0.27989 1.18551 0.72921
 H43 H 0.16493 1.26378 0.71955
 H44 H 0.28625 1.25913 0.84194
 H45 H 0.30000 1.15164 0.71009
 C46 C 0.82960 0.79988 0.74832
 C47 C 0.84947 0.75229 0.77163
 C48 C 0.82480 0.73239 0.81767
 C49 C 0.78399 0.76464 0.84237
 C50 C 0.76754 0.81379 0.82140
 C51 C 0.78885 0.82978 0.77429
 H52 H 0.88335 0.73061 0.75370
 H53 H 0.76443 0.75176 0.87781
 H54 H 0.77555 0.86842 0.75948
 C55 C 0.18205 0.80408 1.26034
 C56 C 0.22192 0.82914 1.23040
 C57 C 0.23955 0.80698 1.18315
 C58 C 0.22015 0.75754 1.16597
 C59 C 0.18268 0.72917 1.19597
 C60 C 0.16228 0.75362 1.24254
 H61 H 0.23555 0.86922 1.24069
 H62 H 0.23241 0.74252 1.12782
 H63 H 0.13129 0.73350 1.26482
 C64 C 0.79778 1.20551 1.27956
 C65 C 0.82178 1.24773 1.25222
 C66 C 0.80187 1.26239 1.20250
 C67 C 0.75872 1.23357 1.17963
 C68 C 0.73389 1.19242 1.20671
 C69 C 0.75297 1.17881 1.25642
 H70 H 0.85666 1.26859 1.26910
 H71 H 0.74603 1.24138 1.13968
 H72 H 0.73563 1.14412 1.27493
 O73 O 0.56268 0.94011 0.93342
 O74 O 0.44264 0.93694 1.09986
 O75 O 0.57561 0.92547 1.02469
 O76 O 0.38938 0.97406 0.95423
 O77 O 0.54782 0.94230 1.10194
 O78 O 0.46086 0.92633 0.93142
 O79 O 0.38083 0.97732 1.04953
 O80 O 0.63359 0.98083 0.96883
 C81 C 0.61373 0.95115 0.93039
 C82 C 0.39376 0.94239 1.08331
 C83 C 0.57610 0.91380 1.07180
 C84 C 0.40955 0.93156 0.93407
 O85 O 0.44651 1.02481 0.89972
 O86 O 0.53737 1.04804 1.10953
 O87 O 0.57915 1.06595 0.98661
 O88 O 0.40885 1.08127 1.05206
 O89 O 0.43792 1.03674 1.11712
 O90 O 0.54469 1.04471 0.91287
 O91 O 0.42716 1.07955 0.96012
 O92 O 0.60604 1.01755 1.06536
 Co93 Co 0.50284 0.98594 0.92812
 Co94 Co 0.49242 0.99166 1.09784
 Co95 Co 0.57258 0.99637 1.00467
 Co96 Co 0.40886 1.02592 1.00372
 O97 O 0.49104 1.00184 1.01257
 C98 C 0.42996 1.07002 0.91298
 C99 C 0.58682 1.05003 1.09827
 C100 C 0.57240 1.07702 0.94000
 C101 C 0.40852 1.07317 1.09990
 O102 O 0.03163 0.43997 0.10656
 O103 O 0.07064 0.54968 -0.07288
 O104 O 0.06752 0.38178 -0.05085
 O105 O 0.07622 0.56582 0.02813
 O106 O 0.09379 0.45641 -0.08047
 O107 O 0.03697 0.53609 0.09780
 O108 O 0.02647 0.61898 -0.04112
 O109 O 0.07996 0.39707 0.04739
 C110 C 0.07313 0.41182 0.09387
 C111 C 0.05834 0.59915 -0.07703
 C112 C 0.09856 0.40716 -0.07935
 C113 C 0.07543 0.56167 0.07703
 O114 O -0.07001 0.53664 0.06097
 O115 O -0.01237 0.42959 -0.10619
 O116 O -0.02321 0.37673 0.05699
 O117 O -0.05986 0.56460 -0.03142
 O118 O -0.03400 0.52873 -0.10257
 O119 O -0.07437 0.44454 0.06627
 O120 O -0.02002 0.60187 0.04996
 O121 O -0.03579 0.37802 -0.04004
 Co122 Co -0.01673 0.48867 0.07672
 Co123 Co 0.02727 0.49008 -0.08264
 Co124 Co 0.02102 0.39299 0.00329
 Co125 Co 0.00887 0.56125 -0.00374
 O126 O 0.00897 0.48010 -0.00023
 C127 C -0.06162 0.58444 0.07121
 C128 C -0.03944 0.39062 -0.08747
 C129 C -0.06778 0.39591 0.07101
 C130 C -0.06732 0.55848 -0.07900
 O131 O 1.10276 0.04134 0.46520
 O132 O 0.88111 0.03994 0.57034
 O133 O 0.94030 0.04278 0.40673
 O134 O 1.04515 0.08232 0.57539
 O135 O 0.88759 0.06132 0.47410
 O136 O 1.10804 0.02549 0.55903
 O137 O 0.94977 0.08767 0.58763
 O138 O 1.03062 0.07739 0.43554
 C139 C 1.08063 0.08038 0.44311
 C140 C 0.89990 0.08098 0.59047
 C141 C 0.90099 0.06916 0.42740
 C142 C 1.09459 0.07130 0.57490
 O143 O 1.06557 -0.07239 0.54500
 O144 O 0.89210 -0.04107 0.45609
 O145 O 1.04182 -0.00862 0.37862
 O146 O 0.94774 -0.02014 0.61737
 O147 O 0.89885 -0.05853 0.55403
 O148 O 1.06736 -0.05840 0.44658
 O149 O 1.04716 -0.02105 0.61114
 O150 O 0.97025 -0.05675 0.42176
 Co151 Co 1.07723 -0.01388 0.50490
 Co152 Co 0.90001 0.00106 0.51309
 Co153 Co 1.00164 0.00989 0.43507
 Co154 Co 0.99722 0.03038 0.59150
 O155 O 0.99018 0.00874 0.51331
 C156 C 1.06400 -0.06552 0.59361
 C157 C 0.91968 -0.06416 0.42212
 C158 C 1.07346 -0.04717 0.39791
 C159 C 0.91600 -0.05744 0.60061
 C160 C 1.20085 0.16259 0.38969
 C161 C 1.17224 0.19007 0.34901
 C162 C 1.11444 0.19038 0.35002
 C163 C 1.08588 0.15797 0.38390
 C164 C 1.11335 0.12426 0.41922
 C165 C 1.17134 0.12988 0.42528
 C166 C 1.25775 0.16985 0.39788
 C167 C 1.28558 0.14406 0.43831
 C168 C 1.25723 0.11190 0.47245
 C169 C 1.20078 0.10530 0.46657
 H170 H 1.28092 0.19686 0.37409
 H171 H 1.32921 0.15002 0.44390
 H172 H 1.27889 0.09298 0.50455
 H173 H 1.18084 0.08286 0.49638
 H174 H 1.09051 0.21140 0.32067
 H175 H 1.04166 0.15657 0.37951
 C176 C 0.80545 -0.12646 0.33687
 C177 C 0.83588 -0.16516 0.30712
 C178 C 0.89186 -0.17292 0.32091
 C179 C 0.91740 -0.14148 0.35936
 C180 C 0.89022 -0.09770 0.38230
 C181 C 0.83370 -0.08852 0.36903
 C182 C 0.74731 -0.12553 0.33711
 C183 C 0.71845 -0.08242 0.35912
 C184 C 0.74684 -0.03989 0.38167
 C185 C 0.80382 -0.04269 0.38659
 H186 H 0.72377 -0.15803 0.32011
 H187 H 0.67402 -0.08140 0.35743
 H188 H 0.72461 -0.00507 0.39643
 H189 H 0.82358 -0.00804 0.40331
 H190 H 0.91779 -0.20182 0.30087
 H191 H 0.95915 -0.15110 0.37076
 C192 C 0.82088 0.19961 0.65157
 C193 C 0.79665 0.17336 0.69493
 C194 C 0.80205 0.11720 0.69761
 C195 C 0.83514 0.08865 0.66286
 C196 C 0.86439 0.11471 0.62410
 C197 C 0.85616 0.17025 0.61693
 C198 C 0.80859 0.25381 0.64028
 C199 C 0.83305 0.27911 0.59836
 C200 C 0.86927 0.25088 0.56612
 C201 C 0.88051 0.19680 0.57489
 H202 H 0.77913 0.27672 0.66310
 H203 H 0.82344 0.32075 0.59056
 H204 H 0.88793 0.27071 0.53352
 H205 H 0.90749 0.17583 0.54792
 H206 H 0.78477 0.09509 0.72948
 H207 H 0.83996 0.04574 0.66785
 C208 C 1.13117 -0.12090 0.71800
 C209 C 1.16782 -0.15942 0.69588
 C210 C 1.16549 -0.17018 0.64209
 C211 C 1.12945 -0.14157 0.60967
 C212 C 1.09251 -0.10314 0.63033
 C213 C 1.09092 -0.09537 0.68582
 C214 C 1.13278 -0.10824 0.77212
 C215 C 1.09349 -0.07461 0.79480
 C216 C 1.05146 -0.05329 0.76434
 C217 C 1.04988 -0.06365 0.71072
 H218 H 1.16367 -0.12486 0.79782
 H219 H 1.09492 -0.06619 0.83642
 H220 H 1.01970 -0.02876 0.78235
 H221 H 1.01464 -0.04819 0.69007
 H222 H 1.19230 -0.20051 0.62500
 H223 H 1.13142 -0.14880 0.56788
 C224 C 0.29586 1.10536 1.20085
 C225 C 0.29023 1.16202 1.19498
 C226 C 0.32385 1.18663 1.15768
 C227 C 0.36130 1.15731 1.12760
 C228 C 0.37075 1.10283 1.13616
 C229 C 0.34015 1.07703 1.17610
 C230 C 0.25619 1.07510 1.22735
 C231 C 0.26560 1.02144 1.23895
 C232 C 0.31355 0.99620 1.22264
 C233 C 0.34990 1.02303 1.19073
 H234 H 0.21703 1.09222 1.23864
 H235 H 0.23559 0.99939 1.26069
 H236 H 0.32128 0.95465 1.23240
 H237 H 0.38455 0.99977 1.17779
 H238 H 0.32245 1.22955 1.15197
 H239 H 0.38452 1.17795 1.09827
 C240 C 0.28077 0.85462 0.88786
 C241 C 0.29919 0.83459 0.83857
 C242 C 0.35284 0.84593 0.82300
 C243 C 0.38885 0.87408 0.85602
 C244 C 0.37236 0.89331 0.90542
 C245 C 0.31791 0.88246 0.92191
 C246 C 0.22500 0.85073 0.90280
 C247 C 0.20741 0.86937 0.95128
 C248 C 0.24449 0.89266 0.98582
 C249 C 0.29903 0.89907 0.97147
 H250 H 0.19383 0.83442 0.87711
 H251 H 0.16478 0.86568 0.96211
 H252 H 0.23044 0.90645 1.02354
 H253 H 0.32621 0.91659 0.99965
 H254 H 0.36739 0.83209 0.78518
 H255 H 0.42952 0.88267 0.84185
 C256 C 0.70967 0.83605 1.10085
 C257 C 0.70408 0.82981 1.15553
 C258 C 0.65444 0.84412 1.17903
 C259 C 0.61154 0.86633 1.14985
 C260 C 0.61590 0.87434 1.09559
 C261 C 0.66406 0.85467 1.07019
 C262 C 0.76013 0.82474 1.07596
 C263 C 0.76396 0.82545 1.02187
 C264 C 0.71793 0.83757 0.99182
 C265 C 0.66854 0.85250 1.01536
 H266 H 0.79705 0.81513 1.09787
 H267 H 0.80246 0.81535 1.00314
 H268 H 0.72083 0.83517 0.95006
 H269 H 0.63362 0.85947 0.99018
 H270 H 0.64912 0.83882 1.22063
 H271 H 0.57516 0.87943 1.17069
 C272 C 0.68997 1.17127 0.90864
 C273 C 0.68223 1.17645 0.85327
 C274 C 0.63423 1.15471 0.83079
 C275 C 0.59636 1.12720 0.86046
 C276 C 0.60324 1.12137 0.91461
 C277 C 0.64772 1.14847 0.93960
 C278 C 0.74033 1.18375 0.93398
 C279 C 0.74534 1.18343 0.98827
 C280 C 0.70091 1.16954 1.01856
 C281 C 0.65269 1.15183 0.99464
 H282 H 0.77689 1.19257 0.91246
 H283 H 0.78375 1.19450 1.00691
 H284 H 0.70430 1.17120 1.06075
 H285 H 0.61915 1.14232 1.01984
 H286 H 0.62564 1.15862 0.78939
 H287 H 0.56220 1.10842 0.84019
 C288 C 0.19519 0.35391 0.16983
 C289 C 0.16615 0.32026 0.20424
 C290 C 0.10892 0.32588 0.20739
 C291 C 0.08024 0.35988 0.17410
 C292 C 0.10743 0.38758 0.13507
 C293 C 0.16542 0.38621 0.13355
 C294 C 0.25311 0.35599 0.17043
 C295 C 0.28091 0.38665 0.13427
 C296 C 0.25172 0.41628 0.09735
 C297 C 0.19447 0.41655 0.09711
 H298 H 0.27728 0.33441 0.19914
 H299 H 0.32534 0.38743 0.13490
 H300 H 0.27355 0.43965 0.06915
 H301 H 0.17325 0.44111 0.06869
 H302 H 0.08552 0.30112 0.23325
 H303 H 0.03585 0.36118 0.17618
 C304 C -0.11897 0.27194 -0.14282
 C305 C -0.16415 0.29933 -0.16598
 C306 C -0.16482 0.35542 -0.16735
 C307 C -0.12214 0.38479 -0.14449
 C308 C -0.07753 0.35874 -0.12034
 C309 C -0.07517 0.30178 -0.12038
 C310 C -0.11644 0.21518 -0.14157
 C311 C -0.07153 0.18865 -0.11934
 C312 C -0.02823 0.21782 -0.09820
 C313 C -0.02989 0.27367 -0.09874
 H314 H -0.14896 0.19065 -0.15770
 H315 H -0.07020 0.14525 -0.11878
 H316 H 0.00690 0.19711 -0.08140
 H317 H 0.00499 0.29444 -0.08274
 H318 H -0.19890 0.37651 -0.18564
 H319 H -0.12521 0.42810 -0.14357
 C320 C 0.09786 0.71792 -0.16152
 C321 C 0.15320 0.70326 -0.17328
 C322 C 0.17434 0.65434 -0.15541
 C323 C 0.14247 0.62053 -0.12568
 C324 C 0.08807 0.63419 -0.11318
 C325 C 0.06445 0.68196 -0.13342
 C326 C 0.07508 0.76803 -0.17591
 C327 C 0.01993 0.78039 -0.16739
 C328 C -0.01367 0.74343 -0.14380
 C329 C 0.00820 0.69477 -0.12682
 H330 H 0.09940 0.79837 -0.19343
 H331 H 0.00314 0.81871 -0.17949
 H332 H -0.05672 0.75278 -0.13809
 H333 H -0.01970 0.66720 -0.10937
 H334 H 0.21641 0.64270 -0.16370
 H335 H 0.16112 0.58393 -0.11112
 C336 C -0.17229 0.63709 0.16760
 C337 C -0.15404 0.69033 0.17289
 C338 C -0.10761 0.70666 0.14638
 C339 C -0.07962 0.67151 0.11364
 C340 C -0.09667 0.61831 0.10616
 C341 C -0.14381 0.60023 0.13386
 C342 C -0.21825 0.61997 0.19575
 C343 C -0.23615 0.56739 0.19135
 C344 C -0.20911 0.53123 0.15856
 C345 C -0.16404 0.54725 0.12965
 H346 H -0.24019 0.64693 0.22196
 H347 H -0.27114 0.55459 0.21353
 H348 H -0.22316 0.49035 0.15564
 H349 H -0.14650 0.51697 0.10460
 H350 H -0.09387 0.74777 0.14978
 H351 H -0.04413 0.68665 0.09366
 C352 C 1.17308 0.19536 0.62375
 C353 C 1.20041 0.17292 0.66778
 C354 C 1.19645 0.11744 0.67588
 C355 C 1.16468 0.08501 0.64326
 C356 C 1.13411 0.10688 0.60213
 C357 C 1.13864 0.16232 0.59146
 C358 C 1.17986 0.24956 0.61046
 C359 C 1.15214 0.27118 0.56753
 C360 C 1.11740 0.23937 0.53702
 C361 C 1.11057 0.18546 0.54874
 H362 H 1.20733 0.27536 0.63244
 H363 H 1.15779 0.31283 0.55778
 H364 H 1.09606 0.25641 0.50374
 H365 H 1.08387 0.16200 0.52364
 H366 H 1.21643 0.09904 0.70925
 H367 H 1.16145 0.04280 0.65216
 C368 C 0.81596 -0.15024 0.66702
 C369 C 0.85132 -0.17796 0.70230
 C370 C 0.90829 -0.17089 0.69789
 C371 C 0.92899 -0.13202 0.66444
 C372 C 0.89348 -0.09775 0.63655
 C373 C 0.83613 -0.10660 0.63846
 C374 C 0.75999 -0.16406 0.66134
 C375 C 0.72366 -0.13165 0.63321
 C376 C 0.74224 -0.08478 0.61095
 C377 C 0.79778 -0.07207 0.61393
 H378 H 0.74405 -0.19944 0.67967
 H379 H 0.68072 -0.14202 0.63012
 H380 H 0.71359 -0.05821 0.59123
 H381 H 0.81011 -0.03431 0.59844
 H382 H 0.93677 -0.19229 0.72308
 H383 H 0.97291 -0.12814 0.66106
 C384 C 1.18850 -0.13092 0.33532
 C385 C 1.15744 -0.16580 0.30174
 C386 C 1.09982 -0.16129 0.30264
 C387 C 1.07374 -0.12104 0.33211
 C388 C 1.10374 -0.08481 0.36296
 C389 C 1.16165 -0.08868 0.36367
 C390 C 1.24586 -0.13776 0.34218
 C391 C 1.27642 -0.10068 0.37121
 C392 C 1.25057 -0.05651 0.39448
 C393 C 1.19370 -0.05051 0.39093
 H394 H 1.26745 -0.17177 0.32500
 H395 H 1.32044 -0.10593 0.37514
 H396 H 1.27457 -0.02706 0.41586
 H397 H 1.17514 -0.01532 0.40884
 H398 H 1.07461 -0.18610 0.27714
 H399 H 1.02965 -0.11718 0.32970
 C400 C 0.79144 0.16349 0.36648
 C401 C 0.82275 0.18382 0.32476
 C402 C 0.87943 0.17320 0.32402
 C403 C 0.90328 0.13712 0.35859
 C404 C 0.87201 0.11093 0.39604
 C405 C 0.81542 0.12564 0.40153
 C406 C 0.73675 0.18128 0.37447
 C407 C 0.70489 0.15958 0.41349
 C408 C 0.72681 0.12011 0.44544
 C409 C 0.78122 0.10329 0.43967
 H410 H 0.71843 0.21248 0.35077
 H411 H 0.66292 0.17324 0.41874
 H412 H 0.70165 0.10265 0.47524
 H413 H 0.79496 0.07266 0.46557
 H414 H 0.90490 0.18851 0.29327
 H415 H 0.94664 0.12801 0.35452
 C416 C 0.22000 0.35759 -0.16361
 C417 C 0.19505 0.31213 -0.18802
 C418 C 0.13976 0.30208 -0.17825
 C419 C 0.10999 0.33427 -0.14385
 C420 C 0.13420 0.37719 -0.11664
 C421 C 0.18961 0.38980 -0.12691
 C422 C 0.27436 0.37204 -0.17509
 C423 C 0.29904 0.41538 -0.14949
 C424 C 0.27016 0.44530 -0.11225
 C425 C 0.21595 0.43281 -0.10093
 H426 H 0.29802 0.35041 -0.20429
 H427 H 0.34088 0.42576 -0.15852
 H428 H 0.28979 0.47857 -0.09219
 H429 H 0.19522 0.45696 -0.07156
 H430 H 0.11957 0.26784 -0.19614
 H431 H 0.06720 0.32534 -0.13846
 C432 C -0.19413 0.34198 0.14077
 C433 C -0.16789 0.30111 0.17056
 C434 C -0.11144 0.29223 0.16542
 C435 C -0.08082 0.32272 0.13206
 C436 C -0.10530 0.36316 0.10195
 C437 C -0.16284 0.37203 0.10478
 C438 C -0.25070 0.35371 0.14588
 C439 C -0.27666 0.39083 0.11344
 C440 C -0.24682 0.41738 0.07584
 C441 C -0.19037 0.40856 0.07169
 H442 H -0.27533 0.33444 0.17492
 H443 H -0.32022 0.39883 0.11731
 H444 H -0.26736 0.44562 0.05030
 H445 H -0.16908 0.42986 0.04169
 H446 H -0.09077 0.26043 0.18664
 H447 H -0.03713 0.31448 0.13008
 C448 C -0.14344 0.63568 -0.18816
 C449 C -0.15749 0.68323 -0.15907
 C450 C -0.15293 0.68132 -0.10421
 C451 C -0.12942 0.63755 -0.07911
 C452 C -0.10819 0.59336 -0.10726
 C453 C -0.11827 0.59079 -0.16222
 C454 C -0.15735 0.63006 -0.24177
 C455 C -0.14370 0.58368 -0.26995
 C456 C -0.11766 0.54105 -0.24523
 C457 C -0.10573 0.54408 -0.19193
 H458 H -0.18069 0.66048 -0.26220
 H459 H -0.15447 0.58034 -0.31102
 H460 H -0.10809 0.50473 -0.26717
 H461 H -0.08889 0.50842 -0.17442
 H462 H -0.16320 0.71590 -0.07997
 H463 H -0.12354 0.64082 -0.03715
 C464 C 0.19169 0.63962 0.14535
 C465 C 0.15941 0.67841 0.17349
 C466 C 0.10229 0.67294 0.17332
 C467 C 0.07711 0.63303 0.14360
 C468 C 0.10758 0.59826 0.11111
 C469 C 0.16541 0.60090 0.11209
 C470 C 0.24951 0.63810 0.14976
 C471 C 0.28058 0.60206 0.11969
 C472 C 0.25482 0.56644 0.08521
 C473 C 0.19768 0.56540 0.08163
 H474 H 0.27109 0.66426 0.17688
 H475 H 0.32492 0.60180 0.12312
 H476 H 0.27926 0.53902 0.06163
 H477 H 0.17901 0.53651 0.05521
 H478 H 0.07636 0.70154 0.19402
 H479 H 0.03270 0.63124 0.14389
 C480 C 0.38575 1.19405 0.83604
 C481 C 0.34158 1.17153 0.80670
 C482 C 0.33216 1.11624 0.80960
 C483 C 0.36328 1.08403 0.84247
 C484 C 0.40401 1.10601 0.87476
 C485 C 0.41655 1.16112 0.87116
 C486 C 0.40051 1.24824 0.83079
 C487 C 0.44346 1.26982 0.86050
 C488 C 0.47276 1.23789 0.89551
 C489 C 0.45967 1.18397 0.90084
 H490 H 0.37969 1.27405 0.80315
 H491 H 0.45428 1.31148 0.85610
 H492 H 0.50619 1.25484 0.91828
 H493 H 0.48404 1.16031 0.92775
 H494 H 0.29849 1.09796 0.78815
 H495 H 0.35336 1.04185 0.84477
 C496 C 0.25631 0.89013 1.13217
 C497 C 0.27432 0.83930 1.14968
 C498 C 0.32833 0.82223 1.14166
 C499 C 0.36576 0.85606 1.11901
 C500 C 0.35042 0.90813 1.10430
 C501 C 0.29481 0.92590 1.11083
 C502 C 0.20062 0.90626 1.13648
 C503 C 0.18359 0.95764 1.12278
 C504 C 0.22145 0.99385 1.10458
 C505 C 0.27624 0.97848 1.09860
 H506 H 0.16972 0.87925 1.15035
 H507 H 0.14095 0.96957 1.12685
 H508 H 0.20837 1.03425 1.09518
 H509 H 0.30311 1.00950 1.08618
 H510 H 0.34215 0.78325 1.15502
 H511 H 0.40758 0.84171 1.11396
 C512 C 0.64178 1.17799 1.16257
 C513 C 0.69343 1.15822 1.17987
 C514 C 0.70887 1.10498 1.16926
 C515 C 0.67394 1.07094 1.14202
 C516 C 0.62244 1.08908 1.12481
 C517 C 0.60609 1.14333 1.13402
 C518 C 0.62490 1.23141 1.17308
 C519 C 0.57476 1.25086 1.15412
 C520 C 0.54071 1.21770 1.12440
 C521 C 0.55606 1.16455 1.11419
 H522 H 0.65015 1.25852 1.19600
 H523 H 0.56247 1.29200 1.16219
 H524 H 0.50220 1.23325 1.10907
 H525 H 0.52876 1.14108 1.08975
 H526 H 0.74866 1.08979 1.18184
 H527 H 0.68698 1.02977 1.13493
 C528 C 0.74461 0.90372 0.86340
 C529 C 0.72905 0.85083 0.84849
 C530 C 0.67463 0.83493 0.85475
 C531 C 0.63646 0.86926 0.87845
 C532 C 0.65141 0.92087 0.89550
 C533 C 0.70466 0.93982 0.88441
 C534 C 0.79921 0.92149 0.85826
 C535 C 0.81282 0.97466 0.86926
 C536 C 0.77262 1.01107 0.88564
 C537 C 0.71905 0.99403 0.89319
 H538 H 0.83186 0.89465 0.84573
 H539 H 0.85462 0.98782 0.86439
 H540 H 0.78302 1.05266 0.89278
 H541 H 0.68895 1.02405 0.90467
 H542 H 0.66198 0.79521 0.84228
 H543 H 0.59567 0.85438 0.88564
   
