data_POSCAR
  _audit_creation_date              2014-09-24
  _audit_creation_method            'ToBaCCo'
  _symmetry_space_group_name_H-M    'P1'
  _symmetry_Int_Tables_number       1
  _symmetry_cell_setting            triclinic
  loop_
  _symmetry_equiv_pos_as_xyz
 x,y,z
_cell_length_a 35.4852
_cell_length_b 36.0428
_cell_length_c 70.4504
_cell_angle_alpha 88.272500
_cell_angle_beta 91.448500
_cell_angle_gamma 119.304100
loop_
  _atom_site_label
  _atom_site_type_symbol
  _atom_site_fract_x
  _atom_site_fract_y
  _atom_site_fract_z
C1 C 0.03093 0.07619 0.52453
 H2 H 0.05910 0.07210 0.52381
 C3 C 0.03226 0.10833 0.53552
 H4 H 0.06136 0.12824 0.54356
 C5 C -0.04087 0.05533 0.51458
 H6 H -0.06879 0.03543 0.50593
 C7 C -0.04087 0.08733 0.52534
 H8 H -0.06905 0.09157 0.52490
 N9 N -0.00519 0.05050 0.51435
 C10 C 0.01398 -0.05666 0.50191
 H11 H 0.01240 -0.05553 0.48656
 C12 C 0.01601 -0.09038 0.51120
 H13 H 0.01670 -0.11485 0.50291
 C14 C 0.01288 -0.02712 0.53137
 H15 H 0.00989 -0.00338 0.53918
 C16 C 0.01533 -0.06010 0.54125
 H17 H 0.01457 -0.06120 0.55662
 Zn18 Zn -0.00030 0.01234 0.49809
 N19 N 0.01183 -0.02626 0.51205
 C20 C 0.08282 0.04634 0.48116
 N21 N 0.04465 0.04664 0.48123
 C22 C 0.03842 0.07509 0.47044
 C23 C 0.07150 0.10526 0.45913
 C24 C 0.11703 0.07628 0.47010
 C25 C -0.08828 -0.04646 0.49469
 C26 C -0.12578 -0.07700 0.48570
 C27 C -0.08842 -0.05542 0.45586
 C28 C -0.05187 -0.02499 0.46546
 N29 N -0.05223 -0.02149 0.48455
 H30 H 0.08734 0.02401 0.49019
 H31 H 0.00786 0.07486 0.47098
 H32 H 0.06573 0.12761 0.45067
 H33 H 0.14771 0.07662 0.47073
 H34 H -0.08759 -0.04332 0.50994
 H35 H -0.15358 -0.09451 0.49461
 H36 H -0.08448 -0.05816 0.44093
 H37 H -0.02239 -0.00585 0.45771
 C38 C 0.01591 -0.09278 0.53112
 C39 C -0.00371 0.11471 0.53582
 C40 C -0.12658 -0.08350 0.46587
 C41 C 0.11180 0.10676 0.45914
 C42 C 1.08428 0.02526 0.14658
 H43 H 1.08511 0.05563 0.14701
 C44 C 1.11415 0.02097 0.13570
 H45 H 1.13808 0.04832 0.12782
 C46 C 1.05314 -0.04671 0.15711
 H47 H 1.02968 -0.07276 0.16571
 C48 C 1.08270 -0.05233 0.14651
 H49 H 1.08132 -0.08303 0.14680
 N50 N 1.05449 -0.00833 0.15692
 C51 C 0.95116 0.02096 0.16630
 H52 H 0.95024 0.01946 0.18165
 C53 C 0.91971 0.02574 0.15592
 H54 H 0.89461 0.02779 0.16346
 C55 C 0.98326 0.01677 0.13794
 H56 H 1.00728 0.01204 0.13096
 C57 C 0.95258 0.02172 0.12700
 H58 H 0.95414 0.02184 0.11167
 Zn59 Zn 1.01810 0.00219 0.17234
 N60 N 0.98183 0.01618 0.15722
 C61 C 1.05369 0.08460 0.18834
 N62 N 1.05461 0.04731 0.18833
 C63 C 1.08376 0.04163 0.19912
 C64 C 1.11304 0.07386 0.21083
 C65 C 1.08275 0.11793 0.19974
 C66 C 0.94941 -0.08013 0.17740
 C67 C 0.91764 -0.11513 0.18735
 C68 C 0.95257 -0.08151 0.21673
 C69 C 0.98332 -0.04687 0.20622
 N70 N 0.98112 -0.04672 0.18691
 H71 H 1.03083 0.08874 0.17936
 H72 H 1.08435 0.01195 0.19851
 H73 H 1.13628 0.06887 0.21917
 H74 H 1.08163 0.14742 0.19966
 H75 H 0.94806 -0.07888 0.16205
 H76 H 0.89210 -0.14113 0.17959
 H77 H 0.95410 -0.08069 0.23210
 H78 H 1.00799 -0.01963 0.21357
 C79 C 0.91972 0.02548 0.13598
 C80 C 1.11379 -0.01814 0.13566
 C81 C 0.91880 -0.11583 0.20728
 C82 C 1.11285 0.11267 0.21120
 C83 C 0.03574 0.96397 0.85646
 H84 H 0.00590 0.93417 0.85519
 C85 C 0.06948 0.96598 0.86777
 H86 H 0.06538 0.93750 0.87518
 C87 C 0.07799 1.03664 0.84740
 H88 H 0.08139 1.06382 0.83913
 C89 C 0.11275 1.04000 0.85846
 H90 H 0.14252 1.07010 0.85887
 N91 N 0.04050 0.99896 0.84657
 C92 C -0.08982 0.97505 0.83341
 H93 H -0.08779 0.97884 0.81811
 C94 C -0.12622 0.97047 0.84264
 H95 H -0.15245 0.96912 0.83398
 C96 C -0.05745 0.97205 0.86276
 H97 H -0.02987 0.97439 0.87062
 C98 C -0.09351 0.96675 0.87260
 H99 H -0.09216 0.96558 0.88794
 Zn100 Zn -0.00521 0.99132 0.82994
 N101 N -0.05610 0.97645 0.84353
 C102 C -0.05148 0.91122 0.81170
 N103 N -0.01331 0.94809 0.81315
 C104 C 0.02201 0.95461 0.80336
 C105 C 0.01971 0.92363 0.79128
 C106 C -0.05512 0.87912 0.79986
 C107 C 0.01097 1.07516 0.82621
 C108 C 0.01501 1.11152 0.81676
 C109 C 0.01421 1.07977 0.78693
 C110 C 0.00984 1.04390 0.79695
 N111 N 0.00804 1.04212 0.81623
 H112 H -0.07891 0.90642 0.81989
 H113 H 0.05217 0.98391 0.80510
 H114 H 0.04837 0.92922 0.78381
 H115 H -0.08567 0.84991 0.79882
 H116 H 0.00854 1.07253 0.84152
 H117 H 0.01554 1.13668 0.82496
 H118 H 0.01542 1.08043 0.77158
 H119 H 0.00654 1.01704 0.78922
 C120 C -0.12844 0.96707 0.86265
 C121 C 0.10879 1.00424 0.86872
 C122 C 0.01602 1.11391 0.79681
 C123 C -0.01917 0.88521 0.78947
 C124 C 0.50091 -0.01810 0.01064
 C125 C 0.49723 -0.02266 -0.00852
 C126 C 0.46022 -0.02410 -0.01934
 C127 C 0.53057 -0.02547 -0.01958
 C128 C 0.53825 -0.01615 0.02138
 C129 C 0.46779 -0.01480 0.02173
 C130 C 0.41774 -0.05625 -0.01583
 C131 C 0.38301 -0.05565 -0.02537
 C132 C 0.39018 -0.02290 -0.03863
 C133 C 0.43295 0.00870 -0.04236
 C134 C 0.46760 0.00793 -0.03289
 C135 C 0.52068 -0.06386 -0.02813
 C136 C 0.55222 -0.06740 -0.03813
 C137 C 0.59386 -0.03230 -0.04006
 C138 C 0.60347 0.00639 -0.03178
 C139 C 0.57209 0.00970 -0.02149
 C140 C 0.56605 0.02066 0.03131
 C141 C 0.60218 0.02359 0.04101
 C142 C 0.61092 -0.01052 0.04116
 C143 C 0.58240 -0.04774 0.03146
 C144 C 0.54637 -0.05053 0.02167
 C145 C 0.45881 0.01867 0.01836
 C146 C 0.42574 0.01995 0.02817
 C147 C 0.40114 -0.01217 0.04159
 C148 C 0.41104 -0.04507 0.04521
 C149 C 0.44422 -0.04620 0.03545
 H150 H 0.41153 -0.08152 -0.00556
 H151 H 0.35057 -0.08090 -0.02242
 H152 H 0.43965 0.03471 -0.05226
 H153 H 0.50019 0.03307 -0.03573
 H154 H 0.48871 -0.09123 -0.02678
 H155 H 0.54401 -0.09741 -0.04454
 H156 H 0.58009 0.03958 -0.01500
 H157 H 0.56022 0.04749 0.03121
 H158 H 0.62373 0.05290 0.04810
 H159 H 0.58769 -0.07489 0.03158
 H160 H 0.52480 -0.07948 0.01433
 H161 H 0.47716 0.04352 0.00799
 H162 H 0.41953 0.04616 0.02531
 H163 H 0.39243 -0.07059 0.05524
 H164 H 0.45074 -0.07227 0.03820
 H165 H 0.63543 0.03380 -0.03303
 C166 C -0.01189 0.49735 0.67405
 C167 C -0.00886 0.50013 0.65480
 C168 C -0.00862 0.46602 0.64366
 C169 C -0.00589 0.53725 0.64394
 C170 C -0.01348 0.53074 0.68524
 C171 C -0.01355 0.46079 0.68494
 C172 C 0.02397 0.45492 0.64632
 C173 C 0.02222 0.42099 0.63648
 C174 C -0.01211 0.39770 0.62377
 C175 C -0.04405 0.40966 0.62081
 C176 C -0.04217 0.44366 0.63059
 C177 C 0.03202 0.56414 0.63406
 C178 C 0.03631 0.60045 0.62447
 C179 C 0.00240 0.61004 0.62433
 C180 C -0.03602 0.58245 0.63386
 C181 C -0.04007 0.54638 0.64367
 C182 C -0.04938 0.51986 0.69663
 C183 C -0.05191 0.55084 0.70708
 C184 C -0.01834 0.59330 0.70648
 C185 C 0.01793 0.60400 0.69523
 C186 C 0.02041 0.57293 0.68476
 C187 C -0.04776 0.41932 0.68246
 C188 C -0.04773 0.38505 0.69229
 C189 C -0.01347 0.39169 0.70478
 C190 C 0.02031 0.43349 0.70742
 C191 C 0.02008 0.46769 0.69769
 H192 H 0.05036 0.47215 0.65623
 H193 H 0.04717 0.41236 0.63911
 H194 H -0.07047 0.39274 0.61088
 H195 H -0.06746 0.45196 0.62829
 H196 H 0.05861 0.55741 0.63410
 H197 H 0.06602 0.62094 0.61705
 H198 H -0.06965 0.52575 0.65115
 H199 H -0.07580 0.48743 0.69718
 H200 H -0.08050 0.54166 0.71540
 H201 H 0.04464 0.63626 0.69473
 H202 H 0.04878 0.58174 0.67633
 H203 H -0.07428 0.41355 0.67283
 H204 H -0.07463 0.35340 0.69018
 H205 H 0.04751 0.43975 0.71668
 H206 H 0.04675 0.49954 0.69974
 H207 H -0.06254 0.58927 0.63400
 C208 C 0.50244 0.51584 0.34508
 C209 C 0.50325 0.51538 0.32577
 C210 C 0.53838 0.55008 0.31466
 C211 C 0.46887 0.48032 0.31466
 C212 C 0.46625 0.48170 0.35600
 C213 C 0.53712 0.55088 0.35617
 C214 C 0.54543 0.59191 0.31503
 C215 C 0.57907 0.62429 0.30460
 C216 C 0.60623 0.61530 0.29375
 C217 C 0.59875 0.57330 0.29329
 C218 C 0.56487 0.54091 0.30353
 C219 C 0.44520 0.48958 0.30095
 C220 C 0.41237 0.45705 0.29048
 C221 C 0.40284 0.41457 0.29339
 C222 C 0.42703 0.40545 0.30700
 C223 C 0.45985 0.43807 0.31751
 C224 C 0.47460 0.45700 0.36940
 C225 C 0.44066 0.42361 0.37924
 C226 C 0.39781 0.41468 0.37601
 C227 C 0.38967 0.44017 0.36287
 C228 C 0.42361 0.47344 0.35298
 C229 C 0.58076 0.56233 0.35406
 C230 C 0.61311 0.59720 0.36366
 C231 C 0.60233 0.62070 0.37583
 C232 C 0.55855 0.60811 0.37849
 C233 C 0.52627 0.57353 0.36875
 H234 H 0.52496 0.59940 0.32342
 H235 H 0.58429 0.65646 0.30522
 H236 H 0.61888 0.56547 0.28484
 H237 H 0.55965 0.50872 0.30301
 H238 H 0.45174 0.52202 0.29857
 H239 H 0.39399 0.46510 0.28031
 H240 H 0.47832 0.43043 0.32782
 H241 H 0.50736 0.46315 0.37199
 H242 H 0.44795 0.40492 0.38948
 H243 H 0.35696 0.43389 0.36002
 H244 H 0.41665 0.49253 0.34283
 H245 H 0.58979 0.54459 0.34482
 H246 H 0.64656 0.60576 0.36161
 H247 H 0.54934 0.62577 0.38771
 H248 H 0.49279 0.56509 0.37065
 H249 H 0.42098 0.37318 0.30935
 C250 C 0.03665 0.19029 0.54660
 C251 C 0.03890 0.22431 0.55649
 C252 C 0.00305 0.21975 0.56626
 C253 C -0.03542 0.18047 0.56608
 C254 C -0.03771 0.14626 0.55623
 C255 C -0.00164 0.15076 0.54639
 N256 N 0.00670 0.25551 0.57617
 N257 N -0.02500 0.25454 0.58466
 C258 C -0.02087 0.29057 0.59452
 C259 C -0.05760 0.28831 0.60255
 C260 C -0.05478 0.32308 0.61206
 C261 C -0.01495 0.36075 0.61378
 C262 C 0.02200 0.36282 0.60584
 C263 C 0.01908 0.32810 0.59624
 H264 H 0.06476 0.19515 0.53888
 H265 H 0.06865 0.25448 0.55645
 H266 H -0.06357 0.17615 0.57360
 H267 H -0.06750 0.11616 0.55652
 H268 H -0.08852 0.25954 0.60138
 H269 H -0.08367 0.32036 0.61825
 H270 H 0.05301 0.39155 0.60680
 H271 H 0.04798 0.33064 0.59016
 C272 C 0.89309 0.83016 0.23398
 C273 C 0.85969 0.79825 0.24469
 C274 C 0.81650 0.78536 0.24003
 C275 C 0.80693 0.80404 0.22418
 C276 C 0.84025 0.83547 0.21330
 C277 C 0.88365 0.84910 0.21820
 N278 N 0.78305 0.75348 0.25160
 N279 N 0.74396 0.74542 0.25003
 C280 C 0.71025 0.71318 0.26137
 C281 C 0.66928 0.70989 0.26073
 C282 C 0.63555 0.67850 0.27148
 C283 C 0.64224 0.64949 0.28284
 C284 C 0.68341 0.65284 0.28346
 C285 C 0.71723 0.68455 0.27289
 H286 H 0.92628 0.83999 0.23797
 H287 H 0.86746 0.78396 0.25683
 H288 H 0.77378 0.79444 0.22024
 H289 H 0.83215 0.84989 0.20131
 H290 H 0.66350 0.73172 0.25187
 H291 H 0.60402 0.67634 0.27063
 H292 H 0.68945 0.63105 0.29224
 H293 H 0.74862 0.68643 0.27359
 C294 C 0.18754 0.02639 -0.12823
 C295 C 0.22203 0.02562 -0.11855
 C296 C 0.21573 0.00482 -0.10088
 C297 C 0.17445 -0.01486 -0.09278
 C298 C 0.13985 -0.01434 -0.10250
 C299 C 0.14596 0.00601 -0.12040
 N300 N 0.25142 0.00316 -0.09175
 N301 N 0.24863 -0.01344 -0.07528
 C302 C 0.28422 -0.01581 -0.06644
 C303 C 0.28076 -0.03001 -0.04753
 C304 C 0.31501 -0.03252 -0.03850
 C305 C 0.35331 -0.02119 -0.04833
 C306 C 0.35641 -0.00744 -0.06742
 C307 C 0.32228 -0.00461 -0.07637
 H308 H 0.19312 0.04184 -0.14210
 H309 H 0.25367 0.04080 -0.12496
 H310 H 0.16878 -0.03111 -0.07911
 H311 H 0.10826 -0.02997 -0.09605
 H312 H 0.25159 -0.03873 -0.03973
 H313 H 0.31177 -0.04260 -0.02372
 H314 H 0.38508 0.00081 -0.07551
 H315 H 0.32558 0.00605 -0.09107
 C316 C -0.01588 0.82833 0.53491
 C317 C -0.02002 0.79242 0.54483
 C318 C 0.00517 0.79678 0.56107
 C319 C 0.03480 0.83774 0.56737
 C320 C 0.03862 0.87376 0.55757
 C321 C 0.01331 0.86938 0.54123
 N322 N -0.00052 0.75916 0.57101
 N323 N 0.02429 0.76027 0.58460
 C324 C 0.01783 0.72242 0.59458
 C325 C 0.05004 0.72463 0.60712
 C326 C 0.04505 0.68810 0.61680
 C327 C 0.00733 0.64882 0.61429
 C328 C -0.02533 0.64676 0.60195
 C329 C -0.02003 0.68321 0.59207
 H330 H -0.03626 0.82401 0.52254
 H331 H -0.04306 0.76104 0.53989
 H332 H 0.05456 0.84189 0.57993
 H333 H 0.06144 0.90504 0.56269
 H334 H 0.07926 0.75467 0.60924
 H335 H 0.07049 0.69056 0.62638
 H336 H -0.05457 0.61681 0.59970
 H337 H -0.04550 0.68075 0.58251
 C338 C 0.15416 0.13926 0.24173
 C339 C 0.18578 0.17189 0.25265
 C340 C 0.20880 0.21329 0.24513
 C341 C 0.19913 0.22205 0.22661
 C342 C 0.16724 0.18951 0.21573
 C343 C 0.14478 0.14769 0.22311
 N344 N 0.24223 0.24557 0.25643
 N345 N 0.26698 0.28283 0.24983
 C346 C 0.30064 0.31512 0.26102
 C347 C 0.32816 0.35448 0.25243
 C348 C 0.36151 0.38666 0.26288
 C349 C 0.36780 0.38006 0.28222
 C350 C 0.34006 0.34040 0.29082
 C351 C 0.30680 0.30817 0.28032
 H352 H 0.13702 0.10741 0.24783
 H353 H 0.19282 0.16479 0.26692
 H354 H 0.21644 0.25386 0.22050
 H355 H 0.16095 0.19681 0.20137
 H356 H 0.32386 0.36013 0.23756
 H357 H 0.38269 0.41656 0.25575
 H358 H 0.34364 0.33451 0.30574
 H359 H 0.28582 0.27801 0.28729
 C360 C 0.81316 -0.01471 -0.13555
 C361 C 0.78053 -0.01331 -0.12545
 C362 C 0.76960 -0.03168 -0.10730
 C363 C 0.79157 -0.05190 -0.09928
 C364 C 0.82475 -0.05281 -0.10920
 C365 C 0.83650 -0.03397 -0.12754
 N366 N 0.73703 -0.02821 -0.09716
 N367 N 0.72108 -0.04895 -0.08179
 C368 C 0.68945 -0.04417 -0.07150
 C369 C 0.66634 -0.07385 -0.05715
 C370 C 0.63507 -0.07016 -0.04696
 C371 C 0.62710 -0.03611 -0.05077
 C372 C 0.65078 -0.00594 -0.06497
 C373 C 0.68149 -0.01009 -0.07537
 H374 H 0.82139 0.00159 -0.14921
 H375 H 0.76401 0.00267 -0.13173
 H376 H 0.78350 -0.06653 -0.08525
 H377 H 0.84021 -0.06941 -0.10255
 H378 H 0.67233 -0.10011 -0.05397
 H379 H 0.61741 -0.09360 -0.03597
 H380 H 0.64501 0.02044 -0.06820
 H381 H 0.69919 0.01343 -0.08632
 C382 C 0.16783 -0.04354 0.13307
 C383 C 0.20072 -0.04537 0.12334
 C384 C 0.21287 -0.02656 0.10526
 C385 C 0.19128 -0.00625 0.09683
 C386 C 0.15856 -0.00419 0.10658
 C387 C 0.14672 -0.02252 0.12487
 N388 N 0.24783 -0.02757 0.09600
 N389 N 0.25934 -0.01258 0.07926
 C390 C 0.29492 -0.01273 0.07017
 C391 C 0.30323 0.00056 0.05114
 C392 C 0.33773 0.00087 0.04185
 C393 C 0.36485 -0.01183 0.05154
 C394 C 0.35657 -0.02484 0.07073
 C395 C 0.32187 -0.02542 0.07995
 H396 H 0.15976 -0.05752 0.14722
 H397 H 0.21719 -0.06103 0.13000
 H398 H 0.20003 0.00848 0.08285
 H399 H 0.14254 0.01182 0.09984
 H400 H 0.28266 0.01038 0.04345
 H401 H 0.34273 0.01040 0.02700
 H402 H 0.37719 -0.03417 0.07869
 H403 H 0.31632 -0.03548 0.09472
 C404 C 0.80564 0.84897 0.46745
 C405 C 0.77175 0.81438 0.45836
 C406 C 0.76916 0.81272 0.43862
 C407 C 0.80005 0.84701 0.42790
 C408 C 0.83377 0.88201 0.43687
 C409 C 0.83838 0.88372 0.45699
 N410 N 0.73540 0.77556 0.42985
 N411 N 0.73476 0.76928 0.41213
 C412 C 0.70122 0.73192 0.40339
 C413 C 0.70488 0.72510 0.38424
 C414 C 0.67300 0.68874 0.37533
 C415 C 0.63662 0.65873 0.38543
 C416 C 0.63290 0.66574 0.40465
 C417 C 0.66501 0.70193 0.41359
 H418 H 0.80659 0.84615 0.48271
 H419 H 0.74806 0.78798 0.46680
 H420 H 0.79811 0.84690 0.41254
 H421 H 0.85510 0.90785 0.42762
 H422 H 0.73260 0.74800 0.37623
 H423 H 0.67642 0.68441 0.36045
 H424 H 0.60537 0.64297 0.41280
 H425 H 0.66146 0.70649 0.42842
 C426 C 0.04019 0.19212 0.79344
 C427 C 0.03898 0.22622 0.78400
 C428 C 0.01449 0.21967 0.76731
 C429 C -0.00874 0.17847 0.76005
 C430 C -0.00781 0.14432 0.76952
 C431 C 0.01658 0.15067 0.78637
 N432 N 0.01313 0.25509 0.75821
 N433 N -0.00600 0.25179 0.74231
 C434 C -0.00804 0.28694 0.73332
 C435 C -0.02484 0.28253 0.71484
 C436 C -0.02686 0.31637 0.70559
 C437 C -0.01244 0.35525 0.71478
 C438 C 0.00383 0.35929 0.73348
 C439 C 0.00619 0.32555 0.74265
 H440 H 0.05971 0.19824 0.80624
 H441 H 0.05711 0.25786 0.78972
 H442 H -0.02815 0.17254 0.74722
 H443 H -0.02706 0.11277 0.76387
 H444 H -0.03590 0.25292 0.70752
 H445 H -0.03895 0.31234 0.69110
 H446 H 0.01447 0.38846 0.74111
 H447 H 0.01891 0.32958 0.75702
 C448 C 0.86623 0.05162 0.13030
 C449 C 0.83133 0.05068 0.12022
 C450 C 0.81397 0.02499 0.10434
 C451 C 0.83228 0.00045 0.09847
 C452 C 0.86701 0.00119 0.10858
 C453 C 0.88429 0.02660 0.12469
 N454 N 0.77720 0.02352 0.09473
 N455 N 0.76116 0.00222 0.07974
 C456 C 0.72379 -0.00021 0.07031
 C457 C 0.71020 -0.02129 0.05305
 C458 C 0.67363 -0.02462 0.04355
 C459 C 0.64974 -0.00713 0.05128
 C460 C 0.66344 0.01388 0.06870
 C461 C 0.70018 0.01742 0.07811
 H462 H 0.87907 0.07192 0.14249
 H463 H 0.81756 0.06982 0.12485
 H464 H 0.81929 -0.01986 0.08630
 H465 H 0.87956 -0.01907 0.10406
 H466 H 0.72816 -0.03498 0.04689
 H467 H 0.66442 -0.04041 0.03004
 H468 H 0.64543 0.02712 0.07520
 H469 H 0.70986 0.03358 0.09153
 C470 C 0.17818 0.13322 0.43902
 C471 C 0.21260 0.16601 0.42905
 C472 C 0.21788 0.20715 0.42832
 C473 C 0.18843 0.21529 0.43781
 C474 C 0.15422 0.18270 0.44782
 C475 C 0.14848 0.14119 0.44847
 N476 N 0.25327 0.24013 0.41797
 N477 N 0.25792 0.27737 0.41600
 C478 C 0.29313 0.31100 0.40586
 C479 C 0.29430 0.35023 0.40352
 C480 C 0.32818 0.38389 0.39377
 C481 C 0.36173 0.37889 0.38629
 C482 C 0.36055 0.33944 0.38870
 C483 C 0.32647 0.30571 0.39836
 H484 H 0.17450 0.10157 0.43911
 H485 H 0.23507 0.15930 0.42179
 H486 H 0.19196 0.24688 0.43761
 H487 H 0.13257 0.19021 0.45528
 H488 H 0.26884 0.35471 0.40929
 H489 H 0.32847 0.41403 0.39233
 H490 H 0.38571 0.33454 0.38289
 H491 H 0.32625 0.27564 0.39999
 C492 C -0.00189 0.86169 0.75934
 C493 C -0.00163 0.83023 0.74832
 C494 C -0.02054 0.78809 0.75502
 C495 C -0.04088 0.77740 0.77277
 C496 C -0.04144 0.80879 0.78376
 C497 C -0.02143 0.85136 0.77726
 N498 N -0.01771 0.75712 0.74377
 N499 N -0.03118 0.71903 0.74968
 C500 C -0.02780 0.68819 0.73856
 C501 C -0.04178 0.64743 0.74631
 C502 C -0.03853 0.61668 0.73596
 C503 C -0.02128 0.62619 0.71757
 C504 C -0.00726 0.66723 0.70980
 C505 C -0.01045 0.69799 0.72021
 H506 H 0.01335 0.89415 0.75389
 H507 H 0.01398 0.83882 0.73464
 H508 H -0.05582 0.74499 0.77825
 H509 H -0.05637 0.80001 0.79759
 H510 H -0.05500 0.63957 0.76048
 H511 H -0.04904 0.58559 0.74245
 H512 H 0.00561 0.67537 0.69558
 H513 H 0.00050 0.72930 0.71388
   
