data_POSCAR
  _audit_creation_date              2014-09-24
  _audit_creation_method            'ToBaCCo'
  _symmetry_space_group_name_H-M    'P1'
  _symmetry_Int_Tables_number       1
  _symmetry_cell_setting            triclinic
  loop_
  _symmetry_equiv_pos_as_xyz
 x,y,z
_cell_length_a 35.6816
_cell_length_b 38.0396
_cell_length_c 36.8197
_cell_angle_alpha 91.871000
_cell_angle_beta 91.787300
_cell_angle_gamma 88.935100
loop_
  _atom_site_label
  _atom_site_type_symbol
  _atom_site_fract_x
  _atom_site_fract_y
  _atom_site_fract_z
C1 C 0.31913 0.37411 1.35427
 C2 C 0.33591 0.38276 1.32172
 C3 C 0.36997 0.36683 1.31133
 C4 C 0.38722 0.34186 1.33368
 C5 C 0.37114 0.33237 1.36633
 C6 C 0.33750 0.34924 1.37663
 H7 H 0.32161 0.40116 1.30405
 H8 H 0.41343 0.33037 1.32500
 H9 H 0.32603 0.34247 1.40221
 C10 C 1.14676 0.61621 0.87191
 C11 C 1.13488 0.64957 0.88516
 C12 C 1.10302 0.66643 0.87002
 C13 C 1.08269 0.64956 0.84169
 C14 C 1.09329 0.61607 0.82843
 C15 C 1.12520 0.59934 0.84387
 H16 H 1.15164 0.66307 0.90609
 H17 H 1.05849 0.66289 0.82954
 H18 H 1.13327 0.57359 0.83382
 C19 C 0.68433 -0.14103 0.13837
 C20 C 0.66320 -0.16747 0.12056
 C21 C 0.63172 -0.18135 0.13635
 C22 C 0.62074 -0.16823 0.17066
 C23 C 0.64141 -0.14144 0.18895
 C24 C 0.67318 -0.12828 0.17276
 H25 H 0.67158 -0.17780 0.09415
 H26 H 0.59654 -0.17891 0.18304
 H27 H 0.68934 -0.10860 0.18777
 C28 C -0.16242 1.12470 -0.37203
 C29 C -0.14867 1.11162 -0.33874
 C30 C -0.12080 1.12932 -0.31793
 C31 C -0.10632 1.16041 -0.33075
 C32 C -0.11855 1.17360 -0.36431
 C33 C -0.14676 1.15572 -0.38474
 H34 H -0.16093 1.08832 -0.32826
 H35 H -0.08516 1.17437 -0.31450
 H36 H -0.15690 1.16663 -0.40982
 C37 C 0.67579 0.66927 0.64149
 C38 C 0.65388 0.69834 0.63072
 C39 C 0.62293 0.71023 0.65112
 C40 C 0.61512 0.69275 0.68304
 C41 C 0.63694 0.66368 0.69416
 C42 C 0.66737 0.65237 0.67347
 H43 H 0.66181 0.71139 0.60660
 H44 H 0.59226 0.70228 0.69959
 H45 H 0.68478 0.63061 0.68272
 C46 C 0.84623 0.37367 0.09492
 C47 C 0.86749 0.34384 0.08410
 C48 C 0.90336 0.33700 0.10008
 C49 C 0.91719 0.36053 0.12726
 C50 C 0.89581 0.38974 0.13905
 C51 C 0.86075 0.39647 0.12250
 H52 H 0.85529 0.32612 0.06370
 H53 H 0.94464 0.35582 0.13981
 H54 H 0.84414 0.41846 0.13283
 C55 C 0.33999 0.12819 0.89860
 C56 C 0.34833 0.11260 0.86442
 C57 C 0.37836 0.12422 0.84438
 C58 C 0.39996 0.15249 0.85846
 C59 C 0.39169 0.16877 0.89224
 C60 C 0.36207 0.15618 0.91202
 H61 H 0.33147 0.09166 0.85255
 H62 H 0.42275 0.16206 0.84316
 H63 H 0.35587 0.16875 0.93808
 C64 C 0.17374 0.85392 0.38675
 C65 C 0.16547 0.87091 0.35394
 C66 C 0.13736 0.85936 0.32932
 C67 C 0.11671 0.82953 0.33617
 C68 C 0.12432 0.80808 0.36912
 C69 C 0.15461 0.82319 0.39421
 H70 H 0.18151 0.89321 0.34637
 H71 H 0.09560 0.82055 0.31638
 H72 H 0.16181 0.80942 0.41882
 Zn73 Zn -0.00400 0.95897 0.03528
 Zn74 Zn -0.03939 1.01689 -0.00644
 Zn75 Zn 0.03523 1.02798 0.03235
 Zn76 Zn 0.02784 0.97964 -0.03413
 O77 O 0.00510 0.99605 0.00688
 O78 O -0.05250 0.95481 0.04469
 O79 O -0.04117 1.06173 0.00740
 O80 O 0.04753 1.01402 0.07810
 O81 O -0.07908 0.99767 0.01324
 O82 O 0.02003 0.96226 0.07822
 O83 O 0.01323 1.07132 0.03643
 O84 O 0.07288 0.99778 -0.03803
 O85 O -0.04807 1.01706 -0.05461
 O86 O 0.07927 1.03393 0.01019
 O87 O 0.00248 0.98979 -0.07544
 O88 O 0.03520 0.93308 -0.03539
 O89 O 0.01076 0.91759 0.01601
 C90 C -0.08135 0.97223 0.03440
 C91 C -0.01867 1.08209 0.02449
 C92 C 0.04037 0.98562 0.09368
 C93 C 0.09180 1.01977 -0.01891
 C94 C -0.02859 1.00574 -0.08090
 C95 C 0.02714 0.90975 -0.01323
 Zn96 Zn 0.46838 0.02201 0.45700
 Zn97 Zn 0.46940 -0.00742 0.53182
 Zn98 Zn 0.54041 -0.00356 0.48930
 Zn99 Zn 0.50430 0.06218 0.51829
 O100 O 0.49557 0.01814 0.49931
 O101 O 0.42347 0.00341 0.45944
 O102 O 0.49431 -0.04754 0.54390
 O103 O 0.54430 -0.01743 0.44238
 O104 O 0.42336 -0.02024 0.51369
 O105 O 0.48980 0.00055 0.41885
 O106 O 0.54649 -0.04294 0.51325
 O107 O 0.55303 0.07156 0.52294
 O108 O 0.46154 0.01723 0.57418
 O109 O 0.58054 0.02294 0.50142
 O110 O 0.48644 0.06851 0.56264
 O111 O 0.48458 0.09660 0.49127
 O112 O 0.45991 0.06631 0.44447
 C113 C 0.40728 -0.01355 0.48327
 C114 C 0.52627 -0.05939 0.53442
 C115 C 0.52120 -0.01512 0.41560
 C116 C 0.58235 0.05386 0.51541
 C117 C 0.46985 0.04869 0.58374
 C118 C 0.46738 0.09533 0.46061
 Zn119 Zn 1.00480 0.50187 0.45032
 Zn120 Zn 1.00553 0.45752 0.51625
 Zn121 Zn 0.97284 0.53047 0.51933
 Zn122 Zn 0.93321 0.47329 0.47746
 O123 O 0.97913 0.49081 0.49078
 O124 O 1.04866 0.47798 0.44705
 O125 O 1.01838 0.47238 0.56127
 O126 O 0.99327 0.56847 0.50098
 O127 O 1.04831 0.44473 0.49534
 O128 O 1.01598 0.54791 0.44903
 O129 O 0.99350 0.52612 0.56383
 O130 O 0.89501 0.49963 0.49439
 O131 O 0.98010 0.41786 0.52172
 O132 O 0.92455 0.54175 0.52599
 O133 O 0.92609 0.42994 0.49343
 O134 O 0.92657 0.46955 0.42935
 O135 O 0.97907 0.49097 0.40899
 C136 C 1.06381 0.45474 0.46703
 C137 C 1.01172 0.50107 0.57848
 C138 C 1.01021 0.57313 0.47178
 C139 C 0.89447 0.52727 0.51458
 C140 C 0.94716 0.40926 0.51149
 C141 C 0.94722 0.47708 0.40341
 Zn142 Zn 0.46934 0.49568 0.94756
 Zn143 Zn 0.45987 0.52948 1.02058
 Zn144 Zn 0.50638 0.46298 1.01264
 Zn145 Zn 0.53339 0.53164 0.98582
 O146 O 0.49233 0.50477 0.99171
 O147 O 0.42184 0.51134 0.94513
 O148 O 0.44964 0.50634 1.05981
 O149 O 0.49441 0.42505 0.98407
 O150 O 0.41543 0.53829 0.99874
 O151 O 0.46776 0.44984 0.93593
 O152 O 0.48386 0.45721 1.05540
 O153 O 0.57569 0.50961 0.99945
 O154 O 0.47729 0.57087 1.03738
 O155 O 0.55647 0.45957 1.02122
 O156 O 0.53261 0.57216 1.01218
 O157 O 0.53889 0.54348 0.93965
 O158 O 0.49175 0.51604 0.91122
 C159 C 0.40229 0.52905 0.96761
 C160 C 0.46049 0.47705 1.07206
 C161 C 0.47856 0.42271 0.95269
 C162 C 0.58256 0.48037 1.01402
 C163 C 0.50808 0.58588 1.03275
 C164 C 0.52002 0.53568 0.91082
 C165 C 1.28449 0.39046 0.36280
 C166 C 1.26229 0.38165 0.39180
 C167 C 1.22570 0.39890 0.39962
 C168 C 1.20007 0.38070 0.41980
 C169 C 1.16557 0.39604 0.42865
 C170 C 1.15611 0.43033 0.41796
 C171 C 1.18151 0.44845 0.39740
 C172 C 1.21612 0.43306 0.38852
 C173 C 1.11997 0.44755 0.42748
 C174 C 1.10002 0.43838 0.45767
 H175 H 1.27009 0.35967 0.40839
 H176 H 1.20665 0.35432 0.42857
 H177 H 1.14631 0.38068 0.44342
 H178 H 1.17485 0.47485 0.38877
 H179 H 1.23544 0.44834 0.37371
 H180 H 1.10955 0.46901 0.41113
 H181 H 1.27352 0.41023 0.34464
 H182 H 1.11143 0.41878 0.47578
 C183 C 0.18032 0.60169 0.88658
 C184 C 0.19913 0.57191 0.87235
 C185 C 0.23596 0.55988 0.88718
 C186 C 0.26129 0.54309 0.86368
 C187 C 0.29689 0.53264 0.87647
 C188 C 0.30781 0.53855 0.91307
 C189 C 0.28179 0.55407 0.93699
 C190 C 0.24625 0.56467 0.92414
 C191 C 0.34628 0.52793 0.92499
 C192 C 0.36354 0.53937 0.95769
 H193 H 0.18931 0.55897 0.84742
 H194 H 0.25382 0.53871 0.83517
 H195 H 0.31615 0.52033 0.85755
 H196 H 0.28834 0.55783 0.96568
 H197 H 0.22678 0.57620 0.94328
 H198 H 0.36233 0.51140 0.90640
 H199 H 0.19388 0.61594 0.90914
 H200 H 0.34895 0.55673 0.97652
 C201 C -0.28347 0.87053 0.12155
 C202 C -0.26237 0.89961 0.13321
 C203 C -0.22717 0.90812 0.11569
 C204 C -0.21751 0.94339 0.11238
 C205 C -0.18416 0.95195 0.09608
 C206 C -0.15963 0.92523 0.08341
 C207 C -0.16885 0.88997 0.08762
 C208 C -0.20245 0.88143 0.10336
 C209 C -0.12351 0.93333 0.06742
 C210 C -0.11826 0.96343 0.04775
 H211 H -0.27265 0.91807 0.15366
 H212 H -0.23591 0.96433 0.12223
 H213 H -0.17725 0.97940 0.09422
 H214 H -0.15005 0.86900 0.07859
 H215 H -0.20868 0.85398 0.10654
 H216 H -0.10067 0.91434 0.07021
 H217 H -0.27472 0.85637 0.09712
 H218 H -0.14172 0.98103 0.04190
 C219 C 0.80798 0.10664 0.60960
 C220 C 0.78881 0.11766 0.57800
 C221 C 0.75522 0.09958 0.56248
 C222 C 0.72794 0.11939 0.54351
 C223 C 0.69488 0.10387 0.53018
 C224 C 0.68853 0.06802 0.53534
 C225 C 0.71667 0.04774 0.55256
 C226 C 0.74968 0.06334 0.56617
 C227 C 0.65275 0.05144 0.52354
 C228 C 0.61879 0.07022 0.52354
 H229 H 0.79570 0.14201 0.56580
 H230 H 0.73183 0.14719 0.53968
 H231 H 0.67440 0.12001 0.51583
 H232 H 0.71271 0.01993 0.55626
 H233 H 0.77073 0.04694 0.57939
 H234 H 0.65258 0.02329 0.51803
 H235 H 0.79801 0.08327 0.62196
 H236 H 0.61838 0.09766 0.53234
 C237 C 0.38673 0.30607 0.38868
 C238 C 0.41778 0.28465 0.38004
 C239 C 0.42965 0.25405 0.40148
 C240 C 0.44646 0.22519 0.38332
 C241 C 0.45663 0.19502 0.40199
 C242 C 0.45046 0.19325 0.43938
 C243 C 0.43535 0.22270 0.45800
 C244 C 0.42476 0.25287 0.43919
 C245 C 0.45992 0.16103 0.45919
 C246 C 0.45623 0.12780 0.44253
 H247 H 0.43181 0.28727 0.35479
 H248 H 0.45110 0.22571 0.35440
 H249 H 0.46950 0.17320 0.38712
 H250 H 0.43105 0.22209 0.48697
 H251 H 0.41306 0.27517 0.45422
 H252 H 0.46822 0.16340 0.48771
 H253 H 0.37227 0.30054 0.41323
 H254 H 0.44451 0.12533 0.41510
 C255 C 0.89761 0.20702 0.62398
 C256 C 0.89579 0.21852 0.58821
 C257 C 0.91083 0.25259 0.57722
 C258 C 0.89661 0.26742 0.54508
 C259 C 0.90976 0.29956 0.53373
 C260 C 0.93768 0.31759 0.55429
 C261 C 0.95268 0.30226 0.58586
 C262 C 0.93942 0.27018 0.59730
 C263 C 0.95239 0.35178 0.54334
 C264 C 0.93252 0.37479 0.52066
 H265 H 0.88193 0.20261 0.56717
 H266 H 0.87504 0.25416 0.52876
 H267 H 0.89835 0.30979 0.50858
 H268 H 0.97466 0.31527 0.60186
 H269 H 0.95216 0.25912 0.62148
 H270 H 0.97913 0.36001 0.55518
 H271 H 0.91157 0.22316 0.64480
 H272 H 0.90468 0.36829 0.51044
 C273 C 0.09170 0.70270 -0.11910
 C274 C 0.10199 0.71906 -0.08595
 C275 C 0.09118 0.75594 -0.07722
 C276 C 0.08576 0.76656 -0.04094
 C277 C 0.07464 0.80112 -0.03213
 C278 C 0.06903 0.82573 -0.05960
 C279 C 0.07589 0.81540 -0.09570
 C280 C 0.08680 0.78085 -0.10450
 C281 C 0.05719 0.86248 -0.05162
 C282 C 0.03743 0.87281 -0.02090
 H283 H 0.11612 0.70405 -0.06497
 H284 H 0.08971 0.74796 -0.01942
 H285 H 0.07103 0.80849 -0.00382
 H286 H 0.07251 0.83406 -0.11722
 H287 H 0.09219 0.77387 -0.13260
 H288 H 0.06306 0.88195 -0.07143
 H289 H 0.07322 0.71676 -0.13772
 H290 H 0.02928 0.85356 -0.00178
 C291 C 0.61170 0.79041 1.11564
 C292 C 0.59294 0.76319 1.13145
 C293 C 0.58093 0.73146 1.11001
 C294 C 0.55088 0.71183 1.12156
 C295 C 0.53978 0.68123 1.10223
 C296 C 0.55886 0.66956 1.07101
 C297 C 0.58935 0.68887 1.05997
 C298 C 0.60032 0.71939 1.07917
 C299 C 0.54930 0.63673 1.05022
 C300 C 0.51523 0.61960 1.05228
 H301 H 0.58787 0.76443 1.16029
 H302 H 0.53598 0.72017 1.14564
 H303 H 0.51691 0.66655 1.11239
 H304 H 0.60499 0.68016 1.03648
 H305 H 0.62467 0.73283 1.07025
 H306 H 0.57004 0.62577 1.03195
 H307 H 0.61500 0.78932 1.08649
 H308 H 0.49321 0.63067 1.06887
 C309 C 0.38796 0.37410 1.27665
 C310 C 0.38017 0.40368 1.25614
 C311 C 0.39859 0.41002 1.22155
 C312 C 0.37999 0.43144 1.19627
 C313 C 0.39661 0.43888 1.16368
 C314 C 0.43266 0.42559 1.15594
 C315 C 0.45106 0.40361 1.18087
 C316 C 0.43437 0.39608 1.21355
 C317 C 0.45152 0.43469 1.12235
 C318 C 0.44450 0.46685 1.10627
 H319 H 0.35922 0.42273 1.26492
 H320 H 0.35236 0.44230 1.20167
 H321 H 0.38095 0.45488 1.14452
 H322 H 0.47880 0.39302 1.17547
 H323 H 0.45007 0.38018 1.23273
 H324 H 0.47231 0.41665 1.11113
 H325 H 0.40858 0.35504 1.26708
 H326 H 0.42594 0.48593 1.11922
 C327 C 0.63191 -0.12713 0.22550
 C328 C 0.59593 -0.12694 0.23939
 C329 C 0.58708 -0.10917 0.27464
 C330 C 0.55055 -0.09624 0.28010
 C331 C 0.54161 -0.07816 0.31248
 C332 C 0.56915 -0.07273 0.34025
 C333 C 0.60532 -0.08680 0.33526
 C334 C 0.61425 -0.10483 0.30289
 C335 C 0.56108 -0.05375 0.37509
 C336 C 0.53009 -0.03132 0.37996
 H337 H 0.57289 -0.13705 0.22257
 H338 H 0.52894 -0.09976 0.25904
 H339 H 0.51301 -0.06901 0.31562
 H340 H 0.62686 -0.08369 0.35646
 H341 H 0.64235 -0.11559 0.30033
 H342 H 0.58068 -0.05730 0.39780
 H343 H 0.65378 -0.11327 0.24077
 H344 H 0.51083 -0.02610 0.35746
 C345 C -0.10810 1.11731 -0.28161
 C346 C -0.10913 1.08225 -0.27149
 C347 C -0.09860 1.07101 -0.23434
 C348 C -0.08491 1.03662 -0.22929
 C349 C -0.07512 1.02520 -0.19444
 C350 C -0.07935 1.04794 -0.16388
 C351 C -0.09407 1.08196 -0.16888
 C352 C -0.10342 1.09350 -0.20371
 C353 C -0.06933 1.03708 -0.12650
 C354 C -0.04144 1.01200 -0.11858
 H355 H -0.11613 1.06204 -0.29182
 H356 H -0.08158 1.01861 -0.25242
 H357 H -0.06488 0.99847 -0.19150
 H358 H -0.09807 1.09981 -0.14573
 H359 H -0.11509 1.11977 -0.20645
 H360 H -0.08199 1.05174 -0.10417
 H361 H -0.09618 1.13670 -0.26263
 H362 H -0.02614 0.99913 -0.14034
 C363 C 1.07154 0.60107 0.79684
 C364 C 1.07689 0.56734 0.78152
 C365 C 1.05916 0.55661 0.74621
 C366 C 1.07835 0.53273 0.72337
 C367 C 1.06418 0.52450 0.68842
 C368 C 1.03011 0.53970 0.67590
 C369 C 1.01027 0.56258 0.69926
 C370 C 1.02443 0.57077 0.73420
 C371 C 1.01544 0.53384 0.63829
 C372 C 1.02571 0.50503 0.61624
 H373 H 1.09714 0.54928 0.79335
 H374 H 1.10513 0.52145 0.73208
 H375 H 1.08073 0.50731 0.67102
 H376 H 0.98385 0.57441 0.69033
 H377 H 1.00818 0.58829 0.75156
 H378 H 0.99511 0.55275 0.62776
 H379 H 1.05170 0.61868 0.78357
 H380 H 1.04355 0.48426 0.62692
 C381 C 0.70821 0.65784 0.61963
 C382 C 0.72090 0.62290 0.61762
 C383 C 0.75444 0.61106 0.59763
 C384 C 0.75790 0.57550 0.58673
 C385 C 0.79003 0.56285 0.56953
 C386 C 0.81958 0.58559 0.56308
 C387 C 0.81622 0.62112 0.57417
 C388 C 0.78394 0.63383 0.59116
 C389 C 0.85512 0.57267 0.54731
 C390 C 0.85802 0.54194 0.52571
 H391 H 0.70479 0.60298 0.63015
 H392 H 0.73580 0.55733 0.59192
 H393 H 0.79204 0.53507 0.56250
 H394 H 0.83884 0.63903 0.57005
 H395 H 0.78280 0.66117 0.60016
 H396 H 0.88005 0.58798 0.55304
 H397 H 0.72101 0.67714 0.60321
 H398 H 0.83310 0.52769 0.51727
 C399 C 0.80784 0.37897 1.07901
 C400 C 0.78937 0.41172 1.07962
 C401 C 0.74966 0.41781 1.06797
 C402 C 0.73680 0.45269 1.06494
 C403 C 0.69940 0.46024 1.05557
 C404 C 0.67381 0.43295 1.04866
 C405 C 0.68642 0.39802 1.05225
 C406 C 0.72397 0.39043 1.06176
 C407 C 0.63385 0.44030 1.03879
 C408 C 0.62202 0.47145 1.02265
 H409 H 0.80497 0.43467 1.08868
 H410 H 0.75572 0.47434 1.07025
 H411 H 0.69066 0.48756 1.05464
 H412 H 0.66715 0.37654 1.04765
 H413 H 0.73233 0.36321 1.06480
 H414 H 0.61343 0.42031 1.04337
 H415 H 0.79431 0.35647 1.06601
 H416 H 0.64252 0.49040 1.01541
 C417 C 0.30991 1.11781 -0.08043
 C418 C 0.28754 1.08853 -0.08829
 C419 C 0.25449 1.08003 -0.06700
 C420 C 0.24210 1.04525 -0.06808
 C421 C 0.20960 1.03641 -0.05060
 C422 C 0.18828 1.06240 -0.03210
 C423 C 0.20128 1.09700 -0.02989
 C424 C 0.23393 1.10587 -0.04740
 C425 C 0.15195 1.05416 -0.01616
 C426 C 0.12903 1.02815 -0.03181
 H427 H 0.29493 1.06985 -0.10971
 H428 H 0.25752 1.02481 -0.08277
 H429 H 0.20120 1.00921 -0.05179
 H430 H 0.18540 1.11744 -0.01572
 H431 H 0.24208 1.13313 -0.04655
 H432 H 0.14172 1.07058 0.00612
 H433 H 0.30424 1.13319 -0.05587
 H434 H 0.13790 1.01393 -0.05610
 C435 C 0.20173 -0.13410 0.41197
 C436 C 0.21799 -0.10086 0.41158
 C437 C 0.24974 -0.08955 0.43591
 C438 C 0.25589 -0.05340 0.44109
 C439 C 0.28779 -0.04133 0.46017
 C440 C 0.31469 -0.06521 0.47409
 C441 C 0.30766 -0.10137 0.47073
 C442 C 0.27558 -0.11353 0.45159
 C443 C 0.35123 -0.05282 0.48948
 C444 C 0.36883 -0.02471 0.47413
 H445 H 0.20618 -0.08119 0.39382
 H446 H 0.23634 -0.03435 0.42959
 H447 H 0.29177 -0.01323 0.46326
 H448 H 0.32795 -0.12027 0.48129
 H449 H 0.27212 -0.14160 0.44772
 H450 H 0.36638 -0.06836 0.50944
 H451 H 0.21005 -0.15104 0.43400
 H452 H 0.35515 -0.01212 0.45119
 C453 C 0.59981 -0.26083 0.64147
 C454 C 0.60191 -0.24280 0.60906
 C455 C 0.57872 -0.21127 0.60027
 C456 C 0.57658 -0.20102 0.56402
 C457 C 0.55769 -0.17010 0.55452
 C458 C 0.54070 -0.14846 0.58118
 C459 C 0.54133 -0.15927 0.61722
 C460 C 0.56051 -0.19024 0.62686
 C461 C 0.52393 -0.11397 0.57179
 C462 C 0.54103 -0.09334 0.54675
 H463 H 0.62028 -0.25245 0.58810
 H464 H 0.59008 -0.21674 0.54295
 H465 H 0.55675 -0.16295 0.52627
 H466 H 0.52835 -0.14299 0.63817
 H467 H 0.56200 -0.19671 0.65523
 H468 H 0.49983 -0.10384 0.58621
 H469 H 0.57818 -0.25268 0.66006
 H470 H 0.56724 -0.10249 0.53536
 C471 C 1.10164 0.77057 0.37583
 C472 C 1.10364 0.75376 0.40886
 C473 C 1.08583 0.71951 0.41439
 C474 C 1.08538 0.70653 0.44961
 C475 C 1.06991 0.67384 0.45582
 C476 C 1.05457 0.65324 0.42681
 C477 C 1.05532 0.66604 0.39149
 C478 C 1.07050 0.69897 0.38531
 C479 C 1.03914 0.61790 0.43245
 C480 C 1.02375 0.60868 0.46517
 H481 H 1.11890 0.76605 0.43164
 H482 H 1.09735 0.72164 0.47244
 H483 H 1.07092 0.66445 0.48326
 H484 H 1.04403 0.65056 0.36862
 H485 H 1.07071 0.70803 0.35775
 H486 H 1.03880 0.59898 0.40980
 H487 H 1.11361 0.78941 0.37333
 H488 H 1.02091 0.62835 0.48687
 C489 C -0.07450 1.30696 0.09152
 C490 C -0.08364 1.28101 0.06512
 C491 C -0.06168 1.24777 0.06053
 C492 C -0.06508 1.22876 0.02738
 C493 C -0.04742 1.19595 0.02283
 C494 C -0.02634 1.18114 0.05161
 C495 C -0.02160 1.20064 0.08431
 C496 C -0.03939 1.23352 0.08895
 C497 C -0.01093 1.14482 0.04844
 C498 C -0.03104 1.11889 0.02924
 H499 H -0.10718 1.28482 0.04644
 H500 H -0.08188 1.23914 0.00503
 H501 H -0.05068 1.18200 -0.00315
 H502 H -0.00549 1.18974 0.10683
 H503 H -0.03677 1.24685 0.11526
 H504 H 0.01453 1.13785 0.06352
 H505 H -0.04827 1.30367 0.10671
 H506 H -0.05818 1.12569 0.01715
 C507 C 0.41289 0.19903 0.90819
 C508 C 0.43245 0.22265 0.88788
 C509 C 0.44790 0.25584 0.90399
 C510 C 0.45236 0.28440 0.88146
 C511 C 0.46406 0.31694 0.89604
 C512 C 0.47156 0.32163 0.93365
 C513 C 0.46920 0.29251 0.95584
 C514 C 0.45753 0.25994 0.94125
 C515 C 0.48149 0.35632 0.95062
 C516 C 0.47171 0.38817 0.93474
 H517 H 0.43277 0.21897 0.85863
 H518 H 0.44593 0.28179 0.85256
 H519 H 0.46711 0.33822 0.87766
 H520 H 0.47563 0.29514 0.98474
 H521 H 0.45605 0.23820 0.95932
 H522 H 0.49443 0.35687 0.97765
 H523 H 0.40940 0.20497 0.93684
 H524 H 0.45685 0.38821 0.90870
 C525 C 0.62941 0.64528 0.72787
 C526 C 0.59374 0.64395 0.74222
 C527 C 0.58592 0.62527 0.77566
 C528 C 0.54936 0.61396 0.78082
 C529 C 0.54070 0.59655 0.81220
 C530 C 0.56855 0.59022 0.83921
 C531 C 0.60492 0.60227 0.83445
 C532 C 0.61363 0.61956 0.80296
 C533 C 0.56015 0.57276 0.87324
 C534 C 0.53021 0.55005 0.87602
 H535 H 0.57005 0.65504 0.72717
 H536 H 0.52738 0.61861 0.76048
 H537 H 0.51200 0.58889 0.81547
 H538 H 0.62667 0.59831 0.85518
 H539 H 0.64183 0.62899 0.80052
 H540 H 0.57852 0.57760 0.89680
 H541 H 0.65223 0.63031 0.74024
 H542 H 0.51315 0.54290 0.85221
 C543 C 0.38493 0.10694 0.80824
 C544 C 0.41892 0.10756 0.79034
 C545 C 0.42493 0.09062 0.75395
 C546 C 0.45488 0.10184 0.73368
 C547 C 0.46153 0.08708 0.69916
 C548 C 0.43830 0.06057 0.68396
 C549 C 0.40915 0.04840 0.70470
 C550 C 0.40240 0.06327 0.73927
 C551 C 0.44442 0.04484 0.64707
 C552 C 0.46110 0.06350 0.62003
 H553 H 0.44216 0.12175 0.80290
 H554 H 0.47314 0.12234 0.74452
 H555 H 0.48526 0.09622 0.68476
 H556 H 0.39132 0.02753 0.69397
 H557 H 0.37990 0.05283 0.75442
 H558 H 0.43443 0.01857 0.64069
 H559 H 0.36176 0.09271 0.79559
 H560 H 0.46853 0.09065 0.62553
 C561 C 0.13200 0.87733 0.29452
 C562 C 0.09703 0.88985 0.28224
 C563 C 0.09156 0.90622 0.24647
 C564 C 0.06600 0.93445 0.24236
 C565 C 0.05881 0.94868 0.20811
 C566 C 0.07628 0.93410 0.17728
 C567 C 0.10188 0.90597 0.18147
 C568 C 0.10988 0.89247 0.21577
 C569 C 0.06490 0.94453 0.14016
 C570 C 0.05593 0.97896 0.13045
 H571 H 0.07336 0.88873 0.29987
 H572 H 0.05133 0.94525 0.26562
 H573 H 0.03831 0.96986 0.20546
 H574 H 0.11522 0.89399 0.15799
 H575 H 0.12917 0.87027 0.21801
 H576 H 0.06408 0.92390 0.11914
 H577 H 0.15663 0.88278 0.27932
 H578 H 0.06097 1.00080 0.14947
 C579 C 0.90866 0.41233 0.17015
 C580 C 0.92691 0.39793 0.20034
 C581 C 0.93420 0.41823 0.23447
 C582 C 0.93206 0.40099 0.26734
 C583 C 0.93817 0.41927 0.30032
 C584 C 0.94724 0.45507 0.30099
 C585 C 0.95063 0.47215 0.26810
 C586 C 0.94368 0.45397 0.23497
 C587 C 0.95487 0.47403 0.33590
 C588 C 0.93434 0.46727 0.36636
 H589 H 0.93171 0.36973 0.20066
 H590 H 0.92521 0.37337 0.26751
 H591 H 0.93651 0.40519 0.32529
 H592 H 0.95823 0.49958 0.26811
 H593 H 0.94633 0.46764 0.20987
 H594 H 0.97762 0.49253 0.33789
 H595 H 0.89916 0.43954 0.17149
 H596 H 0.90947 0.45138 0.36324
   
