data_POSCAR
  _audit_creation_date              2014-09-24
  _audit_creation_method            'ToBaCCo'
  _symmetry_space_group_name_H-M    'P1'
  _symmetry_Int_Tables_number       1
  _symmetry_cell_setting            triclinic
  loop_
  _symmetry_equiv_pos_as_xyz
 x,y,z
_cell_length_a 45.5234
_cell_length_b 45.1594
_cell_length_c 44.3304
_cell_angle_alpha 90.304000
_cell_angle_beta 89.711600
_cell_angle_gamma 89.822800
loop_
  _atom_site_label
  _atom_site_type_symbol
  _atom_site_fract_x
  _atom_site_fract_y
  _atom_site_fract_z
C1 C 0.29089 0.29446 0.24096
 H2 H 0.29062 0.29635 0.26530
 C3 C 0.30951 0.31240 0.22396
 H4 H 0.32324 0.32840 0.23541
 C5 C 0.27303 0.27136 0.19661
 H6 H 0.25926 0.25491 0.18606
 C7 C 0.29135 0.28883 0.17872
 H8 H 0.29141 0.28562 0.15450
 N9 N 0.27289 0.27469 0.22713
 C10 C 0.20534 0.26145 0.29589
 H11 H 0.20661 0.23770 0.29876
 C12 C 0.18598 0.27816 0.31367
 H13 H 0.17290 0.26704 0.33059
 C14 C 0.22145 0.30457 0.27065
 H15 H 0.23490 0.31473 0.25347
 C16 C 0.20208 0.32208 0.28759
 H17 H 0.20089 0.34558 0.28305
 Zn18 Zn 0.24901 0.25091 0.25225
 N19 N 0.22306 0.27489 0.27537
 C20 C 0.27376 0.23185 0.30803
 N21 N 0.27467 0.22919 0.27745
 C22 C 0.29484 0.21144 0.26355
 C23 C 0.31452 0.19472 0.28052
 C24 C 0.29300 0.21545 0.32588
 C25 C 0.20645 0.23715 0.20914
 C26 C 0.18876 0.21915 0.19115
 C27 C 0.21010 0.17624 0.21498
 C28 C 0.22751 0.19507 0.23238
 N29 N 0.22570 0.22492 0.22887
 H30 H 0.25832 0.24682 0.31869
 H31 H 0.29540 0.21010 0.23918
 H32 H 0.32996 0.18022 0.26903
 H33 H 0.29201 0.21790 0.35018
 H34 H 0.20513 0.26099 0.20713
 H35 H 0.17421 0.22936 0.17498
 H36 H 0.21170 0.15256 0.21831
 H37 H 0.24225 0.18577 0.24885
 C38 C 0.18421 0.30899 0.30975
 C39 C 0.30988 0.30975 0.19237
 C40 C 0.19054 0.18820 0.19383
 C41 C 0.31362 0.19645 0.31215
 C42 C 0.80613 0.77151 0.21971
 H43 H 0.81612 0.75558 0.23450
 C44 C 0.82411 0.78791 0.20051
 H45 H 0.84756 0.78421 0.20165
 C46 C 0.76401 0.79677 0.20237
 H47 H 0.74062 0.80060 0.20345
 C48 C 0.78122 0.81417 0.18327
 H49 H 0.77016 0.83008 0.16910
 N50 N 0.77656 0.77580 0.22013
 C51 C 0.70823 0.76350 0.28862
 H52 H 0.70676 0.73959 0.28842
 C53 C 0.68953 0.78013 0.30719
 H54 H 0.67408 0.76864 0.32156
 C55 C 0.73119 0.80710 0.27091
 H56 H 0.74778 0.81756 0.25718
 C57 C 0.71252 0.82463 0.28866
 H58 H 0.71455 0.84846 0.28745
 Zn59 Zn 0.75265 0.75247 0.24650
 N60 N 0.72853 0.77712 0.27095
 C61 C 0.77799 0.73438 0.30195
 N62 N 0.77725 0.72916 0.27170
 C63 C 0.79407 0.70751 0.25885
 C64 C 0.81255 0.69014 0.27652
 C65 C 0.79606 0.71739 0.32051
 C66 C 0.71063 0.73849 0.20156
 C67 C 0.69240 0.72016 0.18448
 C68 C 0.70846 0.67858 0.21419
 C69 C 0.72641 0.69769 0.23065
 N70 N 0.72766 0.72701 0.22379
 H71 H 0.76479 0.75190 0.31175
 H72 H 0.79310 0.70377 0.23474
 H73 H 0.82556 0.67286 0.26588
 H74 H 0.79662 0.72206 0.34449
 H75 H 0.71108 0.76187 0.19694
 H76 H 0.67962 0.72970 0.16642
 H77 H 0.70770 0.65538 0.22020
 H78 H 0.73899 0.68901 0.24920
 C79 C 0.69130 0.81122 0.30725
 C80 C 0.81190 0.80985 0.18178
 C81 C 0.69131 0.68970 0.19056
 C82 C 0.81371 0.69498 0.30779
 C83 C 0.78903 0.29374 0.73789
 H84 H 0.78902 0.29670 0.76213
 C85 C 0.80693 0.31143 0.71980
 H86 H 0.82077 0.32799 0.73025
 C87 C 0.77152 0.26799 0.69490
 H88 H 0.75804 0.25075 0.68530
 C89 C 0.78933 0.28495 0.67600
 H90 H 0.78895 0.28098 0.65190
 N91 N 0.77145 0.27285 0.72522
 C92 C 0.70465 0.26006 0.79506
 H93 H 0.70581 0.23631 0.79790
 C94 C 0.68548 0.27684 0.81300
 H95 H 0.67249 0.26577 0.83002
 C96 C 0.72068 0.30312 0.76966
 H97 H 0.73397 0.31325 0.75234
 C98 C 0.70150 0.32070 0.78676
 H99 H 0.70034 0.34419 0.78222
 Zn100 Zn 0.74821 0.24937 0.75130
 N101 N 0.72232 0.27345 0.77445
 C102 C 0.77266 0.22915 0.80687
 N103 N 0.77441 0.22809 0.77631
 C104 C 0.79565 0.21199 0.76220
 C105 C 0.81580 0.19548 0.77881
 C106 C 0.79198 0.21259 0.82446
 C107 C 0.70486 0.23463 0.70949
 C108 C 0.68692 0.21623 0.69220
 C109 C 0.70969 0.17381 0.71557
 C110 C 0.72733 0.19304 0.73228
 N111 N 0.72484 0.22283 0.72872
 H112 H 0.75645 0.24303 0.81783
 H113 H 0.79666 0.21165 0.73781
 H114 H 0.83113 0.18196 0.76611
 H115 H 0.79011 0.21519 0.84864
 H116 H 0.70312 0.25843 0.70737
 H117 H 0.67173 0.22612 0.67644
 H118 H 0.71180 0.15018 0.71897
 H119 H 0.74281 0.18410 0.74825
 C120 C 0.68382 0.30769 0.80913
 C121 C 0.80720 0.30711 0.68843
 C122 C 0.68924 0.18533 0.69505
 C123 C 0.81422 0.19497 0.81075
 C124 C 0.30444 0.77006 0.72294
 H125 H 0.31462 0.75648 0.73989
 C126 C 0.32229 0.78656 0.70368
 H127 H 0.34594 0.78524 0.70597
 C128 C 0.26168 0.78960 0.70022
 H129 H 0.23811 0.79142 0.69931
 C130 C 0.27873 0.80673 0.68072
 H131 H 0.26799 0.82094 0.66451
 N132 N 0.27464 0.77147 0.72074
 C133 C 0.20725 0.76018 0.79036
 H134 H 0.20628 0.73627 0.79142
 C135 C 0.18870 0.77734 0.80857
 H136 H 0.17387 0.76629 0.82397
 C137 C 0.22873 0.80329 0.76966
 H138 H 0.24454 0.81334 0.75467
 C139 C 0.21018 0.82130 0.78702
 H140 H 0.21158 0.84507 0.78447
 Zn141 Zn 0.25108 0.74830 0.74761
 N142 N 0.22687 0.77331 0.77153
 C143 C 0.27634 0.73057 0.80336
 N144 N 0.27625 0.72580 0.77302
 C145 C 0.29441 0.70533 0.76008
 C146 C 0.31338 0.68851 0.77777
 C147 C 0.29490 0.71413 0.82193
 C148 C 0.20572 0.73417 0.70667
 C149 C 0.18724 0.71591 0.68981
 C150 C 0.20942 0.67341 0.71342
 C151 C 0.22761 0.69249 0.72966
 N152 N 0.22600 0.72231 0.72557
 H153 H 0.26224 0.74731 0.81325
 H154 H 0.29414 0.70211 0.73588
 H155 H 0.32736 0.67208 0.76703
 H156 H 0.29486 0.71842 0.84599
 H157 H 0.20354 0.75786 0.70480
 H158 H 0.17190 0.72594 0.67430
 H159 H 0.21101 0.64980 0.71723
 H160 H 0.24269 0.68328 0.74580
 C161 C 0.18983 0.80842 0.80699
 C162 C 0.30945 0.80517 0.68221
 C163 C 0.18909 0.68503 0.69288
 C164 C 0.31375 0.69278 0.80915
 C165 C 0.02757 0.05612 0.01964
 H166 H 0.01577 0.06656 0.00150
 C167 C 0.04529 0.07345 0.03830
 H168 H 0.04670 0.09705 0.03440
 C169 C 0.04149 0.01277 0.04580
 H170 H 0.04046 -0.01088 0.04848
 C171 C 0.05964 0.02922 0.06481
 H172 H 0.07186 0.01799 0.08228
 N173 N 0.02572 0.02632 0.02377
 C174 C 0.01253 -0.04144 -0.04543
 H175 H -0.01120 -0.04233 -0.04626
 C176 C 0.02931 -0.06037 -0.06364
 H177 H 0.01815 -0.07535 -0.07885
 C178 C 0.05557 -0.01998 -0.02512
 H179 H 0.06573 -0.00414 -0.01014
 C180 C 0.07321 -0.03891 -0.04249
 H181 H 0.09681 -0.03769 -0.04005
 Zn182 Zn 0.00172 0.00325 -0.00263
 N183 N 0.02581 -0.02156 -0.02689
 C184 C -0.01849 0.02741 -0.05802
 N185 N -0.02072 0.02906 -0.02745
 C186 C -0.03874 0.04927 -0.01390
 C187 C -0.05562 0.06861 -0.03118
 C188 C -0.03529 0.04604 -0.07618
 C189 C -0.01165 -0.04441 0.03555
 C190 C -0.02925 -0.06357 0.05228
 C191 C -0.07200 -0.03703 0.03501
 C192 C -0.05351 -0.01810 0.01891
 N193 N -0.02384 -0.02174 0.01983
 H194 H -0.00378 0.01159 -0.06849
 H195 H -0.03986 0.05045 0.01047
 H196 H -0.06936 0.08481 -0.01980
 H197 H -0.03370 0.04369 -0.10044
 H198 H 0.01177 -0.04807 0.03469
 H199 H -0.01882 -0.08089 0.06522
 H200 H -0.09553 -0.03393 0.03349
 H201 H -0.06307 -0.00083 0.00538
 C202 C 0.06016 -0.05940 -0.06229
 C203 C 0.06166 0.05998 0.06120
 C204 C -0.05993 -0.06005 0.05224
 C205 C -0.05424 0.06703 -0.06283
 C206 C 0.02213 0.55362 0.52314
 H207 H 0.01080 0.56422 0.50477
 C208 C 0.04021 0.57051 0.54181
 H209 H 0.04245 0.59401 0.53770
 C210 C 0.03423 0.51007 0.55000
 H211 H 0.03199 0.48648 0.55298
 C212 C 0.05276 0.52608 0.56902
 H213 H 0.06438 0.51468 0.58679
 N214 N 0.01931 0.52396 0.52759
 C215 C 0.00569 0.45571 0.45941
 H216 H -0.01802 0.45423 0.45922
 C217 C 0.02248 0.43687 0.44110
 H218 H 0.01137 0.42128 0.42650
 C219 C 0.04870 0.47858 0.47817
 H220 H 0.05883 0.49494 0.49259
 C221 C 0.06635 0.45989 0.46058
 H222 H 0.08998 0.46181 0.46221
 Zn223 Zn -0.00495 0.50121 0.50156
 N224 N 0.01896 0.47624 0.47723
 C225 C -0.02504 0.52470 0.44608
 N226 N -0.02733 0.52699 0.47662
 C227 C -0.04486 0.54796 0.48968
 C228 C -0.06134 0.56724 0.47190
 C229 C -0.04119 0.54345 0.42748
 C230 C -0.01790 0.45151 0.53650
 C231 C -0.03493 0.43212 0.55362
 C232 C -0.07665 0.46442 0.54648
 C233 C -0.05891 0.48304 0.52921
 N234 N -0.02996 0.47655 0.52487
 H235 H -0.01063 0.50839 0.43597
 H236 H -0.04577 0.54993 0.51400
 H237 H -0.07486 0.58397 0.48277
 H238 H -0.03942 0.54081 0.40325
 H239 H 0.00496 0.44640 0.53222
 H240 H -0.02487 0.41242 0.56289
 H241 H -0.09964 0.46989 0.54969
 H242 H -0.06843 0.50256 0.51932
 C243 C 0.05331 0.43876 0.44151
 C244 C 0.05587 0.55673 0.56506
 C245 C -0.06466 0.43859 0.55893
 C246 C -0.05970 0.56507 0.44032
 C247 C 0.52462 0.05339 0.52319
 H248 H 0.51280 0.06414 0.50525
 C249 C 0.54216 0.07042 0.54229
 H250 H 0.54346 0.09411 0.53890
 C251 C 0.53868 0.00957 0.54847
 H252 H 0.53775 -0.01416 0.55063
 C253 C 0.55667 0.02573 0.56791
 H254 H 0.56892 0.01422 0.58516
 N255 N 0.52302 0.02349 0.52660
 C256 C 0.51128 -0.04221 0.45511
 H257 H 0.48758 -0.04288 0.45358
 C258 C 0.52841 -0.06062 0.43668
 H259 H 0.51755 -0.07495 0.42062
 C260 C 0.55391 -0.02183 0.47738
 H261 H 0.56378 -0.00660 0.49320
 C262 C 0.57187 -0.04029 0.45985
 H263 H 0.59540 -0.03935 0.46302
 Zn264 Zn 0.49961 0.00093 0.49926
 N265 N 0.52420 -0.02313 0.47475
 C266 C 0.48126 0.02725 0.44425
 N267 N 0.47752 0.02731 0.47472
 C268 C 0.45842 0.04646 0.48833
 C269 C 0.44162 0.06597 0.47116
 C270 C 0.46490 0.04638 0.42621
 C271 C 0.48619 -0.04788 0.53580
 C272 C 0.46864 -0.06744 0.55212
 C273 C 0.42586 -0.04024 0.53599
 C274 C 0.44426 -0.02108 0.52010
 N275 N 0.47395 -0.02477 0.52077
 H276 H 0.49695 0.01240 0.43378
 H277 H 0.45626 0.04656 0.51265
 H278 H 0.42668 0.08111 0.48248
 H279 H 0.46779 0.04551 0.40196
 H280 H 0.50962 -0.05148 0.53477
 H281 H 0.47904 -0.08518 0.56450
 H282 H 0.40232 -0.03697 0.53494
 H283 H 0.43462 -0.00350 0.50707
 C284 C 0.55922 -0.05998 0.43896
 C285 C 0.55857 0.05657 0.56493
 C286 C 0.43801 -0.06366 0.55255
 C287 C 0.44462 0.06597 0.43962
 C288 C 0.52584 0.55427 0.02175
 H289 H 0.51479 0.56408 0.00274
 C290 C 0.54406 0.57182 0.03965
 H291 H 0.54672 0.59502 0.03424
 C292 C 0.53704 0.51202 0.05099
 H293 H 0.53448 0.48868 0.05524
 C294 C 0.55556 0.52872 0.06939
 H295 H 0.56672 0.51806 0.08793
 N296 N 0.52250 0.52494 0.02774
 C297 C 0.50802 0.45566 -0.03926
 H298 H 0.48429 0.45442 -0.03933
 C299 C 0.52454 0.43659 -0.05758
 H300 H 0.51320 0.42106 -0.07207
 C301 C 0.55133 0.47821 -0.02083
 H302 H 0.56167 0.49451 -0.00650
 C303 C 0.56872 0.45928 -0.03844
 H304 H 0.59238 0.46098 -0.03695
 Zn305 Zn 0.49798 0.50153 0.00251
 N306 N 0.52156 0.47616 -0.02164
 C307 C 0.47751 0.52459 -0.05308
 N308 N 0.47534 0.52693 -0.02253
 C309 C 0.45776 0.54782 -0.00942
 C310 C 0.44101 0.56691 -0.02714
 C311 C 0.46115 0.54320 -0.07164
 C312 C 0.48568 0.45338 0.03991
 C313 C 0.46893 0.43463 0.05800
 C314 C 0.42629 0.46467 0.04742
 C315 C 0.44387 0.48283 0.02946
 N316 N 0.47315 0.47727 0.02647
 H317 H 0.49200 0.50837 -0.06321
 H318 H 0.45693 0.54979 0.01490
 H319 H 0.42737 0.58353 -0.01625
 H320 H 0.46283 0.54057 -0.09587
 H321 H 0.50871 0.44862 0.03625
 H322 H 0.47936 0.41565 0.06830
 H323 H 0.40320 0.46992 0.05009
 H324 H 0.43398 0.50136 0.01809
 C325 C 0.55538 0.43821 -0.05737
 C326 C 0.55924 0.55906 0.06383
 C327 C 0.43884 0.44029 0.06217
 C328 C 0.44252 0.56467 -0.05872
 C329 C 0.13218 -0.13746 -0.13749
 C330 C 0.16050 -0.12724 -0.14550
 C331 C 0.17927 -0.14510 -0.16310
 C332 C 0.16997 -0.17281 -0.17401
 C333 C 0.14143 -0.18234 -0.16687
 C334 C 0.12286 -0.16507 -0.14876
 C335 C 0.11318 -0.11810 -0.11785
 C336 C 0.08579 -0.12727 -0.10638
 C337 C 0.06887 -0.10837 -0.08828
 C338 C 0.07854 -0.07963 -0.08131
 C339 C 0.10602 -0.07046 -0.09243
 C340 C 0.12353 -0.08958 -0.11004
 C341 C 0.16977 -0.09907 -0.13630
 C342 C 0.15147 -0.08044 -0.11944
 H343 H 0.19136 -0.09111 -0.14263
 H344 H 0.15953 -0.05869 -0.11326
 H345 H 0.20126 -0.13737 -0.16810
 H346 H 0.13315 -0.20310 -0.17562
 H347 H 0.04828 -0.11655 -0.07936
 H348 H 0.11384 -0.04832 -0.08758
 H349 H 0.10116 -0.17354 -0.14430
 H350 H 0.07724 -0.14913 -0.11069
 C351 C 0.12582 0.36198 0.36550
 C352 C 0.15297 0.37358 0.35543
 C353 C 0.17192 0.35615 0.33759
 C354 C 0.16399 0.32736 0.32870
 C355 C 0.13664 0.31628 0.33801
 C356 C 0.11785 0.33322 0.35622
 C357 C 0.10662 0.38104 0.38526
 C358 C 0.08021 0.37091 0.39823
 C359 C 0.06313 0.38955 0.41649
 C360 C 0.07171 0.41889 0.42217
 C361 C 0.09813 0.42908 0.40945
 C362 C 0.11575 0.41035 0.39154
 C363 C 0.16098 0.40260 0.36297
 C364 C 0.14258 0.42072 0.38026
 H365 H 0.18168 0.41157 0.35510
 H366 H 0.14967 0.44311 0.38520
 H367 H 0.19304 0.36503 0.33090
 H368 H 0.12947 0.29450 0.33092
 H369 H 0.04331 0.38073 0.42655
 H370 H 0.10500 0.45173 0.41329
 H371 H 0.09710 0.32352 0.36244
 H372 H 0.07253 0.34857 0.39495
 C373 C 0.63268 -0.13613 0.36318
 C374 C 0.66138 -0.12604 0.35660
 C375 C 0.68048 -0.14347 0.33892
 C376 C 0.67114 -0.17054 0.32647
 C377 C 0.64225 -0.17990 0.33221
 C378 C 0.62335 -0.16310 0.35041
 C379 C 0.61331 -0.11727 0.38294
 C380 C 0.58547 -0.12651 0.39313
 C381 C 0.56820 -0.10807 0.41139
 C382 C 0.57796 -0.07972 0.41977
 C383 C 0.60589 -0.07052 0.40994
 C384 C 0.62374 -0.08921 0.39222
 C385 C 0.67071 -0.09839 0.36726
 C386 C 0.65210 -0.08013 0.38418
 H387 H 0.69261 -0.09050 0.36202
 H388 H 0.66022 -0.05874 0.39150
 H389 H 0.70272 -0.13588 0.33503
 H390 H 0.63394 -0.20012 0.32225
 H391 H 0.54726 -0.11633 0.41930
 H392 H 0.61382 -0.04868 0.41589
 H393 H 0.60138 -0.17139 0.35374
 H394 H 0.57682 -0.14809 0.38769
 C395 C 0.62651 0.36096 -0.13425
 C396 C 0.65362 0.37239 -0.14465
 C397 C 0.67220 0.35487 -0.16279
 C398 C 0.66395 0.32616 -0.17165
 C399 C 0.63664 0.31525 -0.16199
 C400 C 0.61821 0.33229 -0.14349
 C401 C 0.60770 0.38013 -0.11420
 C402 C 0.58136 0.37018 -0.10091
 C403 C 0.56462 0.38893 -0.08244
 C404 C 0.57348 0.41820 -0.07683
 C405 C 0.59985 0.42819 -0.08983
 C406 C 0.61712 0.40936 -0.10797
 C407 C 0.66194 0.40132 -0.13715
 C408 C 0.64389 0.41955 -0.11958
 H409 H 0.68261 0.41015 -0.14527
 H410 H 0.65121 0.44187 -0.11468
 H411 H 0.69330 0.36360 -0.16975
 H412 H 0.62923 0.29354 -0.16903
 H413 H 0.54484 0.38025 -0.07217
 H414 H 0.60693 0.45078 -0.08605
 H415 H 0.59747 0.32272 -0.13700
 H416 H 0.57348 0.34790 -0.10414
 C417 C -0.12748 0.14264 -0.13770
 C418 C -0.15511 0.15113 -0.12586
 C419 C -0.17413 0.16899 -0.14282
 C420 C -0.16681 0.17816 -0.17244
 C421 C -0.13926 0.16882 -0.18406
 C422 C -0.12001 0.15164 -0.16704
 C423 C -0.10771 0.12380 -0.11871
 C424 C -0.07901 0.11575 -0.12762
 C425 C -0.06171 0.09769 -0.10937
 C426 C -0.07251 0.08696 -0.08181
 C427 C -0.10094 0.09531 -0.07254
 C428 C -0.11835 0.11384 -0.09050
 C429 C -0.16403 0.14111 -0.09738
 C430 C -0.14623 0.12256 -0.08028
 H431 H -0.18533 0.14738 -0.08831
 H432 H -0.15434 0.11512 -0.05858
 H433 H -0.19552 0.17383 -0.13321
 H434 H -0.13134 0.17584 -0.20588
 H435 H -0.03962 0.09239 -0.11681
 H436 H -0.10979 0.08707 -0.05146
 H437 H -0.09937 0.14557 -0.17743
 H438 H -0.06937 0.12335 -0.14844
 C439 C -0.12932 0.64149 0.36297
 C440 C -0.15828 0.64821 0.37268
 C441 C -0.17660 0.66590 0.35477
 C442 C -0.16670 0.67681 0.32696
 C443 C -0.13805 0.67005 0.31734
 C444 C -0.11956 0.65270 0.33506
 C445 C -0.11052 0.62239 0.38269
 C446 C -0.08129 0.61479 0.37533
 C447 C -0.06489 0.59648 0.39415
 C448 C -0.07709 0.58519 0.42083
 C449 C -0.10605 0.59298 0.42860
 C450 C -0.12275 0.61146 0.40986
 C451 C -0.16891 0.63699 0.40002
 C452 C -0.15158 0.61891 0.41813
 H453 H -0.19108 0.64209 0.40744
 H454 H -0.16093 0.61062 0.43896
 H455 H -0.19886 0.67067 0.36220
 H456 H -0.12979 0.67847 0.29611
 H457 H -0.04242 0.59133 0.38788
 H458 H -0.11585 0.58420 0.44900
 H459 H -0.09783 0.64828 0.32637
 H460 H -0.07061 0.62273 0.35520
 C461 C 0.37252 0.14300 0.36531
 C462 C 0.34273 0.14652 0.37401
 C463 C 0.32379 0.16417 0.35677
 C464 C 0.33394 0.17839 0.33066
 C465 C 0.36346 0.17494 0.32212
 C466 C 0.38254 0.15756 0.33916
 C467 C 0.39193 0.12369 0.38420
 C468 C 0.42187 0.11874 0.37756
 C469 C 0.43887 0.10021 0.39562
 C470 C 0.42657 0.08611 0.42080
 C471 C 0.39684 0.09109 0.42775
 C472 C 0.37953 0.10968 0.40975
 C473 C 0.33191 0.13220 0.39969
 C474 C 0.34989 0.11415 0.41714
 H475 H 0.30911 0.13487 0.40635
 H476 H 0.34040 0.10346 0.43672
 H477 H 0.30091 0.16635 0.36335
 H478 H 0.37194 0.18597 0.30227
 H479 H 0.46186 0.09712 0.39000
 H480 H 0.38697 0.08004 0.44692
 H481 H 0.40495 0.15579 0.33139
 H482 H 0.43263 0.12893 0.35858
 C483 C 0.37172 0.64033 -0.13570
 C484 C 0.34252 0.64615 -0.12619
 C485 C 0.32386 0.66349 -0.14408
 C486 C 0.33373 0.67506 -0.17164
 C487 C 0.36268 0.66932 -0.18097
 C488 C 0.38146 0.65226 -0.16330
 C489 C 0.39082 0.62141 -0.11608
 C490 C 0.42019 0.61438 -0.12344
 C491 C 0.43687 0.59622 -0.10471
 C492 C 0.42483 0.58457 -0.07813
 C493 C 0.39571 0.59175 -0.07040
 C494 C 0.37871 0.60999 -0.08907
 C495 C 0.33198 0.63440 -0.09905
 C496 C 0.34965 0.61666 -0.08094
 H497 H 0.30963 0.63884 -0.09176
 H498 H 0.34039 0.60797 -0.06024
 H499 H 0.30140 0.66747 -0.13685
 H500 H 0.37095 0.67830 -0.20196
 H501 H 0.45944 0.59148 -0.11097
 H502 H 0.38604 0.58263 -0.05008
 H503 H 0.40343 0.64865 -0.17176
 H504 H 0.43075 0.62261 -0.14351
 C505 C -0.13322 -0.13821 0.12449
 C506 C -0.15960 -0.12626 0.13638
 C507 C -0.17796 -0.14368 0.15462
 C508 C -0.17005 -0.17288 0.16247
 C509 C -0.14336 -0.18425 0.15094
 C510 C -0.12539 -0.16735 0.13219
 C511 C -0.11435 -0.11896 0.10492
 C512 C -0.08876 -0.12939 0.09032
 C513 C -0.07151 -0.11040 0.07299
 C514 C -0.07909 -0.08040 0.06985
 C515 C -0.10498 -0.07001 0.08376
 C516 C -0.12276 -0.08907 0.10084
 C517 C -0.16715 -0.09671 0.13070
 C518 C -0.14891 -0.07840 0.11371
 H519 H -0.18725 -0.08741 0.13997
 H520 H -0.15553 -0.05557 0.11040
 H521 H -0.19761 -0.13361 0.16403
 H522 H -0.13655 -0.20678 0.15536
 H523 H -0.05225 -0.11940 0.06179
 H524 H -0.11117 -0.04692 0.08172
 H525 H -0.10532 -0.17751 0.12421
 H526 H -0.08177 -0.15217 0.09173
 C527 C -0.13732 0.36039 0.63134
 C528 C -0.15469 0.37376 0.65428
 C529 C -0.17251 0.35624 0.67293
 C530 C -0.17381 0.32546 0.66879
 C531 C -0.15701 0.31230 0.64574
 C532 C -0.13893 0.32945 0.62729
 C533 C -0.11822 0.37987 0.61224
 C534 C -0.09907 0.36867 0.58980
 C535 C -0.08172 0.38775 0.57265
 C536 C -0.08311 0.41845 0.57724
 C537 C -0.10199 0.42985 0.59957
 C538 C -0.11927 0.41085 0.61723
 C539 C -0.15440 0.40454 0.65829
 C540 C -0.13728 0.42270 0.64001
 H541 H -0.16780 0.41479 0.67575
 H542 H -0.13798 0.44640 0.64392
 H543 H -0.18582 0.36663 0.69039
 H544 H -0.15758 0.28855 0.64222
 H545 H -0.06739 0.37847 0.55544
 H546 H -0.10281 0.45355 0.60359
 H547 H -0.12655 0.31803 0.60998
 H548 H -0.09701 0.34529 0.58520
 C549 C 0.36467 -0.14218 0.62425
 C550 C 0.33985 -0.12940 0.63871
 C551 C 0.32165 -0.14680 0.65711
 C552 C 0.32809 -0.17680 0.66191
 C553 C 0.35279 -0.18937 0.64777
 C554 C 0.37081 -0.17239 0.62911
 C555 C 0.38361 -0.12277 0.60490
 C556 C 0.40827 -0.13348 0.58882
 C557 C 0.42559 -0.11438 0.57168
 C558 C 0.41893 -0.08406 0.57010
 C559 C 0.39410 -0.07329 0.58563
 C560 C 0.37640 -0.09234 0.60278
 C561 C 0.33360 -0.09923 0.63516
 C562 C 0.35160 -0.08107 0.61779
 H563 H 0.31465 -0.08942 0.64629
 H564 H 0.34598 -0.05780 0.61605
 H565 H 0.30286 -0.13680 0.66836
 H566 H 0.35809 -0.21253 0.65103
 H567 H 0.44417 -0.12349 0.55939
 H568 H 0.38879 -0.04989 0.58485
 H569 H 0.38953 -0.18332 0.61899
 H570 H 0.41454 -0.15651 0.58905
 C571 C 0.36739 0.36467 0.13888
 C572 C 0.33857 0.35834 0.12894
 C573 C 0.31999 0.34045 0.14642
 C574 C 0.32965 0.32853 0.17384
 C575 C 0.35829 0.33467 0.18352
 C576 C 0.37693 0.35246 0.16636
 C577 C 0.38645 0.38408 0.11964
 C578 C 0.41530 0.39201 0.12767
 C579 C 0.43212 0.41016 0.10901
 C580 C 0.42074 0.42092 0.08182
 C581 C 0.39201 0.41318 0.07363
 C582 C 0.37484 0.39499 0.09228
 C583 C 0.32841 0.36990 0.10164
 C584 C 0.34618 0.38775 0.08367
 H585 H 0.30636 0.36503 0.09400
 H586 H 0.33728 0.39611 0.06273
 H587 H 0.29779 0.33614 0.13885
 H588 H 0.36650 0.32538 0.20432
 H589 H 0.45405 0.41615 0.11614
 H590 H 0.38307 0.42105 0.05251
 H591 H 0.39869 0.35624 0.17501
 H592 H 0.42529 0.38461 0.14831
 C593 C 0.13782 0.13105 0.13749
 C594 C 0.12606 0.15791 0.14899
 C595 C 0.14321 0.17626 0.16750
 C596 C 0.17227 0.16853 0.17459
 C597 C 0.18392 0.14201 0.16295
 C598 C 0.16700 0.12349 0.14472
 C599 C 0.11871 0.11201 0.11793
 C600 C 0.12803 0.08452 0.10602
 C601 C 0.10944 0.06771 0.08780
 C602 C 0.08114 0.07784 0.08086
 C603 C 0.07157 0.10509 0.09271
 C604 C 0.08999 0.12209 0.11126
 C605 C 0.09733 0.16641 0.14184
 C606 C 0.07975 0.14898 0.12325
 H607 H 0.08832 0.18699 0.15060
 H608 H 0.05773 0.15665 0.11825
 H609 H 0.13379 0.19650 0.17661
 H610 H 0.20642 0.13571 0.16754
 H611 H 0.11743 0.04686 0.07872
 H612 H 0.04956 0.11289 0.08782
 H613 H 0.17733 0.10354 0.13635
 H614 H 0.14953 0.07553 0.11046
 C615 C 0.13412 0.62723 0.63954
 C616 C 0.12298 0.65446 0.65079
 C617 C 0.14081 0.67294 0.66845
 C618 C 0.17000 0.66507 0.67479
 C619 C 0.18103 0.63818 0.66338
 C620 C 0.16340 0.61948 0.64608
 C621 C 0.11432 0.60813 0.62079
 C622 C 0.12292 0.58021 0.60935
 C623 C 0.10382 0.56350 0.59159
 C624 C 0.07572 0.57418 0.58466
 C625 C 0.06678 0.60175 0.59625
 C626 C 0.08570 0.61863 0.61436
 C627 C 0.09422 0.66326 0.64410
 C628 C 0.07607 0.64585 0.62609
 H629 H 0.08570 0.68412 0.65266
 H630 H 0.05411 0.65382 0.62132
 H631 H 0.13183 0.69345 0.67740
 H632 H 0.20361 0.63175 0.66738
 H633 H 0.11127 0.54235 0.58277
 H634 H 0.04489 0.60994 0.59141
 H635 H 0.17329 0.59928 0.63778
 H636 H 0.14427 0.57084 0.61378
 C637 C 0.63547 0.12738 0.64065
 C638 C 0.62377 0.15414 0.65245
 C639 C 0.64124 0.17267 0.67043
 C640 C 0.67059 0.16529 0.67662
 C641 C 0.68215 0.13882 0.66474
 C642 C 0.66490 0.12009 0.64707
 C643 C 0.61606 0.10823 0.62151
 C644 C 0.62531 0.08083 0.60931
 C645 C 0.60653 0.06406 0.59126
 C646 C 0.57810 0.07413 0.58480
 C647 C 0.56853 0.10120 0.59710
 C648 C 0.58715 0.11816 0.61547
 C649 C 0.59480 0.16241 0.64605
 C650 C 0.57695 0.14491 0.62780
 H651 H 0.58584 0.18291 0.65506
 H652 H 0.55478 0.15245 0.62331
 H653 H 0.63188 0.19285 0.67976
 H654 H 0.70484 0.13278 0.66866
 H655 H 0.61450 0.04334 0.58185
 H656 H 0.54642 0.10892 0.59260
 H657 H 0.67518 0.10023 0.63844
 H658 H 0.64693 0.07194 0.61334
 C659 C 0.63701 0.63133 0.13725
 C660 C 0.62676 0.65988 0.14557
 C661 C 0.64445 0.67869 0.16304
 C662 C 0.67249 0.66964 0.17237
 C663 C 0.68260 0.64136 0.16404
 C664 C 0.66517 0.62244 0.14677
 C665 C 0.61742 0.61195 0.11855
 C666 C 0.62539 0.58307 0.10936
 C667 C 0.60644 0.56600 0.09179
 C668 C 0.57909 0.57720 0.08284
 C669 C 0.57088 0.60587 0.09199
 C670 C 0.58971 0.62321 0.10975
 C671 C 0.59899 0.66957 0.13633
 C672 C 0.58090 0.65167 0.11875
 H673 H 0.59113 0.69142 0.14269
 H674 H 0.55966 0.66026 0.11210
 H675 H 0.63621 0.70033 0.16965
 H676 H 0.70431 0.63396 0.17051
 H677 H 0.61344 0.54407 0.08477
 H678 H 0.54960 0.61458 0.08556
 H679 H 0.67429 0.60109 0.14100
 H680 H 0.64612 0.57322 0.11539
   
