data_POSCAR
  _audit_creation_date              2014-09-24
  _audit_creation_method            'ToBaCCo'
  _symmetry_space_group_name_H-M    'P1'
  _symmetry_Int_Tables_number       1
  _symmetry_cell_setting            triclinic
  loop_
  _symmetry_equiv_pos_as_xyz
 x,y,z
_cell_length_a 42.4048
_cell_length_b 41.9542
_cell_length_c 41.9361
_cell_angle_alpha 90.020300
_cell_angle_beta 89.992900
_cell_angle_gamma 89.876100
loop_
  _atom_site_label
  _atom_site_type_symbol
  _atom_site_fract_x
  _atom_site_fract_y
  _atom_site_fract_z
N1 N 0.19339 1.25771 0.17080
 N2 N 0.17224 1.25806 0.19372
 C3 C 0.15126 1.28153 0.18796
 C4 C 0.15977 1.29657 0.15991
 C5 C 0.18668 1.28094 0.14971
 H6 H 0.13088 1.28677 0.20257
 H7 H 0.19989 1.28559 0.12814
 Cu8 Cu 0.17274 1.22686 0.22806
 Cu9 Cu 0.22686 1.22603 0.16897
 Cu10 Cu 0.22704 1.16784 0.22735
 N11 N 0.17242 1.19259 0.25934
 N12 N 0.19366 1.16972 0.25902
 C13 C 0.18711 1.14870 0.28234
 C14 C 0.16022 1.15889 0.29798
 C15 C 0.15154 1.18686 0.28286
 H16 H 0.20042 1.12719 0.28704
 H17 H 0.13113 1.20145 0.28810
 N18 N 0.25893 1.16985 0.19333
 N19 N 0.25886 1.19203 0.17103
 C20 C 0.28245 1.18605 0.15034
 C21 C 0.29800 1.15880 0.16011
 C22 C 0.28257 1.14917 0.18743
 H23 H 0.28742 1.19984 0.12916
 H24 H 0.28764 1.12807 0.20134
 H25 H 0.20130 1.19109 0.19239
 H26 H 0.22836 1.21601 0.21722
 N27 N 0.81139 0.74681 0.16648
 N28 N 0.83395 0.74807 0.18796
 C29 C 0.85500 0.72471 0.18206
 C30 C 0.84504 0.70801 0.15551
 C31 C 0.81730 0.72262 0.14622
 H32 H 0.87630 0.72045 0.19560
 H33 H 0.80288 0.71652 0.12585
 Cu34 Cu 0.83399 0.78107 0.22056
 Cu35 Cu 0.77682 0.77754 0.16542
 Cu36 Cu 0.77708 0.83657 0.22352
 N37 N 0.83416 0.81411 0.25311
 N38 N 0.81173 0.83579 0.25410
 C39 C 0.81779 0.85641 0.27793
 C40 C 0.84556 0.84716 0.29258
 C41 C 0.85529 0.82018 0.27631
 H42 H 0.80342 0.87694 0.28375
 H43 H 0.87646 0.80645 0.28072
 N44 N 0.74413 0.83326 0.19051
 N45 N 0.74402 0.81080 0.16842
 C46 C 0.71943 0.81577 0.14868
 C47 C 0.70342 0.84261 0.15882
 C48 C 0.71961 0.85308 0.18538
 H49 H 0.71400 0.80151 0.12793
 H50 H 0.71434 0.87411 0.19933
 H51 H 0.80115 0.81458 0.18657
 H52 H 0.77747 0.78842 0.21334
 N53 N 0.80668 1.25538 -0.16769
 N54 N 0.82818 1.25527 -0.19031
 C55 C 0.84912 1.27870 -0.18458
 C56 C 0.84013 1.29427 -0.15698
 C57 C 0.81312 1.27892 -0.14690
 H58 H 0.86979 1.28360 -0.19884
 H59 H 0.79970 1.28395 -0.12554
 Cu60 Cu 0.82721 1.22298 -0.22353
 Cu61 Cu 0.77315 1.22361 -0.16555
 Cu62 Cu 0.77338 1.16492 -0.22419
 N63 N 0.82841 1.18978 -0.25584
 N64 N 0.80705 1.16708 -0.25593
 C65 C 0.81357 1.14636 -0.27955
 C66 C 0.84057 1.15655 -0.29497
 C67 C 0.84937 1.18420 -0.27936
 H68 H 0.80016 1.12505 -0.28462
 H69 H 0.86986 1.19868 -0.28435
 N70 N 0.74145 1.16706 -0.18996
 N71 N 0.74137 1.18935 -0.16768
 C72 C 0.71761 1.18354 -0.14717
 C73 C 0.70211 1.15635 -0.15699
 C74 C 0.71774 1.14654 -0.18417
 H75 H 0.71237 1.19753 -0.12616
 H76 H 0.71261 1.12553 -0.19815
 H77 H 0.79791 1.18773 -0.18832
 H78 H 0.77154 1.21282 -0.21350
 N79 N 0.18944 0.74235 -0.16997
 N80 N 0.16678 0.74378 -0.19135
 C81 C 0.14562 0.72065 -0.18529
 C82 C 0.15562 0.70394 -0.15876
 C83 C 0.18349 0.71828 -0.14964
 H84 H 0.12420 0.71661 -0.19868
 H85 H 0.19796 0.71209 -0.12932
 Cu86 Cu 0.16669 0.77676 -0.22395
 Cu87 Cu 0.22410 0.77280 -0.16902
 Cu88 Cu 0.22403 0.83157 -0.22730
 N89 N 0.16666 0.80970 -0.25659
 N90 N 0.18932 0.83103 -0.25777
 C91 C 0.18329 0.85173 -0.28153
 C92 C 0.15528 0.84296 -0.29591
 C93 C 0.14538 0.81613 -0.27958
 H94 H 0.19779 0.87207 -0.28741
 H95 H 0.12396 0.80280 -0.28374
 N96 N 0.25700 0.82811 -0.19433
 N97 N 0.25702 0.80579 -0.17213
 C98 C 0.28144 0.81086 -0.15222
 C99 C 0.29743 0.83764 -0.16237
 C100 C 0.28141 0.84794 -0.18911
 H101 H 0.28668 0.79681 -0.13127
 H102 H 0.28660 0.86897 -0.20303
 H103 H 0.19993 0.81004 -0.19022
 H104 H 0.22331 0.78348 -0.21699
 Si105 Si 0.49765 0.99673 -0.00105
 Si106 Si 0.00049 0.49787 1.00073
 Si107 Si 1.00009 0.00248 0.50000
 N108 N 0.10087 0.35608 1.14133
 C109 C 0.11159 0.36742 1.11308
 N110 N 0.13867 0.35541 1.10074
 N111 N 0.15450 0.33266 1.11612
 C112 C 0.14376 0.32109 1.14436
 N113 N 0.11669 0.33333 1.15673
 C114 C 0.09383 0.39087 1.09579
 C115 C 0.07861 0.41004 1.08086
 C116 C 0.06015 0.43219 1.06263
 N117 N 0.02829 0.43248 1.06533
 N118 N 0.01098 0.45211 1.04749
 C119 C 0.02497 0.47205 1.02637
 N120 N 0.05685 0.47183 1.02375
 N121 N 0.07418 0.45219 1.04159
 N122 N -0.13571 0.64449 1.09803
 C123 C -0.10769 0.63371 1.10932
 N124 N -0.09537 0.64711 1.13595
 N125 N -0.11060 0.67060 1.15085
 C126 C -0.13862 0.68152 1.13957
 N127 N -0.15094 0.66799 1.11292
 C128 C -0.09067 0.60928 1.09260
 C129 C -0.07594 0.58926 1.07828
 C130 C -0.05787 0.56612 1.06087
 N131 N -0.02596 0.56606 1.06284
 N132 N -0.00898 0.54556 1.04566
 C133 C -0.02337 0.52447 1.02598
 N134 N -0.05531 0.52444 1.02409
 N135 N -0.07231 0.54496 1.04128
 N136 N -0.10022 0.35486 0.86273
 C137 C -0.11126 0.36647 0.89078
 N138 N -0.13848 0.35467 0.90290
 N139 N -0.15416 0.33191 0.88747
 C140 C -0.14312 0.32014 0.85943
 N141 N -0.11590 0.33208 0.84730
 C142 C -0.09374 0.39002 0.90810
 C143 C -0.07881 0.40929 0.92312
 C144 C -0.06077 0.43158 0.94154
 N145 N -0.06268 0.43147 0.97381
 N146 N -0.04510 0.45130 0.99107
 C147 C -0.02505 0.47187 0.97660
 N148 N -0.02321 0.47205 0.94430
 N149 N -0.04080 0.45221 0.92703
 N150 N 0.13607 0.64128 0.89939
 C151 C 0.10798 0.63064 0.88825
 N152 N 0.09573 0.64381 0.86144
 N153 N 0.11109 0.66696 0.84626
 C154 C 0.13917 0.67774 0.85742
 N155 N 0.15142 0.66443 0.88422
 C156 C 0.09083 0.60666 0.90533
 C157 C 0.07612 0.58703 0.92009
 C158 C 0.05822 0.56436 0.93815
 N159 N 0.02628 0.56469 0.93692
 N160 N 0.00954 0.54468 0.95480
 C161 C 0.02419 0.52370 0.97448
 N162 N 0.05616 0.52331 0.97561
 N163 N 0.07293 0.54333 0.95772
 N164 N 1.13981 0.10004 0.35729
 C165 C 1.11277 0.11239 0.36938
 N166 N 1.10182 0.14052 0.35791
 N167 N 1.11740 0.15581 0.33496
 C168 C 1.14443 0.14344 0.32265
 N169 N 1.15539 0.11532 0.33434
 C170 C 1.09526 0.09518 0.39303
 C171 C 1.08028 0.08026 0.41233
 C172 C 1.06209 0.06194 0.43457
 N173 N 1.04120 0.07642 0.45436
 N174 N 1.02337 0.05917 0.47401
 C175 C 1.02587 0.02693 0.47446
 N176 N 1.04686 0.01251 0.45475
 N177 N 1.06469 0.02974 0.43511
 N178 N 1.13666 -0.09883 0.64349
 C179 C 1.10855 -0.10969 0.63264
 N180 N 1.09625 -0.13662 0.64540
 N181 N 1.11156 -0.15219 0.66838
 C182 C 1.13968 -0.14131 0.67943
 N183 N 1.15198 -0.11439 0.66646
 C184 C 1.09145 -0.09214 0.60889
 C185 C 1.07690 -0.07688 0.58946
 C186 C 1.05935 -0.05808 0.56704
 N187 N 1.03982 -0.07218 0.54567
 N188 N 1.02275 -0.05452 0.52563
 C189 C 1.02469 -0.02226 0.52637
 N190 N 1.04427 -0.00821 0.54769
 N191 N 1.06133 -0.02584 0.56771
 N192 N 0.86429 -0.09542 0.35390
 C193 C 0.89204 -0.10699 0.36508
 N194 N 0.90408 -0.13406 0.35223
 N195 N 0.88885 -0.14909 0.32889
 C196 C 0.86108 -0.13754 0.31753
 N197 N 0.84904 -0.11046 0.33056
 C198 C 0.90909 -0.09012 0.38932
 C199 C 0.92382 -0.07566 0.40918
 C200 C 0.94185 -0.05807 0.43214
 N201 N 0.97373 -0.06053 0.43259
 N202 N 0.99068 -0.04319 0.45292
 C203 C 0.97628 -0.02286 0.47346
 N204 N 0.94437 -0.02049 0.47310
 N205 N 0.92741 -0.03782 0.45275
 N206 N 0.89884 0.13878 0.64468
 C207 C 0.88779 0.11094 0.63271
 N208 N 0.86074 0.09857 0.64464
 N209 N 0.84524 0.11355 0.66789
 C210 C 0.85630 0.14139 0.68008
 N211 N 0.88334 0.15377 0.66794
 C212 C 0.90520 0.09403 0.60870
 C213 C 0.92010 0.07932 0.58909
 C214 C 0.93817 0.06121 0.56650
 N215 N 0.93628 0.02896 0.56617
 N216 N 0.95401 0.01195 0.54619
 C217 C 0.97418 0.02663 0.52587
 N218 N 0.97599 0.05891 0.52613
 N219 N 0.95826 0.07595 0.54613
 N220 N 0.35762 1.09833 0.13929
 C221 C 0.36901 1.10974 0.11134
 N222 N 0.35749 1.13757 0.09971
 N223 N 0.33519 1.15348 0.11551
 C224 C 0.32362 1.14204 0.14344
 N225 N 0.33531 1.11423 0.15510
 C226 C 0.39177 1.09175 0.09347
 C227 C 0.41024 1.07623 0.07804
 C228 C 0.43141 1.05728 0.05920
 N229 N 0.46310 1.06038 0.06233
 N230 N 0.48259 1.04268 0.04469
 C231 C 0.47097 1.02136 0.02340
 N232 N 0.43928 1.01828 0.02035
 N233 N 0.41982 1.03596 0.03795
 N234 N 0.64114 1.09716 -0.13728
 C235 C 0.62931 1.10894 -0.10964
 N236 N 0.64108 1.13653 -0.09779
 N237 N 0.66403 1.15186 -0.11310
 C238 C 0.67602 1.14007 -0.14073
 N239 N 0.66410 1.11249 -0.15259
 C240 C 0.60556 1.09172 -0.09243
 C241 C 0.58614 1.07691 -0.07760
 C242 C 0.56371 1.05884 -0.05950
 N243 N 0.56285 1.06139 -0.02727
 N244 N 0.54306 1.04358 -0.01026
 C245 C 0.52350 1.02266 -0.02492
 N246 N 0.52426 1.02020 -0.05717
 N247 N 0.54407 1.03801 -0.07420
 N248 N 0.35889 0.89637 -0.14300
 C249 C 0.37076 0.88456 -0.11540
 N250 N 0.35898 0.85697 -0.10357
 N251 N 0.33595 0.84170 -0.11883
 C252 C 0.32391 0.85356 -0.14640
 N253 N 0.33587 0.88111 -0.15826
 C254 C 0.39420 0.90201 -0.09801
 C255 C 0.41318 0.91722 -0.08300
 C256 C 0.43488 0.93595 -0.06467
 N257 N 0.45463 0.92187 -0.04346
 N258 N 0.47356 0.93951 -0.02526
 C259 C 0.47331 0.97176 -0.02767
 N260 N 0.45364 0.98578 -0.04899
 N261 N 0.43473 0.96816 -0.06719
 N262 N 0.64090 0.90067 0.14000
 C263 C 0.62879 0.88853 0.11266
 N264 N 0.64078 0.86098 0.10083
 N265 N 0.66424 0.84605 0.11583
 C266 C 0.67655 0.85823 0.14312
 N267 N 0.66437 0.88575 0.15500
 C268 C 0.60480 0.90556 0.09553
 C269 C 0.58531 0.92029 0.08064
 C270 C 0.56293 0.93829 0.06233
 N271 N 0.54370 0.92353 0.04115
 N272 N 0.52410 0.94049 0.02297
 C273 C 0.52313 0.97273 0.02537
 N274 N 0.54229 0.98743 0.04666
 N275 N 0.56188 0.97050 0.06484
   
