data_POSCAR
  _audit_creation_date              2014-09-24
  _audit_creation_method            'ToBaCCo'
  _symmetry_space_group_name_H-M    'P1'
  _symmetry_Int_Tables_number       1
  _symmetry_cell_setting            triclinic
  loop_
  _symmetry_equiv_pos_as_xyz
 x,y,z
_cell_length_a 32.1182
_cell_length_b 32.4102
_cell_length_c 57.6692
_cell_angle_alpha 86.045500
_cell_angle_beta 93.708700
_cell_angle_gamma 85.327300
loop_
  _atom_site_label
  _atom_site_type_symbol
  _atom_site_fract_x
  _atom_site_fract_y
  _atom_site_fract_z
C1 C 0.02392 0.57346 1.02447
 C2 C 0.03634 0.59476 1.00438
 C3 C 0.03421 0.57831 0.98248
 C4 C 0.02367 0.53668 0.98112
 C5 C 0.01273 0.51368 1.00141
 C6 C 0.01230 0.53221 1.02303
 C7 C 0.00264 0.50803 1.04287
 C8 C -0.00858 0.46779 1.04140
 C9 C -0.00725 0.44818 1.02043
 C10 C 0.00286 0.47169 1.00013
 C11 C 0.02648 0.51646 0.96036
 C12 C 0.01529 0.47621 0.95891
 C13 C 0.00325 0.45330 0.97852
 C14 C -0.00844 0.41243 0.97704
 C15 C -0.01975 0.39025 0.99693
 C16 C -0.01763 0.40643 1.01892
 H17 H 0.00408 0.51956 1.06000
 H18 H -0.01855 0.45243 1.05706
 H19 H 0.03804 0.53123 0.94497
 H20 H 0.01654 0.46317 0.94218
 H21 H 0.04302 0.62690 1.00535
 H22 H -0.02689 0.35834 0.99543
 C23 C 0.41061 0.02556 0.52055
 C24 C 0.38575 0.02082 0.50027
 C25 C 0.40334 0.01428 0.47914
 C26 C 0.44742 0.01194 0.47817
 C27 C 0.47312 0.01748 0.49852
 C28 C 0.45457 0.02500 0.51966
 C29 C 0.48021 0.03351 0.53907
 C30 C 0.52337 0.03316 0.53807
 C31 C 0.54308 0.02277 0.51788
 C32 C 0.51738 0.01637 0.49760
 C33 C 0.46640 0.00528 0.45732
 C34 C 0.50967 0.00348 0.45649
 C35 C 0.53568 0.00958 0.47629
 C36 C 0.57953 0.00906 0.47533
 C37 C 0.60440 0.01546 0.49531
 C38 C 0.58739 0.02162 0.51678
 H39 H 0.46703 0.04167 0.55511
 H40 H 0.54083 0.04225 0.55325
 H41 H 0.44805 0.00156 0.44133
 H42 H 0.52244 -0.00239 0.44002
 H43 H 0.35202 0.02168 0.50101
 H44 H 0.63809 0.01378 0.49420
 C45 C 0.05419 -0.03015 0.26131
 H46 H 0.05809 -0.03078 0.24284
 C47 C 0.08881 -0.02649 0.27679
 H48 H 0.11941 -0.02433 0.27016
 C49 C 0.00933 -0.03073 0.29236
 H50 H -0.02172 -0.03183 0.29840
 C51 C 0.04290 -0.02659 0.30836
 H52 H 0.03741 -0.02521 0.32664
 N53 N 0.01547 -0.03257 0.26933
 C54 C -0.05860 -0.09196 0.21688
 H55 H -0.08674 -0.07091 0.21515
 C56 C -0.05530 -0.12576 0.20314
 H57 H -0.08093 -0.13019 0.19068
 C58 C 0.00955 -0.11054 0.23461
 H59 H 0.03467 -0.10474 0.24700
 C60 C 0.01417 -0.14474 0.22126
 H61 H 0.04293 -0.16492 0.22355
 Zn62 Zn -0.03123 -0.03523 0.24781
 N63 N -0.02594 -0.08427 0.23170
 C64 C -0.03501 0.00810 0.20311
 N65 N -0.03375 0.01228 0.22645
 C66 C -0.03260 0.05026 0.23505
 C67 C -0.03386 0.08605 0.21995
 C68 C -0.03657 0.04301 0.18742
 C69 C -0.08584 -0.07133 0.27720
 C70 C -0.11918 -0.07292 0.29150
 C71 C -0.14171 -0.00183 0.27818
 C72 C -0.10818 -0.00178 0.26391
 N73 N -0.08045 -0.03586 0.26416
 H74 H -0.03451 -0.02227 0.19652
 H75 H -0.03075 0.05270 0.25370
 H76 H -0.03353 0.11607 0.22708
 H77 H -0.03738 0.03898 0.16891
 H78 H -0.06349 -0.09810 0.27693
 H79 H -0.12260 -0.10143 0.30186
 H80 H -0.16215 0.02633 0.27856
 H81 H -0.10366 0.02599 0.25326
 C82 C -0.01817 -0.15220 0.20489
 C83 C 0.08323 -0.02435 0.30063
 C84 C -0.14712 -0.03750 0.29261
 C85 C -0.03621 0.08264 0.19577
 C86 C -0.00955 0.09573 0.76574
 H87 H -0.03197 0.09492 0.75103
 C88 C -0.01282 0.12898 0.77989
 H89 H -0.03791 0.15333 0.77594
 C90 C 0.05121 0.06611 0.78823
 H91 H 0.07626 0.04170 0.79136
 C92 C 0.04917 0.09877 0.80278
 H93 H 0.07238 0.09863 0.81727
 N94 N 0.02182 0.06482 0.77028
 C95 C 0.08821 -0.01313 0.72406
 H96 H 0.07242 -0.04125 0.72617
 C97 C 0.12183 -0.01169 0.70993
 H98 H 0.13157 -0.03886 0.70106
 C99 C 0.09309 0.05710 0.73217
 H100 H 0.08130 0.08399 0.74061
 C101 C 0.12676 0.05993 0.71816
 H102 H 0.14109 0.08896 0.71623
 Zn103 Zn 0.02580 0.01899 0.75143
 N104 N 0.07425 0.02112 0.73458
 C105 C -0.01641 0.02302 0.70674
 N106 N -0.02215 0.02158 0.72994
 C107 C -0.06134 0.02294 0.73773
 C108 C -0.09655 0.02523 0.72197
 C109 C -0.05066 0.02544 0.69042
 C110 C 0.06852 -0.04295 0.78261
 C111 C 0.07370 -0.07849 0.79798
 C112 C 0.00168 -0.09057 0.78831
 C113 C -0.00204 -0.05492 0.77301
 N114 N 0.03086 -0.03135 0.77082
 H115 H 0.01476 0.02243 0.70075
 H116 H -0.06528 0.02271 0.75623
 H117 H -0.12747 0.02668 0.72848
 H118 H -0.04527 0.02599 0.67206
 H119 H 0.09470 -0.02460 0.78004
 H120 H 0.10398 -0.08707 0.80716
 H121 H -0.02540 -0.10794 0.79037
 H122 H -0.03150 -0.04597 0.76325
 C123 C 0.14117 0.02540 0.70655
 C124 C 0.01667 0.13066 0.79880
 C125 C 0.03980 -0.10253 0.80128
 C126 C -0.09141 0.02661 0.69794
 C127 C 0.01435 -0.35501 0.08327
 C128 C 0.05073 -0.35663 0.07096
 C129 C 0.05400 -0.38066 0.05188
 C130 C 0.02135 -0.40451 0.04480
 C131 C -0.01519 -0.40263 0.05710
 C132 C -0.01853 -0.37840 0.07616
 C133 C 0.01037 -0.32797 0.10288
 N134 N -0.02585 -0.32353 0.11376
 N135 N -0.02976 -0.29804 0.13081
 C136 C 0.00241 -0.27594 0.13773
 N137 N 0.03870 -0.28066 0.12698
 N138 N 0.04259 -0.30609 0.10994
 C139 C -0.00233 -0.24616 0.15599
 C140 C 0.03108 -0.22313 0.16275
 C141 C 0.02612 -0.19338 0.17897
 C142 C -0.01236 -0.18589 0.18888
 C143 C -0.04554 -0.20950 0.18254
 C144 C -0.04057 -0.23935 0.16630
 H145 H 0.07663 -0.33889 0.07586
 H146 H 0.08253 -0.38106 0.04281
 H147 H -0.04192 -0.41869 0.05146
 H148 H -0.04724 -0.37746 0.08504
 H149 H 0.06098 -0.22750 0.15519
 H150 H 0.05212 -0.17532 0.18321
 H151 H -0.07541 -0.20480 0.19008
 H152 H -0.06691 -0.25664 0.16159
 C153 C -0.03120 0.31927 0.07591
 C154 C -0.05982 0.32310 0.05625
 C155 C -0.05585 0.35239 0.03779
 C156 C -0.02347 0.37923 0.03856
 C157 C 0.00515 0.37530 0.05833
 C158 C 0.00115 0.34594 0.07682
 C159 C -0.03419 0.28651 0.09486
 N160 N -0.00719 0.28290 0.11417
 N161 N -0.00897 0.25241 0.13071
 C162 C -0.03780 0.22419 0.12863
 N163 N -0.06497 0.22802 0.10940
 N164 N -0.06322 0.25851 0.09289
 C165 C -0.03872 0.18911 0.14646
 C166 C -0.06550 0.15759 0.14279
 C167 C -0.06501 0.12341 0.15895
 C168 C -0.03791 0.11997 0.17923
 C169 C -0.01181 0.15188 0.18322
 C170 C -0.01211 0.18603 0.16697
 H171 H -0.08515 0.30310 0.05493
 H172 H -0.07857 0.35437 0.02295
 H173 H 0.03184 0.39367 0.05911
 H174 H 0.02411 0.34347 0.09155
 H175 H -0.08651 0.15895 0.12724
 H176 H -0.08590 0.09957 0.15558
 H177 H 0.00963 0.14989 0.19862
 H178 H 0.00887 0.20976 0.17037
 C179 C 0.34285 0.03413 0.58218
 C180 C 0.37393 0.00141 0.58066
 C181 C 0.39687 -0.00068 0.56091
 C182 C 0.38927 0.02993 0.54238
 C183 C 0.35886 0.06299 0.54398
 C184 C 0.33602 0.06522 0.56373
 C185 C 0.31638 0.03486 0.60232
 N186 N 0.28708 0.06696 0.60406
 N187 N 0.26179 0.06667 0.62147
 C188 C 0.26464 0.03426 0.63789
 N189 N 0.29421 0.00233 0.63629
 N190 N 0.31955 0.00264 0.61888
 C191 C 0.23488 0.03298 0.65651
 C192 C 0.23526 -0.00220 0.67226
 C193 C 0.20541 -0.00438 0.68881
 C194 C 0.17462 0.02863 0.69006
 C195 C 0.17489 0.06420 0.67471
 C196 C 0.20462 0.06634 0.65813
 H197 H 0.38003 -0.02304 0.59452
 H198 H 0.41988 -0.02670 0.55983
 H199 H 0.35241 0.08674 0.52975
 H200 H 0.31233 0.09082 0.56428
 H201 H 0.25818 -0.02842 0.67157
 H202 H 0.20631 -0.03199 0.70060
 H203 H 0.15126 0.08993 0.67502
 H204 H 0.20336 0.09393 0.64631
 C205 C -0.32399 0.02952 0.57402
 C206 C -0.32112 0.05252 0.55272
 C207 C -0.35057 0.05021 0.53410
 C208 C -0.38434 0.02538 0.53629
 C209 C -0.38707 0.00220 0.55765
 C210 C -0.35739 0.00439 0.57630
 C211 C -0.29155 0.03106 0.59339
 N212 N -0.29238 0.00733 0.61370
 N213 N -0.26236 0.00800 0.63073
 C214 C -0.23028 0.03244 0.62816
 N215 N -0.22967 0.05633 0.60792
 N216 N -0.25962 0.05565 0.59093
 C217 C -0.19590 0.03226 0.64664
 C218 C -0.16228 0.05672 0.64328
 C219 C -0.12882 0.05530 0.66008
 C220 C -0.12809 0.02943 0.68070
 C221 C -0.16209 0.00566 0.68437
 C222 C -0.19562 0.00699 0.66750
 H223 H -0.29581 0.07215 0.55028
 H224 H -0.34732 0.06863 0.51802
 H225 H -0.41129 -0.01888 0.55970
 H226 H -0.36027 -0.01414 0.59238
 H227 H -0.16150 0.07675 0.62752
 H228 H -0.10342 0.07453 0.65693
 H229 H -0.16225 -0.01480 0.70002
 H230 H -0.22100 -0.01223 0.67067
 C231 C 0.04558 -0.33519 0.92477
 C232 C 0.01429 -0.36304 0.92407
 C233 C 0.01104 -0.39207 0.94281
 C234 C 0.03950 -0.39465 0.96263
 C235 C 0.07092 -0.36669 0.96315
 C236 C 0.07402 -0.33757 0.94446
 C237 C 0.04750 -0.30275 0.90552
 N238 N 0.07337 -0.27192 0.90776
 N239 N 0.07392 -0.24179 0.89090
 C240 C 0.04870 -0.24124 0.87102
 N241 N 0.02310 -0.27228 0.86868
 N242 N 0.02247 -0.30236 0.88558
 C243 C 0.04808 -0.20673 0.85269
 C244 C 0.02525 -0.20813 0.83116
 C245 C 0.02321 -0.17473 0.81431
 C246 C 0.04375 -0.13905 0.81863
 C247 C 0.06711 -0.13797 0.84003
 C248 C 0.06935 -0.17143 0.85681
 H249 H -0.00856 -0.36166 0.90933
 H250 H -0.01501 -0.41128 0.94215
 H251 H 0.09358 -0.36763 0.97797
 H252 H 0.09859 -0.31667 0.94557
 H253 H 0.00875 -0.23496 0.82733
 H254 H 0.00553 -0.17690 0.79787
 H255 H 0.08279 -0.11076 0.84410
 H256 H 0.08708 -0.16920 0.87323
 C257 C -0.00292 0.34135 0.91691
 C258 C -0.04163 0.35300 0.92576
 C259 C -0.04352 0.37715 0.94489
 C260 C -0.00685 0.39039 0.95540
 C261 C 0.03175 0.37939 0.94647
 C262 C 0.03371 0.35527 0.92733
 C263 C -0.00053 0.31337 0.89765
 N264 N 0.03697 0.30078 0.88968
 N265 N 0.03935 0.27412 0.87315
 C266 C 0.00434 0.25886 0.86386
 N267 N -0.03321 0.27173 0.87167
 N268 N -0.03559 0.29840 0.88821
 C269 C 0.00724 0.22766 0.84625
 C270 C -0.02890 0.21087 0.83722
 C271 C -0.02590 0.17992 0.82154
 C272 C 0.01329 0.16501 0.81453
 C273 C 0.04932 0.18236 0.82318
 C274 C 0.04634 0.21333 0.83884
 H275 H -0.07044 0.34280 0.91822
 H276 H -0.07352 0.38498 0.95177
 H277 H 0.06044 0.38880 0.95464
 H278 H 0.06405 0.34683 0.92103
 H279 H -0.05952 0.22113 0.84254
 H280 H -0.05419 0.16688 0.81537
 H281 H 0.07990 0.17198 0.81783
 H282 H 0.07481 0.22567 0.84533
 C283 C -0.35102 -0.01346 0.41553
 C284 C -0.37953 0.02197 0.41529
 C285 C -0.40298 0.02897 0.43449
 C286 C -0.39871 0.00040 0.45408
 C287 C -0.37100 -0.03532 0.45418
 C288 C -0.34743 -0.04224 0.43511
 C289 C -0.32365 -0.01959 0.39610
 N290 N -0.29118 -0.04949 0.39839
 N291 N -0.26519 -0.05395 0.38151
 C292 C -0.27058 -0.02879 0.36154
 N293 N -0.30333 0.00085 0.35909
 N294 N -0.32929 0.00541 0.37604
 C295 C -0.24022 -0.03259 0.34335
 C296 C -0.24875 -0.01181 0.32113
 C297 C -0.21906 -0.01415 0.30443
 C298 C -0.18002 -0.03701 0.30966
 C299 C -0.17184 -0.05815 0.33181
 C300 C -0.20162 -0.05618 0.34837
 H301 H -0.38292 0.04484 0.40054
 H302 H -0.42386 0.05700 0.43428
 H303 H -0.36714 -0.05755 0.46924
 H304 H -0.32591 -0.06989 0.43589
 H305 H -0.27832 0.00638 0.31665
 H306 H -0.22670 0.00200 0.28744
 H307 H -0.14187 -0.07533 0.33669
 H308 H -0.19385 -0.07233 0.36536
 C309 C 0.31439 0.00503 0.42109
 C310 C 0.34357 -0.02876 0.42861
 C311 C 0.37299 -0.02577 0.44728
 C312 C 0.37415 0.01127 0.45847
 C313 C 0.34540 0.04510 0.45085
 C314 C 0.31583 0.04206 0.43236
 C315 C 0.28169 0.00153 0.40214
 N316 N 0.24882 0.03084 0.39823
 N317 N 0.21866 0.02737 0.38172
 C318 C 0.22011 -0.00548 0.36832
 N319 N 0.25315 -0.03468 0.37208
 N320 N 0.28327 -0.03130 0.38869
 C321 C 0.18573 -0.00972 0.35046
 C322 C 0.19020 -0.03875 0.33355
 C323 C 0.15718 -0.04308 0.31707
 C324 C 0.11893 -0.01889 0.31740
 C325 C 0.11459 0.01029 0.33416
 C326 C 0.14766 0.01499 0.35042
 H327 H 0.34312 -0.05780 0.42041
 H328 H 0.39453 -0.05243 0.45320
 H329 H 0.34564 0.07381 0.45941
 H330 H 0.29392 0.06871 0.42702
 H331 H 0.21917 -0.05815 0.33306
 H332 H 0.16121 -0.06595 0.30438
 H333 H 0.08558 0.02967 0.33462
 H334 H 0.14311 0.03763 0.36318
   
