data_POSCAR
  _audit_creation_date              2014-09-24
  _audit_creation_method            'ToBaCCo'
  _symmetry_space_group_name_H-M    'P1'
  _symmetry_Int_Tables_number       1
  _symmetry_cell_setting            triclinic
  loop_
  _symmetry_equiv_pos_as_xyz
 x,y,z
_cell_length_a 27.5300
_cell_length_b 27.3555
_cell_length_c 35.5557
_cell_angle_alpha 92.332000
_cell_angle_beta 92.323100
_cell_angle_gamma 84.890400
loop_
  _atom_site_label
  _atom_site_type_symbol
  _atom_site_fract_x
  _atom_site_fract_y
  _atom_site_fract_z
C1 C 0.02412 0.54128 1.02517
 C2 C 0.02474 0.54396 0.98516
 C3 C 0.02616 0.49967 0.96329
 C4 C 0.02744 0.45375 0.97954
 C5 C 0.02811 0.45066 1.01930
 C6 C 0.02761 0.49482 1.04125
 H7 H 0.03005 0.49385 1.07159
 H8 H 0.02894 0.49988 0.93304
 C9 C 0.45004 0.00874 0.51658
 C10 C 0.45125 0.01658 0.47759
 C11 C 0.49628 0.01447 0.46028
 C12 C 0.54080 0.00284 0.48046
 C13 C 0.53917 -0.00560 0.51959
 C14 C 0.49407 -0.00277 0.53687
 H15 H 0.49365 -0.00749 0.56697
 H16 H 0.49560 0.01884 0.43017
 C17 C 0.07924 0.01067 0.27168
 H18 H 0.08282 0.01401 0.24173
 C19 C 0.12077 0.00771 0.29563
 H20 H 0.15624 0.00787 0.28363
 C21 C 0.02832 0.00552 0.32329
 H22 H -0.00773 0.00558 0.33412
 C23 C 0.06893 0.00195 0.34820
 H24 H 0.06376 -0.00129 0.37801
 N25 N 0.03419 0.00921 0.28572
 C26 C -0.05598 -0.04252 0.19117
 H27 H -0.08445 -0.01263 0.18991
 C28 C -0.05781 -0.08309 0.16618
 H29 H -0.08780 -0.08421 0.14557
 C30 C 0.01745 -0.07751 0.21990
 H31 H 0.04653 -0.07540 0.24106
 C32 C 0.01703 -0.11880 0.19551
 H33 H 0.04679 -0.14721 0.19780
 Zn34 Zn -0.01969 0.01507 0.25083
 N35 N -0.01859 -0.04033 0.21719
 C36 C -0.00882 0.07132 0.18654
 N37 N -0.01440 0.07289 0.22440
 C38 C -0.01364 0.11572 0.24502
 C39 C -0.00814 0.15951 0.22753
 C40 C -0.00288 0.11424 0.16784
 C41 C -0.08888 -0.02025 0.29607
 C42 C -0.13239 -0.01973 0.31502
 C43 C -0.15705 0.05997 0.29022
 C44 C -0.11282 0.05809 0.27213
 N45 N -0.07946 0.01869 0.27582
 H46 H -0.00837 0.03672 0.17076
 H47 H -0.01727 0.11576 0.27521
 H48 H -0.00791 0.19318 0.24466
 H49 H 0.00108 0.11117 0.13774
 H50 H -0.06231 -0.05179 0.29759
 H51 H -0.13823 -0.05159 0.33063
 H52 H -0.18293 0.09189 0.28694
 H53 H -0.10547 0.08799 0.25490
 C54 C -0.02130 -0.12212 0.16837
 C55 C 0.11577 0.00348 0.33450
 C56 C -0.16729 0.02113 0.31253
 C57 C -0.00244 0.15943 0.18840
 C58 C 0.04422 0.06432 0.79116
 H59 H 0.07864 0.05216 0.77883
 C60 C 0.04111 0.10583 0.81541
 H61 H 0.07357 0.12469 0.82146
 C62 C -0.03870 0.05250 0.79984
 H63 H -0.06966 0.03148 0.79380
 C64 C -0.04342 0.09378 0.82430
 H65 H -0.07820 0.10432 0.83683
 N66 N 0.00441 0.03907 0.78331
 C67 C 0.09936 -0.05874 0.72351
 H68 H 0.09085 -0.08996 0.73884
 C69 C 0.14332 -0.06083 0.70507
 H70 H 0.16804 -0.09389 0.70623
 C71 C 0.07839 0.02241 0.70399
 H72 H 0.05335 0.05521 0.70445
 C73 C 0.12200 0.02188 0.68512
 H74 H 0.12983 0.05467 0.67140
 Zn75 Zn 0.00855 -0.01571 0.74870
 N76 N 0.06766 -0.01768 0.72245
 C77 C -0.04352 0.00563 0.67925
 N78 N -0.04649 -0.01094 0.71455
 C79 C -0.08916 -0.02501 0.72666
 C80 C -0.13114 -0.02234 0.70316
 C81 C -0.08471 0.00949 0.65495
 C82 C 0.01645 -0.07411 0.81298
 C83 C 0.01743 -0.11769 0.83232
 C84 C -0.00059 -0.16048 0.77329
 C85 C -0.00090 -0.11618 0.75514
 N86 N 0.00772 -0.07423 0.77509
 H87 H -0.00939 0.01611 0.66973
 H88 H -0.09061 -0.03853 0.75471
 H89 H -0.16423 -0.03322 0.71437
 H90 H -0.08139 0.02320 0.62707
 H91 H 0.02325 -0.04023 0.82822
 H92 H 0.02447 -0.11573 0.86239
 H93 H -0.00739 -0.19344 0.75667
 H94 H -0.00769 -0.11520 0.72499
 C95 C 0.15499 -0.02043 0.68528
 C96 C -0.00352 0.12159 0.83178
 C97 C 0.00910 -0.16204 0.81238
 C98 C -0.12941 -0.00473 0.66655
 C99 C 0.02028 -0.41775 0.05081
 C100 C -0.00501 -0.37223 0.04367
 C101 C -0.00463 -0.33064 0.07128
 N102 N -0.02960 -0.28697 0.06347
 N103 N -0.02841 -0.24873 0.08785
 C104 C -0.00215 -0.25278 0.12094
 N105 N 0.02273 -0.29644 0.12875
 N106 N 0.02157 -0.33462 0.10438
 C107 C 0.00036 -0.21094 0.14806
 C108 C -0.02395 -0.16489 0.14165
 H109 H -0.02661 -0.36687 0.01782
 H110 H 0.02159 -0.21726 0.17393
 H111 H 0.03339 -0.42339 0.07962
 H112 H -0.04733 -0.16031 0.11656
 C113 C 0.03086 0.40451 0.03641
 C114 C 0.02134 0.39760 0.07418
 C115 C 0.02062 0.34851 0.08954
 N116 N 0.01055 0.34444 0.12625
 N117 N 0.00808 0.30051 0.14051
 C118 C 0.01547 0.25892 0.11856
 N119 N 0.02565 0.26295 0.08183
 N120 N 0.02819 0.30693 0.06757
 C121 C 0.01168 0.21015 0.13375
 C122 C 0.00321 0.20437 0.17182
 H123 H 0.01073 0.42813 0.09314
 H124 H 0.01596 0.17901 0.11417
 H125 H 0.03916 0.37158 0.01925
 H126 H 0.00116 0.23716 0.19008
 C127 C 0.40367 0.01606 0.53674
 C128 C 0.39383 -0.01251 0.56667
 C129 C 0.34686 -0.00663 0.58538
 N130 N 0.33865 -0.03662 0.61347
 N131 N 0.29617 -0.03214 0.63049
 C132 C 0.26028 0.00252 0.62004
 N133 N 0.26853 0.03259 0.59199
 N134 N 0.31101 0.02810 0.57495
 C135 C 0.21302 0.00773 0.63841
 C136 C 0.20222 -0.02360 0.66637
 H137 H 0.42064 -0.04131 0.57595
 H138 H 0.18607 0.03609 0.62877
 H139 H 0.37560 0.04305 0.52649
 H140 H 0.22914 -0.05325 0.67394
 C141 C -0.41682 -0.01575 0.54443
 C142 C -0.37740 0.01303 0.54526
 C143 C -0.33528 0.00465 0.57172
 N144 N -0.29508 0.02917 0.56820
 N145 N -0.25671 0.02207 0.59203
 C146 C -0.25723 -0.00968 0.62038
 N147 N -0.29755 -0.03399 0.62402
 N148 N -0.33580 -0.02709 0.60007
 C149 C -0.21554 -0.01742 0.64738
 C150 C -0.17026 -0.00008 0.64137
 H151 H -0.37737 0.04264 0.52594
 H152 H -0.22104 -0.03864 0.67155
 H153 H -0.41804 -0.04319 0.56543
 H154 H -0.16611 0.01737 0.61498
 C155 C 0.02970 -0.41135 0.96760
 C156 C 0.01695 -0.40249 0.92978
 C157 C 0.01968 -0.35412 0.91363
 N158 N 0.00577 -0.34734 0.87704
 N159 N 0.00666 -0.30352 0.86218
 C160 C 0.02139 -0.26475 0.88340
 N161 N 0.03536 -0.27153 0.92000
 N162 N 0.03454 -0.31539 0.93485
 C163 C 0.02187 -0.21585 0.86757
 C164 C 0.00993 -0.20765 0.82955
 H165 H 0.00102 -0.43006 0.91177
 H166 H 0.03249 -0.18664 0.88664
 H167 H 0.04334 -0.38130 0.98431
 H168 H 0.00131 -0.23911 0.81180
 C169 C 0.03106 0.41018 0.95334
 C170 C -0.00196 0.37432 0.95261
 C171 C 0.00332 0.33056 0.92712
 N172 N -0.02784 0.29500 0.92867
 N173 N -0.02262 0.25470 0.90630
 C174 C 0.01399 0.24853 0.88157
 N175 N 0.04503 0.28414 0.87999
 N176 N 0.03985 0.32436 0.90235
 C177 C 0.02081 0.20425 0.85679
 C178 C -0.00957 0.16603 0.85701
 H179 H -0.03152 0.37778 0.97202
 H180 H 0.05017 0.20260 0.83736
 H181 H 0.05842 0.40858 0.93216
 H182 H -0.04047 0.16980 0.87515
 C183 C -0.41461 -0.00327 0.46172
 C184 C -0.40717 0.01615 0.42678
 C185 C -0.35975 0.00925 0.40874
 N186 N -0.35174 0.03617 0.37874
 N187 N -0.30893 0.03079 0.36221
 C188 C -0.27257 -0.00191 0.37497
 N189 N -0.28072 -0.02916 0.40477
 N190 N -0.32347 -0.02360 0.42142
 C191 C -0.22502 -0.00822 0.35704
 C192 C -0.21195 0.02467 0.33083
 H193 H -0.43521 0.04019 0.41317
 H194 H -0.19980 -0.03824 0.36624
 H195 H -0.38337 -0.02269 0.47555
 H196 H -0.23769 0.05605 0.32501
 C197 C 0.40658 0.02552 0.45325
 C198 C 0.36671 -0.00231 0.45500
 C199 C 0.32382 0.00411 0.42909
 N200 N 0.28446 -0.02110 0.43412
 N201 N 0.24549 -0.01615 0.41068
 C202 C 0.24452 0.01410 0.38125
 N203 N 0.28394 0.03920 0.37616
 N204 N 0.32284 0.03441 0.39969
 C205 C 0.20217 0.01930 0.35470
 C206 C 0.15847 -0.00066 0.36115
 H207 H 0.36718 -0.03045 0.47560
 H208 H 0.20527 0.04051 0.33001
 H209 H 0.40738 0.05103 0.43080
 H210 H 0.15455 -0.01811 0.38754
   
