data_POSCAR
  _audit_creation_date              2014-09-24
  _audit_creation_method            'ToBaCCo'
  _symmetry_space_group_name_H-M    'P1'
  _symmetry_Int_Tables_number       1
  _symmetry_cell_setting            triclinic
  loop_
  _symmetry_equiv_pos_as_xyz
 x,y,z
_cell_length_a 24.3964
_cell_length_b 26.5978
_cell_length_c 24.6755
_cell_angle_alpha 90.118500
_cell_angle_beta 89.613700
_cell_angle_gamma 90.299000
loop_
  _atom_site_label
  _atom_site_type_symbol
  _atom_site_fract_x
  _atom_site_fract_y
  _atom_site_fract_z
C1 C 1.25041 0.25060 0.24964
 C2 C 0.75432 -0.25008 0.25791
 C3 C 0.74741 0.24799 -0.24735
 C4 C 1.24853 -0.25360 -0.25106
 C5 C 0.24964 0.25347 0.75118
 C6 C 0.75237 0.75041 0.74260
 C7 C 0.74881 0.25073 0.25048
 C8 C 0.24552 0.74975 0.25069
 N9 N 1.09750 0.05294 0.06035
 N10 N 1.13425 0.08817 0.07075
 N11 N 1.05911 -0.05285 0.09823
 N12 N 1.06899 -0.08650 0.13622
 N13 N 1.09841 -0.05287 0.06155
 N14 N 1.13621 -0.08647 0.07390
 N15 N 1.05834 0.05313 0.09714
 N16 N 1.06735 0.08863 0.13352
 C17 C 1.11459 0.11038 0.11625
 C18 C 1.11698 -0.10749 0.12045
 N19 N 0.90349 -0.05454 0.05780
 N20 N 0.86462 -0.08758 0.06954
 N21 N 0.93972 0.05181 0.09567
 N22 N 0.92636 0.08452 0.13384
 N23 N 0.90253 0.05116 0.05737
 N24 N 0.86321 0.08366 0.06836
 N25 N 0.94069 -0.05358 0.09609
 N26 N 0.92801 -0.08577 0.13482
 Mn27 Mn 0.99950 -0.00033 0.09721
 C28 C 0.88087 -0.10713 0.11735
 C29 C 0.87889 0.10457 0.11586
 N30 N 1.10047 -0.05319 -0.05594
 N31 N 1.13931 -0.08614 -0.06690
 N32 N 1.06207 0.05220 -0.09425
 N33 N 1.07168 0.08749 -0.13059
 N34 N 1.10002 0.05258 -0.05673
 N35 N 1.13670 0.08823 -0.06682
 N36 N 1.06327 -0.05336 -0.09421
 N37 N 1.07593 -0.08632 -0.13224
 Mn38 Mn 1.09965 -0.00018 0.00230
 C39 C 1.12310 -0.10686 -0.11430
 C40 C 1.11807 0.10989 -0.11287
 N41 N 0.90490 0.05055 -0.05964
 N42 N 0.86697 0.08401 -0.07132
 N43 N 0.94492 -0.05482 -0.09636
 N44 N 0.93365 -0.08669 -0.13587
 N45 N 0.90556 -0.05508 -0.05973
 N46 N 0.86634 -0.08699 -0.07370
 N47 N 0.94400 0.05097 -0.09647
 N48 N 0.93377 0.08484 -0.13410
 Mn49 Mn 0.90369 -0.00204 -0.00101
 Mn50 Mn 1.00363 -0.00127 -0.09570
 Cl51 Cl 1.00159 -0.00104 0.00072
 C52 C 0.88585 0.10546 -0.11763
 C53 C 0.88493 -0.10696 -0.12092
 N54 N 1.09535 0.54971 0.55926
 N55 N 1.13349 0.58275 0.57234
 N56 N 1.05834 0.44339 0.59491
 N57 N 1.06767 0.40772 0.63070
 N58 N 1.09707 0.44434 0.55773
 N59 N 1.13378 0.40921 0.56712
 N60 N 1.05628 0.54874 0.59613
 N61 N 1.06675 0.58121 0.63522
 C62 C 1.11464 0.60248 0.61943
 C63 C 1.11465 0.38652 0.61251
 N64 N 0.90341 0.43976 0.55546
 N65 N 0.86595 0.40507 0.56598
 N66 N 0.93836 0.54620 0.59451
 N67 N 0.92659 0.57985 0.63206
 N68 N 0.90056 0.54542 0.55686
 N69 N 0.86188 0.57858 0.56795
 N70 N 0.94055 0.44085 0.59370
 N71 N 0.92928 0.40714 0.63135
 Mn72 Mn 0.99839 0.49484 0.59527
 C73 C 0.88299 0.38475 0.61316
 C74 C 0.87913 0.60004 0.61476
 N75 N 1.09965 0.44576 0.44132
 N76 N 1.13550 0.40953 0.43321
 N77 N 1.06083 0.55123 0.40430
 N78 N 1.07233 0.58541 0.36707
 N79 N 1.09820 0.55152 0.44238
 N80 N 1.13602 0.58603 0.43212
 N81 N 1.06258 0.44571 0.40308
 N82 N 1.07210 0.40955 0.36774
 Mn83 Mn 1.09813 0.49785 0.50018
 C84 C 1.11753 0.38722 0.38731
 C85 C 1.11911 0.60716 0.38525
 N86 N 0.90346 0.54635 0.43981
 N87 N 0.86532 0.57977 0.42897
 N88 N 0.94516 0.44270 0.40132
 N89 N 0.93834 0.40679 0.36500
 N90 N 0.90646 0.44068 0.43851
 N91 N 0.87230 0.40314 0.42856
 N92 N 0.94270 0.54802 0.40314
 N93 N 0.93243 0.58254 0.36642
 Mn94 Mn 0.90282 0.49302 0.49758
 Mn95 Mn 1.00279 0.49701 0.40244
 Cl96 Cl 1.00050 0.49580 0.49889
 C97 C 0.88439 0.60228 0.38337
 C98 C 0.89308 0.38219 0.38275
 N99 N 0.59268 0.05319 0.55764
 N100 N 0.63264 0.08466 0.57017
 N101 N 0.55389 -0.05224 0.59631
 N102 N 0.56652 -0.08333 0.63593
 N103 N 0.59247 -0.05221 0.55891
 N104 N 0.63233 -0.08310 0.57220
 N105 N 0.55461 0.05324 0.59552
 N106 N 0.56785 0.08462 0.63493
 C107 C 0.61625 0.10446 0.61806
 C108 C 0.61519 -0.10276 0.61996
 N109 N 0.39767 -0.05204 0.55777
 N110 N 0.35822 -0.08428 0.56991
 N111 N 0.43628 0.05348 0.59451
 N112 N 0.42388 0.08621 0.63290
 N113 N 0.39882 0.05348 0.55647
 N114 N 0.36003 0.08632 0.56807
 N115 N 0.43533 -0.05178 0.59559
 N116 N 0.42233 -0.08366 0.63456
 Mn117 Mn 0.49497 0.00062 0.59586
 C118 C 0.37449 -0.10403 0.61755
 C119 C 0.37658 0.10685 0.61549
 N120 N 0.59319 -0.05377 0.44219
 N121 N 0.63094 -0.08797 0.43255
 N122 N 0.55709 0.05033 0.40211
 N123 N 0.57059 0.08221 0.36316
 N124 N 0.59362 0.05174 0.44095
 N125 N 0.63246 0.08491 0.42983
 N126 N 0.55528 -0.05510 0.40465
 N127 N 0.56612 -0.09037 0.36854
 Mn128 Mn 0.59334 -0.00022 0.49983
 C129 C 0.61316 -0.11075 0.38681
 C130 C 0.61733 0.10393 0.38151
 N131 N 0.40012 0.05160 0.43902
 N132 N 0.36201 0.08453 0.42638
 N133 N 0.43651 -0.05457 0.40269
 N134 N 0.42285 -0.08626 0.36355
 N135 N 0.39858 -0.05414 0.44076
 N136 N 0.35864 -0.08595 0.42883
 N137 N 0.43877 0.05081 0.40169
 N138 N 0.42814 0.08324 0.36286
 Mn139 Mn 0.39836 -0.00022 0.49852
 Mn140 Mn 0.49697 -0.00220 0.40233
 Cl141 Cl 0.49585 -0.00053 0.49915
 C142 C 0.38052 0.10433 0.37910
 C143 C 0.37445 -0.10605 0.38081
 N144 N 0.60071 0.44958 0.05629
 N145 N 0.64094 0.43587 0.08858
 N146 N 0.56222 0.41804 -0.05856
 N147 N 0.57378 0.38301 -0.09471
 N148 N 0.60101 0.45240 -0.05741
 N149 N 0.64033 0.44133 -0.09251
 N150 N 0.56235 0.41478 0.05508
 N151 N 0.57556 0.37654 0.08622
 C152 C 0.62422 0.39054 0.10750
 C153 C 0.62222 0.39839 -0.11610
 N154 N 0.40483 0.45020 -0.05574
 N155 N 0.36440 0.43588 -0.08791
 N156 N 0.44447 0.41442 0.05608
 N157 N 0.43219 0.37591 0.08742
 N158 N 0.40513 0.44809 0.05756
 N159 N 0.36472 0.43268 0.08954
 N160 N 0.44469 0.41716 -0.05748
 N161 N 0.43290 0.38027 -0.09117
 Mn162 Mn 0.50339 0.41598 -0.00121
 C163 C 0.38322 0.39260 -0.11039
 C164 C 0.38288 0.38800 0.10852
 N165 N 0.60056 0.56122 -0.05392
 N166 N 0.64051 0.57535 -0.08709
 N167 N 0.56182 0.59259 0.06050
 N168 N 0.57521 0.62944 0.09376
 N169 N 0.60018 0.55811 0.05957
 N170 N 0.64054 0.57060 0.09240
 N171 N 0.56147 0.59501 -0.05294
 N172 N 0.57362 0.63271 -0.08554
 Mn173 Mn 0.60102 0.50534 0.00115
 C174 C 0.62255 0.61968 -0.10707
 C175 C 0.62393 0.61478 0.11396
 N176 N 0.40386 0.55848 0.06048
 N177 N 0.36228 0.57350 0.09128
 N178 N 0.44354 0.59416 -0.05200
 N179 N 0.43173 0.63134 -0.08508
 N180 N 0.40477 0.55967 -0.05282
 N181 N 0.36528 0.57287 -0.08621
 N182 N 0.44380 0.59191 0.06199
 N183 N 0.43102 0.62938 0.09476
 Mn184 Mn 0.40415 0.50409 0.00243
 Mn185 Mn 0.50262 0.59357 0.00440
 Cl186 Cl 0.50271 0.50477 0.00180
 C187 C 0.38042 0.61741 0.11315
 C188 C 0.38327 0.61731 -0.10657
 C189 C 1.21591 0.21475 0.21540
 C190 C 1.22486 0.20461 0.16272
 C191 C 1.19273 0.16724 0.13157
 C192 C 1.14292 0.15042 0.14634
 H193 H 1.25913 0.22186 0.14171
 H194 H 1.21138 0.15325 0.09458
 H195 H 1.18448 0.19402 0.23712
 H196 H 1.12229 0.16518 0.18181
 C197 C 1.21099 0.71466 0.71374
 C198 C 1.23087 0.68391 0.67528
 C199 C 1.19658 0.65169 0.64058
 C200 C 1.14516 0.63810 0.65306
 H201 H 1.27469 0.68292 0.66794
 H202 H 1.21610 0.63632 0.60468
 H203 H 1.16723 0.71729 0.72037
 H204 H 1.12565 0.65046 0.69017
 C205 C 0.71119 0.21569 0.71629
 C206 C 0.67392 0.18303 0.73591
 C207 C 0.63851 0.15106 0.70144
 C208 C 0.65056 0.13892 0.64997
 H209 H 0.66749 0.18078 0.77930
 H210 H 0.60244 0.13489 0.72056
 H211 H 0.71588 0.21963 0.67286
 H212 H 0.68806 0.15197 0.63100
 C213 C 0.71843 0.71370 0.22593
 C214 C 0.68263 0.72910 0.18851
 C215 C 0.64694 0.69465 0.15773
 C216 C 0.65860 0.64618 0.14870
 H217 H 0.67801 0.76891 0.18082
 H218 H 0.61124 0.71112 0.13904
 H219 H 0.72092 0.67397 0.23505
 H220 H 0.69601 0.62972 0.16360
 C221 C 0.78941 -0.21940 0.21891
 C222 C 0.82569 -0.18509 0.23650
 C223 C 0.86016 -0.15363 0.20062
 C224 C 0.84768 -0.14278 0.14917
 H225 H 0.83167 -0.18044 0.27967
 H226 H 0.89554 -0.13596 0.21908
 H227 H 0.78555 -0.22630 0.17584
 H228 H 0.81079 -0.15746 0.13078
 C229 C 0.78161 0.28215 0.71628
 C230 C 0.83245 0.29825 0.72811
 C231 C 0.86438 0.33386 0.69419
 C232 C 0.85165 0.34648 0.64320
 H233 H 0.85133 0.28665 0.76560
 H234 H 0.90033 0.35041 0.71277
 H235 H 0.76099 0.29751 0.68141
 H236 H 0.81693 0.32987 0.62283
 C237 C 0.28294 -0.21925 0.71303
 C238 C 0.32053 -0.18741 0.73310
 C239 C 0.35442 -0.15349 0.69924
 C240 C 0.34103 -0.13965 0.64887
 H241 H 0.32804 -0.18708 0.77632
 H242 H 0.39071 -0.13767 0.71788
 H243 H 0.27667 -0.22119 0.66973
 H244 H 0.30343 -0.15247 0.63039
 C245 C 0.28596 0.28616 0.21603
 C246 C 0.26465 0.32173 0.18387
 C247 C 0.29793 0.35885 0.15325
 C248 C 0.35122 0.35274 0.14205
 H249 H 0.22053 0.32507 0.18114
 H250 H 0.27677 0.39128 0.13734
 H251 H 0.32987 0.28440 0.22102
 H252 H 0.37247 0.31917 0.15439
 C253 C 0.78397 0.21204 -0.21565
 C254 C 0.77340 0.19691 -0.16461
 C255 C 0.80641 0.15988 -0.13423
 C256 C 0.85641 0.14387 -0.14894
 H257 H 0.73706 0.21042 -0.14398
 H258 H 0.78807 0.14552 -0.09724
 H259 H 0.81782 0.19560 -0.23784
 H260 H 0.87656 0.15832 -0.18483
 C261 C 0.79131 0.71871 0.29393
 C262 C 0.77098 0.68899 0.33323
 C263 C 0.80447 0.65521 0.36660
 C264 C 0.85467 0.63996 0.35225
 H265 H 0.72732 0.68932 0.34151
 H266 H 0.78515 0.63982 0.40262
 H267 H 0.83500 0.72018 0.28638
 H268 H 0.87391 0.65265 0.31514
 C269 C 0.28689 0.21816 0.28475
 C270 C 0.26671 0.18950 0.32510
 C271 C 0.30009 0.15601 0.35920
 C272 C 0.35056 0.14052 0.34593
 H273 H 0.22333 0.19113 0.33456
 H274 H 0.28066 0.14166 0.39566
 H275 H 0.33026 0.21730 0.27564
 H276 H 0.37007 0.15210 0.30854
 C277 C 0.28549 0.71160 -0.21919
 C278 C 0.26523 0.67587 -0.18615
 C279 C 0.29941 0.64098 -0.15459
 C280 C 0.35185 0.65017 -0.14232
 H281 H 0.22121 0.67107 -0.18284
 H282 H 0.27921 0.60796 -0.13813
 H283 H 0.32931 0.71488 -0.22531
 H284 H 0.37195 0.68441 -0.15540
 C285 C 1.21457 -0.22153 -0.21246
 C286 C 1.17741 -0.18874 -0.23080
 C287 C 1.14351 -0.15597 -0.19597
 C288 C 1.15614 -0.14328 -0.14499
 H289 H 1.17029 -0.18642 -0.27402
 H290 H 1.10810 -0.13919 -0.21488
 H291 H 1.22099 -0.22553 -0.16933
 H292 H 1.19291 -0.15718 -0.12609
 C293 C 1.21570 0.28340 0.28667
 C294 C 1.16229 0.29283 0.27897
 C295 C 1.13092 0.32930 0.31154
 C296 C 1.14669 0.34634 0.36010
 H297 H 1.14113 0.27658 0.24471
 H298 H 1.09353 0.34329 0.29372
 H299 H 1.23773 0.30293 0.31834
 H300 H 1.18251 0.33168 0.38003
 C301 C 0.71776 -0.21442 0.29014
 C302 C 0.72944 -0.19732 0.34005
 C303 C 0.69506 -0.16133 0.37039
 C304 C 0.64351 -0.14958 0.35728
 H305 H 0.76722 -0.20822 0.35938
 H306 H 0.71375 -0.14372 0.40537
 H307 H 0.68240 -0.19989 0.26943
 H308 H 0.62299 -0.16717 0.32349
 C309 C 0.71487 0.28313 -0.21032
 C310 C 0.66296 0.29733 -0.21942
 C311 C 0.63199 0.33005 -0.18204
 C312 C 0.65440 0.36882 -0.15533
 H313 H 0.64048 0.28213 -0.25337
 H314 H 0.58843 0.32269 -0.17807
 H315 H 0.73619 0.29861 -0.17562
 H316 H 0.69694 0.37900 -0.16203
 C317 C 1.21572 0.21735 -0.21379
 C318 C 1.22537 0.20734 -0.16123
 C319 C 1.19491 0.16895 -0.12930
 C320 C 1.14575 0.15047 -0.14316
 H321 H 1.25932 0.22548 -0.14095
 H322 H 1.21413 0.15571 -0.09259
 H323 H 1.18486 0.19581 -0.23507
 H324 H 1.12474 0.16448 -0.17843
 C325 C 1.21367 0.71728 0.28674
 C326 C 1.16095 0.69809 0.27545
 C327 C 1.13166 0.66361 0.30772
 C328 C 1.14878 0.64438 0.35770
 H329 H 1.14125 0.70903 0.23813
 H330 H 1.09275 0.65078 0.29171
 H331 H 1.23471 0.70303 0.32198
 H332 H 1.18631 0.65732 0.37615
 C333 C 0.70910 0.21815 0.28355
 C334 C 0.68720 0.17498 0.26512
 C335 C 0.64822 0.14418 0.29705
 C336 C 0.65139 0.13988 0.35096
 H337 H 0.69684 0.16192 0.22463
 H338 H 0.61978 0.12062 0.27485
 H339 H 0.69324 0.23333 0.32122
 H340 H 0.68311 0.15978 0.37293
 C341 C 0.71756 0.71480 -0.22310
 C342 C 0.73935 0.67998 -0.19043
 C343 C 0.70619 0.64470 -0.15716
 C344 C 0.65397 0.65329 -0.14289
 H345 H 0.78350 0.67613 -0.18899
 H346 H 0.72674 0.61175 -0.14172
 H347 H 0.67352 0.71653 -0.22711
 H348 H 0.63369 0.68748 -0.15492
 C349 C 0.78883 -0.21773 -0.22062
 C350 C 0.76845 -0.18814 -0.18119
 C351 C 0.80220 -0.15594 -0.14503
 C352 C 0.85415 -0.14218 -0.15566
 H353 H 0.72458 -0.18802 -0.17414
 H354 H 0.78190 -0.14090 -0.10940
 H355 H 0.83270 -0.21956 -0.22653
 H356 H 0.87452 -0.15446 -0.19233
 C357 C 0.78697 0.28238 0.28577
 C358 C 0.79346 0.27779 0.33965
 C359 C 0.82457 0.31489 0.37200
 C360 C 0.86731 0.34097 0.35235
 H361 H 0.77206 0.24887 0.36215
 H362 H 0.81121 0.32096 0.41345
 H363 H 0.80862 0.31237 0.26488
 H364 H 0.88362 0.33279 0.31242
 C365 C 0.27739 -0.21632 0.28477
 C366 C 0.32359 -0.18878 0.26678
 C367 C 0.35484 -0.15537 0.29860
 C368 C 0.34213 -0.14025 0.35175
 H369 H 0.33756 -0.19419 0.22543
 H370 H 0.39096 -0.13935 0.27938
 H371 H 0.26223 -0.20907 0.32536
 H372 H 0.30493 -0.15306 0.37135
 C373 C 0.28590 0.28917 -0.21637
 C374 C 0.26498 0.32507 -0.18382
 C375 C 0.29806 0.36233 -0.15324
 C376 C 0.35206 0.35829 -0.14543
 H377 H 0.22087 0.32821 -0.18009
 H378 H 0.27608 0.39298 -0.13416
 H379 H 0.32971 0.28660 -0.22234
 H380 H 0.37454 0.32663 -0.16140
 C381 C 1.21041 -0.21876 0.21753
 C382 C 1.22578 -0.19860 0.16676
 C383 C 1.19521 -0.16390 0.13630
 C384 C 1.14387 -0.14424 0.15095
 H385 H 1.26488 -0.20951 0.14950
 H386 H 1.21377 -0.15117 0.09871
 H387 H 1.17333 -0.20501 0.23656
 H388 H 1.12354 -0.15653 0.18763
 C389 C 1.21402 0.28619 0.71527
 C390 C 1.15994 0.29355 0.72203
 C391 C 1.12815 0.32944 0.68927
 C392 C 1.14442 0.34672 0.64074
 H393 H 1.13828 0.27581 0.75532
 H394 H 1.08984 0.34242 0.70662
 H395 H 1.23596 0.30753 0.68468
 H396 H 1.18123 0.33287 0.62135
 C397 C 0.71522 -0.21520 0.71009
 C398 C 0.73478 -0.18151 0.67439
 C399 C 0.69966 -0.14871 0.64103
 C400 C 0.64760 -0.13711 0.65349
 H401 H 0.77862 -0.17919 0.66748
 H402 H 0.71878 -0.13185 0.60568
 H403 H 0.67136 -0.21916 0.71511
 H404 H 0.62852 -0.15089 0.69027
 C405 C 0.71476 0.28770 0.21812
 C406 C 0.68082 0.27356 0.17832
 C407 C 0.64625 0.30900 0.14792
 C408 C 0.65827 0.35790 0.14134
 H409 H 0.67657 0.23409 0.16845
 H410 H 0.61103 0.29304 0.12751
 H411 H 0.71554 0.32690 0.23018
 H412 H 0.69533 0.37394 0.15808
 C413 C 0.78491 0.21937 0.21280
 C414 C 0.82033 0.18536 0.23205
 C415 C 0.85588 0.15313 0.19788
 C416 C 0.84499 0.14079 0.14634
 H417 H 0.82454 0.18148 0.27551
 H418 H 0.89060 0.13611 0.21775
 H419 H 0.78225 0.22538 0.16953
 H420 H 0.80865 0.15481 0.12671
 C421 C 0.78755 0.71930 0.70401
 C422 C 0.76580 0.68781 0.66722
 C423 C 0.79875 0.65362 0.63275
 C424 C 0.84877 0.63766 0.64642
 H425 H 0.72175 0.68677 0.66214
 H426 H 0.77925 0.63836 0.59697
 H427 H 0.83164 0.72227 0.70715
 H428 H 0.86756 0.65003 0.68373
 C429 C 0.28485 0.22143 0.71363
 C430 C 0.32339 0.19008 0.73215
 C431 C 0.35715 0.15695 0.69722
 C432 C 0.34367 0.14315 0.64668
 H433 H 0.33151 0.18909 0.77523
 H434 H 0.39331 0.14106 0.71563
 H435 H 0.27795 0.22389 0.67043
 H436 H 0.30630 0.15620 0.62827
 C437 C 0.28100 0.71695 0.21875
 C438 C 0.26084 0.67916 0.18383
 C439 C 0.29331 0.64501 0.15427
 C440 C 0.34989 0.65010 0.14585
 H441 H 0.21691 0.67441 0.18055
 H442 H 0.27201 0.61464 0.13383
 H443 H 0.32462 0.71782 0.22635
 H444 H 0.37109 0.68306 0.16080
   
