data_POSCAR
  _audit_creation_date              2014-09-24
  _audit_creation_method            'ToBaCCo'
  _symmetry_space_group_name_H-M    'P1'
  _symmetry_Int_Tables_number       1
  _symmetry_cell_setting            triclinic
  loop_
  _symmetry_equiv_pos_as_xyz
 x,y,z
_cell_length_a 23.4510
_cell_length_b 23.1408
_cell_length_c 58.1803
_cell_angle_alpha 88.162900
_cell_angle_beta 92.106300
_cell_angle_gamma 124.724400
loop_
  _atom_site_label
  _atom_site_type_symbol
  _atom_site_fract_x
  _atom_site_fract_y
  _atom_site_fract_z
Si1 Si -0.01856 0.01310 0.50945
 Si2 Si 1.00793 -0.03133 0.15466
 Si3 Si 0.00196 0.99979 0.83644
 O4 O 0.49182 0.06398 0.01725
 O5 O 0.60825 0.07096 -0.02537
 O6 O 0.49539 0.06984 -0.02740
 O7 O 0.60857 0.07562 0.01921
 O8 O 0.55025 -0.04016 0.01884
 O9 O 0.43349 -0.04607 -0.02672
 O10 O 0.54540 -0.04498 -0.02564
 O11 O 0.43239 -0.05179 0.01806
 Cu12 Cu 0.55699 0.08167 -0.00422
 Cu13 Cu 0.48420 -0.05731 -0.00383
 C14 C 0.44226 0.00474 0.02502
 C15 C 0.59698 0.01393 -0.03263
 C16 C 0.44438 0.01109 -0.03477
 C17 C 0.59941 0.01896 0.02678
 O18 O 0.03621 0.47232 0.65136
 O19 O 0.05216 0.59281 0.69542
 O20 O 0.04741 0.47658 0.69614
 O21 O 0.05664 0.59516 0.65091
 O22 O -0.05699 0.54065 0.65149
 O23 O -0.06676 0.41708 0.69572
 O24 O -0.06203 0.53261 0.69614
 O25 O -0.07751 0.41751 0.65099
 Cu26 Cu 0.05937 0.53968 0.67355
 Cu27 Cu -0.07709 0.47128 0.67363
 C28 C -0.02376 0.42457 0.64350
 C29 C -0.00275 0.58326 0.70317
 C30 C -0.01082 0.42593 0.70346
 C31 C 0.00189 0.58903 0.64359
 O32 O 0.54000 0.57948 0.30704
 O33 O 0.40998 0.47169 0.35166
 O34 O 0.53197 0.59143 0.35125
 O35 O 0.41205 0.47019 0.30692
 O36 O 0.45578 0.40755 0.31115
 O37 O 0.57348 0.52725 0.35723
 O38 O 0.45239 0.40779 0.35567
 O39 O 0.58414 0.51773 0.31322
 Cu40 Cu 0.46939 0.53457 0.32876
 Cu41 Cu 0.52086 0.45904 0.33478
 C42 C 0.58453 0.56663 0.30263
 C43 C 0.40885 0.42057 0.36110
 C44 C 0.57266 0.58009 0.36206
 C45 C 0.41321 0.41844 0.30129
 C46 C 0.03749 0.11661 0.54273
 C47 C 0.04037 0.16464 0.55733
 C48 C -0.01529 0.17085 0.55819
 C49 C -0.07467 0.12806 0.54413
 C50 C -0.07739 0.07987 0.52925
 C51 C -0.02097 0.07438 0.52849
 N52 N -0.00912 0.22110 0.57362
 N53 N -0.05770 0.22862 0.57717
 C54 C -0.04773 0.27987 0.59308
 C55 C -0.10434 0.28121 0.59880
 C56 C -0.09648 0.32868 0.61504
 C57 C -0.03145 0.37614 0.62571
 C58 C 0.02564 0.37567 0.61956
 C59 C 0.01758 0.32787 0.60347
 H60 H 0.08146 0.11287 0.54242
 H61 H 0.08618 0.19716 0.56810
 H62 H -0.11839 0.13208 0.54460
 H63 H -0.12304 0.04725 0.51844
 H64 H -0.15487 0.24466 0.59092
 H65 H -0.14145 0.32791 0.61933
 H66 H 0.07634 0.41149 0.62745
 H67 H 0.06236 0.32819 0.59928
 C68 C 0.86775 0.86026 0.16460
 C69 C 0.81532 0.81081 0.17914
 C70 C 0.83167 0.78768 0.19917
 C71 C 0.90092 0.81099 0.20370
 C72 C 0.95348 0.86076 0.18916
 C73 C 0.93764 0.88819 0.17006
 N74 N 0.77814 0.74516 0.21536
 N75 N 0.78895 0.72117 0.23373
 C76 C 0.73656 0.68237 0.25057
 C77 C 0.74710 0.64628 0.26802
 C78 C 0.69767 0.60886 0.28495
 C79 C 0.63723 0.60805 0.28495
 C80 C 0.62716 0.64529 0.26762
 C81 C 0.67622 0.68179 0.25044
 H82 H 0.85327 0.87839 0.14963
 H83 H 0.76207 0.79255 0.17529
 H84 H 0.91481 0.79320 0.21896
 H85 H 1.00648 0.87986 0.19356
 H86 H 0.79362 0.64684 0.26842
 H87 H 0.70700 0.58091 0.29815
 H88 H 0.58096 0.64530 0.26717
 H89 H 0.66737 0.71002 0.23722
 C90 C 0.12242 0.08206 -0.13678
 C91 C 0.17770 0.09230 -0.12297
 C92 C 0.18707 0.03796 -0.11961
 C93 C 0.14123 -0.02638 -0.13060
 C94 C 0.08642 -0.03657 -0.14436
 C95 C 0.07611 0.01735 -0.14763
 N96 N 0.24145 0.04774 -0.10442
 N97 N 0.24734 -0.00277 -0.09967
 C98 C 0.29944 0.00329 -0.08425
 C99 C 0.29719 -0.05725 -0.07872
 C100 C 0.34489 -0.05461 -0.06291
 C101 C 0.39629 0.00911 -0.05247
 C102 C 0.39948 0.07032 -0.05847
 C103 C 0.35125 0.06742 -0.07418
 H104 H 0.11573 0.12455 -0.13869
 H105 H 0.21248 0.14216 -0.11453
 H106 H 0.14699 -0.06943 -0.12829
 H107 H 0.05155 -0.08770 -0.15192
 H108 H 0.25748 -0.10696 -0.08642
 H109 H 0.34110 -0.10261 -0.05872
 H110 H 0.43837 0.12019 -0.05069
 H111 H 0.35404 0.11494 -0.07825
 C112 C -0.06427 0.91780 0.54622
 C113 C -0.06489 0.86991 0.56146
 C114 C -0.01193 0.85939 0.56136
 C115 C 0.04313 0.89876 0.54603
 C116 C 0.04367 0.94698 0.53060
 C117 C -0.01080 0.95570 0.53045
 N118 N -0.01697 0.80728 0.57674
 N119 N 0.02924 0.79482 0.57883
 C120 C 0.02063 0.74127 0.59441
 C121 C 0.07637 0.73579 0.59886
 C122 C 0.07005 0.68572 0.61465
 C123 C 0.00733 0.63962 0.62608
 C124 C -0.04912 0.64409 0.62116
 C125 C -0.04249 0.69464 0.60555
 H126 H -0.10669 0.92402 0.54639
 H127 H -0.10735 0.84008 0.57322
 H128 H 0.08482 0.89153 0.54577
 H129 H 0.08572 0.97633 0.51871
 H130 H 0.12516 0.77116 0.59035
 H131 H 0.11444 0.68338 0.61800
 H132 H -0.09801 0.60944 0.62969
 H133 H -0.08660 0.69746 0.60230
 C134 C 0.11383 0.02236 0.18859
 C135 C 0.16094 0.06993 0.20491
 C136 C 0.16414 0.13062 0.20936
 C137 C 0.11975 0.14376 0.19704
 C138 C 0.07239 0.09590 0.18057
 C139 C 0.06842 0.03425 0.17652
 N140 N 0.21325 0.17766 0.22636
 N141 N 0.21955 0.23383 0.23181
 C142 C 0.26908 0.27962 0.24900
 C143 C 0.27239 0.33962 0.25476
 C144 C 0.31942 0.38481 0.27167
 C145 C 0.36427 0.37074 0.28315
 C146 C 0.36122 0.31063 0.27722
 C147 C 0.31398 0.26537 0.26031
 H148 H 0.11399 -0.02321 0.18512
 H149 H 0.19543 0.05969 0.21407
 H150 H 0.12189 0.19088 0.20005
 H151 H 0.03958 0.10750 0.17104
 H152 H 0.23815 0.35120 0.24617
 H153 H 0.32047 0.43072 0.27579
 H154 H 0.39500 0.29834 0.28573
 H155 H 0.31248 0.21926 0.25615
 C156 C 0.86349 -0.07110 -0.14698
 C157 C 0.81289 -0.07682 -0.13310
 C158 C 0.83186 -0.02845 -0.11559
 C159 C 0.90241 0.02418 -0.11152
 C160 C 0.95287 0.02921 -0.12512
 C161 C 0.93404 -0.01813 -0.14302
 N162 N 0.77902 -0.03204 -0.10266
 N163 N 0.79245 0.01920 -0.09046
 C164 C 0.74133 0.01718 -0.07704
 C165 C 0.75864 0.07870 -0.06634
 C166 C 0.71102 0.07830 -0.05246
 C167 C 0.64534 0.01583 -0.04880
 C168 C 0.62775 -0.04577 -0.05981
 C169 C 0.67520 -0.04507 -0.07390
 H170 H 0.84689 -0.10584 -0.16142
 H171 H 0.75862 -0.11719 -0.13660
 H172 H 0.91851 0.06218 -0.09807
 H173 H 1.00642 0.07178 -0.12202
 H174 H 0.80950 0.12700 -0.06863
 H175 H 0.72627 0.12647 -0.04413
 H176 H 0.57754 -0.09473 -0.05734
 H177 H 0.66070 -0.09331 -0.08198
 C178 C 0.05437 -0.10839 0.13408
 C179 C 0.09996 -0.11304 0.12055
 C180 C 0.15736 -0.05225 0.11061
 C181 C 0.16874 0.01324 0.11445
 C182 C 0.12339 0.01774 0.12775
 C183 C 0.06593 -0.04282 0.13756
 N184 N 0.20286 -0.05744 0.09635
 N185 N 0.25620 -0.00223 0.08791
 C186 C 0.30311 -0.00273 0.07303
 C187 C 0.35998 0.06175 0.06506
 C188 C 0.40569 0.06419 0.04972
 C189 C 0.39520 0.00179 0.04203
 C190 C 0.33845 -0.06312 0.05033
 C191 C 0.29265 -0.06542 0.06573
 H192 H 0.01015 -0.15562 0.14158
 H193 H 0.09047 -0.16388 0.11772
 H194 H 0.21237 0.06107 0.10700
 H195 H 0.13304 0.06882 0.13027
 H196 H 0.36841 0.11037 0.07057
 H197 H 0.44880 0.11501 0.04370
 H198 H 0.32897 -0.11213 0.04474
 H199 H 0.24887 -0.11588 0.07168
 C200 C 0.88102 0.98263 0.47410
 C201 C 0.83131 0.93904 0.45732
 C202 C 0.80518 0.86742 0.45676
 C203 C 0.82646 0.83914 0.47394
 C204 C 0.87546 0.88229 0.49067
 C205 C 0.90413 0.95458 0.49068
 N206 N 0.76044 0.82496 0.43808
 N207 N 0.74730 0.76427 0.43481
 C208 C 0.70373 0.71965 0.41637
 C209 C 0.69780 0.65672 0.41316
 C210 C 0.65596 0.61163 0.39534
 C211 C 0.61873 0.62860 0.38053
 C212 C 0.62481 0.69197 0.38381
 C213 C 0.66716 0.73728 0.40153
 H214 H 0.90344 1.03849 0.47357
 H215 H 0.81541 0.96162 0.44417
 H216 H 0.80692 0.78400 0.47402
 H217 H 0.89307 0.85898 0.50279
 H218 H 0.72586 0.64266 0.42451
 H219 H 0.65221 0.56320 0.39334
 H220 H 0.59685 0.70661 0.37267
 H221 H 0.67098 0.78567 0.40370
 C222 C 0.07909 0.12914 0.81336
 C223 C 0.08466 0.18198 0.79904
 C224 C 0.02498 0.17514 0.78987
 C225 C -0.04047 0.11435 0.79497
 C226 C -0.04605 0.06171 0.80912
 C227 C 0.01344 0.06898 0.81877
 N228 N 0.03161 0.22945 0.77512
 N229 N -0.02161 0.22579 0.76708
 C230 C -0.01732 0.27814 0.75197
 C231 C -0.07884 0.26922 0.74394
 C232 C -0.07696 0.31777 0.72848
 C233 C -0.01316 0.37625 0.72076
 C234 C 0.04865 0.38562 0.72915
 C235 C 0.04663 0.33701 0.74462
 H236 H 0.12604 0.13512 0.81975
 H237 H 0.13551 0.22814 0.79497
 H238 H -0.08743 0.10718 0.78792
 H239 H -0.09737 0.01518 0.81244
 H240 H -0.12846 0.22398 0.74950
 H241 H -0.12544 0.30897 0.72235
 H242 H 0.09868 0.43011 0.72356
 H243 H 0.09488 0.34504 0.75060
 C244 C 0.96592 -0.01117 0.11063
 C245 C 0.92357 -0.00287 0.09547
 C246 C 0.88092 0.01576 0.10361
 C247 C 0.88298 0.02888 0.12716
 C248 C 0.92492 0.01973 0.14245
 C249 C 0.96588 -0.00148 0.13432
 N250 N 0.83179 0.01438 0.08792
 N251 N 0.79779 0.03995 0.09244
 C252 C 0.74628 0.03295 0.07649
 C253 C 0.72953 0.08212 0.07644
 C254 C 0.68136 0.07752 0.06032
 C255 C 0.64763 0.02219 0.04453
 C256 C 0.66268 -0.02849 0.04517
 C257 C 0.71219 -0.02273 0.06084
 H258 H 0.99545 -0.02909 0.10379
 H259 H 0.92196 -0.01362 0.07739
 H260 H 0.84961 0.04241 0.13386
 H261 H 0.92206 0.02503 0.16071
 H262 H 0.75513 0.12499 0.08851
 H263 H 0.67035 0.11707 0.06020
 H264 H 0.63761 -0.07143 0.03312
 H265 H 0.72374 -0.06184 0.06079
 C266 C 0.07691 0.03673 0.47532
 C267 C 0.12608 0.07723 0.45843
 C268 C 0.15189 0.14840 0.45519
 C269 C 0.12972 0.17923 0.46954
 C270 C 0.08144 0.13918 0.48648
 C271 C 0.05441 0.06759 0.48948
 N272 N 0.19904 0.18807 0.43699
 N273 N 0.21416 0.24863 0.43099
 C274 C 0.26175 0.28997 0.41309
 C275 C 0.27023 0.35280 0.40597
 C276 C 0.31719 0.39506 0.38879
 C277 C 0.35703 0.37530 0.37866
 C278 C 0.34809 0.31196 0.38581
 C279 C 0.30072 0.26954 0.40279
 H280 H 0.05529 -0.01883 0.47694
 H281 H 0.14255 0.05271 0.44743
 H282 H 0.14883 0.23406 0.46742
 H283 H 0.06367 0.16416 0.49659
 H284 H 0.24045 0.36909 0.41381
 H285 H 0.32306 0.44357 0.38370
 H286 H 0.37781 0.29510 0.37829
 H287 H 0.29515 0.22128 0.40803
 C288 C -0.06793 0.85649 0.82233
 C289 C -0.07529 0.80414 0.80846
 C290 C -0.03485 0.82239 0.78892
 C291 C 0.01069 0.89361 0.78274
 C292 C 0.01706 0.94569 0.79631
 C293 C -0.02176 0.92774 0.81628
 N294 N -0.03877 0.76843 0.77604
 N295 N 0.00918 0.78265 0.76248
 C296 C 0.00627 0.73041 0.74893
 C297 C 0.06520 0.74847 0.73700
 C298 C 0.06328 0.69982 0.72275
 C299 C 0.00177 0.63249 0.71995
 C300 C -0.05703 0.61411 0.73226
 C301 C -0.05473 0.66249 0.74674
 H302 H -0.09534 0.84124 0.83833
 H303 H -0.11006 0.74943 0.81354
 H304 H 0.04231 0.90905 0.76767
 H305 H 0.05453 1.00024 0.79162
 H306 H 0.11251 0.80074 0.73855
 H307 H 0.10923 0.71563 0.71339
 H308 H -0.10516 0.56256 0.73048
 H309 H -0.10097 0.64738 0.75577
   
