data_POSCAR
  _audit_creation_date              2014-09-24
  _audit_creation_method            'ToBaCCo'
  _symmetry_space_group_name_H-M    'P1'
  _symmetry_Int_Tables_number       1
  _symmetry_cell_setting            triclinic
  loop_
  _symmetry_equiv_pos_as_xyz
 x,y,z
_cell_length_a 27.6043
_cell_length_b 27.5992
_cell_length_c 27.4316
_cell_angle_alpha 90.113700
_cell_angle_beta 89.949800
_cell_angle_gamma 90.055800
loop_
  _atom_site_label
  _atom_site_type_symbol
  _atom_site_fract_x
  _atom_site_fract_y
  _atom_site_fract_z
C1 C 0.16369 0.16389 0.22278
 N2 N 0.20470 0.14475 0.20311
 C3 C 0.22559 0.16455 0.16281
 N4 N 0.20512 0.20453 0.14251
 C5 C 0.16399 0.22380 0.16149
 N6 N 0.14331 0.20320 0.20126
 C7 C -0.16082 0.83964 0.22288
 N8 N -0.14086 0.79999 0.20147
 C9 C -0.16277 0.77808 0.16308
 N10 N -0.20471 0.79657 0.14519
 C11 C -0.22481 0.83694 0.16538
 N12 N -0.20276 0.85786 0.20448
 C13 C -0.16620 0.16169 -0.22483
 N14 N -0.14606 0.20141 -0.20359
 C15 C -0.16694 0.22244 -0.16408
 N16 N -0.20784 0.20291 -0.14485
 C17 C -0.22807 0.16251 -0.16489
 N18 N -0.20720 0.14255 -0.20515
 C19 C 0.16374 0.83916 -0.22156
 N20 N 0.20591 0.85620 -0.20271
 C21 C 0.22652 0.83470 -0.16323
 N22 N 0.20493 0.79484 -0.14372
 C23 C 0.16275 0.77752 -0.16237
 N24 N 0.14192 0.80025 -0.20082
 C25 C 0.16277 1.16245 0.77876
 N26 N 0.20250 1.14231 0.79978
 C27 C 0.22394 1.16355 0.83888
 N28 N 0.20506 1.20498 0.85770
 C29 C 0.16469 1.22518 0.83790
 N30 N 0.14410 1.20376 0.79828
 C31 C 0.83686 0.83779 0.77348
 N32 N 0.85561 0.79626 0.79240
 C33 C 0.83585 0.77580 0.83282
 N34 N 0.79656 0.79660 0.85409
 C35 C 0.77727 0.83772 0.83533
 N36 N 0.79779 0.85835 0.79549
 C37 C 0.16174 0.83449 1.22472
 N38 N 0.20119 0.85459 1.20299
 C39 C 0.22223 0.83313 1.16379
 N40 N 0.20290 0.79176 1.14532
 C41 C 0.16272 0.77162 1.16578
 N42 N 0.14283 0.79300 1.20580
 C43 C 0.84010 1.16334 1.22222
 N44 N 0.80026 1.14223 1.20226
 C45 C 0.77736 1.16280 1.16379
 N46 N 0.79501 1.20443 1.14433
 C47 C 0.83557 1.22553 1.16294
 N48 N 0.85750 1.20489 1.20216
 O49 O 0.43141 1.08674 1.08638
 O50 O 0.37837 1.03985 1.04211
 C51 C 0.38809 1.07356 1.07356
 O52 O 0.56785 1.08251 0.91295
 O53 O 0.62103 1.03914 0.96018
 C54 C 0.61120 1.07028 0.92632
 O55 O 0.43209 1.08741 0.91779
 O56 O 0.37918 1.03890 0.95993
 C57 C 0.38871 1.07328 0.92935
 O58 O 0.56780 1.08407 1.08978
 O59 O 0.62090 1.03806 1.04481
 C60 C 0.61124 1.07053 1.07755
 Zr61 Zr 0.49962 1.05951 1.06361
 O62 O 0.50431 1.13606 1.06468
 O63 O 0.49460 1.05800 1.14062
 Zr64 Zr 0.49993 1.05915 0.94026
 O65 O 0.50553 1.13565 0.93944
 O66 O 0.49445 1.05777 0.86328
 O67 O 0.45656 1.06872 1.00184
 O68 O 0.54173 1.06830 1.00199
 O69 O 0.56765 0.91366 1.09100
 O70 O 0.62089 0.95776 1.04432
 C71 C 0.61104 0.92631 1.07792
 O72 O 0.43238 0.90922 0.91686
 O73 O 0.37885 0.95572 0.96096
 C74 C 0.38894 0.92224 0.92936
 O75 O 0.56874 0.91279 0.91417
 O76 O 0.62139 0.95895 0.95954
 C77 C 0.61204 0.92665 0.92654
 O78 O 0.43154 0.90846 1.08552
 O79 O 0.37876 0.95621 1.04246
 C80 C 0.38816 0.92218 1.07342
 Zr81 Zr 0.49974 0.93687 1.06353
 O82 O 0.50541 0.86039 1.06432
 O83 O 0.49389 0.93813 1.14049
 Zr84 Zr 0.50029 0.93656 0.94032
 O85 O 0.50536 0.86002 0.94004
 O86 O 0.49577 0.93732 0.86327
 Zr87 Zr 0.42784 0.99788 1.00177
 Zr88 Zr 0.57184 0.99828 1.00211
 O89 O 0.54208 0.92804 1.00206
 O90 O 0.45679 0.92717 1.00178
 O91 O 0.54287 0.99832 1.07324
 O92 O 0.45811 0.99772 0.93129
 O93 O 0.45757 0.99809 1.07240
 O94 O 0.54335 0.99798 0.93083
 H95 H 0.56347 1.09690 1.00191
 H96 H 0.43633 0.99768 0.90259
 H97 H 0.56397 0.89962 1.00214
 H98 H 0.43545 0.99801 1.10086
 H99 H 0.52218 1.03882 0.85069
 H100 H 0.52414 0.95547 0.85090
 H101 H 0.47820 0.84736 0.95982
 H102 H 0.47981 0.84745 1.04271
 H103 H 0.52141 0.95737 1.15314
 H104 H 0.52360 1.04101 1.15304
 H105 H 0.47812 1.14865 1.04366
 H106 H 0.47980 1.14853 0.96094
 O107 O 0.08483 0.56812 -0.08792
 O108 O 0.03842 0.62097 -0.04303
 C109 C 0.07107 0.61149 -0.07560
 O110 O -0.09068 0.43197 -0.08652
 O111 O -0.04280 0.37904 -0.04392
 C112 C -0.07688 0.38856 -0.07479
 O113 O -0.08392 0.56799 -0.09199
 O114 O -0.04192 0.62074 -0.04289
 C115 C -0.07227 0.61133 -0.07765
 O116 O 0.08780 0.43161 -0.08524
 O117 O 0.04042 0.37835 -0.04187
 C118 C 0.07444 0.38822 -0.07289
 Zr119 Zr 0.06028 0.49972 -0.06239
 O120 O 0.05954 0.49498 -0.13944
 O121 O 0.13681 0.50455 -0.06265
 Zr122 Zr -0.06235 0.49986 -0.06358
 O123 O -0.06146 0.49398 -0.14053
 O124 O -0.13877 0.50620 -0.06414
 O125 O -0.00079 0.54301 -0.07230
 O126 O -0.00104 0.45775 -0.07205
 O127 O 0.08672 0.43099 0.08270
 O128 O 0.03847 0.37820 0.03986
 C129 C 0.07271 0.38764 0.07069
 O130 O -0.08791 0.56808 0.08596
 O131 O -0.04113 0.62088 0.04156
 C132 C -0.07386 0.61144 0.07403
 O133 O -0.09124 0.43168 0.08254
 O134 O -0.04438 0.37842 0.03852
 C135 C -0.07803 0.38829 0.06996
 O136 O 0.08220 0.56698 0.08885
 O137 O 0.03908 0.62046 0.04173
 C138 C 0.07008 0.61042 0.07567
 Zr139 Zr 0.05894 0.49928 0.06080
 O140 O 0.05731 0.49335 0.13772
 O141 O 0.13542 0.50482 0.06225
 Zr142 Zr -0.06377 0.49973 0.05968
 O143 O -0.06369 0.49490 0.13670
 O144 O -0.14029 0.50470 0.05912
 Zr145 Zr -0.00148 0.57159 -0.00095
 Zr146 Zr -0.00190 0.42761 -0.00160
 O147 O -0.00262 0.45751 0.06904
 O148 O -0.00235 0.54264 0.07008
 O149 O 0.06895 0.45626 -0.00090
 O150 O -0.07173 0.54187 -0.00191
 O151 O 0.06855 0.54152 -0.00047
 O152 O -0.07261 0.45651 -0.00219
 H153 H -0.00081 0.43588 -0.10074
 H154 H -0.10008 0.56385 -0.00226
 H155 H -0.00283 0.43556 0.09757
 H156 H 0.09712 0.56327 -0.00002
 H157 H -0.15197 0.47956 -0.04405
 H158 H -0.15271 0.47765 0.03899
 H159 H -0.04562 0.52321 0.14939
 H160 H 0.03777 0.52066 0.15034
 H161 H 0.14846 0.47889 0.04108
 H162 H 0.14926 0.47826 -0.04167
 H163 H 0.04309 0.52425 -0.15195
 H164 H -0.04002 0.51986 -0.15303
 O165 O 1.08971 -0.08084 0.56952
 O166 O 1.04106 -0.03808 0.62211
 C167 C 1.07530 -0.06881 0.61299
 O168 O 1.08734 0.09046 0.43247
 O169 O 1.04377 0.04403 0.37840
 C170 C 1.07517 0.07738 0.38866
 O171 O 1.08877 0.08685 0.56975
 O172 O 1.04070 0.04337 0.62234
 C173 C 1.07469 0.07440 0.61314
 O174 O 1.08585 -0.08712 0.43235
 O175 O 1.04354 -0.03982 0.37831
 C176 C 1.07410 -0.07386 0.38855
 Zr177 Zr 1.06269 -0.05895 0.50053
 O178 O 1.13923 -0.05888 0.49557
 O179 O 1.06263 -0.13541 0.50650
 Zr180 Zr 1.06289 0.06358 0.50069
 O181 O 1.13949 0.06316 0.49672
 O182 O 1.06264 0.14012 0.50587
 O183 O 1.07151 0.00235 0.54428
 O184 O 1.07232 0.00221 0.45840
 O185 O 0.91705 -0.08526 0.42983
 O186 O 0.96224 -0.03896 0.37713
 C187 C 0.93034 -0.07210 0.38644
 O188 O 0.91164 0.08636 0.56698
 O189 O 0.95752 0.04253 0.62105
 C190 C 0.92409 0.07375 0.61078
 O191 O 0.91855 0.09097 0.42998
 O192 O 0.96317 0.04408 0.37720
 C193 C 0.93171 0.07760 0.38655
 O194 O 0.91247 -0.08285 0.56665
 O195 O 0.95821 -0.03876 0.62086
 C196 C 0.92512 -0.07041 0.61048
 Zr197 Zr 0.93998 -0.05878 0.49867
 O198 O 0.86350 -0.05798 0.49289
 O199 O 0.93996 -0.13536 0.50312
 Zr200 Zr 0.94040 0.06376 0.49885
 O201 O 0.86401 0.06433 0.49222
 O202 O 0.94129 0.14028 0.50452
 Zr203 Zr 1.00026 0.00234 0.57212
 Zr204 Zr 1.00267 0.00224 0.42726
 O205 O 0.93207 0.00251 0.45640
 O206 O 0.92997 0.00247 0.54213
 O207 O 1.00196 -0.06848 0.45615
 O208 O 1.00093 0.07249 0.54209
 O209 O 1.00073 -0.06776 0.54176
 O210 O 1.00236 0.07306 0.45627
 H211 H 1.10103 0.00199 0.43670
 H212 H 1.00047 0.10096 0.56415
 H213 H 0.90383 0.00275 0.43414
 H214 H 1.00066 -0.09630 0.56363
 H215 H 1.04375 0.15264 0.47799
 H216 H 0.96078 0.15284 0.47703
 H217 H 0.85085 0.04324 0.51816
 H218 H 0.85073 -0.03962 0.52112
 H219 H 0.95933 -0.14781 0.47545
 H220 H 1.04208 -0.14824 0.47992
 H221 H 1.15169 -0.03849 0.52247
 H222 H 1.15158 0.04422 0.52475
 C223 C 1.16359 0.10265 0.28747
 C224 C 1.14242 0.14318 0.26455
 C225 C 1.09931 0.16242 0.28445
 C226 C 1.07789 0.14143 0.32548
 C227 C 1.09915 0.10113 0.34759
 C228 C 1.14209 0.08191 0.32860
 H229 H 1.19667 0.08662 0.27365
 H230 H 1.08168 0.19348 0.26821
 H231 H 1.04452 0.15639 0.33978
 H232 H 1.15867 0.05054 0.34535
 C233 C 0.90652 -0.15592 0.28092
 C234 C 0.86169 -0.13854 0.26340
 C235 C 0.83994 -0.09899 0.28761
 C236 C 0.86216 -0.07783 0.32815
 C237 C 0.90667 -0.09532 0.34489
 C238 C 0.92885 -0.13425 0.32112
 H239 H 0.92472 -0.18610 0.26351
 H240 H 0.80555 -0.08441 0.27560
 H241 H 0.84476 -0.04764 0.34635
 H242 H 0.96338 -0.14791 0.33375
 C243 C 0.89977 0.15828 0.71545
 C244 C 0.85545 0.14042 0.73383
 C245 C 0.83358 0.10067 0.70994
 C246 C 0.85545 0.07954 0.66910
 C247 C 0.89970 0.09728 0.65179
 C248 C 0.92176 0.13663 0.67507
 H249 H 0.91803 0.18863 0.73253
 H250 H 0.79951 0.08578 0.72258
 H251 H 0.83813 0.04906 0.65132
 H252 H 0.95612 0.15048 0.66202
 C253 C 1.09088 -0.13233 0.73336
 C254 C 1.14142 -0.13697 0.73611
 C255 C 1.17029 -0.11902 0.69800
 C256 C 1.14879 -0.09754 0.65725
 C257 C 1.09832 -0.09231 0.65497
 C258 C 1.06955 -0.10944 0.69346
 H259 H 1.06796 -0.14575 0.76244
 H260 H 1.20935 -0.12242 0.69937
 H261 H 1.17152 -0.08428 0.62795
 H262 H 1.03049 -0.10578 0.69225
 C263 C 0.28786 1.16250 1.09893
 C264 C 0.26681 1.14304 1.14157
 C265 C 0.28731 1.10073 1.16170
 C266 C 0.32706 1.07838 1.13956
 C267 C 0.34718 1.09781 1.09707
 C268 C 0.32764 1.13997 1.07691
 H269 H 0.27346 1.19489 1.08210
 H270 H 0.27250 1.08440 1.19435
 H271 H 0.34200 1.04574 1.15544
 H272 H 0.34296 1.15522 1.04394
 C273 C 0.28863 0.83417 0.90075
 C274 C 0.26823 0.85481 0.85841
 C275 C 0.28949 0.89728 0.83935
 C276 C 0.32909 0.91887 0.86244
 C277 C 0.34835 0.89849 0.90482
 C278 C 0.32829 0.85595 0.92375
 H279 H 0.27364 0.80157 0.91673
 H280 H 0.27526 0.91446 0.80693
 H281 H 0.34452 0.95174 0.84746
 H282 H 0.34302 0.83992 0.95657
 C283 C 0.71264 0.90011 1.16550
 C284 C 0.73322 0.85783 1.14509
 C285 C 0.71159 0.83791 1.10295
 C286 C 0.67147 0.86013 1.08146
 C287 C 0.65191 0.90235 1.10174
 C288 C 0.67234 0.92205 1.14399
 H289 H 0.72782 0.91674 1.19786
 H290 H 0.72599 0.80553 1.08593
 H291 H 0.65593 0.84463 1.04868
 H292 H 0.65740 0.95470 1.16002
 C293 C 0.70983 1.09884 0.83597
 C294 C 0.73114 1.14058 0.85677
 C295 C 0.71147 1.15895 0.90057
 C296 C 0.67242 1.13582 0.92317
 C297 C 0.65192 1.09434 0.90228
 C298 C 0.67046 1.07612 0.85849
 H299 H 0.72355 1.08341 0.80237
 H300 H 0.72655 1.19083 0.91797
 H301 H 0.65822 1.15024 0.95706
 H302 H 0.65469 1.04411 0.84196
 C303 C 0.09043 0.26784 0.13375
 C304 C 0.14101 0.26596 0.13834
 C305 C 0.16921 0.30449 0.12064
 C306 C 0.14696 0.34481 0.09944
 C307 C 0.09643 0.34620 0.09417
 C308 C 0.06838 0.30727 0.11105
 H309 H 0.06806 0.23837 0.14693
 H310 H 0.20830 0.30371 0.12396
 H311 H 0.16916 0.37443 0.08632
 H312 H 0.02933 0.30772 0.10724
 C313 C -0.17290 0.30366 -0.12377
 C314 C -0.14437 0.26537 -0.14155
 C315 C -0.09376 0.26831 -0.13782
 C316 C -0.07203 0.30839 -0.11573
 C317 C -0.10042 0.34699 -0.09860
 C318 C -0.15099 0.34465 -0.10317
 H319 H -0.21201 0.30213 -0.12648
 H320 H -0.07108 0.23910 -0.15110
 H321 H -0.03294 0.30951 -0.11241
 H322 H -0.17346 0.37396 -0.08979
 C323 C 0.08869 0.73230 -0.13700
 C324 C 0.13936 0.73464 -0.14079
 C325 C 0.16741 0.69568 -0.12402
 C326 C 0.14505 0.65473 -0.10416
 C327 C 0.09449 0.65296 -0.09940
 C328 C 0.06646 0.69209 -0.11567
 H329 H 0.06640 0.76202 -0.14959
 H330 H 0.20654 0.69670 -0.12684
 H331 H 0.16722 0.62500 -0.09137
 H332 H 0.02736 0.69131 -0.11220
 C333 C -0.16898 0.69602 0.12476
 C334 C -0.14039 0.73509 0.14059
 C335 C -0.08987 0.73273 0.13526
 C336 C -0.06832 0.69240 0.11346
 C337 C -0.09679 0.65306 0.09826
 C338 C -0.14722 0.65487 0.10446
 H339 H -0.20801 0.69708 0.12877
 H340 H -0.06715 0.76254 0.14709
 H341 H -0.02936 0.69173 0.10877
 H342 H -0.16978 0.62501 0.09247
 C343 C 1.15966 0.09721 0.71792
 C344 C 1.14123 0.14081 0.73755
 C345 C 1.10075 0.16226 0.71479
 C346 C 1.07956 0.14083 0.67381
 C347 C 1.09816 0.09759 0.65489
 C348 C 1.13814 0.07577 0.67709
 H349 H 1.19057 0.07928 0.73414
 H350 H 1.08528 0.19569 0.72844
 H351 H 1.04845 0.15785 0.65699
 H352 H 1.15255 0.04205 0.66292
 C353 C 0.83912 -0.09657 0.71345
 C354 C 0.85804 -0.14020 0.73237
 C355 C 0.89895 -0.16077 0.70947
 C356 C 0.92039 -0.13819 0.66930
 C357 C 0.90141 -0.09480 0.65127
 C358 C 0.86073 -0.07413 0.67335
 H359 H 0.80778 -0.07934 0.72973
 H360 H 0.91479 -0.19416 0.72262
 H361 H 0.95207 -0.15432 0.65253
 H362 H 0.84587 -0.04051 0.65967
 C363 C 1.10205 -0.16590 0.29107
 C364 C 1.14053 -0.14337 0.26582
 C365 C 1.15719 -0.09796 0.28265
 C366 C 1.13551 -0.07554 0.32279
 C367 C 1.09756 -0.09837 0.34755
 C368 C 1.08113 -0.14373 0.33184
 H369 H 1.08813 -0.20083 0.27965
 H370 H 1.18652 -0.07915 0.26446
 H371 H 1.14837 -0.04034 0.33460
 H372 H 1.05172 -0.16167 0.35077
 C373 C 0.84658 0.09777 0.28187
 C374 C 0.86290 0.14242 0.26297
 C375 C 0.90234 0.16562 0.28606
 C376 C 0.92439 0.14491 0.32691
 C377 C 0.90795 0.10047 0.34493
 C378 C 0.86916 0.07695 0.32222
 H379 H 0.81656 0.07848 0.26540
 H380 H 0.91610 0.19998 0.27295
 H381 H 0.95444 0.16336 0.34425
 H382 H 0.85628 0.04245 0.33585
 C383 C 0.16386 0.28855 -0.09914
 C384 C 0.14352 0.26668 -0.14098
 C385 C 0.10061 0.28660 -0.16043
 C386 C 0.07846 0.32647 -0.13830
 C387 C 0.09871 0.34737 -0.09655
 C388 C 0.14157 0.32852 -0.07717
 H389 H 0.19675 0.27462 -0.08289
 H390 H 0.08360 0.27119 -0.19248
 H391 H 0.04533 0.34091 -0.15362
 H392 H 0.15746 0.34444 -0.04478
 C393 C -0.10121 0.28778 0.15909
 C394 C -0.14436 0.26705 0.14093
 C395 C -0.16595 0.28804 0.09936
 C396 C -0.14458 0.32791 0.07637
 C397 C -0.10144 0.34751 0.09446
 C398 C -0.08002 0.32752 0.13596
 H399 H -0.08327 0.27308 0.19088
 H400 H -0.19908 0.27346 0.08410
 H401 H -0.16141 0.34317 0.04421
 H402 H -0.04667 0.34258 0.15031
 C403 C -0.12219 0.69564 -0.17378
 C404 C -0.14145 0.73297 -0.14479
 C405 C -0.13792 0.72980 -0.09386
 C406 C -0.11471 0.69041 -0.07223
 C407 C -0.09608 0.65278 -0.10111
 C408 C -0.10040 0.65532 -0.15200
 H409 H -0.12454 0.69744 -0.21314
 H410 H -0.15218 0.75834 -0.07082
 H411 H -0.11188 0.68895 -0.03286
 H412 H -0.08606 0.62664 -0.17482
 C413 C 0.09891 0.70963 0.16547
 C414 C 0.14084 0.73050 0.14466
 C415 C 0.15935 0.71016 0.10123
 C416 C 0.13614 0.67096 0.07894
 C417 C 0.09439 0.65100 0.09973
 C418 C 0.07604 0.67015 0.14321
 H419 H 0.08337 0.72388 0.19880
 H420 H 0.19138 0.72485 0.08385
 H421 H 0.15063 0.65629 0.04528
 H422 H 0.04379 0.65483 0.15963
 C423 C 0.26911 1.09023 0.86558
 C424 C 0.26656 1.14084 0.86158
 C425 C 0.30478 1.16932 0.87965
 C426 C 0.34532 1.14735 0.90076
 C427 C 0.34729 1.09680 0.90557
 C428 C 0.30878 1.06844 0.88816
 H429 H 0.23993 1.06760 0.85213
 H430 H 0.30352 1.20843 0.87679
 H431 H 0.37462 1.16979 0.91428
 H432 H 0.30968 1.02935 0.89155
 C433 C 0.30304 0.82666 1.12281
 C434 C 0.26504 0.85545 1.14082
 C435 C 0.26818 0.90603 1.13690
 C436 C 0.30819 0.92748 1.11449
 C437 C 0.34650 0.89883 1.09714
 C438 C 0.34395 0.84829 1.10184
 H439 H 0.30137 0.78755 1.12565
 H440 H 0.23922 0.92891 1.15036
 H441 H 0.30954 0.96657 1.11117
 H442 H 0.37307 0.82563 1.08837
 C443 C 0.73275 1.08876 1.13755
 C444 C 0.73428 1.13934 1.14272
 C445 C 0.69454 1.16714 1.12748
 C446 C 0.65359 1.14456 1.10776
 C447 C 0.65263 1.09409 1.10152
 C448 C 0.69259 1.06639 1.11625
 H449 H 0.76313 1.06668 1.14889
 H450 H 0.69500 1.20620 1.13134
 H451 H 0.62325 1.16654 1.09612
 H452 H 0.69259 1.02743 1.11146
 C453 C 0.69595 0.83175 0.87467
 C454 C 0.73477 0.86035 0.85834
 C455 C 0.73263 0.91085 0.86390
 C456 C 0.69269 0.93239 0.88647
 C457 C 0.65357 0.90388 0.90211
 C458 C 0.65520 0.85348 0.89567
 H459 H 0.69689 0.79272 0.87049
 H460 H 0.76229 0.93352 0.85167
 H461 H 0.69210 0.97134 0.89133
 H462 H 0.62548 0.83091 0.90793
   
