data_POSCAR
  _audit_creation_date              2014-09-24
  _audit_creation_method            'ToBaCCo'
  _symmetry_space_group_name_H-M    'P1'
  _symmetry_Int_Tables_number       1
  _symmetry_cell_setting            triclinic
  loop_
  _symmetry_equiv_pos_as_xyz
 x,y,z
_cell_length_a 44.6394
_cell_length_b 44.7196
_cell_length_c 44.5473
_cell_angle_alpha 89.994800
_cell_angle_beta 90.008500
_cell_angle_gamma 89.896100
loop_
  _atom_site_label
  _atom_site_type_symbol
  _atom_site_fract_x
  _atom_site_fract_y
  _atom_site_fract_z
C1 C 0.15829 0.18206 0.20054
 C2 C 0.15825 0.20372 0.17778
 C3 C 0.18021 0.20324 0.15580
 C4 C 0.20249 0.18109 0.15632
 C5 C 0.20254 0.15968 0.17882
 C6 C 0.18031 0.16016 0.20106
 C7 C 0.13953 0.17687 0.22453
 N8 N 0.14978 0.15247 0.23937
 C9 C 0.17460 0.14199 0.22536
 C10 C 0.22643 0.14086 0.17352
 N11 N 0.24065 0.15050 0.14847
 C12 C 0.22635 0.17498 0.13768
 C13 C 0.17444 0.22660 0.13649
 N14 N 0.14962 0.24103 0.14634
 C15 C 0.13946 0.22737 0.17148
 H16 H 0.11985 0.18971 0.23063
 H17 H 0.18739 0.12254 0.23223
 H18 H 0.23289 0.12157 0.18674
 H19 H 0.23272 0.18727 0.11773
 H20 H 0.18717 0.23259 0.11670
 H21 H 0.11983 0.23407 0.18408
 C22 C -0.15539 0.82076 0.20431
 C23 C -0.15596 0.79852 0.18212
 C24 C -0.17849 0.79847 0.16072
 C25 C -0.20073 0.82065 0.16125
 C26 C -0.20018 0.84264 0.18318
 C27 C -0.17737 0.84269 0.20483
 C28 C -0.13603 0.82651 0.22768
 N29 N -0.14588 0.85129 0.24214
 C30 C -0.17104 0.86145 0.22852
 C31 C -0.22419 0.86135 0.17801
 N32 N -0.23906 0.85111 0.15359
 C33 C -0.22506 0.82633 0.14308
 C34 C -0.17323 0.77462 0.14187
 N35 N -0.14818 0.76041 0.15144
 C36 C -0.13736 0.77470 0.17594
 H37 H -0.11623 0.81378 0.23362
 H38 H -0.18366 0.88105 0.23524
 H39 H -0.23027 0.88100 0.19087
 H40 H -0.23195 0.81356 0.12361
 H41 H -0.18648 0.76816 0.12257
 H42 H -0.11739 0.76830 0.18819
 C43 C -0.16103 0.17776 -0.20216
 C44 C -0.16166 0.20005 -0.18002
 C45 C -0.18363 0.19963 -0.15804
 C46 C -0.20523 0.17690 -0.15794
 C47 C -0.20462 0.15486 -0.17982
 C48 C -0.18239 0.15529 -0.20206
 C49 C -0.14211 0.17239 -0.22599
 N50 N -0.15161 0.14732 -0.24012
 C51 C -0.17613 0.13660 -0.22583
 C52 C -0.22795 0.13558 -0.17400
 N53 N -0.24248 0.14554 -0.14924
 C54 C -0.22893 0.17069 -0.13915
 C55 C -0.17853 0.22365 -0.13939
 N56 N -0.15412 0.23842 -0.14964
 C57 C -0.14356 0.22432 -0.17438
 H58 H -0.12283 0.18558 -0.23246
 H59 H -0.18834 0.11665 -0.23216
 H60 H -0.23381 0.11577 -0.18668
 H61 H -0.23571 0.18337 -0.11957
 H62 H -0.19142 0.22984 -0.11975
 H63 H -0.12409 0.23113 -0.18714
 C64 C 0.15943 0.82145 -0.20276
 C65 C 0.15857 0.79875 -0.18106
 C66 C 0.18004 0.79778 -0.15861
 C67 C 0.20264 0.81950 -0.15759
 C68 C 0.20349 0.84195 -0.17904
 C69 C 0.18176 0.84293 -0.20176
 C70 C 0.14128 0.82812 -0.22687
 N71 N 0.15219 0.85300 -0.24030
 C72 C 0.17685 0.86234 -0.22529
 C73 C 0.22752 0.86005 -0.17233
 N74 N 0.24104 0.84900 -0.14746
 C75 C 0.22617 0.82430 -0.13816
 C76 C 0.17346 0.77367 -0.14055
 N77 N 0.14865 0.76021 -0.15161
 C78 C 0.13928 0.77522 -0.17630
 H79 H 0.12157 0.81594 -0.23400
 H80 H 0.19006 0.88183 -0.23095
 H81 H 0.23453 0.87982 -0.18448
 H82 H 0.23192 0.81098 -0.11867
 H83 H 0.18564 0.76653 -0.12077
 H84 H 0.11981 0.76952 -0.18961
 C85 C 0.18257 1.15944 0.79893
 C86 C 0.20429 1.15941 0.82165
 C87 C 0.20387 1.18136 0.84360
 C88 C 0.18171 1.20361 0.84309
 C89 C 0.16021 1.20364 0.82062
 C90 C 0.16065 1.18143 0.79842
 C91 C 0.17727 1.14064 0.77504
 N92 N 0.15278 1.15084 0.76027
 C93 C 0.14234 1.17567 0.77421
 C94 C 0.14135 1.22745 0.82596
 N95 N 0.15103 1.24164 0.85099
 C96 C 0.17559 1.22740 0.86175
 C97 C 0.22724 1.17556 0.86293
 N98 N 0.24162 1.15074 0.85310
 C99 C 0.22791 1.14060 0.82797
 H100 H 0.19008 1.12095 0.76898
 H101 H 0.12283 1.18840 0.76739
 H102 H 0.12196 1.23386 0.81279
 H103 H 0.18790 1.23376 0.88170
 H104 H 0.23326 1.18825 0.88273
 H105 H 0.23455 1.12094 0.81542
 C106 C 0.82010 0.84345 0.79497
 C107 C 0.79784 0.84293 0.81715
 C108 C 0.79776 0.82046 0.83857
 C109 C 0.81995 0.79824 0.83807
 C110 C 0.84198 0.79875 0.81614
 C111 C 0.84205 0.82149 0.79447
 C112 C 0.82593 0.86280 0.77166
 N113 N 0.85076 0.85296 0.75724
 C114 C 0.86090 0.82781 0.77084
 C115 C 0.86075 0.77483 0.82137
 N116 N 0.85049 0.76006 0.84583
 C117 C 0.82566 0.77403 0.85631
 C118 C 0.77393 0.82582 0.85746
 N119 N 0.75978 0.85087 0.84787
 C120 C 0.77406 0.86159 0.82333
 H121 H 0.81322 0.88260 0.76574
 H122 H 0.88057 0.81524 0.76417
 H123 H 0.88045 0.76876 0.80855
 H124 H 0.81290 0.76721 0.87582
 H125 H 0.76747 0.81268 0.87682
 H126 H 0.76773 0.88155 0.81110
 C127 C 0.17872 0.83879 1.20376
 C128 C 0.20098 0.83821 1.18157
 C129 C 0.20056 0.81626 1.15963
 C130 C 0.17787 0.79462 1.15962
 C131 C 0.15586 0.79519 1.18155
 C132 C 0.15629 0.81740 1.20375
 C133 C 0.17329 0.85774 1.22752
 N134 N 0.14823 0.84821 1.24169
 C135 C 0.13755 0.82366 1.22750
 C136 C 0.13657 0.77191 1.17574
 N137 N 0.14648 0.75745 1.15094
 C138 C 0.17162 0.77101 1.14082
 C139 C 0.22448 0.82144 1.14083
 N140 N 0.23919 0.84589 1.15097
 C141 C 0.22516 0.85640 1.17577
 H142 H 0.18641 0.87708 1.23390
 H143 H 0.11760 0.81145 1.23385
 H144 H 0.11674 0.76602 1.18841
 H145 H 0.18422 0.76430 1.12117
 H146 H 0.23061 0.80860 1.12115
 H147 H 0.23192 0.87592 1.18843
 C148 C 0.82070 1.15952 1.20401
 C149 C 0.79798 1.15854 1.18230
 C150 C 0.79693 1.17996 1.15984
 C151 C 0.81858 1.20260 1.15883
 C152 C 0.84104 1.20357 1.18028
 C153 C 0.84211 1.18191 1.20301
 C154 C 0.82748 1.14141 1.22808
 N155 N 0.85236 1.15241 1.24149
 C156 C 0.86160 1.17708 1.22650
 C157 C 0.85910 1.22757 1.17351
 N158 N 0.84803 1.24096 1.14859
 C159 C 0.82334 1.22602 1.13934
 C160 C 0.77289 1.17324 1.14171
 N161 N 0.75954 1.14840 1.15274
 C162 C 0.77455 1.13913 1.17747
 H163 H 0.81540 1.12165 1.23519
 H164 H 0.88110 1.19033 1.23214
 H165 H 0.87890 1.23466 1.18560
 H166 H 0.81004 1.23167 1.11981
 H167 H 0.76574 1.18533 1.12189
 H168 H 0.76895 1.11965 1.19075
 O169 O 0.54209 0.94508 0.94820
 O170 O 0.57497 0.97199 0.97723
 C171 C 0.56889 0.95290 0.95625
 O172 O 0.45788 1.05163 0.95116
 O173 O 0.42503 1.02291 0.97839
 C174 C 0.43109 1.04367 0.95908
 O175 O 0.54207 1.04876 0.94840
 O176 O 0.57495 1.02158 0.97726
 C177 C 0.56888 1.04084 0.95641
 O178 O 0.45790 0.94209 0.95126
 O179 O 0.42504 0.97105 0.97837
 C180 C 0.43109 0.95022 0.95909
 Zr181 Zr 0.49998 0.95893 0.96548
 O182 O 0.49695 0.95741 0.91809
 O183 O 0.50155 0.91180 0.96865
 Zr184 Zr 0.49996 1.03466 0.96534
 O185 O 0.49655 1.03442 0.91793
 O186 O 0.50333 1.08188 0.96539
 O187 O 0.52661 0.99677 0.95951
 O188 O 0.47400 0.99683 0.95991
 O189 O 0.45798 0.94184 1.05510
 O190 O 0.42506 0.97105 1.02828
 C191 C 0.43116 0.95005 1.04736
 O192 O 0.54211 1.04878 1.05820
 O193 O 0.57497 1.02162 1.02929
 C194 C 0.56891 1.04089 1.05012
 O195 O 0.45789 1.05172 1.05545
 O196 O 0.42505 1.02298 1.02824
 C197 C 0.43109 1.04377 1.04752
 O198 O 0.54219 0.94473 1.05819
 O199 O 0.57499 0.97197 1.02939
 C200 C 0.56898 0.95268 1.05021
 Zr201 Zr 0.50005 0.95900 1.04129
 O202 O 0.49666 0.95932 1.08870
 O203 O 0.50291 0.91176 1.04122
 Zr204 Zr 0.49999 1.03466 1.04134
 O205 O 0.49660 1.03429 1.08874
 O206 O 0.50335 1.08187 1.04143
 Zr207 Zr 0.54450 0.99680 1.00332
 Zr208 Zr 0.45549 0.99693 1.00334
 O209 O 0.47398 0.99685 1.04679
 O210 O 0.52672 0.99680 1.04718
 O211 O 0.47329 0.95328 1.00336
 O212 O 0.52596 1.04010 1.00333
 O213 O 0.52614 0.95351 1.00334
 O214 O 0.47330 1.04057 1.00334
 H215 H 0.46045 0.99680 0.94229
 H216 H 0.53953 1.05760 1.00331
 H217 H 0.46034 0.99684 1.06434
 H218 H 0.53980 0.93602 1.00332
 H219 H 0.48660 1.08974 0.97764
 H220 H 0.48685 1.08974 1.02887
 H221 H 0.51358 1.02238 1.09656
 H222 H 0.51361 0.97120 1.09653
 H223 H 0.48912 0.90447 1.02544
 H224 H 0.50152 0.90426 0.94773
 H225 H 0.51179 0.97174 0.91011
 H226 H 0.51358 1.02261 0.91007
 O227 O -0.05800 0.45811 0.04835
 O228 O -0.02913 0.42527 0.02115
 C229 C -0.04996 0.43135 0.04044
 O230 O -0.05523 0.54232 -0.05851
 O231 O -0.02792 0.57502 -0.02967
 C232 C -0.04725 0.56904 -0.05048
 O233 O -0.05816 0.45818 -0.05572
 O234 O -0.02925 0.42531 -0.02859
 C235 C -0.05014 0.43140 -0.04781
 O236 O -0.05509 0.54207 0.05148
 O237 O -0.02852 0.57483 0.02204
 C238 C -0.04748 0.56881 0.04319
 Zr239 Zr -0.04087 0.50013 0.03440
 O240 O -0.08817 0.50322 0.03584
 O241 O -0.03770 0.49856 0.08171
 Zr242 Zr -0.04112 0.50020 -0.04164
 O243 O -0.08842 0.50373 -0.04150
 O244 O -0.04101 0.49683 -0.08904
 O245 O -0.04689 0.47359 -0.00363
 O246 O -0.04644 0.52609 -0.00359
 O247 O 0.04862 0.54188 0.05152
 O248 O 0.02179 0.57484 0.02239
 C249 C 0.04088 0.56867 0.04340
 O250 O 0.05164 0.45794 -0.05585
 O251 O 0.02274 0.42518 -0.02870
 C252 C 0.04361 0.43120 -0.04794
 O253 O 0.04899 0.54201 -0.05863
 O254 O 0.02184 0.57484 -0.02971
 C255 C 0.04115 0.56878 -0.05053
 O256 O 0.05162 0.45786 0.04847
 O257 O 0.02287 0.42516 0.02109
 C258 C 0.04365 0.43113 0.04046
 Zr259 Zr 0.03479 0.49994 0.03422
 O260 O 0.08210 0.50321 0.03383
 O261 O 0.03480 0.49708 0.08163
 Zr262 Zr 0.03461 0.50001 -0.04182
 O263 O 0.08192 0.50321 -0.04221
 O264 O 0.03394 0.49664 -0.08923
 Zr265 Zr -0.00317 0.45566 -0.00376
 Zr266 Zr -0.00309 0.54452 -0.00367
 O267 O 0.04023 0.52590 -0.00376
 O268 O 0.04057 0.47335 -0.00383
 O269 O -0.00305 0.52673 0.04010
 O270 O -0.00328 0.47411 -0.04721
 O271 O -0.00308 0.47396 0.03973
 O272 O -0.00323 0.52679 -0.04755
 H273 H -0.06407 0.53960 -0.00355
 H274 H -0.00332 0.46051 -0.06476
 H275 H 0.05778 0.53943 -0.00371
 H276 H -0.00307 0.46035 0.05728
 H277 H -0.02886 0.51357 -0.09689
 H278 H 0.02241 0.51389 -0.09700
 H279 H 0.08979 0.48705 -0.02926
 H280 H 0.08990 0.48618 0.02200
 H281 H 0.01902 0.51080 0.08900
 H282 H -0.05857 0.49859 0.08929
 H283 H -0.09613 0.48811 0.02176
 H284 H -0.09628 0.48699 -0.02933
 O285 O 1.05800 -0.04880 0.54248
 O286 O 1.02916 -0.02166 0.57543
 C287 C 1.04998 -0.04093 0.56935
 O288 O 1.05529 0.05782 0.45813
 O289 O 1.02806 0.02917 0.42520
 C290 C 1.04737 0.04986 0.43127
 O291 O 1.05793 0.05516 0.54246
 O292 O 1.02871 0.02847 0.57534
 C293 C 1.04967 0.04751 0.56930
 O294 O 1.05488 -0.05179 0.45809
 O295 O 1.02796 -0.02270 0.42515
 C296 C 1.04706 -0.04368 0.43123
 Zr297 Zr 1.04087 -0.03480 0.50027
 O298 O 1.08817 -0.03626 0.49722
 O299 O 1.03783 -0.08193 0.50179
 Zr300 Zr 1.04110 0.04091 0.50030
 O301 O 1.08841 0.04035 0.49695
 O302 O 1.04120 0.08813 0.50366
 O303 O 1.04687 0.00302 0.52703
 O304 O 1.04647 0.00304 0.47424
 O305 O 0.95137 -0.05162 0.45806
 O306 O 0.97820 -0.02253 0.42513
 C307 C 0.95911 -0.04346 0.43119
 O308 O 0.94831 0.05516 0.54260
 O309 O 0.97714 0.02791 0.57550
 C310 C 0.95630 0.04717 0.56946
 O311 O 0.95115 0.05820 0.45816
 O312 O 0.97831 0.02939 0.42521
 C313 C 0.95905 0.05020 0.43130
 O314 O 0.94837 -0.04876 0.54238
 O315 O 0.97714 -0.02169 0.57537
 C316 C 0.95636 -0.04092 0.56925
 Zr317 Zr 0.96514 -0.03442 0.50022
 O318 O 0.91783 -0.03370 0.49681
 O319 O 0.96492 -0.08166 0.50293
 Zr320 Zr 0.96526 0.04119 0.50032
 O321 O 0.91796 0.04122 0.49689
 O322 O 0.96545 0.08840 0.50381
 Zr323 Zr 1.00313 0.00316 0.54489
 Zr324 Zr 1.00313 0.00330 0.45569
 O325 O 0.95975 0.00342 0.47417
 O326 O 0.95936 0.00335 0.52704
 O327 O 1.00303 -0.04033 0.47349
 O328 O 1.00317 0.04646 0.52635
 O329 O 1.00303 -0.04010 0.52639
 O330 O 1.00319 0.04694 0.47359
 H331 H 1.06404 0.00294 0.46065
 H332 H 1.00311 0.06401 0.53992
 H333 H 0.94224 0.00344 0.46051
 H334 H 1.00304 -0.05762 0.54000
 H335 H 1.02880 0.09600 0.48703
 H336 H 0.97764 0.09622 0.48703
 H337 H 0.91011 0.02892 0.51356
 H338 H 0.91005 -0.02223 0.51412
 H339 H 0.98105 -0.08901 0.48958
 H340 H 1.05872 -0.08947 0.50172
 H341 H 1.09612 -0.02228 0.51244
 H342 H 1.09621 0.02868 0.51413
 C343 C 1.11191 0.11426 0.36042
 C344 C 1.12872 0.09715 0.33528
 C345 C 1.11178 0.11574 0.31173
 C346 C 1.09519 0.13307 0.33645
 C347 C 1.08675 0.09091 0.35900
 C348 C 1.06980 0.10950 0.33545
 C349 C 1.10334 0.07359 0.33426
 C350 C 1.08662 0.09239 0.31032
 C351 C 1.12573 0.12937 0.28529
 C352 C 1.13719 0.14041 0.26345
 C353 C 1.07278 0.07675 0.38513
 C354 C 1.06123 0.06471 0.40637
 H355 H 1.12215 0.12309 0.38132
 H356 H 1.15309 0.09221 0.33491
 H357 H 1.09199 0.15769 0.33706
 H358 H 1.04542 0.11442 0.33582
 H359 H 1.10654 0.04898 0.33364
 H360 H 1.07636 0.08354 0.28943
 C361 C 0.93600 -0.10354 0.33564
 C362 C 0.91103 -0.12750 0.33742
 C363 C 0.89357 -0.11060 0.31298
 C364 C 0.91832 -0.08687 0.31080
 C365 C 0.91934 -0.08505 0.35946
 C366 C 0.90188 -0.06817 0.33501
 C367 C 0.89459 -0.10878 0.36164
 C368 C 0.87692 -0.09211 0.33680
 C369 C 0.87915 -0.12469 0.28706
 C370 C 0.86723 -0.13616 0.26568
 C371 C 0.93360 -0.07059 0.38525
 C372 C 0.94527 -0.05839 0.40633
 H373 H 0.96046 -0.10808 0.33546
 H374 H 0.91463 -0.15206 0.33812
 H375 H 0.92792 -0.07801 0.28961
 H376 H 0.89828 -0.04361 0.33430
 H377 H 0.88499 -0.11763 0.38284
 H378 H 0.85246 -0.08756 0.33699
 C379 C 0.88964 0.11011 0.63966
 C380 C 0.87115 0.09295 0.66350
 C381 C 0.88763 0.11018 0.68833
 C382 C 0.90590 0.12756 0.66489
 C383 C 0.91391 0.08576 0.64148
 C384 C 0.93038 0.10300 0.66631
 C385 C 0.89564 0.06839 0.66491
 C386 C 0.91190 0.08584 0.69014
 C387 C 0.87313 0.12380 0.71449
 C388 C 0.86131 0.13500 0.73608
 C389 C 0.92873 0.07212 0.61551
 C390 C 0.94117 0.06080 0.59435
 H391 H 0.88066 0.11994 0.61861
 H392 H 0.84662 0.08896 0.66264
 H393 H 0.90997 0.15204 0.66517
 H394 H 0.95491 0.10699 0.66718
 H395 H 0.89159 0.04390 0.66463
 H396 H 0.92089 0.07600 0.71118
 C397 C 1.07789 -0.08054 0.67319
 C398 C 1.08451 -0.11443 0.67599
 C399 C 1.11583 -0.10699 0.68816
 C400 C 1.10942 -0.07331 0.68576
 C401 C 1.09107 -0.08100 0.64132
 C402 C 1.12238 -0.07354 0.65349
 C403 C 1.09748 -0.11468 0.64374
 C404 C 1.12901 -0.10747 0.65631
 C405 C 1.12938 -0.12158 0.71432
 C406 C 1.14031 -0.13366 0.73591
 C407 C 1.07692 -0.06662 0.61537
 C408 C 1.06487 -0.05487 0.59422
 H409 H 1.05671 -0.06930 0.67984
 H410 H 1.06908 -0.13139 0.68552
 H411 H 1.11447 -0.05645 0.70333
 H412 H 1.13779 -0.05657 0.64394
 H413 H 1.09242 -0.13154 0.62617
 H414 H 1.15019 -0.11871 0.64966
 C415 C 0.35231 1.11945 1.08466
 C416 C 0.31920 1.11196 1.07743
 C417 C 0.31231 1.11172 1.11122
 C418 C 0.34501 1.11943 1.11867
 C419 C 0.35918 1.08582 1.08653
 C420 C 0.35229 1.08558 1.12032
 C421 C 0.32648 1.07812 1.07909
 C422 C 0.31919 1.07810 1.11308
 C423 C 0.28612 1.12603 1.12494
 C424 C 0.26449 1.13770 1.13616
 C425 C 0.38512 1.07117 1.07272
 C426 C 0.40625 1.05884 1.06127
 H427 H 0.36621 1.13629 1.07282
 H428 H 0.30531 1.12296 1.05994
 H429 H 0.35233 1.13658 1.13511
 H430 H 0.36618 1.07457 1.13780
 H431 H 0.31915 1.06097 1.06265
 H432 H 0.30530 1.06124 1.12491
 C433 C 0.35929 0.87850 0.90405
 C434 C 0.32909 0.87155 0.91970
 C435 C 0.31245 0.88504 0.89269
 C436 C 0.34224 0.89178 0.87682
 C437 C 0.35922 0.90955 0.91881
 C438 C 0.34258 0.92304 0.89180
 C439 C 0.32944 0.90282 0.93469
 C440 C 0.31241 0.91609 0.90746
 C441 C 0.28633 0.87163 0.87805
 C442 C 0.26478 0.86079 0.86592
 C443 C 0.38514 0.92355 0.93325
 C444 C 0.40626 0.93548 0.94507
 H445 H 0.37886 0.86320 0.90282
 H446 H 0.32324 0.85022 0.93102
 H447 H 0.34722 0.88710 0.85286
 H448 H 0.34841 0.94436 0.88048
 H449 H 0.32447 0.90750 0.95865
 H450 H 0.29285 0.93141 0.90870
 C451 C 0.64180 0.88203 1.10518
 C452 C 0.67209 0.87616 1.08923
 C453 C 0.68853 0.88886 1.11671
 C454 C 0.65866 0.89452 1.13289
 C455 C 0.64124 0.91362 1.09164
 C456 C 0.65767 0.92633 1.11911
 C457 C 0.67112 0.90795 1.07547
 C458 C 0.68795 0.92045 1.10315
 C459 C 0.71498 0.87503 1.13043
 C460 C 0.73684 0.86364 1.14152
 C461 C 0.61510 0.92744 1.07734
 C462 C 0.59386 0.93890 1.06518
 H463 H 0.62253 0.86639 1.10586
 H464 H 0.67831 0.85538 1.07708
 H465 H 0.65383 0.88884 1.15666
 H466 H 0.65145 0.94712 1.13124
 H467 H 0.67596 0.91363 1.05170
 H468 H 0.70722 0.93610 1.10247
 C469 C 0.65437 1.07045 0.88483
 C470 C 0.65566 1.10354 0.87459
 C471 C 0.68680 1.10630 0.88903
 C472 C 0.68591 1.07343 0.89905
 C473 C 0.64043 1.08059 0.91468
 C474 C 0.67156 1.08335 0.92911
 C475 C 0.64132 1.11346 0.90467
 C476 C 0.67285 1.11643 0.91888
 C477 C 0.71267 1.12067 0.87489
 C478 C 0.73401 1.13251 0.86337
 C479 C 0.61470 1.06635 0.92921
 C480 C 0.59367 1.05469 0.94145
 H481 H 0.64648 1.05138 0.87100
 H482 H 0.64941 1.11201 0.85201
 H483 H 0.70453 1.05713 0.89659
 H484 H 0.67782 1.07489 0.95169
 H485 H 0.62269 1.12976 0.90714
 H486 H 0.68073 1.13549 0.93274
 C487 C 0.09331 0.35779 0.11388
 C488 C 0.08000 0.32584 0.11503
 C489 C 0.11076 0.31313 0.10621
 C490 C 0.12429 0.34469 0.10527
 C491 C 0.08521 0.35954 0.08040
 C492 C 0.11597 0.34684 0.07156
 C493 C 0.07169 0.32798 0.08134
 C494 C 0.10267 0.31488 0.07273
 C495 C 0.12486 0.28724 0.12063
 C496 C 0.13634 0.26589 0.13252
 C497 C 0.07075 0.38528 0.06609
 C498 C 0.05856 0.40632 0.05438
 H499 H 0.08930 0.37573 0.13064
 H500 H 0.06536 0.31693 0.13306
 H501 H 0.14608 0.35127 0.11527
 H502 H 0.13060 0.35576 0.05352
 H503 H 0.04990 0.32140 0.07134
 H504 H 0.10667 0.29695 0.05596
 C505 C -0.11670 0.36065 -0.11032
 C506 C -0.09996 0.33653 -0.12886
 C507 C -0.11669 0.31212 -0.11134
 C508 C -0.13366 0.33582 -0.09301
 C509 C -0.09165 0.35934 -0.08670
 C510 C -0.10838 0.33494 -0.06918
 C511 C -0.07470 0.33563 -0.10503
 C512 C -0.09164 0.31084 -0.08772
 C513 C -0.13039 0.28571 -0.12510
 C514 C -0.14144 0.26388 -0.13644
 C515 C -0.07735 0.38543 -0.07295
 C516 C -0.06517 0.40661 -0.06155
 H517 H -0.12685 0.38142 -0.11946
 H518 H -0.09663 0.33689 -0.15355
 H519 H -0.15806 0.33560 -0.08822
 H520 H -0.11169 0.33458 -0.04448
 H521 H -0.05030 0.33584 -0.10982
 H522 H -0.08147 0.29008 -0.07857
 C523 C 0.06504 0.66587 -0.10733
 C524 C 0.08428 0.68900 -0.09010
 C525 C 0.10788 0.68736 -0.11515
 C526 C 0.08886 0.66463 -0.13261
 C527 C 0.08166 0.64057 -0.09094
 C528 C 0.10525 0.63891 -0.11599
 C529 C 0.10068 0.66331 -0.07350
 C530 C 0.12449 0.66205 -0.09876
 C531 C 0.12254 0.71350 -0.12843
 C532 C 0.13462 0.73507 -0.13920
 C533 C 0.06714 0.61466 -0.07708
 C534 C 0.05525 0.59356 -0.06524
 H535 H 0.04043 0.66715 -0.11070
 H536 H 0.07582 0.70987 -0.07958
 H537 H 0.08416 0.66547 -0.15706
 H538 H 0.11370 0.61803 -0.12649
 H539 H 0.10538 0.66248 -0.04904
 H540 H 0.14910 0.66077 -0.09537
 C541 C -0.08416 0.67281 0.07352
 C542 C -0.11806 0.67691 0.07970
 C543 C -0.11058 0.68746 0.11165
 C544 C -0.07688 0.68376 0.10569
 C545 C -0.08623 0.64064 0.08546
 C546 C -0.07874 0.65119 0.11741
 C547 C -0.11993 0.64434 0.09142
 C548 C -0.11266 0.65530 0.12361
 C549 C -0.12413 0.71363 0.12610
 C550 C -0.13526 0.73524 0.13786
 C551 C -0.07259 0.61472 0.07067
 C552 C -0.06122 0.59362 0.05827
 H553 H -0.07229 0.67972 0.05276
 H554 H -0.13437 0.68777 0.06435
 H555 H -0.05932 0.70025 0.11171
 H556 H -0.06242 0.64033 0.13275
 H557 H -0.13748 0.62784 0.08540
 H558 H -0.12453 0.64840 0.14437
 C559 C 1.11662 0.10965 0.63974
 C560 C 1.10010 0.12966 0.66284
 C561 C 1.11567 0.11251 0.68835
 C562 C 1.13240 0.09272 0.66567
 C563 C 1.09068 0.08719 0.64136
 C564 C 1.10624 0.07003 0.66687
 C565 C 1.07395 0.10698 0.66405
 C566 C 1.08973 0.09004 0.68995
 C567 C 1.12941 0.12660 0.71461
 C568 C 1.14058 0.13816 0.73632
 C569 C 1.07647 0.07308 0.61536
 C570 C 1.06444 0.06143 0.59418
 H571 H 1.12751 0.11754 0.61880
 H572 H 1.09773 0.15434 0.66149
 H573 H 1.15660 0.08702 0.66665
 H574 H 1.10860 0.04535 0.66822
 H575 H 1.04975 0.11268 0.66308
 H576 H 1.07882 0.08214 0.71089
 C577 C 0.92762 -0.08132 0.67264
 C578 C 0.89607 -0.07368 0.68495
 C579 C 0.88914 -0.10726 0.68682
 C580 C 0.92047 -0.11513 0.67491
 C581 C 0.91478 -0.08113 0.64065
 C582 C 0.90785 -0.11471 0.64252
 C583 C 0.88345 -0.07325 0.65255
 C584 C 0.87629 -0.10707 0.65483
 C585 C 0.87498 -0.12186 0.71258
 C586 C 0.86343 -0.13386 0.73382
 C587 C 0.92928 -0.06667 0.61501
 C588 C 0.94148 -0.05487 0.59403
 H589 H 0.94889 -0.07057 0.67967
 H590 H 0.89107 -0.05697 0.70270
 H591 H 0.93553 -0.13251 0.68439
 H592 H 0.91285 -0.13141 0.62477
 H593 H 0.86841 -0.05586 0.64306
 H594 H 0.85502 -0.11783 0.64780
 C595 C 1.07515 -0.08240 0.32694
 C596 C 1.10811 -0.07840 0.31688
 C597 C 1.11068 -0.11243 0.31288
 C598 C 1.07793 -0.11666 0.32255
 C599 C 1.08593 -0.08610 0.35949
 C600 C 1.08849 -0.12013 0.35550
 C601 C 1.11868 -0.08186 0.34982
 C602 C 1.12147 -0.11613 0.34543
 C603 C 1.12447 -0.12696 0.28686
 C604 C 1.13579 -0.13882 0.26538
 C605 C 1.07213 -0.07125 0.38531
 C606 C 1.06073 -0.05879 0.40639
 H607 H 1.05594 -0.06837 0.31964
 H608 H 1.11633 -0.06140 0.30071
 H609 H 1.06133 -0.13113 0.31104
 H610 H 1.08026 -0.13711 0.37168
 H611 H 1.13527 -0.06739 0.36133
 H612 H 1.14067 -0.13016 0.35273
 C613 C 0.93538 0.10925 0.33515
 C614 C 0.91744 0.09220 0.31081
 C615 C 0.89274 0.11609 0.31277
 C616 C 0.91045 0.13337 0.33670
 C617 C 0.91891 0.09131 0.35947
 C618 C 0.89422 0.11520 0.36144
 C619 C 0.90120 0.07405 0.33552
 C620 C 0.87629 0.09815 0.33710
 C621 C 0.87804 0.12964 0.28671
 C622 C 0.86583 0.14055 0.26520
 C623 C 0.93335 0.07715 0.38534
 C624 C 0.94512 0.06508 0.40645
 H625 H 0.95985 0.11365 0.33465
 H626 H 0.92682 0.08289 0.28970
 H627 H 0.91409 0.15792 0.33688
 H628 H 0.88485 0.12450 0.38256
 H629 H 0.89757 0.04950 0.33533
 H630 H 0.85184 0.09373 0.33761
 C631 C 0.07538 0.34458 -0.11613
 C632 C 0.10834 0.34350 -0.12697
 C633 C 0.11198 0.31294 -0.11165
 C634 C 0.07925 0.31362 -0.10102
 C635 C 0.08584 0.35956 -0.08693
 C636 C 0.08949 0.32899 -0.07161
 C637 C 0.11858 0.35889 -0.09755
 C638 C 0.12245 0.32791 -0.08244
 C639 C 0.12640 0.28689 -0.12539
 C640 C 0.13816 0.26537 -0.13665
 C641 C 0.07108 0.38538 -0.07312
 C642 C 0.05869 0.40643 -0.06168
 H643 H 0.05586 0.35174 -0.12982
 H644 H 0.11625 0.34917 -0.14990
 H645 H 0.06324 0.29472 -0.10260
 H646 H 0.08157 0.32333 -0.04868
 H647 H 0.13457 0.37780 -0.09596
 H648 H 0.14196 0.32075 -0.06875
 C649 C -0.10790 0.33502 0.06435
 C650 C -0.09077 0.31137 0.08314
 C651 C -0.11528 0.31332 0.10727
 C652 C -0.13264 0.33656 0.08872
 C653 C -0.09077 0.35982 0.08086
 C654 C -0.11527 0.36178 0.10499
 C655 C -0.07342 0.33657 0.09942
 C656 C -0.09813 0.33813 0.12377
 C657 C -0.12868 0.28736 0.12209
 C658 C -0.13951 0.26593 0.13434
 C659 C -0.07675 0.38559 0.06630
 C660 C -0.06477 0.40661 0.05444
 H661 H -0.11176 0.33405 0.03975
 H662 H -0.08084 0.29036 0.07432
 H663 H -0.15714 0.33625 0.08449
 H664 H -0.12519 0.38280 0.11380
 H665 H -0.04892 0.33687 0.10365
 H666 H -0.09426 0.33911 0.14837
 C667 C -0.11081 0.66038 -0.07711
 C668 C -0.09389 0.68877 -0.08743
 C669 C -0.11147 0.68807 -0.11707
 C670 C -0.12861 0.66006 -0.10696
 C671 C -0.08648 0.64104 -0.09191
 C672 C -0.10405 0.64031 -0.12155
 C673 C -0.06933 0.66904 -0.10202
 C674 C -0.08713 0.66874 -0.13189
 C675 C -0.12541 0.71436 -0.13086
 C676 C -0.13689 0.73609 -0.14201
 C677 C -0.07255 0.61503 -0.07759
 C678 C -0.06105 0.59387 -0.06543
 H679 H -0.12040 0.65664 -0.05442
 H680 H -0.08987 0.70898 -0.07355
 H681 H -0.15314 0.65667 -0.10914
 H682 H -0.10806 0.62008 -0.13542
 H683 H -0.04480 0.67243 -0.09983
 H684 H -0.07754 0.67249 -0.15457
 C685 C 0.06477 0.66952 0.09249
 C686 C 0.07898 0.66927 0.12423
 C687 C 0.10634 0.68584 0.11161
 C688 C 0.09235 0.68650 0.08010
 C689 C 0.08061 0.63978 0.08560
 C690 C 0.10796 0.65637 0.07299
 C691 C 0.09459 0.63911 0.11710
 C692 C 0.12217 0.65609 0.10471
 C693 C 0.12073 0.71154 0.12592
 C694 C 0.13263 0.73274 0.13754
 C695 C 0.06636 0.61423 0.07089
 C696 C 0.05471 0.59333 0.05850
 H697 H 0.04100 0.67474 0.08730
 H698 H 0.06722 0.67487 0.14546
 H699 H 0.09159 0.70627 0.06505
 H700 H 0.11971 0.65077 0.05175
 H701 H 0.09534 0.61933 0.13214
 H702 H 0.14593 0.65087 0.10990
 C703 C 0.35058 1.08095 0.88624
 C704 C 0.31757 1.07751 0.89633
 C705 C 0.31347 1.11150 0.89334
 C706 C 0.34609 1.11516 0.88303
 C707 C 0.35969 1.08560 0.91917
 C708 C 0.35561 1.11958 0.91619
 C709 C 0.32707 1.08194 0.92948
 C710 C 0.32257 1.11615 0.92627
 C711 C 0.28768 1.12577 0.87890
 C712 C 0.26640 1.13736 0.86698
 C713 C 0.38534 1.07096 0.93347
 C714 C 0.40632 1.05865 0.94518
 H715 H 0.36240 1.06632 0.86995
 H716 H 0.30164 1.06038 0.88801
 H717 H 0.35362 1.12899 0.86376
 H718 H 0.37154 1.13671 0.92452
 H719 H 0.31954 1.06811 0.94874
 H720 H 0.31075 1.13078 0.94257
 C721 C 0.32842 0.90579 1.07176
 C722 C 0.32681 0.87288 1.08248
 C723 C 0.31238 0.88356 1.11191
 C724 C 0.31359 0.91625 1.10139
 C725 C 0.35930 0.90865 1.08671
 C726 C 0.34486 0.91932 1.11613
 C727 C 0.35811 0.87595 1.09722
 C728 C 0.34326 0.88641 1.12687
 C729 C 0.28615 0.86981 1.12598
 C730 C 0.26447 0.85869 1.13754
 C731 C 0.38524 0.92294 1.07270
 C732 C 0.40636 0.93509 1.06115
 H733 H 0.32262 0.91392 1.04893
 H734 H 0.31908 0.85363 1.06881
 H735 H 0.29501 0.93266 1.10326
 H736 H 0.35258 0.93857 1.12981
 H737 H 0.37671 0.85956 1.09533
 H738 H 0.34906 0.87828 1.14969
 C739 C 0.67057 1.06558 1.09748
 C740 C 0.68717 1.09304 1.08440
 C741 C 0.68710 1.10738 1.11574
 C742 C 0.67091 1.08014 1.12904
 C743 C 0.64055 1.08116 1.09102
 C744 C 0.64047 1.09549 1.12236
 C745 C 0.65677 1.10839 1.07773
 C746 C 0.65708 1.12295 1.10927
 C747 C 0.71309 1.12207 1.12927
 C748 C 0.73454 1.13423 1.14019
 C749 C 0.61476 1.06667 1.07692
 C750 C 0.59370 1.05486 1.06492
 H751 H 0.67581 1.04182 1.09247
 H752 H 0.70666 1.09220 1.06894
 H753 H 0.67703 1.06869 1.15029
 H754 H 0.62097 1.09632 1.13779
 H755 H 0.65066 1.11984 1.05647
 H756 H 0.65184 1.14671 1.11427
 C757 C 0.64670 0.91489 0.87996
 C758 C 0.67985 0.92264 0.88665
 C759 C 0.68716 0.88907 0.88772
 C760 C 0.65441 0.88110 0.88080
 C761 C 0.64055 0.91392 0.91388
 C762 C 0.64785 0.88035 0.91495
 C763 C 0.67329 0.92188 0.92079
 C764 C 0.68100 0.88811 0.92163
 C765 C 0.71320 0.87526 0.87329
 C766 C 0.73470 0.86395 0.86151
 C767 C 0.61473 0.92777 0.92866
 C768 C 0.59368 0.93922 0.94109
 H769 H 0.63230 0.92607 0.86301
 H770 H 0.69330 0.93987 0.87486
 H771 H 0.64695 0.86417 0.86419
 H772 H 0.63440 0.86312 0.92675
 H773 H 0.68076 0.93881 0.93740
 H774 H 0.69539 0.87694 0.93861
   
