data_POSCAR
  _audit_creation_date              2014-09-24
  _audit_creation_method            'ToBaCCo'
  _symmetry_space_group_name_H-M    'P1'
  _symmetry_Int_Tables_number       1
  _symmetry_cell_setting            triclinic
  loop_
  _symmetry_equiv_pos_as_xyz
 x,y,z
_cell_length_a 29.4552
_cell_length_b 30.9319
_cell_length_c 18.2635
_cell_angle_alpha 90.106600
_cell_angle_beta 89.679800
_cell_angle_gamma 90.096000
loop_
  _atom_site_label
  _atom_site_type_symbol
  _atom_site_fract_x
  _atom_site_fract_y
  _atom_site_fract_z
C1 C 0.12482 0.27535 0.12766
 C2 C 0.12540 0.23104 0.12875
 C3 C 0.15902 0.21885 0.17767
 N4 N 0.17822 0.25456 0.20725
 C5 C 0.15799 0.28907 0.17583
 C6 C 0.16795 0.17569 0.20019
 C7 C 0.20092 0.16563 0.25433
 C8 C 0.20405 0.12677 0.29226
 C9 C 0.24332 0.12820 0.33216
 C10 C 0.26418 0.16727 0.31651
 N11 N 0.23789 0.19014 0.26990
 C12 C 0.30778 0.17979 0.34178
 C13 C 0.32234 0.22337 0.33978
 C14 C 0.36707 0.23724 0.34461
 C15 C 0.36613 0.28152 0.34401
 C16 C 0.32101 0.29312 0.33750
 N17 N 0.29423 0.25766 0.33460
 C18 C 0.30485 0.33586 0.33793
 C19 C 0.26217 0.34734 0.30915
 C20 C 0.24248 0.38782 0.31574
 C21 C 0.20386 0.38714 0.27381
 C22 C 0.20078 0.34611 0.24328
 N23 N 0.23661 0.32215 0.26487
 C24 C 0.16684 0.33279 0.19355
 H25 H 0.10153 0.29512 0.09672
 H26 H 0.10212 0.21041 0.09922
 H27 H 0.24603 0.29228 0.24368
 H28 H 0.18128 0.09944 0.29154
 H29 H 0.25548 0.10282 0.36769
 H30 H 0.39731 0.21752 0.34780
 H31 H 0.39527 0.30280 0.34738
 H32 H 0.18097 0.41406 0.26618
 H33 H 0.24782 0.21812 0.24268
 H34 H 0.25516 0.41532 0.34618
 C35 C 0.61513 0.27861 0.32596
 C36 C 0.61511 0.23420 0.32754
 C37 C 0.65803 0.22124 0.30518
 N38 N 0.68410 0.25603 0.28962
 C39 C 0.65801 0.29108 0.30248
 C40 C 0.67430 0.17841 0.30612
 C41 C 0.71680 0.16702 0.27602
 C42 C 0.74125 0.13037 0.29407
 C43 C 0.77965 0.13052 0.25084
 C44 C 0.77703 0.16684 0.20652
 N45 N 0.73876 0.18907 0.22278
 C46 C 0.80738 0.17761 0.14910
 C47 C 0.80725 0.21923 0.11812
 C48 C 0.82349 0.22960 0.04915
 C49 C 0.82167 0.27380 0.04401
 C50 C 0.80539 0.28890 0.11083
 N51 N 0.79575 0.25534 0.15553
 C52 C 0.80323 0.33276 0.13326
 C53 C 0.77370 0.34475 0.19162
 C54 C 0.77781 0.38134 0.23538
 C55 C 0.74085 0.38182 0.28168
 C56 C 0.71588 0.34494 0.26653
 N57 N 0.73620 0.32233 0.21208
 C58 C 0.67432 0.33391 0.30048
 H59 H 0.58712 0.29934 0.34156
 H60 H 0.58709 0.21385 0.34463
 H61 H 0.72289 0.29525 0.18563
 H62 H 0.73253 0.10625 0.33467
 H63 H 0.80622 0.10647 0.25219
 H64 H 0.83549 0.20759 0.00720
 H65 H 0.83176 0.29261 -0.00326
 H66 H 0.73359 0.40618 0.32271
 H67 H 0.72596 0.21534 0.19386
 H68 H 0.80481 0.40507 0.23496
 C69 C 0.83512 0.74204 0.90714
 C70 C 0.83662 0.78615 0.89998
 C71 C 0.82023 0.79533 0.83092
 N72 N 0.80886 0.75852 0.79544
 C73 C 0.81872 0.72573 0.84146
 C74 C 0.81962 0.83662 0.79840
 C75 C 0.78903 0.84611 0.74141
 C76 C 0.79089 0.88198 0.69595
 C77 C 0.75206 0.88125 0.65446
 C78 C 0.72811 0.84455 0.67481
 N79 N 0.75089 0.82323 0.72747
 C80 C 0.68488 0.83294 0.64853
 C81 C 0.66873 0.79003 0.65163
 C82 C 0.62516 0.77670 0.63424
 C83 C 0.62516 0.73232 0.63788
 C84 C 0.66869 0.72022 0.65765
 N85 N 0.69520 0.75548 0.66611
 C86 C 0.68482 0.67739 0.66127
 C87 C 0.72695 0.66703 0.69321
 C88 C 0.75122 0.62952 0.67965
 C89 C 0.78870 0.63074 0.72422
 C90 C 0.78566 0.66848 0.76530
 N91 N 0.74830 0.69080 0.74488
 C92 C 0.81579 0.68140 0.82181
 H93 H 0.84507 0.72415 0.95526
 H94 H 0.84830 0.80891 0.94087
 H95 H 0.73558 0.71855 0.77016
 H96 H 0.81710 0.90645 0.69315
 H97 H 0.74254 0.90499 0.61391
 H98 H 0.59656 0.79676 0.61958
 H99 H 0.59657 0.71137 0.62658
 H100 H 0.81522 0.60661 0.72560
 H101 H 0.73849 0.79734 0.75811
 H102 H 0.74303 0.60412 0.64106
 C103 C 0.17784 0.73654 0.96322
 C104 C 0.18027 0.78074 0.96159
 C105 C 0.19590 0.79201 0.89250
 N106 N 0.20479 0.75601 0.85301
 C107 C 0.19372 0.72186 0.89590
 C108 C 0.19704 0.83455 0.86338
 C109 C 0.22719 0.84441 0.80467
 C110 C 0.22441 0.87969 0.75780
 C111 C 0.26202 0.87826 0.71272
 C112 C 0.28578 0.84141 0.73142
 N113 N 0.26437 0.82083 0.78698
 C114 C 0.32744 0.82851 0.70009
 C115 C 0.34165 0.78503 0.70041
 C116 C 0.38461 0.77045 0.68126
 C117 C 0.38256 0.72612 0.68174
 C118 C 0.33846 0.71528 0.70106
 N119 N 0.31356 0.75128 0.71270
 C120 C 0.32067 0.67302 0.70222
 C121 C 0.27903 0.66259 0.73662
 C122 C 0.25662 0.62343 0.72988
 C123 C 0.22002 0.62488 0.77697
 C124 C 0.22068 0.66522 0.81081
 N125 N 0.25729 0.68758 0.78639
 C126 C 0.19180 0.67879 0.86917
 H127 H 0.16558 0.71816 1.00937
 H128 H 0.17050 0.80218 1.00581
 H129 H 0.26985 0.71613 0.80872
 H130 H 0.19794 0.90380 0.75523
 H131 H 0.27046 0.90121 0.67006
 H132 H 0.41419 0.78967 0.66764
 H133 H 0.41011 0.70433 0.66836
 H134 H 0.19710 0.59821 0.78719
 H135 H 0.27694 0.79442 0.81586
 H136 H 0.26639 0.59609 0.69626
 O137 O 1.04664 0.05883 -0.01169
 O138 O 0.96152 -0.00820 -0.10534
 O139 O 0.95995 0.06284 -0.02420
 O140 O 1.05052 -0.01175 -0.08592
 O141 O 1.04023 -0.04999 0.01495
 O142 O 0.94721 0.02128 0.07208
 O143 O 0.95394 -0.04896 -0.00675
 O144 O 1.03487 0.02179 0.08996
 Cu145 Cu 1.00508 0.02905 -0.06750
 Cu146 Cu 0.99296 -0.01778 0.05262
 C147 C 1.05494 0.05204 0.05539
 C148 C 0.94412 -0.04047 -0.07271
 C149 C 0.93872 0.05488 0.03502
 C150 C 1.06114 -0.04326 -0.04487
 O151 O 0.54146 0.44870 0.50830
 O152 O 0.45772 0.51967 0.59613
 O153 O 0.45275 0.45070 0.51497
 O154 O 0.54544 0.52059 0.58238
 O155 O 0.54040 0.55989 0.48205
 O156 O 0.45088 0.48843 0.41260
 O157 O 0.45190 0.55743 0.49423
 O158 O 0.53904 0.48804 0.40774
 Cu159 Cu 0.49975 0.48095 0.56045
 Cu160 Cu 0.49518 0.52739 0.43911
 C161 C 0.55500 0.45633 0.44353
 C162 C 0.44017 0.55041 0.56031
 C163 C 0.43614 0.45765 0.45192
 C164 C 0.55857 0.55239 0.54355
 O165 O -0.04455 0.45194 -0.02606
 O166 O 0.04147 0.53141 -0.08007
 O167 O 0.04260 0.45758 -0.00897
 O168 O -0.04631 0.52700 -0.09008
 O169 O -0.04951 0.56400 0.01354
 O170 O 0.02819 0.48713 0.09878
 O171 O 0.03745 0.56136 0.02962
 O172 O -0.05879 0.48914 0.07495
 Cu173 Cu -0.00059 0.48858 -0.06199
 Cu174 Cu -0.01124 0.52865 0.06512
 C175 C -0.06713 0.45756 0.03245
 C176 C 0.05428 0.55990 -0.03464
 C177 C 0.04904 0.45955 0.05977
 C178 C -0.06198 0.55811 -0.05200
 O179 O 0.53595 1.02490 0.40520
 O180 O 0.45206 0.95133 0.48954
 O181 O 0.44741 1.02305 0.41299
 O182 O 0.53922 0.95173 0.47372
 O183 O 0.54371 0.98813 0.57751
 O184 O 0.45225 1.06039 0.51572
 O185 O 0.45602 0.98872 0.59232
 O186 O 0.54018 1.06130 0.50900
 Cu187 Cu 0.49285 0.98424 0.43484
 Cu188 Cu 0.49817 1.02832 0.55903
 C189 C 0.55279 1.05542 0.44321
 C190 C 0.44060 0.95694 0.55611
 C191 C 0.43467 1.05431 0.45314
 C192 C 0.55717 0.95763 0.53595
 C193 C 1.11690 0.11244 0.20470
 C194 C 1.14425 0.14157 0.16559
 C195 C 1.14699 0.13581 0.08892
 C196 C 1.11935 0.10532 0.05313
 C197 C 1.08837 0.07964 0.09309
 C198 C 1.08986 0.08210 0.16951
 C199 C 1.05208 0.08781 0.22348
 C200 C 1.08171 0.12101 0.26197
 H201 H 1.16918 0.15618 0.05632
 H202 H 1.12084 0.10328 -0.00603
 H203 H 1.04616 0.05819 0.25656
 H204 H 1.02113 0.10196 0.19848
 H205 H 1.09282 0.11047 0.31718
 H206 H 1.06804 0.15446 0.25924
 C207 C 0.64418 0.60611 0.66785
 C208 C 0.65785 0.64216 0.62717
 C209 C 0.64481 0.64396 0.55312
 C210 C 0.61389 0.61357 0.52460
 C211 C 0.59556 0.58071 0.56959
 C212 C 0.61373 0.57615 0.63984
 C213 C 0.59045 0.57097 0.71215
 C214 C 0.62394 0.60374 0.74273
 H215 H 0.65650 0.67020 0.51863
 H216 H 0.60261 0.61726 0.46865
 H217 H 0.59500 0.53799 0.73499
 H218 H 0.55482 0.58282 0.71163
 H219 H 0.64787 0.58960 0.78295
 H220 H 0.60779 0.63463 0.75997
 C221 C -0.12427 0.35201 0.07324
 C222 C -0.16740 0.36380 0.09999
 C223 C -0.17934 0.40802 0.09234
 C224 C -0.14699 0.43900 0.06968
 C225 C -0.10259 0.42625 0.05119
 C226 C -0.09310 0.38219 0.04839
 C227 C -0.05392 0.35810 0.07977
 C228 C -0.08807 0.32498 0.10736
 H229 H -0.21325 0.41904 0.10569
 H230 H -0.15636 0.47282 0.06806
 H231 H -0.03670 0.37620 0.12442
 H232 H -0.03094 0.34523 0.03648
 H233 H -0.09087 0.32390 0.16808
 H234 H -0.08441 0.29297 0.08021
 C235 C 0.37180 0.85586 0.59199
 C236 C 0.35667 0.86139 0.66409
 C237 C 0.37243 0.89777 0.70291
 C238 C 0.39953 0.92916 0.66786
 C239 C 0.41117 0.92494 0.59305
 C240 C 0.39840 0.88678 0.55735
 C241 C 0.37432 0.88055 0.48634
 C242 C 0.34534 0.84656 0.52447
 H243 H 0.36315 0.90222 0.75989
 H244 H 0.41059 0.95702 0.69901
 H245 H 0.39698 0.86682 0.44337
 H246 H 0.35485 0.90963 0.46956
 H247 H 0.35146 0.81325 0.50373
 H248 H 0.30901 0.85585 0.52988
 C249 C -0.11265 0.66218 -0.11666
 C250 C -0.15581 0.65057 -0.14285
 C251 C -0.16932 0.60705 -0.13065
 C252 C -0.13869 0.57637 -0.10221
 C253 C -0.09427 0.58867 -0.08349
 C254 C -0.08315 0.63239 -0.08661
 C255 C -0.04255 0.65369 -0.12004
 C256 C -0.07491 0.68638 -0.15322
 H257 H -0.20341 0.59644 -0.14340
 H258 H -0.14958 0.54316 -0.09525
 H259 H -0.02530 0.63295 -0.16147
 H260 H -0.01981 0.66791 -0.07799
 H261 H -0.07662 0.68459 -0.21396
 H262 H -0.07056 0.71946 -0.13041
 C263 C 0.36150 1.15338 0.43456
 C264 C 0.33755 1.14793 0.36930
 C265 C 0.34572 1.10840 0.33168
 C266 C 0.37691 1.07748 0.35899
 C267 C 0.40021 1.08462 0.42562
 C268 C 0.39038 1.12318 0.46155
 C269 C 0.40013 1.14824 0.52926
 C270 C 0.36686 1.18223 0.49961
 H271 H 0.32922 1.10192 0.27993
 H272 H 0.38291 1.04829 0.32762
 H273 H 0.43592 1.15962 0.53118
 H274 H 0.38763 1.13159 0.57935
 H275 H 0.38354 1.21351 0.48651
 H276 H 0.33502 1.18477 0.53226
 C277 C 1.12306 -0.14690 -0.08226
 C278 C 1.16587 -0.13408 -0.10877
 C279 C 1.17542 -0.08909 -0.10557
 C280 C 1.14139 -0.05898 -0.08565
 C281 C 1.09753 -0.07322 -0.06623
 C282 C 1.09020 -0.11756 -0.06073
 C283 C 1.05309 -0.14425 -0.09307
 C284 C 1.08905 -0.17671 -0.11567
 H285 H 1.20891 -0.07693 -0.11894
 H286 H 1.14925 -0.02477 -0.08582
 H287 H 1.03709 -0.12815 -0.14075
 H288 H 1.02928 -0.15681 -0.05072
 H289 H 1.09324 -0.17977 -0.17601
 H290 H 1.08625 -0.20783 -0.08563
 C291 C 0.63325 0.40486 0.30350
 C292 C 0.64881 0.36813 0.34005
 C293 C 0.63957 0.36484 0.41559
 C294 C 0.61043 0.39463 0.45034
 C295 C 0.59002 0.42830 0.41013
 C296 C 0.60443 0.43418 0.33762
 C297 C 0.57744 0.44055 0.26951
 C298 C 0.60915 0.40847 0.23222
 H299 H 0.65292 0.33798 0.44671
 H300 H 0.60212 0.38989 0.50759
 H301 H 0.58082 0.47394 0.24775
 H302 H 0.54197 0.42852 0.27494
 H303 H 0.63087 0.42343 0.18920
 H304 H 0.59212 0.37783 0.21598
 C305 C 0.84145 -0.08668 -0.16750
 C306 C 0.85324 -0.13024 -0.17715
 C307 C 0.89860 -0.14177 -0.16223
 C308 C 0.92824 -0.11215 -0.12885
 C309 C 0.91411 -0.06979 -0.11298
 C310 C 0.87141 -0.05687 -0.13746
 C311 C 0.83406 -0.03444 -0.09702
 C312 C 0.80138 -0.06709 -0.13012
 H313 H 0.91036 -0.17441 -0.17227
 H314 H 0.96149 -0.12287 -0.11267
 H315 H 0.82866 -0.00104 -0.11746
 H316 H 0.83734 -0.03747 -0.03665
 H317 H 0.77731 -0.05247 -0.16963
 H318 H 0.78573 -0.08910 -0.08900
 C319 C 0.34188 0.37458 0.44322
 C320 C 0.33434 0.37041 0.36793
 C321 C 0.35496 0.40104 0.32139
 C322 C 0.38691 0.43077 0.34914
 C323 C 0.39897 0.43024 0.42395
 C324 C 0.37342 0.40357 0.47031
 C325 C 0.38639 0.37433 0.53154
 C326 C 0.35133 0.34249 0.50223
 H327 H 0.34824 0.40038 0.26315
 H328 H 0.40400 0.45232 0.31127
 H329 H 0.37708 0.38797 0.58591
 H330 H 0.42189 0.36245 0.52648
 H331 H 0.32177 0.33818 0.53962
 H332 H 0.36675 0.31199 0.48206
 C333 C 0.14985 0.64169 -0.03160
 C334 C 0.15658 0.65117 -0.10598
 C335 C 0.12439 0.63430 -0.15560
 C336 C 0.09070 0.60511 -0.13215
 C337 C 0.08768 0.59258 -0.05818
 C338 C 0.11605 0.61339 -0.00814
 C339 C 0.14586 0.59417 0.04896
 C340 C 0.18288 0.62494 0.02319
 H341 H 0.12582 0.64300 -0.21300
 H342 H 0.06762 0.59169 -0.17221
 H343 H 0.15379 0.55958 0.03822
 H344 H 0.13344 0.60138 0.10525
 H345 H 0.21225 0.60826 -0.00285
 H346 H 0.19195 0.64960 0.06497
 C347 C 0.63251 1.10787 0.30658
 C348 C 0.64755 1.14454 0.34419
 C349 C 0.63714 1.14774 0.41934
 C350 C 0.60755 1.11775 0.45262
 C351 C 0.58779 1.08404 0.41124
 C352 C 0.60318 1.07843 0.33917
 C353 C 0.57718 1.07218 0.26998
 C354 C 0.60947 1.10439 0.23433
 H355 H 0.65009 1.17455 0.45127
 H356 H 0.59846 1.12230 0.50964
 H357 H 0.54167 1.08414 0.27422
 H358 H 0.58082 1.03885 0.24791
 H359 H 0.59274 1.13505 0.21784
 H360 H 0.63180 1.08957 0.19196
 C361 C 0.14962 0.38665 0.09490
 C362 C 0.13783 0.36678 0.16113
 C363 C 0.09967 0.38275 0.19920
 C364 C 0.07155 0.41421 0.16710
 C365 C 0.08062 0.42959 0.09575
 C366 C 0.12135 0.41679 0.06260
 C367 C 0.13186 0.40103 -0.01277
 C368 C 0.16329 0.36811 0.02251
 H369 H 0.09092 0.36995 0.25260
 H370 H 0.04144 0.42469 0.19639
 H371 H 0.15025 0.42566 -0.04583
 H372 H 0.10196 0.38608 -0.03987
 H373 H 0.19974 0.37407 0.01004
 H374 H 0.15196 0.33418 0.01460
 C375 C 0.64513 0.90421 0.65511
 C376 C 0.65652 0.86715 0.61519
 C377 C 0.64097 0.86413 0.54255
 C378 C 0.61000 0.89471 0.51515
 C379 C 0.59410 0.92884 0.55998
 C380 C 0.61457 0.93421 0.62838
 C381 C 0.59392 0.94127 0.70232
 C382 C 0.62763 0.90843 0.73152
 H383 H 0.65096 0.83705 0.50846
 H384 H 0.59678 0.89025 0.46045
 H385 H 0.55804 0.93011 0.70556
 H386 H 0.60005 0.97457 0.72302
 H387 H 0.61136 0.87822 0.75177
 H388 H 0.65328 0.92285 0.76875
 C389 C 0.83112 0.10193 0.11354
 C390 C 0.84192 0.14565 0.12330
 C391 C 0.88739 0.15812 0.10978
 C392 C 0.91871 0.12872 0.07932
 C393 C 0.90560 0.08593 0.06379
 C394 C 0.86239 0.07251 0.08608
 C395 C 0.82661 0.04935 0.04357
 C396 C 0.79248 0.08158 0.07414
 H397 H 0.89836 0.19095 0.12051
 H398 H 0.95301 0.13943 0.06757
 H399 H 0.82101 0.01592 0.06391
 H400 H 0.83173 0.05226 -0.01656
 H401 H 0.76747 0.06675 0.11240
 H402 H 0.77779 0.10314 0.03179
 C403 C 0.34770 0.63348 0.58967
 C404 C 0.34663 0.63801 0.66593
 C405 C 0.37054 0.60740 0.70760
 C406 C 0.39967 0.57744 0.67303
 C407 C 0.40553 0.57775 0.59615
 C408 C 0.37654 0.60431 0.55584
 C409 C 0.38449 0.63331 0.49187
 C410 C 0.35231 0.66533 0.52868
 H411 H 0.36871 0.60832 0.76682
 H412 H 0.41959 0.55598 0.70682
 H413 H 0.37074 0.61950 0.44032
 H414 H 0.42011 0.64514 0.48852
 H415 H 0.31997 0.66954 0.49848
 H416 H 0.36934 0.69589 0.54475
   
