data_POSCAR
  _audit_creation_date              2014-09-24
  _audit_creation_method            'ToBaCCo'
  _symmetry_space_group_name_H-M    'P1'
  _symmetry_Int_Tables_number       1
  _symmetry_cell_setting            triclinic
  loop_
  _symmetry_equiv_pos_as_xyz
 x,y,z
_cell_length_a 17.2282
_cell_length_b 17.3657
_cell_length_c 17.4209
_cell_angle_alpha 91.160400
_cell_angle_beta 90.958300
_cell_angle_gamma 90.700000
loop_
  _atom_site_label
  _atom_site_type_symbol
  _atom_site_fract_x
  _atom_site_fract_y
  _atom_site_fract_z
O1 O 0.58679 0.14248 0.07529
 O2 O 0.42501 -0.06326 -0.15619
 O3 O 0.65696 -0.02331 -0.08917
 O4 O 0.35388 0.09912 0.01223
 O5 O 0.55697 -0.02096 -0.16058
 O6 O 0.45967 0.16195 0.02747
 O7 O 0.37512 0.03962 -0.11107
 O8 O 0.63282 0.09809 -0.02884
 C9 C 0.62586 0.15273 0.01666
 C10 C 0.38381 -0.00560 -0.16592
 C11 C 0.62778 -0.01204 -0.15342
 C12 C 0.38974 0.16151 0.01143
 O13 O 0.40281 0.06346 0.13308
 O14 O 0.59511 -0.13971 -0.06494
 O15 O 0.64041 0.02749 0.10781
 O16 O 0.35627 -0.09764 -0.04717
 O17 O 0.46064 -0.16165 -0.04174
 O18 O 0.53234 0.02066 0.16181
 O19 O 0.35878 -0.03927 0.07880
 O20 O 0.62872 -0.09410 0.04474
 Co21 Co 0.49633 0.08712 0.08945
 Co22 Co 0.50895 -0.08663 -0.09569
 Co23 Co 0.62581 0.00192 0.00741
 Co24 Co 0.37495 0.00052 -0.01534
 O25 O 0.50118 0.00051 -0.00356
 C26 C 0.35879 0.00591 0.13437
 C27 C 0.62883 -0.14819 -0.00187
 C28 C 0.60286 0.00918 0.16472
 C29 C 0.38914 -0.15990 -0.03736
 O30 O -0.15426 0.45356 -0.02651
 O31 O 0.03596 0.55807 0.16100
 O32 O -0.04157 0.37698 0.09843
 O33 O -0.08172 0.63971 0.04740
 O34 O 0.06076 0.42663 0.15182
 O35 O -0.13842 0.58509 -0.05159
 O36 O 0.05162 0.65678 0.09630
 O37 O -0.08894 0.35301 -0.03285
 C38 C -0.15175 0.38338 -0.02072
 C39 C 0.03524 0.62875 0.15841
 C40 C -0.00020 0.38664 0.15656
 C41 C -0.14087 0.62935 0.00650
 O42 O -0.02334 0.55086 -0.15686
 O43 O 0.16550 0.45627 0.03212
 O44 O 0.05173 0.36780 -0.08483
 O45 O 0.10461 0.63141 -0.04360
 O46 O 0.15728 0.58614 0.05832
 O47 O -0.04796 0.41652 -0.14227
 O48 O -0.02770 0.65333 -0.09115
 O49 O 0.10064 0.35574 0.04645
 Co50 Co -0.08193 0.50155 -0.08540
 Co51 Co 0.09608 0.50646 0.09219
 Co52 Co 0.00582 0.37815 0.00681
 Co53 Co 0.01157 0.62994 0.00252
 O54 O 0.00776 0.50408 0.00394
 C55 C -0.02205 0.62194 -0.15497
 C56 C 0.16336 0.38578 0.03077
 C57 C 0.01056 0.37332 -0.14354
 C58 C 0.16333 0.62231 -0.00285
 O59 O -0.01852 -0.15085 0.45527
 O60 O 0.15630 0.06255 0.56813
 O61 O 0.05385 0.02939 0.33801
 O62 O 0.00869 -0.13212 0.59324
 O63 O 0.14961 0.04346 0.42318
 O64 O -0.11076 -0.16434 0.56445
 O65 O 0.12136 -0.05155 0.59255
 O66 O -0.03310 -0.08139 0.35358
 C67 C -0.01501 -0.14430 0.38407
 C68 C 0.17058 0.00020 0.59808
 C69 C 0.12595 0.02881 0.35575
 C70 C -0.04967 -0.17428 0.60778
 O71 O -0.15168 -0.02291 0.55353
 O72 O 0.05526 0.15496 0.41646
 O73 O -0.14273 0.01735 0.41377
 O74 O 0.03939 0.07123 0.65125
 O75 O 0.04485 0.15863 0.56119
 O76 O -0.15507 -0.10044 0.42999
 O77 O -0.07511 -0.01337 0.65072
 O78 O -0.06182 0.12191 0.39790
 Co79 Co -0.08057 -0.08345 0.50661
 Co80 Co 0.09107 0.09499 0.49275
 Co81 Co -0.04293 0.02033 0.38456
 Co82 Co 0.02142 -0.02829 0.61169
 O83 O -0.00199 0.00570 0.49585
 C84 C -0.14213 -0.00898 0.62303
 C85 C -0.00938 0.16913 0.38898
 C86 C -0.18196 -0.04169 0.40092
 C87 C 0.03778 0.14105 0.63026
 C88 C -0.30738 0.34654 0.00349
 C89 C -0.32642 0.28065 -0.05601
 C90 C -0.32392 0.22207 0.00883
 C91 C -0.30637 0.28656 0.06873
 C92 C -0.23681 0.20957 -0.00291
 C93 C -0.23879 0.26832 -0.06782
 C94 C -0.22031 0.33290 -0.00832
 C95 C -0.21860 0.27426 0.05663
 H96 H -0.33549 0.40368 0.00608
 H97 H -0.37141 0.28228 -0.10229
 H98 H -0.33494 0.29312 0.12508
 H99 H -0.20744 0.15307 -0.00578
 H100 H -0.21150 0.26116 -0.12463
 H101 H -0.17392 0.27198 0.10318
 C102 C 0.30299 0.68347 0.04076
 C103 C 0.35814 0.69176 -0.02842
 C104 C 0.34112 0.77441 -0.02989
 C105 C 0.29038 0.77099 0.03675
 C106 C 0.27612 0.76324 -0.08513
 C107 C 0.28821 0.67537 -0.08458
 C108 C 0.23346 0.67041 -0.01557
 C109 C 0.22027 0.75800 -0.01765
 H110 H 0.31573 0.65117 0.09376
 H111 H 0.41762 0.66838 -0.03304
 H112 H 0.29445 0.81220 0.08613
 H113 H 0.26752 0.79838 -0.13717
 H114 H 0.28857 0.63662 -0.13602
 H115 H 0.16436 0.78879 -0.01359
 C116 C 0.30561 0.33522 0.07247
 C117 C 0.29319 0.24773 0.08114
 C118 C 0.34266 0.23254 0.00981
 C119 C 0.35645 0.31968 0.00094
 C120 C 0.26991 0.23503 -0.04242
 C121 C 0.22056 0.24944 0.02900
 C122 C 0.23284 0.33674 0.02028
 C123 C 0.28217 0.32285 -0.05137
 H124 H 0.31946 0.37697 0.11996
 H125 H 0.29850 0.21726 0.13634
 H126 H 0.41314 0.34771 -0.01081
 H127 H 0.25548 0.19343 -0.08994
 H128 H 0.16504 0.21912 0.04085
 H129 H 0.27666 0.35450 -0.10587
 C130 C -0.21852 0.73980 -0.05156
 C131 C -0.30638 0.72234 -0.05168
 C132 C -0.31614 0.78747 0.00831
 C133 C -0.22845 0.80503 0.00839
 C134 C -0.30538 0.73084 0.07429
 C135 C -0.29457 0.66456 0.01399
 C136 C -0.20704 0.68273 0.01397
 C137 C -0.21655 0.74776 0.07412
 H138 H -0.18225 0.74347 -0.10351
 H139 H -0.34362 0.71234 -0.10364
 H140 H -0.20106 0.86304 0.00561
 H141 H -0.34210 0.72797 0.12592
 H142 H -0.32084 0.60600 0.01650
 H143 H -0.17900 0.75764 0.12585
 C144 C -0.05766 -0.23348 0.26847
 C145 C 0.00874 -0.23299 0.21052
 C146 C 0.02241 -0.31896 0.22601
 C147 C -0.04409 -0.31974 0.28366
 C148 C 0.08168 -0.29735 0.29018
 C149 C 0.06774 -0.21096 0.27490
 C150 C 0.00148 -0.21141 0.33260
 C151 C 0.01485 -0.29703 0.34918
 H152 H -0.11516 -0.20646 0.25984
 H153 H 0.00553 -0.20578 0.15346
 H154 H -0.09000 -0.36493 0.28663
 H155 H 0.13912 -0.32449 0.29855
 H156 H 0.11355 -0.16572 0.27181
 H157 H 0.01745 -0.32241 0.40712
 C158 C -0.03450 0.26307 0.69129
 C159 C -0.04021 0.25117 0.77875
 C160 C 0.02056 0.31593 0.79265
 C161 C 0.02625 0.32864 0.70595
 C162 C 0.08645 0.25686 0.79008
 C163 C 0.02567 0.19171 0.77563
 C164 C 0.03131 0.20417 0.68891
 C165 C 0.09233 0.26872 0.70249
 H166 H -0.08448 0.26455 0.65031
 H167 H -0.09487 0.24412 0.81060
 H168 H 0.02662 0.38551 0.67799
 H169 H 0.13651 0.25496 0.83094
 H170 H 0.02523 0.13502 0.80397
 H171 H 0.14716 0.27483 0.67048
 C172 C 0.04271 0.23314 0.26770
 C173 C -0.02335 0.24811 0.20966
 C174 C -0.01111 0.33532 0.22340
 C175 C 0.05500 0.32036 0.28143
 C176 C -0.07110 0.33517 0.28785
 C177 C -0.08315 0.24687 0.27488
 C178 C -0.01676 0.23234 0.33271
 C179 C -0.00458 0.31936 0.34694
 H180 H 0.08972 0.19076 0.25911
 H181 H -0.03099 0.21844 0.15297
 H182 H 0.11218 0.35059 0.28395
 H183 H -0.11785 0.37794 0.29539
 H184 H -0.14000 0.21602 0.27261
 H185 H 0.00298 0.34805 0.40413
 C186 C -0.05867 -0.32429 0.65953
 C187 C 0.01655 -0.33850 0.70754
 C188 C -0.02799 -0.33181 0.77844
 C189 C -0.10193 -0.32060 0.73691
 C190 C -0.01282 -0.24822 0.78649
 C191 C 0.03282 -0.25058 0.71140
 C192 C -0.04356 -0.23634 0.66609
 C193 C -0.08855 -0.23242 0.74173
 H194 H -0.07817 -0.35771 0.60760
 H195 H 0.05977 -0.38423 0.69682
 H196 H -0.15660 -0.35171 0.75035
 H197 H 0.00696 -0.21810 0.84033
 H198 H 0.09022 -0.22250 0.70300
 H199 H -0.13251 -0.18928 0.75833
 C200 C 0.22978 0.04714 0.72948
 C201 C 0.25157 -0.02293 0.77756
 C202 C 0.33402 -0.00288 0.76895
 C203 C 0.31735 0.06595 0.72448
 C204 C 0.34149 -0.05246 0.69999
 C205 C 0.25435 -0.07422 0.70447
 C206 C 0.23455 -0.00379 0.65582
 C207 C 0.32150 0.01713 0.64914
 H208 H 0.18392 0.08916 0.74397
 H209 H 0.22482 -0.03944 0.83248
 H210 H 0.34555 0.12293 0.73619
 H211 H 0.39010 -0.09291 0.69093
 H212 H 0.22958 -0.13336 0.69794
 H213 H 0.35238 0.03344 0.59636
 C214 C -0.28936 0.03839 0.33273
 C215 C -0.27386 0.02898 0.24659
 C216 C -0.35297 -0.01268 0.23558
 C217 C -0.36887 -0.00321 0.32186
 C218 C -0.31407 -0.09080 0.24881
 C219 C -0.23498 -0.04896 0.25968
 C220 C -0.24975 -0.03948 0.34607
 C221 C -0.32865 -0.08177 0.33656
 H222 H -0.27898 0.09214 0.36719
 H223 H -0.25024 0.07536 0.21033
 H224 H -0.42442 0.01572 0.34701
 H225 H -0.32475 -0.14406 0.21372
 H226 H -0.18046 -0.06893 0.23314
 H227 H -0.35046 -0.12781 0.37415
 C228 C 0.25223 -0.04181 0.29974
 C229 C 0.23926 -0.06226 0.21319
 C230 C 0.29636 0.00288 0.19311
 C231 C 0.30995 0.02324 0.27861
 C232 C 0.22901 0.06040 0.18886
 C233 C 0.17128 -0.00444 0.20987
 C234 C 0.18532 0.01597 0.29528
 C235 C 0.24238 0.08082 0.27471
 H236 H 0.26099 -0.08401 0.34602
 H237 H 0.23780 -0.12158 0.18855
 H238 H 0.36743 0.03439 0.30668
 H239 H 0.21893 0.10196 0.14232
 H240 H 0.11372 -0.01562 0.18199
 H241 H 0.24304 0.14005 0.29997
 C242 C -0.27042 -0.06467 0.68294
 C243 C -0.25602 -0.06387 0.77045
 C244 C -0.31941 -0.00288 0.77999
 C245 C -0.33464 -0.00361 0.69266
 C246 C -0.25853 0.06212 0.77306
 C247 C -0.19497 0.00091 0.76350
 C248 C -0.20925 0.00013 0.67596
 C249 C -0.27241 0.06154 0.68455
 H250 H -0.27478 -0.11718 0.64562
 H251 H -0.24953 -0.11582 0.80606
 H252 H -0.39272 -0.00557 0.66409
 H253 H -0.25412 0.11438 0.81076
 H254 H -0.13745 0.00275 0.79327
 H255 H -0.27840 0.11330 0.64869
   
