data_POSCAR
  _audit_creation_date              2014-09-24
  _audit_creation_method            'ToBaCCo'
  _symmetry_space_group_name_H-M    'P1'
  _symmetry_Int_Tables_number       1
  _symmetry_cell_setting            triclinic
  loop_
  _symmetry_equiv_pos_as_xyz
 x,y,z
_cell_length_a 27.0361
_cell_length_b 26.4119
_cell_length_c 27.8350
_cell_angle_alpha 89.813300
_cell_angle_beta 90.266900
_cell_angle_gamma 89.669800
loop_
  _atom_site_label
  _atom_site_type_symbol
  _atom_site_fract_x
  _atom_site_fract_y
  _atom_site_fract_z
C1 C 0.19079 0.18166 0.25996
 C2 C 0.18434 0.22861 0.23637
 C3 C 0.22133 0.24614 0.20638
 C4 C 0.26355 0.21715 0.19779
 C5 C 0.26884 0.16971 0.21830
 C6 C 0.23293 0.15255 0.25077
 C7 C 0.16020 0.15269 0.28873
 N8 N 0.18371 0.10813 0.29753
 C9 C 0.22732 0.10700 0.27402
 C10 C 0.30530 0.14467 0.19251
 N11 N 0.32206 0.17682 0.15819
 C12 C 0.29713 0.22099 0.16135
 C13 C 0.20303 0.28664 0.18121
 N14 N 0.15562 0.29439 0.19450
 C15 C 0.14348 0.25980 0.22866
 H16 H 0.12339 0.16246 0.30089
 H17 H 0.25225 0.07479 0.27271
 H18 H 0.31426 0.10471 0.19462
 H19 H 0.29825 0.25082 0.13457
 H20 H 0.22145 0.30626 0.15221
 H21 H 0.10674 0.25469 0.24311
 C22 C -0.19223 0.81259 0.25048
 C23 C -0.19013 0.76621 0.22544
 C24 C -0.23073 0.75133 0.19836
 C25 C -0.27198 0.78286 0.19325
 C26 C -0.27290 0.82986 0.21485
 C27 C -0.23360 0.84398 0.24508
 C28 C -0.15811 0.83894 0.27793
 N29 N -0.17883 0.88409 0.28969
 C30 C -0.22405 0.88822 0.26914
 C31 C -0.30913 0.85810 0.19140
 N32 N -0.33003 0.82847 0.15719
 C33 C -0.30803 0.78253 0.15850
 C34 C -0.21694 0.71049 0.17142
 N35 N -0.16905 0.70012 0.18050
 C36 C -0.15160 0.73344 0.21364
 H37 H -0.12095 0.82693 0.28738
 H38 H -0.24756 0.92152 0.27050
 H39 H -0.31473 0.89860 0.19433
 H40 H -0.31228 0.75398 0.13095
 H41 H -0.23868 0.69262 0.14351
 H42 H -0.11333 0.73653 0.22474
 C43 C -0.16683 0.22379 -0.25581
 C44 C -0.17970 0.26029 -0.22176
 C45 C -0.21003 0.24804 -0.18353
 C46 C -0.22957 0.19905 -0.18024
 C47 C -0.21665 0.16249 -0.21403
 C48 C -0.18413 0.17470 -0.25165
 C49 C -0.12967 0.22366 -0.28926
 N50 N -0.12363 0.17591 -0.30542
 C51 C -0.15624 0.14522 -0.28270
 C52 C -0.23745 0.11750 -0.19928
 N53 N -0.26272 0.12661 -0.15830
 C54 C -0.25788 0.17570 -0.14567
 C55 C -0.20643 0.28704 -0.15056
 N56 N -0.17482 0.32192 -0.16867
 C57 C -0.15880 0.30626 -0.21200
 H58 H -0.10486 0.25468 -0.29691
 H59 H -0.15599 0.10428 -0.28459
 H60 H -0.23390 0.08095 -0.21648
 H61 H -0.27307 0.19273 -0.11358
 H62 H -0.22115 0.28733 -0.11447
 H63 H -0.12957 0.32423 -0.23219
 C64 C 0.17223 0.77340 -0.25396
 C65 C 0.19032 0.73997 -0.21898
 C66 C 0.22306 0.75640 -0.18405
 C67 C 0.23910 0.80680 -0.18469
 C68 C 0.22090 0.84034 -0.21936
 C69 C 0.18656 0.82368 -0.25393
 C70 C 0.13279 0.76893 -0.28486
 N71 N 0.12283 0.81503 -0.30364
 C72 C 0.15485 0.84923 -0.28503
 C73 C 0.23882 0.88762 -0.20814
 N74 N 0.26731 0.88285 -0.16825
 C75 C 0.26762 0.83423 -0.15303
 C76 C 0.22463 0.71957 -0.14859
 N77 N 0.19319 0.68215 -0.16144
 C78 C 0.17272 0.69392 -0.20460
 H79 H 0.10984 0.73581 -0.28956
 H80 H 0.15225 0.88983 -0.29007
 H81 H 0.23108 0.92280 -0.22685
 H82 H 0.28631 0.82027 -0.12111
 H83 H 0.24209 0.72280 -0.11367
 H84 H 0.14272 0.67347 -0.22145
 C85 C 0.21416 1.17452 0.73653
 C86 C 0.25377 1.18977 0.76507
 C87 C 0.24615 1.22024 0.80487
 C88 C 0.19810 1.23875 0.81439
 C89 C 0.15860 1.22366 0.78546
 C90 C 0.16648 1.18993 0.74721
 C91 C 0.21125 1.13484 0.70507
 N92 N 0.16314 1.12519 0.69675
 C93 C 0.13494 1.15823 0.72210
 C94 C 0.11604 1.24351 0.80507
 N95 N 0.12888 1.27078 0.84419
 C96 C 0.17846 1.26760 0.85124
 C97 C 0.28895 1.21675 0.83253
 N98 N 0.32111 1.18528 0.80959
 C99 C 0.30023 1.16936 0.76844
 H100 H 0.24154 1.11055 0.69409
 H101 H 0.09525 1.15558 0.72640
 H102 H 0.07855 1.23787 0.79240
 H103 H 0.19840 1.28418 0.88106
 H104 H 0.29391 1.23101 0.86863
 H105 H 0.31538 1.13982 0.74587
 C106 C 0.77975 0.82276 0.73581
 C107 C 0.73873 0.81110 0.76377
 C108 C 0.74376 0.78087 0.80427
 C109 C 0.79023 0.75948 0.81554
 C110 C 0.83140 0.77142 0.78780
 C111 C 0.82632 0.80470 0.74835
 C112 C 0.78558 0.86124 0.70329
 N113 N 0.83430 0.86779 0.69603
 C114 C 0.86010 0.83392 0.72327
 C115 C 0.87225 0.75041 0.81050
 N116 N 0.85643 0.72544 0.85011
 C117 C 0.80690 0.73153 0.85444
 C118 C 0.70147 0.78833 0.83138
 N119 N 0.67201 0.82216 0.80769
 C120 C 0.69404 0.83562 0.76636
 H121 H 0.75694 0.88699 0.69073
 H122 H 0.89979 0.83437 0.72864
 H123 H 0.91055 0.75456 0.80009
 H124 H 0.78508 0.71837 0.88447
 H125 H 0.69558 0.77528 0.86780
 H126 H 0.68145 0.86618 0.74326
 C127 C 0.19951 0.82280 1.26281
 C128 C 0.23306 0.83469 1.22606
 C129 C 0.24645 0.79778 1.19295
 C130 C 0.22738 0.74849 1.19660
 C131 C 0.19753 0.73633 1.23513
 C132 C 0.18331 0.77335 1.26788
 C133 C 0.16779 0.85276 1.28956
 N134 N 0.13394 0.82196 1.31024
 C135 C 0.14332 0.77372 1.29780
 C136 C 0.17615 0.69061 1.22579
 N137 N 0.19082 0.67503 1.18214
 C138 C 0.22258 0.70959 1.16353
 C139 C 0.27621 0.82060 1.15951
 N140 N 0.28220 0.86983 1.17218
 C141 C 0.25557 0.87929 1.21229
 H142 H 0.16543 0.89370 1.28866
 H143 H 0.11843 0.74242 1.30414
 H144 H 0.14659 0.67336 1.24611
 H145 H 0.23598 0.70962 1.12695
 H146 H 0.29339 0.80243 1.12898
 H147 H 0.25338 0.91550 1.23029
 C148 C 0.80531 1.17656 1.26277
 C149 C 0.76540 1.16667 1.23154
 C150 C 0.74957 1.20412 1.19959
 C151 C 0.77282 1.25149 1.19836
 C152 C 0.81049 1.26144 1.23056
 C153 C 0.82661 1.22428 1.26271
 C154 C 0.83663 1.14531 1.28916
 N155 N 0.87503 1.17386 1.30476
 C156 C 0.86939 1.22175 1.28902
 C157 C 0.83318 1.30504 1.21611
 N158 N 0.81076 1.32172 1.17542
 C159 C 0.77335 1.28980 1.16422
 C160 C 0.71461 1.18298 1.17024
 N161 N 0.70807 1.13408 1.18384
 C162 C 0.73898 1.12325 1.22100
 H163 H 0.83430 1.10455 1.29262
 H164 H 0.89714 1.25101 1.29204
 H165 H 0.86695 1.32035 1.23109
 H166 H 0.75212 1.29116 1.13117
 H167 H 0.69580 1.20160 1.14059
 H168 H 0.74291 1.08649 1.23793
 N169 N 0.53497 0.93985 0.89886
 N170 N 0.56892 0.92209 0.86930
 N171 N 0.42461 0.93707 0.92843
 N172 N 0.37789 0.92314 0.92371
 N173 N 0.43551 0.97192 0.89642
 N174 N 0.39664 0.98314 0.86956
 N175 N 0.52466 0.90613 0.93198
 N176 N 0.55135 0.86457 0.92630
 C177 C 0.57850 0.87519 0.88709
 C178 C 0.36159 0.95159 0.88617
 N179 N 0.43058 0.96503 1.06785
 N180 N 0.39723 0.95755 1.10201
 N181 N 0.52249 0.90480 1.03496
 N182 N 0.55662 0.86902 1.03467
 N183 N 0.53127 0.93722 1.06980
 N184 N 0.57130 0.92376 1.09432
 N185 N 0.42234 0.93425 1.03167
 N186 N 0.38349 0.90585 1.03979
 Mn187 Mn 0.47336 0.92018 0.98183
 C188 C 0.36756 0.92134 1.08294
 C189 C 0.58565 0.88040 1.07259
 N190 N 0.46596 1.07582 0.89870
 N191 N 0.43160 1.09325 0.86905
 N192 N 0.57413 1.07749 0.93572
 N193 N 0.62113 1.09118 0.93540
 N194 N 0.56565 1.04402 0.90188
 N195 N 0.60647 1.03381 0.87788
 N196 N 0.47377 1.10816 0.93353
 N197 N 0.44491 1.14845 0.92888
 Mn198 Mn 0.50059 1.00791 0.89844
 C199 C 0.41926 1.13862 0.88833
 C200 C 0.64023 1.06457 0.89829
 N201 N 0.56010 1.04343 1.07316
 N202 N 0.59218 1.04893 1.10908
 N203 N 0.47010 1.10503 1.03644
 N204 N 0.43706 1.14184 1.03627
 N205 N 0.45950 1.07129 1.06971
 N206 N 0.41922 1.08475 1.09339
 N207 N 0.57009 1.07570 1.03850
 N208 N 0.60890 1.10310 1.04927
 Mn209 Mn 0.49534 1.00421 1.07087
 Mn210 Mn 0.52211 1.09198 0.98612
 Cl211 Cl 0.49783 1.00605 0.98439
 C212 C 0.62292 1.08557 1.09252
 C213 C 0.40664 1.12942 1.07261
 N214 N 0.05838 0.44101 0.08737
 N215 N 0.06869 0.40788 0.12171
 N216 N 0.10469 0.53961 0.04597
 N217 N 0.14430 0.56857 0.04988
 N218 N 0.07549 0.54548 0.08321
 N219 N 0.09444 0.57818 0.11365
 N220 N 0.08799 0.43479 0.05048
 N221 N 0.11934 0.39728 0.05884
 C222 C 0.10607 0.38042 0.10281
 C223 C 0.13696 0.59240 0.09218
 N224 N 0.05188 0.54303 -0.08518
 N225 N 0.06075 0.57582 -0.11969
 N226 N 0.07374 0.43277 -0.05268
 N227 N 0.09377 0.38728 -0.05765
 N228 N 0.03508 0.43810 -0.08114
 N229 N 0.02757 0.39615 -0.10581
 N230 N 0.09048 0.53795 -0.05672
 N231 N 0.12689 0.56767 -0.07094
 Mn232 Mn 0.08975 0.48622 -0.00336
 C233 C 0.10722 0.59092 -0.11010
 C234 C 0.06535 0.36551 -0.09191
 N235 N -0.02907 0.56421 0.09672
 N236 N -0.03166 0.59664 0.13280
 N237 N -0.08403 0.46407 0.07101
 N238 N -0.12044 0.43426 0.08501
 N239 N -0.04568 0.45951 0.09995
 N240 N -0.05470 0.42658 0.13438
 N241 N -0.06793 0.56886 0.06838
 N242 N -0.09794 0.60439 0.08457
 Mn243 Mn 0.01485 0.50263 0.09209
 C244 C -0.07431 0.62197 0.12405
 C245 C -0.10106 0.41116 0.12437
 N246 N -0.06883 0.45806 -0.06907
 N247 N -0.08640 0.42485 -0.09967
 N248 N -0.08143 0.56881 -0.03474
 N249 N -0.10147 0.61455 -0.03493
 N250 N -0.05230 0.56291 -0.07205
 N251 N -0.05220 0.60446 -0.09877
 N252 N -0.09841 0.46322 -0.03211
 N253 N -0.13720 0.43304 -0.03647
 Mn254 Mn -0.00858 0.50056 -0.07727
 Mn255 Mn -0.08350 0.51621 0.01810
 Cl256 Cl 0.00311 0.50145 0.00743
 C257 C -0.12870 0.40947 -0.07886
 C258 C -0.08421 0.63566 -0.07585
 N259 N 0.94835 0.08549 0.54818
 N260 N 0.92557 0.10254 0.58691
 N261 N 0.99593 0.09786 0.44647
 N262 N 1.00689 0.12117 0.40595
 N263 N 0.94887 0.08560 0.44733
 N264 N 0.92631 0.10098 0.40773
 N265 N 0.99495 0.09942 0.54801
 N266 N 1.00537 0.12560 0.58701
 C267 C 0.96176 0.12768 0.61037
 C268 C 0.96300 0.12324 0.38278
 N269 N 1.10372 -0.00185 0.45042
 N270 N 1.12878 -0.01444 0.41171
 N271 N 1.08837 0.04770 0.54970
 N272 N 1.10080 0.07124 0.58968
 N273 N 1.10048 -0.00051 0.55215
 N274 N 1.12075 -0.01126 0.59424
 N275 N 1.09012 0.04595 0.44839
 N276 N 1.10628 0.06738 0.40832
 Mn277 Mn 1.04260 0.07337 0.49793
 C278 C 1.13082 0.02906 0.38638
 C279 C 1.12130 0.03402 0.61661
 N280 N 0.89850 -0.00958 0.44602
 N281 N 0.87639 0.00307 0.40534
 N282 N 0.91045 -0.05892 0.54661
 N283 N 0.89869 -0.08185 0.58716
 N284 N 0.89832 -0.01065 0.54818
 N285 N 0.87888 0.00062 0.59029
 N286 N 0.91201 -0.05745 0.44525
 N287 N 0.89862 -0.07879 0.40418
 Mn288 Mn 0.92285 0.03791 0.49760
 C289 C 0.87571 -0.04051 0.38022
 C290 C 0.87855 -0.04434 0.61351
 N291 N 1.05034 -0.09637 0.55093
 N292 N 1.07250 -0.11473 0.58971
 N293 N 1.00629 -0.10918 0.44754
 N294 N 0.99684 -0.13217 0.40653
 N295 N 1.05324 -0.09674 0.45035
 N296 N 1.07719 -0.11156 0.41169
 N297 N 1.00390 -0.11064 0.54898
 N298 N 0.99292 -0.13863 0.58678
 Mn299 Mn 1.07752 -0.04907 0.50118
 Mn300 Mn 0.95785 -0.08466 0.49689
 Cl301 Cl 1.00020 -0.00559 0.49839
 C302 C 1.03606 -0.14100 0.61138
 C303 C 1.04153 -0.13374 0.38520
 N304 N 1.16550 0.06962 0.31933
 N305 N 1.15014 0.03083 0.33873
 N306 N 0.84277 -0.07922 0.31139
 N307 N 0.86154 -0.04202 0.33072
 N308 N 0.91666 0.16116 0.67459
 N309 N 0.95682 0.14947 0.65693
 N310 N 1.08159 -0.17429 0.67551
 N311 N 1.04107 -0.16611 0.65654
 N312 N 0.34270 1.16354 1.11877
 N313 N 0.36042 1.15425 1.07913
 N314 N 0.28982 0.91946 0.85249
 N315 N 0.31112 0.95528 0.87152
 N316 N 0.64999 0.84502 1.11826
 N317 N 0.63306 0.85775 1.07891
 N318 N 0.71392 1.09307 0.86601
 N319 N 0.69191 1.06035 0.88898
 N320 N 0.12285 0.32736 0.17034
 N321 N 0.13479 0.34435 0.12912
 N322 N -0.15044 0.36027 -0.14342
 N323 N -0.16021 0.37265 -0.10036
 N324 N 0.17357 0.64611 -0.12969
 N325 N 0.13186 0.62668 -0.13959
 N326 N -0.14225 0.66637 0.15164
 N327 N -0.09649 0.65665 0.15701
 N328 N 1.14858 0.08241 0.68041
 N329 N 1.13694 0.04046 0.66506
 N330 N 0.85137 -0.09075 0.67882
 N331 N 0.86512 -0.04978 0.66263
 N332 N 1.09109 -0.16407 0.32471
 N333 N 1.04923 -0.15293 0.33827
 N334 N 0.91649 0.15697 0.32071
 N335 N 0.95724 0.14304 0.33560
 N336 N 0.09769 0.29274 -0.12788
 N337 N 0.06629 0.31247 -0.10183
 N338 N -0.16886 0.35795 0.14429
 N339 N -0.12606 0.37528 0.15355
 N340 N -0.11518 0.70605 -0.11741
 N341 N -0.08800 0.68872 -0.08560
 N342 N 0.16386 0.63833 0.15717
 N343 N 0.17066 0.62734 0.11332
 N344 N 0.36209 1.15985 0.82937
 N345 N 0.38027 1.17009 0.87028
 N346 N 0.31433 0.90405 1.14951
 N347 N 0.33163 0.89277 1.10854
 N348 N 0.67556 1.10021 1.16111
 N349 N 0.65849 1.11256 1.12010
 N350 N 0.63345 0.85108 0.82726
 N351 N 0.61496 0.84165 0.86811
   
