data_POSCAR
  _audit_creation_date              2014-09-24
  _audit_creation_method            'ToBaCCo'
  _symmetry_space_group_name_H-M    'P1'
  _symmetry_Int_Tables_number       1
  _symmetry_cell_setting            triclinic
  loop_
  _symmetry_equiv_pos_as_xyz
 x,y,z
_cell_length_a 29.6843
_cell_length_b 32.2867
_cell_length_c 28.4022
_cell_angle_alpha 90.102800
_cell_angle_beta 89.613300
_cell_angle_gamma 89.853700
loop_
  _atom_site_label
  _atom_site_type_symbol
  _atom_site_fract_x
  _atom_site_fract_y
  _atom_site_fract_z
Si1 Si 1.25262 0.23729 0.25228
 Si2 Si 0.74829 -0.25727 0.24461
 Si3 Si 0.75197 0.26014 -0.26125
 Si4 Si 1.24911 -0.24439 -0.23978
 Si5 Si 0.24903 0.24654 0.74232
 Si6 Si 0.75181 0.74121 0.76093
 Si7 Si 0.74976 0.25529 0.25832
 Si8 Si 0.24986 0.76140 0.24343
 N9 N 1.06864 0.04343 0.05379
 N10 N 1.09804 0.07231 0.06515
 N11 N 1.03551 -0.04619 0.07604
 N12 N 1.04283 -0.07655 0.10589
 N13 N 1.06853 -0.04330 0.04520
 N14 N 1.09977 -0.07158 0.05407
 N15 N 1.03700 0.04047 0.08614
 N16 N 1.04381 0.06751 0.12022
 C17 C 1.08185 0.08727 0.10650
 C18 C 1.08265 -0.09251 0.09160
 N19 N 0.90833 -0.04232 0.04310
 N20 N 0.87814 -0.07199 0.04703
 N21 N 0.94079 0.04112 0.08595
 N22 N 0.93593 0.06934 0.11903
 N23 N 0.90879 0.04411 0.05452
 N24 N 0.88066 0.07436 0.06578
 N25 N 0.93878 -0.04537 0.07619
 N26 N 0.92975 -0.07707 0.10404
 Mn27 Mn 0.98803 -0.00256 0.08149
 C28 C 0.89211 -0.09362 0.08494
 C29 C 0.89844 0.08985 0.10595
 N30 N 1.06870 -0.03422 -0.05664
 N31 N 1.09836 -0.06298 -0.06827
 N32 N 1.03699 0.05556 -0.07901
 N33 N 1.04503 0.08582 -0.10882
 N34 N 1.06961 0.05230 -0.04815
 N35 N 1.10128 0.08015 -0.05703
 N36 N 1.03751 -0.03094 -0.08902
 N37 N 1.04499 -0.05755 -0.12350
 Mn38 Mn 1.06951 0.00455 -0.00145
 C39 C 1.08288 -0.07741 -0.10986
 C40 C 1.08486 0.10128 -0.09456
 N41 N 0.90923 0.05354 -0.04614
 N42 N 0.87811 0.08227 -0.05188
 N43 N 0.94095 -0.03057 -0.08900
 N44 N 0.93604 -0.05920 -0.12163
 N45 N 0.90884 -0.03305 -0.05719
 N46 N 0.88092 -0.06351 -0.06743
 N47 N 0.94012 0.05593 -0.07930
 N48 N 0.93052 0.08616 -0.10889
 Mn49 Mn 0.90828 0.00562 -0.00141
 Mn50 Mn 0.98893 0.01254 -0.08449
 Cl51 Cl 0.98878 0.00506 -0.00149
 C52 C 0.89212 0.10268 -0.09083
 C53 C 0.89850 -0.07950 -0.10772
 N54 N 1.09072 0.55813 0.53484
 N55 N 1.12150 0.58722 0.53991
 N56 N 1.06665 0.47229 0.57953
 N57 N 1.07557 0.44235 0.61007
 N58 N 1.09617 0.47158 0.54482
 N59 N 1.12531 0.44119 0.55039
 N60 N 1.06155 0.55931 0.56984
 N61 N 1.07184 0.58926 0.59958
 C62 C 1.10891 0.60680 0.58006
 C63 C 1.11241 0.42322 0.59119
 N64 N 0.93636 0.46569 0.55380
 N65 N 0.90676 0.43756 0.56697
 N66 N 0.96376 0.55586 0.57500
 N67 N 0.95236 0.58557 0.60508
 N68 N 0.93284 0.55217 0.54234
 N69 N 0.90017 0.57928 0.54894
 N70 N 0.96837 0.46933 0.58522
 N71 N 0.96083 0.44418 0.62113
 Mn72 Mn 1.01519 0.51416 0.57807
 C73 C 0.92250 0.42419 0.60881
 C74 C 0.91289 0.60032 0.58776
 N75 N 1.09286 0.46178 0.44482
 N76 N 1.12665 0.43616 0.43658
 N77 N 1.05523 0.54207 0.40222
 N78 N 1.05953 0.56850 0.36703
 N79 N 1.08683 0.54804 0.43360
 N80 N 1.11370 0.57849 0.42045
 N81 N 1.06011 0.45546 0.41481
 N82 N 1.07077 0.42505 0.38550
 Mn83 Mn 1.09198 0.51012 0.48956
 C84 C 1.11201 0.41281 0.40031
 C85 C 1.09607 0.59115 0.37899
 N86 N 0.92913 0.54154 0.44145
 N87 N 0.89879 0.57015 0.43113
 N88 N 0.96237 0.45214 0.41960
 N89 N 0.95151 0.42111 0.39140
 N90 N 0.93311 0.45522 0.45428
 N91 N 0.90231 0.42614 0.45132
 N92 N 0.95919 0.53841 0.40754
 N93 N 0.95068 0.56505 0.37365
 Mn94 Mn 0.93255 0.50380 0.49797
 Mn95 Mn 1.00923 0.49675 0.41058
 Cl96 Cl 1.01224 0.50623 0.49413
 C97 C 0.91300 0.58470 0.38881
 C98 C 0.91440 0.40478 0.41237
 N99 N 0.58404 0.03989 0.55816
 N100 N 0.61285 0.06915 0.56980
 N101 N 0.56177 -0.05256 0.58296
 N102 N 0.57308 -0.08336 0.61117
 N103 N 0.59297 -0.04686 0.55059
 N104 N 0.62603 -0.07393 0.55564
 N105 N 0.55441 0.03400 0.59211
 N106 N 0.56270 0.05903 0.62793
 C107 C 0.59860 0.08138 0.61291
 C108 C 0.61307 -0.09670 0.59336
 N109 N 0.43353 -0.05885 0.54966
 N110 N 0.40435 -0.08909 0.55462
 N111 N 0.45733 0.02708 0.59231
 N112 N 0.44853 0.05454 0.62558
 N113 N 0.42609 0.02789 0.55980
 N114 N 0.39513 0.05614 0.57022
 N115 N 0.46360 -0.05955 0.58338
 N116 N 0.45468 -0.09012 0.61304
 Mn117 Mn 0.50927 -0.01296 0.58825
 C118 C 0.41808 -0.10872 0.59383
 C119 C 0.40969 0.07259 0.61140
 N120 N 0.59228 -0.03992 0.45014
 N121 N 0.62249 -0.06930 0.44354
 N122 N 0.55178 0.04589 0.42439
 N123 N 0.55574 0.07724 0.39507
 N124 N 0.58357 0.04679 0.45630
 N125 N 0.61061 0.07870 0.44887
 N126 N 0.56157 -0.04086 0.41714
 N127 N 0.57054 -0.07091 0.38665
 Mn128 Mn 0.58864 0.00020 0.50379
 C129 C 0.60871 -0.08835 0.40383
 C130 C 0.59229 0.09770 0.41088
 N131 N 0.42585 0.03475 0.45883
 N132 N 0.39292 0.06175 0.45403
 N133 N 0.46463 -0.04838 0.41739
 N134 N 0.45817 -0.07464 0.38241
 N135 N 0.43251 -0.05162 0.44916
 N136 N 0.40303 -0.08002 0.43629
 N137 N 0.45548 0.03821 0.42458
 N138 N 0.44317 0.06774 0.39513
 Mn139 Mn 0.42913 -0.01188 0.50445
 Mn140 Mn 0.50845 -0.00136 0.42035
 Cl141 Cl 0.50890 -0.00651 0.50428
 C142 C 0.40436 0.08240 0.41448
 C143 C 0.41992 -0.09456 0.39497
 N144 N 0.57294 0.53322 0.05391
 N145 N 0.60379 0.56203 0.06131
 N146 N 0.53267 0.44896 0.08766
 N147 N 0.53885 0.42193 0.12174
 N148 N 0.56524 0.44644 0.05617
 N149 N 0.59453 0.41754 0.06828
 N150 N 0.54106 0.53550 0.08611
 N151 N 0.54870 0.56615 0.11555
 C152 C 0.58779 0.58249 0.09977
 C153 C 0.57716 0.40215 0.10889
 N154 N 0.40493 0.46068 0.05472
 N155 N 0.37379 0.43211 0.05977
 N156 N 0.44575 0.54411 0.08619
 N157 N 0.44163 0.57404 0.11755
 N158 N 0.41461 0.54714 0.05382
 N159 N 0.38781 0.57901 0.06286
 N160 N 0.43573 0.45737 0.08738
 N161 N 0.42596 0.42654 0.11623
 Mn162 Mn 0.48881 0.49627 0.08727
 C163 C 0.38724 0.41110 0.09822
 C164 C 0.40562 0.59579 0.10242
 N165 N 0.56629 0.44403 -0.04613
 N166 N 0.59696 0.41598 -0.05780
 N167 N 0.54190 0.53115 -0.08105
 N168 N 0.55071 0.55889 -0.11364
 N169 N 0.57351 0.53071 -0.04892
 N170 N 0.60520 0.55808 -0.05939
 N171 N 0.53378 0.44464 -0.07736
 N172 N 0.54122 0.41679 -0.11054
 Mn173 Mn 0.57016 0.48868 0.00380
 C174 C 0.58032 0.39869 -0.09754
 C175 C 0.59008 0.57561 -0.09979
 N176 N 0.41527 0.54434 -0.04811
 N177 N 0.38805 0.57528 -0.05849
 N178 N 0.43671 0.45319 -0.07741
 N179 N 0.42534 0.42384 -0.10754
 N180 N 0.40516 0.45816 -0.04531
 N181 N 0.37169 0.43217 -0.05239
 N182 N 0.44635 0.53977 -0.08079
 N183 N 0.44164 0.56788 -0.11397
 Mn184 Mn 0.40958 0.50285 0.00381
 Mn185 Mn 0.48969 0.49197 -0.07952
 Cl186 Cl 0.48968 0.49488 0.00381
 C187 C 0.40541 0.58995 -0.09931
 C188 C 0.38483 0.41076 -0.09112
 C189 C 1.15104 0.17327 0.19129
 C190 C 1.17073 0.15772 0.14978
 N191 N 1.21363 0.16841 0.13839
 C192 C 1.23798 0.19353 0.16700
 C193 C 1.21857 0.20861 0.20886
 N194 N 1.17541 0.19821 0.21988
 N195 N 1.10857 0.16176 0.20335
 C196 C 1.08502 0.13493 0.17604
 C197 C 1.10493 0.11872 0.13488
 N198 N 1.14729 0.13086 0.12257
 H199 H 1.27238 0.20096 0.15756
 H200 H 1.05139 0.12592 0.18674
 C201 C 1.19093 0.69265 0.65195
 C202 C 1.15193 0.67631 0.67314
 N203 N 1.14206 0.68580 0.71856
 C204 C 1.16967 0.71052 0.74404
 C205 C 1.20895 0.72652 0.72327
 N206 N 1.21872 0.71734 0.67750
 N207 N 1.20120 0.68218 0.60680
 C208 C 1.17460 0.65570 0.58212
 C209 C 1.13604 0.63870 0.60363
 N210 N 1.12555 0.64980 0.64862
 H211 H 1.16136 0.71703 0.78047
 H212 H 1.18396 0.64739 0.54643
 C213 C 0.68254 0.16006 0.69151
 C214 C 0.65203 0.17673 0.65902
 N215 N 0.65105 0.21833 0.65190
 C216 C 0.67961 0.24394 0.67537
 C217 C 0.71143 0.22710 0.70632
 N218 N 0.71171 0.18551 0.71401
 N219 N 0.68282 0.11865 0.69969
 C220 C 0.65434 0.09299 0.67636
 C221 C 0.62480 0.10935 0.64277
 N222 N 0.62434 0.15095 0.63478
 H223 H 0.67782 0.27702 0.66956
 H224 H 0.65575 0.05997 0.68279
 C225 C 0.65253 0.67664 0.17685
 C226 C 0.67733 0.65163 0.14541
 N227 N 0.72282 0.65582 0.14294
 C228 C 0.74459 0.68356 0.17081
 C229 C 0.71977 0.70819 0.20248
 N230 N 0.67427 0.70422 0.20462
 N231 N 0.60732 0.67178 0.18054
 C232 C 0.58573 0.64260 0.15476
 C233 C 0.61039 0.61696 0.12382
 N234 N 0.65574 0.62236 0.11952
 H235 H 0.78092 0.68590 0.16885
 H236 H 0.54966 0.63904 0.15894
 C237 C 0.81268 -0.18741 0.14650
 C238 C 0.84595 -0.16699 0.17274
 N239 N 0.85015 -0.17524 0.21933
 C240 C 0.82239 -0.20278 0.24097
 C241 C 0.78919 -0.22318 0.21481
 N242 N 0.78506 -0.21506 0.16809
 N243 N 0.80739 -0.17803 0.10032
 C244 C 0.83347 -0.14878 0.07929
 C245 C 0.86645 -0.12799 0.10557
 N246 N 0.87211 -0.13790 0.15170
 H247 H 0.82581 -0.20827 0.27836
 H248 H 0.82812 -0.14147 0.04257
 C249 C 0.84721 0.34164 0.69355
 C250 C 0.83886 0.34536 0.64519
 N251 N 0.80544 0.32279 0.62537
 C252 C 0.77955 0.29693 0.65182
 C253 C 0.78686 0.29405 0.70048
 N254 N 0.82085 0.31634 0.72014
 N255 N 0.88133 0.36361 0.71310
 C256 C 0.90720 0.38950 0.68652
 C257 C 0.89808 0.39413 0.63831
 N258 N 0.86409 0.37171 0.61889
 H259 H 0.75365 0.27902 0.63484
 H260 H 0.93383 0.40699 0.70307
 C261 C 0.32803 -0.19131 0.65932
 C262 C 0.36083 -0.17045 0.68588
 N263 N 0.36014 -0.17351 0.73346
 C264 C 0.32784 -0.19599 0.75574
 C265 C 0.29451 -0.21609 0.72936
 N266 N 0.29555 -0.21362 0.68161
 N267 N 0.32813 -0.18749 0.61180
 C268 C 0.35881 -0.16301 0.58971
 C269 C 0.39072 -0.14104 0.61630
 N270 N 0.39129 -0.14572 0.66386
 H271 H 0.32801 -0.19782 0.79374
 H272 H 0.35737 -0.15967 0.55183
 C273 C 0.30930 0.31561 0.15774
 C274 C 0.34454 0.33384 0.18330
 N275 N 0.35189 0.32209 0.22842
 C276 C 0.32543 0.29306 0.24923
 C277 C 0.29023 0.27497 0.22373
 N278 N 0.28297 0.28658 0.17850
 N279 N 0.30128 0.32799 0.11301
 C280 C 0.32661 0.35811 0.09274
 C281 C 0.36158 0.37669 0.11836
 N282 N 0.36993 0.36387 0.16303
 H283 H 0.33158 0.28442 0.28543
 H284 H 0.31923 0.36768 0.05710
 C285 C 0.81164 0.19159 -0.15939
 C286 C 0.84660 0.17109 -0.18362
 N287 N 0.85277 0.17811 -0.23033
 C288 C 0.82544 0.20464 -0.25396
 C289 C 0.79063 0.22521 -0.22974
 N290 N 0.78454 0.21826 -0.18293
 N291 N 0.80464 0.18369 -0.11302
 C292 C 0.83076 0.15588 -0.08980
 C293 C 0.86563 0.13515 -0.11398
 N294 N 0.87285 0.14349 -0.16038
 H295 H 0.83072 0.20952 -0.29128
 H296 H 0.82413 0.14977 -0.05294
 C297 C 0.84543 0.67315 0.30558
 C298 C 0.82356 0.65486 0.34429
 N299 N 0.77965 0.66420 0.35321
 C300 C 0.75664 0.69089 0.32506
 C301 C 0.77862 0.70922 0.28652
 N302 N 0.82251 0.69977 0.27767
 N303 N 0.88885 0.66312 0.29572
 C304 C 0.91144 0.63532 0.32257
 C305 C 0.88970 0.61665 0.36120
 N306 N 0.84618 0.62710 0.37133
 H307 H 0.72149 0.69734 0.33236
 H308 H 0.94599 0.62769 0.31363
 C309 C 0.31580 0.16715 0.35040
 C310 C 0.35036 0.14782 0.32424
 N311 N 0.35396 0.15499 0.27736
 C312 C 0.32460 0.18068 0.25541
 C313 C 0.29029 0.20021 0.28150
 N314 N 0.28667 0.19316 0.32853
 N315 N 0.31180 0.15936 0.39714
 C316 C 0.34056 0.13285 0.41885
 C317 C 0.37511 0.11347 0.39272
 N318 N 0.37926 0.12160 0.34596
 H319 H 0.32853 0.18630 0.21808
 H320 H 0.33633 0.12678 0.45609
 C321 C 0.34202 0.67994 -0.18268
 C322 C 0.31933 0.66192 -0.14435
 N323 N 0.27572 0.67221 -0.13541
 C324 C 0.25375 0.69977 -0.16321
 C325 C 0.27658 0.71786 -0.20129
 N326 N 0.32019 0.70755 -0.21012
 N327 N 0.38530 0.66911 -0.19225
 C328 C 0.40692 0.64070 -0.16536
 C329 C 0.38425 0.62253 -0.12709
 N330 N 0.34098 0.63375 -0.11736
 H331 H 0.21905 0.70767 -0.15545
 H332 H 0.44132 0.63223 -0.17395
 C333 C 1.15303 -0.16550 -0.19183
 C334 C 1.17080 -0.15091 -0.14923
 N335 N 1.21161 -0.16459 -0.13462
 C336 C 1.23560 -0.19224 -0.16082
 C337 C 1.21789 -0.20678 -0.20339
 N338 N 1.17695 -0.19312 -0.21794
 N339 N 1.11229 -0.15162 -0.20651
 C340 C 1.08855 -0.12356 -0.18056
 C341 C 1.10642 -0.10878 -0.13805
 N342 N 1.14714 -0.12297 -0.12339
 H343 H 1.26792 -0.20294 -0.14831
 H344 H 1.05624 -0.11279 -0.19313
 C345 C 1.19909 0.33394 0.32417
 C346 C 1.15961 0.31804 0.34470
 N347 N 1.15028 0.27701 0.34013
 C348 C 1.17825 0.25141 0.31520
 C349 C 1.21663 0.26783 0.29301
 N350 N 1.22616 0.30868 0.29843
 N351 N 1.20944 0.37452 0.32961
 C352 C 1.18190 0.40017 0.35451
 C353 C 1.14170 0.38481 0.37389
 N354 N 1.13138 0.34393 0.36873
 H355 H 1.16999 0.21894 0.31181
 H356 H 1.19088 0.43247 0.35848
 C357 C 0.68479 -0.18511 0.34189
 C358 C 0.65274 -0.16334 0.31531
 N359 N 0.64870 -0.17165 0.26865
 C360 C 0.67546 -0.20048 0.24735
 C361 C 0.70750 -0.22215 0.27389
 N362 N 0.71143 -0.21392 0.32063
 N363 N 0.69001 -0.17592 0.38812
 C364 C 0.66505 -0.14561 0.40894
 C365 C 0.63328 -0.12337 0.38241
 N366 N 0.62761 -0.13305 0.33613
 H367 H 0.67233 -0.20588 0.20990
 H368 H 0.67031 -0.13868 0.44580
 C369 C 0.65133 0.31810 -0.18894
 C370 C 0.67422 0.34087 -0.15440
 N371 N 0.71989 0.33892 -0.15253
 C372 C 0.74369 0.31529 -0.18371
 C373 C 0.72081 0.29244 -0.21811
 N374 N 0.67507 0.29430 -0.21982
 N375 N 0.60581 0.32090 -0.19174
 C376 C 0.58210 0.34578 -0.16185
 C377 C 0.60484 0.36877 -0.12734
 N378 N 0.65051 0.36555 -0.12430
 H379 H 0.78007 0.31429 -0.18164
 H380 H 0.54587 0.34789 -0.16529
 C381 C 1.15229 0.18744 -0.18136
 C382 C 1.17692 0.16199 -0.15068
 N383 N 1.22266 0.16300 -0.15216
 C384 C 1.24479 0.18808 -0.18306
 C385 C 1.22012 0.21318 -0.21396
 N386 N 1.17438 0.21233 -0.21221
 N387 N 1.10668 0.18602 -0.18076
 C388 C 1.08445 0.15979 -0.15147
 C389 C 1.10881 0.13359 -0.12132
 N390 N 1.15469 0.13557 -0.12135
 H391 H 1.28125 0.18824 -0.18372
 H392 H 1.04801 0.15881 -0.15241
 C393 C 1.15704 0.68309 0.29373
 C394 C 1.17496 0.67224 0.33768
 N395 N 1.21362 0.69006 0.35244
 C396 C 1.23546 0.71817 0.32526
 C397 C 1.21784 0.72935 0.28114
 N398 N 1.17902 0.71119 0.26620
 N399 N 1.11869 0.66439 0.27887
 C400 C 1.09771 0.63523 0.30582
 C401 C 1.11606 0.62399 0.34957
 N402 N 1.15423 0.64307 0.36436
 H403 H 1.26695 0.73074 0.33777
 H404 H 1.06739 0.62064 0.29297
 C405 C 0.65254 0.19219 0.32963
 C406 C 0.67712 0.17163 0.36477
 N407 N 0.72180 0.17919 0.36922
 C408 C 0.74318 0.20591 0.33976
 C409 C 0.71887 0.22613 0.30428
 N410 N 0.67397 0.21881 0.30002
 N411 N 0.60826 0.18335 0.32398
 C412 C 0.58762 0.15436 0.35121
 C413 C 0.61238 0.13295 0.38559
 N414 N 0.65656 0.14253 0.39187
 H415 H 0.77917 0.21024 0.34304
 H416 H 0.55246 0.14739 0.34529
 C417 C 0.65752 0.66448 -0.18319
 C418 C 0.67918 0.64663 -0.14429
 N419 N 0.72234 0.65743 -0.13463
 C420 C 0.74473 0.68520 -0.16212
 C421 C 0.72300 0.70298 -0.20095
 N422 N 0.67986 0.69211 -0.21053
 N423 N 0.61454 0.65380 -0.19318
 C424 C 0.59217 0.62582 -0.16627
 C425 C 0.61369 0.60751 -0.12746
 N426 N 0.65683 0.61851 -0.11724
 H427 H 0.77896 0.69355 -0.15349
 H428 H 0.55792 0.61781 -0.17535
 C429 C 0.84078 -0.17671 -0.18576
 C430 C 0.81725 -0.15863 -0.14784
 N431 N 0.77487 -0.17159 -0.13743
 C432 C 0.75488 -0.20171 -0.16342
 C433 C 0.77844 -0.21970 -0.20126
 N434 N 0.82087 -0.20679 -0.21155
 N435 N 0.88277 -0.16331 -0.19682
 C436 C 0.90231 -0.13237 -0.17184
 C437 C 0.87881 -0.11403 -0.13401
 N438 N 0.83680 -0.12780 -0.12276
 H439 H 0.72094 -0.21136 -0.15477
 H440 H 0.93579 -0.12212 -0.18157
 C441 C 0.82439 0.31931 0.35266
 C442 C 0.85857 0.33727 0.32503
 N443 N 0.86008 0.32953 0.27806
 C444 C 0.82872 0.30495 0.25743
 C445 C 0.79425 0.28746 0.28497
 N446 N 0.79306 0.29495 0.33203
 N447 N 0.82226 0.32750 0.39943
 C448 C 0.85231 0.35348 0.41978
 C449 C 0.88594 0.37232 0.39211
 N450 N 0.88854 0.36343 0.34530
 H451 H 0.83078 0.29920 0.21999
 H452 H 0.84931 0.36009 0.45706
 C453 C 0.35083 -0.17711 0.30499
 C454 C 0.32773 -0.15377 0.33938
 N455 N 0.28227 -0.15617 0.34256
 C456 C 0.25872 -0.18107 0.31317
 C457 C 0.28161 -0.20536 0.27950
 N458 N 0.32734 -0.20275 0.27598
 N459 N 0.39628 -0.17332 0.30100
 C460 C 0.41954 -0.14724 0.32969
 C461 C 0.39644 -0.12434 0.36450
 N462 N 0.35099 -0.12833 0.36843
 H463 H 0.22238 -0.18230 0.31661
 H464 H 0.45569 -0.14452 0.32551
 C465 C 0.30208 0.32368 -0.16000
 C466 C 0.34445 0.33410 -0.17873
 N467 N 0.35807 0.31709 -0.22023
 C468 C 0.33113 0.29025 -0.24395
 C469 C 0.28865 0.28008 -0.22537
 N470 N 0.27512 0.29715 -0.18381
 N471 N 0.28820 0.34084 -0.11875
 C472 C 0.31461 0.36828 -0.09545
 C473 C 0.35680 0.37935 -0.11438
 N474 N 0.37079 0.36175 -0.15562
 H475 H 0.34247 0.27764 -0.27731
 H476 H 0.30250 0.38168 -0.06277
 C477 C 1.15094 -0.17862 0.17746
 C478 C 1.17483 -0.15390 0.14510
 N479 N 1.22044 -0.15566 0.14392
 C480 C 1.24331 -0.18090 0.17362
 C481 C 1.21958 -0.20562 0.20604
 N482 N 1.17379 -0.20403 0.20715
 N483 N 1.10535 -0.17618 0.17921
 C484 C 1.08260 -0.14981 0.15059
 C485 C 1.10642 -0.12466 0.11858
 N486 N 1.15212 -0.12756 0.11644
 H487 H 1.27977 -0.18168 0.17182
 H488 H 1.04626 -0.14802 0.15333
 C489 C 1.18649 0.32290 0.64839
 C490 C 1.15521 0.34469 0.67646
 N491 N 1.15116 0.33500 0.72280
 C492 C 1.17710 0.30481 0.74233
 C493 C 1.20842 0.28300 0.71436
 N494 N 1.21245 0.29277 0.66793
 N495 N 1.19165 0.33332 0.60246
 C496 C 1.16739 0.36476 0.58335
 C497 C 1.13637 0.38712 0.61133
 N498 N 1.13079 0.37625 0.65738
 H499 H 1.17402 0.29858 0.77963
 H500 H 1.17264 0.37248 0.54666
 C501 C 0.69519 -0.18744 0.65837
 C502 C 0.65434 -0.17469 0.67911
 N503 N 0.64240 -0.18964 0.72199
 C504 C 0.66958 -0.21647 0.74535
 C505 C 0.71060 -0.22921 0.72496
 N506 N 0.72256 -0.21418 0.68185
 N507 N 0.70765 -0.17143 0.61606
 C508 C 0.68140 -0.14298 0.59379
 C509 C 0.64081 -0.12962 0.61485
 N510 N 0.62821 -0.14618 0.65700
 H511 H 0.65984 -0.22666 0.78021
 H512 H 0.69244 -0.13049 0.56032
 C513 C 0.64764 0.32140 0.19914
 C514 C 0.66770 0.33657 0.15764
 N515 N 0.71110 0.32688 0.14744
 C516 C 0.73556 0.30291 0.17700
 C517 C 0.71584 0.28797 0.21868
 N518 N 0.67211 0.29731 0.22879
 N519 N 0.60428 0.33162 0.20937
 C520 C 0.58027 0.35666 0.18026
 C521 C 0.60056 0.37223 0.13903
 N522 N 0.64380 0.36153 0.12868
 H523 H 0.76997 0.29530 0.16770
 H524 H 0.54594 0.36475 0.18955
 C525 C 0.84021 0.18144 0.19222
 C526 C 0.81359 0.15855 0.16079
 N527 N 0.76834 0.16452 0.16018
 C528 C 0.74854 0.19252 0.18950
 C529 C 0.77527 0.21573 0.22029
 N530 N 0.82049 0.20968 0.22103
 N531 N 0.88526 0.17475 0.19380
 C532 C 0.90494 0.14589 0.16557
 C533 C 0.87842 0.12305 0.13406
 N534 N 0.83331 0.13004 0.13223
 H535 H 0.71240 0.19697 0.18841
 H536 H 0.94092 0.14074 0.16782
 C537 C 0.82257 0.68233 0.65663
 C538 C 0.86001 0.66609 0.68053
 N539 N 0.86505 0.67429 0.72705
 C540 C 0.83416 0.69754 0.75089
 C541 C 0.79641 0.71333 0.72728
 N542 N 0.79159 0.70551 0.68049
 N543 N 0.81696 0.67331 0.61039
 C544 C 0.84661 0.64831 0.58711
 C545 C 0.88364 0.63129 0.61110
 N546 N 0.88962 0.64097 0.65733
 H547 H 0.83881 0.70322 0.78808
 H548 H 0.84081 0.64116 0.55041
 C549 C 0.34148 0.16417 0.69213
 C550 C 0.32550 0.15307 0.64747
 N551 N 0.28748 0.17146 0.63095
 C552 C 0.26471 0.20027 0.65714
 C553 C 0.28055 0.21110 0.70198
 N554 N 0.31853 0.19251 0.71834
 N555 N 0.37928 0.14599 0.70897
 C556 C 0.40190 0.11697 0.68333
 C557 C 0.38588 0.10513 0.63878
 N558 N 0.34789 0.12367 0.62181
 H559 H 0.23409 0.21376 0.64352
 H560 H 0.43188 0.10299 0.69792
 C561 C 0.34500 0.69029 0.18438
 C562 C 0.32108 0.67034 0.14828
 N563 N 0.27700 0.67938 0.14177
 C564 C 0.25554 0.70731 0.16980
 C565 C 0.27926 0.72747 0.20587
 N566 N 0.32362 0.71851 0.21239
 N567 N 0.38879 0.68007 0.19167
 C568 C 0.40953 0.65055 0.16492
 C569 C 0.38547 0.63034 0.12908
 N570 N 0.34181 0.64104 0.12150
 H571 H 0.22011 0.71341 0.16407
 H572 H 0.44430 0.64261 0.17191
   
