data_POSCAR
  _audit_creation_date              2014-09-24
  _audit_creation_method            'ToBaCCo'
  _symmetry_space_group_name_H-M    'P1'
  _symmetry_Int_Tables_number       1
  _symmetry_cell_setting            triclinic
  loop_
  _symmetry_equiv_pos_as_xyz
 x,y,z
_cell_length_a 48.3685
_cell_length_b 49.9368
_cell_length_c 39.3200
_cell_angle_alpha 90.588300
_cell_angle_beta 89.715800
_cell_angle_gamma 89.901400
loop_
  _atom_site_label
  _atom_site_type_symbol
  _atom_site_fract_x
  _atom_site_fract_y
  _atom_site_fract_z
C1 C 0.27312 0.27916 0.23130
 C2 C 0.25218 0.26506 0.24813
 C3 C 0.23103 0.27911 0.26510
 C4 C 0.23087 0.30723 0.26581
 C5 C 0.25175 0.32111 0.24840
 C6 C 0.27284 0.30728 0.23084
 C7 C 0.25232 0.23555 0.24792
 C8 C 0.27398 0.22157 0.26329
 C9 C 0.27400 0.19344 0.26380
 C10 C 0.25234 0.17946 0.24787
 C11 C 0.23067 0.19326 0.23197
 C12 C 0.23068 0.22139 0.23251
 H13 H 0.28911 0.26815 0.21769
 H14 H 0.21519 0.26806 0.27856
 H15 H 0.29069 0.23267 0.27504
 H16 H 0.21390 0.23235 0.22088
 H17 H 0.25157 0.34281 0.24850
 H18 H 0.25233 0.15778 0.24789
 C19 C 0.77325 0.77889 0.23582
 C20 C 0.75143 0.76512 0.25122
 C21 C 0.73001 0.77936 0.26722
 C22 C 0.73018 0.80760 0.26865
 C23 C 0.75214 0.82105 0.25223
 C24 C 0.77390 0.80711 0.23563
 C25 C 0.75141 0.73558 0.25138
 C26 C 0.77300 0.72163 0.26699
 C27 C 0.77318 0.69351 0.26732
 C28 C 0.75170 0.67949 0.25110
 C29 C 0.73012 0.69321 0.23492
 C30 C 0.72996 0.72135 0.23563
 H31 H 0.78995 0.76722 0.22479
 H32 H 0.71421 0.76800 0.28021
 H33 H 0.78961 0.73275 0.27893
 H34 H 0.71365 0.73227 0.22300
 H35 H 0.75104 0.84254 0.24994
 H36 H 0.75141 0.65782 0.25177
 C37 C 0.77183 0.27611 0.73433
 C38 C 0.75003 0.26275 0.75034
 C39 C 0.72879 0.27747 0.76620
 C40 C 0.72919 0.30578 0.76686
 C41 C 0.75120 0.31873 0.74988
 C42 C 0.77244 0.30415 0.73363
 C43 C 0.74972 0.23323 0.75109
 C44 C 0.77119 0.21928 0.76694
 C45 C 0.77144 0.19100 0.76786
 C46 C 0.74964 0.17722 0.75147
 C47 C 0.72821 0.19102 0.73509
 C48 C 0.72823 0.21909 0.73547
 H49 H 0.78826 0.26459 0.72234
 H50 H 0.71298 0.26644 0.77962
 H51 H 0.78796 0.23085 0.77770
 H52 H 0.71203 0.23003 0.72267
 H53 H 0.75133 0.34028 0.74752
 H54 H 0.74820 0.15565 0.75276
 C55 C 0.27033 0.77807 0.73179
 C56 C 0.24927 0.76343 0.74764
 C57 C 0.22701 0.77686 0.76300
 C58 C 0.22578 0.80489 0.76316
 C59 C 0.24683 0.81938 0.74691
 C60 C 0.26931 0.80634 0.73056
 C61 C 0.25030 0.73390 0.74770
 C62 C 0.27254 0.72063 0.76288
 C63 C 0.27346 0.69251 0.76358
 C64 C 0.25210 0.67784 0.74804
 C65 C 0.22988 0.69090 0.73230
 C66 C 0.22901 0.71902 0.73264
 H67 H 0.28652 0.76695 0.71885
 H68 H 0.21072 0.76539 0.77502
 H69 H 0.28899 0.73226 0.77436
 H70 H 0.21217 0.72943 0.72037
 H71 H 0.24622 0.84099 0.74883
 H72 H 0.25235 0.65617 0.74905
 C73 C 0.03720 0.04145 0.01287
 H74 H 0.03658 0.04288 -0.01455
 C75 C 0.05460 0.05823 0.03156
 H76 H 0.06716 0.07275 0.01830
 C77 C 0.02111 0.02101 0.06335
 H78 H 0.00792 0.00660 0.07567
 C79 C 0.03821 0.03744 0.08305
 H80 H 0.03833 0.03510 0.11040
 N81 N 0.02132 0.02295 0.02886
 C82 C 0.01005 -0.04066 -0.04675
 H83 H -0.01226 -0.04206 -0.04751
 C84 C 0.02621 -0.05759 -0.06726
 H85 H 0.01616 -0.07179 -0.08410
 C86 C 0.05019 -0.02025 -0.02401
 H87 H 0.05955 -0.00606 -0.00670
 C88 C 0.06710 -0.03673 -0.04407
 H89 H 0.08933 -0.03497 -0.04190
 Zn90 Zn -0.00069 0.00041 0.00103
 N91 N 0.02220 -0.02216 -0.02608
 C92 C -0.02210 0.02071 -0.06111
 N93 N -0.02255 0.02288 -0.02659
 C94 C -0.03845 0.04162 -0.01051
 C95 C -0.05559 0.05846 -0.02914
 C96 C -0.03892 0.03717 -0.08076
 C97 C -0.01158 -0.04018 0.04827
 C98 C -0.02779 -0.05691 0.06849
 C99 C -0.06862 -0.03596 0.04559
 C100 C -0.05166 -0.01970 0.02582
 N101 N -0.02368 -0.02176 0.02787
 H102 H -0.00889 0.00612 -0.07351
 H103 H -0.03802 0.04325 0.01695
 H104 H -0.06816 0.07319 -0.01582
 H105 H -0.03883 0.03466 -0.10814
 H106 H 0.01072 -0.04172 0.04901
 H107 H -0.01778 -0.07106 0.08510
 H108 H -0.09084 -0.03409 0.04343
 H109 H -0.06097 -0.00556 0.00872
 C110 C 0.05516 -0.05557 -0.06627
 C111 C 0.05550 0.05615 0.06713
 C112 C -0.05673 -0.05475 0.06749
 C113 C -0.05619 0.05617 -0.06476
 C114 C 0.03585 0.54068 0.51491
 H115 H 0.03635 0.54215 0.48748
 C116 C 0.05247 0.55745 0.53468
 H117 H 0.06599 0.57158 0.52220
 C118 C 0.01805 0.51989 0.56427
 H119 H 0.00438 0.50546 0.57574
 C120 C 0.03435 0.53626 0.58504
 H121 H 0.03303 0.53422 0.61238
 N122 N 0.01950 0.52201 0.52984
 C123 C 0.01135 0.45900 0.45281
 H124 H -0.01090 0.45749 0.45083
 C125 C 0.02831 0.44239 0.43287
 H126 H 0.01895 0.42833 0.41525
 C127 C 0.05051 0.47937 0.47804
 H128 H 0.05916 0.49341 0.49610
 C129 C 0.06821 0.46321 0.45862
 H130 H 0.09033 0.46508 0.46201
 Zn131 Zn -0.00134 0.49947 0.50067
 N132 N 0.02264 0.47734 0.47443
 C133 C -0.02057 0.52027 0.43778
 N134 N -0.02251 0.52193 0.47227
 C135 C -0.03933 0.54024 0.48773
 C136 C -0.05579 0.55722 0.46839
 C137 C -0.03669 0.53686 0.41745
 C138 C -0.01301 0.45848 0.54691
 C139 C -0.02948 0.44144 0.56635
 C140 C -0.06999 0.46186 0.54188
 C141 C -0.05276 0.47847 0.52293
 N142 N -0.02482 0.47682 0.52616
 H143 H -0.00653 0.50613 0.42592
 H144 H -0.04019 0.54137 0.51521
 H145 H -0.06959 0.57114 0.48124
 H146 H -0.03486 0.53527 0.39005
 H147 H 0.00928 0.45730 0.54859
 H148 H -0.01970 0.42740 0.58332
 H149 H -0.09216 0.46342 0.53883
 H150 H -0.06180 0.49255 0.50555
 C151 C 0.05718 0.44457 0.43544
 C152 C 0.05209 0.55516 0.57025
 C153 C -0.05841 0.44318 0.56417
 C154 C -0.05477 0.55551 0.43273
 C155 C 0.53537 0.04147 0.51500
 H156 H 0.53603 0.04279 0.48756
 C157 C 0.55183 0.05838 0.53479
 H158 H 0.56542 0.07246 0.52230
 C159 C 0.51724 0.02098 0.56438
 H160 H 0.50348 0.00663 0.57586
 C161 C 0.53337 0.03750 0.58516
 H162 H 0.53182 0.03565 0.61252
 N163 N 0.51891 0.02289 0.52995
 C164 C 0.51056 -0.04039 0.45319
 H165 H 0.48831 -0.04188 0.45129
 C166 C 0.52747 -0.05709 0.43329
 H167 H 0.51805 -0.07119 0.41576
 C168 C 0.54981 -0.01999 0.47819
 H169 H 0.55851 -0.00590 0.49615
 C170 C 0.56744 -0.03624 0.45880
 H171 H 0.58957 -0.03438 0.46210
 Zn172 Zn 0.49804 0.00030 0.50085
 N173 N 0.52193 -0.02199 0.47468
 C174 C 0.47833 0.02081 0.43791
 N175 N 0.47688 0.02275 0.47241
 C176 C 0.46038 0.04127 0.48800
 C177 C 0.44364 0.05809 0.46881
 C178 C 0.46194 0.03727 0.41771
 C179 C 0.48597 -0.04044 0.54749
 C180 C 0.46926 -0.05716 0.56708
 C181 C 0.42904 -0.03656 0.54218
 C182 C 0.44649 -0.02028 0.52308
 N183 N 0.47440 -0.02214 0.52646
 H184 H 0.49200 0.00640 0.42595
 H185 H 0.46001 0.04271 0.51547
 H186 H 0.43059 0.07263 0.48174
 H187 H 0.46283 0.03495 0.39032
 H188 H 0.50824 -0.04181 0.54929
 H189 H 0.47884 -0.07116 0.58427
 H190 H 0.40689 -0.03481 0.53901
 H191 H 0.43762 -0.00625 0.50549
 C192 C 0.55634 -0.05494 0.43575
 C193 C 0.55117 0.05635 0.57038
 C194 C 0.44036 -0.05515 0.56479
 C195 C 0.44406 0.05602 0.43316
 C196 C 0.53830 0.54332 0.01349
 H197 H 0.53889 0.54470 -0.01394
 C198 C 0.55483 0.56017 0.03328
 H199 H 0.56839 0.57427 0.02080
 C200 C 0.52025 0.52276 0.06288
 H201 H 0.50649 0.50842 0.07436
 C202 C 0.53645 0.53922 0.08365
 H203 H 0.53495 0.53733 0.11100
 N204 N 0.52184 0.52475 0.02844
 C205 C 0.51265 0.46161 -0.04833
 H206 H 0.49037 0.46024 -0.04991
 C207 C 0.52926 0.44473 -0.06834
 H208 H 0.51960 0.43061 -0.08563
 C209 C 0.55225 0.48186 -0.02397
 H210 H 0.56119 0.49597 -0.00621
 C211 C 0.56960 0.46543 -0.04349
 H212 H 0.59177 0.46714 -0.04048
 Zn213 Zn 0.50072 0.50232 -0.00058
 N214 N 0.52432 0.48000 -0.02708
 C215 C 0.48065 0.52299 -0.06323
 N216 N 0.47944 0.52490 -0.02871
 C217 C 0.46307 0.54342 -0.01293
 C218 C 0.44623 0.56029 -0.03192
 C219 C 0.46414 0.53949 -0.08323
 C220 C 0.48890 0.46138 0.04581
 C221 C 0.47231 0.44449 0.06532
 C222 C 0.43193 0.46531 0.04107
 C223 C 0.44926 0.48175 0.02204
 N224 N 0.47719 0.47984 0.02512
 H225 H 0.49422 0.50857 -0.07536
 H226 H 0.46289 0.54483 0.01455
 H227 H 0.43328 0.57483 -0.01883
 H228 H 0.46482 0.53718 -0.11063
 H229 H 0.51118 0.45999 0.04737
 H230 H 0.48199 0.43033 0.08221
 H231 H 0.40976 0.46707 0.03811
 H232 H 0.44030 0.49592 0.00471
 C233 C 0.55817 0.44667 -0.06624
 C234 C 0.55423 0.55809 0.06887
 C235 C 0.44339 0.44651 0.06329
 C236 C 0.44638 0.55825 -0.06757
 C237 C 0.16171 -0.15204 -0.18331
 C238 C 0.17337 -0.17498 -0.16906
 C239 C 0.19383 -0.18931 -0.18674
 C240 C 0.20296 -0.18080 -0.21889
 C241 C 0.19075 -0.15798 -0.23325
 C242 C 0.17029 -0.14370 -0.21554
 C243 C 0.14194 -0.13633 -0.16423
 C244 C 0.12595 -0.12270 -0.14800
 C245 C 0.10758 -0.10586 -0.12835
 C246 C 0.08389 -0.11655 -0.11310
 C247 C 0.06661 -0.10018 -0.09317
 C248 C 0.07292 -0.07292 -0.08818
 C249 C 0.09663 -0.06235 -0.10394
 C250 C 0.11382 -0.07872 -0.12385
 H251 H 0.16700 -0.18152 -0.14403
 H252 H 0.20306 -0.20660 -0.17484
 H253 H 0.19711 -0.15114 -0.25814
 H254 H 0.16142 -0.12595 -0.22680
 H255 H 0.07892 -0.13757 -0.11632
 H256 H 0.04867 -0.10896 -0.08109
 H257 H 0.10181 -0.04137 -0.10101
 H258 H 0.13208 -0.07023 -0.13559
 C259 C 0.16848 0.35086 0.32163
 C260 C 0.19611 0.35903 0.32286
 C261 C 0.21636 0.34480 0.30478
 C262 C 0.20924 0.32217 0.28513
 C263 C 0.18142 0.31399 0.28416
 C264 C 0.16116 0.32830 0.30229
 C265 C 0.14782 0.36588 0.34016
 C266 C 0.13114 0.37905 0.35594
 C267 C 0.11201 0.39545 0.37505
 C268 C 0.11790 0.42257 0.38049
 C269 C 0.09994 0.43855 0.39986
 C270 C 0.07579 0.42762 0.41413
 C271 C 0.06985 0.40038 0.40821
 C272 C 0.08790 0.38440 0.38882
 H273 H 0.20202 0.37641 0.33784
 H274 H 0.23764 0.35134 0.30647
 H275 H 0.17528 0.29680 0.26901
 H276 H 0.13981 0.32184 0.30111
 H277 H 0.13648 0.43134 0.36989
 H278 H 0.10488 0.45952 0.40351
 H279 H 0.05158 0.39133 0.41914
 H280 H 0.08320 0.36340 0.38486
 C281 C 0.66760 -0.14877 0.32200
 C282 C 0.66186 -0.17422 0.30878
 C283 C 0.68232 -0.18864 0.29115
 C284 C 0.70909 -0.17782 0.28624
 C285 C 0.71432 -0.15198 0.29989
 C286 C 0.69383 -0.13773 0.31749
 C287 C 0.64683 -0.13386 0.34049
 C288 C 0.63012 -0.12071 0.35624
 C289 C 0.61101 -0.10425 0.37534
 C290 C 0.58692 -0.11526 0.38924
 C291 C 0.56892 -0.09921 0.40862
 C292 C 0.57490 -0.07197 0.41443
 C293 C 0.59903 -0.06109 0.40003
 C294 C 0.61693 -0.07713 0.38066
 H295 H 0.64151 -0.18290 0.31195
 H296 H 0.67655 -0.20783 0.28040
 H297 H 0.73459 -0.14294 0.29847
 H298 H 0.69859 -0.11812 0.32794
 H299 H 0.58219 -0.13626 0.38537
 H300 H 0.55066 -0.10822 0.41965
 H301 H 0.60398 -0.04011 0.40359
 H302 H 0.63549 -0.06839 0.36997
 C303 C 0.66754 0.35080 -0.18004
 C304 C 0.66148 0.32516 -0.19236
 C305 C 0.68163 0.31029 -0.20993
 C306 C 0.70840 0.32084 -0.21566
 C307 C 0.71395 0.34691 -0.20294
 C308 C 0.69377 0.36161 -0.18540
 C309 C 0.64711 0.36615 -0.16154
 C310 C 0.63068 0.37963 -0.14577
 C311 C 0.61190 0.39642 -0.12666
 C312 C 0.58780 0.38576 -0.11237
 C313 C 0.57012 0.40212 -0.09297
 C314 C 0.57641 0.42934 -0.08756
 C315 C 0.60055 0.43988 -0.10234
 C316 C 0.61814 0.42352 -0.12173
 H317 H 0.64112 0.31666 -0.18853
 H318 H 0.67561 0.29094 -0.21997
 H319 H 0.73424 0.35582 -0.20499
 H320 H 0.69877 0.38138 -0.17564
 H321 H 0.58283 0.36477 -0.11594
 H322 H 0.55185 0.39336 -0.08163
 H323 H 0.60575 0.46082 -0.09908
 H324 H 0.63671 0.43200 -0.13273
 C325 C -0.16641 0.14803 -0.17911
 C326 C -0.17258 0.17446 -0.16991
 C327 C -0.19270 0.18876 -0.18757
 C328 C -0.20732 0.17683 -0.21491
 C329 C -0.20039 0.15015 -0.22408
 C330 C -0.18021 0.13599 -0.20635
 C331 C -0.14657 0.13297 -0.15996
 C332 C -0.13034 0.12012 -0.14359
 C333 C -0.11147 0.10451 -0.12369
 C334 C -0.12016 0.09404 -0.09256
 C335 C -0.10213 0.07848 -0.07333
 C336 C -0.07511 0.07315 -0.08500
 C337 C -0.06651 0.08385 -0.11629
 C338 C -0.08460 0.09944 -0.13549
 H339 H -0.16216 0.18391 -0.14861
 H340 H -0.19755 0.20869 -0.17836
 H341 H -0.20978 0.14018 -0.24564
 H342 H -0.17542 0.11556 -0.21388
 H343 H -0.14095 0.09774 -0.08325
 H344 H -0.10952 0.07021 -0.04962
 H345 H -0.04575 0.08037 -0.12577
 H346 H -0.07765 0.10748 -0.15954
 C347 C -0.16382 0.64964 0.31984
 C348 C -0.17296 0.64081 0.28794
 C349 C -0.19318 0.65525 0.27062
 C350 C -0.20455 0.67873 0.28504
 C351 C -0.19496 0.68764 0.31693
 C352 C -0.17475 0.67315 0.33421
 C353 C -0.14388 0.63415 0.33829
 C354 C -0.12753 0.62092 0.35398
 C355 C -0.10845 0.60486 0.37300
 C356 C -0.10358 0.57821 0.36340
 C357 C -0.08585 0.56225 0.38256
 C358 C -0.07279 0.57276 0.41168
 C359 C -0.07761 0.59968 0.42090
 C360 C -0.09533 0.61560 0.40168
 H361 H -0.16462 0.62264 0.27658
 H362 H -0.19988 0.64808 0.24592
 H363 H -0.20356 0.70544 0.32888
 H364 H -0.16792 0.68010 0.35897
 H365 H -0.11374 0.56965 0.34133
 H366 H -0.08288 0.54152 0.37506
 H367 H -0.06759 0.60845 0.44291
 H368 H -0.09895 0.63623 0.40932
 C369 C 0.33645 0.14948 0.31717
 C370 C 0.32565 0.17317 0.33118
 C371 C 0.30568 0.18770 0.31356
 C372 C 0.29619 0.17867 0.28168
 C373 C 0.30748 0.15503 0.26758
 C374 C 0.32747 0.14053 0.28524
 C375 C 0.35593 0.13386 0.33617
 C376 C 0.37179 0.12063 0.35259
 C377 C 0.39014 0.10465 0.37276
 C378 C 0.38066 0.09376 0.40330
 C379 C 0.39822 0.07805 0.42296
 C380 C 0.42558 0.07299 0.41233
 C381 C 0.43495 0.08405 0.38157
 C382 C 0.41732 0.09980 0.36193
 H383 H 0.33234 0.18019 0.35596
 H384 H 0.29713 0.20562 0.32529
 H385 H 0.30085 0.14776 0.24290
 H386 H 0.33570 0.12221 0.27416
 H387 H 0.35963 0.09730 0.41185
 H388 H 0.39025 0.06949 0.44621
 H389 H 0.45597 0.08077 0.37290
 H390 H 0.42488 0.10817 0.33835
 C391 C 0.33726 0.65035 -0.18314
 C392 C 0.32605 0.67393 -0.16933
 C393 C 0.30566 0.68792 -0.18694
 C394 C 0.29617 0.67844 -0.21861
 C395 C 0.30789 0.65494 -0.23254
 C396 C 0.32830 0.64099 -0.21488
 C397 C 0.35709 0.63520 -0.16408
 C398 C 0.37321 0.62227 -0.14764
 C399 C 0.39184 0.60658 -0.12750
 C400 C 0.38265 0.59578 -0.09677
 C401 C 0.40044 0.58020 -0.07724
 C402 C 0.42772 0.57519 -0.08818
 C403 C 0.43681 0.58620 -0.11909
 C404 C 0.41896 0.60181 -0.13860
 H405 H 0.33272 0.68127 -0.14468
 H406 H 0.29678 0.70574 -0.17534
 H407 H 0.30125 0.64732 -0.25705
 H408 H 0.33683 0.62274 -0.22580
 H409 H 0.36166 0.59925 -0.08801
 H410 H 0.39267 0.57168 -0.05386
 H411 H 0.45777 0.58296 -0.12801
 H412 H 0.42629 0.61012 -0.16234
 C413 C -0.16327 -0.14987 0.18343
 C414 C -0.17689 -0.13822 0.21126
 C415 C -0.19722 -0.15245 0.22877
 C416 C -0.20452 -0.17881 0.21874
 C417 C -0.18997 -0.19043 0.19093
 C418 C -0.16968 -0.17604 0.17347
 C419 C -0.14353 -0.13449 0.16435
 C420 C -0.12757 -0.12108 0.14819
 C421 C -0.10924 -0.10446 0.12870
 C422 C -0.11547 -0.07732 0.12461
 C423 C -0.09827 -0.06115 0.10496
 C424 C -0.07454 -0.07190 0.08907
 C425 C -0.06825 -0.09916 0.09363
 C426 C -0.08555 -0.11534 0.11329
 H427 H -0.17190 -0.11800 0.21939
 H428 H -0.20651 -0.14280 0.25077
 H429 H -0.19505 -0.21012 0.18116
 H430 H -0.15940 -0.18518 0.15172
 H431 H -0.13372 -0.06868 0.13650
 H432 H -0.10344 -0.04016 0.10237
 H433 H -0.05031 -0.10808 0.08143
 H434 H -0.08058 -0.13635 0.11621
 C435 C -0.16468 0.34696 0.67907
 C436 C -0.17326 0.35591 0.71127
 C437 C -0.19334 0.34172 0.72930
 C438 C -0.20515 0.31838 0.71530
 C439 C -0.19601 0.30925 0.68317
 C440 C -0.17593 0.32350 0.66517
 C441 C -0.14525 0.36251 0.65976
 C442 C -0.12948 0.37606 0.64351
 C443 C -0.11129 0.39282 0.62404
 C444 C -0.11798 0.41980 0.61943
 C445 C -0.10073 0.43617 0.60010
 C446 C -0.07648 0.42576 0.58507
 C447 C -0.06980 0.39864 0.59003
 C448 C -0.08714 0.38227 0.60938
 H449 H -0.16469 0.37404 0.72227
 H450 H -0.19970 0.34904 0.75415
 H451 H -0.20493 0.29154 0.67157
 H452 H -0.16954 0.31648 0.64017
 H453 H -0.13659 0.42819 0.63074
 H454 H -0.10622 0.45704 0.59719
 H455 H -0.05144 0.38998 0.57849
 H456 H -0.08180 0.36139 0.61271
 C457 C 0.33072 -0.14918 0.67773
 C458 C 0.30422 -0.13864 0.68238
 C459 C 0.28410 -0.15315 0.69984
 C460 C 0.29001 -0.17876 0.71317
 C461 C 0.31706 -0.18904 0.70819
 C462 C 0.33713 -0.17436 0.69070
 C463 C 0.35110 -0.13407 0.65932
 C464 C 0.36754 -0.12085 0.64365
 C465 C 0.38637 -0.10440 0.62466
 C466 C 0.38018 -0.07733 0.61984
 C467 C 0.39786 -0.06131 0.60062
 C468 C 0.42202 -0.07215 0.58587
 C469 C 0.42825 -0.09934 0.59115
 C470 C 0.41049 -0.11536 0.61039
 H471 H 0.29895 -0.11924 0.67212
 H472 H 0.26362 -0.14451 0.70135
 H473 H 0.32336 -0.20798 0.71875
 H474 H 0.35771 -0.18264 0.68744
 H475 H 0.36160 -0.06863 0.63083
 H476 H 0.39270 -0.04038 0.59748
 H477 H 0.44654 -0.10832 0.57984
 H478 H 0.41542 -0.13633 0.61387
 C479 C 0.33432 0.35122 0.17529
 C480 C 0.30653 0.35895 0.17417
 C481 C 0.28659 0.34460 0.19213
 C482 C 0.29415 0.32228 0.21156
 C483 C 0.32213 0.31451 0.21238
 C484 C 0.34210 0.32894 0.19436
 C485 C 0.35466 0.36643 0.15698
 C486 C 0.37104 0.37981 0.14142
 C487 C 0.38976 0.39650 0.12261
 C488 C 0.38351 0.42361 0.11834
 C489 C 0.40107 0.43988 0.09930
 C490 C 0.42518 0.42924 0.08420
 C491 C 0.43148 0.40200 0.08893
 C492 C 0.41383 0.38573 0.10798
 H493 H 0.30027 0.37610 0.15939
 H494 H 0.26517 0.35081 0.19054
 H495 H 0.32861 0.29756 0.22735
 H496 H 0.36357 0.32282 0.19546
 H497 H 0.36497 0.43217 0.12960
 H498 H 0.39587 0.46084 0.09657
 H499 H 0.44973 0.39317 0.07733
 H500 H 0.41881 0.36473 0.11104
 C501 C 0.16731 0.14903 0.17972
 C502 C 0.17662 0.14051 0.21148
 C503 C 0.19698 0.15504 0.22872
 C504 C 0.20832 0.17830 0.21437
 C505 C 0.19857 0.18686 0.18261
 C506 C 0.17823 0.17229 0.16541
 C507 C 0.14723 0.13348 0.16127
 C508 C 0.13081 0.12032 0.14534
 C509 C 0.11170 0.10446 0.12577
 C510 C 0.08494 0.09971 0.13797
 C511 C 0.06656 0.08408 0.11890
 C512 C 0.07476 0.07303 0.08735
 C513 C 0.10171 0.07797 0.07533
 C514 C 0.12002 0.09357 0.09442
 H515 H 0.16829 0.12252 0.22278
 H516 H 0.20380 0.14814 0.25332
 H517 H 0.20714 0.20447 0.17070
 H518 H 0.17128 0.17899 0.14076
 H519 H 0.07828 0.10809 0.16218
 H520 H 0.04587 0.08089 0.12866
 H521 H 0.10879 0.06942 0.05142
 H522 H 0.14072 0.09703 0.08480
 C523 C 0.16627 0.64575 0.68178
 C524 C 0.19396 0.63786 0.67883
 C525 C 0.21460 0.65245 0.69542
 C526 C 0.20782 0.67517 0.71522
 C527 C 0.17990 0.68289 0.71816
 C528 C 0.15927 0.66825 0.70153
 C529 C 0.14521 0.63087 0.66413
 C530 C 0.12795 0.61820 0.64893
 C531 C 0.10785 0.60283 0.63029
 C532 C 0.10292 0.57610 0.63872
 C533 C 0.08441 0.56073 0.61958
 C534 C 0.07062 0.57190 0.59165
 C535 C 0.07541 0.59892 0.58369
 C536 C 0.09392 0.61426 0.60290
 H537 H 0.19962 0.62054 0.66349
 H538 H 0.23592 0.64622 0.69227
 H539 H 0.17400 0.70010 0.73354
 H540 H 0.13789 0.67450 0.70403
 H541 H 0.11371 0.56702 0.65977
 H542 H 0.08146 0.53991 0.62607
 H543 H 0.06486 0.60819 0.56263
 H544 H 0.09757 0.63494 0.59616
 C545 C 0.66438 0.14745 0.68275
 C546 C 0.69192 0.13900 0.68042
 C547 C 0.71261 0.15313 0.69751
 C548 C 0.70605 0.17597 0.71722
 C549 C 0.67828 0.18433 0.71942
 C550 C 0.65758 0.17013 0.70229
 C551 C 0.64328 0.13280 0.66485
 C552 C 0.62609 0.12016 0.64949
 C553 C 0.60617 0.10464 0.63072
 C554 C 0.60122 0.07797 0.63940
 C555 C 0.58298 0.06240 0.62014
 C556 C 0.56947 0.07331 0.59183
 C557 C 0.57427 0.10028 0.58362
 C558 C 0.59252 0.11582 0.60295
 H559 H 0.69743 0.12153 0.66526
 H560 H 0.73383 0.14642 0.69490
 H561 H 0.67255 0.20166 0.73468
 H562 H 0.63631 0.17682 0.70431
 H563 H 0.61180 0.06907 0.66073
 H564 H 0.58002 0.04162 0.62684
 H565 H 0.56393 0.10935 0.56226
 H566 H 0.59621 0.13645 0.59600
 C567 C 0.66679 0.64947 0.18191
 C568 C 0.69440 0.64121 0.17966
 C569 C 0.71493 0.65541 0.19696
 C570 C 0.70814 0.67810 0.21681
 C571 C 0.68031 0.68628 0.21892
 C572 C 0.65977 0.67202 0.20157
 C573 C 0.64586 0.63475 0.16381
 C574 C 0.62880 0.62205 0.14830
 C575 C 0.60903 0.60647 0.12939
 C576 C 0.60418 0.57976 0.13797
 C577 C 0.58603 0.56414 0.11863
 C578 C 0.57251 0.57505 0.09033
 C579 C 0.57724 0.60205 0.08219
 C580 C 0.59539 0.61763 0.10159
 H581 H 0.70008 0.62385 0.16440
 H582 H 0.73620 0.64885 0.19440
 H583 H 0.67440 0.70350 0.23427
 H584 H 0.63845 0.67855 0.20353
 H585 H 0.61476 0.57087 0.15932
 H586 H 0.58314 0.54335 0.12528
 H587 H 0.56688 0.61112 0.06083
 H588 H 0.59900 0.63829 0.09472
   
