data_POSCAR
  _audit_creation_date              2014-09-24
  _audit_creation_method            'ToBaCCo'
  _symmetry_space_group_name_H-M    'P1'
  _symmetry_Int_Tables_number       1
  _symmetry_cell_setting            triclinic
  loop_
  _symmetry_equiv_pos_as_xyz
 x,y,z
_cell_length_a 24.3545
_cell_length_b 24.3214
_cell_length_c 11.9986
_cell_angle_alpha 89.814200
_cell_angle_beta 90.111700
_cell_angle_gamma 119.899400
loop_
  _atom_site_label
  _atom_site_type_symbol
  _atom_site_fract_x
  _atom_site_fract_y
  _atom_site_fract_z
C1 C 0.49983 0.99891 0.44606
 C2 C 0.49977 0.99848 0.55859
 C3 C 0.46973 0.93872 0.62319
 C4 C 0.52939 1.05769 0.62430
 C5 C 0.52931 1.05859 0.38117
 C6 C 0.47052 0.93971 0.38036
 C7 C 0.41456 0.92242 0.68303
 C8 C 0.38922 0.87061 0.75522
 C9 C 0.41932 0.83422 0.77149
 C10 C 0.47384 0.84975 0.70737
 C11 C 0.49867 0.90153 0.63384
 C12 C 0.50276 1.09726 0.62837
 C13 C 0.52746 1.14917 0.70116
 C14 C 0.57931 1.16222 0.77025
 C15 C 0.60683 1.12336 0.76250
 C16 C 0.58182 1.07147 0.69098
 C17 C 0.59537 1.09769 0.37600
 C18 C 0.62242 1.14953 0.30258
 C19 C 0.58358 1.16293 0.23397
 C20 C 0.51735 1.12468 0.24320
 C21 C 0.49064 1.07288 0.31532
 C22 C 0.50939 0.92576 0.31483
 C23 C 0.48288 0.87471 0.24149
 C24 C 0.41668 0.83691 0.23078
 C25 C 0.37763 0.84993 0.29909
 C26 C 0.40446 0.90101 0.37364
 H27 H 0.39181 0.95085 0.67558
 H28 H 0.34691 0.86070 0.80095
 H29 H 0.49843 0.82314 0.71579
 H30 H 0.54169 0.91400 0.58825
 H31 H 0.46174 1.08672 0.57794
 H32 H 0.50525 1.17816 0.70504
 H33 H 0.60272 1.04123 0.68904
 H34 H 0.62583 1.08672 0.42577
 H35 H 0.67350 1.17807 0.29761
 H36 H 0.48583 1.13346 0.19201
 H37 H 0.43960 1.04294 0.31808
 H38 H 0.56043 0.95545 0.31870
 H39 H 0.51454 0.86618 0.19062
 H40 H 0.32656 0.82169 0.29303
 H41 H 0.37386 0.91178 0.42303
 H42 H 0.64678 1.13181 0.81420
 C43 C -0.00085 0.50006 0.44067
 C44 C -0.00052 0.50011 0.55321
 C45 C 0.05905 0.52954 0.61800
 C46 C -0.05974 0.47082 0.61890
 C47 C -0.06046 0.47011 0.37614
 C48 C 0.05831 0.52974 0.37481
 C49 C 0.07316 0.49078 0.68414
 C50 C 0.12499 0.51747 0.75586
 C51 C 0.16344 0.58379 0.76439
 C52 C 0.15019 0.62270 0.69555
 C53 C 0.09833 0.59567 0.62252
 C54 C -0.09876 0.40469 0.62506
 C55 C -0.15015 0.37782 0.69901
 C56 C -0.16319 0.41690 0.76724
 C57 C -0.12501 0.48319 0.75716
 C58 C -0.07363 0.50974 0.68445
 C59 C -0.09774 0.49900 0.36612
 C60 C -0.14942 0.47424 0.29276
 C61 C -0.16468 0.41993 0.22862
 C62 C -0.12829 0.38991 0.24368
 C63 C -0.07654 0.41513 0.31566
 C64 C 0.07205 0.58223 0.30792
 C65 C 0.12377 0.60719 0.23601
 C66 C 0.16251 0.57956 0.22809
 C67 C 0.14952 0.52768 0.29744
 C68 C 0.09777 0.50302 0.37061
 H69 H 0.04308 0.43969 0.68187
 H70 H 0.13363 0.48589 0.80730
 H71 H 0.17888 0.67385 0.70000
 H72 H 0.08751 0.62621 0.57251
 H73 H -0.08806 0.37403 0.57561
 H74 H -0.17865 0.32668 0.70463
 H75 H -0.04373 0.56083 0.68097
 H76 H -0.08541 0.54190 0.41204
 H77 H -0.17628 0.49857 0.28441
 H78 H -0.13827 0.34784 0.19712
 H79 H -0.04802 0.39246 0.32247
 H80 H 0.04187 0.60318 0.30995
 H81 H 0.13219 0.64717 0.18414
 H82 H 0.17844 0.50540 0.29345
 H83 H 0.08724 0.46196 0.42118
 H84 H -0.13352 0.51487 0.80807
 C85 C 0.50052 0.50060 0.44672
 C86 C 0.50050 0.50061 0.55922
 C87 C 0.47077 0.53042 0.62395
 C88 C 0.53018 0.47078 0.62466
 C89 C 0.53065 0.47123 0.38180
 C90 C 0.47035 0.52991 0.38110
 C91 C 0.50943 0.58551 0.68425
 C92 C 0.48279 0.61081 0.75576
 C93 C 0.41651 0.58079 0.77046
 C94 C 0.37771 0.52633 0.70658
 C95 C 0.40474 0.50146 0.63374
 C96 C 0.59621 0.49966 0.63457
 C97 C 0.62319 0.47474 0.70797
 C98 C 0.58434 0.42031 0.77229
 C99 C 0.51806 0.39037 0.75749
 C100 C 0.49147 0.41572 0.68543
 C101 C 0.50348 0.40509 0.37574
 C102 C 0.52800 0.37816 0.30193
 C103 C 0.58015 0.41719 0.23372
 C104 C 0.60838 0.48349 0.24383
 C105 C 0.58357 0.51010 0.31644
 C106 C 0.41745 0.49100 0.31583
 C107 C 0.39259 0.51755 0.24266
 C108 C 0.42076 0.58385 0.23188
 C109 C 0.47290 0.62293 0.29997
 C110 C 0.49746 0.59605 0.37435
 H111 H 0.56051 0.60826 0.67756
 H112 H 0.51469 0.65300 0.80216
 H113 H 0.32663 0.50197 0.71470
 H114 H 0.37435 0.45850 0.58791
 H115 H 0.62664 0.54259 0.58837
 H116 H 0.67426 0.49904 0.71614
 H117 H 0.44039 0.39303 0.67864
 H118 H 0.46205 0.37448 0.42505
 H119 H 0.50528 0.32701 0.29630
 H120 H 0.64863 0.51514 0.19298
 H121 H 0.60479 0.56122 0.31983
 H122 H 0.39627 0.43989 0.31976
 H123 H 0.35236 0.48587 0.19193
 H124 H 0.49556 0.67407 0.29384
 H125 H 0.53888 0.62670 0.42359
 H126 H 0.48612 0.34822 0.80423
 O127 O 0.42918 0.65239 -0.09357
 O128 O 0.42615 0.75701 -0.13217
 C129 C 0.39734 0.78771 -0.15030
 O130 O 0.34883 0.77747 -0.09432
 O131 O 0.24432 0.67016 -0.13270
 C132 C 0.21435 0.61078 -0.15048
 O133 O 0.22435 0.57212 -0.09480
 O134 O 0.33161 0.57461 -0.13112
 C135 C 0.39094 0.60369 -0.14895
 O136 O 0.42638 0.67001 0.12693
 O137 O 0.42864 0.77720 0.08863
 C138 C 0.38993 0.78669 0.14453
 O139 O 0.33068 0.75666 0.12627
 O140 O 0.22366 0.65219 0.08778
 C141 C 0.21365 0.60359 0.14347
 O142 O 0.24390 0.57440 0.12621
 O143 O 0.34873 0.57200 0.09001
 C144 C 0.39709 0.61069 0.14556
 Cr145 Cr 0.42409 0.71241 -0.00258
 Cr146 Cr 0.28864 0.71238 -0.00325
 Cr147 Cr 0.28890 0.57678 -0.00245
 O148 O 0.33385 0.66715 -0.00270
 O149 O 0.57157 0.34867 -0.09090
 O150 O 0.57425 0.24382 -0.12812
 C151 C 0.60337 0.21349 -0.14541
 O152 O 0.65192 0.22348 -0.08989
 O153 O 0.75638 0.33070 -0.12848
 C154 C 0.78627 0.39004 -0.14699
 O155 O 0.77642 0.42873 -0.09170
 O156 O 0.66920 0.42635 -0.12876
 C157 C 0.60986 0.39734 -0.14664
 O158 O 0.57441 0.33097 0.12986
 O159 O 0.57194 0.22371 0.09269
 C160 C 0.61055 0.21383 0.14852
 O161 O 0.66984 0.24393 0.13063
 O162 O 0.77696 0.34856 0.09203
 C163 C 0.78709 0.39716 0.14750
 O164 O 0.75672 0.42625 0.12930
 O165 O 0.65208 0.42892 0.09217
 C166 C 0.60374 0.39029 0.14792
 Cr167 Cr 0.57655 0.28855 0.00085
 Cr168 Cr 0.71202 0.28843 0.00106
 Cr169 Cr 0.71186 0.42405 0.00025
 O170 O 0.66681 0.33368 0.00066
   
