data_POSCAR
  _audit_creation_date              2014-09-24
  _audit_creation_method            'ToBaCCo'
  _symmetry_space_group_name_H-M    'P1'
  _symmetry_Int_Tables_number       1
  _symmetry_cell_setting            triclinic
  loop_
  _symmetry_equiv_pos_as_xyz
 x,y,z
_cell_length_a 55.0755
_cell_length_b 51.9472
_cell_length_c 50.9541
_cell_angle_alpha 90.151500
_cell_angle_beta 88.139400
_cell_angle_gamma 94.202800
loop_
  _atom_site_label
  _atom_site_type_symbol
  _atom_site_fract_x
  _atom_site_fract_y
  _atom_site_fract_z
N1 N 0.58215 0.65383 0.60488
 N2 N 0.57429 0.64690 0.62865
 C3 C 0.55538 0.66064 0.63580
 C4 C 0.55109 0.67691 0.61530
 C5 C 0.56830 0.67200 0.59591
 H6 H 0.54562 0.65910 0.65456
 H7 H 0.57100 0.68143 0.57703
 Cu8 Cu 0.58943 0.62039 0.64782
 Cu9 Cu 0.61063 0.63951 0.58827
 Cu10 Cu 0.64887 0.61675 0.63432
 N11 N 0.60851 0.59765 0.66756
 N12 N 0.63201 0.59673 0.66262
 C13 C 0.64097 0.58004 0.67930
 C14 C 0.62192 0.56966 0.69525
 C15 C 0.60157 0.58131 0.68732
 H16 H 0.65980 0.57537 0.67935
 H17 H 0.58314 0.57806 0.69523
 N18 N 0.66005 0.62742 0.59858
 N19 N 0.64520 0.63457 0.58056
 C20 C 0.65786 0.63858 0.55771
 C21 C 0.68183 0.63382 0.56164
 C22 C 0.68261 0.62684 0.58772
 H23 H 0.65024 0.64468 0.53964
 H24 H 0.69828 0.62104 0.59784
 H25 H 0.61859 0.60913 0.61327
 H26 H 0.62389 0.64324 0.62448
 N27 N 0.90543 0.33213 0.10998
 N28 N 0.91504 0.34329 0.13080
 C29 C 0.93443 0.33074 0.13761
 C30 C 0.93725 0.31085 0.11994
 C31 C 0.91858 0.31232 0.10260
 H32 H 0.94574 0.33569 0.15410
 H33 H 0.91467 0.29971 0.08611
 Cu34 Cu 0.90154 0.37327 0.14704
 Cu35 Cu 0.87619 0.34363 0.09453
 Cu36 Cu 0.85021 0.39533 0.12457
 N37 N 0.88640 0.40207 0.16376
 N38 N 0.86588 0.40998 0.15540
 C39 C 0.85901 0.42945 0.17076
 C40 C 0.87628 0.43414 0.18955
 C41 C 0.89346 0.41650 0.18456
 H42 H 0.84287 0.43974 0.16822
 H43 H 0.90971 0.41428 0.19543
 N44 N 0.83699 0.37808 0.09316
 N45 N 0.84658 0.35810 0.08189
 C46 C 0.83329 0.35066 0.06104
 C47 C 0.81469 0.36694 0.05906
 C48 C 0.81758 0.38407 0.07964
 H49 H 0.83705 0.33490 0.04799
 H50 H 0.80632 0.39976 0.08433
 H51 H 0.88096 0.38157 0.10654
 H52 H 0.86245 0.35880 0.12891
 N53 N 0.40364 0.15766 -0.11168
 N54 N 0.41720 0.14212 -0.12509
 C55 C 0.43936 0.15418 -0.12997
 C56 C 0.43961 0.17859 -0.11910
 C57 C 0.41667 0.18019 -0.10767
 H58 H 0.45413 0.14590 -0.14078
 H59 H 0.41007 0.19644 -0.09699
 Cu60 Cu 0.40463 0.10781 -0.13545
 Cu61 Cu 0.37060 0.14703 -0.09930
 Cu62 Cu 0.34526 0.08958 -0.12398
 N63 N 0.38843 0.07906 -0.15403
 N64 N 0.36517 0.07226 -0.14978
 C65 C 0.35844 0.05276 -0.16605
 C66 C 0.37859 0.04702 -0.18122
 C67 C 0.39734 0.06401 -0.17307
 H68 H 0.34019 0.04365 -0.16705
 H69 H 0.41589 0.06575 -0.18087
 N70 N 0.32822 0.11025 -0.09780
 N71 N 0.33758 0.13263 -0.08899
 C72 C 0.32177 0.14202 -0.07132
 C73 C 0.30167 0.12457 -0.06878
 C74 C 0.30634 0.10466 -0.08579
 H75 H 0.32495 0.15976 -0.06041
 H76 H 0.29477 0.08726 -0.08888
 H77 H 0.37247 0.10744 -0.10147
 H78 H 0.36466 0.12440 -0.13221
 N79 N 0.10271 0.84146 0.39002
 N80 N 0.08860 0.85751 0.37919
 C81 C 0.06669 0.84518 0.37508
 C82 C 0.06720 0.81999 0.38367
 C83 C 0.09034 0.81826 0.39299
 H84 H 0.05163 0.85382 0.36628
 H85 H 0.09749 0.80152 0.40168
 Cu86 Cu 0.10016 0.89278 0.37066
 Cu87 Cu 0.13538 0.85246 0.40108
 Cu88 Cu 0.15916 0.91213 0.37893
 N89 N 0.11568 0.92288 0.35270
 N90 N 0.13882 0.93010 0.35558
 C91 C 0.14509 0.95041 0.33980
 C92 C 0.12476 0.95621 0.32640
 C93 C 0.10639 0.93841 0.33509
 H94 H 0.16318 0.95996 0.33783
 H95 H 0.08788 0.93640 0.32847
 N96 N 0.17665 0.89056 0.40256
 N97 N 0.16790 0.86741 0.41038
 C98 C 0.18365 0.85777 0.42678
 C99 C 0.20309 0.87582 0.42951
 C100 C 0.19811 0.89636 0.41392
 H101 H 0.18076 0.83946 0.43687
 H102 H 0.20905 0.91440 0.41154
 H103 H 0.13239 0.89197 0.40212
 H104 H 0.14062 0.87742 0.36955
 N105 N 0.11432 0.13323 0.12161
 N106 N 0.38400 0.86699 0.61445
 N107 N 0.87621 0.62963 0.37891
 N108 N 0.63112 0.37092 -0.12375
 C109 C -0.01036 0.25848 0.11985
 N110 N -0.02649 0.25844 0.10025
 N111 N -0.04355 0.27536 0.10030
 C112 C -0.04498 0.29309 0.11984
 N113 N -0.02875 0.29318 0.13935
 N114 N -0.01183 0.27613 0.13942
 C115 C 0.00833 0.23973 0.11998
 N116 N 0.02126 0.23647 0.14181
 N117 N 0.03816 0.21940 0.14204
 C118 C 0.04290 0.20513 0.12037
 N119 N 0.03005 0.20846 0.09849
 N120 N 0.01300 0.22538 0.09833
 C121 C 0.06158 0.18637 0.12065
 N122 N 0.06969 0.17569 0.09797
 N123 N 0.08670 0.15873 0.09826
 C124 C 0.09607 0.15165 0.12128
 N125 N 0.08788 0.16231 0.14396
 N126 N 0.07103 0.17942 0.14364
 C127 C 0.49991 0.73248 0.61428
 N128 N 0.50352 0.71930 0.63662
 N129 N 0.51966 0.70143 0.63686
 C130 C 0.53288 0.69617 0.61480
 N131 N 0.52928 0.70934 0.59245
 N132 N 0.51304 0.72713 0.59218
 C133 C 0.48234 0.75241 0.61417
 N134 N 0.47665 0.76360 0.59134
 N135 N 0.46082 0.78181 0.59132
 C136 C 0.45023 0.78960 0.61414
 N137 N 0.45596 0.77843 0.63696
 N138 N 0.47168 0.76013 0.63697
 C139 C 0.43294 0.80981 0.61418
 N140 N 0.42475 0.81985 0.63716
 N141 N 0.40914 0.83825 0.63724
 C142 C 0.40102 0.84724 0.61435
 N143 N 0.40918 0.83713 0.59137
 N144 N 0.42490 0.81881 0.59129
 C145 C 1.01136 0.76310 0.38276
 N146 N 1.00782 0.78745 0.37493
 N147 N 1.02597 0.80585 0.37508
 C148 C 1.04831 0.80065 0.38327
 N149 N 1.05183 0.77628 0.39118
 N150 N 1.03372 0.75782 0.39083
 C151 C 0.99128 0.74290 0.38258
 N152 N 0.99555 0.71768 0.38564
 N153 N 0.97726 0.69939 0.38530
 C154 C 0.95405 0.70571 0.38213
 N155 N 0.94979 0.73093 0.37920
 N156 N 0.96808 0.74918 0.37932
 C157 C 0.93383 0.68567 0.38169
 N158 N 0.91044 0.69227 0.38319
 N159 N 0.89201 0.67422 0.38249
 C160 C 0.89628 0.64891 0.37998
 N161 N 0.91970 0.64228 0.37858
 N162 N 0.93814 0.66034 0.37949
 C163 C 0.49739 0.23552 -0.11977
 N164 N 0.47490 0.24082 -0.11053
 N165 N 0.45652 0.22266 -0.11028
 C166 C 0.45992 0.19857 -0.11939
 N167 N 0.48239 0.19327 -0.12870
 N168 N 0.50082 0.21140 -0.12883
 C169 C 0.51761 0.25561 -0.12003
 N170 N 0.54069 0.24978 -0.12646
 N171 N 0.55898 0.26807 -0.12671
 C172 C 0.55481 0.29287 -0.12066
 N173 N 0.53173 0.29869 -0.11428
 N174 N 0.51347 0.28038 -0.11390
 C175 C 0.57485 0.31317 -0.12123
 N176 N 0.57013 0.33832 -0.11838
 N177 N 0.58820 0.35682 -0.11918
 C178 C 0.61168 0.35087 -0.12275
 N179 N 0.61642 0.32569 -0.12544
 N180 N 0.59832 0.30718 -0.12478
 C181 C 0.12110 0.01167 0.26760
 N182 N 0.10055 -0.00167 0.27705
 N183 N 0.10169 -0.01924 0.29590
 C184 C 0.12339 -0.02400 0.30607
 N185 N 0.14391 -0.01055 0.29674
 N186 N 0.14279 0.00691 0.27780
 C187 C 0.11998 0.03053 0.24634
 N188 N 0.14075 0.04123 0.23454
 N189 N 0.13978 0.05793 0.21488
 C190 C 0.11802 0.06466 0.20638
 N191 N 0.09724 0.05408 0.21827
 N192 N 0.09820 0.03726 0.23785
 C193 C 0.11702 0.08281 0.18445
 N194 N 0.09555 0.09178 0.17767
 N195 N 0.09468 0.10806 0.15761
 C196 C 0.11525 0.11586 0.14348
 N197 N 0.13671 0.10685 0.15029
 N198 N 0.13759 0.09068 0.17042
 C199 C 0.62463 0.51343 -0.24862
 N200 N 0.60310 0.52285 -0.25446
 N201 N 0.60225 0.54128 -0.27248
 C202 C 0.62289 0.55086 -0.28544
 N203 N 0.64442 0.54145 -0.27953
 N204 N 0.64528 0.52313 -0.26142
 C205 C 0.62551 0.49275 -0.22916
 N206 N 0.64721 0.48524 -0.22126
 N207 N 0.64802 0.46619 -0.20393
 C208 C 0.62716 0.45385 -0.19398
 N209 N 0.60546 0.46136 -0.20187
 N210 N 0.60465 0.48051 -0.21910
 C211 C 0.62809 0.43250 -0.17529
 N212 N 0.60754 0.41785 -0.16810
 N213 N 0.60847 0.39821 -0.15149
 C214 C 0.62992 0.39260 -0.14120
 N215 N 0.65046 0.40729 -0.14850
 N216 N 0.64957 0.42683 -0.16522
 C217 C 0.38088 0.99259 0.75830
 N218 N 0.40172 1.00520 0.76658
 N219 N 0.40103 1.02252 0.78589
 C220 C 0.37948 1.02774 0.79770
 N221 N 0.35867 1.01505 0.78949
 N222 N 0.35935 0.99784 0.77011
 C223 C 0.38152 0.97374 0.73681
 N224 N 0.36051 0.96366 0.72641
 N225 N 0.36101 0.94669 0.70679
 C226 C 0.38253 0.93907 0.69693
 N227 N 0.40355 0.94909 0.70738
 N228 N 0.40305 0.96617 0.72691
 C229 C 0.38300 0.92033 0.67533
 N230 N 0.40411 0.91025 0.66750
 N231 N 0.40444 0.89313 0.64800
 C232 C 0.38370 0.88555 0.63549
 N233 N 0.36261 0.89573 0.64329
 N234 N 0.36226 0.91274 0.66288
 C235 C 0.87664 0.49105 0.24773
 N236 N 0.89717 0.47909 0.24153
 N237 N 0.89703 0.46077 0.22316
 C238 C 0.87641 0.45396 0.21015
 N239 N 0.85591 0.46599 0.21629
 N240 N 0.85599 0.48411 0.23483
 C241 C 0.87675 0.51134 0.26784
 N242 N 0.85548 0.51914 0.27817
 N243 N 0.85551 0.53770 0.29627
 C244 C 0.87681 0.54931 0.30449
 N245 N 0.89809 0.54156 0.29410
 N246 N 0.89806 0.52282 0.27618
 C247 C 0.87678 0.57006 0.32410
 N248 N 0.89710 0.58587 0.32778
 N249 N 0.89690 0.60496 0.34528
 C250 C 0.87645 0.60887 0.35997
 N251 N 0.85619 0.59286 0.35633
 N252 N 0.85630 0.57393 0.33865
 C253 C 0.24232 0.12826 -0.01595
 N254 N 0.24609 0.10610 -0.02916
 N255 N 0.26481 0.10504 -0.04625
 C256 C 0.28056 0.12604 -0.05061
 N257 N 0.27680 0.14822 -0.03742
 N258 N 0.25796 0.14933 -0.02047
 C259 C 0.22209 0.12917 0.00343
 N260 N 0.21597 0.15202 0.01377
 N261 N 0.19799 0.15274 0.03185
 C262 C 0.18561 0.13061 0.04039
 N263 N 0.19172 0.10778 0.03003
 N264 N 0.20957 0.10708 0.01181
 C265 C 0.16643 0.13126 0.06102
 N266 N 0.15765 0.10920 0.07330
 N267 N 0.14083 0.10982 0.09263
 C268 C 0.13203 0.13251 0.10028
 N269 N 0.14066 0.15455 0.08781
 N270 N 0.15762 0.15395 0.06861
 C271 C 0.73960 0.63658 0.50617
 N272 N 0.71638 0.63824 0.49850
 N273 N 0.69797 0.63761 0.51618
 C274 C 0.70211 0.63511 0.54214
 N275 N 0.72532 0.63343 0.54980
 N276 N 0.74373 0.63424 0.53214
 C277 C 0.75990 0.63685 0.48675
 N278 N 0.78327 0.63891 0.49461
 N279 N 0.80174 0.63867 0.47710
 C280 C 0.79751 0.63618 0.45108
 N281 N 0.77413 0.63412 0.44320
 N282 N 0.75565 0.63454 0.46071
 C283 C 0.81792 0.63515 0.43194
 N284 N 0.81398 0.62816 0.40665
 N285 N 0.83262 0.62645 0.38955
 C286 C 0.85589 0.63175 0.39709
 N287 N 0.85978 0.63907 0.42230
 N288 N 0.84116 0.64062 0.43943
 C289 C 0.76133 0.36681 0.00252
 N290 N 0.76511 0.38715 0.01902
 N291 N 0.78206 0.38707 0.03704
 C292 C 0.79601 0.36675 0.03912
 N293 N 0.79234 0.34642 0.02255
 N294 N 0.77522 0.34640 0.00463
 C295 C 0.74246 0.36706 -0.01716
 N296 N 0.73512 0.34527 -0.03039
 N297 N 0.71766 0.34563 -0.04789
 C298 C 0.70708 0.36783 -0.05293
 N299 N 0.71454 0.38961 -0.03980
 N300 N 0.73183 0.38920 -0.02218
 C301 C 0.68767 0.36842 -0.07196
 N302 N 0.68008 0.39132 -0.07989
 N303 N 0.66220 0.39206 -0.09677
 C304 C 0.65112 0.36992 -0.10632
 N305 N 0.65864 0.34698 -0.09824
 N306 N 0.67667 0.34624 -0.08148
 C307 C 0.26053 0.87222 0.48074
 N308 N 0.24546 0.85095 0.47606
 N309 N 0.22729 0.85203 0.45955
 C310 C 0.22362 0.87438 0.44701
 N311 N 0.23881 0.89558 0.45152
 N312 N 0.25689 0.89455 0.46815
 C313 C 0.27998 0.87130 0.49968
 N314 N 0.29230 0.89337 0.50770
 N315 N 0.30943 0.89265 0.52550
 C316 C 0.31496 0.86981 0.53582
 N317 N 0.30276 0.84772 0.52766
 N318 N 0.28553 0.84846 0.50998
 C319 C 0.33341 0.86909 0.55591
 N320 N 0.34118 0.84626 0.56388
 N321 N 0.35758 0.84560 0.58248
 C322 C 0.36671 0.86774 0.59393
 N323 N 0.35892 0.89057 0.58592
 N324 N 0.34263 0.89123 0.56721
   
