data_POSCAR
  _audit_creation_date              2014-09-24
  _audit_creation_method            'ToBaCCo'
  _symmetry_space_group_name_H-M    'P1'
  _symmetry_Int_Tables_number       1
  _symmetry_cell_setting            triclinic
  loop_
  _symmetry_equiv_pos_as_xyz
 x,y,z
_cell_length_a 40.4691
_cell_length_b 40.0736
_cell_length_c 39.3542
_cell_angle_alpha 90.061300
_cell_angle_beta 90.332200
_cell_angle_gamma 89.647800
loop_
  _atom_site_label
  _atom_site_type_symbol
  _atom_site_fract_x
  _atom_site_fract_y
  _atom_site_fract_z
N1 N 0.16718 0.25338 0.24437
 N2 N 0.16390 0.22524 0.26112
 C3 C 0.13979 0.22889 0.28430
 C4 C 0.12743 0.26117 0.28185
 C5 C 0.14552 0.27599 0.25642
 H6 H 0.13168 0.20942 0.30125
 H7 H 0.14268 0.30117 0.24689
 Cu8 Cu 0.19140 0.18665 0.25046
 Cu9 Cu 0.19871 0.25810 0.20756
 Cu10 Cu 0.22621 0.18308 0.17364
 N11 N 0.22368 0.15216 0.23936
 N12 N 0.23702 0.15041 0.20900
 C13 C 0.25785 0.12406 0.20793
 C14 C 0.25766 0.10867 0.23950
 C15 C 0.23571 0.12718 0.25872
 H16 H 0.27229 0.11705 0.18599
 H17 H 0.22915 0.12285 0.28495
 N18 N 0.22607 0.22535 0.14801
 N19 N 0.21775 0.25421 0.16185
 C20 C 0.22032 0.27845 0.13838
 C21 C 0.23048 0.26405 0.10824
 C22 C 0.23383 0.23039 0.11520
 H23 H 0.21334 0.30424 0.14240
 H24 H 0.24092 0.21097 0.09753
 H25 H 0.18654 0.21080 0.19375
 H26 H 0.22883 0.21562 0.21216
 N27 N 0.66519 0.74275 0.72378
 N28 N 0.66768 0.71436 0.74076
 C29 C 0.64302 0.71308 0.76375
 C30 C 0.62416 0.74198 0.76084
 C31 C 0.63896 0.76005 0.73537
 H32 H 0.63878 0.69242 0.78078
 H33 H 0.63060 0.78385 0.72555
 Cu34 Cu 0.70239 0.68030 0.73101
 Cu35 Cu 0.69463 0.75509 0.68585
 Cu36 Cu 0.75050 0.69754 0.66470
 N37 N 0.74433 0.65634 0.72332
 N38 N 0.76333 0.66447 0.69769
 C39 C 0.79109 0.64607 0.69847
 C40 C 0.78935 0.62452 0.72550
 C41 C 0.75924 0.63143 0.74092
 H42 H 0.81104 0.64797 0.68040
 H43 H 0.74937 0.61988 0.76349
 N44 N 0.74770 0.73906 0.64050
 N45 N 0.72611 0.76219 0.64891
 C46 C 0.72951 0.78837 0.62773
 C47 C 0.75474 0.78093 0.60509
 C48 C 0.76564 0.74953 0.61403
 H49 H 0.71438 0.81069 0.62837
 H50 H 0.78496 0.73518 0.60184
 H51 H 0.69340 0.70381 0.68477
 H52 H 0.72444 0.72259 0.71391
 N53 N 0.32918 0.77198 0.75115
 N54 N 0.31761 0.79608 0.77056
 C55 C 0.33802 0.80032 0.79728
 C56 C 0.36405 0.77805 0.79440
 C57 C 0.35776 0.76041 0.76470
 H58 H 0.33425 0.81829 0.81745
 H59 H 0.37231 0.74021 0.75416
 Cu60 Cu 0.27704 0.82011 0.75918
 Cu61 Cu 0.30477 0.75721 0.71058
 Cu62 Cu 0.22117 0.77487 0.71768
 N63 N 0.23393 0.83881 0.74714
 N64 N 0.21136 0.82004 0.73263
 C65 C 0.18397 0.83834 0.72683
 C66 C 0.18991 0.87061 0.73733
 C67 C 0.22189 0.87008 0.75045
 H68 H 0.16208 0.82929 0.71394
 H69 H 0.23567 0.89080 0.76082
 N70 N 0.23866 0.74023 0.68734
 N71 N 0.27055 0.73524 0.68230
 C72 C 0.27433 0.71560 0.65471
 C73 C 0.24317 0.70814 0.64191
 C74 C 0.22133 0.72377 0.66348
 H75 H 0.29790 0.70881 0.64384
 H76 H 0.19484 0.72565 0.66012
 H77 H 0.26673 0.79262 0.70507
 H78 H 0.26624 0.76263 0.74130
 N79 N 0.85994 0.26120 0.24005
 N80 N 0.85530 0.28841 0.25813
 C81 C 0.88122 0.29281 0.27915
 C82 C 0.90332 0.26670 0.27427
 C83 C 0.88903 0.24715 0.24917
 H84 H 0.88327 0.31310 0.29712
 H85 H 0.89868 0.22404 0.23889
 Cu86 Cu 0.81475 0.31428 0.25477
 Cu87 Cu 0.82641 0.24542 0.20797
 Cu88 Cu 0.76887 0.30600 0.18413
 N89 N 0.77594 0.34185 0.24686
 N90 N 0.75817 0.33894 0.21897
 C91 C 0.73377 0.36196 0.21935
 C92 C 0.73645 0.38010 0.24927
 C93 C 0.76340 0.36662 0.26604
 H94 H 0.71559 0.36512 0.19936
 H95 H 0.77329 0.37462 0.29028
 N96 N 0.77539 0.26390 0.15886
 N97 N 0.79689 0.24065 0.16810
 C98 C 0.79448 0.21461 0.14652
 C99 C 0.77007 0.22179 0.12271
 C100 C 0.75853 0.25314 0.13139
 H101 H 0.80904 0.19198 0.14840
 H102 H 0.73883 0.26685 0.11889
 H103 H 0.81806 0.29377 0.19641
 H104 H 0.78425 0.27356 0.22078
 N105 N 0.83453 0.73613 0.26256
 N106 N 0.83429 0.70799 0.24541
 C107 C 0.85664 0.70983 0.22023
 C108 C 0.87142 0.74092 0.22193
 C109 C 0.85672 0.75689 0.24889
 H110 H 0.86171 0.69009 0.20222
 H111 H 0.86234 0.78160 0.25828
 Cu112 Cu 0.80500 0.67173 0.25791
 Cu113 Cu 0.80786 0.74316 0.30247
 Cu114 Cu 0.74875 0.68426 0.32042
 N115 N 0.76782 0.64198 0.26457
 N116 N 0.74591 0.64692 0.28865
 C117 C 0.72306 0.62266 0.28703
 C118 C 0.73114 0.60144 0.26045
 C119 C 0.75965 0.61445 0.24685
 H120 H 0.70227 0.62066 0.30400
 H121 H 0.77334 0.60462 0.22550
 N122 N 0.75617 0.72410 0.34912
 N123 N 0.77899 0.74630 0.34192
 C124 C 0.77859 0.77055 0.36544
 C125 C 0.75427 0.76349 0.38876
 C126 C 0.74039 0.73390 0.37762
 H127 H 0.79453 0.79204 0.36518
 H128 H 0.72022 0.72068 0.38934
 H129 H 0.79814 0.69335 0.31534
 H130 H 0.76938 0.71335 0.28372
 N131 N 0.35488 0.23639 -0.26722
 N132 N 0.34406 0.20725 -0.27773
 C133 C 0.36575 0.19402 -0.29976
 C134 C 0.39156 0.21605 -0.30342
 C135 C 0.38382 0.24291 -0.28250
 H136 H 0.36307 0.16999 -0.31200
 H137 H 0.39826 0.26511 -0.27800
 Cu138 Cu 0.30286 0.18889 -0.26159
 Cu139 Cu 0.33075 0.26229 -0.23315
 Cu140 Cu 0.28620 0.20935 -0.18120
 N141 N 0.26877 0.16624 -0.23639
 N142 N 0.26311 0.17347 -0.20436
 C143 C 0.24033 0.15240 -0.19214
 C144 C 0.23083 0.13132 -0.21813
 C145 C 0.24943 0.14071 -0.24591
 H146 H 0.23133 0.15248 -0.16630
 H147 H 0.24978 0.12918 -0.27076
 N148 N 0.29925 0.25478 -0.16775
 N149 N 0.31459 0.27573 -0.18807
 C150 C 0.31631 0.30581 -0.17283
 C151 C 0.30142 0.30350 -0.14138
 C152 C 0.29090 0.27082 -0.13904
 H153 H 0.32707 0.32784 -0.18399
 H154 H 0.27657 0.25990 -0.11885
 H155 H 0.32673 0.21711 -0.21228
 H156 H 0.28629 0.23563 -0.22567
 N157 N 0.66045 0.23613 -0.21821
 N158 N 0.66318 0.26358 -0.23616
 C159 C 0.64230 0.26268 -0.26269
 C160 C 0.62488 0.23309 -0.26135
 C161 C 0.63700 0.21680 -0.23266
 H162 H 0.63980 0.28262 -0.28098
 H163 H 0.62917 0.19289 -0.22293
 Cu164 Cu 0.69255 0.29907 -0.22336
 Cu165 Cu 0.68736 0.22958 -0.17701
 Cu166 Cu 0.75466 0.28308 -0.16943
 N167 N 0.73087 0.32714 -0.22162
 N168 N 0.75547 0.32090 -0.20062
 C169 C 0.77878 0.34436 -0.20474
 C170 C 0.76802 0.36618 -0.22987
 C171 C 0.73764 0.35442 -0.24004
 H172 H 0.80169 0.34539 -0.19051
 H173 H 0.72156 0.36507 -0.25928
 N174 N 0.74873 0.24355 -0.14028
 N175 N 0.72323 0.22322 -0.14292
 C176 C 0.72568 0.19985 -0.11837
 C177 C 0.75399 0.20599 -0.09937
 C178 C 0.76789 0.23376 -0.11399
 H179 H 0.70774 0.18045 -0.11415
 H180 H 0.78996 0.24637 -0.10542
 H181 H 0.70433 0.27733 -0.16627
 H182 H 0.72531 0.25336 -0.20054
 N183 N 0.10981 0.79349 0.29287
 N184 N 0.11779 0.81373 0.26805
 C185 C 0.09917 0.80673 0.24059
 C186 C 0.07867 0.78036 0.24867
 C187 C 0.08606 0.77262 0.28204
 H188 H 0.10136 0.81920 0.21636
 H189 H 0.07547 0.75284 0.29708
 Cu190 Cu 0.15317 0.84601 0.27309
 Cu191 Cu 0.13239 0.79530 0.33633
 Cu192 Cu 0.21133 0.82059 0.33287
 N193 N 0.19777 0.86457 0.27535
 N194 N 0.22028 0.85519 0.29789
 C195 C 0.24809 0.87286 0.29249
 C196 C 0.24258 0.89395 0.26495
 C197 C 0.21053 0.88787 0.25483
 H198 H 0.27051 0.87039 0.30736
 H199 H 0.19737 0.89964 0.23400
 N200 N 0.19459 0.79369 0.37068
 N201 N 0.16313 0.78591 0.37278
 C202 C 0.15835 0.76643 0.40003
 C203 C 0.18846 0.76088 0.41553
 C204 C 0.21110 0.77862 0.39637
 H205 H 0.13516 0.75480 0.40642
 H206 H 0.23758 0.77949 0.40003
 H207 H 0.16708 0.84372 0.32514
 H208 H 0.17647 0.80766 0.29666
 N209 N 0.47890 0.40505 0.49634
 N210 N 0.45405 0.41412 0.51571
 C211 C 0.44651 0.38918 0.53693
 C212 C 0.46818 0.36326 0.53126
 C213 C 0.48865 0.37400 0.50535
 H214 H 0.42711 0.39010 0.55572
 H215 H 0.50880 0.36031 0.49382
 Cu216 Cu 0.43411 0.45780 0.51293
 Cu217 Cu 0.49581 0.43489 0.46116
 Cu218 Cu 0.44764 0.50557 0.44546
 N219 N 0.40393 0.49327 0.50081
 N220 N 0.40875 0.51164 0.47370
 C221 C 0.38429 0.53442 0.47120
 C222 C 0.36307 0.52981 0.49830
 C223 C 0.37628 0.50354 0.51653
 H224 H 0.38259 0.55324 0.45160
 H225 H 0.36665 0.49289 0.53966
 N226 N 0.48405 0.49127 0.41574
 N227 N 0.50261 0.46457 0.42149
 C228 C 0.52532 0.46205 0.39659
 C229 C 0.52065 0.48851 0.37439
 C230 C 0.49439 0.50634 0.38728
 H231 H 0.54386 0.44259 0.39489
 H232 H 0.48373 0.52883 0.37660
 H233 H 0.47913 0.48040 0.47806
 H234 H 0.44934 0.45452 0.45363
 N235 N -0.01566 -0.11000 0.95888
 N236 N -0.03862 -0.10078 0.98049
 C237 C -0.03769 -0.12147 1.00748
 C238 C -0.01241 -0.14447 1.00238
 C239 C 0.00106 -0.13633 0.97144
 H240 H -0.05350 -0.11928 1.02944
 H241 H 0.02154 -0.14865 0.95897
 Cu242 Cu -0.06651 -0.06164 0.97153
 Cu243 Cu -0.00981 -0.08737 0.91603
 Cu244 Cu -0.02744 -0.00572 0.91764
 N245 N -0.08063 -0.01472 0.96654
 N246 N -0.06501 0.00678 0.94703
 C247 C -0.08080 0.03642 0.94842
 C248 C -0.10770 0.03340 0.96959
 C249 C -0.10679 0.00064 0.98082
 H250 H -0.07402 0.05830 0.93405
 H251 H -0.12403 -0.01135 0.99769
 N252 N -0.00075 -0.02566 0.88171
 N253 N 0.00457 -0.05802 0.88035
 C254 C 0.02290 -0.06528 0.85297
 C255 C 0.02999 -0.03586 0.83660
 C256 C 0.01471 -0.01102 0.85546
 H257 H 0.03147 -0.08999 0.84612
 H258 H 0.01460 0.01551 0.85044
 H259 H -0.02408 -0.04234 0.95508
 H260 H -0.05572 -0.04799 0.92090
 N261 N 1.01591 0.58987 0.98112
 N262 N 1.04152 0.58734 1.00166
 C263 C 1.04002 0.61240 1.02463
 C264 C 1.01186 0.63125 1.01774
 C265 C 0.99734 0.61621 0.99013
 H266 H 1.05757 0.61621 1.04507
 H267 H 0.97451 0.62372 0.97785
 Cu268 Cu 1.07324 0.55071 0.99623
 Cu269 Cu 1.00716 0.55864 0.94490
 Cu270 Cu 1.06060 0.49186 0.93568
 N271 N 1.10246 0.51204 0.99135
 N272 N 1.09734 0.48941 0.96768
 C273 C 1.12112 0.46588 0.96959
 C274 C 1.14236 0.47414 0.99591
 C275 C 1.12977 0.50351 1.00920
 H276 H 1.12282 0.44451 0.95291
 H277 H 1.13999 0.51767 1.03012
 N278 N 1.02187 0.49904 0.90591
 N279 N 1.00183 0.52483 0.90961
 C280 C 0.97755 0.52312 0.88635
 C281 C 0.98232 0.49479 0.86698
 C282 C 1.01070 0.48009 0.87995
 H283 H 0.95770 0.54108 0.88403
 H284 H 1.02205 0.45712 0.87132
 H285 H 1.03057 0.51802 0.96811
 H286 H 1.05574 0.54269 0.93742
 N287 N 0.49797 0.08854 0.47770
 N288 N 0.51969 0.08047 0.50128
 C289 C 0.51843 0.10286 0.52658
 C290 C 0.49501 0.12679 0.51836
 C291 C 0.48225 0.11681 0.48722
 H292 H 0.53477 0.10269 0.54836
 H293 H 0.46427 0.13010 0.47182
 Cu294 Cu 0.55232 0.04595 0.49400
 Cu295 Cu 0.49530 0.06341 0.43505
 Cu296 Cu 0.53822 -0.01242 0.43545
 N297 N 0.58415 0.01098 0.48543
 N298 N 0.57899 -0.01191 0.46211
 C299 C 0.60514 -0.03287 0.46138
 C300 C 0.62782 -0.02208 0.48549
 C301 C 0.61369 0.00564 0.50020
 H302 H 0.60734 -0.05418 0.44464
 H303 H 0.62439 0.02087 0.52006
 N304 N 0.50353 -0.00135 0.40201
 N305 N 0.48777 0.02762 0.40119
 C306 C 0.46601 0.02736 0.37513
 C307 C 0.46838 -0.00323 0.35883
 C308 C 0.49234 -0.02070 0.37653
 H309 H 0.44935 0.04768 0.36896
 H310 H 0.50094 -0.04577 0.37122
 H311 H 0.50734 0.02161 0.46115
 H312 H 0.54081 0.03810 0.43360
 N313 N -0.03906 0.11819 0.50211
 N314 N -0.05638 0.10079 0.48007
 C315 C -0.05883 0.11810 0.45082
 C316 C -0.04238 0.14804 0.45495
 C317 C -0.03026 0.14730 0.48792
 H318 H -0.07111 0.10937 0.42802
 H319 H -0.01497 0.16576 0.50033
 Cu320 Cu -0.07360 0.05707 0.49219
 Cu321 Cu -0.02689 0.10045 0.54653
 Cu322 Cu -0.02868 0.01407 0.54910
 N323 N -0.08695 0.01282 0.50709
 N324 N -0.06879 -0.00433 0.52879
 C325 C -0.08321 -0.03396 0.53456
 C326 C -0.11224 -0.03524 0.51596
 C327 C -0.11383 -0.00511 0.49868
 H328 H -0.07371 -0.05282 0.55174
 H329 H -0.13303 0.00326 0.48143
 N330 N -0.00072 0.04110 0.57957
 N331 N -0.00200 0.07402 0.58006
 C332 C 0.01751 0.08536 0.60525
 C333 C 0.03205 0.05833 0.62117
 C334 C 0.01996 0.03056 0.60434
 H335 H 0.02115 0.11141 0.61133
 H336 H 0.02485 0.00467 0.61038
 H337 H -0.01989 0.05734 0.52076
 H338 H -0.05497 0.05676 0.55131
 N339 N 0.49087 0.57617 -0.01782
 N340 N 0.47011 0.55741 -0.03505
 C341 C 0.46262 0.57247 -0.06472
 C342 C 0.47908 0.60251 -0.06585
 C343 C 0.49682 0.60409 -0.03570
 H344 H 0.44641 0.56240 -0.08406
 H345 H 0.51377 0.62347 -0.02799
 Cu346 Cu 0.45451 0.51520 -0.01721
 Cu347 Cu 0.51090 0.56156 0.02496
 Cu348 Cu 0.47822 0.49050 0.06094
 N349 N 0.43171 0.47991 0.00691
 N350 N 0.44194 0.46955 0.03687
 C351 C 0.42255 0.44449 0.04736
 C352 C 0.39859 0.43924 0.02297
 C353 C 0.40504 0.46211 -0.00247
 H354 H 0.42514 0.43153 0.07132
 H355 H 0.39159 0.46538 -0.02607
 N356 N 0.51492 0.51521 0.08152
 N357 N 0.52773 0.54228 0.06797
 C358 C 0.55297 0.55266 0.08784
 C359 C 0.55572 0.53129 0.11532
 C360 C 0.53127 0.50784 0.11038
 H361 H 0.56834 0.57402 0.08272
 H362 H 0.52622 0.48647 0.12620
 H363 H 0.50299 0.51118 0.01975
 H364 H 0.46873 0.53665 0.03865
 N365 N 0.51425 -0.10943 0.01223
 N366 N 0.53376 -0.09891 -0.01207
 C367 C 0.53566 -0.12224 -0.03663
 C368 C 0.51665 -0.14911 -0.02698
 C369 C 0.50353 -0.14024 0.00420
 H370 H 0.55147 -0.12074 -0.05863
 H371 H 0.48808 -0.15544 0.02023
 Cu372 Cu 0.55919 -0.05842 -0.00711
 Cu373 Cu 0.50591 -0.08279 0.05316
 Cu374 Cu 0.54354 -0.00532 0.05625
 N375 N 0.59172 -0.02602 0.00768
 N376 N 0.58577 -0.00514 0.03270
 C377 C 0.61215 0.01479 0.03716
 C378 C 0.63591 0.00559 0.01365
 C379 C 0.62207 -0.02028 -0.00461
 H380 H 0.61364 0.03460 0.05576
 H381 H 0.63319 -0.03375 -0.02551
 N382 N 0.50773 -0.01806 0.08699
 N383 N 0.49353 -0.04765 0.08650
 C384 C 0.46985 -0.04821 0.11055
 C385 C 0.46941 -0.01745 0.12682
 C386 C 0.49372 0.00086 0.11122
 H387 H 0.45387 -0.06917 0.11545
 H388 H 0.50060 0.02628 0.11705
 H389 H 0.51361 -0.03892 0.02834
 H390 H 0.54924 -0.05530 0.05380
 N391 N 1.00821 0.44778 0.52022
 N392 N 1.03845 0.44696 0.50778
 C393 C 1.04009 0.42284 0.48382
 C394 C 1.00932 0.40787 0.48133
 C395 C 0.98986 0.42444 0.50459
 H396 H 1.06220 0.41604 0.47010
 H397 H 0.96456 0.41865 0.51092
 Cu398 Cu 1.07400 0.47602 0.52555
 Cu399 Cu 0.99505 0.47510 0.55959
 Cu400 Cu 1.05685 0.51563 0.59855
 N401 N 1.09992 0.51453 0.54087
 N402 N 1.09346 0.52913 0.57006
 C403 C 1.11645 0.55240 0.57645
 C404 C 1.13836 0.55284 0.54979
 C405 C 1.12724 0.52844 0.52748
 H406 H 1.11759 0.56756 0.59918
 H407 H 1.13900 0.52034 0.50425
 N408 N 1.01475 0.50838 0.62075
 N409 N 0.99050 0.49258 0.60546
 C410 C 0.96415 0.49173 0.62621
 C411 C 0.97251 0.50792 0.65614
 C412 C 1.00470 0.51823 0.65172
 H413 H 0.94077 0.48034 0.61982
 H414 H 1.01960 0.53199 0.66975
 H415 H 1.03544 0.50273 0.54196
 H416 H 1.04432 0.46445 0.56756
 C417 C 0.36125 -0.01004 0.24203
 C418 C 0.13523 0.01710 0.73404
 C419 C 0.62259 0.48830 0.25359
 C420 C 0.86100 0.49085 0.76646
 C421 C 0.26103 0.37159 -0.00326
 C422 C 0.75956 0.10026 0.02028
 C423 C 0.25484 0.64278 0.49606
 C424 C 0.75498 0.88706 0.48740
 C425 C 0.01196 0.27948 0.38738
 C426 C -0.00959 0.74963 0.12046
 C427 C 0.52315 0.24518 0.61950
 C428 C 0.50191 0.73998 0.86081
 C429 C 0.10013 0.27703 0.30065
 C430 C 0.08347 0.26136 0.32503
 C431 C 0.05603 0.27809 0.34275
 C432 C 0.04034 0.26300 0.36826
 H433 H 0.09002 0.23605 0.33209
 H434 H 0.04851 0.30299 0.33506
 H435 H 0.09347 0.30245 0.29401
 H436 H 0.04836 0.23817 0.37575
 C437 C 0.59364 0.75209 0.77869
 C438 C 0.57986 0.73447 0.80368
 C439 C 0.54859 0.74589 0.81927
 C440 C 0.53463 0.72922 0.84493
 H441 H 0.59135 0.71154 0.81243
 H442 H 0.53645 0.76806 0.80938
 H443 H 0.58188 0.77514 0.77053
 H444 H 0.54740 0.70745 0.85496
 C445 C 0.39128 0.77435 0.81927
 C446 C 0.41870 0.75637 0.81369
 C447 C 0.44492 0.75470 0.83995
 C448 C 0.47478 0.74140 0.83374
 H449 H 0.42216 0.74360 0.78969
 H450 H 0.44000 0.76525 0.86482
 H451 H 0.38886 0.78784 0.84303
 H452 H 0.47944 0.73048 0.80898
 C453 C -0.06713 0.25995 0.29175
 C454 C -0.05576 0.27940 0.31694
 C455 C -0.02579 0.27051 0.33646
 C456 C -0.01675 0.28860 0.36367
 H457 H -0.06907 0.30177 0.32423
 H458 H -0.01174 0.24857 0.32920
 H459 H -0.05345 0.23759 0.28499
 H460 H -0.03220 0.30971 0.37059
 C461 C -0.10212 0.75500 0.20108
 C462 C -0.08475 0.73695 0.17896
 C463 C -0.05761 0.75235 0.16010
 C464 C -0.03791 0.73416 0.14012
 H465 H -0.08998 0.71071 0.17529
 H466 H -0.05328 0.77891 0.16278
 H467 H -0.09600 0.78103 0.20506
 H468 H -0.04235 0.70757 0.13787
 C469 C 0.41925 0.21072 0.67627
 C470 C 0.44344 0.23299 0.67276
 C471 C 0.47177 0.22571 0.65062
 C472 C 0.49363 0.24949 0.64316
 H473 H 0.44223 0.25690 0.68556
 H474 H 0.47425 0.20083 0.64022
 H475 H 0.42084 0.18729 0.66252
 H476 H 0.49034 0.27401 0.65444
 C477 C 0.59955 0.22252 0.71677
 C478 C 0.59040 0.24031 0.68938
 C479 C 0.56216 0.23115 0.66763
 C480 C 0.55385 0.25061 0.64114
 H481 H 0.60341 0.26288 0.68284
 H482 H 0.54744 0.20949 0.67379
 H483 H 0.58680 0.19952 0.72256
 H484 H 0.56884 0.27244 0.63618
 C485 C 0.05535 0.76241 0.22655
 C486 C 0.04774 0.77308 0.19536
 C487 C 0.02474 0.75448 0.17356
 C488 C 0.01378 0.76777 0.14442
 H489 H 0.05822 0.79600 0.18580
 H490 H 0.01639 0.73004 0.18142
 H491 H 0.04404 0.73995 0.23630
 H492 H 0.02286 0.79212 0.13705
 C493 C 0.27691 0.07960 0.25166
 C494 C 0.29789 0.06242 0.23206
 C495 C 0.31746 0.03449 0.24625
 C496 C 0.33918 0.01744 0.22726
 H497 H 0.30115 0.06924 0.20568
 H498 H 0.31471 0.02813 0.27286
 H499 H 0.27389 0.07237 0.27799
 H500 H 0.34182 0.02415 0.20072
 C501 C 0.81557 0.60056 0.73454
 C502 C 0.81010 0.57158 0.75005
 C503 C 0.83763 0.54764 0.75422
 C504 C 0.83264 0.51585 0.76299
 H505 H 0.78534 0.56487 0.75776
 H506 H 0.86254 0.55597 0.74915
 H507 H 0.84015 0.60585 0.72519
 H508 H 0.80757 0.50788 0.76805
 C509 C 0.78398 0.39629 0.75691
 C510 C 0.81061 0.40956 0.77153
 C511 C 0.82421 0.44113 0.75907
 C512 C 0.84732 0.45719 0.77699
 H513 H 0.82166 0.39793 0.79371
 H514 H 0.81448 0.45204 0.73586
 H515 H 0.77252 0.40870 0.73535
 H516 H 0.85615 0.44585 0.80042
 C517 C 0.26359 -0.08310 0.24951
 C518 C 0.29380 -0.07572 0.26108
 C519 C 0.31382 -0.05036 0.24365
 C520 C 0.34036 -0.03698 0.25868
 H521 H 0.30345 -0.08736 0.28393
 H522 H 0.30619 -0.04166 0.21872
 H523 H 0.25426 -0.07005 0.22725
 H524 H 0.34751 -0.04611 0.28362
 C525 C 0.16816 -0.10259 0.73264
 C526 C 0.17567 -0.07097 0.74010
 C527 C 0.15182 -0.04395 0.73274
 C528 C 0.15928 -0.01203 0.73900
 H529 H 0.19948 -0.06475 0.75102
 H530 H 0.12809 -0.05040 0.72186
 H531 H 0.14422 -0.10790 0.72139
 H532 H 0.18319 -0.00689 0.75043
 C533 C 0.71588 0.40796 0.26175
 C534 C 0.69098 0.42108 0.24373
 C535 C 0.67072 0.44848 0.25762
 C536 C 0.64541 0.46120 0.23975
 H537 H 0.68521 0.41145 0.21868
 H538 H 0.67607 0.45809 0.28281
 H539 H 0.72152 0.41795 0.28672
 H540 H 0.64044 0.45111 0.21463
 C541 C 0.71407 0.57110 0.24862
 C542 C 0.68557 0.56083 0.26188
 C543 C 0.66958 0.52994 0.25000
 C544 C 0.64085 0.52019 0.26340
 H545 H 0.67391 0.57512 0.28192
 H546 H 0.68144 0.51516 0.23044
 H547 H 0.72542 0.55680 0.22836
 H548 H 0.62930 0.53646 0.28196
 C549 C 0.20726 0.10370 0.78440
 C550 C 0.19418 0.08931 0.75690
 C551 C 0.17200 0.06064 0.76002
 C552 C 0.15565 0.04884 0.73293
 H553 H 0.19989 0.09864 0.73179
 H554 H 0.16970 0.04846 0.78447
 H555 H 0.20032 0.09524 0.80951
 H556 H 0.15918 0.06101 0.70858
 C557 C 0.23365 0.28002 0.07477
 C558 C 0.23831 0.31283 0.07120
 C559 C 0.24077 0.32767 0.03715
 C560 C 0.25698 0.35627 0.03196
 H561 H 0.24140 0.32861 0.09336
 H562 H 0.23020 0.31426 0.01582
 H563 H 0.23282 0.26416 0.05246
 H564 H 0.26682 0.36956 0.05379
 C565 C 0.76687 0.80001 0.57582
 C566 C 0.75437 0.82950 0.56656
 C567 C 0.76480 0.84511 0.53454
 C568 C 0.74930 0.87230 0.52265
 H569 H 0.73508 0.84121 0.58145
 H570 H 0.78392 0.83307 0.51967
 H571 H 0.78595 0.78848 0.56045
 H572 H 0.73102 0.88413 0.53880
 C573 C 0.74417 0.78400 0.41813
 C574 C 0.76143 0.81083 0.42768
 C575 C 0.75015 0.83331 0.45480
 C576 C 0.76701 0.86120 0.46190
 H577 H 0.78404 0.81715 0.41469
 H578 H 0.72749 0.82789 0.46821
 H579 H 0.72185 0.77737 0.43156
 H580 H 0.78933 0.86634 0.44771
 C581 C 0.29535 0.33088 -0.11712
 C582 C 0.28554 0.32483 -0.08537
 C583 C 0.27708 0.35191 -0.06166
 C584 C 0.27117 0.34504 -0.02897
 H585 H 0.28344 0.29934 -0.07654
 H586 H 0.27516 0.37734 -0.07086
 H587 H 0.29879 0.35634 -0.12557
 H588 H 0.27449 0.31950 -0.02050
 C589 C 0.76649 0.18887 -0.06863
 C590 C 0.75230 0.16164 -0.05595
 C591 C 0.76447 0.14597 -0.02430
 C592 C 0.74997 0.11841 -0.01251
 H593 H 0.73113 0.15088 -0.06876
 H594 H 0.78483 0.15718 -0.01051
 H595 H 0.78788 0.19930 -0.05588
 H596 H 0.73047 0.10759 -0.02794
 C597 C 0.19410 0.73687 0.44327
 C598 C 0.22279 0.72086 0.44779
 C599 C 0.22533 0.69307 0.47221
 C600 C 0.25145 0.67242 0.47212
 H601 H 0.24369 0.72656 0.43176
 H602 H 0.20499 0.68847 0.48933
 H603 H 0.17288 0.72965 0.45819
 H604 H 0.27167 0.67806 0.45511
 C605 C 0.23363 0.69219 0.60959
 C606 C 0.25534 0.68235 0.58620
 C607 C 0.24375 0.66910 0.55330
 C608 C 0.26503 0.65635 0.53082
 H609 H 0.28163 0.68446 0.59102
 H610 H 0.21753 0.66939 0.54757
 H611 H 0.20742 0.68984 0.60429
 H612 H 0.29123 0.65729 0.53683
 C613 C 0.75732 0.20080 0.09471
 C614 C 0.77124 0.17174 0.08587
 C615 C 0.75745 0.15120 0.05808
 C616 C 0.77307 0.12344 0.04775
 H617 H 0.79314 0.16292 0.09912
 H618 H 0.73444 0.15866 0.04597
 H619 H 0.73582 0.20975 0.08082
 H620 H 0.79584 0.11633 0.06062
 C621 C 0.46855 0.33203 0.55065
 C622 C 0.49565 0.31347 0.55521
 C623 C 0.49490 0.28576 0.57966
 C624 C 0.52270 0.27184 0.59180
 H625 H 0.51869 0.32033 0.54325
 H626 H 0.47113 0.27786 0.58919
 H627 H 0.44629 0.32593 0.56448
 H628 H 0.54609 0.27947 0.58102
 C629 C -0.00038 0.82878 0.02488
 C630 C -0.01834 0.81650 0.05019
 C631 C -0.00477 0.79006 0.07219
 C632 C -0.02364 0.77474 0.09508
 H633 H -0.04313 0.82583 0.05462
 H634 H 0.02116 0.78341 0.07022
 H635 H 0.02386 0.81829 0.01981
 H636 H -0.04952 0.78177 0.09667
 C637 C -0.00234 0.66012 0.03556
 C638 C 0.01254 0.67610 0.06104
 C639 C -0.00467 0.70418 0.07749
 C640 C 0.00933 0.72209 0.10226
 H641 H 0.03689 0.66851 0.06976
 H642 H -0.02972 0.71021 0.06955
 H643 H -0.02650 0.66862 0.02701
 H644 H 0.03422 0.71579 0.11052
 C645 C 0.48862 0.15856 0.53625
 C646 C 0.50748 0.16829 0.56247
 C647 C 0.50343 0.20104 0.57874
 C648 C 0.52520 0.21120 0.60236
 H649 H 0.52734 0.15245 0.57160
 H650 H 0.48301 0.21704 0.57119
 H651 H 0.46924 0.17486 0.52671
 H652 H 0.54532 0.19451 0.60938
 C653 C -0.03671 0.17343 0.42851
 C654 C -0.02202 0.20254 0.43522
 C655 C -0.01414 0.22621 0.40786
 C656 C 0.00020 0.25555 0.41480
 H657 H -0.01499 0.20881 0.46102
 H658 H -0.01899 0.21903 0.38181
 H659 H -0.04428 0.16766 0.40271
 H660 H 0.00556 0.26151 0.44116
 C661 C 0.47961 0.62621 0.90557
 C662 C 0.48572 0.65855 0.91049
 C663 C 0.49009 0.68177 0.88189
 C664 C 0.49165 0.71465 0.88768
 H665 H 0.48859 0.66798 0.93617
 H666 H 0.49435 0.67198 0.85660
 H667 H 0.47484 0.61690 0.88016
 H668 H 0.48474 0.72341 0.91272
 C669 C 0.51456 0.81796 0.95649
 C670 C 0.51912 0.81364 0.92310
 C671 C 0.51783 0.77994 0.90820
 C672 C 0.50658 0.77469 0.87648
 H673 H 0.52266 0.83497 0.90664
 H674 H 0.52490 0.75914 0.92425
 H675 H 0.50848 0.79671 0.97223
 H676 H 0.50051 0.79624 0.86092
 C677 C -0.00142 0.37868 0.46132
 C678 C 0.01859 0.36042 0.44167
 C679 C 0.00576 0.33040 0.42438
 C680 C 0.02483 0.31115 0.40454
 H681 H 0.04432 0.36711 0.43887
 H682 H -0.01978 0.32347 0.42838
 H683 H -0.02704 0.37133 0.46383
 H684 H 0.05046 0.31816 0.40114
 C685 C 0.33370 0.54928 0.50790
 C686 C 0.32178 0.57421 0.48897
 C687 C 0.29387 0.59443 0.50111
 C688 C 0.28228 0.62023 0.48301
 H689 H 0.33312 0.58041 0.46495
 H690 H 0.28345 0.58901 0.52578
 H691 H 0.32192 0.54323 0.53178
 H692 H 0.29282 0.62486 0.45817
 C693 C 0.86753 0.05967 -0.02348
 C694 C 0.83932 0.05366 -0.00717
 C695 C 0.81467 0.08035 -0.00170
 C696 C 0.78564 0.07366 0.01289
 H697 H 0.83397 0.02874 0.00177
 H698 H 0.82026 0.10557 -0.00955
 H699 H 0.87232 0.08454 -0.03301
 H700 H 0.78124 0.04830 0.02135
 C701 C 0.66852 0.02021 0.00713
 C702 C 0.68186 0.04444 0.02603
 C703 C 0.71378 0.05874 0.01605
 C704 C 0.72852 0.08332 0.03356
 H705 H 0.66912 0.05413 0.04810
 H706 H 0.72517 0.04971 -0.00712
 H707 H 0.68196 0.01071 -0.01463
 H708 H 0.71673 0.09279 0.05633
 C709 C 0.16883 0.57274 0.54889
 C710 C 0.18325 0.58266 0.52021
 C711 C 0.21340 0.60315 0.52192
 C712 C 0.22303 0.62222 0.49586
 H713 H 0.17232 0.57664 0.49577
 H714 H 0.22761 0.60297 0.54533
 H715 H 0.17883 0.58101 0.57308
 H716 H 0.20868 0.62150 0.47250
 C717 C 0.17252 0.45652 0.00738
 C718 C 0.18412 0.42915 -0.00810
 C719 C 0.21509 0.41316 0.00328
 C720 C 0.22828 0.38736 -0.01373
 H721 H 0.17122 0.41878 -0.02981
 H722 H 0.22788 0.42306 0.02535
 H723 H 0.18590 0.46684 0.02886
 H724 H 0.21523 0.37754 -0.03569
 C725 C 0.66021 0.96406 0.49493
 C726 C 0.67441 0.93863 0.47866
 C727 C 0.70679 0.92625 0.49018
 C728 C 0.72221 0.90109 0.47443
 H729 H 0.66229 0.92699 0.45713
 H730 H 0.71825 0.93767 0.51226
 H731 H 0.67297 0.97558 0.51619
 H732 H 0.71041 0.88989 0.45240
 C733 C 0.86386 0.93706 0.51598
 C734 C 0.83399 0.93955 0.50149
 C735 C 0.81043 0.91162 0.50229
 C736 C 0.77998 0.91526 0.48926
 H737 H 0.82655 0.96256 0.48914
 H738 H 0.81801 0.88797 0.51324
 H739 H 0.87085 0.91423 0.52897
 H740 H 0.77350 0.93901 0.47769
 C741 C 0.37216 0.41432 0.02471
 C742 C 0.34417 0.41737 0.00693
 C743 C 0.31808 0.39217 0.00966
 C744 C 0.28776 0.39809 -0.00268
 H745 H 0.34011 0.43894 -0.00920
 H746 H 0.32368 0.36844 0.02166
 H747 H 0.37530 0.39366 0.04223
 H748 H 0.28286 0.42177 -0.01515
 C749 C 0.53901 0.49781 0.34369
 C750 C 0.56408 0.48008 0.33090
 C751 C 0.58083 0.49214 0.30016
 C752 C 0.60534 0.47508 0.28521
 H753 H 0.57215 0.45708 0.34285
 H754 H 0.57281 0.51568 0.28921
 H755 H 0.53132 0.52062 0.33103
 H756 H 0.61331 0.45159 0.29633
 C757 C 0.05027 -0.03304 0.80598
 C758 C 0.06628 -0.00525 0.79771
 C759 C 0.08825 -0.00538 0.76814
 C760 C 0.11095 0.01827 0.76355
 H761 H 0.06455 0.01680 0.81359
 H762 H 0.08628 -0.02575 0.75021
 H763 H 0.05388 -0.05545 0.79095
 H764 H 0.11226 0.03850 0.78180
 C765 C 0.05404 0.05997 0.65099
 C766 C 0.07302 0.03443 0.66108
 C767 C 0.09339 0.03751 0.69199
 C768 C 0.11604 0.01449 0.70067
 H769 H 0.07349 0.01134 0.64674
 H770 H 0.08950 0.05887 0.70847
 H771 H 0.05491 0.08335 0.66485
 H772 H 0.12048 -0.00630 0.68364
 C773 C 0.58048 0.53234 0.14299
 C774 C 0.57667 0.51451 0.17138
 C775 C 0.60219 0.51288 0.19815
 C776 C 0.59647 0.49558 0.22662
 H777 H 0.55435 0.50018 0.17492
 H778 H 0.62589 0.52457 0.19407
 H779 H 0.60215 0.54777 0.13985
 H780 H 0.57279 0.48322 0.22904
 C781 C 0.44801 -0.00493 0.15433
 C782 C 0.42475 -0.02308 0.16953
 C783 C 0.40461 -0.00812 0.19684
 C784 C 0.38184 -0.02559 0.21371
 H785 H 0.42063 -0.04874 0.16204
 H786 H 0.40857 0.01780 0.20358
 H787 H 0.45178 0.02064 0.16245
 H788 H 0.37781 -0.05148 0.20681
 C789 C 0.95244 0.51376 0.68671
 C790 C 0.92313 0.49945 0.69183
 C791 C 0.90538 0.50520 0.72390
 C792 C 0.87882 0.48722 0.73243
 H793 H 0.91280 0.48263 0.67307
 H794 H 0.91497 0.52379 0.74129
 H795 H 0.96283 0.52971 0.70626
 H796 H 0.86933 0.46939 0.71414
 C797 C 0.96128 0.48235 0.83910
 C798 C 0.93335 0.49811 0.83018
 C799 C 0.91200 0.48589 0.80271
 C800 C 0.88416 0.50240 0.79464
 H801 H 0.92570 0.52053 0.84335
 H802 H 0.91891 0.46355 0.78884
 H803 H 0.96873 0.45978 0.82594
 H804 H 0.87757 0.52450 0.80914
 C805 C 0.44926 -0.01613 0.32972
 C806 C 0.42684 0.00215 0.31290
 C807 C 0.40724 -0.01261 0.28512
 C808 C 0.38392 0.00517 0.26889
 H809 H 0.42236 0.02789 0.32002
 H810 H 0.41111 -0.03859 0.27842
 H811 H 0.45359 -0.04181 0.32217
 H812 H 0.38028 0.03107 0.27611
   
